drugbank_target|O60840 Voltage-dependent L-type calcium channel subunit alpha-1F (DB00252; DB00653; DB00825; DB09089; DB09231; DB09232; DB09236; DB09238; DB13746)
 OpenBabel12092120093D

  0  0  0     0  0            999 V3000
M  V30 BEGIN CTAB
M  V30 COUNTS 31012 31368 0 0 0
M  V30 BEGIN ATOM
M  V30 1 H -0.908 1.98254 -0.117106 0
M  V30 2 N 0 1.576 0 0
M  V30 3 C 0.933 2.03868 1.02534 0
M  V30 4 C 1.911 0.928543 1.3348 0
M  V30 5 O 3.095 1.19667 1.45644 0
M  V30 6 C 0.222 2.43627 2.35294 0
M  V30 7 C -0.732 3.65373 2.2001 0
M  V30 8 S 0.101 5.13292 1.52614 0
M  V30 9 C 1.257 5.56322 2.86805 0
M  V30 10 H 1.49 2.90518 0.631377 0
M  V30 11 H -0.977 1.52953 0.210867 0
M  V30 12 H 0.981 2.67203 3.11629 0
M  V30 13 H -0.358 1.57376 2.7183 0
M  V30 14 H -1.165 3.90944 3.18086 0
M  V30 15 H -1.563 3.418 1.51819 0
M  V30 16 H 0.729 5.58782 3.83104 0
M  V30 17 H 1.672 6.56266 2.65933 0
M  V30 18 H 2.08 4.83886 2.90714 0
M  V30 19 N 1.4781 -0.272755 1.55222 0
M  V30 20 C 2.7031 -1.02683 1.80197 0
M  V30 21 C 3.1281 -1.79142 0.573551 0
M  V30 22 O 2.4861 -1.74917 -0.476849 0
M  V30 23 C 2.5341 -1.9609 3.02624 0
M  V30 24 O 1.6381 -3.04863 2.77727 0
M  V30 25 H 0.9791 -0.293557 0.595584 0
M  V30 26 H 3.5091 -0.30159 2.02365 0
M  V30 27 H 3.5191 -2.38039 3.31363 0
M  V30 28 H 2.1941 -1.39851 3.91682 0
M  V30 29 H 0.7711 -2.67228 2.60084 0
M  V30 30 N 2.9562 -1.48159 -0.537278 0
M  V30 31 C 3.8662 -1.64807 -1.6696 0
M  V30 32 C 4.8822 -0.530651 -1.65711 0
M  V30 33 O 6.0582 -0.800784 -1.84796 0
M  V30 34 C 3.1232 -1.67708 -3.03438 0
M  V30 35 C 2.1842 -2.91025 -3.156 0
M  V30 36 C 1.4172 -2.93778 -4.45567 0
M  V30 37 O 1.6402 -2.05153 -5.3223 0
M  V30 38 O 0.5742 -3.85868 -4.61941 0
M  V30 39 H 4.4002 -2.6066 -1.55853 0
M  V30 40 H 1.9852 -1.31475 -0.709549 0
M  V30 41 H 3.8672 -1.7218 -3.84619 0
M  V30 42 H 2.5422 -0.750278 -3.14885 0
M  V30 43 H 1.4492 -2.92089 -2.33741 0
M  V30 44 H 2.7822 -3.83065 -3.09066 0
M  V30 45 N 4.4343 0.785586 -1.36625 0
M  V30 46 C 5.6593 1.57963 -1.34397 0
M  V30 47 C 6.0843 1.87964 0.071526 0
M  V30 48 O 5.4423 1.48182 1.0446 0
M  V30 49 C 5.4903 2.87511 -2.17646 0
M  V30 50 O 4.5943 3.81281 -1.57158 0
M  V30 51 H 3.9353 0.479014 -0.459828 0
M  V30 52 H 6.4653 0.973411 -1.79961 0
M  V30 53 H 6.4753 3.36745 -2.30362 0
M  V30 54 H 5.1503 2.65002 -3.20541 0
M  V30 55 H 3.7273 3.39885 -1.53403 0
M  V30 56 N 5.9124 1.20967 1.01018 0
M  V30 57 C 6.8224 0.980157 2.13143 0
M  V30 58 C 7.8384 -0.0660665 1.73875 0
M  V30 59 O 9.0144 0.122821 2.01025 0
M  V30 60 C 6.0794 0.54216 3.42435 0
M  V30 61 C 5.1404 1.65999 3.95908 0
M  V30 62 C 4.3734 1.2428 5.19028 0
M  V30 63 O 4.5964 0.114196 5.70286 0
M  V30 64 O 3.5304 2.05271 5.65816 0
M  V30 65 H 7.3564 1.91913 2.35379 0
M  V30 66 H 4.9414 0.994099 1.11526 0
M  V30 67 H 6.8234 0.30744 4.20277 0
M  V30 68 H 5.4984 -0.36815 3.216 0
M  V30 69 H 4.4054 1.94906 3.19316 0
M  V30 70 H 5.7384 2.54753 4.21143 0
M  V30 71 N 7.3905 -1.2043 1.01659 0
M  V30 72 C 8.6385 -1.89423 0.704522 0
M  V30 73 C 8.9595 -1.79231 -0.768197 0
M  V30 74 O 8.2295 -1.1947 -1.55254 0
M  V30 75 H 6.8095 -0.701178 0.257602 0
M  V30 76 H 9.4715 -1.4626 1.28818 0
M  V30 77 H 8.5675 -2.96052 0.987916 0
M  V30 78 N 8.8686 -0.792821 -1.36206 0
M  V30 79 C 10.1166 -0.366062 -1.98757 0
M  V30 80 C 10.4376 1.0668 -1.63231 0
M  V30 81 O 9.7076 1.73587 -0.907978 0
M  V30 82 H 8.2876 -0.132364 -0.735179 0
M  V30 83 H 10.9496 -1.01562 -1.66347 0
M  V30 84 H 10.0456 -0.460638 -3.08682 0
M  V30 85 N 10.3467 1.47872 -0.545128 0
M  V30 86 C 11.2937 2.29849 0.2093 0
M  V30 87 C 12.2637 1.38313 0.919707 0
M  V30 88 O 13.4487 1.67277 0.917772 0
M  V30 89 C 10.5887 3.22019 1.24088 0
M  V30 90 C 9.7017 4.2864 0.537778 0
M  V30 91 C 8.8367 5.07973 1.5536 0
M  V30 92 C 7.8757 6.06381 0.8348 0
M  V30 93 N 7.0127 6.78717 1.79688 0
M  V30 94 H 11.8527 2.93845 -0.49591 0
M  V30 95 H 9.3897 1.44848 -0.256389 0
M  V30 96 H 11.3477 3.73868 1.85144 0
M  V30 97 H 9.9777 2.59914 1.91428 0
M  V30 98 H 9.0297 3.7994 -0.187046 0
M  V30 99 H 10.3417 4.98793 -0.0258907 0
M  V30 100 H 9.4957 5.63912 2.23803 0
M  V30 101 H 8.2347 4.37693 2.15118 0
M  V30 102 H 7.2397 5.49631 0.136388 0
M  V30 103 H 8.4647 6.78665 0.24313 0
M  V30 104 H 6.4107 6.11177 2.38326 0
M  V30 105 H 6.3277 7.44998 1.28505 0
M  V30 106 H 7.5957 7.39237 2.47282 0
M  V30 107 N 11.8248 0.280983 1.55075 0
M  V30 108 C 13.1018 -0.386207 1.91749 0
M  V30 109 C 13.4818 -1.73264 1.20594 0
M  V30 110 O 12.8298 -2.26034 0.334784 0
M  V30 111 C 13.0398 -0.520687 3.45094 0
M  V30 112 C 14.3878 -0.800865 4.16979 0
M  V30 113 O 15.4118 -0.605271 3.5102 0
M  V30 114 O 14.2708 -1.1753 5.33712 0
M  V30 115 H 11.3648 -0.212408 0.799257 0
M  V30 116 H 13.9108 0.327568 1.66509 0
M  V30 117 H 12.6828 0.426633 3.88967 0
M  V30 118 H 12.3058 -1.2837 3.76307 0
M  V30 119 N 13.3029 -1.57598 0.00835791 0
M  V30 120 C 14.5309 -1.95214 -0.68549 0
M  V30 121 C 14.9459 -0.883706 -1.66841 0
M  V30 122 O 14.3029 0.136565 -1.81988 0
M  V30 123 C 14.3539 -3.32865 -1.41007 0
M  V30 124 O 14.0749 -4.35609 -0.466552 0
M  V30 125 C 15.5759 -3.84991 -2.19765 0
M  V30 126 H 12.7959 -0.643422 -0.190392 0
M  V30 127 H 15.3399 -2.04406 0.0619607 0
M  V30 128 H 13.4949 -3.24956 -2.10908 0
M  V30 129 H 13.9089 -5.15288 -0.978699 0
M  V30 130 H 15.3829 -4.8371 -2.65948 0
M  V30 131 H 15.8599 -3.18137 -3.02796 0
M  V30 132 H 16.4659 -3.96103 -1.54864 0
M  V30 133 N 14.781 0.264519 -1.55364 0
M  V30 134 C 16.009 1.013 -1.80405 0
M  V30 135 C 16.424 1.79618 -0.581622 0
M  V30 136 O 15.781 1.76879 0.449468 0
M  V30 137 C 15.832 1.96487 -3.03439 0
M  V30 138 O 15.553 1.21341 -4.20961 0
M  V30 139 C 17.054 2.83079 -3.41147 0
M  V30 140 H 14.274 0.298875 -0.600762 0
M  V30 141 H 16.818 0.292736 -2.02394 0
M  V30 142 H 14.973 2.63965 -2.83551 0
M  V30 143 H 15.387 1.85573 -4.90574 0
M  V30 144 H 16.861 3.4565 -4.30384 0
M  V30 145 H 17.338 3.53286 -2.60932 0
M  V30 146 H 17.944 2.2108 -3.63323 0
M  V30 147 N 16.2591 1.48442 0.529413 0
M  V30 148 C 17.6701 1.5002 1.11134 0
M  V30 149 C 18.0211 0.27031 1.94329 0
M  V30 150 O 17.1461 -0.622507 2.07253 0
M  V30 151 C 17.7411 2.71834 2.02217 0
M  V30 152 C 16.3001 2.76283 2.55627 0
M  V30 153 C 15.4471 2.43542 1.326 0
M  V30 154 H 18.3981 1.5555 0.314641 0
M  V30 155 H 18.4191 2.50384 2.8651 0
M  V30 156 H 17.9311 3.61331 1.41639 0
M  V30 157 H 16.0321 1.90995 3.19924 0
M  V30 158 H 16.1451 3.77725 2.94721 0
M  V30 159 H 14.5091 1.94709 1.64196 0
M  V30 160 H 15.2921 3.3528 0.737734 0
M  V30 161 N 17.7372 -0.778329 1.37039 0
M  V30 162 C 18.6472 -1.92253 1.34446 0
M  V30 163 C 19.6632 -1.72267 0.244991 0
M  V30 164 O 20.8392 -1.95615 0.479258 0
M  V30 165 C 17.9042 -3.27282 1.144 0
M  V30 166 C 16.9652 -3.59969 2.33925 0
M  V30 167 C 16.1982 -4.88555 2.14825 0
M  V30 168 O 16.4212 -5.59113 1.12912 0
M  V30 169 O 15.3552 -5.20153 3.02861 0
M  V30 170 H 19.1812 -1.97392 2.30803 0
M  V30 171 H 16.7662 -0.920154 1.17701 0
M  V30 172 H 18.6482 -4.08062 1.05182 0
M  V30 173 H 17.3232 -3.23011 0.211124 0
M  V30 174 H 16.2302 -2.7945 2.48714 0
M  V30 175 H 17.5632 -3.68976 3.25757 0
M  V30 176 N 19.2153 -1.21501 -1.00376 0
M  V30 177 C 20.6263 -1.03146 -1.55621 0
M  V30 178 C 20.9773 0.408375 -1.91903 0
M  V30 179 O 20.1023 1.29177 -1.73616 0
M  V30 180 C 20.6973 -1.86612 -2.82775 0
M  V30 181 C 19.2563 -1.72586 -3.34501 0
M  V30 182 C 18.4033 -1.83747 -2.07683 0
M  V30 183 H 21.3543 -1.35505 -0.826081 0
M  V30 184 H 21.3753 -1.3771 -3.54706 0
M  V30 185 H 20.8873 -2.91399 -2.56336 0
M  V30 186 H 18.9883 -0.704877 -3.65872 0
M  V30 187 H 19.1013 -2.54623 -4.05837 0
M  V30 188 H 17.4653 -1.27069 -2.20739 0
M  V30 189 H 18.2483 -2.90044 -1.83655 0
M  V30 190 N 20.6934 1.19889 -1.02296 0
M  V30 191 C 21.9184 1.9393 -0.735237 0
M  V30 192 C 22.3434 1.74639 0.698782 0
M  V30 193 O 21.7014 1.04481 1.48167 0
M  V30 194 C 21.7494 3.43916 -1.08417 0
M  V30 195 O 20.8534 4.11917 -0.199446 0
M  V30 196 H 20.1944 0.605645 -0.272196 0
M  V30 197 H 22.7244 1.52137 -1.36804 0
M  V30 198 H 22.7344 3.9456 -1.03856 0
M  V30 199 H 21.4094 3.5728 -2.12894 0
M  V30 200 H 19.9864 3.71666 -0.303136 0
M  V30 201 N 22.1715 0.800033 1.35784 0
M  V30 202 C 23.5825 0.439142 1.81462 0
M  V30 203 C 23.9335 -1.03813 1.66485 0
M  V30 204 O 23.0585 -1.80626 1.19177 0
M  V30 205 C 23.6535 0.790314 3.29453 0
M  V30 206 C 22.2125 0.482111 3.733 0
M  V30 207 C 21.3595 1.01938 2.57883 0
M  V30 208 H 24.3105 0.992254 1.23855 0
M  V30 209 H 24.3315 0.0853677 3.80404 0
M  V30 210 H 23.8435 1.86554 3.40322 0
M  V30 211 H 21.9445 -0.584652 3.67984 0
M  V30 212 H 22.0575 1.01015 4.6833 0
M  V30 213 H 20.4215 0.442043 2.50835 0
M  V30 214 H 21.2045 2.10059 2.71533 0
M  V30 215 N 23.6496 -1.47581 0.552962 0
M  V30 216 C 24.6126 -2.28439 -0.186605 0
M  V30 217 C 25.6126 -1.36706 -0.84665 0
M  V30 218 O 26.8026 -1.59378 -0.703164 0
M  V30 219 C 23.9346 -3.16264 -1.2724 0
M  V30 220 H 25.1276 -2.95294 0.523609 0
M  V30 221 H 22.6806 -1.532 0.309745 0
M  V30 222 H 23.4156 -2.54091 -2.01514 0
M  V30 223 H 23.2006 -3.83769 -0.803968 0
M  V30 224 H 24.6906 -3.77198 -1.79196 0
M  V30 225 N 25.1277 -0.289203 -1.54924 0
M  V30 226 C 26.0757 0.607966 -2.24514 0
M  V30 227 C 27.0697 1.14655 -1.24702 0
M  V30 228 O 28.2757 1.09856 -1.4259 0
M  V30 229 H 24.6507 0.21464 -0.720718 0
M  V30 230 H 26.6217 -0.00164182 -2.984 0
M  V30 231 C 25.3707 1.77406 -2.99036 0
M  V30 232 H 24.6937 1.36884 -3.75637 0
M  V30 233 H 26.1337 2.37814 -3.51028 0
M  V30 234 C 24.5927 2.67107 -2.05318 0
M  V30 235 O 25.1227 3.6787 -1.61353 0
M  V30 236 N 23.3287 2.34582 -1.71521 0
M  V30 237 H 22.8757 1.52688 -2.07471 0
M  V30 238 H 22.8337 2.94867 -1.0909 0
M  V30 239 N 26.6058 1.57591 -0.0167156 0
M  V30 240 C 27.8538 1.90906 0.663285 0
M  V30 241 C 28.1748 0.892509 1.73376 0
M  V30 242 O 27.4448 -0.0677623 1.95783 0
M  V30 243 H 26.0248 0.704637 0.247983 0
M  V30 244 H 28.6868 1.94803 -0.0615909 0
M  V30 245 H 27.7828 2.9116 1.12393 0
M  V30 246 N 28.0839 -0.256276 1.55502 0
M  V30 247 C 29.0469 -1.30047 1.88734 0
M  V30 248 C 30.0469 -1.4154 0.763086 0
M  V30 249 O 31.2369 -1.40403 1.03115 0
M  V30 250 C 28.3689 -2.67953 2.10747 0
M  V30 251 H 29.5619 -1.01802 2.82093 0
M  V30 252 H 27.1149 -0.495134 1.4825 0
M  V30 253 H 27.8499 -3.01351 1.19825 0
M  V30 254 H 27.6349 -2.60993 2.92617 0
M  V30 255 H 29.1249 -3.43368 2.37673 0
M  V30 256 N 29.562 -1.4872 -0.521534 0
M  V30 257 C 30.81 -1.56857 -1.27437 0
M  V30 258 C 31.131 -0.247982 -1.93417 0
M  V30 259 O 30.401 0.731151 -1.81744 0
M  V30 260 H 28.981 -0.577885 -0.473347 0
M  V30 261 H 31.643 -1.85233 -0.606205 0
M  V30 262 H 30.739 -2.35402 -2.0492 0
M  V30 263 N 31.0401 0.771051 -1.3745 0
M  V30 264 C 32.4511 1.34737 -1.29239 0
M  V30 265 C 32.8021 1.96109 0.0596908 0
M  V30 266 O 31.9271 1.93865 0.961534 0
M  V30 267 C 32.5221 2.44973 -2.34037 0
M  V30 268 C 31.0811 2.98372 -2.29458 0
M  V30 269 C 30.2281 1.71595 -2.17831 0
M  V30 270 H 33.1791 0.571256 -1.48062 0
M  V30 271 H 33.2001 3.24471 -1.98744 0
M  V30 272 H 32.7121 2.00276 -3.32432 0
M  V30 273 H 30.8131 3.47443 -1.34589 0
M  V30 274 H 30.9261 3.53939 -3.229 0
M  V30 275 H 29.2901 1.94547 -1.64388 0
M  V30 276 H 30.0731 1.29001 -3.18141 0
M  V30 277 N 32.5182 1.22032 0.997298 0
M  V30 278 C 33.7662 1.04016 1.73278 0
M  V30 279 C 34.0872 -0.426255 1.90284 0
M  V30 280 O 33.3572 -1.30694 1.45931 0
M  V30 281 H 31.9372 0.381897 0.642 0
M  V30 282 H 34.5992 1.5347 1.20137 0
M  V30 283 H 33.6952 1.51441 2.72896 0
M  V30 284 N 33.9963 -1.19345 1.0293 0
M  V30 285 C 35.4073 -1.70725 0.755633 0
M  V30 286 C 35.7583 -1.82326 -0.724676 0
M  V30 287 O 34.8833 -1.49471 -1.56484 0
M  V30 288 C 35.4783 -3.10084 1.36503 0
M  V30 289 C 34.0373 -3.58723 1.13994 0
M  V30 290 C 33.1843 -2.35577 1.46283 0
M  V30 291 H 36.1353 -1.0418 1.19718 0
M  V30 292 H 36.1563 -3.72787 0.762217 0
M  V30 293 H 35.6683 -3.01609 2.44241 0
M  V30 294 H 33.7693 -3.72512 0.0807901 0
M  V30 295 H 33.8823 -4.42816 1.82894 0
M  V30 296 H 32.2463 -2.38935 0.88217 0
M  V30 297 H 33.0293 -2.29731 2.55105 0
M  V30 298 N 35.4744 -0.807222 -1.35358 0
M  V30 299 C 36.3844 -0.219594 -2.3357 0
M  V30 300 C 37.4004 0.637734 -1.61892 0
M  V30 301 O 38.5764 0.549336 -1.93763 0
M  V30 302 C 35.6414 0.62158 -3.41083 0
M  V30 303 C 34.7024 -0.256315 -4.28534 0
M  V30 304 C 33.9354 0.544807 -5.30912 0
M  V30 305 O 34.1584 1.77944 -5.41934 0
M  V30 306 O 33.0924 -0.0646478 -6.01865 0
M  V30 307 H 36.9184 -1.03208 -2.85625 0
M  V30 308 H 34.5034 -0.569025 -1.38139 0
M  V30 309 H 36.3854 1.10067 -4.06772 0
M  V30 310 H 35.0604 1.41165 -2.91297 0
M  V30 311 H 33.9674 -0.782559 -3.65823 0
M  V30 312 H 35.3004 -1.01034 -4.81719 0
M  V30 313 N 36.9525 1.47285 -0.560781 0
M  V30 314 C 38.1985 2.03347 -0.0463654 0
M  V30 315 C 38.5535 1.42702 1.2905 0
M  V30 316 O 37.8465 0.574619 1.8278 0
M  V30 317 C 38.0405 3.57258 0.100784 0
M  V30 318 C 37.8695 4.32827 -1.22027 0
M  V30 319 C 36.6395 4.72588 -1.78854 0
M  V30 320 C 38.8375 4.67739 -2.13834 0
M  V30 321 N 36.8195 5.32816 -3.04927 0
M  V30 322 C 38.1905 5.28307 -3.24487 0
M  V30 323 C 40.2455 4.49667 -2.13784 0
M  V30 324 C 38.9485 5.72711 -4.35194 0
M  V30 325 C 40.9745 4.95073 -3.23506 0
M  V30 326 C 40.3365 5.55693 -4.32879 0
M  V30 327 H 36.4355 0.779755 -0.0592166 0
M  V30 328 H 39.0195 1.79723 -0.748857 0
M  V30 329 H 37.1905 3.80642 0.772404 0
M  V30 330 H 38.9225 3.9996 0.617589 0
M  V30 331 H 35.6775 4.54656 -1.32609 0
M  V30 332 H 36.1015 5.67471 -3.69197 0
M  V30 333 H 40.7435 4.02154 -1.30507 0
M  V30 334 H 38.4615 6.19214 -5.1923 0
M  V30 335 H 42.0475 4.82859 -3.24559 0
M  V30 336 H 40.9275 5.90188 -5.1638 0
M  V30 337 N 38.4306 0.297415 1.54768 0
M  V30 338 C 39.6786 -0.312295 1.99673 0
M  V30 339 C 39.9996 -1.54686 1.18732 0
M  V30 340 O 39.2696 -1.93854 0.282382 0
M  V30 341 H 37.8496 -0.118381 0.73756 0
M  V30 342 H 40.5116 0.407915 1.90583 0
M  V30 343 H 39.6076 -0.586813 3.06534 0
M  V30 344 N 39.9087 -1.5758 0.0250728 0
M  V30 345 C 40.8387 -2.13007 -0.956575 0
M  V30 346 C 41.8197 -1.0452 -1.342 0
M  V30 347 O 43.0047 -1.32332 -1.42133 0
M  V30 348 C 40.1347 -2.65386 -2.24026 0
M  V30 349 C 39.0887 -3.78623 -1.99571 0
M  V30 350 C 38.4147 -4.17414 -3.3417 0
M  V30 351 C 39.7147 -5.04867 -1.33814 0
M  V30 352 H 41.4087 -2.9528 -0.494991 0
M  V30 353 H 38.9547 -1.42042 -0.236651 0
M  V30 354 H 40.9077 -3.02794 -2.93076 0
M  V30 355 H 39.6317 -1.80268 -2.72343 0
M  V30 356 H 38.2907 -3.41646 -1.32941 0
M  V30 357 H 37.9387 -3.29284 -3.80238 0
M  V30 358 H 37.6387 -4.93719 -3.18615 0
M  V30 359 H 39.1627 -4.57402 -4.04495 0
M  V30 360 H 40.5767 -5.39888 -1.92857 0
M  V30 361 H 38.9737 -5.86144 -1.28669 0
M  V30 362 H 40.0437 -4.83904 -0.310561 0
M  V30 363 N 41.3868 0.248026 -1.55636 0
M  V30 364 C 42.6268 0.983592 -1.79178 0
M  V30 365 C 42.9908 1.82567 -0.594414 0
M  V30 366 O 44.1918 2.59292 -0.708583 0
M  V30 367 C 42.4628 1.82228 -3.07454 0
M  V30 368 S 44.0218 2.61709 -3.52213 0
M  V30 369 H 40.8398 0.330866 -0.629324 0
M  V30 370 H 43.4418 0.251562 -1.93875 0
M  V30 371 H 42.1458 1.19333 -3.92668 0
M  V30 372 H 41.6768 2.59708 -2.95492 0
M  V30 373 H 43.6918 3.84655 -3.13457 0
M  V30 374 N 42.8649 1.48995 0.513639 0
M  V30 375 C 44.2759 1.5119 1.09537 0
M  V30 376 C 44.6269 0.290906 1.94031 0
M  V30 377 O 43.7519 -0.60049 2.07902 0
M  V30 378 C 44.3469 2.73964 1.99322 0
M  V30 379 C 42.9059 2.78978 2.52682 0
M  V30 380 C 42.0529 2.44934 1.30009 0
M  V30 381 H 45.0039 1.55875 0.298125 0
M  V30 382 H 45.0249 2.53409 2.83838 0
M  V30 383 H 44.5369 3.62813 1.37799 0
M  V30 384 H 42.6379 1.94378 3.1788 0
M  V30 385 H 42.7509 3.8083 2.90698 0
M  V30 386 H 41.1149 1.9644 1.62122 0
M  V30 387 H 41.8979 3.36043 0.702131 0
M  V30 388 N 44.343 -0.763751 1.37857 0
M  V30 389 C 45.591 -1.51957 1.33243 0
M  V30 390 C 45.912 -1.94835 -0.0801709 0
M  V30 391 O 45.182 -1.66894 -1.02582 0
M  V30 392 H 43.762 -0.563626 0.49024 0
M  V30 393 H 46.424 -0.908504 1.7243 0
M  V30 394 H 45.52 -2.41523 1.97669 0
M  V30 395 N 45.8211 -1.22559 -0.990812 0
M  V30 396 C 47.2321 -1.04791 -1.54518 0
M  V30 397 C 47.5831 0.387998 -1.92325 0
M  V30 398 O 46.7081 1.27328 -1.74976 0
M  V30 399 C 47.3031 -1.896 -2.80779 0
M  V30 400 C 45.8621 -1.76124 -3.32652 0
M  V30 401 C 45.0091 -1.8594 -2.05722 0
M  V30 402 H 47.9601 -1.36374 -0.811662 0
M  V30 403 H 47.9811 -1.41464 -3.53225 0
M  V30 404 H 47.4931 -2.94101 -2.53231 0
M  V30 405 H 45.5941 -0.743643 -3.65104 0
M  V30 406 H 45.7071 -2.58913 -4.03114 0
M  V30 407 H 44.0711 -1.29403 -2.19379 0
M  V30 408 H 44.8541 -2.91976 -1.80568 0
M  V30 409 N 47.2992 1.18797 -1.03562 0
M  V30 410 C 48.7102 1.70322 -0.764676 0
M  V30 411 C 49.0612 1.82708 0.714996 0
M  V30 412 O 48.1862 1.50299 1.55689 0
M  V30 413 C 48.7812 3.09356 -1.38145 0
M  V30 414 C 47.3402 3.58114 -1.15895 0
M  V30 415 C 46.4872 2.34798 -1.4753 0
M  V30 416 H 49.4382 1.03543 -1.20268 0
M  V30 417 H 49.4592 3.72378 -0.781977 0
M  V30 418 H 48.9712 3.00309 -2.45837 0
M  V30 419 H 47.0722 3.72464 -0.100544 0
M  V30 420 H 47.1852 4.4184 -1.8524 0
M  V30 421 H 45.5492 2.38464 -0.894829 0
M  V30 422 H 46.3322 2.28375 -2.56319 0
M  V30 423 N 48.7773 0.814389 1.34928 0
M  V30 424 C 49.7403 0.235759 2.27984 0
M  V30 425 C 50.7403 -0.581412 1.49921 0
M  V30 426 O 51.9303 -0.398758 1.69575 0
M  V30 427 C 49.0623 -0.670433 3.34242 0
M  V30 428 H 50.2553 1.05659 2.80671 0
M  V30 429 H 47.8083 0.585614 1.44915 0
M  V30 430 H 48.5433 -1.51466 2.86755 0
M  V30 431 H 48.3283 -0.0860822 3.92005 0
M  V30 432 H 49.8183 -1.06935 4.03676 0
M  V30 433 N 50.2554 -1.46986 0.568584 0
M  V30 434 C 51.5014 -2.02741 0.0488709 0
M  V30 435 C 51.8344 -1.44077 -1.30214 0
M  V30 436 O 51.1094 -0.600552 -1.84996 0
M  V30 437 C 51.3924 -3.60086 -0.032047 0
M  V30 438 C 51.2454 -4.29162 1.34686 0
M  V30 439 C 52.5644 -4.33838 -0.739798 0
M  V30 440 H 49.6834 -0.736749 0.0192338 0
M  V30 441 H 52.3254 -1.75289 0.733065 0
M  V30 442 H 50.4754 -3.83606 -0.61473 0
M  V30 443 H 52.1474 -4.16948 1.97362 0
M  V30 444 H 50.3904 -3.89073 1.91846 0
M  V30 445 H 51.0614 -5.37826 1.24285 0
M  V30 446 H 53.5374 -4.15378 -0.244939 0
M  V30 447 H 52.4134 -5.43537 -0.765406 0
M  V30 448 H 52.6744 -4.03875 -1.79827 0
M  V30 449 N 51.7335 -0.305618 -1.54608 0
M  V30 450 C 52.6435 0.57778 -2.27374 0
M  V30 451 C 53.6595 1.14451 -1.31061 0
M  V30 452 O 54.8355 1.16831 -1.6405 0
M  V30 453 C 51.9005 1.73123 -3.00382 0
M  V30 454 C 50.9615 1.19812 -4.12242 0
M  V30 455 C 50.1945 2.2966 -4.81759 0
M  V30 456 O 50.4175 3.49651 -4.50666 0
M  V30 457 O 49.3515 1.96091 -5.69062 0
M  V30 458 H 53.1775 -0.012624 -3.03697 0
M  V30 459 H 50.7625 -0.0719184 -1.49227 0
M  V30 460 H 52.6445 2.40315 -3.4616 0
M  V30 461 H 51.3195 2.30815 -2.26949 0
M  V30 462 H 50.2265 0.491798 -3.70853 0
M  V30 463 H 51.5595 0.666566 -4.87666 0
M  V30 464 N 53.2116 1.57565 -0.0334293 0
M  V30 465 C 54.4596 1.91598 0.642999 0
M  V30 466 C 54.7806 0.910847 1.7242 0
M  V30 467 O 54.0506 -0.0469931 1.95844 0
M  V30 468 H 52.6306 0.707228 0.240496 0
M  V30 469 H 55.2926 1.94726 -0.0822488 0
M  V30 470 H 54.3886 2.92336 1.09298 0
M  V30 471 N 54.6897 -0.239769 1.55765 0
M  V30 472 C 55.5997 -1.31831 1.94056 0
M  V30 473 C 56.6157 -1.52275 0.841925 0
M  V30 474 O 57.7917 -1.65759 1.14394 0
M  V30 475 C 54.8567 -2.65156 2.23368 0
M  V30 476 C 53.9177 -2.53173 3.46701 0
M  V30 477 C 53.1507 -3.8014 3.74606 0
M  V30 478 O 53.3737 -4.82343 3.04469 0
M  V30 479 O 52.3077 -3.78344 4.68123 0
M  V30 480 H 56.1337 -1.02347 2.85935 0
M  V30 481 H 53.7187 -0.441123 1.42739 0
M  V30 482 H 55.6007 -3.43929 2.43497 0
M  V30 483 H 54.2757 -2.94358 1.34666 0
M  V30 484 H 53.1827 -1.72662 3.31871 0
M  V30 485 H 54.5157 -2.28915 4.35728 0
M  V30 486 N 56.1678 -1.49265 -0.50573 0
M  V30 487 C 57.3928 -1.62478 -1.28902 0
M  V30 488 C 57.8178 -0.294332 -1.85783 0
M  V30 489 O 57.1758 0.737412 -1.65626 0
M  V30 490 C 57.2238 -2.69268 -2.39848 0
M  V30 491 O 56.3278 -2.28113 -3.43567 0
M  V30 492 H 55.6688 -0.54399 -0.380751 0
M  V30 493 H 58.1988 -1.95421 -0.605952 0
M  V30 494 H 58.2088 -2.91291 -2.85681 0
M  V30 495 H 56.8838 -3.65846 -1.97812 0
M  V30 496 H 55.4608 -2.16401 -3.03685 0
M  V30 497 N 57.6459 0.756429 -1.3826 0
M  V30 498 C 58.8709 1.55077 -1.37717 0
M  V30 499 C 59.2959 1.88073 0.03164 0
M  V30 500 O 58.6539 1.50364 1.01293 0
M  V30 501 C 58.7019 2.8283 -2.23695 0
M  V30 502 O 57.8059 3.77862 -1.6521 0
M  V30 503 H 57.1469 0.469152 -0.469885 0
M  V30 504 H 59.6769 0.935019 -1.81985 0
M  V30 505 H 59.6869 3.31783 -2.37453 0
M  V30 506 H 58.3619 2.58144 -3.2609 0
M  V30 507 H 56.9389 3.36555 -1.60578 0
M  V30 508 N 59.124 1.23083 0.984299 0
M  V30 509 C 60.372 1.05848 1.72165 0
M  V30 510 C 60.693 -0.406049 1.90726 0
M  V30 511 O 59.963 -1.29139 1.47309 0
M  V30 512 H 58.543 0.388685 0.637913 0
M  V30 513 H 61.205 1.54736 1.18503 0
M  V30 514 H 60.301 1.54327 2.71274 0
M  V30 515 N 60.6021 -1.18246 1.0419 0
M  V30 516 C 61.5651 -2.20128 0.638452 0
M  V30 517 C 62.5651 -1.57885 -0.304805 0
M  V30 518 O 63.7551 -1.73967 -0.0900369 0
M  V30 519 C 60.8871 -3.4084 -0.0637751 0
M  V30 520 H 62.0801 -2.57336 1.54007 0
M  V30 521 H 59.6331 -1.32152 0.834598 0
M  V30 522 H 60.3681 -3.09166 -0.979136 0
M  V30 523 H 60.1531 -3.8726 0.614198 0
M  V30 524 H 61.6431 -4.16274 -0.332512 0
M  V30 525 N 62.0802 -0.821533 -1.34494 0
M  V30 526 C 63.3052 -0.420873 -2.03085 0
M  V30 527 C 63.7302 0.964915 -1.61465 0
M  V30 528 O 63.0882 1.62763 -0.798607 0
M  V30 529 C 63.1362 -0.529414 -3.56693 0
M  V30 530 O 62.2402 0.451302 -4.09923 0
M  V30 531 H 61.5812 -0.173489 -0.640935 0
M  V30 532 H 64.1112 -1.11157 -1.71771 0
M  V30 533 H 64.1212 -0.404671 -4.05988 0
M  V30 534 H 62.7962 -1.54014 -3.86332 0
M  V30 535 H 61.3732 0.285558 -3.71805 0
M  V30 536 N 63.5583 1.46682 -0.576371 0
M  V30 537 C 64.8063 2.02013 -0.0594163 0
M  V30 538 C 65.1273 1.45101 1.30271 0
M  V30 539 O 64.3973 0.633317 1.8538 0
M  V30 540 H 62.9773 0.746759 -0.0189745 0
M  V30 541 H 65.6393 1.79862 -0.750717 0
M  V30 542 H 64.7353 3.12097 0.014345 0
M  V30 543 N 65.0364 0.313813 1.54444 0
M  V30 544 C 65.9664 -0.549454 2.26943 0
M  V30 545 C 66.9474 -1.12741 1.27372 0
M  V30 546 O 68.1324 -1.15436 1.56167 0
M  V30 547 C 65.2624 -1.71523 3.01989 0
M  V30 548 C 64.2164 -1.26703 4.08816 0
M  V30 549 C 63.5424 -2.51898 4.71647 0
M  V30 550 C 64.8424 -0.388962 5.2085 0
M  V30 551 H 66.5364 0.0552661 2.99349 0
M  V30 552 H 64.0824 0.0280207 1.43973 0
M  V30 553 H 66.0354 -2.32535 3.51433 0
M  V30 554 H 64.7594 -2.34639 2.27183 0
M  V30 555 H 63.4184 -0.679896 3.6024 0
M  V30 556 H 63.0664 -3.13356 3.93468 0
M  V30 557 H 62.7664 -2.22605 5.43802 0
M  V30 558 H 64.2904 -3.1369 5.23861 0
M  V30 559 H 65.7044 -0.905107 5.6611 0
M  V30 560 H 64.1014 -0.18924 5.99802 0
M  V30 561 H 65.1714 0.582699 4.81386 0
M  V30 562 N 66.5145 -1.57545 0.0417849 0
M  V30 563 C 67.7625 -1.91937 -0.632829 0
M  V30 564 C 68.0835 -0.919978 -1.71934 0
M  V30 565 O 67.3535 0.0366064 -1.95866 0
M  V30 566 H 65.9335 -0.708493 -0.236742 0
M  V30 567 H 68.5955 -1.9468 0.0925745 0
M  V30 568 H 67.6915 -2.92912 -1.07746 0
M  V30 569 N 67.9926 0.231505 -1.5589 0
M  V30 570 C 69.2206 0.974505 -1.82513 0
M  V30 571 C 69.6356 1.78344 -0.619591 0
M  V30 572 O 68.9926 1.77792 0.411848 0
M  V30 573 C 69.0436 1.90007 -3.07538 0
M  V30 574 O 68.7646 1.12385 -4.2344 0
M  V30 575 C 70.2656 2.75779 -3.47075 0
M  V30 576 H 67.4856 0.286065 -0.606966 0
M  V30 577 H 70.0296 0.249739 -2.02969 0
M  V30 578 H 68.1846 2.57891 -2.89086 0
M  V30 579 H 68.5986 1.75125 -4.944 0
M  V30 580 H 70.0726 3.36443 -4.37619 0
M  V30 581 H 70.5496 3.47672 -2.68367 0
M  V30 582 H 71.1556 2.13323 -3.67931 0
M  V30 583 N 69.4707 1.49531 0.497807 0
M  V30 584 C 70.8817 1.52344 1.07927 0
M  V30 585 C 71.2327 0.311469 1.93712 0
M  V30 586 O 70.3577 -0.578405 2.08527 0
M  V30 587 C 70.9527 2.76062 1.96405 0
M  V30 588 C 69.5117 2.81643 2.49709 0
M  V30 589 C 68.6587 2.46299 1.27404 0
M  V30 590 H 71.6097 1.56182 0.281576 0
M  V30 591 H 71.6307 2.56405 2.81135 0
M  V30 592 H 71.1427 3.64254 1.33943 0
M  V30 593 H 69.2437 1.97739 3.15801 0
M  V30 594 H 69.3567 3.83891 2.86643 0
M  V30 595 H 67.7207 1.98148 1.60029 0
M  V30 596 H 68.5037 3.36769 0.66645 0
M  V30 597 N 70.9488 -0.749086 1.3866 0
M  V30 598 C 71.8958 -1.86291 1.36251 0
M  V30 599 C 72.8658 -1.64578 0.224347 0
M  V30 600 O 74.0508 -1.86181 0.417279 0
M  V30 601 C 71.1908 -3.23644 1.19786 0
M  V30 602 C 70.3038 -3.57158 2.43027 0
M  V30 603 C 69.4388 -4.83838 2.19258 0
M  V30 604 C 68.4778 -5.10152 3.38247 0
M  V30 605 N 67.6148 -6.28029 3.13884 0
M  V30 606 H 72.4548 -1.87685 2.3147 0
M  V30 607 H 69.9918 -0.917287 1.14997 0
M  V30 608 H 71.9498 -4.0291 1.08254 0
M  V30 609 H 70.5798 -3.21566 0.282031 0
M  V30 610 H 69.6318 -2.72701 2.65214 0
M  V30 611 H 70.9438 -3.7253 3.31697 0
M  V30 612 H 70.0978 -5.71057 2.04888 0
M  V30 613 H 68.8368 -4.70614 1.2796 0
M  V30 614 H 67.8418 -4.21401 3.53131 0
M  V30 615 H 69.0668 -5.25271 4.30427 0
M  V30 616 H 67.0128 -6.1612 2.25238 0
M  V30 617 H 66.9298 -6.43922 3.96106 0
M  V30 618 H 68.1978 -7.18124 3.03179 0
M  V30 619 N 72.4269 -1.23603 -0.977757 0
M  V30 620 C 73.8429 -0.999251 -1.24447 0
M  V30 621 C 74.0429 0.298053 -1.99283 0
M  V30 622 O 73.0989 1.01681 -2.31122 0
M  V30 623 C 74.4119 -2.20784 -2.04144 0
M  V30 624 C 75.9599 -2.25303 -2.17273 0
M  V30 625 C 76.4349 -3.45755 -3.00362 0
M  V30 626 N 77.9259 -3.4601 -3.07947 0
M  V30 627 C 78.6609 -4.35868 -3.72568 0
M  V30 628 N 78.1569 -5.35966 -4.38991 0
M  V30 629 N 79.9499 -4.23605 -3.6948 0
M  V30 630 H 72.1009 -2.06986 -0.476483 0
M  V30 631 H 74.3639 -0.907801 -0.273134 0
M  V30 632 H 74.0699 -3.14945 -1.56533 0
M  V30 633 H 73.9439 -2.22085 -3.04891 0
M  V30 634 H 76.3309 -1.3168 -2.64092 0
M  V30 635 H 76.4119 -2.28033 -1.15907 0
M  V30 636 H 76.0559 -4.39687 -2.5424 0
M  V30 637 H 75.9859 -3.40266 -4.01904 0
M  V30 638 H 78.4769 -2.73588 -2.60688 0
M  V30 639 H 78.7899 -6.00783 -4.86086 0
M  V30 640 H 77.1349 -5.39863 -4.37691 0
M  V30 641 H 80.3259 -3.44647 -3.16759 0
M  V30 642 H 80.4989 -4.93836 -4.1956 0
M  V30 643 N 73.905 1.17692 -1.04816 0
M  V30 644 C 75.321 1.39863 -0.768794 0
M  V30 645 C 75.521 1.91118 0.638451 0
M  V30 646 O 74.577 2.10036 1.40146 0
M  V30 647 C 75.89 2.39274 -1.82122 0
M  V30 648 C 77.438 2.52987 -1.843 0
M  V30 649 C 77.913 3.55669 -2.88555 0
M  V30 650 N 79.404 3.63183 -2.87493 0
M  V30 651 C 80.139 4.42381 -3.64811 0
M  V30 652 N 79.635 5.25125 -4.51903 0
M  V30 653 N 81.428 4.37217 -3.53267 0
M  V30 654 H 73.579 0.82752 -1.95617 0
M  V30 655 H 75.842 0.426123 -0.846831 0
M  V30 656 H 75.548 2.08678 -2.83102 0
M  V30 657 H 75.422 3.38725 -1.65967 0
M  V30 658 H 77.809 2.82896 -0.839869 0
M  V30 659 H 77.89 1.53623 -2.04532 0
M  V30 660 H 77.534 3.26499 -3.89051 0
M  V30 661 H 77.464 4.54728 -2.65575 0
M  V30 662 H 79.955 3.04103 -2.24343 0
M  V30 663 H 80.268 5.82728 -5.07591 0
M  V30 664 H 78.613 5.24519 -4.55966 0
M  V30 665 H 81.804 3.71626 -2.84625 0
M  V30 666 H 81.977 4.98696 -4.13771 0
M  V30 667 N 75.3831 0.828654 1.34056 0
M  V30 668 C 76.3311 0.242973 2.31327 0
M  V30 669 C 77.3251 -0.61944 1.57668 0
M  V30 670 O 78.5311 -0.51014 1.7262 0
M  V30 671 H 74.9061 0.059834 0.749616 0
M  V30 672 H 76.8771 1.07809 2.78244 0
M  V30 673 C 75.6261 -0.575733 3.429 0
M  V30 674 H 74.9491 0.0785582 3.99723 0
M  V30 675 H 76.3891 -0.951547 4.13185 0
M  V30 676 C 74.8481 -1.75044 2.87856 0
M  V30 677 O 75.3781 -2.84882 2.83205 0
M  V30 678 N 73.5841 -1.56903 2.44602 0
M  V30 679 H 73.1311 -0.675547 2.48584 0
M  V30 680 H 73.0891 -2.35652 2.08124 0
M  V30 681 N 76.8612 -1.46375 0.584142 0
M  V30 682 C 77.7932 -2.28443 -0.186119 0
M  V30 683 C 78.8062 -1.38596 -0.854115 0
M  V30 684 O 79.9952 -1.63183 -0.723438 0
M  V30 685 C 77.0952 -3.13671 -1.28311 0
M  V30 686 C 76.2682 -4.31652 -0.706758 0
M  V30 687 C 75.3272 -4.98267 -1.69163 0
M  V30 688 O 74.3532 -5.55815 -1.22712 0
M  V30 689 N 75.5552 -4.95408 -3.02575 0
M  V30 690 H 78.3202 -2.9519 0.517986 0
M  V30 691 H 75.8812 -1.56303 0.42201 0
M  V30 692 H 77.8732 -3.55101 -1.94128 0
M  V30 693 H 76.4432 -2.48989 -1.89005 0
M  V30 694 H 75.6632 -3.93989 0.128908 0
M  V30 695 H 76.9512 -5.07906 -0.301506 0
M  V30 696 H 76.3492 -4.49902 -3.42936 0
M  V30 697 H 74.9062 -5.40774 -3.63877 0
M  V30 698 N 78.3393 -0.321999 -1.54275 0
M  V30 699 C 79.2893 0.560185 -2.21011 0
M  V30 700 C 80.2733 1.08283 -1.19011 0
M  V30 701 O 81.4653 1.02011 -1.44647 0
M  V30 702 C 78.5943 1.72137 -2.97025 0
M  V30 703 C 77.6803 1.21369 -4.06363 0
M  V30 704 N 78.0713 0.425566 -5.04007 0
M  V30 705 C 76.3693 1.49255 -4.20284 0
M  V30 706 C 77.0703 0.152601 -5.815 0
M  V30 707 N 76.0463 0.738294 -5.38563 0
M  V30 708 H 79.8483 -0.049265 -2.93859 0
M  V30 709 H 77.3623 -0.127779 -1.61897 0
M  V30 710 H 79.3593 2.36512 -3.43319 0
M  V30 711 H 78.0193 2.33431 -2.25699 0
M  V30 712 H 79.0303 0.068551 -5.17855 0
M  V30 713 H 75.7073 2.11145 -3.60172 0
M  V30 714 H 77.0973 -0.481764 -6.70171 0
M  V30 715 N 79.8174 1.5752 -0.0501392 0
M  V30 716 C 81.0424 1.97376 0.636997 0
M  V30 717 C 81.4674 0.927466 1.63645 0
M  V30 718 O 80.8254 -0.10941 1.8097 0
M  V30 719 C 80.8734 3.36304 1.30123 0
M  V30 720 O 79.9774 3.34156 2.41689 0
M  V30 721 H 79.3184 0.642998 0.165679 0
M  V30 722 H 81.8484 2.04258 -0.118233 0
M  V30 723 H 81.8584 3.73008 1.65315 0
M  V30 724 H 80.5334 4.11993 0.568746 0
M  V30 725 H 79.1104 3.09196 2.08451 0
M  V30 726 N 81.2955 -0.223234 1.56011 0
M  V30 727 C 82.2425 -1.27664 1.92277 0
M  V30 728 C 83.2125 -1.46659 0.779763 0
M  V30 729 O 84.3975 -1.60256 1.03551 0
M  V30 730 C 81.5375 -2.62234 2.24338 0
M  V30 731 C 80.6505 -2.51051 3.51564 0
M  V30 732 C 79.7855 -3.78133 3.7308 0
M  V30 733 C 78.8245 -3.61665 4.93827 0
M  V30 734 N 77.9615 -4.80693 5.11741 0
M  V30 735 H 82.8015 -0.960358 2.82101 0
M  V30 736 H 80.3385 -0.462901 1.39627 0
M  V30 737 H 82.2965 -3.40596 2.40936 0
M  V30 738 H 80.9265 -2.91961 1.3769 0
M  V30 739 H 79.9785 -1.64132 3.43169 0
M  V30 740 H 81.2905 -2.34803 4.40079 0
M  V30 741 H 80.4445 -4.64938 3.89766 0
M  V30 742 H 79.1835 -3.97304 2.82844 0
M  V30 743 H 78.1885 -2.73244 4.77093 0
M  V30 744 H 79.4135 -3.43966 5.85546 0
M  V30 745 H 77.3595 -5.00181 4.24446 0
M  V30 746 H 77.2765 -4.67165 5.94384 0
M  V30 747 H 78.5445 -5.6893 5.3286 0
M  V30 748 N 82.7736 -1.49793 -0.48987 0
M  V30 749 C 83.7236 -1.63673 -1.5873 0
M  V30 750 C 84.7076 -0.491956 -1.53195 0
M  V30 751 O 85.8996 -0.745461 -1.60536 0
M  V30 752 C 83.0286 -1.71689 -2.97284 0
M  V30 753 C 82.1146 -2.91781 -3.07774 0
M  V30 754 N 82.5056 -4.15714 -2.88124 0
M  V30 755 C 80.8036 -2.89949 -3.38889 0
M  V30 756 C 81.5046 -4.965 -3.03088 0
M  V30 757 N 80.4806 -4.30083 -3.3246 0
M  V30 758 H 84.2826 -2.57204 -1.42208 0
M  V30 759 H 81.7966 -1.46719 -0.69623 0
M  V30 760 H 83.7936 -1.79732 -3.76168 0
M  V30 761 H 82.4536 -0.793024 -3.14867 0
M  V30 762 H 83.4646 -4.45515 -2.64077 0
M  V30 763 H 80.1416 -2.06987 -3.62578 0
M  V30 764 H 81.5316 -6.04991 -2.92294 0
M  V30 765 N 84.2517 0.741722 -1.39055 0
M  V30 766 C 85.1987 1.85566 -1.37237 0
M  V30 767 C 86.1687 1.64457 -0.233072 0
M  V30 768 O 87.3537 1.85957 -0.427147 0
M  V30 769 C 84.4937 3.23004 -1.215 0
M  V30 770 C 83.6067 3.55864 -2.44918 0
M  V30 771 C 82.7417 4.82669 -2.21821 0
M  V30 772 C 81.7807 5.08351 -3.40948 0
M  V30 773 N 80.9177 6.26356 -3.17211 0
M  V30 774 H 85.7577 1.86455 -2.32462 0
M  V30 775 H 83.2947 0.911176 -1.15482 0
M  V30 776 H 85.2527 4.02331 -1.10389 0
M  V30 777 H 83.8827 3.21411 -0.29908 0
M  V30 778 H 82.9347 2.7129 -2.66657 0
M  V30 779 H 84.2467 3.70765 -3.33668 0
M  V30 780 H 83.4007 5.69962 -2.07914 0
M  V30 781 H 82.1397 4.69929 -1.30454 0
M  V30 782 H 81.1447 4.19522 -3.55361 0
M  V30 783 H 82.3697 5.22981 -4.33207 0
M  V30 784 H 80.3157 6.14917 -2.28502 0
M  V30 785 H 80.2327 6.41813 -3.99515 0
M  V30 786 H 81.5007 7.16506 -3.06984 0
M  V30 787 N 85.7298 1.2412 0.971189 0
M  V30 788 C 86.9578 1.10575 1.74874 0
M  V30 789 C 87.3728 -0.342017 1.85676 0
M  V30 790 O 86.7298 -1.23617 1.34258 0
M  V30 791 C 86.7808 1.73579 3.171 0
M  V30 792 O 86.5018 3.12695 3.06844 0
M  V30 793 C 88.0028 1.65598 4.11208 0
M  V30 794 H 85.2228 0.386504 0.548503 0
M  V30 795 H 87.7668 1.64156 1.21955 0
M  V30 796 H 85.9218 1.24009 3.67016 0
M  V30 797 H 86.3358 3.43412 3.96445 0
M  V30 798 H 87.8098 2.1437 5.08674 0
M  V30 799 H 88.2868 0.616532 4.34851 0
M  V30 800 H 88.8928 2.14578 3.67201 0
M  V30 801 N 87.2079 -1.17134 1.05439 0
M  V30 802 C 88.4539 -1.87733 0.767077 0
M  V30 803 C 88.7869 -1.8098 -0.704253 0
M  V30 804 O 88.0619 -1.21951 -1.5152 0
M  V30 805 C 88.3449 -3.37659 1.25133 0
M  V30 806 C 88.1979 -3.53149 2.78578 0
M  V30 807 C 89.5169 -4.31768 0.852324 0
M  V30 808 H 86.6359 -0.681687 0.280129 0
M  V30 809 H 89.2779 -1.37732 1.30881 0
M  V30 810 H 87.4279 -3.80373 0.790469 0
M  V30 811 H 89.0999 -3.19434 3.32806 0
M  V30 812 H 87.3429 -2.95345 3.17732 0
M  V30 813 H 88.0139 -4.58403 3.07523 0
M  V30 814 H 90.4899 -3.96909 1.24911 0
M  V30 815 H 89.3659 -5.35199 1.21873 0
M  V30 816 H 89.6269 -4.41429 -0.243485 0
M  V30 817 N 88.686 -0.835752 -1.33615 0
M  V30 818 C 89.649 -0.272 -2.2758 0
M  V30 819 C 90.649 0.557487 -1.50827 0
M  V30 820 O 91.839 0.37173 -1.70188 0
M  V30 821 C 88.971 0.617173 -3.35267 0
M  V30 822 H 90.164 -1.10111 -2.78954 0
M  V30 823 H 87.717 -0.608594 -1.43965 0
M  V30 824 H 88.452 1.46884 -2.89129 0
M  V30 825 H 88.237 0.0237066 -3.92093 0
M  V30 826 H 89.727 1.005 -4.05326 0
M  V30 827 N 90.1641 1.46063 -0.591896 0
M  V30 828 C 91.4101 2.02638 -0.0811191 0
M  V30 829 C 91.7431 1.4613 1.27905 0
M  V30 830 O 91.0181 0.629908 1.84017 0
M  V30 831 C 91.3011 3.60091 -0.0252436 0
M  V30 832 C 91.1541 4.26965 -1.41496 0
M  V30 833 C 92.4731 4.3496 0.670685 0
M  V30 834 H 89.5921 0.73635 -0.0309524 0
M  V30 835 H 92.2341 1.741 -0.760859 0
M  V30 836 H 90.3841 3.84535 0.553624 0
M  V30 837 H 92.0561 4.13756 -2.0397 0
M  V30 838 H 90.2991 3.85971 -1.98011 0
M  V30 839 H 90.9701 5.35781 -1.32825 0
M  V30 840 H 93.4461 4.15716 0.178825 0
M  V30 841 H 92.3221 5.44686 0.678837 0
M  V30 842 H 92.5831 4.06685 1.73379 0
M  V30 843 N 91.6422 0.330177 1.54103 0
M  V30 844 C 92.6052 -0.520144 2.2322 0
M  V30 845 C 93.6052 -1.03828 1.22786 0
M  V30 846 O 94.7952 -0.929652 1.4732 0
M  V30 847 C 91.9272 -1.72317 2.94142 0
M  V30 848 H 93.1202 0.0841605 2.99782 0
M  V30 849 H 90.6732 0.0813433 1.56088 0
M  V30 850 H 91.4082 -2.36653 2.21734 0
M  V30 851 H 91.1932 -1.35898 3.67796 0
M  V30 852 H 92.6832 -2.3266 3.46784 0
M  V30 853 N 93.1203 -1.57491 0.0584922 0
M  V30 854 C 94.3453 -1.97711 -0.62652 0
M  V30 855 C 94.7703 -0.936132 -1.63151 0
M  V30 856 O 94.1283 0.099811 -1.81025 0
M  V30 857 C 94.1763 -3.36989 -1.28338 0
M  V30 858 O 93.2803 -3.35433 -2.39913 0
M  V30 859 H 92.6213 -0.643868 -0.162266 0
M  V30 860 H 95.1513 -2.04193 0.129064 0
M  V30 861 H 95.1613 -3.73879 -1.63335 0
M  V30 862 H 93.8363 -4.12289 -0.546889 0
M  V30 863 H 92.4133 -3.10298 -2.06809 0
M  V30 864 N 94.5984 0.214957 -1.56127 0
M  V30 865 C 95.5614 1.24997 -1.92116 0
M  V30 866 C 96.5614 1.39467 -0.800344 0
M  V30 867 O 97.7514 1.37619 -1.06802 0
M  V30 868 C 94.8834 2.62271 -2.17777 0
M  V30 869 H 96.0764 0.942875 -2.84693 0
M  V30 870 H 93.6294 0.455654 -1.49511 0
M  V30 871 H 94.3644 2.98068 -1.27773 0
M  V30 872 H 94.1494 2.53143 -2.99434 0
M  V30 873 H 95.6394 3.36946 -2.46693 0
M  V30 874 N 96.0765 1.50051 0.48192 0
M  V30 875 C 97.0085 1.64263 1.59844 0
M  V30 876 C 98.0215 0.52451 1.54119 0
M  V30 877 O 99.2105 0.797293 1.59704 0
M  V30 878 C 96.3105 1.60102 2.98698 0
M  V30 879 C 95.4835 2.87767 3.29407 0
M  V30 880 C 94.5425 2.76397 4.47762 0
M  V30 881 O 93.5685 3.50348 4.48603 0
M  V30 882 N 94.7705 1.89222 5.48794 0
M  V30 883 H 97.5355 2.60566 1.48073 0
M  V30 884 H 95.0965 1.47379 0.670149 0
M  V30 885 H 97.0885 1.50123 3.75826 0
M  V30 886 H 95.6585 0.715798 3.04294 0
M  V30 887 H 94.8785 3.11954 2.40994 0
M  V30 888 H 96.1665 3.72365 3.4673 0
M  V30 889 H 95.5645 1.28434 5.50928 0
M  V30 890 H 94.1215 1.85154 6.24949 0
M  V30 891 N 97.5546 -0.734337 1.39446 0
M  V30 892 C 98.9706 -1.03997 1.21065 0
M  V30 893 C 99.1706 -2.01369 0.0727019 0
M  V30 894 O 98.2266 -2.45856 -0.575426 0
M  V30 895 C 99.5396 -1.60163 2.54496 0
M  V30 896 C 101.088 -1.7224 2.61347 0
M  V30 897 C 101.563 -2.31814 3.95002 0
M  V30 898 N 103.054 -2.39223 3.96644 0
M  V30 899 C 103.789 -2.86258 4.96834 0
M  V30 900 N 103.285 -3.33184 6.07421 0
M  V30 901 N 105.078 -2.85473 4.84213 0
M  V30 902 H 97.2286 -0.0885624 2.12215 0
M  V30 903 H 99.4916 -0.10191 0.942506 0
M  V30 904 H 99.1976 -0.960811 3.38321 0
M  V30 905 H 99.0716 -2.5896 2.74262 0
M  V30 906 H 101.459 -2.35443 1.77906 0
M  V30 907 H 101.54 -0.720939 2.4543 0
M  V30 908 H 101.184 -1.69238 4.78875 0
M  V30 909 H 101.114 -3.32638 4.08239 0
M  V30 910 H 103.605 -2.06057 3.16779 0
M  V30 911 H 103.918 -3.67586 6.7978 0
M  V30 912 H 102.263 -3.31191 6.11013 0
M  V30 913 H 105.454 -2.48136 3.96921 0
M  V30 914 H 105.627 -3.21814 5.62441 0
M  V30 915 N 99.0327 -1.24633 -0.964593 0
M  V30 916 C 100.258 -1.11596 -1.74818 0
M  V30 917 C 100.683 0.32723 -1.85232 0
M  V30 918 O 100.041 1.23695 -1.32549 0
M  V30 919 C 100.089 -1.76397 -3.1451 0
M  V30 920 O 99.1927 -1.03685 -3.99153 0
M  V30 921 H 98.5337 -0.390196 -0.537255 0
M  V30 922 H 101.064 -1.65002 -1.20977 0
M  V30 923 H 101.074 -1.8228 -3.65018 0
M  V30 924 H 99.7487 -2.81401 -3.06246 0
M  V30 925 H 98.3257 -1.05611 -3.57632 0
M  V30 926 N 100.511 1.16574 -1.06058 0
M  V30 927 C 101.922 1.68662 -0.800632 0
M  V30 928 C 102.273 1.84184 0.67608 0
M  V30 929 O 101.398 1.53568 1.52466 0
M  V30 930 C 101.993 3.06356 -1.44676 0
M  V30 931 C 100.552 3.55575 -1.23465 0
M  V30 932 C 99.6988 2.31616 -1.52477 0
M  V30 933 H 102.65 1.00969 -1.22438 0
M  V30 934 H 102.671 3.70636 -0.860788 0
M  V30 935 H 102.183 2.95027 -2.52152 0
M  V30 936 H 100.284 3.72167 -0.179527 0
M  V30 937 H 100.397 4.37812 -1.94571 0
M  V30 938 H 98.7608 2.36512 -0.945209 0
M  V30 939 H 99.5438 2.22887 -2.61106 0
M  V30 940 N 101.989 0.842826 1.3317 0
M  V30 941 C 103.405 0.531128 1.50503 0
M  V30 942 C 103.605 -0.940734 1.78192 0
M  V30 943 O 102.661 -1.72436 1.84451 0
M  V30 944 C 103.974 1.40789 2.65705 0
M  V30 945 C 105.522 1.40708 2.79589 0
M  V30 946 C 105.997 2.26878 3.97857 0
M  V30 947 N 107.488 2.24609 4.05099 0
M  V30 948 C 108.223 2.88019 4.95815 0
M  V30 949 N 107.719 3.60496 5.9162 0
M  V30 950 N 109.512 2.77469 4.88843 0
M  V30 951 H 101.663 1.79557 1.1346 0
M  V30 952 H 103.926 0.766267 0.558156 0
M  V30 953 H 103.632 2.454 2.51936 0
M  V30 954 H 103.506 1.08677 3.61205 0
M  V30 955 H 105.893 0.368668 2.92788 0
M  V30 956 H 105.974 1.76829 1.84838 0
M  V30 957 H 105.618 3.3078 3.85418 0
M  V30 958 H 105.548 1.88096 4.91861 0
M  V30 959 H 108.039 1.71906 3.36536 0
M  V30 960 H 108.352 4.06076 6.57512 0
M  V30 961 H 106.697 3.64604 5.91683 0
M  V30 962 H 109.888 2.20406 4.12963 0
M  V30 963 H 110.061 3.2717 5.59342 0
M  V30 964 N 103.467 -1.45747 0.599634 0
M  V30 965 C 104.43 -2.28917 -0.113835 0
M  V30 966 C 105.43 -1.3933 -0.802729 0
M  V30 967 O 106.62 -1.61534 -0.652103 0
M  V30 968 C 103.752 -3.20152 -1.17114 0
M  V30 969 H 104.945 -2.93478 0.617289 0
M  V30 970 H 102.498 -1.52137 0.358327 0
M  V30 971 H 103.233 -2.60374 -1.93329 0
M  V30 972 H 103.018 -3.86133 -0.681468 0
M  V30 973 H 104.508 -3.82708 -1.67105 0
M  V30 974 N 104.945 -0.338344 -1.53925 0
M  V30 975 C 105.875 0.51328 -2.27789 0
M  V30 976 C 106.856 1.107 -1.29149 0
M  V30 977 O 108.041 1.12937 -1.57984 0
M  V30 978 C 105.171 1.66697 -3.04679 0
M  V30 979 C 104.125 1.20183 -4.1078 0
M  V30 980 C 103.451 2.44363 -4.75595 0
M  V30 981 C 104.751 0.30605 -5.21403 0
M  V30 982 H 106.445 -0.102883 -2.99223 0
M  V30 983 H 103.991 -0.0509219 -1.4391 0
M  V30 984 H 105.944 2.26915 -3.55088 0
M  V30 985 H 104.668 2.30995 -2.30887 0
M  V30 986 H 103.327 0.622499 -3.61276 0
M  V30 987 H 102.975 3.07057 -3.98403 0
M  V30 988 H 102.675 2.13925 -5.47275 0
M  V30 989 H 104.199 3.05317 -5.28786 0
M  V30 990 H 105.613 0.814929 -5.67478 0
M  V30 991 H 104.01 0.0937929 -6.00027 0
M  V30 992 H 105.08 -0.65921 -4.80398 0
M  V30 993 N 106.423 1.57458 -0.0668435 0
M  V30 994 C 107.67 1.93301 0.603406 0
M  V30 995 C 107.998 0.946486 1.69917 0
M  V30 996 O 107.253 -0.0387021 1.95662 0
M  V30 997 C 107.552 3.35784 1.22409 0
M  V30 998 C 107.218 4.50179 0.254955 0
M  V30 999 C 105.88 4.81199 -0.0116746 0
M  V30 1000 C 108.232 5.19598 -0.408338 0
M  V30 1001 C 105.56 5.78978 -0.94877 0
M  V30 1002 C 107.912 6.18381 -1.33372 0
M  V30 1003 C 106.576 6.47821 -1.60887 0
M  V30 1004 H 105.846 0.707338 0.220802 0
M  V30 1005 H 108.493 1.91012 -0.136665 0
M  V30 1006 H 106.798 3.34515 2.03978 0
M  V30 1007 H 108.495 3.60804 1.74989 0
M  V30 1008 H 105.085 4.25983 0.472954 0
M  V30 1009 H 109.269 4.95832 -0.215456 0
M  V30 1010 H 104.525 6.00115 -1.16925 0
M  V30 1011 H 108.699 6.71277 -1.85367 0
M  V30 1012 H 106.326 7.23399 -2.33661 0
M  V30 1013 N 107.901 -0.206675 1.56239 0
M  V30 1014 C 109.141 -0.93574 1.81723 0
M  V30 1015 C 109.505 -1.80927 0.642609 0
M  V30 1016 O 110.706 -2.57323 0.777081 0
M  V30 1017 C 108.977 -1.74012 3.12177 0
M  V30 1018 S 110.536 -2.52279 3.59028 0
M  V30 1019 H 107.354 -0.314065 0.637875 0
M  V30 1020 H 109.956 -0.200071 1.94474 0
M  V30 1021 H 108.66 -1.0888 3.95693 0
M  V30 1022 H 108.191 -2.51782 3.02274 0
M  V30 1023 H 110.206 -3.76209 3.23545 0
M  V30 1024 N 109.379 -1.50304 -0.473955 0
M  V30 1025 C 110.309 -1.71886 -1.58042 0
M  V30 1026 C 111.29 -0.567799 -1.60344 0
M  V30 1027 O 112.475 -0.806623 -1.76656 0
M  V30 1028 C 109.605 -1.81036 -2.96384 0
M  V30 1029 C 108.559 -2.962 -3.08949 0
M  V30 1030 C 107.885 -2.9049 -4.48909 0
M  V30 1031 C 109.185 -4.36752 -2.86434 0
M  V30 1032 H 110.879 -2.64527 -1.40234 0
M  V30 1033 H 108.425 -1.27295 -0.673201 0
M  V30 1034 H 110.378 -1.94719 -3.73714 0
M  V30 1035 H 109.102 -0.850147 -3.15341 0
M  V30 1036 H 107.761 -2.82164 -2.3405 0
M  V30 1037 H 107.409 -1.92321 -4.64781 0
M  V30 1038 H 107.109 -3.67802 -4.58253 0
M  V30 1039 H 108.633 -3.06218 -5.28264 0
M  V30 1040 H 110.047 -4.5133 -3.53517 0
M  V30 1041 H 108.444 -5.15493 -3.07225 0
M  V30 1042 H 109.514 -4.49321 -1.82316 0
M  V30 1043 N 110.857 0.726932 -1.39834 0
M  V30 1044 C 112.085 1.51613 -1.40787 0
M  V30 1045 C 112.5 1.88799 -0.00451505 0
M  V30 1046 O 111.857 1.54662 0.968809 0
M  V30 1047 C 111.908 2.79863 -2.28821 0
M  V30 1048 O 111.629 2.44253 -3.63692 0
M  V30 1049 C 113.13 3.73837 -2.38245 0
M  V30 1050 H 110.35 0.468264 -0.480593 0
M  V30 1051 H 112.894 0.897607 -1.83748 0
M  V30 1052 H 111.049 3.38027 -1.89252 0
M  V30 1053 H 111.463 3.26695 -4.1033 0
M  V30 1054 H 112.937 4.60699 -3.04073 0
M  V30 1055 H 113.414 4.16153 -1.40403 0
M  V30 1056 H 114.02 3.21589 -2.78317 0
M  V30 1057 N 112.336 1.25143 0.95797 0
M  V30 1058 C 113.266 1.07711 2.07173 0
M  V30 1059 C 114.247 -0.0128462 1.70095 0
M  V30 1060 O 115.432 0.156061 1.93572 0
M  V30 1061 C 112.562 0.691503 3.40346 0
M  V30 1062 C 111.516 1.73132 3.9142 0
M  V30 1063 C 110.842 1.20049 5.21049 0
M  V30 1064 C 112.142 3.1294 4.1817 0
M  V30 1065 H 113.836 2.00873 2.22014 0
M  V30 1066 H 111.382 0.967191 1.06684 0
M  V30 1067 H 113.335 0.556505 4.17709 0
M  V30 1068 H 112.059 -0.275819 3.25433 0
M  V30 1069 H 110.718 1.8547 3.16222 0
M  V30 1070 H 110.366 0.223499 5.02503 0
M  V30 1071 H 110.066 1.89545 5.56189 0
M  V30 1072 H 111.59 1.07782 6.01012 0
M  V30 1073 H 113.004 3.03775 4.86203 0
M  V30 1074 H 111.401 3.79875 4.64559 0
M  V30 1075 H 112.471 3.6025 3.24573 0
M  V30 1076 N 113.814 -1.1601 1.06675 0
M  V30 1077 C 114.777 -2.18724 0.685001 0
M  V30 1078 C 115.777 -1.58496 -0.271246 0
M  V30 1079 O 116.967 -1.74119 -0.0531156 0
M  V30 1080 C 114.099 -3.40899 0.00853648 0
M  V30 1081 H 115.292 -2.54011 1.59431 0
M  V30 1082 H 112.845 -1.30352 0.862441 0
M  V30 1083 H 113.58 -3.11173 -0.913337 0
M  V30 1084 H 113.365 -3.8587 0.696204 0
M  V30 1085 H 114.855 -4.16886 -0.24414 0
M  V30 1086 N 115.292 -0.849877 -1.32721 0
M  V30 1087 C 116.24 -0.279745 -2.30912 0
M  V30 1088 C 117.234 0.594278 -1.58634 0
M  V30 1089 O 118.44 0.482613 -1.73409 0
M  V30 1090 H 114.815 -0.0717521 -0.748569 0
M  V30 1091 H 116.786 -1.12222 -2.76494 0
M  V30 1092 C 115.535 0.521108 -3.43773 0
M  V30 1093 H 114.858 -0.142141 -3.99547 0
M  V30 1094 H 116.298 0.885693 -4.14646 0
M  V30 1095 C 114.757 1.70442 -2.90605 0
M  V30 1096 O 115.287 2.8034 -2.87702 0
M  V30 1097 N 113.493 1.52991 -2.47067 0
M  V30 1098 H 113.04 0.635914 -2.49628 0
M  V30 1099 H 112.998 2.32311 -2.11847 0
M  V30 1100 N 116.77 1.45427 -0.607355 0
M  V30 1101 C 118.181 1.85756 -0.187535 0
M  V30 1102 C 118.532 1.5077 1.25551 0
M  V30 1103 O 117.657 0.93427 1.95193 0
M  V30 1104 C 118.252 3.37154 -0.333572 0
M  V30 1105 C 116.811 3.76387 0.0315542 0
M  V30 1106 C 115.958 2.69377 -0.658117 0
M  V30 1107 H 118.909 1.36231 -0.81405 0
M  V30 1108 H 118.93 3.78014 0.43428 0
M  V30 1109 H 118.442 3.62586 -1.38393 0
M  V30 1110 H 116.543 3.56571 1.0811 0
M  V30 1111 H 116.656 4.77731 -0.361935 0
M  V30 1112 H 115.02 2.5452 -0.0957873 0
M  V30 1113 H 115.803 2.97646 -1.7106 0
M  V30 1114 N 118.248 0.346503 1.53744 0
M  V30 1115 C 119.178 -0.501193 2.28058 0
M  V30 1116 C 120.159 -1.10014 1.29734 0
M  V30 1117 O 121.344 -1.12097 1.58581 0
M  V30 1118 C 118.474 -1.65078 3.05559 0
M  V30 1119 C 117.428 -1.18003 4.11411 0
M  V30 1120 C 116.754 -2.41837 4.76884 0
M  V30 1121 C 118.054 -0.278394 5.21558 0
M  V30 1122 H 119.748 0.11875 2.99164 0
M  V30 1123 H 117.294 0.0585531 1.43881 0
M  V30 1124 H 119.247 -2.25028 3.56287 0
M  V30 1125 H 117.971 -2.29767 2.32109 0
M  V30 1126 H 116.63 -0.603331 3.61601 0
M  V30 1127 H 116.278 -3.0494 4.00026 0
M  V30 1128 H 115.978 -2.1102 5.48402 0
M  V30 1129 H 117.502 -3.02508 5.30397 0
M  V30 1130 H 118.916 -0.784823 5.67903 0
M  V30 1131 H 117.313 -0.0619707 6.00068 0
M  V30 1132 H 118.383 0.684677 4.80042 0
M  V30 1133 N 119.726 -1.57421 0.075193 0
M  V30 1134 C 121.142 -1.57099 -0.281444 0
M  V30 1135 C 121.342 -1.08486 -1.69803 0
M  V30 1136 O 120.398 -0.752279 -2.41033 0
M  V30 1137 C 121.711 -3.00571 -0.0880041 0
M  V30 1138 C 123.259 -3.12605 -0.157281 0
M  V30 1139 C 123.734 -4.57999 0.0079207 0
M  V30 1140 N 125.225 -4.63176 -0.0475725 0
M  V30 1141 C 125.96 -5.73373 0.0557876 0
M  V30 1142 N 125.456 -6.92473 0.21286 0
M  V30 1143 N 127.249 -5.621 -0.00152098 0
M  V30 1144 H 119.4 -1.87335 1.00098 0
M  V30 1145 H 121.663 -0.86377 0.390646 0
M  V30 1146 H 121.369 -3.40262 0.889629 0
M  V30 1147 H 121.243 -3.67754 -0.838875 0
M  V30 1148 H 123.63 -2.72798 -1.1254 0
M  V30 1149 H 123.711 -2.48053 0.62475 0
M  V30 1150 H 123.355 -4.98496 0.972824 0
M  V30 1151 H 123.285 -5.20586 -0.793556 0
M  V30 1152 H 125.776 -3.7753 -0.167244 0
M  V30 1153 H 126.089 -7.72279 0.283781 0
M  V30 1154 H 124.434 -6.94556 0.248267 0
M  V30 1155 H 127.625 -4.67938 -0.122958 0
M  V30 1156 H 127.798 -6.47948 0.0824844 0
M  V30 1157 N 121.204 0.198386 -1.56346 0
M  V30 1158 C 122.62 0.549085 -1.49857 0
M  V30 1159 C 122.82 1.86016 -0.774611 0
M  V30 1160 O 121.876 2.50416 -0.323776 0
M  V30 1161 C 123.189 0.606868 -2.94512 0
M  V30 1162 C 124.737 0.695925 -3.05165 0
M  V30 1163 C 125.212 0.784848 -4.51225 0
M  V30 1164 N 126.703 0.848463 -4.55363 0
M  V30 1165 C 127.438 0.937378 -5.65686 0
M  V30 1166 N 126.934 0.9888 -6.85707 0
M  V30 1167 N 128.727 0.974312 -5.53592 0
M  V30 1168 H 120.878 -0.661655 -2.01831 0
M  V30 1169 H 123.141 -0.235261 -0.918344 0
M  V30 1170 H 122.847 -0.28732 -3.50524 0
M  V30 1171 H 122.721 1.46268 -3.47686 0
M  V30 1172 H 125.108 1.58055 -2.49204 0
M  V30 1173 H 125.189 -0.186022 -2.55123 0
M  V30 1174 H 124.833 -0.0954072 -5.0781 0
M  V30 1175 H 124.763 1.68255 -4.98997 0
M  V30 1176 H 127.254 0.818103 -3.68938 0
M  V30 1177 H 127.567 1.05707 -7.65536 0
M  V30 1178 H 125.912 0.957534 -6.88372 0
M  V30 1179 H 129.103 0.930954 -4.58749 0
M  V30 1180 H 129.276 1.04015 -6.39597 0
M  V30 1181 N 122.682 1.50554 0.465978 0
M  V30 1182 C 123.907 1.65838 1.24549 0
M  V30 1183 C 124.332 0.343486 1.84937 0
M  V30 1184 O 123.69 -0.69324 1.67523 0
M  V30 1185 C 123.738 2.75533 2.32624 0
M  V30 1186 O 122.842 2.37142 3.37398 0
M  V30 1187 H 122.183 0.553893 0.366194 0
M  V30 1188 H 124.713 1.96959 0.553927 0
M  V30 1189 H 124.723 2.98763 2.77857 0
M  V30 1190 H 123.398 3.70962 1.88043 0
M  V30 1191 H 121.975 2.24377 2.97841 0
M  V30 1192 N 124.16 -0.719506 1.40217 0
M  V30 1193 C 125.4 -1.49181 1.39729 0
M  V30 1194 C 125.764 -1.92 -0.00250614 0
M  V30 1195 O 126.965 -2.68473 -0.132479 0
M  V30 1196 C 125.236 -2.68767 2.35582 0
M  V30 1197 S 126.795 -3.58224 2.53418 0
M  V30 1198 H 123.613 -0.510091 0.495307 0
M  V30 1199 H 126.215 -0.841724 1.76452 0
M  V30 1200 H 124.919 -2.35475 3.36124 0
M  V30 1201 H 124.45 -3.38691 2.0013 0
M  V30 1202 H 126.465 -4.63033 1.78367 0
M  V30 1203 N 125.638 -1.25649 -0.95132 0
M  V30 1204 C 126.887 -1.09988 -1.69073 0
M  V30 1205 C 127.2 0.358355 -1.92289 0
M  V30 1206 O 128.406 0.635466 -2.63958 0
M  V30 1207 C 126.862 -1.92012 -3.044 0
M  V30 1208 C 126.47 -3.42347 -2.88968 0
M  V30 1209 C 128.214 -1.8493 -3.82101 0
M  V30 1210 C 126.121 -4.16655 -4.19705 0
M  V30 1211 H 125.051 -0.407993 -0.63408 0
M  V30 1212 H 127.702 -1.49873 -1.05879 0
M  V30 1213 H 126.084 -1.44952 -3.68517 0
M  V30 1214 H 127.258 -3.97104 -2.33762 0
M  V30 1215 H 125.573 -3.50557 -2.24719 0
M  V30 1216 H 128.17 -2.37739 -4.78941 0
M  V30 1217 H 128.513 -0.817883 -4.08187 0
M  V30 1218 H 129.046 -2.29758 -3.2474 0
M  V30 1219 H 125.785 -5.20224 -3.98807 0
M  V30 1220 H 125.305 -3.66681 -4.74663 0
M  V30 1221 H 126.984 -4.24551 -4.88227 0
M  V30 1222 N 127.117 1.15442 -1.07289 0
M  V30 1223 C 128.342 1.90638 -0.816828 0
M  V30 1224 C 128.767 1.77445 0.624083 0
M  V30 1225 O 128.125 1.10671 1.43602 0
M  V30 1226 C 128.173 3.39008 -1.22906 0
M  V30 1227 O 127.277 4.10701 -0.373975 0
M  V30 1228 H 126.618 0.593555 -0.297638 0
M  V30 1229 H 129.148 1.46198 -1.43134 0
M  V30 1230 H 129.158 3.89801 -1.20497 0
M  V30 1231 H 127.833 3.47929 -2.27856 0
M  V30 1232 H 126.41 3.70046 -0.460499 0
M  V30 1233 N 128.595 0.856903 1.32268 0
M  V30 1234 C 129.844 0.457599 1.96441 0
M  V30 1235 C 130.157 -0.992426 1.68553 0
M  V30 1236 O 131.363 -1.49727 2.26482 0
M  V30 1237 C 129.819 0.767358 3.51624 0
M  V30 1238 C 129.427 2.23326 3.88367 0
M  V30 1239 C 131.171 0.435887 4.22256 0
M  V30 1240 C 129.078 2.48613 5.36606 0
M  V30 1241 H 128.008 0.167387 0.735185 0
M  V30 1242 H 130.659 1.048 1.5063 0
M  V30 1243 H 129.041 0.106367 3.95857 0
M  V30 1244 H 130.215 2.93623 3.55137 0
M  V30 1245 H 128.53 2.52948 3.30766 0
M  V30 1246 H 131.127 0.602202 5.31298 0
M  V30 1247 H 131.47 -0.622672 4.11617 0
M  V30 1248 H 132.003 1.05286 3.83614 0
M  V30 1249 H 128.742 3.53101 5.52268 0
M  V30 1250 H 128.262 1.82896 5.71235 0
M  V30 1251 H 129.941 2.32676 6.03714 0
M  V30 1252 N 130.073 -1.45103 0.615059 0
M  V30 1253 C 131.319 -2.02483 0.113347 0
M  V30 1254 C 131.652 -1.48146 -1.25564 0
M  V30 1255 O 130.927 -0.659104 -1.82992 0
M  V30 1256 C 131.21 -3.60005 0.0825278 0
M  V30 1257 C 131.063 -4.2466 1.48271 0
M  V30 1258 C 132.382 -4.35972 -0.601401 0
M  V30 1259 H 129.501 -0.735764 0.0426632 0
M  V30 1260 H 132.143 -1.72868 0.788461 0
M  V30 1261 H 130.293 -3.85367 -0.492378 0
M  V30 1262 H 131.965 -4.10458 2.10527 0
M  V30 1263 H 130.208 -3.82772 2.04127 0
M  V30 1264 H 130.879 -5.336 1.41332 0
M  V30 1265 H 133.355 -4.15947 -0.112666 0
M  V30 1266 H 132.231 -5.45697 -0.592097 0
M  V30 1267 H 132.492 -4.09391 -1.66887 0
M  V30 1268 N 131.551 -0.354651 -1.53558 0
M  V30 1269 C 132.461 0.50515 -2.29097 0
M  V30 1270 C 133.477 1.10223 -1.34636 0
M  V30 1271 O 134.653 1.11553 -1.67684 0
M  V30 1272 C 131.718 1.63479 -3.05738 0
M  V30 1273 C 130.779 1.06636 -4.15845 0
M  V30 1274 C 130.012 2.14217 -4.88822 0
M  V30 1275 O 130.235 3.35137 -4.61562 0
M  V30 1276 O 129.169 1.77887 -5.75013 0
M  V30 1277 H 132.995 -0.109237 -3.03503 0
M  V30 1278 H 130.58 -0.119357 -1.48922 0
M  V30 1279 H 132.462 2.2918 -3.5363 0
M  V30 1280 H 131.137 2.23478 -2.34178 0
M  V30 1281 H 130.044 0.373565 -3.7223 0
M  V30 1282 H 131.377 0.511081 -4.89539 0
M  V30 1283 N 133.029 1.57378 -0.0835403 0
M  V30 1284 C 134.275 1.95025 0.577664 0
M  V30 1285 C 134.63 0.964049 1.66505 0
M  V30 1286 O 133.923 -0.0118235 1.91596 0
M  V30 1287 C 134.117 3.37063 1.1884 0
M  V30 1288 C 133.946 4.49409 0.16171 0
M  V30 1289 C 132.716 5.04642 -0.257756 0
M  V30 1290 C 134.914 5.10722 -0.605634 0
M  V30 1291 N 132.896 6.00537 -1.27393 0
M  V30 1292 C 134.267 6.02225 -1.47395 0
M  V30 1293 C 136.322 4.93501 -0.660418 0
M  V30 1294 C 135.025 6.78355 -2.39221 0
M  V30 1295 C 137.051 5.70283 -1.56623 0
M  V30 1296 C 136.413 6.61444 -2.4222 0
M  V30 1297 H 132.512 0.760512 0.182058 0
M  V30 1298 H 135.096 1.94013 -0.163419 0
M  V30 1299 H 133.267 3.3879 1.89936 0
M  V30 1300 H 134.999 3.61917 1.81103 0
M  V30 1301 H 131.754 4.73428 0.127702 0
M  V30 1302 H 132.178 6.53184 -1.77987 0
M  V30 1303 H 136.82 4.22798 -0.0128221 0
M  V30 1304 H 134.538 7.48327 -3.05011 0
M  V30 1305 H 138.124 5.58976 -1.61361 0
M  V30 1306 H 137.004 7.1982 -3.11174 0
M  V30 1307 N 134.507 -0.190092 1.56449 0
M  V30 1308 C 135.454 -1.23557 1.94942 0
M  V30 1309 C 136.424 -1.44972 0.810696 0
M  V30 1310 O 137.609 -1.58023 1.06927 0
M  V30 1311 C 134.749 -2.57416 2.2985 0
M  V30 1312 C 133.862 -2.43537 3.5681 0
M  V30 1313 C 132.997 -3.70134 3.81017 0
M  V30 1314 C 132.036 -3.51109 5.01387 0
M  V30 1315 N 131.173 -4.6973 5.21822 0
M  V30 1316 H 136.013 -0.900304 2.84075 0
M  V30 1317 H 133.55 -0.43318 1.40577 0
M  V30 1318 H 135.508 -3.35409 2.48106 0
M  V30 1319 H 134.138 -2.88975 1.43852 0
M  V30 1320 H 133.19 -1.56816 3.46573 0
M  V30 1321 H 134.502 -2.25415 4.4496 0
M  V30 1322 H 133.656 -4.56566 3.9954 0
M  V30 1323 H 132.395 -3.91215 2.91207 0
M  V30 1324 H 131.4 -2.63063 4.82782 0
M  V30 1325 H 132.625 -3.31468 5.9271 0
M  V30 1326 H 130.571 -4.91065 4.34961 0
M  V30 1327 H 130.488 -4.54452 6.0416 0
M  V30 1328 H 131.756 -5.57499 5.44808 0
M  V30 1329 N 135.985 -1.50799 -0.457987 0
M  V30 1330 C 137.396 -1.55152 -1.0385 0
M  V30 1331 C 137.747 -0.362719 -1.92818 0
M  V30 1332 O 136.872 0.522915 -2.09987 0
M  V30 1333 C 137.467 -2.81173 -1.89017 0
M  V30 1334 C 136.026 -2.88164 -2.42154 0
M  V30 1335 C 135.173 -2.49591 -1.20829 0
M  V30 1336 H 138.124 -1.56874 -0.240068 0
M  V30 1337 H 138.145 -2.63769 -2.74238 0
M  V30 1338 H 137.657 -3.67677 -1.24238 0
M  V30 1339 H 135.758 -2.06042 -3.10447 0
M  V30 1340 H 135.871 -3.91356 -2.76364 0
M  V30 1341 H 134.235 -2.02322 -1.54719 0
M  V30 1342 H 135.018 -3.38418 -0.576927 0
M  V30 1343 N 137.463 0.71206 -1.40597 0
M  V30 1344 C 138.71 1.47197 -1.39065 0
M  V30 1345 C 139.038 1.94499 0.00583891 0
M  V30 1346 O 138.293 1.68752 0.99102 0
M  V30 1347 C 138.592 2.71039 -2.32965 0
M  V30 1348 C 138.258 2.42484 -3.80148 0
M  V30 1349 C 136.92 2.34406 -4.20247 0
M  V30 1350 C 139.272 2.18598 -4.73143 0
M  V30 1351 C 136.6 2.00516 -5.51371 0
M  V30 1352 C 138.952 1.8622 -6.0457 0
M  V30 1353 C 137.616 1.76626 -6.43708 0
M  V30 1354 H 136.886 0.538634 -0.508876 0
M  V30 1355 H 139.533 0.815325 -1.73276 0
M  V30 1356 H 137.838 3.41558 -1.91951 0
M  V30 1357 H 139.535 3.29138 -2.29061 0
M  V30 1358 H 136.125 2.49659 -3.4838 0
M  V30 1359 H 140.309 2.23793 -4.42979 0
M  V30 1360 H 135.565 1.91628 -5.80593 0
M  V30 1361 H 139.739 1.66752 -6.76141 0
M  V30 1362 H 137.366 1.50133 -7.45228 0
M  V30 1363 N 138.941 1.26152 0.944643 0
M  V30 1364 C 140.218 1.02247 1.66748 0
M  V30 1365 C 140.598 -0.448202 2.06287 0
M  V30 1366 O 139.946 -1.42779 1.78399 0
M  V30 1367 C 140.156 1.96788 2.88228 0
M  V30 1368 C 141.504 2.25201 3.59958 0
M  V30 1369 O 142.528 1.94626 2.98327 0
M  V30 1370 O 141.387 2.77242 4.70956 0
M  V30 1371 H 138.481 0.388517 0.730057 0
M  V30 1372 H 141.027 1.37348 0.99668 0
M  V30 1373 H 139.799 2.96047 2.55875 0
M  V30 1374 H 139.422 1.62145 3.63035 0
M  V30 1375 N 140.419 -1.14872 1.07899 0
M  V30 1376 C 141.668 -1.85135 0.800499 0
M  V30 1377 C 141.981 -1.83547 -0.676014 0
M  V30 1378 O 143.187 -2.49548 -1.06948 0
M  V30 1379 C 141.643 -3.3231 1.38197 0
M  V30 1380 C 141.251 -3.42329 2.8899 0
M  V30 1381 C 142.995 -4.0772 1.18174 0
M  V30 1382 C 140.902 -4.83684 3.403 0
M  V30 1383 H 139.832 -0.693563 0.29578 0
M  V30 1384 H 142.483 -1.29532 1.29976 0
M  V30 1385 H 140.865 -3.87618 0.810431 0
M  V30 1386 H 142.039 -2.97097 3.52236 0
M  V30 1387 H 140.354 -2.80369 3.07867 0
M  V30 1388 H 142.951 -5.12049 1.5398 0
M  V30 1389 H 143.294 -4.16124 0.12117 0
M  V30 1390 H 143.827 -3.58696 1.71994 0
M  V30 1391 H 140.566 -4.80465 4.45907 0
M  V30 1392 H 140.086 -5.29474 2.81811 0
M  V30 1393 H 141.765 -5.52558 3.36584 0
M  V30 1394 N 141.898 -0.863906 -1.31812 0
M  V30 1395 C 142.828 -0.330843 -2.31144 0
M  V30 1396 C 143.809 0.575005 -1.60087 0
M  V30 1397 O 144.994 0.493304 -1.8783 0
M  V30 1398 C 142.124 0.47374 -3.44054 0
M  V30 1399 C 141.078 -0.338481 -4.26659 0
M  V30 1400 C 140.404 0.591412 -5.31419 0
M  V30 1401 C 141.704 -1.56926 -4.98168 0
M  V30 1402 H 143.398 -1.16086 -2.75979 0
M  V30 1403 H 140.944 -0.559657 -1.32679 0
M  V30 1404 H 142.897 0.857143 -4.12591 0
M  V30 1405 H 141.621 1.33721 -2.9797 0
M  V30 1406 H 140.28 -0.703754 -3.59782 0
M  V30 1407 H 139.928 1.45199 -4.81587 0
M  V30 1408 H 139.628 0.0519022 -5.87577 0
M  V30 1409 H 141.152 0.97179 -6.02817 0
M  V30 1410 H 142.566 -1.25764 -5.59336 0
M  V30 1411 H 140.963 -2.04739 -5.64094 0
M  V30 1412 H 142.033 -2.32544 -4.25501 0
M  V30 1413 N 143.376 1.44774 -0.622745 0
M  V30 1414 C 144.625 2.01334 -0.121397 0
M  V30 1415 C 144.938 1.49505 1.26125 0
M  V30 1416 O 146.144 1.98139 1.85616 0
M  V30 1417 C 144.6 3.59516 -0.166298 0
M  V30 1418 C 144.208 4.20342 -1.54974 0
M  V30 1419 C 145.952 4.23582 0.279021 0
M  V30 1420 C 143.859 5.70721 -1.55021 0
M  V30 1421 H 142.789 0.752851 -0.0416172 0
M  V30 1422 H 145.44 1.66083 -0.780309 0
M  V30 1423 H 143.822 3.92027 0.559557 0
M  V30 1424 H 144.996 3.99381 -2.29851 0
M  V30 1425 H 143.311 3.68529 -1.93843 0
M  V30 1426 H 145.908 5.33868 0.298083 0
M  V30 1427 H 146.251 3.95327 1.30471 0
M  V30 1428 H 146.784 3.95843 -0.394063 0
M  V30 1429 H 143.523 6.03698 -2.55399 0
M  V30 1430 H 143.043 5.93829 -0.844245 0
M  V30 1431 H 144.722 6.34203 -1.28047 0
M  V30 1432 N 144.854 0.36279 1.53368 0
M  V30 1433 C 145.784 -0.476976 2.28576 0
M  V30 1434 C 146.765 -1.08631 1.30894 0
M  V30 1435 O 147.95 -1.10409 1.59761 0
M  V30 1436 C 145.08 -1.61828 3.07293 0
M  V30 1437 C 144.034 -1.13633 4.1264 0
M  V30 1438 C 143.36 -2.36766 4.79423 0
M  V30 1439 C 144.66 -0.223061 5.21823 0
M  V30 1440 H 146.354 0.150474 2.99022 0
M  V30 1441 H 143.9 0.0738103 1.43811 0
M  V30 1442 H 145.853 -2.21237 3.58653 0
M  V30 1443 H 144.577 -2.27292 2.34533 0
M  V30 1444 H 143.236 -0.564945 3.62221 0
M  V30 1445 H 142.884 -3.0068 4.03238 0
M  V30 1446 H 142.584 -2.05192 5.50609 0
M  V30 1447 H 144.108 -2.96865 5.33576 0
M  V30 1448 H 145.522 -0.724545 5.68703 0
M  V30 1449 H 143.919 0.001678 6.001 0
M  V30 1450 H 144.989 0.735553 4.79289 0
M  V30 1451 N 146.332 -1.57332 0.0918853 0
M  V30 1452 C 147.262 -2.16872 -0.865371 0
M  V30 1453 C 148.243 -1.10118 -1.29646 0
M  V30 1454 O 149.428 -1.38242 -1.36392 0
M  V30 1455 C 146.558 -2.74649 -2.12569 0
M  V30 1456 C 145.512 -3.86747 -1.83333 0
M  V30 1457 C 144.838 -4.31212 -3.16166 0
M  V30 1458 C 146.138 -5.10089 -1.1228 0
M  V30 1459 H 147.832 -2.97114 -0.369307 0
M  V30 1460 H 145.378 -1.42918 -0.176194 0
M  V30 1461 H 147.331 -3.14952 -2.7997 0
M  V30 1462 H 146.055 -1.91657 -2.64452 0
M  V30 1463 H 144.714 -3.46978 -1.18331 0
M  V30 1464 H 144.362 -3.45115 -3.6593 0
M  V30 1465 H 144.062 -5.06788 -2.97388 0
M  V30 1466 H 145.586 -4.74146 -3.84731 0
M  V30 1467 H 147 -5.47582 -1.69785 0
M  V30 1468 H 145.397 -5.91073 -1.03693 0
M  V30 1469 H 146.467 -4.84786 -0.105041 0
M  V30 1470 N 147.81 0.181792 -1.56548 0
M  V30 1471 C 149.038 0.915947 -1.85521 0
M  V30 1472 C 149.453 1.76282 -0.676016 0
M  V30 1473 O 148.81 1.79012 0.355077 0
M  V30 1474 C 148.861 1.80126 -3.13427 0
M  V30 1475 O 148.582 0.988562 -4.26801 0
M  V30 1476 C 150.083 2.64597 -3.55673 0
M  V30 1477 H 147.303 0.26661 -0.61576 0
M  V30 1478 H 149.847 0.185039 -2.03661 0
M  V30 1479 H 148.002 2.48563 -2.97145 0
M  V30 1480 H 148.416 1.59308 -4.99721 0
M  V30 1481 H 149.89 3.2235 -4.48101 0
M  V30 1482 H 150.367 3.38958 -2.79292 0
M  V30 1483 H 150.973 2.0151 -3.74532 0
M  V30 1484 N 149.288 1.51039 0.449983 0
M  V30 1485 C 150.537 1.62317 1.19733 0
M  V30 1486 C 150.85 0.339101 1.92638 0
M  V30 1487 O 152.056 0.331069 2.69474 0
M  V30 1488 C 150.512 2.86608 2.17678 0
M  V30 1489 C 150.12 4.21972 1.50479 0
M  V30 1490 C 151.864 3.07239 2.92924 0
M  V30 1491 C 149.771 5.37426 2.46834 0
M  V30 1492 H 148.701 0.604532 0.450619 0
M  V30 1493 H 151.352 1.77494 0.465625 0
M  V30 1494 H 149.734 2.65037 2.94231 0
M  V30 1495 H 150.908 4.53878 0.795716 0
M  V30 1496 H 149.223 4.07117 0.874344 0
M  V30 1497 H 151.82 3.90668 3.65079 0
M  V30 1498 H 152.163 2.19807 3.5354 0
M  V30 1499 H 152.696 3.29091 2.23481 0
M  V30 1500 H 149.435 6.27079 1.90926 0
M  V30 1501 H 148.955 5.09912 3.15832 0
M  V30 1502 H 150.634 5.68862 3.08228 0
M  V30 1503 N 150.766 -0.704594 1.40972 0
M  V30 1504 C 152.013 -1.46458 1.39844 0
M  V30 1505 C 152.341 -1.94499 0.00447594 0
M  V30 1506 O 151.596 -1.69275 -0.982057 0
M  V30 1507 C 151.895 -2.698 2.34399 0
M  V30 1508 C 151.561 -2.40464 3.81429 0
M  V30 1509 C 150.223 -2.32174 4.21484 0
M  V30 1510 C 152.575 -2.16086 4.74296 0
M  V30 1511 C 149.903 -1.97589 5.52427 0
M  V30 1512 C 152.255 -1.83011 6.05549 0
M  V30 1513 C 150.919 -1.7321 6.44635 0
M  V30 1514 H 150.189 -0.535927 0.511725 0
M  V30 1515 H 152.836 -0.806124 1.73706 0
M  V30 1516 H 151.141 -3.40536 1.93759 0
M  V30 1517 H 152.838 -3.27919 2.30804 0
M  V30 1518 H 149.428 -2.47808 3.49699 0
M  V30 1519 H 153.612 -2.2144 4.4416 0
M  V30 1520 H 148.868 -1.88547 5.81601 0
M  V30 1521 H 153.042 -1.63164 6.77016 0
M  V30 1522 H 150.669 -1.46179 7.46013 0
M  V30 1523 N 152.244 -1.26651 -0.937939 0
M  V30 1524 C 153.207 -1.08546 -2.01867 0
M  V30 1525 C 154.207 -0.0327327 -1.60767 0
M  V30 1526 O 155.397 -0.276427 -1.71993 0
M  V30 1527 C 152.529 -0.651711 -3.34613 0
M  V30 1528 H 153.722 -2.04502 -2.1936 0
M  V30 1529 H 151.275 -1.09294 -1.11734 0
M  V30 1530 H 152.01 0.309696 -3.22818 0
M  V30 1531 H 151.795 -1.41189 -3.65798 0
M  V30 1532 H 153.285 -0.546973 -4.14002 0
M  V30 1533 N 153.722 1.14298 -1.08507 0
M  V30 1534 C 154.67 2.21483 -0.710483 0
M  V30 1535 C 155.664 1.66998 0.284234 0
M  V30 1536 O 156.87 1.79401 0.146692 0
M  V30 1537 H 153.245 0.721578 -0.211729 0
M  V30 1538 H 155.216 2.50348 -1.62384 0
M  V30 1539 C 153.965 3.4743 -0.137007 0
M  V30 1540 H 153.288 3.89686 -0.893592 0
M  V30 1541 H 154.728 4.2391 0.0872789 0
M  V30 1542 C 153.187 3.17548 1.12538 0
M  V30 1543 O 153.717 3.35437 2.21009 0
M  V30 1544 N 151.923 2.71499 1.03617 0
M  V30 1545 H 151.47 2.57143 0.153403 0
M  V30 1546 H 151.428 2.51881 1.88158 0
M  V30 1547 N 155.201 0.870884 1.31352 0
M  V30 1548 C 156.441 0.488783 1.9847 0
M  V30 1549 C 156.805 -0.941536 1.67329 0
M  V30 1550 O 158.006 -1.42903 2.27667 0
M  V30 1551 C 156.277 0.739688 3.49662 0
M  V30 1552 S 157.836 0.457582 4.36408 0
M  V30 1553 H 154.654 0.18242 0.6872 0
M  V30 1554 H 157.256 1.12711 1.59739 0
M  V30 1555 H 155.96 1.77944 3.69816 0
M  V30 1556 H 155.491 0.0883905 3.93301 0
M  V30 1557 H 157.506 -0.709752 4.91098 0
M  V30 1558 N 156.679 -1.44442 0.630414 0
M  V30 1559 C 157.925 -2.02351 0.134816 0
M  V30 1560 C 158.258 -1.4947 -1.23986 0
M  V30 1561 O 157.533 -0.678475 -1.82283 0
M  V30 1562 C 157.816 -3.59898 0.120707 0
M  V30 1563 C 157.669 -4.23063 1.52767 0
M  V30 1564 C 158.988 -4.36585 -0.555127 0
M  V30 1565 H 156.107 -0.73527 0.0504646 0
M  V30 1566 H 158.749 -1.72022 0.806751 0
M  V30 1567 H 156.899 -3.85868 -0.451477 0
M  V30 1568 H 158.571 -4.08202 2.14869 0
M  V30 1569 H 156.814 -3.80586 2.08175 0
M  V30 1570 H 157.485 -5.32071 1.46984 0
M  V30 1571 H 159.961 -4.16044 -0.0685429 0
M  V30 1572 H 158.837 -5.46294 -0.534185 0
M  V30 1573 H 159.098 -4.11138 -1.62535 0
M  V30 1574 N 158.157 -0.370918 -1.53173 0
M  V30 1575 C 159.12 0.460778 -2.24521 0
M  V30 1576 C 160.12 1.00536 -1.25496 0
M  V30 1577 O 161.31 0.890266 -1.49733 0
M  V30 1578 C 158.442 1.64457 -2.98608 0
M  V30 1579 H 159.635 -0.163613 -2.99453 0
M  V30 1580 H 157.188 -0.122699 -1.55818 0
M  V30 1581 H 157.923 2.30691 -2.2793 0
M  V30 1582 H 157.708 1.26099 -3.7127 0
M  V30 1583 H 159.198 2.23384 -3.5283 0
M  V30 1584 N 159.635 1.57281 -0.100228 0
M  V30 1585 C 160.565 2.17328 0.853857 0
M  V30 1586 C 161.546 1.10804 1.2906 0
M  V30 1587 O 162.731 1.38963 1.35657 0
M  V30 1588 C 159.861 2.75772 2.11109 0
M  V30 1589 C 158.815 3.87713 1.81279 0
M  V30 1590 C 158.141 4.32882 3.13874 0
M  V30 1591 C 159.441 5.10677 1.09574 0
M  V30 1592 H 161.135 2.97305 0.353545 0
M  V30 1593 H 158.681 1.43009 0.168612 0
M  V30 1594 H 160.634 3.16433 2.78296 0
M  V30 1595 H 159.358 1.93057 2.63432 0
M  V30 1596 H 158.017 3.476 1.16489 0
M  V30 1597 H 157.665 3.47051 3.64095 0
M  V30 1598 H 157.365 5.08358 2.94696 0
M  V30 1599 H 158.889 4.7618 3.82211 0
M  V30 1600 H 160.303 5.48474 1.66879 0
M  V30 1601 H 158.7 5.91615 1.00557 0
M  V30 1602 H 159.77 4.84835 0.0793299 0
M  V30 1603 N 161.113 -0.173488 1.56642 0
M  V30 1604 C 162.361 -0.888706 1.81512 0
M  V30 1605 C 162.682 -1.82875 0.676872 0
M  V30 1606 O 161.952 -1.93536 -0.303414 0
M  V30 1607 H 160.532 -0.331164 0.669582 0
M  V30 1608 H 163.194 -0.173823 1.94123 0
M  V30 1609 H 162.29 -1.46691 2.75478 0
M  V30 1610 N 162.591 -1.51276 -0.441967 0
M  V30 1611 C 163.837 -1.63958 -1.19355 0
M  V30 1612 C 164.17 -0.352543 -1.90973 0
M  V30 1613 O 163.445 0.647627 -1.83401 0
M  V30 1614 C 163.728 -2.83979 -2.21422 0
M  V30 1615 C 163.581 -4.22646 -1.53918 0
M  V30 1616 C 164.9 -2.99521 -3.22451 0
M  V30 1617 H 162.019 -0.596709 -0.432559 0
M  V30 1618 H 164.661 -1.83748 -0.483398 0
M  V30 1619 H 162.811 -2.67237 -2.81987 0
M  V30 1620 H 164.483 -4.51045 -0.967256 0
M  V30 1621 H 162.726 -4.25558 -0.841615 0
M  V30 1622 H 163.397 -5.02609 -2.28229 0
M  V30 1623 H 165.873 -3.14944 -2.71937 0
M  V30 1624 H 164.749 -3.85072 -3.91166 0
M  V30 1625 H 165.01 -2.11391 -3.88287 0
M  V30 1626 N 164.069 0.697108 -1.41344 0
M  V30 1627 C 165.299 1.48377 -1.43763 0
M  V30 1628 C 165.707 1.89156 -0.0408726 0
M  V30 1629 O 165.05 1.57239 0.949812 0
M  V30 1630 C 165.112 2.7781 -2.2817 0
M  V30 1631 C 164.776 2.59244 -3.76353 0
M  V30 1632 C 165.773 2.25292 -4.68551 0
M  V30 1633 C 163.458 2.74933 -4.20378 0
M  V30 1634 C 165.452 2.07264 -6.02761 0
M  V30 1635 C 163.139 2.56521 -5.54653 0
M  V30 1636 C 164.137 2.22737 -6.4566 0
M  V30 1637 O 163.825 2.04485 -7.77458 0
M  V30 1638 H 163.557 0.463842 -0.491759 0
M  V30 1639 H 166.111 0.865934 -1.86255 0
M  V30 1640 H 164.341 3.41995 -1.8049 0
M  V30 1641 H 166.03 3.39608 -2.22309 0
M  V30 1642 H 166.796 2.12787 -4.35829 0
M  V30 1643 H 162.675 3.00213 -3.49848 0
M  V30 1644 H 166.219 1.80817 -6.73759 0
M  V30 1645 H 162.116 2.68616 -5.86955 0
M  V30 1646 H 162.884 2.1926 -7.88586 0
M  V30 1647 N 165.547 1.27147 0.931209 0
M  V30 1648 C 166.796 1.12664 1.67302 0
M  V30 1649 C 167.109 -0.327718 1.92835 0
M  V30 1650 O 168.315 -0.593392 2.64936 0
M  V30 1651 C 166.771 1.9683 3.01307 0
M  V30 1652 C 166.379 3.46901 2.83485 0
M  V30 1653 C 168.123 1.90985 3.79111 0
M  V30 1654 C 166.03 4.23279 4.13024 0
M  V30 1655 H 164.96 0.41803 0.627509 0
M  V30 1656 H 167.611 1.51539 1.03481 0
M  V30 1657 H 165.993 1.50797 3.66164 0
M  V30 1658 H 167.167 4.00773 2.27415 0
M  V30 1659 H 165.482 3.54088 2.19113 0
M  V30 1660 H 168.079 2.45328 4.75098 0
M  V30 1661 H 168.422 0.882718 4.06834 0
M  V30 1662 H 168.955 2.34895 3.21044 0
M  V30 1663 H 165.694 5.26503 3.90481 0
M  V30 1664 H 165.214 3.74186 4.6877 0
M  V30 1665 H 166.893 4.32265 4.81411 0
M  V30 1666 N 167.025 -1.13721 1.09112 0
M  V30 1667 C 168.436 -1.6648 0.845068 0
M  V30 1668 C 168.787 -1.85911 -0.62701 0
M  V30 1669 O 167.912 -1.57556 -1.48341 0
M  V30 1670 C 168.507 -3.02413 1.52748 0
M  V30 1671 C 167.066 -3.52176 1.32849 0
M  V30 1672 C 166.213 -2.27492 1.58564 0
M  V30 1673 H 169.164 -0.976872 1.25072 0
M  V30 1674 H 169.185 -3.68223 0.958752 0
M  V30 1675 H 168.697 -2.88238 2.59885 0
M  V30 1676 H 166.798 -3.7156 0.278137 0
M  V30 1677 H 166.911 -4.32499 2.0611 0
M  V30 1678 H 165.275 -2.33923 1.00758 0
M  V30 1679 H 166.058 -2.15886 2.66924 0
M  V30 1680 N 168.503 -0.877838 -1.30888 0
M  V30 1681 C 169.75 -0.492696 -1.96415 0
M  V30 1682 C 170.078 0.956671 -1.69346 0
M  V30 1683 O 169.333 1.68993 -0.986913 0
M  V30 1684 C 169.632 -0.705748 -3.50363 0
M  V30 1685 C 169.298 -2.1291 -3.97467 0
M  V30 1686 C 167.96 -2.51834 -4.1004 0
M  V30 1687 C 170.312 -3.05702 -4.22132 0
M  V30 1688 C 167.64 -3.82775 -4.44635 0
M  V30 1689 C 169.992 -4.36166 -4.58194 0
M  V30 1690 C 168.656 -4.74993 -4.68975 0
M  V30 1691 H 167.926 -0.18029 -0.718733 0
M  V30 1692 H 170.573 -1.11233 -1.55883 0
M  V30 1693 H 168.878 -0.00303058 -3.918 0
M  V30 1694 H 170.575 -0.387456 -3.99124 0
M  V30 1695 H 167.165 -1.81694 -3.88182 0
M  V30 1696 H 171.349 -2.76853 -4.11906 0
M  V30 1697 H 166.605 -4.12609 -4.51181 0
M  V30 1698 H 170.779 -5.08111 -4.76231 0
M  V30 1699 H 168.406 -5.76495 -4.95537 0
M  V30 1700 N 169.982 1.44106 -0.638065 0
M  V30 1701 C 171.393 1.85316 -0.226894 0
M  V30 1702 C 171.744 1.53399 1.22324 0
M  V30 1703 O 170.869 0.975463 1.93167 0
M  V30 1704 C 171.464 3.3637 -0.405013 0
M  V30 1705 C 170.023 3.76369 -0.0482902 0
M  V30 1706 C 169.17 2.67921 -0.715108 0
M  V30 1707 H 172.121 1.34474 -0.842764 0
M  V30 1708 H 172.142 3.7885 0.354 0
M  V30 1709 H 171.654 3.59569 -1.46053 0
M  V30 1710 H 169.755 3.58784 1.00522 0
M  V30 1711 H 169.868 4.76856 -0.463187 0
M  V30 1712 H 168.232 2.54259 -0.149753 0
M  V30 1713 H 169.015 2.93951 -1.77335 0
M  V30 1714 N 171.46 0.379036 1.52974 0
M  V30 1715 C 172.37 -0.468639 2.29872 0
M  V30 1716 C 173.386 -1.08067 1.36373 0
M  V30 1717 O 174.562 -1.08871 1.69438 0
M  V30 1718 C 171.627 -1.58594 3.083 0
M  V30 1719 C 170.688 -1.00007 4.17489 0
M  V30 1720 C 169.921 -2.06413 4.92168 0
M  V30 1721 O 170.144 -3.27751 4.66835 0
M  V30 1722 O 169.078 -1.68717 5.7777 0
M  V30 1723 H 172.904 0.157508 3.03291 0
M  V30 1724 H 170.489 0.143035 1.48714 0
M  V30 1725 H 172.371 -2.23525 3.57232 0
M  V30 1726 H 171.046 -2.19724 2.37703 0
M  V30 1727 H 169.953 -0.314299 3.72777 0
M  V30 1728 H 171.286 -0.433135 4.90291 0
M  V30 1729 N 172.938 -1.57226 0.108567 0
M  V30 1730 C 174.215 -1.86333 -0.594939 0
M  V30 1731 C 174.595 -1.00788 -1.85486 0
M  V30 1732 O 173.943 -0.0839293 -2.28346 0
M  V30 1733 C 174.153 -3.37265 -0.897405 0
M  V30 1734 C 175.501 -4.05629 -1.25501 0
M  V30 1735 O 176.525 -3.42224 -0.987998 0
M  V30 1736 O 175.384 -5.17531 -1.75567 0
M  V30 1737 H 172.478 -0.771018 -0.2991 0
M  V30 1738 H 175.024 -1.69102 0.142283 0
M  V30 1739 H 173.796 -3.913 -0.00413806 0
M  V30 1740 H 173.419 -3.59889 -1.69014 0
M  V30 1741 N 174.416 0.165178 -1.56732 0
M  V30 1742 C 175.693 0.908443 -1.73224 0
M  V30 1743 C 176.073 2.0013 -0.67165 0
M  V30 1744 O 175.421 2.26353 0.31253 0
M  V30 1745 C 175.631 1.46756 -3.16644 0
M  V30 1746 C 176.979 1.93809 -3.77787 0
M  V30 1747 O 178.003 1.56537 -3.1996 0
M  V30 1748 O 176.862 2.62486 -4.79336 0
M  V30 1749 H 173.956 0.428025 -0.707618 0
M  V30 1750 H 176.502 0.152526 -1.69013 0
M  V30 1751 H 175.274 0.68129 -3.85323 0
M  V30 1752 H 174.897 2.28749 -3.25207 0
M  V30 1753 N 175.894 1.51508 0.433938 0
M  V30 1754 C 177.119 1.68443 1.21003 0
M  V30 1755 C 177.544 0.382636 1.84167 0
M  V30 1756 O 176.902 -0.65755 1.68956 0
M  V30 1757 C 176.95 2.80405 2.26727 0
M  V30 1758 O 176.054 2.44245 3.32292 0
M  V30 1759 H 175.395 0.561536 0.354363 0
M  V30 1760 H 177.925 1.9809 0.512024 0
M  V30 1761 H 177.935 3.0459 2.71457 0
M  V30 1762 H 176.61 3.74867 1.80132 0
M  V30 1763 H 175.187 2.30644 2.93015 0
M  V30 1764 N 177.372 -0.689602 1.41712 0
M  V30 1765 C 178.32 -1.82475 1.44242 0
M  V30 1766 C 179.314 -1.66354 0.319774 0
M  V30 1767 O 180.52 -1.73143 0.492089 0
M  V30 1768 H 176.895 -0.601416 0.451445 0
M  V30 1769 H 178.866 -1.77458 2.39899 0
M  V30 1770 C 177.615 -3.20535 1.3473 0
M  V30 1771 H 176.938 -3.33559 2.20405 0
M  V30 1772 H 178.378 -4.00023 1.40562 0
M  V30 1773 C 176.837 -3.36846 0.0603281 0
M  V30 1774 O 177.367 -3.91656 -0.892663 0
M  V30 1775 N 175.573 -2.90595 -0.0177039 0
M  V30 1776 H 175.12 -2.46178 0.758572 0
M  V30 1777 H 175.078 -3.01886 -0.878201 0
M  V30 1778 N 178.85 -1.27639 -0.924453 0
M  V30 1779 C 180.078 -1.16989 -1.70649 0
M  V30 1780 C 180.493 0.272869 -1.86818 0
M  V30 1781 O 179.85 1.18549 -1.38753 0
M  V30 1782 C 179.901 -1.85229 -3.10439 0
M  V30 1783 O 179.622 -3.23868 -2.95028 0
M  V30 1784 C 181.123 -1.80746 -4.04779 0
M  V30 1785 H 178.343 -0.406595 -0.53378 0
M  V30 1786 H 180.887 -1.68569 -1.15778 0
M  V30 1787 H 179.042 -1.37545 -3.6216 0
M  V30 1788 H 179.456 -3.57889 -3.83426 0
M  V30 1789 H 180.93 -2.33101 -5.00368 0
M  V30 1790 H 181.407 -0.777499 -4.32263 0
M  V30 1791 H 182.013 -2.28059 -3.58984 0
M  V30 1792 N 180.328 1.1314 -1.09713 0
M  V30 1793 C 181.291 2.16831 -0.742751 0
M  V30 1794 C 182.291 1.59159 0.229129 0
M  V30 1795 O 183.481 1.74199 0.00693237 0
M  V30 1796 C 180.613 3.40756 -0.0989168 0
M  V30 1797 H 181.806 2.49695 -1.66109 0
M  V30 1798 H 179.359 1.2802 -0.896699 0
M  V30 1799 H 180.094 3.13485 0.830514 0
M  V30 1800 H 179.879 3.83888 -0.798265 0
M  V30 1801 H 181.369 4.17386 0.133524 0
M  V30 1802 N 181.806 0.884767 1.30421 0
M  V30 1803 C 182.754 0.340869 2.30089 0
M  V30 1804 C 183.748 -0.55201 1.60154 0
M  V30 1805 O 184.954 -0.436467 1.74628 0
M  V30 1806 H 181.329 0.0915739 0.746404 0
M  V30 1807 H 183.3 1.19513 2.73421 0
M  V30 1808 C 182.049 -0.429779 3.45034 0
M  V30 1809 H 181.372 0.248024 3.9903 0
M  V30 1810 H 182.812 -0.775445 4.16849 0
M  V30 1811 C 181.271 -1.62677 2.95022 0
M  V30 1812 O 181.801 -2.72614 2.95033 0
M  V30 1813 N 180.007 -1.46387 2.51036 0
M  V30 1814 H 179.554 -0.569506 2.51226 0
M  V30 1815 H 179.512 -2.26612 2.17932 0
M  V30 1816 N 183.284 -1.43765 0.645699 0
M  V30 1817 C 184.234 -2.27884 -0.0726442 0
M  V30 1818 C 185.218 -1.39483 -0.802086 0
M  V30 1819 O 186.41 -1.63174 -0.685791 0
M  V30 1820 C 183.539 -3.27055 -1.04356 0
M  V30 1821 C 182.625 -4.22944 -0.312985 0
M  V30 1822 N 183.016 -5.01391 0.666386 0
M  V30 1823 C 181.314 -4.42528 -0.55546 0
M  V30 1824 C 182.015 -5.71217 1.09935 0
M  V30 1825 N 180.991 -5.41856 0.435137 0
M  V30 1826 H 184.793 -2.85949 0.678988 0
M  V30 1827 H 182.307 -1.55378 0.472368 0
M  V30 1828 H 184.304 -3.86089 -1.57292 0
M  V30 1829 H 182.964 -2.70551 -1.79534 0
M  V30 1830 H 183.975 -5.07252 1.04481 0
M  V30 1831 H 180.652 -3.97104 -1.28899 0
M  V30 1832 H 182.042 -6.44202 1.90929 0
M  V30 1833 N 184.763 -0.387143 -1.52771 0
M  V30 1834 C 185.711 0.463953 -2.27926 0
M  V30 1835 C 186.705 1.06493 -1.31741 0
M  V30 1836 O 187.911 1.00565 -1.49287 0
M  V30 1837 H 184.286 0.16837 -0.732909 0
M  V30 1838 H 186.257 -0.19141 -2.97785 0
M  V30 1839 C 185.006 1.5803 -3.09713 0
M  V30 1840 H 184.329 1.12718 -3.83581 0
M  V30 1841 H 185.769 2.15008 -3.65442 0
M  V30 1842 C 184.228 2.53509 -2.2189 0
M  V30 1843 O 184.758 3.56863 -1.84422 0
M  V30 1844 N 182.964 2.23199 -1.86093 0
M  V30 1845 H 182.511 1.39185 -2.16761 0
M  V30 1846 H 182.469 2.87333 -1.27621 0
M  V30 1847 N 186.241 1.57166 -0.116904 0
M  V30 1848 C 187.171 2.18222 0.830759 0
M  V30 1849 C 188.152 1.12167 1.27877 0
M  V30 1850 O 189.337 1.40394 1.34176 0
M  V30 1851 C 186.467 2.77996 2.08172 0
M  V30 1852 C 185.421 3.89614 1.77157 0
M  V30 1853 C 184.747 4.36187 3.09265 0
M  V30 1854 C 186.047 5.1181 1.04151 0
M  V30 1855 H 187.741 2.97664 0.321992 0
M  V30 1856 H 185.287 1.4318 0.153434 0
M  V30 1857 H 187.24 3.19366 2.74924 0
M  V30 1858 H 185.964 1.9584 2.6137 0
M  V30 1859 H 184.623 3.48816 1.12796 0
M  V30 1860 H 184.271 3.50893 3.60393 0
M  V30 1861 H 183.971 5.11455 2.89288 0
M  V30 1862 H 185.495 4.80207 3.77139 0
M  V30 1863 H 186.909 5.50214 1.61052 0
M  V30 1864 H 185.306 5.92648 0.942762 0
M  V30 1865 H 186.376 4.84892 0.0279022 0
M  V30 1866 N 187.719 -0.156864 1.56817 0
M  V30 1867 C 188.629 -1.2136 2.00771 0
M  V30 1868 C 189.645 -1.47598 0.921459 0
M  V30 1869 O 190.821 -1.59462 1.2302 0
M  V30 1870 C 187.886 -2.52943 2.37109 0
M  V30 1871 C 186.947 -2.34439 3.59634 0
M  V30 1872 C 186.18 -3.59748 3.94229 0
M  V30 1873 O 186.403 -4.65526 3.29609 0
M  V30 1874 O 185.337 -3.52998 4.8752 0
M  V30 1875 H 189.163 -0.870468 2.90958 0
M  V30 1876 H 186.748 -0.36484 1.44877 0
M  V30 1877 H 188.63 -3.30538 2.61386 0
M  V30 1878 H 187.305 -2.86806 1.5008 0
M  V30 1879 H 186.212 -1.54828 3.40557 0
M  V30 1880 H 187.545 -2.05496 4.4725 0
M  V30 1881 N 189.197 -1.51736 -0.425897 0
M  V30 1882 C 190.129 -1.70083 -1.53638 0
M  V30 1883 C 191.142 -0.581349 -1.52066 0
M  V30 1884 O 192.331 -0.856017 -1.56635 0
M  V30 1885 C 189.431 -1.71078 -2.9255 0
M  V30 1886 C 188.604 -2.99795 -3.185 0
M  V30 1887 C 187.663 -2.92825 -4.37196 0
M  V30 1888 O 186.689 -3.66756 -4.35291 0
M  V30 1889 N 187.891 -2.0946 -5.41393 0
M  V30 1890 H 190.656 -2.65882 -1.383 0
M  V30 1891 H 188.217 -1.49765 -0.614988 0
M  V30 1892 H 190.209 -1.63969 -3.69995 0
M  V30 1893 H 188.779 -0.828242 -3.01428 0
M  V30 1894 H 187.999 -3.20684 -2.2925 0
M  V30 1895 H 189.287 -3.84977 -3.32671 0
M  V30 1896 H 188.685 -1.48792 -5.45781 0
M  V30 1897 H 187.242 -2.08221 -6.17647 0
M  V30 1898 N 190.675 0.682077 -1.42076 0
M  V30 1899 C 191.921 1.44428 -1.42367 0
M  V30 1900 C 192.254 1.94164 -0.0373056 0
M  V30 1901 O 191.529 1.70429 0.937239 0
M  V30 1902 C 191.812 2.64654 -2.44194 0
M  V30 1903 C 191.665 2.20596 -3.91991 0
M  V30 1904 C 192.984 3.66865 -2.431 0
M  V30 1905 H 190.103 0.523834 -0.518428 0
M  V30 1906 H 192.745 0.77576 -1.73442 0
M  V30 1907 H 190.895 3.2169 -2.17826 0
M  V30 1908 H 192.567 1.68783 -4.29313 0
M  V30 1909 H 190.81 1.52242 -4.06208 0
M  V30 1910 H 191.481 3.06921 -4.58807 0
M  V30 1911 H 193.957 3.19531 -2.66532 0
M  V30 1912 H 192.833 4.48577 -3.16339 0
M  V30 1913 H 193.094 4.17493 -1.45437 0
M  V30 1914 N 192.153 1.28127 0.917671 0
M  V30 1915 C 193.063 1.13556 2.05286 0
M  V30 1916 C 194.079 0.0630914 1.73886 0
M  V30 1917 O 195.255 0.271598 1.9956 0
M  V30 1918 C 192.32 0.794676 3.3747 0
M  V30 1919 C 191.381 1.94909 3.82504 0
M  V30 1920 C 190.614 1.62437 5.0838 0
M  V30 1921 O 190.837 0.536905 5.67867 0
M  V30 1922 O 189.771 2.46677 5.4903 0
M  V30 1923 H 193.597 2.08844 2.20495 0
M  V30 1924 H 191.182 1.07409 1.03845 0
M  V30 1925 H 193.064 0.618344 4.16839 0
M  V30 1926 H 191.739 -0.128581 3.23445 0
M  V30 1927 H 190.646 2.18055 3.03978 0
M  V30 1928 H 191.979 2.85291 4.01086 0
M  V30 1929 N 193.631 -1.12557 1.10312 0
M  V30 1930 C 194.861 -1.87592 0.865617 0
M  V30 1931 C 195.269 -1.79851 -0.587389 0
M  V30 1932 O 194.612 -1.16949 -1.41664 0
M  V30 1933 C 194.674 -3.37665 1.23381 0
M  V30 1934 C 194.338 -3.69181 2.69359 0
M  V30 1935 C 195.335 -3.67652 3.67597 0
M  V30 1936 C 193.02 -3.98555 3.05711 0
M  V30 1937 C 195.014 -3.95053 5.00212 0
M  V30 1938 C 192.701 -4.25616 4.38514 0
M  V30 1939 C 193.699 -4.23851 5.35574 0
M  V30 1940 O 193.387 -4.50242 6.65986 0
M  V30 1941 H 193.119 -0.600442 0.310557 0
M  V30 1942 H 195.673 -1.4335 1.47105 0
M  V30 1943 H 193.903 -3.82454 0.571467 0
M  V30 1944 H 195.592 -3.94041 0.973994 0
M  V30 1945 H 196.358 -3.45024 3.40857 0
M  V30 1946 H 192.237 -3.99071 2.30789 0
M  V30 1947 H 195.781 -3.93591 5.75962 0
M  V30 1948 H 191.678 -4.47718 4.64994 0
M  V30 1949 H 192.446 -4.67867 6.71597 0
M  V30 1950 N 195.109 -0.891671 -1.2995 0
M  V30 1951 C 196.355 -0.514261 -1.96171 0
M  V30 1952 C 196.688 0.935506 -1.70182 0
M  V30 1953 O 195.963 1.66204 -1.01028 0
M  V30 1954 C 196.246 -0.797719 -3.51153 0
M  V30 1955 C 196.099 -2.2986 -3.86632 0
M  V30 1956 C 197.418 -0.278749 -4.39216 0
M  V30 1957 H 194.537 -0.188314 -0.712535 0
M  V30 1958 H 197.179 -1.11689 -1.53706 0
M  V30 1959 H 195.329 -0.284826 -3.87455 0
M  V30 1960 H 197.001 -2.88042 -3.60319 0
M  V30 1961 H 195.244 -2.76257 -3.34462 0
M  V30 1962 H 195.915 -2.44753 -4.94773 0
M  V30 1963 H 198.391 -0.717825 -4.09862 0
M  V30 1964 H 197.267 -0.506353 -5.46559 0
M  V30 1965 H 197.528 0.820266 -4.34424 0
M  V30 1966 N 196.587 1.43421 -0.653314 0
M  V30 1967 C 197.834 2.01812 -0.166745 0
M  V30 1968 C 198.162 1.51535 1.21931 0
M  V30 1969 O 197.417 0.698975 1.82792 0
M  V30 1970 C 197.716 3.57176 -0.126623 0
M  V30 1971 C 197.382 4.26798 -1.45444 0
M  V30 1972 C 196.044 4.45534 -1.81805 0
M  V30 1973 C 198.396 4.66225 -2.32989 0
M  V30 1974 C 195.724 5.00961 -3.05377 0
M  V30 1975 C 198.076 5.23021 -3.55853 0
M  V30 1976 C 196.74 5.39973 -3.9241 0
M  V30 1977 H 196.01 0.738484 -0.0610162 0
M  V30 1978 H 198.657 1.71896 -0.84404 0
M  V30 1979 H 196.962 3.86634 0.634123 0
M  V30 1980 H 198.659 4.00112 0.266723 0
M  V30 1981 H 195.249 4.12561 -1.16153 0
M  V30 1982 H 199.433 4.51443 -2.06187 0
M  V30 1983 H 194.689 5.12271 -3.3375 0
M  V30 1984 H 198.863 5.52518 -4.23907 0
M  V30 1985 H 196.49 5.82687 -4.88242 0
M  V30 1986 N 198.065 0.39524 1.52563 0
M  V30 1987 C 198.995 -0.428384 2.29537 0
M  V30 1988 C 199.976 -1.05831 1.33169 0
M  V30 1989 O 201.161 -1.06995 1.62067 0
M  V30 1990 C 198.291 -1.55274 3.10656 0
M  V30 1991 C 197.245 -1.04855 4.14957 0
M  V30 1992 C 196.571 -2.26543 4.84337 0
M  V30 1993 C 197.871 -0.112324 5.22179 0
M  V30 1994 H 199.565 0.213867 2.98635 0
M  V30 1995 H 197.111 0.104298 1.43622 0
M  V30 1996 H 199.064 -2.1358 3.63265 0
M  V30 1997 H 197.788 -2.22266 2.39302 0
M  V30 1998 H 196.447 -0.487985 3.63338 0
M  V30 1999 H 196.095 -2.92059 4.09525 0
M  V30 2000 H 195.795 -1.93466 5.54837 0
M  V30 2001 H 197.319 -2.85481 5.39753 0
M  V30 2002 H 198.733 -0.603752 5.70112 0
M  V30 2003 H 197.13 0.128968 5.99961 0
M  V30 2004 H 198.2 0.837052 4.77621 0
M  V30 2005 N 199.544 -1.57102 0.125237 0
M  V30 2006 C 200.79 -1.95697 -0.532035 0
M  V30 2007 C 201.123 -1.009 -1.6593 0
M  V30 2008 O 200.398 -0.047347 -1.94442 0
M  V30 2009 C 200.681 -3.44181 -1.05884 0
M  V30 2010 C 200.534 -4.49752 0.0654392 0
M  V30 2011 C 201.853 -3.94655 -1.9477 0
M  V30 2012 H 198.972 -0.711571 -0.191925 0
M  V30 2013 H 201.614 -1.88923 0.20206 0
M  V30 2014 H 199.764 -3.50085 -1.68442 0
M  V30 2015 H 201.436 -4.55943 0.700982 0
M  V30 2016 H 199.679 -4.27653 0.727709 0
M  V30 2017 H 200.35 -5.50924 -0.344505 0
M  V30 2018 H 202.826 -3.91094 -1.42074 0
M  V30 2019 H 201.702 -4.99057 -2.28546 0
M  V30 2020 H 201.963 -3.35718 -2.87656 0
M  V30 2021 N 201.022 0.148545 -1.56898 0
M  V30 2022 C 202.271 0.85984 -1.82454 0
M  V30 2023 C 202.584 1.82406 -0.706229 0
M  V30 2024 O 203.79 2.57938 -0.847349 0
M  V30 2025 C 202.246 1.57967 -3.2338 0
M  V30 2026 C 201.854 0.65794 -4.43142 0
M  V30 2027 C 203.598 2.27784 -3.58211 0
M  V30 2028 C 201.505 1.3793 -5.75091 0
M  V30 2029 H 200.435 0.324834 -0.68044 0
M  V30 2030 H 203.086 0.112588 -1.83154 0
M  V30 2031 H 201.468 2.37249 -3.17063 0
M  V30 2032 H 202.642 -0.0995497 -4.60692 0
M  V30 2033 H 200.957 0.0682643 -4.16344 0
M  V30 2034 H 203.554 2.8239 -4.54048 0
M  V30 2035 H 203.897 3.04204 -2.84193 0
M  V30 2036 H 204.43 1.55421 -3.66182 0
M  V30 2037 H 201.169 0.656982 -6.52199 0
M  V30 2038 H 200.689 2.10954 -5.61479 0
M  V30 2039 H 202.368 1.92063 -6.17835 0
M  V30 2040 N 202.5 1.5196 0.417844 0
M  V30 2041 C 203.747 1.65591 1.16559 0
M  V30 2042 C 204.075 0.381565 1.90721 0
M  V30 2043 O 203.33 -0.635156 1.85106 0
M  V30 2044 C 203.629 2.82269 2.19223 0
M  V30 2045 C 203.295 4.20819 1.61933 0
M  V30 2046 C 201.957 4.58506 1.46033 0
M  V30 2047 C 204.309 5.07196 1.20008 0
M  V30 2048 C 201.637 5.80257 0.867113 0
M  V30 2049 C 203.989 6.29544 0.621086 0
M  V30 2050 C 202.653 6.65987 0.449144 0
M  V30 2051 H 201.923 0.605939 0.42652 0
M  V30 2052 H 204.57 1.86041 0.45397 0
M  V30 2053 H 202.875 2.56118 2.96498 0
M  V30 2054 H 204.572 2.90012 2.76936 0
M  V30 2055 H 201.162 3.91116 1.7529 0
M  V30 2056 H 205.346 4.7867 1.31105 0
M  V30 2057 H 200.602 6.07124 0.721833 0
M  V30 2058 H 204.776 6.95805 0.287798 0
M  V30 2059 H 202.403 7.60199 -0.012632 0
M  V30 2060 N 203.978 -0.674533 1.42435 0
M  V30 2061 C 205.206 -1.46283 1.46317 0
M  V30 2062 C 205.621 -1.88653 0.0745836 0
M  V30 2063 O 204.978 -1.58151 -0.91074 0
M  V30 2064 C 205.029 -2.71178 2.3905 0
M  V30 2065 O 204.75 -2.30586 3.72507 0
M  V30 2066 C 206.251 -3.64738 2.51955 0
M  V30 2067 H 203.471 -0.450104 0.497642 0
M  V30 2068 H 206.015 -0.828792 1.86953 0
M  V30 2069 H 204.17 -3.3077 2.01667 0
M  V30 2070 H 204.584 -3.11241 4.22172 0
M  V30 2071 H 206.058 -4.49096 3.20962 0
M  V30 2072 H 206.535 -4.10656 1.55752 0
M  V30 2073 H 207.141 -3.11038 2.90061 0
M  V30 2074 N 205.456 -1.28612 -0.910864 0
M  V30 2075 C 206.702 -1.16106 -1.66274 0
M  V30 2076 C 207.035 0.289113 -1.92036 0
M  V30 2077 O 206.31 1.21 -1.52281 0
M  V30 2078 C 206.593 -1.96309 -3.01885 0
M  V30 2079 C 206.446 -3.49405 -2.8326 0
M  V30 2080 C 207.765 -1.78076 -4.02463 0
M  V30 2081 H 204.884 -0.423152 -0.603417 0
M  V30 2082 H 207.526 -1.57961 -1.05586 0
M  V30 2083 H 205.676 -1.60742 -3.53687 0
M  V30 2084 H 207.348 -3.94894 -2.38446 0
M  V30 2085 H 205.591 -3.74893 -2.18261 0
M  V30 2086 H 206.262 -4.00784 -3.79574 0
M  V30 2087 H 208.738 -2.0912 -3.59733 0
M  V30 2088 H 207.614 -2.36561 -4.95308 0
M  V30 2089 H 207.875 -0.733008 -4.35981 0
M  V30 2090 N 206.934 1.1197 -1.10907 0
M  V30 2091 C 207.844 2.21433 -0.774896 0
M  V30 2092 C 208.86 1.72478 0.229657 0
M  V30 2093 O 210.036 2.01288 0.0672008 0
M  V30 2094 C 207.101 3.4602 -0.216986 0
M  V30 2095 C 206.162 4.09791 -1.27944 0
M  V30 2096 C 205.395 5.28431 -0.748055 0
M  V30 2097 O 205.618 5.68823 0.423833 0
M  V30 2098 O 204.552 5.82644 -1.51027 0
M  V30 2099 H 208.378 2.5242 -1.68873 0
M  V30 2100 H 205.963 1.20399 -0.884555 0
M  V30 2101 H 207.845 4.21304 0.090059 0
M  V30 2102 H 206.52 3.16698 0.669633 0
M  V30 2103 H 205.427 3.36265 -1.63941 0
M  V30 2104 H 206.76 4.4328 -2.13925 0
M  V30 2105 N 208.412 0.89855 1.29475 0
M  V30 2106 C 209.64 0.539261 1.99749 0
M  V30 2107 C 210.055 -0.875716 1.67262 0
M  V30 2108 O 209.412 -1.57786 0.917049 0
M  V30 2109 C 209.463 0.72061 3.54245 0
M  V30 2110 O 209.184 2.07989 3.8558 0
M  V30 2111 C 210.685 0.366118 4.41786 0
M  V30 2112 H 207.905 0.207047 0.638258 0
M  V30 2113 H 210.449 1.20758 1.65039 0
M  V30 2114 H 208.604 0.0994862 3.87272 0
M  V30 2115 H 209.018 2.10841 4.80257 0
M  V30 2116 H 210.492 0.543848 5.49314 0
M  V30 2117 H 210.969 -0.696763 4.33638 0
M  V30 2118 H 211.575 0.964135 4.14228 0
M  V30 2119 N 209.89 -1.43072 0.660911 0
M  V30 2120 C 211.136 -2.0202 0.177708 0
M  V30 2121 C 211.469 -1.52066 -1.20787 0
M  V30 2122 O 210.744 -0.716987 -1.80802 0
M  V30 2123 C 211.027 -3.59561 0.197019 0
M  V30 2124 C 210.88 -4.19727 1.61706 0
M  V30 2125 C 212.199 -4.37664 -0.462396 0
M  V30 2126 H 209.318 -0.734034 0.0660494 0
M  V30 2127 H 211.96 -1.70272 0.843058 0
M  V30 2128 H 210.11 -3.86739 -0.369527 0
M  V30 2129 H 211.782 -4.03553 2.23479 0
M  V30 2130 H 210.025 -3.76084 2.16201 0
M  V30 2131 H 210.696 -5.28834 1.58237 0
M  V30 2132 H 213.172 -4.16095 0.0197215 0
M  V30 2133 H 212.048 -5.47305 -0.418188 0
M  V30 2134 H 212.309 -4.14493 -1.53778 0
M  V30 2135 N 211.368 -0.403325 -1.52352 0
M  V30 2136 C 212.298 0.416205 -2.29761 0
M  V30 2137 C 213.279 1.05123 -1.33728 0
M  V30 2138 O 214.464 1.06134 -1.62632 0
M  V30 2139 C 211.594 1.53624 -3.11475 0
M  V30 2140 C 210.548 1.02653 -4.15507 0
M  V30 2141 C 209.874 2.23971 -4.85532 0
M  V30 2142 C 211.174 0.08463 -5.22231 0
M  V30 2143 H 212.868 -0.229701 -2.98518 0
M  V30 2144 H 210.414 -0.111913 -1.43564 0
M  V30 2145 H 212.367 2.1165 -3.64393 0
M  V30 2146 H 211.091 2.20994 -2.40477 0
M  V30 2147 H 209.75 0.46871 -3.63591 0
M  V30 2148 H 209.398 2.89883 -4.11068 0
M  V30 2149 H 209.098 1.90521 -5.55856 0
M  V30 2150 H 210.622 2.82614 -5.41259 0
M  V30 2151 H 212.036 0.573509 -5.70424 0
M  V30 2152 H 210.433 -0.160783 -5.99885 0
M  V30 2153 H 211.503 -0.86237 -4.7717 0
M  V30 2154 N 212.846 1.57033 -0.133567 0
M  V30 2155 C 213.793 2.16074 0.811208 0
M  V30 2156 C 214.763 1.08979 1.2535 0
M  V30 2157 O 215.948 1.36958 1.32843 0
M  V30 2158 C 213.088 2.77595 2.05024 0
M  V30 2159 C 212.201 3.99042 1.65498 0
M  V30 2160 C 211.336 4.48603 2.84479 0
M  V30 2161 C 210.375 5.62547 2.41262 0
M  V30 2162 N 209.512 6.06787 3.53206 0
M  V30 2163 H 214.352 2.96477 0.300906 0
M  V30 2164 H 211.889 1.46462 0.136822 0
M  V30 2165 H 213.847 3.11402 2.77642 0
M  V30 2166 H 212.477 1.99859 2.53488 0
M  V30 2167 H 211.529 3.71302 0.826981 0
M  V30 2168 H 212.841 4.81629 1.29748 0
M  V30 2169 H 211.995 4.84395 3.65303 0
M  V30 2170 H 210.734 3.64995 3.23465 0
M  V30 2171 H 209.739 5.26345 1.58874 0
M  V30 2172 H 210.964 6.47931 2.03377 0
M  V30 2173 H 208.91 5.26117 3.91838 0
M  V30 2174 H 208.827 6.84266 3.21427 0
M  V30 2175 H 210.095 6.4722 4.34427 0
M  V30 2176 N 214.325 -0.140222 1.56975 0
M  V30 2177 C 215.574 -0.850152 1.82908 0
M  V30 2178 C 215.887 -1.82028 0.715892 0
M  V30 2179 O 217.093 -2.57485 0.861016 0
M  V30 2180 C 215.549 -1.5625 3.24213 0
M  V30 2181 C 215.157 -0.63443 4.43485 0
M  V30 2182 C 216.901 -2.25881 3.59413 0
M  V30 2183 C 214.808 -1.34879 5.75814 0
M  V30 2184 H 213.738 -0.321221 0.682153 0
M  V30 2185 H 216.389 -0.102874 1.83211 0
M  V30 2186 H 214.771 -2.35565 3.18316 0
M  V30 2187 H 215.945 0.12398 4.60633 0
M  V30 2188 H 214.26 -0.0461836 4.16374 0
M  V30 2189 H 216.857 -2.79978 4.5554 0
M  V30 2190 H 217.2 -3.02693 2.85802 0
M  V30 2191 H 217.733 -1.53477 3.67001 0
M  V30 2192 H 214.472 -0.622385 6.52539 0
M  V30 2193 H 213.992 -2.07974 5.6259 0
M  V30 2194 H 215.671 -1.88784 6.18845 0
M  V30 2195 N 215.803 -1.52179 -0.40978 0
M  V30 2196 C 217.049 -1.66453 -1.15851 0
M  V30 2197 C 217.382 -0.392972 -1.90182 0
M  V30 2198 O 216.657 0.608579 -1.84734 0
M  V30 2199 C 216.94 -2.88612 -2.15349 0
M  V30 2200 C 216.793 -4.25815 -1.44918 0
M  V30 2201 C 218.112 -3.06294 -3.16026 0
M  V30 2202 H 215.231 -0.60575 -0.419805 0
M  V30 2203 H 217.873 -1.84732 -0.444314 0
M  V30 2204 H 216.023 -2.73158 -2.76255 0
M  V30 2205 H 217.695 -4.52995 -0.871365 0
M  V30 2206 H 215.938 -4.27247 -0.751159 0
M  V30 2207 H 216.609 -5.07337 -2.17516 0
M  V30 2208 H 219.085 -3.20641 -2.65195 0
M  V30 2209 H 217.961 -3.93283 -3.8291 0
M  V30 2210 H 218.222 -2.19579 -3.83715 0
M  V30 2211 N 217.281 0.66697 -1.42791 0
M  V30 2212 C 218.244 1.76211 -1.46568 0
M  V30 2213 C 219.244 1.56896 -0.352196 0
M  V30 2214 O 220.434 1.63044 -0.613364 0
M  V30 2215 C 217.566 3.14935 -1.30494 0
M  V30 2216 H 218.759 1.74247 -2.44086 0
M  V30 2217 H 216.312 0.877342 -1.29354 0
M  V30 2218 H 217.047 3.2252 -0.339301 0
M  V30 2219 H 216.832 3.30359 -2.11199 0
M  V30 2220 H 218.322 3.94821 -1.36038 0
M  V30 2221 N 218.759 1.29093 0.90403 0
M  V30 2222 C 219.989 1.19516 1.68522 0
M  V30 2223 C 220.397 -0.24738 1.87576 0
M  V30 2224 O 219.74 -1.17798 1.40959 0
M  V30 2225 C 219.802 1.83249 3.0929 0
M  V30 2226 C 219.466 3.32531 3.13484 0
M  V30 2227 C 220.463 4.28821 2.93953 0
M  V30 2228 C 218.148 3.73656 3.35688 0
M  V30 2229 C 220.142 5.64212 2.96553 0
M  V30 2230 C 217.829 5.0917 3.37919 0
M  V30 2231 C 218.827 6.04258 3.18373 0
M  V30 2232 O 218.515 7.37298 3.20385 0
M  V30 2233 H 218.247 0.415467 0.533257 0
M  V30 2234 H 220.801 1.70912 1.13922 0
M  V30 2235 H 219.031 1.26358 3.65473 0
M  V30 2236 H 220.72 1.68054 3.69476 0
M  V30 2237 H 221.486 3.98382 2.76616 0
M  V30 2238 H 217.365 3.00101 3.49943 0
M  V30 2239 H 220.909 6.38407 2.81216 0
M  V30 2240 H 216.806 5.39256 3.54787 0
M  V30 2241 H 217.574 7.46048 3.36681 0
M  V30 2242 N 220.237 -1.11381 1.11499 0
M  V30 2243 C 221.485 -1.8277 0.862524 0
M  V30 2244 C 221.806 -1.85097 -0.613534 0
M  V30 2245 O 221.076 -1.32198 -1.4457 0
M  V30 2246 H 219.656 -0.676823 0.316101 0
M  V30 2247 H 222.318 -1.34816 1.4075 0
M  V30 2248 H 221.414 -2.86614 1.23527 0
M  V30 2249 N 221.715 -0.905404 -1.28997 0
M  V30 2250 C 222.645 -0.404212 -2.29975 0
M  V30 2251 C 223.626 0.523784 -1.61835 0
M  V30 2252 O 224.811 0.433298 -1.89304 0
M  V30 2253 C 221.941 0.364042 -3.45387 0
M  V30 2254 C 220.895 -0.474048 -4.25367 0
M  V30 2255 C 220.221 0.422045 -5.33032 0
M  V30 2256 C 221.521 -1.72696 -4.92923 0
M  V30 2257 H 223.215 -1.24807 -2.72146 0
M  V30 2258 H 220.761 -0.601585 -1.30832 0
M  V30 2259 H 222.714 0.725447 -4.15109 0
M  V30 2260 H 221.438 1.24174 -3.02074 0
M  V30 2261 H 220.097 -0.81786 -3.57361 0
M  V30 2262 H 219.745 1.29804 -4.85963 0
M  V30 2263 H 219.445 -0.135057 -5.87445 0
M  V30 2264 H 220.969 0.779517 -6.05604 0
M  V30 2265 H 222.383 -1.43495 -5.55051 0
M  V30 2266 H 220.78 -2.22582 -5.57295 0
M  V30 2267 H 221.85 -2.45964 -4.17887 0
M  V30 2268 N 223.193 1.4272 -0.668489 0
M  V30 2269 C 224.439 2.01923 -0.188419 0
M  V30 2270 C 224.772 1.52704 1.19979 0
M  V30 2271 O 224.047 0.726566 1.8042 0
M  V30 2272 C 224.33 3.59451 -0.216085 0
M  V30 2273 C 224.183 4.18864 -1.6393 0
M  V30 2274 C 225.502 4.37903 0.439179 0
M  V30 2275 H 222.621 0.733674 -0.0699412 0
M  V30 2276 H 225.263 1.69822 -0.852076 0
M  V30 2277 H 223.413 3.86929 0.349012 0
M  V30 2278 H 225.085 4.02362 -2.25616 0
M  V30 2279 H 223.328 3.74933 -2.18193 0
M  V30 2280 H 223.999 5.27987 -1.61039 0
M  V30 2281 H 226.475 4.16079 -0.0417878 0
M  V30 2282 H 225.351 5.47519 0.389157 0
M  V30 2283 H 225.612 4.15303 1.51577 0
M  V30 2284 N 224.671 0.411399 1.52136 0
M  V30 2285 C 225.601 -0.404015 2.29978 0
M  V30 2286 C 226.582 -1.04412 1.34284 0
M  V30 2287 O 227.767 -1.0527 1.63192 0
M  V30 2288 C 224.897 -1.5197 3.12286 0
M  V30 2289 C 223.851 -1.00448 4.16046 0
M  V30 2290 C 223.177 -2.21393 4.86712 0
M  V30 2291 C 224.477 -0.0569336 5.22269 0
M  V30 2292 H 226.171 0.245529 2.98392 0
M  V30 2293 H 223.717 0.119525 1.43503 0
M  V30 2294 H 225.67 -2.09715 3.6551 0
M  V30 2295 H 224.394 -2.19716 2.41646 0
M  V30 2296 H 223.053 -0.449421 3.63835 0
M  V30 2297 H 222.701 -2.87699 4.12599 0
M  V30 2298 H 222.401 -1.87571 5.56858 0
M  V30 2299 H 223.925 -2.7974 5.4275 0
M  V30 2300 H 225.339 -0.54325 5.7072 0
M  V30 2301 H 223.736 0.192594 5.99791 0
M  V30 2302 H 224.806 0.887663 4.76706 0
M  V30 2303 N 226.149 -1.5696 0.141893 0
M  V30 2304 C 227.099 -2.13074 -0.811383 0
M  V30 2305 C 228.083 -1.05726 -1.21288 0
M  V30 2306 O 229.275 -1.31914 -1.18015 0
M  V30 2307 C 226.404 -2.75186 -2.0525 0
M  V30 2308 C 225.49 -3.8965 -1.67432 0
M  V30 2309 N 225.881 -4.95733 -1.0041 0
M  V30 2310 C 224.179 -4.00262 -1.96739 0
M  V30 2311 C 224.88 -5.75858 -0.822345 0
M  V30 2312 N 223.856 -5.26452 -1.3546 0
M  V30 2313 H 227.658 -2.92465 -0.290031 0
M  V30 2314 H 225.172 -1.6229 -0.0598218 0
M  V30 2315 H 227.169 -3.13745 -2.74535 0
M  V30 2316 H 225.829 -1.97266 -2.57907 0
M  V30 2317 H 226.84 -5.13607 -0.665441 0
M  V30 2318 H 223.517 -3.33412 -2.51282 0
M  V30 2319 H 224.907 -6.71254 -0.294496 0
M  V30 2320 N 227.627 0.131896 -1.57047 0
M  V30 2321 C 229.038 0.690407 -1.73465 0
M  V30 2322 C 229.389 1.8094 -0.758629 0
M  V30 2323 O 228.514 2.16282 0.0713813 0
M  V30 2324 C 229.109 1.25916 -3.14532 0
M  V30 2325 C 227.668 1.76409 -3.32501 0
M  V30 2326 C 226.815 0.658579 -2.69366 0
M  V30 2327 H 229.766 -0.0939144 -1.58422 0
M  V30 2328 H 229.787 2.12892 -3.15369 0
M  V30 2329 H 229.299 0.444515 -3.85546 0
M  V30 2330 H 227.4 2.60391 -2.66509 0
M  V30 2331 H 227.513 1.88241 -4.4057 0
M  V30 2332 H 225.877 1.08899 -2.30246 0
M  V30 2333 H 226.66 -0.14487 -3.42994 0
M  V30 2334 N 229.106 1.52395 0.401703 0
M  V30 2335 C 230.331 1.70972 1.17403 0
M  V30 2336 C 230.756 0.421615 1.83314 0
M  V30 2337 O 230.114 -0.621564 1.70312 0
M  V30 2338 C 230.162 2.85151 2.20728 0
M  V30 2339 O 229.266 2.51238 3.27037 0
M  V30 2340 H 228.607 0.568927 0.342372 0
M  V30 2341 H 231.137 1.99131 0.469891 0
M  V30 2342 H 231.147 3.10279 2.64936 0
M  V30 2343 H 229.822 3.78603 1.7214 0
M  V30 2344 H 228.399 2.36808 2.88057 0
M  V30 2345 N 230.584 -0.659388 1.43143 0
M  V30 2346 C 231.547 -1.75432 1.47501 0
M  V30 2347 C 232.547 -1.56707 0.360512 0
M  V30 2348 O 233.737 -1.62717 0.622002 0
M  V30 2349 C 230.869 -3.14239 1.32162 0
M  V30 2350 H 232.062 -1.7295 2.45006 0
M  V30 2351 H 229.615 -0.870469 1.29817 0
M  V30 2352 H 230.35 -3.22336 0.356401 0
M  V30 2353 H 230.135 -3.29235 2.12948 0
M  V30 2354 H 231.625 -3.94094 1.3813 0
M  V30 2355 N 232.062 -1.29571 -0.897171 0
M  V30 2356 C 233.292 -1.20408 -1.67886 0
M  V30 2357 C 233.7 0.237429 -1.87704 0
M  V30 2358 O 233.043 1.17048 -1.41582 0
M  V30 2359 C 233.105 -1.84887 -3.08314 0
M  V30 2360 C 232.769 -3.34189 -3.11716 0
M  V30 2361 C 233.766 -4.30374 -2.91675 0
M  V30 2362 C 231.451 -3.75431 -3.33701 0
M  V30 2363 C 233.445 -5.65776 -2.93557 0
M  V30 2364 C 231.132 -5.10955 -3.35214 0
M  V30 2365 C 232.13 -6.05938 -3.15164 0
M  V30 2366 O 231.818 -7.38987 -3.1647 0
M  V30 2367 H 231.55 -0.418289 -0.531046 0
M  V30 2368 H 234.104 -1.71514 -1.13014 0
M  V30 2369 H 232.334 -1.28295 -3.64798 0
M  V30 2370 H 234.023 -1.70011 -3.6858 0
M  V30 2371 H 234.789 -3.99844 -2.74499 0
M  V30 2372 H 230.668 -3.01953 -3.48347 0
M  V30 2373 H 234.212 -6.39889 -2.77826 0
M  V30 2374 H 230.109 -5.4113 -3.51922 0
M  V30 2375 H 230.877 -7.47823 -3.3272 0
M  V30 2376 N 233.54 1.10788 -1.12088 0
M  V30 2377 C 234.789 1.82036 -0.868659 0
M  V30 2378 C 235.102 1.85929 0.607426 0
M  V30 2379 O 236.308 2.53346 0.97613 0
M  V30 2380 C 234.764 3.26951 -1.50435 0
M  V30 2381 C 234.372 3.31367 -3.01496 0
M  V30 2382 C 236.116 4.03053 -1.33225 0
M  V30 2383 C 234.023 4.7072 -3.58017 0
M  V30 2384 H 232.953 0.682108 -0.321318 0
M  V30 2385 H 235.604 1.24618 -1.34694 0
M  V30 2386 H 233.986 3.84343 -0.953735 0
M  V30 2387 H 235.16 2.83819 -3.6302 0
M  V30 2388 H 233.475 2.6875 -3.18061 0
M  V30 2389 H 236.072 5.05981 -1.72878 0
M  V30 2390 H 236.415 4.15387 -0.275529 0
M  V30 2391 H 236.948 3.52066 -1.85188 0
M  V30 2392 H 233.687 4.63585 -4.63432 0
M  V30 2393 H 233.207 5.1865 -3.01268 0
M  V30 2394 H 234.886 5.39685 -3.56859 0
M  V30 2395 N 235.018 0.912232 1.28515 0
M  V30 2396 C 236.434 0.610159 1.47476 0
M  V30 2397 C 236.634 -0.844955 1.82928 0
M  V30 2398 O 235.69 -1.62416 1.93332 0
M  V30 2399 C 237.003 1.54675 2.57868 0
M  V30 2400 C 238.551 1.55331 2.71738 0
M  V30 2401 C 239.026 2.47649 3.85272 0
M  V30 2402 N 240.517 2.45767 3.92623 0
M  V30 2403 C 241.252 3.13896 4.79851 0
M  V30 2404 N 240.748 3.9135 5.71679 0
M  V30 2405 N 242.541 3.02991 4.73448 0
M  V30 2406 H 234.692 1.85318 1.03783 0
M  V30 2407 H 236.955 0.794777 0.516753 0
M  V30 2408 H 236.661 2.5841 2.38574 0
M  V30 2409 H 236.535 1.27671 3.54937 0
M  V30 2410 H 238.922 0.52335 2.90422 0
M  V30 2411 H 239.003 1.86378 1.75205 0
M  V30 2412 H 238.647 3.50745 3.67342 0
M  V30 2413 H 238.577 2.13904 4.81199 0
M  V30 2414 H 241.068 1.89503 3.26951 0
M  V30 2415 H 241.381 4.40359 6.35062 0
M  V30 2416 H 239.726 3.95455 5.71524 0
M  V30 2417 H 242.917 2.41987 4.007 0
M  V30 2418 H 243.09 3.5636 5.41213 0
M  V30 2419 N 236.496 -1.42363 0.676048 0
M  V30 2420 C 237.444 -2.32596 -0.0131507 0
M  V30 2421 C 238.438 -1.49891 -0.789238 0
M  V30 2422 O 239.644 -1.65955 -0.697061 0
M  V30 2423 H 236.019 -0.751647 -0.0230481 0
M  V30 2424 H 237.99 -2.88421 0.765243 0
M  V30 2425 C 236.739 -3.34479 -0.949702 0
M  V30 2426 H 236.062 -3.98158 -0.361938 0
M  V30 2427 H 237.502 -4.00199 -1.4006 0
M  V30 2428 C 235.961 -2.66838 -2.05667 0
M  V30 2429 O 236.491 -2.50124 -3.14326 0
M  V30 2430 N 234.697 -2.25843 -1.82875 0
M  V30 2431 H 234.244 -2.39637 -0.945085 0
M  V30 2432 H 234.202 -1.80918 -2.5713 0
M  V30 2433 N 237.974 -0.419461 -1.51915 0
M  V30 2434 C 239.222 0.152637 -2.01523 0
M  V30 2435 C 239.543 1.44762 -1.30649 0
M  V30 2436 O 238.813 1.90997 -0.435535 0
M  V30 2437 H 237.393 0.0593966 -0.744635 0
M  V30 2438 H 240.055 -0.558073 -1.86739 0
M  V30 2439 H 239.151 0.341369 -3.10227 0
M  V30 2440 N 239.452 1.56882 -0.150215 0
M  V30 2441 C 240.698 1.97299 0.494427 0
M  V30 2442 C 241.053 1.0338 1.62266 0
M  V30 2443 O 240.346 0.0694497 1.91474 0
M  V30 2444 C 240.54 3.41801 1.04437 0
M  V30 2445 C 240.369 4.49691 -0.0290451 0
M  V30 2446 C 239.139 5.03095 -0.47156 0
M  V30 2447 C 241.337 5.07693 -0.821703 0
M  V30 2448 N 239.319 5.94593 -1.52749 0
M  V30 2449 C 240.69 5.95431 -1.72805 0
M  V30 2450 C 242.745 4.90256 -0.869134 0
M  V30 2451 C 241.448 6.67599 -2.67777 0
M  V30 2452 C 243.474 5.63127 -1.8067 0
M  V30 2453 C 242.836 6.50576 -2.70057 0
M  V30 2454 H 238.935 0.76755 0.149639 0
M  V30 2455 H 241.519 1.93145 -0.24556 0
M  V30 2456 H 239.69 3.46541 1.75396 0
M  V30 2457 H 241.422 3.69272 1.6559 0
M  V30 2458 H 238.177 4.73543 -0.0732101 0
M  V30 2459 H 238.601 6.45047 -2.05531 0
M  V30 2460 H 243.243 4.22363 -0.192134 0
M  V30 2461 H 240.961 7.34717 -3.36476 0
M  V30 2462 H 244.547 5.51629 -1.84924 0
M  V30 2463 H 243.427 7.05974 -3.41424 0
M  V30 2464 N 240.93 -0.123565 1.57115 0
M  V30 2465 C 241.878 -1.17082 2.00984 0
M  V30 2466 C 242.872 -1.43136 0.906009 0
M  V30 2467 O 244.078 -1.43152 1.09121 0
M  V30 2468 H 240.453 -0.394653 0.64012 0
M  V30 2469 H 242.424 -0.774292 2.88179 0
M  V30 2470 C 241.173 -2.49057 2.42623 0
M  V30 2471 H 240.496 -2.29846 3.27125 0
M  V30 2472 H 241.936 -3.20906 2.7712 0
M  V30 2473 C 240.395 -3.11305 1.28805 0
M  V30 2474 O 240.925 -3.97171 0.60153 0
M  V30 2475 N 239.131 -2.71111 1.04628 0
M  V30 2476 H 238.678 -2.01382 1.60634 0
M  V30 2477 H 238.636 -3.1309 0.286685 0
M  V30 2478 N 242.408 -1.52605 -0.393616 0
M  V30 2479 C 243.338 -1.80022 -1.48709 0
M  V30 2480 C 244.319 -0.651995 -1.57108 0
M  V30 2481 O 245.504 -0.89913 -1.72132 0
M  V30 2482 C 242.634 -1.96492 -2.86371 0
M  V30 2483 C 241.588 -3.12161 -2.92813 0
M  V30 2484 C 240.914 -3.13877 -4.3288 0
M  V30 2485 C 242.214 -4.51322 -2.6288 0
M  V30 2486 H 243.908 -2.71589 -1.26015 0
M  V30 2487 H 241.454 -1.30684 -0.604778 0
M  V30 2488 H 243.407 -2.14255 -3.62867 0
M  V30 2489 H 242.131 -1.01611 -3.10391 0
M  V30 2490 H 240.79 -2.94173 -2.18764 0
M  V30 2491 H 240.438 -2.16687 -4.53933 0
M  V30 2492 H 240.138 -3.91576 -4.38112 0
M  V30 2493 H 241.662 -3.33789 -5.1129 0
M  V30 2494 H 243.076 -4.69435 -3.29096 0
M  V30 2495 H 241.473 -5.31053 -2.79468 0
M  V30 2496 H 242.543 -4.58353 -1.58242 0
M  V30 2497 N 243.887 0.651787 -1.4349 0
M  V30 2498 C 244.817 1.77621 -1.51569 0
M  V30 2499 C 245.798 1.66022 -0.370253 0
M  V30 2500 O 246.983 1.85095 -0.587658 0
M  V30 2501 C 244.113 3.16056 -1.43966 0
M  V30 2502 C 243.067 3.4242 -2.56774 0
M  V30 2503 C 242.393 4.8067 -2.34223 0
M  V30 2504 C 243.693 3.37023 -3.99015 0
M  V30 2505 H 245.387 1.71117 -2.45681 0
M  V30 2506 H 242.933 0.821825 -1.18246 0
M  V30 2507 H 244.886 3.94472 -1.48221 0
M  V30 2508 H 243.61 3.23293 -0.463586 0
M  V30 2509 H 242.269 2.66375 -2.51873 0
M  V30 2510 H 241.917 4.84585 -1.34856 0
M  V30 2511 H 241.617 4.9927 -3.09844 0
M  V30 2512 H 243.141 5.61342 -2.40265 0
M  V30 2513 H 244.555 4.05374 -4.05395 0
M  V30 2514 H 242.952 3.67159 -4.74673 0
M  V30 2515 H 244.022 2.3518 -4.2405 0
M  V30 2516 N 245.365 1.30045 0.890287 0
M  V30 2517 C 246.642 1.09227 1.62262 0
M  V30 2518 C 247.022 -0.360305 2.08002 0
M  V30 2519 O 246.37 -1.35084 1.84295 0
M  V30 2520 C 246.58 2.08835 2.79623 0
M  V30 2521 C 247.928 2.40266 3.50082 0
M  V30 2522 O 248.952 2.07104 2.89804 0
M  V30 2523 O 247.811 2.96967 4.58773 0
M  V30 2524 H 244.905 0.419132 0.712922 0
M  V30 2525 H 247.451 1.41451 0.937529 0
M  V30 2526 H 246.223 3.06633 2.43089 0
M  V30 2527 H 245.846 1.77397 3.55832 0
M  V30 2528 N 246.843 -1.10192 1.12674 0
M  V30 2529 C 248.09 -1.82205 0.883606 0
M  V30 2530 C 248.418 -1.8532 -0.590492 0
M  V30 2531 O 247.673 -1.31137 -1.45264 0
M  V30 2532 C 247.972 -3.28552 1.4067 0
M  V30 2533 C 247.638 -3.45582 2.89627 0
M  V30 2534 C 246.3 -3.49937 3.30299 0
M  V30 2535 C 248.652 -3.50768 3.85501 0
M  V30 2536 C 245.98 -3.57049 4.65546 0
M  V30 2537 C 248.332 -3.59414 5.20581 0
M  V30 2538 C 246.996 -3.62034 5.60792 0
M  V30 2539 H 246.266 -0.666735 0.323334 0
M  V30 2540 H 248.913 -1.29868 1.40736 0
M  V30 2541 H 247.218 -3.83473 0.80347 0
M  V30 2542 H 248.915 -3.82788 1.19475 0
M  V30 2543 H 245.505 -3.42871 2.57172 0
M  V30 2544 H 249.689 -3.46651 3.55171 0
M  V30 2545 H 244.945 -3.57361 4.96088 0
M  V30 2546 H 249.119 -3.62371 5.94693 0
M  V30 2547 H 246.746 -3.67298 6.6558 0
M  V30 2548 N 248.321 -0.919034 -1.28029 0
M  V30 2549 C 249.57 -0.550802 -1.94034 0
M  V30 2550 C 249.883 0.910877 -1.73096 0
M  V30 2551 O 251.089 1.3875 -2.33368 0
M  V30 2552 C 249.545 -0.934249 -3.47563 0
M  V30 2553 C 249.153 -2.41602 -3.7727 0
M  V30 2554 C 250.897 -0.636854 -4.19696 0
M  V30 2555 C 248.804 -2.73932 -5.24133 0
M  V30 2556 H 247.734 -0.202273 -0.726362 0
M  V30 2557 H 250.385 -1.11867 -1.45458 0
M  V30 2558 H 248.767 -0.295115 -3.94899 0
M  V30 2559 H 249.941 -3.10233 -3.40723 0
M  V30 2560 H 248.256 -2.68441 -3.18321 0
M  V30 2561 H 250.853 -0.855005 -5.2782 0
M  V30 2562 H 251.196 0.425575 -4.14119 0
M  V30 2563 H 251.729 -1.23469 -3.78154 0
M  V30 2564 H 248.468 -3.79049 -5.34792 0
M  V30 2565 H 247.988 -2.09942 -5.61858 0
M  V30 2566 H 249.667 -2.61215 -5.91925 0
M  V30 2567 N 249.799 1.42003 -0.683588 0
M  V30 2568 C 251.048 2.00638 -0.206681 0
M  V30 2569 C 251.361 1.5472 1.19671 0
M  V30 2570 O 252.567 2.05833 1.77045 0
M  V30 2571 C 251.023 3.58487 -0.318632 0
M  V30 2572 C 250.631 4.1339 -1.72663 0
M  V30 2573 C 252.375 4.24384 0.0991141 0
M  V30 2574 C 250.282 5.63633 -1.79087 0
M  V30 2575 H 249.212 0.750408 -0.0735107 0
M  V30 2576 H 251.863 1.62624 -0.850048 0
M  V30 2577 H 250.245 3.94047 0.392781 0
M  V30 2578 H 251.419 3.89273 -2.46583 0
M  V30 2579 H 249.734 3.59976 -2.09299 0
M  V30 2580 H 252.331 5.34652 0.0713833 0
M  V30 2581 H 252.674 4.00505 1.13586 0
M  V30 2582 H 253.207 3.93816 -0.561599 0
M  V30 2583 H 249.946 5.92323 -2.80774 0
M  V30 2584 H 249.466 5.89714 -1.09535 0
M  V30 2585 H 251.145 6.28201 -1.5483 0
M  V30 2586 N 251.277 0.427512 1.51691 0
M  V30 2587 C 252.523 -0.142439 2.02299 0
M  V30 2588 C 252.856 -1.43214 1.31162 0
M  V30 2589 O 252.131 -1.89833 0.423511 0
M  V30 2590 C 252.414 -0.371301 3.58181 0
M  V30 2591 C 252.267 0.936358 4.39946 0
M  V30 2592 C 253.586 -1.14542 4.24933 0
M  V30 2593 H 250.705 -0.0502937 0.735282 0
M  V30 2594 H 253.347 0.564584 1.81418 0
M  V30 2595 H 251.497 -0.973559 3.76104 0
M  V30 2596 H 253.169 1.57184 4.33694 0
M  V30 2597 H 251.412 1.5432 4.05423 0
M  V30 2598 H 252.083 0.730388 5.47147 0
M  V30 2599 H 254.559 -0.635362 4.11221 0
M  V30 2600 H 253.435 -1.27431 5.33903 0
M  V30 2601 H 253.696 -2.17093 3.85127 0
M  V30 2602 N 252.755 -1.56801 0.158532 0
M  V30 2603 C 254.001 -1.96781 -0.490405 0
M  V30 2604 C 254.334 -1.04397 -1.63753 0
M  V30 2605 O 253.609 -0.0885805 -1.94298 0
M  V30 2606 C 253.892 -3.4635 -0.985594 0
M  V30 2607 C 253.745 -4.49512 0.160824 0
M  V30 2608 C 255.064 -3.98697 -1.86355 0
M  V30 2609 H 252.183 -0.715482 -0.176788 0
M  V30 2610 H 254.825 -1.88451 0.242088 0
M  V30 2611 H 252.975 -3.53579 -1.60978 0
M  V30 2612 H 254.647 -4.54353 0.797537 0
M  V30 2613 H 252.89 -4.26013 0.818256 0
M  V30 2614 H 253.561 -5.51531 -0.227569 0
M  V30 2615 H 256.037 -3.94019 -1.33746 0
M  V30 2616 H 254.913 -5.03792 -2.17909 0
M  V30 2617 H 255.174 -3.41744 -2.8047 0
M  V30 2618 N 254.233 0.115231 -1.57178 0
M  V30 2619 C 255.479 0.82357 -1.85325 0
M  V30 2620 C 255.812 1.79349 -0.744814 0
M  V30 2621 O 255.087 1.92899 0.249024 0
M  V30 2622 C 255.37 1.57014 -3.24066 0
M  V30 2623 C 255.223 0.619565 -4.45513 0
M  V30 2624 C 256.542 2.52545 -3.60429 0
M  V30 2625 H 253.661 0.297948 -0.674089 0
M  V30 2626 H 256.303 0.0877138 -1.89797 0
M  V30 2627 H 254.453 2.19742 -3.20383 0
M  V30 2628 H 256.125 0.000837639 -4.613 0
M  V30 2629 H 254.368 -0.0686174 -4.33746 0
M  V30 2630 H 255.039 1.17866 -5.3927 0
M  V30 2631 H 257.515 1.9992 -3.64926 0
M  V30 2632 H 256.391 3.01811 -4.58477 0
M  V30 2633 H 256.652 3.35383 -2.88047 0
M  V30 2634 N 255.711 1.52812 0.385517 0
M  V30 2635 C 256.959 1.67694 1.12797 0
M  V30 2636 C 257.28 0.421115 1.90399 0
M  V30 2637 O 256.55 -0.564551 1.87589 0
M  V30 2638 H 255.13 0.618155 0.419396 0
M  V30 2639 H 257.792 1.89938 0.436972 0
M  V30 2640 H 256.888 2.52896 1.82894 0
M  V30 2641 N 257.189 -0.644168 1.43834 0
M  V30 2642 C 258.119 -1.76814 1.52509 0
M  V30 2643 C 259.1 -1.65823 0.379052 0
M  V30 2644 O 260.285 -1.84781 0.597466 0
M  V30 2645 C 257.415 -3.15288 1.4564 0
M  V30 2646 C 256.369 -3.41053 2.58586 0
M  V30 2647 C 255.695 -4.79421 2.36769 0
M  V30 2648 C 256.995 -3.34902 4.00797 0
M  V30 2649 H 258.689 -1.69812 2.46586 0
M  V30 2650 H 256.235 -0.815542 1.1868 0
M  V30 2651 H 258.188 -3.93681 1.50311 0
M  V30 2652 H 256.912 -3.23043 0.480725 0
M  V30 2653 H 255.571 -2.65035 2.53282 0
M  V30 2654 H 255.219 -4.83863 1.37424 0
M  V30 2655 H 254.919 -4.9762 3.12487 0
M  V30 2656 H 256.443 -5.6006 2.43238 0
M  V30 2657 H 257.857 -4.03218 4.07539 0
M  V30 2658 H 256.254 -3.64637 4.76613 0
M  V30 2659 H 257.324 -2.32928 4.25291 0
M  V30 2660 N 258.668 -1.30515 -0.883378 0
M  V30 2661 C 259.915 -1.1943 -1.63532 0
M  V30 2662 C 260.243 0.250627 -1.92878 0
M  V30 2663 O 259.498 1.19556 -1.54935 0
M  V30 2664 C 259.797 -1.96994 -2.98209 0
M  V30 2665 C 259.463 -3.466 -2.88408 0
M  V30 2666 C 258.125 -3.87397 -2.85442 0
M  V30 2667 C 260.477 -4.41863 -2.76418 0
M  V30 2668 C 257.805 -5.21745 -2.68327 0
M  V30 2669 C 260.157 -5.7632 -2.60841 0
M  V30 2670 C 258.821 -6.16354 -2.56251 0
M  V30 2671 H 258.091 -0.437025 -0.598406 0
M  V30 2672 H 260.738 -1.61635 -1.02696 0
M  V30 2673 H 259.043 -1.47429 -3.63004 0
M  V30 2674 H 260.74 -1.85808 -3.55354 0
M  V30 2675 H 257.33 -3.14182 -2.91527 0
M  V30 2676 H 261.514 -4.11285 -2.77775 0
M  V30 2677 H 256.77 -5.51853 -2.63189 0
M  V30 2678 H 260.944 -6.49772 -2.50538 0
M  V30 2679 H 258.571 -7.20401 -2.42748 0
M  V30 2680 N 260.146 1.09593 -1.13257 0
M  V30 2681 C 261.371 1.8604 -0.916732 0
M  V30 2682 C 261.796 1.80504 0.529146 0
M  V30 2683 O 261.154 1.18127 1.37534 0
M  V30 2684 C 261.202 3.32017 -1.40703 0
M  V30 2685 O 260.306 4.08141 -0.591153 0
M  V30 2686 H 259.647 0.576943 -0.328683 0
M  V30 2687 H 262.177 1.38405 -1.50682 0
M  V30 2688 H 262.187 3.82865 -1.4099 0
M  V30 2689 H 260.862 3.35361 -2.45979 0
M  V30 2690 H 259.439 3.67084 -0.656005 0
M  V30 2691 N 261.624 0.925811 1.2754 0
M  V30 2692 C 262.87 0.566092 1.94739 0
M  V30 2693 C 263.203 -0.890057 1.72603 0
M  V30 2694 O 262.478 -1.63467 1.05399 0
M  V30 2695 C 262.761 0.89054 3.48915 0
M  V30 2696 C 262.614 2.4003 3.80402 0
M  V30 2697 C 263.933 0.395101 4.38323 0
M  V30 2698 H 261.052 0.20714 0.707292 0
M  V30 2699 H 263.694 1.15725 1.50691 0
M  V30 2700 H 261.844 0.387452 3.86563 0
M  V30 2701 H 263.516 2.97494 3.52555 0
M  V30 2702 H 261.759 2.85028 3.2702 0
M  V30 2703 H 262.43 2.57785 4.8811 0
M  V30 2704 H 264.906 0.826241 4.07814 0
M  V30 2705 H 263.782 0.651086 5.45025 0
M  V30 2706 H 264.043 -0.704798 4.36446 0
M  V30 2707 N 263.102 -1.41638 0.69111 0
M  V30 2708 C 264.032 -2.3347 0.037248 0
M  V30 2709 C 265.013 -1.51575 -0.771947 0
M  V30 2710 O 266.198 -1.80126 -0.72582 0
M  V30 2711 C 263.328 -3.35354 -0.903064 0
M  V30 2712 C 262.282 -4.27526 -0.201288 0
M  V30 2713 C 261.608 -5.19747 -1.25565 0
M  V30 2714 C 262.908 -5.13959 0.929689 0
M  V30 2715 H 264.602 -2.88397 0.804227 0
M  V30 2716 H 262.148 -1.38669 0.388189 0
M  V30 2717 H 264.101 -3.98519 -1.36969 0
M  V30 2718 H 262.825 -2.78767 -1.70166 0
M  V30 2719 H 261.484 -3.65779 0.245265 0
M  V30 2720 H 261.132 -4.59479 -2.04666 0
M  V30 2721 H 260.832 -5.8225 -0.791128 0
M  V30 2722 H 262.356 -5.85789 -1.72288 0
M  V30 2723 H 263.77 -5.70718 0.543546 0
M  V30 2724 H 262.167 -5.85379 1.32103 0
M  V30 2725 H 263.237 -4.51389 1.77133 0
M  V30 2726 N 264.58 -0.43555 -1.51462 0
M  V30 2727 C 265.51 0.367376 -2.30592 0
M  V30 2728 C 266.491 1.02263 -1.35928 0
M  V30 2729 O 267.676 1.02661 -1.64847 0
M  V30 2730 C 264.806 1.46983 -3.14664 0
M  V30 2731 C 263.76 0.938161 -4.17591 0
M  V30 2732 C 263.086 2.13622 -4.90173 0
M  V30 2733 C 264.386 -0.0261621 -5.22293 0
M  V30 2734 H 266.08 -0.292969 -2.97963 0
M  V30 2735 H 263.626 -0.14234 -1.43295 0
M  V30 2736 H 265.579 2.03873 -3.688 0
M  V30 2737 H 264.303 2.15843 -2.4511 0
M  V30 2738 H 262.962 0.391481 -3.64504 0
M  V30 2739 H 262.61 2.81098 -4.17124 0
M  V30 2740 H 262.31 1.78688 -5.59772 0
M  V30 2741 H 263.834 2.7107 -5.47132 0
M  V30 2742 H 265.248 0.452384 -5.71512 0
M  V30 2743 H 263.645 -0.287992 -5.99409 0
M  V30 2744 H 264.715 -0.963391 -4.75233 0
M  V30 2745 N 266.058 1.56714 -0.166846 0
M  V30 2746 C 266.968 2.21331 0.777791 0
M  V30 2747 C 267.984 1.20358 1.25658 0
M  V30 2748 O 269.16 1.53005 1.30964 0
M  V30 2749 C 266.225 2.83787 1.99163 0
M  V30 2750 C 265.286 3.99947 1.56016 0
M  V30 2751 C 264.519 4.59415 2.71613 0
M  V30 2752 O 264.742 4.17769 3.88362 0
M  V30 2753 O 263.676 5.49359 2.45945 0
M  V30 2754 H 267.502 3.02605 0.257636 0
M  V30 2755 H 265.087 1.49275 0.0611393 0
M  V30 2756 H 266.969 3.23405 2.70161 0
M  V30 2757 H 265.644 2.05513 2.50092 0
M  V30 2758 H 264.551 3.65007 0.819809 0
M  V30 2759 H 265.884 4.79801 1.09782 0
M  V30 2760 N 267.536 -0.106894 1.57237 0
M  V30 2761 C 268.468 -1.15646 1.97885 0
M  V30 2762 C 269.481 -1.36981 0.879779 0
M  V30 2763 O 270.67 -1.35841 1.15799 0
M  V30 2764 C 267.77 -2.51425 2.27241 0
M  V30 2765 C 266.943 -2.50529 3.58545 0
M  V30 2766 C 266.002 -3.68145 3.75973 0
M  V30 2767 O 265.028 -3.51176 4.47956 0
M  V30 2768 N 266.23 -4.87177 3.15656 0
M  V30 2769 H 268.995 -0.81059 2.8853 0
M  V30 2770 H 266.556 -0.296024 1.59171 0
M  V30 2771 H 268.548 -3.28689 2.36105 0
M  V30 2772 H 267.118 -2.78147 1.42663 0
M  V30 2773 H 266.338 -1.58894 3.60758 0
M  V30 2774 H 267.626 -2.46997 4.44826 0
M  V30 2775 H 267.024 -5.03868 2.57165 0
M  V30 2776 H 265.581 -5.62075 3.30023 0
M  V30 2777 N 269.014 -1.53014 -0.377408 0
M  V30 2778 C 270.262 -1.6829 -1.11906 0
M  V30 2779 C 270.583 -0.431206 -1.90173 0
M  V30 2780 O 269.853 0.554595 -1.87886 0
M  V30 2781 H 268.433 -0.620371 -0.416112 0
M  V30 2782 H 271.095 -1.90167 -0.426893 0
M  V30 2783 H 270.191 -2.53862 -1.8155 0
M  V30 2784 N 270.492 0.636531 -1.44174 0
M  V30 2785 C 271.903 1.21806 -1.41493 0
M  V30 2786 C 272.254 1.95785 -0.1275 0
M  V30 2787 O 271.379 2.02147 0.772376 0
M  V30 2788 C 271.974 2.21551 -2.56321 0
M  V30 2789 C 270.533 2.75143 -2.56853 0
M  V30 2790 C 269.68 1.50052 -2.33195 0
M  V30 2791 H 272.631 0.427531 -1.52833 0
M  V30 2792 H 272.652 3.0405 -2.28765 0
M  V30 2793 H 272.164 1.67679 -3.50008 0
M  V30 2794 H 270.265 3.33033 -1.67093 0
M  V30 2795 H 270.378 3.2155 -3.55165 0
M  V30 2796 H 268.742 1.77993 -1.82183 0
M  V30 2797 H 269.525 0.980903 -3.28988 0
M  V30 2798 N 271.97 1.30982 0.876444 0
M  V30 2799 C 273.218 1.20058 1.62575 0
M  V30 2800 C 273.539 -0.242947 1.93481 0
M  V30 2801 O 272.809 -1.1619 1.57724 0
M  V30 2802 H 271.389 0.44135 0.602677 0
M  V30 2803 H 274.051 1.64222 1.04962 0
M  V30 2804 H 273.147 1.76762 2.57219 0
M  V30 2805 N 273.449 -1.08991 1.13837 0
M  V30 2806 C 274.865 -1.33312 0.877506 0
M  V30 2807 C 275.065 -1.95587 -0.48456 0
M  V30 2808 O 274.121 -2.20509 -1.23013 0
M  V30 2809 C 275.434 -2.24045 2.0056 0
M  V30 2810 C 276.982 -2.37542 2.03821 0
M  V30 2811 C 277.457 -3.31614 3.15905 0
M  V30 2812 N 278.948 -3.39189 3.15445 0
M  V30 2813 C 279.683 -4.11992 3.98811 0
M  V30 2814 N 279.179 -4.87553 4.92203 0
M  V30 2815 N 280.972 -4.07762 3.86894 0
M  V30 2816 H 273.123 -0.669456 2.01574 0
M  V30 2817 H 275.386 -0.357482 0.878015 0
M  V30 2818 H 275.092 -1.85521 2.98789 0
M  V30 2819 H 274.966 -3.24466 1.92359 0
M  V30 2820 H 277.353 -2.75327 1.06202 0
M  V30 2821 H 277.434 -1.36884 2.16093 0
M  V30 2822 H 277.078 -2.94551 4.13766 0
M  V30 2823 H 277.008 -4.32186 3.0087 0
M  V30 2824 H 279.499 -2.85314 2.47799 0
M  V30 2825 H 279.812 -5.40549 5.52292 0
M  V30 2826 H 278.157 -4.86627 4.96205 0
M  V30 2827 H 281.348 -3.47833 3.13257 0
M  V30 2828 H 281.521 -4.64238 4.52092 0
M  V30 2829 N 274.927 -0.932562 -1.27047 0
M  V30 2830 C 276.338 -0.619451 -1.76124 0
M  V30 2831 C 276.689 0.865397 -1.76083 0
M  V30 2832 O 275.814 1.67722 -1.36742 0
M  V30 2833 C 276.409 -1.11771 -3.19832 0
M  V30 2834 C 274.968 -0.855174 -3.66557 0
M  V30 2835 C 274.115 -1.27362 -2.46321 0
M  V30 2836 H 277.066 -1.11181 -1.13245 0
M  V30 2837 H 277.087 -0.46759 -3.77616 0
M  V30 2838 H 276.599 -2.19842 -3.1983 0
M  V30 2839 H 274.7 0.211524 -3.71999 0
M  V30 2840 H 274.813 -1.47613 -4.55793 0
M  V30 2841 H 273.177 -0.692119 -2.45116 0
M  V30 2842 H 273.96 -2.36307 -2.49025 0
M  V30 2843 N 276.405 1.4127 -0.698611 0
M  V30 2844 C 277.653 2.00782 -0.230409 0
M  V30 2845 C 277.974 1.5562 1.17505 0
M  V30 2846 O 277.244 0.78815 1.79346 0
M  V30 2847 H 275.824 0.742464 -0.0821944 0
M  V30 2848 H 278.486 1.72852 -0.90045 0
M  V30 2849 H 277.582 3.11095 -0.25021 0
M  V30 2850 N 277.883 0.443576 1.51229 0
M  V30 2851 C 279.16 -0.181038 1.9476 0
M  V30 2852 C 279.54 -1.59523 1.38259 0
M  V30 2853 O 278.888 -2.2122 0.572198 0
M  V30 2854 C 279.098 -0.152422 3.48667 0
M  V30 2855 C 280.446 -0.354923 4.23114 0
M  V30 2856 O 281.47 -0.230257 3.55455 0
M  V30 2857 O 280.329 -0.603674 5.43156 0
M  V30 2858 H 277.423 -0.1266 0.817252 0
M  V30 2859 H 279.969 0.502004 1.62105 0
M  V30 2860 H 278.741 0.836022 3.82265 0
M  V30 2861 H 278.364 -0.878107 3.87782 0
M  V30 2862 N 279.361 -1.56624 0.175154 0
M  V30 2863 C 280.324 -2.16934 -0.739738 0
M  V30 2864 C 281.324 -1.11842 -1.15533 0
M  V30 2865 O 282.514 -1.37335 -1.07167 0
M  V30 2866 C 279.646 -2.75531 -2.00738 0
M  V30 2867 H 280.839 -2.99131 -0.214639 0
M  V30 2868 H 278.392 -1.56123 -0.0744197 0
M  V30 2869 H 279.127 -1.97078 -2.57548 0
M  V30 2870 H 278.912 -3.52444 -1.71831 0
M  V30 2871 H 280.402 -3.21904 -2.66021 0
M  V30 2872 N 280.839 0.0985539 -1.57292 0
M  V30 2873 C 282.25 0.653457 -1.74891 0
M  V30 2874 C 282.601 1.7929 -0.796838 0
M  V30 2875 O 281.726 2.16385 0.0254886 0
M  V30 2876 C 282.321 1.19216 -3.17133 0
M  V30 2877 C 280.88 1.69316 -3.36168 0
M  V30 2878 C 280.027 0.601294 -2.70702 0
M  V30 2879 H 282.978 -0.127497 -1.58187 0
M  V30 2880 H 282.999 2.06154 -3.19814 0
M  V30 2881 H 282.511 0.362635 -3.86402 0
M  V30 2882 H 280.612 2.5468 -2.71972 0
M  V30 2883 H 280.725 1.78853 -4.44464 0
M  V30 2884 H 279.089 1.0399 -2.32504 0
M  V30 2885 H 279.872 -0.217592 -3.4261 0
M  V30 2886 N 282.317 1.53212 0.369288 0
M  V30 2887 C 283.267 1.75769 1.45222 0
M  V30 2888 C 284.251 0.612136 1.48801 0
M  V30 2889 O 285.443 0.870674 1.54105 0
M  V30 2890 C 282.572 1.94769 2.82701 0
M  V30 2891 C 281.658 3.15315 2.83615 0
M  V30 2892 N 282.049 4.37295 2.54178 0
M  V30 2893 C 280.347 3.15962 3.14776 0
M  V30 2894 C 281.048 5.19015 2.62675 0
M  V30 2895 N 280.024 4.55142 2.97232 0
M  V30 2896 H 283.826 2.67691 1.2132 0
M  V30 2897 H 281.34 1.51787 0.577438 0
M  V30 2898 H 283.337 2.09056 3.60696 0
M  V30 2899 H 281.997 1.04073 3.07569 0
M  V30 2900 H 283.008 4.65091 2.27839 0
M  V30 2901 H 279.685 2.35144 3.44983 0
M  V30 2902 H 281.075 6.26305 2.43294 0
M  V30 2903 N 283.795 -0.628877 1.44509 0
M  V30 2904 C 285.023 -1.41554 1.50897 0
M  V30 2905 C 285.438 -1.8832 0.134564 0
M  V30 2906 O 284.795 -1.60969 -0.859965 0
M  V30 2907 C 284.846 -2.63435 2.47556 0
M  V30 2908 O 284.567 -2.18619 3.79654 0
M  V30 2909 C 286.068 -3.56537 2.63431 0
M  V30 2910 H 283.288 -0.434044 0.511709 0
M  V30 2911 H 285.832 -0.768895 1.89495 0
M  V30 2912 H 283.987 -3.24187 2.12089 0
M  V30 2913 H 284.401 -2.97652 4.31861 0
M  V30 2914 H 285.875 -4.38657 3.35088 0
M  V30 2915 H 286.352 -4.05493 1.68738 0
M  V30 2916 H 286.958 -3.01653 2.9981 0
M  V30 2917 N 285.273 -1.31445 -0.869486 0
M  V30 2918 C 286.521 -1.20918 -1.61936 0
M  V30 2919 C 286.842 0.232683 -1.93607 0
M  V30 2920 O 286.112 1.15352 -1.58338 0
M  V30 2921 H 284.692 -0.44454 -0.600328 0
M  V30 2922 H 287.354 -1.64776 -1.0409 0
M  V30 2923 H 286.45 -1.78124 -2.56278 0
M  V30 2924 N 286.751 1.08385 -1.14413 0
M  V30 2925 C 287.999 1.80419 -0.910679 0
M  V30 2926 C 288.32 1.86658 0.564243 0
M  V30 2927 O 287.59 1.35985 1.41014 0
M  V30 2928 H 286.17 0.668204 -0.333934 0
M  V30 2929 H 288.832 1.31037 -1.44275 0
M  V30 2930 H 287.928 2.83238 -1.31082 0
M  V30 2931 N 288.23 0.939286 1.26551 0
M  V30 2932 C 289.177 0.446088 2.26448 0
M  V30 2933 C 290.147 -0.493234 1.58608 0
M  V30 2934 O 291.332 -0.409857 1.86346 0
M  V30 2935 C 288.472 -0.284375 3.43926 0
M  V30 2936 C 287.585 0.690399 4.26448 0
M  V30 2937 C 286.72 -0.0610712 5.31165 0
M  V30 2938 C 285.759 0.905649 6.05363 0
M  V30 2939 N 284.896 0.186055 7.01853 0
M  V30 2940 H 289.736 1.30291 2.68008 0
M  V30 2941 H 287.273 0.65371 1.31776 0
M  V30 2942 H 289.231 -0.724313 4.10864 0
M  V30 2943 H 287.861 -1.10535 3.03285 0
M  V30 2944 H 286.913 1.24885 3.59316 0
M  V30 2945 H 288.225 1.42873 4.779 0
M  V30 2946 H 287.379 -0.56038 6.04106 0
M  V30 2947 H 286.118 -0.832297 4.80546 0
M  V30 2948 H 285.123 1.4161 5.3125 0
M  V30 2949 H 286.348 1.67685 6.58072 0
M  V30 2950 H 284.294 -0.566714 6.53548 0
M  V30 2951 H 284.211 0.863752 7.51049 0
M  V30 2952 H 285.479 -0.292221 7.78952 0
M  V30 2953 N 289.708 -1.40897 0.706093 0
M  V30 2954 C 291.119 -1.84023 0.315052 0
M  V30 2955 C 291.47 -1.5906 -1.14866 0
M  V30 2956 O 290.595 -1.06651 -1.88293 0
M  V30 2957 C 291.19 -3.34055 0.565038 0
M  V30 2958 C 289.749 -3.7571 0.227806 0
M  V30 2959 C 288.896 -2.64204 0.842122 0
M  V30 2960 H 291.847 -1.303 0.905963 0
M  V30 2961 H 291.868 -3.80107 -0.172843 0
M  V30 2962 H 291.38 -3.52192 1.63042 0
M  V30 2963 H 289.481 -3.63172 -0.832895 0
M  V30 2964 H 289.594 -4.74103 0.690174 0
M  V30 2965 H 287.958 -2.53255 0.270893 0
M  V30 2966 H 288.741 -2.85155 1.91158 0
M  V30 2967 N 291.186 -0.45159 -1.50991 0
M  V30 2968 C 292.434 0.109857 -2.01801 0
M  V30 2969 C 292.755 1.41958 -1.3369 0
M  V30 2970 O 292.025 1.9003 -0.475951 0
M  V30 2971 H 290.605 0.0435884 -0.745727 0
M  V30 2972 H 293.267 -0.597557 -1.85514 0
M  V30 2973 H 292.363 0.275489 -3.10882 0
M  V30 2974 N 292.664 1.56529 -0.183458 0
M  V30 2975 C 293.912 1.96855 0.457452 0
M  V30 2976 C 294.233 1.07104 1.62953 0
M  V30 2977 O 293.503 0.139887 1.954 0
M  V30 2978 H 292.083 0.72693 0.171992 0
M  V30 2979 H 294.745 1.93056 -0.267476 0
M  V30 2980 H 293.841 3.01423 0.809368 0
M  V30 2981 N 294.142 -0.090211 1.57342 0
M  V30 2982 C 295.389 -0.792807 1.86335 0
M  V30 2983 C 295.717 -1.78494 0.772662 0
M  V30 2984 O 294.972 -1.94305 -0.233258 0
M  V30 2985 C 295.271 -1.55222 3.21933 0
M  V30 2986 C 294.937 -0.701765 4.45406 0
M  V30 2987 C 293.599 -0.467334 4.78925 0
M  V30 2988 C 295.951 -0.11086 5.21082 0
M  V30 2989 C 293.279 0.367785 5.85546 0
M  V30 2990 C 295.631 0.711609 6.28585 0
M  V30 2991 C 294.295 0.956086 6.60617 0
M  V30 2992 H 293.565 -0.290109 0.681849 0
M  V30 2993 H 296.212 -0.0541332 1.91423 0
M  V30 2994 H 294.517 -2.3626 3.12551 0
M  V30 2995 H 296.214 -2.10032 3.41595 0
M  V30 2996 H 292.804 -0.894598 4.1916 0
M  V30 2997 H 296.988 -0.279129 4.95514 0
M  V30 2998 H 292.244 0.566128 6.08773 0
M  V30 2999 H 296.418 1.17632 6.86393 0
M  V30 3000 H 294.045 1.60499 7.43064 0
M  V30 3001 N 295.62 -1.53406 -0.361157 0
M  V30 3002 C 296.897 -1.60411 -1.11927 0
M  V30 3003 C 297.277 -0.414385 -2.06993 0
M  V30 3004 O 296.625 0.594976 -2.20618 0
M  V30 3005 C 296.835 -2.95652 -1.85448 0
M  V30 3006 C 298.183 -3.50386 -2.39823 0
M  V30 3007 O 299.207 -2.97711 -1.95568 0
M  V30 3008 O 298.066 -4.42482 -3.20737 0
M  V30 3009 H 295.16 -0.64811 -0.513695 0
M  V30 3010 H 297.706 -1.65749 -0.364065 0
M  V30 3011 H 296.478 -3.73682 -1.16091 0
M  V30 3012 H 296.101 -2.93825 -2.67866 0
M  V30 3013 N 297.098 0.621204 -1.44841 0
M  V30 3014 C 298.344 1.3826 -1.48365 0
M  V30 3015 C 298.677 1.93831 -0.119624 0
M  V30 3016 O 297.952 1.74251 0.864111 0
M  V30 3017 C 298.235 2.54058 -2.55199 0
M  V30 3018 C 298.088 2.03772 -4.00995 0
M  V30 3019 C 299.407 3.56225 -2.58442 0
M  V30 3020 H 296.526 0.501374 -0.540179 0
M  V30 3021 H 299.168 0.7015 -1.76576 0
M  V30 3022 H 297.318 3.12162 -2.31274 0
M  V30 3023 H 298.99 1.50423 -4.36086 0
M  V30 3024 H 297.233 1.34876 -4.12299 0
M  V30 3025 H 297.904 2.87185 -4.71411 0
M  V30 3026 H 300.38 3.07939 -2.79844 0
M  V30 3027 H 299.256 4.34756 -3.3508 0
M  V30 3028 H 299.517 4.10949 -1.63013 0
M  V30 3029 N 298.576 1.31904 0.862503 0
M  V30 3030 C 299.523 1.20182 1.9704 0
M  V30 3031 C 300.493 0.0858247 1.65878 0
M  V30 3032 O 301.678 0.26 1.8902 0
M  V30 3033 C 298.818 0.922797 3.32533 0
M  V30 3034 C 297.931 2.12284 3.76244 0
M  V30 3035 C 297.066 1.77996 5.00491 0
M  V30 3036 C 296.105 2.94366 5.36671 0
M  V30 3037 N 295.242 2.60223 6.52095 0
M  V30 3038 H 300.082 2.14951 2.06398 0
M  V30 3039 H 297.619 1.06917 1.01031 0
M  V30 3040 H 299.577 0.741548 4.10557 0
M  V30 3041 H 298.207 0.0119227 3.22798 0
M  V30 3042 H 297.259 2.41461 2.9394 0
M  V30 3043 H 298.571 2.99357 3.98982 0
M  V30 3044 H 297.725 1.56377 5.862 0
M  V30 3045 H 296.464 0.881252 4.79672 0
M  V30 3046 H 295.469 3.16625 4.49476 0
M  V30 3047 H 296.694 3.84957 5.59451 0
M  V30 3048 H 294.64 1.72884 6.32809 0
M  V30 3049 H 294.557 3.40827 6.74814 0
M  V30 3050 H 295.825 2.42016 7.40978 0
M  V30 3051 N 300.054 -1.07777 1.14986 0
M  V30 3052 C 301.017 -2.13041 0.845358 0
M  V30 3053 C 302.017 -1.60071 -0.152931 0
M  V30 3054 O 303.207 -1.74033 0.0761879 0
M  V30 3055 C 300.339 -3.39896 0.261383 0
M  V30 3056 H 301.532 -2.41485 1.77834 0
M  V30 3057 H 299.085 -1.23595 0.956757 0
M  V30 3058 H 299.82 -3.17091 -0.68 0
M  V30 3059 H 299.605 -3.79642 0.980514 0
M  V30 3060 H 301.095 -4.17548 0.0657687 0
M  V30 3061 N 301.532 -0.945985 -1.26051 0
M  V30 3062 C 302.462 -0.477172 -2.28572 0
M  V30 3063 C 303.443 0.472032 -1.63419 0
M  V30 3064 O 304.628 0.372853 -1.90587 0
M  V30 3065 C 301.758 0.253975 -3.4637 0
M  V30 3066 C 300.712 -0.609135 -4.23643 0
M  V30 3067 C 300.038 0.252252 -5.34105 0
M  V30 3068 C 301.338 -1.8829 -4.8718 0
M  V30 3069 H 303.032 -1.33402 -2.68038 0
M  V30 3070 H 300.578 -0.642904 -1.28852 0
M  V30 3071 H 302.531 0.593016 -4.17207 0
M  V30 3072 H 301.255 1.145 -3.05871 0
M  V30 3073 H 299.914 -0.931138 -3.54578 0
M  V30 3074 H 299.562 1.14278 -4.89846 0
M  V30 3075 H 299.262 -0.32188 -5.86718 0
M  V30 3076 H 300.786 0.586454 -6.07777 0
M  V30 3077 H 302.2 -1.61081 -5.50205 0
M  V30 3078 H 300.597 -2.40199 -5.49931 0
M  V30 3079 H 301.667 -2.59134 -4.09851 0
M  V30 3080 N 303.011 1.40521 -0.713556 0
M  V30 3081 C 304.427 1.54839 -0.386907 0
M  V30 3082 C 304.627 1.68532 1.1045 0
M  V30 3083 O 303.683 1.67377 1.89053 0
M  V30 3084 C 304.996 2.77792 -1.15118 0
M  V30 3085 C 306.544 2.91607 -1.13729 0
M  V30 3086 C 307.019 4.1747 -1.88368 0
M  V30 3087 N 308.51 4.24466 -1.85427 0
M  V30 3088 C 309.245 5.20755 -2.40004 0
M  V30 3089 N 308.741 6.22965 -3.03129 0
M  V30 3090 N 310.534 5.1282 -2.30158 0
M  V30 3091 H 302.685 1.29879 -1.68063 0
M  V30 3092 H 304.948 0.627896 -0.710247 0
M  V30 3093 H 304.654 2.73944 -2.20561 0
M  V30 3094 H 304.528 3.6984 -0.741477 0
M  V30 3095 H 306.915 2.94959 -0.0910608 0
M  V30 3096 H 306.996 2.00682 -1.5862 0
M  V30 3097 H 306.64 4.1488 -2.9298 0
M  V30 3098 H 306.57 5.074 -1.40898 0
M  V30 3099 H 309.061 3.51241 -1.3942 0
M  V30 3100 H 309.374 6.92859 -3.42295 0
M  V30 3101 H 307.719 6.23415 -3.07212 0
M  V30 3102 H 310.91 4.31899 -1.80501 0
M  V30 3103 H 311.083 5.87689 -2.72993 0
M  V30 3104 N 304.489 0.459591 1.5075 0
M  V30 3105 C 305.452 -0.329093 2.26825 0
M  V30 3106 C 306.452 -0.930481 1.31144 0
M  V30 3107 O 307.642 -0.801453 1.54669 0
M  V30 3108 C 304.774 -1.46768 3.07688 0
M  V30 3109 H 305.967 0.337924 2.9799 0
M  V30 3110 H 303.52 0.213336 1.54837 0
M  V30 3111 H 304.255 -2.17009 2.40993 0
M  V30 3112 H 304.04 -1.04238 3.77991 0
M  V30 3113 H 305.53 -2.02433 3.65254 0
M  V30 3114 N 305.967 -1.56429 0.191757 0
M  V30 3115 C 307.214 -1.97485 -0.447891 0
M  V30 3116 C 307.542 -1.07852 -1.61859 0
M  V30 3117 O 306.797 -0.116903 -1.95351 0
M  V30 3118 C 307.096 -3.44449 -0.953384 0
M  V30 3119 C 306.762 -4.50781 0.103586 0
M  V30 3120 C 305.424 -4.79584 0.394023 0
M  V30 3121 C 307.776 -5.1471 0.819946 0
M  V30 3122 C 305.104 -5.69607 1.40585 0
M  V30 3123 C 307.456 -6.05827 1.8209 0
M  V30 3124 C 306.12 -6.32987 2.11857 0
M  V30 3125 H 305.39 -0.722648 -0.163895 0
M  V30 3126 H 308.037 -1.89322 0.28802 0
M  V30 3127 H 306.342 -3.49666 -1.76751 0
M  V30 3128 H 308.039 -3.73569 -1.45765 0
M  V30 3129 H 304.629 -4.28394 -0.132951 0
M  V30 3130 H 308.813 -4.92552 0.608789 0
M  V30 3131 H 304.069 -5.88926 1.64243 0
M  V30 3132 H 308.243 -6.54424 2.38123 0
M  V30 3133 H 305.87 -7.02544 2.90407 0
M  V30 3134 N 307.445 0.0818655 -1.57387 0
M  V30 3135 C 308.861 0.436412 -1.53517 0
M  V30 3136 C 309.061 1.79758 -0.910459 0
M  V30 3137 O 308.117 2.47324 -0.508636 0
M  V30 3138 C 309.43 0.386734 -2.98203 0
M  V30 3139 C 310.978 0.467644 -3.09487 0
M  V30 3140 C 311.453 0.447978 -4.55804 0
M  V30 3141 N 312.944 0.508348 -4.60402 0
M  V30 3142 C 313.679 0.515184 -5.71081 0
M  V30 3143 N 313.175 0.477435 -6.91153 0
M  V30 3144 N 314.968 0.560988 -5.59294 0
M  V30 3145 H 307.119 -0.809546 -1.96367 0
M  V30 3146 H 309.382 -0.302733 -0.898363 0
M  V30 3147 H 309.088 -0.546539 -3.47427 0
M  V30 3148 H 308.962 1.20075 -3.57578 0
M  V30 3149 H 311.349 1.39134 -2.60242 0
M  V30 3150 H 311.43 -0.374753 -2.5304 0
M  V30 3151 H 311.074 -0.471826 -5.05704 0
M  V30 3152 H 311.004 1.30777 -5.10103 0
M  V30 3153 H 313.495 0.54218 -3.7399 0
M  V30 3154 H 313.808 0.486299 -7.71268 0
M  V30 3155 H 312.153 0.444278 -6.93579 0
M  V30 3156 H 315.344 0.5881 -4.64391 0
M  V30 3157 H 315.517 0.562846 -6.45551 0
M  V30 3158 N 308.923 1.53595 0.353017 0
M  V30 3159 C 310.169 1.70638 1.09593 0
M  V30 3160 C 310.502 0.463286 1.88593 0
M  V30 3161 O 309.777 -0.539597 1.86865 0
M  V30 3162 C 310.06 2.96406 2.04489 0
M  V30 3163 C 309.913 4.30901 1.29014 0
M  V30 3164 C 311.232 3.17812 3.0444 0
M  V30 3165 H 308.351 0.620913 0.397034 0
M  V30 3166 H 310.993 1.86254 0.375446 0
M  V30 3167 H 309.143 2.83223 2.65927 0
M  V30 3168 H 310.815 4.55917 0.702638 0
M  V30 3169 H 309.058 4.29741 0.592071 0
M  V30 3170 H 309.729 5.1506 1.98537 0
M  V30 3171 H 312.205 3.30263 2.53112 0
M  V30 3172 H 311.081 4.07223 3.6805 0
M  V30 3173 H 311.342 2.33669 3.75301 0
M  V30 3174 N 310.401 -0.613514 1.45168 0
M  V30 3175 C 311.331 -1.7354 1.56225 0
M  V30 3176 C 312.312 -1.64981 0.41414 0
M  V30 3177 O 313.497 -1.83472 0.636526 0
M  V30 3178 C 310.627 -3.12128 1.52295 0
M  V30 3179 C 309.581 -3.35491 2.65762 0
M  V30 3180 C 308.907 -4.74291 2.46885 0
M  V30 3181 C 310.207 -3.26325 4.0781 0
M  V30 3182 H 311.901 -1.64543 2.50132 0
M  V30 3183 H 309.447 -0.790185 1.20383 0
M  V30 3184 H 311.4 -3.90404 1.58628 0
M  V30 3185 H 310.124 -3.2195 0.549139 0
M  V30 3186 H 308.783 -2.59603 2.58847 0
M  V30 3187 H 308.431 -4.80839 1.47657 0
M  V30 3188 H 308.131 -4.9088 3.22972 0
M  V30 3189 H 309.655 -5.54775 2.55063 0
M  V30 3190 H 311.069 -3.94483 4.16 0
M  V30 3191 H 309.466 -3.54445 4.8424 0
M  V30 3192 H 310.536 -2.23855 4.30136 0
M  V30 3193 N 311.879 -1.3236 -0.855495 0
M  V30 3194 C 313.295 -1.11332 -1.14356 0
M  V30 3195 C 313.495 0.106751 -2.01217 0
M  V30 3196 O 312.551 0.791891 -2.39761 0
M  V30 3197 C 313.864 -2.39237 -1.82171 0
M  V30 3198 C 315.412 -2.44986 -1.9481 0
M  V30 3199 C 315.887 -3.7281 -2.66039 0
M  V30 3200 N 317.378 -3.73787 -2.73565 0
M  V30 3201 C 318.113 -4.69394 -3.29327 0
M  V30 3202 N 317.609 -5.75367 -3.85907 0
M  V30 3203 N 319.402 -4.56893 -3.27423 0
M  V30 3204 H 311.553 -2.10586 -0.277027 0
M  V30 3205 H 313.816 -0.929701 -0.185364 0
M  V30 3206 H 313.522 -3.28431 -1.25802 0
M  V30 3207 H 313.396 -2.50134 -2.82335 0
M  V30 3208 H 315.783 -1.56252 -2.50338 0
M  V30 3209 H 315.864 -2.38043 -0.936448 0
M  V30 3210 H 315.508 -4.61918 -2.11174 0
M  V30 3211 H 315.438 -3.77024 -3.67642 0
M  V30 3212 H 317.929 -2.97189 -2.33424 0
M  V30 3213 H 318.242 -6.44378 -4.26611 0
M  V30 3214 H 316.587 -5.79123 -3.84242 0
M  V30 3215 H 319.778 -3.73269 -2.82467 0
M  V30 3216 H 319.951 -5.31577 -3.7058 0
M  V30 3217 N 313.357 1.07166 -1.15556 0
M  V30 3218 C 314.768 1.6127 -0.940693 0
M  V30 3219 C 315.119 1.89251 0.517551 0
M  V30 3220 O 314.244 1.65937 1.38903 0
M  V30 3221 C 314.839 2.92993 -1.7012 0
M  V30 3222 C 313.398 3.43832 -1.53156 0
M  V30 3223 C 312.545 2.1786 -1.71558 0
M  V30 3224 H 315.496 0.90229 -1.30554 0
M  V30 3225 H 315.517 3.62007 -1.17181 0
M  V30 3226 H 315.029 2.72596 -2.76248 0
M  V30 3227 H 313.13 3.69307 -0.494294 0
M  V30 3228 H 313.243 4.19747 -2.30975 0
M  V30 3229 H 311.607 2.2765 -1.14225 0
M  V30 3230 H 312.39 1.99956 -2.79056 0
M  V30 3231 N 314.835 0.952656 1.25548 0
M  V30 3232 C 315.765 0.489287 2.28316 0
M  V30 3233 C 316.746 -0.463359 1.63667 0
M  V30 3234 O 317.931 -0.36274 1.90782 0
M  V30 3235 C 315.061 -0.235603 3.465 0
M  V30 3236 C 314.015 0.631593 4.23314 0
M  V30 3237 C 313.341 -0.223923 5.34231 0
M  V30 3238 C 314.641 1.90871 4.86174 0
M  V30 3239 H 316.335 1.34822 2.67326 0
M  V30 3240 H 313.881 0.649728 1.28509 0
M  V30 3241 H 315.834 -0.570882 4.17515 0
M  V30 3242 H 314.558 -1.12877 3.06474 0
M  V30 3243 H 313.217 0.949929 3.54079 0
M  V30 3244 H 312.865 -1.11678 4.90446 0
M  V30 3245 H 312.565 0.35299 5.86539 0
M  V30 3246 H 314.089 -0.554214 6.0808 0
M  V30 3247 H 315.503 1.63997 5.49343 0
M  V30 3248 H 313.9 2.43112 5.4865 0
M  V30 3249 H 314.97 2.61304 4.08471 0
M  V30 3250 N 316.313 -1.40141 0.720998 0
M  V30 3251 C 317.729 -1.54632 0.395113 0
M  V30 3252 C 317.929 -1.69115 -1.09555 0
M  V30 3253 O 316.985 -1.68377 -1.88163 0
M  V30 3254 C 318.298 -2.77177 1.1659 0
M  V30 3255 C 319.846 -2.91 1.15274 0
M  V30 3256 C 320.321 -4.16465 1.90579 0
M  V30 3257 N 321.812 -4.23476 1.87675 0
M  V30 3258 C 322.547 -5.19475 2.42762 0
M  V30 3259 N 322.043 -6.21348 3.06428 0
M  V30 3260 N 323.836 -5.11592 2.32874 0
M  V30 3261 H 315.987 -1.28986 1.68749 0
M  V30 3262 H 318.25 -0.62412 0.713567 0
M  V30 3263 H 317.956 -2.72771 2.22011 0
M  V30 3264 H 317.83 -3.69442 0.76108 0
M  V30 3265 H 320.217 -2.94907 0.106702 0
M  V30 3266 H 320.298 -1.99838 1.59682 0
M  V30 3267 H 319.942 -4.1332 2.95176 0
M  V30 3268 H 319.872 -5.06646 1.43587 0
M  V30 3269 H 322.363 -3.50497 1.41281 0
M  V30 3270 H 322.676 -6.91034 3.45965 0
M  V30 3271 H 321.021 -6.21777 3.10514 0
M  V30 3272 H 324.212 -4.30936 1.82789 0
M  V30 3273 H 324.385 -5.86233 2.76106 0
M  V30 3274 N 317.792 -0.46758 -1.50504 0
M  V30 3275 C 318.722 0.318381 -2.31319 0
M  V30 3276 C 319.703 0.993564 -1.38066 0
M  V30 3277 O 320.888 0.991411 -1.66987 0
M  V30 3278 C 318.018 1.40275 -3.17711 0
M  V30 3279 C 316.972 0.849373 -4.19487 0
M  V30 3280 C 316.298 2.03177 -4.94594 0
M  V30 3281 C 317.598 -0.136942 -5.2212 0
M  V30 3282 H 319.292 -0.356106 -2.97275 0
M  V30 3283 H 316.838 -0.172703 -1.42961 0
M  V30 3284 H 318.791 1.96004 -3.73042 0
M  V30 3285 H 317.515 2.10596 -2.49634 0
M  V30 3286 H 316.174 0.314076 -3.65252 0
M  V30 3287 H 315.822 2.72187 -4.22993 0
M  V30 3288 H 315.522 1.66774 -5.63436 0
M  V30 3289 H 317.046 2.59403 -5.52759 0
M  V30 3290 H 318.46 0.331056 -5.72343 0
M  V30 3291 H 316.857 -0.41507 -5.98663 0
M  V30 3292 H 317.927 -1.06398 -4.73083 0
M  V30 3293 N 319.27 1.56325 -0.20005 0
M  V30 3294 C 320.516 1.98012 0.438059 0
M  V30 3295 C 320.849 1.08702 1.60927 0
M  V30 3296 O 320.124 0.140064 1.93995 0
M  V30 3297 C 320.407 3.48841 0.893419 0
M  V30 3298 C 320.26 4.48928 -0.279947 0
M  V30 3299 C 321.579 4.03498 1.75719 0
M  V30 3300 H 318.698 0.719918 0.157757 0
M  V30 3301 H 321.34 1.87743 -0.291968 0
M  V30 3302 H 319.49 3.57723 1.51547 0
M  V30 3303 H 321.162 4.52079 -0.91772 0
M  V30 3304 H 319.405 4.23694 -0.930919 0
M  V30 3305 H 320.076 5.5194 0.0812601 0
M  V30 3306 H 322.552 3.97427 1.23253 0
M  V30 3307 H 321.428 5.09393 2.04476 0
M  V30 3308 H 321.689 3.4906 2.71311 0
M  V30 3309 N 320.748 -0.0735177 1.57428 0
M  V30 3310 C 321.973 -0.789787 1.91774 0
M  V30 3311 C 322.398 -1.70413 0.796306 0
M  V30 3312 O 321.756 -1.79555 -0.250961 0
M  V30 3313 C 321.804 -1.5609 3.25067 0
M  V30 3314 O 320.908 -2.67144 3.14178 0
M  V30 3315 H 320.249 -0.215582 0.628029 0
M  V30 3316 H 322.779 -0.0422781 2.04556 0
M  V30 3317 H 322.789 -1.94052 3.58898 0
M  V30 3318 H 321.464 -0.890015 4.06265 0
M  V30 3319 H 320.041 -2.32052 2.91901 0
M  V30 3320 N 322.226 -1.5378 -0.344866 0
M  V30 3321 C 323.474 -1.70625 -1.08311 0
M  V30 3322 C 323.795 -0.471447 -1.89215 0
M  V30 3323 O 323.065 0.514616 -1.8902 0
M  V30 3324 H 321.645 -0.629058 -0.402859 0
M  V30 3325 H 324.307 -1.9103 -0.386459 0
M  V30 3326 H 323.403 -2.57656 -1.76124 0
M  V30 3327 N 323.704 0.605807 -1.45491 0
M  V30 3328 C 324.95 1.36679 -1.49823 0
M  V30 3329 C 325.283 1.93693 -0.140175 0
M  V30 3330 O 324.558 1.75158 0.845581 0
M  V30 3331 C 324.841 2.51337 -2.57879 0
M  V30 3332 C 324.694 1.99508 -4.03134 0
M  V30 3333 C 326.013 3.53463 -2.62205 0
M  V30 3334 H 323.132 0.495617 -0.545466 0
M  V30 3335 H 325.774 0.682732 -1.7731 0
M  V30 3336 H 323.924 3.09691 -2.34571 0
M  V30 3337 H 325.596 1.45789 -4.37656 0
M  V30 3338 H 323.839 1.30496 -4.13707 0
M  V30 3339 H 324.51 2.82169 -4.74431 0
M  V30 3340 H 326.986 3.04953 -2.83095 0
M  V30 3341 H 325.862 4.31178 -3.39672 0
M  V30 3342 H 326.123 4.09197 -1.67363 0
M  V30 3343 N 325.182 1.32811 0.848464 0
M  V30 3344 C 326.593 1.21315 1.41914 0
M  V30 3345 C 326.944 -0.171847 1.95446 0
M  V30 3346 O 326.069 -1.07093 1.88043 0
M  V30 3347 C 326.664 2.19631 2.57968 0
M  V30 3348 C 325.223 2.12003 3.11017 0
M  V30 3349 C 324.37 2.07651 1.83783 0
M  V30 3350 H 327.321 1.44549 0.655071 0
M  V30 3351 H 327.342 1.79845 3.35315 0
M  V30 3352 H 326.854 3.20423 2.18976 0
M  V30 3353 H 324.955 1.14481 3.54577 0
M  V30 3354 H 325.068 3.02111 3.71841 0
M  V30 3355 H 323.432 1.52983 2.03638 0
M  V30 3356 H 324.215 3.10235 1.47 0
M  V30 3357 N 326.66 -1.06551 1.16123 0
M  V30 3358 C 327.885 -1.83544 0.965735 0
M  V30 3359 C 328.31 -1.81843 -0.481102 0
M  V30 3360 O 327.668 -1.21732 -1.34354 0
M  V30 3361 C 327.716 -3.28169 1.49457 0
M  V30 3362 O 326.82 -4.0643 0.699157 0
M  V30 3363 H 326.161 -0.568026 0.343864 0
M  V30 3364 H 328.691 -1.34362 1.54299 0
M  V30 3365 H 328.701 -3.78992 1.51092 0
M  V30 3366 H 327.376 -3.28722 2.54784 0
M  V30 3367 H 325.953 -3.65216 0.7531 0
M  V30 3368 N 328.138 -0.959301 -1.25041 0
M  V30 3369 C 329.068 -0.501388 -2.28053 0
M  V30 3370 C 330.049 0.454673 -1.63911 0
M  V30 3371 O 331.234 0.352618 -1.90972 0
M  V30 3372 C 328.364 0.217224 -3.4662 0
M  V30 3373 C 327.318 -0.654034 -4.22973 0
M  V30 3374 C 326.644 0.195589 -5.34342 0
M  V30 3375 C 327.944 -1.93447 -4.85155 0
M  V30 3376 H 329.638 -1.36238 -2.66608 0
M  V30 3377 H 327.184 -0.656534 -1.28163 0
M  V30 3378 H 329.137 0.548732 -4.17812 0
M  V30 3379 H 327.861 1.1125 -3.07068 0
M  V30 3380 H 326.52 -0.968693 -3.5357 0
M  V30 3381 H 326.168 1.09076 -4.91031 0
M  V30 3382 H 325.868 -0.384091 -5.86343 0
M  V30 3383 H 327.392 0.521958 -6.08365 0
M  V30 3384 H 328.806 -1.66908 -5.48466 0
M  V30 3385 H 327.203 -2.46018 -5.47353 0
M  V30 3386 H 328.273 -2.63466 -4.07079 0
M  V30 3387 N 329.616 1.39756 -0.72842 0
M  V30 3388 C 330.566 2.2792 -0.0603424 0
M  V30 3389 C 331.55 1.43922 0.719399 0
M  V30 3390 O 332.742 1.66895 0.589489 0
M  V30 3391 C 329.871 3.32582 0.851104 0
M  V30 3392 C 328.957 4.24049 0.0658641 0
M  V30 3393 N 329.348 4.96653 -0.957578 0
M  V30 3394 C 327.646 4.45013 0.296509 0
M  V30 3395 C 328.347 5.63836 -1.43052 0
M  V30 3396 N 327.323 5.38397 -0.750315 0
M  V30 3397 H 331.125 2.81504 -0.84455 0
M  V30 3398 H 328.639 1.5236 -0.562155 0
M  V30 3399 H 330.636 3.94603 1.34514 0
M  V30 3400 H 329.296 2.80558 1.63454 0
M  V30 3401 H 330.307 5.00297 -1.33877 0
M  V30 3402 H 326.984 4.03943 1.05527 0
M  V30 3403 H 328.374 6.31974 -2.28163 0
M  V30 3404 N 331.094 0.475555 1.50254 0
M  V30 3405 C 332.343 -0.0795996 2.01543 0
M  V30 3406 C 332.656 -1.4038 1.36209 0
M  V30 3407 O 333.862 -2.04415 1.7868 0
M  V30 3408 C 332.318 -0.192363 3.59386 0
M  V30 3409 C 331.926 1.12367 4.33679 0
M  V30 3410 C 333.67 -0.699238 4.18701 0
M  V30 3411 C 331.577 0.974453 5.83317 0
M  V30 3412 H 330.507 -0.0335228 0.753254 0
M  V30 3413 H 333.158 0.611128 1.73025 0
M  V30 3414 H 331.54 -0.946974 3.84511 0
M  V30 3415 H 332.714 1.88958 4.20276 0
M  V30 3416 H 331.029 1.562 3.85993 0
M  V30 3417 H 333.626 -0.827978 5.28251 0
M  V30 3418 H 333.969 -1.69171 3.80377 0
M  V30 3419 H 334.502 -0.00188807 3.978 0
M  V30 3420 H 331.241 1.94042 6.26121 0
M  V30 3421 H 330.761 0.248998 5.99283 0
M  V30 3422 H 332.44 0.642867 6.43798 0
M  V30 3423 N 332.573 -1.56217 0.208337 0
M  V30 3424 C 333.819 -1.98242 -0.427552 0
M  V30 3425 C 334.152 -1.09554 -1.60348 0
M  V30 3426 O 333.427 -0.15035 -1.93918 0
M  V30 3427 C 333.71 -3.4931 -0.874907 0
M  V30 3428 C 333.563 -4.48773 0.303751 0
M  V30 3429 C 334.882 -4.04424 -1.73577 0
M  V30 3430 H 332.001 -0.720744 -0.153936 0
M  V30 3431 H 334.643 -1.87586 0.30192 0
M  V30 3432 H 332.793 -3.58522 -1.49648 0
M  V30 3433 H 334.465 -4.51586 0.941682 0
M  V30 3434 H 332.708 -4.23194 0.953375 0
M  V30 3435 H 333.379 -5.51976 -0.0519883 0
M  V30 3436 H 335.855 -3.98075 -1.21143 0
M  V30 3437 H 334.731 -5.1047 -2.01771 0
M  V30 3438 H 334.992 -3.50494 -2.69456 0
M  V30 3439 N 334.051 0.0651679 -1.57465 0
M  V30 3440 C 334.981 1.07693 -2.07182 0
M  V30 3441 C 335.962 1.39962 -0.966673 0
M  V30 3442 O 337.147 1.49475 -1.2398 0
M  V30 3443 C 334.277 2.3885 -2.52127 0
M  V30 3444 C 333.231 2.20917 -3.66579 0
M  V30 3445 C 332.557 3.57515 -3.97601 0
M  V30 3446 C 333.857 1.62493 -4.9638 0
M  V30 3447 H 335.551 0.663199 -2.91962 0
M  V30 3448 H 333.097 0.317569 -1.40455 0
M  V30 3449 H 335.05 3.09928 -2.85522 0
M  V30 3450 H 333.774 2.82215 -1.64384 0
M  V30 3451 H 332.433 1.52279 -3.33477 0
M  V30 3452 H 332.081 3.98463 -3.06979 0
M  V30 3453 H 331.781 3.46353 -4.74672 0
M  V30 3454 H 333.305 4.30013 -4.33499 0
M  V30 3455 H 334.719 2.23445 -5.27963 0
M  V30 3456 H 333.116 1.62009 -5.77818 0
M  V30 3457 H 334.186 0.587041 -4.81333 0
M  V30 3458 N 335.529 1.53961 0.336706 0
M  V30 3459 C 336.477 1.83136 1.43401 0
M  V30 3460 C 337.471 0.702313 1.54156 0
M  V30 3461 O 338.677 0.885765 1.56698 0
M  V30 3462 H 335.052 0.580309 0.478273 0
M  V30 3463 H 337.023 2.74925 1.16012 0
M  V30 3464 C 335.772 2.06385 2.79822 0
M  V30 3465 H 335.095 2.92718 2.72316 0
M  V30 3466 H 336.535 2.30761 3.55704 0
M  V30 3467 C 334.994 0.851414 3.25964 0
M  V30 3468 O 335.524 0.0541904 4.01663 0
M  V30 3469 N 333.73 0.66672 2.82848 0
M  V30 3470 H 333.277 1.31665 2.21409 0
M  V30 3471 H 333.235 -0.143032 3.14074 0
M  V30 3472 N 337.007 -0.598083 1.45811 0
M  V30 3473 C 338.232 -1.3881 1.54099 0
M  V30 3474 C 338.657 -1.8726 0.177578 0
M  V30 3475 O 338.015 -1.6069 -0.839541 0
M  V30 3476 C 338.063 -2.56217 2.53743 0
M  V30 3477 O 337.167 -3.5716 2.06182 0
M  V30 3478 H 336.508 -0.414024 0.519115 0
M  V30 3479 H 339.038 -0.726971 1.91249 0
M  V30 3480 H 339.048 -3.03337 2.72856 0
M  V30 3481 H 337.723 -2.20303 3.5276 0
M  V30 3482 H 336.3 -3.16624 1.96987 0
M  V30 3483 N 338.485 -1.33259 -0.841409 0
M  V30 3484 C 339.734 -1.23921 -1.59143 0
M  V30 3485 C 340.047 0.1941 -1.94635 0
M  V30 3486 O 341.253 0.409474 -2.68394 0
M  V30 3487 C 339.709 -2.17119 -2.87032 0
M  V30 3488 C 339.317 -3.65606 -2.58914 0
M  V30 3489 C 341.061 -2.16648 -3.65053 0
M  V30 3490 C 338.968 -4.50726 -3.82884 0
M  V30 3491 H 337.898 -0.460264 -0.597221 0
M  V30 3492 H 340.549 -1.58307 -0.927959 0
M  V30 3493 H 338.931 -1.75663 -3.54906 0
M  V30 3494 H 340.105 -4.15487 -1.99267 0
M  V30 3495 H 338.42 -3.68341 -1.942 0
M  V30 3496 H 341.017 -2.77474 -4.57069 0
M  V30 3497 H 341.36 -1.16088 -3.99787 0
M  V30 3498 H 341.893 -2.56453 -3.041 0
M  V30 3499 H 338.632 -5.52151 -3.53283 0
M  V30 3500 H 338.152 -4.0559 -4.41879 0
M  V30 3501 H 339.831 -4.64401 -4.50489 0
M  V30 3502 N 339.963 1.05934 -1.16686 0
M  V30 3503 C 340.896 2.1295 -0.820225 0
M  V30 3504 C 341.874 1.61242 0.209722 0
M  V30 3505 O 343.058 1.88271 0.0929688 0
M  V30 3506 C 340.185 3.3797 -0.22223 0
M  V30 3507 C 339.231 4.08488 -1.22637 0
M  V30 3508 S 340.064 4.58015 -2.77457 0
M  V30 3509 C 341.22 5.86292 -2.19117 0
M  V30 3510 H 341.453 2.42025 -1.72659 0
M  V30 3511 H 338.986 1.18423 -0.990722 0
M  V30 3512 H 340.944 4.10335 0.116322 0
M  V30 3513 H 339.605 3.07045 0.66196 0
M  V30 3514 H 338.798 4.98291 -0.756455 0
M  V30 3515 H 338.4 3.42154 -1.51019 0
M  V30 3516 H 340.692 6.59246 -1.56209 0
M  V30 3517 H 341.635 6.38019 -3.07144 0
M  V30 3518 H 342.043 5.40497 -1.62858 0
M  V30 3519 N 341.441 0.965919 1.2453 0
M  V30 3520 C 342.388 0.49402 2.25451 0
M  V30 3521 C 343.358 -0.45948 1.59618 0
M  V30 3522 O 344.543 -0.370238 1.87173 0
M  V30 3523 C 341.683 -0.211359 3.44452 0
M  V30 3524 C 340.796 0.7807 4.24887 0
M  V30 3525 C 339.931 0.0516105 5.31175 0
M  V30 3526 C 338.97 1.03385 6.03306 0
M  V30 3527 N 338.107 0.334887 7.01301 0
M  V30 3528 H 342.947 1.35946 2.65184 0
M  V30 3529 H 340.484 0.681515 1.3036 0
M  V30 3530 H 342.442 -0.637 4.12308 0
M  V30 3531 H 341.072 -1.04077 3.05562 0
M  V30 3532 H 340.124 1.32479 3.56586 0
M  V30 3533 H 341.436 1.52978 4.74762 0
M  V30 3534 H 340.59 -0.432114 6.05159 0
M  V30 3535 H 339.329 -0.730179 4.82203 0
M  V30 3536 H 338.334 1.52847 5.28127 0
M  V30 3537 H 339.559 1.81606 6.54367 0
M  V30 3538 H 337.505 -0.427959 6.54603 0
M  V30 3539 H 337.422 1.02287 7.49048 0
M  V30 3540 H 338.69 -0.126928 7.79397 0
M  V30 3541 N 342.919 -1.39368 0.735821 0
M  V30 3542 C 343.882 -2.2896 0.104874 0
M  V30 3543 C 344.882 -1.46347 -0.666274 0
M  V30 3544 O 346.072 -1.67014 -0.49517 0
M  V30 3545 C 343.204 -3.29857 -0.860656 0
M  V30 3546 H 344.397 -2.86259 0.894205 0
M  V30 3547 H 341.95 -1.48029 0.501704 0
M  V30 3548 H 342.685 -2.77615 -1.67631 0
M  V30 3549 H 342.47 -3.9087 -0.310327 0
M  V30 3550 H 343.96 -3.96893 -1.29867 0
M  V30 3551 N 344.397 -0.483516 -1.5 0
M  V30 3552 C 345.327 0.293829 -2.31644 0
M  V30 3553 C 346.308 0.978864 -1.39112 0
M  V30 3554 O 347.493 0.973644 -1.68029 0
M  V30 3555 C 344.623 1.36897 -3.19181 0
M  V30 3556 C 343.577 0.804833 -4.20365 0
M  V30 3557 C 342.903 1.9792 -4.96721 0
M  V30 3558 C 344.203 -0.192313 -5.21946 0
M  V30 3559 H 345.897 -0.387616 -2.9688 0
M  V30 3560 H 343.443 -0.187856 -1.42769 0
M  V30 3561 H 345.396 1.92037 -3.751 0
M  V30 3562 H 344.12 2.07936 -2.51853 0
M  V30 3563 H 342.779 0.275319 -3.65565 0
M  V30 3564 H 342.427 2.67686 -4.25856 0
M  V30 3565 H 342.127 1.60789 -5.65173 0
M  V30 3566 H 343.651 2.53526 -5.55479 0
M  V30 3567 H 345.065 0.270333 -5.72662 0
M  V30 3568 H 343.462 -0.478543 -5.98189 0
M  V30 3569 H 344.532 -1.11409 -4.71928 0
M  V30 3570 N 345.875 1.56104 -0.216619 0
M  V30 3571 C 347.121 1.98466 0.417033 0
M  V30 3572 C 347.454 1.10403 1.59765 0
M  V30 3573 O 346.729 0.160632 1.93836 0
M  V30 3574 C 347.012 3.49769 0.85637 0
M  V30 3575 C 346.865 4.48606 -0.327546 0
M  V30 3576 C 348.184 4.05339 1.7143 0
M  V30 3577 H 345.303 0.721551 0.150112 0
M  V30 3578 H 347.945 1.87423 -0.311864 0
M  V30 3579 H 346.095 3.5931 1.47745 0
M  V30 3580 H 347.767 4.5108 -0.965618 0
M  V30 3581 H 346.01 4.22682 -0.975805 0
M  V30 3582 H 346.681 5.51995 0.0227149 0
M  V30 3583 H 349.157 3.98712 1.19031 0
M  V30 3584 H 348.033 5.11533 1.99061 0
M  V30 3585 H 348.294 3.51918 2.67593 0
M  V30 3586 N 347.353 -0.0568162 1.57498 0
M  V30 3587 C 348.764 -0.606858 1.76562 0
M  V30 3588 C 349.115 -1.77114 0.844094 0
M  V30 3589 O 348.24 -2.16376 0.0318911 0
M  V30 3590 C 348.835 -1.10766 3.20182 0
M  V30 3591 C 347.394 -1.60344 3.40539 0
M  V30 3592 C 346.541 -0.529311 2.72201 0
M  V30 3593 H 349.492 0.169393 1.57793 0
M  V30 3594 H 349.513 -1.97602 3.25167 0
M  V30 3595 H 349.025 -0.26006 3.87228 0
M  V30 3596 H 347.126 -2.47379 2.78629 0
M  V30 3597 H 347.239 -1.67006 4.4905 0
M  V30 3598 H 345.603 -0.977893 2.35179 0
M  V30 3599 H 346.386 0.308352 3.41912 0
M  V30 3600 N 348.832 -1.54138 -0.328536 0
M  V30 3601 C 349.762 -1.86167 -1.40939 0
M  V30 3602 C 350.743 -0.718044 -1.54202 0
M  V30 3603 O 351.928 -0.971328 -1.68163 0
M  V30 3604 C 349.058 -2.08461 -2.77779 0
M  V30 3605 C 348.012 -3.24299 -2.7931 0
M  V30 3606 C 347.338 -3.31955 -4.19178 0
M  V30 3607 C 348.638 -4.62065 -2.43502 0
M  V30 3608 H 350.332 -2.76689 -1.14383 0
M  V30 3609 H 347.878 -1.33132 -0.548806 0
M  V30 3610 H 349.831 -2.29453 -3.53454 0
M  V30 3611 H 348.555 -1.14684 -3.05802 0
M  V30 3612 H 347.214 -3.03187 -2.0609 0
M  V30 3613 H 346.862 -2.35745 -4.44335 0
M  V30 3614 H 346.562 -4.09805 -4.2111 0
M  V30 3615 H 348.086 -3.55175 -4.96672 0
M  V30 3616 H 349.5 -4.8297 -3.08889 0
M  V30 3617 H 347.897 -5.42429 -2.56693 0
M  V30 3618 H 348.967 -4.64652 -1.38659 0
M  V30 3619 N 350.31 0.590341 -1.46126 0
M  V30 3620 C 351.24 1.71032 -1.58966 0
M  V30 3621 C 352.221 1.64302 -0.440335 0
M  V30 3622 O 353.406 1.82436 -0.665634 0
M  V30 3623 C 350.536 3.09665 -1.57241 0
M  V30 3624 C 349.49 3.31221 -2.71066 0
M  V30 3625 C 348.816 4.70303 -2.54399 0
M  V30 3626 C 350.116 3.19796 -4.1295 0
M  V30 3627 H 351.81 1.60543 -2.52718 0
M  V30 3628 H 349.356 0.770933 -1.21625 0
M  V30 3629 H 351.309 3.87831 -1.64819 0
M  V30 3630 H 350.033 3.21036 -0.600289 0
M  V30 3631 H 348.692 2.55452 -2.62944 0
M  V30 3632 H 348.34 4.78429 -1.55288 0
M  V30 3633 H 348.04 4.85679 -3.30741 0
M  V30 3634 H 349.564 5.50647 -2.63857 0
M  V30 3635 H 350.978 3.87815 -4.22223 0
M  V30 3636 H 349.375 3.46696 -4.89818 0
M  V30 3637 H 350.445 2.16983 -4.33643 0
M  V30 3638 N 351.788 1.33704 0.83433 0
M  V30 3639 C 352.738 1.20899 1.93306 0
M  V30 3640 C 353.722 0.110783 1.60518 0
M  V30 3641 O 354.914 0.339331 1.73717 0
M  V30 3642 C 352.043 0.955018 3.29749 0
M  V30 3643 C 351.129 2.09587 3.68692 0
M  V30 3644 N 351.52 3.34621 3.79292 0
M  V30 3645 C 349.818 2.00358 3.98463 0
M  V30 3646 C 350.519 4.09472 4.13167 0
M  V30 3647 N 349.495 3.37954 4.25779 0
M  V30 3648 H 353.297 2.15665 1.99664 0
M  V30 3649 H 350.811 1.25777 1.02732 0
M  V30 3650 H 352.808 0.844208 4.08263 0
M  V30 3651 H 351.468 0.0159317 3.24696 0
M  V30 3652 H 352.479 3.69313 3.63082 0
M  V30 3653 H 349.156 1.14137 4.01596 0
M  V30 3654 H 350.546 5.17391 4.28668 0
M  V30 3655 N 353.266 -1.05314 1.17247 0
M  V30 3656 C 354.515 -1.77685 0.954521 0
M  V30 3657 C 354.828 -1.88616 -0.518025 0
M  V30 3658 O 356.034 -2.57714 -0.854144 0
M  V30 3659 C 354.49 -3.19402 1.65863 0
M  V30 3660 C 354.098 -3.16605 3.16963 0
M  V30 3661 C 355.842 -3.96237 1.52303 0
M  V30 3662 C 353.749 -4.53103 3.80068 0
M  V30 3663 H 352.679 -0.666 0.353496 0
M  V30 3664 H 355.33 -1.1805 1.40486 0
M  V30 3665 H 353.712 -3.79355 1.13602 0
M  V30 3666 H 354.886 -2.66176 3.76148 0
M  V30 3667 H 353.201 -2.53268 3.30521 0
M  V30 3668 H 355.798 -4.97157 1.96822 0
M  V30 3669 H 356.141 -4.136 0.473401 0
M  V30 3670 H 356.674 -3.42829 2.01775 0
M  V30 3671 H 353.413 -4.40946 4.85023 0
M  V30 3672 H 352.933 -5.03686 3.2567 0
M  V30 3673 H 354.612 -5.22045 3.82202 0
M  V30 3674 N 354.744 -0.972509 -1.24016 0
M  V30 3675 C 355.707 -0.511403 -2.23422 0
M  V30 3676 C 356.707 0.394679 -1.55881 0
M  V30 3677 O 357.897 0.189469 -1.73167 0
M  V30 3678 C 355.029 0.258769 -3.39916 0
M  V30 3679 H 356.222 -1.39024 -2.6573 0
M  V30 3680 H 353.775 -0.757585 -1.36713 0
M  V30 3681 H 354.51 1.1545 -3.03054 0
M  V30 3682 H 354.295 -0.391522 -3.9014 0
M  V30 3683 H 355.785 0.570244 -4.13688 0
M  V30 3684 N 356.222 1.38976 -0.743202 0
M  V30 3685 C 357.152 2.33171 -0.123873 0
M  V30 3686 C 358.133 1.54336 0.71516 0
M  V30 3687 O 359.318 1.82696 0.658467 0
M  V30 3688 C 356.448 3.38474 0.777978 0
M  V30 3689 C 355.402 4.27979 0.0424758 0
M  V30 3690 C 354.728 5.2405 1.06189 0
M  V30 3691 C 356.028 5.10155 -1.1198 0
M  V30 3692 H 357.722 2.85213 -0.910709 0
M  V30 3693 H 355.268 1.37133 -0.439388 0
M  V30 3694 H 357.221 4.03328 1.22084 0
M  V30 3695 H 355.945 2.84891 1.59702 0
M  V30 3696 H 354.604 3.64616 -0.380853 0
M  V30 3697 H 354.252 4.66758 1.87472 0
M  V30 3698 H 353.952 5.84785 0.574485 0
M  V30 3699 H 355.476 5.9178 1.50428 0
M  V30 3700 H 356.89 5.68307 -0.75499 0
M  V30 3701 H 355.287 5.80073 -1.53738 0
M  V30 3702 H 356.357 4.44504 -1.93764 0
M  V30 3703 N 357.7 0.491464 1.49741 0
M  V30 3704 C 358.63 -0.28154 2.31796 0
M  V30 3705 C 359.611 -0.971473 1.3963 0
M  V30 3706 O 360.796 -0.964719 1.68543 0
M  V30 3707 C 357.926 -1.35203 3.19902 0
M  V30 3708 C 356.88 -0.782529 4.20786 0
M  V30 3709 C 356.206 -1.95283 4.97764 0
M  V30 3710 C 357.506 0.21999 5.21837 0
M  V30 3711 H 359.2 0.403355 2.96671 0
M  V30 3712 H 356.746 0.195425 1.42668 0
M  V30 3713 H 358.699 -1.90045 3.76113 0
M  V30 3714 H 357.423 -2.06598 2.52953 0
M  V30 3715 H 356.082 -0.255928 3.65706 0
M  V30 3716 H 355.73 -2.65423 4.2727 0
M  V30 3717 H 355.43 -1.57789 5.66018 0
M  V30 3718 H 356.954 -2.50577 5.56816 0
M  V30 3719 H 358.368 -0.23996 5.72798 0
M  V30 3720 H 356.765 0.51026 5.97927 0
M  V30 3721 H 357.835 1.13911 4.7133 0
M  V30 3722 N 359.178 -1.55987 0.224894 0
M  V30 3723 C 360.424 -1.98684 -0.406502 0
M  V30 3724 C 360.757 -1.11248 -1.59177 0
M  V30 3725 O 360.032 -0.170909 -1.93748 0
M  V30 3726 C 360.315 -3.50218 -0.837808 0
M  V30 3727 C 360.168 -4.48426 0.351332 0
M  V30 3728 C 361.487 -4.06243 -1.69278 0
M  V30 3729 H 358.606 -0.722337 -0.146283 0
M  V30 3730 H 361.248 -1.87255 0.321799 0
M  V30 3731 H 359.398 -3.60089 -1.45837 0
M  V30 3732 H 361.07 -4.50562 0.989526 0
M  V30 3733 H 359.313 -4.22159 0.998207 0
M  V30 3734 H 359.984 -5.52 0.00655905 0
M  V30 3735 H 362.46 -3.99337 -1.16914 0
M  V30 3736 H 361.336 -5.12581 -1.96346 0
M  V30 3737 H 361.597 -3.53332 -2.65723 0
M  V30 3738 N 360.656 0.0484629 -1.57525 0
M  V30 3739 C 361.586 1.0549 -2.08313 0
M  V30 3740 C 362.567 1.38929 -0.981463 0
M  V30 3741 O 363.752 1.48151 -1.25558 0
M  V30 3742 C 360.882 2.36162 -2.54646 0
M  V30 3743 C 359.836 2.17016 -3.68901 0
M  V30 3744 C 359.162 3.53278 -4.01371 0
M  V30 3745 C 360.462 1.57219 -4.98076 0
M  V30 3746 H 362.156 0.632195 -2.92649 0
M  V30 3747 H 359.702 0.302654 -1.40784 0
M  V30 3748 H 361.655 3.06882 -2.88793 0
M  V30 3749 H 360.379 2.80456 -1.67368 0
M  V30 3750 H 359.038 1.48733 -3.35073 0
M  V30 3751 H 358.686 3.95185 -3.11188 0
M  V30 3752 H 358.386 3.41299 -4.78318 0
M  V30 3753 H 359.91 4.25391 -4.38035 0
M  V30 3754 H 361.324 2.17832 -5.30304 0
M  V30 3755 H 359.721 1.55871 -5.79503 0
M  V30 3756 H 360.791 0.535956 -4.81929 0
M  V30 3757 N 362.134 1.5431 0.320358 0
M  V30 3758 C 363.381 1.72668 1.05792 0
M  V30 3759 C 363.709 0.502084 1.87908 0
M  V30 3760 O 362.964 -0.516149 1.88771 0
M  V30 3761 C 363.263 2.95639 2.00828 0
M  V30 3762 C 362.929 4.30265 1.34843 0
M  V30 3763 C 361.591 4.66865 1.16578 0
M  V30 3764 C 363.943 5.13801 0.875095 0
M  V30 3765 C 361.271 5.84597 0.496336 0
M  V30 3766 C 363.623 6.32219 0.219463 0
M  V30 3767 C 362.287 6.67495 0.0246915 0
M  V30 3768 H 361.557 0.631837 0.387121 0
M  V30 3769 H 364.204 1.88552 0.334735 0
M  V30 3770 H 362.509 2.74456 2.79609 0
M  V30 3771 H 364.206 3.07038 2.57932 0
M  V30 3772 H 360.796 4.01472 1.50061 0
M  V30 3773 H 364.98 4.86039 1.00398 0
M  V30 3774 H 360.236 6.10486 0.334264 0
M  V30 3775 H 364.41 6.96227 -0.155291 0
M  V30 3776 H 362.037 7.5858 -0.496065 0
M  V30 3777 N 363.613 -0.582584 1.46437 0
M  V30 3778 C 364.859 -1.34278 1.51978 0
M  V30 3779 C 365.192 -1.93446 0.170973 0
M  V30 3780 O 364.467 -1.76481 -0.817608 0
M  V30 3781 C 364.75 -2.47203 2.61845 0
M  V30 3782 C 364.603 -1.93069 4.06257 0
M  V30 3783 C 365.922 -3.49247 2.67795 0
M  V30 3784 H 363.041 -0.486876 0.553282 0
M  V30 3785 H 365.683 -0.654437 1.78374 0
M  V30 3786 H 363.833 -3.0592 2.39469 0
M  V30 3787 H 365.505 -1.38808 4.3992 0
M  V30 3788 H 363.748 -1.23898 4.1573 0
M  V30 3789 H 364.419 -2.74586 4.7886 0
M  V30 3790 H 366.895 -3.00411 2.8791 0
M  V30 3791 H 365.771 -4.25719 3.46489 0
M  V30 3792 H 366.032 -4.06482 1.73852 0
M  V30 3793 N 365.091 -1.34144 -0.827227 0
M  V30 3794 C 366.34 -1.25602 -1.5782 0
M  V30 3795 C 366.653 0.173445 -1.94829 0
M  V30 3796 O 367.859 0.380984 -2.68814 0
M  V30 3797 C 366.315 -2.20151 -2.84713 0
M  V30 3798 C 365.923 -3.68331 -2.55021 0
M  V30 3799 C 367.667 -2.20508 -3.62735 0
M  V30 3800 C 365.574 -4.54762 -3.78082 0
M  V30 3801 H 364.504 -0.466573 -0.592306 0
M  V30 3802 H 367.155 -1.59283 -0.911116 0
M  V30 3803 H 365.537 -1.79417 -3.53023 0
M  V30 3804 H 366.711 -4.17577 -1.94849 0
M  V30 3805 H 365.026 -3.7038 -1.90283 0
M  V30 3806 H 367.623 -2.82306 -4.54101 0
M  V30 3807 H 367.966 -1.20322 -3.98533 0
M  V30 3808 H 368.499 -2.59664 -3.01362 0
M  V30 3809 H 365.238 -5.55867 -3.47407 0
M  V30 3810 H 364.758 -4.10254 -4.37552 0
M  V30 3811 H 366.437 -4.69153 -4.45538 0
M  V30 3812 N 366.569 1.04691 -1.17803 0
M  V30 3813 C 367.818 1.77176 -0.963931 0
M  V30 3814 C 368.131 1.88888 0.508015 0
M  V30 3815 O 369.337 2.58164 0.840465 0
M  V30 3816 C 367.793 3.18518 -1.67555 0
M  V30 3817 C 367.401 3.14919 -3.18637 0
M  V30 3818 C 369.145 3.95424 -1.54402 0
M  V30 3819 C 367.052 4.51081 -3.82466 0
M  V30 3820 H 365.982 0.664116 -0.357023 0
M  V30 3821 H 368.633 1.17303 -1.4111 0
M  V30 3822 H 367.015 3.78748 -1.15613 0
M  V30 3823 H 368.189 2.64178 -3.77554 0
M  V30 3824 H 366.504 2.51512 -3.31859 0
M  V30 3825 H 369.101 4.96106 -1.99456 0
M  V30 3826 H 369.444 4.13343 -0.495329 0
M  V30 3827 H 369.977 3.41754 -2.0359 0
M  V30 3828 H 366.716 4.38368 -4.87354 0
M  V30 3829 H 366.236 5.01951 -3.28337 0
M  V30 3830 H 367.915 5.2001 -3.84965 0
M  V30 3831 N 368.047 0.979072 1.23499 0
M  V30 3832 C 369.296 0.642751 1.91185 0
M  V30 3833 C 369.609 -0.827253 1.77245 0
M  V30 3834 O 370.815 -1.27458 2.39722 0
M  V30 3835 C 369.271 1.09901 3.42709 0
M  V30 3836 C 368.879 2.59327 3.65313 0
M  V30 3837 C 370.623 0.836371 4.16179 0
M  V30 3838 C 368.53 2.98627 5.10467 0
M  V30 3839 H 367.46 0.236698 0.715884 0
M  V30 3840 H 370.111 1.1868 1.39955 0
M  V30 3841 H 368.493 0.48319 3.93041 0
M  V30 3842 H 369.667 3.26136 3.25533 0
M  V30 3843 H 367.982 2.83323 3.05151 0
M  V30 3844 H 370.579 1.10586 5.23139 0
M  V30 3845 H 370.922 -0.227509 4.15678 0
M  V30 3846 H 371.455 1.41371 3.71832 0
M  V30 3847 H 368.194 4.04133 5.16098 0
M  V30 3848 H 367.714 2.3651 5.51201 0
M  V30 3849 H 369.393 2.89159 5.78788 0
M  V30 3850 N 369.525 -1.3858 0.750561 0
M  V30 3851 C 370.755 -2.04175 0.31564 0
M  V30 3852 C 371.163 -1.56726 -1.05989 0
M  V30 3853 O 370.506 -0.734225 -1.68389 0
M  V30 3854 C 370.568 -3.58585 0.256389 0
M  V30 3855 C 370.232 -4.29077 1.57296 0
M  V30 3856 C 371.229 -4.54656 2.52159 0
M  V30 3857 C 368.914 -4.67324 1.84156 0
M  V30 3858 C 370.908 -5.17512 3.72103 0
M  V30 3859 C 368.595 -5.29905 3.04374 0
M  V30 3860 C 369.593 -5.54933 3.98168 0
M  V30 3861 O 369.281 -6.16212 5.16273 0
M  V30 3862 H 369.013 -0.662742 0.133226 0
M  V30 3863 H 371.567 -1.78313 1.01948 0
M  V30 3864 H 369.797 -3.83406 -0.503677 0
M  V30 3865 H 371.486 -4.05628 -0.148612 0
M  V30 3866 H 372.252 -4.25539 2.32683 0
M  V30 3867 H 368.131 -4.47191 1.11988 0
M  V30 3868 H 371.675 -5.36963 4.45327 0
M  V30 3869 H 367.572 -5.58444 3.23745 0
M  V30 3870 H 368.34 -6.34701 5.16815 0
M  V30 3871 N 371.003 -0.499398 -1.49478 0
M  V30 3872 C 371.966 0.268838 -2.27618 0
M  V30 3873 C 372.966 0.895383 -1.33565 0
M  V30 3874 O 374.156 0.760164 -1.56739 0
M  V30 3875 C 371.288 1.38559 -3.11471 0
M  V30 3876 H 372.481 -0.416812 -2.96989 0
M  V30 3877 H 370.034 -0.254313 -1.54217 0
M  V30 3878 H 370.769 2.10544 -2.46661 0
M  V30 3879 H 370.554 0.941797 -3.80621 0
M  V30 3880 H 372.044 1.92678 -3.70493 0
M  V30 3881 N 372.481 1.55866 -0.233164 0
M  V30 3882 C 373.73 1.97779 0.39579 0
M  V30 3883 C 374.043 1.12419 1.60066 0
M  V30 3884 O 375.249 1.44283 2.29988 0
M  V30 3885 C 373.705 3.5188 0.755556 0
M  V30 3886 C 373.313 4.45959 -0.427152 0
M  V30 3887 C 375.057 4.02479 1.34946 0
M  V30 3888 C 372.964 5.91383 -0.0443043 0
M  V30 3889 H 371.894 0.738592 0.15165 0
M  V30 3890 H 374.545 1.80486 -0.331212 0
M  V30 3891 H 372.927 3.64816 1.5403 0
M  V30 3892 H 374.101 4.44776 -1.20462 0
M  V30 3893 H 372.416 4.05765 -0.935068 0
M  V30 3894 H 375.013 5.08637 1.649 0
M  V30 3895 H 375.356 3.49014 2.26925 0
M  V30 3896 H 375.889 3.92813 0.62791 0
M  V30 3897 H 372.628 6.48857 -0.930874 0
M  V30 3898 H 372.148 5.95734 0.697238 0
M  V30 3899 H 373.827 6.45893 0.378334 0
M  V30 3900 N 373.959 -0.0401083 1.57549 0
M  V30 3901 C 375.208 -0.732108 1.87944 0
M  V30 3902 C 375.521 -1.77107 0.830206 0
M  V30 3903 O 376.727 -2.51488 1.02302 0
M  V30 3904 C 375.183 -1.35315 3.33494 0
M  V30 3905 C 374.791 -0.351105 4.46622 0
M  V30 3906 C 376.535 -2.02566 3.73051 0
M  V30 3907 C 374.442 -0.979859 5.83226 0
M  V30 3908 H 373.372 -0.277188 0.701201 0
M  V30 3909 H 376.023 0.0138501 1.83495 0
M  V30 3910 H 374.405 -2.14844 3.32653 0
M  V30 3911 H 375.579 0.416674 4.58912 0
M  V30 3912 H 373.894 0.218708 4.15825 0
M  V30 3913 H 376.491 -2.50441 4.72423 0
M  V30 3914 H 376.834 -2.83904 3.04474 0
M  V30 3915 H 377.367 -1.29827 3.76018 0
M  V30 3916 H 374.106 -0.206135 6.55176 0
M  V30 3917 H 373.626 -1.71774 5.74677 0
M  V30 3918 H 375.305 -1.49046 6.29599 0
M  V30 3919 N 375.437 -1.54477 -0.31217 0
M  V30 3920 C 376.685 -1.72884 -1.04668 0
M  V30 3921 C 377.006 -0.511477 -1.88173 0
M  V30 3922 O 376.276 0.474407 -1.90069 0
M  V30 3923 H 374.856 -0.637461 -0.389425 0
M  V30 3924 H 377.518 -1.91807 -0.345852 0
M  V30 3925 H 376.614 -2.61334 -1.70619 0
M  V30 3926 N 376.915 0.57481 -1.46744 0
M  V30 3927 C 377.845 1.69337 -1.60771 0
M  V30 3928 C 378.826 1.63825 -0.457736 0
M  V30 3929 O 380.011 1.8172 -0.684947 0
M  V30 3930 C 377.141 3.0798 -1.60517 0
M  V30 3931 C 376.095 3.28327 -2.74564 0
M  V30 3932 C 375.421 4.67578 -2.59373 0
M  V30 3933 C 376.721 3.15398 -4.16319 0
M  V30 3934 H 378.415 1.57853 -2.54407 0
M  V30 3935 H 375.961 0.75799 -1.22436 0
M  V30 3936 H 377.914 3.86061 -1.68923 0
M  V30 3937 H 376.638 3.20381 -0.634305 0
M  V30 3938 H 375.297 2.52649 -2.65639 0
M  V30 3939 H 374.945 4.76755 -1.60353 0
M  V30 3940 H 374.645 4.82144 -3.35873 0
M  V30 3941 H 376.169 5.47817 -2.69682 0
M  V30 3942 H 377.583 3.83315 -4.26313 0
M  V30 3943 H 375.98 3.41482 -4.93468 0
M  V30 3944 H 377.05 2.12372 -4.3592 0
M  V30 3945 N 378.394 1.34581 0.820102 0
M  V30 3946 C 379.304 1.28471 1.96297 0
M  V30 3947 C 380.32 0.191902 1.72939 0
M  V30 3948 O 381.496 0.418879 1.96996 0
M  V30 3949 C 378.561 1.04281 3.30645 0
M  V30 3950 C 377.622 2.22745 3.66992 0
M  V30 3951 C 376.855 1.997 4.9493 0
M  V30 3952 O 377.078 0.956656 5.6232 0
M  V30 3953 O 376.012 2.86723 5.2922 0
M  V30 3954 H 379.838 2.24624 2.04396 0
M  V30 3955 H 377.423 1.14816 0.955913 0
M  V30 3956 H 379.305 0.925841 4.11104 0
M  V30 3957 H 377.98 0.111697 3.23507 0
M  V30 3958 H 376.887 2.40003 2.86966 0
M  V30 3959 H 378.22 3.14257 3.78819 0
M  V30 3960 N 379.872 -1.04064 1.18357 0
M  V30 3961 C 380.802 -2.14001 0.934113 0
M  V30 3962 C 381.783 -1.69616 -0.128186 0
M  V30 3963 O 382.968 -1.94185 0.0244093 0
M  V30 3964 C 380.098 -3.44253 0.459066 0
M  V30 3965 C 379.052 -4.02261 1.46185 0
M  V30 3966 C 378.378 -5.27992 0.844322 0
M  V30 3967 C 379.678 -4.38432 2.83856 0
M  V30 3968 H 381.372 -2.35127 1.85352 0
M  V30 3969 H 378.918 -1.12998 0.892604 0
M  V30 3970 H 380.871 -4.20522 0.271907 0
M  V30 3971 H 379.595 -3.22813 -0.495912 0
M  V30 3972 H 378.254 -3.28074 1.63595 0
M  V30 3973 H 377.902 -5.02862 -0.117845 0
M  V30 3974 H 377.602 -5.67765 1.51384 0
M  V30 3975 H 379.126 -6.06938 0.667693 0
M  V30 3976 H 380.54 -5.05688 2.70098 0
M  V30 3977 H 378.937 -4.89254 3.47491 0
M  V30 3978 H 380.007 -3.4826 3.37406 0
M  V30 3979 N 381.35 -0.985608 -1.22978 0
M  V30 3980 C 382.597 -0.657386 -1.91532 0
M  V30 3981 C 382.925 0.809707 -1.76845 0
M  V30 3982 O 382.18 1.60021 -1.12658 0
M  V30 3983 C 382.479 -1.00014 -3.43121 0
M  V30 3984 C 382.145 -2.4583 -3.77993 0
M  V30 3985 C 380.807 -2.85679 -3.87222 0
M  V30 3986 C 383.159 -3.40378 -3.94705 0
M  V30 3987 C 380.487 -4.19081 -4.10595 0
M  V30 3988 C 382.839 -4.73429 -4.1958 0
M  V30 3989 C 381.503 -5.1303 -4.27032 0
M  V30 3990 H 380.773 -0.240555 -0.700867 0
M  V30 3991 H 383.42 -1.24044 -1.45895 0
M  V30 3992 H 381.725 -0.335072 -3.90365 0
M  V30 3993 H 383.422 -0.724322 -3.94404 0
M  V30 3994 H 380.012 -2.13939 -3.71387 0
M  V30 3995 H 384.196 -3.10766 -3.8696 0
M  V30 3996 H 379.452 -4.49362 -4.14589 0
M  V30 3997 H 383.626 -5.46644 -4.31455 0
M  V30 3998 H 381.253 -6.16418 -4.44896 0
M  V30 3999 N 382.828 1.3818 -0.7579 0
M  V30 4000 C 383.758 2.33027 -0.148597 0
M  V30 4001 C 384.739 1.55085 0.69875 0
M  V30 4002 O 385.924 1.83384 0.639053 0
M  V30 4003 C 383.054 3.3928 0.742034 0
M  V30 4004 C 382.008 4.28 -0.00291946 0
M  V30 4005 C 381.334 5.25146 1.00625 0
M  V30 4006 C 382.634 5.08938 -1.17385 0
M  V30 4007 H 384.328 2.84231 -0.940909 0
M  V30 4008 H 381.874 1.36659 -0.453908 0
M  V30 4009 H 383.827 4.046 1.17799 0
M  V30 4010 H 382.551 2.86569 1.56671 0
M  V30 4011 H 381.21 3.64192 -0.419504 0
M  V30 4012 H 380.858 4.68721 1.8251 0
M  V30 4013 H 380.558 5.85361 0.512428 0
M  V30 4014 H 382.082 5.93342 1.44143 0
M  V30 4015 H 383.496 5.67474 -0.815224 0
M  V30 4016 H 381.893 5.7841 -1.59882 0
M  V30 4017 H 382.963 4.42424 -1.98468 0
M  V30 4018 N 384.306 0.507319 1.49211 0
M  V30 4019 C 385.554 -0.0348839 2.0207 0
M  V30 4020 C 385.875 -1.36898 1.38866 0
M  V30 4021 O 385.145 -1.88133 0.546151 0
M  V30 4022 H 383.725 -0.0158812 0.746831 0
M  V30 4023 H 386.387 0.665998 1.83168 0
M  V30 4024 H 385.483 -0.159917 3.1169 0
M  V30 4025 N 385.784 -1.5574 0.241426 0
M  V30 4026 C 387.2 -1.59196 -0.113548 0
M  V30 4027 C 387.4 -1.25852 -1.57364 0
M  V30 4028 O 386.456 -1.00322 -2.31715 0
M  V30 4029 C 387.769 -2.99814 0.230695 0
M  V30 4030 C 389.317 -3.12513 0.174547 0
M  V30 4031 C 389.792 -4.55342 0.492744 0
M  V30 4032 N 391.283 -4.61076 0.443043 0
M  V30 4033 C 392.018 -5.6956 0.662484 0
M  V30 4034 N 391.514 -6.86328 0.944761 0
M  V30 4035 N 393.307 -5.58957 0.593564 0
M  V30 4036 H 385.458 -1.75685 1.19368 0
M  V30 4037 H 387.721 -0.81756 0.479896 0
M  V30 4038 H 387.427 -3.28932 1.24485 0
M  V30 4039 H 387.301 -3.74568 -0.444833 0
M  V30 4040 H 389.688 -2.83179 -0.830277 0
M  V30 4041 H 389.769 -2.40045 0.883845 0
M  V30 4042 H 389.413 -4.85396 1.4951 0
M  V30 4043 H 389.343 -5.26062 -0.23797 0
M  V30 4044 H 391.834 -3.77179 0.233374 0
M  V30 4045 H 392.147 -7.64935 1.09977 0
M  V30 4046 H 390.492 -6.88025 0.982175 0
M  V30 4047 H 393.683 -4.66611 0.373123 0
M  V30 4048 H 393.856 -6.43433 0.767981 0
M  V30 4049 N 387.262 0.0317525 -1.57568 0
M  V30 4050 C 388.195 1.06621 -2.0176 0
M  V30 4051 C 389.173 1.35323 -0.901462 0
M  V30 4052 O 390.357 1.48025 -1.16708 0
M  V30 4053 C 387.484 2.40155 -2.38837 0
M  V30 4054 C 386.53 2.27327 -3.60867 0
M  V30 4055 S 387.363 1.62925 -5.10113 0
M  V30 4056 C 388.519 2.97955 -5.5043 0
M  V30 4057 H 388.752 0.689781 -2.89187 0
M  V30 4058 H 386.285 0.24164 -1.52497 0
M  V30 4059 H 388.243 3.1695 -2.6087 0
M  V30 4060 H 386.904 2.74946 -1.51867 0
M  V30 4061 H 386.097 3.25898 -3.84456 0
M  V30 4062 H 385.699 1.58675 -3.38671 0
M  V30 4063 H 387.991 3.94285 -5.5095 0
M  V30 4064 H 388.934 2.79102 -6.50775 0
M  V30 4065 H 389.342 3.00404 -4.77931 0
M  V30 4066 N 388.74 1.54641 0.303973 0
M  V30 4067 C 389.69 1.8177 1.37636 0
M  V30 4068 C 390.674 0.674697 1.46071 0
M  V30 4069 O 391.866 0.935251 1.50273 0
M  V30 4070 C 388.995 2.06584 2.74186 0
M  V30 4071 C 388.081 3.2706 2.69986 0
M  V30 4072 N 388.472 4.47682 2.35402 0
M  V30 4073 C 386.77 3.29028 3.01092 0
M  V30 4074 C 387.471 5.29689 2.40426 0
M  V30 4075 N 386.447 4.67339 2.7766 0
M  V30 4076 H 390.249 2.72596 1.09857 0
M  V30 4077 H 387.763 1.541 0.51254 0
M  V30 4078 H 389.76 2.24166 3.51504 0
M  V30 4079 H 388.42 1.17024 3.02879 0
M  V30 4080 H 389.431 4.74336 2.07908 0
M  V30 4081 H 386.108 2.49565 3.34699 0
M  V30 4082 H 387.498 6.3606 2.16512 0
M  V30 4083 N 390.218 -0.567019 1.47046 0
M  V30 4084 C 391.165 -1.67489 1.58796 0
M  V30 4085 C 392.135 -1.60399 0.43144 0
M  V30 4086 O 393.32 -1.79378 0.650233 0
M  V30 4087 C 390.46 -3.05821 1.59899 0
M  V30 4088 C 389.573 -3.2342 2.86397 0
M  V30 4089 C 388.708 -4.52093 2.789 0
M  V30 4090 C 387.747 -4.6309 4.00267 0
M  V30 4091 N 386.884 -5.83106 3.91064 0
M  V30 4092 H 391.724 -1.56785 2.53422 0
M  V30 4093 H 389.261 -0.763896 1.2571 0
M  V30 4094 H 391.219 -3.8591 1.58522 0
M  V30 4095 H 389.849 -3.15384 0.687929 0
M  V30 4096 H 388.901 -2.3683 2.97684 0
M  V30 4097 H 390.213 -3.27412 3.76301 0
M  V30 4098 H 389.367 -5.4043 2.75718 0
M  V30 4099 H 388.106 -4.50565 1.86662 0
M  V30 4100 H 387.111 -3.73168 4.03765 0
M  V30 4101 H 388.336 -4.66386 4.93621 0
M  V30 4102 H 386.282 -5.82546 3.01623 0
M  V30 4103 H 386.199 -5.88434 4.74638 0
M  V30 4104 H 387.467 -6.73831 3.91882 0
M  V30 4105 N 391.696 -1.35014 -0.812953 0
M  V30 4106 C 392.924 -1.31031 -1.6012 0
M  V30 4107 C 393.339 0.113558 -1.88458 0
M  V30 4108 O 392.696 1.06363 -1.48301 0
M  V30 4109 C 392.747 -2.10872 -2.93624 0
M  V30 4110 O 392.468 -3.47706 -2.66518 0
M  V30 4111 C 393.969 -2.14401 -3.88004 0
M  V30 4112 H 391.189 -0.45037 -0.497401 0
M  V30 4113 H 393.733 -1.77775 -1.01076 0
M  V30 4114 H 391.888 -1.67744 -3.492 0
M  V30 4115 H 392.302 -3.89097 -3.51715 0
M  V30 4116 H 393.776 -2.74669 -4.78812 0
M  V30 4117 H 394.253 -1.14105 -4.24119 0
M  V30 4118 H 394.859 -2.57662 -3.38364 0
M  V30 4119 N 393.175 1.03435 -1.18907 0
M  V30 4120 C 394.415 1.78302 -0.999391 0
M  V30 4121 C 394.779 1.86353 0.462219 0
M  V30 4122 O 395.98 2.57489 0.771543 0
M  V30 4123 C 394.251 3.17362 -1.64365 0
M  V30 4124 S 395.81 4.08488 -1.6026 0
M  V30 4125 H 392.628 0.613861 -0.358742 0
M  V30 4126 H 395.23 1.23979 -1.51161 0
M  V30 4127 H 393.934 3.09116 -2.69955 0
M  V30 4128 H 393.465 3.76762 -1.13199 0
M  V30 4129 H 395.48 4.92274 -0.622932 0
M  V30 4130 N 394.653 0.992116 1.22453 0
M  V30 4131 C 395.883 0.684949 1.94915 0
M  V30 4132 C 396.291 -0.754292 1.73514 0
M  V30 4133 O 395.634 -1.52056 1.03076 0
M  V30 4134 C 395.696 0.910054 3.47791 0
M  V30 4135 C 395.36 2.33363 3.92926 0
M  V30 4136 C 396.357 3.31308 4.00663 0
M  V30 4137 C 394.042 2.66785 4.25595 0
M  V30 4138 C 396.036 4.6075 4.40441 0
M  V30 4139 C 393.723 3.96446 4.65053 0
M  V30 4140 C 394.721 4.9324 4.72444 0
M  V30 4141 O 394.409 6.20584 5.1101 0
M  V30 4142 H 394.141 0.25258 0.62704 0
M  V30 4143 H 396.695 1.32939 1.56577 0
M  V30 4144 H 394.925 0.208443 3.86138 0
M  V30 4145 H 396.614 0.598257 4.01467 0
M  V30 4146 H 397.38 3.0682 3.75615 0
M  V30 4147 H 393.259 1.92148 4.19047 0
M  V30 4148 H 396.803 5.363 4.46126 0
M  V30 4149 H 392.7 4.20724 4.89552 0
M  V30 4150 H 393.468 6.24509 5.29085 0
M  V30 4151 N 396.131 -1.37776 0.765217 0
M  V30 4152 C 397.378 -1.99849 0.326588 0
M  V30 4153 C 397.706 -1.60746 -1.09504 0
M  V30 4154 O 396.961 -0.84202 -1.76659 0
M  V30 4155 C 397.26 -3.5504 0.410053 0
M  V30 4156 C 396.926 -4.13891 1.78899 0
M  V30 4157 C 395.588 -4.29678 2.16635 0
M  V30 4158 C 397.94 -4.46236 2.69301 0
M  V30 4159 C 395.268 -4.7511 3.44221 0
M  V30 4160 C 397.62 -4.93089 3.9629 0
M  V30 4161 C 396.284 -5.07082 4.34078 0
M  V30 4162 H 395.554 -0.7313 0.119507 0
M  V30 4163 H 398.201 -1.64645 0.977968 0
M  V30 4164 H 396.506 -3.90451 -0.324878 0
M  V30 4165 H 398.203 -4.00966 0.0520699 0
M  V30 4166 H 394.793 -4.02026 1.48569 0
M  V30 4167 H 398.977 -4.3363 2.41409 0
M  V30 4168 H 394.233 -4.84129 3.73402 0
M  V30 4169 H 398.407 -5.17084 4.66472 0
M  V30 4170 H 396.034 -5.42046 5.33001 0
M  V30 4171 N 397.609 -0.515225 -1.4894 0
M  V30 4172 C 398.539 0.244628 -2.32215 0
M  V30 4173 C 399.52 0.949136 -1.41157 0
M  V30 4174 O 400.705 0.937783 -1.70057 0
M  V30 4175 C 397.835 1.30096 -3.22013 0
M  V30 4176 C 396.789 0.715486 -4.21977 0
M  V30 4177 C 396.115 1.87339 -5.00808 0
M  V30 4178 C 397.415 -0.302982 -5.2142 0
M  V30 4179 H 399.109 -0.450501 -2.95991 0
M  V30 4180 H 396.655 -0.218098 -1.42339 0
M  V30 4181 H 398.608 1.84037 -3.79089 0
M  V30 4182 H 397.332 2.02547 -2.56207 0
M  V30 4183 H 395.991 0.197715 -3.66066 0
M  V30 4184 H 395.639 2.58592 -4.31438 0
M  V30 4185 H 395.339 1.48764 -5.68457 0
M  V30 4186 H 396.863 2.41686 -5.60732 0
M  V30 4187 H 398.277 0.148802 -5.73107 0
M  V30 4188 H 396.674 -0.60532 -5.97039 0
M  V30 4189 H 397.744 -1.21395 -4.69459 0
M  V30 4190 N 399.087 1.5561 -0.249682 0
M  V30 4191 C 400.335 1.98618 0.373548 0
M  V30 4192 C 400.656 1.13919 1.58264 0
M  V30 4193 O 399.926 0.222637 1.94631 0
M  V30 4194 H 398.506 0.733571 0.141006 0
M  V30 4195 H 401.168 1.91748 -0.349117 0
M  V30 4196 H 400.264 3.04584 0.680796 0
M  V30 4197 N 400.565 -0.0233959 1.57583 0
M  V30 4198 C 401.79 -0.728376 1.94189 0
M  V30 4199 C 402.215 -1.67793 0.850119 0
M  V30 4200 O 401.573 -1.80262 -0.19371 0
M  V30 4201 C 401.621 -1.45669 3.29868 0
M  V30 4202 O 400.725 -2.57013 3.22518 0
M  V30 4203 H 400.066 -0.195493 0.63457 0
M  V30 4204 H 402.596 0.0228214 2.04587 0
M  V30 4205 H 402.606 -1.82535 3.6489 0
M  V30 4206 H 401.281 -0.760314 4.08891 0
M  V30 4207 H 399.858 -2.22648 2.99136 0
M  V30 4208 N 402.043 -1.548 -0.295768 0
M  V30 4209 C 403.32 -1.65014 -1.05023 0
M  V30 4210 C 403.7 -0.501805 -2.05049 0
M  V30 4211 O 403.048 0.500869 -2.22943 0
M  V30 4212 C 403.258 -3.03252 -1.72741 0
M  V30 4213 C 404.606 -3.60242 -2.24746 0
M  V30 4214 O 405.63 -3.05737 -1.82765 0
M  V30 4215 O 404.489 -4.55687 -3.01681 0
M  V30 4216 H 401.583 -0.669314 -0.485744 0
M  V30 4217 H 404.129 -1.67144 -0.293438 0
M  V30 4218 H 402.901 -3.7827 -1.00138 0
M  V30 4219 H 402.524 -3.04922 -2.55163 0
M  V30 4220 N 403.521 0.559213 -1.47345 0
M  V30 4221 C 404.454 1.68201 -1.5422 0
M  V30 4222 C 405.432 1.57742 -0.394497 0
M  V30 4223 O 406.616 1.78628 -0.60201 0
M  V30 4224 C 403.743 3.0643 -1.44285 0
M  V30 4225 C 402.789 3.3534 -2.63532 0
M  V30 4226 S 403.622 3.24816 -4.25741 0
M  V30 4227 C 404.778 4.65542 -4.18355 0
M  V30 4228 H 405.011 1.62114 -2.49211 0
M  V30 4229 H 402.544 0.739871 -1.35519 0
M  V30 4230 H 404.502 3.86164 -1.3924 0
M  V30 4231 H 403.163 3.09984 -0.506816 0
M  V30 4232 H 402.356 4.36107 -2.52639 0
M  V30 4233 H 401.958 2.63221 -2.65689 0
M  V30 4234 H 404.25 5.56449 -3.86485 0
M  V30 4235 H 405.193 4.81493 -5.19202 0
M  V30 4236 H 405.601 4.43495 -3.49246 0
M  V30 4237 N 404.999 1.35443 0.805782 0
M  V30 4238 C 405.909 1.30546 1.94923 0
M  V30 4239 C 406.925 0.210233 1.72725 0
M  V30 4240 O 408.101 0.43975 1.9654 0
M  V30 4241 C 405.166 1.07782 3.29521 0
M  V30 4242 C 404.227 2.26625 3.64609 0
M  V30 4243 C 403.46 2.04938 4.92784 0
M  V30 4244 O 403.683 1.01624 5.61274 0
M  V30 4245 O 402.617 2.9232 5.26149 0
M  V30 4246 H 406.443 2.26779 2.02002 0
M  V30 4247 H 404.028 1.15823 0.943682 0
M  V30 4248 H 405.91 0.969392 4.10098 0
M  V30 4249 H 404.585 0.146003 3.23371 0
M  V30 4250 H 403.492 2.43033 2.84404 0
M  V30 4251 H 404.825 3.18257 3.75464 0
M  V30 4252 N 406.477 -1.02803 1.19454 0
M  V30 4253 C 407.44 -2.09264 0.934955 0
M  V30 4254 C 408.44 -1.60576 -0.0849015 0
M  V30 4255 O 409.63 -1.73554 0.149933 0
M  V30 4256 C 406.762 -3.38482 0.40531 0
M  V30 4257 H 407.955 -2.33726 1.87916 0
M  V30 4258 H 405.508 -1.19426 1.00832 0
M  V30 4259 H 406.243 -3.19689 -0.544899 0
M  V30 4260 H 406.028 -3.75142 1.14065 0
M  V30 4261 H 407.518 -4.16894 0.242806 0
M  V30 4262 N 407.956 -0.998596 -1.21925 0
M  V30 4263 C 408.866 -0.562736 -2.27751 0
M  V30 4264 C 409.882 0.391203 -1.69545 0
M  V30 4265 O 411.058 0.256625 -1.99758 0
M  V30 4266 C 408.123 0.11012 -3.46525 0
M  V30 4267 C 407.184 -0.887495 -4.20026 0
M  V30 4268 C 406.417 -0.246654 -5.3313 0
M  V30 4269 O 406.64 0.958088 -5.62296 0
M  V30 4270 O 405.574 -0.954374 -5.94286 0
M  V30 4271 H 409.4 -1.44329 -2.67213 0
M  V30 4272 H 406.985 -0.767135 -1.28201 0
M  V30 4273 H 408.867 0.486756 -4.18579 0
M  V30 4274 H 407.542 0.965154 -3.08976 0
M  V30 4275 H 406.449 -1.31517 -3.5022 0
M  V30 4276 H 407.782 -1.71191 -4.6147 0
M  V30 4277 N 409.434 1.37368 -0.772513 0
M  V30 4278 C 410.344 2.34053 -0.160081 0
M  V30 4279 C 411.36 1.60216 0.678728 0
M  V30 4280 O 412.536 1.92303 0.59847 0
M  V30 4281 C 409.601 3.3939 0.708182 0
M  V30 4282 C 408.662 4.29048 -0.147172 0
M  V30 4283 C 407.895 5.29354 0.679744 0
M  V30 4284 O 408.118 5.3723 1.91678 0
M  V30 4285 O 407.052 6.01835 0.0885444 0
M  V30 4286 H 410.878 2.88159 -0.959053 0
M  V30 4287 H 408.463 1.39543 -0.533685 0
M  V30 4288 H 410.345 4.03839 1.20384 0
M  V30 4289 H 409.02 2.8761 1.48533 0
M  V30 4290 H 407.927 3.67697 -0.689205 0
M  V30 4291 H 409.26 4.84134 -0.887423 0
M  V30 4292 N 410.912 0.523116 1.48665 0
M  V30 4293 C 412.189 -0.0775449 1.95446 0
M  V30 4294 C 412.569 -1.5197 1.4652 0
M  V30 4295 O 411.917 -2.17876 0.688657 0
M  V30 4296 C 412.127 0.0326135 3.48985 0
M  V30 4297 C 413.475 -0.130141 4.24401 0
M  V30 4298 O 414.499 -0.0415142 3.56176 0
M  V30 4299 O 413.358 -0.31491 5.45592 0
M  V30 4300 H 410.452 -0.0831012 0.822814 0
M  V30 4301 H 412.998 0.587227 1.59216 0
M  V30 4302 H 411.77 1.03748 3.77296 0
M  V30 4303 H 411.393 -0.671317 3.91892 0
M  V30 4304 N 412.39 -1.55475 0.257931 0
M  V30 4305 C 413.801 -1.8511 -0.243135 0
M  V30 4306 C 414.152 -1.17986 -1.5676 0
M  V30 4307 O 413.277 -0.462102 -2.11409 0
M  V30 4308 C 413.872 -3.35826 -0.447929 0
M  V30 4309 C 412.431 -3.65647 -0.893245 0
M  V30 4310 C 411.578 -2.7729 0.0232965 0
M  V30 4311 H 414.529 -1.51261 0.480199 0
M  V30 4312 H 414.55 -3.58002 -1.28898 0
M  V30 4313 H 414.062 -3.84652 0.516196 0
M  V30 4314 H 412.163 -3.22308 -1.86945 0
M  V30 4315 H 412.276 -4.73312 -0.742469 0
M  V30 4316 H 410.64 -2.49942 -0.490021 0
M  V30 4317 H 411.423 -3.28926 0.982994 0
M  V30 4318 N 413.868 0.0150385 -1.57593 0
M  V30 4319 C 415.093 0.718067 -1.94573 0
M  V30 4320 C 415.518 1.6734 -0.859005 0
M  V30 4321 O 414.876 1.80362 0.184147 0
M  V30 4322 C 414.924 1.43918 -3.30636 0
M  V30 4323 O 414.028 2.55299 -3.23876 0
M  V30 4324 H 413.369 0.192125 -0.635597 0
M  V30 4325 H 415.899 -0.0336708 -2.04572 0
M  V30 4326 H 415.909 1.80598 -3.65853 0
M  V30 4327 H 414.584 0.738619 -4.09289 0
M  V30 4328 H 413.161 2.21058 -3.00312 0
M  V30 4329 N 415.346 1.54954 0.287554 0
M  V30 4330 C 416.757 1.65732 0.859634 0
M  V30 4331 C 417.108 0.574767 1.87592 0
M  V30 4332 O 416.233 -0.286299 2.14498 0
M  V30 4333 C 416.828 3.00438 1.56597 0
M  V30 4334 C 415.387 3.13292 2.08627 0
M  V30 4335 C 414.534 2.61473 0.923416 0
M  V30 4336 H 417.485 1.5857 0.0642338 0
M  V30 4337 H 417.506 2.92613 2.43224 0
M  V30 4338 H 417.018 3.79207 0.826053 0
M  V30 4339 H 415.119 2.39268 2.85625 0
M  V30 4340 H 415.232 4.19647 2.31157 0
M  V30 4341 H 413.596 2.18264 1.31275 0
M  V30 4342 H 414.379 3.42733 0.197241 0
M  V30 4343 N 416.824 -0.551391 1.4764 0
M  V30 4344 C 418.064 -1.31901 1.56145 0
M  V30 4345 C 418.428 -1.90724 0.221013 0
M  V30 4346 O 419.629 -2.6819 0.180945 0
M  V30 4347 C 417.9 -2.39517 2.65267 0
M  V30 4348 S 419.459 -3.26289 2.93395 0
M  V30 4349 H 416.277 -0.448965 0.551318 0
M  V30 4350 H 418.879 -0.630599 1.85051 0
M  V30 4351 H 417.583 -1.94747 3.6125 0
M  V30 4352 H 417.114 -3.13092 2.38195 0
M  V30 4353 H 419.129 -4.39122 2.31055 0
M  V30 4354 N 418.302 -1.35869 -0.798587 0
M  V30 4355 C 419.265 -1.29307 -1.89242 0
M  V30 4356 C 420.265 -0.202747 -1.59517 0
M  V30 4357 O 421.455 -0.456957 -1.681 0
M  V30 4358 C 418.587 -1.00229 -3.25833 0
M  V30 4359 H 419.78 -2.26576 -1.96478 0
M  V30 4360 H 417.333 -1.20509 -0.995358 0
M  V30 4361 H 418.068 -0.033801 -3.24282 0
M  V30 4362 H 417.853 -1.79121 -3.48795 0
M  V30 4363 H 419.343 -0.98219 -4.05885 0
M  V30 4364 N 419.78 1.02168 -1.19998 0
M  V30 4365 C 421.005 1.79833 -1.03319 0
M  V30 4366 C 421.43 1.83504 0.413281 0
M  V30 4367 O 420.788 1.26635 1.29743 0
M  V30 4368 C 420.836 3.22396 -1.61533 0
M  V30 4369 O 419.94 4.03555 -0.849519 0
M  V30 4370 H 419.281 0.554872 -0.364709 0
M  V30 4371 H 421.811 1.28542 -1.59179 0
M  V30 4372 H 421.821 3.73124 -1.65054 0
M  V30 4373 H 420.496 3.19039 -2.66809 0
M  V30 4374 H 419.073 3.62169 -0.888129 0
M  V30 4375 N 421.258 1.00505 1.21394 0
M  V30 4376 C 422.483 0.706367 1.95001 0
M  V30 4377 C 422.908 -0.72463 1.73582 0
M  V30 4378 O 422.266 -1.49702 1.0227 0
M  V30 4379 C 422.314 1.03299 3.45487 0
M  V30 4380 O 421.418 0.138275 4.12168 0
M  V30 4381 H 420.759 0.263175 0.609619 0
M  V30 4382 H 423.289 1.34531 1.54151 0
M  V30 4383 H 423.299 0.979872 3.96059 0
M  V30 4384 H 421.974 2.07567 3.60401 0
M  V30 4385 H 420.551 0.247928 3.72075 0
M  V30 4386 N 422.737 -1.36956 0.779787 0
M  V30 4387 C 423.985 -1.99097 0.347079 0
M  V30 4388 C 424.306 -1.62206 -1.08232 0
M  V30 4389 O 423.576 -0.891373 -1.74446 0
M  V30 4390 H 422.156 -0.736409 0.125342 0
M  V30 4391 H 424.818 -1.67308 0.999696 0
M  V30 4392 H 423.914 -3.09107 0.431162 0
M  V30 4393 N 424.215 -0.530993 -1.48385 0
M  V30 4394 C 425.44 0.000729535 -2.074 0
M  V30 4395 C 425.865 1.27298 -1.3848 0
M  V30 4396 O 425.223 1.75599 -0.451081 0
M  V30 4397 C 425.271 0.206697 -3.60007 0
M  V30 4398 O 424.375 1.27514 -3.92191 0
M  V30 4399 H 423.716 -0.039583 -0.662819 0
M  V30 4400 H 426.246 -0.739194 -1.9078 0
M  V30 4401 H 426.256 0.42904 -4.05738 0
M  V30 4402 H 424.931 -0.722675 -4.09573 0
M  V30 4403 H 423.508 1.03537 -3.58238 0
M  V30 4404 N 425.693 1.55336 -0.266172 0
M  V30 4405 C 426.941 1.99003 0.35246 0
M  V30 4406 C 427.262 1.15591 1.57047 0
M  V30 4407 O 426.532 0.243268 1.94384 0
M  V30 4408 H 425.112 0.735025 0.133217 0
M  V30 4409 H 427.774 1.91367 -0.369434 0
M  V30 4410 H 426.87 3.05289 0.648453 0
M  V30 4411 N 427.171 -0.0066808 1.57599 0
M  V30 4412 C 428.587 -0.36267 1.55425 0
M  V30 4413 C 428.787 -1.75209 0.995187 0
M  V30 4414 O 427.843 -2.44616 0.626058 0
M  V30 4415 C 429.156 -0.244017 2.99708 0
M  V30 4416 C 430.704 -0.319451 3.11366 0
M  V30 4417 C 431.179 -0.229998 4.57422 0
M  V30 4418 N 432.67 -0.288105 4.62303 0
M  V30 4419 C 433.405 -0.242127 5.72889 0
M  V30 4420 N 432.901 -0.147133 6.92644 0
M  V30 4421 N 434.694 -0.293502 5.61333 0
M  V30 4422 H 426.845 0.902314 1.92281 0
M  V30 4423 H 429.108 0.34525 0.882896 0
M  V30 4424 H 428.814 0.711678 3.44424 0
M  V30 4425 H 428.688 -1.02877 3.629 0
M  V30 4426 H 431.075 -1.26559 2.66584 0
M  V30 4427 H 431.156 0.495055 2.50964 0
M  V30 4428 H 430.8 0.712566 5.02877 0
M  V30 4429 H 430.73 -1.0629 5.15761 0
M  V30 4430 H 433.221 -0.363126 3.76151 0
M  V30 4431 H 433.534 -0.117763 7.7271 0
M  V30 4432 H 431.879 -0.112857 6.94908 0
M  V30 4433 H 435.07 -0.365864 4.66668 0
M  V30 4434 H 435.243 -0.254204 6.47501 0
M  V30 4435 N 428.649 -1.55105 -0.279332 0
M  V30 4436 C 429.612 -1.86783 -1.32834 0
M  V30 4437 C 430.612 -0.74199 -1.42657 0
M  V30 4438 O 431.802 -1.0102 -1.41918 0
M  V30 4439 C 428.934 -2.06746 -2.71052 0
M  V30 4440 H 430.127 -2.8055 -1.05979 0
M  V30 4441 H 427.68 -1.47499 -0.517087 0
M  V30 4442 H 428.415 -1.15339 -3.03097 0
M  V30 4443 H 428.2 -2.88711 -2.65309 0
M  V30 4444 H 429.69 -2.32549 -3.46858 0
M  V30 4445 N 430.127 0.543554 -1.4793 0
M  V30 4446 C 431.367 1.31072 -1.56843 0
M  V30 4447 C 431.731 1.90604 -0.231124 0
M  V30 4448 O 432.932 2.68091 -0.195165 0
M  V30 4449 C 431.203 2.38106 -2.66533 0
M  V30 4450 S 432.762 3.24729 -2.95122 0
M  V30 4451 H 429.58 0.446035 -0.553691 0
M  V30 4452 H 432.182 0.620777 -1.85382 0
M  V30 4453 H 430.886 1.92828 -3.62278 0
M  V30 4454 H 430.417 3.11824 -2.39852 0
M  V30 4455 H 432.432 4.37891 -2.3338 0
M  V30 4456 N 431.605 1.3629 0.791371 0
M  V30 4457 C 432.833 1.33562 1.58016 0
M  V30 4458 C 433.248 -0.0835616 1.88615 0
M  V30 4459 O 432.605 -1.0399 1.49974 0
M  V30 4460 C 432.656 2.15517 2.90232 0
M  V30 4461 O 432.377 3.51902 2.60953 0
M  V30 4462 C 433.878 2.20546 3.84544 0
M  V30 4463 H 431.098 0.458226 0.490173 0
M  V30 4464 H 433.642 1.79361 0.982345 0
M  V30 4465 H 431.797 1.73278 3.46487 0
M  V30 4466 H 432.211 3.94644 3.4548 0
M  V30 4467 H 433.685 2.82252 4.74382 0
M  V30 4468 H 434.162 1.20838 4.2225 0
M  V30 4469 H 434.768 2.63013 3.34222 0
M  V30 4470 N 433.083 -1.0153 1.20538 0
M  V30 4471 C 434.013 -2.11972 0.979295 0
M  V30 4472 C 434.994 -1.6985 -0.0921787 0
M  V30 4473 O 436.179 -1.94089 0.0655932 0
M  V30 4474 C 433.309 -3.43201 0.531984 0
M  V30 4475 C 432.263 -3.9907 1.54685 0
M  V30 4476 C 431.589 -5.26082 0.956127 0
M  V30 4477 C 432.889 -4.32313 2.93092 0
M  V30 4478 H 434.583 -2.31143 1.90298 0
M  V30 4479 H 432.129 -1.11079 0.916372 0
M  V30 4480 H 434.082 -4.1985 0.361044 0
M  V30 4481 H 432.806 -3.23792 -0.427327 0
M  V30 4482 H 431.465 -3.2453 1.70517 0
M  V30 4483 H 431.113 -5.02999 -0.0111538 0
M  V30 4484 H 430.813 -5.64426 1.63393 0
M  V30 4485 H 432.337 -6.05386 0.796284 0
M  V30 4486 H 433.751 -4.99845 2.80763 0
M  V30 4487 H 432.148 -4.81774 3.57791 0
M  V30 4488 H 433.218 -3.41025 3.44717 0
M  V30 4489 N 434.561 -1.01147 -1.20859 0
M  V30 4490 C 435.509 -0.57059 -2.25493 0
M  V30 4491 C 436.503 0.388109 -1.64894 0
M  V30 4492 O 437.709 0.258592 -1.78133 0
M  V30 4493 H 434.084 -0.166191 -0.733406 0
M  V30 4494 H 436.055 -1.46411 -2.60012 0
M  V30 4495 C 434.804 0.0805241 -3.47607 0
M  V30 4496 H 434.127 -0.648156 -3.94511 0
M  V30 4497 H 435.567 0.352197 -4.22535 0
M  V30 4498 C 434.026 1.32175 -3.09889 0
M  V30 4499 O 434.556 2.41553 -3.20959 0
M  V30 4500 N 432.762 1.20392 -2.64488 0
M  V30 4501 H 432.309 0.313905 -2.5568 0
M  V30 4502 H 432.267 2.03541 -2.39621 0
M  V30 4503 N 436.039 1.36541 -0.78704 0
M  V30 4504 C 436.971 2.28761 -0.141773 0
M  V30 4505 C 437.984 1.49365 0.647599 0
M  V30 4506 O 439.173 1.71836 0.483173 0
M  V30 4507 C 436.273 3.28771 0.822368 0
M  V30 4508 C 435.446 4.3732 0.0835594 0
M  V30 4509 C 434.505 5.17307 0.963296 0
M  V30 4510 O 433.531 5.67638 0.421419 0
M  V30 4511 N 434.733 5.33515 2.28784 0
M  V30 4512 H 437.498 2.84777 -0.933919 0
M  V30 4513 H 435.059 1.48682 -0.640735 0
M  V30 4514 H 437.051 3.79169 1.41468 0
M  V30 4515 H 435.621 2.73412 1.5154 0
M  V30 4516 H 434.841 3.88118 -0.689809 0
M  V30 4517 H 436.129 5.0701 -0.426358 0
M  V30 4518 H 435.527 4.94234 2.75226 0
M  V30 4519 H 434.084 5.87165 2.82985 0
M  V30 4520 N 437.518 0.538854 1.48102 0
M  V30 4521 C 438.746 0.0123136 2.06896 0
M  V30 4522 C 439.161 -1.27312 1.39417 0
M  V30 4523 O 438.518 -1.75949 0.484582 0
M  V30 4524 C 438.569 -0.206118 3.60912 0
M  V30 4525 O 438.29 1.0284 4.25859 0
M  V30 4526 C 439.791 -0.772033 4.36526 0
M  V30 4527 H 437.011 0.0375239 0.66995 0
M  V30 4528 H 439.555 0.747032 1.90367 0
M  V30 4529 H 437.71 -0.89091 3.77017 0
M  V30 4530 H 438.124 0.814654 5.18135 0
M  V30 4531 H 439.598 -0.874251 5.45033 0
M  V30 4532 H 440.075 -1.77904 4.01555 0
M  V30 4533 H 440.681 -0.123526 4.25121 0
M  V30 4534 N 438.996 -1.55193 0.274407 0
M  V30 4535 C 439.906 -2.26164 -0.623473 0
M  V30 4536 C 440.922 -1.28729 -1.17068 0
M  V30 4537 O 442.098 -1.61663 -1.20112 0
M  V30 4538 C 439.163 -2.96833 -1.7914 0
M  V30 4539 C 438.224 -4.09745 -1.28093 0
M  V30 4540 C 437.457 -4.77034 -2.3932 0
M  V30 4541 O 437.68 -4.4353 -3.5866 0
M  V30 4542 O 436.614 -5.64996 -2.07516 0
M  V30 4543 H 440.44 -3.03661 -0.0485661 0
M  V30 4544 H 438.025 -1.49341 0.0418382 0
M  V30 4545 H 439.907 -3.41248 -2.4724 0
M  V30 4546 H 438.582 -2.22253 -2.35341 0
M  V30 4547 H 437.489 -3.69787 -0.566416 0
M  V30 4548 H 438.822 -4.86224 -0.764683 0
M  V30 4549 N 440.474 -0.00167713 -1.576 0
M  V30 4550 C 441.714 0.687302 -1.92498 0
M  V30 4551 C 442.078 1.70844 -0.876144 0
M  V30 4552 O 443.279 2.44792 -1.11043 0
M  V30 4553 C 441.55 1.31217 -3.32441 0
M  V30 4554 S 443.109 2.02604 -3.89226 0
M  V30 4555 H 439.927 0.226985 -0.673794 0
M  V30 4556 H 442.529 -0.0587666 -1.95412 0
M  V30 4557 H 441.233 0.556164 -4.06614 0
M  V30 4558 H 440.764 2.09613 -3.32905 0
M  V30 4559 H 442.779 3.30137 -3.70438 0
M  V30 4560 N 441.952 1.55251 0.271103 0
M  V30 4561 C 443.368 1.47133 0.618393 0
M  V30 4562 C 443.568 0.686994 1.89427 0
M  V30 4563 O 442.624 0.206609 2.51653 0
M  V30 4564 C 443.937 2.91361 0.743593 0
M  V30 4565 C 445.485 3.01587 0.837522 0
M  V30 4566 C 445.96 4.47073 0.994483 0
M  V30 4567 N 447.451 4.50909 1.05996 0
M  V30 4568 C 448.186 5.60698 1.20024 0
M  V30 4569 N 447.682 6.80348 1.30759 0
M  V30 4570 N 449.475 5.48444 1.23149 0
M  V30 4571 H 441.626 2.04698 -0.566784 0
M  V30 4572 H 443.889 0.928319 -0.192165 0
M  V30 4573 H 443.595 3.51483 -0.123493 0
M  V30 4574 H 443.469 3.40484 1.62328 0
M  V30 4575 H 445.856 2.4156 1.69507 0
M  V30 4576 H 445.937 2.55713 -0.0668086 0
M  V30 4577 H 445.581 5.07703 0.141582 0
M  V30 4578 H 445.511 4.90605 1.91349 0
M  V30 4579 H 448.002 3.6472 0.989316 0
M  V30 4580 H 448.315 7.59772 1.41303 0
M  V30 4581 H 446.66 6.83156 1.27761 0
M  V30 4582 H 449.851 4.53907 1.14394 0
M  V30 4583 H 450.024 6.34049 1.33738 0
M  V30 4584 N 443.43 -0.535701 1.48216 0
M  V30 4585 C 444.678 -1.28928 1.55634 0
M  V30 4586 C 444.999 -1.93645 0.229514 0
M  V30 4587 O 444.269 -1.81038 -0.74846 0
M  V30 4588 H 442.849 -0.47884 0.573342 0
M  V30 4589 H 445.511 -0.623853 1.84646 0
M  V30 4590 H 444.607 -2.07157 2.33436 0
M  V30 4591 N 444.908 -1.36708 -0.784132 0
M  V30 4592 C 446.324 -1.17237 -1.08294 0
M  V30 4593 C 446.524 -5.93947e-05 -2.015 0
M  V30 4594 O 445.58 0.663686 -2.43622 0
M  V30 4595 C 446.893 -2.48557 -1.69233 0
M  V30 4596 C 448.441 -2.54968 -1.8155 0
M  V30 4597 C 448.916 -3.86388 -2.45904 0
M  V30 4598 N 450.407 -3.87762 -2.53367 0
M  V30 4599 C 451.142 -4.86191 -3.03983 0
M  V30 4600 N 450.638 -5.95015 -3.54866 0
M  V30 4601 N 452.431 -4.73606 -3.02743 0
M  V30 4602 H 444.582 -2.11758 -0.16501 0
M  V30 4603 H 446.845 -0.93822 -0.135822 0
M  V30 4604 H 446.551 -3.34638 -1.08215 0
M  V30 4605 H 446.425 -2.64748 -2.68679 0
M  V30 4606 H 448.812 -1.69302 -2.41704 0
M  V30 4607 H 448.893 -2.42672 -0.80895 0
M  V30 4608 H 448.537 -4.72462 -1.86392 0
M  V30 4609 H 448.467 -3.95982 -3.4714 0
M  V30 4610 H 450.958 -3.09145 -2.17343 0
M  V30 4611 H 451.271 -6.66086 -3.91854 0
M  V30 4612 H 449.616 -5.98676 -3.53003 0
M  V30 4613 H 452.807 -3.87717 -2.62284 0
M  V30 4614 H 452.98 -5.50473 -3.41881 0
M  V30 4615 N 446.386 1.0089 -1.21074 0
M  V30 4616 C 447.632 1.7497 -1.03717 0
M  V30 4617 C 447.987 1.8764 0.425344 0
M  V30 4618 O 447.28 1.39679 1.3115 0
M  V30 4619 C 447.474 3.16335 -1.66334 0
M  V30 4620 C 447.303 3.17449 -3.18522 0
M  V30 4621 C 446.073 3.2425 -3.87543 0
M  V30 4622 C 448.271 3.02877 -4.15656 0
M  V30 4623 N 446.253 3.14949 -5.26954 0
M  V30 4624 C 447.624 3.0143 -5.41793 0
M  V30 4625 C 449.679 2.8715 -4.06755 0
M  V30 4626 C 448.382 2.85869 -6.60054 0
M  V30 4627 C 450.408 2.72944 -5.24648 0
M  V30 4628 C 449.77 2.72171 -6.49694 0
M  V30 4629 H 445.869 0.650627 -0.43383 0
M  V30 4630 H 448.453 1.19944 -1.53367 0
M  V30 4631 H 446.624 3.69638 -1.19256 0
M  V30 4632 H 448.356 3.78888 -1.42219 0
M  V30 4633 H 445.111 3.31288 -3.38446 0
M  V30 4634 H 445.535 3.13651 -5.9996 0
M  V30 4635 H 450.177 2.86557 -3.10878 0
M  V30 4636 H 447.895 2.8521 -7.56096 0
M  V30 4637 H 451.481 2.61782 -5.19578 0
M  V30 4638 H 450.361 2.61307 -7.39384 0
M  V30 4639 N 447.864 1.01787 1.20321 0
M  V30 4640 C 449.275 0.739307 1.71438 0
M  V30 4641 C 449.626 -0.742041 1.81627 0
M  V30 4642 O 448.751 -1.57903 1.47971 0
M  V30 4643 C 449.346 1.33538 3.11373 0
M  V30 4644 C 447.905 1.10566 3.59795 0
M  V30 4645 C 447.052 1.44028 2.36962 0
M  V30 4646 H 450.003 1.18718 1.05317 0
M  V30 4647 H 450.024 0.726611 3.73498 0
M  V30 4648 H 449.536 2.41352 3.03926 0
M  V30 4649 H 447.637 0.0452405 3.72573 0
M  V30 4650 H 447.75 1.78661 4.44542 0
M  V30 4651 H 446.114 0.85933 2.39766 0
M  V30 4652 H 446.897 2.52901 2.32155 0
M  V30 4653 N 449.342 -1.36122 0.79427 0
M  V30 4654 C 450.59 -1.98718 0.368177 0
M  V30 4655 C 450.911 -1.63345 -1.06506 0
M  V30 4656 O 450.181 -0.909825 -1.73491 0
M  V30 4657 H 448.761 -0.735038 0.133146 0
M  V30 4658 H 451.423 -1.66239 1.01739 0
M  V30 4659 H 450.519 -3.08633 0.463923 0
M  V30 4660 N 450.82 -0.546701 -1.47814 0
M  V30 4661 C 452.231 -0.110564 -1.86372 0
M  V30 4662 C 452.582 1.31678 -1.45449 0
M  V30 4663 O 451.707 1.98889 -0.852758 0
M  V30 4664 C 452.302 -0.193873 -3.38245 0
M  V30 4665 C 450.861 0.187164 -3.75934 0
M  V30 4666 C 450.008 -0.546166 -2.71868 0
M  V30 4667 H 452.959 -0.757022 -1.39481 0
M  V30 4668 H 452.98 0.590218 -3.75895 0
M  V30 4669 H 452.492 -1.23282 -3.67999 0
M  V30 4670 H 450.593 1.22762 -3.51796 0
M  V30 4671 H 450.706 -0.164083 -4.78819 0
M  V30 4672 H 449.07 0.00953904 -2.54698 0
M  V30 4673 H 449.853 -1.58606 -3.04465 0
M  V30 4674 N 452.299 1.55045 -0.282633 0
M  V30 4675 C 453.247 2.24254 0.617478 0
M  V30 4676 C 454.241 1.24215 1.15183 0
M  V30 4677 O 455.447 1.42123 1.10459 0
M  V30 4678 H 451.822 0.719801 0.217693 0
M  V30 4679 H 453.793 2.98398 0.0110076 0
M  V30 4680 C 452.542 2.98281 1.78672 0
M  V30 4681 H 451.865 3.75053 1.38475 0
M  V30 4682 H 453.305 3.50017 2.393 0
M  V30 4683 C 451.764 2.04184 2.67975 0
M  V30 4684 O 452.294 1.59792 3.6855 0
M  V30 4685 N 450.5 1.70526 2.35307 0
M  V30 4686 H 450.047 2.06821 1.53567 0
M  V30 4687 H 450.005 1.07839 2.95327 0
M  V30 4688 N 453.777 0.010035 1.57597 0
M  V30 4689 C 455.025 -0.671371 1.90623 0
M  V30 4690 C 455.346 -1.73753 0.885151 0
M  V30 4691 O 454.616 -1.95752 -0.0760611 0
M  V30 4692 H 453.196 -0.250968 0.703579 0
M  V30 4693 H 455.858 0.0533325 1.94827 0
M  V30 4694 H 454.954 -1.13626 2.90681 0
M  V30 4695 N 455.255 -1.55392 -0.262866 0
M  V30 4696 C 456.503 -1.76127 -0.991147 0
M  V30 4697 C 456.824 -0.571083 -1.8645 0
M  V30 4698 O 456.094 0.413698 -1.91482 0
M  V30 4699 H 454.674 -0.649528 -0.368948 0
M  V30 4700 H 457.336 -1.9281 -0.284655 0
M  V30 4701 H 456.432 -2.6663 -1.62219 0
M  V30 4702 N 456.733 0.527833 -1.48498 0
M  V30 4703 C 457.982 1.28003 -1.55878 0
M  V30 4704 C 458.295 1.9414 -0.238577 0
M  V30 4705 O 459.501 2.7083 -0.190643 0
M  V30 4706 C 457.957 2.32272 -2.74914 0
M  V30 4707 C 457.565 1.72196 -4.13585 0
M  V30 4708 C 459.309 3.08488 -2.91608 0
M  V30 4709 C 457.216 2.74417 -5.23879 0
M  V30 4710 H 456.146 0.481413 -0.580308 0
M  V30 4711 H 458.797 0.557195 -1.74836 0
M  V30 4712 H 457.179 3.07601 -2.49395 0
M  V30 4713 H 458.353 1.03041 -4.49132 0
M  V30 4714 H 456.668 1.08464 -4.02025 0
M  V30 4715 H 459.265 3.84879 -3.71177 0
M  V30 4716 H 459.608 3.64481 -2.01145 0
M  V30 4717 H 460.141 2.40274 -3.17038 0
M  V30 4718 H 456.88 2.23242 -6.16314 0
M  V30 4719 H 456.4 3.41893 -4.92818 0
M  V30 4720 H 458.079 3.37362 -5.52083 0
M  V30 4721 N 458.211 1.37122 0.776871 0
M  V30 4722 C 459.439 1.3523 1.5659 0
M  V30 4723 C 459.854 -0.0635518 1.88693 0
M  V30 4724 O 459.211 -1.02394 1.51069 0
M  V30 4725 C 459.262 2.18583 2.8793 0
M  V30 4726 O 458.983 3.5465 2.57206 0
M  V30 4727 C 460.484 2.24612 3.82183 0
M  V30 4728 H 457.704 0.4634 0.485285 0
M  V30 4729 H 460.248 1.80392 0.963266 0
M  V30 4730 H 458.403 1.76943 3.4463 0
M  V30 4731 H 458.817 3.98286 3.41275 0
M  V30 4732 H 460.291 2.87267 4.71361 0
M  V30 4733 H 460.768 1.25309 4.20944 0
M  V30 4734 H 461.374 2.66543 3.31414 0
M  V30 4735 N 459.689 -1.00246 1.21608 0
M  V30 4736 C 460.637 -2.11193 0.97469 0
M  V30 4737 C 461.631 -1.69216 -0.0789303 0
M  V30 4738 O 462.837 -1.79853 0.0726806 0
M  V30 4739 H 459.212 -0.690455 0.297953 0
M  V30 4740 H 461.183 -2.2873 1.91638 0
M  V30 4741 C 459.932 -3.43182 0.558717 0
M  V30 4742 H 459.255 -3.75918 1.3611 0
M  V30 4743 H 460.695 -4.21823 0.429154 0
M  V30 4744 C 459.154 -3.28882 -0.730648 0
M  V30 4745 O 459.684 -3.59835 -1.78554 0
M  V30 4746 N 457.89 -2.8209 -0.698131 0
M  V30 4747 H 457.437 -2.57099 0.16061 0
M  V30 4748 H 457.395 -2.72903 -1.56113 0
M  V30 4749 N 461.167 -1.02423 -1.1978 0
M  V30 4750 C 462.414 -0.717988 -1.89344 0
M  V30 4751 C 462.742 0.753036 -1.79331 0
M  V30 4752 O 461.997 1.56355 -1.17692 0
M  V30 4753 C 462.296 -1.1088 -3.39765 0
M  V30 4754 C 461.962 -2.57731 -3.6998 0
M  V30 4755 C 460.624 -2.97854 -3.77937 0
M  V30 4756 C 462.976 -3.52763 -3.83677 0
M  V30 4757 C 460.304 -4.31931 -3.97054 0
M  V30 4758 C 462.656 -4.86538 -4.04306 0
M  V30 4759 C 461.32 -5.26356 -4.10494 0
M  V30 4760 H 460.59 -0.26273 -0.692859 0
M  V30 4761 H 463.237 -1.28623 -1.41875 0
M  V30 4762 H 461.542 -0.459094 -3.89101 0
M  V30 4763 H 463.239 -0.849432 -3.919 0
M  V30 4764 H 459.829 -2.25646 -3.64393 0
M  V30 4765 H 464.013 -3.2292 -3.76877 0
M  V30 4766 H 459.269 -4.62324 -4.00083 0
M  V30 4767 H 463.443 -5.60093 -4.13846 0
M  V30 4768 H 461.07 -6.3026 -4.2506 0
M  V30 4769 N 462.645 1.35699 -0.801477 0
M  V30 4770 C 463.922 1.9324 -0.302937 0
M  V30 4771 C 464.302 1.73209 1.20672 0
M  V30 4772 O 463.65 1.09809 2.00385 0
M  V30 4773 C 463.86 3.41728 -0.708747 0
M  V30 4774 C 465.208 4.18868 -0.695328 0
M  V30 4775 O 466.232 3.5022 -0.649971 0
M  V30 4776 O 465.091 5.41342 -0.749081 0
M  V30 4777 H 462.185 0.82331 -0.0780367 0
M  V30 4778 H 464.731 1.44806 -0.884832 0
M  V30 4779 H 463.503 3.50015 -1.74944 0
M  V30 4780 H 463.126 3.97471 -0.101384 0
M  V30 4781 N 464.123 0.554532 1.47522 0
M  V30 4782 C 465.071 -0.207765 2.3167 0
M  V30 4783 C 466.065 -0.911914 1.4276 0
M  V30 4784 O 467.271 -0.833504 1.59539 0
M  V30 4785 H 463.646 -0.0858726 0.747081 0
M  V30 4786 H 465.617 0.521178 2.93813 0
M  V30 4787 C 464.366 -1.2263 3.25357 0
M  V30 4788 H 463.689 -0.693887 3.93732 0
M  V30 4789 H 465.129 -1.73062 3.87073 0
M  V30 4790 C 463.588 -2.27278 2.4869 0
M  V30 4791 O 464.118 -3.34156 2.22941 0
M  V30 4792 N 462.324 -2.01134 2.09746 0
M  V30 4793 H 461.871 -1.14232 2.30887 0
M  V30 4794 H 461.829 -2.71369 1.58765 0
M  V30 4795 N 465.601 -1.54893 0.290851 0
M  V30 4796 C 466.848 -1.99933 -0.321391 0
M  V30 4797 C 467.176 -1.17927 -1.54672 0
M  V30 4798 O 466.431 -0.240902 -1.94212 0
M  V30 4799 C 466.73 -3.49815 -0.732397 0
M  V30 4800 C 466.396 -4.4921 0.390056 0
M  V30 4801 C 465.058 -4.76107 0.698223 0
M  V30 4802 C 467.41 -5.08453 1.14562 0
M  V30 4803 C 464.738 -5.59514 1.76526 0
M  V30 4804 C 467.09 -5.9302 2.2025 0
M  V30 4805 C 465.754 -6.18232 2.51684 0
M  V30 4806 H 465.024 -0.731608 -0.117605 0
M  V30 4807 H 467.671 -1.87107 0.407839 0
M  V30 4808 H 465.976 -3.60199 -1.54155 0
M  V30 4809 H 467.673 -3.82083 -1.21712 0
M  V30 4810 H 464.263 -4.28372 0.13976 0
M  V30 4811 H 468.447 -4.87683 0.920801 0
M  V30 4812 H 463.703 -5.77289 2.01364 0
M  V30 4813 H 467.877 -6.37955 2.7926 0
M  V30 4814 H 465.504 -6.82653 3.34499 0
M  V30 4815 N 467.08 -0.0183926 -1.57589 0
M  V30 4816 C 468.327 0.662562 -1.91354 0
M  V30 4817 C 468.655 1.72747 -0.893788 0
M  V30 4818 O 467.91 1.9545 0.0988509 0
M  V30 4819 C 468.209 1.32676 -3.31861 0
M  V30 4820 C 467.875 0.393267 -4.49182 0
M  V30 4821 C 466.537 0.136302 -4.81007 0
M  V30 4822 C 468.889 -0.248366 -5.20608 0
M  V30 4823 C 466.217 -0.770282 -5.81621 0
M  V30 4824 C 468.569 -1.14294 -6.22189 0
M  V30 4825 C 467.233 -1.4089 -6.52462 0
M  V30 4826 H 466.503 0.242448 -0.700214 0
M  V30 4827 H 469.15 -0.0778629 -1.91342 0
M  V30 4828 H 467.455 2.14168 -3.28084 0
M  V30 4829 H 469.152 1.86001 -3.55253 0
M  V30 4830 H 465.742 0.603723 -4.24327 0
M  V30 4831 H 469.926 -0.062883 -4.9626 0
M  V30 4832 H 465.182 -0.984154 -6.03427 0
M  V30 4833 H 469.356 -1.64637 -6.76659 0
M  V30 4834 H 466.983 -2.11306 -7.30242 0
M  V30 4835 N 468.558 1.5553 0.254621 0
M  V30 4836 C 469.805 1.77 0.983736 0
M  V30 4837 C 470.133 0.58133 1.85609 0
M  V30 4838 O 469.388 -0.435621 1.9079 0
M  V30 4839 C 469.687 3.03891 1.88109 0
M  V30 4840 C 469.353 4.35597 1.16472 0
M  V30 4841 C 468.015 4.7139 0.966714 0
M  V30 4842 C 470.367 5.1705 0.656387 0
M  V30 4843 C 467.695 5.86176 0.247942 0
M  V30 4844 C 470.047 6.32581 -0.0488807 0
M  V30 4845 C 468.711 6.67 -0.258438 0
M  V30 4846 H 467.981 0.647688 0.359974 0
M  V30 4847 H 470.628 1.89802 0.254463 0
M  V30 4848 H 468.933 2.86068 2.67717 0
M  V30 4849 H 470.63 3.17701 2.44677 0
M  V30 4850 H 467.22 4.07475 1.32899 0
M  V30 4851 H 471.404 4.8986 0.796933 0
M  V30 4852 H 466.66 6.11354 0.075035 0
M  V30 4853 H 470.834 6.94942 -0.450444 0
M  V30 4854 H 468.461 7.55793 -0.817358 0
M  V30 4855 N 470.036 -0.519951 1.48776 0
M  V30 4856 C 470.999 -1.60574 1.6355 0
M  V30 4857 C 471.999 -1.52557 0.508234 0
M  V30 4858 O 473.189 -1.56047 0.774262 0
M  V30 4859 C 470.321 -3.00211 1.61512 0
M  V30 4860 H 471.514 -1.4881 2.60376 0
M  V30 4861 H 469.067 -0.742772 1.37523 0
M  V30 4862 H 469.802 -3.17471 0.662009 0
M  V30 4863 H 469.587 -3.07439 2.43359 0
M  V30 4864 H 471.077 -3.79134 1.75064 0
M  V30 4865 N 471.514 -1.37532 -0.769588 0
M  V30 4866 C 472.447 -1.27839 -1.8903 0
M  V30 4867 C 473.425 -0.158504 -1.61826 0
M  V30 4868 O 474.609 -0.333086 -1.85534 0
M  V30 4869 C 471.736 -0.977072 -3.24301 0
M  V30 4870 C 470.782 -2.11414 -3.70414 0
M  V30 4871 S 471.615 -3.73409 -3.83831 0
M  V30 4872 C 472.771 -3.45432 -5.21946 0
M  V30 4873 H 473.004 -2.22694 -1.96963 0
M  V30 4874 H 470.537 -1.2318 -0.930914 0
M  V30 4875 H 472.495 -0.810049 -4.02428 0
M  V30 4876 H 471.156 -0.0459701 -3.14066 0
M  V30 4877 H 470.349 -1.85837 -4.68488 0
M  V30 4878 H 469.951 -2.24141 -2.99394 0
M  V30 4879 H 472.243 -3.00554 -6.07185 0
M  V30 4880 H 473.186 -4.42841 -5.52537 0
M  V30 4881 H 473.594 -2.80311 -4.89986 0
M  V30 4882 N 472.992 0.995999 -1.22138 0
M  V30 4883 C 473.922 2.10387 -1.01289 0
M  V30 4884 C 474.903 1.69975 0.0651454 0
M  V30 4885 O 476.088 1.9396 -0.0964628 0
M  V30 4886 C 473.218 3.42312 -0.586517 0
M  V30 4887 C 472.172 3.96558 -1.61014 0
M  V30 4888 C 471.498 5.24494 -1.0397 0
M  V30 4889 C 472.798 4.27595 -2.99933 0
M  V30 4890 H 474.492 2.28086 -1.93951 0
M  V30 4891 H 472.038 1.09607 -0.933928 0
M  V30 4892 H 473.991 4.19223 -0.427793 0
M  V30 4893 H 472.715 3.24431 0.375761 0
M  V30 4894 H 471.374 3.21776 -1.75658 0
M  V30 4895 H 471.022 5.02953 -0.0688703 0
M  V30 4896 H 470.722 5.61755 -1.72352 0
M  V30 4897 H 472.246 6.04042 -0.892494 0
M  V30 4898 H 473.66 4.95315 -2.8868 0
M  V30 4899 H 472.057 4.76021 -3.6541 0
M  V30 4900 H 473.127 3.35498 -3.50099 0
M  V30 4901 N 474.47 1.03057 1.19235 0
M  V30 4902 C 475.698 0.747697 1.92917 0
M  V30 4903 C 476.113 -0.69372 1.75593 0
M  V30 4904 O 475.47 -1.47191 1.07894 0
M  V30 4905 C 475.521 1.09159 3.44625 0
M  V30 4906 O 475.242 2.47641 3.61394 0
M  V30 4907 C 476.743 0.831763 4.35427 0
M  V30 4908 H 473.963 0.273453 0.612751 0
M  V30 4909 H 476.507 1.37552 1.51327 0
M  V30 4910 H 474.662 0.508919 3.84043 0
M  V30 4911 H 475.076 2.60499 4.55237 0
M  V30 4912 H 476.55 1.12233 5.4047 0
M  V30 4913 H 477.027 -0.233769 4.38577 0
M  V30 4914 H 477.633 1.39725 4.01693 0
M  V30 4915 N 475.948 -1.35272 0.808662 0
M  V30 4916 C 477.194 -1.99003 0.390581 0
M  V30 4917 C 477.527 -1.63999 -1.0401 0
M  V30 4918 O 476.802 -0.904368 -1.72196 0
M  V30 4919 C 477.085 -3.55454 0.576566 0
M  V30 4920 C 476.938 -4.00249 2.05233 0
M  V30 4921 C 478.257 -4.401 0.00354277 0
M  V30 4922 H 475.376 -0.722917 0.143388 0
M  V30 4923 H 478.018 -1.6039 1.01858 0
M  V30 4924 H 476.168 -3.88477 0.0419766 0
M  V30 4925 H 477.84 -3.77626 2.64946 0
M  V30 4926 H 476.083 -3.51082 2.54801 0
M  V30 4927 H 476.754 -5.0911 2.13333 0
M  V30 4928 H 479.23 -4.13548 0.460117 0
M  V30 4929 H 478.106 -5.48656 0.163575 0
M  V30 4930 H 478.367 -4.28444 -1.09032 0
M  V30 4931 N 477.426 -0.562348 -1.47226 0
M  V30 4932 C 478.673 -0.0402165 -2.0246 0
M  V30 4933 C 479.001 1.31169 -1.43614 0
M  V30 4934 O 478.256 1.86805 -0.5833 0
M  V30 4935 C 478.555 0.0969817 -3.57268 0
M  V30 4936 C 478.221 -1.1847 -4.35058 0
M  V30 4937 C 476.883 -1.53588 -4.56031 0
M  V30 4938 C 479.235 -2.03378 -4.79882 0
M  V30 4939 C 476.563 -2.73452 -5.19077 0
M  V30 4940 C 478.915 -3.2245 -5.44251 0
M  V30 4941 C 477.579 -3.57876 -5.63455 0
M  V30 4942 H 476.849 -0.0147163 -0.740854 0
M  V30 4943 H 479.496 -0.734895 -1.76838 0
M  V30 4944 H 477.801 0.87466 -3.81912 0
M  V30 4945 H 479.498 0.516408 -3.97661 0
M  V30 4946 H 476.088 -0.90126 -4.19017 0
M  V30 4947 H 480.272 -1.77553 -4.63453 0
M  V30 4948 H 475.528 -3.01062 -5.32139 0
M  V30 4949 H 479.702 -3.88526 -5.77945 0
M  V30 4950 H 477.329 -4.50849 -6.12078 0
M  V30 4951 N 478.904 1.54736 -0.299062 0
M  V30 4952 C 479.836 2.20891 0.61153 0
M  V30 4953 C 480.849 1.20104 1.09904 0
M  V30 4954 O 482.038 1.46707 1.01683 0
M  V30 4955 C 479.138 2.84018 1.84897 0
M  V30 4956 C 478.311 4.10719 1.50428 0
M  V30 4957 C 477.37 4.57667 2.59667 0
M  V30 4958 O 476.396 5.2291 2.24842 0
M  V30 4959 N 477.598 4.29821 3.90172 0
M  V30 4960 H 480.363 2.99666 0.0452001 0
M  V30 4961 H 477.924 1.61446 -0.121178 0
M  V30 4962 H 479.916 3.1236 2.5732 0
M  V30 4963 H 478.486 2.09095 2.32375 0
M  V30 4964 H 477.706 3.89408 0.612781 0
M  V30 4965 H 478.994 4.93223 1.24934 0
M  V30 4966 H 478.392 3.77549 4.21276 0
M  V30 4967 H 476.949 4.62877 4.58899 0
M  V30 4968 N 480.382 0.0267497 1.57577 0
M  V30 4969 C 481.622 -0.65659 1.93567 0
M  V30 4970 C 481.986 -1.69429 0.903213 0
M  V30 4971 O 483.187 -2.42994 1.14923 0
M  V30 4972 C 481.458 -1.25912 3.34486 0
M  V30 4973 S 483.017 -1.96386 3.924 0
M  V30 4974 H 479.835 -0.216237 0.67732 0
M  V30 4975 H 482.437 0.0898475 1.95293 0
M  V30 4976 H 481.141 -0.491405 4.07447 0
M  V30 4977 H 480.672 -2.04291 3.36198 0
M  V30 4978 H 482.687 -3.24202 3.75643 0
M  V30 4979 N 481.861 -1.55662 -0.24637 0
M  V30 4980 C 483.107 -1.77782 -0.975779 0
M  V30 4981 C 483.44 -0.592103 -1.84953 0
M  V30 4982 O 482.715 0.409588 -1.90138 0
M  V30 4983 C 482.998 -3.09788 -1.83584 0
M  V30 4984 C 482.851 -4.38764 -0.990241 0
M  V30 4985 C 484.17 -3.38029 -2.81823 0
M  V30 4986 H 481.289 -0.646789 -0.353317 0
M  V30 4987 H 483.931 -1.88398 -0.246248 0
M  V30 4988 H 482.081 -3.00869 -2.45784 0
M  V30 4989 H 483.753 -4.59675 -0.386897 0
M  V30 4990 H 481.996 -4.32798 -0.294626 0
M  V30 4991 H 482.667 -5.27514 -1.62584 0
M  V30 4992 H 485.143 -3.46915 -2.2976 0
M  V30 4993 H 484.019 -4.3161 -3.39122 0
M  V30 4994 H 484.28 -2.58968 -3.58313 0
M  V30 4995 N 483.339 0.512053 -1.4905 0
M  V30 4996 C 484.567 1.29116 -1.61669 0
M  V30 4997 C 484.982 1.86655 -0.283787 0
M  V30 4998 O 484.339 1.67293 0.729331 0
M  V30 4999 C 484.39 2.4293 -2.67707 0
M  V30 5000 O 484.111 1.87758 -3.95826 0
M  V30 5001 C 485.612 3.34476 -2.90931 0
M  V30 5002 H 482.832 0.392009 -0.544583 0
M  V30 5003 H 485.376 0.615881 -1.95006 0
M  V30 5004 H 483.531 3.06308 -2.37179 0
M  V30 5005 H 483.945 2.62393 -4.54148 0
M  V30 5006 H 485.419 4.10642 -3.68886 0
M  V30 5007 H 485.896 3.90801 -2.00427 0
M  V30 5008 H 486.502 2.76874 -3.22832 0
M  V30 5009 N 484.817 1.37938 0.762283 0
M  V30 5010 C 485.75 1.2884 1.88349 0
M  V30 5011 C 486.728 0.167084 1.61739 0
M  V30 5012 O 487.912 0.34292 1.85355 0
M  V30 5013 C 485.039 0.994257 3.23778 0
M  V30 5014 C 484.085 2.13376 3.69287 0
M  V30 5015 S 484.918 3.75439 3.81845 0
M  V30 5016 C 486.074 3.48195 5.20107 0
M  V30 5017 H 486.307 2.23736 1.95779 0
M  V30 5018 H 483.84 1.23672 0.924368 0
M  V30 5019 H 485.798 0.83138 4.01993 0
M  V30 5020 H 484.459 0.0626251 3.14038 0
M  V30 5021 H 483.652 1.88319 4.67495 0
M  V30 5022 H 483.254 2.25726 2.98201 0
M  V30 5023 H 485.546 3.0377 6.05583 0
M  V30 5024 H 486.489 4.45765 5.50181 0
M  V30 5025 H 486.897 2.82905 4.88493 0
M  V30 5026 N 486.295 -0.989507 1.22664 0
M  V30 5027 C 487.205 -2.11449 1.01619 0
M  V30 5028 C 488.221 -1.73962 -0.036545 0
M  V30 5029 O 489.397 -2.00788 0.156924 0
M  V30 5030 C 486.462 -3.41465 0.600204 0
M  V30 5031 C 485.523 -3.93033 1.72695 0
M  V30 5032 C 484.756 -5.16844 1.33071 0
M  V30 5033 O 484.979 -5.7001 0.210975 0
M  V30 5034 O 483.913 -5.6225 2.14845 0
M  V30 5035 H 487.739 -2.32088 1.9588 0
M  V30 5036 H 485.324 -1.09823 1.01289 0
M  V30 5037 H 487.206 -4.19695 0.37873 0
M  V30 5038 H 485.881 -3.22178 -0.313511 0
M  V30 5039 H 484.788 -3.15961 2.00298 0
M  V30 5040 H 486.121 -4.16758 2.61865 0
M  V30 5041 N 487.773 -1.03688 -1.18687 0
M  V30 5042 C 489.021 -0.736572 -1.88199 0
M  V30 5043 C 489.342 0.737665 -1.80509 0
M  V30 5044 O 488.612 1.53204 -1.22088 0
M  V30 5045 H 487.192 -0.269466 -0.696704 0
M  V30 5046 H 489.854 -1.31282 -1.44052 0
M  V30 5047 H 488.95 -1.03802 -2.94332 0
M  V30 5048 N 489.251 1.34841 -0.815825 0
M  V30 5049 C 490.497 1.99219 -0.410288 0
M  V30 5050 C 490.852 1.63532 1.01366 0
M  V30 5051 O 490.145 0.893093 1.69512 0
M  V30 5052 C 490.339 3.53273 -0.541541 0
M  V30 5053 C 490.168 4.03927 -1.9767 0
M  V30 5054 C 488.938 4.32852 -2.60706 0
M  V30 5055 C 491.136 4.21808 -2.9425 0
M  V30 5056 N 489.118 4.69494 -3.95536 0
M  V30 5057 C 490.489 4.6155 -4.13971 0
M  V30 5058 C 492.544 4.04038 -2.9096 0
M  V30 5059 C 491.247 4.85381 -5.30847 0
M  V30 5060 C 493.273 4.29031 -4.07046 0
M  V30 5061 C 492.635 4.69054 -5.25517 0
M  V30 5062 H 488.734 0.756494 -0.198094 0
M  V30 5063 H 491.318 1.63379 -1.05902 0
M  V30 5064 H 489.489 3.88323 0.0772544 0
M  V30 5065 H 491.221 4.04551 -0.109694 0
M  V30 5066 H 487.976 4.23503 -2.11995 0
M  V30 5067 H 488.4 4.92061 -4.64979 0
M  V30 5068 H 493.042 3.7223 -2.00512 0
M  V30 5069 H 490.76 5.16059 -6.21859 0
M  V30 5070 H 494.346 4.16826 -4.05891 0
M  V30 5071 H 493.226 4.88014 -6.1385 0
M  V30 5072 N 490.729 0.570148 1.46925 0
M  V30 5073 C 491.957 0.0561966 2.06824 0
M  V30 5074 C 492.372 -1.24326 1.42086 0
M  V30 5075 O 491.729 -1.74882 0.521794 0
M  V30 5076 C 491.78 -0.129517 3.61268 0
M  V30 5077 O 491.501 1.1185 4.23581 0
M  V30 5078 C 493.002 -0.679266 4.38065 0
M  V30 5079 H 490.222 0.0517261 0.669003 0
M  V30 5080 H 492.766 0.787243 1.8874 0
M  V30 5081 H 490.921 -0.810739 3.78822 0
M  V30 5082 H 491.335 0.924375 5.1629 0
M  V30 5083 H 492.809 -0.758445 5.46765 0
M  V30 5084 H 493.286 -1.69346 4.05239 0
M  V30 5085 H 493.892 -0.0333237 4.25287 0
M  V30 5086 N 492.207 -1.54576 0.307264 0
M  V30 5087 C 493.484 -1.92377 -0.353605 0
M  V30 5088 C 493.864 -1.23517 -1.71192 0
M  V30 5089 O 493.212 -0.373101 -2.25433 0
M  V30 5090 C 493.422 -3.45928 -0.462039 0
M  V30 5091 C 494.77 -4.18278 -0.729975 0
M  V30 5092 O 495.794 -3.51997 -0.545605 0
M  V30 5093 O 494.653 -5.3563 -1.08454 0
M  V30 5094 H 491.747 -0.802747 -0.198812 0
M  V30 5095 H 494.293 -1.65929 0.355783 0
M  V30 5096 H 493.065 -3.88187 0.492592 0
M  V30 5097 H 492.688 -3.78431 -1.21965 0
M  V30 5098 N 493.685 -0.035106 -1.57561 0
M  V30 5099 C 494.931 0.64318 -1.92331 0
M  V30 5100 C 495.264 1.71434 -0.912368 0
M  V30 5101 O 494.539 1.94395 0.0640303 0
M  V30 5102 C 494.822 1.25411 -3.37556 0
M  V30 5103 C 494.675 0.192109 -4.4939 0
M  V30 5104 C 495.994 2.17041 -3.82859 0
M  V30 5105 H 493.113 0.232341 -0.699419 0
M  V30 5106 H 495.755 -0.0935889 -1.89769 0
M  V30 5107 H 493.905 1.88205 -3.39869 0
M  V30 5108 H 495.577 -0.438849 -4.59208 0
M  V30 5109 H 493.82 -0.481725 -4.31117 0
M  V30 5110 H 494.491 0.659292 -5.48049 0
M  V30 5111 H 496.967 1.64228 -3.8232 0
M  V30 5112 H 495.843 2.56738 -4.85157 0
M  V30 5113 H 496.104 3.06401 -3.18702 0
M  V30 5114 N 495.163 1.55791 0.238111 0
M  V30 5115 C 496.093 1.94068 1.29846 0
M  V30 5116 C 497.074 0.806726 1.49753 0
M  V30 5117 O 498.259 1.06772 1.62214 0
M  V30 5118 C 495.389 2.24302 2.65153 0
M  V30 5119 C 494.343 3.40032 2.59927 0
M  V30 5120 C 493.669 3.55829 3.99111 0
M  V30 5121 C 494.969 4.75476 2.16148 0
M  V30 5122 H 496.663 2.82887 0.980563 0
M  V30 5123 H 494.209 1.36105 0.470253 0
M  V30 5124 H 496.162 2.4967 3.39475 0
M  V30 5125 H 494.886 1.32318 2.98596 0
M  V30 5126 H 493.545 3.14687 1.88063 0
M  V30 5127 H 493.193 2.6125 4.29834 0
M  V30 5128 H 492.893 4.3366 3.96501 0
M  V30 5129 H 494.417 3.83528 4.7512 0
M  V30 5130 H 495.831 5.00158 2.80205 0
M  V30 5131 H 494.228 5.56472 2.24631 0
M  V30 5132 H 495.298 4.71946 1.11333 0
M  V30 5133 N 496.642 -0.504142 1.49319 0
M  V30 5134 C 497.872 -1.28071 1.62116 0
M  V30 5135 C 498.28 -1.86955 0.290566 0
M  V30 5136 O 497.623 -1.68415 -0.733616 0
M  V30 5137 C 497.685 -2.4521 2.62893 0
M  V30 5138 C 497.349 -2.07218 4.0732 0
M  V30 5139 C 498.346 -1.61375 4.94221 0
M  V30 5140 C 496.031 -2.16949 4.53033 0
M  V30 5141 C 498.025 -1.25763 6.2487 0
M  V30 5142 C 495.712 -1.80949 5.83696 0
M  V30 5143 C 496.71 -1.3543 6.69438 0
M  V30 5144 O 496.398 -0.99915 7.97667 0
M  V30 5145 H 496.13 -0.394763 0.54876 0
M  V30 5146 H 498.684 -0.612118 1.96067 0
M  V30 5147 H 496.914 -3.15134 2.24115 0
M  V30 5148 H 498.603 -3.0724 2.65252 0
M  V30 5149 H 499.369 -1.53306 4.60133 0
M  V30 5150 H 495.248 -2.5133 3.86463 0
M  V30 5151 H 498.792 -0.901631 6.91749 0
M  V30 5152 H 494.689 -1.88667 6.17313 0
M  V30 5153 H 495.457 -1.13089 8.1065 0
M  V30 5154 N 498.12 -1.38341 -0.754957 0
M  V30 5155 C 499.366 -1.35678 -1.51536 0
M  V30 5156 C 499.721 0.0533985 -1.92326 0
M  V30 5157 O 499.014 1.01573 -1.6246 0
M  V30 5158 C 499.208 -2.2452 -2.78075 0
M  V30 5159 C 499.037 -3.74035 -2.49655 0
M  V30 5160 C 497.807 -4.43066 -2.42942 0
M  V30 5161 C 500.005 -4.665 -2.16523 0
M  V30 5162 N 497.987 -5.78026 -2.06783 0
M  V30 5163 C 499.358 -5.89962 -1.90644 0
M  V30 5164 C 501.413 -4.54718 -2.02821 0
M  V30 5165 C 500.116 -7.0296 -1.52444 0
M  V30 5166 C 502.142 -5.67618 -1.66023 0
M  V30 5167 C 501.504 -6.90141 -1.41015 0
M  V30 5168 H 497.603 -0.551764 -0.554148 0
M  V30 5169 H 500.187 -1.73716 -0.879258 0
M  V30 5170 H 498.358 -1.88673 -3.39496 0
M  V30 5171 H 500.09 -2.12993 -3.44116 0
M  V30 5172 H 496.845 -3.96264 -2.59367 0
M  V30 5173 H 497.269 -6.49394 -1.91353 0
M  V30 5174 H 501.911 -3.60546 -2.20831 0
M  V30 5175 H 499.629 -7.97051 -1.33174 0
M  V30 5176 H 503.215 -5.6048 -1.56055 0
M  V30 5177 H 502.095 -7.76021 -1.12965 0
M  V30 5178 N 499.598 0.982988 -1.23187 0
M  V30 5179 C 500.531 2.07302 -0.953993 0
M  V30 5180 C 501.509 1.62249 0.106753 0
M  V30 5181 O 502.693 1.88481 -0.0269525 0
M  V30 5182 C 499.82 3.35873 -0.436716 0
M  V30 5183 C 498.866 3.99862 -1.48367 0
M  V30 5184 S 499.699 4.39443 -3.06023 0
M  V30 5185 C 500.855 5.7117 -2.55959 0
M  V30 5186 H 501.088 2.30554 -1.87702 0
M  V30 5187 H 498.621 1.11883 -1.06403 0
M  V30 5188 H 500.579 4.10244 -0.144872 0
M  V30 5189 H 499.24 3.10634 0.465351 0
M  V30 5190 H 498.433 4.92471 -1.07182 0
M  V30 5191 H 498.035 3.31857 -1.72473 0
M  V30 5192 H 500.327 6.47977 -1.97818 0
M  V30 5193 H 501.27 6.17194 -3.47098 0
M  V30 5194 H 501.678 5.29046 -1.96902 0
M  V30 5195 N 501.076 1.04316 1.18135 0
M  V30 5196 C 502.008 0.594444 2.21357 0
M  V30 5197 C 503.021 -0.337215 1.59269 0
M  V30 5198 O 504.21 -0.131337 1.78016 0
M  V30 5199 C 501.31 -0.151251 3.38562 0
M  V30 5200 C 500.483 0.788907 4.30227 0
M  V30 5201 C 499.542 0.0860572 5.2613 0
M  V30 5202 O 498.568 0.717302 5.64662 0
M  V30 5203 N 499.77 -1.17969 5.68387 0
M  V30 5204 H 502.535 1.48227 2.60478 0
M  V30 5205 H 500.096 0.92396 1.32946 0
M  V30 5206 H 502.088 -0.631352 3.99745 0
M  V30 5207 H 500.658 -0.940639 2.98112 0
M  V30 5208 H 499.878 1.44882 3.6661 0
M  V30 5209 H 501.166 1.42738 4.88368 0
M  V30 5210 H 500.564 -1.71302 5.3914 0
M  V30 5211 H 499.121 -1.60402 6.31755 0
M  V30 5212 N 502.554 -1.34406 0.822964 0
M  V30 5213 C 503.831 -1.92733 0.333641 0
M  V30 5214 C 504.211 -1.75107 -1.17901 0
M  V30 5215 O 503.559 -1.12983 -1.98613 0
M  V30 5216 C 503.769 -3.40557 0.763023 0
M  V30 5217 C 505.117 -4.17709 0.761879 0
M  V30 5218 O 506.141 -3.49141 0.705606 0
M  V30 5219 O 505 -5.40082 0.835109 0
M  V30 5220 H 502.094 -0.821964 0.0911249 0
M  V30 5221 H 504.64 -1.4338 0.907757 0
M  V30 5222 H 503.412 -3.47187 1.8049 0
M  V30 5223 H 503.035 -3.97259 0.164605 0
M  V30 5224 N 504.032 -0.577932 -1.46621 0
M  V30 5225 C 504.995 0.147805 -2.28723 0
M  V30 5226 C 505.995 0.823325 -1.38123 0
M  V30 5227 O 507.185 0.676011 -1.60548 0
M  V30 5228 C 504.317 1.21853 -3.18378 0
M  V30 5229 H 505.51 -0.573654 -2.94362 0
M  V30 5230 H 503.063 -0.335703 -1.52652 0
M  V30 5231 H 503.798 1.97173 -2.57475 0
M  V30 5232 H 503.583 0.738714 -3.85078 0
M  V30 5233 H 505.073 1.72768 -3.80186 0
M  V30 5234 N 505.51 1.54411 -0.315457 0
M  V30 5235 C 506.443 2.20265 0.596522 0
M  V30 5236 C 507.421 1.17693 1.12192 0
M  V30 5237 O 508.605 1.46397 1.18744 0
M  V30 5238 C 505.732 2.85794 1.81767 0
M  V30 5239 C 504.778 4.02017 1.42424 0
M  V30 5240 S 505.611 5.33452 0.467836 0
M  V30 5241 C 506.767 6.02471 1.69645 0
M  V30 5242 H 507 2.97277 0.0370896 0
M  V30 5243 H 504.533 1.54079 -0.0995562 0
M  V30 5244 H 506.491 3.24172 2.51839 0
M  V30 5245 H 505.152 2.08601 2.34828 0
M  V30 5246 H 504.345 4.46701 2.33396 0
M  V30 5247 H 503.947 3.65271 0.803311 0
M  V30 5248 H 506.239 6.24157 2.63504 0
M  V30 5249 H 507.182 6.96215 1.29192 0
M  V30 5250 H 507.59 5.32284 1.87974 0
M  V30 5251 N 506.988 0.0434614 1.5754 0
M  V30 5252 C 508.236 -0.630786 1.92004 0
M  V30 5253 C 508.557 -1.71836 0.921807 0
M  V30 5254 O 507.827 -1.9587 -0.034522 0
M  V30 5255 H 506.407 -0.235988 0.708745 0
M  V30 5256 H 509.069 0.0946462 1.9467 0
M  V30 5257 H 508.165 -1.07434 2.93026 0
M  V30 5258 N 508.466 -1.55915 -0.229846 0
M  V30 5259 C 509.696 -1.82352 -0.971152 0
M  V30 5260 C 510.104 -0.619231 -1.7878 0
M  V30 5261 O 509.447 0.421597 -1.78797 0
M  V30 5262 C 509.509 -3.02399 -1.9441 0
M  V30 5263 C 509.173 -4.37739 -1.31277 0
M  V30 5264 C 510.17 -5.15074 -0.706757 0
M  V30 5265 C 507.855 -4.84454 -1.32702 0
M  V30 5266 C 509.849 -6.37281 -0.123413 0
M  V30 5267 C 507.536 -6.06605 -0.739831 0
M  V30 5268 C 508.534 -6.82858 -0.139071 0
M  V30 5269 O 508.222 -8.027 0.439007 0
M  V30 5270 H 507.954 -0.61035 -0.290601 0
M  V30 5271 H 510.508 -2.03839 -0.252746 0
M  V30 5272 H 508.738 -2.76709 -2.70128 0
M  V30 5273 H 510.427 -3.15779 -2.55026 0
M  V30 5274 H 511.193 -4.80093 -0.688131 0
M  V30 5275 H 507.072 -4.25081 -1.78402 0
M  V30 5276 H 510.616 -6.96741 0.346124 0
M  V30 5277 H 506.513 -6.4106 -0.755841 0
M  V30 5278 H 507.281 -8.17824 0.332521 0
M  V30 5279 N 509.944 0.496216 -1.49584 0
M  V30 5280 C 510.854 1.62352 -1.69349 0
M  V30 5281 C 511.87 1.64184 -0.576147 0
M  V30 5282 O 513.046 1.82517 -0.85144 0
M  V30 5283 C 510.111 2.98698 -1.76013 0
M  V30 5284 C 509.172 3.07454 -2.99617 0
M  V30 5285 C 508.405 4.37296 -3.05953 0
M  V30 5286 O 508.628 5.2637 -2.19752 0
M  V30 5287 O 507.562 4.51124 -3.9846 0
M  V30 5288 H 511.388 1.48606 -2.64859 0
M  V30 5289 H 508.973 0.673022 -1.33382 0
M  V30 5290 H 510.855 3.79725 -1.82721 0
M  V30 5291 H 509.53 3.12696 -0.836828 0
M  V30 5292 H 508.437 2.25597 -2.98424 0
M  V30 5293 H 509.77 2.98385 -3.91443 0
M  V30 5294 N 511.423 1.38739 0.74761 0
M  V30 5295 C 512.353 1.39173 1.87492 0
M  V30 5296 C 513.334 0.256794 1.6815 0
M  V30 5297 O 514.519 0.460762 1.88655 0
M  V30 5298 C 511.649 1.22197 3.25093 0
M  V30 5299 C 510.603 2.32957 3.59047 0
M  V30 5300 C 509.929 2.01082 4.95449 0
M  V30 5301 C 511.229 3.75237 3.6331 0
M  V30 5302 H 512.923 2.3351 1.87386 0
M  V30 5303 H 510.469 1.12399 0.900134 0
M  V30 5304 H 512.422 1.21124 4.03617 0
M  V30 5305 H 511.146 0.243241 3.25693 0
M  V30 5306 H 509.805 2.33226 2.82845 0
M  V30 5307 H 509.453 1.01678 4.92616 0
M  V30 5308 H 509.153 2.75267 5.19136 0
M  V30 5309 H 510.677 2.01638 5.76346 0
M  V30 5310 H 512.091 3.76966 4.31937 0
M  V30 5311 H 510.488 4.48677 3.98509 0
M  V30 5312 H 511.558 4.07122 2.634 0
M  V30 5313 N 512.901 -0.976442 1.23707 0
M  V30 5314 C 514.312 -1.53284 1.06587 0
M  V30 5315 C 514.663 -1.92765 -0.365526 0
M  V30 5316 O 513.788 -1.7645 -1.25277 0
M  V30 5317 C 514.383 -2.78548 1.92864 0
M  V30 5318 C 512.942 -3.30574 1.79994 0
M  V30 5319 C 512.089 -2.03538 1.88328 0
M  V30 5320 H 515.04 -0.795692 1.37311 0
M  V30 5321 H 515.061 -3.5155 1.45577 0
M  V30 5322 H 514.573 -2.49782 2.97037 0
M  V30 5323 H 512.674 -3.64211 0.786202 0
M  V30 5324 H 512.787 -4.00065 2.636 0
M  V30 5325 H 511.151 -2.17853 1.31954 0
M  V30 5326 H 511.934 -1.77149 2.94063 0
M  V30 5327 N 514.379 -1.04941 -1.1758 0
M  V30 5328 C 515.625 -0.768896 -1.88307 0
M  V30 5329 C 515.98 0.696361 -1.79356 0
M  V30 5330 O 515.273 1.50245 -1.18899 0
M  V30 5331 C 515.467 -1.18062 -3.37337 0
M  V30 5332 C 515.296 -2.68436 -3.60794 0
M  V30 5333 C 514.066 -3.35709 -3.77661 0
M  V30 5334 C 516.264 -3.66657 -3.60649 0
M  V30 5335 N 514.246 -4.74974 -3.88939 0
M  V30 5336 C 515.617 -4.91638 -3.77747 0
M  V30 5337 C 517.672 -3.60162 -3.43785 0
M  V30 5338 C 516.375 -6.10902 -3.79726 0
M  V30 5339 C 518.401 -4.78863 -3.47051 0
M  V30 5340 C 517.763 -6.02666 -3.64654 0
M  V30 5341 H 513.862 -0.33355 -0.707296 0
M  V30 5342 H 516.446 -1.34085 -1.41171 0
M  V30 5343 H 514.617 -0.636648 -3.83147 0
M  V30 5344 H 516.349 -0.8502 -3.95669 0
M  V30 5345 H 513.104 -2.8611 -3.77409 0
M  V30 5346 H 513.528 -5.47378 -3.98379 0
M  V30 5347 H 518.17 -2.65412 -3.29114 0
M  V30 5348 H 515.888 -7.05998 -3.93182 0
M  V30 5349 H 519.474 -4.75488 -3.35265 0
M  V30 5350 H 518.354 -6.92979 -3.67083 0
M  V30 5351 N 515.857 1.33968 -0.830081 0
M  V30 5352 C 517.103 1.98357 -0.422191 0
M  V30 5353 C 517.436 1.65633 1.01387 0
M  V30 5354 O 516.711 0.931648 1.70735 0
M  V30 5355 C 516.994 3.54492 -0.633043 0
M  V30 5356 C 516.847 3.96934 -2.11574 0
M  V30 5357 C 518.166 4.40039 -0.0735584 0
M  V30 5358 H 515.285 0.720544 -0.154871 0
M  V30 5359 H 517.927 1.58749 -1.04397 0
M  V30 5360 H 516.077 3.88361 -0.103775 0
M  V30 5361 H 517.749 3.73363 -2.7092 0
M  V30 5362 H 515.992 3.46984 -2.60354 0
M  V30 5363 H 516.663 5.05651 -2.21406 0
M  V30 5364 H 519.139 4.12764 -0.52585 0
M  V30 5365 H 518.015 5.48327 -0.250841 0
M  V30 5366 H 518.276 4.30124 1.02202 0
M  V30 5367 N 517.335 0.585699 1.46312 0
M  V30 5368 C 518.565 0.0780166 2.06453 0
M  V30 5369 C 518.973 -1.2336 1.43454 0
M  V30 5370 O 518.316 -1.75734 0.535086 0
M  V30 5371 C 518.378 -0.158951 3.59148 0
M  V30 5372 C 518.042 1.06752 4.44357 0
M  V30 5373 C 519.039 1.98031 4.80708 0
M  V30 5374 C 516.724 1.2902 4.85447 0
M  V30 5375 C 518.718 3.09924 5.5698 0
M  V30 5376 C 516.405 2.41218 5.61478 0
M  V30 5377 C 517.403 3.31499 5.97158 0
M  V30 5378 O 517.091 4.41747 6.71651 0
M  V30 5379 H 516.823 0.0558894 0.673686 0
M  V30 5380 H 519.377 0.806994 1.88883 0
M  V30 5381 H 517.607 -0.942575 3.75037 0
M  V30 5382 H 519.296 -0.615513 4.01206 0
M  V30 5383 H 520.062 1.82043 4.49539 0
M  V30 5384 H 515.941 0.596567 4.57124 0
M  V30 5385 H 519.485 3.80415 5.84748 0
M  V30 5386 H 515.382 2.57167 5.9206 0
M  V30 5387 H 516.15 4.40152 6.90079 0
M  V30 5388 N 518.813 -1.54241 0.323641 0
M  V30 5389 C 520.06 -2.0057 -0.27891 0
M  V30 5390 C 520.388 -1.21181 -1.52136 0
M  V30 5391 O 519.643 -0.282043 -1.93657 0
M  V30 5392 C 519.942 -3.5129 -0.658031 0
M  V30 5393 C 519.608 -4.48281 0.485252 0
M  V30 5394 C 518.27 -4.74519 0.799055 0
M  V30 5395 C 520.622 -5.05909 1.25322 0
M  V30 5396 C 517.95 -5.55643 1.88354 0
M  V30 5397 C 520.302 -5.88215 2.32779 0
M  V30 5398 C 518.966 -6.12755 2.64741 0
M  V30 5399 H 518.236 -0.733938 -0.10206 0
M  V30 5400 H 520.883 -1.862 0.447435 0
M  V30 5401 H 519.188 -3.63388 -1.4648 0
M  V30 5402 H 520.885 -3.84578 -1.1358 0
M  V30 5403 H 517.475 -4.27979 0.230593 0
M  V30 5404 H 521.659 -4.8562 1.02404 0
M  V30 5405 H 516.915 -5.72888 2.13564 0
M  V30 5406 H 521.089 -6.31888 2.92729 0
M  V30 5407 H 518.716 -6.75404 3.48904 0
M  V30 5408 N 520.291 -0.0518155 -1.57515 0
M  V30 5409 C 521.537 0.622745 -1.93002 0
M  V30 5410 C 521.87 1.70456 -0.930499 0
M  V30 5411 O 521.145 1.94452 0.0434086 0
M  V30 5412 C 521.428 1.21824 -3.38867 0
M  V30 5413 C 521.281 0.144434 -4.49568 0
M  V30 5414 C 522.6 2.12968 -3.8514 0
M  V30 5415 H 519.719 0.22491 -0.701844 0
M  V30 5416 H 522.361 -0.113711 -1.89659 0
M  V30 5417 H 520.511 1.8459 -3.41846 0
M  V30 5418 H 522.183 -0.48753 -4.58717 0
M  V30 5419 H 520.426 -0.527424 -4.30582 0
M  V30 5420 H 521.097 0.601127 -5.48717 0
M  V30 5421 H 523.573 1.60163 -3.8404 0
M  V30 5422 H 522.449 2.51578 -4.87852 0
M  V30 5423 H 522.71 3.03004 -3.21934 0
M  V30 5424 N 521.769 1.56035 0.221574 0
M  V30 5425 C 522.994 1.83476 0.967026 0
M  V30 5426 C 523.419 0.632139 1.7716 0
M  V30 5427 O 522.777 -0.419082 1.7639 0
M  V30 5428 C 522.825 3.08907 1.86034 0
M  V30 5429 O 521.929 2.876 2.95567 0
M  V30 5430 H 521.27 0.604913 0.273817 0
M  V30 5431 H 523.8 2.03247 0.234893 0
M  V30 5432 H 523.81 3.3901 2.27016 0
M  V30 5433 H 522.485 3.96068 1.26898 0
M  V30 5434 H 521.062 2.6873 2.58532 0
M  V30 5435 N 523.247 -0.488276 1.49845 0
M  V30 5436 C 524.177 -1.59675 1.70371 0
M  V30 5437 C 525.158 -1.60878 0.552473 0
M  V30 5438 O 526.343 -1.77417 0.78973 0
M  V30 5439 C 523.473 -2.98098 1.782 0
M  V30 5440 C 522.427 -3.11761 2.93239 0
M  V30 5441 C 521.753 -4.51661 2.86193 0
M  V30 5442 C 523.053 -2.90589 4.33999 0
M  V30 5443 H 524.747 -1.42752 2.63177 0
M  V30 5444 H 522.293 -0.685317 1.26647 0
M  V30 5445 H 524.246 -3.75555 1.91144 0
M  V30 5446 H 522.97 -3.16138 0.820018 0
M  V30 5447 H 521.629 -2.36732 2.79917 0
M  V30 5448 H 521.277 -4.66595 1.87877 0
M  V30 5449 H 520.977 -4.61742 3.63412 0
M  V30 5450 H 522.501 -5.31162 3.01163 0
M  V30 5451 H 523.915 -3.57807 4.47936 0
M  V30 5452 H 522.312 -3.1213 5.12538 0
M  V30 5453 H 523.382 -1.86595 4.4756 0
M  V30 5454 N 524.725 -1.39134 -0.740242 0
M  V30 5455 C 525.971 -1.36273 -1.50192 0
M  V30 5456 C 526.304 0.0430136 -1.94152 0
M  V30 5457 O 525.579 1.00691 -1.66408 0
M  V30 5458 C 525.862 -2.33041 -2.74525 0
M  V30 5459 C 525.715 -3.82535 -2.36617 0
M  V30 5460 C 527.034 -2.27723 -3.76604 0
M  V30 5461 H 524.153 -0.496323 -0.544823 0
M  V30 5462 H 526.795 -1.70085 -0.846815 0
M  V30 5463 H 524.945 -2.04337 -3.30422 0
M  V30 5464 H 526.617 -4.21967 -1.86391 0
M  V30 5465 H 524.86 -3.99565 -1.68909 0
M  V30 5466 H 525.531 -4.45723 -3.2563 0
M  V30 5467 H 528.007 -2.53091 -3.30279 0
M  V30 5468 H 526.883 -2.97519 -4.61274 0
M  V30 5469 H 527.144 -1.28049 -4.2315 0
M  V30 5470 N 526.204 0.969867 -1.24223 0
M  V30 5471 C 527.453 1.70687 -1.07466 0
M  V30 5472 C 527.766 1.91736 0.386861 0
M  V30 5473 O 528.972 2.62986 0.674581 0
M  V30 5474 C 527.428 3.07217 -1.87472 0
M  V30 5475 C 527.036 2.94018 -3.3802 0
M  V30 5476 C 528.78 3.84804 -1.79237 0
M  V30 5477 C 526.687 4.25844 -4.10379 0
M  V30 5478 H 525.617 0.640067 -0.398536 0
M  V30 5479 H 528.268 1.08092 -1.48285 0
M  V30 5480 H 526.65 3.70628 -1.39466 0
M  V30 5481 H 527.824 2.39632 -3.9359 0
M  V30 5482 H 526.139 2.29898 -3.47183 0
M  V30 5483 H 528.736 4.82417 -2.30603 0
M  V30 5484 H 529.079 4.09356 -0.757197 0
M  V30 5485 H 529.612 3.28115 -2.24912 0
M  V30 5486 H 526.351 4.06486 -5.14246 0
M  V30 5487 H 525.871 4.80054 -3.59594 0
M  V30 5488 H 527.55 4.94475 -4.17257 0
M  V30 5489 N 527.682 1.05563 1.17022 0
M  V30 5490 C 528.929 0.767937 1.87374 0
M  V30 5491 C 529.257 -0.705224 1.81265 0
M  V30 5492 O 528.512 -1.5318 1.21796 0
M  V30 5493 C 528.811 1.19849 3.36706 0
M  V30 5494 C 528.477 2.6745 3.63017 0
M  V30 5495 C 527.139 3.0777 3.69907 0
M  V30 5496 C 529.491 3.62811 3.74189 0
M  V30 5497 C 526.819 4.42307 3.85463 0
M  V30 5498 C 529.171 4.97087 3.91264 0
M  V30 5499 C 527.835 5.37055 3.96394 0
M  V30 5500 H 527.105 0.281008 0.68565 0
M  V30 5501 H 529.752 1.32339 1.38415 0
M  V30 5502 H 528.057 0.562096 3.87747 0
M  V30 5503 H 529.754 0.953038 3.8951 0
M  V30 5504 H 526.344 2.35228 3.58282 0
M  V30 5505 H 530.528 3.32798 3.68183 0
M  V30 5506 H 525.784 4.72769 3.87684 0
M  V30 5507 H 529.958 5.70869 3.9885 0
M  V30 5508 H 527.585 6.41308 4.082 0
M  V30 5509 N 529.16 -1.33526 0.837174 0
M  V30 5510 C 530.408 -1.97446 0.431211 0
M  V30 5511 C 530.729 -1.6665 -1.01255 0
M  V30 5512 O 529.999 -0.964559 -1.70508 0
M  V30 5513 H 528.579 -0.73043 0.156463 0
M  V30 5514 H 531.241 -1.62918 1.06976 0
M  V30 5515 H 530.337 -3.07001 0.561877 0
M  V30 5516 N 530.638 -0.59345 -1.46 0
M  V30 5517 C 531.863 -0.0872365 -2.07216 0
M  V30 5518 C 532.288 1.2131 -1.43755 0
M  V30 5519 O 531.646 1.73528 -0.525152 0
M  V30 5520 C 531.694 0.0538197 -3.6056 0
M  V30 5521 O 530.798 1.10765 -3.97247 0
M  V30 5522 H 530.139 -0.0676598 -0.660544 0
M  V30 5523 H 532.669 -0.819445 -1.87473 0
M  V30 5524 H 532.679 0.256567 -4.07193 0
M  V30 5525 H 531.354 -0.895739 -4.0614 0
M  V30 5526 H 529.931 0.882501 -3.62307 0
M  V30 5527 N 532.116 1.54067 -0.331816 0
M  V30 5528 C 533.363 2.00715 0.268269 0
M  V30 5529 C 533.691 1.21986 1.51491 0
M  V30 5530 O 532.946 0.292309 1.93505 0
M  V30 5531 C 533.245 3.51634 0.639392 0
M  V30 5532 C 532.911 4.48018 -0.509019 0
M  V30 5533 C 531.573 4.74089 -0.824209 0
M  V30 5534 C 533.925 5.05237 -1.28003 0
M  V30 5535 C 531.253 5.54637 -1.91298 0
M  V30 5536 C 533.605 5.86972 -2.35895 0
M  V30 5537 C 532.269 6.11342 -2.67987 0
M  V30 5538 H 531.539 0.734469 0.0981667 0
M  V30 5539 H 534.186 1.8596 -0.457304 0
M  V30 5540 H 532.491 3.6416 1.44551 0
M  V30 5541 H 534.188 3.85175 1.11539 0
M  V30 5542 H 530.778 4.27851 -0.253287 0
M  V30 5543 H 534.962 4.8507 -1.04978 0
M  V30 5544 H 530.218 5.71747 -2.16599 0
M  V30 5545 H 534.392 6.30327 -2.96076 0
M  V30 5546 H 532.019 6.73544 -3.5248 0
M  V30 5547 N 533.594 0.0601682 1.57485 0
M  V30 5548 C 534.841 -0.611594 1.93043 0
M  V30 5549 C 535.169 -1.70317 0.939274 0
M  V30 5550 O 534.424 -1.95644 -0.046996 0
M  V30 5551 C 534.723 -1.23831 3.35262 0
M  V30 5552 C 534.389 -0.274037 4.50066 0
M  V30 5553 C 533.051 -0.00872394 4.81199 0
M  V30 5554 C 535.403 0.386308 5.19766 0
M  V30 5555 C 532.731 0.924218 5.79375 0
M  V30 5556 C 535.083 1.3075 6.1894 0
M  V30 5557 C 533.747 1.58139 6.48497 0
M  V30 5558 H 533.017 -0.223798 0.706396 0
M  V30 5559 H 535.664 0.128566 1.91068 0
M  V30 5560 H 533.969 -2.05394 3.33647 0
M  V30 5561 H 535.666 -1.76517 3.60059 0
M  V30 5562 H 532.256 -0.491008 4.25778 0
M  V30 5563 H 536.44 0.194436 4.95919 0
M  V30 5564 H 531.696 1.1438 6.00606 0
M  V30 5565 H 535.87 1.82519 6.72056 0
M  V30 5566 H 533.497 2.30593 7.24383 0
M  V30 5567 N 535.072 -1.5615 -0.213296 0
M  V30 5568 C 536.318 -1.79812 -0.937849 0
M  V30 5569 C 536.651 -0.631201 -1.83656 0
M  V30 5570 O 535.926 0.369165 -1.90964 0
M  V30 5571 C 536.209 -3.13613 -1.76972 0
M  V30 5572 C 536.062 -4.40766 -0.89695 0
M  V30 5573 C 537.381 -3.43931 -2.7459 0
M  V30 5574 H 534.5 -0.654138 -0.339518 0
M  V30 5575 H 537.142 -1.88877 -0.20623 0
M  V30 5576 H 535.292 -3.06015 -2.39347 0
M  V30 5577 H 536.964 -4.60392 -0.289306 0
M  V30 5578 H 535.207 -4.33326 -0.202756 0
M  V30 5579 H 535.878 -5.30843 -1.51358 0
M  V30 5580 H 538.354 -3.5171 -2.22349 0
M  V30 5581 H 537.23 -4.38706 -3.29891 0
M  V30 5582 H 537.491 -2.6651 -3.52739 0
M  V30 5583 N 536.55 0.480323 -1.50102 0
M  V30 5584 C 537.48 1.58769 -1.71215 0
M  V30 5585 C 538.461 1.60583 -0.560997 0
M  V30 5586 O 539.646 1.76996 -0.799127 0
M  V30 5587 C 536.776 2.97148 -1.79778 0
M  V30 5588 C 535.73 3.10201 -2.94888 0
M  V30 5589 C 535.056 4.50137 -2.88584 0
M  V30 5590 C 536.356 2.88283 -4.35534 0
M  V30 5591 H 538.05 1.41354 -2.6393 0
M  V30 5592 H 535.596 0.678591 -1.27008 0
M  V30 5593 H 537.549 3.74536 -1.93133 0
M  V30 5594 H 536.273 3.15699 -0.836772 0
M  V30 5595 H 534.932 2.35244 -2.81169 0
M  V30 5596 H 534.58 4.65593 -1.90349 0
M  V30 5597 H 534.28 4.59808 -3.65856 0
M  V30 5598 H 535.804 5.29558 -3.03976 0
M  V30 5599 H 537.218 3.55427 -4.49827 0
M  V30 5600 H 535.615 3.09408 -5.14186 0
M  V30 5601 H 536.685 1.84219 -4.48544 0
M  V30 5602 N 538.028 1.39524 0.732853 0
M  V30 5603 C 538.976 1.38563 1.86824 0
M  V30 5604 C 539.97 0.268467 1.67259 0
M  V30 5605 O 541.176 0.438613 1.74574 0
M  V30 5606 H 537.551 0.432737 0.615014 0
M  V30 5607 H 539.522 2.34328 1.84751 0
M  V30 5608 C 538.271 1.2481 3.24527 0
M  V30 5609 H 537.594 2.10044 3.40179 0
M  V30 5610 H 539.034 1.28194 4.04156 0
M  V30 5611 C 537.493 -0.0432825 3.36872 0
M  V30 5612 O 538.023 -1.01268 3.88726 0
M  V30 5613 N 536.229 -0.107055 2.90403 0
M  V30 5614 H 535.776 0.682512 2.48394 0
M  V30 5615 H 535.734 -0.970618 2.99042 0
M  V30 5616 N 539.506 -0.963266 1.24736 0
M  V30 5617 C 540.436 -2.07628 1.06832 0
M  V30 5618 C 541.417 -1.70088 -0.0200566 0
M  V30 5619 O 542.602 -1.93636 0.147854 0
M  V30 5620 C 539.732 -3.40636 0.677069 0
M  V30 5621 C 538.686 -3.9215 1.71471 0
M  V30 5622 C 538.012 -5.21553 1.1784 0
M  V30 5623 C 539.312 -4.19493 3.11164 0
M  V30 5624 H 541.006 -2.22864 1.9993 0
M  V30 5625 H 538.552 -1.07093 0.96266 0
M  V30 5626 H 540.505 -4.17941 0.538792 0
M  V30 5627 H 539.229 -3.25313 -0.289612 0
M  V30 5628 H 537.888 -3.17005 1.84128 0
M  V30 5629 H 537.536 -5.02593 0.202195 0
M  V30 5630 H 537.236 -5.56988 1.87185 0
M  V30 5631 H 538.76 -6.01463 1.05233 0
M  V30 5632 H 540.174 -4.87487 3.01711 0
M  V30 5633 H 538.571 -4.66165 3.77902 0
M  V30 5634 H 539.641 -3.26097 3.58871 0
M  V30 5635 N 540.985 -1.06182 -1.16461 0
M  V30 5636 C 542.231 -0.779015 -1.87241 0
M  V30 5637 C 542.564 0.692715 -1.81425 0
M  V30 5638 O 541.839 1.5074 -1.22913 0
M  V30 5639 C 542.122 -1.2728 -3.36856 0
M  V30 5640 C 541.975 -2.80821 -3.51368 0
M  V30 5641 C 543.294 -0.879799 -4.31216 0
M  V30 5642 H 540.413 -0.284464 -0.679889 0
M  V30 5643 H 543.055 -1.31755 -1.36896 0
M  V30 5644 H 541.205 -0.814673 -3.79862 0
M  V30 5645 H 542.877 -3.34833 -3.17308 0
M  V30 5646 H 541.12 -3.19606 -2.93316 0
M  V30 5647 H 541.791 -3.10435 -4.56436 0
M  V30 5648 H 544.267 -1.27436 -3.96105 0
M  V30 5649 H 543.143 -1.25278 -5.34412 0
M  V30 5650 H 543.404 0.215372 -4.41575 0
M  V30 5651 N 542.463 1.3308 -0.844243 0
M  V30 5652 C 543.393 2.3161 -0.296493 0
M  V30 5653 C 544.374 1.59215 0.598707 0
M  V30 5654 O 545.559 1.87077 0.521134 0
M  V30 5655 C 542.689 3.43313 0.524762 0
M  V30 5656 C 541.643 4.27115 -0.275106 0
M  V30 5657 C 540.969 5.30483 0.670236 0
M  V30 5658 C 542.269 5.00443 -1.49514 0
M  V30 5659 H 543.963 2.77672 -1.11976 0
M  V30 5660 H 541.509 1.33496 -0.539899 0
M  V30 5661 H 543.462 4.11273 0.918298 0
M  V30 5662 H 542.186 2.95952 1.3813 0
M  V30 5663 H 540.845 3.60787 -0.650267 0
M  V30 5664 H 540.493 4.79379 1.52332 0
M  V30 5665 H 540.193 5.87435 0.139123 0
M  V30 5666 H 541.717 6.01308 1.06117 0
M  V30 5667 H 543.131 5.61141 -1.17447 0
M  V30 5668 H 541.528 5.67071 -1.96343 0
M  V30 5669 H 542.598 4.28906 -2.26202 0
M  V30 5670 N 543.941 0.601185 1.45683 0
M  V30 5671 C 545.189 0.0936957 2.01883 0
M  V30 5672 C 545.51 -1.2779 1.47291 0
M  V30 5673 O 544.78 -1.84279 0.664691 0
M  V30 5674 H 543.36 0.0316466 0.746329 0
M  V30 5675 H 546.022 0.781137 1.78562 0
M  V30 5676 H 545.118 0.0386297 3.12076 0
M  V30 5677 N 545.419 -1.53889 0.339982 0
M  V30 5678 C 546.665 -2.01152 -0.258003 0
M  V30 5679 C 546.998 -1.22749 -1.50487 0
M  V30 5680 O 546.273 -0.314156 -1.91946 0
M  V30 5681 C 546.556 -3.55468 -0.575717 0
M  V30 5682 C 546.409 -4.44584 0.682996 0
M  V30 5683 C 547.728 -4.1768 -1.38677 0
M  V30 5684 H 544.847 -0.731198 -0.0922992 0
M  V30 5685 H 547.489 -1.84352 0.459814 0
M  V30 5686 H 545.639 -3.69914 -1.18725 0
M  V30 5687 H 547.311 -4.41981 1.32102 0
M  V30 5688 H 545.554 -4.13592 1.3086 0
M  V30 5689 H 546.225 -5.5043 0.416001 0
M  V30 5690 H 548.701 -4.0691 -0.869705 0
M  V30 5691 H 547.577 -5.25734 -1.57783 0
M  V30 5692 H 547.838 -3.72069 -2.38782 0
M  V30 5693 N 546.897 -0.0685191 -1.57451 0
M  V30 5694 C 547.827 0.89747 -2.15564 0
M  V30 5695 C 548.808 1.31266 -1.08181 0
M  V30 5696 O 549.993 1.38429 -1.36202 0
M  V30 5697 C 547.123 2.16623 -2.71463 0
M  V30 5698 C 546.077 1.89054 -3.83982 0
M  V30 5699 C 545.403 3.22532 -4.26471 0
M  V30 5700 C 546.703 1.1984 -5.08366 0
M  V30 5701 H 548.397 0.413373 -2.96533 0
M  V30 5702 H 545.943 0.197391 -1.42641 0
M  V30 5703 H 547.896 2.84614 -3.10761 0
M  V30 5704 H 546.62 2.67269 -1.8771 0
M  V30 5705 H 545.279 1.23469 -3.45183 0
M  V30 5706 H 544.927 3.71013 -3.39644 0
M  V30 5707 H 544.627 3.04879 -5.02317 0
M  V30 5708 H 546.151 3.91727 -4.68383 0
M  V30 5709 H 547.565 1.77896 -5.45001 0
M  V30 5710 H 545.962 1.12456 -5.89469 0
M  V30 5711 H 547.032 0.176996 -4.84577 0
M  V30 5712 N 548.375 1.56261 0.205012 0
M  V30 5713 C 549.6 1.84491 0.947512 0
M  V30 5714 C 550.025 0.650894 1.76479 0
M  V30 5715 O 549.383 -0.40035 1.76824 0
M  V30 5716 C 549.431 3.10863 1.82747 0
M  V30 5717 O 548.535 2.90719 2.925 0
M  V30 5718 H 547.876 0.607783 0.267386 0
M  V30 5719 H 550.406 2.03485 0.213323 0
M  V30 5720 H 550.416 3.41399 2.23407 0
M  V30 5721 H 549.091 3.97392 1.2269 0
M  V30 5722 H 547.668 2.71457 2.55667 0
M  V30 5723 N 549.853 -0.472356 1.50355 0
M  V30 5724 C 551.101 -1.22211 1.60962 0
M  V30 5725 C 551.422 -1.92497 0.311439 0
M  V30 5726 O 550.692 -1.8405 -0.671002 0
M  V30 5727 H 549.272 -0.454092 0.593135 0
M  V30 5728 H 551.934 -0.544977 1.87126 0
M  V30 5729 H 551.03 -1.9707 2.42012 0
M  V30 5730 N 551.331 -1.39911 -0.725443 0
M  V30 5731 C 552.241 -1.41688 -1.8698 0
M  V30 5732 C 553.257 -0.310579 -1.71206 0
M  V30 5733 O 554.433 -0.55359 -1.93642 0
M  V30 5734 C 551.498 -1.26811 -3.22676 0
M  V30 5735 C 550.559 -2.47497 -3.50776 0
M  V30 5736 C 549.792 -2.3332 -4.79997 0
M  V30 5737 O 550.015 -1.34175 -5.54394 0
M  V30 5738 O 548.949 -3.22498 -5.08211 0
M  V30 5739 H 552.775 -2.38171 -1.88436 0
M  V30 5740 H 550.36 -1.21128 -0.874548 0
M  V30 5741 H 552.242 -1.20684 -4.03749 0
M  V30 5742 H 550.917 -0.334289 -3.21969 0
M  V30 5743 H 549.824 -2.59201 -2.69751 0
M  V30 5744 H 551.157 -3.39606 -3.5627 0
M  V30 5745 N 552.809 0.956637 -1.25245 0
M  V30 5746 C 554.056 1.701 -1.09874 0
M  V30 5747 C 554.384 1.91128 0.36062 0
M  V30 5748 O 553.639 1.47837 1.28229 0
M  V30 5749 C 553.938 3.08996 -1.79601 0
M  V30 5750 C 553.604 3.07774 -3.29523 0
M  V30 5751 C 552.266 3.07149 -3.70423 0
M  V30 5752 C 554.618 3.01257 -4.25316 0
M  V30 5753 C 551.946 2.97752 -5.0553 0
M  V30 5754 C 554.298 2.93403 -5.60444 0
M  V30 5755 C 552.962 2.91111 -6.00675 0
M  V30 5756 H 552.232 0.62244 -0.402056 0
M  V30 5757 H 554.879 1.1178 -1.55491 0
M  V30 5758 H 553.184 3.70848 -1.26408 0
M  V30 5759 H 554.881 3.65407 -1.65162 0
M  V30 5760 H 551.471 3.09032 -2.9698 0
M  V30 5761 H 555.655 3.00861 -3.9471 0
M  V30 5762 H 550.911 2.94346 -5.35883 0
M  V30 5763 H 555.085 2.87321 -6.34366 0
M  V30 5764 H 552.712 2.83586 -7.05325 0
M  V30 5765 N 554.287 1.06798 1.15896 0
M  V30 5766 C 555.512 0.808739 1.90982 0
M  V30 5767 C 555.937 -0.6316 1.77179 0
M  V30 5768 O 555.295 -1.4407 1.10061 0
M  V30 5769 C 555.343 1.21468 3.39526 0
M  V30 5770 O 554.447 0.356562 4.10856 0
M  V30 5771 H 553.788 0.29512 0.594811 0
M  V30 5772 H 556.318 1.42513 1.46804 0
M  V30 5773 H 556.328 1.18844 3.90308 0
M  V30 5774 H 555.003 2.26379 3.48891 0
M  V30 5775 H 553.58 0.444808 3.70238 0
M  V30 5776 N 555.766 -1.3263 0.851289 0
M  V30 5777 C 556.713 -2.28952 0.291469 0
M  V30 5778 C 557.683 -1.54897 -0.599676 0
M  V30 5779 O 558.868 -1.83137 -0.535305 0
M  V30 5780 C 556.008 -3.41206 -0.516992 0
M  V30 5781 C 555.121 -4.30148 0.399566 0
M  V30 5782 C 554.256 -5.29527 -0.4212 0
M  V30 5783 C 553.295 -6.10112 0.492969 0
M  V30 5784 N 552.432 -7.01499 -0.290414 0
M  V30 5785 H 557.272 -2.76228 1.11813 0
M  V30 5786 H 554.809 -1.35907 0.562826 0
M  V30 5787 H 556.767 -4.05005 -1.00132 0
M  V30 5788 H 555.397 -2.9509 -1.30851 0
M  V30 5789 H 554.449 -3.66959 1.00227 0
M  V30 5790 H 555.761 -4.8649 1.1013 0
M  V30 5791 H 554.915 -5.98914 -0.968832 0
M  V30 5792 H 553.654 -4.73794 -1.15632 0
M  V30 5793 H 552.659 -5.39632 1.05251 0
M  V30 5794 H 553.884 -6.6793 1.22664 0
M  V30 5795 H 551.83 -6.48199 -1.00868 0
M  V30 5796 H 551.747 -7.55178 0.352354 0
M  V30 5797 H 553.015 -7.75176 -0.819882 0
M  V30 5798 N 557.244 -0.608902 -1.45362 0
M  V30 5799 C 558.154 0.110969 -2.34337 0
M  V30 5800 C 559.17 0.859007 -1.51318 0
M  V30 5801 O 560.346 0.816296 -1.84116 0
M  V30 5802 C 557.411 1.09494 -3.28956 0
M  V30 5803 C 556.472 0.348718 -4.27881 0
M  V30 5804 C 555.705 1.28582 -5.17979 0
M  V30 5805 O 555.928 2.52369 -5.11533 0
M  V30 5806 O 554.862 0.782172 -5.96796 0
M  V30 5807 H 558.688 -0.620258 -2.97299 0
M  V30 5808 H 556.273 -0.36916 -1.44767 0
M  V30 5809 H 558.155 1.66163 -3.87257 0
M  V30 5810 H 556.83 1.80717 -2.68557 0
M  V30 5811 H 555.737 -0.260465 -3.73192 0
M  V30 5812 H 557.07 -0.323049 -4.91139 0
M  V30 5813 N 558.722 1.53707 -0.348139 0
M  V30 5814 C 560.138 1.596 0.00361134 0
M  V30 5815 C 560.338 1.36394 1.4832 0
M  V30 5816 O 559.394 1.16046 2.24253 0
M  V30 5817 C 560.707 2.97512 -0.436682 0
M  V30 5818 C 562.255 3.10568 -0.389416 0
M  V30 5819 C 562.73 4.50866 -0.805249 0
M  V30 5820 N 564.221 4.56929 -0.759616 0
M  V30 5821 C 564.956 5.63643 -1.05327 0
M  V30 5822 N 564.452 6.78189 -1.41531 0
M  V30 5823 N 566.245 5.5354 -0.977207 0
M  V30 5824 H 558.396 1.67044 -1.31187 0
M  V30 5825 H 560.659 0.782559 -0.535075 0
M  V30 5826 H 560.365 3.19575 -1.46849 0
M  V30 5827 H 560.239 3.76742 0.185744 0
M  V30 5828 H 562.626 2.88226 0.633228 0
M  V30 5829 H 562.707 2.33387 -1.04711 0
M  V30 5830 H 562.351 4.73943 -1.82593 0
M  V30 5831 H 562.281 5.26452 -0.124989 0
M  V30 5832 H 564.772 3.74675 -0.49265 0
M  V30 5833 H 565.085 7.55541 -1.62411 0
M  V30 5834 H 563.43 6.79624 -1.45381 0
M  V30 5835 H 566.621 4.62932 -0.693675 0
M  V30 5836 H 566.794 6.36614 -1.2094 0
M  V30 5837 N 560.2 0.0768682 1.57412 0
M  V30 5838 C 561.11 -0.903207 2.16516 0
M  V30 5839 C 562.126 -1.32341 1.12968 0
M  V30 5840 O 563.302 -1.39507 1.45258 0
M  V30 5841 C 560.367 -2.1508 2.71922 0
M  V30 5842 C 559.428 -1.78653 3.90361 0
M  V30 5843 C 558.661 -2.97465 4.43114 0
M  V30 5844 O 558.884 -4.11638 3.94854 0
M  V30 5845 O 557.818 -2.76987 5.3438 0
M  V30 5846 H 561.644 -0.430427 3.00634 0
M  V30 5847 H 559.229 -0.146485 1.4868 0
M  V30 5848 H 561.111 -2.8823 3.07411 0
M  V30 5849 H 559.786 -2.61446 1.9086 0
M  V30 5850 H 558.693 -1.0274 3.59716 0
M  V30 5851 H 560.026 -1.37066 4.7273 0
M  V30 5852 N 561.678 -1.56367 -0.196722 0
M  V30 5853 C 562.625 -1.94417 -1.24382 0
M  V30 5854 C 563.595 -0.804543 -1.45315 0
M  V30 5855 O 564.78 -1.06256 -1.58475 0
M  V30 5856 C 561.92 -2.28757 -2.58388 0
M  V30 5857 C 561.033 -3.55775 -2.45047 0
M  V30 5858 C 560.168 -3.79445 -3.71746 0
M  V30 5859 C 559.207 -4.99894 -3.53231 0
M  V30 5860 N 558.344 -5.19826 -4.71938 0
M  V30 5861 H 563.184 -2.83691 -0.912338 0
M  V30 5862 H 560.721 -1.40392 -0.439135 0
M  V30 5863 H 562.679 -2.46682 -3.36457 0
M  V30 5864 H 561.309 -1.42625 -2.89582 0
M  V30 5865 H 560.361 -3.45905 -1.58284 0
M  V30 5866 H 561.673 -4.44 -2.27299 0
M  V30 5867 H 560.827 -3.97601 -4.58256 0
M  V30 5868 H 559.566 -2.89546 -3.92446 0
M  V30 5869 H 558.571 -4.81662 -2.65107 0
M  V30 5870 H 559.796 -5.913 -3.33978 0
M  V30 5871 H 557.742 -4.32875 -4.92905 0
M  V30 5872 H 557.659 -6.02228 -4.57009 0
M  V30 5873 H 558.927 -5.42439 -5.59803 0
M  V30 5874 N 563.156 0.464375 -1.50603 0
M  V30 5875 C 564.119 1.54393 -1.69397 0
M  V30 5876 C 565.119 1.50566 -0.564504 0
M  V30 5877 O 566.309 1.53066 -0.831645 0
M  V30 5878 C 563.441 2.9401 -1.72543 0
M  V30 5879 H 564.634 1.39044 -2.65719 0
M  V30 5880 H 562.187 0.69122 -1.40185 0
M  V30 5881 H 562.922 3.14795 -0.77938 0
M  V30 5882 H 562.707 2.98195 -2.54602 0
M  V30 5883 H 564.197 3.72375 -1.89015 0
M  V30 5884 N 564.634 1.40294 0.718013 0
M  V30 5885 C 565.581 1.40367 1.8321 0
M  V30 5886 C 566.551 0.260952 1.64037 0
M  V30 5887 O 567.736 0.458648 1.85205 0
M  V30 5888 C 564.876 1.26965 3.20895 0
M  V30 5889 C 563.989 2.50922 3.51656 0
M  V30 5890 C 563.124 2.29981 4.78834 0
M  V30 5891 C 562.163 3.49527 5.02491 0
M  V30 5892 N 561.3 3.27796 6.20882 0
M  V30 5893 H 566.14 2.35593 1.82482 0
M  V30 5894 H 563.677 1.17012 0.891444 0
M  V30 5895 H 565.635 1.17202 4.00399 0
M  V30 5896 H 564.265 0.353591 3.20858 0
M  V30 5897 H 563.317 2.71223 2.66725 0
M  V30 5898 H 564.629 3.39913 3.65048 0
M  V30 5899 H 563.783 2.17558 5.66351 0
M  V30 5900 H 562.522 1.38411 4.67647 0
M  V30 5901 H 561.527 3.6243 4.1343 0
M  V30 5902 H 562.752 4.42021 5.15553 0
M  V30 5903 H 560.698 2.38906 6.1095 0
M  V30 5904 H 560.615 4.10351 6.34939 0
M  V30 5905 H 561.883 3.19101 7.11193 0
M  V30 5906 N 566.112 -0.949982 1.2575 0
M  V30 5907 C 567.075 -2.02894 1.06615 0
M  V30 5908 C 568.075 -1.60791 0.0173905 0
M  V30 5909 O 569.265 -1.72249 0.260003 0
M  V30 5910 C 566.397 -3.35219 0.619751 0
M  V30 5911 H 567.59 -2.21302 2.02399 0
M  V30 5912 H 565.143 -1.12772 1.08223 0
M  V30 5913 H 565.878 -3.22508 -0.340486 0
M  V30 5914 H 565.663 -3.67129 1.37692 0
M  V30 5915 H 567.153 -4.14505 0.507443 0
M  V30 5916 N 567.59 -1.07411 -1.15328 0
M  V30 5917 C 569.006 -0.799759 -1.38116 0
M  V30 5918 C 569.206 0.59572 -1.92493 0
M  V30 5919 O 568.262 1.35433 -2.13106 0
M  V30 5920 C 569.575 -1.87407 -2.35158 0
M  V30 5921 C 571.123 -1.89889 -2.48819 0
M  V30 5922 C 571.598 -2.96406 -3.49153 0
M  V30 5923 N 573.089 -2.95512 -3.56689 0
M  V30 5924 C 573.824 -3.74575 -4.34144 0
M  V30 5925 N 573.32 -4.63488 -5.14928 0
M  V30 5926 N 575.113 -3.62919 -4.29239 0
M  V30 5927 H 567.264 -1.97411 -0.78374 0
M  V30 5928 H 569.527 -0.856113 -0.407154 0
M  V30 5929 H 569.233 -2.8768 -2.0232 0
M  V30 5930 H 569.107 -1.73471 -3.34944 0
M  V30 5931 H 571.494 -0.902677 -2.80955 0
M  V30 5932 H 571.575 -2.07904 -1.49029 0
M  V30 5933 H 571.219 -3.96227 -3.17752 0
M  V30 5934 H 571.149 -2.75638 -4.48699 0
M  V30 5935 H 573.64 -2.31061 -2.99031 0
M  V30 5936 H 573.953 -5.20445 -5.71276 0
M  V30 5937 H 572.298 -4.67537 -5.14232 0
M  V30 5938 H 575.489 -2.92833 -3.65194 0
M  V30 5939 H 575.662 -4.24777 -4.89355 0
M  V30 5940 N 569.068 1.32177 -0.85831 0
M  V30 5941 C 570.316 1.96735 -0.462568 0
M  V30 5942 C 570.637 1.6824 0.985911 0
M  V30 5943 O 569.907 0.991564 1.68952 0
M  V30 5944 H 568.487 0.727849 -0.168064 0
M  V30 5945 H 571.149 1.61195 -1.09554 0
M  V30 5946 H 570.245 3.06068 -0.610647 0
M  V30 5947 N 570.547 0.616602 1.45037 0
M  V30 5948 C 571.824 0.0469086 1.95544 0
M  V30 5949 C 572.204 -1.42345 1.55888 0
M  V30 5950 O 571.552 -2.13055 0.825824 0
M  V30 5951 C 571.762 0.254489 3.48071 0
M  V30 5952 C 573.11 0.140025 4.24369 0
M  V30 5953 O 574.134 0.185084 3.55719 0
M  V30 5954 O 572.993 0.0327034 5.4649 0
M  V30 5955 H 570.087 -0.0306051 0.826433 0
M  V30 5956 H 572.633 0.687293 1.55159 0
M  V30 5957 H 571.405 1.27532 3.69934 0
M  V30 5958 H 571.028 -0.42073 3.95368 0
M  V30 5959 N 572.025 -1.5352 0.356285 0
M  V30 5960 C 573.272 -2.01117 -0.236303 0
M  V30 5961 C 573.6 -1.24381 -1.49531 0
M  V30 5962 O 572.855 -0.323057 -1.93015 0
M  V30 5963 C 573.154 -3.52607 -0.583369 0
M  V30 5964 C 572.82 -4.47151 0.58023 0
M  V30 5965 C 571.482 -4.72718 0.899528 0
M  V30 5966 C 573.834 -5.03137 1.36024 0
M  V30 5967 C 571.162 -5.51523 2.00098 0
M  V30 5968 C 573.514 -5.83145 2.45204 0
M  V30 5969 C 572.178 -6.07001 2.77679 0
M  V30 5970 H 571.448 -0.735938 -0.0864695 0
M  V30 5971 H 574.095 -1.85209 0.48683 0
M  V30 5972 H 572.4 -3.66413 -1.38739 0
M  V30 5973 H 574.097 -3.86901 -1.05397 0
M  V30 5974 H 570.687 -4.27394 0.321322 0
M  V30 5975 H 574.871 -4.83339 1.12682 0
M  V30 5976 H 570.127 -5.68229 2.25668 0
M  V30 5977 H 574.301 -6.25537 3.06067 0
M  V30 5978 H 571.928 -6.67851 3.63151 0
M  V30 5979 N 573.503 -0.0852151 -1.57369 0
M  V30 5980 C 574.435 0.907099 -2.10486 0
M  V30 5981 C 575.448 1.25259 -1.03991 0
M  V30 5982 O 576.637 1.20743 -1.31467 0
M  V30 5983 C 573.737 2.21908 -2.56145 0
M  V30 5984 C 572.91 2.05042 -3.86363 0
M  V30 5985 C 571.969 3.19664 -4.17973 0
M  V30 5986 O 570.995 2.94062 -4.87356 0
M  V30 5987 N 572.197 4.45151 -3.72587 0
M  V30 5988 H 574.962 0.453505 -2.96249 0
M  V30 5989 H 572.523 0.100157 -1.6159 0
M  V30 5990 H 574.515 2.97519 -2.74343 0
M  V30 5991 H 573.085 2.58723 -1.75446 0
M  V30 5992 H 572.305 1.13819 -3.77411 0
M  V30 5993 H 573.593 1.91039 -4.71574 0
M  V30 5994 H 572.991 4.68834 -3.16561 0
M  V30 5995 H 571.548 5.17744 -3.9596 0
M  V30 5996 N 574.981 1.5647 0.188427 0
M  V30 5997 C 575.928 1.95073 1.23349 0
M  V30 5998 C 576.898 0.812238 1.44886 0
M  V30 5999 O 578.083 1.07095 1.57909 0
M  V30 6000 C 575.223 2.30124 2.57171 0
M  V30 6001 C 574.336 3.57069 2.43157 0
M  V30 6002 C 573.471 3.81411 3.69729 0
M  V30 6003 C 572.51 5.0176 3.50575 0
M  V30 6004 N 571.647 5.22321 4.69175 0
M  V30 6005 H 576.487 2.84171 0.89728 0
M  V30 6006 H 574.024 1.40623 0.431683 0
M  V30 6007 H 575.982 2.48463 3.35145 0
M  V30 6008 H 574.612 1.44159 2.88822 0
M  V30 6009 H 573.664 3.4674 1.56447 0
M  V30 6010 H 574.976 4.452 2.24942 0
M  V30 6011 H 574.13 4.00026 4.56141 0
M  V30 6012 H 572.869 2.91624 3.90905 0
M  V30 6013 H 571.874 4.83061 2.62549 0
M  V30 6014 H 573.099 5.93063 3.30837 0
M  V30 6015 H 571.045 4.35483 4.90602 0
M  V30 6016 H 570.962 6.04643 4.53809 0
M  V30 6017 H 572.23 5.45401 5.56919 0
M  V30 6018 N 576.459 -0.456382 1.50847 0
M  V30 6019 C 577.391 -1.57033 1.66953 0
M  V30 6020 C 578.404 -1.53207 0.550593 0
M  V30 6021 O 579.593 -1.58328 0.824285 0
M  V30 6022 C 576.693 -2.95937 1.65149 0
M  V30 6023 C 575.866 -3.24475 2.93317 0
M  V30 6024 C 574.925 -4.43007 2.83957 0
M  V30 6025 O 573.951 -4.42592 3.57912 0
M  V30 6026 N 575.153 -5.45503 1.9851 0
M  V30 6027 H 577.918 -1.43629 2.63042 0
M  V30 6028 H 575.479 -0.645037 1.48495 0
M  V30 6029 H 577.471 -3.73224 1.56481 0
M  V30 6030 H 576.041 -3.03036 0.767343 0
M  V30 6031 H 575.261 -2.35664 3.16 0
M  V30 6032 H 576.549 -3.4036 3.78196 0
M  V30 6033 H 575.947 -5.48668 1.37766 0
M  V30 6034 H 574.504 -6.21716 1.95735 0
M  V30 6035 N 577.937 -1.40673 -0.710563 0
M  V30 6036 C 579.353 -1.22813 -1.01928 0
M  V30 6037 C 579.553 -0.10687 -2.01216 0
M  V30 6038 O 578.609 0.533614 -2.46797 0
M  V30 6039 C 579.922 -2.57178 -1.5582 0
M  V30 6040 C 581.47 -2.64233 -1.67779 0
M  V30 6041 C 581.945 -3.98879 -2.25076 0
M  V30 6042 N 583.436 -4.00647 -2.32456 0
M  V30 6043 C 584.171 -5.01621 -2.77784 0
M  V30 6044 N 583.667 -6.12989 -3.22826 0
M  V30 6045 N 585.46 -4.88988 -2.77213 0
M  V30 6046 H 577.611 -2.12335 -0.05253 0
M  V30 6047 H 579.874 -0.9441 -0.085898 0
M  V30 6048 H 579.58 -3.39903 -0.903249 0
M  V30 6049 H 579.454 -2.78618 -2.54267 0
M  V30 6050 H 581.841 -1.81876 -2.3239 0
M  V30 6051 H 581.922 -2.46619 -0.679178 0
M  V30 6052 H 581.566 -4.81678 -1.61086 0
M  V30 6053 H 581.496 -4.13826 -3.25661 0
M  V30 6054 H 583.987 -3.20231 -2.0065 0
M  V30 6055 H 584.3 -6.85921 -3.55995 0
M  V30 6056 H 582.645 -6.16547 -3.20773 0
M  V30 6057 H 585.836 -4.01075 -2.41363 0
M  V30 6058 H 586.009 -5.67822 -3.12221 0
M  V30 6059 N 579.415 0.9433 -1.26252 0
M  V30 6060 C 580.325 2.07532 -1.09397 0
M  V30 6061 C 581.341 1.73977 -0.0280449 0
M  V30 6062 O 582.517 2.00067 -0.231337 0
M  V30 6063 C 579.582 3.39002 -0.726523 0
M  V30 6064 C 578.643 3.86353 -1.87163 0
M  V30 6065 C 577.876 5.11549 -1.52162 0
M  V30 6066 O 578.099 5.68834 -0.422385 0
M  V30 6067 O 577.033 5.53889 -2.35565 0
M  V30 6068 H 580.859 2.24658 -2.04359 0
M  V30 6069 H 578.444 1.05988 -1.05295 0
M  V30 6070 H 580.326 4.18 -0.534236 0
M  V30 6071 H 579.001 3.2312 0.193721 0
M  V30 6072 H 577.908 3.0831 -2.11886 0
M  V30 6073 H 579.241 4.06752 -2.77152 0
M  V30 6074 N 580.893 1.08022 1.14757 0
M  V30 6075 C 581.84 0.706657 2.19716 0
M  V30 6076 C 582.81 -0.30525 1.63271 0
M  V30 6077 O 583.995 -0.19015 1.8985 0
M  V30 6078 C 581.135 0.117914 3.44898 0
M  V30 6079 C 580.248 1.18212 4.15512 0
M  V30 6080 C 579.383 0.557659 5.28265 0
M  V30 6081 C 578.422 1.60418 5.90705 0
M  V30 6082 N 577.559 1.0018 6.94916 0
M  V30 6083 H 582.399 1.60603 2.51019 0
M  V30 6084 H 579.936 0.802664 1.23271 0
M  V30 6085 H 581.894 -0.241112 4.16503 0
M  V30 6086 H 580.524 -0.744788 3.1409 0
M  V30 6087 H 579.576 1.65863 3.42335 0
M  V30 6088 H 580.888 1.97533 4.5802 0
M  V30 6089 H 580.042 0.146654 6.06523 0
M  V30 6090 H 578.781 -0.267249 4.86967 0
M  V30 6091 H 577.786 2.02489 5.11154 0
M  V30 6092 H 579.011 2.43149 6.34078 0
M  V30 6093 H 576.957 0.197917 6.55701 0
M  V30 6094 H 576.874 1.73216 7.35889 0
M  V30 6095 H 578.142 0.616523 7.77058 0
M  V30 6096 N 582.371 -1.3172 0.865308 0
M  V30 6097 C 583.303 -2.27545 0.274906 0
M  V30 6098 C 584.316 -1.52887 -0.559413 0
M  V30 6099 O 585.505 -1.74361 -0.382166 0
M  V30 6100 C 582.605 -3.33006 -0.629286 0
M  V30 6101 C 581.778 -4.37063 0.171553 0
M  V30 6102 C 580.837 -5.22044 -0.660052 0
M  V30 6103 O 579.863 -5.69129 -0.0897527 0
M  V30 6104 N 581.065 -5.45946 -1.97289 0
M  V30 6105 H 583.83 -2.78848 1.09836 0
M  V30 6106 H 581.391 -1.44693 0.726331 0
M  V30 6107 H 583.383 -3.86772 -1.19121 0
M  V30 6108 H 581.953 -2.81782 -1.35342 0
M  V30 6109 H 581.173 -3.83436 0.914919 0
M  V30 6110 H 582.461 -5.03662 0.721235 0
M  V30 6111 H 581.859 -5.0944 -2.45942 0
M  V30 6112 H 580.416 -6.02665 -2.4827 0
M  V30 6113 N 583.85 -0.624285 -1.44708 0
M  V30 6114 C 584.782 0.12305 -2.28869 0
M  V30 6115 C 585.795 0.81557 -1.40898 0
M  V30 6116 O 586.984 0.678162 -1.65116 0
M  V30 6117 C 584.084 1.19612 -3.1709 0
M  V30 6118 C 583.257 0.587452 -4.33437 0
M  V30 6119 C 582.316 1.55358 -5.02743 0
M  V30 6120 O 581.341 1.07338 -5.58988 0
M  V30 6121 N 582.543 2.88798 -5.03563 0
M  V30 6122 H 585.308 -0.599193 -2.93649 0
M  V30 6123 H 582.87 -0.464954 -1.5508 0
M  V30 6124 H 584.861 1.84261 -3.60319 0
M  V30 6125 H 583.432 1.82067 -2.54107 0
M  V30 6126 H 582.652 -0.237509 -3.93484 0
M  V30 6127 H 583.94 0.161326 -5.08544 0
M  V30 6128 H 583.338 3.30399 -4.59188 0
M  V30 6129 H 581.894 3.48826 -5.50603 0
M  V30 6130 N 585.328 1.53329 -0.364422 0
M  V30 6131 C 586.261 2.22052 0.526145 0
M  V30 6132 C 587.239 1.21203 1.08391 0
M  V30 6133 O 588.423 1.50101 1.14026 0
M  V30 6134 C 585.55 2.91432 1.72583 0
M  V30 6135 C 584.596 4.06345 1.29562 0
M  V30 6136 S 585.429 5.34671 0.297885 0
M  V30 6137 C 586.585 6.07563 1.50392 0
M  V30 6138 H 586.818 2.97244 -0.0575055 0
M  V30 6139 H 584.351 1.53684 -0.148525 0
M  V30 6140 H 586.309 3.3202 2.41398 0
M  V30 6141 H 584.97 2.15966 2.28073 0
M  V30 6142 H 584.163 4.53901 2.19067 0
M  V30 6143 H 583.765 3.67642 0.686696 0
M  V30 6144 H 586.057 6.32224 2.43513 0
M  V30 6145 H 587 6.99973 1.06977 0
M  V30 6146 H 587.408 5.37994 1.70945 0
M  V30 6147 N 586.806 0.0935595 1.57322 0
M  V30 6148 C 587.716 -0.880192 2.17462 0
M  V30 6149 C 588.732 -1.31135 1.14366 0
M  V30 6150 O 589.908 -1.37958 1.46729 0
M  V30 6151 C 586.973 -2.12184 2.74188 0
M  V30 6152 C 586.034 -1.74503 3.92234 0
M  V30 6153 C 585.267 -2.92748 4.46245 0
M  V30 6154 O 585.49 -4.07427 3.99198 0
M  V30 6155 O 584.424 -2.71303 5.37288 0
M  V30 6156 H 588.25 -0.398516 3.01074 0
M  V30 6157 H 585.835 -0.130707 1.48827 0
M  V30 6158 H 587.717 -2.84953 3.10451 0
M  V30 6159 H 586.392 -2.59407 1.93623 0
M  V30 6160 H 585.299 -0.989186 3.60785 0
M  V30 6161 H 586.632 -1.32044 4.74157 0
M  V30 6162 N 588.284 -1.56567 -0.180126 0
M  V30 6163 C 589.194 -1.98947 -1.24327 0
M  V30 6164 C 590.21 -0.899446 -1.4895 0
M  V30 6165 O 591.386 -1.20639 -1.61271 0
M  V30 6166 C 588.451 -2.33328 -2.56435 0
M  V30 6167 C 587.512 -3.56114 -2.39752 0
M  V30 6168 C 586.745 -3.88845 -3.65561 0
M  V30 6169 O 586.968 -3.22662 -4.70368 0
M  V30 6170 O 585.902 -4.82226 -3.60197 0
M  V30 6171 H 589.728 -2.89634 -0.913565 0
M  V30 6172 H 587.313 -1.44319 -0.386306 0
M  V30 6173 H 589.195 -2.5645 -3.34382 0
M  V30 6174 H 587.87 -1.45806 -2.89002 0
M  V30 6175 H 586.777 -3.38221 -1.59866 0
M  V30 6176 H 588.11 -4.4415 -2.12113 0
M  V30 6177 N 589.762 0.448376 -1.51087 0
M  V30 6178 C 591.039 1.20926 -1.53741 0
M  V30 6179 C 591.419 2.09025 -0.295222 0
M  V30 6180 O 590.767 2.16851 0.720283 0
M  V30 6181 C 590.977 2.02067 -2.84552 0
M  V30 6182 C 592.325 2.59486 -3.36084 0
M  V30 6183 O 593.349 2.12289 -2.86028 0
M  V30 6184 O 592.208 3.45539 -4.23397 0
M  V30 6185 H 589.302 0.549951 -0.617643 0
M  V30 6186 H 591.848 0.458344 -1.63393 0
M  V30 6187 H 590.62 1.37291 -3.66425 0
M  V30 6188 H 590.243 2.84246 -2.78011 0
M  V30 6189 N 591.24 1.41047 0.703093 0
M  V30 6190 C 592.17 1.45067 1.82969 0
M  V30 6191 C 593.151 0.31016 1.67248 0
M  V30 6192 O 594.336 0.520548 1.87093 0
M  V30 6193 C 591.466 1.32478 3.2104 0
M  V30 6194 C 590.42 2.44262 3.51454 0
M  V30 6195 C 589.746 2.16742 4.88801 0
M  V30 6196 C 591.046 3.86606 3.51189 0
M  V30 6197 H 592.74 2.39353 1.79863 0
M  V30 6198 H 590.286 1.15206 0.863919 0
M  V30 6199 H 592.239 1.33904 3.99559 0
M  V30 6200 H 590.963 0.346735 3.24754 0
M  V30 6201 H 589.622 2.42107 2.75282 0
M  V30 6202 H 589.27 1.17299 4.89132 0
M  V30 6203 H 588.97 2.91643 5.10116 0
M  V30 6204 H 590.494 2.19872 5.69639 0
M  V30 6205 H 591.908 3.90517 4.19725 0
M  V30 6206 H 590.305 4.61128 3.84033 0
M  V30 6207 H 591.375 4.15296 2.50315 0
M  V30 6208 N 592.718 -0.936591 1.26751 0
M  V30 6209 C 594.134 -1.21095 1.03963 0
M  V30 6210 C 594.334 -2.00156 -0.232372 0
M  V30 6211 O 593.39 -2.3434 -0.940274 0
M  V30 6212 C 594.703 -1.96775 2.27377 0
M  V30 6213 C 596.251 -2.09749 2.32324 0
M  V30 6214 C 596.726 -2.88832 3.55443 0
M  V30 6215 N 598.217 -2.96404 3.55948 0
M  V30 6216 C 598.952 -3.58036 4.47881 0
M  V30 6217 N 598.448 -4.21132 5.50109 0
M  V30 6218 N 600.241 -3.55353 4.35523 0
M  V30 6219 H 592.392 -0.408173 2.08441 0
M  V30 6220 H 594.655 -0.243139 0.91629 0
M  V30 6221 H 594.361 -1.46094 3.19921 0
M  V30 6222 H 594.235 -2.97424 2.31989 0
M  V30 6223 H 596.622 -2.5962 1.40291 0
M  V30 6224 H 596.703 -1.08347 2.31721 0
M  V30 6225 H 596.347 -2.39647 4.47808 0
M  V30 6226 H 596.277 -3.90499 3.53296 0
M  V30 6227 H 598.768 -2.51552 2.82011 0
M  V30 6228 H 599.081 -4.66071 6.16439 0
M  V30 6229 H 597.426 -4.19705 5.53961 0
M  V30 6230 H 600.617 -3.05256 3.54875 0
M  V30 6231 H 600.79 -4.03097 5.07363 0
M  V30 6232 N 594.196 -1.08629 -1.14182 0
M  V30 6233 C 595.444 -0.815731 -1.84906 0
M  V30 6234 C 595.765 0.660441 -1.83475 0
M  V30 6235 O 595.035 1.47888 -1.28476 0
M  V30 6236 H 593.615 -0.298773 -0.684648 0
M  V30 6237 H 596.277 -1.37274 -1.38354 0
M  V30 6238 H 595.373 -1.16193 -2.89665 0
M  V30 6239 N 595.674 1.31259 -0.872281 0
M  V30 6240 C 596.904 2.00504 -0.498183 0
M  V30 6241 C 597.312 1.65632 0.914479 0
M  V30 6242 O 596.655 0.882849 1.61095 0
M  V30 6243 C 596.717 3.5482 -0.578194 0
M  V30 6244 C 596.381 4.13172 -1.95289 0
M  V30 6245 C 597.378 4.30107 -2.92069 0
M  V30 6246 C 595.063 4.48846 -2.25483 0
M  V30 6247 C 597.057 4.81908 -4.17185 0
M  V30 6248 C 594.744 5.00349 -3.50847 0
M  V30 6249 C 595.742 5.16831 -4.46514 0
M  V30 6250 O 595.43 5.67228 -5.69656 0
M  V30 6251 H 595.162 0.648055 -0.192354 0
M  V30 6252 H 597.716 1.6841 -1.17589 0
M  V30 6253 H 595.946 3.86383 0.156438 0
M  V30 6254 H 597.635 4.05318 -0.217192 0
M  V30 6255 H 598.401 4.02862 -2.7005 0
M  V30 6256 H 594.28 4.35292 -1.51795 0
M  V30 6257 H 597.824 4.94688 -4.91863 0
M  V30 6258 H 593.721 5.27028 -3.72708 0
M  V30 6259 H 594.489 5.85592 -5.7186 0
M  V30 6260 N 597.152 0.631951 1.44375 0
M  V30 6261 C 598.082 -0.0593243 2.33425 0
M  V30 6262 C 599.063 -0.833964 1.48253 0
M  V30 6263 O 600.248 -0.799682 1.76971 0
M  V30 6264 C 597.378 -1.04096 3.31333 0
M  V30 6265 C 596.332 -0.377899 4.26328 0
M  V30 6266 C 595.658 -1.4695 5.14111 0
M  V30 6267 C 596.958 0.716371 5.17364 0
M  V30 6268 H 598.652 0.684287 2.91475 0
M  V30 6269 H 596.198 0.330518 1.40156 0
M  V30 6270 H 598.151 -1.53331 3.92514 0
M  V30 6271 H 596.875 -1.81547 2.71493 0
M  V30 6272 H 595.534 0.0938054 3.6648 0
M  V30 6273 H 595.182 -2.2349 4.50623 0
M  V30 6274 H 594.882 -1.03121 5.78481 0
M  V30 6275 H 596.406 -1.96363 5.78164 0
M  V30 6276 H 597.82 0.307089 5.72477 0
M  V30 6277 H 596.217 1.07784 5.90341 0
M  V30 6278 H 597.287 1.58316 4.58327 0
M  V30 6279 N 598.631 -1.53133 0.372548 0
M  V30 6280 C 599.908 -1.93704 -0.271693 0
M  V30 6281 C 600.288 -1.30667 -1.65799 0
M  V30 6282 O 599.636 -0.46838 -2.23648 0
M  V30 6283 C 599.846 -3.47576 -0.314903 0
M  V30 6284 C 601.194 -4.20998 -0.551912 0
M  V30 6285 O 602.218 -3.53994 -0.39582 0
M  V30 6286 O 601.077 -5.39748 -0.85639 0
M  V30 6287 H 598.171 -0.810457 -0.164586 0
M  V30 6288 H 600.717 -1.6427 0.425838 0
M  V30 6289 H 599.489 -3.85749 0.656792 0
M  V30 6290 H 599.112 -3.83264 -1.05804 0
M  V30 6291 N 600.109 -0.101901 -1.5727 0
M  V30 6292 C 601.355 0.554864 -1.95686 0
M  V30 6293 C 601.71 1.65368 -0.983415 0
M  V30 6294 O 601.003 1.91597 -0.0105374 0
M  V30 6295 C 601.197 1.14898 -3.38427 0
M  V30 6296 C 601.026 0.109251 -4.49567 0
M  V30 6297 C 599.796 -0.316633 -5.04307 0
M  V30 6298 C 601.994 -0.665196 -5.0998 0
M  V30 6299 N 599.976 -1.34393 -5.99009 0
M  V30 6300 C 601.347 -1.54413 -6.00464 0
M  V30 6301 C 603.402 -0.717966 -4.92696 0
M  V30 6302 C 602.105 -2.47122 -6.75517 0
M  V30 6303 C 604.131 -1.63268 -5.68417 0
M  V30 6304 C 603.493 -2.49923 -6.58572 0
M  V30 6305 H 599.592 0.17317 -0.762585 0
M  V30 6306 H 602.176 -0.18605 -1.93809 0
M  V30 6307 H 600.347 1.85969 -3.40984 0
M  V30 6308 H 602.079 1.76867 -3.64006 0
M  V30 6309 H 598.834 0.0724419 -4.73545 0
M  V30 6310 H 599.258 -1.85598 -6.51062 0
M  V30 6311 H 603.9 -0.0621637 -4.22754 0
M  V30 6312 H 601.618 -3.13724 -7.44717 0
M  V30 6313 H 605.204 -1.67874 -5.57054 0
M  V30 6314 H 604.084 -3.19553 -7.16139 0
M  V30 6315 N 601.587 1.56661 0.17182 0
M  V30 6316 C 602.836 1.81158 0.886831 0
M  V30 6317 C 603.149 0.679072 1.83434 0
M  V30 6318 O 604.355 0.808964 2.59168 0
M  V30 6319 C 602.811 3.20999 1.6275 0
M  V30 6320 C 602.419 4.42117 0.723652 0
M  V30 6321 C 604.163 3.5479 2.33076 0
M  V30 6322 C 602.07 5.7298 1.46452 0
M  V30 6323 H 601 0.675543 0.334899 0
M  V30 6324 H 603.651 1.82967 0.139765 0
M  V30 6325 H 602.033 3.13506 2.4193 0
M  V30 6326 H 603.207 4.60789 -0.0311485 0
M  V30 6327 H 601.522 4.16197 0.130063 0
M  V30 6328 H 604.119 4.49806 2.89099 0
M  V30 6329 H 604.462 2.79646 3.08389 0
M  V30 6330 H 604.995 3.63834 1.6084 0
M  V30 6331 H 601.734 6.51152 0.753729 0
M  V30 6332 H 601.254 5.58285 2.19266 0
M  V30 6333 H 602.933 6.14916 2.01214 0
M  V30 6334 N 603.065 -0.440357 1.51323 0
M  V30 6335 C 604.293 -1.21255 1.67645 0
M  V30 6336 C 604.708 -1.85088 0.37252 0
M  V30 6337 O 604.065 -1.70582 -0.648683 0
M  V30 6338 C 604.116 -2.29881 2.78993 0
M  V30 6339 O 603.837 -1.68659 4.04334 0
M  V30 6340 C 605.338 -3.20214 3.06558 0
M  V30 6341 H 602.558 -0.36558 0.562666 0
M  V30 6342 H 605.102 -0.52214 1.97722 0
M  V30 6343 H 603.257 -2.94643 2.51524 0
M  V30 6344 H 603.671 -2.40426 4.6615 0
M  V30 6345 H 605.145 -3.92575 3.88058 0
M  V30 6346 H 605.622 -3.80794 2.18844 0
M  V30 6347 H 606.228 -2.61156 3.35675 0
M  V30 6348 N 604.543 -1.41418 -0.695603 0
M  V30 6349 C 605.475 -1.39195 -1.82092 0
M  V30 6350 C 606.488 -0.294132 -1.60121 0
M  V30 6351 O 607.677 -0.555854 -1.69625 0
M  V30 6352 C 604.777 -1.14828 -3.18854 0
M  V30 6353 C 603.95 -2.36649 -3.67853 0
M  V30 6354 C 603.009 -2.08139 -4.83285 0
M  V30 6355 O 602.035 -2.81177 -4.94902 0
M  V30 6356 N 603.237 -1.07162 -5.70523 0
M  V30 6357 H 606.002 -2.36185 -1.84491 0
M  V30 6358 H 603.563 -1.3603 -0.877923 0
M  V30 6359 H 605.555 -0.937075 -3.93702 0
M  V30 6360 H 604.125 -0.264358 -3.1148 0
M  V30 6361 H 603.345 -2.73472 -2.83913 0
M  V30 6362 H 604.633 -3.17816 -3.97329 0
M  V30 6363 H 604.031 -0.467124 -5.63768 0
M  V30 6364 H 602.588 -0.920311 -6.4527 0
M  V30 6365 N 606.021 0.929856 -1.27246 0
M  V30 6366 C 606.984 2.01172 -1.09829 0
M  V30 6367 C 607.984 1.60743 -0.0429687 0
M  V30 6368 O 609.174 1.71813 -0.287373 0
M  V30 6369 C 606.306 3.34191 -0.673003 0
M  V30 6370 H 607.499 2.18054 -2.05895 0
M  V30 6371 H 605.052 1.11036 -1.10003 0
M  V30 6372 H 605.787 3.23009 0.289134 0
M  V30 6373 H 605.572 3.64892 -1.43515 0
M  V30 6374 H 607.062 4.13646 -0.573323 0
M  V30 6375 N 607.499 1.09233 1.13605 0
M  V30 6376 C 608.409 0.741939 2.22559 0
M  V30 6377 C 609.425 -0.255236 1.72118 0
M  V30 6378 O 610.601 -0.0970747 2.01166 0
M  V30 6379 C 607.666 0.165595 3.46304 0
M  V30 6380 C 606.727 1.21846 4.11645 0
M  V30 6381 C 605.96 0.669526 5.29484 0
M  V30 6382 O 606.183 -0.508228 5.68131 0
M  V30 6383 O 605.117 1.42361 5.84822 0
M  V30 6384 H 608.943 1.65107 2.54899 0
M  V30 6385 H 606.528 0.866584 1.21699 0
M  V30 6386 H 608.41 -0.152592 4.21124 0
M  V30 6387 H 607.085 -0.716573 3.15669 0
M  V30 6388 H 605.992 1.58931 3.38662 0
M  V30 6389 H 607.325 2.07321 4.46407 0
M  V30 6390 N 608.977 -1.30795 0.87923 0
M  V30 6391 C 609.887 -2.32041 0.345565 0
M  V30 6392 C 610.903 -1.65103 -0.549265 0
M  V30 6393 O 612.079 -1.9645 -0.443763 0
M  V30 6394 C 609.144 -3.43944 -0.436245 0
M  V30 6395 C 608.205 -4.26521 0.48765 0
M  V30 6396 C 607.438 -5.33081 -0.256943 0
M  V30 6397 O 607.661 -5.50762 -1.48381 0
M  V30 6398 O 606.595 -6.00635 0.389985 0
M  V30 6399 H 610.421 -2.79627 1.18501 0
M  V30 6400 H 608.006 -1.3486 0.642885 0
M  V30 6401 H 609.888 -4.12128 -0.879119 0
M  V30 6402 H 608.563 -2.98504 -1.25208 0
M  V30 6403 H 607.47 -3.61057 0.979216 0
M  V30 6404 H 608.803 -4.75551 1.26933 0
M  V30 6405 N 610.455 -0.639598 -1.44038 0
M  V30 6406 C 611.385 0.0469443 -2.33453 0
M  V30 6407 C 612.366 0.82609 -1.48694 0
M  V30 6408 O 613.551 0.790285 -1.77393 0
M  V30 6409 C 610.681 1.02338 -3.3188 0
M  V30 6410 C 609.635 0.355284 -4.26523 0
M  V30 6411 C 608.961 1.44221 -5.14883 0
M  V30 6412 C 610.261 -0.743798 -5.16977 0
M  V30 6413 H 611.955 -0.699735 -2.91108 0
M  V30 6414 H 609.501 -0.337946 -1.39978 0
M  V30 6415 H 611.454 1.51247 -3.93322 0
M  V30 6416 H 610.178 1.80105 -2.72451 0
M  V30 6417 H 608.837 -0.113239 -3.66425 0
M  V30 6418 H 608.485 2.21097 -4.51802 0
M  V30 6419 H 608.185 1.00052 -5.79019 0
M  V30 6420 H 609.709 1.93295 -5.79197 0
M  V30 6421 H 611.123 -0.337444 -5.72306 0
M  V30 6422 H 609.52 -1.10914 -5.89761 0
M  V30 6423 H 610.59 -1.60745 -4.57481 0
M  V30 6424 N 611.933 1.52934 -0.380664 0
M  V30 6425 C 613.21 1.93845 0.261417 0
M  V30 6426 C 613.59 1.31544 1.65104 0
M  V30 6427 O 612.938 0.480234 2.23397 0
M  V30 6428 C 613.148 3.47739 0.296466 0
M  V30 6429 C 614.496 4.21284 0.529578 0
M  V30 6430 O 615.52 3.54199 0.377041 0
M  V30 6431 O 614.379 5.40195 0.827753 0
M  V30 6432 H 611.473 0.811318 0.160285 0
M  V30 6433 H 614.019 1.64042 -0.434544 0
M  V30 6434 H 612.791 3.85395 -0.67724 0
M  V30 6435 H 612.414 3.8382 1.0377 0
M  V30 6436 N 613.412 0.11024 1.57214 0
M  V30 6437 C 614.345 -0.880224 2.1054 0
M  V30 6438 C 615.323 -1.26658 1.01964 0
M  V30 6439 O 616.507 -1.36917 1.29561 0
M  V30 6440 C 613.634 -2.17676 2.59489 0
M  V30 6441 C 612.68 -1.93914 3.79868 0
M  V30 6442 S 613.513 -1.16336 5.2271 0
M  V30 6443 C 614.669 -2.47188 5.75021 0
M  V30 6444 H 614.902 -0.426614 2.94223 0
M  V30 6445 H 612.435 -0.10336 1.54054 0
M  V30 6446 H 614.393 -2.92175 2.88347 0
M  V30 6447 H 613.054 -2.60156 1.76005 0
M  V30 6448 H 612.247 -2.8996 4.12236 0
M  V30 6449 H 611.849 -1.27539 3.51582 0
M  V30 6450 H 614.141 -3.43079 5.84211 0
M  V30 6451 H 615.084 -2.19377 6.7326 0
M  V30 6452 H 615.492 -2.56154 5.03036 0
M  V30 6453 N 614.89 -1.56749 -0.16351 0
M  V30 6454 C 615.8 -2.00255 -1.2221 0
M  V30 6455 C 616.816 -0.915194 -1.47987 0
M  V30 6456 O 617.992 -1.22342 -1.59982 0
M  V30 6457 C 615.057 -2.36035 -2.53946 0
M  V30 6458 C 614.118 -3.58637 -2.35962 0
M  V30 6459 C 613.351 -3.92701 -3.61416 0
M  V30 6460 O 613.574 -3.27632 -4.66919 0
M  V30 6461 O 612.508 -4.86019 -3.55062 0
M  V30 6462 H 616.334 -2.90586 -0.882794 0
M  V30 6463 H 613.919 -1.44721 -0.370978 0
M  V30 6464 H 615.801 -2.59982 -3.31643 0
M  V30 6465 H 614.476 -1.48863 -2.8744 0
M  V30 6466 H 613.383 -3.39898 -1.5627 0
M  V30 6467 H 614.716 -4.46374 -2.0739 0
M  V30 6468 N 616.368 0.432326 -1.51554 0
M  V30 6469 C 617.645 1.19288 -1.55015 0
M  V30 6470 C 618.025 2.08701 -0.317375 0
M  V30 6471 O 617.373 2.17602 0.697243 0
M  V30 6472 C 617.583 1.99037 -2.86679 0
M  V30 6473 C 618.931 2.55907 -3.38817 0
M  V30 6474 O 619.955 2.09243 -2.88263 0
M  V30 6475 O 618.814 3.41029 -4.27038 0
M  V30 6476 H 615.908 0.543369 -0.623441 0
M  V30 6477 H 618.454 0.440988 -1.6387 0
M  V30 6478 H 617.226 1.33397 -3.6786 0
M  V30 6479 H 616.849 2.81281 -2.8101 0
M  V30 6480 N 617.846 1.41785 0.688094 0
M  V30 6481 C 619.257 1.3701 1.26828 0
M  V30 6482 C 619.608 0.056835 1.96118 0
M  V30 6483 O 618.733 -0.84475 1.99231 0
M  V30 6484 C 619.328 2.48168 2.30648 0
M  V30 6485 C 617.887 2.46766 2.84224 0
M  V30 6486 C 617.034 2.27633 1.58361 0
M  V30 6487 H 619.985 1.51192 0.482351 0
M  V30 6488 H 620.006 2.17655 3.121 0
M  V30 6489 H 619.518 3.43735 1.80188 0
M  V30 6490 H 617.619 1.54978 3.3884 0
M  V30 6491 H 617.732 3.43342 3.34145 0
M  V30 6492 H 616.096 1.75648 1.84445 0
M  V30 6493 H 616.879 3.25238 1.09887 0
M  V30 6494 N 619.324 -0.923095 1.27737 0
M  V30 6495 C 620.549 -1.71054 1.17283 0
M  V30 6496 C 620.974 -1.86208 -0.266153 0
M  V30 6497 O 620.332 -1.36545 -1.1927 0
M  V30 6498 C 620.38 -3.0854 1.86642 0
M  V30 6499 O 619.484 -3.95528 1.16752 0
M  V30 6500 H 618.825 -0.524136 0.407649 0
M  V30 6501 H 621.355 -1.15487 1.6889 0
M  V30 6502 H 621.365 -3.58828 1.94182 0
M  V30 6503 H 620.04 -2.96828 2.91317 0
M  V30 6504 H 618.617 -3.53967 1.17312 0
M  V30 6505 N 620.802 -1.09834 -1.13024 0
M  V30 6506 C 621.765 -0.745058 -2.16752 0
M  V30 6507 C 622.765 0.227435 -1.59183 0
M  V30 6508 O 623.955 0.0050786 -1.74199 0
M  V30 6509 C 621.087 -0.102543 -3.40746 0
M  V30 6510 H 622.28 -1.66375 -2.49518 0
M  V30 6511 H 619.833 -0.898061 -1.27924 0
M  V30 6512 H 620.568 0.827177 -3.13573 0
M  V30 6513 H 620.353 -0.80235 -3.83803 0
M  V30 6514 H 621.843 0.129082 -4.174 0
M  V30 6515 N 622.28 1.30327 -0.886154 0
M  V30 6516 C 623.557 1.90922 -0.425217 0
M  V30 6517 C 623.937 1.80533 1.09413 0
M  V30 6518 O 623.285 1.2233 1.92996 0
M  V30 6519 C 623.495 3.36529 -0.924638 0
M  V30 6520 C 624.843 4.13598 -0.960305 0
M  V30 6521 O 625.867 3.45377 -0.871382 0
M  V30 6522 O 624.726 5.35482 -1.09184 0
M  V30 6523 H 621.82 0.81668 -0.130238 0
M  V30 6524 H 624.366 1.38886 -0.975132 0
M  V30 6525 H 623.138 3.38181 -1.96849 0
M  V30 6526 H 622.761 3.96021 -0.353955 0
M  V30 6527 N 623.758 0.647228 1.43697 0
M  V30 6528 C 625.035 0.0883758 1.954 0
M  V30 6529 C 625.415 -1.39006 1.58873 0
M  V30 6530 O 624.763 -2.11255 0.87083 0
M  V30 6531 C 624.973 0.328263 3.47453 0
M  V30 6532 C 626.321 0.230009 4.23977 0
M  V30 6533 O 627.345 0.260496 3.55246 0
M  V30 6534 O 626.204 0.148615 5.46298 0
M  V30 6535 H 623.298 -0.0130683 0.826897 0
M  V30 6536 H 625.844 0.72005 1.53666 0
M  V30 6537 H 624.616 1.3535 3.67146 0
M  V30 6538 H 624.239 -0.336772 3.96171 0
M  V30 6539 N 625.236 -1.5273 0.388769 0
M  V30 6540 C 626.184 -2.27975 -0.461527 0
M  V30 6541 C 627.178 -1.31854 -1.06352 0
M  V30 6542 O 628.384 -1.49394 -1.00406 0
M  V30 6543 H 624.759 -0.733088 -0.16759 0
M  V30 6544 H 626.73 -2.97765 0.194579 0
M  V30 6545 C 625.479 -3.09881 -1.577 0
M  V30 6546 H 624.802 -3.83701 -1.12309 0
M  V30 6547 H 626.242 -3.6567 -2.14619 0
M  V30 6548 C 624.701 -2.22159 -2.53272 0
M  V30 6549 O 625.231 -1.84802 -3.56667 0
M  V30 6550 N 623.437 -1.8633 -2.23001 0
M  V30 6551 H 622.984 -2.16909 -1.38954 0
M  V30 6552 H 622.942 -1.27927 -2.87197 0
M  V30 6553 N 626.714 -0.118576 -1.57153 0
M  V30 6554 C 627.644 0.828436 -2.1831 0
M  V30 6555 C 628.625 1.27758 -1.12303 0
M  V30 6556 O 629.81 1.34026 -1.40537 0
M  V30 6557 C 626.94 2.07876 -2.78217 0
M  V30 6558 C 625.894 1.76742 -3.89803 0
M  V30 6559 C 625.22 3.08801 -4.36516 0
M  V30 6560 C 626.52 1.03606 -5.11921 0
M  V30 6561 H 628.214 0.318824 -2.97698 0
M  V30 6562 H 625.76 0.151911 -1.43196 0
M  V30 6563 H 627.713 2.74584 -3.19659 0
M  V30 6564 H 626.437 2.61161 -1.96118 0
M  V30 6565 H 625.096 1.12424 -3.48936 0
M  V30 6566 H 624.744 3.6002 -3.51276 0
M  V30 6567 H 624.444 2.88743 -5.11763 0
M  V30 6568 H 625.968 3.76627 -4.80608 0
M  V30 6569 H 627.382 1.60467 -5.50385 0
M  V30 6570 H 625.779 0.936454 -5.92748 0
M  V30 6571 H 626.849 0.0227421 -4.84895 0
M  V30 6572 N 628.193 1.56834 0.155195 0
M  V30 6573 C 629.441 1.82536 0.867462 0
M  V30 6574 C 629.762 0.698168 1.82073 0
M  V30 6575 O 629.032 -0.280807 1.93877 0
M  V30 6576 H 627.612 0.673401 0.323327 0
M  V30 6577 H 630.274 1.94313 0.151156 0
M  V30 6578 H 629.37 2.77171 1.43466 0
M  V30 6579 N 629.671 -0.424282 1.51781 0
M  V30 6580 C 630.896 -1.19928 1.6921 0
M  V30 6581 C 631.321 -1.8392 0.394355 0
M  V30 6582 O 630.679 -1.69371 -0.646778 0
M  V30 6583 C 630.727 -2.24937 2.81843 0
M  V30 6584 O 629.831 -3.3073 2.46356 0
M  V30 6585 H 629.172 -0.35078 0.563781 0
M  V30 6586 H 631.702 -0.499401 1.98412 0
M  V30 6587 H 631.712 -2.69512 3.06312 0
M  V30 6588 H 630.387 -1.77742 3.76006 0
M  V30 6589 H 628.964 -2.9154 2.32505 0
M  V30 6590 N 631.149 -1.42148 -0.680565 0
M  V30 6591 C 632.082 -1.39602 -1.80517 0
M  V30 6592 C 633.06 -0.261098 -1.6049 0
M  V30 6593 O 634.244 -0.450404 -1.8304 0
M  V30 6594 C 631.371 -1.18134 -3.1743 0
M  V30 6595 C 630.417 -2.34543 -3.56219 0
M  V30 6596 S 631.25 -3.97063 -3.59306 0
M  V30 6597 C 632.406 -3.77926 -4.98921 0
M  V30 6598 H 632.639 -2.3477 -1.82402 0
M  V30 6599 H 630.172 -1.28851 -0.850691 0
M  V30 6600 H 632.13 -1.06434 -3.96462 0
M  V30 6601 H 630.791 -0.245611 -3.13138 0
M  V30 6602 H 629.984 -2.15255 -4.55721 0
M  V30 6603 H 629.586 -2.42728 -2.84533 0
M  V30 6604 H 631.878 -3.3856 -5.86842 0
M  V30 6605 H 632.821 -4.77084 -5.23256 0
M  V30 6606 H 633.229 -3.10904 -4.71167 0
M  V30 6607 N 632.627 0.916307 -1.28225 0
M  V30 6608 C 633.59 1.99996 -1.11957 0
M  V30 6609 C 634.59 1.60688 -0.0600152 0
M  V30 6610 O 635.78 1.71499 -0.30558 0
M  V30 6611 C 632.912 3.33458 -0.708411 0
M  V30 6612 H 634.105 2.15858 -2.08196 0
M  V30 6613 H 631.658 1.09863 -1.11175 0
M  V30 6614 H 632.393 3.23297 0.254859 0
M  V30 6615 H 632.178 3.63349 -1.47377 0
M  V30 6616 H 633.668 4.13014 -0.617164 0
M  V30 6617 N 634.105 1.10431 1.1244 0
M  V30 6618 C 635.015 0.765502 2.21759 0
M  V30 6619 C 636.031 -0.236966 1.72379 0
M  V30 6620 O 637.207 -0.0757329 2.01258 0
M  V30 6621 C 634.272 0.202316 3.46109 0
M  V30 6622 C 633.333 1.26205 4.1033 0
M  V30 6623 C 632.566 0.725648 5.28744 0
M  V30 6624 O 632.789 -0.447942 5.68638 0
M  V30 6625 O 631.723 1.48555 5.83279 0
M  V30 6626 H 635.549 1.67801 2.53133 0
M  V30 6627 H 633.134 0.879443 1.20773 0
M  V30 6628 H 635.016 -0.107918 4.21262 0
M  V30 6629 H 633.691 -0.683052 3.16411 0
M  V30 6630 H 632.598 1.62514 3.36957 0
M  V30 6631 H 633.931 2.12044 4.44183 0
M  V30 6632 N 635.583 -1.29855 0.893053 0
M  V30 6633 C 636.493 -2.31661 0.370157 0
M  V30 6634 C 637.509 -1.65677 -0.531723 0
M  V30 6635 O 638.685 -1.9691 -0.422902 0
M  V30 6636 C 635.75 -3.44388 -0.399741 0
M  V30 6637 C 634.811 -4.2598 0.532861 0
M  V30 6638 C 634.044 -5.33324 -0.200388 0
M  V30 6639 O 634.267 -5.52305 -1.42531 0
M  V30 6640 O 633.201 -6.00188 0.453668 0
M  V30 6641 H 637.027 -2.78354 1.2146 0
M  V30 6642 H 634.612 -1.34171 0.657153 0
M  V30 6643 H 636.494 -4.13037 -0.835358 0
M  V30 6644 H 635.169 -2.99815 -1.22035 0
M  V30 6645 H 634.076 -3.59998 1.01746 0
M  V30 6646 H 635.409 -4.74178 1.3197 0
M  V30 6647 N 637.061 -0.65484 -1.43351 0
M  V30 6648 C 638.309 -0.168559 -2.01396 0
M  V30 6649 C 638.63 1.22235 -1.51933 0
M  V30 6650 O 637.9 1.81685 -0.732627 0
M  V30 6651 H 636.48 -0.0593244 -0.744641 0
M  V30 6652 H 639.142 -0.846871 -1.75539 0
M  V30 6653 H 638.238 -0.154428 -3.11718 0
M  V30 6654 N 638.539 1.52521 -0.396863 0
M  V30 6655 C 639.955 1.5953 -0.0471659 0
M  V30 6656 C 640.155 1.41044 1.43906 0
M  V30 6657 O 639.211 1.23122 2.20448 0
M  V30 6658 C 640.524 2.95972 -0.531113 0
M  V30 6659 C 642.072 3.09172 -0.488024 0
M  V30 6660 C 642.547 4.48075 -0.948281 0
M  V30 6661 N 644.038 4.54281 -0.9046 0
M  V30 6662 C 644.773 5.60007 -1.23205 0
M  V30 6663 N 644.269 6.73343 -1.63036 0
M  V30 6664 N 646.062 5.50151 -1.15282 0
M  V30 6665 H 638.213 1.62786 -1.36435 0
M  V30 6666 H 640.476 0.76514 -0.559701 0
M  V30 6667 H 640.182 3.14741 -1.56942 0
M  V30 6668 H 640.056 3.77143 0.0657922 0
M  V30 6669 H 642.443 2.90095 0.541211 0
M  V30 6670 H 642.524 2.29937 -1.12083 0
M  V30 6671 H 642.168 4.67894 -1.97578 0
M  V30 6672 H 642.098 5.25788 -0.292412 0
M  V30 6673 H 644.589 3.72918 -0.6116 0
M  V30 6674 H 644.902 7.49992 -1.86365 0
M  V30 6675 H 643.247 6.74655 -1.66929 0
M  V30 6676 H 646.438 4.6049 -0.840602 0
M  V30 6677 H 646.611 6.32444 -1.41133 0
M  V30 6678 N 640.017 0.126909 1.57088 0
M  V30 6679 C 640.98 -0.806097 2.14557 0
M  V30 6680 C 641.98 -1.18918 1.08236 0
M  V30 6681 O 643.17 -1.11339 1.33975 0
M  V30 6682 C 640.302 -2.09116 2.69227 0
M  V30 6683 H 641.495 -0.306522 2.98329 0
M  V30 6684 H 639.048 -0.122393 1.5582 0
M  V30 6685 H 639.783 -2.63486 1.89065 0
M  V30 6686 H 639.568 -1.82588 3.46993 0
M  V30 6687 H 641.058 -2.75794 3.13572 0
M  V30 6688 N 641.495 -1.56914 -0.146875 0
M  V30 6689 C 642.743 -1.82994 -0.85777 0
M  V30 6690 C 643.064 -0.707814 -1.817 0
M  V30 6691 O 642.334 0.270521 -1.94023 0
M  V30 6692 H 640.914 -0.675106 -0.319751 0
M  V30 6693 H 643.576 -1.9439 -0.140849 0
M  V30 6694 H 642.672 -2.77928 -1.41994 0
M  V30 6695 N 642.974 0.416227 -1.52004 0
M  V30 6696 C 643.924 1.50558 -1.7122 0
M  V30 6697 C 644.908 1.50613 -0.56609 0
M  V30 6698 O 646.1 1.56709 -0.822874 0
M  V30 6699 C 643.229 2.88556 -1.85984 0
M  V30 6700 C 642.315 2.93177 -3.06445 0
M  V30 6701 N 642.706 2.67505 -4.29272 0
M  V30 6702 C 641.004 3.24343 -3.06133 0
M  V30 6703 C 641.705 2.78511 -5.10692 0
M  V30 6704 N 640.681 3.11087 -4.45787 0
M  V30 6705 H 644.483 1.29494 -2.63834 0
M  V30 6706 H 641.997 0.62384 -1.4994 0
M  V30 6707 H 643.994 3.66954 -1.97865 0
M  V30 6708 H 642.654 3.10624 -0.945654 0
M  V30 6709 H 643.665 2.42033 -4.57865 0
M  V30 6710 H 640.342 3.52051 -2.24425 0
M  V30 6711 H 641.732 2.62438 -6.18527 0
M  V30 6712 N 644.452 1.42507 0.673017 0
M  V30 6713 C 645.868 1.25472 0.986355 0
M  V30 6714 C 646.068 0.160181 2.00862 0
M  V30 6715 O 645.124 -0.467993 2.48125 0
M  V30 6716 C 646.437 2.61219 1.48947 0
M  V30 6717 C 647.985 2.68589 1.60715 0
M  V30 6718 C 648.46 4.04707 2.14422 0
M  V30 6719 N 649.951 4.0667 2.21752 0
M  V30 6720 C 650.686 5.0881 2.64386 0
M  V30 6721 N 650.182 6.21332 3.0646 0
M  V30 6722 N 651.975 4.96166 2.64151 0
M  V30 6723 H 644.126 2.124 -0.00378532 0
M  V30 6724 H 646.389 0.946046 0.0608367 0
M  V30 6725 H 646.095 3.42179 0.812812 0
M  V30 6726 H 645.969 2.85261 2.46791 0
M  V30 6727 H 648.356 1.87974 2.27486 0
M  V30 6728 H 648.437 2.48333 0.613552 0
M  V30 6729 H 648.081 4.8578 1.48258 0
M  V30 6730 H 648.011 4.22315 3.14575 0
M  V30 6731 H 650.502 3.25438 1.92089 0
M  V30 6732 H 650.815 6.95118 3.37684 0
M  V30 6733 H 649.16 6.24835 3.04313 0
M  V30 6734 H 652.351 4.07334 2.30644 0
M  V30 6735 H 652.524 5.759 2.97057 0
M  V30 6736 N 645.93 -0.909495 1.28709 0
M  V30 6737 C 647.341 -1.47419 1.14563 0
M  V30 6738 C 647.692 -1.94432 -0.262832 0
M  V30 6739 O 646.817 -1.82842 -1.15748 0
M  V30 6740 C 647.412 -2.67933 2.07358 0
M  V30 6741 C 645.971 -3.20568 1.97264 0
M  V30 6742 C 645.118 -1.93269 1.98852 0
M  V30 6743 H 648.069 -0.721787 1.41336 0
M  V30 6744 H 648.09 -3.43339 1.64007 0
M  V30 6745 H 647.602 -2.33685 3.09859 0
M  V30 6746 H 645.703 -3.59531 0.978157 0
M  V30 6747 H 645.816 -3.85529 2.84436 0
M  V30 6748 H 644.18 -2.10553 1.43317 0
M  V30 6749 H 644.963 -1.61312 3.0304 0
M  V30 6750 N 647.408 -1.11026 -1.11852 0
M  V30 6751 C 648.34 -0.72249 -2.17515 0
M  V30 6752 C 649.353 0.243782 -1.60964 0
M  V30 6753 O 650.542 0.0273252 -1.78479 0
M  V30 6754 C 647.642 -0.0463979 -3.38868 0
M  V30 6755 C 646.815 -1.0384 -4.24895 0
M  V30 6756 C 645.874 -0.392659 -5.24733 0
M  V30 6757 O 644.9 -1.0453 -5.5952 0
M  V30 6758 N 646.102 0.846296 -5.74298 0
M  V30 6759 H 648.867 -1.63161 -2.51393 0
M  V30 6760 H 646.428 -0.999899 -1.27333 0
M  V30 6761 H 648.42 0.397215 -4.02746 0
M  V30 6762 H 646.99 0.765231 -3.03089 0
M  V30 6763 H 646.21 -1.6601 -3.57539 0
M  V30 6764 H 647.498 -1.70968 -4.79215 0
M  V30 6765 H 646.896 1.39578 -5.4821 0
M  V30 6766 H 645.453 1.23296 -6.40032 0
M  V30 6767 N 648.886 1.2938 -0.899927 0
M  V30 6768 C 649.816 2.30144 -0.39446 0
M  V30 6769 C 650.797 1.61611 0.530639 0
M  V30 6770 O 651.982 1.89119 0.441319 0
M  V30 6771 C 649.112 3.45229 0.37868 0
M  V30 6772 C 648.066 4.25564 -0.456012 0
M  V30 6773 C 647.392 5.32848 0.444637 0
M  V30 6774 C 648.692 4.93651 -1.70605 0
M  V30 6775 H 650.386 2.72673 -1.23653 0
M  V30 6776 H 647.932 1.31086 -0.596034 0
M  V30 6777 H 649.885 4.14797 0.743037 0
M  V30 6778 H 648.609 3.01545 1.25453 0
M  V30 6779 H 647.268 3.57704 -0.802704 0
M  V30 6780 H 646.916 4.85408 1.31863 0
M  V30 6781 H 646.616 5.87497 -0.110154 0
M  V30 6782 H 648.14 6.05268 0.805182 0
M  V30 6783 H 649.554 5.55655 -1.41141 0
M  V30 6784 H 647.951 5.58233 -2.20217 0
M  V30 6785 H 649.021 4.18926 -2.4419 0
M  V30 6786 N 650.364 0.662433 1.43002 0
M  V30 6787 C 651.327 -0.0142016 2.29196 0
M  V30 6788 C 652.327 -0.741394 1.42688 0
M  V30 6789 O 653.517 -0.581257 1.64216 0
M  V30 6790 C 650.649 -1.03084 3.24941 0
M  V30 6791 H 651.842 0.7443 2.90517 0
M  V30 6792 H 649.395 0.424133 1.50435 0
M  V30 6793 H 650.13 -1.81826 2.68533 0
M  V30 6794 H 649.915 -0.512946 3.8873 0
M  V30 6795 H 651.405 -1.50308 3.89612 0
M  V30 6796 N 651.842 -1.52309 0.404946 0
M  V30 6797 C 652.752 -2.30634 -0.429555 0
M  V30 6798 C 653.768 -1.38187 -1.05737 0
M  V30 6799 O 654.944 -1.71261 -1.05979 0
M  V30 6800 C 652.009 -3.10947 -1.53339 0
M  V30 6801 C 651.07 -4.19126 -0.929065 0
M  V30 6802 C 650.303 -4.95601 -1.9803 0
M  V30 6803 O 650.526 -4.72331 -3.1978 0
M  V30 6804 O 649.46 -5.80551 -1.58886 0
M  V30 6805 H 653.286 -3.0298 0.208963 0
M  V30 6806 H 650.871 -1.4845 0.168255 0
M  V30 6807 H 652.753 -3.60974 -2.1743 0
M  V30 6808 H 651.428 -2.41399 -2.15658 0
M  V30 6809 H 650.335 -3.73257 -0.250982 0
M  V30 6810 H 651.668 -4.90955 -0.349855 0
M  V30 6811 N 653.32 -0.135238 -1.57019 0
M  V30 6812 C 654.25 0.805235 -2.19176 0
M  V30 6813 C 655.231 1.2656 -1.13651 0
M  V30 6814 O 656.416 1.32528 -1.4195 0
M  V30 6815 C 653.546 2.04914 -2.80406 0
M  V30 6816 C 652.5 1.72598 -3.91655 0
M  V30 6817 C 651.826 3.04154 -4.39766 0
M  V30 6818 C 653.126 0.981709 -5.12991 0
M  V30 6819 H 654.82 0.287232 -2.98019 0
M  V30 6820 H 652.366 0.136714 -1.4335 0
M  V30 6821 H 654.319 2.71178 -3.22553 0
M  V30 6822 H 653.043 2.59067 -1.98877 0
M  V30 6823 H 651.702 1.08717 -3.50109 0
M  V30 6824 H 651.35 3.56274 -3.55075 0
M  V30 6825 H 651.05 2.83299 -5.14796 0
M  V30 6826 H 652.574 3.71509 -4.84576 0
M  V30 6827 H 653.988 1.5462 -5.52056 0
M  V30 6828 H 652.385 0.873533 -5.93708 0
M  V30 6829 H 653.455 -0.0286887 -4.84892 0
M  V30 6830 N 654.798 1.5699 0.138552 0
M  V30 6831 C 656.026 1.87976 0.864437 0
M  V30 6832 C 656.441 0.724372 1.74351 0
M  V30 6833 O 655.798 -0.305575 1.79924 0
M  V30 6834 C 655.849 3.18276 1.71414 0
M  V30 6835 O 655.57 4.29365 0.870487 0
M  V30 6836 C 657.071 3.62834 2.54688 0
M  V30 6837 H 654.291 0.622878 0.249528 0
M  V30 6838 H 656.835 2.04094 0.128805 0
M  V30 6839 H 654.99 3.03886 2.40274 0
M  V30 6840 H 655.404 5.03924 1.45466 0
M  V30 6841 H 656.878 4.5682 3.0987 0
M  V30 6842 H 657.355 2.88533 3.31127 0
M  V30 6843 H 657.961 3.79946 1.91105 0
M  V30 6844 N 656.276 -0.40816 1.52223 0
M  V30 6845 C 657.224 -1.51788 1.76248 0
M  V30 6846 C 658.218 -1.57264 0.629638 0
M  V30 6847 O 659.424 -1.60659 0.811704 0
M  V30 6848 H 655.799 -0.504823 0.557367 0
M  V30 6849 H 657.77 -1.2871 2.69214 0
M  V30 6850 C 656.519 -2.89145 1.93107 0
M  V30 6851 H 655.842 -2.85674 2.79697 0
M  V30 6852 H 657.282 -3.66082 2.13916 0
M  V30 6853 C 655.741 -3.29581 0.698431 0
M  V30 6854 O 656.271 -4.01479 -0.133238 0
M  V30 6855 N 654.477 -2.85651 0.53405 0
M  V30 6856 H 654.024 -2.2731 1.21194 0
M  V30 6857 H 653.982 -3.13065 -0.289387 0
M  V30 6858 N 657.755 -1.42862 -0.66545 0
M  V30 6859 C 659.171 -1.25993 -0.979687 0
M  V30 6860 C 659.371 -0.170831 -2.00775 0
M  V30 6861 O 658.427 0.454827 -2.4837 0
M  V30 6862 C 659.74 -2.62005 -1.47559 0
M  V30 6863 C 661.288 -2.69437 -1.59288 0
M  V30 6864 C 661.763 -4.05838 -2.12272 0
M  V30 6865 N 663.254 -4.0784 -2.19592 0
M  V30 6866 C 663.989 -5.10205 -2.61684 0
M  V30 6867 N 663.485 -6.22949 -3.03161 0
M  V30 6868 N 665.278 -4.9756 -2.61516 0
M  V30 6869 H 657.429 -2.12395 0.0150493 0
M  V30 6870 H 659.692 -0.946355 -0.0558187 0
M  V30 6871 H 659.398 -3.42605 -0.794654 0
M  V30 6872 H 659.272 -2.86566 -2.45275 0
M  V30 6873 H 661.659 -1.89178 -2.26486 0
M  V30 6874 H 661.74 -2.48655 -0.600374 0
M  V30 6875 H 661.384 -4.86559 -1.4568 0
M  V30 6876 H 661.314 -4.23977 -3.12331 0
M  V30 6877 H 663.805 -3.26452 -1.90361 0
M  V30 6878 H 664.118 -6.96899 -3.33993 0
M  V30 6879 H 662.463 -6.2644 -3.00995 0
M  V30 6880 H 665.654 -4.08551 -2.28481 0
M  V30 6881 H 665.827 -5.77468 -2.93999 0
M  V30 6882 N 659.233 0.902656 -1.29189 0
M  V30 6883 C 660.649 1.18296 -1.07137 0
M  V30 6884 C 660.849 2.00701 0.179223 0
M  V30 6885 O 659.905 2.3675 0.877812 0
M  V30 6886 C 661.218 1.90677 -2.32514 0
M  V30 6887 C 662.766 2.03515 -2.37804 0
M  V30 6888 C 663.241 2.79307 -3.62976 0
M  V30 6889 N 664.732 2.86862 -3.63681 0
M  V30 6890 C 665.467 3.46035 -4.57217 0
M  V30 6891 N 664.963 4.06399 -5.61081 0
M  V30 6892 N 666.756 3.43681 -4.44792 0
M  V30 6893 H 658.907 0.352765 -2.0945 0
M  V30 6894 H 661.17 0.21876 -0.922414 0
M  V30 6895 H 660.876 1.3756 -3.23682 0
M  V30 6896 H 660.75 2.91169 -2.39793 0
M  V30 6897 H 663.137 2.55809 -1.47125 0
M  V30 6898 H 663.218 1.02166 -2.34512 0
M  V30 6899 H 662.862 2.2769 -4.54004 0
M  V30 6900 H 662.792 3.80995 -3.63525 0
M  V30 6901 H 665.283 2.43987 -2.88581 0
M  V30 6902 H 665.596 4.49564 -6.2858 0
M  V30 6903 H 663.941 4.0487 -5.64894 0
M  V30 6904 H 667.132 2.9574 -3.62843 0
M  V30 6905 H 667.305 3.89503 -5.17872 0
M  V30 6906 N 660.711 1.11618 1.11262 0
M  V30 6907 C 662.127 0.850468 1.35053 0
M  V30 6908 C 662.327 -0.523868 1.94571 0
M  V30 6909 O 661.383 -1.2743 2.17986 0
M  V30 6910 C 662.696 1.96005 2.28041 0
M  V30 6911 C 664.244 1.98993 2.416 0
M  V30 6912 C 664.719 3.0916 3.37911 0
M  V30 6913 N 666.21 3.08547 3.45475 0
M  V30 6914 C 666.945 3.9043 4.19943 0
M  V30 6915 N 666.441 4.8228 4.97371 0
M  V30 6916 N 668.234 3.786 4.15474 0
M  V30 6917 H 660.385 2.00184 0.709932 0
M  V30 6918 H 662.648 0.870635 0.375099 0
M  V30 6919 H 662.354 2.9499 1.91503 0
M  V30 6920 H 662.228 1.85782 3.28275 0
M  V30 6921 H 664.615 1.00633 2.77411 0
M  V30 6922 H 664.696 2.13292 1.4121 0
M  V30 6923 H 664.34 4.07748 3.02827 0
M  V30 6924 H 664.27 2.92102 4.3816 0
M  V30 6925 H 666.761 2.42 2.90249 0
M  V30 6926 H 667.074 5.41289 5.51567 0
M  V30 6927 H 665.419 4.863 4.96525 0
M  V30 6928 H 668.61 3.06185 3.54074 0
M  V30 6929 H 668.783 4.42647 4.73253 0
M  V30 6930 N 662.189 -1.289 0.906776 0
M  V30 6931 C 663.437 -1.94883 0.535266 0
M  V30 6932 C 663.758 -1.71784 -0.922791 0
M  V30 6933 O 663.028 -1.05359 -1.65156 0
M  V30 6934 H 661.608 -0.721109 0.194962 0
M  V30 6935 H 664.27 -1.57018 1.15461 0
M  V30 6936 H 663.366 -3.03591 0.723821 0
M  V30 6937 N 663.667 -0.670007 -1.42649 0
M  V30 6938 C 665.083 -0.33911 -1.55956 0
M  V30 6939 C 665.283 1.1558 -1.65056 0
M  V30 6940 O 664.339 1.94111 -1.61485 0
M  V30 6941 C 665.652 -1.06522 -2.812 0
M  V30 6942 C 667.2 -1.04708 -2.94966 0
M  V30 6943 C 667.675 -1.75442 -4.23065 0
M  V30 6944 N 669.166 -1.72286 -4.29967 0
M  V30 6945 C 669.901 -2.23877 -5.27889 0
M  V30 6946 N 669.397 -2.83829 -6.31991 0
M  V30 6947 N 671.19 -2.14279 -5.19654 0
M  V30 6948 H 663.341 -1.6399 -1.34986 0
M  V30 6949 H 665.604 -0.690603 -0.649439 0
M  V30 6950 H 665.31 -2.12033 -2.80597 0
M  V30 6951 H 665.184 -0.627398 -3.71946 0
M  V30 6952 H 667.571 -0.000315966 -2.951 0
M  V30 6953 H 667.652 -1.52374 -2.05465 0
M  V30 6954 H 667.296 -2.80084 -4.23693 0
M  V30 6955 H 667.226 -1.25229 -5.11493 0
M  V30 6956 H 669.717 -1.28554 -3.55362 0
M  V30 6957 H 670.03 -3.20827 -7.03057 0
M  V30 6958 H 668.375 -2.87896 -6.32567 0
M  V30 6959 H 671.566 -1.67135 -4.37245 0
M  V30 6960 H 671.739 -2.54792 -5.95806 0
M  V30 6961 N 665.145 1.52092 -0.413018 0
M  V30 6962 C 666.075 2.30021 0.401567 0
M  V30 6963 C 667.056 1.34395 1.04269 0
M  V30 6964 O 668.241 1.63304 1.05097 0
M  V30 6965 C 665.371 3.12447 1.51638 0
M  V30 6966 C 664.325 4.16153 1.00005 0
M  V30 6967 C 663.651 4.86948 2.20875 0
M  V30 6968 C 664.951 5.22275 0.0513757 0
M  V30 6969 H 666.645 2.98365 -0.248704 0
M  V30 6970 H 664.191 1.4349 -0.121052 0
M  V30 6971 H 666.144 3.65733 2.09326 0
M  V30 6972 H 664.868 2.41879 2.19458 0
M  V30 6973 H 663.527 3.63882 0.445549 0
M  V30 6974 H 663.175 4.12905 2.8726 0
M  V30 6975 H 662.875 5.57057 1.86978 0
M  V30 6976 H 664.399 5.43048 2.79162 0
M  V30 6977 H 665.813 5.70778 0.537176 0
M  V30 6978 H 664.21 5.9977 -0.198977 0
M  V30 6979 H 665.28 4.76611 -0.892736 0
M  V30 6980 N 666.623 0.143563 1.56945 0
M  V30 6981 C 668.039 -0.212877 1.58174 0
M  V30 6982 C 668.239 -1.64926 1.15766 0
M  V30 6983 O 667.295 -2.37535 0.856361 0
M  V30 6984 C 668.608 0.0427573 3.0067 0
M  V30 6985 C 670.156 -0.0212221 3.12993 0
M  V30 6986 C 670.631 0.207036 4.57532 0
M  V30 6987 N 672.122 0.153845 4.62944 0
M  V30 6988 C 672.857 0.305018 5.72588 0
M  V30 6989 N 672.353 0.513722 6.90893 0
M  V30 6990 N 674.146 0.242862 5.61575 0
M  V30 6991 H 666.297 1.08148 1.82805 0
M  V30 6992 H 668.56 0.427831 0.84597 0
M  V30 6993 H 668.266 1.03672 3.36073 0
M  V30 6994 H 668.14 -0.678195 3.71053 0
M  V30 6995 H 670.527 -1.00574 2.77433 0
M  V30 6996 H 670.608 0.732004 2.45103 0
M  V30 6997 H 670.252 1.18863 4.93795 0
M  V30 6998 H 670.182 -0.566473 5.23544 0
M  V30 6999 H 672.673 -0.00294866 3.779 0
M  V30 7000 H 672.986 0.619273 7.70315 0
M  V30 7001 H 671.331 0.550001 6.9282 0
M  V30 7002 H 674.522 0.0806015 4.68031 0
M  V30 7003 H 674.695 0.364112 6.46976 0
M  V30 7004 N 668.101 -1.57061 -0.130224 0
M  V30 7005 C 669.347 -1.85412 -0.836295 0
M  V30 7006 C 669.702 -0.729831 -1.7802 0
M  V30 7007 O 668.995 0.271021 -1.89673 0
M  V30 7008 C 669.189 -3.17878 -1.63365 0
M  V30 7009 C 669.018 -4.43086 -0.768453 0
M  V30 7010 C 667.788 -5.03488 -0.427598 0
M  V30 7011 C 669.986 -5.14219 -0.0911495 0
M  V30 7012 N 667.968 -6.12253 0.449439 0
M  V30 7013 C 669.339 -6.16632 0.645341 0
M  V30 7014 C 671.394 -4.97898 -0.0135625 0
M  V30 7015 C 670.097 -7.0449 1.45212 0
M  V30 7016 C 672.123 -5.86234 0.780001 0
M  V30 7017 C 671.485 -6.88141 1.50472 0
M  V30 7018 H 667.584 -0.728875 -0.283311 0
M  V30 7019 H 670.168 -1.9444 -0.100662 0
M  V30 7020 H 668.339 -3.09967 -2.3404 0
M  V30 7021 H 670.071 -3.34076 -2.28419 0
M  V30 7022 H 666.826 -4.67344 -0.767264 0
M  V30 7023 H 667.25 -6.71263 0.879476 0
M  V30 7024 H 671.892 -4.19082 -0.559511 0
M  V30 7025 H 669.61 -7.82722 2.00926 0
M  V30 7026 H 673.196 -5.75671 0.842246 0
M  V30 7027 H 672.076 -7.55311 2.1089 0
M  V30 7028 N 669.579 0.400081 -1.52437 0
M  V30 7029 C 670.826 1.14619 -1.6694 0
M  V30 7030 C 671.154 1.90262 -0.403797 0
M  V30 7031 O 670.409 1.85835 0.61351 0
M  V30 7032 C 670.708 2.15914 -2.84808 0
M  V30 7033 C 670.374 1.57011 -4.2268 0
M  V30 7034 C 669.036 1.40672 -4.60179 0
M  V30 7035 C 671.388 1.14081 -5.08562 0
M  V30 7036 C 668.716 0.799335 -5.81229 0
M  V30 7037 C 671.068 0.547573 -6.30226 0
M  V30 7038 C 669.732 0.371389 -6.66466 0
M  V30 7039 H 669.002 0.419419 -0.610875 0
M  V30 7040 H 671.649 0.432227 -1.86558 0
M  V30 7041 H 669.954 2.93488 -2.59561 0
M  V30 7042 H 671.651 2.73533 -2.93225 0
M  V30 7043 H 668.241 1.70713 -3.93135 0
M  V30 7044 H 672.425 1.2551 -4.80168 0
M  V30 7045 H 667.681 0.65093 -6.07925 0
M  V30 7046 H 671.855 0.206575 -6.96094 0
M  V30 7047 H 669.482 -0.10135 -7.60132 0
M  V30 7048 N 671.057 1.43213 0.657864 0
M  V30 7049 C 672.282 1.48227 1.45064 0
M  V30 7050 C 672.707 0.0999939 1.87834 0
M  V30 7051 O 672.065 -0.905269 1.57081 0
M  V30 7052 C 672.113 2.42931 2.6649 0
M  V30 7053 O 671.217 1.91237 3.6538 0
M  V30 7054 H 670.558 0.501551 0.435135 0
M  V30 7055 H 673.088 1.8808 0.805431 0
M  V30 7056 H 673.098 2.6008 3.1436 0
M  V30 7057 H 671.773 3.43348 2.34701 0
M  V30 7058 H 670.35 1.83726 3.24498 0
M  V30 7059 N 672.536 -0.895792 1.29666 0
M  V30 7060 C 673.486 -1.98736 1.1175 0
M  V30 7061 C 674.47 -1.6086 0.0357834 0
M  V30 7062 O 675.662 -1.75111 0.257926 0
M  V30 7063 C 672.791 -3.33845 0.800156 0
M  V30 7064 C 671.877 -3.78068 1.9216 0
M  V30 7065 N 672.268 -3.94489 3.16563 0
M  V30 7066 C 670.566 -4.07376 1.81552 0
M  V30 7067 C 671.267 -4.31819 3.89753 0
M  V30 7068 N 670.243 -4.41081 3.17724 0
M  V30 7069 H 674.045 -2.09507 2.06117 0
M  V30 7070 H 671.559 -1.08488 1.20848 0
M  V30 7071 H 673.556 -4.11757 0.652841 0
M  V30 7072 H 672.216 -3.24417 -0.135551 0
M  V30 7073 H 673.227 -3.79914 3.51974 0
M  V30 7074 H 669.904 -4.06483 0.952787 0
M  V30 7075 H 671.294 -4.52337 4.96831 0
M  V30 7076 N 674.014 -1.12206 -1.10668 0
M  V30 7077 C 675.239 -0.898938 -1.86906 0
M  V30 7078 C 675.664 0.546346 -1.79991 0
M  V30 7079 O 675.022 1.38655 -1.1681 0
M  V30 7080 C 675.07 -1.37529 -3.33344 0
M  V30 7081 O 674.174 -0.55218 -4.08687 0
M  V30 7082 H 673.515 -0.323163 -0.580053 0
M  V30 7083 H 676.045 -1.49355 -1.39837 0
M  V30 7084 H 676.055 -1.3733 -3.84193 0
M  V30 7085 H 674.73 -2.42767 -3.37693 0
M  V30 7086 H 673.307 -0.620947 -3.67694 0
M  V30 7087 N 675.492 1.28418 -0.913599 0
M  V30 7088 C 676.72 1.99106 -0.562536 0
M  V30 7089 C 677.135 1.68273 0.856137 0
M  V30 7090 O 676.492 0.935401 1.56705 0
M  V30 7091 C 676.543 3.5338 -0.761903 0
M  V30 7092 O 676.264 3.83127 -2.12475 0
M  V30 7093 C 677.765 4.41328 -0.417651 0
M  V30 7094 H 674.985 0.635798 -0.214481 0
M  V30 7095 H 677.529 1.63618 -1.22676 0
M  V30 7096 H 675.684 3.8713 -0.144676 0
M  V30 7097 H 676.098 4.77763 -2.16431 0
M  V30 7098 H 677.572 5.48642 -0.607919 0
M  V30 7099 H 678.049 4.34422 0.646108 0
M  V30 7100 H 678.655 4.13074 -1.01241 0
M  V30 7101 N 676.97 0.677563 1.42291 0
M  V30 7102 C 678.386 0.347376 1.55774 0
M  V30 7103 C 678.586 -1.14703 1.65667 0
M  V30 7104 O 677.642 -1.93252 1.62512 0
M  V30 7105 C 678.955 1.08011 2.80631 0
M  V30 7106 C 680.503 1.06271 2.94407 0
M  V30 7107 C 680.978 1.77683 4.22129 0
M  V30 7108 N 682.469 1.74564 4.29047 0
M  V30 7109 C 683.204 2.26673 5.26694 0
M  V30 7110 N 682.7 2.87176 6.30477 0
M  V30 7111 N 684.493 2.17032 5.18511 0
M  V30 7112 H 676.644 1.64703 1.34114 0
M  V30 7113 H 678.907 0.694038 0.645768 0
M  V30 7114 H 678.613 2.13518 2.79469 0
M  V30 7115 H 678.487 0.647115 3.71608 0
M  V30 7116 H 680.874 0.0159658 2.95096 0
M  V30 7117 H 680.955 1.53461 2.04654 0
M  V30 7118 H 680.599 2.82327 4.22201 0
M  V30 7119 H 680.529 1.2794 5.10822 0
M  V30 7120 H 683.02 1.30436 3.54676 0
M  V30 7121 H 683.333 3.24551 7.01346 0
M  V30 7122 H 681.678 2.91247 6.31031 0
M  V30 7123 H 684.869 1.69451 4.36353 0
M  V30 7124 H 685.042 2.57948 5.94446 0
M  V30 7125 N 678.448 -1.51871 0.421078 0
M  V30 7126 C 679.673 -2.0684 -0.152371 0
M  V30 7127 C 680.098 -1.28802 -1.37083 0
M  V30 7128 O 679.456 -0.321482 -1.78427 0
M  V30 7129 C 679.504 -3.57532 -0.469368 0
M  V30 7130 O 678.608 -3.81818 -1.55848 0
M  V30 7131 H 677.949 -0.663939 -0.00898586 0
M  V30 7132 H 680.479 -1.95674 0.597724 0
M  V30 7133 H 680.489 -4.01515 -0.724553 0
M  V30 7134 H 679.164 -4.13761 0.421276 0
M  V30 7135 H 677.741 -3.49709 -1.29453 0
M  V30 7136 N 679.926 -0.151884 -1.56866 0
M  V30 7137 C 681.154 0.504813 -2.00647 0
M  V30 7138 C 681.569 1.58098 -1.03201 0
M  V30 7139 O 680.926 1.82476 -0.0297814 0
M  V30 7140 C 680.977 1.10099 -3.44326 0
M  V30 7141 O 680.698 0.0678021 -4.38048 0
M  V30 7142 C 682.199 1.83782 -4.03409 0
M  V30 7143 H 679.419 0.130989 -0.65809 0
M  V30 7144 H 681.963 -0.247903 -2.02992 0
M  V30 7145 H 680.118 1.8043 -3.42817 0
M  V30 7146 H 680.532 0.505237 -5.22061 0
M  V30 7147 H 682.006 2.2078 -5.05925 0
M  V30 7148 H 682.483 2.72557 -3.44397 0
M  V30 7149 H 683.089 1.18138 -4.08563 0
M  V30 7150 N 681.404 1.57128 0.121893 0
M  V30 7151 C 682.354 1.96556 1.15541 0
M  V30 7152 C 683.338 0.840147 1.37224 0
M  V30 7153 O 684.53 1.10382 1.38365 0
M  V30 7154 C 681.659 2.37097 2.48274 0
M  V30 7155 C 680.745 3.56265 2.30078 0
M  V30 7156 N 681.136 4.72041 1.81688 0
M  V30 7157 C 679.434 3.61841 2.60744 0
M  V30 7158 C 680.135 5.54075 1.77132 0
M  V30 7159 N 679.111 4.96483 2.21371 0
M  V30 7160 H 682.913 2.83531 0.77378 0
M  V30 7161 H 680.427 1.59019 0.329672 0
M  V30 7162 H 682.424 2.6356 3.2302 0
M  V30 7163 H 681.084 1.51486 2.87197 0
M  V30 7164 H 682.095 4.95313 1.51278 0
M  V30 7165 H 678.772 2.8683 3.03373 0
M  V30 7166 H 680.162 6.56939 1.40998 0
M  V30 7167 N 682.882 -0.391992 1.52647 0
M  V30 7168 C 684.107 -1.16312 1.71716 0
M  V30 7169 C 684.532 -1.83042 0.433279 0
M  V30 7170 O 683.89 -1.70705 -0.610707 0
M  V30 7171 C 683.938 -2.18908 2.86551 0
M  V30 7172 O 683.042 -3.2543 2.53316 0
M  V30 7173 H 682.383 -0.338743 0.571095 0
M  V30 7174 H 684.913 -0.457202 1.99426 0
M  V30 7175 H 684.923 -2.62954 3.1196 0
M  V30 7176 H 683.598 -1.69726 3.79692 0
M  V30 7177 H 682.175 -2.86543 2.38637 0
M  V30 7178 N 684.36 -1.4356 -0.65026 0
M  V30 7179 C 685.588 -1.48779 -1.43779 0
M  V30 7180 C 686.003 -0.106593 -1.88499 0
M  V30 7181 O 685.36 0.883766 -1.59674 0
M  V30 7182 C 685.411 -2.43618 -2.67081 0
M  V30 7183 O 685.132 -3.76367 -2.24231 0
M  V30 7184 C 686.633 -2.5811 -3.60409 0
M  V30 7185 H 683.853 -0.50521 -0.441593 0
M  V30 7186 H 686.397 -1.88332 -0.796941 0
M  V30 7187 H 684.552 -2.07253 -3.273 0
M  V30 7188 H 684.966 -4.27394 -3.0403 0
M  V30 7189 H 686.44 -3.28539 -4.43583 0
M  V30 7190 H 686.917 -1.627 -4.07953 0
M  V30 7191 H 687.523 -2.95298 -3.0607 0
M  V30 7192 N 685.838 0.888903 -1.30139 0
M  V30 7193 C 687.063 1.67884 -1.21777 0
M  V30 7194 C 687.488 1.86848 0.216689 0
M  V30 7195 O 686.846 1.39659 1.15608 0
M  V30 7196 C 686.894 3.03483 -1.94757 0
M  V30 7197 O 685.998 3.92294 -1.27198 0
M  V30 7198 H 685.339 0.513144 -0.421402 0
M  V30 7199 H 687.869 1.10968 -1.71893 0
M  V30 7200 H 687.879 3.53553 -2.03627 0
M  V30 7201 H 686.554 2.89 -2.99085 0
M  V30 7202 H 685.131 3.50732 -1.26655 0
M  V30 7203 N 687.317 1.12792 1.10072 0
M  V30 7204 C 688.542 0.908838 1.86427 0
M  V30 7205 C 688.967 -0.536793 1.80278 0
M  V30 7206 O 688.325 -1.38033 1.17543 0
M  V30 7207 C 688.373 1.39295 3.3261 0
M  V30 7208 O 687.477 0.573846 4.08388 0
M  V30 7209 H 686.818 0.326234 0.578331 0
M  V30 7210 H 689.348 1.50094 1.39043 0
M  V30 7211 H 689.358 1.39366 3.83459 0
M  V30 7212 H 688.033 2.44555 3.36401 0
M  V30 7213 H 686.61 0.640438 3.67359 0
M  V30 7214 N 688.795 -1.27931 0.920396 0
M  V30 7215 C 689.745 -2.24727 0.384966 0
M  V30 7216 C 690.729 -1.52715 -0.506661 0
M  V30 7217 O 691.921 -1.73599 -0.345298 0
M  V30 7218 C 689.05 -3.41324 -0.3678 0
M  V30 7219 C 688.136 -4.20649 0.539925 0
M  V30 7220 N 688.527 -4.77906 1.6565 0
M  V30 7221 C 686.825 -4.4469 0.341557 0
M  V30 7222 C 687.526 -5.37652 2.22047 0
M  V30 7223 N 686.502 -5.2218 1.51093 0
M  V30 7224 H 690.304 -2.66572 1.23761 0
M  V30 7225 H 687.818 -1.42779 0.773819 0
M  V30 7226 H 689.815 -4.0976 -0.768277 0
M  V30 7227 H 688.475 -3.01012 -1.21746 0
M  V30 7228 H 689.486 -4.76073 2.03899 0
M  V30 7229 H 686.163 -4.14868 -0.468045 0
M  V30 7230 H 687.553 -5.92948 3.1601 0
M  V30 7231 N 690.273 -0.685099 -1.4193 0
M  V30 7232 C 691.236 -0.0222632 -2.29189 0
M  V30 7233 C 692.236 0.7186 -1.4385 0
M  V30 7234 O 693.426 0.555058 -1.6512 0
M  V30 7235 C 690.558 0.979013 -3.2654 0
M  V30 7236 H 691.751 -0.790424 -2.89296 0
M  V30 7237 H 689.304 -0.448012 -1.49742 0
M  V30 7238 H 690.039 1.77531 -2.71392 0
M  V30 7239 H 689.824 0.451037 -3.89497 0
M  V30 7240 H 691.314 1.44091 -3.91954 0
M  V30 7241 N 691.751 1.51645 -0.429126 0
M  V30 7242 C 692.976 2.06917 0.141399 0
M  V30 7243 C 693.401 1.29527 1.36398 0
M  V30 7244 O 692.759 0.33094 1.78254 0
M  V30 7245 C 692.807 3.57776 0.4504 0
M  V30 7246 O 691.911 3.82639 1.53821 0
M  V30 7247 H 691.252 0.663978 0.0054647 0
M  V30 7248 H 693.782 1.95355 -0.608093 0
M  V30 7249 H 693.792 4.01894 0.703249 0
M  V30 7250 H 692.467 4.13532 -0.443213 0
M  V30 7251 H 691.044 3.5039 1.27597 0
M  V30 7252 N 693.229 0.160201 1.56784 0
M  V30 7253 C 694.159 -0.770264 2.2043 0
M  V30 7254 C 695.14 -1.24736 1.15651 0
M  V30 7255 O 696.325 -1.30253 1.44041 0
M  V30 7256 C 693.455 -2.00427 2.83631 0
M  V30 7257 C 692.409 -1.66345 3.94352 0
M  V30 7258 C 691.735 -2.97119 4.4455 0
M  V30 7259 C 693.035 -0.899972 5.14488 0
M  V30 7260 H 694.729 -0.239783 2.98438 0
M  V30 7261 H 692.275 -0.113891 1.43549 0
M  V30 7262 H 694.228 -2.66012 3.26827 0
M  V30 7263 H 692.952 -2.5587 2.02973 0
M  V30 7264 H 691.611 -1.03133 3.51794 0
M  V30 7265 H 691.259 -3.5058 3.60698 0
M  V30 7266 H 690.959 -2.75073 5.19238 0
M  V30 7267 H 692.483 -3.63753 4.90425 0
M  V30 7268 H 693.897 -1.45818 5.54446 0
M  V30 7269 H 692.294 -0.778968 5.95023 0
M  V30 7270 H 693.364 0.105827 4.84785 0
M  V30 7271 N 694.707 -1.5719 -0.113559 0
M  V30 7272 C 696.118 -1.74259 -0.670116 0
M  V30 7273 C 696.469 -0.779694 -1.80042 0
M  V30 7274 O 695.594 0.0461353 -2.16351 0
M  V30 7275 C 696.189 -3.15981 -1.22236 0
M  V30 7276 C 694.748 -3.34537 -1.72516 0
M  V30 7277 C 693.895 -2.70116 -0.627098 0
M  V30 7278 H 696.846 -1.58301 0.112396 0
M  V30 7279 H 696.867 -3.17832 -2.09197 0
M  V30 7280 H 696.379 -3.86038 -0.39949 0
M  V30 7281 H 694.48 -2.6953 -2.57263 0
M  V30 7282 H 694.593 -4.42737 -1.83086 0
M  V30 7283 H 692.957 -2.31501 -1.06204 0
M  V30 7284 H 693.74 -3.42802 0.184889 0
M  V30 7285 N 696.185 0.383891 -1.52853 0
M  V30 7286 C 697.148 1.45197 -1.77343 0
M  V30 7287 C 698.148 1.47362 -0.643522 0
M  V30 7288 O 699.338 1.48443 -0.911613 0
M  V30 7289 C 696.47 2.8445 -1.87885 0
M  V30 7290 H 697.663 1.24764 -2.72716 0
M  V30 7291 H 695.216 0.615939 -1.43652 0
M  V30 7292 H 695.951 3.10222 -0.94515 0
M  V30 7293 H 695.736 2.8428 -2.70051 0
M  V30 7294 H 697.226 3.61832 -2.08488 0
M  V30 7295 N 697.663 1.43903 0.642637 0
M  V30 7296 C 698.888 1.49758 1.43483 0
M  V30 7297 C 699.313 0.119911 1.87717 0
M  V30 7298 O 698.671 -0.888558 1.58033 0
M  V30 7299 C 698.719 2.45744 2.63898 0
M  V30 7300 O 697.823 1.95101 3.63331 0
M  V30 7301 H 697.164 0.506138 0.429791 0
M  V30 7302 H 699.694 1.88923 0.785438 0
M  V30 7303 H 699.704 2.63399 3.11584 0
M  V30 7304 H 698.379 3.45818 2.31046 0
M  V30 7305 H 696.956 1.87158 3.22531 0
M  V30 7306 N 699.141 -0.881989 1.30609 0
M  V30 7307 C 700.418 -1.61563 1.10258 0
M  V30 7308 C 700.798 -2.08228 -0.347053 0
M  V30 7309 O 700.146 -1.85151 -1.33908 0
M  V30 7310 C 700.356 -2.78287 2.10612 0
M  V30 7311 C 701.704 -3.48545 2.4249 0
M  V30 7312 O 702.728 -2.88479 2.08945 0
M  V30 7313 O 701.587 -4.56873 2.99883 0
M  V30 7314 H 698.681 -0.710238 0.423663 0
M  V30 7315 H 701.227 -0.928503 1.42045 0
M  V30 7316 H 699.999 -2.41131 3.08174 0
M  V30 7317 H 699.622 -3.54695 1.79659 0
M  V30 7318 N 700.619 -1.13374 -1.09472 0
M  V30 7319 C 701.847 -0.918351 -1.85402 0
M  V30 7320 C 702.262 0.53281 -1.81126 0
M  V30 7321 O 701.619 1.36879 -1.20708 0
M  V30 7322 C 701.67 -1.39743 -3.33398 0
M  V30 7323 O 701.391 -2.79172 -3.37631 0
M  V30 7324 C 702.892 -1.22042 -4.2617 0
M  V30 7325 H 700.112 -0.327511 -0.585643 0
M  V30 7326 H 702.656 -1.50617 -1.38328 0
M  V30 7327 H 700.811 -0.852619 -3.77901 0
M  V30 7328 H 701.225 -3.00428 -4.29934 0
M  V30 7329 H 702.699 -1.60438 -5.2817 0
M  V30 7330 H 703.176 -0.162047 -4.38901 0
M  V30 7331 H 703.782 -1.75323 -3.87482 0
M  V30 7332 N 702.098 1.27442 -0.927168 0
M  V30 7333 C 703.346 1.94007 -0.566203 0
M  V30 7334 C 703.667 1.7323 0.895345 0
M  V30 7335 O 702.937 1.07973 1.63459 0
M  V30 7336 H 701.517 0.717917 -0.206409 0
M  V30 7337 H 704.179 1.55161 -1.17945 0
M  V30 7338 H 703.275 3.02401 -0.772028 0
M  V30 7339 N 703.576 0.692616 1.41565 0
M  V30 7340 C 704.801 0.229776 2.06123 0
M  V30 7341 C 705.226 -1.11119 1.5177 0
M  V30 7342 O 704.584 -1.69498 0.643444 0
M  V30 7343 C 704.632 0.19469 3.60074 0
M  V30 7344 O 703.736 -0.831366 4.03933 0
M  V30 7345 H 703.077 0.113002 0.654314 0
M  V30 7346 H 705.607 0.946645 1.81383 0
M  V30 7347 H 705.617 0.0245487 4.07993 0
M  V30 7348 H 704.292 1.17339 3.99004 0
M  V30 7349 H 702.869 -0.630819 3.67526 0
M  V30 7350 N 705.054 -1.51416 0.437162 0
M  V30 7351 C 705.987 -2.24309 -0.419602 0
M  V30 7352 C 706.965 -1.26236 -1.02485 0
M  V30 7353 O 708.149 -1.5537 -1.06735 0
M  V30 7354 C 705.276 -2.99335 -1.58482 0
M  V30 7355 C 704.322 -4.12064 -1.10027 0
M  V30 7356 S 705.155 -5.35483 -0.0424476 0
M  V30 7357 C 706.311 -6.14047 -1.21234 0
M  V30 7358 H 706.544 -2.96632 0.199259 0
M  V30 7359 H 704.077 -1.528 0.22168 0
M  V30 7360 H 706.035 -3.43159 -2.25282 0
M  V30 7361 H 704.696 -2.26602 -2.17509 0
M  V30 7362 H 703.889 -4.63836 -1.97161 0
M  V30 7363 H 703.491 -3.70499 -0.510507 0
M  V30 7364 H 705.783 -6.43123 -2.13072 0
M  V30 7365 H 706.726 -7.04279 -0.734582 0
M  V30 7366 H 707.134 -5.45538 -1.45082 0
M  V30 7367 N 706.532 -0.168513 -1.56696 0
M  V30 7368 C 707.76 0.483503 -2.01171 0
M  V30 7369 C 708.175 1.56994 -1.04872 0
M  V30 7370 O 707.532 1.82434 -0.0491337 0
M  V30 7371 C 707.583 1.0644 -3.45475 0
M  V30 7372 O 707.304 0.0213375 -4.38095 0
M  V30 7373 C 708.805 1.79493 -4.05336 0
M  V30 7374 H 706.025 0.124002 -0.659443 0
M  V30 7375 H 708.569 -0.269419 -2.02717 0
M  V30 7376 H 706.724 1.76784 -3.44712 0
M  V30 7377 H 707.138 0.449837 -5.22567 0
M  V30 7378 H 708.612 2.15401 -5.08238 0
M  V30 7379 H 709.089 2.68889 -3.47269 0
M  V30 7380 H 709.695 1.13798 -4.09793 0
M  V30 7381 N 708.01 1.57248 0.105221 0
M  V30 7382 C 708.92 2.04653 1.14693 0
M  V30 7383 C 709.936 0.969488 1.44489 0
M  V30 7384 O 711.112 1.28196 1.55331 0
M  V30 7385 C 708.177 2.45297 2.45011 0
M  V30 7386 C 707.238 3.67148 2.22489 0
M  V30 7387 C 706.471 4.05844 3.46592 0
M  V30 7388 O 706.694 3.44736 4.54437 0
M  V30 7389 O 705.628 4.98862 3.36779 0
M  V30 7390 H 709.454 2.93663 0.774336 0
M  V30 7391 H 707.039 1.45998 0.31701 0
M  V30 7392 H 708.921 2.72112 3.21766 0
M  V30 7393 H 707.596 1.59429 2.81717 0
M  V30 7394 H 706.503 3.45463 1.43547 0
M  V30 7395 H 707.836 4.53764 1.9068 0
M  V30 7396 N 709.488 -0.375779 1.53054 0
M  V30 7397 C 710.716 -1.14036 1.72637 0
M  V30 7398 C 711.131 -1.83342 0.450687 0
M  V30 7399 O 710.488 -1.7318 -0.575749 0
M  V30 7400 C 710.539 -2.17841 2.88492 0
M  V30 7401 O 710.26 -1.51358 4.11123 0
M  V30 7402 C 711.761 -3.06924 3.19863 0
M  V30 7403 H 708.981 -0.341386 0.577665 0
M  V30 7404 H 711.525 -0.437809 1.99759 0
M  V30 7405 H 709.68 -2.8371 2.63794 0
M  V30 7406 H 710.094 -2.20439 4.75928 0
M  V30 7407 H 711.568 -3.75763 4.04359 0
M  V30 7408 H 712.045 -3.71169 2.34798 0
M  V30 7409 H 712.651 -2.46684 3.46449 0
M  V30 7410 N 710.966 -1.44241 -0.634997 0
M  V30 7411 C 711.898 -1.46793 -1.76024 0
M  V30 7412 C 712.911 -0.361781 -1.58729 0
M  V30 7413 O 714.1 -0.627297 -1.67114 0
M  V30 7414 C 711.2 -1.28248 -3.13697 0
M  V30 7415 C 710.373 -2.52038 -3.57485 0
M  V30 7416 C 709.432 -2.2845 -4.74022 0
M  V30 7417 O 708.458 -3.01915 -4.82531 0
M  V30 7418 N 709.66 -1.31264 -5.65464 0
M  V30 7419 H 712.425 -2.43797 -1.74307 0
M  V30 7420 H 709.986 -1.39631 -0.819438 0
M  V30 7421 H 711.978 -1.10321 -3.89373 0
M  V30 7422 H 710.548 -0.39623 -3.10079 0
M  V30 7423 H 709.768 -2.85268 -2.72059 0
M  V30 7424 H 711.056 -3.34382 -3.83492 0
M  V30 7425 H 710.454 -0.705817 -5.6128 0
M  V30 7426 H 709.011 -1.19316 -6.40786 0
M  V30 7427 N 712.444 0.87505 -1.31075 0
M  V30 7428 C 713.692 1.62447 -1.20231 0
M  V30 7429 C 714.013 1.93506 0.240888 0
M  V30 7430 O 713.283 1.57847 1.16022 0
M  V30 7431 H 711.863 0.602207 -0.441991 0
M  V30 7432 H 714.525 1.04788 -1.64334 0
M  V30 7433 H 713.621 2.57031 -1.77036 0
M  V30 7434 N 713.922 1.13953 1.08869 0
M  V30 7435 C 715.199 0.815768 1.77777 0
M  V30 7436 C 715.579 -0.691624 1.99449 0
M  V30 7437 O 714.927 -1.63085 1.60049 0
M  V30 7438 C 715.137 1.60916 3.09689 0
M  V30 7439 C 716.485 1.80549 3.84301 0
M  V30 7440 O 717.509 1.57562 3.19457 0
M  V30 7441 O 716.368 2.18946 5.00724 0
M  V30 7442 H 713.462 0.298445 0.771271 0
M  V30 7443 H 716.008 1.24446 1.15374 0
M  V30 7444 H 714.78 2.6333 2.89435 0
M  V30 7445 H 714.403 1.17578 3.79817 0
M  V30 7446 N 715.4 -1.26948 0.933913 0
M  V30 7447 C 716.31 -2.30366 0.443671 0
M  V30 7448 C 717.326 -1.67284 -0.478745 0
M  V30 7449 O 718.502 -1.98156 -0.360043 0
M  V30 7450 C 715.567 -3.45485 -0.289974 0
M  V30 7451 C 714.628 -4.24069 0.668114 0
M  V30 7452 C 713.861 -5.33691 -0.0306138 0
M  V30 7453 O 714.084 -5.5656 -1.24888 0
M  V30 7454 O 713.018 -5.98441 0.644384 0
M  V30 7455 H 716.844 -2.74349 1.30254 0
M  V30 7456 H 714.429 -1.32012 0.699506 0
M  V30 7457 H 716.311 -4.15486 -0.70353 0
M  V30 7458 H 714.986 -3.03546 -1.12435 0
M  V30 7459 H 713.893 -3.56579 1.13147 0
M  V30 7460 H 715.226 -4.69739 1.46989 0
M  V30 7461 N 716.879 -0.700114 -1.41195 0
M  V30 7462 C 718.156 -0.160836 -1.94938 0
M  V30 7463 C 718.536 1.33014 -1.63922 0
M  V30 7464 O 717.884 2.07878 -0.948636 0
M  V30 7465 C 718.094 -0.456991 -3.45995 0
M  V30 7466 C 719.442 -0.387207 -4.22831 0
M  V30 7467 O 720.466 -0.392164 -3.54035 0
M  V30 7468 O 719.325 -0.351267 -5.4537 0
M  V30 7469 H 716.419 -0.0176304 -0.826812 0
M  V30 7470 H 718.965 -0.776586 -1.50888 0
M  V30 7471 H 717.737 -1.48884 -3.61869 0
M  V30 7472 H 717.36 0.189503 -3.97148 0
M  V30 7473 N 718.357 1.51182 -0.445186 0
M  V30 7474 C 719.267 2.31692 0.368255 0
M  V30 7475 C 720.283 1.40942 1.02036 0
M  V30 7476 O 721.459 1.74011 1.01401 0
M  V30 7477 C 718.524 3.14903 1.45041 0
M  V30 7478 C 717.585 4.21442 0.817615 0
M  V30 7479 C 716.818 5.00677 1.8482 0
M  V30 7480 O 717.041 4.80644 3.07145 0
M  V30 7481 O 715.975 5.84559 1.43438 0
M  V30 7482 H 719.801 3.0232 -0.289219 0
M  V30 7483 H 717.386 1.47951 -0.207555 0
M  V30 7484 H 719.268 3.66612 2.07783 0
M  V30 7485 H 717.943 2.47031 2.09182 0
M  V30 7486 H 716.85 3.73791 0.151931 0
M  V30 7487 H 718.183 4.9171 0.219564 0
M  V30 7488 N 719.835 0.176821 1.56605 0
M  V30 7489 C 720.745 -0.763682 2.21822 0
M  V30 7490 C 721.761 -1.24889 1.21156 0
M  V30 7491 O 722.937 -1.29987 1.53836 0
M  V30 7492 C 720.002 -1.97352 2.8505 0
M  V30 7493 C 719.063 -1.53466 4.00932 0
M  V30 7494 C 718.296 -2.68682 4.61135 0
M  V30 7495 O 718.519 -3.85694 4.20234 0
M  V30 7496 O 717.453 -2.42442 5.50913 0
M  V30 7497 H 721.279 -0.238363 3.02763 0
M  V30 7498 H 718.864 -0.0516331 1.49311 0
M  V30 7499 H 720.746 -2.68096 3.25119 0
M  V30 7500 H 719.421 -2.48779 2.07101 0
M  V30 7501 H 718.328 -0.796551 3.65521 0
M  V30 7502 H 719.661 -1.06724 4.8049 0
M  V30 7503 N 721.313 -1.57302 -0.09688 0
M  V30 7504 C 722.223 -2.05258 -1.13606 0
M  V30 7505 C 723.239 -0.977137 -1.43972 0
M  V30 7506 O 724.415 -1.29018 -1.54649 0
M  V30 7507 C 721.48 -2.46593 -2.43706 0
M  V30 7508 C 720.541 -3.68322 -2.20538 0
M  V30 7509 C 719.774 -4.07676 -3.44435 0
M  V30 7510 O 719.997 -3.47141 -4.52603 0
M  V30 7511 O 718.931 -5.00641 -3.34129 0
M  V30 7512 H 722.757 -2.94069 -0.758752 0
M  V30 7513 H 720.342 -1.46164 -0.309263 0
M  V30 7514 H 722.224 -2.73814 -3.20318 0
M  V30 7515 H 720.899 -1.6092 -2.80867 0
M  V30 7516 H 719.806 -3.4622 -1.41713 0
M  V30 7517 H 721.139 -4.54769 -1.88271 0
M  V30 7518 N 722.791 0.367657 -1.53252 0
M  V30 7519 C 724.039 1.10832 -1.68999 0
M  V30 7520 C 724.36 1.89894 -0.443306 0
M  V30 7521 O 723.63 1.88235 0.54262 0
M  V30 7522 H 722.21 0.412153 -0.623008 0
M  V30 7523 H 724.872 0.414775 -1.90435 0
M  V30 7524 H 723.968 1.7993 -2.55013 0
M  V30 7525 N 724.269 1.44576 0.627338 0
M  V30 7526 C 725.232 1.51372 1.72102 0
M  V30 7527 C 726.232 0.395329 1.55865 0
M  V30 7528 O 727.422 0.658094 1.61291 0
M  V30 7529 C 724.554 1.39129 3.11217 0
M  V30 7530 H 725.747 2.48798 1.6745 0
M  V30 7531 H 723.3 1.31724 0.841336 0
M  V30 7532 H 724.035 0.428114 3.21462 0
M  V30 7533 H 723.82 2.20229 3.24409 0
M  V30 7534 H 725.31 1.46874 3.90919 0
M  V30 7535 N 725.747 -0.868086 1.31537 0
M  V30 7536 C 726.677 -1.99131 1.21939 0
M  V30 7537 C 727.658 -1.69768 0.106166 0
M  V30 7538 O 728.843 -1.92006 0.291081 0
M  V30 7539 C 725.973 -3.34676 0.927879 0
M  V30 7540 C 724.927 -3.7835 2.00088 0
M  V30 7541 C 724.253 -5.11375 1.56203 0
M  V30 7542 C 725.553 -3.95256 3.41424 0
M  V30 7543 H 727.247 -2.07419 2.15911 0
M  V30 7544 H 724.793 -0.996569 1.03945 0
M  V30 7545 H 726.746 -4.12793 0.847327 0
M  V30 7546 H 725.47 -3.26565 -0.0475042 0
M  V30 7547 H 724.129 -3.02474 2.07135 0
M  V30 7548 H 723.777 -4.99709 0.57445 0
M  V30 7549 H 723.477 -5.41568 2.27985 0
M  V30 7550 H 725.001 -5.92001 1.49558 0
M  V30 7551 H 726.415 -4.63764 3.3704 0
M  V30 7552 H 724.812 -4.36849 4.1144 0
M  V30 7553 H 725.882 -2.98579 3.82072 0
M  V30 7554 N 727.225 -1.14528 -1.08264 0
M  V30 7555 C 728.188 -0.83632 -2.13397 0
M  V30 7556 C 729.188 0.159715 -1.60005 0
M  V30 7557 O 730.378 -0.0688098 -1.74064 0
M  V30 7558 C 727.51 -0.246973 -3.40004 0
M  V30 7559 H 728.703 -1.76808 -2.42237 0
M  V30 7560 H 726.256 -0.951509 -1.24 0
M  V30 7561 H 726.991 0.693436 -3.168 0
M  V30 7562 H 726.776 -0.964412 -3.80055 0
M  V30 7563 H 728.266 -0.0480679 -4.17572 0
M  V30 7564 N 728.703 1.26451 -0.940633 0
M  V30 7565 C 729.928 1.98407 -0.60412 0
M  V30 7566 C 730.353 1.69584 0.81382 0
M  V30 7567 O 729.711 0.943553 1.54812 0
M  V30 7568 C 729.759 3.50387 -0.852136 0
M  V30 7569 O 728.863 4.1233 0.076013 0
M  V30 7570 H 728.204 0.622466 -0.231153 0
M  V30 7571 H 730.734 1.60932 -1.26342 0
M  V30 7572 H 730.744 4.00614 -0.772816 0
M  V30 7573 H 729.419 3.70696 -1.88566 0
M  V30 7574 H 727.996 3.7286 -0.0543187 0
M  V30 7575 N 730.181 0.707592 1.40822 0
M  V30 7576 C 731.421 0.247986 2.0289 0
M  V30 7577 C 731.785 -1.13484 1.54872 0
M  V30 7578 O 732.986 -1.69098 2.08948 0
M  V30 7579 C 731.257 0.316326 3.55997 0
M  V30 7580 S 732.816 -0.0674698 4.38748 0
M  V30 7581 H 729.634 0.09895 0.704081 0
M  V30 7582 H 732.236 0.928039 1.72069 0
M  V30 7583 H 730.94 1.32453 3.88438 0
M  V30 7584 H 730.471 -0.382474 3.91536 0
M  V30 7585 H 732.486 -1.29182 4.79089 0
M  V30 7586 N 731.66 -1.50943 0.453197 0
M  V30 7587 C 732.888 -2.06628 -0.106135 0
M  V30 7588 C 733.303 -1.31901 -1.35084 0
M  V30 7589 O 732.66 -0.383074 -1.78434 0
M  V30 7590 C 732.711 -3.5914 -0.412368 0
M  V30 7591 O 732.432 -4.31047 0.782948 0
M  V30 7592 C 733.933 -4.31391 -1.02064 0
M  V30 7593 H 731.153 -0.670999 -0.000885896 0
M  V30 7594 H 733.697 -1.94331 0.63684 0
M  V30 7595 H 731.852 -3.71299 -1.10526 0
M  V30 7596 H 732.266 -5.21948 0.516736 0
M  V30 7597 H 733.74 -5.39135 -1.1848 0
M  V30 7598 H 734.217 -3.90714 -2.00598 0
M  V30 7599 H 734.823 -4.23716 -0.366664 0
M  V30 7600 N 733.138 -0.185124 -1.56509 0
M  V30 7601 C 734.554 0.170865 -1.58683 0
M  V30 7602 C 734.754 1.61799 -1.20098 0
M  V30 7603 O 733.81 2.35181 -0.919038 0
M  V30 7604 C 735.123 -0.122459 -3.00451 0
M  V30 7605 C 736.671 -0.0617699 -3.12939 0
M  V30 7606 C 737.146 -0.328269 -4.56822 0
M  V30 7607 N 738.637 -0.276533 -4.62374 0
M  V30 7608 C 739.372 -0.456722 -5.71578 0
M  V30 7609 N 738.868 -0.69672 -6.89288 0
M  V30 7610 N 740.661 -0.391669 -5.60734 0
M  V30 7611 H 732.812 -1.12956 -1.79874 0
M  V30 7612 H 735.075 -0.45011 -0.834329 0
M  V30 7613 H 734.781 -1.12546 -3.33206 0
M  V30 7614 H 734.655 0.579578 -3.72721 0
M  V30 7615 H 737.042 0.931826 -2.80002 0
M  V30 7616 H 737.123 -0.796732 -2.43076 0
M  V30 7617 H 736.767 -1.31914 -4.9047 0
M  V30 7618 H 736.697 0.427465 -5.24862 0
M  V30 7619 H 739.188 -0.0972458 -3.77775 0
M  V30 7620 H 739.501 -0.823291 -7.68402 0
M  V30 7621 H 737.846 -0.733497 -6.91119 0
M  V30 7622 H 741.037 -0.204663 -4.67652 0
M  V30 7623 H 741.21 -0.535518 -6.45783 0
M  V30 7624 N 734.616 1.57351 0.0885366 0
M  V30 7625 C 735.856 1.88248 0.796362 0
M  V30 7626 C 736.22 0.776915 1.75579 0
M  V30 7627 O 737.421 0.968485 2.50747 0
M  V30 7628 C 735.692 3.24385 1.50031 0
M  V30 7629 S 737.251 3.76991 2.24551 0
M  V30 7630 H 734.069 0.659697 0.265181 0
M  V30 7631 H 736.671 1.95428 0.0531843 0
M  V30 7632 H 735.375 4.02764 0.788 0
M  V30 7633 H 734.906 3.20361 2.28325 0
M  V30 7634 H 736.921 3.50933 3.508 0
M  V30 7635 N 736.094 -0.359525 1.53444 0
M  V30 7636 C 737.024 -1.44662 1.8329 0
M  V30 7637 C 738.005 -1.55617 0.68683 0
M  V30 7638 O 739.19 -1.70086 0.93725 0
M  V30 7639 C 736.32 -2.81923 2.02822 0
M  V30 7640 C 735.274 -2.85787 3.18606 0
M  V30 7641 C 734.6 -4.25781 3.23442 0
M  V30 7642 C 735.9 -2.52762 4.57065 0
M  V30 7643 H 737.594 -1.19934 2.74329 0
M  V30 7644 H 735.14 -0.575517 1.31999 0
M  V30 7645 H 737.093 -3.58005 2.22285 0
M  V30 7646 H 735.817 -3.08051 1.085 0
M  V30 7647 H 734.476 -2.12157 2.98973 0
M  V30 7648 H 734.124 -4.48994 2.26745 0
M  V30 7649 H 733.824 -4.29281 4.01238 0
M  V30 7650 H 735.348 -5.03727 3.45096 0
M  V30 7651 H 736.762 -3.18557 4.76649 0
M  V30 7652 H 735.159 -2.67569 5.37147 0
M  V30 7653 H 736.229 -1.47993 4.61764 0
M  V30 7654 N 737.572 -1.44907 -0.619662 0
M  V30 7655 C 738.52 -1.52971 -1.75222 0
M  V30 7656 C 739.514 -0.400531 -1.64597 0
M  V30 7657 O 740.72 -0.575952 -1.70537 0
M  V30 7658 H 737.095 -0.480241 -0.578682 0
M  V30 7659 H 739.066 -2.48269 -1.65545 0
M  V30 7660 C 737.815 -1.50204 -3.13583 0
M  V30 7661 H 737.138 -2.36412 -3.22412 0
M  V30 7662 H 738.578 -1.59905 -3.92691 0
M  V30 7663 C 737.037 -0.22455 -3.36151 0
M  V30 7664 O 737.567 0.700574 -3.95544 0
M  V30 7665 N 735.773 -0.124052 -2.90335 0
M  V30 7666 H 735.32 -0.87774 -2.42185 0
M  V30 7667 H 735.278 0.729914 -3.0581 0
M  V30 7668 N 739.05 0.861098 -1.31996 0
M  V30 7669 C 739.997 1.96912 -1.20392 0
M  V30 7670 C 740.967 1.65869 -0.0875899 0
M  V30 7671 O 742.152 1.88992 -0.262011 0
M  V30 7672 C 739.292 3.32435 -0.926335 0
M  V30 7673 C 738.405 3.76018 -2.12684 0
M  V30 7674 C 737.54 5.00301 -1.78529 0
M  V30 7675 C 736.579 5.36357 -2.94937 0
M  V30 7676 N 735.716 6.51818 -2.60917 0
M  V30 7677 H 740.556 2.06169 -2.1517 0
M  V30 7678 H 738.093 1.00917 -1.07024 0
M  V30 7679 H 740.051 4.10478 -0.745917 0
M  V30 7680 H 738.681 3.22796 -0.0153578 0
M  V30 7681 H 737.733 2.93683 -2.41774 0
M  V30 7682 H 739.045 3.98664 -2.99781 0
M  V30 7683 H 738.199 5.86034 -1.57001 0
M  V30 7684 H 736.938 4.79578 -0.886356 0
M  V30 7685 H 735.943 4.49139 -3.17103 0
M  V30 7686 H 737.168 5.59041 -3.85552 0
M  V30 7687 H 735.114 6.32624 -1.73558 0
M  V30 7688 H 735.031 6.7445 -3.41544 0
M  V30 7689 H 736.299 7.4072 -2.42804 0
M  V30 7690 N 740.528 1.15101 1.07655 0
M  V30 7691 C 741.777 0.918528 1.79572 0
M  V30 7692 C 742.09 -0.555922 1.87534 0
M  V30 7693 O 743.296 -0.905893 2.55941 0
M  V30 7694 C 741.752 1.59394 3.22679 0
M  V30 7695 C 741.36 3.1052 3.22927 0
M  V30 7696 C 743.104 1.44289 3.99225 0
M  V30 7697 C 741.011 3.70862 4.60668 0
M  V30 7698 H 739.941 0.340006 0.672987 0
M  V30 7699 H 742.592 1.38079 1.20857 0
M  V30 7700 H 740.974 1.05936 3.81567 0
M  V30 7701 H 742.148 3.70708 2.737 0
M  V30 7702 H 740.463 3.25351 2.59876 0
M  V30 7703 H 743.06 1.86766 5.01022 0
M  V30 7704 H 743.403 0.389975 4.14469 0
M  V30 7705 H 743.936 1.94826 3.46825 0
M  V30 7706 H 740.675 4.7604 4.50628 0
M  V30 7707 H 740.195 3.15456 5.10145 0
M  V30 7708 H 741.874 3.71607 5.29639 0
M  V30 7709 N 742.006 -1.2595 0.947325 0
M  V30 7710 C 742.939 -2.24559 0.406009 0
M  V30 7711 C 743.917 -1.54441 -0.508598 0
M  V30 7712 O 745.101 -1.83181 -0.444644 0
M  V30 7713 C 742.228 -3.36136 -0.415987 0
M  V30 7714 C 741.274 -4.24245 0.437969 0
M  V30 7715 S 742.107 -5.01948 1.86572 0
M  V30 7716 C 743.263 -6.16997 1.05194 0
M  V30 7717 H 743.496 -2.70128 1.24171 0
M  V30 7718 H 741.029 -1.34912 0.750874 0
M  V30 7719 H 742.987 -4.00861 -0.88433 0
M  V30 7720 H 741.648 -2.89167 -1.22643 0
M  V30 7721 H 740.841 -5.03634 -0.192127 0
M  V30 7722 H 740.443 -3.64416 0.841235 0
M  V30 7723 H 742.735 -6.76848 0.297126 0
M  V30 7724 H 743.678 -6.84324 1.8195 0
M  V30 7725 H 744.086 -5.61458 0.585294 0
M  V30 7726 N 743.484 -0.715051 -1.40445 0
M  V30 7727 C 744.431 -0.0621393 -2.30716 0
M  V30 7728 C 745.401 0.750871 -1.48159 0
M  V30 7729 O 746.586 0.714928 -1.76899 0
M  V30 7730 C 743.726 0.854036 -3.34365 0
M  V30 7731 C 742.839 0.0305565 -4.31989 0
M  V30 7732 C 741.974 0.946162 -5.22706 0
M  V30 7733 C 741.013 0.116741 -6.11989 0
M  V30 7734 N 740.15 0.987194 -6.95125 0
M  V30 7735 H 744.99 -0.83764 -2.85985 0
M  V30 7736 H 742.527 -0.424759 -1.40834 0
M  V30 7737 H 744.485 1.39946 -3.93028 0
M  V30 7738 H 743.115 1.59572 -2.806 0
M  V30 7739 H 742.167 -0.632044 -3.75112 0
M  V30 7740 H 743.479 -0.611615 -4.95036 0
M  V30 7741 H 742.633 1.56014 -5.86297 0
M  V30 7742 H 741.372 1.62216 -4.59932 0
M  V30 7743 H 740.377 -0.510176 -5.47428 0
M  V30 7744 H 741.602 -0.555742 -6.76822 0
M  V30 7745 H 739.548 1.64885 -6.3494 0
M  V30 7746 H 739.465 0.401046 -7.54936 0
M  V30 7747 H 740.733 1.58737 -7.63166 0
M  V30 7748 N 744.962 1.50701 -0.461195 0
M  V30 7749 C 746.19 2.06681 0.0951756 0
M  V30 7750 C 746.605 1.32615 1.34382 0
M  V30 7751 O 745.962 0.392531 1.78229 0
M  V30 7752 C 746.013 3.59354 0.393316 0
M  V30 7753 O 745.734 4.30626 -0.805797 0
M  V30 7754 C 747.235 4.31926 0.997744 0
M  V30 7755 H 744.455 0.670995 -0.00267259 0
M  V30 7756 H 746.999 1.93991 -0.647137 0
M  V30 7757 H 745.154 3.7188 1.08555 0
M  V30 7758 H 745.568 5.21667 -0.544409 0
M  V30 7759 H 747.042 5.39756 1.15619 0
M  V30 7760 H 747.519 3.91772 1.98523 0
M  V30 7761 H 748.125 4.23905 0.344188 0
M  V30 7762 N 746.441 0.193421 1.56409 0
M  V30 7763 C 747.857 -0.162447 1.58771 0
M  V30 7764 C 748.057 -1.6116 1.20954 0
M  V30 7765 O 747.113 -2.3469 0.931497 0
M  V30 7766 C 748.426 0.138391 3.00381 0
M  V30 7767 C 749.974 0.0783649 3.12902 0
M  V30 7768 C 750.449 0.352491 4.56642 0
M  V30 7769 N 751.94 0.30105 4.62221 0
M  V30 7770 C 752.675 0.487028 5.71328 0
M  V30 7771 N 752.171 0.733265 6.88909 0
M  V30 7772 N 753.964 0.4214 5.60518 0
M  V30 7773 H 746.115 1.13909 1.79272 0
M  V30 7774 H 748.378 0.454528 0.83193 0
M  V30 7775 H 748.084 1.14312 3.32604 0
M  V30 7776 H 747.958 -0.559804 3.73023 0
M  V30 7777 H 750.345 -0.916963 2.80492 0
M  V30 7778 H 750.426 0.809611 2.4265 0
M  V30 7779 H 750.07 1.34513 4.89764 0
M  V30 7780 H 750 -0.399624 5.25081 0
M  V30 7781 H 752.491 0.117279 3.77718 0
M  V30 7782 H 752.804 0.86403 7.67955 0
M  V30 7783 H 751.149 0.770138 6.9072 0
M  V30 7784 H 754.34 0.229461 4.67537 0
M  V30 7785 H 754.513 0.569758 6.4549 0
M  V30 7786 N 747.919 -1.57396 -0.0801906 0
M  V30 7787 C 749.165 -1.87113 -0.782083 0
M  V30 7788 C 749.498 -0.78458 -1.77646 0
M  V30 7789 O 748.773 0.205993 -1.93406 0
M  V30 7790 C 749.056 -3.27483 -1.49756 0
M  V30 7791 C 748.909 -4.46782 -0.520171 0
M  V30 7792 C 750.228 -3.65965 -2.44454 0
M  V30 7793 H 747.347 -0.680559 -0.282858 0
M  V30 7794 H 749.989 -1.89946 -0.0454139 0
M  V30 7795 H 748.139 -3.25199 -2.12551 0
M  V30 7796 H 749.811 -4.61187 0.101919 0
M  V30 7797 H 748.054 -4.33485 0.165219 0
M  V30 7798 H 748.725 -5.41761 -1.05824 0
M  V30 7799 H 751.201 -3.69289 -1.91742 0
M  V30 7800 H 750.077 -4.65086 -2.91524 0
M  V30 7801 H 750.338 -2.95446 -3.28883 0
M  V30 7802 N 749.397 0.351382 -1.53633 0
M  V30 7803 C 750.637 1.10102 -1.72212 0
M  V30 7804 C 751.001 1.86128 -0.471198 0
M  V30 7805 O 752.202 2.63445 -0.533887 0
M  V30 7806 C 750.473 2.02348 -2.94602 0
M  V30 7807 S 752.032 2.84641 -3.33954 0
M  V30 7808 H 748.85 0.372145 -0.60583 0
M  V30 7809 H 751.452 0.38044 -1.91763 0
M  V30 7810 H 750.156 1.45283 -3.83824 0
M  V30 7811 H 749.687 2.78856 -2.77493 0
M  V30 7812 H 751.702 4.04724 -2.87076 0
M  V30 7813 N 750.875 1.45233 0.611969 0
M  V30 7814 C 752.291 1.29542 0.932251 0
M  V30 7815 C 752.491 0.24523 2.00002 0
M  V30 7816 O 751.547 -0.362333 2.49887 0
M  V30 7817 C 752.86 2.67301 1.37733 0
M  V30 7818 C 754.408 2.75163 1.49178 0
M  V30 7819 C 754.883 4.13437 1.97064 0
M  V30 7820 N 756.374 4.15709 2.04304 0
M  V30 7821 C 757.109 5.19566 2.42568 0
M  V30 7822 N 756.605 6.33771 2.79832 0
M  V30 7823 N 758.398 5.06923 2.42869 0
M  V30 7824 H 750.549 2.12192 -0.0938679 0
M  V30 7825 H 752.812 0.947775 0.0206569 0
M  V30 7826 H 752.518 3.45318 0.666951 0
M  V30 7827 H 752.392 2.95472 2.3447 0
M  V30 7828 H 754.779 1.97453 2.19309 0
M  V30 7829 H 754.86 2.50712 0.507674 0
M  V30 7830 H 754.504 4.91631 1.27521 0
M  V30 7831 H 754.434 4.35277 2.9638 0
M  V30 7832 H 756.925 3.33293 1.78113 0
M  V30 7833 H 757.238 7.08815 3.07898 0
M  V30 7834 H 755.583 6.37179 2.77538 0
M  V30 7835 H 758.774 4.1675 2.1316 0
M  V30 7836 H 758.947 5.87981 2.72364 0
M  V30 7837 N 752.353 -0.854086 1.3245 0
M  V30 7838 C 753.769 -1.14238 1.11453 0
M  V30 7839 C 753.969 -2.01228 -0.10461 0
M  V30 7840 O 753.025 -2.39845 -0.789339 0
M  V30 7841 C 754.338 -1.81916 2.39431 0
M  V30 7842 C 755.886 -1.94549 2.45193 0
M  V30 7843 C 756.361 -2.65642 3.73093 0
M  V30 7844 N 757.852 -2.73167 3.74078 0
M  V30 7845 C 758.587 -3.28828 4.69744 0
M  V30 7846 N 758.083 -3.85295 5.75778 0
M  V30 7847 N 759.876 -3.26936 4.57241 0
M  V30 7848 H 752.027 -0.274786 2.10615 0
M  V30 7849 H 754.29 -0.184375 0.929898 0
M  V30 7850 H 753.996 -1.25452 3.28565 0
M  V30 7851 H 753.87 -2.82068 2.50434 0
M  V30 7852 H 756.257 -2.50172 1.56518 0
M  V30 7853 H 756.338 -0.933914 2.38142 0
M  V30 7854 H 755.982 -2.10683 4.62142 0
M  V30 7855 H 755.912 -3.6724 3.77415 0
M  V30 7856 H 758.403 -2.33108 2.97438 0
M  V30 7857 H 758.716 -4.25925 6.44832 0
M  V30 7858 H 757.061 -3.83625 5.79531 0
M  V30 7859 H 760.252 -2.8207 3.7357 0
M  V30 7860 H 760.425 -3.70014 5.31971 0
M  V30 7861 N 753.831 -1.1567 -1.07043 0
M  V30 7862 C 754.761 -0.879348 -2.16309 0
M  V30 7863 C 755.742 0.171311 -1.69235 0
M  V30 7864 O 756.927 0.0250175 -1.94184 0
M  V30 7865 C 754.057 -0.371307 -3.45309 0
M  V30 7866 C 753.011 -1.359 -4.05851 0
M  V30 7867 C 752.337 -0.709678 -5.29969 0
M  V30 7868 C 753.637 -2.72606 -4.45514 0
M  V30 7869 H 755.331 -1.79308 -2.39768 0
M  V30 7870 H 752.877 -0.863558 -1.15233 0
M  V30 7871 H 754.83 -0.164798 -4.21078 0
M  V30 7872 H 753.554 0.577906 -3.21446 0
M  V30 7873 H 752.213 -1.55193 -3.32131 0
M  V30 7874 H 751.861 0.245782 -5.02399 0
M  V30 7875 H 751.561 -1.36886 -5.71433 0
M  V30 7876 H 753.085 -0.513015 -6.08441 0
M  V30 7877 H 754.499 -2.57141 -5.12398 0
M  V30 7878 H 752.896 -3.34927 -4.97939 0
M  V30 7879 H 753.966 -3.28434 -3.56734 0
M  V30 7880 N 755.309 1.25446 -0.953992 0
M  V30 7881 C 756.725 1.4539 -0.658316 0
M  V30 7882 C 756.925 1.85607 0.784356 0
M  V30 7883 O 755.981 1.98568 1.55972 0
M  V30 7884 C 757.294 2.52643 -1.6307 0
M  V30 7885 C 758.842 2.66484 -1.64181 0
M  V30 7886 C 759.317 3.76921 -2.60182 0
M  V30 7887 N 760.808 3.84331 -2.58542 0
M  V30 7888 C 761.543 4.69271 -3.29503 0
M  V30 7889 N 761.039 5.58503 -4.09934 0
M  V30 7890 N 762.832 4.6323 -3.18393 0
M  V30 7891 H 754.983 0.976337 -1.8863 0
M  V30 7892 H 757.246 0.490343 -0.811337 0
M  V30 7893 H 756.952 2.29949 -2.66114 0
M  V30 7894 H 756.826 3.50547 -1.39271 0
M  V30 7895 H 759.213 2.88545 -0.618552 0
M  V30 7896 H 759.294 1.68982 -1.92038 0
M  V30 7897 H 758.938 3.55612 -3.62633 0
M  V30 7898 H 758.868 4.73906 -2.29609 0
M  V30 7899 H 761.359 3.20544 -2.0015 0
M  V30 7900 H 761.672 6.20241 -4.61 0
M  V30 7901 H 760.017 5.58214 -4.14032 0
M  V30 7902 H 763.208 3.92527 -2.5503 0
M  V30 7903 H 763.381 5.29204 -3.73961 0
M  V30 7904 N 756.787 0.722489 1.40064 0
M  V30 7905 C 758.203 0.396758 1.5459 0
M  V30 7906 C 758.403 -1.09375 1.69232 0
M  V30 7907 O 757.459 -1.87984 1.68578 0
M  V30 7908 C 758.772 1.16885 2.77053 0
M  V30 7909 C 760.32 1.15583 2.90877 0
M  V30 7910 C 760.795 1.91023 4.16262 0
M  V30 7911 N 762.286 1.88126 4.23276 0
M  V30 7912 C 763.021 2.43315 5.19216 0
M  V30 7913 N 762.517 3.07089 6.21022 0
M  V30 7914 N 764.31 2.33418 5.11344 0
M  V30 7915 H 756.461 1.68887 1.28806 0
M  V30 7916 H 758.724 0.714231 0.62336 0
M  V30 7917 H 758.43 2.22301 2.72534 0
M  V30 7918 H 758.304 0.765011 3.69361 0
M  V30 7919 H 760.691 0.10984 2.94896 0
M  V30 7920 H 760.772 1.59895 1.99668 0
M  V30 7921 H 760.416 2.95616 4.13006 0
M  V30 7922 H 760.346 1.44126 5.06493 0
M  V30 7923 H 762.837 1.41654 3.50346 0
M  V30 7924 H 763.15 3.467 6.90666 0
M  V30 7925 H 761.495 3.11175 6.21446 0
M  V30 7926 H 764.686 1.83248 4.30741 0
M  V30 7927 H 764.859 2.7673 5.85939 0
M  V30 7928 N 758.265 -1.50454 0.469181 0
M  V30 7929 C 759.228 -2.2703 -0.314643 0
M  V30 7930 C 760.228 -1.31734 -0.922111 0
M  V30 7931 O 761.418 -1.55176 -0.791588 0
M  V30 7932 C 758.55 -3.08616 -1.44806 0
M  V30 7933 H 759.743 -2.97769 0.356892 0
M  V30 7934 H 757.296 -1.54698 0.223191 0
M  V30 7935 H 758.031 -2.42369 -2.1547 0
M  V30 7936 H 757.816 -3.78647 -1.01829 0
M  V30 7937 H 759.306 -3.66536 -2.00103 0
M  V30 7938 N 759.743 -0.201713 -1.56304 0
M  V30 7939 C 760.691 0.733133 -2.20744 0
M  V30 7940 C 761.685 1.2148 -1.18064 0
M  V30 7941 O 762.891 1.17692 -1.36193 0
M  V30 7942 H 759.266 0.254789 -0.707521 0
M  V30 7943 H 761.237 0.165996 -2.97938 0
M  V30 7944 C 759.986 1.93925 -2.88597 0
M  V30 7945 H 759.309 1.5777 -3.67353 0
M  V30 7946 H 760.749 2.57158 -3.37114 0
M  V30 7947 C 759.208 2.78219 -1.89989 0
M  V30 7948 O 759.738 3.76353 -1.40432 0
M  V30 7949 N 757.944 2.43847 -1.58072 0
M  V30 7950 H 757.491 1.64103 -1.98565 0
M  V30 7951 H 757.449 3.0053 -0.923524 0
M  V30 7952 N 761.222 1.57436 0.0718424 0
M  V30 7953 C 762.638 1.53792 0.426628 0
M  V30 7954 C 762.838 0.921887 1.79174 0
M  V30 7955 O 761.894 0.524374 2.46995 0
M  V30 7956 C 763.207 2.98443 0.367739 0
M  V30 7957 C 764.755 3.09778 0.447928 0
M  V30 7958 C 765.23 4.5608 0.418946 0
M  V30 7959 N 766.721 4.60716 0.479022 0
M  V30 7960 C 767.456 5.71397 0.47881 0
M  V30 7961 N 766.952 6.91443 0.433417 0
M  V30 7962 N 768.745 5.59639 0.525364 0
M  V30 7963 H 760.896 1.95848 -0.822033 0
M  V30 7964 H 763.159 0.896418 -0.308447 0
M  V30 7965 H 762.865 3.47072 -0.56865 0
M  V30 7966 H 762.739 3.58335 1.17795 0
M  V30 7967 H 765.126 2.61122 1.37474 0
M  V30 7968 H 765.207 2.52796 -0.390857 0
M  V30 7969 H 764.851 5.05393 -0.504016 0
M  V30 7970 H 764.781 5.10925 1.27526 0
M  V30 7971 H 767.272 3.74328 0.518355 0
M  V30 7972 H 767.585 7.71562 0.43718 0
M  V30 7973 H 765.93 6.93847 0.400106 0
M  V30 7974 H 769.121 4.64756 0.558519 0
M  V30 7975 H 769.294 6.45896 0.52173 0
M  V30 7976 N 762.7 -0.34323 1.53817 0
M  V30 7977 C 763.946 -1.08504 1.71332 0
M  V30 7978 C 764.279 -1.88294 0.475285 0
M  V30 7979 O 763.554 -1.87205 -0.527688 0
M  V30 7980 C 763.837 -2.02597 2.97702 0
M  V30 7981 C 763.69 -1.26268 4.31713 0
M  V30 7982 C 765.009 -3.0241 3.19744 0
M  V30 7983 H 762.128 -0.393072 0.623429 0
M  V30 7984 H 764.77 -0.363579 1.86489 0
M  V30 7985 H 762.92 -2.64118 2.8491 0
M  V30 7986 H 764.592 -0.673594 4.56356 0
M  V30 7987 H 762.835 -0.564696 4.30109 0
M  V30 7988 H 763.506 -1.95253 5.16314 0
M  V30 7989 H 765.982 -2.51004 3.31868 0
M  V30 7990 H 764.858 -3.65449 4.09558 0
M  V30 7991 H 765.119 -3.73806 2.36054 0
M  V30 7992 N 764.178 -1.45556 -0.604258 0
M  V30 7993 C 765.108 -1.57327 -1.72541 0
M  V30 7994 C 766.089 -0.424637 -1.64714 0
M  V30 7995 O 767.274 -0.648196 -1.83063 0
M  V30 7996 C 764.404 -1.54279 -3.11152 0
M  V30 7997 C 763.358 -2.67893 -3.33792 0
M  V30 7998 C 762.684 -2.499 -4.72709 0
M  V30 7999 C 763.984 -4.0988 -3.23722 0
M  V30 8000 H 765.678 -2.51175 -1.62947 0
M  V30 8001 H 763.224 -1.20884 -0.782504 0
M  V30 8002 H 765.177 -1.6111 -3.89386 0
M  V30 8003 H 763.901 -0.569627 -3.21594 0
M  V30 8004 H 762.56 -2.60495 -2.57949 0
M  V30 8005 H 762.208 -1.50715 -4.79889 0
M  V30 8006 H 761.908 -3.26091 -4.88813 0
M  V30 8007 H 763.432 -2.5859 -5.5314 0
M  V30 8008 H 764.846 -4.18503 -3.91826 0
M  V30 8009 H 763.243 -4.86487 -3.51355 0
M  V30 8010 H 764.313 -4.31553 -2.21111 0
M  V30 8011 N 765.656 0.84705 -1.32902 0
M  V30 8012 C 767.072 1.13645 -1.12058 0
M  V30 8013 C 767.272 2.01281 0.093937 0
M  V30 8014 O 766.328 2.4026 0.776608 0
M  V30 8015 C 767.641 1.80644 -2.40392 0
M  V30 8016 C 769.189 1.93246 -2.46221 0
M  V30 8017 C 769.664 2.6366 -3.74496 0
M  V30 8018 N 771.155 2.71179 -3.75521 0
M  V30 8019 C 771.89 3.26332 -4.71482 0
M  V30 8020 N 771.386 3.82236 -5.77813 0
M  V30 8021 N 773.179 3.24507 -4.58968 0
M  V30 8022 H 765.33 0.263612 -2.10758 0
M  V30 8023 H 767.593 0.17944 -0.930863 0
M  V30 8024 H 767.299 1.23708 -3.29225 0
M  V30 8025 H 767.173 2.80736 -2.51926 0
M  V30 8026 H 769.56 2.49338 -1.57843 0
M  V30 8027 H 769.641 0.921272 -2.38634 0
M  V30 8028 H 769.285 2.08229 -4.63253 0
M  V30 8029 H 769.215 3.65234 -3.79357 0
M  V30 8030 H 771.706 2.31527 -2.9867 0
M  V30 8031 H 772.019 4.22499 -6.47082 0
M  V30 8032 H 770.364 3.80546 -5.81558 0
M  V30 8033 H 773.555 2.80085 -3.7506 0
M  V30 8034 H 773.728 3.67188 -5.33926 0
M  V30 8035 N 767.134 1.16236 1.06428 0
M  V30 8036 C 768.097 0.870163 2.1204 0
M  V30 8037 C 769.097 -0.134239 1.60239 0
M  V30 8038 O 770.287 0.0964932 1.73933 0
M  V30 8039 C 767.419 0.301033 3.39568 0
M  V30 8040 H 768.612 1.8064 2.39394 0
M  V30 8041 H 766.165 0.971116 1.2247 0
M  V30 8042 H 766.9 -0.642948 3.17863 0
M  V30 8043 H 766.685 1.02475 3.78472 0
M  V30 8044 H 768.175 0.114494 4.17443 0
M  V30 8045 N 768.612 -1.24939 0.960631 0
M  V30 8046 C 770.028 -1.45039 0.666018 0
M  V30 8047 C 770.228 -1.86021 -0.774501 0
M  V30 8048 O 769.284 -1.99392 -1.54916 0
M  V30 8049 C 770.597 -2.51775 1.64408 0
M  V30 8050 C 772.145 -2.6561 1.65592 0
M  V30 8051 C 772.62 -3.75536 2.62177 0
M  V30 8052 N 774.111 -3.82954 2.60577 0
M  V30 8053 C 774.846 -4.67517 3.31987 0
M  V30 8054 N 774.342 -5.56321 4.1289 0
M  V30 8055 N 776.135 -4.61535 3.20845 0
M  V30 8056 H 768.286 -0.96632 1.89145 0
M  V30 8057 H 770.549 -0.486034 0.813926 0
M  V30 8058 H 770.255 -2.28534 2.67329 0
M  V30 8059 H 770.129 -3.49804 1.41128 0
M  V30 8060 H 772.516 -2.88212 0.633846 0
M  V30 8061 H 772.597 -1.67962 1.92931 0
M  V30 8062 H 772.241 -3.53684 3.64514 0
M  V30 8063 H 772.171 -4.72682 2.32119 0
M  V30 8064 H 774.662 -3.19478 2.01847 0
M  V30 8065 H 774.975 -6.17787 4.64283 0
M  V30 8066 H 773.32 -5.5601 4.16987 0
M  V30 8067 H 776.511 -3.91169 2.57108 0
M  V30 8068 H 776.684 -5.27214 3.76762 0
M  V30 8069 N 770.09 -0.729906 -1.39679 0
M  V30 8070 C 771.33 -0.280232 -2.0247 0
M  V30 8071 C 771.694 1.11006 -1.56658 0
M  V30 8072 O 772.895 1.65753 -2.11612 0
M  V30 8073 C 771.166 -0.372922 -3.55449 0
M  V30 8074 S 772.725 -0.00233974 -4.388 0
M  V30 8075 H 769.543 -0.110139 -0.702418 0
M  V30 8076 H 772.145 -0.955296 -1.70571 0
M  V30 8077 H 770.849 -1.38616 -3.86282 0
M  V30 8078 H 770.38 0.320136 -3.92095 0
M  V30 8079 H 772.395 1.21544 -4.81084 0
M  V30 8080 N 771.568 1.50203 -0.477153 0
M  V30 8081 C 772.984 1.59056 -0.131663 0
M  V30 8082 C 773.184 1.48473 1.36227 0
M  V30 8083 O 772.24 1.34635 2.13611 0
M  V30 8084 C 773.553 2.92741 -0.687254 0
M  V30 8085 C 775.101 3.0615 -0.651223 0
M  V30 8086 C 775.576 4.42419 -1.18446 0
M  V30 8087 N 777.067 4.48847 -1.14413 0
M  V30 8088 C 777.802 5.52689 -1.52717 0
M  V30 8089 N 777.298 6.63754 -1.98499 0
M  V30 8090 N 779.091 5.43267 -1.44282 0
M  V30 8091 H 771.242 1.55325 -1.44872 0
M  V30 8092 H 773.505 0.734395 -0.599473 0
M  V30 8093 H 773.211 3.0598 -1.73405 0
M  V30 8094 H 773.085 3.76961 -0.134215 0
M  V30 8095 H 775.472 2.92556 0.386677 0
M  V30 8096 H 775.553 2.23673 -1.24114 0
M  V30 8097 H 775.197 4.56763 -2.22103 0
M  V30 8098 H 775.127 5.23498 -0.570709 0
M  V30 8099 H 777.618 3.69152 -0.808416 0
M  V30 8100 H 777.931 7.39059 -2.25859 0
M  V30 8101 H 776.276 6.64858 -2.02456 0
M  V30 8102 H 779.467 4.55387 -1.08352 0
M  V30 8103 H 779.64 6.24074 -1.74459 0
M  V30 8104 N 773.046 0.209999 1.56195 0
M  V30 8105 C 774.462 -0.145598 1.58934 0
M  V30 8106 C 774.662 -1.59868 1.22656 0
M  V30 8107 O 773.718 -2.33689 0.956336 0
M  V30 8108 C 775.031 0.170243 3.00218 0
M  V30 8109 C 776.579 0.111548 3.12801 0
M  V30 8110 C 777.054 0.400904 4.56242 0
M  V30 8111 N 778.545 0.350058 4.61875 0
M  V30 8112 C 779.28 0.547598 5.70779 0
M  V30 8113 N 778.776 0.806291 6.88092 0
M  V30 8114 N 780.569 0.480827 5.6004 0
M  V30 8115 H 772.72 1.15804 1.78054 0
M  V30 8116 H 774.983 0.463326 0.827063 0
M  V30 8117 H 774.689 1.17833 3.31373 0
M  V30 8118 H 774.563 -0.520208 3.73596 0
M  V30 8119 H 776.95 -0.887162 2.81449 0
M  V30 8120 H 777.031 0.835302 2.41777 0
M  V30 8121 H 776.675 1.397 4.8831 0
M  V30 8122 H 776.605 -0.34391 5.25476 0
M  V30 8123 H 779.096 0.157334 3.77572 0
M  V30 8124 H 779.409 0.945433 7.66995 0
M  V30 8125 H 777.754 0.843355 6.89864 0
M  V30 8126 H 780.945 0.279037 4.67268 0
M  V30 8127 H 781.118 0.638189 6.4485 0
M  V30 8128 N 774.524 -1.57472 -0.0634922 0
M  V30 8129 C 775.487 -2.03268 -1.059 0
M  V30 8130 C 776.487 -0.931028 -1.31105 0
M  V30 8131 O 777.677 -1.19567 -1.26686 0
M  V30 8132 C 774.809 -2.42039 -2.40062 0
M  V30 8133 H 776.002 -2.92454 -0.664119 0
M  V30 8134 H 773.555 -1.53206 -0.309444 0
M  V30 8135 H 774.29 -1.55904 -2.84367 0
M  V30 8136 H 774.075 -3.22437 -2.23108 0
M  V30 8137 H 775.565 -2.78017 -3.11603 0
M  V30 8138 N 776.003 0.335068 -1.53997 0
M  V30 8139 C 777.249 1.07594 -1.71905 0
M  V30 8140 C 777.582 1.88039 -0.485264 0
M  V30 8141 O 776.857 1.87482 0.517752 0
M  V30 8142 C 777.14 2.01016 -2.98772 0
M  V30 8143 C 776.993 1.23977 -4.32377 0
M  V30 8144 C 778.312 3.0071 -3.21343 0
M  V30 8145 H 775.431 0.38976 -0.625505 0
M  V30 8146 H 778.073 0.353684 -1.86679 0
M  V30 8147 H 776.223 2.62603 -2.86307 0
M  V30 8148 H 777.895 0.649383 -4.56706 0
M  V30 8149 H 776.138 0.541878 -4.30402 0
M  V30 8150 H 776.809 1.92512 -5.17342 0
M  V30 8151 H 779.285 2.4924 -3.33194 0
M  V30 8152 H 778.161 3.63272 -4.11491 0
M  V30 8153 H 778.422 3.72549 -2.38033 0
M  V30 8154 N 777.481 1.45874 0.596531 0
M  V30 8155 C 778.428 1.55389 1.70655 0
M  V30 8156 C 779.398 0.399036 1.61236 0
M  V30 8157 O 780.583 0.61396 1.80652 0
M  V30 8158 C 777.723 1.53705 3.0898 0
M  V30 8159 C 776.836 2.79823 3.29125 0
M  V30 8160 C 775.971 2.69735 4.5762 0
M  V30 8161 C 775.01 3.90856 4.71061 0
M  V30 8162 N 774.147 3.79237 5.90867 0
M  V30 8163 H 778.987 2.50211 1.61859 0
M  V30 8164 H 776.524 1.24146 0.789069 0
M  V30 8165 H 778.482 1.50715 3.89026 0
M  V30 8166 H 777.112 0.624247 3.16706 0
M  V30 8167 H 776.164 2.92852 2.42779 0
M  V30 8168 H 777.476 3.69628 3.34927 0
M  V30 8169 H 776.63 2.64773 5.45875 0
M  V30 8170 H 775.369 1.77547 4.54234 0
M  V30 8171 H 774.374 3.96164 3.81227 0
M  V30 8172 H 775.599 4.84124 4.76236 0
M  V30 8173 H 773.545 2.89825 5.88504 0
M  V30 8174 H 773.462 4.62686 5.97877 0
M  V30 8175 H 774.73 3.78227 6.8159 0
M  V30 8176 N 778.959 -0.83999 1.33349 0
M  V30 8177 C 780.184 -1.63249 1.27924 0
M  V30 8178 C 780.609 -1.87523 -0.147193 0
M  V30 8179 O 779.967 -1.43853 -1.10345 0
M  V30 8180 C 780.015 -2.96046 2.05886 0
M  V30 8181 O 779.119 -3.87303 1.4167 0
M  V30 8182 H 778.46 -0.49715 0.440157 0
M  V30 8183 H 780.99 -1.04512 1.75893 0
M  V30 8184 H 781 -3.45752 2.16609 0
M  V30 8185 H 779.675 -2.77701 3.09605 0
M  V30 8186 H 778.252 -3.45789 1.39585 0
M  V30 8187 N 780.437 -1.16799 -1.0581 0
M  V30 8188 C 781.385 -0.875111 -2.1551 0
M  V30 8189 C 782.379 0.157781 -1.68664 0
M  V30 8190 O 783.585 0.011297 -1.79996 0
M  V30 8191 H 779.96 -0.26542 -0.703602 0
M  V30 8192 H 781.931 -1.8076 -2.37421 0
M  V30 8193 C 780.68 -0.39802 -3.45414 0
M  V30 8194 H 780.003 -1.18425 -3.81858 0
M  V30 8195 H 781.443 -0.231913 -4.23365 0
M  V30 8196 C 779.902 0.88327 -3.25115 0
M  V30 8197 O 780.432 1.95145 -3.51114 0
M  V30 8198 N 778.638 0.828961 -2.78526 0
M  V30 8199 H 778.185 -0.0405029 -2.57568 0
M  V30 8200 H 778.143 1.68673 -2.65324 0
M  V30 8201 N 781.915 1.24427 -0.967243 0
M  V30 8202 C 782.878 2.23637 -0.501927 0
M  V30 8203 C 783.878 1.55712 0.401283 0
M  V30 8204 O 785.068 1.73085 0.196808 0
M  V30 8205 C 782.2 3.39804 0.273176 0
M  V30 8206 H 783.393 2.66317 -1.37897 0
M  V30 8207 H 780.946 1.37033 -0.751783 0
M  V30 8208 H 781.681 3.02562 1.16733 0
M  V30 8209 H 781.466 3.90303 -0.37498 0
M  V30 8210 H 782.956 4.13443 0.587776 0
M  V30 8211 N 783.393 0.737304 1.3929 0
M  V30 8212 C 784.633 0.290966 2.02318 0
M  V30 8213 C 784.997 -1.10174 1.57244 0
M  V30 8214 O 786.198 -1.64628 2.12488 0
M  V30 8215 C 784.469 0.391767 3.55246 0
M  V30 8216 S 786.028 0.0256103 4.38793 0
M  V30 8217 H 782.846 0.113862 0.701824 0
M  V30 8218 H 785.448 0.964329 1.70062 0
M  V30 8219 H 784.152 1.40662 3.85542 0
M  V30 8220 H 783.683 -0.299338 3.9226 0
M  V30 8221 H 785.698 -1.18991 4.81722 0
M  V30 8222 N 784.871 -1.49948 0.485112 0
M  V30 8223 C 786.101 -2.06506 -0.0621921 0
M  V30 8224 C 786.509 -1.34756 -1.32806 0
M  V30 8225 O 785.852 -0.41466 -1.78959 0
M  V30 8226 C 785.914 -3.57243 -0.402182 0
M  V30 8227 C 785.578 -4.50574 0.763671 0
M  V30 8228 C 786.575 -4.93032 1.6497 0
M  V30 8229 C 784.26 -4.9308 0.957973 0
M  V30 8230 C 786.254 -5.76718 2.71432 0
M  V30 8231 C 783.941 -5.76546 2.0258 0
M  V30 8232 C 784.939 -6.18267 2.90232 0
M  V30 8233 O 784.627 -7.00066 3.95174 0
M  V30 8234 H 784.359 -0.675925 0.0100672 0
M  V30 8235 H 786.913 -1.93922 0.677023 0
M  V30 8236 H 785.143 -3.6778 -1.19478 0
M  V30 8237 H 786.832 -3.96107 -0.886219 0
M  V30 8238 H 787.598 -4.60851 1.51134 0
M  V30 8239 H 783.477 -4.60117 0.285144 0
M  V30 8240 H 787.021 -6.09203 3.39878 0
M  V30 8241 H 782.918 -6.0814 2.16417 0
M  V30 8242 H 783.686 -7.18343 3.92333 0
M  V30 8243 N 786.349 -0.21828 -1.56081 0
M  V30 8244 C 787.595 0.408181 -1.99262 0
M  V30 8245 C 787.95 1.57618 -1.10337 0
M  V30 8246 O 787.243 1.90991 -0.15263 0
M  V30 8247 C 787.437 0.894782 -3.46018 0
M  V30 8248 C 787.266 -0.224528 -4.49139 0
M  V30 8249 C 786.036 -0.689843 -5.00569 0
M  V30 8250 C 788.234 -1.04165 -5.03641 0
M  V30 8251 N 786.216 -1.78455 -5.8739 0
M  V30 8252 C 787.587 -1.98529 -5.87355 0
M  V30 8253 C 789.642 -1.08146 -4.86013 0
M  V30 8254 C 788.345 -2.96549 -6.55325 0
M  V30 8255 C 790.371 -2.04982 -5.5474 0
M  V30 8256 C 789.733 -2.98086 -6.38219 0
M  V30 8257 H 785.832 0.116127 -0.77333 0
M  V30 8258 H 788.416 -0.3293 -1.91895 0
M  V30 8259 H 786.587 1.60163 -3.53839 0
M  V30 8260 H 788.319 1.49379 -3.76122 0
M  V30 8261 H 785.074 -0.279021 -4.72777 0
M  V30 8262 H 785.498 -2.33381 -6.35502 0
M  V30 8263 H 790.14 -0.375581 -4.21129 0
M  V30 8264 H 787.858 -3.68101 -7.19394 0
M  V30 8265 H 791.444 -2.08732 -5.43067 0
M  V30 8266 H 790.324 -3.71794 -6.90463 0
M  V30 8267 N 787.827 1.57504 0.0551401 0
M  V30 8268 C 788.79 2.03826 1.04821 0
M  V30 8269 C 789.79 0.937968 1.30609 0
M  V30 8270 O 790.98 1.20237 1.2605 0
M  V30 8271 C 788.112 2.43309 2.38775 0
M  V30 8272 H 789.305 2.92802 0.6486 0
M  V30 8273 H 786.858 1.53368 0.301315 0
M  V30 8274 H 787.593 1.5741 2.83536 0
M  V30 8275 H 787.378 3.23615 2.21395 0
M  V30 8276 H 788.868 2.79666 3.10124 0
M  V30 8277 N 789.305 -0.326896 1.54172 0
M  V30 8278 C 790.551 -1.06681 1.72473 0
M  V30 8279 C 790.884 -1.87779 0.49523 0
M  V30 8280 O 790.159 -1.87754 -0.507803 0
M  V30 8281 C 790.442 -1.99429 2.99834 0
M  V30 8282 C 790.295 -1.21682 4.33028 0
M  V30 8283 C 791.614 -2.99002 3.22933 0
M  V30 8284 H 788.733 -0.386438 0.627563 0
M  V30 8285 H 791.375 -0.343779 1.86864 0
M  V30 8286 H 789.525 -2.61081 2.87696 0
M  V30 8287 H 791.197 -0.625153 4.57044 0
M  V30 8288 H 789.44 -0.519045 4.30684 0
M  V30 8289 H 790.111 -1.89766 5.18356 0
M  V30 8290 H 792.587 -2.4747 3.34511 0
M  V30 8291 H 791.463 -3.61085 4.13412 0
M  V30 8292 H 791.724 -3.71281 2.40006 0
M  V30 8293 N 790.784 -1.46188 -0.588786 0
M  V30 8294 C 791.714 -1.59148 -1.70863 0
M  V30 8295 C 792.695 -0.442083 -1.64255 0
M  V30 8296 O 793.88 -0.667575 -1.82365 0
M  V30 8297 C 791.01 -1.5757 -3.09498 0
M  V30 8298 C 789.964 -2.71418 -3.30932 0
M  V30 8299 C 789.29 -2.549 -4.70032 0
M  V30 8300 C 790.59 -4.1329 -3.19356 0
M  V30 8301 H 792.284 -2.52889 -1.60274 0
M  V30 8302 H 789.83 -1.21707 -0.769638 0
M  V30 8303 H 791.783 -1.65231 -3.87655 0
M  V30 8304 H 790.507 -0.603705 -3.20972 0
M  V30 8305 H 789.166 -2.63216 -2.55172 0
M  V30 8306 H 788.814 -1.55797 -4.78264 0
M  V30 8307 H 788.514 -3.31257 -4.85327 0
M  V30 8308 H 790.038 -2.64443 -5.50366 0
M  V30 8309 H 791.452 -4.22636 -3.87365 0
M  V30 8310 H 789.849 -4.90187 -3.46175 0
M  V30 8311 H 790.919 -4.33874 -2.16522 0
M  V30 8312 N 792.262 0.832906 -1.33792 0
M  V30 8313 C 793.192 1.95828 -1.27176 0
M  V30 8314 C 794.173 1.69427 -0.15114 0
M  V30 8315 O 795.358 1.91167 -0.341886 0
M  V30 8316 C 792.488 3.32098 -1.01629 0
M  V30 8317 C 791.442 3.72912 -2.10049 0
M  V30 8318 C 790.768 5.07054 -1.69706 0
M  V30 8319 C 792.068 3.86064 -3.51783 0
M  V30 8320 H 793.762 2.01622 -2.21334 0
M  V30 8321 H 791.308 0.96866 -1.0655 0
M  V30 8322 H 793.261 4.10402 -0.956474 0
M  V30 8323 H 791.985 3.26577 -0.0390956 0
M  V30 8324 H 790.644 2.96876 -2.15082 0
M  V30 8325 H 790.292 4.9801 -0.706737 0
M  V30 8326 H 789.992 5.35333 -2.42264 0
M  V30 8327 H 791.516 5.87827 -1.65202 0
M  V30 8328 H 792.93 4.54665 -3.49218 0
M  V30 8329 H 791.327 4.25787 -4.22878 0
M  V30 8330 H 792.397 2.88344 -3.89854 0
M  V30 8331 N 793.74 1.17359 1.05189 0
M  V30 8332 C 794.67 0.91365 2.14883 0
M  V30 8333 C 795.651 -0.144365 1.69486 0
M  V30 8334 O 796.836 0.00587861 1.94199 0
M  V30 8335 C 793.966 0.426196 3.44675 0
M  V30 8336 C 792.92 1.4234 4.03638 0
M  V30 8337 C 792.246 0.793902 5.28773 0
M  V30 8338 C 793.546 2.7966 4.41121 0
M  V30 8339 H 795.24 1.831 2.36885 0
M  V30 8340 H 792.786 0.881781 1.13845 0
M  V30 8341 H 794.739 0.231767 4.20762 0
M  V30 8342 H 793.463 -0.526693 3.22325 0
M  V30 8343 H 792.122 1.60457 3.2962 0
M  V30 8344 H 791.77 -0.165824 5.02727 0
M  V30 8345 H 791.47 1.45959 5.69183 0
M  V30 8346 H 792.994 0.609747 6.07548 0
M  V30 8347 H 794.408 2.6526 5.08242 0
M  V30 8348 H 792.805 3.42807 4.92548 0
M  V30 8349 H 793.875 3.34068 3.51464 0
M  V30 8350 N 795.218 -1.23913 0.973828 0
M  V30 8351 C 796.464 -1.92436 0.640026 0
M  V30 8352 C 796.797 -1.75875 -0.823512 0
M  V30 8353 O 796.072 -1.11563 -1.59323 0
M  V30 8354 C 796.355 -3.4526 1.0231 0
M  V30 8355 C 796.208 -3.70961 2.54378 0
M  V30 8356 C 797.527 -4.36495 0.562155 0
M  V30 8357 H 794.646 -0.698868 0.233992 0
M  V30 8358 H 797.288 -1.46163 1.21393 0
M  V30 8359 H 795.438 -3.84802 0.534751 0
M  V30 8360 H 797.11 -3.40941 3.10737 0
M  V30 8361 H 795.353 -3.15899 2.97305 0
M  V30 8362 H 796.024 -4.77912 2.76232 0
M  V30 8363 H 798.5 -4.04363 0.981333 0
M  V30 8364 H 797.376 -5.42142 0.858689 0
M  V30 8365 H 797.637 -4.38818 -0.537659 0
M  V30 8366 N 796.696 -0.74468 -1.38897 0
M  V30 8367 C 797.943 -0.296884 -2.00312 0
M  V30 8368 C 798.271 1.11878 -1.59102 0
M  V30 8369 O 797.526 1.7789 -0.815702 0
M  V30 8370 C 797.825 -0.357302 -3.55609 0
M  V30 8371 C 797.491 -1.72736 -4.16501 0
M  V30 8372 C 796.153 -2.10232 -4.32846 0
M  V30 8373 C 798.505 -2.62647 -4.50184 0
M  V30 8374 C 795.833 -3.3713 -4.80167 0
M  V30 8375 C 798.185 -3.88926 -4.98918 0
M  V30 8376 C 796.849 -4.26503 -5.1347 0
M  V30 8377 H 796.119 -0.108638 -0.732993 0
M  V30 8378 H 798.766 -0.953419 -1.66079 0
M  V30 8379 H 797.071 0.382805 -3.89925 0
M  V30 8380 H 798.768 0.0074596 -4.00999 0
M  V30 8381 H 795.358 -1.42585 -4.04187 0
M  V30 8382 H 799.542 -2.34945 -4.37166 0
M  V30 8383 H 794.798 -3.66174 -4.89619 0
M  V30 8384 H 798.972 -4.58745 -5.23952 0
M  V30 8385 H 796.599 -5.24896 -5.49898 0
M  V30 8386 N 798.174 1.49689 -0.493057 0
M  V30 8387 C 799.104 2.31826 0.279073 0
M  V30 8388 C 800.085 1.39733 0.969987 0
M  V30 8389 O 801.27 1.68646 0.962925 0
M  V30 8390 C 798.4 3.20046 1.34862 0
M  V30 8391 C 797.354 4.20869 0.77805 0
M  V30 8392 C 796.68 4.97971 1.94753 0
M  V30 8393 C 797.98 5.21813 -0.225543 0
M  V30 8394 H 799.674 2.96627 -0.406512 0
M  V30 8395 H 797.22 1.42647 -0.196943 0
M  V30 8396 H 799.173 3.76315 1.89645 0
M  V30 8397 H 797.897 2.53172 2.06328 0
M  V30 8398 H 796.556 3.65733 0.252036 0
M  V30 8399 H 796.204 4.27552 2.64969 0
M  V30 8400 H 795.904 5.66186 1.57187 0
M  V30 8401 H 797.428 5.57082 2.49984 0
M  V30 8402 H 798.842 5.72823 0.233864 0
M  V30 8403 H 797.239 5.97872 -0.516622 0
M  V30 8404 H 798.309 4.71209 -1.14412 0
M  V30 8405 N 799.652 0.226554 1.55963 0
M  V30 8406 C 800.6 -0.697922 2.21882 0
M  V30 8407 C 801.594 -1.19586 1.19981 0
M  V30 8408 O 802.8 -1.15511 1.38048 0
M  V30 8409 H 799.175 -0.243501 0.711485 0
M  V30 8410 H 801.146 -0.118576 2.98164 0
M  V30 8411 C 799.895 -1.89309 2.91646 0
M  V30 8412 H 799.218 -1.51906 3.69817 0
M  V30 8413 H 800.658 -2.51762 3.41162 0
M  V30 8414 C 799.117 -2.75162 1.94391 0
M  V30 8415 O 799.647 -3.74071 1.46402 0
M  V30 8416 N 797.853 -2.41302 1.61932 0
M  V30 8417 H 797.4 -1.60923 2.01151 0
M  V30 8418 H 797.358 -2.99023 0.971219 0
M  V30 8419 N 801.13 -1.57531 -0.0467866 0
M  V30 8420 C 802.358 -1.92696 -0.753371 0
M  V30 8421 C 802.773 -0.824792 -1.69831 0
M  V30 8422 O 802.13 0.200155 -1.81399 0
M  V30 8423 C 802.181 -3.27728 -1.52566 0
M  V30 8424 O 801.902 -4.3371 -0.618674 0
M  V30 8425 C 803.403 -3.77066 -2.33101 0
M  V30 8426 H 800.623 -0.636367 -0.212788 0
M  V30 8427 H 803.167 -2.04498 -0.00959361 0
M  V30 8428 H 801.322 -3.17378 -2.22148 0
M  V30 8429 H 801.736 -5.11548 -1.15839 0
M  V30 8430 H 803.21 -4.74109 -2.82709 0
M  V30 8431 H 803.687 -3.07348 -3.13741 0
M  V30 8432 H 804.293 -3.90442 -1.68628 0
M  V30 8433 N 802.608 0.318715 -1.54344 0
M  V30 8434 C 803.538 1.39751 -1.87061 0
M  V30 8435 C 804.519 1.53741 -0.727848 0
M  V30 8436 O 805.704 1.67541 -0.982016 0
M  V30 8437 C 802.834 2.76446 -2.10226 0
M  V30 8438 C 801.788 2.77239 -3.26071 0
M  V30 8439 C 801.114 4.17056 -3.34617 0
M  V30 8440 C 802.414 2.40555 -4.63606 0
M  V30 8441 H 804.108 1.12619 -2.77412 0
M  V30 8442 H 801.654 0.540318 -1.33479 0
M  V30 8443 H 803.607 3.51985 -2.31699 0
M  V30 8444 H 802.331 3.05066 -1.16629 0
M  V30 8445 H 800.99 2.04155 -3.04493 0
M  V30 8446 H 800.638 4.42824 -2.3857 0
M  V30 8447 H 800.338 4.18492 -4.12478 0
M  V30 8448 H 801.862 4.94401 -3.5833 0
M  V30 8449 H 803.276 3.05808 -4.84927 0
M  V30 8450 H 801.673 2.53234 -5.44052 0
M  V30 8451 H 802.743 1.35698 -4.65526 0
M  V30 8452 N 804.086 1.46499 0.581025 0
M  V30 8453 C 805.314 1.5547 1.36517 0
M  V30 8454 C 805.729 0.196407 1.87776 0
M  V30 8455 O 805.086 -0.806577 1.63709 0
M  V30 8456 C 805.137 2.56084 2.55154 0
M  V30 8457 O 804.858 3.86637 2.06018 0
M  V30 8458 C 806.359 2.75011 3.47683 0
M  V30 8459 H 803.579 0.525703 0.416986 0
M  V30 8460 H 806.123 1.9192 0.706177 0
M  V30 8461 H 804.278 2.22633 3.17039 0
M  V30 8462 H 804.692 4.41413 2.83292 0
M  V30 8463 H 806.166 3.49329 4.27403 0
M  V30 8464 H 806.643 1.81978 3.99726 0
M  V30 8465 H 807.249 3.09565 2.91632 0
M  V30 8466 N 805.565 -0.825799 1.34232 0
M  V30 8467 C 806.814 -1.57686 1.2577 0
M  V30 8468 C 807.127 -1.94848 -0.171372 0
M  V30 8469 O 808.333 -2.68854 -0.378123 0
M  V30 8470 C 806.789 -2.84478 2.20454 0
M  V30 8471 C 806.397 -2.54629 3.68603 0
M  V30 8472 C 808.141 -3.625 2.20893 0
M  V30 8473 C 806.048 -3.77597 4.55164 0
M  V30 8474 H 804.978 -0.591809 0.467203 0
M  V30 8475 H 807.629 -0.909421 1.59379 0
M  V30 8476 H 806.011 -3.52832 1.79793 0
M  V30 8477 H 807.185 -1.94404 4.17784 0
M  V30 8478 H 805.5 -1.89888 3.70582 0
M  V30 8479 H 808.097 -4.538 2.82789 0
M  V30 8480 H 808.44 -3.98404 1.20746 0
M  V30 8481 H 808.973 -3.01086 2.59985 0
M  V30 8482 H 805.712 -3.46815 5.56237 0
M  V30 8483 H 805.232 -4.37116 4.10719 0
M  V30 8484 H 806.911 -4.45039 4.69627 0
M  V30 8485 N 807.043 -1.17915 -1.04565 0
M  V30 8486 C 808.006 -0.903787 -2.10628 0
M  V30 8487 C 809.006 0.10873 -1.60432 0
M  V30 8488 O 810.196 -0.124152 -1.73757 0
M  V30 8489 C 807.328 -0.355017 -3.39046 0
M  V30 8490 H 808.521 -1.84425 -2.3649 0
M  V30 8491 H 806.074 -0.990477 -1.2091 0
M  V30 8492 H 806.809 0.592297 -3.18845 0
M  V30 8493 H 806.594 -1.08484 -3.76794 0
M  V30 8494 H 808.084 -0.180891 -4.17208 0
M  V30 8495 N 808.521 1.23394 -0.980386 0
M  V30 8496 C 809.746 1.96384 -0.666935 0
M  V30 8497 C 810.171 1.72087 0.759456 0
M  V30 8498 O 809.529 0.992328 1.51732 0
M  V30 8499 C 809.577 3.47499 -0.963177 0
M  V30 8500 O 808.681 4.12363 -0.0552051 0
M  V30 8501 H 808.022 0.614797 -0.250839 0
M  V30 8502 H 810.552 1.56831 -1.31398 0
M  V30 8503 H 810.562 3.97953 -0.899877 0
M  V30 8504 H 809.237 3.6451 -2.00264 0
M  V30 8505 H 807.814 3.72499 -0.172914 0
M  V30 8506 N 809.999 0.752036 1.385 0
M  V30 8507 C 810.909 0.125318 2.34265 0
M  V30 8508 C 811.925 -0.702437 1.59191 0
M  V30 8509 O 813.101 -0.626951 1.91393 0
M  V30 8510 C 810.166 -0.758486 3.38301 0
M  V30 8511 C 809.227 0.0834636 4.29219 0
M  V30 8512 C 808.46 -0.758252 5.28286 0
M  V30 8513 O 808.683 -1.99632 5.34325 0
M  V30 8514 O 807.617 -0.177878 6.01637 0
M  V30 8515 H 811.443 0.91617 2.89551 0
M  V30 8516 H 809.028 0.512911 1.4032 0
M  V30 8517 H 810.91 -1.26365 4.02007 0
M  V30 8518 H 809.585 -1.52786 2.85374 0
M  V30 8519 H 808.492 0.634545 3.68679 0
M  V30 8520 H 809.825 0.815455 4.85398 0
M  V30 8521 N 811.477 -1.49425 0.500989 0
M  V30 8522 C 812.427 -2.26061 -0.296698 0
M  V30 8523 C 813.411 -1.30906 -0.935541 0
M  V30 8524 O 814.603 -1.55628 -0.843142 0
M  V30 8525 C 811.732 -3.15189 -1.36055 0
M  V30 8526 C 810.818 -4.17806 -0.727952 0
M  V30 8527 N 811.209 -5.05516 0.169408 0
M  V30 8528 C 809.507 -4.34907 -0.988535 0
M  V30 8529 C 810.208 -5.79267 0.531509 0
M  V30 8530 N 809.184 -5.43507 -0.100564 0
M  V30 8531 H 812.986 -2.91246 0.394103 0
M  V30 8532 H 810.5 -1.59275 0.317065 0
M  V30 8533 H 812.497 -3.68724 -1.94547 0
M  V30 8534 H 811.157 -2.51556 -2.05303 0
M  V30 8535 H 812.168 -5.15075 0.540218 0
M  V30 8536 H 808.845 -3.82481 -1.67376 0
M  V30 8537 H 810.235 -6.59872 1.26564 0
M  V30 8538 N 812.955 -0.234822 -1.55841 0
M  V30 8539 C 813.905 0.68346 -2.17515 0
M  V30 8540 C 814.889 1.14798 -1.1274 0
M  V30 8541 O 816.081 1.09976 -1.38688 0
M  V30 8542 C 813.21 1.88551 -2.86886 0
M  V30 8543 C 812.296 1.44006 -3.98903 0
M  V30 8544 N 812.687 0.708034 -5.0082 0
M  V30 8545 C 810.985 1.7263 -4.11236 0
M  V30 8546 C 811.686 0.479036 -5.79724 0
M  V30 8547 N 810.662 1.03968 -5.33565 0
M  V30 8548 H 814.464 0.115897 -2.93671 0
M  V30 8549 H 811.978 -0.0366273 -1.62359 0
M  V30 8550 H 813.975 2.55425 -3.2949 0
M  V30 8551 H 812.635 2.45742 -2.12229 0
M  V30 8552 H 813.646 0.359363 -5.16652 0
M  V30 8553 H 810.323 2.31046 -3.47741 0
M  V30 8554 H 811.713 -0.104514 -6.71819 0
M  V30 8555 N 814.433 1.57553 0.0384317 0
M  V30 8556 C 815.681 1.88468 0.729672 0
M  V30 8557 C 816.002 0.831302 1.76393 0
M  V30 8558 O 815.272 -0.13622 1.95426 0
M  V30 8559 H 813.852 0.695529 0.272485 0
M  V30 8560 H 816.514 1.94899 0.0066032 0
M  V30 8561 H 815.61 2.8705 1.22511 0
M  V30 8562 N 815.911 -0.310526 1.54511 0
M  V30 8563 C 816.843 -1.40405 1.8116 0
M  V30 8564 C 817.856 -1.47261 0.694114 0
M  V30 8565 O 819.045 -1.49751 0.971441 0
M  V30 8566 C 816.145 -2.78849 1.92604 0
M  V30 8567 C 815.318 -2.95041 3.22908 0
M  V30 8568 C 814.377 -4.13925 3.24889 0
M  V30 8569 O 813.403 -4.06463 3.98467 0
M  V30 8570 N 814.605 -5.24099 2.496 0
M  V30 8571 H 817.37 -1.17903 2.75534 0
M  V30 8572 H 814.931 -0.500564 1.53967 0
M  V30 8573 H 816.923 -3.5661 1.91342 0
M  V30 8574 H 815.493 -2.94342 1.05268 0
M  V30 8575 H 814.713 -2.04472 3.37023 0
M  V30 8576 H 816.001 -3.02763 4.08916 0
M  V30 8577 H 815.399 -5.33039 1.89435 0
M  V30 8578 H 813.956 -6.0023 2.54102 0
M  V30 8579 N 817.389 -1.46805 -0.573248 0
M  V30 8580 C 818.8 -1.46655 -1.15539 0
M  V30 8581 C 819.151 -0.2125 -1.95046 0
M  V30 8582 O 818.276 0.683759 -2.05314 0
M  V30 8583 C 818.871 -2.65711 -2.10198 0
M  V30 8584 C 817.43 -2.68572 -2.63716 0
M  V30 8585 C 816.577 -2.39498 -1.39772 0
M  V30 8586 H 819.528 -1.54547 -0.36068 0
M  V30 8587 H 819.549 -2.41768 -2.93817 0
M  V30 8588 H 819.061 -3.56967 -1.52303 0
M  V30 8589 H 817.162 -1.81414 -3.25453 0
M  V30 8590 H 817.275 -3.68809 -3.05805 0
M  V30 8591 H 815.639 -1.89749 -1.69904 0
M  V30 8592 H 816.422 -3.32942 -0.836943 0
M  V30 8593 N 818.867 0.818669 -1.34668 0
M  V30 8594 C 820.113 1.57746 -1.27453 0
M  V30 8595 C 820.446 1.93588 0.154077 0
M  V30 8596 O 819.721 1.60371 1.10051 0
M  V30 8597 C 820.004 2.87414 -2.16945 0
M  V30 8598 C 819.857 2.58125 -3.68363 0
M  V30 8599 C 821.176 3.89021 -2.05792 0
M  V30 8600 H 818.295 0.572339 -0.464324 0
M  V30 8601 H 820.937 0.942784 -1.64959 0
M  V30 8602 H 819.087 3.41576 -1.85089 0
M  V30 8603 H 820.759 2.10239 -4.10606 0
M  V30 8604 H 819.002 1.91503 -3.89242 0
M  V30 8605 H 819.673 3.5061 -4.26353 0
M  V30 8606 H 822.149 3.44224 -2.33771 0
M  V30 8607 H 821.025 4.77548 -2.70628 0
M  V30 8608 H 821.286 4.29786 -1.03618 0
M  V30 8609 N 820.346 1.18468 1.03938 0
M  V30 8610 C 821.592 0.992302 1.77553 0
M  V30 8611 C 821.947 -0.472959 1.86496 0
M  V30 8612 O 821.24 -1.34662 1.36296 0
M  V30 8613 C 821.434 1.58229 3.20466 0
M  V30 8614 C 821.263 3.1034 3.25452 0
M  V30 8615 C 820.033 3.79166 3.34008 0
M  V30 8616 C 822.231 4.07814 3.13357 0
M  V30 8617 N 820.213 5.18768 3.28258 0
M  V30 8618 C 821.584 5.33946 3.15121 0
M  V30 8619 C 823.639 3.99315 2.97409 0
M  V30 8620 C 822.342 6.52565 3.02574 0
M  V30 8621 C 824.368 5.17532 2.86208 0
M  V30 8622 C 823.73 6.42557 2.88617 0
M  V30 8623 H 819.829 0.417131 0.661457 0
M  V30 8624 H 822.413 1.50265 1.23808 0
M  V30 8625 H 820.584 1.0981 3.72554 0
M  V30 8626 H 822.316 1.32531 3.82384 0
M  V30 8627 H 819.071 3.29905 3.39794 0
M  V30 8628 H 819.495 5.91783 3.28818 0
M  V30 8629 H 824.137 3.03485 2.94375 0
M  V30 8630 H 821.855 7.48592 3.0436 0
M  V30 8631 H 825.441 5.12748 2.7492 0
M  V30 8632 H 824.321 7.32494 2.80039 0
M  V30 8633 N 821.824 -1.22873 0.986916 0
M  V30 8634 C 822.754 -2.2688 0.552064 0
M  V30 8635 C 823.735 -1.64883 -0.418048 0
M  V30 8636 O 824.92 -1.9171 -0.30999 0
M  V30 8637 C 822.05 -3.47018 -0.139959 0
M  V30 8638 C 821.004 -4.21411 0.748091 0
M  V30 8639 C 820.33 -5.34645 -0.0765132 0
M  V30 8640 C 821.63 -4.80726 2.04206 0
M  V30 8641 H 823.324 -2.63507 1.42143 0
M  V30 8642 H 820.87 -1.26668 0.68492 0
M  V30 8643 H 822.823 -4.18931 -0.455527 0
M  V30 8644 H 821.547 -3.0947 -1.04382 0
M  V30 8645 H 820.206 -3.51325 1.04721 0
M  V30 8646 H 819.854 -4.93339 -0.981109 0
M  V30 8647 H 819.554 -5.85342 0.514606 0
M  V30 8648 H 821.078 -6.09377 -0.386313 0
M  V30 8649 H 822.492 -5.44612 1.79083 0
M  V30 8650 H 820.889 -5.41737 2.5815 0
M  V30 8651 H 821.959 -4.01109 2.72469 0
M  V30 8652 N 823.302 -0.75937 -1.38099 0
M  V30 8653 C 824.53 -0.329111 -2.04266 0
M  V30 8654 C 824.945 1.04453 -1.57274 0
M  V30 8655 O 824.302 1.66449 -0.748397 0
M  V30 8656 C 824.353 -0.349192 -3.5981 0
M  V30 8657 O 824.074 -1.66863 -4.05078 0
M  V30 8658 C 825.575 0.0942106 -4.432 0
M  V30 8659 H 822.795 -0.13971 -0.656294 0
M  V30 8660 H 825.339 -1.02984 -1.76677 0
M  V30 8661 H 823.494 0.302846 -3.86214 0
M  V30 8662 H 823.908 -1.59877 -4.9954 0
M  V30 8663 H 825.382 0.0290004 -5.51992 0
M  V30 8664 H 825.859 1.1429 -4.24069 0
M  V30 8665 H 826.465 -0.529171 -4.21995 0
M  V30 8666 N 824.78 1.49157 -0.508906 0
M  V30 8667 C 825.712 2.272 0.302115 0
M  V30 8668 C 826.725 1.3407 0.923529 0
M  V30 8669 O 827.914 1.5929 0.805532 0
M  V30 8670 C 825.014 3.06736 1.44105 0
M  V30 8671 C 824.187 4.27497 0.925477 0
M  V30 8672 C 823.246 4.89014 1.94297 0
M  V30 8673 O 822.272 5.48851 1.50834 0
M  V30 8674 N 823.474 4.7937 3.2739 0
M  V30 8675 H 826.239 2.97443 -0.367115 0
M  V30 8676 H 823.8 1.58248 -0.341933 0
M  V30 8677 H 825.792 3.44763 2.11944 0
M  V30 8678 H 824.362 2.3905 2.0143 0
M  V30 8679 H 823.582 3.94135 0.0717301 0
M  V30 8680 H 824.87 5.05714 0.55955 0
M  V30 8681 H 824.268 4.31869 3.65384 0
M  V30 8682 H 822.825 5.21559 3.90922 0
M  V30 8683 N 826.258 0.243083 1.55714 0
M  V30 8684 C 827.507 -0.383188 1.98027 0
M  V30 8685 C 827.82 -1.59347 1.13436 0
M  V30 8686 O 829.026 -2.29065 1.45745 0
M  V30 8687 C 827.482 -0.733135 3.52354 0
M  V30 8688 C 827.09 0.455539 4.45678 0
M  V30 8689 C 828.834 -1.32381 4.03331 0
M  V30 8690 C 826.741 0.0819591 5.91343 0
M  V30 8691 H 825.671 -0.146944 0.739543 0
M  V30 8692 H 828.322 0.342697 1.80272 0
M  V30 8693 H 826.704 -1.51704 3.65789 0
M  V30 8694 H 827.878 1.23291 4.44 0
M  V30 8695 H 826.193 0.960886 4.05162 0
M  V30 8696 H 828.79 -1.61658 5.09677 0
M  V30 8697 H 829.133 -2.24698 3.50452 0
M  V30 8698 H 829.666 -0.602885 3.93205 0
M  V30 8699 H 826.405 0.972171 6.48251 0
M  V30 8700 H 825.925 -0.659291 5.96166 0
M  V30 8701 H 827.604 -0.3372 6.46121 0
M  V30 8702 N 827.736 -1.57571 -0.0300757 0
M  V30 8703 C 828.668 -2.0329 -1.05857 0
M  V30 8704 C 829.681 -0.945543 -1.32527 0
M  V30 8705 O 830.87 -1.22287 -1.30032 0
M  V30 8706 C 827.97 -2.39234 -2.40042 0
M  V30 8707 C 827.143 -3.70337 -2.32743 0
M  V30 8708 C 826.202 -3.93482 -3.49369 0
M  V30 8709 O 825.228 -4.64551 -3.28909 0
M  V30 8710 N 826.43 -3.39042 -4.71201 0
M  V30 8711 H 829.195 -2.9214 -0.668897 0
M  V30 8712 H 826.756 -1.60425 -0.218038 0
M  V30 8713 H 828.748 -2.51856 -3.16782 0
M  V30 8714 H 827.318 -1.5606 -2.70858 0
M  V30 8715 H 826.538 -3.68079 -1.41109 0
M  V30 8716 H 827.826 -4.56343 -2.25007 0
M  V30 8717 H 827.224 -2.81434 -4.90725 0
M  V30 8718 H 825.781 -3.57045 -5.45309 0
M  V30 8719 N 829.214 0.302327 -1.54673 0
M  V30 8720 C 830.124 1.39542 -1.88587 0
M  V30 8721 C 831.14 1.55543 -0.779895 0
M  V30 8722 O 832.316 1.70233 -1.07623 0
M  V30 8723 C 829.381 2.7394 -2.12504 0
M  V30 8724 C 828.442 2.66935 -3.3622 0
M  V30 8725 C 827.675 3.94923 -3.58987 0
M  V30 8726 O 827.898 4.94218 -2.84789 0
M  V30 8727 O 826.832 3.96896 -4.52501 0
M  V30 8728 H 830.658 1.13784 -2.81579 0
M  V30 8729 H 828.243 0.49827 -1.40846 0
M  V30 8730 H 830.125 3.5346 -2.29443 0
M  V30 8731 H 828.8 2.99544 -1.22698 0
M  V30 8732 H 827.707 1.85892 -3.24646 0
M  V30 8733 H 829.04 2.46283 -4.26152 0
M  V30 8734 N 830.692 1.47107 0.565454 0
M  V30 8735 C 831.922 1.56681 1.34664 0
M  V30 8736 C 832.33 0.213011 1.87997 0
M  V30 8737 O 831.673 -0.802629 1.65238 0
M  V30 8738 C 831.735 2.52528 2.55871 0
M  V30 8739 C 831.399 3.98403 2.23883 0
M  V30 8740 C 832.396 4.87125 1.81673 0
M  V30 8741 C 830.081 4.43674 2.35496 0
M  V30 8742 C 832.075 6.19135 1.51494 0
M  V30 8743 C 829.762 5.75714 2.0493 0
M  V30 8744 C 830.76 6.63266 1.62996 0
M  V30 8745 O 830.448 7.92853 1.32813 0
M  V30 8746 H 830.18 0.531967 0.417117 0
M  V30 8747 H 832.734 1.93368 0.692669 0
M  V30 8748 H 830.964 2.10893 3.24131 0
M  V30 8749 H 832.653 2.5232 3.17945 0
M  V30 8750 H 833.419 4.534 1.72201 0
M  V30 8751 H 829.298 3.7574 2.67096 0
M  V30 8752 H 832.842 6.87429 1.1869 0
M  V30 8753 H 828.739 6.08983 2.14031 0
M  V30 8754 H 829.507 8.0528 1.46513 0
M  V30 8755 N 832.17 -0.811516 1.35101 0
M  V30 8756 C 833.133 -1.90467 1.27495 0
M  V30 8757 C 834.133 -1.59703 0.187516 0
M  V30 8758 O 835.323 -1.68528 0.440896 0
M  V30 8759 C 832.455 -3.26774 0.971154 0
M  V30 8760 H 833.648 -1.98631 2.2469 0
M  V30 8761 H 831.201 -1.00681 1.19553 0
M  V30 8762 H 831.936 -3.243 0.0028557 0
M  V30 8763 H 831.721 -3.50488 1.75785 0
M  V30 8764 H 833.211 -4.06804 0.943414 0
M  V30 8765 N 833.648 -1.19017 -1.03309 0
M  V30 8766 C 834.596 -0.920627 -2.13605 0
M  V30 8767 C 835.59 0.121969 -1.6896 0
M  V30 8768 O 836.796 -0.0268854 -1.7998 0
M  V30 8769 H 833.171 -0.280284 -0.697814 0
M  V30 8770 H 835.142 -1.85755 -2.33533 0
M  V30 8771 C 833.891 -0.471198 -3.44492 0
M  V30 8772 H 833.214 -1.26499 -3.7926 0
M  V30 8773 H 834.654 -0.321663 -4.22778 0
M  V30 8774 C 833.113 0.81411 -3.26916 0
M  V30 8775 O 833.643 1.87654 -3.55175 0
M  V30 8776 N 831.849 0.769695 -2.80221 0
M  V30 8777 H 831.396 -0.0951278 -2.57424 0
M  V30 8778 H 831.354 1.63008 -2.68842 0
M  V30 8779 N 835.127 1.22348 -0.993418 0
M  V30 8780 C 836.074 2.24294 -0.544118 0
M  V30 8781 C 837.044 1.60602 0.42381 0
M  V30 8782 O 838.229 1.87952 0.328453 0
M  V30 8783 C 835.369 3.44837 0.134578 0
M  V30 8784 C 834.482 4.23043 -0.875151 0
M  V30 8785 C 833.617 5.30928 -0.169919 0
M  V30 8786 C 832.656 6.00853 -1.16798 0
M  V30 8787 N 831.793 7.00381 -0.491021 0
M  V30 8788 H 836.633 2.6209 -1.4182 0
M  V30 8789 H 834.17 1.2881 -0.710384 0
M  V30 8790 H 836.128 4.13625 0.544998 0
M  V30 8791 H 834.758 3.07804 0.972446 0
M  V30 8792 H 833.81 3.53546 -1.40389 0
M  V30 8793 H 835.122 4.71237 -1.63516 0
M  V30 8794 H 834.276 6.05972 0.297205 0
M  V30 8795 H 833.015 4.8371 0.622586 0
M  V30 8796 H 832.02 5.24591 -1.64573 0
M  V30 8797 H 833.245 6.50159 -1.96137 0
M  V30 8798 H 831.191 6.55393 0.282037 0
M  V30 8799 H 831.108 7.46584 -1.18947 0
M  V30 8800 H 832.376 7.79486 -0.0467169 0
M  V30 8801 N 836.605 0.766683 1.37694 0
M  V30 8802 C 837.851 0.329201 2.0011 0
M  V30 8803 C 838.184 -1.09004 1.60723 0
M  V30 8804 O 837.459 -1.74895 0.850989 0
M  V30 8805 C 837.742 0.466989 3.57059 0
M  V30 8806 C 837.595 1.92828 4.06371 0
M  V30 8807 C 838.914 -0.131792 4.39903 0
M  V30 8808 H 836.033 0.12109 0.726984 0
M  V30 8809 H 838.675 0.968779 1.63446 0
M  V30 8810 H 836.825 -0.0775023 3.88423 0
M  V30 8811 H 838.497 2.53208 3.85595 0
M  V30 8812 H 836.74 2.43884 3.58752 0
M  V30 8813 H 837.411 1.97577 5.15429 0
M  V30 8814 H 839.887 0.332731 4.14768 0
M  V30 8815 H 838.763 -0.005217 5.489 0
M  V30 8816 H 839.024 -1.22156 4.24889 0
M  V30 8817 N 838.083 -1.48885 0.516809 0
M  V30 8818 C 839.013 -2.32241 -0.242157 0
M  V30 8819 C 839.994 -1.41258 -0.947633 0
M  V30 8820 O 841.179 -1.70156 -0.935973 0
M  V30 8821 C 838.309 -3.22151 -1.29754 0
M  V30 8822 C 837.263 -4.22053 -0.710995 0
M  V30 8823 C 836.589 -5.01007 -1.86806 0
M  V30 8824 C 837.889 -5.21388 0.30853 0
M  V30 8825 H 839.583 -2.95943 0.453651 0
M  V30 8826 H 837.129 -1.42316 0.219612 0
M  V30 8827 H 839.082 -3.79284 -1.83634 0
M  V30 8828 H 837.806 -2.56423 -2.02274 0
M  V30 8829 H 836.465 -3.66087 -0.193819 0
M  V30 8830 H 836.113 -4.31713 -2.58133 0
M  V30 8831 H 835.813 -5.68615 -1.48159 0
M  V30 8832 H 837.337 -5.60989 -2.4109 0
M  V30 8833 H 838.751 -5.73122 -0.142703 0
M  V30 8834 H 837.148 -5.96975 0.611673 0
M  V30 8835 H 838.218 -4.69329 1.21894 0
M  V30 8836 N 839.561 -0.251338 -1.55583 0
M  V30 8837 C 840.491 0.640437 -2.24545 0
M  V30 8838 C 841.472 1.17781 -1.22726 0
M  V30 8839 O 842.657 1.21633 -1.5139 0
M  V30 8840 C 839.787 1.8355 -2.94834 0
M  V30 8841 C 838.741 1.4307 -4.03379 0
M  V30 8842 C 838.067 2.70695 -4.61116 0
M  V30 8843 C 839.367 0.59848 -5.1886 0
M  V30 8844 H 841.061 0.0653772 -2.99329 0
M  V30 8845 H 838.607 0.0300042 -1.43969 0
M  V30 8846 H 840.56 2.46505 -3.4178 0
M  V30 8847 H 839.284 2.43601 -2.17546 0
M  V30 8848 H 837.943 0.824474 -3.57209 0
M  V30 8849 H 837.591 3.28954 -3.80524 0
M  V30 8850 H 837.291 2.44332 -5.34393 0
M  V30 8851 H 838.815 3.34541 -5.10798 0
M  V30 8852 H 840.229 1.13244 -5.62004 0
M  V30 8853 H 838.626 0.430728 -5.98552 0
M  V30 8854 H 839.696 -0.38829 -4.83343 0
M  V30 8855 N 841.039 1.57585 0.0217189 0
M  V30 8856 C 842.279 1.91457 0.715803 0
M  V30 8857 C 842.643 0.850685 1.72126 0
M  V30 8858 O 843.844 1.07396 2.46413 0
M  V30 8859 C 842.115 3.30456 1.36138 0
M  V30 8860 S 843.674 3.86176 2.0836 0
M  V30 8861 H 840.492 0.67035 0.236963 0
M  V30 8862 H 843.094 1.95477 -0.0297511 0
M  V30 8863 H 841.798 4.05744 0.616465 0
M  V30 8864 H 841.329 3.29757 2.14532 0
M  V30 8865 H 843.344 3.65496 3.356 0
M  V30 8866 N 842.517 -0.29412 1.54831 0
M  V30 8867 C 843.447 -1.36757 1.89261 0
M  V30 8868 C 844.428 -1.52564 0.752214 0
M  V30 8869 O 845.613 -1.65958 1.00855 0
M  V30 8870 C 842.743 -2.73066 2.14597 0
M  V30 8871 C 841.697 -2.72017 3.3044 0
M  V30 8872 C 841.023 -4.11679 3.4121 0
M  V30 8873 C 842.323 -2.33149 4.67375 0
M  V30 8874 H 844.017 -1.08191 2.79169 0
M  V30 8875 H 841.563 -0.519014 1.34321 0
M  V30 8876 H 843.516 -3.48255 2.37269 0
M  V30 8877 H 842.24 -3.03172 1.21467 0
M  V30 8878 H 840.899 -1.99285 3.07703 0
M  V30 8879 H 840.547 -4.38973 2.45584 0
M  V30 8880 H 840.247 -4.11877 4.19084 0
M  V30 8881 H 841.771 -4.88637 3.6615 0
M  V30 8882 H 843.185 -2.98054 4.89731 0
M  V30 8883 H 841.582 -2.44546 5.48012 0
M  V30 8884 H 842.652 -1.28275 4.67626 0
M  V30 8885 N 843.995 -1.47404 -0.557645 0
M  V30 8886 C 845.242 -1.54007 -1.31484 0
M  V30 8887 C 845.57 -0.202162 -1.93447 0
M  V30 8888 O 844.825 0.804901 -1.78381 0
M  V30 8889 C 845.124 -2.6061 -2.44575 0
M  V30 8890 C 844.79 -4.03896 -2.00446 0
M  V30 8891 C 843.452 -4.42901 -1.88127 0
M  V30 8892 C 845.804 -4.93804 -1.66754 0
M  V30 8893 C 843.132 -5.6965 -1.40411 0
M  V30 8894 C 845.484 -6.21016 -1.20509 0
M  V30 8895 C 844.148 -6.58903 -1.06786 0
M  V30 8896 H 843.418 -0.563552 -0.481134 0
M  V30 8897 H 846.065 -1.81001 -0.625375 0
M  V30 8898 H 844.37 -2.27371 -3.19076 0
M  V30 8899 H 846.067 -2.62941 -3.02759 0
M  V30 8900 H 842.657 -3.73077 -2.10977 0
M  V30 8901 H 846.841 -4.64369 -1.75144 0
M  V30 8902 H 842.097 -5.97755 -1.2845 0
M  V30 8903 H 846.271 -6.90095 -0.935001 0
M  V30 8904 H 843.898 -7.57008 -0.695891 0
M  V30 8905 N 845.473 0.80434 -1.35529 0
M  V30 8906 C 846.701 1.59283 -1.32048 0
M  V30 8907 C 847.116 1.88527 0.101556 0
M  V30 8908 O 846.473 1.48975 1.05417 0
M  V30 8909 C 846.524 2.92276 -2.12737 0
M  V30 8910 O 846.245 2.64299 -3.49396 0
M  V30 8911 C 847.746 3.86631 -2.16867 0
M  V30 8912 H 844.966 0.494523 -0.453528 0
M  V30 8913 H 847.51 0.999415 -1.78415 0
M  V30 8914 H 845.665 3.48125 -1.69964 0
M  V30 8915 H 846.079 3.4923 -3.91329 0
M  V30 8916 H 847.553 4.77053 -2.77712 0
M  V30 8917 H 848.03 4.23384 -1.16803 0
M  V30 8918 H 848.636 3.36717 -2.59811 0
M  V30 8919 N 846.951 1.19563 1.02676 0
M  V30 8920 C 848.197 1.00105 1.76371 0
M  V30 8921 C 848.53 -0.466823 1.88506 0
M  V30 8922 O 847.805 -1.34665 1.40341 0
M  V30 8923 C 848.088 1.67321 3.18866 0
M  V30 8924 C 847.941 3.21486 3.1459 0
M  V30 8925 C 849.26 1.39794 4.17308 0
M  V30 8926 H 846.379 0.365075 0.640226 0
M  V30 8927 H 849.021 1.47433 1.19848 0
M  V30 8928 H 847.171 1.27081 3.67128 0
M  V30 8929 H 848.843 3.70953 2.7421 0
M  V30 8930 H 847.086 3.5292 2.52249 0
M  V30 8931 H 847.757 3.63665 4.15273 0
M  V30 8932 H 850.233 1.74685 3.77657 0
M  V30 8933 H 849.109 1.89371 5.15199 0
M  V30 8934 H 849.37 0.323505 4.40915 0
M  V30 8935 N 848.429 -1.21819 0.999893 0
M  V30 8936 C 849.339 -2.27691 0.565159 0
M  V30 8937 C 850.355 -1.69587 -0.389398 0
M  V30 8938 O 851.531 -1.99786 -0.254499 0
M  V30 8939 C 848.596 -3.46537 -0.106432 0
M  V30 8940 C 847.657 -4.19932 0.891964 0
M  V30 8941 C 846.89 -5.33103 0.252327 0
M  V30 8942 O 847.113 -5.62398 -0.952103 0
M  V30 8943 O 846.047 -5.94184 0.960698 0
M  V30 8944 H 849.873 -2.67059 1.44613 0
M  V30 8945 H 847.458 -1.28119 0.768499 0
M  V30 8946 H 849.34 -4.18631 -0.482301 0
M  V30 8947 H 848.015 -3.09079 -0.961865 0
M  V30 8948 H 846.922 -3.5008 1.3189 0
M  V30 8949 H 848.255 -4.61287 1.71682 0
M  V30 8950 N 849.908 -0.773975 -1.37286 0
M  V30 8951 C 850.841 -0.108019 -2.27944 0
M  V30 8952 C 851.819 0.706737 -1.46438 0
M  V30 8953 O 853.003 0.681025 -1.75768 0
M  V30 8954 C 850.13 0.853199 -3.27778 0
M  V30 8955 C 849.176 0.122164 -4.26325 0
M  V30 8956 S 850.009 -1.19136 -5.22079 0
M  V30 8957 C 851.165 -0.233737 -6.25463 0
M  V30 8958 H 851.398 -0.876743 -2.84078 0
M  V30 8959 H 848.931 -0.567468 -1.43594 0
M  V30 8960 H 850.889 1.40238 -3.85803 0
M  V30 8961 H 849.55 1.59505 -2.70586 0
M  V30 8962 H 848.743 0.850926 -4.96765 0
M  V30 8963 H 848.345 -0.356079 -3.72301 0
M  V30 8964 H 850.637 0.59305 -6.74899 0
M  V30 8965 H 851.58 -0.906373 -7.02275 0
M  V30 8966 H 851.988 0.156048 -5.64284 0
M  V30 8967 N 851.386 1.48609 -0.524698 0
M  V30 8968 C 852.316 2.32366 0.229837 0
M  V30 8969 C 853.297 1.41759 0.940129 0
M  V30 8970 O 854.482 1.7065 0.926936 0
M  V30 8971 C 851.612 3.22835 1.28043 0
M  V30 8972 C 850.566 4.22424 0.688603 0
M  V30 8973 C 849.892 5.0199 1.84146 0
M  V30 8974 C 851.192 5.21217 -0.336176 0
M  V30 8975 H 852.886 2.95698 -0.469339 0
M  V30 8976 H 850.432 1.42197 -0.227156 0
M  V30 8977 H 852.385 3.80253 1.8162 0
M  V30 8978 H 851.109 2.57492 2.00912 0
M  V30 8979 H 849.768 3.66185 0.174402 0
M  V30 8980 H 849.416 4.33076 2.5584 0
M  V30 8981 H 849.116 5.69392 1.45142 0
M  V30 8982 H 850.64 5.62259 2.38111 0
M  V30 8983 H 852.054 5.7319 0.112307 0
M  V30 8984 H 850.451 5.96642 -0.643324 0
M  V30 8985 H 851.521 4.68676 -1.24381 0
M  V30 8986 N 852.864 0.259585 1.55447 0
M  V30 8987 C 853.794 -0.62852 2.24882 0
M  V30 8988 C 854.775 -1.17128 1.23349 0
M  V30 8989 O 855.96 -1.20829 1.52033 0
M  V30 8990 C 853.09 -1.81983 2.95803 0
M  V30 8991 C 852.044 -1.40929 4.04132 0
M  V30 8992 C 851.37 -2.68246 4.62545 0
M  V30 8993 C 852.67 -0.570956 5.1917 0
M  V30 8994 H 854.364 -0.0495021 2.99359 0
M  V30 8995 H 851.91 -0.0223688 1.43983 0
M  V30 8996 H 853.863 -2.44689 3.43082 0
M  V30 8997 H 852.587 -2.42444 2.18835 0
M  V30 8998 H 851.246 -0.805519 3.57641 0
M  V30 8999 H 850.894 -3.26931 3.82263 0
M  V30 9000 H 850.594 -2.41495 5.35681 0
M  V30 9001 H 852.118 -3.31827 5.12565 0
M  V30 9002 H 853.532 -1.10262 5.62597 0
M  V30 9003 H 851.929 -0.398979 5.98772 0
M  V30 9004 H 852.999 0.413918 4.8313 0
M  V30 9005 N 854.342 -1.57594 -0.0133615 0
M  V30 9006 C 855.289 -2.07574 -1.00905 0
M  V30 9007 C 856.259 -0.968231 -1.34961 0
M  V30 9008 O 857.444 -1.23981 -1.45028 0
M  V30 9009 C 854.584 -2.5728 -2.30002 0
M  V30 9010 C 853.697 -3.81881 -2.01967 0
M  V30 9011 C 852.832 -4.20139 -3.25049 0
M  V30 9012 C 851.871 -5.37614 -2.92639 0
M  V30 9013 N 851.008 -5.71229 -4.08218 0
M  V30 9014 H 855.848 -2.92382 -0.575899 0
M  V30 9015 H 853.385 -1.4455 -0.272722 0
M  V30 9016 H 855.343 -2.84171 -3.05454 0
M  V30 9017 H 853.973 -1.75365 -2.71011 0
M  V30 9018 H 853.025 -3.61979 -1.16942 0
M  V30 9019 H 854.337 -4.67441 -1.74069 0
M  V30 9020 H 853.491 -4.48242 -4.08857 0
M  V30 9021 H 852.23 -3.33262 -3.56073 0
M  V30 9022 H 851.235 -5.09248 -2.07235 0
M  V30 9023 H 852.46 -6.26157 -2.62876 0
M  V30 9024 H 850.406 -4.8731 -4.39164 0
M  V30 9025 H 850.323 -6.51333 -3.83799 0
M  V30 9026 H 851.591 -6.03917 -4.92854 0
M  V30 9027 N 855.82 0.285905 -1.54985 0
M  V30 9028 C 856.75 1.35752 -1.89983 0
M  V30 9029 C 857.731 1.52163 -0.760295 0
M  V30 9030 O 858.916 1.65421 -1.01733 0
M  V30 9031 C 856.046 2.71925 -2.16042 0
M  V30 9032 C 855 2.70261 -3.31878 0
M  V30 9033 C 854.326 4.09864 -3.43388 0
M  V30 9034 C 855.626 2.30667 -4.68604 0
M  V30 9035 H 857.32 1.06709 -2.79738 0
M  V30 9036 H 854.866 0.511884 -1.34595 0
M  V30 9037 H 856.819 3.46992 -2.39113 0
M  V30 9038 H 855.543 3.02523 -1.23074 0
M  V30 9039 H 854.202 1.97651 -3.08755 0
M  V30 9040 H 853.85 4.37664 -2.47909 0
M  V30 9041 H 853.55 4.09648 -4.21262 0
M  V30 9042 H 855.074 4.86689 -3.68736 0
M  V30 9043 H 856.488 2.95453 -4.91305 0
M  V30 9044 H 854.885 2.41637 -5.49301 0
M  V30 9045 H 855.955 1.25793 -4.68299 0
M  V30 9046 N 857.298 1.47698 0.54982 0
M  V30 9047 C 858.528 1.58101 1.32995 0
M  V30 9048 C 858.936 0.232939 1.87761 0
M  V30 9049 O 858.279 -0.785058 1.6608 0
M  V30 9050 C 858.341 2.55228 2.53178 0
M  V30 9051 C 858.005 4.00756 2.19645 0
M  V30 9052 C 859.002 4.89025 1.76496 0
M  V30 9053 C 856.687 4.46147 2.30777 0
M  V30 9054 C 858.681 6.20707 1.44919 0
M  V30 9055 C 856.368 5.77856 1.98812 0
M  V30 9056 C 857.366 6.64957 1.55952 0
M  V30 9057 O 857.054 7.94217 1.24396 0
M  V30 9058 H 856.786 0.536362 0.411451 0
M  V30 9059 H 859.34 1.94092 0.67212 0
M  V30 9060 H 857.57 2.14319 3.21876 0
M  V30 9061 H 859.259 2.55678 3.15251 0
M  V30 9062 H 860.025 4.55201 1.67383 0
M  V30 9063 H 855.904 3.78552 2.63096 0
M  V30 9064 H 859.448 6.88649 1.11392 0
M  V30 9065 H 855.345 6.11219 2.0756 0
M  V30 9066 H 856.113 8.06789 1.37964 0
M  V30 9067 N 858.776 -0.797141 1.35954 0
M  V30 9068 C 860.024 -1.55161 1.29497 0
M  V30 9069 C 860.345 -1.94582 -0.127659 0
M  V30 9070 O 859.615 -1.64343 -1.06622 0
M  V30 9071 H 858.195 -0.575413 0.47635 0
M  V30 9072 H 860.857 -0.950282 1.70164 0
M  V30 9073 H 859.953 -2.46272 1.9172 0
M  V30 9074 N 860.254 -1.20106 -1.0204 0
M  V30 9075 C 861.184 -0.970301 -2.12385 0
M  V30 9076 C 862.165 0.099378 -1.69809 0
M  V30 9077 O 863.35 -0.057365 -1.94115 0
M  V30 9078 C 860.48 -0.517431 -3.43424 0
M  V30 9079 C 859.434 -1.52992 -3.99722 0
M  V30 9080 C 858.76 -0.933817 -5.26483 0
M  V30 9081 C 860.06 -2.91257 -4.33551 0
M  V30 9082 H 861.754 -1.89316 -2.31948 0
M  V30 9083 H 859.3 -0.911655 -1.11467 0
M  V30 9084 H 861.253 -0.343243 -4.2 0
M  V30 9085 H 859.977 0.441049 -3.23608 0
M  V30 9086 H 858.636 -1.6914 -3.2525 0
M  V30 9087 H 858.284 0.0324763 -5.0299 0
M  V30 9088 H 857.984 -1.60999 -5.65113 0
M  V30 9089 H 859.508 -0.770614 -6.05718 0
M  V30 9090 H 860.922 -2.78642 -5.0103 0
M  V30 9091 H 859.319 -3.55745 -4.83286 0
M  V30 9092 H 860.389 -3.43269 -3.42483 0
M  V30 9093 N 861.732 1.21287 -1.00634 0
M  V30 9094 C 862.98 1.90013 -0.688438 0
M  V30 9095 C 863.301 1.78573 0.783365 0
M  V30 9096 O 862.571 1.1815 1.56261 0
M  V30 9097 H 861.151 0.703336 -0.251648 0
M  V30 9098 H 863.813 1.47346 -1.27574 0
M  V30 9099 H 862.909 2.96879 -0.962781 0
M  V30 9100 N 863.21 0.781244 1.36873 0
M  V30 9101 C 864.621 0.414093 1.8205 0
M  V30 9102 C 864.972 -1.06098 1.65039 0
M  V30 9103 O 864.097 -1.82251 1.16677 0
M  V30 9104 C 864.692 0.744837 3.30511 0
M  V30 9105 C 863.251 0.430621 3.73929 0
M  V30 9106 C 862.398 0.983746 2.59264 0
M  V30 9107 H 865.349 0.975091 1.2521 0
M  V30 9108 H 865.37 0.032936 3.80486 0
M  V30 9109 H 864.882 1.81847 3.42861 0
M  V30 9110 H 862.983 -0.635308 3.67144 0
M  V30 9111 H 863.096 0.945514 4.69677 0
M  V30 9112 H 861.46 0.407433 2.5142 0
M  V30 9113 H 862.243 2.06297 2.74402 0
M  V30 9114 N 864.689 -1.48329 0.532571 0
M  V30 9115 C 865.914 -2.074 0.00147755 0
M  V30 9116 C 866.339 -1.38615 -1.27151 0
M  V30 9117 O 865.697 -0.452949 -1.75551 0
M  V30 9118 C 865.745 -3.60029 -0.202866 0
M  V30 9119 O 864.849 -3.92327 -1.27097 0
M  V30 9120 H 864.19 -0.662777 0.0402883 0
M  V30 9121 H 866.72 -1.90701 0.741224 0
M  V30 9122 H 866.73 -4.05783 -0.424722 0
M  V30 9123 H 865.405 -4.09496 0.727033 0
M  V30 9124 H 863.982 -3.58348 -1.03156 0
M  V30 9125 N 866.167 -0.267825 -1.55308 0
M  V30 9126 C 867.13 0.60965 -2.20943 0
M  V30 9127 C 868.13 1.0869 -1.18504 0
M  V30 9128 O 869.32 0.988248 -1.43455 0
M  V30 9129 C 866.452 1.84027 -2.86961 0
M  V30 9130 H 867.645 0.0366806 -2.99878 0
M  V30 9131 H 865.198 -0.0183941 -1.56289 0
M  V30 9132 H 865.933 2.45394 -2.1202 0
M  V30 9133 H 865.718 1.50605 -3.62023 0
M  V30 9134 H 867.208 2.46442 -3.37129 0
M  V30 9135 N 867.645 1.57599 0.00500368 0
M  V30 9136 C 868.875 1.94344 0.700998 0
M  V30 9137 C 869.283 0.868011 1.68114 0
M  V30 9138 O 868.626 -0.16214 1.82983 0
M  V30 9139 C 868.688 3.27046 1.49268 0
M  V30 9140 C 868.352 4.51992 0.674684 0
M  V30 9141 C 869.349 5.19888 -0.0354833 0
M  V30 9142 C 867.034 4.98432 0.622129 0
M  V30 9143 C 869.028 6.3252 -0.787246 0
M  V30 9144 C 866.715 6.10954 -0.133362 0
M  V30 9145 C 867.713 6.77855 -0.836788 0
M  V30 9146 O 867.401 7.88221 -1.57996 0
M  V30 9147 H 867.133 0.645572 0.20053 0
M  V30 9148 H 869.687 2.0536 -0.040718 0
M  V30 9149 H 867.917 3.12424 2.27877 0
M  V30 9150 H 869.606 3.4894 2.07355 0
M  V30 9151 H 870.372 4.85 -0.00400159 0
M  V30 9152 H 866.251 4.46189 1.15917 0
M  V30 9153 H 869.795 6.84671 -1.33683 0
M  V30 9154 H 865.692 6.45285 -0.166682 0
M  V30 9155 H 866.46 8.0471 -1.49615 0
M  V30 9156 N 869.123 -0.277682 1.55134 0
M  V30 9157 C 870.369 -1.0114 1.7578 0
M  V30 9158 C 870.702 -1.86109 0.554719 0
M  V30 9159 O 869.977 -1.89275 -0.447813 0
M  V30 9160 C 870.26 -1.89789 3.06027 0
M  V30 9161 C 870.113 -1.07844 4.3668 0
M  V30 9162 C 871.432 -2.88577 3.32282 0
M  V30 9163 H 868.551 -0.366277 0.639539 0
M  V30 9164 H 871.193 -0.284155 1.87863 0
M  V30 9165 H 869.343 -2.51796 2.95856 0
M  V30 9166 H 871.015 -0.479432 4.58802 0
M  V30 9167 H 869.258 -0.381764 4.32117 0
M  V30 9168 H 869.929 -1.73179 5.24131 0
M  V30 9169 H 872.405 -2.36702 3.42215 0
M  V30 9170 H 871.281 -3.47749 4.2469 0
M  V30 9171 H 871.542 -3.63458 2.51696 0
M  V30 9172 N 870.601 -1.47988 -0.541979 0
M  V30 9173 C 871.826 -1.59286 -1.32826 0
M  V30 9174 C 872.251 -0.24894 -1.86445 0
M  V30 9175 O 871.609 0.777581 -1.63778 0
M  V30 9176 C 871.657 -2.6334 -2.46343 0
M  V30 9177 O 870.761 -2.19667 -3.49028 0
M  V30 9178 H 870.102 -0.534543 -0.393903 0
M  V30 9179 H 872.632 -1.93885 -0.653427 0
M  V30 9180 H 872.642 -2.84238 -2.92699 0
M  V30 9181 H 871.317 -3.60913 -2.06675 0
M  V30 9182 H 869.894 -2.08932 -3.08872 0
M  V30 9183 N 872.079 0.78992 -1.36375 0
M  V30 9184 C 873.304 1.58389 -1.33895 0
M  V30 9185 C 873.729 1.8794 0.0774934 0
M  V30 9186 O 873.087 1.4785 1.0493 0
M  V30 9187 C 873.135 2.88201 -2.16732 0
M  V30 9188 O 872.239 3.81778 -1.55946 0
M  V30 9189 H 871.58 0.480471 -0.458305 0
M  V30 9190 H 874.11 0.979119 -1.79651 0
M  V30 9191 H 874.12 3.37475 -2.29292 0
M  V30 9192 H 872.795 2.66019 -3.19698 0
M  V30 9193 H 871.372 3.40371 -1.52323 0
M  V30 9194 N 873.557 1.20646 1.01402 0
M  V30 9195 C 874.804 1.01819 1.7504 0
M  V30 9196 C 875.132 -0.449386 1.89237 0
M  V30 9197 O 874.387 -1.34985 1.41695 0
M  V30 9198 C 874.686 1.64991 3.17037 0
M  V30 9199 C 874.352 3.14808 3.22811 0
M  V30 9200 C 873.014 3.55692 3.24094 0
M  V30 9201 C 875.366 4.108 3.2077 0
M  V30 9202 C 872.694 4.9109 3.2101 0
M  V30 9203 C 875.046 5.46147 3.19227 0
M  V30 9204 C 873.71 5.86441 3.18815 0
M  V30 9205 H 872.98 0.372582 0.640518 0
M  V30 9206 H 875.627 1.50108 1.18911 0
M  V30 9207 H 873.932 1.08971 3.76341 0
M  V30 9208 H 875.629 1.47937 3.72714 0
M  V30 9209 H 872.219 2.8224 3.2255 0
M  V30 9210 H 876.403 3.80246 3.18946 0
M  V30 9211 H 871.659 5.21569 3.19023 0
M  V30 9212 H 875.833 6.20272 3.166 0
M  V30 9213 H 873.46 6.91328 3.16179 0
M  V30 9214 N 875.035 -1.20752 1.01276 0
M  V30 9215 C 876.282 -1.90021 0.699887 0
M  V30 9216 C 876.61 -1.78604 -0.770113 0
M  V30 9217 O 875.865 -1.16195 -1.57471 0
M  V30 9218 C 876.164 -3.40808 1.07633 0
M  V30 9219 C 875.83 -3.72423 2.54189 0
M  V30 9220 C 874.492 -3.80762 2.94234 0
M  V30 9221 C 876.844 -3.87025 3.49086 0
M  V30 9222 C 874.172 -4.01158 4.28123 0
M  V30 9223 C 876.524 -4.0893 4.82658 0
M  V30 9224 C 875.188 -4.15498 5.22415 0
M  V30 9225 H 874.458 -0.695335 0.256107 0
M  V30 9226 H 877.105 -1.43096 1.27263 0
M  V30 9227 H 875.41 -3.89521 0.421944 0
M  V30 9228 H 877.107 -3.92693 0.811997 0
M  V30 9229 H 873.697 -3.66529 2.22158 0
M  V30 9230 H 877.881 -3.79942 3.19309 0
M  V30 9231 H 873.137 -4.04476 4.58486 0
M  V30 9232 H 877.311 -4.19172 5.56119 0
M  V30 9233 H 874.938 -4.31055 6.26176 0
M  V30 9234 N 876.513 -0.788492 -1.36457 0
M  V30 9235 C 877.461 -0.174192 -2.31947 0
M  V30 9236 C 878.455 0.665974 -1.5576 0
M  V30 9237 O 879.661 0.561161 -1.71029 0
M  V30 9238 H 876.036 -0.0375538 -0.751062 0
M  V30 9239 H 878.007 -0.995011 -2.81322 0
M  V30 9240 C 876.756 0.677276 -3.4104 0
M  V30 9241 H 876.079 0.0401418 -3.9978 0
M  V30 9242 H 877.519 1.07379 -4.10178 0
M  V30 9243 C 875.978 1.83512 -2.82533 0
M  V30 9244 O 876.508 2.93164 -2.74623 0
M  V30 9245 N 874.714 1.64095 -2.39836 0
M  V30 9246 H 874.261 0.749046 -2.46469 0
M  V30 9247 H 874.219 2.41726 -2.01037 0
M  V30 9248 N 877.991 1.48044 -0.54043 0
M  V30 9249 C 879.407 1.58354 -0.199006 0
M  V30 9250 C 879.607 1.54118 1.29807 0
M  V30 9251 O 878.663 1.43573 2.07709 0
M  V30 9252 C 879.976 2.89563 -0.810797 0
M  V30 9253 C 881.524 3.03113 -0.780486 0
M  V30 9254 C 881.999 4.36997 -1.37104 0
M  V30 9255 N 883.49 4.43591 -1.33347 0
M  V30 9256 C 884.225 5.45714 -1.76021 0
M  V30 9257 N 883.721 6.54738 -2.26473 0
M  V30 9258 N 885.514 5.36659 -1.67194 0
M  V30 9259 H 877.665 1.49041 -1.51329 0
M  V30 9260 H 879.928 0.708309 -0.630081 0
M  V30 9261 H 879.634 2.9835 -1.86227 0
M  V30 9262 H 879.508 3.76053 -0.293977 0
M  V30 9263 H 881.895 2.93932 0.262246 0
M  V30 9264 H 881.976 2.18207 -1.33489 0
M  V30 9265 H 881.62 4.46932 -2.41276 0
M  V30 9266 H 881.55 5.20607 -0.792229 0
M  V30 9267 H 884.041 3.65391 -0.964259 0
M  V30 9268 H 884.354 7.28814 -2.57002 0
M  V30 9269 H 882.699 6.55673 -2.30473 0
M  V30 9270 H 885.89 4.50382 -1.27569 0
M  V30 9271 H 886.063 6.16113 -2.00771 0
M  V30 9272 N 879.47 0.276058 1.55163 0
M  V30 9273 C 880.717 -0.340455 1.99618 0
M  V30 9274 C 881.045 -1.5579 1.16446 0
M  V30 9275 O 880.3 -1.94433 0.222359 0
M  V30 9276 C 880.599 -0.765744 3.491 0
M  V30 9277 C 880.265 0.347174 4.49561 0
M  V30 9278 C 878.927 0.65276 4.76752 0
M  V30 9279 C 881.279 1.09705 5.09523 0
M  V30 9280 C 878.607 1.71179 5.61173 0
M  V30 9281 C 880.959 2.14581 5.95095 0
M  V30 9282 C 879.623 2.45773 6.20606 0
M  V30 9283 H 878.893 -0.124581 0.730452 0
M  V30 9284 H 881.54 0.389966 1.87487 0
M  V30 9285 H 879.845 -1.57585 3.58712 0
M  V30 9286 H 881.542 -1.25352 3.80904 0
M  V30 9287 H 878.132 0.0988779 4.28486 0
M  V30 9288 H 882.316 0.874223 4.8854 0
M  V30 9289 H 877.572 1.95846 5.79184 0
M  V30 9290 H 881.746 2.7316 6.40591 0
M  V30 9291 H 879.373 3.27969 6.85813 0
M  V30 9292 N 880.948 -1.576 0.00335426 0
M  V30 9293 C 882.225 -1.81945 -0.718015 0
M  V30 9294 C 882.605 -0.881788 -1.91801 0
M  V30 9295 O 881.953 0.0687118 -2.28397 0
M  V30 9296 C 882.163 -3.30521 -1.12058 0
M  V30 9297 C 883.511 -3.96345 -1.52303 0
M  V30 9298 O 884.535 -3.34864 -1.21428 0
M  V30 9299 O 883.394 -5.04655 -2.09728 0
M  V30 9300 H 880.488 -0.749328 -0.34991 0
M  V30 9301 H 883.034 -1.69675 0.0290654 0
M  V30 9302 H 881.806 -3.90399 -0.265378 0
M  V30 9303 H 881.429 -3.47802 -1.92665 0
M  V30 9304 N 882.426 0.269451 -1.5528 0
M  V30 9305 C 883.666 1.00819 -1.77806 0
M  V30 9306 C 884.03 1.83369 -0.569198 0
M  V30 9307 O 885.231 2.60244 -0.672783 0
M  V30 9308 C 883.502 1.86447 -3.04913 0
M  V30 9309 S 885.061 2.66538 -3.48573 0
M  V30 9310 H 881.879 0.339508 -0.624704 0
M  V30 9311 H 884.481 0.278256 -1.9351 0
M  V30 9312 H 883.185 1.24733 -3.90986 0
M  V30 9313 H 882.716 2.63755 -2.91885 0
M  V30 9314 H 884.731 3.88938 -3.08126 0
M  V30 9315 N 883.904 1.48273 0.534124 0
M  V30 9316 C 885.151 1.56079 1.29017 0
M  V30 9317 C 885.479 0.232912 1.931 0
M  V30 9318 O 884.734 -0.77642 1.79639 0
M  V30 9319 C 885.033 2.64468 2.40398 0
M  V30 9320 C 884.699 4.07034 1.93995 0
M  V30 9321 C 883.361 4.45838 1.81058 0
M  V30 9322 C 885.713 4.96395 1.58877 0
M  V30 9323 C 883.041 5.71812 1.31331 0
M  V30 9324 C 885.393 6.22854 1.10614 0
M  V30 9325 C 884.057 6.60518 0.962895 0
M  V30 9326 H 883.327 0.571135 0.472108 0
M  V30 9327 H 885.974 1.81973 0.5965 0
M  V30 9328 H 884.279 2.32419 3.15418 0
M  V30 9329 H 885.976 2.67725 2.98537 0
M  V30 9330 H 882.566 3.76387 2.05015 0
M  V30 9331 H 886.75 4.67096 1.67734 0
M  V30 9332 H 882.006 5.99722 1.18924 0
M  V30 9333 H 886.18 6.91495 0.825095 0
M  V30 9334 H 883.807 7.58019 0.575369 0
M  V30 9335 N 885.382 -0.782676 1.36792 0
M  V30 9336 C 886.628 -1.54311 1.3159 0
M  V30 9337 C 886.961 -1.93928 -0.102696 0
M  V30 9338 O 886.236 -1.63233 -1.05761 0
M  V30 9339 C 886.519 -2.81561 2.24489 0
M  V30 9340 C 886.372 -2.48268 3.75078 0
M  V30 9341 C 887.691 -3.83428 2.16034 0
M  V30 9342 H 884.81 -0.559828 0.479335 0
M  V30 9343 H 887.452 -0.898717 1.67401 0
M  V30 9344 H 885.602 -3.36549 1.9408 0
M  V30 9345 H 887.274 -1.99279 4.16036 0
M  V30 9346 H 885.517 -1.81116 3.94182 0
M  V30 9347 H 886.188 -3.39183 4.35499 0
M  V30 9348 H 888.664 -3.37905 2.42815 0
M  V30 9349 H 887.54 -4.70204 2.83194 0
M  V30 9350 H 887.801 -4.26887 1.14976 0
M  V30 9351 N 886.86 -1.21182 -1.00761 0
M  V30 9352 C 888.106 -1.02898 -1.74756 0
M  V30 9353 C 888.439 0.436774 -1.89225 0
M  V30 9354 O 887.714 1.32415 -1.42466 0
M  V30 9355 C 887.997 -1.72372 -3.16164 0
M  V30 9356 C 887.85 -3.2645 -3.09435 0
M  V30 9357 C 889.169 -1.46415 -4.15031 0
M  V30 9358 H 886.288 -0.375214 -0.634337 0
M  V30 9359 H 888.93 -1.49321 -1.17487 0
M  V30 9360 H 887.08 -1.32906 -3.65059 0
M  V30 9361 H 888.752 -3.75269 -2.68274 0
M  V30 9362 H 886.995 -3.56889 -2.46603 0
M  V30 9363 H 887.666 -3.70226 -4.09435 0
M  V30 9364 H 890.142 -1.80671 -3.7483 0
M  V30 9365 H 889.018 -1.97544 -5.12121 0
M  V30 9366 H 889.279 -0.39361 -4.40344 0
M  V30 9367 N 888.338 1.20213 -1.01915 0
M  V30 9368 C 889.578 1.91354 -0.71853 0
M  V30 9369 C 889.942 1.77231 0.738466 0
M  V30 9370 O 891.143 2.42876 1.15172 0
M  V30 9371 C 889.414 3.38552 -1.14529 0
M  V30 9372 S 890.973 4.28011 -0.967037 0
M  V30 9373 H 887.791 0.661015 -0.261879 0
M  V30 9374 H 890.393 1.45394 -1.30694 0
M  V30 9375 H 889.097 3.46354 -2.20153 0
M  V30 9376 H 888.628 3.8954 -0.549766 0
M  V30 9377 H 890.643 4.96035 0.127974 0
M  V30 9378 N 889.816 0.795718 1.36037 0
M  V30 9379 C 891.064 0.370291 1.98679 0
M  V30 9380 C 891.385 -1.06332 1.63458 0
M  V30 9381 O 890.655 -1.73394 0.911671 0
M  V30 9382 H 889.235 0.133928 0.734896 0
M  V30 9383 H 891.897 1.01915 1.6613 0
M  V30 9384 H 890.993 0.467207 3.08583 0
M  V30 9385 N 891.294 -1.47756 0.548274 0
M  V30 9386 C 892.542 -2.02089 0.0208542 0
M  V30 9387 C 892.863 -1.42589 -1.33017 0
M  V30 9388 O 892.133 -0.597825 -1.86555 0
M  V30 9389 H 890.713 -0.746985 0.00472023 0
M  V30 9390 H 893.375 -1.81262 0.716257 0
M  V30 9391 H 892.471 -3.12012 -0.0739016 0
M  V30 9392 N 892.772 -0.284283 -1.55015 0
M  V30 9393 C 894.021 0.33055 -1.98973 0
M  V30 9394 C 894.334 1.56284 -1.17621 0
M  V30 9395 O 895.54 2.2512 -1.51767 0
M  V30 9396 C 893.996 0.639457 -3.54174 0
M  V30 9397 C 893.604 -0.573543 -4.44313 0
M  V30 9398 C 895.348 1.21641 -4.06699 0
M  V30 9399 C 893.255 -0.238715 -5.90918 0
M  V30 9400 H 892.185 0.127285 -0.743179 0
M  V30 9401 H 894.836 -0.390372 -1.793 0
M  V30 9402 H 893.218 1.41953 -3.69683 0
M  V30 9403 H 894.392 -1.3502 -4.40575 0
M  V30 9404 H 892.707 -1.06797 -4.02472 0
M  V30 9405 H 895.304 1.48088 -5.13784 0
M  V30 9406 H 895.647 2.15328 -3.56286 0
M  V30 9407 H 896.18 0.498422 -3.94665 0
M  V30 9408 H 892.919 -1.1437 -6.45445 0
M  V30 9409 H 892.439 0.500997 -5.97704 0
M  V30 9410 H 894.118 0.165774 -6.46788 0
M  V30 9411 N 894.251 1.57596 -0.0117121 0
M  V30 9412 C 895.181 2.12188 0.9746 0
M  V30 9413 C 896.162 1.03379 1.35081 0
M  V30 9414 O 897.347 1.31123 1.4325 0
M  V30 9415 C 894.477 2.63477 2.26268 0
M  V30 9416 C 893.431 3.76917 2.02774 0
M  V30 9417 C 892.757 4.14566 3.37697 0
M  V30 9418 C 894.057 5.03715 1.38089 0
M  V30 9419 H 895.751 2.9485 0.520007 0
M  V30 9420 H 893.297 1.41836 0.248685 0
M  V30 9421 H 895.25 3.00299 2.95633 0
M  V30 9422 H 893.974 1.77953 2.73862 0
M  V30 9423 H 892.633 3.40507 1.35832 0
M  V30 9424 H 892.281 3.26048 3.83016 0
M  V30 9425 H 891.981 4.91 3.22789 0
M  V30 9426 H 893.505 4.53956 4.08358 0
M  V30 9427 H 894.919 5.38233 1.97428 0
M  V30 9428 H 893.316 5.85032 1.33634 0
M  V30 9429 H 894.386 4.83624 0.351575 0
M  V30 9430 N 895.729 -0.261212 1.5542 0
M  V30 9431 C 896.639 -1.34493 1.92221 0
M  V30 9432 C 897.655 -1.53421 0.82086 0
M  V30 9433 O 898.831 -1.6732 1.12099 0
M  V30 9434 C 895.896 -2.68209 2.19692 0
M  V30 9435 C 894.957 -2.57927 3.43179 0
M  V30 9436 C 894.19 -3.85266 3.69331 0
M  V30 9437 O 894.413 -4.86493 2.97793 0
M  V30 9438 O 893.347 -3.8476 4.62865 0
M  V30 9439 H 897.173 -1.06278 2.84497 0
M  V30 9440 H 894.758 -0.460752 1.42118 0
M  V30 9441 H 896.64 -3.47252 2.38734 0
M  V30 9442 H 895.315 -2.96186 1.30597 0
M  V30 9443 H 894.222 -1.77219 3.2946 0
M  V30 9444 H 895.555 -2.34898 4.32532 0
M  V30 9445 N 897.207 -1.48554 -0.526253 0
M  V30 9446 C 898.435 -1.60429 -1.30652 0
M  V30 9447 C 898.85 -0.265963 -1.86917 0
M  V30 9448 O 898.207 0.745262 -1.6659 0
M  V30 9449 C 898.258 -2.65377 -2.45473 0
M  V30 9450 O 897.979 -3.94017 -1.91527 0
M  V30 9451 C 899.48 -2.87726 -3.37237 0
M  V30 9452 H 896.7 -0.540817 -0.397187 0
M  V30 9453 H 899.244 -1.94409 -0.634461 0
M  V30 9454 H 897.399 -2.34246 -3.08557 0
M  V30 9455 H 897.813 -4.51623 -2.66715 0
M  V30 9456 H 899.287 -3.64951 -4.14144 0
M  V30 9457 H 899.764 -1.96688 -3.92696 0
M  V30 9458 H 900.37 -3.20176 -2.79942 0
M  V30 9459 N 898.685 0.775411 -1.37205 0
M  V30 9460 C 899.913 1.56446 -1.35397 0
M  V30 9461 C 900.328 1.887 0.0615437 0
M  V30 9462 O 899.685 1.51178 1.02233 0
M  V30 9463 C 899.736 2.87697 -2.18889 0
M  V30 9464 O 899.457 2.56828 -3.54924 0
M  V30 9465 C 900.958 3.81944 -2.25019 0
M  V30 9466 H 898.178 0.484792 -0.463916 0
M  V30 9467 H 900.722 0.961346 -1.80495 0
M  V30 9468 H 898.877 3.44442 -1.7731 0
M  V30 9469 H 899.291 3.40851 -3.98649 0
M  V30 9470 H 900.765 4.71055 -2.87769 0
M  V30 9471 H 901.242 4.20811 -1.25757 0
M  V30 9472 H 901.848 3.3113 -2.66895 0
M  V30 9473 N 900.163 1.21714 1.00117 0
M  V30 9474 C 901.093 1.00397 2.10815 0
M  V30 9475 C 902.074 -0.0723502 1.69946 0
M  V30 9476 O 903.259 0.0882398 1.93999 0
M  V30 9477 C 900.389 0.572001 3.42557 0
M  V30 9478 C 899.343 1.59331 3.97237 0
M  V30 9479 C 898.669 1.01746 5.2493 0
M  V30 9480 C 899.969 2.98117 4.28863 0
M  V30 9481 H 901.663 1.92983 2.28906 0
M  V30 9482 H 899.209 0.929273 1.10002 0
M  V30 9483 H 901.162 0.410018 4.19401 0
M  V30 9484 H 899.886 -0.38951 3.24269 0
M  V30 9485 H 898.545 1.74293 3.22518 0
M  V30 9486 H 898.193 0.0475491 5.02978 0
M  V30 9487 H 897.893 1.69969 5.62481 0
M  V30 9488 H 899.417 0.866881 6.04415 0
M  V30 9489 H 900.831 2.86578 4.96534 0
M  V30 9490 H 899.228 3.63389 4.77565 0
M  V30 9491 H 900.298 3.48674 3.36979 0
M  V30 9492 N 901.641 -1.19671 1.02551 0
M  V30 9493 C 902.887 -1.89548 0.721069 0
M  V30 9494 C 903.22 -1.79209 -0.748176 0
M  V30 9495 O 902.495 -1.1822 -1.54448 0
M  V30 9496 C 902.778 -3.4061 1.16861 0
M  V30 9497 C 902.631 -3.59838 2.69883 0
M  V30 9498 C 903.95 -4.33718 0.746782 0
M  V30 9499 H 901.069 -0.688315 0.263422 0
M  V30 9500 H 903.711 -1.40883 1.27483 0
M  V30 9501 H 901.861 -3.82188 0.697477 0
M  V30 9502 H 903.533 -3.27454 3.24917 0
M  V30 9503 H 901.776 -3.03005 3.10435 0
M  V30 9504 H 902.447 -4.65766 2.96253 0
M  V30 9505 H 904.923 -3.99837 1.15195 0
M  V30 9506 H 903.799 -5.38012 1.08786 0
M  V30 9507 H 904.06 -4.40704 -0.351057 0
M  V30 9508 N 903.119 -0.802921 -1.35613 0
M  V30 9509 C 904.029 -0.212177 -2.33639 0
M  V30 9510 C 905.045 0.642871 -1.61689 0
M  V30 9511 O 906.221 0.555485 -1.93588 0
M  V30 9512 C 903.286 0.632406 -3.40883 0
M  V30 9513 C 902.347 -0.242708 -4.28613 0
M  V30 9514 C 901.58 0.56166 -5.30736 0
M  V30 9515 O 901.803 1.79664 -5.41366 0
M  V30 9516 O 900.737 -0.0455387 -6.01883 0
M  V30 9517 H 904.563 -1.023 -2.85952 0
M  V30 9518 H 902.148 -0.564636 -1.38319 0
M  V30 9519 H 904.03 1.11358 -4.0642 0
M  V30 9520 H 902.705 1.42089 -2.90848 0
M  V30 9521 H 901.612 -0.77094 -3.6607 0
M  V30 9522 H 902.945 -0.995046 -4.82037 0
M  V30 9523 N 904.597 1.47463 -0.556102 0
M  V30 9524 C 905.843 2.02775 -0.0316806 0
M  V30 9525 C 906.176 1.42967 1.3143 0
M  V30 9526 O 905.451 0.584847 1.85499 0
M  V30 9527 C 905.734 3.60046 0.0625742 0
M  V30 9528 C 905.587 4.30288 -1.31043 0
M  V30 9529 C 906.906 4.33195 0.776553 0
M  V30 9530 H 904.025 0.736886 -0.0129869 0
M  V30 9531 H 906.667 1.75904 -0.718177 0
M  V30 9532 H 904.817 3.83071 0.647231 0
M  V30 9533 H 906.489 4.18607 -1.9382 0
M  V30 9534 H 904.732 3.90685 -1.8854 0
M  V30 9535 H 905.403 5.38861 -1.1972 0
M  V30 9536 H 907.879 4.15156 0.280147 0
M  V30 9537 H 906.755 5.42869 0.81146 0
M  V30 9538 H 907.016 4.02336 1.83244 0
M  V30 9539 N 906.075 0.2925 1.54862 0
M  V30 9540 C 907.323 -0.318633 1.99572 0
M  V30 9541 C 907.644 -1.55062 1.1824 0
M  V30 9542 O 906.914 -1.93943 0.276226 0
M  V30 9543 H 905.494 -0.120722 0.737181 0
M  V30 9544 H 908.156 0.401862 1.90712 0
M  V30 9545 H 907.252 -0.596542 3.06346 0
M  V30 9546 N 907.553 -1.57587 0.0200696 0
M  V30 9547 C 908.516 -2.08595 -0.949767 0
M  V30 9548 C 909.516 -0.999215 -1.25985 0
M  V30 9549 O 910.706 -1.26115 -1.2017 0
M  V30 9550 C 907.838 -2.54424 -2.26895 0
M  V30 9551 H 909.031 -2.95563 -0.508161 0
M  V30 9552 H 906.584 -1.54631 -0.227798 0
M  V30 9553 H 907.319 -1.70758 -2.75703 0
M  V30 9554 H 907.104 -3.3381 -2.05702 0
M  V30 9555 H 908.594 -2.94144 -2.96427 0
M  V30 9556 N 909.032 0.252966 -1.55557 0
M  V30 9557 C 909.965 1.33928 -1.84766 0
M  V30 9558 C 910.943 1.46653 -0.702254 0
M  V30 9559 O 912.127 1.62963 -0.947375 0
M  V30 9560 C 909.254 2.71348 -2.02701 0
M  V30 9561 C 908.3 2.75804 -3.25322 0
M  V30 9562 S 909.133 2.33025 -4.82141 0
M  V30 9563 C 910.289 3.72382 -5.03073 0
M  V30 9564 H 910.522 1.08951 -2.76617 0
M  V30 9565 H 908.055 0.45364 -1.47585 0
M  V30 9566 H 910.013 3.50478 -2.13718 0
M  V30 9567 H 908.674 2.93566 -1.11703 0
M  V30 9568 H 907.867 3.76713 -3.34819 0
M  V30 9569 H 907.469 2.04713 -3.12999 0
M  V30 9570 H 909.761 4.67828 -4.90044 0
M  V30 9571 H 910.704 3.67824 -6.05071 0
M  V30 9572 H 911.112 3.64614 -4.30949 0
M  V30 9573 N 910.51 1.48831 0.518367 0
M  V30 9574 C 911.442 1.60317 1.63802 0
M  V30 9575 C 912.455 0.486771 1.55352 0
M  V30 9576 O 913.644 0.758111 1.61601 0
M  V30 9577 C 910.744 1.52771 3.02513 0
M  V30 9578 C 909.917 2.79649 3.36326 0
M  V30 9579 C 908.976 2.65396 4.54369 0
M  V30 9580 O 908.002 3.39304 4.57013 0
M  V30 9581 N 909.204 1.75784 5.53245 0
M  V30 9582 H 911.969 2.56878 1.54383 0
M  V30 9583 H 909.53 1.45701 0.705889 0
M  V30 9584 H 911.522 1.40914 3.79375 0
M  V30 9585 H 910.092 0.641381 3.05949 0
M  V30 9586 H 909.312 3.05985 2.48529 0
M  V30 9587 H 910.6 3.63799 3.55707 0
M  V30 9588 H 909.998 1.14961 5.53896 0
M  V30 9589 H 908.555 1.69859 6.29278 0
M  V30 9590 N 911.988 -0.768124 1.37614 0
M  V30 9591 C 913.399 -1.34462 1.29525 0
M  V30 9592 C 913.75 -1.96121 -0.0555168 0
M  V30 9593 O 912.875 -1.94069 -0.957406 0
M  V30 9594 C 913.47 -2.44475 2.34558 0
M  V30 9595 C 912.029 -2.97883 2.30093 0
M  V30 9596 C 911.176 -1.71131 2.18196 0
M  V30 9597 H 914.127 -0.568103 1.48183 0
M  V30 9598 H 914.148 -3.24047 1.99434 0
M  V30 9599 H 913.66 -1.99568 3.32858 0
M  V30 9600 H 911.761 -3.47156 1.35328 0
M  V30 9601 H 911.874 -3.53251 3.23652 0
M  V30 9602 H 910.238 -1.94197 1.64802 0
M  V30 9603 H 911.021 -1.28323 3.18415 0
M  V30 9604 N 913.466 -1.22244 -0.994698 0
M  V30 9605 C 914.396 -1.01513 -2.10279 0
M  V30 9606 C 915.377 0.0633365 -1.69982 0
M  V30 9607 O 916.562 -0.0985268 -1.9395 0
M  V30 9608 C 913.692 -0.59016 -3.42249 0
M  V30 9609 C 912.646 -1.61436 -3.96387 0
M  V30 9610 C 911.972 -1.04528 -5.24383 0
M  V30 9611 C 913.272 -3.00388 -4.27276 0
M  V30 9612 H 914.966 -1.94194 -2.2788 0
M  V30 9613 H 912.512 -0.935094 -1.09508 0
M  V30 9614 H 914.465 -0.432254 -4.19177 0
M  V30 9615 H 913.189 0.372308 -3.24471 0
M  V30 9616 H 911.848 -1.76001 -3.21589 0
M  V30 9617 H 911.496 -0.0742225 -5.02945 0
M  V30 9618 H 911.196 -1.72949 -5.61571 0
M  V30 9619 H 912.72 -0.898922 -6.03947 0
M  V30 9620 H 914.134 -2.89207 -4.95007 0
M  V30 9621 H 912.531 -3.65916 -4.75631 0
M  V30 9622 H 913.601 -3.50456 -3.35125 0
M  V30 9623 N 914.944 1.19125 -1.03184 0
M  V30 9624 C 916.192 1.8851 -0.728587 0
M  V30 9625 C 916.513 1.80195 0.74531 0
M  V30 9626 O 915.783 1.21437 1.5372 0
M  V30 9627 H 914.363 0.69784 -0.266511 0
M  V30 9628 H 917.025 1.44607 -1.3067 0
M  V30 9629 H 916.121 2.9477 -1.02554 0
M  V30 9630 N 916.422 0.810101 1.35185 0
M  V30 9631 C 917.671 0.388589 1.97921 0
M  V30 9632 C 917.984 -1.05079 1.64978 0
M  V30 9633 O 919.19 -1.57559 2.21105 0
M  V30 9634 C 917.646 0.643864 3.54094 0
M  V30 9635 C 917.254 2.09602 3.95943 0
M  V30 9636 C 918.998 0.287883 4.23523 0
M  V30 9637 C 916.905 2.29686 5.44976 0
M  V30 9638 H 915.835 0.141562 0.740592 0
M  V30 9639 H 918.486 0.994653 1.54204 0
M  V30 9640 H 916.868 -0.0321978 3.95987 0
M  V30 9641 H 918.042 2.81018 3.65192 0
M  V30 9642 H 916.357 2.4122 3.39414 0
M  V30 9643 H 918.954 0.415946 5.3308 0
M  V30 9644 H 919.297 -0.766305 4.09186 0
M  V30 9645 H 919.83 0.918004 3.87063 0
M  V30 9646 H 916.569 3.33563 5.64284 0
M  V30 9647 H 916.089 1.62798 5.77284 0
M  V30 9648 H 917.768 2.11411 6.11485 0
M  V30 9649 N 917.9 -1.47166 0.563914 0
M  V30 9650 C 919.125 -2.0735 0.0454698 0
M  V30 9651 C 919.55 -1.41281 -1.24182 0
M  V30 9652 O 918.908 -0.490084 -1.7455 0
M  V30 9653 C 918.956 -3.60378 -0.126453 0
M  V30 9654 O 918.06 -3.94934 -1.18746 0
M  V30 9655 H 917.401 -0.661773 0.0543377 0
M  V30 9656 H 919.931 -1.89086 0.781508 0
M  V30 9657 H 919.941 -4.06593 -0.338554 0
M  V30 9658 H 918.616 -4.07862 0.81373 0
M  V30 9659 H 917.193 -3.60455 -0.955318 0
M  V30 9660 N 919.378 -0.300708 -1.54705 0
M  V30 9661 C 920.624 0.309111 -2.0043 0
M  V30 9662 C 920.957 1.53562 -1.1888 0
M  V30 9663 O 920.232 1.92683 -0.265205 0
M  V30 9664 C 920.515 0.665995 -3.53888 0
M  V30 9665 C 920.368 -0.56963 -4.46178 0
M  V30 9666 C 921.687 1.49262 -4.14016 0
M  V30 9667 H 918.806 0.110878 -0.728612 0
M  V30 9668 H 921.448 -0.412748 -1.85463 0
M  V30 9669 H 919.598 1.281 -3.66773 0
M  V30 9670 H 921.27 -1.20811 -4.45199 0
M  V30 9671 H 919.513 -1.20292 -4.16788 0
M  V30 9672 H 920.184 -0.275785 -5.51311 0
M  V30 9673 H 922.66 0.972979 -4.04564 0
M  V30 9674 H 921.536 1.71111 -5.21548 0
M  V30 9675 H 921.797 2.48174 -3.65872 0
M  V30 9676 N 920.856 1.57574 -0.0284266 0
M  V30 9677 C 921.786 2.1321 0.952039 0
M  V30 9678 C 922.767 1.04806 1.33977 0
M  V30 9679 O 923.952 1.32635 1.41851 0
M  V30 9680 C 921.082 2.65862 2.23461 0
M  V30 9681 C 920.036 3.79047 1.98765 0
M  V30 9682 C 919.362 4.18124 3.33281 0
M  V30 9683 C 920.662 5.05151 1.32739 0
M  V30 9684 H 922.356 2.95385 0.488705 0
M  V30 9685 H 919.902 1.42092 0.233628 0
M  V30 9686 H 921.855 3.03417 2.92431 0
M  V30 9687 H 920.579 1.80848 2.71959 0
M  V30 9688 H 919.238 3.41929 1.32213 0
M  V30 9689 H 918.886 3.30092 3.79537 0
M  V30 9690 H 918.586 4.94396 3.17563 0
M  V30 9691 H 920.11 4.58262 4.0352 0
M  V30 9692 H 921.524 5.40297 1.91708 0
M  V30 9693 H 919.921 5.86416 1.27421 0
M  V30 9694 H 920.991 4.83969 0.300261 0
M  V30 9695 N 922.334 -0.244713 1.55689 0
M  V30 9696 C 923.75 -0.593331 1.48161 0
M  V30 9697 C 923.95 -1.88234 0.719047 0
M  V30 9698 O 923.006 -2.51266 0.249292 0
M  V30 9699 C 924.319 -0.694032 2.92581 0
M  V30 9700 C 925.867 -0.786213 3.02965 0
M  V30 9701 C 926.342 -0.918457 4.48696 0
M  V30 9702 N 927.833 -0.983272 4.52643 0
M  V30 9703 C 928.568 -1.1049 5.62654 0
M  V30 9704 N 928.064 -1.19193 6.8247 0
M  V30 9705 N 929.857 -1.13823 5.50455 0
M  V30 9706 H 922.008 0.601446 2.03707 0
M  V30 9707 H 924.271 0.207894 0.924924 0
M  V30 9708 H 923.977 0.183133 3.51223 0
M  V30 9709 H 923.851 -1.56525 3.4319 0
M  V30 9710 H 926.238 -1.65383 2.44402 0
M  V30 9711 H 926.319 0.110202 2.55563 0
M  V30 9712 H 925.963 -0.0553881 5.0787 0
M  V30 9713 H 925.893 -1.82994 4.93782 0
M  V30 9714 H 928.384 -0.927269 3.66347 0
M  V30 9715 H 928.697 -1.28387 7.62061 0
M  V30 9716 H 927.042 -1.16147 6.85226 0
M  V30 9717 H 930.233 -1.06673 4.55783 0
M  V30 9718 H 930.406 -1.22957 6.36228 0
M  V30 9719 N 923.813 -1.49104 -0.510467 0
M  V30 9720 C 925.053 -1.59723 -1.27545 0
M  V30 9721 C 925.417 -0.273525 -1.90042 0
M  V30 9722 O 926.618 -0.254835 -2.67589 0
M  V30 9723 C 924.889 -2.71771 -2.3211 0
M  V30 9724 S 926.448 -3.02282 -3.18074 0
M  V30 9725 H 923.266 -0.563489 -0.433591 0
M  V30 9726 H 925.868 -1.86719 -0.579328 0
M  V30 9727 H 924.572 -3.66483 -1.84711 0
M  V30 9728 H 924.103 -2.46739 -3.06404 0
M  V30 9729 H 926.118 -2.43076 -4.32583 0
M  V30 9730 N 925.291 0.760815 -1.38019 0
M  V30 9731 C 926.537 1.52198 -1.34028 0
M  V30 9732 C 926.87 1.94067 0.0718309 0
M  V30 9733 O 926.145 1.64895 1.0315 0
M  V30 9734 C 926.428 2.77954 -2.2894 0
M  V30 9735 C 926.281 2.42269 -3.7898 0
M  V30 9736 C 927.6 3.79943 -2.22107 0
M  V30 9737 H 924.719 0.552131 -0.488181 0
M  V30 9738 H 927.361 0.871971 -1.6881 0
M  V30 9739 H 925.511 3.33419 -1.9941 0
M  V30 9740 H 927.183 1.92635 -4.19153 0
M  V30 9741 H 925.426 1.74822 -3.97014 0
M  V30 9742 H 926.097 3.32211 -4.4084 0
M  V30 9743 H 928.573 3.34 -2.4816 0
M  V30 9744 H 927.449 4.6564 -2.90639 0
M  V30 9745 H 927.71 4.25004 -1.21753 0
M  V30 9746 N 926.769 1.22769 0.988202 0
M  V30 9747 C 928.185 0.988665 1.2529 0
M  V30 9748 C 928.385 -0.314938 1.99024 0
M  V30 9749 O 927.441 -1.03637 2.30251 0
M  V30 9750 C 928.754 2.19046 2.06009 0
M  V30 9751 C 930.302 2.23452 2.19176 0
M  V30 9752 C 930.777 3.43196 3.03283 0
M  V30 9753 N 932.268 3.43387 3.10869 0
M  V30 9754 C 933.003 4.32693 3.7625 0
M  V30 9755 N 932.499 5.32224 4.43519 0
M  V30 9756 N 934.292 4.20457 3.73058 0
M  V30 9757 H 926.443 2.06575 0.494014 0
M  V30 9758 H 928.706 0.905452 0.28082 0
M  V30 9759 H 928.412 3.13607 1.59197 0
M  V30 9760 H 928.286 2.19492 3.06763 0
M  V30 9761 H 930.673 1.29436 2.65199 0
M  V30 9762 H 930.754 2.27042 1.17836 0
M  V30 9763 H 930.398 4.37515 2.57959 0
M  V30 9764 H 930.328 3.36847 4.04774 0
M  V30 9765 H 932.819 2.71368 2.62998 0
M  V30 9766 H 933.132 5.9664 4.91163 0
M  V30 9767 H 931.477 5.36133 4.42252 0
M  V30 9768 H 934.668 3.41949 3.19669 0
M  V30 9769 H 934.841 4.90261 4.23731 0
M  V30 9770 N 928.247 -1.18576 1.03814 0
M  V30 9771 C 929.177 -2.24334 0.647795 0
M  V30 9772 C 930.158 -1.66508 -0.34774 0
M  V30 9773 O 931.343 -1.92852 -0.228401 0
M  V30 9774 C 928.473 -3.47299 0.00734922 0
M  V30 9775 C 927.427 -4.17859 0.926152 0
M  V30 9776 C 926.753 -5.34489 0.150317 0
M  V30 9777 C 928.053 -4.71632 2.24411 0
M  V30 9778 H 929.747 -2.57241 1.53191 0
M  V30 9779 H 927.293 -1.23649 0.738028 0
M  V30 9780 H 929.246 -4.20486 -0.277434 0
M  V30 9781 H 927.97 -3.13619 -0.911626 0
M  V30 9782 H 926.629 -3.46567 1.19528 0
M  V30 9783 H 926.277 -4.97056 -0.770985 0
M  V30 9784 H 925.977 -5.82633 0.762407 0
M  V30 9785 H 927.501 -6.10467 -0.127508 0
M  V30 9786 H 928.915 -5.36526 2.02021 0
M  V30 9787 H 927.312 -5.303 2.80894 0
M  V30 9788 H 928.382 -3.89192 2.89236 0
M  V30 9789 N 929.725 -0.817259 -1.34754 0
M  V30 9790 C 930.655 -0.249769 -2.3216 0
M  V30 9791 C 931.636 0.630663 -1.57977 0
M  V30 9792 O 932.821 0.558719 -1.85989 0
M  V30 9793 C 929.951 0.593825 -3.42186 0
M  V30 9794 C 928.905 -0.188997 -4.27583 0
M  V30 9795 C 928.231 0.776979 -5.29025 0
M  V30 9796 C 929.531 -1.39401 -5.03354 0
M  V30 9797 H 931.225 -1.06359 -2.79872 0
M  V30 9798 H 928.771 -0.512894 -1.34556 0
M  V30 9799 H 930.724 1.00097 -4.09339 0
M  V30 9800 H 929.448 1.44064 -2.93109 0
M  V30 9801 H 928.107 -0.577445 -3.62024 0
M  V30 9802 H 927.755 1.61959 -4.76212 0
M  V30 9803 H 927.455 0.257448 -5.87036 0
M  V30 9804 H 928.979 1.18211 -5.99048 0
M  V30 9805 H 930.393 -1.06117 -5.63393 0
M  V30 9806 H 928.79 -1.84878 -5.70912 0
M  V30 9807 H 929.86 -2.17515 -4.33377 0
M  V30 9808 N 931.203 1.46865 -0.571711 0
M  V30 9809 C 932.619 1.57897 -0.23255 0
M  V30 9810 C 932.819 1.56836 1.26509 0
M  V30 9811 O 931.875 1.47947 2.04617 0
M  V30 9812 C 933.188 2.87778 -0.872036 0
M  V30 9813 C 934.736 3.01389 -0.844605 0
M  V30 9814 C 935.211 4.33991 -1.46343 0
M  V30 9815 N 936.702 4.40662 -1.42727 0
M  V30 9816 C 937.437 5.41858 -1.87557 0
M  V30 9817 N 936.933 6.49787 -2.4031 0
M  V30 9818 N 938.726 5.32992 -1.7854 0
M  V30 9819 H 930.877 1.45798 -1.54457 0
M  V30 9820 H 933.14 0.694785 -0.644964 0
M  V30 9821 H 932.846 2.94332 -1.92513 0
M  V30 9822 H 932.72 3.75345 -0.373677 0
M  V30 9823 H 935.107 2.94423 0.19984 0
M  V30 9824 H 935.188 2.15327 -1.38087 0
M  V30 9825 H 934.832 4.41714 -2.50701 0
M  V30 9826 H 934.762 5.18809 -0.902479 0
M  V30 9827 H 937.253 3.63263 -1.04155 0
M  V30 9828 H 937.566 7.23199 -2.72403 0
M  V30 9829 H 935.911 6.50637 -2.44329 0
M  V30 9830 H 939.102 4.47575 -1.37093 0
M  V30 9831 H 939.275 6.11716 -2.13794 0
M  V30 9832 N 932.681 0.308908 1.54543 0
M  V30 9833 C 933.93 -0.298854 1.99474 0
M  V30 9834 C 934.243 -1.54393 1.20093 0
M  V30 9835 O 935.449 -2.22677 1.55329 0
M  V30 9836 C 933.905 -0.58303 3.55146 0
M  V30 9837 C 933.513 0.644157 4.43345 0
M  V30 9838 C 935.257 -1.15155 4.08582 0
M  V30 9839 C 933.164 0.332694 5.90463 0
M  V30 9840 H 932.094 -0.115445 0.74511 0
M  V30 9841 H 934.745 0.418848 1.78656 0
M  V30 9842 H 933.127 -1.36053 3.71894 0
M  V30 9843 H 934.301 1.42012 4.38371 0
M  V30 9844 H 932.616 1.13186 4.00722 0
M  V30 9845 H 935.213 -1.39896 5.16075 0
M  V30 9846 H 935.556 -2.09632 3.59667 0
M  V30 9847 H 936.089 -0.435571 3.95408 0
M  V30 9848 H 932.828 1.24624 6.43544 0
M  V30 9849 H 932.348 -0.405844 5.98425 0
M  V30 9850 H 934.027 -0.0628545 6.46969 0
M  V30 9851 N 934.159 -1.57557 0.0367827 0
M  V30 9852 C 935.406 -1.92114 -0.640185 0
M  V30 9853 C 935.734 -0.913887 -1.71693 0
M  V30 9854 O 934.989 0.0760343 -1.95552 0
M  V30 9855 C 935.288 -3.33387 -1.28794 0
M  V30 9856 C 934.954 -4.4961 -0.340819 0
M  V30 9857 C 933.616 -4.81133 -0.0801574 0
M  V30 9858 C 935.968 -5.20283 0.309106 0
M  V30 9859 C 933.296 -5.80683 0.838107 0
M  V30 9860 C 935.648 -6.20813 1.21547 0
M  V30 9861 C 934.312 -6.50773 1.48495 0
M  V30 9862 H 933.582 -0.702996 -0.23426 0
M  V30 9863 H 936.229 -1.91238 0.100188 0
M  V30 9864 H 934.534 -3.30561 -2.10324 0
M  V30 9865 H 936.231 -3.57399 -1.81843 0
M  V30 9866 H 932.821 -4.25002 -0.554161 0
M  V30 9867 H 937.005 -4.96153 0.120794 0
M  V30 9868 H 932.261 -6.02238 1.05451 0
M  V30 9869 H 936.435 -6.74692 1.72522 0
M  V30 9870 H 934.062 -7.27727 2.19814 0
M  V30 9871 N 935.637 0.236453 -1.55816 0
M  V30 9872 C 936.584 1.29289 -1.91188 0
M  V30 9873 C 937.554 1.47315 -0.767301 0
M  V30 9874 O 938.739 1.61128 -1.02189 0
M  V30 9875 C 935.879 2.64126 -2.22107 0
M  V30 9876 C 934.992 2.54022 -3.49423 0
M  V30 9877 C 934.127 3.81282 -3.69861 0
M  V30 9878 C 933.166 3.65839 -4.90743 0
M  V30 9879 N 932.303 4.85014 -5.07647 0
M  V30 9880 H 937.143 0.98424 -2.81277 0
M  V30 9881 H 934.68 0.474722 -1.39229 0
M  V30 9882 H 936.638 3.42626 -2.3804 0
M  V30 9883 H 935.268 2.93118 -1.35209 0
M  V30 9884 H 934.32 1.67036 -3.41765 0
M  V30 9885 H 935.632 2.38525 -4.38072 0
M  V30 9886 H 934.786 4.68226 -3.8581 0
M  V30 9887 H 933.525 3.99688 -2.79465 0
M  V30 9888 H 932.53 2.77279 -4.74759 0
M  V30 9889 H 933.755 3.48918 -5.82609 0
M  V30 9890 H 931.701 5.03762 -4.20191 0
M  V30 9891 H 931.618 4.72188 -5.90402 0
M  V30 9892 H 932.886 5.73427 -5.28017 0
M  V30 9893 N 937.115 1.49373 0.502552 0
M  V30 9894 C 938.361 1.59016 1.25864 0
M  V30 9895 C 938.694 0.27532 1.92238 0
M  V30 9896 O 937.969 -0.720988 1.80643 0
M  V30 9897 C 938.252 2.74828 2.32683 0
M  V30 9898 C 938.105 4.16102 1.7082 0
M  V30 9899 C 939.424 2.86288 3.34256 0
M  V30 9900 H 936.543 0.578798 0.456248 0
M  V30 9901 H 939.185 1.81651 0.557032 0
M  V30 9902 H 937.335 2.5566 2.92524 0
M  V30 9903 H 939.007 4.46782 1.14818 0
M  V30 9904 H 937.25 4.21822 1.01238 0
M  V30 9905 H 937.921 4.93006 2.48292 0
M  V30 9906 H 940.397 3.03733 2.84404 0
M  V30 9907 H 939.273 3.69001 4.06362 0
M  V30 9908 H 939.534 1.95576 3.96488 0
M  V30 9909 N 938.594 -0.753485 1.38421 0
M  V30 9910 C 939.822 -1.54272 1.37868 0
M  V30 9911 C 940.237 -1.88774 -0.0315155 0
M  V30 9912 O 939.594 -1.52785 -0.998148 0
M  V30 9913 C 939.645 -2.84179 2.23438 0
M  V30 9914 O 939.366 -2.51149 3.58965 0
M  V30 9915 C 940.867 -3.78316 2.31067 0
M  V30 9916 H 938.087 -0.47735 0.47157 0
M  V30 9917 H 940.631 -0.932509 1.82001 0
M  V30 9918 H 938.786 -3.41577 1.82767 0
M  V30 9919 H 939.2 -3.34466 4.04021 0
M  V30 9920 H 940.674 -4.66418 2.95226 0
M  V30 9921 H 941.151 -4.18757 1.32436 0
M  V30 9922 H 941.757 -3.26842 2.72129 0
M  V30 9923 N 940.072 -1.23292 -0.981677 0
M  V30 9924 C 941.488 -0.995295 -1.24764 0
M  V30 9925 C 941.688 0.304379 -1.99188 0
M  V30 9926 O 940.744 1.02414 -2.30798 0
M  V30 9927 C 942.057 -2.20135 -2.04844 0
M  V30 9928 C 943.605 -2.24612 -2.17988 0
M  V30 9929 C 944.08 -3.448 -3.01458 0
M  V30 9930 N 945.571 -3.45031 -3.09044 0
M  V30 9931 C 946.306 -4.34683 -3.7395 0
M  V30 9932 N 945.802 -5.34569 -4.4069 0
M  V30 9933 N 947.595 -4.22429 -3.70823 0
M  V30 9934 H 939.746 -2.06834 -0.483052 0
M  V30 9935 H 942.009 -0.906929 -0.276014 0
M  V30 9936 H 941.715 -3.14446 -1.57532 0
M  V30 9937 H 941.589 -2.21115 -3.05594 0
M  V30 9938 H 943.976 -1.30841 -2.64508 0
M  V30 9939 H 944.057 -2.27664 -1.16631 0
M  V30 9940 H 943.701 -4.38877 -2.55635 0
M  V30 9941 H 943.631 -3.38988 -4.02982 0
M  V30 9942 H 946.122 -2.72759 -2.61555 0
M  V30 9943 H 946.435 -5.99236 -4.87991 0
M  V30 9944 H 944.78 -5.3847 -4.39403 0
M  V30 9945 H 947.971 -3.43639 -3.17851 0
M  V30 9946 H 948.144 -4.92501 -4.21126 0
M  V30 9947 N 941.55 1.18024 -1.04442 0
M  V30 9948 C 942.5 2.19714 -0.609069 0
M  V30 9949 C 943.484 1.57037 0.350473 0
M  V30 9950 O 944.676 1.76192 0.16892 0
M  V30 9951 C 941.805 3.43293 0.0225911 0
M  V30 9952 C 940.891 4.13084 -0.960325 0
M  V30 9953 N 941.282 4.58819 -2.12883 0
M  V30 9954 C 939.58 4.38999 -0.787146 0
M  V30 9955 C 940.281 5.12589 -2.75004 0
M  V30 9956 N 939.257 5.04333 -2.02853 0
M  V30 9957 H 943.059 2.5277 -1.49948 0
M  V30 9958 H 940.573 1.34271 -0.913517 0
M  V30 9959 H 942.57 4.1541 0.352196 0
M  V30 9960 H 941.23 3.11731 0.908495 0
M  V30 9961 H 942.241 4.53148 -2.50754 0
M  V30 9962 H 938.918 4.17472 0.048348 0
M  V30 9963 H 940.308 5.58152 -3.74053 0
M  V30 9964 N 943.028 0.824394 1.34319 0
M  V30 9965 C 944.274 0.422964 1.98954 0
M  V30 9966 C 944.629 -1.00323 1.64174 0
M  V30 9967 O 943.922 -1.6894 0.903869 0
M  V30 9968 C 944.116 0.564024 3.52921 0
M  V30 9969 C 943.945 2.00238 4.0266 0
M  V30 9970 C 942.715 2.63457 4.31183 0
M  V30 9971 C 944.913 2.9693 4.19925 0
M  V30 9972 N 942.895 3.98518 4.66966 0
M  V30 9973 C 944.266 4.16901 4.58904 0
M  V30 9974 C 946.321 2.93527 4.02177 0
M  V30 9975 C 945.024 5.33926 4.81991 0
M  V30 9976 C 947.05 4.09769 4.26431 0
M  V30 9977 C 946.412 5.28493 4.65698 0
M  V30 9978 H 942.511 0.202907 0.755217 0
M  V30 9979 H 945.095 1.0694 1.62702 0
M  V30 9980 H 943.266 -0.0525268 3.88364 0
M  V30 9981 H 944.998 0.135451 4.04473 0
M  V30 9982 H 941.753 2.14688 4.22145 0
M  V30 9983 H 942.177 4.68103 4.8909 0
M  V30 9984 H 946.819 2.02878 3.70945 0
M  V30 9985 H 944.537 6.25132 5.12089 0
M  V30 9986 H 948.123 4.08537 4.14233 0
M  V30 9987 H 947.003 6.16945 4.84096 0
M  V30 9988 N 944.506 -1.46559 0.579492 0
M  V30 9989 C 945.469 -2.28739 -0.145371 0
M  V30 9990 C 946.469 -1.38211 -0.821854 0
M  V30 9991 O 947.659 -1.6062 -0.674302 0
M  V30 9992 C 944.791 -3.18507 -1.21515 0
M  V30 9993 H 945.984 -2.94301 0.576786 0
M  V30 9994 H 943.537 -1.52616 0.337327 0
M  V30 9995 H 944.272 -2.57685 -1.96899 0
M  V30 9996 H 944.057 -3.85157 -0.734616 0
M  V30 9997 H 945.547 -3.80369 -1.72363 0
M  V30 9998 N 945.984 -0.3171 -1.54377 0
M  V30 9999 C 947.209 0.292311 -2.0533 0
M  V30 10000 C 947.634 1.45503 -1.19207 0
M  V30 10001 O 946.992 1.80197 -0.199721 0
M  V30 10002 C 947.04 0.710787 -3.53525 0
M  V30 10003 O 946.144 1.81387 -3.70368 0
M  V30 10004 H 945.485 0.0539976 -0.661801 0
M  V30 10005 H 948.015 -0.463629 -1.99278 0
M  V30 10006 H 948.025 0.995216 -3.95676 0
M  V30 10007 H 946.7 -0.139668 -4.15665 0
M  V30 10008 H 945.277 1.52875 -3.40123 0
M  V30 10009 N 947.462 1.57535 -0.0451378 0
M  V30 10010 C 948.392 2.14208 0.929372 0
M  V30 10011 C 949.373 1.06221 1.32858 0
M  V30 10012 O 950.558 1.34132 1.40436 0
M  V30 10013 C 947.688 2.68217 2.20629 0
M  V30 10014 C 946.642 3.81134 1.94734 0
M  V30 10015 C 945.968 4.21636 3.28828 0
M  V30 10016 C 947.268 5.06531 1.27374 0
M  V30 10017 H 948.962 2.95886 0.457348 0
M  V30 10018 H 946.508 1.42332 0.218544 0
M  V30 10019 H 948.461 3.06502 2.89196 0
M  V30 10020 H 947.185 1.83722 2.70026 0
M  V30 10021 H 945.844 3.43312 1.28579 0
M  V30 10022 H 945.492 3.34099 3.76014 0
M  V30 10023 H 945.192 4.97736 3.12302 0
M  V30 10024 H 946.716 4.62516 3.98637 0
M  V30 10025 H 948.13 5.423 1.85967 0
M  V30 10026 H 946.527 5.87735 1.21194 0
M  V30 10027 H 947.597 4.84261 0.248913 0
M  V30 10028 N 948.94 -0.228186 1.55939 0
M  V30 10029 C 950.165 -0.974795 1.83064 0
M  V30 10030 C 950.59 -1.77426 0.624624 0
M  V30 10031 O 949.948 -1.76211 -0.426556 0
M  V30 10032 C 949.996 -1.87342 3.08116 0
M  V30 10033 O 949.1 -2.96784 2.86344 0
M  V30 10034 H 948.441 -0.276379 0.603747 0
M  V30 10035 H 950.971 -0.243507 2.03146 0
M  V30 10036 H 950.981 -2.28451 3.38045 0
M  V30 10037 H 949.656 -1.28575 3.95526 0
M  V30 10038 H 948.233 -2.59669 2.67631 0
M  V30 10039 N 950.418 -1.49637 -0.494624 0
M  V30 10040 C 951.366 -1.6727 -1.61627 0
M  V30 10041 C 952.36 -0.538587 -1.6061 0
M  V30 10042 O 953.566 -0.718411 -1.65042 0
M  V30 10043 H 949.941 -0.527557 -0.535899 0
M  V30 10044 H 951.912 -2.61405 -1.43909 0
M  V30 10045 C 950.661 -1.7624 -2.99725 0
M  V30 10046 H 949.984 -2.62886 -3.01216 0
M  V30 10047 H 951.424 -1.92611 -3.77726 0
M  V30 10048 C 949.883 -0.508632 -3.33038 0
M  V30 10049 O 950.413 0.362828 -4.00058 0
M  V30 10050 N 948.619 -0.369667 -2.88239 0
M  V30 10051 H 948.166 -1.07984 -2.33875 0
M  V30 10052 H 948.124 0.468112 -3.10896 0
M  V30 10053 N 951.896 0.746133 -1.38819 0
M  V30 10054 C 952.826 1.87344 -1.39372 0
M  V30 10055 C 953.807 1.68123 -0.258583 0
M  V30 10056 O 954.992 1.88606 -0.462769 0
M  V30 10057 C 952.122 3.24962 -1.22543 0
M  V30 10058 C 951.076 3.58799 -2.33339 0
M  V30 10059 C 950.402 4.95235 -2.01609 0
M  V30 10060 C 951.702 3.62911 -3.75624 0
M  V30 10061 H 953.396 1.87138 -2.33709 0
M  V30 10062 H 950.942 0.898937 -1.12495 0
M  V30 10063 H 952.895 4.03488 -1.21554 0
M  V30 10064 H 951.619 3.25667 -0.246707 0
M  V30 10065 H 950.278 2.82596 -2.33527 0
M  V30 10066 H 949.926 4.92508 -1.02202 0
M  V30 10067 H 949.626 5.18843 -2.75819 0
M  V30 10068 H 951.15 5.76131 -2.02251 0
M  V30 10069 H 952.564 4.31535 -3.77426 0
M  V30 10070 H 950.961 3.98031 -4.491 0
M  V30 10071 H 952.031 2.62967 -4.07402 0
M  V30 10072 N 953.375 1.23811 0.975125 0
M  V30 10073 C 954.621 1.07495 1.71967 0
M  V30 10074 C 954.954 -0.386451 1.90316 0
M  V30 10075 O 954.229 -1.28591 1.45927 0
M  V30 10076 C 954.512 1.80694 3.11483 0
M  V30 10077 C 954.365 3.3454 3.00671 0
M  V30 10078 C 955.684 1.57367 4.11003 0
M  V30 10079 H 952.803 0.3919 0.624166 0
M  V30 10080 H 955.445 1.52383 1.13487 0
M  V30 10081 H 953.595 1.42538 3.61407 0
M  V30 10082 H 955.267 3.8225 2.5823 0
M  V30 10083 H 953.51 3.63301 2.37054 0
M  V30 10084 H 954.181 3.80951 3.99475 0
M  V30 10085 H 956.657 1.90545 3.69908 0
M  V30 10086 H 955.533 2.11052 5.06703 0
M  V30 10087 H 955.794 0.510221 4.39146 0
M  V30 10088 N 954.853 -1.17469 1.05066 0
M  V30 10089 C 955.816 -2.19648 0.654793 0
M  V30 10090 C 956.816 -1.58107 -0.293063 0
M  V30 10091 O 958.006 -1.74029 -0.077106 0
M  V30 10092 C 955.138 -3.40878 -0.0384437 0
M  V30 10093 H 956.331 -2.56184 1.55915 0
M  V30 10094 H 953.884 -1.31528 0.844396 0
M  V30 10095 H 954.619 -3.09885 -0.956133 0
M  V30 10096 H 954.404 -3.86792 0.642961 0
M  V30 10097 H 955.894 -4.1651 -0.301568 0
M  V30 10098 N 956.331 -0.831506 -1.3388 0
M  V30 10099 C 957.556 -0.435954 -2.02766 0
M  V30 10100 C 957.981 0.952889 -1.62178 0
M  V30 10101 O 957.339 1.62166 -0.810681 0
M  V30 10102 C 957.387 -0.555907 -3.56289 0
M  V30 10103 O 956.491 0.420826 -4.10247 0
M  V30 10104 H 955.832 -0.178248 -0.639628 0
M  V30 10105 H 958.362 -1.1243 -1.70941 0
M  V30 10106 H 958.372 -0.434831 -4.05676 0
M  V30 10107 H 957.047 -1.56881 -3.85177 0
M  V30 10108 H 955.624 0.257919 -3.72007 0
M  V30 10109 N 957.809 1.4625 -0.587256 0
M  V30 10110 C 958.739 2.33132 0.131076 0
M  V30 10111 C 959.72 1.45619 0.879158 0
M  V30 10112 O 960.905 1.74428 0.853723 0
M  V30 10113 C 958.035 3.27975 1.14236 0
M  V30 10114 C 956.989 4.24965 0.508819 0
M  V30 10115 C 956.315 5.09349 1.62689 0
M  V30 10116 C 957.615 5.19322 -0.55694 0
M  V30 10117 H 959.309 2.93442 -0.594333 0
M  V30 10118 H 956.855 1.41106 -0.287263 0
M  V30 10119 H 958.808 3.87614 1.65328 0
M  V30 10120 H 957.532 2.65781 1.8981 0
M  V30 10121 H 956.191 3.66595 0.0189337 0
M  V30 10122 H 955.839 4.43537 2.37242 0
M  V30 10123 H 955.539 5.75036 1.20861 0
M  V30 10124 H 957.063 5.71852 2.14049 0
M  V30 10125 H 958.477 5.73151 -0.130903 0
M  V30 10126 H 956.874 5.93376 -0.895801 0
M  V30 10127 H 957.944 4.62979 -1.44148 0
M  V30 10128 N 959.287 0.325282 1.54207 0
M  V30 10129 C 960.217 -0.532574 2.27345 0
M  V30 10130 C 961.198 -1.11791 1.28206 0
M  V30 10131 O 962.383 -1.14272 1.57021 0
M  V30 10132 C 959.513 -1.69274 3.03255 0
M  V30 10133 C 958.467 -1.23662 4.09746 0
M  V30 10134 C 957.793 -2.48386 4.73506 0
M  V30 10135 C 959.093 -0.350244 5.21124 0
M  V30 10136 H 960.787 0.0775108 2.993 0
M  V30 10137 H 958.333 0.0387193 1.43948 0
M  V30 10138 H 960.286 -2.29917 3.53152 0
M  V30 10139 H 959.01 -2.32944 2.28921 0
M  V30 10140 H 957.669 -0.653106 3.60735 0
M  V30 10141 H 957.317 -3.10424 3.95786 0
M  V30 10142 H 957.017 -2.18558 5.45441 0
M  V30 10143 H 958.541 -3.09789 5.26178 0
M  V30 10144 H 959.955 -0.863011 5.66767 0
M  V30 10145 H 958.352 -0.14466 5.99926 0
M  V30 10146 H 959.422 0.618457 4.8094 0
M  V30 10147 N 960.765 -1.57509 0.0534917 0
M  V30 10148 C 961.713 -2.12851 -0.937931 0
M  V30 10149 C 962.707 -1.06088 -1.32067 0
M  V30 10150 O 963.913 -1.24494 -1.30005 0
M  V30 10151 H 960.288 -0.680357 -0.320342 0
M  V30 10152 H 962.259 -2.95047 -0.446077 0
M  V30 10153 C 961.008 -2.69034 -2.20264 0
M  V30 10154 H 960.331 -3.50848 -1.91693 0
M  V30 10155 H 961.771 -3.11375 -2.87788 0
M  V30 10156 C 960.23 -1.62919 -2.94888 0
M  V30 10157 O 960.76 -1.04334 -3.87914 0
M  V30 10158 N 958.966 -1.34385 -2.57661 0
M  V30 10159 H 958.513 -1.82214 -1.82088 0
M  V30 10160 H 958.471 -0.636149 -3.07897 0
M  V30 10161 N 962.243 0.219913 -1.56058 0
M  V30 10162 C 963.468 0.965073 -1.83579 0
M  V30 10163 C 963.893 1.77092 -0.634024 0
M  V30 10164 O 963.251 1.76434 0.417205 0
M  V30 10165 C 963.299 1.85705 -3.09105 0
M  V30 10166 O 962.403 2.95261 -2.87914 0
M  V30 10167 H 961.744 0.273173 -0.605204 0
M  V30 10168 H 964.274 0.23273 -2.03272 0
M  V30 10169 H 964.284 2.26655 -3.39252 0
M  V30 10170 H 962.959 1.26476 -3.96203 0
M  V30 10171 H 961.536 2.58246 -2.69005 0
M  V30 10172 N 963.721 1.49897 0.486681 0
M  V30 10173 C 964.654 1.6224 1.60479 0
M  V30 10174 C 965.632 0.470964 1.5563 0
M  V30 10175 O 966.816 0.688418 1.75479 0
M  V30 10176 C 963.943 1.59059 2.99028 0
M  V30 10177 C 962.989 2.79575 3.22087 0
M  V30 10178 S 963.822 4.41077 3.03664 0
M  V30 10179 C 964.978 4.40564 4.44583 0
M  V30 10180 H 965.211 2.56822 1.49766 0
M  V30 10181 H 962.744 1.38966 0.672893 0
M  V30 10182 H 964.702 1.5791 3.78913 0
M  V30 10183 H 963.363 0.657405 3.07143 0
M  V30 10184 H 962.556 2.73609 4.23266 0
M  V30 10185 H 962.158 2.78211 2.49949 0
M  V30 10186 H 964.45 4.13166 5.36936 0
M  V30 10187 H 965.393 5.42068 4.55596 0
M  V30 10188 H 965.801 3.70461 4.25933 0
M  V30 10189 N 965.199 -0.738761 1.39212 0
M  V30 10190 C 966.146 -1.85273 1.37631 0
M  V30 10191 C 967.116 -1.64407 0.236572 0
M  V30 10192 O 968.301 -1.85866 0.431104 0
M  V30 10193 C 965.441 -3.22745 1.22188 0
M  V30 10194 C 964.554 -3.55342 2.45674 0
M  V30 10195 C 963.689 -4.82195 2.22847 0
M  V30 10196 C 962.728 -5.07625 3.42029 0
M  V30 10197 N 961.865 -6.25679 3.18543 0
M  V30 10198 H 966.705 -1.85959 2.32859 0
M  V30 10199 H 964.242 -0.908716 1.15675 0
M  V30 10200 H 966.2 -4.02095 1.11245 0
M  V30 10201 H 964.83 -3.21347 0.30592 0
M  V30 10202 H 963.882 -2.70722 2.67233 0
M  V30 10203 H 965.194 -3.70054 3.34457 0
M  V30 10204 H 964.348 -5.69518 2.09126 0
M  V30 10205 H 963.087 -4.6965 1.31454 0
M  V30 10206 H 962.092 -4.18765 3.56253 0
M  V30 10207 H 963.317 -5.22058 4.34319 0
M  V30 10208 H 961.263 -6.14429 2.2981 0
M  V30 10209 H 961.18 -6.40961 4.0088 0
M  V30 10210 H 962.448 -7.15851 3.08508 0
M  V30 10211 N 966.677 -1.24326 -0.968545 0
M  V30 10212 C 967.902 -1.1104 -1.75171 0
M  V30 10213 C 968.327 0.333109 -1.85127 0
M  V30 10214 O 967.685 1.24115 -1.32156 0
M  V30 10215 C 967.733 -1.75397 -3.15068 0
M  V30 10216 O 966.837 -1.02417 -3.9948 0
M  V30 10217 H 966.178 -0.388488 -0.538491 0
M  V30 10218 H 968.708 -1.64617 -1.215 0
M  V30 10219 H 968.718 -1.8112 -3.65595 0
M  V30 10220 H 967.393 -2.80427 -3.07138 0
M  V30 10221 H 965.97 -1.04475 -3.57966 0
M  V30 10222 N 968.156 1.1691 -1.05688 0
M  V30 10223 C 969.405 1.86629 -0.765022 0
M  V30 10224 C 969.718 1.82223 0.710918 0
M  V30 10225 O 970.924 2.47462 1.11691 0
M  V30 10226 C 969.38 3.34886 -1.3183 0
M  V30 10227 C 968.988 3.47781 -2.82404 0
M  V30 10228 C 970.732 4.099 -1.10372 0
M  V30 10229 C 968.639 4.9009 -3.31008 0
M  V30 10230 H 967.569 0.699082 -0.282491 0
M  V30 10231 H 970.22 1.31989 -1.27481 0
M  V30 10232 H 968.602 3.89094 -0.736312 0
M  V30 10233 H 969.776 3.03765 -3.46502 0
M  V30 10234 H 968.091 2.86193 -3.02461 0
M  V30 10235 H 970.688 5.14894 -1.4418 0
M  V30 10236 H 971.031 4.16279 -0.0417372 0
M  V30 10237 H 971.564 3.61913 -1.65117 0
M  V30 10238 H 968.303 4.88887 -4.36657 0
M  V30 10239 H 967.823 5.34756 -2.71655 0
M  V30 10240 H 969.502 5.58881 -3.25977 0
M  V30 10241 N 969.634 0.838594 1.33437 0
M  V30 10242 C 970.597 0.276843 2.27522 0
M  V30 10243 C 971.597 -0.554275 1.50945 0
M  V30 10244 O 972.787 -0.368107 1.70266 0
M  V30 10245 C 969.919 -0.610036 3.35397 0
M  V30 10246 H 971.112 1.10705 2.78719 0
M  V30 10247 H 968.665 0.611657 1.43835 0
M  V30 10248 H 969.4 -1.46269 2.89441 0
M  V30 10249 H 969.185 -0.0153615 3.92097 0
M  V30 10250 H 970.675 -0.996368 4.05539 0
M  V30 10251 N 971.112 -1.45937 0.595003 0
M  V30 10252 C 972.337 -2.07207 0.0894416 0
M  V30 10253 C 972.762 -1.43884 -1.21157 0
M  V30 10254 O 972.12 -0.526998 -1.73472 0
M  V30 10255 C 972.168 -3.60565 -0.0499828 0
M  V30 10256 O 971.272 -3.97364 -1.10342 0
M  V30 10257 H 970.613 -0.660471 0.0683627 0
M  V30 10258 H 973.143 -1.87386 0.82144 0
M  V30 10259 H 973.153 -4.0722 -0.252234 0
M  V30 10260 H 971.828 -4.06044 0.90006 0
M  V30 10261 H 970.405 -3.62401 -0.878645 0
M  V30 10262 N 972.59 -0.333456 -1.54032 0
M  V30 10263 C 973.52 0.52051 -2.27625 0
M  V30 10264 C 974.501 1.1111 -1.28797 0
M  V30 10265 O 975.686 1.13438 -1.57625 0
M  V30 10266 C 972.816 1.67663 -3.04149 0
M  V30 10267 C 971.77 1.21487 -4.10396 0
M  V30 10268 C 971.096 2.45872 -4.74817 0
M  V30 10269 C 972.396 0.322603 -5.21303 0
M  V30 10270 H 974.09 -0.0933823 -2.99254 0
M  V30 10271 H 971.636 -0.0463526 -1.43925 0
M  V30 10272 H 973.589 2.28041 -3.54366 0
M  V30 10273 H 972.313 2.31727 -2.30153 0
M  V30 10274 H 970.972 0.633966 -3.61077 0
M  V30 10275 H 970.62 3.0832 -3.97426 0
M  V30 10276 H 970.32 2.15662 -5.46593 0
M  V30 10277 H 971.844 3.06994 -5.27814 0
M  V30 10278 H 973.258 0.832942 -5.67217 0
M  V30 10279 H 971.655 0.112843 -5.99994 0
M  V30 10280 H 972.725 -0.643954 -4.80605 0
M  V30 10281 N 974.068 1.57479 -0.061844 0
M  V30 10282 C 974.998 2.15181 0.9066 0
M  V30 10283 C 975.979 1.07624 1.31724 0
M  V30 10284 O 977.164 1.35614 1.39006 0
M  V30 10285 C 974.294 2.70542 2.17771 0
M  V30 10286 C 973.248 3.83178 1.9068 0
M  V30 10287 C 972.574 4.25099 3.24337 0
M  V30 10288 C 973.874 5.07853 1.21994 0
M  V30 10289 H 975.568 2.96355 0.42594 0
M  V30 10290 H 973.114 1.42556 0.203435 0
M  V30 10291 H 975.067 3.09552 2.85929 0
M  V30 10292 H 973.791 1.86575 2.68062 0
M  V30 10293 H 972.45 3.44656 1.24931 0
M  V30 10294 H 972.098 3.38069 3.72449 0
M  V30 10295 H 971.798 5.01021 3.07005 0
M  V30 10296 H 973.322 4.66718 3.93709 0
M  V30 10297 H 974.736 5.44242 1.80204 0
M  V30 10298 H 973.133 5.88987 1.14954 0
M  V30 10299 H 974.203 4.84497 0.197536 0
M  V30 10300 N 975.546 -0.211634 1.56173 0
M  V30 10301 C 976.476 -1.26533 1.96244 0
M  V30 10302 C 977.457 -1.48362 0.832028 0
M  V30 10303 O 978.642 -1.60378 1.0951 0
M  V30 10304 C 975.772 -2.61307 2.2877 0
M  V30 10305 C 974.726 -2.54119 3.44395 0
M  V30 10306 C 974.052 -3.93014 3.62552 0
M  V30 10307 C 975.352 -2.08046 4.79076 0
M  V30 10308 H 977.046 -0.932407 2.84511 0
M  V30 10309 H 974.592 -0.447084 1.36884 0
M  V30 10310 H 976.545 -3.35188 2.55396 0
M  V30 10311 H 975.269 -2.96307 1.37367 0
M  V30 10312 H 973.928 -1.82694 3.17834 0
M  V30 10313 H 973.576 -4.25338 2.68508 0
M  V30 10314 H 973.276 -3.89083 4.40327 0
M  V30 10315 H 974.8 -4.68542 3.91537 0
M  V30 10316 H 976.214 -2.71676 5.04842 0
M  V30 10317 H 974.611 -2.15154 5.60204 0
M  V30 10318 H 975.681 -1.03306 4.73768 0
M  V30 10319 N 977.024 -1.50153 -0.478725 0
M  V30 10320 C 977.954 -1.71384 -1.58587 0
M  V30 10321 C 978.935 -0.562705 -1.60523 0
M  V30 10322 O 980.12 -0.80101 -1.76911 0
M  V30 10323 C 977.25 -1.80094 -2.96957 0
M  V30 10324 C 976.204 -2.95218 -3.09888 0
M  V30 10325 C 975.53 -2.89063 -4.49829 0
M  V30 10326 C 976.83 -4.35841 -2.8782 0
M  V30 10327 H 978.524 -2.64081 -1.41073 0
M  V30 10328 H 976.07 -1.27081 -0.677239 0
M  V30 10329 H 978.023 -1.93531 -3.74331 0
M  V30 10330 H 976.747 -0.840131 -3.1561 0
M  V30 10331 H 975.406 -2.81419 -2.34944 0
M  V30 10332 H 975.054 -1.90844 -4.6539 0
M  V30 10333 H 974.754 -3.66345 -4.59418 0
M  V30 10334 H 976.278 -3.04539 -5.29234 0
M  V30 10335 H 977.692 -4.50205 -3.54948 0
M  V30 10336 H 976.089 -5.14515 -3.0886 0
M  V30 10337 H 977.159 -4.48739 -1.83742 0
M  V30 10338 N 978.502 0.731368 -1.39602 0
M  V30 10339 C 979.432 1.85855 -1.41351 0
M  V30 10340 C 980.413 1.67839 -0.2764 0
M  V30 10341 O 981.598 1.88104 -0.482747 0
M  V30 10342 C 978.728 3.23644 -1.25983 0
M  V30 10343 C 977.682 3.56304 -2.37132 0
M  V30 10344 C 977.008 4.93069 -2.0685 0
M  V30 10345 C 978.308 3.58906 -3.79452 0
M  V30 10346 H 980.002 1.84648 -2.3568 0
M  V30 10347 H 977.548 0.886955 -1.13442 0
M  V30 10348 H 979.501 4.02176 -1.25826 0
M  V30 10349 H 978.225 3.25387 -0.281234 0
M  V30 10350 H 976.884 2.80104 -2.36511 0
M  V30 10351 H 976.532 4.91396 -1.0742 0
M  V30 10352 H 976.232 5.15888 -2.81306 0
M  V30 10353 H 977.756 5.73953 -2.0835 0
M  V30 10354 H 979.17 4.27508 -3.81982 0
M  V30 10355 H 977.567 3.93246 -4.53297 0
M  V30 10356 H 978.637 2.58631 -4.10168 0
M  V30 10357 N 979.98 1.24838 0.961938 0
M  V30 10358 C 981.227 1.09151 1.70564 0
M  V30 10359 C 981.555 -0.368719 1.90973 0
M  V30 10360 O 980.81 -1.28854 1.47293 0
M  V30 10361 C 981.109 1.78289 3.09754 0
M  V30 10362 C 980.775 3.28216 3.09169 0
M  V30 10363 C 979.437 3.69118 3.08716 0
M  V30 10364 C 981.789 4.24035 3.03058 0
M  V30 10365 C 979.117 5.04263 2.99892 0
M  V30 10366 C 981.469 5.59195 2.95776 0
M  V30 10367 C 980.133 5.99436 2.93655 0
M  V30 10368 H 979.403 0.399414 0.624139 0
M  V30 10369 H 982.05 1.55016 1.12438 0
M  V30 10370 H 980.355 1.24835 3.7138 0
M  V30 10371 H 982.052 1.63612 3.66104 0
M  V30 10372 H 978.642 2.95667 3.10289 0
M  V30 10373 H 982.826 3.93431 3.02532 0
M  V30 10374 H 978.082 5.3463 2.96615 0
M  V30 10375 H 982.256 6.33142 2.90007 0
M  V30 10376 H 979.883 7.04116 2.86573 0
M  V30 10377 N 981.458 -1.16348 1.06306 0
M  V30 10378 C 982.388 -2.2291 0.695234 0
M  V30 10379 C 983.369 -1.67208 -0.312343 0
M  V30 10380 O 984.554 -1.93293 -0.187442 0
M  V30 10381 C 981.684 -3.47205 0.0810149 0
M  V30 10382 C 980.638 -4.15801 1.01458 0
M  V30 10383 C 979.964 -5.3405 0.263656 0
M  V30 10384 C 981.264 -4.66766 2.34365 0
M  V30 10385 H 982.958 -2.53934 1.58613 0
M  V30 10386 H 980.504 -1.22056 0.76409 0
M  V30 10387 H 982.457 -4.2098 -0.18818 0
M  V30 10388 H 981.181 -3.15482 -0.844897 0
M  V30 10389 H 979.84 -3.43954 1.26852 0
M  V30 10390 H 979.488 -4.9858 -0.665378 0
M  V30 10391 H 979.188 -5.80885 0.88582 0
M  V30 10392 H 980.712 -6.106 0.00200994 0
M  V30 10393 H 982.126 -5.3212 2.13356 0
M  V30 10394 H 980.523 -5.24223 2.9208 0
M  V30 10395 H 981.593 -3.82969 2.97426 0
M  V30 10396 N 982.937 -0.845659 -1.3299 0
M  V30 10397 C 984.184 -0.444653 -1.97558 0
M  V30 10398 C 984.512 0.997682 -1.66963 0
M  V30 10399 O 983.767 1.71349 -0.94541 0
M  V30 10400 C 984.066 -0.6201 -3.51979 0
M  V30 10401 C 983.732 -2.03155 -4.02541 0
M  V30 10402 C 982.394 -2.4176 -4.16059 0
M  V30 10403 C 984.746 -2.95317 -4.29462 0
M  V30 10404 C 982.074 -3.71818 -4.53837 0
M  V30 10405 C 984.426 -4.24863 -4.68694 0
M  V30 10406 C 983.09 -4.63416 -4.80419 0
M  V30 10407 H 982.36 -0.16271 -0.722915 0
M  V30 10408 H 985.007 -1.07399 -1.58549 0
M  V30 10409 H 983.312 0.092513 -3.91691 0
M  V30 10410 H 985.009 -0.290012 -3.9995 0
M  V30 10411 H 981.599 -1.72174 -3.92497 0
M  V30 10412 H 985.783 -2.66726 -4.18534 0
M  V30 10413 H 981.039 -4.01484 -4.61108 0
M  V30 10414 H 985.213 -4.96347 -4.8848 0
M  V30 10415 H 982.84 -5.6424 -5.09448 0
M  V30 10416 N 984.415 1.45619 -0.602734 0
M  V30 10417 C 985.664 2.01483 -0.0936395 0
M  V30 10418 C 985.977 1.47753 1.28173 0
M  V30 10419 O 987.183 1.95562 1.88329 0
M  V30 10420 C 985.639 3.59711 -0.116738 0
M  V30 10421 C 985.247 4.22437 -1.49166 0
M  V30 10422 C 986.991 4.23157 0.337368 0
M  V30 10423 C 984.898 5.72803 -1.47141 0
M  V30 10424 H 983.828 0.753353 -0.0312382 0
M  V30 10425 H 986.479 1.67142 -0.757347 0
M  V30 10426 H 984.861 3.91218 0.613529 0
M  V30 10427 H 986.035 4.02511 -2.24325 0
M  V30 10428 H 984.35 3.71166 -1.88746 0
M  V30 10429 H 986.947 5.33407 0.371628 0
M  V30 10430 H 987.29 3.93491 1.35906 0
M  V30 10431 H 987.823 3.96349 -0.339474 0
M  V30 10432 H 984.562 6.07161 -2.47055 0
M  V30 10433 H 984.082 5.94936 -0.762329 0
M  V30 10434 H 985.761 6.35907 -1.19294 0
M  V30 10435 N 985.893 0.34162 1.53853 0
M  V30 10436 C 987.142 -0.256475 2.00063 0
M  V30 10437 C 987.455 -1.51811 1.23341 0
M  V30 10438 O 988.661 -2.19332 1.60017 0
M  V30 10439 C 987.117 -0.507567 3.56303 0
M  V30 10440 C 986.725 0.738052 4.41879 0
M  V30 10441 C 988.469 -1.06463 4.10933 0
M  V30 10442 C 986.376 0.457865 5.89625 0
M  V30 10443 H 985.306 -0.0996143 0.747391 0
M  V30 10444 H 987.957 0.456649 1.77727 0
M  V30 10445 H 986.339 -1.28134 3.74697 0
M  V30 10446 H 987.513 1.51278 4.3526 0
M  V30 10447 H 985.828 1.21661 3.98231 0
M  V30 10448 H 988.425 -1.28918 5.18926 0
M  V30 10449 H 988.768 -2.01956 3.64032 0
M  V30 10450 H 989.301 -0.351601 3.96243 0
M  V30 10451 H 986.04 1.38247 6.40756 0
M  V30 10452 H 985.56 -0.278818 5.99152 0
M  V30 10453 H 987.239 0.0743914 6.46957 0
M  V30 10454 N 987.371 -1.57444 0.0701946 0
M  V30 10455 C 988.62 -1.92605 -0.598849 0
M  V30 10456 C 988.933 -0.952058 -1.70866 0
M  V30 10457 O 990.139 -1.19643 -2.43716 0
M  V30 10458 C 988.595 -3.42142 -1.11655 0
M  V30 10459 C 988.203 -4.47984 -0.0378355 0
M  V30 10460 C 989.947 -3.86307 -1.75975 0
M  V30 10461 C 987.854 -5.88652 -0.569495 0
M  V30 10462 H 986.784 -0.718873 -0.22746 0
M  V30 10463 H 989.435 -1.82948 0.14217 0
M  V30 10464 H 987.817 -3.46866 -1.91049 0
M  V30 10465 H 988.991 -4.54874 0.736661 0
M  V30 10466 H 987.306 -4.13277 0.50904 0
M  V30 10467 H 989.903 -4.88784 -2.16782 0
M  V30 10468 H 990.246 -3.23587 -2.61911 0
M  V30 10469 H 990.779 -3.84179 -1.03206 0
M  V30 10470 H 987.518 -6.55013 0.252662 0
M  V30 10471 H 987.038 -5.85285 -1.31155 0
M  V30 10472 H 988.717 -6.38482 -1.04641 0
M  V30 10473 N 988.849 0.203349 -1.56283 0
M  V30 10474 C 990.096 0.92501 -1.80138 0
M  V30 10475 C 990.424 1.83598 -0.64204 0
M  V30 10476 O 989.679 1.92119 0.372658 0
M  V30 10477 C 989.978 1.78016 -3.09912 0
M  V30 10478 C 989.644 1.02088 -4.39191 0
M  V30 10479 C 988.306 0.811208 -4.74313 0
M  V30 10480 C 990.658 0.486037 -5.18929 0
M  V30 10481 C 987.986 0.0550856 -5.86674 0
M  V30 10482 C 990.338 -0.256833 -6.32078 0
M  V30 10483 C 989.002 -0.477594 -6.65789 0
M  V30 10484 H 988.272 0.338485 -0.659173 0
M  V30 10485 H 990.919 0.191923 -1.90536 0
M  V30 10486 H 989.224 2.58167 -2.94715 0
M  V30 10487 H 990.921 2.341 -3.25574 0
M  V30 10488 H 987.511 1.1943 -4.11624 0
M  V30 10489 H 991.695 0.635446 -4.92215 0
M  V30 10490 H 986.951 -0.126006 -6.1127 0
M  V30 10491 H 991.125 -0.678683 -6.93085 0
M  V30 10492 H 988.752 -1.0654 -7.52697 0
M  V30 10493 N 990.327 1.50405 0.470755 0
M  V30 10494 C 991.552 1.65442 1.25075 0
M  V30 10495 C 991.977 0.337612 1.85045 0
M  V30 10496 O 991.335 -0.698555 1.67302 0
M  V30 10497 C 991.383 2.74793 2.33498 0
M  V30 10498 O 990.487 2.36069 3.3815 0
M  V30 10499 H 989.828 0.552728 0.367951 0
M  V30 10500 H 992.358 1.96782 0.560177 0
M  V30 10501 H 992.368 2.97879 2.78804 0
M  V30 10502 H 991.043 3.70363 1.8922 0
M  V30 10503 H 989.62 2.2343 2.98552 0
M  V30 10504 N 991.805 -0.723954 1.39988 0
M  V30 10505 C 992.735 -1.85103 1.42335 0
M  V30 10506 C 993.716 -1.6769 0.285297 0
M  V30 10507 O 994.901 -1.87846 0.492716 0
M  V30 10508 C 992.031 -3.22972 1.27697 0
M  V30 10509 C 990.985 -3.55041 2.39018 0
M  V30 10510 C 990.311 -4.91965 2.09462 0
M  V30 10511 C 991.611 -3.56889 3.8135 0
M  V30 10512 H 993.305 -1.83396 2.36656 0
M  V30 10513 H 990.851 -0.880926 1.13911 0
M  V30 10514 H 992.804 -4.01503 1.27958 0
M  V30 10515 H 991.528 -3.25233 0.298487 0
M  V30 10516 H 990.187 -2.78845 2.37993 0
M  V30 10517 H 989.835 -4.90819 1.10025 0
M  V30 10518 H 989.535 -5.14389 2.84038 0
M  V30 10519 H 991.059 -5.7284 2.11391 0
M  V30 10520 H 992.473 -4.25476 3.84243 0
M  V30 10521 H 990.87 -3.90836 4.55376 0
M  V30 10522 H 991.94 -2.56452 4.11534 0
M  V30 10523 N 993.283 -1.25346 -0.955304 0
M  V30 10524 C 994.213 -1.08152 -2.06943 0
M  V30 10525 C 995.194 0.00922598 -1.70097 0
M  V30 10526 O 996.379 -0.160181 -1.93538 0
M  V30 10527 C 993.509 -0.698745 -3.40198 0
M  V30 10528 C 992.463 -1.73965 -3.9105 0
M  V30 10529 C 991.789 -1.21158 -5.20792 0
M  V30 10530 C 993.089 -3.13829 -4.17503 0
M  V30 10531 H 994.783 -2.01345 -2.21586 0
M  V30 10532 H 992.329 -0.969459 -1.06478 0
M  V30 10533 H 994.282 -0.565394 -4.1759 0
M  V30 10534 H 993.006 0.268892 -3.25491 0
M  V30 10535 H 991.665 -1.86143 -3.15827 0
M  V30 10536 H 991.313 -0.234193 -5.02455 0
M  V30 10537 H 991.013 -1.90728 -5.55785 0
M  V30 10538 H 992.537 -1.09061 -6.00781 0
M  V30 10539 H 993.951 -3.04809 -4.85556 0
M  V30 10540 H 992.348 -3.80863 -4.63749 0
M  V30 10541 H 993.418 -3.6094 -3.23806 0
M  V30 10542 N 994.761 1.15782 -1.06922 0
M  V30 10543 C 996.009 1.86097 -0.788192 0
M  V30 10544 C 996.33 1.82475 0.687606 0
M  V30 10545 O 995.6 1.26266 1.49778 0
M  V30 10546 H 994.18 0.689008 -0.288577 0
M  V30 10547 H 996.842 1.40377 -1.35205 0
M  V30 10548 H 995.938 2.91358 -1.1188 0
M  V30 10549 N 996.239 0.8527 1.3254 0
M  V30 10550 C 997.172 0.240733 2.26927 0
M  V30 10551 C 998.15 -0.620158 1.50309 0
M  V30 10552 O 999.334 -0.577389 1.79439 0
M  V30 10553 C 996.461 -0.660644 3.32195 0
M  V30 10554 C 995.507 0.126604 4.26312 0
M  V30 10555 S 996.34 1.49372 5.14245 0
M  V30 10556 C 997.496 0.598002 6.23037 0
M  V30 10557 H 997.729 1.04088 2.78483 0
M  V30 10558 H 995.262 0.650222 1.40041 0
M  V30 10559 H 997.22 -1.17506 3.93323 0
M  V30 10560 H 995.881 -1.43458 2.79426 0
M  V30 10561 H 995.074 -0.559851 5.00881 0
M  V30 10562 H 994.676 0.572536 3.69592 0
M  V30 10563 H 996.968 -0.198555 6.77209 0
M  V30 10564 H 997.911 1.31428 6.95796 0
M  V30 10565 H 998.319 0.173211 5.64234 0
M  V30 10566 N 997.718 -1.45297 0.610449 0
M  V30 10567 C 998.65 -2.28742 -0.144884 0
M  V30 10568 C 999.663 -1.40114 -0.828977 0
M  V30 10569 O 1000.85 -1.64461 -0.693887 0
M  V30 10570 C 997.952 -3.15934 -1.22632 0
M  V30 10571 C 997.125 -4.32857 -0.628785 0
M  V30 10572 C 996.184 -5.01237 -1.60148 0
M  V30 10573 O 995.21 -5.57938 -1.12667 0
M  V30 10574 N 996.412 -5.00785 -2.9359 0
M  V30 10575 H 999.177 -2.94207 0.571145 0
M  V30 10576 H 996.738 -1.55517 0.450134 0
M  V30 10577 H 998.73 -3.58545 -1.87691 0
M  V30 10578 H 997.3 -2.52358 -1.84483 0
M  V30 10579 H 996.52 -3.93693 0.199951 0
M  V30 10580 H 997.808 -5.08367 -0.209845 0
M  V30 10581 H 997.206 -4.56014 -3.34765 0
M  V30 10582 H 995.763 -5.4725 -3.54064 0
M  V30 10583 N 999.196 -0.349774 -1.5367 0
M  V30 10584 C 1000.13 0.496338 -2.28164 0
M  V30 10585 C 1001.11 1.09737 -1.29968 0
M  V30 10586 O 1002.29 1.11759 -1.58819 0
M  V30 10587 C 999.422 1.64428 -3.0591 0
M  V30 10588 C 998.376 1.17127 -4.11661 0
M  V30 10589 C 997.702 2.40822 -4.77398 0
M  V30 10590 C 999.002 0.267293 -5.21616 0
M  V30 10591 H 1000.7 -0.125117 -2.99138 0
M  V30 10592 H 998.242 -0.0616152 -1.43868 0
M  V30 10593 H 1000.19 2.2427 -3.56765 0
M  V30 10594 H 998.919 2.29272 -2.32598 0
M  V30 10595 H 997.578 0.595634 -3.61729 0
M  V30 10596 H 997.226 3.04088 -4.00674 0
M  V30 10597 H 996.926 2.09852 -5.48849 0
M  V30 10598 H 998.45 3.01378 -5.3104 0
M  V30 10599 H 999.864 0.772734 -5.68068 0
M  V30 10600 H 998.261 0.0491991 -6.0008 0
M  V30 10601 H 999.331 -0.694892 -4.79895 0
M  V30 10602 N 1000.67 1.57404 -0.0785433 0
M  V30 10603 C 1001.92 1.93744 0.589024 0
M  V30 10604 C 1002.25 0.959087 1.69209 0
M  V30 10605 O 1001.5 -0.0241604 1.95685 0
M  V30 10606 C 1001.8 3.36684 1.1991 0
M  V30 10607 C 1001.47 4.50356 0.221493 0
M  V30 10608 C 1000.13 4.81177 -0.0474347 0
M  V30 10609 C 1002.48 5.1928 -0.446941 0
M  V30 10610 C 999.811 5.78257 -0.99177 0
M  V30 10611 C 1002.16 6.17372 -1.37964 0
M  V30 10612 C 1000.83 6.46607 -1.65697 0
M  V30 10613 H 1000.1 0.70896 0.215539 0
M  V30 10614 H 1002.74 1.90905 -0.150856 0
M  V30 10615 H 1001.05 3.36022 2.01486 0
M  V30 10616 H 1002.75 3.62095 1.72303 0
M  V30 10617 H 999.336 4.26322 0.441284 0
M  V30 10618 H 1003.52 4.95658 -0.252298 0
M  V30 10619 H 998.776 5.9923 -1.21381 0
M  V30 10620 H 1002.95 6.6988 -1.9035 0
M  V30 10621 H 1000.58 7.21643 -2.39031 0
M  V30 10622 N 1002.15 -0.195058 1.56388 0
M  V30 10623 C 1003.4 -0.913636 1.8027 0
M  V30 10624 C 1003.72 -1.83791 0.651606 0
M  V30 10625 O 1002.99 -1.931 -0.330057 0
M  V30 10626 H 1001.57 -0.34036 0.664954 0
M  V30 10627 H 1004.23 -0.200559 1.93865 0
M  V30 10628 H 1003.33 -1.50473 2.7343 0
M  V30 10629 N 1003.63 -1.50653 -0.462772 0
M  V30 10630 C 1004.88 -1.61737 -1.21184 0
M  V30 10631 C 1005.2 -0.32369 -1.92295 0
M  V30 10632 O 1004.47 0.659269 -1.84473 0
M  V30 10633 H 1003.05 -0.596015 -0.450306 0
M  V30 10634 H 1005.71 -1.87469 -0.533051 0
M  V30 10635 H 1004.81 -2.43262 -1.95525 0
M  V30 10636 N 1005.11 0.71652 -1.4037 0
M  V30 10637 C 1006.06 1.8306 -1.40562 0
M  V30 10638 C 1007.03 1.64009 -0.262697 0
M  V30 10639 O 1008.21 1.85157 -0.460619 0
M  V30 10640 C 1005.35 3.2076 -1.27307 0
M  V30 10641 C 1004.46 3.51389 -2.51296 0
M  V30 10642 C 1003.6 4.78589 -2.30491 0
M  V30 10643 C 1002.64 5.02119 -3.50061 0
M  V30 10644 N 1001.77 6.20533 -3.28457 0
M  V30 10645 H 1006.61 1.82231 -2.35788 0
M  V30 10646 H 1004.15 0.890198 -1.17106 0
M  V30 10647 H 1006.11 4.00274 -1.17628 0
M  V30 10648 H 1004.74 3.2082 -0.357005 0
M  V30 10649 H 1003.79 2.66436 -2.71507 0
M  V30 10650 H 1005.1 3.64686 -3.40302 0
M  V30 10651 H 1004.26 5.66119 -2.1816 0
M  V30 10652 H 1003 4.67499 -1.38909 0
M  V30 10653 H 1002 4.13044 -3.6287 0
M  V30 10654 H 1003.23 5.15082 -4.42569 0
M  V30 10655 H 1001.17 6.10695 -2.39556 0
M  V30 10656 H 1001.09 6.34502 -4.11027 0
M  V30 10657 H 1002.36 7.10853 -3.19857 0
M  V30 10658 N 1006.59 1.25851 0.948643 0
M  V30 10659 C 1007.83 1.10954 1.69397 0
M  V30 10660 C 1008.16 -0.348443 1.91353 0
M  V30 10661 O 1007.42 -1.27285 1.48651 0
M  V30 10662 C 1007.72 1.81565 3.07846 0
M  V30 10663 C 1007.38 3.31477 3.0567 0
M  V30 10664 C 1006.04 3.72371 3.04784 0
M  V30 10665 C 1008.4 4.27225 2.98543 0
M  V30 10666 C 1005.72 5.07416 2.94527 0
M  V30 10667 C 1008.08 5.62301 2.89828 0
M  V30 10668 C 1006.74 6.02516 2.87281 0
M  V30 10669 H 1006.01 0.406011 0.619868 0
M  V30 10670 H 1008.66 1.562 1.10787 0
M  V30 10671 H 1006.96 1.28767 3.70035 0
M  V30 10672 H 1008.66 1.67486 3.64348 0
M  V30 10673 H 1005.25 2.98941 3.07135 0
M  V30 10674 H 1009.43 3.96618 2.98342 0
M  V30 10675 H 1004.69 5.37746 2.90928 0
M  V30 10676 H 1008.86 6.36182 2.83276 0
M  V30 10677 H 1006.49 7.07116 2.79089 0
M  V30 10678 N 1008.06 -1.15214 1.07534 0
M  V30 10679 C 1009.01 -2.22078 0.69168 0
M  V30 10680 C 1010.01 -1.66751 -0.298382 0
M  V30 10681 O 1011.21 -1.7927 -0.161897 0
M  V30 10682 H 1007.59 -0.723347 0.205604 0
M  V30 10683 H 1009.56 -2.51716 1.60256 0
M  V30 10684 C 1008.31 -3.47534 0.107546 0
M  V30 10685 H 1007.63 -3.90429 0.860522 0
M  V30 10686 H 1009.07 -4.23821 -0.123215 0
M  V30 10687 C 1007.53 -3.16583 -1.15226 0
M  V30 10688 O 1008.06 -3.33551 -2.23845 0
M  V30 10689 N 1006.27 -2.70611 -1.05915 0
M  V30 10690 H 1005.81 -2.57004 -0.175198 0
M  V30 10691 H 1005.77 -2.50277 -1.90287 0
M  V30 10692 N 1009.54 -0.859717 -1.32086 0
M  V30 10693 C 1010.79 -0.465581 -1.97075 0
M  V30 10694 C 1011.12 0.979917 -1.68012 0
M  V30 10695 O 1010.37 1.70337 -0.96353 0
M  V30 10696 C 1010.67 -0.657397 -3.51302 0
M  V30 10697 C 1010.34 -2.07413 -4.00363 0
M  V30 10698 C 1009 -2.4616 -4.13472 0
M  V30 10699 C 1011.35 -2.99855 -4.26305 0
M  V30 10700 C 1008.68 -3.76611 -4.49868 0
M  V30 10701 C 1011.03 -4.2981 -4.64161 0
M  V30 10702 C 1009.7 -4.68485 -4.75476 0
M  V30 10703 H 1008.97 -0.170368 -0.721149 0
M  V30 10704 H 1011.61 -1.09074 -1.57401 0
M  V30 10705 H 1009.92 0.0509638 -3.91767 0
M  V30 10706 H 1011.61 -0.332416 -3.9962 0
M  V30 10707 H 1008.2 -1.76327 -3.90649 0
M  V30 10708 H 1012.39 -2.7115 -4.15682 0
M  V30 10709 H 1007.64 -4.06352 -4.56824 0
M  V30 10710 H 1011.82 -5.015 -4.83188 0
M  V30 10711 H 1009.45 -5.69612 -5.03435 0
M  V30 10712 N 1011.02 1.44971 -0.618145 0
M  V30 10713 C 1012.3 1.95539 -0.0489895 0
M  V30 10714 C 1012.68 1.5604 1.42179 0
M  V30 10715 O 1012.03 0.82809 2.12967 0
M  V30 10716 C 1012.24 3.48044 -0.258193 0
M  V30 10717 C 1013.58 4.24354 -0.144541 0
M  V30 10718 O 1014.61 3.55699 -0.18887 0
M  V30 10719 O 1013.47 5.46486 -0.038519 0
M  V30 10720 H 1010.56 0.826466 0.0297256 0
M  V30 10721 H 1013.11 1.55086 -0.688944 0
M  V30 10722 H 1011.88 3.69798 -1.27926 0
M  V30 10723 H 1011.5 3.95412 0.416522 0
M  V30 10724 N 1012.5 0.357919 1.53482 0
M  V30 10725 C 1013.43 -0.526753 2.23065 0
M  V30 10726 C 1014.44 -1.05239 1.24212 0
M  V30 10727 O 1015.63 -0.960078 1.50482 0
M  V30 10728 C 1012.73 -1.73919 2.9087 0
M  V30 10729 C 1011.91 -1.34638 4.16163 0
M  V30 10730 C 1010.96 -2.42005 4.67247 0
M  V30 10731 O 1009.99 -2.04714 5.31113 0
M  V30 10732 N 1011.19 -3.73478 4.44404 0
M  V30 10733 H 1013.96 0.0692386 2.9962 0
M  V30 10734 H 1011.52 0.182726 1.60866 0
M  V30 10735 H 1013.51 -2.45207 3.21956 0
M  V30 10736 H 1012.08 -2.24223 2.17814 0
M  V30 10737 H 1011.3 -0.463667 3.91464 0
M  V30 10738 H 1012.59 -1.06012 4.97633 0
M  V30 10739 H 1011.99 -4.06555 3.93357 0
M  V30 10740 H 1010.54 -4.40893 4.80059 0
M  V30 10741 N 1013.98 -1.5736 0.0868897 0
M  V30 10742 C 1015.2 -1.98388 -0.587349 0
M  V30 10743 C 1015.62 -0.965757 -1.6223 0
M  V30 10744 O 1014.98 0.0456981 -1.82443 0
M  V30 10745 C 1015.03 -3.39479 -1.24242 0
M  V30 10746 O 1014.75 -4.37393 -0.248878 0
M  V30 10747 C 1016.25 -3.95465 -2.00305 0
M  V30 10748 H 1013.47 -0.652111 -0.15809 0
M  V30 10749 H 1016.01 -2.03843 0.163754 0
M  V30 10750 H 1014.17 -3.35063 -1.94451 0
M  V30 10751 H 1014.58 -5.19525 -0.720678 0
M  V30 10752 H 1016.06 -4.96363 -2.41511 0
M  V30 10753 H 1016.53 -3.32832 -2.86565 0
M  V30 10754 H 1017.14 -4.03328 -1.34931 0
M  V30 10755 N 1015.45 0.186762 -1.56489 0
M  V30 10756 C 1016.4 1.2357 -1.9161 0
M  V30 10757 C 1017.39 1.4058 -0.782686 0
M  V30 10758 O 1018.58 1.42811 -1.04566 0
M  V30 10759 C 1015.71 2.57865 -2.26628 0
M  V30 10760 C 1014.8 2.44613 -3.46447 0
M  V30 10761 N 1015.19 2.01052 -4.64125 0
M  V30 10762 C 1013.48 2.75483 -3.50749 0
M  V30 10763 C 1014.19 1.99891 -5.46277 0
M  V30 10764 N 1013.16 2.41711 -4.86905 0
M  V30 10765 H 1016.96 0.890359 -2.80089 0
M  V30 10766 H 1014.48 0.395144 -1.57519 0
M  V30 10767 H 1016.47 3.33642 -2.49977 0
M  V30 10768 H 1015.13 2.93215 -1.39481 0
M  V30 10769 H 1016.15 1.7163 -4.88634 0
M  V30 10770 H 1012.82 3.14974 -2.7404 0
M  V30 10771 H 1014.21 1.68042 -6.50547 0
M  V30 10772 N 1016.93 1.50896 0.454776 0
M  V30 10773 C 1018.16 1.6648 1.22849 0
M  V30 10774 C 1018.58 0.354841 1.85435 0
M  V30 10775 O 1017.93 -0.664931 1.69956 0
M  V30 10776 C 1017.98 2.76787 2.32532 0
M  V30 10777 O 1017.7 4.02706 1.72509 0
M  V30 10778 C 1019.21 3.03488 3.23125 0
M  V30 10779 H 1016.43 0.559152 0.370932 0
M  V30 10780 H 1018.97 1.97215 0.540983 0
M  V30 10781 H 1017.12 2.48701 2.9703 0
M  V30 10782 H 1017.54 4.63834 2.44863 0
M  V30 10783 H 1019.01 3.84294 3.9626 0
M  V30 10784 H 1019.49 2.152 3.82865 0
M  V30 10785 H 1020.1 3.33167 2.64347 0
M  V30 10786 N 1018.41 -0.709066 1.40748 0
M  V30 10787 C 1019.36 -1.82312 1.4153 0
M  V30 10788 C 1020.33 -1.63868 0.271392 0
M  V30 10789 O 1021.51 -1.8491 0.470431 0
M  V30 10790 C 1018.65 -3.2008 1.29006 0
M  V30 10791 C 1017.77 -3.50051 2.53156 0
M  V30 10792 C 1016.9 -4.7736 2.33025 0
M  V30 10793 C 1015.94 -5.00255 3.52719 0
M  V30 10794 N 1015.08 -6.18782 3.31743 0
M  V30 10795 H 1019.92 -1.80978 2.36751 0
M  V30 10796 H 1017.45 -0.883975 1.17577 0
M  V30 10797 H 1019.41 -3.99645 1.19749 0
M  V30 10798 H 1018.04 -3.20626 0.374014 0
M  V30 10799 H 1017.09 -2.64993 2.72916 0
M  V30 10800 H 1018.41 -3.62877 3.42231 0
M  V30 10801 H 1017.56 -5.64954 2.21159 0
M  V30 10802 H 1016.3 -4.66756 1.41386 0
M  V30 10803 H 1015.3 -4.11114 3.65055 0
M  V30 10804 H 1016.53 -5.12728 4.45295 0
M  V30 10805 H 1014.47 -6.09416 2.42791 0
M  V30 10806 H 1014.39 -6.32313 4.14386 0
M  V30 10807 H 1015.66 -7.09146 3.23623 0
M  V30 10808 N 1019.89 -1.26353 -0.941956 0
M  V30 10809 C 1021.31 -1.03448 -1.21534 0
M  V30 10810 C 1021.51 0.240855 -2.00055 0
M  V30 10811 O 1020.56 0.950199 -2.33939 0
M  V30 10812 C 1021.87 -2.2654 -1.97737 0
M  V30 10813 C 1023.42 -2.31433 -2.10731 0
M  V30 10814 C 1023.9 -3.54216 -2.90336 0
M  V30 10815 N 1025.39 -3.54688 -2.9791 0
M  V30 10816 C 1026.12 -4.4636 -3.59931 0
M  V30 10817 N 1025.62 -5.48319 -4.2346 0
M  V30 10818 N 1027.41 -4.34013 -3.57196 0
M  V30 10819 H 1019.56 -2.08266 -0.417005 0
M  V30 10820 H 1021.83 -0.915251 -0.247021 0
M  V30 10821 H 1021.53 -3.19299 -1.47449 0
M  V30 10822 H 1021.41 -2.30726 -2.98405 0
M  V30 10823 H 1023.79 -1.3919 -2.60212 0
M  V30 10824 H 1023.87 -2.31259 -1.09329 0
M  V30 10825 H 1023.52 -4.46788 -2.41543 0
M  V30 10826 H 1023.45 -3.51637 -3.91993 0
M  V30 10827 H 1025.94 -2.80942 -2.52745 0
M  V30 10828 H 1026.25 -6.14458 -4.6868 0
M  V30 10829 H 1024.6 -5.52177 -4.22049 0
M  V30 10830 H 1027.79 -3.53578 -3.06758 0
M  V30 10831 H 1027.96 -5.0565 -4.05244 0
M  V30 10832 N 1021.37 1.14642 -1.08144 0
M  V30 10833 C 1022.59 1.90025 -0.830972 0
M  V30 10834 C 1023.02 1.77904 0.610879 0
M  V30 10835 O 1022.38 1.11735 1.42776 0
M  V30 10836 C 1022.42 3.38085 -1.25422 0
M  V30 10837 O 1021.53 4.10412 -0.404486 0
M  V30 10838 H 1020.87 0.591327 -0.302041 0
M  V30 10839 H 1023.4 1.4513 -1.44216 0
M  V30 10840 H 1023.41 3.88894 -1.23391 0
M  V30 10841 H 1022.08 3.46226 -2.30435 0
M  V30 10842 H 1020.66 3.69693 -0.487987 0
M  V30 10843 N 1022.85 0.866709 1.31628 0
M  V30 10844 C 1024.07 0.49039 2.01004 0
M  V30 10845 C 1024.49 -0.916244 1.65077 0
M  V30 10846 O 1023.85 -1.59975 0.8783 0
M  V30 10847 C 1023.9 0.634011 3.55897 0
M  V30 10848 O 1023.62 1.98525 3.90537 0
M  V30 10849 C 1025.12 0.258277 4.42547 0
M  V30 10850 H 1022.34 0.191421 0.643117 0
M  V30 10851 H 1024.88 1.16698 1.67934 0
M  V30 10852 H 1023.04 0.00501801 3.874 0
M  V30 10853 H 1023.45 1.99067 4.85255 0
M  V30 10854 H 1024.93 0.409733 5.50477 0
M  V30 10855 H 1025.4 -0.802301 4.3181 0
M  V30 10856 H 1026.01 0.862837 4.16456 0
M  V30 10857 N 1024.32 -1.44642 0.625825 0
M  V30 10858 C 1025.57 -2.02094 0.128201 0
M  V30 10859 C 1025.9 -1.49181 -1.24801 0
M  V30 10860 O 1025.15 -0.663965 -1.84092 0
M  V30 10861 C 1025.45 -3.57352 0.0584381 0
M  V30 10862 C 1025.12 -4.29496 1.37272 0
M  V30 10863 C 1023.78 -4.48922 1.7327 0
M  V30 10864 C 1026.13 -4.70586 2.2405 0
M  V30 10865 C 1023.46 -5.06697 2.95762 0
M  V30 10866 C 1025.81 -5.29717 3.45807 0
M  V30 10867 C 1024.48 -5.47363 3.82034 0
M  V30 10868 H 1023.75 -0.739514 0.0469122 0
M  V30 10869 H 1026.39 -1.73475 0.811083 0
M  V30 10870 H 1024.7 -3.85354 -0.707791 0
M  V30 10871 H 1026.4 -3.9953 -0.34303 0
M  V30 10872 H 1022.99 -4.14702 1.08258 0
M  V30 10873 H 1027.17 -4.55295 1.97535 0
M  V30 10874 H 1022.43 -5.18546 3.23913 0
M  V30 10875 H 1026.6 -5.60507 4.13286 0
M  V30 10876 H 1024.23 -5.91898 4.77033 0
M  V30 10877 N 1025.8 -0.366053 -1.5329 0
M  V30 10878 C 1027.08 0.279902 -1.93587 0
M  V30 10879 C 1027.46 1.66352 -1.29963 0
M  V30 10880 O 1026.81 2.23845 -0.458895 0
M  V30 10881 C 1027.02 0.329634 -3.4744 0
M  V30 10882 C 1028.36 0.569754 -4.2076 0
M  V30 10883 O 1029.39 0.410823 -3.53823 0
M  V30 10884 O 1028.25 0.879262 -5.3938 0
M  V30 10885 H 1025.34 0.16802 -0.809752 0
M  V30 10886 H 1027.89 -0.418871 -1.64449 0
M  V30 10887 H 1026.66 -0.640434 -3.86023 0
M  V30 10888 H 1026.28 1.07428 -3.82812 0
M  V30 10889 N 1027.28 1.57312 -0.0952337 0
M  V30 10890 C 1028.51 1.98697 0.57682 0
M  V30 10891 C 1028.92 0.974347 1.61716 0
M  V30 10892 O 1028.28 -0.036022 1.82464 0
M  V30 10893 C 1028.33 3.40133 1.2244 0
M  V30 10894 O 1028.05 4.37518 0.225678 0
M  V30 10895 C 1029.55 3.96522 1.98205 0
M  V30 10896 H 1026.77 0.65294 0.154629 0
M  V30 10897 H 1029.32 2.03754 -0.174562 0
M  V30 10898 H 1027.47 3.3609 1.92671 0
M  V30 10899 H 1027.89 5.199 0.693116 0
M  V30 10900 H 1029.36 4.97637 2.38875 0
M  V30 10901 H 1029.84 3.34347 2.84796 0
M  V30 10902 H 1030.44 4.04038 1.3279 0
M  V30 10903 N 1028.76 -0.17846 1.56586 0
M  V30 10904 C 1030 -0.896235 1.81587 0
M  V30 10905 C 1030.33 -1.82553 0.671168 0
M  V30 10906 O 1029.59 -1.92688 -0.342046 0
M  V30 10907 C 1029.89 -1.73063 3.12704 0
M  V30 10908 C 1029.55 -0.950877 4.4076 0
M  V30 10909 C 1028.21 -0.735647 4.75544 0
M  V30 10910 C 1030.57 -0.403419 5.19636 0
M  V30 10911 C 1027.89 0.0382562 5.86688 0
M  V30 10912 C 1030.25 0.357359 6.3159 0
M  V30 10913 C 1028.91 0.583455 6.64945 0
M  V30 10914 H 1028.18 -0.327956 0.664474 0
M  V30 10915 H 1030.83 -0.161586 1.90817 0
M  V30 10916 H 1029.13 -2.53446 2.98785 0
M  V30 10917 H 1030.83 -2.28891 3.29257 0
M  V30 10918 H 1027.42 -1.12866 4.13472 0
M  V30 10919 H 1031.6 -0.557059 4.93164 0
M  V30 10920 H 1026.86 0.223237 6.10992 0
M  V30 10921 H 1031.03 0.788861 6.91918 0
M  V30 10922 H 1028.66 1.18502 7.50907 0
M  V30 10923 N 1030.24 -1.51135 -0.446768 0
M  V30 10924 C 1031.65 -1.55919 -1.02694 0
M  V30 10925 C 1032 -0.377038 -1.92543 0
M  V30 10926 O 1031.12 0.507295 -2.1037 0
M  V30 10927 C 1031.72 -2.8257 -1.86922 0
M  V30 10928 C 1030.28 -2.89956 -2.40005 0
M  V30 10929 C 1029.42 -2.50482 -1.18971 0
M  V30 10930 H 1032.37 -1.57048 -0.228403 0
M  V30 10931 H 1032.4 -2.65799 -2.7227 0
M  V30 10932 H 1031.91 -3.6859 -1.21502 0
M  V30 10933 H 1030.01 -2.08343 -3.08907 0
M  V30 10934 H 1030.12 -3.93399 -2.73448 0
M  V30 10935 H 1028.49 -2.03466 -1.53211 0
M  V30 10936 H 1029.27 -3.38837 -0.551762 0
M  V30 10937 N 1031.71 0.701592 -1.41122 0
M  V30 10938 C 1032.65 1.8268 -1.38422 0
M  V30 10939 C 1033.66 1.60244 -0.287342 0
M  V30 10940 O 1034.85 1.69859 -0.548658 0
M  V30 10941 C 1031.95 3.19338 -1.13475 0
M  V30 10942 C 1031.12 3.68853 -2.35088 0
M  V30 10943 C 1030.18 4.84163 -2.06089 0
M  V30 10944 O 1029.21 4.9609 -2.79077 0
M  V30 10945 N 1030.41 5.70972 -1.04743 0
M  V30 10946 H 1033.17 1.8549 -2.35401 0
M  V30 10947 H 1030.73 0.883682 -1.35656 0
M  V30 10948 H 1032.73 3.94095 -0.920377 0
M  V30 10949 H 1031.3 3.11589 -0.251152 0
M  V30 10950 H 1030.52 2.8507 -2.72266 0
M  V30 10951 H 1031.8 3.98673 -3.16129 0
M  V30 10952 H 1031.2 5.63961 -0.443221 0
M  V30 10953 H 1029.76 6.45654 -0.892949 0
M  V30 10954 N 1033.19 1.2685 0.935242 0
M  V30 10955 C 1034.15 1.08975 2.01636 0
M  V30 10956 C 1035.15 0.0361543 1.60759 0
M  V30 10957 O 1036.34 0.280087 1.71934 0
M  V30 10958 C 1033.48 0.658831 3.34473 0
M  V30 10959 H 1034.67 2.04968 2.18925 0
M  V30 10960 H 1032.22 1.09531 1.11501 0
M  V30 10961 H 1032.96 -0.302824 3.22883 0
M  V30 10962 H 1032.74 1.41967 3.65497 0
M  V30 10963 H 1034.23 0.555783 4.13885 0
M  V30 10964 N 1034.67 -1.14067 1.0875 0
M  V30 10965 C 1035.6 -2.21385 0.74236 0
M  V30 10966 C 1036.58 -1.67833 -0.276805 0
M  V30 10967 O 1037.77 -1.93647 -0.1464 0
M  V30 10968 C 1034.9 -3.46956 0.154644 0
M  V30 10969 C 1033.85 -4.13555 1.10255 0
M  V30 10970 C 1033.18 -5.3337 0.376877 0
M  V30 10971 C 1034.48 -4.6169 2.44213 0
M  V30 10972 H 1036.17 -2.50512 1.63964 0
M  V30 10973 H 1033.72 -1.20408 0.789807 0
M  V30 10974 H 1035.67 -4.21284 -0.0988419 0
M  V30 10975 H 1034.39 -3.17203 -0.777789 0
M  V30 10976 H 1033.05 -3.41186 1.34119 0
M  V30 10977 H 1032.7 -4.99879 -0.559472 0
M  V30 10978 H 1032.4 -5.78875 1.00884 0
M  V30 10979 H 1033.92 -6.10458 0.131527 0
M  V30 10980 H 1035.34 -5.27475 2.24595 0
M  V30 10981 H 1033.74 -5.17909 3.03134 0
M  V30 10982 H 1034.81 -3.76574 3.05483 0
M  V30 10983 N 1036.15 -0.873678 -1.31166 0
M  V30 10984 C 1037.08 -0.348011 -2.30892 0
M  V30 10985 C 1038.06 0.563092 -1.60509 0
M  V30 10986 O 1039.24 0.479332 -1.88192 0
M  V30 10987 C 1036.37 0.448158 -3.44396 0
M  V30 10988 C 1035.33 -0.370179 -4.26396 0
M  V30 10989 C 1034.65 0.551903 -5.31844 0
M  V30 10990 C 1035.95 -1.60624 -4.96988 0
M  V30 10991 H 1037.65 -1.18134 -2.75109 0
M  V30 10992 H 1035.19 -0.569502 -1.3226 0
M  V30 10993 H 1037.15 0.826458 -4.13216 0
M  V30 10994 H 1035.87 1.31503 -2.98956 0
M  V30 10995 H 1034.53 -0.730472 -3.59249 0
M  V30 10996 H 1034.18 1.41616 -4.82653 0
M  V30 10997 H 1033.88 0.00823478 -5.87599 0
M  V30 10998 H 1035.4 0.926965 -6.03523 0
M  V30 10999 H 1036.82 -1.29917 -5.58386 0
M  V30 11000 H 1035.21 -2.08926 -5.62557 0
M  V30 11001 H 1036.28 -2.357 -4.23761 0
M  V30 11002 N 1037.63 1.44308 -0.633487 0
M  V30 11003 C 1038.85 2.06384 -0.146063 0
M  V30 11004 C 1039.27 1.47357 1.18031 0
M  V30 11005 O 1038.63 0.597334 1.72448 0
M  V30 11006 C 1038.68 3.61489 -0.0276722 0
M  V30 11007 O 1038.4 4.18318 -1.3016 0
M  V30 11008 C 1039.9 4.40604 0.488168 0
M  V30 11009 H 1037.12 0.666122 -0.0807632 0
M  V30 11010 H 1039.66 1.85139 -0.868557 0
M  V30 11011 H 1037.82 3.81988 0.645273 0
M  V30 11012 H 1038.23 5.11783 -1.14797 0
M  V30 11013 H 1039.71 5.49545 0.520013 0
M  V30 11014 H 1040.18 4.12218 1.51568 0
M  V30 11015 H 1040.79 4.2503 -0.151608 0
M  V30 11016 N 1039.1 0.374177 1.53094 0
M  V30 11017 C 1040.35 -0.213131 2.01677 0
M  V30 11018 C 1040.68 -1.47715 1.26071 0
M  V30 11019 O 1039.96 -1.91199 0.356834 0
M  V30 11020 C 1040.24 -0.496392 3.56662 0
M  V30 11021 C 1040.09 0.781859 4.42953 0
M  V30 11022 C 1041.41 -1.29339 4.20666 0
M  V30 11023 H 1038.53 -0.0759885 0.733072 0
M  V30 11024 H 1041.17 0.500765 1.83282 0
M  V30 11025 H 1039.32 -1.10455 3.72467 0
M  V30 11026 H 1041 1.41914 4.38928 0
M  V30 11027 H 1039.24 1.40041 4.10574 0
M  V30 11028 H 1039.91 0.538508 5.49367 0
M  V30 11029 H 1042.39 -0.778848 4.08746 0
M  V30 11030 H 1041.26 -1.46033 5.29118 0
M  V30 11031 H 1041.52 -2.30435 3.77296 0
M  V30 11032 N 1040.58 -1.57259 0.103575 0
M  V30 11033 C 1041.83 -1.94657 -0.558126 0
M  V30 11034 C 1042.16 -0.985886 -1.67662 0
M  V30 11035 O 1041.41 -0.0069745 -1.95699 0
M  V30 11036 C 1041.71 -3.38549 -1.14538 0
M  V30 11037 C 1041.38 -4.50651 -0.149818 0
M  V30 11038 C 1040.04 -4.8104 0.12398 0
M  V30 11039 C 1042.39 -5.18503 0.529497 0
M  V30 11040 C 1039.72 -5.76606 1.08364 0
M  V30 11041 C 1042.07 -6.15099 1.47769 0
M  V30 11042 C 1040.74 -6.43889 1.75963 0
M  V30 11043 H 1040.01 -0.712299 -0.204233 0
M  V30 11044 H 1042.65 -1.90641 0.181208 0
M  V30 11045 H 1040.96 -3.39185 -1.96115 0
M  V30 11046 H 1042.65 -3.6479 -1.66521 0
M  V30 11047 H 1039.24 -4.2697 -0.373404 0
M  V30 11048 H 1043.43 -4.95194 0.331121 0
M  V30 11049 H 1038.68 -5.97223 1.30899 0
M  V30 11050 H 1042.86 -6.66767 2.00983 0
M  V30 11051 H 1040.49 -7.17749 2.50481 0
M  V30 11052 N 1042.06 0.170153 -1.56679 0
M  V30 11053 C 1042.99 1.23525 -1.93066 0
M  V30 11054 C 1044.01 1.40414 -0.823879 0
M  V30 11055 O 1045.19 1.40396 -1.10232 0
M  V30 11056 C 1042.29 2.60376 -2.16928 0
M  V30 11057 C 1041.47 2.6477 -3.4816 0
M  V30 11058 C 1040.53 3.82993 -3.60837 0
M  V30 11059 O 1039.55 3.68937 -4.33444 0
M  V30 11060 N 1040.75 4.99498 -2.95773 0
M  V30 11061 H 1043.52 0.926172 -2.8503 0
M  V30 11062 H 1041.08 0.359909 -1.57849 0
M  V30 11063 H 1043.07 3.37934 -2.22672 0
M  V30 11064 H 1041.64 2.83669 -1.31342 0
M  V30 11065 H 1040.86 1.73298 -3.54064 0
M  V30 11066 H 1042.15 2.64717 -4.34514 0
M  V30 11067 H 1041.55 5.13819 -2.36657 0
M  V30 11068 H 1040.11 5.74914 -3.07111 0
M  V30 11069 N 1043.54 1.5137 0.438746 0
M  V30 11070 C 1044.79 1.63202 1.18524 0
M  V30 11071 C 1045.1 0.353408 1.92381 0
M  V30 11072 O 1046.31 0.351086 2.6922 0
M  V30 11073 C 1044.76 2.88218 2.15542 0
M  V30 11074 C 1044.37 4.23078 1.47339 0
M  V30 11075 C 1046.11 3.09407 2.90633 0
M  V30 11076 C 1044.02 5.39246 2.42833 0
M  V30 11077 H 1042.95 0.607864 0.446114 0
M  V30 11078 H 1045.6 1.77835 0.452421 0
M  V30 11079 H 1043.98 2.67216 2.92253 0
M  V30 11080 H 1045.16 4.54457 0.761964 0
M  V30 11081 H 1043.47 4.07755 0.844065 0
M  V30 11082 H 1046.07 3.9337 3.62165 0
M  V30 11083 H 1046.41 2.22428 3.51897 0
M  V30 11084 H 1046.95 3.30743 2.21029 0
M  V30 11085 H 1043.69 6.2848 1.8626 0
M  V30 11086 H 1043.21 5.12245 3.12034 0
M  V30 11087 H 1044.88 5.71137 3.03992 0
M  V30 11088 N 1045.02 -0.694098 1.41492 0
M  V30 11089 C 1045.95 -1.82042 1.46229 0
M  V30 11090 C 1046.93 -1.67047 0.320803 0
M  V30 11091 O 1048.11 -1.86758 0.53245 0
M  V30 11092 C 1045.24 -3.2019 1.34519 0
M  V30 11093 C 1044.2 -3.49892 2.46495 0
M  V30 11094 C 1043.52 -4.87411 2.1985 0
M  V30 11095 C 1044.82 -3.4872 3.88834 0
M  V30 11096 H 1046.52 -1.78335 2.40493 0
M  V30 11097 H 1044.06 -0.856566 1.15754 0
M  V30 11098 H 1046.02 -3.98699 1.36445 0
M  V30 11099 H 1044.74 -3.24527 0.367406 0
M  V30 11100 H 1043.4 -2.73734 2.43854 0
M  V30 11101 H 1043.05 -4.88375 1.20411 0
M  V30 11102 H 1042.75 -5.08248 2.94885 0
M  V30 11103 H 1044.27 -5.68228 2.23494 0
M  V30 11104 H 1045.68 -4.1723 3.93182 0
M  V30 11105 H 1044.08 -3.81089 4.63564 0
M  V30 11106 H 1045.15 -2.47665 4.16881 0
M  V30 11107 N 1046.49 -1.27344 -0.928501 0
M  V30 11108 C 1047.72 -1.16447 -1.7102 0
M  V30 11109 C 1048.14 0.278799 -1.8673 0
M  V30 11110 O 1047.49 1.18989 -1.38376 0
M  V30 11111 C 1047.55 -1.84242 -3.11026 0
M  V30 11112 O 1047.27 -3.2293 -2.96054 0
M  V30 11113 C 1048.77 -1.7946 -4.05351 0
M  V30 11114 H 1045.99 -0.404898 -0.535069 0
M  V30 11115 H 1048.53 -1.68201 -1.16313 0
M  V30 11116 H 1046.69 -1.36395 -3.62595 0
M  V30 11117 H 1047.1 -3.5667 -3.8456 0
M  V30 11118 H 1048.57 -2.31511 -5.01105 0
M  V30 11119 H 1049.05 -0.763771 -4.32508 0
M  V30 11120 H 1049.66 -2.26918 -3.59706 0
M  V30 11121 N 1047.97 1.13488 -1.09353 0
M  V30 11122 C 1049.22 1.84383 -0.827488 0
M  V30 11123 C 1049.54 1.83892 0.648745 0
M  V30 11124 O 1048.81 1.29415 1.47066 0
M  V30 11125 H 1047.39 0.682732 -0.303127 0
M  V30 11126 H 1050.05 1.37477 -1.38152 0
M  V30 11127 H 1049.15 2.88919 -1.18035 0
M  V30 11128 N 1049.45 0.880621 1.30701 0
M  V30 11129 C 1050.36 0.348034 2.32004 0
M  V30 11130 C 1051.38 -0.547508 1.65162 0
M  V30 11131 O 1052.55 -0.441673 1.96497 0
M  V30 11132 C 1049.62 -0.432585 3.43991 0
M  V30 11133 C 1048.68 0.492189 4.26469 0
M  V30 11134 C 1047.91 -0.25127 5.33108 0
M  V30 11135 O 1048.14 -1.47795 5.5092 0
M  V30 11136 O 1047.07 0.396376 6.00593 0
M  V30 11137 H 1050.9 1.18798 2.79501 0
M  V30 11138 H 1048.48 0.64432 1.34792 0
M  V30 11139 H 1050.36 -0.874733 4.12221 0
M  V30 11140 H 1049.04 -1.2489 2.98637 0
M  V30 11141 H 1047.94 0.983058 3.60953 0
M  V30 11142 H 1049.28 1.27439 4.75416 0
M  V30 11143 N 1050.93 -1.4397 0.641131 0
M  V30 11144 C 1052.21 -1.95436 0.0800918 0
M  V30 11145 C 1052.59 -1.58282 -1.39678 0
M  V30 11146 O 1051.93 -0.861867 -2.11623 0
M  V30 11147 C 1052.14 -3.47589 0.313531 0
M  V30 11148 C 1053.49 -4.2407 0.212034 0
M  V30 11149 O 1054.52 -3.55353 0.245434 0
M  V30 11150 O 1053.38 -5.46356 0.125455 0
M  V30 11151 H 1050.47 -0.826834 -0.0165735 0
M  V30 11152 H 1053.02 -1.5397 0.71353 0
M  V30 11153 H 1051.79 -3.67716 1.33793 0
M  V30 11154 H 1051.41 -3.96025 -0.353563 0
M  V30 11155 N 1052.41 -0.382291 -1.52893 0
M  V30 11156 C 1053.65 0.194935 -2.02464 0
M  V30 11157 C 1054.01 1.45051 -1.26404 0
M  V30 11158 O 1053.3 1.88302 -0.353968 0
M  V30 11159 C 1053.5 0.523437 -3.53546 0
M  V30 11160 C 1053.32 -0.698754 -4.44238 0
M  V30 11161 C 1052.09 -1.2159 -4.90453 0
M  V30 11162 C 1054.29 -1.56899 -4.89783 0
M  V30 11163 N 1052.27 -2.39637 -5.65197 0
M  V30 11164 C 1053.65 -2.59595 -5.63037 0
M  V30 11165 C 1055.7 -1.58991 -4.71833 0
M  V30 11166 C 1054.4 -3.6426 -6.20248 0
M  V30 11167 C 1056.43 -2.62559 -5.29922 0
M  V30 11168 C 1055.79 -3.63977 -6.03076 0
M  V30 11169 H 1051.89 0.0336043 -0.781278 0
M  V30 11170 H 1054.47 -0.530603 -1.8733 0
M  V30 11171 H 1052.65 1.21804 -3.68807 0
M  V30 11172 H 1054.38 1.0872 -3.89823 0
M  V30 11173 H 1051.13 -0.777967 -4.67167 0
M  V30 11174 H 1051.56 -2.99348 -6.07223 0
M  V30 11175 H 1056.2 -0.819305 -4.14786 0
M  V30 11176 H 1053.92 -4.42192 -6.76382 0
M  V30 11177 H 1057.5 -2.65052 -5.17918 0
M  V30 11178 H 1056.38 -4.42802 -6.47222 0
M  V30 11179 N 1053.89 1.57202 -0.111913 0
M  V30 11180 C 1054.83 2.16186 0.858286 0
M  V30 11181 C 1055.83 1.10917 1.28039 0
M  V30 11182 O 1057.03 1.29233 1.25295 0
M  V30 11183 H 1053.41 0.691777 0.29487 0
M  V30 11184 H 1055.38 2.96499 0.336265 0
M  V30 11185 C 1054.13 2.77024 2.10127 0
M  V30 11186 H 1053.45 3.5772 1.78539 0
M  V30 11187 H 1054.89 3.21841 2.76033 0
M  V30 11188 C 1053.35 1.73752 2.88638 0
M  V30 11189 O 1053.88 1.18659 3.83774 0
M  V30 11190 N 1052.09 1.43855 2.52496 0
M  V30 11191 H 1051.63 1.88846 1.75199 0
M  V30 11192 H 1051.59 0.749985 3.05324 0
M  V30 11193 N 1055.36 -0.161842 1.56767 0
M  V30 11194 C 1056.61 -0.878224 1.82798 0
M  V30 11195 C 1056.94 -1.81481 0.691242 0
M  V30 11196 O 1056.22 -1.92075 -0.30618 0
M  V30 11197 C 1056.5 -1.66565 3.19262 0
M  V30 11198 C 1056.35 -0.751551 4.43477 0
M  V30 11199 C 1057.67 -2.63134 3.52773 0
M  V30 11200 H 1054.79 -0.317828 0.664947 0
M  V30 11201 H 1057.43 -0.14402 1.89453 0
M  V30 11202 H 1055.58 -2.29157 3.13719 0
M  V30 11203 H 1057.26 -0.137783 4.61094 0
M  V30 11204 H 1055.5 -0.0601785 4.33758 0
M  V30 11205 H 1056.17 -1.33823 5.35533 0
M  V30 11206 H 1058.65 -2.10666 3.5883 0
M  V30 11207 H 1057.52 -3.15289 4.49315 0
M  V30 11208 H 1057.78 -3.43786 2.77963 0
M  V30 11209 N 1056.84 -1.516 -0.430713 0
M  V30 11210 C 1058.09 -1.6484 -1.18134 0
M  V30 11211 C 1058.42 -0.366725 -1.90706 0
M  V30 11212 O 1057.7 0.63398 -1.83878 0
M  V30 11213 C 1057.98 -2.85617 -2.19306 0
M  V30 11214 C 1057.83 -4.23778 -1.50773 0
M  V30 11215 C 1059.15 -3.01909 -3.20217 0
M  V30 11216 H 1056.27 -0.599907 -0.428113 0
M  V30 11217 H 1058.91 -1.84102 -0.46973 0
M  V30 11218 H 1057.06 -2.69325 -2.79993 0
M  V30 11219 H 1058.73 -4.51752 -0.93371 0
M  V30 11220 H 1056.98 -4.26171 -0.809966 0
M  V30 11221 H 1057.65 -5.04291 -2.24487 0
M  V30 11222 H 1060.12 -3.16956 -2.69589 0
M  V30 11223 H 1059 -3.87968 -3.88293 0
M  V30 11224 H 1059.26 -2.1427 -3.86705 0
M  V30 11225 N 1058.32 0.686584 -1.41858 0
M  V30 11226 C 1059.25 1.81107 -1.38836 0
M  V30 11227 C 1060.23 1.60599 -0.254293 0
M  V30 11228 O 1061.41 1.83229 -0.442641 0
M  V30 11229 C 1058.54 3.17928 -1.16787 0
M  V30 11230 C 1057.59 3.5721 -2.33031 0
M  V30 11231 S 1058.42 3.60986 -3.95536 0
M  V30 11232 C 1059.58 5.00519 -3.75808 0
M  V30 11233 H 1059.81 1.83396 -2.33994 0
M  V30 11234 H 1057.34 0.856146 -1.28489 0
M  V30 11235 H 1059.3 3.9691 -1.04752 0
M  V30 11236 H 1057.96 3.1324 -0.232335 0
M  V30 11237 H 1057.15 4.56629 -2.13321 0
M  V30 11238 H 1056.76 2.8556 -2.41519 0
M  V30 11239 H 1059.05 5.88272 -3.36069 0
M  V30 11240 H 1059.99 5.25273 -4.74862 0
M  V30 11241 H 1060.4 4.72481 -3.08904 0
M  V30 11242 N 1059.8 1.27835 0.921735 0
M  V30 11243 C 1061.03 1.17182 1.70153 0
M  V30 11244 C 1061.44 -0.273207 1.87217 0
M  V30 11245 O 1060.78 -1.19729 1.39322 0
M  V30 11246 C 1060.84 1.78969 3.11786 0
M  V30 11247 C 1060.5 3.28179 3.18037 0
M  V30 11248 C 1061.5 4.24729 2.99835 0
M  V30 11249 C 1059.19 3.68995 3.40805 0
M  V30 11250 C 1061.18 5.60071 3.04301 0
M  V30 11251 C 1058.87 5.04465 3.44904 0
M  V30 11252 C 1059.87 5.99813 3.2667 0
M  V30 11253 O 1059.55 7.32813 3.30515 0
M  V30 11254 H 1059.29 0.408079 0.538932 0
M  V30 11255 H 1061.84 1.69326 1.16266 0
M  V30 11256 H 1060.07 1.2131 3.6718 0
M  V30 11257 H 1061.76 1.62946 3.71757 0
M  V30 11258 H 1062.52 3.94533 2.8208 0
M  V30 11259 H 1058.4 2.9525 3.54045 0
M  V30 11260 H 1061.95 6.34471 2.89987 0
M  V30 11261 H 1057.84 5.34315 3.62185 0
M  V30 11262 H 1058.61 7.41338 3.4693 0
M  V30 11263 N 1061.28 -1.12907 1.09954 0
M  V30 11264 C 1062.55 -1.80602 0.751148 0
M  V30 11265 C 1062.93 -1.96826 -0.763077 0
M  V30 11266 O 1062.28 -1.54066 -1.68749 0
M  V30 11267 C 1062.49 -3.15289 1.49646 0
M  V30 11268 C 1063.84 -3.9056 1.66578 0
M  V30 11269 O 1064.86 -3.24929 1.45943 0
M  V30 11270 O 1063.72 -5.08292 2.00752 0
M  V30 11271 H 1060.82 -0.781529 0.270446 0
M  V30 11272 H 1063.36 -1.19786 1.20206 0
M  V30 11273 H 1062.13 -2.9874 2.52725 0
M  V30 11274 H 1061.76 -3.83809 1.03808 0
M  V30 11275 N 1062.75 -0.88754 -1.30232 0
M  V30 11276 C 1064 -0.506277 -1.95656 0
M  V30 11277 C 1064.32 0.948191 -1.70395 0
M  V30 11278 O 1063.59 1.66701 -1.02895 0
M  V30 11279 H 1062.17 -0.184235 -0.723924 0
M  V30 11280 H 1064.83 -1.13118 -1.58715 0
M  V30 11281 H 1063.93 -0.678673 -3.04632 0
M  V30 11282 N 1064.23 1.43628 -0.648757 0
M  V30 11283 C 1065.48 2.01083 -0.157692 0
M  V30 11284 C 1065.79 1.51756 1.23408 0
M  V30 11285 O 1067 2.01455 1.82012 0
M  V30 11286 C 1065.46 3.59157 -0.231118 0
M  V30 11287 C 1065.06 4.17478 -1.6253 0
M  V30 11288 C 1066.81 4.24016 0.202573 0
M  V30 11289 C 1064.72 5.67832 -1.6529 0
M  V30 11290 H 1063.65 0.751977 -0.0551897 0
M  V30 11291 H 1066.3 1.64648 -0.810139 0
M  V30 11292 H 1064.68 3.92972 0.488755 0
M  V30 11293 H 1065.85 3.9517 -2.37017 0
M  V30 11294 H 1064.17 3.64973 -2.00459 0
M  V30 11295 H 1066.76 5.34319 0.20174 0
M  V30 11296 H 1067.11 3.97616 1.23319 0
M  V30 11297 H 1067.64 3.95068 -0.465398 0
M  V30 11298 H 1064.38 5.98994 -2.66246 0
M  V30 11299 H 1063.9 5.92209 -0.951217 0
M  V30 11300 H 1065.58 6.3179 -1.39465 0
M  V30 11301 N 1065.71 0.390394 1.52688 0
M  V30 11302 C 1066.64 -0.48838 2.22913 0
M  V30 11303 C 1067.62 -1.06319 1.23025 0
M  V30 11304 O 1068.81 -1.11462 1.52015 0
M  V30 11305 C 1065.93 -1.67612 2.9432 0
M  V30 11306 C 1064.98 -1.22646 4.08485 0
M  V30 11307 S 1065.81 -0.207092 5.35099 0
M  V30 11308 C 1066.97 -1.40058 6.10028 0
M  V30 11309 H 1067.2 0.107949 2.97104 0
M  V30 11310 H 1064.73 0.174588 1.5341 0
M  V30 11311 H 1066.69 -2.35728 3.36069 0
M  V30 11312 H 1065.35 -2.24375 2.19806 0
M  V30 11313 H 1064.55 -2.11331 4.57554 0
M  V30 11314 H 1064.15 -0.624197 3.68754 0
M  V30 11315 H 1066.44 -2.32747 6.36266 0
M  V30 11316 H 1067.38 -0.950804 7.01687 0
M  V30 11317 H 1067.79 -1.61789 5.40818 0
M  V30 11318 N 1067.19 -1.57141 0.120249 0
M  V30 11319 C 1068.15 -2.14213 -0.815185 0
M  V30 11320 C 1069.15 -1.07731 -1.19376 0
M  V30 11321 O 1070.34 -1.33502 -1.11906 0
M  V30 11322 C 1067.47 -2.68339 -2.10255 0
M  V30 11323 H 1068.67 -2.98197 -0.319166 0
M  V30 11324 H 1066.22 -1.55767 -0.128997 0
M  V30 11325 H 1066.95 -1.87946 -2.64285 0
M  V30 11326 H 1066.74 -3.46216 -1.84057 0
M  V30 11327 H 1068.23 -3.124 -2.77121 0
M  V30 11328 N 1068.67 0.153526 -1.5685 0
M  V30 11329 C 1069.9 0.881055 -1.86872 0
M  V30 11330 C 1070.3 1.75547 -0.705692 0
M  V30 11331 O 1069.65 1.8064 0.333888 0
M  V30 11332 C 1069.71 1.79429 -3.11521 0
M  V30 11333 C 1069.37 1.0977 -4.43621 0
M  V30 11334 C 1070.37 0.454693 -5.17908 0
M  V30 11335 C 1068.06 1.08915 -4.9035 0
M  V30 11336 C 1070.05 -0.187562 -6.37124 0
M  V30 11337 C 1067.74 0.443084 -6.09492 0
M  V30 11338 C 1068.73 -0.194154 -6.82724 0
M  V30 11339 O 1068.42 -0.829995 -7.99604 0
M  V30 11340 H 1068.15 0.260486 -0.623797 0
M  V30 11341 H 1070.71 0.153024 -2.04829 0
M  V30 11342 H 1068.94 2.5631 -2.89555 0
M  V30 11343 H 1070.63 2.39321 -3.27842 0
M  V30 11344 H 1071.39 0.453151 -4.82878 0
M  V30 11345 H 1067.27 1.57456 -4.33276 0
M  V30 11346 H 1070.82 -0.685542 -6.94223 0
M  V30 11347 H 1066.71 0.44227 -6.43983 0
M  V30 11348 H 1067.48 -0.731013 -8.15229 0
M  V30 11349 N 1070.14 1.51827 0.422667 0
M  V30 11350 C 1071.39 1.64893 1.16853 0
M  V30 11351 C 1071.71 0.37456 1.91369 0
M  V30 11352 O 1070.98 -0.610128 1.86157 0
M  V30 11353 H 1069.56 0.607744 0.434345 0
M  V30 11354 H 1072.23 1.88816 0.483159 0
M  V30 11355 H 1071.32 2.48361 1.89006 0
M  V30 11356 N 1071.62 -0.679052 1.4222 0
M  V30 11357 C 1072.87 -1.43627 1.42182 0
M  V30 11358 C 1073.19 -1.94964 0.0377095 0
M  V30 11359 O 1072.46 -1.72788 -0.923098 0
M  V30 11360 H 1071.04 -0.532972 0.523402 0
M  V30 11361 H 1073.7 -0.802649 1.77605 0
M  V30 11362 H 1072.8 -2.29137 2.11902 0
M  V30 11363 N 1073.1 -1.28322 -0.914942 0
M  V30 11364 C 1074.51 -1.13937 -1.47903 0
M  V30 11365 C 1074.86 0.271072 -1.94318 0
M  V30 11366 O 1073.99 1.16522 -1.8235 0
M  V30 11367 C 1074.58 -2.06221 -2.68809 0
M  V30 11368 C 1073.14 -1.95903 -3.21402 0
M  V30 11369 C 1072.29 -1.98031 -1.94111 0
M  V30 11370 H 1075.24 -1.41029 -0.727772 0
M  V30 11371 H 1075.26 -1.6255 -3.44031 0
M  V30 11372 H 1074.77 -3.08866 -2.34997 0
M  V30 11373 H 1072.87 -0.962907 -3.59943 0
M  V30 11374 H 1072.99 -2.82799 -3.86732 0
M  V30 11375 H 1071.35 -1.42423 -2.11158 0
M  V30 11376 H 1072.13 -3.02354 -1.62595 0
M  V30 11377 N 1074.58 1.12322 -1.10551 0
M  V30 11378 C 1075.83 1.83858 -0.848674 0
M  V30 11379 C 1076.15 1.84159 0.62575 0
M  V30 11380 O 1075.41 1.28341 1.4774 0
M  V30 11381 C 1075.71 3.31177 -1.34375 0
M  V30 11382 C 1075.37 3.51046 -2.8298 0
M  V30 11383 C 1074.04 3.56177 -3.23561 0
M  V30 11384 C 1076.39 3.58061 -3.78737 0
M  V30 11385 C 1073.72 3.65868 -4.58647 0
M  V30 11386 C 1076.07 3.69283 -5.13627 0
M  V30 11387 C 1074.73 3.7267 -5.53781 0
M  V30 11388 H 1074 0.672784 -0.310552 0
M  V30 11389 H 1076.65 1.3253 -1.38232 0
M  V30 11390 H 1074.95 3.84937 -0.730144 0
M  V30 11391 H 1076.65 3.84998 -1.12148 0
M  V30 11392 H 1073.24 3.47716 -2.50582 0
M  V30 11393 H 1077.42 3.53366 -3.48491 0
M  V30 11394 H 1072.68 3.66763 -4.89178 0
M  V30 11395 H 1076.85 3.73654 -5.8767 0
M  V30 11396 H 1074.48 3.79932 -6.58449 0
M  V30 11397 N 1076.06 0.894434 1.2976 0
M  V30 11398 C 1077.3 0.517669 1.95771 0
M  V30 11399 C 1077.63 -0.935028 1.70551 0
M  V30 11400 O 1076.89 -1.67722 1.00835 0
M  V30 11401 C 1077.19 0.750307 3.49435 0
M  V30 11402 C 1076.85 2.17955 3.94723 0
M  V30 11403 C 1075.51 2.57036 4.068 0
M  V30 11404 C 1077.87 3.11053 4.18205 0
M  V30 11405 C 1075.19 3.88406 4.39724 0
M  V30 11406 C 1077.55 4.41966 4.52602 0
M  V30 11407 C 1076.21 4.80927 4.62888 0
M  V30 11408 H 1075.48 0.189428 0.716378 0
M  V30 11409 H 1078.13 1.13209 1.54454 0
M  V30 11410 H 1076.43 0.0529242 3.91764 0
M  V30 11411 H 1078.13 0.438251 3.98598 0
M  V30 11412 H 1074.72 1.86622 3.85837 0
M  V30 11413 H 1078.9 2.82076 4.08347 0
M  V30 11414 H 1074.16 4.18321 4.4589 0
M  V30 11415 H 1078.33 5.14134 4.69722 0
M  V30 11416 H 1075.96 5.82759 4.88156 0
M  V30 11417 N 1077.53 -1.43282 0.656365 0
M  V30 11418 C 1078.95 -1.85012 0.250475 0
M  V30 11419 C 1079.3 -1.54944 -1.20361 0
M  V30 11420 O 1078.42 -0.999983 -1.9191 0
M  V30 11421 C 1079.02 -3.35827 0.447815 0
M  V30 11422 C 1077.58 -3.76277 0.0962151 0
M  V30 11423 C 1076.72 -2.66988 0.749168 0
M  V30 11424 H 1079.67 -1.3339 0.85982 0
M  V30 11425 H 1079.69 -3.7927 -0.305726 0
M  V30 11426 H 1079.21 -3.5768 1.5062 0
M  V30 11427 H 1077.31 -3.60035 -0.959449 0
M  V30 11428 H 1077.42 -4.76227 0.523875 0
M  V30 11429 H 1075.78 -2.54048 0.18212 0
M  V30 11430 H 1076.57 -2.91669 1.81064 0
M  V30 11431 N 1079.01 -0.398486 -1.52479 0
M  V30 11432 C 1080.26 0.180394 -2.01293 0
M  V30 11433 C 1080.58 1.46548 -1.28641 0
M  V30 11434 O 1079.85 1.91579 -0.409173 0
M  V30 11435 H 1078.43 0.0696528 -0.743746 0
M  V30 11436 H 1081.09 -0.532285 -1.87491 0
M  V30 11437 H 1080.19 0.38409 -3.09728 0
M  V30 11438 N 1080.49 1.57075 -0.12858 0
M  V30 11439 C 1081.42 2.11553 0.855593 0
M  V30 11440 C 1082.4 1.03435 1.25459 0
M  V30 11441 O 1083.59 1.3115 1.35395 0
M  V30 11442 C 1080.71 2.62012 2.14633 0
M  V30 11443 C 1079.76 3.82105 1.89467 0
M  V30 11444 S 1080.59 5.24033 1.10228 0
M  V30 11445 C 1081.75 5.77867 2.4046 0
M  V30 11446 H 1081.98 2.94701 0.392248 0
M  V30 11447 H 1079.51 1.54164 0.0853746 0
M  V30 11448 H 1081.47 2.91737 2.8879 0
M  V30 11449 H 1080.13 1.79029 2.58084 0
M  V30 11450 H 1079.33 4.15592 2.8513 0
M  V30 11451 H 1078.93 3.53047 1.23427 0
M  V30 11452 H 1081.22 5.88175 3.36238 0
M  V30 11453 H 1082.16 6.75775 2.11504 0
M  V30 11454 H 1082.57 5.05991 2.50266 0
M  V30 11455 N 1081.97 -0.145205 1.5693 0
M  V30 11456 C 1082.9 -1.18096 2.01434 0
M  V30 11457 C 1083.88 -1.447 0.894204 0
M  V30 11458 O 1085.07 -1.55589 1.16214 0
M  V30 11459 C 1082.2 -2.51369 2.39647 0
M  V30 11460 C 1081.15 -2.39283 3.54863 0
M  V30 11461 C 1080.48 -3.77283 3.78895 0
M  V30 11462 C 1081.78 -1.8754 4.87469 0
M  V30 11463 H 1083.47 -0.810897 2.8821 0
M  V30 11464 H 1081.02 -0.388624 1.38657 0
M  V30 11465 H 1082.97 -3.24054 2.69382 0
M  V30 11466 H 1081.69 -2.90214 1.49811 0
M  V30 11467 H 1080.35 -1.6905 3.25296 0
M  V30 11468 H 1080 -4.13567 2.86307 0
M  V30 11469 H 1079.7 -3.70057 4.56433 0
M  V30 11470 H 1081.22 -4.51514 4.11057 0
M  V30 11471 H 1082.64 -2.50019 5.1591 0
M  V30 11472 H 1081.03 -1.912 5.68826 0
M  V30 11473 H 1082.1 -0.831194 4.77723 0
M  V30 11474 N 1083.45 -1.52049 -0.414609 0
M  V30 11475 C 1084.69 -1.66084 -1.16379 0
M  V30 11476 C 1085.03 -0.386932 -1.90306 0
M  V30 11477 O 1084.3 0.614441 -1.8454 0
M  V30 11478 C 1084.58 -2.87927 -2.16264 0
M  V30 11479 C 1084.44 -4.25353 -1.46269 0
M  V30 11480 C 1085.76 -3.05289 -3.16996 0
M  V30 11481 H 1082.88 -0.604414 -0.421726 0
M  V30 11482 H 1085.52 -1.8459 -0.450177 0
M  V30 11483 H 1083.67 -2.7228 -2.77121 0
M  V30 11484 H 1085.34 -4.52717 -0.885743 0
M  V30 11485 H 1083.58 -4.27006 -0.76472 0
M  V30 11486 H 1084.25 -5.06644 -2.19126 0
M  V30 11487 H 1086.73 -3.19798 -2.66212 0
M  V30 11488 H 1085.61 -3.92065 -3.84156 0
M  V30 11489 H 1085.87 -2.1836 -3.84411 0
M  V30 11490 N 1084.93 0.6715 -1.42579 0
M  V30 11491 C 1086.17 1.44353 -1.44712 0
M  V30 11492 C 1086.53 1.91898 -0.0626628 0
M  V30 11493 O 1087.73 2.68768 0.0412789 0
M  V30 11494 C 1086 2.60616 -2.44569 0
M  V30 11495 S 1087.56 3.49416 -2.65431 0
M  V30 11496 H 1084.38 0.492985 -0.512334 0
M  V30 11497 H 1086.98 0.781349 -1.79207 0
M  V30 11498 H 1085.68 2.23931 -3.43923 0
M  V30 11499 H 1085.22 3.31703 -2.1151 0
M  V30 11500 H 1087.23 4.56712 -1.9398 0
M  V30 11501 N 1086.4 1.28806 0.908124 0
M  V30 11502 C 1087.65 1.15663 1.65242 0
M  V30 11503 C 1087.97 -0.292883 1.93395 0
M  V30 11504 O 1089.17 -0.545509 2.65963 0
M  V30 11505 C 1087.63 2.02233 2.97707 0
M  V30 11506 C 1087.24 3.51958 2.77181 0
M  V30 11507 C 1088.98 1.97792 3.75604 0
M  V30 11508 C 1086.89 4.3066 4.05322 0
M  V30 11509 H 1085.82 0.42928 0.619867 0
M  V30 11510 H 1088.47 1.5338 1.00731 0
M  V30 11511 H 1086.85 1.57377 3.63385 0
M  V30 11512 H 1088.02 4.0481 2.20149 0
M  V30 11513 H 1086.34 3.57983 2.12691 0
M  V30 11514 H 1088.94 2.53858 4.70596 0
M  V30 11515 H 1089.28 0.955956 4.05175 0
M  V30 11516 H 1089.81 2.40648 3.16755 0
M  V30 11517 H 1086.55 5.3346 3.8092 0
M  V30 11518 H 1086.07 3.8258 4.61944 0
M  V30 11519 H 1087.75 4.40878 4.73535 0
M  V30 11520 N 1087.88 -1.11734 1.11145 0
M  V30 11521 C 1089.11 -1.86943 0.879534 0
M  V30 11522 C 1089.52 -1.80283 -0.574007 0
M  V30 11523 O 1088.86 -1.17998 -1.40791 0
M  V30 11524 C 1088.92 -3.36738 1.25887 0
M  V30 11525 C 1088.59 -3.67169 2.72095 0
M  V30 11526 C 1089.59 -3.6491 3.7032 0
M  V30 11527 C 1087.27 -3.96272 3.08665 0
M  V30 11528 C 1089.26 -3.91325 5.03134 0
M  V30 11529 C 1086.95 -4.22345 4.41665 0
M  V30 11530 C 1087.95 -4.19859 5.38709 0
M  V30 11531 O 1087.64 -4.4528 6.69314 0
M  V30 11532 H 1087.37 -0.598117 0.315011 0
M  V30 11533 H 1089.92 -1.42253 1.48166 0
M  V30 11534 H 1088.15 -3.82019 0.599873 0
M  V30 11535 H 1089.84 -3.93306 1.00325 0
M  V30 11536 H 1090.61 -3.42481 3.43412 0
M  V30 11537 H 1086.49 -3.97344 2.33749 0
M  V30 11538 H 1090.03 -3.893 5.78871 0
M  V30 11539 H 1085.93 -4.4425 4.68308 0
M  V30 11540 H 1086.7 -4.62863 6.75056 0
M  V30 11541 N 1089.36 -0.901303 -1.29284 0
M  V30 11542 C 1090.61 -0.528043 -1.95494 0
M  V30 11543 C 1090.93 0.92597 -1.71044 0
M  V30 11544 O 1090.19 1.67185 -1.01723 0
M  V30 11545 C 1090.49 -0.768828 -3.49033 0
M  V30 11546 C 1090.15 -2.20045 -3.93562 0
M  V30 11547 C 1088.82 -2.59189 -4.05431 0
M  V30 11548 C 1091.17 -3.13266 -4.1655 0
M  V30 11549 C 1088.5 -3.90733 -4.37658 0
M  V30 11550 C 1090.85 -4.4436 -4.50252 0
M  V30 11551 C 1089.51 -4.83375 -4.60331 0
M  V30 11552 H 1088.78 -0.193225 -0.715364 0
M  V30 11553 H 1091.43 -1.14027 -1.53851 0
M  V30 11554 H 1089.73 -0.0736997 -3.91731 0
M  V30 11555 H 1091.43 -0.459384 -3.9836 0
M  V30 11556 H 1088.02 -1.88666 -3.84842 0
M  V30 11557 H 1092.21 -2.84237 -4.06845 0
M  V30 11558 H 1087.46 -4.2068 -4.43665 0
M  V30 11559 H 1091.64 -5.16618 -4.66989 0
M  V30 11560 H 1089.26 -5.8534 -4.85058 0
M  V30 11561 N 1090.84 1.42931 -0.663954 0
M  V30 11562 C 1092.09 2.00904 -0.179011 0
M  V30 11563 C 1092.4 1.53056 1.21791 0
M  V30 11564 O 1093.61 2.03374 1.79865 0
M  V30 11565 C 1092.06 3.58892 -0.269198 0
M  V30 11566 C 1091.67 4.15731 -1.66949 0
M  V30 11567 C 1093.41 4.24207 0.157589 0
M  V30 11568 C 1091.32 5.66047 -1.71303 0
M  V30 11569 H 1090.25 0.75135 -0.0631623 0
M  V30 11570 H 1092.9 1.6378 -0.827556 0
M  V30 11571 H 1091.28 3.93469 0.447048 0
M  V30 11572 H 1092.46 3.92634 -2.41195 0
M  V30 11573 H 1090.77 3.62826 -2.04318 0
M  V30 11574 H 1093.37 5.34503 0.145057 0
M  V30 11575 H 1093.71 3.98901 1.19095 0
M  V30 11576 H 1094.25 3.94552 -0.507274 0
M  V30 11577 H 1090.98 5.96136 -2.72584 0
M  V30 11578 H 1090.5 5.91167 -1.01398 0
M  V30 11579 H 1092.18 6.30275 -1.46158 0
M  V30 11580 N 1092.32 0.406567 1.52266 0
M  V30 11581 C 1093.56 -0.171391 2.00971 0
M  V30 11582 C 1093.88 -1.46443 1.29668 0
M  V30 11583 O 1095.08 -2.12348 1.69176 0
M  V30 11584 C 1093.54 -0.35599 3.58135 0
M  V30 11585 C 1093.15 0.924803 4.38351 0
M  V30 11586 C 1094.89 -0.889378 4.15079 0
M  V30 11587 C 1092.8 0.707534 5.87152 0
M  V30 11588 H 1091.73 -0.0678253 0.750943 0
M  V30 11589 H 1094.38 0.531619 1.7563 0
M  V30 11590 H 1092.76 -1.12127 3.79794 0
M  V30 11591 H 1093.94 1.69603 4.28452 0
M  V30 11592 H 1092.25 1.38442 3.92712 0
M  V30 11593 H 1094.85 -1.06792 5.23927 0
M  V30 11594 H 1095.19 -1.86334 3.7227 0
M  V30 11595 H 1095.72 -0.183224 3.97378 0
M  V30 11596 H 1092.46 1.65299 6.34316 0
M  V30 11597 H 1091.98 -0.024446 5.99795 0
M  V30 11598 H 1093.66 0.348721 6.4606 0
M  V30 11599 N 1093.79 -1.57004 0.136909 0
M  V30 11600 C 1094.72 -2.19262 -0.802902 0
M  V30 11601 C 1095.71 -1.13786 -1.26439 0
M  V30 11602 O 1096.89 -1.42091 -1.32377 0
M  V30 11603 C 1094.02 -2.80624 -2.04615 0
M  V30 11604 C 1092.97 -3.91839 -1.72181 0
M  V30 11605 C 1092.3 -4.4009 -3.03686 0
M  V30 11606 C 1093.6 -5.13095 -0.976249 0
M  V30 11607 H 1095.29 -2.98049 -0.28406 0
M  V30 11608 H 1092.84 -1.43364 -0.135189 0
M  V30 11609 H 1094.79 -3.22842 -2.70834 0
M  V30 11610 H 1093.52 -1.99153 -2.58855 0
M  V30 11611 H 1092.18 -3.50224 -1.08344 0
M  V30 11612 H 1091.82 -3.55454 -3.55896 0
M  V30 11613 H 1091.52 -5.15098 -2.82751 0
M  V30 11614 H 1093.05 -4.84971 -3.70993 0
M  V30 11615 H 1094.46 -5.5222 -1.54033 0
M  V30 11616 H 1092.86 -5.93801 -0.867214 0
M  V30 11617 H 1093.93 -4.84888 0.0338488 0
M  V30 11618 N 1095.27 0.136881 -1.57004 0
M  V30 11619 C 1096.52 0.847775 -1.83899 0
M  V30 11620 C 1096.85 1.80709 -0.719332 0
M  V30 11621 O 1096.1 1.93527 0.290838 0
M  V30 11622 C 1096.4 1.64711 -3.17183 0
M  V30 11623 C 1096.07 0.833683 -4.43126 0
M  V30 11624 C 1094.73 0.609306 -4.77327 0
M  V30 11625 C 1097.08 0.265504 -5.20523 0
M  V30 11626 C 1094.41 -0.193793 -5.8638 0
M  V30 11627 C 1096.76 -0.524688 -6.3042 0
M  V30 11628 C 1095.43 -0.759548 -6.63164 0
M  V30 11629 H 1094.7 0.310223 -0.672936 0
M  V30 11630 H 1097.34 0.110937 -1.91178 0
M  V30 11631 H 1095.65 2.45435 -3.054 0
M  V30 11632 H 1097.34 2.20081 -3.3521 0
M  V30 11633 H 1093.93 1.01864 -4.16319 0
M  V30 11634 H 1098.12 0.426109 -4.94467 0
M  V30 11635 H 1093.37 -0.385153 -6.10186 0
M  V30 11636 H 1097.55 -0.972033 -6.89583 0
M  V30 11637 H 1095.18 -1.38369 -7.47501 0
M  V30 11638 N 1096.75 1.52266 0.40654 0
M  V30 11639 C 1098 1.6568 1.15035 0
M  V30 11640 C 1098.31 0.394135 1.91588 0
M  V30 11641 O 1099.52 0.408113 2.68415 0
M  V30 11642 C 1097.97 2.92725 2.0938 0
M  V30 11643 C 1097.58 4.26108 1.38332 0
M  V30 11644 C 1099.33 3.15502 2.84004 0
M  V30 11645 C 1097.23 5.44275 2.3134 0
M  V30 11646 H 1096.16 0.61719 0.43312 0
M  V30 11647 H 1098.81 1.78755 0.414598 0
M  V30 11648 H 1097.2 2.73355 2.86519 0
M  V30 11649 H 1098.37 4.55971 0.665396 0
M  V30 11650 H 1096.69 4.09454 0.757384 0
M  V30 11651 H 1099.28 4.00964 3.5374 0
M  V30 11652 H 1099.63 2.29842 3.471 0
M  V30 11653 H 1100.16 3.35357 2.13964 0
M  V30 11654 H 1096.9 6.3229 1.72887 0
M  V30 11655 H 1096.42 5.18749 3.01098 0
M  V30 11656 H 1098.1 5.77457 2.91809 0
M  V30 11657 N 1098.23 -0.663929 1.42933 0
M  V30 11658 C 1099.47 -1.43583 1.45476 0
M  V30 11659 C 1099.83 -1.91862 0.0728387 0
M  V30 11660 O 1101.03 -2.68786 -0.0270249 0
M  V30 11661 C 1099.3 -2.59316 2.45947 0
M  V30 11662 S 1100.86 -3.48004 2.6728 0
M  V30 11663 H 1097.68 -0.490261 0.514942 0
M  V30 11664 H 1100.28 -0.771834 1.79619 0
M  V30 11665 H 1098.99 -2.22104 3.45106 0
M  V30 11666 H 1098.52 -3.30577 2.13266 0
M  V30 11667 H 1100.53 -4.55677 1.96399 0
M  V30 11668 N 1099.71 -1.29285 -0.901281 0
M  V30 11669 C 1100.95 -1.16934 -1.64836 0
M  V30 11670 C 1101.28 0.279826 -1.92982 0
M  V30 11671 O 1100.55 1.19179 -1.55478 0
M  V30 11672 H 1099.13 -0.429768 -0.61099 0
M  V30 11673 H 1101.79 -1.62189 -1.08077 0
M  V30 11674 H 1100.88 -1.71821 -2.60545 0
M  V30 11675 N 1101.18 1.11143 -1.11736 0
M  V30 11676 C 1102.13 2.19358 -0.773626 0
M  V30 11677 C 1103.13 1.67744 0.236288 0
M  V30 11678 O 1104.33 1.79748 0.09525 0
M  V30 11679 H 1100.71 0.715218 -0.232309 0
M  V30 11680 H 1102.68 2.45594 -1.69487 0
M  V30 11681 C 1101.43 3.46895 -0.236457 0
M  V30 11682 H 1100.75 3.86967 -1.00483 0
M  V30 11683 H 1102.19 4.23986 -0.034168 0
M  V30 11684 C 1100.65 3.20641 1.03397 0
M  V30 11685 O 1101.18 3.41629 2.11312 0
M  V30 11686 N 1099.39 2.74356 0.957986 0
M  V30 11687 H 1098.93 2.57477 0.0796924 0
M  V30 11688 H 1098.89 2.57166 1.80867 0
M  V30 11689 N 1102.66 0.908147 1.28804 0
M  V30 11690 C 1103.89 0.553287 1.99054 0
M  V30 11691 C 1104.3 -0.868455 1.68091 0
M  V30 11692 O 1103.64 -1.58599 0.926939 0
M  V30 11693 C 1103.71 0.675823 3.5309 0
M  V30 11694 C 1103.37 2.06608 4.0763 0
M  V30 11695 C 1104.37 3.03819 4.21889 0
M  V30 11696 C 1102.05 2.37775 4.42457 0
M  V30 11697 C 1104.05 4.30316 4.7022 0
M  V30 11698 C 1101.73 3.64512 4.90484 0
M  V30 11699 C 1102.73 4.60597 5.04321 0
M  V30 11700 O 1102.42 5.85082 5.51302 0
M  V30 11701 H 1102.15 0.210152 0.642504 0
M  V30 11702 H 1104.7 1.22188 1.65104 0
M  V30 11703 H 1102.93 -0.0498253 3.86668 0
M  V30 11704 H 1104.62 0.328884 4.04565 0
M  V30 11705 H 1105.39 2.81057 3.95262 0
M  V30 11706 H 1101.27 1.63742 4.3094 0
M  V30 11707 H 1104.81 5.05318 4.80936 0
M  V30 11708 H 1100.71 3.87101 5.1655 0
M  V30 11709 H 1101.48 5.87791 5.69599 0
M  V30 11710 N 1104.14 -1.42577 0.671525 0
M  V30 11711 C 1105.39 -2.00806 0.189663 0
M  V30 11712 C 1105.7 -1.537 -1.20978 0
M  V30 11713 O 1106.91 -2.04325 -1.78784 0
M  V30 11714 C 1105.36 -3.58744 0.288227 0
M  V30 11715 C 1104.97 -4.14839 1.69152 0
M  V30 11716 C 1106.72 -4.24285 -0.13509 0
M  V30 11717 C 1104.62 -5.65131 1.74302 0
M  V30 11718 H 1103.55 -0.751004 0.067146 0
M  V30 11719 H 1106.2 -1.63338 0.83623 0
M  V30 11720 H 1104.59 -3.937 -0.426175 0
M  V30 11721 H 1105.76 -3.91349 2.43274 0
M  V30 11722 H 1104.08 -3.61738 2.0624 0
M  V30 11723 H 1106.67 -5.34573 -0.116709 0
M  V30 11724 H 1107.02 -3.99527 -1.16977 0
M  V30 11725 H 1107.55 -3.94278 0.528191 0
M  V30 11726 H 1104.29 -5.94682 2.75742 0
M  V30 11727 H 1103.81 -5.90621 1.04531 0
M  V30 11728 H 1105.49 -6.29491 1.49498 0
M  V30 11729 N 1105.62 -0.414636 -1.52048 0
M  V30 11730 C 1106.55 0.399119 -2.30064 0
M  V30 11731 C 1107.53 1.04126 -1.34506 0
M  V30 11732 O 1108.71 1.04923 -1.63416 0
M  V30 11733 C 1105.84 1.51305 -3.12608 0
M  V30 11734 C 1104.8 0.995621 -4.16259 0
M  V30 11735 C 1104.12 2.20357 -4.87183 0
M  V30 11736 C 1105.42 0.0458178 -5.2228 0
M  V30 11737 H 1107.12 -0.251879 -2.98339 0
M  V30 11738 H 1104.66 -0.122579 -1.43477 0
M  V30 11739 H 1106.62 2.08936 -3.65956 0
M  V30 11740 H 1105.34 2.19201 -2.42113 0
M  V30 11741 H 1104 0.441676 -3.6393 0
M  V30 11742 H 1103.65 2.8682 -4.13211 0
M  V30 11743 H 1103.35 1.86385 -5.57256 0
M  V30 11744 H 1104.87 2.78584 -5.43345 0
M  V30 11745 H 1106.29 0.531102 -5.70835 0
M  V30 11746 H 1104.68 -0.20536 -5.99749 0
M  V30 11747 H 1105.75 -0.897807 -4.76516 0
M  V30 11748 N 1107.1 1.56929 -0.145233 0
M  V30 11749 C 1108.03 2.19685 0.791263 0
M  V30 11750 C 1109.01 1.14455 1.25833 0
M  V30 11751 O 1110.19 1.42791 1.31622 0
M  V30 11752 C 1107.32 2.81705 2.03124 0
M  V30 11753 C 1106.28 3.92746 1.70101 0
M  V30 11754 C 1105.6 4.41694 3.01347 0
M  V30 11755 C 1106.9 5.13606 0.949025 0
M  V30 11756 H 1108.6 2.98196 0.26825 0
M  V30 11757 H 1106.14 1.43434 0.127584 0
M  V30 11758 H 1108.1 3.24273 2.69119 0
M  V30 11759 H 1106.82 2.00523 2.57795 0
M  V30 11760 H 1105.48 3.50794 1.06486 0
M  V30 11761 H 1105.13 3.57336 3.54006 0
M  V30 11762 H 1104.83 5.1659 2.80016 0
M  V30 11763 H 1106.35 4.86931 3.68416 0
M  V30 11764 H 1107.76 5.53029 1.51102 0
M  V30 11765 H 1106.16 5.94252 0.835711 0
M  V30 11766 H 1107.23 4.84863 -0.0595631 0
M  V30 11767 N 1108.58 -0.128553 1.57075 0
M  V30 11768 C 1109.52 -1.17719 2.00611 0
M  V30 11769 C 1110.52 -1.43423 0.90146 0
M  V30 11770 O 1111.72 -1.43498 1.08666 0
M  V30 11771 H 1108.1 -0.396683 0.638864 0
M  V30 11772 H 1110.07 -0.783437 2.87932 0
M  V30 11773 C 1108.82 -2.49826 2.41831 0
M  V30 11774 H 1108.14 -2.30883 3.26394 0
M  V30 11775 H 1109.58 -3.21784 2.761 0
M  V30 11776 C 1108.04 -3.11712 1.27816 0
M  V30 11777 O 1108.57 -3.9736 0.588917 0
M  V30 11778 N 1106.78 -2.71442 1.03767 0
M  V30 11779 H 1106.32 -2.01891 1.59994 0
M  V30 11780 H 1106.28 -3.1318 0.276743 0
M  V30 11781 N 1110.05 -1.5248 -0.398459 0
M  V30 11782 C 1111.3 -1.67309 -1.1461 0
M  V30 11783 C 1111.63 -0.407095 -1.89885 0
M  V30 11784 O 1110.91 0.594834 -1.85181 0
M  V30 11785 C 1111.19 -2.90204 -2.13198 0
M  V30 11786 C 1111.04 -4.26881 -1.4175 0
M  V30 11787 C 1112.36 -3.08634 -3.13741 0
M  V30 11788 H 1109.48 -0.608853 -0.415292 0
M  V30 11789 H 1112.12 -1.85057 -0.430573 0
M  V30 11790 H 1110.27 -2.75204 -2.74218 0
M  V30 11791 H 1111.95 -4.53631 -0.837676 0
M  V30 11792 H 1110.19 -4.27793 -0.719387 0
M  V30 11793 H 1110.86 -5.08939 -2.1374 0
M  V30 11794 H 1113.34 -3.22603 -2.62805 0
M  V30 11795 H 1112.21 -3.96117 -3.79977 0
M  V30 11796 H 1112.47 -2.22425 -3.82073 0
M  V30 11797 N 1111.53 0.65634 -1.43283 0
M  V30 11798 C 1112.78 1.41627 -1.44734 0
M  V30 11799 C 1113.11 1.94372 -0.0704893 0
M  V30 11800 O 1112.36 1.72511 0.924037 0
M  V30 11801 C 1112.66 2.61688 -2.43421 0
M  V30 11802 C 1112.33 2.2738 -3.8937 0
M  V30 11803 C 1110.99 2.17735 -4.29121 0
M  V30 11804 C 1113.34 1.99863 -4.81357 0
M  V30 11805 C 1110.67 1.78725 -5.58815 0
M  V30 11806 C 1113.02 1.62352 -6.11412 0
M  V30 11807 C 1111.68 1.51231 -6.50143 0
M  V30 11808 H 1110.95 0.51825 -0.529621 0
M  V30 11809 H 1113.6 0.746701 -1.76342 0
M  V30 11810 H 1111.91 3.33763 -2.05206 0
M  V30 11811 H 1113.6 3.19896 -2.41801 0
M  V30 11812 H 1110.19 2.35795 -3.57908 0
M  V30 11813 H 1114.38 2.06237 -4.5142 0
M  V30 11814 H 1109.63 1.68698 -5.87666 0
M  V30 11815 H 1113.81 1.40091 -6.82164 0
M  V30 11816 H 1111.43 1.20774 -7.50545 0
M  V30 11817 N 1113.01 1.29761 0.894412 0
M  V30 11818 C 1113.94 1.17902 2.01547 0
M  V30 11819 C 1114.92 0.0719402 1.69948 0
M  V30 11820 O 1116.11 0.252338 1.92554 0
M  V30 11821 C 1113.24 0.860262 3.36477 0
M  V30 11822 C 1112.19 1.92424 3.82305 0
M  V30 11823 C 1111.52 1.45868 5.14419 0
M  V30 11824 C 1112.82 3.33391 4.02054 0
M  V30 11825 H 1114.51 2.11688 2.11727 0
M  V30 11826 H 1112.06 1.01916 1.01731 0
M  V30 11827 H 1114.01 0.763987 4.14417 0
M  V30 11828 H 1112.73 -0.113289 3.26403 0
M  V30 11829 H 1111.39 2.00999 3.06586 0
M  V30 11830 H 1111.04 0.473654 5.00765 0
M  V30 11831 H 1110.74 2.17028 5.46052 0
M  V30 11832 H 1112.26 1.37601 5.94894 0
M  V30 11833 H 1113.68 3.27628 4.7046 0
M  V30 11834 H 1112.07 4.02555 4.4505 0
M  V30 11835 H 1113.14 3.75978 3.06216 0
M  V30 11836 N 1114.49 -1.10549 1.12324 0
M  V30 11837 C 1115.45 -2.15039 0.793156 0
M  V30 11838 C 1116.45 -1.59651 -0.19192 0
M  V30 11839 O 1117.64 -1.74167 0.0337262 0
M  V30 11840 C 1114.77 -3.40433 0.17842 0
M  V30 11841 H 1115.97 -2.4575 1.71892 0
M  V30 11842 H 1113.52 -1.25892 0.926333 0
M  V30 11843 H 1114.25 -3.15338 -0.757122 0
M  V30 11844 H 1114.04 -3.81921 0.887645 0
M  V30 11845 H 1115.53 -4.17584 -0.0360724 0
M  V30 11846 N 1115.97 -0.914965 -1.28321 0
M  V30 11847 C 1117.21 -0.544639 -1.94208 0
M  V30 11848 C 1117.53 0.916368 -1.72806 0
M  V30 11849 O 1118.73 1.39491 -2.32926 0
M  V30 11850 C 1117.19 -0.923209 -3.47858 0
M  V30 11851 C 1116.8 -2.40403 -3.78035 0
M  V30 11852 C 1118.54 -0.623526 -4.19896 0
M  V30 11853 C 1116.45 -2.72266 -5.25 0
M  V30 11854 H 1115.38 -0.199966 -0.727 0
M  V30 11855 H 1118.03 -1.11405 -1.45812 0
M  V30 11856 H 1116.41 -0.282576 -3.94991 0
M  V30 11857 H 1117.59 -3.09149 -3.41706 0
M  V30 11858 H 1115.9 -2.67429 -3.19172 0
M  V30 11859 H 1118.5 -0.838243 -5.28089 0
M  V30 11860 H 1118.84 0.438721 -4.13982 0
M  V30 11861 H 1119.37 -1.22268 -3.78544 0
M  V30 11862 H 1116.11 -3.77349 -5.35993 0
M  V30 11863 H 1115.63 -2.08157 -5.62522 0
M  V30 11864 H 1117.31 -2.59334 -5.92752 0
M  V30 11865 N 1117.44 1.42219 -0.679077 0
M  V30 11866 C 1118.41 2.29197 -0.0125475 0
M  V30 11867 C 1119.41 1.43544 0.724691 0
M  V30 11868 O 1120.6 1.64884 0.562052 0
M  V30 11869 C 1117.73 3.26122 0.992846 0
M  V30 11870 H 1118.92 2.89629 -0.778154 0
M  V30 11871 H 1116.47 1.4993 -0.44166 0
M  V30 11872 H 1117.21 2.70637 1.78679 0
M  V30 11873 H 1116.99 3.89302 0.467544 0
M  V30 11874 H 1118.48 3.91339 1.45751 0
M  V30 11875 N 1118.92 0.422693 1.51826 0
M  V30 11876 C 1120.17 -0.148861 2.02253 0
M  V30 11877 C 1120.5 -1.43629 1.30707 0
M  V30 11878 O 1119.78 -1.89967 0.417482 0
M  V30 11879 C 1120.06 -0.382672 3.58061 0
M  V30 11880 C 1119.91 0.922386 4.40241 0
M  V30 11881 C 1121.23 -1.1589 4.24567 0
M  V30 11882 H 1118.35 -0.0526279 0.735119 0
M  V30 11883 H 1120.99 0.558821 1.81596 0
M  V30 11884 H 1119.14 -0.985495 3.75793 0
M  V30 11885 H 1120.81 1.55806 4.34191 0
M  V30 11886 H 1119.06 1.53032 4.05911 0
M  V30 11887 H 1119.73 0.713012 5.47376 0
M  V30 11888 H 1122.2 -0.648415 4.11017 0
M  V30 11889 H 1121.08 -1.29125 5.33496 0
M  V30 11890 H 1121.34 -2.18315 3.84436 0
M  V30 11891 N 1120.4 -1.5685 0.153553 0
M  V30 11892 C 1121.68 -1.8796 -0.541328 0
M  V30 11893 C 1122.06 -1.06059 -1.82523 0
M  V30 11894 O 1121.4 -0.149295 -2.28012 0
M  V30 11895 C 1121.61 -3.39697 -0.800442 0
M  V30 11896 C 1122.96 -4.09057 -1.13832 0
M  V30 11897 O 1123.99 -3.44913 -0.889578 0
M  V30 11898 O 1122.85 -5.22347 -1.60673 0
M  V30 11899 H 1119.94 -0.779268 -0.276895 0
M  V30 11900 H 1122.49 -1.68626 0.190657 0
M  V30 11901 H 1121.26 -3.91151 0.107935 0
M  V30 11902 H 1120.88 -3.64582 -1.58638 0
M  V30 11903 N 1121.88 0.120221 -1.57141 0
M  V30 11904 C 1122.83 1.16654 -2.01233 0
M  V30 11905 C 1123.82 1.42943 -0.909053 0
M  V30 11906 O 1125.03 1.4292 -1.09426 0
M  V30 11907 H 1121.4 0.393289 -0.640958 0
M  V30 11908 H 1123.37 0.768156 -2.88343 0
M  V30 11909 C 1122.12 2.4854 -2.43152 0
M  V30 11910 H 1121.44 2.29149 -3.27614 0
M  V30 11911 H 1122.88 3.20315 -2.77802 0
M  V30 11912 C 1121.34 3.1103 -1.29468 0
M  V30 11913 O 1121.87 3.97042 -0.609982 0
M  V30 11914 N 1120.08 2.70888 -1.05205 0
M  V30 11915 H 1119.63 2.01039 -1.61062 0
M  V30 11916 H 1119.58 3.13028 -0.293347 0
M  V30 11917 N 1123.36 1.52689 0.390367 0
M  V30 11918 C 1124.29 1.80338 1.48325 0
M  V30 11919 C 1125.27 0.655338 1.56969 0
M  V30 11920 O 1126.45 0.902792 1.7194 0
M  V30 11921 C 1123.58 1.97101 2.85952 0
M  V30 11922 C 1122.54 3.12783 2.92148 0
M  V30 11923 C 1121.86 3.14798 4.32211 0
M  V30 11924 C 1123.16 4.5188 2.61919 0
M  V30 11925 H 1124.86 2.71857 1.25437 0
M  V30 11926 H 1122.4 1.30813 0.601995 0
M  V30 11927 H 1124.36 2.15027 3.62411 0
M  V30 11928 H 1123.08 1.02271 3.10174 0
M  V30 11929 H 1121.74 2.94638 2.18137 0
M  V30 11930 H 1121.39 2.17653 4.53471 0
M  V30 11931 H 1121.09 3.92507 4.37278 0
M  V30 11932 H 1122.61 3.34877 5.10578 0
M  V30 11933 H 1124.02 4.70134 3.28096 0
M  V30 11934 H 1122.42 5.31647 2.78337 0
M  V30 11935 H 1123.49 4.58689 1.57266 0
M  V30 11936 N 1124.83 -0.648732 1.43629 0
M  V30 11937 C 1125.8 -1.74331 1.488 0
M  V30 11938 C 1126.8 -1.56434 0.372147 0
M  V30 11939 O 1127.99 -1.6225 0.634078 0
M  V30 11940 C 1125.12 -3.13248 1.34494 0
M  V30 11941 H 1126.31 -1.71125 2.46285 0
M  V30 11942 H 1123.87 -0.860798 1.30461 0
M  V30 11943 H 1124.6 -3.22062 0.380345 0
M  V30 11944 H 1124.39 -3.27643 2.15389 0
M  V30 11945 H 1125.88 -3.93056 1.41055 0
M  V30 11946 N 1126.31 -1.30234 -0.887518 0
M  V30 11947 C 1127.54 -1.21955 -1.67755 0
M  V30 11948 C 1127.96 0.214701 -1.86871 0
M  V30 11949 O 1127.32 1.15459 -1.39782 0
M  V30 11950 C 1127.37 -1.95079 -3.03276 0
M  V30 11951 O 1126.47 -1.27615 -3.92158 0
M  V30 11952 H 1125.81 -0.421948 -0.512695 0
M  V30 11953 H 1128.34 -1.72011 -1.10785 0
M  V30 11954 H 1128.35 -2.04004 -3.53336 0
M  V30 11955 H 1127.03 -2.99392 -2.88682 0
M  V30 11956 H 1125.61 -1.27029 -3.50597 0
M  V30 11957 N 1127.79 1.09952 -1.12909 0
M  V30 11958 C 1129.04 1.81657 -0.885729 0
M  V30 11959 C 1129.36 1.85863 0.589913 0
M  V30 11960 O 1128.63 1.34028 1.42875 0
M  V30 11961 H 1127.21 0.672743 -0.324694 0
M  V30 11962 H 1129.87 1.33013 -1.42456 0
M  V30 11963 H 1128.97 2.85018 -1.27167 0
M  V30 11964 N 1129.27 0.921757 1.27833 0
M  V30 11965 C 1130.55 0.477706 1.89677 0
M  V30 11966 C 1130.93 -1.04392 1.83481 0
M  V30 11967 O 1130.27 -1.89549 1.27606 0
M  V30 11968 C 1130.48 1.01709 3.33851 0
M  V30 11969 C 1131.83 1.074 4.10792 0
M  V30 11970 O 1132.86 0.966295 3.42843 0
M  V30 11971 O 1131.71 1.23909 5.32268 0
M  V30 11972 H 1128.81 0.15271 0.812778 0
M  V30 11973 H 1131.35 1.01306 1.36144 0
M  V30 11974 H 1130.13 2.061 3.32623 0
M  V30 11975 H 1129.75 0.463031 3.94895 0
M  V30 11976 N 1130.75 -1.41857 0.686609 0
M  V30 11977 C 1131.71 -2.29187 0.0247022 0
M  V30 11978 C 1132.71 -1.43926 -0.717069 0
M  V30 11979 O 1133.9 -1.65179 -0.5533 0
M  V30 11980 C 1131.03 -3.26644 -0.975537 0
M  V30 11981 H 1132.22 -2.89212 0.793503 0
M  V30 11982 H 1129.78 -1.49694 0.449605 0
M  V30 11983 H 1130.51 -2.7158 -1.77242 0
M  V30 11984 H 1130.3 -3.89545 -0.446892 0
M  V30 11985 H 1131.79 -3.92107 -1.43673 0
M  V30 11986 N 1132.22 -0.430739 -1.51599 0
M  V30 11987 C 1133.47 0.137657 -2.01631 0
M  V30 11988 C 1133.79 1.43787 -1.31721 0
M  V30 11989 O 1133.06 1.90668 -0.449717 0
M  V30 11990 H 1131.64 0.0538611 -0.745056 0
M  V30 11991 H 1134.31 -0.571935 -1.86319 0
M  V30 11992 H 1133.4 0.318305 -3.10473 0
M  V30 11993 N 1133.7 1.56767 -0.161869 0
M  V30 11994 C 1134.93 2.00964 0.492027 0
M  V30 11995 C 1135.35 1.04206 1.57437 0
M  V30 11996 O 1134.7 0.0413998 1.82453 0
M  V30 11997 C 1134.75 3.4502 1.07904 0
M  V30 11998 O 1134.47 4.38082 0.0399085 0
M  V30 11999 C 1135.98 4.04572 1.81209 0
M  V30 12000 H 1133.2 0.658911 0.126797 0
M  V30 12001 H 1135.74 2.0283 -0.260824 0
M  V30 12002 H 1133.89 3.43959 1.78243 0
M  V30 12003 H 1134.31 5.22372 0.471985 0
M  V30 12004 H 1135.78 5.07321 2.17554 0
M  V30 12005 H 1136.26 3.46126 2.70359 0
M  V30 12006 H 1136.87 4.09307 1.15534 0
M  V30 12007 N 1135.18 -0.111886 1.57202 0
M  V30 12008 C 1136.14 -1.12101 1.99915 0
M  V30 12009 C 1137.14 -1.33906 0.890272 0
M  V30 12010 O 1138.33 -1.30303 1.15615 0
M  V30 12011 C 1135.47 -2.47392 2.34543 0
M  V30 12012 H 1136.66 -0.753736 2.90274 0
M  V30 12013 H 1134.21 -0.35641 1.52182 0
M  V30 12014 H 1134.95 -2.89026 1.47086 0
M  V30 12015 H 1134.73 -2.32917 3.15423 0
M  V30 12016 H 1136.22 -3.20004 2.68304 0
M  V30 12017 N 1136.66 -1.52894 -0.382264 0
M  V30 12018 C 1137.61 -1.78151 -1.46734 0
M  V30 12019 C 1138.58 -0.625034 -1.53891 0
M  V30 12020 O 1139.76 -0.865467 -1.70042 0
M  V30 12021 C 1136.9 -1.96223 -2.83885 0
M  V30 12022 C 1136.01 -3.23925 -2.85826 0
M  V30 12023 C 1135.15 -3.32277 -4.14446 0
M  V30 12024 C 1134.19 -4.54076 -4.10465 0
M  V30 12025 N 1133.32 -4.59672 -5.30703 0
M  V30 12026 H 1138.16 -2.70748 -1.24497 0
M  V30 12027 H 1135.7 -1.34135 -0.603838 0
M  V30 12028 H 1137.66 -2.04686 -3.63537 0
M  V30 12029 H 1136.29 -1.0698 -3.04557 0
M  V30 12030 H 1135.34 -3.245 -1.98505 0
M  V30 12031 H 1136.65 -4.1364 -2.78754 0
M  V30 12032 H 1135.81 -3.3996 -5.02506 0
M  V30 12033 H 1134.55 -2.40548 -4.2425 0
M  V30 12034 H 1133.55 -4.46511 -3.20793 0
M  V30 12035 H 1134.78 -5.47128 -4.02278 0
M  V30 12036 H 1132.72 -3.70838 -5.41124 0
M  V30 12037 H 1132.64 -5.43268 -5.25734 0
M  V30 12038 H 1133.91 -4.71618 -6.20642 0
M  V30 12039 N 1138.14 0.641106 -1.43971 0
M  V30 12040 C 1139.41 1.39897 -1.36704 0
M  V30 12041 C 1139.79 2.1109 -0.0208051 0
M  V30 12042 O 1139.14 2.05638 0.99625 0
M  V30 12043 C 1139.35 2.37366 -2.55849 0
M  V30 12044 C 1140.7 3.01 -2.99473 0
M  V30 12045 O 1141.72 2.47692 -2.55982 0
M  V30 12046 O 1140.58 3.9768 -3.74851 0
M  V30 12047 H 1137.68 0.625623 -0.540855 0
M  V30 12048 H 1140.22 0.666997 -1.56042 0
M  V30 12049 H 1139 1.8379 -3.45452 0
M  V30 12050 H 1138.62 3.17995 -2.38673 0
M  V30 12051 N 1139.62 1.30703 0.880598 0
M  V30 12052 C 1140.56 1.17455 1.98678 0
M  V30 12053 C 1141.53 0.0629569 1.65981 0
M  V30 12054 O 1142.72 0.233926 1.89361 0
M  V30 12055 C 1139.86 0.876882 3.33774 0
M  V30 12056 C 1138.97 2.07078 3.79134 0
M  V30 12057 C 1138.11 1.71082 5.02896 0
M  V30 12058 C 1137.14 2.86942 5.40676 0
M  V30 12059 N 1136.28 2.51212 6.55619 0
M  V30 12060 H 1141.12 2.12086 2.09341 0
M  V30 12061 H 1138.66 1.05514 1.02495 0
M  V30 12062 H 1140.62 0.684899 4.1154 0
M  V30 12063 H 1139.25 -0.0325633 3.22784 0
M  V30 12064 H 1138.3 2.37388 2.97239 0
M  V30 12065 H 1139.61 2.9383 4.0307 0
M  V30 12066 H 1138.76 1.48284 5.883 0
M  V30 12067 H 1137.5 0.815064 4.80841 0
M  V30 12068 H 1136.51 3.10401 4.53797 0
M  V30 12069 H 1137.73 3.77211 5.64703 0
M  V30 12070 H 1135.68 1.64147 6.35131 0
M  V30 12071 H 1135.6 3.31495 6.79446 0
M  V30 12072 H 1136.86 2.31781 7.44243 0
M  V30 12073 N 1141.09 -1.09351 1.1349 0
M  V30 12074 C 1142.34 -1.81185 0.89535 0
M  V30 12075 C 1142.66 -1.86173 -0.580048 0
M  V30 12076 O 1141.93 -1.34784 -1.42162 0
M  V30 12077 H 1140.51 -0.671011 0.328257 0
M  V30 12078 H 1143.17 -1.32255 1.43159 0
M  V30 12079 H 1142.27 -2.84339 1.28676 0
M  V30 12080 N 1142.57 -0.928524 -1.27343 0
M  V30 12081 C 1143.82 -0.568267 -1.93946 0
M  V30 12082 C 1144.14 0.893501 -1.73325 0
M  V30 12083 O 1143.41 1.63344 -1.08147 0
M  V30 12084 H 1141.99 -0.207173 -0.717696 0
M  V30 12085 H 1144.65 -1.1811 -1.55036 0
M  V30 12086 H 1143.75 -0.775246 -3.02318 0
M  V30 12087 N 1144.05 1.41491 -0.694123 0
M  V30 12088 C 1144.96 2.34583 -0.0283414 0
M  V30 12089 C 1145.98 1.5615 0.767662 0
M  V30 12090 O 1147.15 1.88637 0.705556 0
M  V30 12091 C 1144.22 3.34876 0.897726 0
M  V30 12092 C 1143.28 4.29197 0.0940905 0
M  V30 12093 C 1142.51 5.24699 0.976051 0
M  V30 12094 O 1142.73 5.25613 2.21556 0
M  V30 12095 O 1141.67 6.00387 0.426503 0
M  V30 12096 H 1145.49 2.93092 -0.795656 0
M  V30 12097 H 1143.08 1.4232 -0.45445 0
M  V30 12098 H 1144.96 3.96438 1.4288 0
M  V30 12099 H 1143.64 2.78812 1.64456 0
M  V30 12100 H 1142.54 3.70988 -0.481552 0
M  V30 12101 H 1143.88 4.88355 -0.614045 0
M  V30 12102 N 1145.53 0.438773 1.51369 0
M  V30 12103 C 1146.47 -0.37195 2.27783 0
M  V30 12104 C 1147.44 -1.01558 1.31435 0
M  V30 12105 O 1148.63 -1.03421 1.60339 0
M  V30 12106 C 1145.77 -1.46636 3.12397 0
M  V30 12107 C 1144.88 -0.840727 4.2374 0
M  V30 12108 C 1144.02 -1.91031 4.95662 0
M  V30 12109 C 1143.06 -1.26318 5.98924 0
M  V30 12110 N 1142.19 -2.27419 6.64248 0
M  V30 12111 H 1147.03 0.286048 2.96624 0
M  V30 12112 H 1144.57 0.152909 1.46303 0
M  V30 12113 H 1146.53 -2.11219 3.59781 0
M  V30 12114 H 1145.16 -2.09397 2.45668 0
M  V30 12115 H 1144.21 -0.0831588 3.80309 0
M  V30 12116 H 1145.52 -0.328285 4.97719 0
M  V30 12117 H 1144.68 -2.63272 5.46601 0
M  V30 12118 H 1143.42 -2.45649 4.21317 0
M  V30 12119 H 1142.42 -0.526246 5.47276 0
M  V30 12120 H 1143.65 -0.724324 6.75226 0
M  V30 12121 H 1141.59 -2.81114 5.92715 0
M  V30 12122 H 1141.51 -1.81071 7.33996 0
M  V30 12123 H 1142.78 -2.99139 7.19817 0
M  V30 12124 N 1147.01 -1.56678 0.170181 0
M  V30 12125 C 1148.23 -2.0166 -0.484543 0
M  V30 12126 C 1148.66 -1.04962 -1.56091 0
M  V30 12127 O 1148.01 -0.0289887 -1.81277 0
M  V30 12128 C 1148.06 -3.45252 -1.04084 0
M  V30 12129 O 1147.17 -3.51623 -2.15488 0
M  V30 12130 H 1146.51 -0.653765 -0.116135 0
M  V30 12131 H 1149.04 -2.02761 0.273737 0
M  V30 12132 H 1149.05 -3.84534 -1.36373 0
M  V30 12133 H 1147.72 -4.15131 -0.252738 0
M  V30 12134 H 1146.3 -3.242 -1.84252 0
M  V30 12135 N 1148.48 0.103547 -1.57259 0
M  V30 12136 C 1149.43 1.14513 -2.02459 0
M  V30 12137 C 1150.43 1.4197 -0.924163 0
M  V30 12138 O 1151.63 1.41751 -1.10936 0
M  V30 12139 H 1148.01 0.386469 -0.645094 0
M  V30 12140 H 1149.98 0.737531 -2.89142 0
M  V30 12141 C 1148.73 2.45948 -2.45775 0
M  V30 12142 H 1148.05 2.25662 -3.30026 0
M  V30 12143 H 1149.49 3.17351 -2.81184 0
M  V30 12144 C 1147.95 3.09639 -1.32759 0
M  V30 12145 O 1148.48 3.96372 -0.652059 0
M  V30 12146 N 1146.68 2.69757 -1.08072 0
M  V30 12147 H 1146.23 1.9932 -1.63185 0
M  V30 12148 H 1146.19 3.127 -0.326532 0
M  V30 12149 N 1149.96 1.53094 0.37415 0
M  V30 12150 C 1150.87 1.81872 1.48188 0
M  V30 12151 C 1151.89 0.706487 1.59012 0
M  V30 12152 O 1153.06 0.995648 1.75068 0
M  V30 12153 C 1150.13 1.99494 2.83554 0
M  V30 12154 C 1149.19 3.23402 2.82329 0
M  V30 12155 C 1148.42 3.40174 4.11239 0
M  V30 12156 O 1148.65 2.61425 5.06965 0
M  V30 12157 O 1147.58 4.33493 4.17573 0
M  V30 12158 H 1151.41 2.75965 1.26795 0
M  V30 12159 H 1148.99 1.38368 0.56343 0
M  V30 12160 H 1150.87 2.12705 3.63778 0
M  V30 12161 H 1149.55 1.08591 3.04942 0
M  V30 12162 H 1148.45 3.15621 2.00834 0
M  V30 12163 H 1149.79 4.14199 2.65894 0
M  V30 12164 N 1151.44 -0.633461 1.44309 0
M  V30 12165 C 1152.39 -1.74554 1.50995 0
M  V30 12166 C 1153.36 -1.62199 0.357873 0
M  V30 12167 O 1154.54 -1.82156 0.567787 0
M  V30 12168 C 1151.68 -3.12792 1.45791 0
M  V30 12169 C 1150.79 -3.3614 2.71356 0
M  V30 12170 C 1149.93 -4.64337 2.58002 0
M  V30 12171 C 1148.97 -4.80855 3.78741 0
M  V30 12172 N 1148.11 -6.00327 3.64077 0
M  V30 12173 H 1152.95 -1.68174 2.46011 0
M  V30 12174 H 1150.48 -0.820407 1.22097 0
M  V30 12175 H 1152.44 -3.92735 1.40765 0
M  V30 12176 H 1151.07 -3.18193 0.543445 0
M  V30 12177 H 1150.12 -2.50154 2.86579 0
M  V30 12178 H 1151.43 -3.44226 3.60985 0
M  V30 12179 H 1150.59 -5.52437 2.50795 0
M  V30 12180 H 1149.33 -4.58605 1.65929 0
M  V30 12181 H 1148.33 -3.91185 3.86334 0
M  V30 12182 H 1149.56 -4.88403 4.71847 0
M  V30 12183 H 1147.5 -5.9569 2.74754 0
M  V30 12184 H 1147.42 -6.09459 4.47321 0
M  V30 12185 H 1148.69 -6.90995 3.60758 0
M  V30 12186 N 1152.92 -1.31168 -0.873655 0
M  V30 12187 C 1154.2 -1.11285 -1.60857 0
M  V30 12188 C 1154.58 0.333788 -2.08444 0
M  V30 12189 O 1153.92 1.32726 -1.86 0
M  V30 12190 C 1154.13 -2.12379 -2.7694 0
M  V30 12191 C 1155.48 -2.44704 -3.46994 0
M  V30 12192 O 1156.51 -2.10778 -2.87143 0
M  V30 12193 O 1155.36 -3.02786 -4.54954 0
M  V30 12194 H 1152.46 -0.428177 -0.707526 0
M  V30 12195 H 1155 -1.42634 -0.91944 0
M  V30 12196 H 1153.78 -3.09703 -2.39164 0
M  V30 12197 H 1153.4 -1.81914 -3.53544 0
M  V30 12198 N 1154.4 1.08748 -1.14068 0
M  V30 12199 C 1155.33 2.17591 -0.84714 0
M  V30 12200 C 1156.31 1.68962 0.196415 0
M  V30 12201 O 1157.49 1.94125 0.0538415 0
M  V30 12202 C 1154.62 3.45823 -0.320005 0
M  V30 12203 C 1153.58 4.07824 -1.2986 0
M  V30 12204 C 1152.9 5.30965 -0.630925 0
M  V30 12205 C 1154.2 4.49512 -2.65963 0
M  V30 12206 H 1155.9 2.42404 -1.75729 0
M  V30 12207 H 1153.44 1.16502 -0.846356 0
M  V30 12208 H 1155.4 4.21276 -0.102271 0
M  V30 12209 H 1154.12 3.20553 0.625561 0
M  V30 12210 H 1152.78 3.34398 -1.50245 0
M  V30 12211 H 1152.43 5.01979 0.320337 0
M  V30 12212 H 1152.13 5.73402 -1.28388 0
M  V30 12213 H 1153.65 6.09136 -0.422635 0
M  V30 12214 H 1155.06 5.16159 -2.49506 0
M  V30 12215 H 1153.46 5.02857 -3.27498 0
M  V30 12216 H 1154.53 3.6157 -3.23102 0
M  V30 12217 N 1155.87 0.935264 1.26849 0
M  V30 12218 C 1157.29 0.623198 1.75992 0
M  V30 12219 C 1157.64 -0.861647 1.76267 0
M  V30 12220 O 1156.76 -1.6743 1.37099 0
M  V30 12221 C 1157.36 1.12451 3.19594 0
M  V30 12222 C 1155.92 0.862974 3.66374 0
M  V30 12223 C 1155.06 1.27886 2.4605 0
M  V30 12224 H 1158.01 1.11422 1.13008 0
M  V30 12225 H 1158.03 0.475626 3.77516 0
M  V30 12226 H 1157.55 2.20522 3.19361 0
M  V30 12227 H 1155.65 -0.203606 3.72043 0
M  V30 12228 H 1155.76 1.48582 4.55478 0
M  V30 12229 H 1154.12 0.697335 2.44968 0
M  V30 12230 H 1154.91 2.36837 2.48522 0
M  V30 12231 N 1157.35 -1.41121 0.701616 0
M  V30 12232 C 1158.28 -2.292 0.000880842 0
M  V30 12233 C 1159.3 -1.45102 -0.738192 0
M  V30 12234 O 1160.49 -1.68541 -0.587891 0
M  V30 12235 C 1157.59 -3.23094 -1.02292 0
M  V30 12236 C 1156.76 -4.35979 -0.352231 0
M  V30 12237 C 1155.82 -5.10408 -1.27947 0
M  V30 12238 O 1154.84 -5.63974 -0.769561 0
M  V30 12239 N 1156.05 -5.18442 -2.61147 0
M  V30 12240 H 1158.81 -2.8998 0.757094 0
M  V30 12241 H 1156.37 -1.52339 0.548126 0
M  V30 12242 H 1158.36 -3.69755 -1.64509 0
M  V30 12243 H 1156.93 -2.6358 -1.68061 0
M  V30 12244 H 1156.15 -3.91624 0.44992 0
M  V30 12245 H 1157.44 -5.08673 0.113882 0
M  V30 12246 H 1156.84 -4.76381 -3.05087 0
M  V30 12247 H 1155.4 -5.68659 -3.18544 0
M  V30 12248 N 1158.83 -0.446794 -1.51134 0
M  V30 12249 C 1159.74 0.36579 -2.31731 0
M  V30 12250 C 1160.76 1.01886 -1.41051 0
M  V30 12251 O 1161.93 1.01216 -1.74119 0
M  V30 12252 C 1159 1.44705 -3.15058 0
M  V30 12253 C 1158.06 0.813129 -4.21529 0
M  V30 12254 C 1157.29 1.84287 -5.00873 0
M  V30 12255 O 1157.51 3.06633 -4.8097 0
M  V30 12256 O 1156.45 1.42816 -5.84711 0
M  V30 12257 H 1160.27 -0.292436 -3.02289 0
M  V30 12258 H 1157.86 -0.209129 -1.47929 0
M  V30 12259 H 1159.74 2.07393 -3.66833 0
M  V30 12260 H 1158.42 2.08919 -2.47254 0
M  V30 12261 H 1157.32 0.147953 -3.73807 0
M  V30 12262 H 1158.66 0.214331 -4.91733 0
M  V30 12263 N 1160.31 1.56586 -0.178487 0
M  V30 12264 C 1161.26 2.19631 0.765822 0
M  V30 12265 C 1162.25 1.16247 1.23219 0
M  V30 12266 O 1163.46 1.34431 1.19701 0
M  V30 12267 H 1159.83 0.703661 0.265264 0
M  V30 12268 H 1161.8 2.97659 0.210207 0
M  V30 12269 C 1160.55 2.85686 1.98188 0
M  V30 12270 H 1159.87 3.64971 1.63206 0
M  V30 12271 H 1161.31 3.33259 2.62134 0
M  V30 12272 C 1159.77 1.85837 2.81009 0
M  V30 12273 O 1160.3 1.3483 3.78396 0
M  V30 12274 N 1158.51 1.54435 2.46167 0
M  V30 12275 H 1158.06 1.96107 1.67032 0
M  V30 12276 H 1158.01 0.878808 3.01868 0
M  V30 12277 N 1161.79 -0.095206 1.57312 0
M  V30 12278 C 1162.7 -1.13388 2.05379 0
M  V30 12279 C 1163.71 -1.43868 0.978668 0
M  V30 12280 O 1164.89 -1.54512 1.29182 0
M  V30 12281 C 1161.95 -2.43444 2.46852 0
M  V30 12282 C 1161.01 -2.20146 3.68557 0
M  V30 12283 C 1160.25 -3.44001 4.08043 0
M  V30 12284 O 1160.47 -4.52233 3.47623 0
M  V30 12285 O 1159.4 -3.33596 5.00997 0
M  V30 12286 H 1163.23 -0.755622 2.9415 0
M  V30 12287 H 1160.82 -0.307707 1.46197 0
M  V30 12288 H 1162.7 -3.20027 2.74155 0
M  V30 12289 H 1161.37 -2.80696 1.61219 0
M  V30 12290 H 1160.28 -1.41345 3.46371 0
M  V30 12291 H 1161.61 -1.87787 4.54969 0
M  V30 12292 N 1163.26 -1.53291 -0.366026 0
M  V30 12293 C 1164.51 -1.69117 -1.10653 0
M  V30 12294 C 1164.83 -0.445327 -1.89847 0
M  V30 12295 O 1164.1 0.540616 -1.88293 0
M  V30 12296 H 1162.68 -0.623446 -0.41149 0
M  V30 12297 H 1165.35 -1.90479 -0.412749 0
M  V30 12298 H 1164.44 -2.55205 -1.79658 0
M  V30 12299 N 1164.74 0.6258 -1.44643 0
M  V30 12300 C 1165.67 1.74858 -1.54748 0
M  V30 12301 C 1166.65 1.65327 -0.400138 0
M  V30 12302 O 1167.84 1.84005 -0.620948 0
M  V30 12303 C 1164.97 3.13408 -1.49643 0
M  V30 12304 C 1163.92 3.37733 -2.62908 0
M  V30 12305 C 1163.25 4.76367 -2.42855 0
M  V30 12306 C 1164.55 3.29771 -4.05029 0
M  V30 12307 H 1166.24 1.66658 -2.48728 0
M  V30 12308 H 1163.79 0.800363 -1.19709 0
M  V30 12309 H 1165.74 3.91735 -1.55312 0
M  V30 12310 H 1164.47 3.22404 -0.521824 0
M  V30 12311 H 1163.12 2.61788 -2.56637 0
M  V30 12312 H 1162.77 4.82074 -1.43575 0
M  V30 12313 H 1162.47 4.936 -3.18799 0
M  V30 12314 H 1164 5.56917 -2.50351 0
M  V30 12315 H 1165.41 3.97996 -4.12641 0
M  V30 12316 H 1163.81 3.58538 -4.81218 0
M  V30 12317 H 1164.88 2.27493 -4.28223 0
M  V30 12318 N 1166.22 1.31629 0.866686 0
M  V30 12319 C 1167.47 1.21683 1.62238 0
M  V30 12320 C 1167.8 -0.223767 1.92907 0
M  V30 12321 O 1167.07 -1.15761 1.563 0
M  V30 12322 C 1167.36 2.06443 2.95048 0
M  V30 12323 C 1167.21 3.58818 2.71237 0
M  V30 12324 C 1168.53 1.91634 3.96187 0
M  V30 12325 H 1165.65 0.443389 0.588707 0
M  V30 12326 H 1168.29 1.61453 1.00164 0
M  V30 12327 H 1166.44 1.72654 3.48027 0
M  V30 12328 H 1168.11 4.0276 2.24905 0
M  V30 12329 H 1166.36 3.82085 2.05411 0
M  V30 12330 H 1167.03 4.13436 3.65752 0
M  V30 12331 H 1169.5 2.21209 3.52428 0
M  V30 12332 H 1168.38 2.53236 4.86993 0
M  V30 12333 H 1168.64 0.880564 4.33242 0
M  V30 12334 N 1167.7 -1.08142 1.14644 0
M  V30 12335 C 1169.11 -1.62061 0.926986 0
M  V30 12336 C 1169.46 -1.88805 -0.533578 0
M  V30 12337 O 1168.59 -1.64753 -1.40305 0
M  V30 12338 C 1169.18 -2.94425 1.67629 0
M  V30 12339 C 1167.74 -3.45118 1.50235 0
M  V30 12340 C 1166.89 -2.19307 1.69705 0
M  V30 12341 H 1169.84 -0.913326 1.29785 0
M  V30 12342 H 1169.86 -3.62987 1.14107 0
M  V30 12343 H 1169.37 -2.74928 2.73927 0
M  V30 12344 H 1167.47 -3.69713 0.462967 0
M  V30 12345 H 1167.59 -4.2169 2.27408 0
M  V30 12346 H 1165.95 -2.28611 1.12291 0
M  V30 12347 H 1166.73 -2.02315 2.77351 0
M  V30 12348 N 1169.18 -0.941978 -1.26351 0
M  V30 12349 C 1170.43 -0.588806 -1.93333 0
M  V30 12350 C 1170.75 0.875067 -1.74263 0
M  V30 12351 O 1170.02 1.62187 -1.09873 0
M  V30 12352 H 1168.6 -0.214774 -0.715459 0
M  V30 12353 H 1171.26 -1.19747 -1.53774 0
M  V30 12354 H 1170.35 -0.807267 -3.01479 0
M  V30 12355 N 1170.66 1.40747 -0.709091 0
M  V30 12356 C 1171.9 2.013 -0.246174 0
M  V30 12357 C 1172.23 1.56078 1.15556 0
M  V30 12358 O 1171.51 0.777941 1.78265 0
M  V30 12359 C 1171.79 3.58685 -0.318945 0
M  V30 12360 C 1171.65 4.13997 -1.75859 0
M  V30 12361 C 1172.96 4.38981 0.31358 0
M  V30 12362 H 1170.08 0.73137 -0.0909255 0
M  V30 12363 H 1172.73 1.67312 -0.900365 0
M  V30 12364 H 1170.88 3.8777 0.23805 0
M  V30 12365 H 1172.55 3.95735 -2.37047 0
M  V30 12366 H 1170.79 3.6853 -2.28841 0
M  V30 12367 H 1171.46 5.23158 -1.76095 0
M  V30 12368 H 1173.94 4.15789 -0.160939 0
M  V30 12369 H 1172.81 5.48409 0.232184 0
M  V30 12370 H 1173.07 4.19474 1.39621 0
M  V30 12371 N 1172.13 0.454803 1.50895 0
M  V30 12372 C 1173.04 -0.353495 2.31921 0
M  V30 12373 C 1174.06 -1.01136 1.41589 0
M  V30 12374 O 1175.24 -1.00291 1.74653 0
M  V30 12375 C 1172.3 -1.43032 3.15821 0
M  V30 12376 C 1171.36 -0.790763 4.21954 0
M  V30 12377 C 1170.59 -1.81628 5.01843 0
M  V30 12378 O 1170.82 -3.04078 4.8259 0
M  V30 12379 O 1169.75 -1.39713 5.8546 0
M  V30 12380 H 1173.58 0.308463 3.02129 0
M  V30 12381 H 1171.16 0.216971 1.47816 0
M  V30 12382 H 1173.04 -2.05444 3.67927 0
M  V30 12383 H 1171.72 -2.07605 2.48358 0
M  V30 12384 H 1170.63 -0.128127 3.73881 0
M  V30 12385 H 1171.96 -0.188251 4.9184 0
M  V30 12386 N 1173.61 -1.56489 0.186789 0
M  V30 12387 C 1174.56 -2.18703 -0.737402 0
M  V30 12388 C 1175.53 -1.13171 -1.21579 0
M  V30 12389 O 1176.71 -1.41388 -1.28118 0
M  V30 12390 C 1173.85 -2.84394 -1.95484 0
M  V30 12391 C 1172.97 -4.04429 -1.51859 0
M  V30 12392 C 1172.1 -4.58001 -2.69089 0
M  V30 12393 C 1171.14 -5.70412 -2.22029 0
M  V30 12394 N 1170.28 -6.18425 -3.32407 0
M  V30 12395 H 1175.12 -2.97327 -0.200105 0
M  V30 12396 H 1172.65 -1.46842 -0.087032 0
M  V30 12397 H 1174.61 -3.20646 -2.66912 0
M  V30 12398 H 1173.24 -2.08347 -2.46559 0
M  V30 12399 H 1172.29 -3.73895 -0.70048 0
M  V30 12400 H 1173.61 -4.85756 -1.13327 0
M  V30 12401 H 1172.76 -4.96515 -3.48652 0
M  V30 12402 H 1171.5 -3.75764 -3.1089 0
M  V30 12403 H 1170.5 -5.31434 -1.40918 0
M  V30 12404 H 1171.73 -6.54461 -1.81268 0
M  V30 12405 H 1169.68 -5.39113 -3.73755 0
M  V30 12406 H 1169.59 -6.94782 -2.98017 0
M  V30 12407 H 1170.86 -6.61592 -4.12209 0
M  V30 12408 N 1175.09 0.086862 -1.5736 0
M  V30 12409 C 1176 1.12297 -2.05977 0
M  V30 12410 C 1177.02 1.43347 -0.986284 0
M  V30 12411 O 1178.19 1.53825 -1.3 0
M  V30 12412 C 1175.26 2.42131 -2.4814 0
M  V30 12413 C 1174.32 2.18189 -3.69719 0
M  V30 12414 C 1173.55 3.41833 -4.09861 0
M  V30 12415 O 1173.77 4.50383 -3.50016 0
M  V30 12416 O 1172.71 3.30934 -5.02759 0
M  V30 12417 H 1176.53 0.740012 -2.94546 0
M  V30 12418 H 1174.12 0.29995 -1.46358 0
M  V30 12419 H 1176 3.18568 -2.75848 0
M  V30 12420 H 1174.68 2.79837 -1.62705 0
M  V30 12421 H 1173.58 1.39506 -3.47115 0
M  V30 12422 H 1174.92 1.85372 -4.55959 0
M  V30 12423 N 1176.57 1.53483 0.357892 0
M  V30 12424 C 1177.48 1.83434 1.4625 0
M  V30 12425 C 1178.49 0.723313 1.58254 0
M  V30 12426 O 1179.67 1.01416 1.74002 0
M  V30 12427 C 1176.73 2.0249 2.81423 0
M  V30 12428 C 1175.8 3.26378 2.78883 0
M  V30 12429 C 1175.03 3.44516 4.07608 0
M  V30 12430 O 1175.25 2.66787 5.04163 0
M  V30 12431 O 1174.19 4.37898 4.12952 0
M  V30 12432 H 1178.01 2.77294 1.23861 0
M  V30 12433 H 1175.6 1.38958 0.548722 0
M  V30 12434 H 1177.48 2.16552 3.61501 0
M  V30 12435 H 1176.15 1.11819 3.03773 0
M  V30 12436 H 1175.06 3.17733 1.97475 0
M  V30 12437 H 1176.39 4.16996 2.61486 0
M  V30 12438 N 1178.05 -0.61812 1.44973 0
M  V30 12439 C 1178.96 -1.7579 1.55355 0
M  V30 12440 C 1179.97 -1.68384 0.438512 0
M  V30 12441 O 1181.15 -1.88928 0.697715 0
M  V30 12442 C 1178.21 -3.1222 1.50729 0
M  V30 12443 C 1177.27 -3.3116 2.73188 0
M  V30 12444 C 1176.51 -4.61082 2.68774 0
M  V30 12445 O 1176.73 -5.42728 1.75507 0
M  V30 12446 O 1175.66 -4.82506 3.59821 0
M  V30 12447 H 1179.49 -1.69983 2.51674 0
M  V30 12448 H 1177.07 -0.780934 1.27365 0
M  V30 12449 H 1178.96 -3.93524 1.5072 0
M  V30 12450 H 1177.63 -3.18541 0.575587 0
M  V30 12451 H 1176.54 -2.49485 2.78762 0
M  V30 12452 H 1177.87 -3.29709 3.65449 0
M  V30 12453 N 1179.52 -1.32087 -0.859693 0
M  V30 12454 C 1180.43 -1.22587 -2.00024 0
M  V30 12455 C 1181.45 -0.140477 -1.73432 0
M  V30 12456 O 1182.63 -0.360213 -1.98153 0
M  V30 12457 C 1179.69 -0.944195 -3.33595 0
M  V30 12458 C 1178.75 -2.11752 -3.73443 0
M  V30 12459 C 1177.98 -1.84919 -5.0064 0
M  V30 12460 O 1178.21 -0.789299 -5.64913 0
M  V30 12461 O 1177.14 -2.70885 -5.37499 0
M  V30 12462 H 1180.97 -2.18457 -2.10974 0
M  V30 12463 H 1178.55 -1.11927 -0.989577 0
M  V30 12464 H 1180.43 -0.803389 -4.13671 0
M  V30 12465 H 1179.11 -0.0156083 -3.23696 0
M  V30 12466 H 1178.02 -2.31378 -2.93965 0
M  V30 12467 H 1179.35 -3.02872 -3.87981 0
M  V30 12468 N 1181 1.07532 -1.15215 0
M  V30 12469 C 1182.25 1.79737 -0.924062 0
M  V30 12470 C 1182.57 1.87072 0.550356 0
M  V30 12471 O 1181.84 1.37029 1.4 0
M  V30 12472 H 1180.42 0.665704 -0.338891 0
M  V30 12473 H 1183.08 1.29961 -1.45245 0
M  V30 12474 H 1182.18 2.82256 -1.33184 0
M  V30 12475 N 1182.48 0.948665 1.2585 0
M  V30 12476 C 1183.44 0.468673 2.24357 0
M  V30 12477 C 1184.44 -0.424355 1.551 0
M  V30 12478 O 1185.63 -0.222481 1.72773 0
M  V30 12479 C 1182.77 -0.32359 3.39361 0
M  V30 12480 H 1183.96 1.33928 2.68334 0
M  V30 12481 H 1181.51 0.731357 1.38133 0
M  V30 12482 H 1182.25 -1.21212 3.00796 0
M  V30 12483 H 1182.03 0.316998 3.90816 0
M  V30 12484 H 1183.52 -0.649087 4.12525 0
M  V30 12485 N 1183.96 -1.40369 0.716545 0
M  V30 12486 C 1185.37 -1.54757 0.390202 0
M  V30 12487 C 1185.57 -1.68767 -1.10091 0
M  V30 12488 O 1184.63 -1.67779 -1.88697 0
M  V30 12489 C 1185.94 -2.77546 1.15709 0
M  V30 12490 C 1187.49 -2.91364 1.14349 0
M  V30 12491 C 1187.97 -4.17068 1.89256 0
M  V30 12492 N 1189.46 -4.2407 1.8633 0
M  V30 12493 C 1190.19 -5.20243 2.41112 0
M  V30 12494 N 1189.69 -6.22318 3.04454 0
M  V30 12495 N 1191.48 -5.12328 2.31249 0
M  V30 12496 H 1183.63 -1.29521 1.68339 0
M  V30 12497 H 1185.9 -0.626382 0.711582 0
M  V30 12498 H 1185.6 -2.73474 2.21144 0
M  V30 12499 H 1185.48 -3.69682 0.749347 0
M  V30 12500 H 1187.86 -2.94939 0.0973383 0
M  V30 12501 H 1187.94 -2.00344 1.59047 0
M  V30 12502 H 1187.59 -4.14255 2.93863 0
M  V30 12503 H 1187.52 -5.07099 1.41978 0
M  V30 12504 H 1190.01 -3.50944 1.40168 0
M  V30 12505 H 1190.32 -6.92129 3.43769 0
M  V30 12506 H 1188.67 -6.22759 3.08538 0
M  V30 12507 H 1191.86 -4.31514 1.8142 0
M  V30 12508 H 1192.03 -5.87107 2.74243 0
M  V30 12509 N 1185.44 -0.462799 -1.50652 0
M  V30 12510 C 1186.85 -0.11648 -1.59174 0
M  V30 12511 C 1187.05 1.37638 -1.47167 0
M  V30 12512 O 1186.11 2.14886 -1.3259 0
M  V30 12513 C 1187.42 -0.659289 -2.93383 0
M  V30 12514 C 1188.97 -0.62198 -3.06758 0
M  V30 12515 C 1189.44 -1.14219 -4.43529 0
M  V30 12516 N 1190.94 -1.10125 -4.49919 0
M  V30 12517 C 1191.67 -1.47436 -5.54121 0
M  V30 12518 N 1191.17 -1.92156 -6.65618 0
M  V30 12519 N 1192.96 -1.39091 -5.44619 0
M  V30 12520 H 1185.11 -1.43383 -1.56701 0
M  V30 12521 H 1187.37 -0.592438 -0.740082 0
M  V30 12522 H 1187.08 -1.70477 -3.07621 0
M  V30 12523 H 1186.95 -0.0982388 -3.77072 0
M  V30 12524 H 1189.34 0.414576 -2.92173 0
M  V30 12525 H 1189.42 -1.21974 -2.24847 0
M  V30 12526 H 1189.07 -2.17734 -4.58862 0
M  V30 12527 H 1189 -0.52073 -5.24019 0
M  V30 12528 H 1191.49 -0.773154 -3.69906 0
M  V30 12529 H 1191.8 -2.18796 -7.4118 0
M  V30 12530 H 1190.14 -1.96103 -6.6676 0
M  V30 12531 H 1193.34 -1.04001 -4.564 0
M  V30 12532 H 1193.51 -1.68496 -6.2571 0
M  V30 12533 N 1186.91 1.56388 -0.195085 0
M  V30 12534 C 1187.82 2.22698 0.737743 0
M  V30 12535 C 1188.84 1.22605 1.23466 0
M  V30 12536 O 1190.02 1.55342 1.28183 0
M  V30 12537 C 1187.08 2.87333 1.94011 0
M  V30 12538 C 1186.14 4.02696 1.48776 0
M  V30 12539 C 1185.38 4.64239 2.63282 0
M  V30 12540 O 1185.6 4.24706 3.80763 0
M  V30 12541 O 1184.53 5.53705 2.35996 0
M  V30 12542 H 1188.36 3.03021 0.203013 0
M  V30 12543 H 1185.94 1.49361 0.0342044 0
M  V30 12544 H 1187.83 3.28226 2.64284 0
M  V30 12545 H 1186.5 2.0999 2.46345 0
M  V30 12546 H 1185.41 3.66426 0.753839 0
M  V30 12547 H 1186.74 4.81703 1.01109 0
M  V30 12548 N 1188.39 -0.0785156 1.57404 0
M  V30 12549 C 1189.64 -0.777399 1.8655 0
M  V30 12550 C 1189.96 -1.78451 0.786142 0
M  V30 12551 O 1189.23 -1.95016 -0.185911 0
M  V30 12552 H 1187.81 -0.290097 0.688369 0
M  V30 12553 H 1190.47 -0.0562017 1.94819 0
M  V30 12554 H 1189.57 -1.29776 2.83839 0
M  V30 12555 N 1189.87 -1.5367 -0.349747 0
M  V30 12556 C 1190.83 -1.80533 -1.41211 0
M  V30 12557 C 1191.83 -0.676188 -1.45892 0
M  V30 12558 O 1193.02 -0.944453 -1.46375 0
M  V30 12559 C 1190.16 -1.94175 -2.80195 0
M  V30 12560 H 1191.35 -2.75428 -1.18658 0
M  V30 12561 H 1188.9 -1.44988 -0.583787 0
M  V30 12562 H 1189.64 -1.01402 -3.08039 0
M  V30 12563 H 1189.42 -2.76316 -2.78194 0
M  V30 12564 H 1190.91 -2.16496 -3.57098 0
M  V30 12565 N 1191.35 0.610423 -1.45298 0
M  V30 12566 C 1192.63 1.36966 -1.39641 0
M  V30 12567 C 1193.01 2.10998 -0.0655757 0
M  V30 12568 O 1192.35 2.07705 0.952407 0
M  V30 12569 C 1192.56 2.31885 -2.60826 0
M  V30 12570 C 1193.91 2.9458 -3.05791 0
M  V30 12571 O 1194.94 2.42207 -2.61179 0
M  V30 12572 O 1193.79 3.89639 -3.83202 0
M  V30 12573 H 1190.89 0.61401 -0.554004 0
M  V30 12574 H 1193.43 0.633748 -1.57422 0
M  V30 12575 H 1192.21 1.76421 -3.49272 0
M  V30 12576 H 1191.83 3.12861 -2.45364 0
M  V30 12577 N 1192.83 1.32541 0.852676 0
M  V30 12578 C 1193.76 1.15977 1.96531 0
M  V30 12579 C 1194.74 0.0587267 1.62494 0
M  V30 12580 O 1195.92 0.218404 1.8723 0
M  V30 12581 C 1193.05 0.77587 3.29694 0
M  V30 12582 C 1192.09 1.88244 3.82709 0
M  V30 12583 S 1192.93 3.49108 4.06059 0
M  V30 12584 C 1194.08 3.12693 5.42193 0
M  V30 12585 H 1194.32 2.10165 2.1028 0
M  V30 12586 H 1191.85 1.17225 1.00487 0
M  V30 12587 H 1193.81 0.561136 4.06647 0
M  V30 12588 H 1192.47 -0.14718 3.13755 0
M  V30 12589 H 1191.66 1.56687 4.79025 0
M  V30 12590 H 1191.26 2.05313 3.12606 0
M  V30 12591 H 1193.56 2.62661 6.24512 0
M  V30 12592 H 1194.5 4.08038 5.78714 0
M  V30 12593 H 1194.91 2.4966 5.06291 0
M  V30 12594 N 1194.3 -1.0692 1.15784 0
M  V30 12595 C 1195.21 -2.17762 0.872753 0
M  V30 12596 C 1196.23 -1.73329 -0.152608 0
M  V30 12597 O 1197.41 -2.01387 0.022519 0
M  V30 12598 C 1194.47 -3.4471 0.370887 0
M  V30 12599 C 1193.53 -4.03686 1.46069 0
M  V30 12600 C 1192.77 -5.24575 0.982675 0
M  V30 12601 O 1192.99 -5.70146 -0.17006 0
M  V30 12602 O 1191.92 -5.7534 1.76828 0
M  V30 12603 H 1195.75 -2.44648 1.79948 0
M  V30 12604 H 1193.33 -1.1634 0.937303 0
M  V30 12605 H 1195.22 -4.21287 0.0976779 0
M  V30 12606 H 1193.89 -3.19366 -0.527912 0
M  V30 12607 H 1192.8 -3.28629 1.78756 0
M  V30 12608 H 1194.13 -4.33312 2.33456 0
M  V30 12609 N 1195.78 -0.955326 -1.25345 0
M  V30 12610 C 1196.69 -0.482707 -2.2958 0
M  V30 12611 C 1197.71 0.450283 -1.68073 0
M  V30 12612 O 1198.88 0.326358 -1.98738 0
M  V30 12613 C 1195.95 0.231293 -3.45928 0
M  V30 12614 C 1195.01 -0.739995 -4.22874 0
M  V30 12615 C 1194.24 -0.0599748 -5.33666 0
M  V30 12616 O 1194.47 1.15423 -5.586 0
M  V30 12617 O 1193.4 -0.745865 -5.97261 0
M  V30 12618 H 1197.23 -1.34892 -2.72099 0
M  V30 12619 H 1194.81 -0.721812 -1.30806 0
M  V30 12620 H 1196.69 0.632908 -4.1662 0
M  V30 12621 H 1195.37 1.07267 -3.0541 0
M  V30 12622 H 1194.28 -1.19183 -3.54607 0
M  V30 12623 H 1195.61 -1.54941 -4.67177 0
M  V30 12624 N 1197.26 1.39987 -0.723979 0
M  V30 12625 C 1198.17 2.3447 -0.0780936 0
M  V30 12626 C 1199.19 1.57744 0.734368 0
M  V30 12627 O 1200.36 1.90091 0.665385 0
M  V30 12628 C 1197.43 3.36705 0.826492 0
M  V30 12629 C 1196.49 4.293 0.00303036 0
M  V30 12630 C 1195.72 5.26651 0.864535 0
M  V30 12631 O 1195.95 5.30194 2.10357 0
M  V30 12632 O 1194.88 6.01157 0.299057 0
M  V30 12633 H 1198.71 2.91338 -0.857646 0
M  V30 12634 H 1196.29 1.41324 -0.484536 0
M  V30 12635 H 1198.17 3.9938 1.34439 0
M  V30 12636 H 1196.85 2.82237 1.58505 0
M  V30 12637 H 1195.75 3.69883 -0.560136 0
M  V30 12638 H 1197.09 4.86942 -0.717494 0
M  V30 12639 N 1198.74 0.470782 1.50404 0
M  V30 12640 C 1199.65 -0.328877 2.32283 0
M  V30 12641 C 1200.67 -0.99629 1.42654 0
M  V30 12642 O 1201.84 -0.984331 1.75707 0
M  V30 12643 C 1198.91 -1.39675 3.1732 0
M  V30 12644 C 1197.97 -0.745965 4.22769 0
M  V30 12645 C 1197.2 -1.76295 5.03742 0
M  V30 12646 O 1197.42 -2.98943 4.85788 0
M  V30 12647 O 1196.36 -1.33495 5.86909 0
M  V30 12648 H 1200.18 0.340491 3.01785 0
M  V30 12649 H 1197.77 0.232637 1.47578 0
M  V30 12650 H 1199.65 -2.0153 3.70086 0
M  V30 12651 H 1198.33 -2.04959 2.50546 0
M  V30 12652 H 1197.23 -0.0884647 3.73995 0
M  V30 12653 H 1198.57 -0.136074 4.92012 0
M  V30 12654 N 1200.22 -1.56282 0.203376 0
M  V30 12655 C 1201.13 -2.23086 -0.725922 0
M  V30 12656 C 1202.14 -1.23258 -1.22814 0
M  V30 12657 O 1203.32 -1.5602 -1.27357 0
M  V30 12658 C 1200.38 -2.88358 -1.92485 0
M  V30 12659 C 1199.45 -4.03479 -1.46639 0
M  V30 12660 C 1198.68 -4.65629 -2.60816 0
M  V30 12661 O 1198.9 -4.2672 -3.78506 0
M  V30 12662 O 1197.84 -5.54949 -2.33056 0
M  V30 12663 H 1201.66 -3.03124 -0.18694 0
M  V30 12664 H 1199.25 -1.49377 -0.0262829 0
M  V30 12665 H 1201.13 -3.29623 -2.62539 0
M  V30 12666 H 1199.8 -2.11294 -2.45228 0
M  V30 12667 H 1198.71 -3.66821 -0.734396 0
M  V30 12668 H 1200.04 -4.82232 -0.985535 0
M  V30 12669 N 1201.7 0.070167 -1.57444 0
M  V30 12670 C 1202.61 1.10106 -2.07157 0
M  V30 12671 C 1203.62 1.42293 -1.00143 0
M  V30 12672 O 1204.8 1.52437 -1.31624 0
M  V30 12673 C 1201.86 2.39486 -2.50694 0
M  V30 12674 C 1200.92 2.14255 -3.72012 0
M  V30 12675 C 1200.16 3.37466 -4.13464 0
M  V30 12676 O 1200.38 4.46645 -3.54773 0
M  V30 12677 O 1199.31 3.25583 -5.0624 0
M  V30 12678 H 1203.14 0.70873 -2.95315 0
M  V30 12679 H 1200.72 0.28441 -1.46668 0
M  V30 12680 H 1202.61 3.15625 -2.79212 0
M  V30 12681 H 1201.28 2.78095 -1.65664 0
M  V30 12682 H 1200.19 1.35816 -3.48575 0
M  V30 12683 H 1201.52 1.80525 -4.57899 0
M  V30 12684 N 1203.17 1.53854 0.341593 0
M  V30 12685 C 1204.08 1.84975 1.44297 0
M  V30 12686 C 1205.1 0.740057 1.57477 0
M  V30 12687 O 1206.28 1.03256 1.72917 0
M  V30 12688 C 1203.34 2.05464 2.79259 0
M  V30 12689 C 1202.4 3.29318 2.75405 0
M  V30 12690 C 1201.63 3.4882 4.03931 0
M  V30 12691 O 1201.86 2.7212 5.01305 0
M  V30 12692 O 1200.79 4.42253 4.08284 0
M  V30 12693 H 1204.62 2.78592 1.20913 0
M  V30 12694 H 1202.2 1.39532 0.533953 0
M  V30 12695 H 1204.08 2.20374 3.59184 0
M  V30 12696 H 1202.76 1.15035 3.0257 0
M  V30 12697 H 1201.67 3.1981 1.94094 0
M  V30 12698 H 1203 4.19746 2.57049 0
M  V30 12699 N 1204.65 -0.602709 1.4562 0
M  V30 12700 C 1205.56 -1.74132 1.5721 0
M  V30 12701 C 1206.58 -1.67909 0.456347 0
M  V30 12702 O 1207.75 -1.88178 0.717714 0
M  V30 12703 C 1204.82 -3.10604 1.54032 0
M  V30 12704 C 1203.88 -3.28244 2.76685 0
M  V30 12705 C 1203.11 -4.58205 2.73649 0
M  V30 12706 O 1203.34 -5.40836 1.81254 0
M  V30 12707 O 1202.27 -4.78663 3.64919 0
M  V30 12708 H 1206.1 -1.67304 2.53462 0
M  V30 12709 H 1203.68 -0.767381 1.28186 0
M  V30 12710 H 1205.56 -3.91904 1.54885 0
M  V30 12711 H 1204.24 -3.17913 0.60934 0
M  V30 12712 H 1203.14 -2.46514 2.81393 0
M  V30 12713 H 1204.48 -3.25814 3.68925 0
M  V30 12714 N 1206.13 -1.32992 -0.845635 0
M  V30 12715 C 1207.04 -1.24701 -1.98713 0
M  V30 12716 C 1208.06 -0.158864 -1.73273 0
M  V30 12717 O 1209.23 -0.381209 -1.97759 0
M  V30 12718 C 1206.3 -0.979524 -3.32575 0
M  V30 12719 C 1205.36 -2.15701 -3.71176 0
M  V30 12720 C 1204.59 -1.90219 -4.98651 0
M  V30 12721 O 1204.81 -0.849171 -5.64044 0
M  V30 12722 O 1203.75 -2.76571 -5.34595 0
M  V30 12723 H 1207.57 -2.20683 -2.08645 0
M  V30 12724 H 1205.16 -1.12971 -0.97765 0
M  V30 12725 H 1207.04 -0.847219 -4.12796 0
M  V30 12726 H 1205.72 -0.0499398 -3.23661 0
M  V30 12727 H 1204.62 -2.34483 -2.91494 0
M  V30 12728 H 1205.96 -3.0697 -3.84747 0
M  V30 12729 N 1207.61 1.06304 -1.1635 0
M  V30 12730 C 1208.52 2.17296 -0.884289 0
M  V30 12731 C 1209.53 1.73408 0.143414 0
M  V30 12732 O 1210.71 2.01373 -0.0331987 0
M  V30 12733 C 1207.77 3.44509 -0.389163 0
M  V30 12734 C 1206.84 4.02906 -1.48208 0
M  V30 12735 C 1206.07 5.24047 -1.01048 0
M  V30 12736 O 1206.29 5.70229 0.139821 0
M  V30 12737 O 1205.23 5.74394 -1.79876 0
M  V30 12738 H 1209.05 2.4369 -1.81243 0
M  V30 12739 H 1206.64 1.15841 -0.943459 0
M  V30 12740 H 1208.52 4.21229 -0.120018 0
M  V30 12741 H 1207.19 3.19642 0.510968 0
M  V30 12742 H 1206.1 3.27677 -1.80496 0
M  V30 12743 H 1207.43 4.32068 -2.35751 0
M  V30 12744 N 1209.09 0.96196 1.24836 0
M  V30 12745 C 1210 0.494876 2.29321 0
M  V30 12746 C 1211.01 -0.441363 1.68309 0
M  V30 12747 O 1212.19 -0.315814 1.98908 0
M  V30 12748 C 1209.25 -0.212944 3.46045 0
M  V30 12749 C 1208.31 0.762411 4.22476 0
M  V30 12750 C 1207.55 0.0882756 5.33627 0
M  V30 12751 O 1207.77 -1.12459 5.59204 0
M  V30 12752 O 1206.7 0.777529 5.96857 0
M  V30 12753 H 1210.53 1.36333 2.7138 0
M  V30 12754 H 1208.11 0.728738 1.30421 0
M  V30 12755 H 1210 -0.610805 4.1695 0
M  V30 12756 H 1208.67 -1.05645 3.05975 0
M  V30 12757 H 1207.58 1.21062 3.5397 0
M  V30 12758 H 1208.91 1.57416 4.66349 0
M  V30 12759 N 1210.56 -1.39601 0.731392 0
M  V30 12760 C 1211.47 -2.34425 0.090527 0
M  V30 12761 C 1212.49 -1.58131 -0.725992 0
M  V30 12762 O 1213.67 -1.90441 -0.655294 0
M  V30 12763 C 1210.73 -3.37138 -0.808624 0
M  V30 12764 C 1209.79 -4.29295 0.0197365 0
M  V30 12765 C 1209.02 -5.27102 -0.836593 0
M  V30 12766 O 1209.25 -5.31302 -2.07543 0
M  V30 12767 O 1208.18 -6.01307 -0.267172 0
M  V30 12768 H 1212.01 -2.9088 0.873084 0
M  V30 12769 H 1209.59 -1.41066 0.492024 0
M  V30 12770 H 1211.47 -4.00087 -1.32319 0
M  V30 12771 H 1210.15 -2.83074 -1.57006 0
M  V30 12772 H 1209.06 -3.69581 0.579744 0
M  V30 12773 H 1210.39 -4.86555 0.743308 0
M  V30 12774 N 1212.04 -0.478751 -1.50152 0
M  V30 12775 C 1212.95 0.316554 -2.32455 0
M  V30 12776 C 1213.97 0.98871 -1.4318 0
M  V30 12777 O 1215.14 0.974998 -1.76226 0
M  V30 12778 C 1212.21 1.3799 -3.18056 0
M  V30 12779 C 1211.27 0.723534 -4.23159 0
M  V30 12780 C 1210.5 1.73621 -5.0467 0
M  V30 12781 O 1210.73 2.96362 -4.87366 0
M  V30 12782 O 1209.66 1.30381 -5.87609 0
M  V30 12783 H 1213.49 -0.356491 -3.016 0
M  V30 12784 H 1211.07 -0.24046 -1.47452 0
M  V30 12785 H 1212.95 1.99565 -3.71149 0
M  V30 12786 H 1211.63 2.03627 -2.5163 0
M  V30 12787 H 1210.54 0.0686296 -3.74037 0
M  V30 12788 H 1211.87 0.109979 -4.92077 0
M  V30 12789 N 1213.52 1.56172 -0.211661 0
M  V30 12790 C 1214.43 2.23468 0.714081 0
M  V30 12791 C 1215.45 1.23908 1.22159 0
M  V30 12792 O 1216.62 1.56693 1.26528 0
M  V30 12793 C 1213.69 2.89375 1.90953 0
M  V30 12794 C 1212.75 4.04251 1.44497 0
M  V30 12795 C 1211.98 4.67006 2.58343 0
M  V30 12796 O 1212.2 4.28721 3.76237 0
M  V30 12797 O 1211.14 5.56177 2.3011 0
M  V30 12798 H 1214.96 3.03219 0.170862 0
M  V30 12799 H 1212.55 1.49389 0.0183607 0
M  V30 12800 H 1214.43 3.3101 2.60787 0
M  V30 12801 H 1213.11 2.12591 2.44104 0
M  V30 12802 H 1212.01 3.67205 0.714932 0
M  V30 12803 H 1213.35 4.82748 0.959947 0
M  V30 12804 N 1215 -0.0618163 1.57479 0
M  V30 12805 C 1215.91 -1.09006 2.07738 0
M  V30 12806 C 1216.92 -1.4176 1.00896 0
M  V30 12807 O 1218.1 -1.51737 1.32431 0
M  V30 12808 C 1215.17 -2.38153 2.5196 0
M  V30 12809 C 1214.23 -2.12279 3.73143 0
M  V30 12810 C 1213.46 -3.35269 4.15248 0
M  V30 12811 O 1213.68 -4.44758 3.57137 0
M  V30 12812 O 1212.62 -3.22894 5.0796 0
M  V30 12813 H 1216.44 -0.693059 2.95686 0
M  V30 12814 H 1214.03 -0.276628 1.46817 0
M  V30 12815 H 1215.91 -3.14139 2.80882 0
M  V30 12816 H 1214.58 -2.77213 1.67137 0
M  V30 12817 H 1213.49 -1.33966 3.49291 0
M  V30 12818 H 1214.82 -1.78094 4.5885 0
M  V30 12819 N 1216.48 -1.54033 -0.333429 0
M  V30 12820 C 1217.39 -1.85737 -1.43314 0
M  V30 12821 C 1218.4 -0.748398 -1.57083 0
M  V30 12822 O 1219.58 -1.04171 -1.72367 0
M  V30 12823 C 1216.64 -2.06942 -2.78165 0
M  V30 12824 C 1215.7 -3.30774 -2.73655 0
M  V30 12825 C 1214.94 -3.50957 -4.02075 0
M  V30 12826 O 1215.16 -2.74774 -4.99855 0
M  V30 12827 O 1214.09 -4.44412 -4.05933 0
M  V30 12828 H 1217.92 -2.7923 -1.19434 0
M  V30 12829 H 1215.51 -1.39814 -0.526546 0
M  V30 12830 H 1217.39 -2.22276 -3.58011 0
M  V30 12831 H 1216.06 -1.16638 -3.01956 0
M  V30 12832 H 1214.97 -3.20835 -1.92395 0
M  V30 12833 H 1216.3 -4.21103 -2.54819 0
M  V30 12834 N 1217.95 0.594978 -1.45938 0
M  V30 12835 C 1218.86 1.73296 -1.58132 0
M  V30 12836 C 1219.88 1.67665 -0.465245 0
M  V30 12837 O 1221.06 1.87794 -0.727684 0
M  V30 12838 C 1218.12 3.09783 -1.55677 0
M  V30 12839 C 1217.18 3.26772 -2.78422 0
M  V30 12840 C 1216.42 4.56748 -2.76075 0
M  V30 12841 O 1216.64 5.39867 -1.84119 0
M  V30 12842 O 1215.57 4.76721 -3.67452 0
M  V30 12843 H 1219.4 1.65957 -2.54346 0
M  V30 12844 H 1216.98 0.760572 -1.28591 0
M  V30 12845 H 1218.87 3.91077 -1.56961 0
M  V30 12846 H 1217.54 3.17585 -0.626191 0
M  V30 12847 H 1216.45 2.45018 -2.82696 0
M  V30 12848 H 1217.78 3.23853 -3.70648 0
M  V30 12849 N 1219.43 1.33438 0.838571 0
M  V30 12850 C 1220.68 1.24665 1.59069 0
M  V30 12851 C 1221 -0.187433 1.94097 0
M  V30 12852 O 1220.27 -1.11625 1.60987 0
M  V30 12853 H 1218.85 0.45843 0.589789 0
M  V30 12854 H 1221.51 1.67161 1.00216 0
M  V30 12855 H 1220.61 1.84057 2.52051 0
M  V30 12856 N 1220.91 -1.05686 1.16912 0
M  V30 12857 C 1221.87 -2.11481 0.883647 0
M  V30 12858 C 1222.87 -1.60321 -0.124034 0
M  V30 12859 O 1224.06 -1.73868 0.107566 0
M  V30 12860 C 1221.2 -3.3937 0.322649 0
M  V30 12861 H 1222.39 -2.38239 1.8216 0
M  V30 12862 H 1219.94 -1.2185 0.978895 0
M  V30 12863 H 1220.68 -3.18266 -0.622695 0
M  V30 12864 H 1220.46 -3.77812 1.04883 0
M  V30 12865 H 1221.95 -4.17362 0.141072 0
M  V30 12866 N 1222.39 -0.968567 -1.24324 0
M  V30 12867 C 1223.64 -0.629682 -1.9204 0
M  V30 12868 C 1223.96 0.837906 -1.7608 0
M  V30 12869 O 1223.23 1.5982 -1.13289 0
M  V30 12870 H 1221.81 -0.229901 -0.710742 0
M  V30 12871 H 1224.47 -1.22982 -1.512 0
M  V30 12872 H 1223.57 -0.871034 -2.99699 0
M  V30 12873 N 1223.87 1.39211 -0.738786 0
M  V30 12874 C 1225.11 2.0004 -0.28782 0
M  V30 12875 C 1225.44 1.58921 1.13 0
M  V30 12876 O 1224.71 0.839193 1.77015 0
M  V30 12877 H 1223.29 0.739805 -0.103425 0
M  V30 12878 H 1225.95 1.70202 -0.949587 0
M  V30 12879 H 1225.04 3.10251 -0.339208 0
M  V30 12880 N 1225.34 0.486708 1.49896 0
M  V30 12881 C 1226.59 -0.0629451 2.02702 0
M  V30 12882 C 1226.92 -1.37956 1.36681 0
M  V30 12883 O 1226.2 -1.88025 0.497678 0
M  V30 12884 C 1226.48 -0.230461 3.59362 0
M  V30 12885 C 1226.33 1.10828 4.35933 0
M  V30 12886 C 1227.65 -0.977785 4.29101 0
M  V30 12887 H 1224.77 -0.0214017 0.736689 0
M  V30 12888 H 1227.41 0.635339 1.79063 0
M  V30 12889 H 1225.56 -0.825222 3.79634 0
M  V30 12890 H 1227.24 1.74082 4.27192 0
M  V30 12891 H 1225.48 1.7011 3.99055 0
M  V30 12892 H 1226.15 0.944532 5.43859 0
M  V30 12893 H 1228.63 -0.473505 4.13397 0
M  V30 12894 H 1227.5 -1.06382 5.38492 0
M  V30 12895 H 1227.76 -2.01813 3.9335 0
M  V30 12896 N 1226.82 -1.56058 0.219941 0
M  V30 12897 C 1227.73 -2.23844 -0.70222 0
M  V30 12898 C 1228.75 -1.24554 -1.215 0
M  V30 12899 O 1229.93 -1.57362 -1.25695 0
M  V30 12900 C 1226.99 -2.90384 -1.89416 0
M  V30 12901 C 1226.05 -4.05012 -1.42351 0
M  V30 12902 C 1225.28 -4.68369 -2.55863 0
M  V30 12903 O 1225.51 -4.3071 -3.73958 0
M  V30 12904 O 1224.44 -5.5739 -2.27157 0
M  V30 12905 H 1228.27 -3.03305 -0.15478 0
M  V30 12906 H 1225.85 -1.49396 -0.010438 0
M  V30 12907 H 1227.73 -3.32389 -2.59028 0
M  V30 12908 H 1226.41 -2.13883 -2.42973 0
M  V30 12909 H 1225.32 -3.67579 -0.695448 0
M  V30 12910 H 1226.65 -4.83251 -0.934332 0
M  V30 12911 N 1228.3 0.053464 -1.57509 0
M  V30 12912 C 1229.23 1.06151 -2.07977 0
M  V30 12913 C 1230.21 1.3924 -0.977047 0
M  V30 12914 O 1231.4 1.48549 -1.25087 0
M  V30 12915 C 1228.53 2.36969 -2.53895 0
M  V30 12916 C 1227.48 2.18186 -3.6821 0
M  V30 12917 C 1226.81 3.54551 -4.00247 0
M  V30 12918 C 1228.11 1.588 -4.97574 0
M  V30 12919 H 1229.8 0.641483 -2.92447 0
M  V30 12920 H 1227.35 0.307122 -1.40687 0
M  V30 12921 H 1229.3 3.07797 -2.87817 0
M  V30 12922 H 1228.02 2.80986 -1.66476 0
M  V30 12923 H 1226.68 1.49796 -3.34599 0
M  V30 12924 H 1226.33 3.96171 -3.09932 0
M  V30 12925 H 1226.03 3.42816 -4.77232 0
M  V30 12926 H 1227.56 4.2678 -4.36682 0
M  V30 12927 H 1228.97 2.19515 -5.29609 0
M  V30 12928 H 1227.37 1.57711 -5.79006 0
M  V30 12929 H 1228.44 0.551254 -4.81756 0
M  V30 12930 N 1229.78 1.54207 0.325255 0
M  V30 12931 C 1230.71 1.86467 1.40543 0
M  V30 12932 C 1231.69 0.721324 1.54048 0
M  V30 12933 O 1232.88 0.974905 1.67956 0
M  V30 12934 C 1230.01 2.09052 2.77335 0
M  V30 12935 C 1228.96 3.24893 2.78619 0
M  V30 12936 C 1228.29 3.32846 4.1847 0
M  V30 12937 C 1229.59 4.62582 2.42518 0
M  V30 12938 H 1231.28 2.76932 1.13794 0
M  V30 12939 H 1228.83 1.33248 0.545971 0
M  V30 12940 H 1230.78 2.30204 3.52964 0
M  V30 12941 H 1229.5 1.15335 3.05558 0
M  V30 12942 H 1228.16 3.03625 2.05444 0
M  V30 12943 H 1227.81 2.3669 4.43832 0
M  V30 12944 H 1227.51 4.10701 4.20237 0
M  V30 12945 H 1229.03 3.56231 4.95915 0
M  V30 12946 H 1230.45 4.83627 3.07861 0
M  V30 12947 H 1228.84 5.42974 2.55538 0
M  V30 12948 H 1229.91 4.64946 1.3767 0
M  V30 12949 N 1231.26 -0.58723 1.46251 0
M  V30 12950 C 1232.19 -1.71103 1.52501 0
M  V30 12951 C 1233.2 -1.57454 0.413772 0
M  V30 12952 O 1234.39 -1.64962 0.681902 0
M  V30 12953 C 1231.49 -3.0931 1.38493 0
M  V30 12954 C 1230.66 -3.49005 2.63655 0
M  V30 12955 C 1229.72 -4.66255 2.43911 0
M  V30 12956 O 1228.75 -4.72344 3.17616 0
M  V30 12957 N 1229.95 -5.60843 1.49784 0
M  V30 12958 H 1232.72 -1.66198 2.49396 0
M  V30 12959 H 1230.28 -0.773087 1.4225 0
M  V30 12960 H 1232.27 -3.85535 1.23064 0
M  V30 12961 H 1230.84 -3.08608 0.497963 0
M  V30 12962 H 1230.06 -2.62533 2.94058 0
M  V30 12963 H 1231.35 -3.72291 3.4681 0
M  V30 12964 H 1230.75 -5.58656 0.889972 0
M  V30 12965 H 1229.3 -6.36517 1.4032 0
M  V30 12966 N 1232.74 -1.33881 -0.831482 0
M  V30 12967 C 1233.65 -1.26802 -1.97379 0
M  V30 12968 C 1234.66 -0.177233 -1.73095 0
M  V30 12969 O 1235.84 -0.402163 -1.97344 0
M  V30 12970 C 1232.9 -1.01474 -3.31517 0
M  V30 12971 C 1231.96 -2.19626 -3.68867 0
M  V30 12972 C 1231.2 -1.95497 -4.96605 0
M  V30 12973 O 1231.42 -0.908948 -5.63111 0
M  V30 12974 O 1230.35 -2.82226 -5.31632 0
M  V30 12975 H 1234.18 -2.22883 -2.06293 0
M  V30 12976 H 1231.76 -1.14001 -0.965613 0
M  V30 12977 H 1233.65 -0.890954 -4.11874 0
M  V30 12978 H 1232.32 -0.0842656 -3.2359 0
M  V30 12979 H 1231.23 -2.37561 -2.88991 0
M  V30 12980 H 1232.56 -3.11034 -3.81469 0
M  V30 12981 N 1234.21 1.05064 -1.1747 0
M  V30 12982 C 1235.46 1.78352 -0.965311 0
M  V30 12983 C 1235.79 1.87527 0.504707 0
M  V30 12984 O 1235.07 1.376 1.37465 0
M  V30 12985 C 1235.35 3.22173 -1.60862 0
M  V30 12986 C 1235.2 3.21003 -3.15083 0
M  V30 12987 C 1236.52 4.2004 -1.31358 0
M  V30 12988 H 1233.64 0.647452 -0.352101 0
M  V30 12989 H 1236.28 1.22794 -1.44988 0
M  V30 12990 H 1234.43 3.69613 -1.19658 0
M  V30 12991 H 1236.11 2.81629 -3.65353 0
M  V30 12992 H 1234.35 2.59309 -3.47766 0
M  V30 12993 H 1235.02 4.22516 -3.55224 0
M  V30 12994 H 1237.5 3.81099 -1.6704 0
M  V30 12995 H 1236.37 5.1891 -1.78953 0
M  V30 12996 H 1236.63 4.41477 -0.234606 0
M  V30 12997 N 1235.69 0.975146 1.23809 0
M  V30 12998 C 1236.94 0.642074 1.92367 0
M  V30 12999 C 1237.27 -0.82164 1.75962 0
M  V30 13000 O 1236.55 -1.59205 1.11732 0
M  V30 13001 C 1236.83 1.02677 3.45151 0
M  V30 13002 C 1236.68 2.54773 3.7069 0
M  V30 13003 C 1238 0.5668 4.36435 0
M  V30 13004 H 1235.12 0.234735 0.698619 0
M  V30 13005 H 1237.76 1.21549 1.46034 0
M  V30 13006 H 1235.91 0.538846 3.84745 0
M  V30 13007 H 1237.58 3.11099 3.4061 0
M  V30 13008 H 1235.83 2.97641 3.15583 0
M  V30 13009 H 1236.5 2.7674 4.77618 0
M  V30 13010 H 1238.97 0.985635 4.04258 0
M  V30 13011 H 1237.85 0.864458 5.4205 0
M  V30 13012 H 1238.11 -0.532989 4.38875 0
M  V30 13013 N 1237.17 -1.38817 0.746158 0
M  V30 13014 C 1238.58 -1.83045 0.367629 0
M  V30 13015 C 1238.93 -1.62285 -1.10263 0
M  V30 13016 O 1238.06 -1.12001 -1.85162 0
M  V30 13017 C 1238.65 -3.323 0.660482 0
M  V30 13018 C 1237.21 -3.74903 0.335318 0
M  V30 13019 C 1236.36 -2.61683 0.917446 0
M  V30 13020 H 1239.31 -1.27651 0.94291 0
M  V30 13021 H 1239.33 -3.80446 -0.0639061 0
M  V30 13022 H 1238.84 -3.47377 1.73062 0
M  V30 13023 H 1236.94 -3.65408 -0.728538 0
M  V30 13024 H 1237.06 -4.71932 0.825677 0
M  V30 13025 H 1235.42 -2.52376 0.343316 0
M  V30 13026 H 1236.2 -2.79563 1.99247 0
M  V30 13027 N 1238.65 -0.49465 -1.49636 0
M  V30 13028 C 1239.59 0.287153 -2.29007 0
M  V30 13029 C 1240.56 0.966099 -1.35114 0
M  V30 13030 O 1241.75 0.973991 -1.64067 0
M  V30 13031 C 1238.89 1.34941 -3.17624 0
M  V30 13032 C 1238 0.682879 -4.26569 0
M  V30 13033 C 1237.14 1.72503 -5.0241 0
M  V30 13034 C 1236.18 1.04003 -6.032 0
M  V30 13035 N 1235.31 2.0261 -6.7223 0
M  V30 13036 H 1240.15 -0.395941 -2.95358 0
M  V30 13037 H 1237.69 -0.207103 -1.45635 0
M  V30 13038 H 1239.65 1.9772 -3.67372 0
M  V30 13039 H 1238.28 2.00135 -2.5327 0
M  V30 13040 H 1237.33 -0.0580477 -3.80356 0
M  V30 13041 H 1238.64 0.143334 -4.98594 0
M  V30 13042 H 1237.8 2.42804 -5.55996 0
M  V30 13043 H 1236.54 2.29843 -4.30144 0
M  V30 13044 H 1235.54 0.322765 -5.48852 0
M  V30 13045 H 1236.77 0.473219 -6.77449 0
M  V30 13046 H 1234.71 2.58922 -6.0274 0
M  V30 13047 H 1234.63 1.53704 -7.4021 0
M  V30 13048 H 1235.9 2.72218 -7.30423 0
M  V30 13049 N 1240.13 1.55939 -0.228214 0
M  V30 13050 C 1241.04 2.24213 0.690339 0
M  V30 13051 C 1242.05 1.25197 1.20838 0
M  V30 13052 O 1243.23 1.58026 1.24859 0
M  V30 13053 C 1240.29 2.91384 1.87873 0
M  V30 13054 C 1239.35 4.05761 1.40201 0
M  V30 13055 C 1238.59 4.6972 2.53376 0
M  V30 13056 O 1238.81 4.32687 3.71669 0
M  V30 13057 O 1237.74 5.58587 2.24198 0
M  V30 13058 H 1241.57 3.03383 0.138692 0
M  V30 13059 H 1239.15 1.494 0.00251504 0
M  V30 13060 H 1241.04 3.33758 2.57262 0
M  V30 13061 H 1239.71 2.15168 2.41835 0
M  V30 13062 H 1238.62 3.67943 0.675945 0
M  V30 13063 H 1239.95 4.83739 0.908691 0
M  V30 13064 N 1241.6 -0.0451101 1.57535 0
M  V30 13065 C 1242.55 -1.05066 2.05499 0
M  V30 13066 C 1243.52 -1.36884 0.940843 0
M  V30 13067 O 1244.71 -1.47497 1.21034 0
M  V30 13068 C 1241.85 -2.35139 2.52594 0
M  V30 13069 C 1240.96 -2.0962 3.77735 0
M  V30 13070 C 1240.09 -3.33447 4.13505 0
M  V30 13071 C 1239.13 -3.03411 5.31609 0
M  V30 13072 N 1238.27 -4.19644 5.62888 0
M  V30 13073 H 1243.11 -0.63469 2.91163 0
M  V30 13074 H 1240.65 -0.30179 1.43971 0
M  V30 13075 H 1242.61 -3.11118 2.7796 0
M  V30 13076 H 1241.24 -2.74489 1.69869 0
M  V30 13077 H 1240.29 -1.24211 3.59549 0
M  V30 13078 H 1241.6 -1.83452 4.63839 0
M  V30 13079 H 1240.75 -4.17805 4.39914 0
M  V30 13080 H 1239.49 -3.62715 3.2602 0
M  V30 13081 H 1238.5 -2.17453 5.04969 0
M  V30 13082 H 1239.72 -2.75438 6.20734 0
M  V30 13083 H 1237.67 -4.48893 4.78363 0
M  V30 13084 H 1237.59 -3.96843 6.43468 0
M  V30 13085 H 1238.85 -5.04921 5.93865 0
M  V30 13086 N 1243.08 -1.54377 -0.317073 0
M  V30 13087 C 1244.33 -1.73149 -1.05581 0
M  V30 13088 C 1244.66 -0.507176 -1.8746 0
M  V30 13089 O 1243.94 0.495837 -1.88074 0
M  V30 13090 C 1244.22 -3.01098 -1.97515 0
M  V30 13091 C 1244.07 -4.33794 -1.18922 0
M  V30 13092 C 1245.39 -3.24831 -2.9694 0
M  V30 13093 H 1242.51 -0.630011 -0.382434 0
M  V30 13094 H 1245.15 -1.87079 -0.331873 0
M  V30 13095 H 1243.3 -2.89352 -2.59244 0
M  V30 13096 H 1244.97 -4.57433 -0.596039 0
M  V30 13097 H 1243.22 -4.31005 -0.491612 0
M  V30 13098 H 1243.89 -5.19554 -1.86462 0
M  V30 13099 H 1246.36 -3.3608 -2.45335 0
M  V30 13100 H 1245.24 -4.15702 -3.58445 0
M  V30 13101 H 1245.5 -2.42365 -3.69745 0
M  V30 13102 N 1244.56 0.579466 -1.4656 0
M  V30 13103 C 1245.81 1.33954 -1.52264 0
M  V30 13104 C 1246.14 1.93409 -0.175089 0
M  V30 13105 O 1245.41 1.76654 0.81385 0
M  V30 13106 C 1245.7 2.46645 -2.6237 0
M  V30 13107 C 1245.55 1.92204 -4.06667 0
M  V30 13108 C 1246.87 3.48676 -2.68538 0
M  V30 13109 H 1243.99 0.485697 -0.554317 0
M  V30 13110 H 1246.63 0.650639 -1.78512 0
M  V30 13111 H 1244.78 3.0541 -2.40119 0
M  V30 13112 H 1246.45 1.37871 -4.40215 0
M  V30 13113 H 1244.7 1.23012 -4.15993 0
M  V30 13114 H 1245.37 2.73566 -4.79443 0
M  V30 13115 H 1247.84 2.99798 -2.88549 0
M  V30 13116 H 1246.72 4.24981 -3.47394 0
M  V30 13117 H 1246.98 4.06112 -1.74716 0
M  V30 13118 N 1246.04 1.3432 0.824371 0
M  V30 13119 C 1247.45 1.23855 1.39703 0
M  V30 13120 C 1247.8 -0.136566 1.95724 0
M  V30 13121 O 1246.93 -1.03683 1.89944 0
M  V30 13122 C 1247.52 2.24249 2.53965 0
M  V30 13123 C 1246.08 2.17578 3.07143 0
M  V30 13124 C 1245.23 2.10933 1.80008 0
M  V30 13125 H 1248.18 1.45707 0.628891 0
M  V30 13126 H 1248.2 1.85864 3.32016 0
M  V30 13127 H 1247.71 3.24321 2.13161 0
M  V30 13128 H 1245.81 1.20858 3.52455 0
M  V30 13129 H 1245.92 3.08769 3.66331 0
M  V30 13130 H 1244.29 1.56631 2.00845 0
M  V30 13131 H 1245.07 3.12836 1.4138 0
M  V30 13132 N 1247.52 -1.0444 1.18026 0
M  V30 13133 C 1248.77 -1.7697 0.9677 0
M  V30 13134 C 1249.08 -1.88995 -0.503994 0
M  V30 13135 O 1250.28 -2.58342 -0.834968 0
M  V30 13136 C 1248.74 -3.1816 1.68232 0
M  V30 13137 C 1248.35 -3.14241 3.19307 0
M  V30 13138 C 1250.09 -3.95095 1.55244 0
M  V30 13139 C 1248 -4.50266 3.83425 0
M  V30 13140 H 1246.93 -0.663355 0.358436 0
M  V30 13141 H 1249.58 -1.17003 1.4136 0
M  V30 13142 H 1247.96 -3.78501 1.16418 0
M  V30 13143 H 1249.14 -2.63373 3.78115 0
M  V30 13144 H 1247.45 -2.50805 3.32394 0
M  V30 13145 H 1250.05 -4.95681 2.00511 0
M  V30 13146 H 1250.39 -4.13236 0.504125 0
M  V30 13147 H 1250.92 -3.4132 2.04317 0
M  V30 13148 H 1247.66 -4.37329 4.88286 0
M  V30 13149 H 1247.18 -5.01251 3.29404 0
M  V30 13150 H 1248.86 -5.1919 3.86071 0
M  V30 13151 N 1248.99 -0.981699 -1.2329 0
M  V30 13152 C 1250.41 -0.688087 -1.73558 0
M  V30 13153 C 1250.76 0.795633 -1.79344 0
M  V30 13154 O 1249.88 1.62227 -1.43218 0
M  V30 13155 C 1250.48 -1.24235 -3.152 0
M  V30 13156 C 1249.04 -0.998356 -3.62918 0
M  V30 13157 C 1248.18 -1.3693 -2.41134 0
M  V30 13158 H 1251.13 -1.15539 -1.08795 0
M  V30 13159 H 1251.15 -0.61541 -3.7549 0
M  V30 13160 H 1250.67 -2.32223 -3.10957 0
M  V30 13161 H 1248.77 0.0653847 -3.72543 0
M  V30 13162 H 1248.88 -1.65385 -4.49649 0
M  V30 13163 H 1247.24 -0.787773 -2.42211 0
M  V30 13164 H 1248.03 -2.45898 -2.39561 0
M  V30 13165 N 1250.47 1.3842 -0.753509 0
M  V30 13166 C 1251.38 2.34252 -0.127811 0
M  V30 13167 C 1252.4 1.59266 0.700743 0
M  V30 13168 O 1253.57 1.9146 0.624914 0
M  V30 13169 C 1250.64 3.38382 0.754886 0
M  V30 13170 C 1249.7 4.2921 -0.0880312 0
M  V30 13171 C 1248.93 5.28367 0.75263 0
M  V30 13172 O 1249.16 5.34537 1.99064 0
M  V30 13173 O 1248.09 6.01656 0.171475 0
M  V30 13174 H 1251.92 2.89454 -0.91925 0
M  V30 13175 H 1249.5 1.40265 -0.514404 0
M  V30 13176 H 1251.38 4.02141 1.25938 0
M  V30 13177 H 1250.06 2.85536 1.52482 0
M  V30 13178 H 1248.97 3.68611 -0.638468 0
M  V30 13179 H 1250.3 4.85311 -0.82062 0
M  V30 13180 N 1251.95 0.502579 1.49372 0
M  V30 13181 C 1253.2 -0.0412993 2.02058 0
M  V30 13182 C 1253.52 -1.37338 1.38431 0
M  V30 13183 O 1252.79 -1.88305 0.540175 0
M  V30 13184 H 1251.37 -0.0182522 0.746777 0
M  V30 13185 H 1254.03 0.660179 1.83378 0
M  V30 13186 H 1253.13 -0.169812 3.11638 0
M  V30 13187 N 1253.43 -1.55816 0.23648 0
M  V30 13188 C 1254.65 -2.03534 -0.398575 0
M  V30 13189 C 1255.08 -1.11488 -1.51499 0
M  V30 13190 O 1254.44 -0.105848 -1.80991 0
M  V30 13191 C 1254.48 -3.49356 -0.893467 0
M  V30 13192 O 1253.59 -3.60446 -2.00381 0
M  V30 13193 H 1252.93 -0.658102 -0.0883021 0
M  V30 13194 H 1255.46 -2.01417 0.359488 0
M  V30 13195 H 1255.47 -3.89972 -1.19941 0
M  V30 13196 H 1254.14 -4.1583 -0.0764388 0
M  V30 13197 H 1252.72 -3.31723 -1.70336 0
M  V30 13198 N 1254.91 0.036755 -1.57557 0
M  V30 13199 C 1255.87 1.02435 -2.05036 0
M  V30 13200 C 1256.87 1.29506 -0.953146 0
M  V30 13201 O 1258.06 1.24638 -1.217 0
M  V30 13202 C 1255.19 2.3592 -2.46079 0
M  V30 13203 H 1256.38 0.614384 -2.93539 0
M  V30 13204 H 1253.94 0.283396 -1.53709 0
M  V30 13205 H 1254.67 2.8168 -1.60708 0
M  V30 13206 H 1254.46 2.17603 -3.26177 0
M  V30 13207 H 1255.95 3.06839 -2.83266 0
M  V30 13208 N 1256.39 1.54543 0.308881 0
M  V30 13209 C 1257.63 1.73449 1.04506 0
M  V30 13210 C 1257.96 0.516034 1.8753 0
M  V30 13211 O 1257.22 -0.502106 1.89149 0
M  V30 13212 C 1257.51 2.97124 1.98626 0
M  V30 13213 C 1257.18 4.31256 1.31641 0
M  V30 13214 C 1255.84 4.67719 1.13105 0
M  V30 13215 C 1258.19 5.14437 0.836888 0
M  V30 13216 C 1255.52 5.84949 0.452878 0
M  V30 13217 C 1257.87 6.32365 0.172473 0
M  V30 13218 C 1256.54 6.67495 -0.0249143 0
M  V30 13219 H 1255.81 0.634697 0.382415 0
M  V30 13220 H 1258.46 1.88795 0.320714 0
M  V30 13221 H 1256.76 2.76526 2.77562 0
M  V30 13222 H 1258.46 3.08946 2.55643 0
M  V30 13223 H 1255.05 4.02576 1.47074 0
M  V30 13224 H 1259.23 4.86772 0.967834 0
M  V30 13225 H 1254.49 6.10717 0.288886 0
M  V30 13226 H 1258.66 6.96092 -0.207027 0
M  V30 13227 H 1256.29 7.5819 -0.552425 0
M  V30 13228 N 1257.86 -0.571685 1.46866 0
M  V30 13229 C 1259.11 -1.32948 1.52745 0
M  V30 13230 C 1259.44 -1.93631 0.183694 0
M  V30 13231 O 1258.69 -1.77605 -0.821886 0
M  V30 13232 C 1258.99 -2.47051 2.58264 0
M  V30 13233 C 1258.66 -2.04291 4.01965 0
M  V30 13234 C 1257.32 -1.92345 4.41086 0
M  V30 13235 C 1259.67 -1.71458 4.9219 0
M  V30 13236 C 1257 -1.4584 5.68285 0
M  V30 13237 C 1259.35 -1.26429 6.19837 0
M  V30 13238 C 1258.02 -1.13068 6.57854 0
M  V30 13239 H 1257.29 -0.48649 0.558935 0
M  V30 13240 H 1259.93 -0.642618 1.80396 0
M  V30 13241 H 1258.24 -3.21231 2.24316 0
M  V30 13242 H 1259.94 -3.05254 2.6004 0
M  V30 13243 H 1256.53 -2.14527 3.71047 0
M  V30 13244 H 1260.71 -1.79567 4.62676 0
M  V30 13245 H 1255.97 -1.34148 5.96502 0
M  V30 13246 H 1260.14 -1.00081 6.89171 0
M  V30 13247 H 1257.77 -0.768094 7.5631 0
M  V30 13248 N 1259.34 -1.34755 -0.817236 0
M  V30 13249 C 1260.58 -1.28786 -1.58725 0
M  V30 13250 C 1260.95 0.138807 -1.91498 0
M  V30 13251 O 1262.15 0.322743 -2.66855 0
M  V30 13252 C 1260.42 -2.15907 -2.84814 0
M  V30 13253 S 1261.98 -2.27347 -3.75311 0
M  V30 13254 H 1258.79 -0.457844 -0.543967 0
M  V30 13255 H 1261.4 -1.70031 -0.96487 0
M  V30 13256 H 1260.1 -3.18559 -2.58744 0
M  V30 13257 H 1259.63 -1.7558 -3.52044 0
M  V30 13258 H 1261.65 -1.45044 -4.74528 0
M  V30 13259 N 1260.82 1.03812 -1.18578 0
M  V30 13260 C 1261.75 2.13802 -0.938665 0
M  V30 13261 C 1262.73 1.69643 0.124575 0
M  V30 13262 O 1263.92 1.94179 -0.0285421 0
M  V30 13263 C 1261.05 3.44154 -0.466392 0
M  V30 13264 C 1260 4.01949 -1.47041 0
M  V30 13265 C 1259.33 5.27811 -0.855558 0
M  V30 13266 C 1260.63 4.37827 -2.84789 0
M  V30 13267 H 1262.32 2.34732 -1.85852 0
M  V30 13268 H 1259.87 1.12808 -0.895007 0
M  V30 13269 H 1261.82 4.20463 -0.280856 0
M  V30 13270 H 1260.54 3.22918 0.489041 0
M  V30 13271 H 1259.2 3.27725 -1.64293 0
M  V30 13272 H 1258.85 5.02886 0.107142 0
M  V30 13273 H 1258.55 5.67441 -1.52592 0
M  V30 13274 H 1260.07 6.06795 -0.680609 0
M  V30 13275 H 1261.49 5.05112 -2.71173 0
M  V30 13276 H 1259.88 4.88514 -3.48532 0
M  V30 13277 H 1260.95 3.47541 -3.38147 0
M  V30 13278 N 1262.3 0.988223 1.22768 0
M  V30 13279 C 1263.52 0.679426 1.95955 0
M  V30 13280 C 1263.95 -0.748483 1.72567 0
M  V30 13281 O 1263.31 -1.51097 1.00197 0
M  V30 13282 C 1263.35 0.985284 3.46878 0
M  V30 13283 O 1262.46 0.0814607 4.1232 0
M  V30 13284 H 1261.8 0.254749 0.613188 0
M  V30 13285 H 1264.33 1.32393 1.55991 0
M  V30 13286 H 1264.34 0.925198 3.97371 0
M  V30 13287 H 1263.01 2.02581 3.63227 0
M  V30 13288 H 1261.59 0.196629 3.72381 0
M  V30 13289 N 1263.78 -1.38018 0.760839 0
M  V30 13290 C 1264.71 -2.2899 0.0980916 0
M  V30 13291 C 1265.72 -1.48102 -0.675985 0
M  V30 13292 O 1266.91 -1.70883 -0.515878 0
M  V30 13293 C 1264.01 -3.27142 -0.884959 0
M  V30 13294 C 1263.18 -4.37081 -0.167 0
M  V30 13295 C 1262.24 -5.15375 -1.06184 0
M  V30 13296 O 1261.27 -5.6673 -0.529667 0
M  V30 13297 N 1262.47 -5.29052 -2.38924 0
M  V30 13298 H 1265.23 -2.86508 0.879403 0
M  V30 13299 H 1262.8 -1.49877 0.612245 0
M  V30 13300 H 1264.79 -3.764 -1.48678 0
M  V30 13301 H 1263.36 -2.70471 -1.5673 0
M  V30 13302 H 1262.58 -3.89363 0.615617 0
M  V30 13303 H 1263.87 -5.07732 0.329525 0
M  V30 13304 H 1263.26 -4.88892 -2.84607 0
M  V30 13305 H 1261.82 -5.81658 -2.94139 0
M  V30 13306 N 1265.25 -0.510493 -1.49103 0
M  V30 13307 C 1266.48 0.0271718 -2.06882 0
M  V30 13308 C 1266.9 1.2995 -1.36962 0
M  V30 13309 O 1266.25 1.76842 -0.450916 0
M  V30 13310 C 1266.3 0.274956 -3.60453 0
M  V30 13311 O 1266.03 -0.946941 -4.27744 0
M  V30 13312 C 1267.53 0.855197 -4.34973 0
M  V30 13313 H 1264.75 -0.024732 -0.670544 0
M  V30 13314 H 1267.29 -0.710567 -1.91758 0
M  V30 13315 H 1265.45 0.962696 -3.75248 0
M  V30 13316 H 1265.86 -0.715627 -5.19595 0
M  V30 13317 H 1267.33 0.978103 -5.43265 0
M  V30 13318 H 1267.81 1.85535 -3.98087 0
M  V30 13319 H 1268.42 0.204632 -4.24807 0
M  V30 13320 N 1266.73 1.55688 -0.24474 0
M  V30 13321 C 1267.68 2.22682 0.67198 0
M  V30 13322 C 1268.67 1.21369 1.18178 0
M  V30 13323 O 1269.88 1.39387 1.13892 0
M  V30 13324 H 1266.25 0.714279 0.235181 0
M  V30 13325 H 1268.23 2.98282 0.0837704 0
M  V30 13326 C 1266.97 2.93835 1.85893 0
M  V30 13327 H 1266.3 3.71565 1.4758 0
M  V30 13328 H 1267.74 3.44077 2.47764 0
M  V30 13329 C 1266.2 1.97589 2.72874 0
M  V30 13330 O 1266.73 1.50758 3.72337 0
M  V30 13331 N 1264.93 1.64737 2.39395 0
M  V30 13332 H 1264.48 2.03015 1.58564 0
M  V30 13333 H 1264.44 1.00605 2.97869 0
M  V30 13334 N 1268.21 -0.0283989 1.57574 0
M  V30 13335 C 1269.62 -0.574912 1.77628 0
M  V30 13336 C 1269.97 -1.75563 0.875903 0
M  V30 13337 O 1269.1 -2.16284 0.0709141 0
M  V30 13338 C 1269.69 -1.04972 3.22128 0
M  V30 13339 C 1268.25 -1.54175 3.43376 0
M  V30 13340 C 1267.4 -0.480127 2.73112 0
M  V30 13341 H 1270.35 0.197826 1.57462 0
M  V30 13342 H 1270.37 -1.91705 3.28678 0
M  V30 13343 H 1269.88 -0.190173 3.87634 0
M  V30 13344 H 1267.98 -2.42313 2.83046 0
M  V30 13345 H 1268.1 -1.58879 4.51989 0
M  V30 13346 H 1266.46 -0.935314 2.36905 0
M  V30 13347 H 1267.24 0.369973 3.41301 0
M  V30 13348 N 1269.69 -1.54705 -0.300681 0
M  V30 13349 C 1270.62 -1.88679 -1.37559 0
M  V30 13350 C 1271.6 -0.74574 -1.52881 0
M  V30 13351 O 1272.78 -1.0015 -1.66384 0
M  V30 13352 C 1269.91 -2.13438 -2.73974 0
M  V30 13353 C 1268.87 -3.29284 -2.73415 0
M  V30 13354 C 1268.19 -3.39462 -4.13122 0
M  V30 13355 C 1269.49 -4.66382 -2.35128 0
M  V30 13356 H 1271.19 -2.78707 -1.09373 0
M  V30 13357 H 1268.73 -1.341 -0.524704 0
M  V30 13358 H 1270.69 -2.35791 -3.49257 0
M  V30 13359 H 1269.41 -1.20181 -3.03684 0
M  V30 13360 H 1268.07 -3.06855 -2.00588 0
M  V30 13361 H 1267.72 -2.43721 -4.4001 0
M  V30 13362 H 1267.42 -4.17334 -4.1365 0
M  V30 13363 H 1268.94 -3.64075 -4.90185 0
M  V30 13364 H 1270.36 -4.88463 -3.00128 0
M  V30 13365 H 1268.75 -5.4697 -2.46867 0
M  V30 13366 H 1269.82 -4.67078 -1.30256 0
M  V30 13367 N 1271.17 0.563888 -1.47167 0
M  V30 13368 C 1272.58 0.889156 -1.32537 0
M  V30 13369 C 1272.78 1.99088 -0.310854 0
M  V30 13370 O 1271.84 2.50943 0.27998 0
M  V30 13371 C 1273.15 1.28871 -2.71685 0
M  V30 13372 C 1274.7 1.40051 -2.79919 0
M  V30 13373 C 1275.17 1.83364 -4.19692 0
M  V30 13374 N 1276.67 1.90526 -4.22201 0
M  V30 13375 C 1277.4 2.25355 -5.2726 0
M  V30 13376 N 1276.9 2.58844 -6.42629 0
M  V30 13377 N 1278.69 2.26071 -5.14634 0
M  V30 13378 H 1270.84 -0.163581 -2.11769 0
M  V30 13379 H 1273.1 -0.0105151 -0.947942 0
M  V30 13380 H 1272.81 0.553057 -3.47324 0
M  V30 13381 H 1272.68 2.24629 -3.03021 0
M  V30 13382 H 1275.07 2.12698 -2.04557 0
M  V30 13383 H 1275.15 0.424971 -2.52245 0
M  V30 13384 H 1274.8 1.11289 -4.95557 0
M  V30 13385 H 1274.73 2.81909 -4.44786 0
M  V30 13386 H 1277.22 1.67059 -3.38968 0
M  V30 13387 H 1277.53 2.84427 -7.18555 0
M  V30 13388 H 1275.87 2.56439 -6.4596 0
M  V30 13389 H 1279.07 1.99343 -4.23533 0
M  V30 13390 H 1279.24 2.52885 -5.96618 0
M  V30 13391 N 1272.64 1.35187 0.810078 0
M  V30 13392 C 1273.59 1.27822 1.92173 0
M  V30 13393 C 1274.56 0.150851 1.65414 0
M  V30 13394 O 1275.75 0.333973 1.87854 0
M  V30 13395 C 1272.89 1.05258 3.28656 0
M  V30 13396 C 1272 2.26884 3.67624 0
M  V30 13397 C 1271.13 1.97499 4.9312 0
M  V30 13398 C 1270.17 3.15198 5.24706 0
M  V30 13399 N 1269.31 2.85612 6.41381 0
M  V30 13400 H 1274.15 2.22884 1.97804 0
M  V30 13401 H 1271.69 1.10799 0.967577 0
M  V30 13402 H 1273.65 0.902084 4.07331 0
M  V30 13403 H 1272.28 0.138583 3.22502 0
M  V30 13404 H 1271.33 2.5281 2.84238 0
M  V30 13405 H 1272.64 3.14783 3.86928 0
M  V30 13406 H 1271.79 1.7926 5.79613 0
M  V30 13407 H 1270.53 1.0688 4.75844 0
M  V30 13408 H 1269.54 3.34019 4.36705 0
M  V30 13409 H 1270.76 4.06614 5.43913 0
M  V30 13410 H 1268.71 1.97583 6.25537 0
M  V30 13411 H 1268.63 3.67044 6.60919 0
M  V30 13412 H 1269.89 2.70906 7.3091 0
M  V30 13413 N 1274.12 -1.03182 1.19127 0
M  V30 13414 C 1275.37 -1.76184 0.990134 0
M  V30 13415 C 1275.69 -1.88986 -0.480546 0
M  V30 13416 O 1274.96 -1.4213 -1.34817 0
M  V30 13417 H 1273.54 -0.652668 0.363364 0
M  V30 13418 H 1276.2 -1.24481 1.49968 0
M  V30 13419 H 1275.3 -2.77119 1.43568 0
M  V30 13420 N 1275.6 -0.99472 -1.22242 0
M  V30 13421 C 1276.84 -0.679831 -1.92763 0
M  V30 13422 C 1277.2 0.774024 -1.75707 0
M  V30 13423 O 1278.41 1.20041 -2.40507 0
M  V30 13424 C 1276.68 -1.07685 -3.40791 0
M  V30 13425 S 1278.24 -0.880607 -4.29873 0
M  V30 13426 H 1275.05 -0.248508 -0.666157 0
M  V30 13427 H 1277.66 -1.27738 -1.47997 0
M  V30 13428 H 1276.36 -2.1313 -3.50719 0
M  V30 13429 H 1275.89 -0.471172 -3.90568 0
M  V30 13430 H 1277.91 0.227887 -4.95676 0
M  V30 13431 N 1277.08 1.37613 -0.768148 0
M  V30 13432 C 1278.03 2.27654 -0.125596 0
M  V30 13433 C 1279.01 1.45923 0.677883 0
M  V30 13434 O 1280.2 1.68515 0.541448 0
M  V30 13435 C 1277.33 3.34884 0.7555 0
M  V30 13436 C 1276.42 4.24064 -0.0556137 0
M  V30 13437 N 1276.81 4.93707 -1.09943 0
M  V30 13438 C 1275.11 4.4568 0.168932 0
M  V30 13439 C 1275.81 5.59508 -1.59142 0
M  V30 13440 N 1274.79 5.36027 -0.904208 0
M  V30 13441 H 1278.59 2.7897 -0.924828 0
M  V30 13442 H 1276.1 1.50687 -0.605561 0
M  V30 13443 H 1278.1 3.98294 1.23157 0
M  V30 13444 H 1276.76 2.85124 1.55352 0
M  V30 13445 H 1277.77 4.96258 -1.48151 0
M  V30 13446 H 1274.45 4.068 0.939144 0
M  V30 13447 H 1275.84 6.2518 -2.4617 0
M  V30 13448 N 1278.56 0.518393 1.4883 0
M  V30 13449 C 1279.78 -0.0162 2.06894 0
M  V30 13450 C 1280.2 -1.29222 1.37649 0
M  V30 13451 O 1279.56 -1.766 0.460288 0
M  V30 13452 C 1279.61 -0.255836 3.60594 0
M  V30 13453 O 1279.33 0.969612 4.27235 0
M  V30 13454 C 1280.83 -0.832117 4.3542 0
M  V30 13455 H 1278.05 0.0282877 0.670403 0
M  V30 13456 H 1280.59 0.720726 1.91379 0
M  V30 13457 H 1278.75 -0.942782 3.75753 0
M  V30 13458 H 1279.16 0.743172 5.19208 0
M  V30 13459 H 1280.64 -0.949279 5.43776 0
M  V30 13460 H 1281.11 -1.83421 3.99066 0
M  V30 13461 H 1281.72 -0.1821 4.2491 0
M  V30 13462 N 1280.03 -1.55556 0.252993 0
M  V30 13463 C 1280.96 -2.24613 -0.638047 0
M  V30 13464 C 1281.95 -1.22852 -1.1765 0
M  V30 13465 O 1283.13 -1.51519 -1.21472 0
M  V30 13466 C 1280.26 -2.95029 -1.83236 0
M  V30 13467 C 1279.21 -4.03531 -1.42641 0
M  V30 13468 C 1278.54 -4.61404 -2.70204 0
M  V30 13469 C 1279.84 -5.18923 -0.592958 0
M  V30 13470 H 1281.53 -2.99335 -0.0621918 0
M  V30 13471 H 1279.08 -1.43972 -0.0284722 0
M  V30 13472 H 1281.03 -3.42042 -2.46141 0
M  V30 13473 H 1279.76 -2.17805 -2.43369 0
M  V30 13474 H 1278.42 -3.57296 -0.820672 0
M  V30 13475 H 1278.06 -3.80874 -3.28548 0
M  V30 13476 H 1277.76 -5.34652 -2.43764 0
M  V30 13477 H 1279.29 -5.11154 -3.33997 0
M  V30 13478 H 1280.7 -5.62124 -1.12646 0
M  V30 13479 H 1279.1 -5.98598 -0.424358 0
M  V30 13480 H 1280.17 -4.83301 0.393434 0
M  V30 13481 N 1281.51 0.0200419 -1.57587 0
M  V30 13482 C 1282.76 0.708115 -1.88861 0
M  V30 13483 C 1283.07 1.76036 -0.852693 0
M  V30 13484 O 1284.28 2.50165 -1.05497 0
M  V30 13485 C 1282.74 1.31057 -3.3519 0
M  V30 13486 C 1282.34 0.294202 -4.47033 0
M  V30 13487 C 1284.09 1.97799 -3.756 0
M  V30 13488 C 1282 0.905508 -5.84427 0
M  V30 13489 H 1280.93 0.268236 -0.704674 0
M  V30 13490 H 1283.58 -0.0372162 -1.83462 0
M  V30 13491 H 1281.96 2.1059 -3.35362 0
M  V30 13492 H 1283.13 -0.475081 -4.58344 0
M  V30 13493 H 1281.45 -0.271644 -4.15513 0
M  V30 13494 H 1284.04 2.44404 -4.75574 0
M  V30 13495 H 1284.39 2.80004 -3.08064 0
M  V30 13496 H 1284.92 1.25028 -3.77641 0
M  V30 13497 H 1281.66 0.122685 -6.55385 0
M  V30 13498 H 1281.18 1.64442 -5.76818 0
M  V30 13499 H 1282.86 1.41016 -6.31446 0
M  V30 13500 N 1282.99 1.54862 0.292472 0
M  V30 13501 C 1283.94 1.82788 1.36281 0
M  V30 13502 C 1284.92 0.685534 1.45565 0
M  V30 13503 O 1286.12 0.946393 1.49574 0
M  V30 13504 C 1283.25 2.08616 2.72643 0
M  V30 13505 C 1282.33 3.29058 2.67548 0
M  V30 13506 N 1282.72 4.49419 2.32069 0
M  V30 13507 C 1281.02 3.31257 2.98639 0
M  V30 13508 C 1281.72 5.31461 2.36483 0
M  V30 13509 N 1280.7 4.69389 2.7418 0
M  V30 13510 H 1284.5 2.73405 1.07828 0
M  V30 13511 H 1282.01 1.54477 0.501074 0
M  V30 13512 H 1284.01 2.26772 3.49829 0
M  V30 13513 H 1282.67 1.19272 3.02001 0
M  V30 13514 H 1283.68 4.75868 2.04377 0
M  V30 13515 H 1280.36 2.52045 3.32836 0
M  V30 13516 H 1281.75 6.37651 2.11779 0
M  V30 13517 N 1284.47 -0.556076 1.47464 0
M  V30 13518 C 1285.42 -1.6586 1.56444 0
M  V30 13519 C 1286.4 -1.55233 0.423262 0
M  V30 13520 O 1287.59 -1.63696 0.673247 0
M  V30 13521 C 1284.72 -3.04633 1.58283 0
M  V30 13522 C 1283.81 -3.2046 2.77788 0
M  V30 13523 N 1284.2 -3.06347 4.02474 0
M  V30 13524 C 1282.5 -3.51462 2.74573 0
M  V30 13525 C 1283.2 -3.24893 4.82514 0
M  V30 13526 N 1282.18 -3.51278 4.14855 0
M  V30 13527 H 1285.98 -1.53519 2.50618 0
M  V30 13528 H 1283.49 -0.760862 1.43474 0
M  V30 13529 H 1285.49 -3.83797 1.62806 0
M  V30 13530 H 1284.15 -3.18085 0.652052 0
M  V30 13531 H 1285.16 -2.8365 4.33316 0
M  V30 13532 H 1281.84 -3.71434 1.90639 0
M  V30 13533 H 1283.23 -3.1894 5.91377 0
M  V30 13534 N 1285.95 -1.35615 -0.802897 0
M  V30 13535 C 1286.9 -1.25378 -1.90432 0
M  V30 13536 C 1287.88 -0.148217 -1.60216 0
M  V30 13537 O 1289.07 -0.379783 -1.72878 0
M  V30 13538 C 1286.2 -1.03172 -3.2743 0
M  V30 13539 C 1285.29 -2.18135 -3.637 0
M  V30 13540 N 1285.68 -3.43382 -3.71379 0
M  V30 13541 C 1283.98 -2.09603 -3.93678 0
M  V30 13542 C 1284.68 -4.19004 -4.03498 0
M  V30 13543 N 1283.65 -3.47799 -4.17776 0
M  V30 13544 H 1287.46 -2.20267 -1.94576 0
M  V30 13545 H 1284.97 -1.2814 -0.997687 0
M  V30 13546 H 1286.97 -0.939264 -4.06182 0
M  V30 13547 H 1285.63 -0.0917091 -3.2457 0
M  V30 13548 H 1286.64 -3.77687 -3.54363 0
M  V30 13549 H 1283.32 -1.23479 -3.98822 0
M  V30 13550 H 1284.71 -5.27255 -4.16476 0
M  V30 13551 N 1287.43 1.02549 -1.19673 0
M  V30 13552 C 1288.67 1.76265 -1.00293 0
M  V30 13553 C 1289 1.88555 0.464816 0
M  V30 13554 O 1288.28 1.40484 1.34515 0
M  V30 13555 C 1288.56 3.18688 -1.6766 0
M  V30 13556 C 1288.42 3.14247 -3.21821 0
M  V30 13557 C 1289.73 4.17159 -1.40238 0
M  V30 13558 H 1286.85 0.639837 -0.365756 0
M  V30 13559 H 1289.5 1.19691 -1.4756 0
M  V30 13560 H 1287.65 3.66992 -1.27472 0
M  V30 13561 H 1289.32 2.73815 -3.71245 0
M  V30 13562 H 1287.56 2.51874 -3.53188 0
M  V30 13563 H 1288.23 4.14886 -3.64107 0
M  V30 13564 H 1290.71 3.77471 -1.75086 0
M  V30 13565 H 1289.58 5.14997 -1.89919 0
M  V30 13566 H 1289.84 4.4088 -0.328197 0
M  V30 13567 N 1288.9 1.00119 1.21713 0
M  V30 13568 C 1290.15 0.681723 1.9068 0
M  V30 13569 C 1290.48 -0.787121 1.77861 0
M  V30 13570 O 1289.73 -1.58573 1.14687 0
M  V30 13571 C 1290.03 1.04376 3.41819 0
M  V30 13572 C 1289.7 2.50624 3.74831 0
M  V30 13573 C 1288.36 2.90587 3.83552 0
M  V30 13574 C 1290.71 3.45377 3.90339 0
M  V30 13575 C 1288.04 4.24276 4.05225 0
M  V30 13576 C 1290.39 4.78734 4.13517 0
M  V30 13577 C 1289.06 5.18427 4.20464 0
M  V30 13578 H 1288.33 0.24946 0.697747 0
M  V30 13579 H 1290.97 1.25892 1.44304 0
M  V30 13580 H 1289.28 0.384756 3.89906 0
M  V30 13581 H 1290.98 0.774488 3.9345 0
M  V30 13582 H 1287.57 2.18651 3.68632 0
M  V30 13583 H 1291.75 3.15669 3.82971 0
M  V30 13584 H 1287.01 4.54605 4.08833 0
M  V30 13585 H 1291.18 5.52094 4.24459 0
M  V30 13586 H 1288.81 6.22034 4.3701 0
M  V30 13587 N 1290.38 -1.37203 0.775435 0
M  V30 13588 C 1291.61 -2.03868 0.352927 0
M  V30 13589 C 1292.02 -1.58482 -1.0261 0
M  V30 13590 O 1291.38 -0.767772 -1.65564 0
M  V30 13591 C 1291.43 -3.59378 0.39116 0
M  V30 13592 O 1291.15 -4.03103 1.71579 0
M  V30 13593 C 1292.65 -4.4328 -0.0424808 0
M  V30 13594 H 1289.87 -0.654619 0.14736 0
M  V30 13595 H 1292.42 -1.75463 1.05039 0
M  V30 13596 H 1290.57 -3.86542 -0.257752 0
M  V30 13597 H 1290.99 -4.9764 1.65695 0
M  V30 13598 H 1292.46 -5.51989 0.0354215 0
M  V30 13599 H 1292.94 -4.25374 -1.09333 0
M  V30 13600 H 1293.54 -4.21349 0.578384 0
M  V30 13601 N 1291.86 -0.526279 -1.48553 0
M  V30 13602 C 1292.81 0.251938 -2.31232 0
M  V30 13603 C 1293.8 0.938991 -1.40994 0
M  V30 13604 O 1295.01 0.863798 -1.57919 0
M  V30 13605 H 1291.38 0.100114 -0.745306 0
M  V30 13606 H 1293.35 -0.465013 -2.94754 0
M  V30 13607 C 1292.1 1.28816 -3.22958 0
M  V30 13608 H 1291.43 0.768899 -3.92337 0
M  V30 13609 H 1292.87 1.80417 -3.837 0
M  V30 13610 C 1291.32 2.31982 -2.44307 0
M  V30 13611 O 1291.85 3.3835 -2.16523 0
M  V30 13612 N 1290.06 2.051 -2.05869 0
M  V30 13613 H 1289.61 1.18618 -2.28665 0
M  V30 13614 H 1289.57 2.74349 -1.53557 0
M  V30 13615 N 1293.34 1.5542 -0.261239 0
M  V30 13616 C 1294.27 2.24949 0.626126 0
M  V30 13617 C 1295.25 1.23474 1.16997 0
M  V30 13618 O 1296.43 1.52161 1.20667 0
M  V30 13619 C 1293.56 2.95996 1.81669 0
M  V30 13620 C 1292.52 4.04282 1.40499 0
M  V30 13621 C 1291.84 4.62831 2.67753 0
M  V30 13622 C 1293.14 5.1923 0.56543 0
M  V30 13623 H 1294.84 2.99364 0.0463164 0
M  V30 13624 H 1292.38 1.43985 0.0208366 0
M  V30 13625 H 1294.34 3.43343 2.44323 0
M  V30 13626 H 1293.06 2.19093 2.42211 0
M  V30 13627 H 1291.72 3.57726 0.801712 0
M  V30 13628 H 1291.37 3.82611 3.26524 0
M  V30 13629 H 1291.07 5.35938 2.40925 0
M  V30 13630 H 1292.59 5.12918 3.31281 0
M  V30 13631 H 1294.01 5.62714 1.09663 0
M  V30 13632 H 1292.4 5.98814 0.392607 0
M  V30 13633 H 1293.47 4.83086 -0.419059 0
M  V30 13634 N 1294.82 -0.0116844 1.57596 0
M  V30 13635 C 1296.06 -0.698089 1.89234 0
M  V30 13636 C 1296.38 -1.75581 0.862016 0
M  V30 13637 O 1297.58 -2.49602 1.06822 0
M  V30 13638 C 1296.04 -1.29277 3.3588 0
M  V30 13639 C 1295.65 -0.27049 4.47183 0
M  V30 13640 C 1297.39 -1.95805 3.76644 0
M  V30 13641 C 1295.3 -0.874502 5.84899 0
M  V30 13642 H 1294.23 -0.264495 0.706087 0
M  V30 13643 H 1296.88 0.0469451 1.8344 0
M  V30 13644 H 1295.26 -2.08809 3.36474 0
M  V30 13645 H 1296.44 0.499381 4.58086 0
M  V30 13646 H 1294.75 0.293676 4.15363 0
M  V30 13647 H 1297.35 -2.41879 4.76863 0
M  V30 13648 H 1297.69 -2.78366 3.09545 0
M  V30 13649 H 1298.22 -1.23023 3.78299 0
M  V30 13650 H 1294.96 -0.0879263 6.55441 0
M  V30 13651 H 1294.48 -1.61381 5.77682 0
M  V30 13652 H 1296.16 -1.37665 6.32185 0
M  V30 13653 N 1296.29 -1.55015 -0.284256 0
M  V30 13654 C 1297.22 -1.90128 -1.3555 0
M  V30 13655 C 1298.2 -0.761914 -1.52082 0
M  V30 13656 O 1299.39 -1.01909 -1.65312 0
M  V30 13657 C 1296.52 -2.16332 -2.71695 0
M  V30 13658 C 1295.47 -3.32166 -2.69907 0
M  V30 13659 C 1294.8 -3.43824 -4.09498 0
M  V30 13660 C 1296.1 -4.6885 -2.30168 0
M  V30 13661 H 1297.79 -2.79852 -1.06411 0
M  V30 13662 H 1295.34 -1.34649 -0.510451 0
M  V30 13663 H 1297.29 -2.39482 -3.46737 0
M  V30 13664 H 1296.02 -1.23395 -3.02392 0
M  V30 13665 H 1294.68 -3.08965 -1.97322 0
M  V30 13666 H 1294.32 -2.48375 -4.374 0
M  V30 13667 H 1294.02 -4.21698 -4.092 0
M  V30 13668 H 1295.55 -3.69254 -4.86296 0
M  V30 13669 H 1296.96 -4.91619 -2.9493 0
M  V30 13670 H 1295.36 -5.49558 -2.41052 0
M  V30 13671 H 1296.43 -4.68433 -1.25294 0
M  V30 13672 N 1297.77 0.548248 -1.47757 0
M  V30 13673 C 1299.02 1.30694 -1.55071 0
M  V30 13674 C 1299.35 1.92994 -0.216075 0
M  V30 13675 O 1298.63 1.78341 0.776196 0
M  V30 13676 C 1298.91 2.41024 -2.67543 0
M  V30 13677 C 1298.76 1.83534 -4.10652 0
M  V30 13678 C 1300.08 3.42902 -2.75874 0
M  V30 13679 H 1297.2 0.47383 -0.564494 0
M  V30 13680 H 1299.84 0.612628 -1.79852 0
M  V30 13681 H 1297.99 3.00248 -2.46543 0
M  V30 13682 H 1299.66 1.28503 -4.4304 0
M  V30 13683 H 1297.91 1.14161 -4.18509 0
M  V30 13684 H 1298.58 2.63335 -4.85138 0
M  V30 13685 H 1301.05 2.9361 -2.94843 0
M  V30 13686 H 1299.93 4.17516 -3.5633 0
M  V30 13687 H 1300.19 4.02314 -1.83291 0
M  V30 13688 N 1299.25 1.36039 0.795694 0
M  V30 13689 C 1300.5 1.29919 1.5533 0
M  V30 13690 C 1300.82 -0.123325 1.94109 0
M  V30 13691 O 1300.08 -1.09115 1.62457 0
M  V30 13692 C 1300.38 2.16166 2.84617 0
M  V30 13693 C 1300.04 3.64805 2.65006 0
M  V30 13694 C 1298.71 4.05319 2.59365 0
M  V30 13695 C 1301.06 4.59073 2.46781 0
M  V30 13696 C 1298.39 5.38251 2.33458 0
M  V30 13697 C 1300.74 5.92216 2.22402 0
M  V30 13698 C 1299.4 6.31862 2.1519 0
M  V30 13699 H 1298.67 0.475408 0.568391 0
M  V30 13700 H 1301.32 1.68035 0.918512 0
M  V30 13701 H 1299.62 1.70967 3.5253 0
M  V30 13702 H 1301.32 2.0876 3.42375 0
M  V30 13703 H 1297.91 3.32662 2.70248 0
M  V30 13704 H 1302.1 4.28651 2.50144 0
M  V30 13705 H 1297.35 5.67957 2.26352 0
M  V30 13706 H 1301.53 6.64833 2.07293 0
M  V30 13707 H 1299.15 7.34797 1.94878 0
M  V30 13708 N 1300.73 -1.01913 1.20215 0
M  V30 13709 C 1301.98 -1.74878 1.00502 0
M  V30 13710 C 1302.29 -1.90022 -0.463792 0
M  V30 13711 O 1303.5 -2.60055 -0.779982 0
M  V30 13712 C 1301.95 -3.1452 1.74943 0
M  V30 13713 C 1301.56 -3.07397 3.259 0
M  V30 13714 C 1303.3 -3.91713 1.63589 0
M  V30 13715 C 1301.21 -4.42032 3.92889 0
M  V30 13716 H 1300.14 -0.655603 0.372426 0
M  V30 13717 H 1302.79 -1.13978 1.4381 0
M  V30 13718 H 1301.17 -3.75946 1.24421 0
M  V30 13719 H 1302.35 -2.55294 3.83617 0
M  V30 13720 H 1300.66 -2.43698 3.37639 0
M  V30 13721 H 1303.26 -4.91316 2.1098 0
M  V30 13722 H 1303.6 -4.12074 0.591665 0
M  V30 13723 H 1304.14 -3.3691 2.11511 0
M  V30 13724 H 1300.88 -4.26874 4.97453 0
M  V30 13725 H 1300.4 -4.94151 3.39962 0
M  V30 13726 H 1302.07 -5.10884 3.96997 0
M  V30 13727 N 1302.21 -1.00763 -1.2118 0
M  V30 13728 C 1303.46 -0.687197 -1.89633 0
M  V30 13729 C 1303.77 0.78566 -1.79128 0
M  V30 13730 O 1304.97 1.21828 -2.42632 0
M  V30 13731 C 1303.43 -1.1787 -3.40051 0
M  V30 13732 C 1303.04 -2.67782 -3.59161 0
M  V30 13733 C 1304.78 -0.933277 -4.14114 0
M  V30 13734 C 1302.69 -3.10459 -5.03358 0
M  V30 13735 H 1301.62 -0.253342 -0.710165 0
M  V30 13736 H 1304.27 -1.21914 -1.37147 0
M  V30 13737 H 1302.65 -0.574791 -3.91806 0
M  V30 13738 H 1303.83 -3.33645 -3.17833 0
M  V30 13739 H 1302.14 -2.90368 -2.98455 0
M  V30 13740 H 1304.74 -1.22766 -5.20416 0
M  V30 13741 H 1305.08 0.130431 -4.16096 0
M  V30 13742 H 1305.61 -1.50011 -3.68431 0
M  V30 13743 H 1302.35 -4.16068 -5.06525 0
M  V30 13744 H 1301.87 -2.4931 -5.45531 0
M  V30 13745 H 1303.55 -3.02589 -5.71882 0
M  V30 13746 N 1303.68 1.3679 -0.7827 0
M  V30 13747 C 1304.61 2.32721 -0.190604 0
M  V30 13748 C 1305.6 1.56321 0.670663 0
M  V30 13749 O 1306.78 1.84507 0.605871 0
M  V30 13750 C 1303.91 3.40564 0.680717 0
M  V30 13751 C 1302.86 4.27925 -0.080118 0
M  V30 13752 C 1302.19 5.26876 0.911361 0
M  V30 13753 C 1303.49 5.06738 -1.26545 0
M  V30 13754 H 1305.18 2.82488 -0.992023 0
M  V30 13755 H 1302.73 1.35818 -0.478484 0
M  V30 13756 H 1304.68 4.06659 1.10482 0
M  V30 13757 H 1303.41 2.89348 1.51477 0
M  V30 13758 H 1302.07 3.63376 -0.485125 0
M  V30 13759 H 1301.71 4.71936 1.74026 0
M  V30 13760 H 1301.41 5.8619 0.406762 0
M  V30 13761 H 1302.94 5.95846 1.33418 0
M  V30 13762 H 1304.35 5.65911 -0.917448 0
M  V30 13763 H 1302.75 5.75432 -1.70289 0
M  V30 13764 H 1303.82 4.38772 -2.06415 0
M  V30 13765 N 1305.16 0.53415 1.48272 0
M  V30 13766 C 1306.39 0.00368464 2.074 0
M  V30 13767 C 1306.81 -1.27003 1.38751 0
M  V30 13768 O 1306.17 -1.75502 0.454817 0
M  V30 13769 C 1306.22 -0.199034 3.6005 0
M  V30 13770 O 1305.32 -1.26679 3.92462 0
M  V30 13771 H 1304.66 0.0409936 0.662733 0
M  V30 13772 H 1307.19 0.743253 1.90622 0
M  V30 13773 H 1307.2 -0.420404 4.05828 0
M  V30 13774 H 1305.88 0.731391 4.09418 0
M  V30 13775 H 1304.46 -1.02775 3.58457 0
M  V30 13776 N 1306.64 -1.55279 0.269478 0
M  V30 13777 C 1307.87 -2.04334 -0.355313 0
M  V30 13778 C 1308.29 -1.14677 -1.491 0
M  V30 13779 O 1307.65 -0.144215 -1.80726 0
M  V30 13780 C 1307.7 -3.51172 -0.819162 0
M  V30 13781 O 1306.8 -3.64615 -1.9269 0
M  V30 13782 H 1306.14 -0.659827 -0.0743229 0
M  V30 13783 H 1308.67 -2.00609 0.402131 0
M  V30 13784 H 1308.68 -3.92428 -1.11642 0
M  V30 13785 H 1307.36 -4.15898 0.0117821 0
M  V30 13786 H 1305.93 -3.35261 -1.63261 0
M  V30 13787 N 1308.12 0.00332656 -1.576 0
M  V30 13788 C 1309.36 0.68989 -1.90705 0
M  V30 13789 C 1309.7 1.73608 -0.870291 0
M  V30 13790 O 1308.97 1.94181 0.111416 0
M  V30 13791 C 1309.26 1.33605 -3.34397 0
M  V30 13792 C 1309.11 0.301638 -4.48787 0
M  V30 13793 C 1310.43 2.26313 -3.77453 0
M  V30 13794 H 1307.55 0.249328 -0.693545 0
M  V30 13795 H 1310.19 -0.0472847 -1.89941 0
M  V30 13796 H 1308.34 1.96437 -3.35179 0
M  V30 13797 H 1310.01 -0.326738 -4.60141 0
M  V30 13798 H 1308.25 -0.376451 -4.32163 0
M  V30 13799 H 1308.92 0.792741 -5.46278 0
M  V30 13800 H 1311.4 1.73502 -3.78201 0
M  V30 13801 H 1310.28 2.68492 -4.78752 0
M  V30 13802 H 1310.54 3.14082 -3.11135 0
M  V30 13803 N 1309.6 1.55164 0.276031 0
M  V30 13804 C 1310.82 1.7998 1.03063 0
M  V30 13805 C 1311.25 0.569769 1.79263 0
M  V30 13806 O 1310.6 -0.48054 1.74816 0
M  V30 13807 C 1310.65 3.02209 1.96728 0
M  V30 13808 O 1309.76 2.77083 3.05449 0
M  V30 13809 H 1309.1 0.594963 0.294814 0
M  V30 13810 H 1311.63 2.02301 0.305861 0
M  V30 13811 H 1311.64 3.3086 2.38738 0
M  V30 13812 H 1310.31 3.91386 1.40677 0
M  V30 13813 H 1308.89 2.5952 2.67776 0
M  V30 13814 N 1311.07 -0.540404 1.48045 0
M  V30 13815 C 1312 -1.65538 1.6468 0
M  V30 13816 C 1312.99 -1.62713 0.495847 0
M  V30 13817 O 1314.17 -1.80072 0.727172 0
M  V30 13818 C 1311.3 -3.0415 1.67661 0
M  V30 13819 C 1310.25 -3.2183 2.82152 0
M  V30 13820 C 1309.58 -4.61397 2.70216 0
M  V30 13821 C 1310.88 -3.05596 4.23567 0
M  V30 13822 H 1312.57 -1.51873 2.58021 0
M  V30 13823 H 1310.12 -0.729208 1.24171 0
M  V30 13824 H 1312.07 -3.82013 1.77887 0
M  V30 13825 H 1310.8 -3.18814 0.708907 0
M  V30 13826 H 1309.46 -2.4638 2.71463 0
M  V30 13827 H 1309.1 -4.72883 1.71437 0
M  V30 13828 H 1308.8 -4.74174 3.47035 0
M  V30 13829 H 1310.33 -5.41374 2.82395 0
M  V30 13830 H 1311.74 -3.73261 4.35143 0
M  V30 13831 H 1310.14 -3.29871 5.01303 0
M  V30 13832 H 1311.21 -2.0214 4.40758 0
M  V30 13833 N 1312.55 -1.36459 -0.788468 0
M  V30 13834 C 1313.52 -1.3071 -1.88275 0
M  V30 13835 C 1314.52 -0.214596 -1.59362 0
M  V30 13836 O 1315.71 -0.469437 -1.67756 0
M  V30 13837 C 1312.84 -1.02648 -3.25079 0
M  V30 13838 H 1314.03 -2.28029 -1.94788 0
M  V30 13839 H 1311.58 -1.21245 -0.986375 0
M  V30 13840 H 1312.32 -0.0578992 -3.24248 0
M  V30 13841 H 1312.1 -1.81708 -3.47454 0
M  V30 13842 H 1313.59 -1.01233 -4.05144 0
M  V30 13843 N 1314.03 1.01274 -1.20754 0
M  V30 13844 C 1314.99 2.08056 -0.961528 0
M  V30 13845 C 1315.99 1.60671 0.0644461 0
M  V30 13846 O 1317.18 1.73349 -0.172022 0
M  V30 13847 C 1314.32 3.37938 -0.448381 0
M  V30 13848 H 1315.51 2.31314 -1.90877 0
M  V30 13849 H 1313.06 1.18133 -1.02344 0
M  V30 13850 H 1313.8 3.20357 0.504144 0
M  V30 13851 H 1313.58 3.73659 -1.18833 0
M  V30 13852 H 1315.07 4.16551 -0.295876 0
M  V30 13853 N 1315.51 1.01404 1.20644 0
M  V30 13854 C 1316.42 0.591693 2.27016 0
M  V30 13855 C 1317.44 -0.36958 1.7003 0
M  V30 13856 O 1318.61 -0.231165 2.00069 0
M  V30 13857 C 1315.68 -0.0659827 3.46637 0
M  V30 13858 C 1314.74 0.940911 4.18862 0
M  V30 13859 C 1313.97 0.314526 5.32772 0
M  V30 13860 O 1314.19 -0.886404 5.63471 0
M  V30 13861 O 1313.13 1.02998 5.93022 0
M  V30 13862 H 1316.95 1.4772 2.65353 0
M  V30 13863 H 1314.54 0.783399 1.27213 0
M  V30 13864 H 1316.42 -0.433412 4.19165 0
M  V30 13865 H 1315.1 -0.925729 3.10181 0
M  V30 13866 H 1314 1.35966 3.48517 0
M  V30 13867 H 1315.34 1.77054 4.59252 0
M  V30 13868 N 1316.99 -1.36373 0.789944 0
M  V30 13869 C 1318.26 -1.9349 0.286543 0
M  V30 13870 C 1318.64 -1.7218 -1.22136 0
M  V30 13871 O 1317.99 -1.08106 -2.01309 0
M  V30 13872 C 1318.2 -3.42316 0.679749 0
M  V30 13873 C 1319.55 -4.19442 0.659791 0
M  V30 13874 O 1320.57 -3.50758 0.620256 0
M  V30 13875 O 1319.43 -5.41957 0.703159 0
M  V30 13876 H 1316.53 -0.823942 0.0710537 0
M  V30 13877 H 1319.07 -1.45551 0.872523 0
M  V30 13878 H 1317.85 -3.51485 1.7197 0
M  V30 13879 H 1317.47 -3.97542 0.0676823 0
M  V30 13880 N 1318.47 -0.542005 -1.47987 0
M  V30 13881 C 1319.88 -0.104646 -1.86406 0
M  V30 13882 C 1320.23 1.32139 -1.4503 0
M  V30 13883 O 1319.35 1.99159 -0.846439 0
M  V30 13884 C 1319.95 -0.183133 -3.38305 0
M  V30 13885 C 1318.51 0.199098 -3.75873 0
M  V30 13886 C 1317.65 -0.537532 -2.7204 0
M  V30 13887 H 1320.6 -0.75259 -1.3972 0
M  V30 13888 H 1320.63 0.602149 -3.75705 0
M  V30 13889 H 1320.14 -1.22113 -3.68389 0
M  V30 13890 H 1318.24 1.23878 -3.51404 0
M  V30 13891 H 1318.35 -0.14888 -4.78869 0
M  V30 13892 H 1316.72 0.0176255 -2.54694 0
M  V30 13893 H 1317.5 -1.57639 -3.04967 0
M  V30 13894 N 1319.94 1.55134 -0.277709 0
M  V30 13895 C 1321.19 1.98831 0.338982 0
M  V30 13896 C 1321.51 1.16958 1.56781 0
M  V30 13897 O 1322.71 1.50811 2.25762 0
M  V30 13898 C 1321.17 3.53899 0.654465 0
M  V30 13899 C 1320.78 4.44553 -0.554703 0
M  V30 13900 C 1322.52 4.06179 1.23364 0
M  V30 13901 C 1320.43 5.91014 -0.213663 0
M  V30 13902 H 1319.36 0.742632 0.130434 0
M  V30 13903 H 1322.01 1.79463 -0.382768 0
M  V30 13904 H 1320.39 3.69078 1.43519 0
M  V30 13905 H 1321.56 4.41143 -1.33151 0
M  V30 13906 H 1319.88 4.02921 -1.0509 0
M  V30 13907 H 1322.48 5.13152 1.50265 0
M  V30 13908 H 1322.82 3.5537 2.16836 0
M  V30 13909 H 1323.35 3.9445 0.515147 0
M  V30 13910 H 1320.09 6.45924 -1.11633 0
M  V30 13911 H 1319.61 5.97486 0.526329 0
M  V30 13912 H 1321.29 6.46712 0.19319 0
M  V30 13913 N 1321.42 0.00503138 1.57599 0
M  V30 13914 C 1322.84 -0.351109 1.5569 0
M  V30 13915 C 1323.04 -1.74465 1.00818 0
M  V30 13916 O 1322.09 -2.44144 0.64422 0
M  V30 13917 C 1323.41 -0.221738 2.99881 0
M  V30 13918 C 1324.95 -0.296303 3.11594 0
M  V30 13919 C 1325.43 -0.195998 4.5758 0
M  V30 13920 N 1326.92 -0.253741 4.62504 0
M  V30 13921 C 1327.66 -0.199546 5.73053 0
M  V30 13922 N 1327.15 -0.0956553 6.92734 0
M  V30 13923 N 1328.94 -0.251779 5.61536 0
M  V30 13924 H 1321.1 0.916578 1.91605 0
M  V30 13925 H 1323.36 0.351802 0.880306 0
M  V30 13926 H 1323.06 0.737255 3.43886 0
M  V30 13927 H 1322.94 -1.00178 3.63654 0
M  V30 13928 H 1325.33 -1.24574 2.67517 0
M  V30 13929 H 1325.41 0.513692 2.50589 0
M  V30 13930 H 1325.05 0.749918 5.02333 0
M  V30 13931 H 1324.98 -1.02455 5.16537 0
M  V30 13932 H 1327.47 -0.335163 3.76411 0
M  V30 13933 H 1327.78 -0.0603357 7.72776 0
M  V30 13934 H 1326.13 -0.0612113 6.94973 0
M  V30 13935 H 1329.32 -0.331173 4.66927 0
M  V30 13936 H 1329.49 -0.206078 6.47672 0
M  V30 13937 N 1322.9 -1.55308 -0.267798 0
M  V30 13938 C 1323.86 -1.87765 -1.31442 0
M  V30 13939 C 1324.86 -0.752571 -1.42102 0
M  V30 13940 O 1326.05 -1.02072 -1.41163 0
M  V30 13941 C 1323.18 -2.08754 -2.69508 0
M  V30 13942 H 1324.38 -2.8133 -1.03891 0
M  V30 13943 H 1321.93 -1.47879 -0.506111 0
M  V30 13944 H 1322.67 -1.17588 -3.02231 0
M  V30 13945 H 1322.45 -2.90674 -2.63156 0
M  V30 13946 H 1323.94 -2.3512 -3.4512 0
M  V30 13947 N 1324.38 0.532545 -1.4833 0
M  V30 13948 C 1325.33 1.6335 -1.59062 0
M  V30 13949 C 1326.31 1.5454 -0.447905 0
M  V30 13950 O 1327.5 1.62604 -0.699205 0
M  V30 13951 C 1324.63 3.02077 -1.63109 0
M  V30 13952 C 1323.72 3.16 -2.82851 0
M  V30 13953 N 1324.11 2.99905 -4.07297 0
M  V30 13954 C 1322.41 3.47049 -2.8013 0
M  V30 13955 C 1323.11 3.17176 -4.87621 0
M  V30 13956 N 1322.08 3.44634 -4.20391 0
M  V30 13957 H 1325.89 1.49512 -2.53028 0
M  V30 13958 H 1323.4 0.73794 -1.44666 0
M  V30 13959 H 1325.4 3.81158 -1.68891 0
M  V30 13960 H 1324.06 3.17008 -0.702574 0
M  V30 13961 H 1325.07 2.76721 -4.37774 0
M  V30 13962 H 1321.75 3.68354 -1.96524 0
M  V30 13963 H 1323.14 3.09491 -5.96376 0
M  V30 13964 N 1325.86 1.36875 0.78122 0
M  V30 13965 C 1327.08 1.349 1.57533 0
M  V30 13966 C 1327.51 -0.0655249 1.87986 0
M  V30 13967 O 1326.86 -1.03986 1.48515 0
M  V30 13968 C 1326.91 2.18562 2.86815 0
M  V30 13969 O 1326.02 1.58374 3.80777 0
M  V30 13970 H 1325.36 0.461355 0.477543 0
M  V30 13971 H 1327.89 1.80271 0.96766 0
M  V30 13972 H 1327.9 2.31436 3.36008 0
M  V30 13973 H 1326.57 3.21385 2.63978 0
M  V30 13974 H 1325.15 1.54487 3.39394 0
M  V30 13975 N 1327.33 -1.00632 1.21289 0
M  V30 13976 C 1328.58 -1.74388 1.02932 0
M  V30 13977 C 1328.91 -1.8952 -0.437327 0
M  V30 13978 O 1328.16 -1.42551 -1.3408 0
M  V30 13979 C 1328.46 -3.1598 1.67007 0
M  V30 13980 C 1328.13 -3.208 3.16857 0
M  V30 13981 C 1326.79 -3.21823 3.57748 0
M  V30 13982 C 1329.14 -3.18147 4.12834 0
M  V30 13983 C 1326.47 -3.17877 4.93124 0
M  V30 13984 C 1328.82 -3.15743 5.48169 0
M  V30 13985 C 1327.49 -3.15074 5.88459 0
M  V30 13986 H 1326.76 -0.638133 0.376653 0
M  V30 13987 H 1329.4 -1.17953 1.50862 0
M  V30 13988 H 1327.71 -3.75639 1.11365 0
M  V30 13989 H 1329.41 -3.71764 1.50307 0
M  V30 13990 H 1326 -3.20746 2.84289 0
M  V30 13991 H 1330.18 -3.16519 3.82269 0
M  V30 13992 H 1325.44 -3.15696 5.2359 0
M  V30 13993 H 1329.61 -3.12644 6.22275 0
M  V30 13994 H 1327.24 -3.11771 6.93327 0
M  V30 13995 N 1328.81 -1.02043 -1.20104 0
M  V30 13996 C 1330.23 -0.735967 -1.41618 0
M  V30 13997 C 1330.43 0.68285 -1.89577 0
M  V30 13998 O 1329.48 1.45007 -2.06711 0
M  V30 13999 C 1330.8 -1.76492 -2.43457 0
M  V30 14000 C 1332.34 -1.78349 -2.57217 0
M  V30 14001 C 1332.82 -2.80181 -3.62302 0
M  V30 14002 N 1334.31 -2.78945 -3.69789 0
M  V30 14003 C 1335.05 -3.54395 -4.50768 0
M  V30 14004 N 1334.54 -4.39533 -5.35521 0
M  V30 14005 N 1336.33 -3.42974 -4.45337 0
M  V30 14006 H 1328.49 -1.93634 -0.872916 0
M  V30 14007 H 1330.75 -0.836663 -0.445757 0
M  V30 14008 H 1330.45 -2.78158 -2.15223 0
M  V30 14009 H 1330.33 -1.58022 -3.42504 0
M  V30 14010 H 1332.72 -0.773665 -2.84778 0
M  V30 14011 H 1332.8 -2.00894 -1.58352 0
M  V30 14012 H 1332.44 -3.81331 -3.35484 0
M  V30 14013 H 1332.37 -2.54898 -4.60798 0
M  V30 14014 H 1334.86 -2.17189 -3.09253 0
M  V30 14015 H 1335.17 -4.93863 -5.94407 0
M  V30 14016 H 1333.52 -4.43609 -5.3501 0
M  V30 14017 H 1336.71 -2.75881 -3.78163 0
M  V30 14018 H 1336.88 -4.02028 -5.0821 0
M  V30 14019 N 1330.29 1.35952 -0.797165 0
M  V30 14020 C 1331.24 2.31831 -0.188958 0
M  V30 14021 C 1332.23 1.56181 0.656042 0
M  V30 14022 O 1333.44 1.71383 0.550259 0
M  V30 14023 H 1329.81 0.750807 -0.0423354 0
M  V30 14024 H 1331.78 2.80683 -1.0129 0
M  V30 14025 C 1330.53 3.41464 0.655547 0
M  V30 14026 H 1329.86 3.99797 0.0146854 0
M  V30 14027 H 1331.3 4.10853 1.04765 0
M  V30 14028 C 1329.76 2.83696 1.81709 0
M  V30 14029 O 1330.29 2.76484 2.91409 0
M  V30 14030 N 1328.49 2.40876 1.62564 0
M  V30 14031 H 1328.04 2.46941 0.733337 0
M  V30 14032 H 1328 2.02572 2.40441 0
M  V30 14033 N 1331.77 0.549846 1.47697 0
M  V30 14034 C 1332.72 -0.222213 2.26915 0
M  V30 14035 C 1333.7 -0.891996 1.33911 0
M  V30 14036 O 1334.89 -0.791519 1.58316 0
M  V30 14037 C 1332.02 -1.25619 3.19491 0
M  V30 14038 C 1331.11 -0.590193 4.19973 0
M  V30 14039 N 1331.5 0.335519 5.04686 0
M  V30 14040 C 1329.8 -0.845012 4.37922 0
M  V30 14041 C 1330.5 0.721672 5.77206 0
M  V30 14042 N 1329.48 0.078184 5.43544 0
M  V30 14043 H 1333.28 0.489645 2.89792 0
M  V30 14044 H 1330.79 0.36926 1.58146 0
M  V30 14045 H 1332.79 -1.82319 3.74921 0
M  V30 14046 H 1331.45 -1.96922 2.5817 0
M  V30 14047 H 1332.46 0.709271 5.1302 0
M  V30 14048 H 1329.14 -1.54711 3.87777 0
M  V30 14049 H 1330.53 1.48191 6.55354 0
M  V30 14050 N 1333.25 -1.54984 0.285932 0
M  V30 14051 C 1334.5 -1.99008 -0.328433 0
M  V30 14052 C 1334.81 -1.17787 -1.56158 0
M  V30 14053 O 1336.01 -1.52006 -2.24959 0
M  V30 14054 C 1334.47 -3.54241 -0.635688 0
M  V30 14055 C 1334.08 -4.44252 0.578271 0
M  V30 14056 C 1335.82 -4.06828 -1.21208 0
M  V30 14057 C 1333.73 -5.90892 0.245003 0
M  V30 14058 H 1332.66 -0.743314 -0.126494 0
M  V30 14059 H 1335.31 -1.79258 0.39228 0
M  V30 14060 H 1333.69 -3.69834 -1.41559 0
M  V30 14061 H 1334.87 -4.40431 1.35489 0
M  V30 14062 H 1333.18 -4.02358 1.07225 0
M  V30 14063 H 1335.78 -5.13941 -1.47542 0
M  V30 14064 H 1336.12 -3.56515 -2.14948 0
M  V30 14065 H 1336.65 -3.94718 -0.494222 0
M  V30 14066 H 1333.39 -6.45323 1.15057 0
M  V30 14067 H 1332.91 -5.97757 -0.494636 0
M  V30 14068 H 1334.59 -6.46805 -0.158891 0
M  V30 14069 N 1334.72 -0.0133892 -1.57594 0
M  V30 14070 C 1335.65 0.972341 -2.12292 0
M  V30 14071 C 1336.64 1.34971 -1.03522 0
M  V30 14072 O 1337.82 1.4311 -1.31275 0
M  V30 14073 C 1334.95 2.25988 -2.63717 0
M  V30 14074 C 1333.9 2.02373 -3.77133 0
M  V30 14075 C 1333.23 3.37256 -4.14925 0
M  V30 14076 C 1334.53 1.37553 -5.03861 0
M  V30 14077 H 1336.22 0.516869 -2.94905 0
M  V30 14078 H 1333.77 0.247176 -1.41863 0
M  V30 14079 H 1335.72 2.95313 -3.00613 0
M  V30 14080 H 1334.45 2.73672 -1.78244 0
M  V30 14081 H 1333.11 1.3547 -3.40651 0
M  V30 14082 H 1332.75 3.82669 -3.26456 0
M  V30 14083 H 1332.45 3.22267 -4.91343 0
M  V30 14084 H 1333.98 4.07875 -4.5439 0
M  V30 14085 H 1335.39 1.96855 -5.38443 0
M  V30 14086 H 1333.79 1.33011 -5.85174 0
M  V30 14087 H 1334.86 0.346429 -4.83661 0
M  V30 14088 N 1336.2 1.55448 0.259558 0
M  V30 14089 C 1337.45 1.76337 0.987396 0
M  V30 14090 C 1337.77 0.57505 1.86328 0
M  V30 14091 O 1337.04 -0.409621 1.9157 0
M  V30 14092 H 1335.62 0.650312 0.367565 0
M  V30 14093 H 1338.28 1.9287 0.280551 0
M  V30 14094 H 1337.38 2.66975 1.61651 0
M  V30 14095 N 1337.68 -0.524672 1.4861 0
M  V30 14096 C 1338.91 -1.30292 1.60335 0
M  V30 14097 C 1339.32 -1.87338 0.264774 0
M  V30 14098 O 1338.66 -1.67388 -0.756756 0
M  V30 14099 C 1338.72 -2.48809 2.59488 0
M  V30 14100 C 1338.39 -2.12811 4.04426 0
M  V30 14101 C 1339.38 -1.68171 4.9195 0
M  V30 14102 C 1337.07 -2.23171 4.5 0
M  V30 14103 C 1339.06 -1.34363 6.23077 0
M  V30 14104 C 1336.75 -1.88975 5.81147 0
M  V30 14105 C 1337.75 -1.44643 6.67508 0
M  V30 14106 O 1337.44 -1.10898 7.96214 0
M  V30 14107 H 1337.17 -0.402288 0.543268 0
M  V30 14108 H 1339.72 -0.63908 1.95205 0
M  V30 14109 H 1337.95 -3.18192 2.19751 0
M  V30 14110 H 1339.64 -3.10866 2.60992 0
M  V30 14111 H 1340.41 -1.59632 4.57977 0
M  V30 14112 H 1336.29 -2.56632 3.82963 0
M  V30 14113 H 1339.83 -0.996875 6.90441 0
M  V30 14114 H 1335.73 -1.97156 6.14654 0
M  V30 14115 H 1336.5 -1.2425 8.09014 0
M  V30 14116 N 1339.16 -1.37287 -0.77395 0
M  V30 14117 C 1340.41 -1.32374 -1.53243 0
M  V30 14118 C 1340.73 0.0924284 -1.9428 0
M  V30 14119 O 1339.99 1.06517 -1.64173 0
M  V30 14120 C 1340.29 -2.20667 -2.81142 0
M  V30 14121 C 1339.95 -3.68975 -2.59168 0
M  V30 14122 C 1338.62 -4.09394 -2.52884 0
M  V30 14123 C 1340.97 -4.62941 -2.39447 0
M  V30 14124 C 1338.3 -5.41897 -2.24865 0
M  V30 14125 C 1340.65 -5.9568 -2.12952 0
M  V30 14126 C 1339.31 -6.35205 -2.05111 0
M  V30 14127 H 1338.58 -0.48439 -0.560756 0
M  V30 14128 H 1341.23 -1.69475 -0.891663 0
M  V30 14129 H 1339.53 -1.76553 -3.49766 0
M  V30 14130 H 1341.23 -2.1418 -3.3901 0
M  V30 14131 H 1337.82 -3.36919 -2.64922 0
M  V30 14132 H 1342 -4.32576 -2.43293 0
M  V30 14133 H 1337.26 -5.71486 -2.17288 0
M  V30 14134 H 1341.43 -6.68046 -1.9669 0
M  V30 14135 H 1339.06 -7.37804 -1.83163 0
M  V30 14136 N 1340.64 0.999871 -1.21821 0
M  V30 14137 C 1341.91 1.71135 -0.947213 0
M  V30 14138 C 1342.29 2.04087 0.539601 0
M  V30 14139 O 1341.64 1.71866 1.5058 0
M  V30 14140 C 1341.85 2.96704 -1.8376 0
M  V30 14141 C 1343.2 3.69627 -2.08952 0
M  V30 14142 O 1344.22 3.06697 -1.81151 0
M  V30 14143 O 1343.08 4.82832 -2.55999 0
M  V30 14144 H 1340.18 0.746631 -0.355628 0
M  V30 14145 H 1342.72 1.05684 -1.32774 0
M  V30 14146 H 1341.49 2.68802 -2.84361 0
M  V30 14147 H 1341.12 3.69894 -1.45821 0
M  V30 14148 N 1342.11 1.02678 1.19562 0
M  V30 14149 C 1343.34 0.740493 1.92874 0
M  V30 14150 C 1343.75 -0.704287 1.75603 0
M  V30 14151 O 1343.1 -1.49042 1.07389 0
M  V30 14152 C 1343.16 1.00929 3.45041 0
M  V30 14153 C 1342.82 2.4452 3.86081 0
M  V30 14154 C 1343.82 3.42647 3.9101 0
M  V30 14155 C 1341.5 2.78865 4.1778 0
M  V30 14156 C 1343.5 4.73175 4.27065 0
M  V30 14157 C 1341.18 4.09603 4.53507 0
M  V30 14158 C 1342.18 5.06568 4.58124 0
M  V30 14159 O 1341.87 6.34965 4.93026 0
M  V30 14160 H 1341.6 0.270435 0.619549 0
M  V30 14161 H 1344.16 1.37369 1.52706 0
M  V30 14162 H 1342.39 0.31895 3.85382 0
M  V30 14163 H 1344.08 0.712994 3.99589 0
M  V30 14164 H 1344.84 3.17452 3.66673 0
M  V30 14165 H 1340.72 2.04071 4.13372 0
M  V30 14166 H 1344.26 5.48857 4.30583 0
M  V30 14167 H 1340.16 4.34573 4.77302 0
M  V30 14168 H 1340.93 6.39406 5.10982 0
M  V30 14169 N 1343.59 -1.35528 0.804364 0
M  V30 14170 C 1344.56 -2.28153 0.21885 0
M  V30 14171 C 1345.56 -1.49486 -0.592511 0
M  V30 14172 O 1346.75 -1.69274 -0.411319 0
M  V30 14173 C 1343.88 -3.33736 -0.695195 0
M  V30 14174 H 1345.07 -2.81446 1.03576 0
M  V30 14175 H 1342.62 -1.45345 0.574854 0
M  V30 14176 H 1343.36 -2.85625 -1.53587 0
M  V30 14177 H 1343.14 -3.91931 -0.115143 0
M  V30 14178 H 1344.63 -4.02872 -1.09925 0
M  V30 14179 N 1345.07 -0.557671 -1.47404 0
M  V30 14180 C 1346.32 -0.0337884 -2.02472 0
M  V30 14181 C 1346.65 1.31624 -1.43197 0
M  V30 14182 O 1345.9 1.86989 -0.577366 0
M  V30 14183 C 1346.2 0.108324 -3.57236 0
M  V30 14184 C 1345.87 -1.17088 -4.35432 0
M  V30 14185 C 1344.53 -1.5214 -4.56516 0
M  V30 14186 C 1346.88 -2.01854 -4.80525 0
M  V30 14187 C 1344.21 -2.71803 -5.19942 0
M  V30 14188 C 1346.56 -3.2072 -5.45272 0
M  V30 14189 C 1345.22 -3.56085 -5.64588 0
M  V30 14190 H 1344.49 -0.012364 -0.740897 0
M  V30 14191 H 1347.14 -0.729276 -1.7707 0
M  V30 14192 H 1345.45 0.886781 -3.81633 0
M  V30 14193 H 1347.14 0.529031 -3.97495 0
M  V30 14194 H 1343.73 -0.887952 -4.19301 0
M  V30 14195 H 1347.92 -1.76081 -4.64014 0
M  V30 14196 H 1343.17 -2.99371 -5.33092 0
M  V30 14197 H 1347.35 -3.86689 -5.79176 0
M  V30 14198 H 1344.97 -4.48903 -6.13506 0
M  V30 14199 N 1346.55 1.54831 -0.294147 0
M  V30 14200 C 1347.78 2.04411 0.319938 0
M  V30 14201 C 1348.19 1.17174 1.4804 0
M  V30 14202 O 1347.55 0.195881 1.81446 0
M  V30 14203 C 1347.6 3.52924 0.782751 0
M  V30 14204 O 1347.32 4.36844 -0.331512 0
M  V30 14205 C 1348.82 4.18474 1.4627 0
M  V30 14206 H 1346.04 0.667286 0.0704973 0
M  V30 14207 H 1348.59 1.9989 -0.431785 0
M  V30 14208 H 1346.74 3.57828 1.48451 0
M  V30 14209 H 1347.16 5.24493 0.0275743 0
M  V30 14210 H 1348.63 5.23933 1.73776 0
M  V30 14211 H 1349.11 3.67793 2.40052 0
M  V30 14212 H 1349.71 4.17626 0.804291 0
M  V30 14213 N 1348.03 0.0217466 1.57585 0
M  V30 14214 C 1349.25 -0.67246 1.96196 0
M  V30 14215 C 1349.68 -1.6529 0.897827 0
M  V30 14216 O 1349.04 -1.80743 -0.142002 0
M  V30 14217 C 1349.08 -1.36162 3.33905 0
M  V30 14218 O 1348.19 -2.47671 3.29747 0
M  V30 14219 H 1347.53 -0.177238 0.639908 0
M  V30 14220 H 1350.06 0.0814073 2.04438 0
M  V30 14221 H 1350.07 -1.7201 3.69968 0
M  V30 14222 H 1348.74 -0.642893 4.10901 0
M  V30 14223 H 1347.32 -2.13989 3.0539 0
M  V30 14224 N 1349.51 -1.55583 -0.251311 0
M  V30 14225 C 1350.75 -1.76411 -0.977859 0
M  V30 14226 C 1351.07 -0.584857 -1.86651 0
M  V30 14227 O 1352.27 -0.676046 -2.62948 0
M  V30 14228 C 1350.73 -3.12302 -1.78872 0
M  V30 14229 C 1350.34 -4.37862 -0.947674 0
M  V30 14230 C 1352.08 -3.42471 -2.50827 0
M  V30 14231 C 1349.99 -5.64786 -1.75417 0
M  V30 14232 H 1348.92 -0.657628 -0.368839 0
M  V30 14233 H 1351.57 -1.82019 -0.232682 0
M  V30 14234 H 1349.95 -3.0079 -2.57569 0
M  V30 14235 H 1351.13 -4.60351 -0.203352 0
M  V30 14236 H 1349.44 -4.14996 -0.341666 0
M  V30 14237 H 1352.04 -4.34514 -3.11612 0
M  V30 14238 H 1352.38 -2.63592 -3.22219 0
M  V30 14239 H 1352.91 -3.55179 -1.79145 0
M  V30 14240 H 1349.65 -6.46474 -1.08407 0
M  V30 14241 H 1349.17 -5.46405 -2.47389 0
M  V30 14242 H 1350.85 -6.03881 -2.32242 0
M  V30 14243 N 1350.98 0.516783 -1.48886 0
M  V30 14244 C 1352.23 1.27187 -1.57574 0
M  V30 14245 C 1352.56 1.92815 -0.255432 0
M  V30 14246 O 1351.81 1.80533 0.755403 0
M  V30 14247 C 1352.11 2.37296 -2.67256 0
M  V30 14248 C 1351.78 1.89232 -4.0927 0
M  V30 14249 C 1350.44 1.75842 -4.47921 0
M  V30 14250 C 1352.79 1.53073 -4.98215 0
M  V30 14251 C 1350.12 1.24648 -5.73306 0
M  V30 14252 C 1352.47 1.03337 -6.24103 0
M  V30 14253 C 1351.14 0.885744 -6.61597 0
M  V30 14254 H 1350.41 0.46541 -0.576606 0
M  V30 14255 H 1353.05 0.575223 -1.82657 0
M  V30 14256 H 1351.36 3.12685 -2.36084 0
M  V30 14257 H 1353.06 2.95393 -2.7119 0
M  V30 14258 H 1349.65 2.00608 -3.78754 0
M  V30 14259 H 1353.83 1.62272 -4.69022 0
M  V30 14260 H 1349.09 1.11917 -6.0107 0
M  V30 14261 H 1353.26 0.744338 -6.92411 0
M  V30 14262 H 1350.89 0.486866 -7.58639 0
M  V30 14263 N 1352.46 1.37696 0.766659 0
M  V30 14264 C 1353.69 1.3639 1.55581 0
M  V30 14265 C 1354.1 -0.0495272 1.88735 0
M  V30 14266 O 1353.46 -1.01268 1.51826 0
M  V30 14267 C 1353.51 2.20717 2.86298 0
M  V30 14268 O 1353.23 3.56552 2.54563 0
M  V30 14269 C 1354.73 2.27446 3.80504 0
M  V30 14270 H 1351.95 0.466993 0.481828 0
M  V30 14271 H 1354.5 1.81103 0.949834 0
M  V30 14272 H 1352.65 1.79499 3.43306 0
M  V30 14273 H 1353.07 4.00811 3.38306 0
M  V30 14274 H 1354.54 2.90762 4.69214 0
M  V30 14275 H 1355.02 1.28434 4.20002 0
M  V30 14276 H 1355.62 2.68998 3.29424 0
M  V30 14277 N 1353.94 -0.993397 1.22349 0
M  V30 14278 C 1355.19 -1.73544 1.04931 0
M  V30 14279 C 1355.52 -1.89721 -0.414661 0
M  V30 14280 O 1354.79 -1.44001 -1.30743 0
M  V30 14281 C 1355.08 -3.14131 1.7605 0
M  V30 14282 C 1354.93 -3.05604 3.30039 0
M  V30 14283 C 1356.25 -4.13294 1.51249 0
M  V30 14284 H 1353.37 -0.629915 0.382591 0
M  V30 14285 H 1356.01 -1.15737 1.50682 0
M  V30 14286 H 1354.16 -3.63483 1.37157 0
M  V30 14287 H 1355.83 -2.63876 3.78374 0
M  V30 14288 H 1354.07 -2.42421 3.59742 0
M  V30 14289 H 1354.75 -4.05086 3.74979 0
M  V30 14290 H 1357.22 -3.72696 1.85033 0
M  V30 14291 H 1356.1 -5.09781 2.03507 0
M  V30 14292 H 1356.36 -4.39855 0.444973 0
M  V30 14293 N 1355.42 -1.03311 -1.19015 0
M  V30 14294 C 1356.33 -0.627735 -2.26046 0
M  V30 14295 C 1357.34 0.342483 -1.70596 0
M  V30 14296 O 1358.52 0.199307 -2.00411 0
M  V30 14297 C 1355.58 0.0108274 -3.46698 0
M  V30 14298 C 1354.65 -1.00743 -4.17312 0
M  V30 14299 C 1353.88 -0.399245 -5.32205 0
M  V30 14300 O 1354.1 0.796649 -5.64809 0
M  V30 14301 O 1353.04 -1.12419 -5.91308 0
M  V30 14302 H 1356.86 -1.51923 -2.6297 0
M  V30 14303 H 1354.45 -0.803538 -1.25951 0
M  V30 14304 H 1356.33 0.366672 -4.19802 0
M  V30 14305 H 1355 0.876265 -3.11614 0
M  V30 14306 H 1353.91 -1.41494 -3.4631 0
M  V30 14307 H 1355.24 -1.84338 -4.56377 0
M  V30 14308 N 1356.9 1.35099 -0.81154 0
M  V30 14309 C 1358.14 1.9788 -0.390695 0
M  V30 14310 C 1358.46 1.6509 1.04903 0
M  V30 14311 O 1359.66 2.21273 1.57324 0
M  V30 14312 C 1358.12 3.54025 -0.647632 0
M  V30 14313 C 1357.73 3.9572 -2.10023 0
M  V30 14314 C 1359.47 4.23492 -0.29239 0
M  V30 14315 C 1357.38 5.44731 -2.30266 0
M  V30 14316 H 1356.31 0.740441 -0.14235 0
M  V30 14317 H 1358.96 1.54098 -0.996294 0
M  V30 14318 H 1357.34 3.9599 0.0279838 0
M  V30 14319 H 1358.52 3.64893 -2.81407 0
M  V30 14320 H 1356.83 3.39157 -2.41581 0
M  V30 14321 H 1359.43 5.33035 -0.421618 0
M  V30 14322 H 1359.77 4.09268 0.76195 0
M  V30 14323 H 1360.3 3.86965 -0.922122 0
M  V30 14324 H 1357.04 5.63928 -3.34163 0
M  V30 14325 H 1356.56 5.7711 -1.63413 0
M  V30 14326 H 1358.24 6.1126 -2.12062 0
M  V30 14327 N 1358.37 0.56548 1.47106 0
M  V30 14328 C 1359.3 -0.16567 2.32912 0
M  V30 14329 C 1360.28 -0.900678 1.44298 0
M  V30 14330 O 1361.47 -0.879523 1.73142 0
M  V30 14331 C 1358.6 -1.19092 3.26243 0
M  V30 14332 C 1357.55 -0.571849 4.24163 0
M  V30 14333 C 1356.88 -1.70233 5.06878 0
M  V30 14334 C 1358.18 0.479785 5.20092 0
M  V30 14335 H 1359.87 0.550705 2.94292 0
M  V30 14336 H 1357.42 0.266284 1.41517 0
M  V30 14337 H 1359.37 -1.71064 3.85117 0
M  V30 14338 H 1358.1 -1.93734 2.62934 0
M  V30 14339 H 1356.76 -0.073353 3.66527 0
M  V30 14340 H 1356.4 -2.438 4.39967 0
M  V30 14341 H 1356.1 -1.29384 5.73178 0
M  V30 14342 H 1357.63 -2.22515 5.68612 0
M  V30 14343 H 1359.04 0.0458042 5.73282 0
M  V30 14344 H 1357.44 0.807615 5.94641 0
M  V30 14345 H 1358.51 1.37259 4.65068 0
M  V30 14346 N 1359.85 -1.54672 0.302354 0
M  V30 14347 C 1360.78 -2.2653 -0.566265 0
M  V30 14348 C 1361.76 -1.26532 -1.13682 0
M  V30 14349 O 1362.95 -1.55307 -1.1659 0
M  V30 14350 C 1360.08 -3.00709 -1.73757 0
M  V30 14351 C 1359.03 -4.07865 -1.29731 0
M  V30 14352 C 1358.36 -4.69767 -2.55388 0
M  V30 14353 C 1359.66 -5.20547 -0.427567 0
M  V30 14354 H 1361.35 -2.99382 0.033071 0
M  V30 14355 H 1358.9 -1.4399 0.0173458 0
M  V30 14356 H 1360.85 -3.497 -2.35134 0
M  V30 14357 H 1359.58 -2.25437 -2.36317 0
M  V30 14358 H 1358.23 -3.59726 -0.706586 0
M  V30 14359 H 1357.88 -3.91134 -3.16265 0
M  V30 14360 H 1357.58 -5.42137 -2.26631 0
M  V30 14361 H 1359.11 -5.21521 -3.17566 0
M  V30 14362 H 1360.52 -5.65424 -0.947053 0
M  V30 14363 H 1358.92 -5.99645 -0.233704 0
M  V30 14364 H 1359.99 -4.81805 0.546993 0
M  V30 14365 N 1361.33 -0.0301034 -1.57571 0
M  V30 14366 C 1362.28 0.951421 -2.10277 0
M  V30 14367 C 1363.25 1.3224 -1.00508 0
M  V30 14368 O 1364.43 1.41554 -1.27934 0
M  V30 14369 C 1361.57 2.2282 -2.63525 0
M  V30 14370 C 1360.69 1.91359 -3.87306 0
M  V30 14371 C 1359.82 3.13339 -4.28943 0
M  V30 14372 C 1358.86 2.77701 -5.4548 0
M  V30 14373 N 1358 3.9231 -5.82269 0
M  V30 14374 H 1362.84 0.495049 -2.93859 0
M  V30 14375 H 1360.37 0.232756 -1.45247 0
M  V30 14376 H 1362.33 2.97502 -2.92487 0
M  V30 14377 H 1360.96 2.66072 -1.82772 0
M  V30 14378 H 1360.01 1.06915 -3.65066 0
M  V30 14379 H 1361.33 1.61112 -4.72064 0
M  V30 14380 H 1360.48 3.9634 -4.59347 0
M  V30 14381 H 1359.22 3.46747 -3.42954 0
M  V30 14382 H 1358.22 1.93113 -5.14769 0
M  V30 14383 H 1359.45 2.45508 -6.33169 0
M  V30 14384 H 1357.39 4.25559 -4.99235 0
M  V30 14385 H 1357.31 3.65691 -6.61669 0
M  V30 14386 H 1358.58 4.76012 -6.17279 0
M  V30 14387 N 1362.81 1.55714 0.243056 0
M  V30 14388 C 1363.74 1.85615 1.32748 0
M  V30 14389 C 1364.72 0.711577 1.46203 0
M  V30 14390 O 1365.9 0.957732 1.62357 0
M  V30 14391 C 1363.03 2.04425 2.70052 0
M  V30 14392 C 1362.08 3.27071 2.73727 0
M  V30 14393 S 1362.91 4.83615 2.2995 0
M  V30 14394 C 1364.07 5.05434 3.69171 0
M  V30 14395 H 1364.3 2.77305 1.07187 0
M  V30 14396 H 1361.83 1.47871 0.444234 0
M  V30 14397 H 1363.79 2.15946 3.4911 0
M  V30 14398 H 1362.45 1.1357 2.92849 0
M  V30 14399 H 1361.64 3.37211 3.74573 0
M  V30 14400 H 1361.25 3.14296 2.02716 0
M  V30 14401 H 1363.54 4.93013 4.64698 0
M  V30 14402 H 1364.48 6.07401 3.63963 0
M  V30 14403 H 1364.89 4.33262 3.61862 0
M  V30 14404 N 1364.29 -0.50888 1.49158 0
M  V30 14405 C 1365.51 -1.28771 1.61943 0
M  V30 14406 C 1365.93 -1.86594 0.287759 0
M  V30 14407 O 1365.29 -1.67448 -0.725769 0
M  V30 14408 C 1365.34 -2.4236 2.68224 0
M  V30 14409 O 1365.06 -1.86915 3.96225 0
M  V30 14410 C 1366.56 -3.33856 2.91642 0
M  V30 14411 H 1363.78 -0.390849 0.545416 0
M  V30 14412 H 1366.32 -0.611729 1.95136 0
M  V30 14413 H 1364.48 -3.05803 2.37831 0
M  V30 14414 H 1364.89 -2.61426 4.54705 0
M  V30 14415 H 1366.37 -4.09856 3.69759 0
M  V30 14416 H 1366.84 -3.90374 2.01258 0
M  V30 14417 H 1367.45 -2.76187 3.23421 0
M  V30 14418 N 1365.76 -1.381 -0.759346 0
M  V30 14419 C 1367.01 -1.3419 -1.52055 0
M  V30 14420 C 1367.34 0.0697657 -1.94075 0
M  V30 14421 O 1366.62 1.02975 -1.65004 0
M  V30 14422 C 1366.9 -2.29236 -2.7771 0
M  V30 14423 C 1366.75 -3.79237 -2.41866 0
M  V30 14424 C 1368.07 -2.22511 -3.79706 0
M  V30 14425 H 1365.19 -0.488768 -0.551611 0
M  V30 14426 H 1367.83 -1.68902 -0.870174 0
M  V30 14427 H 1365.98 -1.99764 -3.33206 0
M  V30 14428 H 1367.66 -4.19358 -1.92189 0
M  V30 14429 H 1365.9 -3.97199 -1.74399 0
M  V30 14430 H 1366.57 -4.41193 -3.31742 0
M  V30 14431 H 1369.05 -2.48516 -3.33735 0
M  V30 14432 H 1367.92 -2.91134 -4.6533 0
M  V30 14433 H 1368.18 -1.22206 -4.24874 0
M  V30 14434 N 1367.24 0.986894 -1.22875 0
M  V30 14435 C 1368.49 1.72729 -1.05693 0
M  V30 14436 C 1368.82 1.90191 0.407121 0
M  V30 14437 O 1368.07 1.44667 1.31796 0
M  V30 14438 C 1368.37 3.13283 -1.72012 0
M  V30 14439 C 1368.04 3.15719 -3.2192 0
M  V30 14440 C 1366.7 3.1609 -3.62823 0
M  V30 14441 C 1369.05 3.11539 -4.17843 0
M  V30 14442 C 1366.38 3.09991 -4.98119 0
M  V30 14443 C 1368.73 3.06982 -5.53123 0
M  V30 14444 C 1367.4 3.05672 -5.93397 0
M  V30 14445 H 1366.67 0.63206 -0.386758 0
M  V30 14446 H 1369.31 1.15538 -1.52719 0
M  V30 14447 H 1367.62 3.7382 -1.17327 0
M  V30 14448 H 1369.31 3.69326 -1.56203 0
M  V30 14449 H 1365.9 3.16183 -2.89355 0
M  V30 14450 H 1370.09 3.10397 -3.87256 0
M  V30 14451 H 1365.34 3.07326 -5.28546 0
M  V30 14452 H 1369.52 3.02705 -6.27171 0
M  V30 14453 H 1367.15 3.00701 -6.982 0
M  V30 14454 N 1368.72 1.0394 1.18466 0
M  V30 14455 C 1369.97 0.740576 1.88042 0
M  V30 14456 C 1370.29 -0.733822 1.80666 0
M  V30 14457 O 1369.56 -1.52943 1.22414 0
M  V30 14458 H 1368.14 0.270949 0.696129 0
M  V30 14459 H 1370.8 1.31588 1.43772 0
M  V30 14460 H 1369.9 1.04429 2.94111 0
M  V30 14461 N 1370.2 -1.34667 0.818693 0
M  V30 14462 C 1371.16 -2.27908 0.243037 0
M  V30 14463 C 1372.16 -1.50106 -0.576622 0
M  V30 14464 O 1373.35 -1.69701 -0.393342 0
M  V30 14465 C 1370.48 -3.34455 -0.659759 0
M  V30 14466 H 1371.68 -2.80332 1.06555 0
M  V30 14467 H 1369.23 -1.44727 0.590237 0
M  V30 14468 H 1369.96 -2.87238 -1.50549 0
M  V30 14469 H 1369.75 -3.92031 -0.073567 0
M  V30 14470 H 1371.24 -4.04016 -1.05646 0
M  V30 14471 N 1371.68 -0.573274 -1.46804 0
M  V30 14472 C 1372.92 -0.0552613 -2.02425 0
M  V30 14473 C 1373.25 1.30098 -1.44585 0
M  V30 14474 O 1372.51 1.86366 -0.597166 0
M  V30 14475 C 1372.81 0.0704285 -3.57331 0
M  V30 14476 C 1372.47 -1.217 -4.34166 0
M  V30 14477 C 1371.13 -1.56973 -4.54877 0
M  V30 14478 C 1373.49 -2.06939 -4.78357 0
M  V30 14479 C 1370.81 -2.77302 -5.1703 0
M  V30 14480 C 1373.17 -3.26486 -5.41839 0
M  V30 14481 C 1371.83 -3.62053 -5.6078 0
M  V30 14482 H 1371.1 -0.0202215 -0.740724 0
M  V30 14483 H 1373.75 -0.748016 -1.76287 0
M  V30 14484 H 1372.05 0.846254 -3.82552 0
M  V30 14485 H 1373.75 0.486841 -3.98034 0
M  V30 14486 H 1370.34 -0.932374 -4.18336 0
M  V30 14487 H 1374.52 -1.80992 -4.62121 0
M  V30 14488 H 1369.78 -3.05008 -5.29887 0
M  V30 14489 H 1373.95 -3.92811 -5.75042 0
M  V30 14490 H 1371.58 -4.55385 -6.08711 0
M  V30 14491 N 1373.15 1.5451 -0.310553 0
M  V30 14492 C 1374.08 2.26827 0.554243 0
M  V30 14493 C 1375.07 1.27133 1.13009 0
M  V30 14494 O 1376.25 1.55923 1.15765 0
M  V30 14495 C 1373.38 3.01626 1.7216 0
M  V30 14496 C 1372.33 4.08547 1.27566 0
M  V30 14497 C 1371.66 4.71115 2.52893 0
M  V30 14498 C 1372.96 5.20766 0.399955 0
M  V30 14499 H 1374.65 2.9936 -0.0489475 0
M  V30 14500 H 1372.2 1.43978 -0.0249817 0
M  V30 14501 H 1374.15 3.50942 2.33276 0
M  V30 14502 H 1372.88 2.26688 2.35118 0
M  V30 14503 H 1371.54 3.60096 0.687499 0
M  V30 14504 H 1371.18 3.92805 3.14186 0
M  V30 14505 H 1370.88 5.43331 2.23752 0
M  V30 14506 H 1372.41 5.23198 3.14796 0
M  V30 14507 H 1373.82 5.65918 0.917054 0
M  V30 14508 H 1372.22 5.9976 0.2019 0
M  V30 14509 H 1373.29 4.81508 -0.572537 0
M  V30 14510 N 1374.63 0.0384594 1.57553 0
M  V30 14511 C 1375.58 -0.949625 2.07283 0
M  V30 14512 C 1376.57 -1.27973 0.975284 0
M  V30 14513 O 1377.76 -1.26428 1.23875 0
M  V30 14514 C 1374.89 -2.22887 2.61106 0
M  V30 14515 C 1373.97 -1.92672 3.77807 0
M  V30 14516 N 1374.37 -1.32764 4.88065 0
M  V30 14517 C 1372.66 -2.22612 3.86471 0
M  V30 14518 C 1373.36 -1.19892 5.69211 0
M  V30 14519 N 1372.34 -1.69757 5.16414 0
M  V30 14520 H 1376.14 -0.481562 2.89928 0
M  V30 14521 H 1373.66 -0.166321 1.61546 0
M  V30 14522 H 1375.65 -2.94556 2.9503 0
M  V30 14523 H 1374.31 -2.70311 1.79895 0
M  V30 14524 H 1375.32 -1.00146 5.08125 0
M  V30 14525 H 1372 -2.72645 3.16182 0
M  V30 14526 H 1373.39 -0.734892 6.67869 0
M  V30 14527 N 1376.11 -1.55841 -0.234795 0
M  V30 14528 C 1377.53 -1.48536 -0.583885 0
M  V30 14529 C 1377.73 -0.731018 -1.87772 0
M  V30 14530 O 1376.78 -0.265287 -2.51103 0
M  V30 14531 C 1378.1 -2.93017 -0.675389 0
M  V30 14532 C 1379.64 -3.03459 -0.766906 0
M  V30 14533 C 1380.12 -4.49272 -0.889868 0
M  V30 14534 N 1381.61 -4.5326 -0.95443 0
M  V30 14535 C 1382.35 -5.63346 -1.06905 0
M  V30 14536 N 1381.84 -6.83215 -1.14845 0
M  V30 14537 N 1383.63 -5.51169 -1.10315 0
M  V30 14538 H 1375.79 -2.0332 0.614405 0
M  V30 14539 H 1378.05 -0.923581 0.213779 0
M  V30 14540 H 1377.75 -3.51099 0.205493 0
M  V30 14541 H 1377.63 -3.4418 -1.54337 0
M  V30 14542 H 1380.02 -2.4545 -1.63823 0
M  V30 14543 H 1380.1 -2.55487 0.126472 0
M  V30 14544 H 1379.74 -5.07895 -0.0230489 0
M  V30 14545 H 1379.67 -4.94937 -1.79847 0
M  V30 14546 H 1382.16 -3.6693 -0.903923 0
M  V30 14547 H 1382.47 -7.62863 -1.23532 0
M  V30 14548 H 1380.82 -6.85952 -1.11781 0
M  V30 14549 H 1384.01 -4.56453 -1.03769 0
M  V30 14550 H 1384.18 -6.36998 -1.18903 0
M  V30 14551 N 1377.59 0.500963 -1.49426 0
M  V30 14552 C 1378.84 1.25261 -1.58601 0
M  V30 14553 C 1379.16 1.93056 -0.274647 0
M  V30 14554 O 1378.43 1.82736 0.706003 0
M  V30 14555 H 1377.01 0.465328 -0.584362 0
M  V30 14556 H 1379.67 0.580588 -1.86052 0
M  V30 14557 H 1378.77 2.01652 -2.38208 0
M  V30 14558 N 1379.07 1.38501 0.752011 0
M  V30 14559 C 1380.29 1.38212 1.54636 0
M  V30 14560 C 1380.72 -0.0256356 1.88083 0
M  V30 14561 O 1380.08 -1.00812 1.50687 0
M  V30 14562 C 1380.12 2.24597 2.82114 0
M  V30 14563 O 1379.23 1.66415 3.77332 0
M  V30 14564 H 1378.57 0.47138 0.46765 0
M  V30 14565 H 1381.1 1.82283 0.929205 0
M  V30 14566 H 1381.11 2.38511 3.31023 0
M  V30 14567 H 1379.78 3.26913 2.57101 0
M  V30 14568 H 1378.36 1.61651 3.36041 0
M  V30 14569 N 1380.55 -0.980364 1.23396 0
M  V30 14570 C 1381.79 -1.72166 1.06607 0
M  V30 14571 C 1382.12 -1.90405 -0.397029 0
M  V30 14572 O 1381.38 -1.45363 -1.31027 0
M  V30 14573 C 1381.67 -3.12367 1.73671 0
M  V30 14574 C 1381.34 -3.14007 3.2359 0
M  V30 14575 C 1380 -3.14162 3.64494 0
M  V30 14576 C 1382.35 -3.09319 4.19489 0
M  V30 14577 C 1379.68 -3.07345 4.99756 0
M  V30 14578 C 1382.03 -3.04044 5.54743 0
M  V30 14579 C 1380.7 -3.02521 5.9501 0
M  V30 14580 H 1379.97 -0.63 0.390104 0
M  V30 14581 H 1382.62 -1.14727 1.5333 0
M  V30 14582 H 1380.92 -3.73193 1.19308 0
M  V30 14583 H 1382.62 -3.68493 1.58159 0
M  V30 14584 H 1379.21 -3.14644 2.91028 0
M  V30 14585 H 1383.39 -3.08339 3.88897 0
M  V30 14586 H 1378.65 -3.04519 5.30168 0
M  V30 14587 H 1382.82 -2.99374 6.28767 0
M  V30 14588 H 1380.45 -2.96994 6.99785 0
M  V30 14589 N 1382.02 -1.04567 -1.17913 0
M  V30 14590 C 1383.26 -0.760977 -1.89706 0
M  V30 14591 C 1383.63 0.698804 -1.78832 0
M  V30 14592 O 1384.83 1.09733 -2.45382 0
M  V30 14593 C 1383.1 -1.22042 -3.35917 0
M  V30 14594 S 1384.66 -1.06214 -4.25751 0
M  V30 14595 H 1381.48 -0.276538 -0.655017 0
M  V30 14596 H 1384.08 -1.339 -1.42446 0
M  V30 14597 H 1382.78 -2.27813 -3.41364 0
M  V30 14598 H 1382.31 -0.636401 -3.88218 0
M  V30 14599 H 1384.33 0.0174486 -4.96197 0
M  V30 14600 N 1383.5 1.34231 -0.825823 0
M  V30 14601 C 1384.92 1.51166 -0.511945 0
M  V30 14602 C 1385.12 1.76981 0.963318 0
M  V30 14603 O 1384.17 1.82243 1.74767 0
M  V30 14604 C 1385.49 2.67474 -1.37399 0
M  V30 14605 C 1387.03 2.81356 -1.37141 0
M  V30 14606 C 1387.51 4.0071 -2.218 0
M  V30 14607 N 1389 4.07922 -2.19439 0
M  V30 14608 C 1389.74 4.99438 -2.81691 0
M  V30 14609 N 1389.23 5.96157 -3.52944 0
M  V30 14610 N 1391.02 4.92332 -2.7123 0
M  V30 14611 H 1383.18 1.15734 -1.78099 0
M  V30 14612 H 1385.44 0.567856 -0.759107 0
M  V30 14613 H 1385.14 2.55036 -2.42176 0
M  V30 14614 H 1385.02 3.62558 -1.04075 0
M  V30 14615 H 1387.41 2.93233 -0.331405 0
M  V30 14616 H 1387.49 1.87072 -1.74464 0
M  V30 14617 H 1387.13 3.89593 -3.25852 0
M  V30 14618 H 1387.06 4.94213 -1.81826 0
M  V30 14619 H 1389.55 3.38695 -1.67612 0
M  V30 14620 H 1389.86 6.62623 -3.97682 0
M  V30 14621 H 1388.21 5.96272 -3.5705 0
M  V30 14622 H 1391.4 4.15733 -2.15137 0
M  V30 14623 H 1391.57 5.63458 -3.20031 0
M  V30 14624 N 1384.98 0.581051 1.46498 0
M  V30 14625 C 1386.2 0.0696654 2.07283 0
M  V30 14626 C 1386.63 -1.22525 1.42721 0
M  V30 14627 O 1385.99 -1.73967 0.510421 0
M  V30 14628 C 1386.04 -0.0843864 3.60501 0
M  V30 14629 O 1385.14 -1.14129 3.96293 0
M  V30 14630 H 1384.48 0.0620572 0.661094 0
M  V30 14631 H 1387.01 0.803522 1.88161 0
M  V30 14632 H 1387.02 -0.29108 4.0696 0
M  V30 14633 H 1385.7 0.861274 4.06884 0
M  V30 14634 H 1384.27 -0.913186 3.61546 0
M  V30 14635 N 1386.46 -1.54343 0.318742 0
M  V30 14636 C 1387.7 -2.01485 -0.278487 0
M  V30 14637 C 1388.06 -1.20298 -1.50154 0
M  V30 14638 O 1387.35 -0.275803 -1.89605 0
M  V30 14639 C 1387.55 -3.51079 -0.669181 0
M  V30 14640 C 1387.37 -4.46748 0.514464 0
M  V30 14641 C 1386.14 -4.95061 1.01206 0
M  V30 14642 C 1388.34 -4.95852 1.36512 0
M  V30 14643 N 1386.32 -5.74622 2.16061 0
M  V30 14644 C 1387.7 -5.7329 2.36091 0
M  V30 14645 C 1389.75 -4.78004 1.39344 0
M  V30 14646 C 1388.45 -6.3478 3.38301 0
M  V30 14647 C 1390.48 -5.40325 2.40422 0
M  V30 14648 C 1389.84 -6.1761 3.38728 0
M  V30 14649 H 1385.94 -0.77922 -0.0658815 0
M  V30 14650 H 1388.52 -1.89364 0.452687 0
M  V30 14651 H 1386.7 -3.63455 -1.3695 0
M  V30 14652 H 1388.43 -3.84994 -1.24747 0
M  V30 14653 H 1385.18 -4.69984 0.584127 0
M  V30 14654 H 1385.61 -6.19082 2.73983 0
M  V30 14655 H 1390.25 -4.17819 0.64709 0
M  V30 14656 H 1387.97 -6.94088 4.13845 0
M  V30 14657 H 1391.55 -5.28435 2.43409 0
M  V30 14658 H 1390.43 -6.64978 4.15661 0
M  V30 14659 N 1387.94 -0.0468143 -1.5753 0
M  V30 14660 C 1389.18 0.627939 -1.92518 0
M  V30 14661 C 1389.51 1.71107 -0.924801 0
M  V30 14662 O 1388.77 1.95597 0.0635812 0
M  V30 14663 C 1389.06 1.26669 -3.342 0
M  V30 14664 C 1388.73 0.312184 -4.49818 0
M  V30 14665 C 1387.39 0.0495202 -4.81175 0
M  V30 14666 C 1389.74 -0.342228 -5.20075 0
M  V30 14667 C 1387.07 -0.875064 -5.80137 0
M  V30 14668 C 1389.42 -1.25498 -6.20027 0
M  V30 14669 C 1388.09 -1.52636 -6.49814 0
M  V30 14670 H 1387.36 0.229779 -0.704473 0
M  V30 14671 H 1390.01 -0.112363 -1.9117 0
M  V30 14672 H 1388.31 2.08215 -3.31894 0
M  V30 14673 H 1390.01 1.79563 -3.5855 0
M  V30 14674 H 1386.6 0.527088 -4.25347 0
M  V30 14675 H 1390.78 -0.152384 -4.96066 0
M  V30 14676 H 1386.04 -1.09284 -6.01554 0
M  V30 14677 H 1390.21 -1.76815 -6.7358 0
M  V30 14678 H 1387.84 -2.24443 -7.26312 0
M  V30 14679 N 1389.41 1.55964 0.226527 0
M  V30 14680 C 1390.36 1.92857 1.30034 0
M  V30 14681 C 1391.36 0.810008 1.48779 0
M  V30 14682 O 1392.56 0.994801 1.50012 0
M  V30 14683 H 1388.94 0.612807 0.435857 0
M  V30 14684 H 1390.91 2.82469 0.96196 0
M  V30 14685 C 1389.66 2.25735 2.6446 0
M  V30 14686 H 1388.98 3.11317 2.50842 0
M  V30 14687 H 1390.42 2.55437 3.3842 0
M  V30 14688 C 1388.88 1.08074 3.19095 0
M  V30 14689 O 1389.41 0.339279 4.00265 0
M  V30 14690 N 1387.62 0.86589 2.774 0
M  V30 14691 H 1387.16 1.47055 2.11501 0
M  V30 14692 H 1387.12 0.0803566 3.14297 0
M  V30 14693 N 1390.89 -0.493031 1.4969 0
M  V30 14694 C 1391.83 -1.61165 1.61558 0
M  V30 14695 C 1392.8 -1.55828 0.464363 0
M  V30 14696 O 1393.99 -1.7577 0.680973 0
M  V30 14697 C 1391.11 -2.997 1.5779 0
M  V30 14698 C 1390.16 -3.2327 2.78207 0
M  V30 14699 S 1390.99 -3.05531 4.39785 0
M  V30 14700 C 1392.15 -4.46447 4.38675 0
M  V30 14701 H 1392.38 -1.50854 2.56185 0
M  V30 14702 H 1389.92 -0.678777 1.38679 0
M  V30 14703 H 1391.87 -3.79579 1.56302 0
M  V30 14704 H 1390.53 -3.07419 0.644379 0
M  V30 14705 H 1389.73 -4.24422 2.71812 0
M  V30 14706 H 1389.33 -2.51126 2.77149 0
M  V30 14707 H 1391.62 -5.38683 4.10886 0
M  V30 14708 H 1392.56 -4.5789 5.40132 0
M  V30 14709 H 1392.97 -4.27499 3.68652 0
M  V30 14710 N 1392.37 -1.38898 -0.744656 0
M  V30 14711 C 1393.3 -1.39571 -1.87195 0
M  V30 14712 C 1394.28 -0.260372 -1.68095 0
M  V30 14713 O 1395.47 -0.464776 -1.88556 0
M  V30 14714 C 1392.6 -1.22889 -3.24832 0
M  V30 14715 C 1391.55 -2.33721 -3.58551 0
M  V30 14716 C 1390.88 -2.02136 -4.9502 0
M  V30 14717 C 1392.18 -3.7601 -3.62511 0
M  V30 14718 H 1393.87 -2.33908 -1.86889 0
M  V30 14719 H 1391.42 -1.12591 -0.897739 0
M  V30 14720 H 1393.37 -1.21983 -4.03359 0
M  V30 14721 H 1392.09 -0.250172 -3.2564 0
M  V30 14722 H 1390.75 -2.33828 -2.82348 0
M  V30 14723 H 1390.4 -1.02726 -4.92399 0
M  V30 14724 H 1390.1 -2.76371 -5.18549 0
M  V30 14725 H 1391.62 -2.02864 -5.75915 0
M  V30 14726 H 1393.04 -3.77885 -4.31133 0
M  V30 14727 H 1391.44 -4.49524 -3.97553 0
M  V30 14728 H 1392.51 -4.07682 -2.62533 0
M  V30 14729 N 1393.85 0.973806 -1.23914 0
M  V30 14730 C 1395.13 1.69087 -0.9833 0
M  V30 14731 C 1395.51 2.05186 0.49619 0
M  V30 14732 O 1394.85 1.75021 1.46901 0
M  V30 14733 C 1395.06 2.92739 -1.90012 0
M  V30 14734 C 1396.41 3.65112 -2.16745 0
M  V30 14735 O 1397.44 3.02785 -1.87616 0
M  V30 14736 O 1396.29 4.77293 -2.66183 0
M  V30 14737 H 1393.39 0.738919 -0.371386 0
M  V30 14738 H 1395.93 1.02844 -1.34986 0
M  V30 14739 H 1394.71 2.6271 -2.89999 0
M  V30 14740 H 1394.33 3.66718 -1.53635 0
M  V30 14741 N 1395.33 1.05191 1.17357 0
M  V30 14742 C 1396.26 0.673931 2.23563 0
M  V30 14743 C 1397.24 -0.328284 1.66902 0
M  V30 14744 O 1398.42 -0.205878 1.93106 0
M  V30 14745 C 1395.55 0.0478801 3.47267 0
M  V30 14746 C 1394.51 0.974855 4.1675 0
M  V30 14747 C 1393.83 0.212684 5.34277 0
M  V30 14748 C 1395.13 2.299 4.68981 0
M  V30 14749 H 1396.83 1.56183 2.55436 0
M  V30 14750 H 1394.37 0.752408 1.2278 0
M  V30 14751 H 1396.33 -0.228343 4.20781 0
M  V30 14752 H 1395.05 -0.874963 3.14662 0
M  V30 14753 H 1393.71 1.23564 3.45148 0
M  V30 14754 H 1393.36 -0.712924 4.97922 0
M  V30 14755 H 1393.06 0.830351 5.81703 0
M  V30 14756 H 1394.58 -0.056255 6.10574 0
M  V30 14757 H 1395.99 2.08269 5.34132 0
M  V30 14758 H 1394.39 2.87064 5.26986 0
M  V30 14759 H 1395.46 2.93759 3.8579 0
M  V30 14760 N 1396.8 -1.33791 0.83293 0
M  V30 14761 C 1397.73 -2.31853 0.276846 0
M  V30 14762 C 1398.72 -1.58702 -0.612184 0
M  V30 14763 O 1399.9 -1.86629 -0.536975 0
M  V30 14764 C 1397.03 -3.42855 -0.55385 0
M  V30 14765 C 1395.98 -4.27333 0.238884 0
M  V30 14766 C 1395.31 -5.29895 -0.715187 0
M  V30 14767 C 1396.61 -5.01692 1.45265 0
M  V30 14768 H 1398.3 -2.78611 1.09618 0
M  V30 14769 H 1395.85 -1.33949 0.528562 0
M  V30 14770 H 1397.8 -4.10479 -0.953133 0
M  V30 14771 H 1396.53 -2.94771 -1.40634 0
M  V30 14772 H 1395.19 -3.61325 0.619656 0
M  V30 14773 H 1394.83 -4.7807 -1.56391 0
M  V30 14774 H 1394.53 -5.87296 -0.188921 0
M  V30 14775 H 1396.06 -6.00387 -1.11211 0
M  V30 14776 H 1397.47 -5.62117 1.12685 0
M  V30 14777 H 1395.87 -5.68715 1.91528 0
M  V30 14778 H 1396.94 -4.30809 2.22558 0
M  V30 14779 N 1398.28 -0.588812 -1.46187 0
M  V30 14780 C 1399.53 -0.0768417 -2.02654 0
M  V30 14781 C 1399.86 1.28213 -1.4586 0
M  V30 14782 O 1399.14 1.8415 -0.626022 0
M  V30 14783 C 1399.42 -0.0176429 -3.60096 0
M  V30 14784 C 1399.27 -1.40595 -4.27262 0
M  V30 14785 C 1400.59 0.679864 -4.34817 0
M  V30 14786 H 1397.71 -0.0293981 -0.736413 0
M  V30 14787 H 1400.35 -0.757183 -1.74261 0
M  V30 14788 H 1398.5 0.56174 -3.84417 0
M  V30 14789 H 1400.17 -2.03097 -4.14185 0
M  V30 14790 H 1398.42 -1.97196 -3.86388 0
M  V30 14791 H 1399.09 -1.31694 -5.3606 0
M  V30 14792 H 1401.56 0.1876 -4.15677 0
M  V30 14793 H 1400.44 0.690333 -5.44542 0
M  V30 14794 H 1400.7 1.74237 -4.06318 0
M  V30 14795 N 1399.76 1.54172 -0.326923 0
M  V30 14796 C 1401.01 2.00926 0.275047 0
M  V30 14797 C 1401.34 1.21469 1.51522 0
M  V30 14798 O 1400.61 0.297871 1.92206 0
M  V30 14799 C 1400.9 3.54967 0.605833 0
M  V30 14800 C 1400.75 4.45147 -0.645279 0
M  V30 14801 C 1402.07 4.16489 1.42213 0
M  V30 14802 H 1399.19 0.730389 0.098495 0
M  V30 14803 H 1401.83 1.84735 -0.444168 0
M  V30 14804 H 1399.98 3.68895 1.21857 0
M  V30 14805 H 1401.65 4.43085 -1.2835 0
M  V30 14806 H 1399.9 4.14686 -1.27349 0
M  V30 14807 H 1400.57 5.50763 -0.36932 0
M  V30 14808 H 1403.04 4.06158 0.904172 0
M  V30 14809 H 1401.92 5.24377 1.62234 0
M  V30 14810 H 1402.18 3.70032 2.41928 0
M  V30 14811 N 1401.24 0.0551678 1.57503 0
M  V30 14812 C 1402.46 -0.630692 1.97578 0
M  V30 14813 C 1402.89 -1.63348 0.932686 0
M  V30 14814 O 1402.25 -1.81004 -0.103632 0
M  V30 14815 C 1402.29 -1.29049 3.36718 0
M  V30 14816 O 1401.4 -2.40621 3.34926 0
M  V30 14817 H 1400.74 -0.163625 0.643524 0
M  V30 14818 H 1403.27 0.124753 2.04219 0
M  V30 14819 H 1403.28 -1.64124 3.73534 0
M  V30 14820 H 1401.95 -0.55559 4.12172 0
M  V30 14821 H 1400.53 -2.07463 3.0986 0
M  V30 14822 N 1402.72 -1.56081 -0.218252 0
M  V30 14823 C 1403.96 -1.79513 -0.943553 0
M  V30 14824 C 1404.3 -0.625367 -1.83855 0
M  V30 14825 O 1403.57 0.375226 -1.90846 0
M  V30 14826 C 1403.85 -3.13049 -1.77967 0
M  V30 14827 C 1403.71 -4.40479 -0.910939 0
M  V30 14828 C 1405.03 -3.43057 -2.7568 0
M  V30 14829 H 1402.14 -0.653057 -0.341593 0
M  V30 14830 H 1404.79 -1.88811 -0.212226 0
M  V30 14831 H 1402.94 -3.05254 -2.40318 0
M  V30 14832 H 1404.61 -4.60298 -0.303922 0
M  V30 14833 H 1402.85 -4.33259 -0.216513 0
M  V30 14834 H 1403.52 -5.3036 -1.53042 0
M  V30 14835 H 1406 -3.51002 -2.23465 0
M  V30 14836 H 1404.87 -4.37657 -3.31282 0
M  V30 14837 H 1405.14 -2.65389 -3.53584 0
M  V30 14838 N 1404.2 0.485086 -1.49949 0
M  V30 14839 C 1405.42 1.26648 -1.64241 0
M  V30 14840 C 1405.85 1.85359 -0.319939 0
M  V30 14841 O 1405.2 1.66628 0.714487 0
M  V30 14842 C 1405.25 2.36109 -2.72552 0
M  V30 14843 O 1404.36 3.40387 -2.32832 0
M  V30 14844 H 1403.7 0.373208 -0.549192 0
M  V30 14845 H 1406.23 0.578929 -1.96239 0
M  V30 14846 H 1406.24 2.81634 -2.95205 0
M  V30 14847 H 1404.91 1.92745 -3.6854 0
M  V30 14848 H 1403.49 3.0067 -2.20571 0
M  V30 14849 N 1405.67 1.39291 0.737279 0
M  V30 14850 C 1406.6 1.40562 1.86452 0
M  V30 14851 C 1407.58 0.269283 1.67955 0
M  V30 14852 O 1408.77 0.474769 1.88307 0
M  V30 14853 C 1405.9 1.2461 3.24175 0
M  V30 14854 C 1404.85 2.35619 3.57306 0
M  V30 14855 C 1404.18 2.04758 4.93941 0
M  V30 14856 C 1405.48 3.77927 3.60512 0
M  V30 14857 H 1407.17 2.34896 1.85646 0
M  V30 14858 H 1404.72 1.13065 0.891756 0
M  V30 14859 H 1406.67 1.2412 4.02706 0
M  V30 14860 H 1405.4 0.267438 3.25503 0
M  V30 14861 H 1404.06 2.35322 2.81104 0
M  V30 14862 H 1403.7 1.05336 4.91847 0
M  V30 14863 H 1403.4 2.79117 5.17076 0
M  V30 14864 H 1404.93 2.05915 5.74832 0
M  V30 14865 H 1406.34 3.80166 4.29123 0
M  V30 14866 H 1404.74 4.51626 3.95164 0
M  V30 14867 H 1405.81 4.09068 2.60368 0
M  V30 14868 N 1407.15 -0.967221 1.24429 0
M  V30 14869 C 1408.4 -1.70458 1.07829 0
M  V30 14870 C 1408.71 -1.91818 -0.38278 0
M  V30 14871 O 1409.92 -2.63129 -0.668982 0
M  V30 14872 C 1408.38 -3.06817 1.88125 0
M  V30 14873 C 1407.98 -2.93298 3.38645 0
M  V30 14874 C 1409.73 -3.84422 1.80056 0
M  V30 14875 C 1407.63 -4.2497 4.11284 0
M  V30 14876 H 1406.56 -0.639217 0.399897 0
M  V30 14877 H 1409.22 -1.07776 1.48515 0
M  V30 14878 H 1407.6 -3.70331 1.40254 0
M  V30 14879 H 1408.77 -2.38793 3.94099 0
M  V30 14880 H 1407.09 -2.29159 3.47671 0
M  V30 14881 H 1409.68 -4.81925 2.31629 0
M  V30 14882 H 1410.03 -4.09194 0.765908 0
M  V30 14883 H 1410.56 -3.27636 2.2561 0
M  V30 14884 H 1407.3 -4.05391 5.1511 0
M  V30 14885 H 1406.82 -4.79288 3.60615 0
M  V30 14886 H 1408.5 -4.93586 4.18308 0
M  V30 14887 N 1408.63 -1.05812 -1.16797 0
M  V30 14888 C 1409.85 -0.792518 -1.91661 0
M  V30 14889 C 1410.28 0.646598 -1.76637 0
M  V30 14890 O 1409.64 1.44998 -1.08836 0
M  V30 14891 C 1409.69 -1.18585 -3.40544 0
M  V30 14892 O 1408.79 -0.321716 -4.11143 0
M  V30 14893 H 1408.13 -0.290066 -0.597292 0
M  V30 14894 H 1410.66 -1.41263 -1.48007 0
M  V30 14895 H 1410.67 -1.1553 -3.91301 0
M  V30 14896 H 1409.35 -2.23413 -3.50798 0
M  V30 14897 H 1407.92 -0.413403 -3.70601 0
M  V30 14898 N 1410.11 1.33347 -0.840014 0
M  V30 14899 C 1411.35 1.97745 -0.436274 0
M  V30 14900 C 1411.68 1.66538 1.00475 0
M  V30 14901 O 1410.94 0.938137 1.71748 0
M  V30 14902 C 1411.24 3.52239 -0.605173 0
M  V30 14903 C 1410.9 4.03398 -2.01446 0
M  V30 14904 C 1409.56 4.1708 -2.39994 0
M  V30 14905 C 1411.92 4.3071 -2.93494 0
M  V30 14906 C 1409.24 4.55409 -3.69891 0
M  V30 14907 C 1411.6 4.70491 -4.22873 0
M  V30 14908 C 1410.26 4.82379 -4.61375 0
M  V30 14909 H 1409.53 0.723599 -0.159644 0
M  V30 14910 H 1412.18 1.59003 -1.06725 0
M  V30 14911 H 1410.48 3.91648 0.109116 0
M  V30 14912 H 1412.18 4.00069 -0.273056 0
M  V30 14913 H 1408.77 3.93224 -1.70508 0
M  V30 14914 H 1412.95 4.19661 -2.64949 0
M  V30 14915 H 1408.21 4.62806 -3.99525 0
M  V30 14916 H 1412.38 4.9058 -4.94271 0
M  V30 14917 H 1410.01 5.11835 -5.62075 0
M  V30 14918 N 1411.59 0.596556 1.45873 0
M  V30 14919 C 1412.83 0.0872856 2.01911 0
M  V30 14920 C 1413.15 -1.28257 1.46885 0
M  V30 14921 O 1412.42 -1.84489 0.658837 0
M  V30 14922 H 1411 0.0292769 0.746426 0
M  V30 14923 H 1413.67 0.775464 1.78809 0
M  V30 14924 H 1412.76 0.0287213 3.12087 0
M  V30 14925 N 1413.06 -1.53996 0.335095 0
M  V30 14926 C 1414.31 -1.99952 -0.264954 0
M  V30 14927 C 1414.63 -1.22696 -1.52332 0
M  V30 14928 O 1415.83 -1.59086 -2.20009 0
M  V30 14929 C 1414.29 -3.56085 -0.522667 0
M  V30 14930 C 1413.9 -4.42188 0.719314 0
M  V30 14931 C 1415.64 -4.10478 -1.08204 0
M  V30 14932 C 1413.55 -5.89814 0.432867 0
M  V30 14933 H 1412.48 -0.746962 -0.102782 0
M  V30 14934 H 1415.13 -1.77919 0.449111 0
M  V30 14935 H 1413.51 -3.7415 -1.29722 0
M  V30 14936 H 1414.68 -4.35898 1.49432 0
M  V30 14937 H 1413 -3.98743 1.19972 0
M  V30 14938 H 1415.6 -5.18375 -1.31116 0
M  V30 14939 H 1415.94 -3.63173 -2.03497 0
M  V30 14940 H 1416.47 -3.96091 -0.368395 0
M  V30 14941 H 1413.21 -6.41336 1.35529 0
M  V30 14942 H 1412.73 -5.99028 -0.304214 0
M  V30 14943 H 1414.41 -6.46983 0.0469657 0
M  V30 14944 N 1414.54 -0.0635198 -1.57472 0
M  V30 14945 C 1415.49 0.916528 -2.08767 0
M  V30 14946 C 1416.48 1.26405 -0.99552 0
M  V30 14947 O 1417.67 1.24441 -1.25871 0
M  V30 14948 C 1414.8 2.18704 -2.64619 0
M  V30 14949 C 1413.88 1.86637 -3.80825 0
M  V30 14950 N 1414.27 1.24982 -4.90115 0
M  V30 14951 C 1412.57 2.16435 -3.89964 0
M  V30 14952 C 1413.27 1.10821 -5.71046 0
M  V30 14953 N 1412.25 1.61519 -5.1905 0
M  V30 14954 H 1416.05 0.435376 -2.90657 0
M  V30 14955 H 1413.56 0.1406 -1.6179 0
M  V30 14956 H 1415.56 2.89825 -2.99678 0
M  V30 14957 H 1414.22 2.67415 -1.84172 0
M  V30 14958 H 1415.23 0.920491 -5.09654 0
M  V30 14959 H 1411.91 2.6758 -3.20479 0
M  V30 14960 H 1413.3 0.628547 -6.68954 0
M  V30 14961 N 1416.02 1.56195 0.209972 0
M  V30 14962 C 1417.24 1.84189 0.953364 0
M  V30 14963 C 1417.67 0.645288 1.76685 0
M  V30 14964 O 1417.03 -0.405962 1.76696 0
M  V30 14965 C 1417.08 3.10281 1.83733 0
M  V30 14966 O 1416.18 2.89788 2.93422 0
M  V30 14967 H 1415.52 0.606931 0.269314 0
M  V30 14968 H 1418.05 2.03416 0.219783 0
M  V30 14969 H 1418.06 3.40688 2.2449 0
M  V30 14970 H 1416.74 3.97 1.23951 0
M  V30 14971 H 1415.31 2.70643 2.56528 0
M  V30 14972 N 1417.5 -0.477127 1.50204 0
M  V30 14973 C 1418.72 -1.25775 1.6491 0
M  V30 14974 C 1419.15 -1.85187 0.329765 0
M  V30 14975 O 1418.51 -1.67004 -0.705641 0
M  V30 14976 C 1418.55 -2.3466 2.73801 0
M  V30 14977 O 1417.66 -3.39147 2.34634 0
M  V30 14978 H 1417 -0.370291 0.551163 0
M  V30 14979 H 1419.53 -0.568514 1.96543 0
M  V30 14980 H 1419.54 -2.80065 2.96695 0
M  V30 14981 H 1418.21 -1.90788 3.69557 0
M  V30 14982 H 1416.79 -2.99496 2.22163 0
M  V30 14983 N 1418.98 -1.3968 -0.729882 0
M  V30 14984 C 1419.94 -1.38577 -1.82562 0
M  V30 14985 C 1420.94 -0.281994 -1.58308 0
M  V30 14986 O 1422.13 -0.540165 -1.65614 0
M  V30 14987 C 1419.26 -1.16343 -3.20433 0
M  V30 14988 H 1420.45 -2.36086 -1.84942 0
M  V30 14989 H 1418.01 -1.25319 -0.934063 0
M  V30 14990 H 1418.74 -0.195372 -3.23711 0
M  V30 14991 H 1418.53 -1.96282 -3.39435 0
M  V30 14992 H 1420.02 -1.18325 -4.00486 0
M  V30 14993 N 1420.45 0.960609 -1.2494 0
M  V30 14994 C 1421.7 1.69884 -1.08731 0
M  V30 14995 C 1422.02 1.92018 0.372602 0
M  V30 14996 O 1423.22 2.6348 0.655018 0
M  V30 14997 C 1421.68 3.05815 -1.8975 0
M  V30 14998 C 1421.29 2.91498 -3.40196 0
M  V30 14999 C 1423.03 3.83462 -1.82092 0
M  V30 15000 C 1420.94 4.22783 -4.13532 0
M  V30 15001 H 1419.87 0.637087 -0.403281 0
M  V30 15002 H 1422.52 1.06987 -1.49084 0
M  V30 15003 H 1420.9 3.69582 -1.42216 0
M  V30 15004 H 1422.07 2.367 -3.9536 0
M  V30 15005 H 1420.39 2.27312 -3.48882 0
M  V30 15006 H 1422.99 4.8069 -2.34181 0
M  V30 15007 H 1423.33 4.08782 -0.787597 0
M  V30 15008 H 1423.86 3.26435 -2.27344 0
M  V30 15009 H 1420.6 4.02653 -5.17253 0
M  V30 15010 H 1420.12 4.77369 -3.63152 0
M  V30 15011 H 1421.8 4.91361 -4.2092 0
M  V30 15012 N 1421.93 1.0643 1.16234 0
M  V30 15013 C 1423.16 0.802671 1.91238 0
M  V30 15014 C 1423.58 -0.637222 1.76978 0
M  V30 15015 O 1422.94 -1.44419 1.09603 0
M  V30 15016 C 1422.99 1.20389 3.3991 0
M  V30 15017 O 1422.09 0.343516 4.10967 0
M  V30 15018 H 1421.43 0.29323 0.595745 0
M  V30 15019 H 1423.96 1.42046 1.47255 0
M  V30 15020 H 1423.97 1.17604 3.90683 0
M  V30 15021 H 1422.65 2.2527 3.49608 0
M  V30 15022 H 1421.23 0.433051 3.70377 0
M  V30 15023 N 1423.41 -1.329 0.847073 0
M  V30 15024 C 1424.66 -1.97803 0.447417 0
M  V30 15025 C 1424.99 -1.6691 -0.9927 0
M  V30 15026 O 1424.26 -0.953315 -1.69535 0
M  V30 15027 C 1424.55 -3.53657 0.678135 0
M  V30 15028 C 1424.4 -3.94207 2.16612 0
M  V30 15029 C 1425.72 -4.39909 0.129589 0
M  V30 15030 H 1422.84 -0.718514 0.164034 0
M  V30 15031 H 1425.48 -1.57407 1.0641 0
M  V30 15032 H 1423.63 -3.88198 0.153222 0
M  V30 15033 H 1425.3 -3.69883 2.75653 0
M  V30 15034 H 1423.55 -3.43641 2.64752 0
M  V30 15035 H 1424.22 -5.02791 2.27827 0
M  V30 15036 H 1426.69 -4.12061 0.578371 0
M  V30 15037 H 1425.57 -5.47963 0.320648 0
M  V30 15038 H 1425.83 -4.31391 -0.967167 0
M  V30 15039 N 1424.89 -0.604284 -1.45555 0
M  V30 15040 C 1426.13 -0.0983316 -2.02561 0
M  V30 15041 C 1426.47 1.26659 -1.47211 0
M  V30 15042 O 1425.74 1.83476 -0.645519 0
M  V30 15043 C 1426.03 -0.0558349 -3.60057 0
M  V30 15044 C 1425.88 -1.45119 -4.25747 0
M  V30 15045 C 1427.2 0.633708 -4.35514 0
M  V30 15046 H 1424.32 -0.0372071 -0.73606 0
M  V30 15047 H 1426.96 -0.775623 -1.73448 0
M  V30 15048 H 1425.11 0.520935 -3.84992 0
M  V30 15049 H 1426.78 -2.07478 -4.12008 0
M  V30 15050 H 1425.02 -2.01283 -3.84275 0
M  V30 15051 H 1425.69 -1.37372 -5.34633 0
M  V30 15052 H 1428.17 0.143501 -4.15852 0
M  V30 15053 H 1427.05 0.632538 -5.45243 0
M  V30 15054 H 1427.31 1.69917 -4.08143 0
M  V30 15055 N 1426.37 1.53816 -0.343257 0
M  V30 15056 C 1427.31 2.25011 0.513664 0
M  V30 15057 C 1428.28 1.24827 1.09578 0
M  V30 15058 O 1429.47 1.53558 1.13245 0
M  V30 15059 C 1426.61 3.02616 1.65885 0
M  V30 15060 C 1425.72 4.17653 1.10406 0
M  V30 15061 C 1424.86 4.82746 2.21653 0
M  V30 15062 C 1423.9 5.89853 1.63524 0
M  V30 15063 N 1423.03 6.48726 2.68512 0
M  V30 15064 H 1427.87 2.97832 -0.099997 0
M  V30 15065 H 1425.41 1.46973 -0.0611206 0
M  V30 15066 H 1427.37 3.45868 2.33304 0
M  V30 15067 H 1426 2.32092 2.2435 0
M  V30 15068 H 1425.05 3.79045 0.320819 0
M  V30 15069 H 1426.36 4.94691 0.638887 0
M  V30 15070 H 1425.52 5.29068 2.96938 0
M  V30 15071 H 1424.25 4.05131 2.71515 0
M  V30 15072 H 1423.26 5.42914 0.86745 0
M  V30 15073 H 1424.48 6.69375 1.14515 0
M  V30 15074 H 1422.43 5.73975 3.17629 0
M  V30 15075 H 1422.35 7.21236 2.26616 0
M  V30 15076 H 1423.62 6.99701 3.43567 0
M  V30 15077 N 1427.84 0.0718701 1.57436 0
M  V30 15078 C 1429.09 -0.596799 1.92669 0
M  V30 15079 C 1429.41 -1.70765 0.953876 0
M  V30 15080 O 1430.61 -2.43589 1.19903 0
M  V30 15081 C 1429.07 -1.11291 3.42261 0
M  V30 15082 C 1428.68 -0.0330681 4.47988 0
M  V30 15083 C 1430.42 -1.75564 3.86494 0
M  V30 15084 C 1428.33 -0.56323 5.88712 0
M  V30 15085 H 1427.26 -0.226695 0.719114 0
M  V30 15086 H 1429.91 0.144117 1.82933 0
M  V30 15087 H 1428.29 -1.9068 3.4707 0
M  V30 15088 H 1429.46 0.741501 4.54795 0
M  V30 15089 H 1427.78 0.513438 4.13222 0
M  V30 15090 H 1430.38 -2.16261 4.89014 0
M  V30 15091 H 1430.72 -2.61566 3.23865 0
M  V30 15092 H 1431.25 -1.02798 3.84288 0
M  V30 15093 H 1427.99 0.259632 6.54986 0
M  V30 15094 H 1427.51 -1.30532 5.85424 0
M  V30 15095 H 1429.19 -1.03961 6.38593 0
M  V30 15096 N 1429.32 -1.56304 -0.201686 0
M  V30 15097 C 1430.25 -1.97046 -1.25281 0
M  V30 15098 C 1431.23 -0.841458 -1.47829 0
M  V30 15099 O 1432.42 -1.10529 -1.59678 0
M  V30 15100 C 1429.55 -2.30429 -2.59845 0
M  V30 15101 C 1428.5 -3.46006 -2.5192 0
M  V30 15102 C 1427.83 -3.65047 -3.90697 0
M  V30 15103 C 1429.13 -4.80391 -2.04992 0
M  V30 15104 H 1430.82 -2.85099 -0.914272 0
M  V30 15105 H 1428.37 -1.37166 -0.438359 0
M  V30 15106 H 1430.32 -2.57525 -3.33555 0
M  V30 15107 H 1429.05 -1.39251 -2.95426 0
M  V30 15108 H 1427.7 -3.18991 -1.80667 0
M  V30 15109 H 1427.35 -2.71211 -4.2362 0
M  V30 15110 H 1427.05 -4.42796 -3.86271 0
M  V30 15111 H 1428.58 -3.94512 -4.66039 0
M  V30 15112 H 1429.99 -5.06561 -2.68456 0
M  V30 15113 H 1428.39 -5.61563 -2.11582 0
M  V30 15114 H 1429.46 -4.74416 -1.00288 0
M  V30 15115 N 1430.8 0.469154 -1.50455 0
M  V30 15116 C 1432.22 0.803067 -1.37924 0
M  V30 15117 C 1432.42 1.96708 -0.436837 0
M  V30 15118 O 1431.47 2.52216 0.119823 0
M  V30 15119 C 1432.79 1.11332 -2.79331 0
M  V30 15120 C 1434.33 1.21965 -2.88259 0
M  V30 15121 C 1434.81 1.56302 -4.30504 0
M  V30 15122 N 1436.3 1.6329 -4.33464 0
M  V30 15123 C 1437.03 1.91367 -5.40524 0
M  V30 15124 N 1436.53 2.17451 -6.57789 0
M  V30 15125 N 1438.32 1.92885 -5.2797 0
M  V30 15126 H 1430.47 -0.297928 -2.103 0
M  V30 15127 H 1432.74 -0.0707794 -0.945354 0
M  V30 15128 H 1432.44 0.331052 -3.50138 0
M  V30 15129 H 1432.32 2.04903 -3.16693 0
M  V30 15130 H 1434.7 1.99259 -2.17669 0
M  V30 15131 H 1434.79 0.263692 -2.54437 0
M  V30 15132 H 1434.43 0.795479 -5.01632 0
M  V30 15133 H 1434.36 2.53052 -4.61814 0
M  V30 15134 H 1436.85 1.45164 -3.48907 0
M  V30 15135 H 1437.16 2.38154 -7.35189 0
M  V30 15136 H 1435.51 2.14839 -6.60961 0
M  V30 15137 H 1438.7 1.72005 -4.35353 0
M  V30 15138 H 1438.87 2.1443 -6.11493 0
M  V30 15139 N 1432.28 1.40065 0.722464 0
M  V30 15140 C 1433.52 1.38175 1.48444 0
M  V30 15141 C 1433.86 -0.0182857 1.94191 0
M  V30 15142 O 1433.13 -0.985638 1.67677 0
M  V30 15143 C 1433.42 2.36518 2.71535 0
M  V30 15144 C 1433.27 3.85517 2.31726 0
M  V30 15145 C 1434.59 2.325 3.73673 0
M  V30 15146 H 1431.71 0.503221 0.538458 0
M  V30 15147 H 1434.35 1.7115 0.825087 0
M  V30 15148 H 1432.5 2.08529 3.27793 0
M  V30 15149 H 1434.17 4.24306 1.81003 0
M  V30 15150 H 1432.41 4.01684 1.63807 0
M  V30 15151 H 1433.08 4.49834 3.19928 0
M  V30 15152 H 1435.56 2.57277 3.27029 0
M  V30 15153 H 1434.44 3.03369 4.57447 0
M  V30 15154 H 1434.7 1.33427 4.21485 0
M  V30 15155 N 1433.76 -0.95397 1.25448 0
M  V30 15156 C 1434.69 -2.06828 1.08372 0
M  V30 15157 C 1435.67 -1.70098 -0.00741585 0
M  V30 15158 O 1436.85 -1.93521 0.16224 0
M  V30 15159 C 1433.98 -3.40124 0.702365 0
M  V30 15160 C 1432.94 -3.90865 1.74381 0
M  V30 15161 C 1432.26 -5.20663 1.21712 0
M  V30 15162 C 1433.56 -4.17169 3.14273 0
M  V30 15163 H 1435.26 -2.21372 2.01581 0
M  V30 15164 H 1432.8 -1.06374 0.970592 0
M  V30 15165 H 1434.76 -4.17529 0.569837 0
M  V30 15166 H 1433.48 -3.2552 -0.265428 0
M  V30 15167 H 1432.14 -3.15628 1.86479 0
M  V30 15168 H 1431.79 -5.02429 0.23954 0
M  V30 15169 H 1431.49 -5.55581 1.91319 0
M  V30 15170 H 1433.01 -6.00665 1.097 0
M  V30 15171 H 1434.43 -4.85231 3.05325 0
M  V30 15172 H 1432.82 -4.63344 3.81356 0
M  V30 15173 H 1433.89 -3.23421 3.61285 0
M  V30 15174 N 1435.24 -1.07045 -1.15668 0
M  V30 15175 C 1436.65 -0.795369 -1.38369 0
M  V30 15176 C 1436.85 0.601829 -1.92303 0
M  V30 15177 O 1435.91 1.36109 -2.12675 0
M  V30 15178 C 1437.22 -1.86659 -2.35752 0
M  V30 15179 C 1438.77 -1.89098 -2.49421 0
M  V30 15180 C 1439.24 -2.95296 -3.50092 0
M  V30 15181 N 1440.73 -2.94378 -3.57625 0
M  V30 15182 C 1441.47 -3.73194 -4.35331 0
M  V30 15183 N 1440.97 -4.61851 -5.16397 0
M  V30 15184 N 1442.76 -3.61554 -4.30389 0
M  V30 15185 H 1434.91 -1.97162 -0.790004 0
M  V30 15186 H 1437.17 -0.854816 -0.40987 0
M  V30 15187 H 1436.88 -2.87036 -2.03232 0
M  V30 15188 H 1436.75 -1.72406 -3.35494 0
M  V30 15189 H 1439.14 -0.893752 -2.8124 0
M  V30 15190 H 1439.22 -2.07429 -1.49689 0
M  V30 15191 H 1438.86 -3.95217 -3.19008 0
M  V30 15192 H 1438.79 -2.74212 -4.49572 0
M  V30 15193 H 1441.29 -2.3011 -2.99763 0
M  V30 15194 H 1441.6 -5.18629 -5.72926 0
M  V30 15195 H 1439.94 -4.65902 -5.15714 0
M  V30 15196 H 1443.13 -2.91672 -3.66122 0
M  V30 15197 H 1443.31 -4.23221 -4.90701 0
M  V30 15198 N 1436.71 1.32449 -0.85411 0
M  V30 15199 C 1437.96 1.97563 -0.4579 0
M  V30 15200 C 1438.29 1.67435 0.983835 0
M  V30 15201 O 1437.57 0.962292 1.69027 0
M  V30 15202 C 1437.85 3.53292 -0.69688 0
M  V30 15203 C 1437.7 3.93053 -2.18699 0
M  V30 15204 C 1439.02 4.39834 -0.152917 0
M  V30 15205 H 1436.14 0.717634 -0.167842 0
M  V30 15206 H 1438.78 1.5684 -1.07243 0
M  V30 15207 H 1436.93 3.88111 -0.173807 0
M  V30 15208 H 1438.61 3.68416 -2.7761 0
M  V30 15209 H 1436.85 3.42232 -2.6657 0
M  V30 15210 H 1437.52 5.01576 -2.3049 0
M  V30 15211 H 1440 4.11748 -0.600216 0
M  V30 15212 H 1438.87 5.47785 -0.349703 0
M  V30 15213 H 1439.13 4.31898 0.944276 0
M  V30 15214 N 1438.19 0.611994 1.45232 0
M  V30 15215 C 1439.12 -0.0914869 2.33321 0
M  V30 15216 C 1440.1 -0.854315 1.4709 0
M  V30 15217 O 1441.29 -0.823994 1.75852 0
M  V30 15218 C 1438.42 -1.08652 3.29867 0
M  V30 15219 C 1437.37 -0.436615 4.25767 0
M  V30 15220 C 1436.7 -1.54021 5.12037 0
M  V30 15221 C 1438 0.645005 5.18302 0
M  V30 15222 H 1439.69 0.644053 2.92391 0
M  V30 15223 H 1437.24 0.311171 1.40598 0
M  V30 15224 H 1439.19 -1.58726 3.90364 0
M  V30 15225 H 1437.91 -1.85271 2.68965 0
M  V30 15226 H 1436.57 0.0432918 3.66574 0
M  V30 15227 H 1436.22 -2.29679 4.475 0
M  V30 15228 H 1435.92 -1.11084 5.77005 0
M  V30 15229 H 1437.45 -2.04313 5.75403 0
M  V30 15230 H 1438.86 0.228166 5.72846 0
M  V30 15231 H 1437.26 0.996387 5.9177 0
M  V30 15232 H 1438.33 1.51985 4.60466 0
M  V30 15233 N 1439.67 -1.53632 0.351409 0
M  V30 15234 C 1441.09 -1.596 -0.000214515 0
M  V30 15235 C 1441.29 -1.36709 -1.4803 0
M  V30 15236 O 1440.34 -1.16524 -2.24006 0
M  V30 15237 C 1441.65 -2.97419 0.443013 0
M  V30 15238 C 1443.2 -3.10485 0.396025 0
M  V30 15239 C 1443.68 -4.50693 0.814843 0
M  V30 15240 N 1445.17 -4.56766 0.76934 0
M  V30 15241 C 1445.9 -5.63418 1.06526 0
M  V30 15242 N 1445.4 -6.77887 1.42974 0
M  V30 15243 N 1447.19 -5.53331 0.988986 0
M  V30 15244 H 1439.34 -1.66765 1.31542 0
M  V30 15245 H 1441.61 -0.781418 0.53674 0
M  V30 15246 H 1441.31 -3.19262 1.47529 0
M  V30 15247 H 1441.19 -3.76781 -0.177725 0
M  V30 15248 H 1443.57 -2.8836 -0.627092 0
M  V30 15249 H 1443.65 -2.33163 1.05207 0
M  V30 15250 H 1443.3 -4.73554 1.83601 0
M  V30 15251 H 1443.23 -5.26424 0.136193 0
M  V30 15252 H 1445.72 -3.74569 0.500623 0
M  V30 15253 H 1446.03 -7.55194 1.64018 0
M  V30 15254 H 1444.38 -6.79314 1.46827 0
M  V30 15255 H 1447.57 -4.62783 0.703526 0
M  V30 15256 H 1447.74 -6.36355 1.22295 0
M  V30 15257 N 1441.15 -0.0802183 -1.57396 0
M  V30 15258 C 1442.56 0.451183 -1.81166 0
M  V30 15259 C 1442.91 1.69112 -0.994764 0
M  V30 15260 O 1442.03 2.15281 -0.219739 0
M  V30 15261 C 1442.63 0.825324 -3.28594 0
M  V30 15262 C 1441.19 1.30154 -3.53181 0
M  V30 15263 C 1440.34 0.290846 -2.75771 0
M  V30 15264 H 1443.29 -0.305829 -1.55725 0
M  V30 15265 H 1443.31 1.68608 -3.41104 0
M  V30 15266 H 1442.82 -0.0773119 -3.88023 0
M  V30 15267 H 1440.92 2.22239 -2.99066 0
M  V30 15268 H 1441.03 1.27365 -4.6186 0
M  V30 15269 H 1439.4 0.769894 -2.42785 0
M  V30 15270 H 1440.18 -0.604209 -3.37941 0
M  V30 15271 N 1442.63 1.56409 0.193394 0
M  V30 15272 C 1443.56 1.97707 1.24234 0
M  V30 15273 C 1444.54 0.849286 1.47381 0
M  V30 15274 O 1445.72 1.11374 1.59089 0
M  V30 15275 C 1442.85 2.31804 2.5862 0
M  V30 15276 C 1441.81 3.47337 2.50082 0
M  V30 15277 C 1441.13 3.67114 3.88756 0
M  V30 15278 C 1442.43 4.81472 2.02441 0
M  V30 15279 H 1444.13 2.8558 0.89914 0
M  V30 15280 H 1441.67 1.37396 0.431078 0
M  V30 15281 H 1443.62 2.5929 3.32185 0
M  V30 15282 H 1442.35 1.40816 2.94684 0
M  V30 15283 H 1441.01 3.19944 1.78973 0
M  V30 15284 H 1440.66 2.73454 4.22175 0
M  V30 15285 H 1440.36 4.44838 3.83918 0
M  V30 15286 H 1441.88 3.96978 4.6394 0
M  V30 15287 H 1443.29 5.07978 2.65766 0
M  V30 15288 H 1441.69 5.62677 2.08601 0
M  V30 15289 H 1442.76 4.74941 0.977704 0
M  V30 15290 N 1444.1 -0.461169 1.50702 0
M  V30 15291 C 1445.52 -0.795741 1.38348 0
M  V30 15292 C 1445.72 -1.96473 0.447263 0
M  V30 15293 O 1444.78 -2.52276 -0.106445 0
M  V30 15294 C 1446.09 -1.09849 2.79917 0
M  V30 15295 C 1447.64 -1.20435 2.88902 0
M  V30 15296 C 1448.11 -1.54017 4.31327 0
M  V30 15297 N 1449.6 -1.60989 4.34323 0
M  V30 15298 C 1450.34 -1.88498 5.41531 0
M  V30 15299 N 1449.83 -2.13959 6.58933 0
M  V30 15300 N 1451.63 -1.90082 5.28985 0
M  V30 15301 H 1443.78 0.309076 2.10139 0
M  V30 15302 H 1446.04 0.0757918 0.944965 0
M  V30 15303 H 1445.75 -0.312479 3.50309 0
M  V30 15304 H 1445.62 -2.03221 3.17775 0
M  V30 15305 H 1448.01 -1.98102 2.18723 0
M  V30 15306 H 1448.09 -0.250195 2.54573 0
M  V30 15307 H 1447.73 -0.768865 5.02047 0
M  V30 15308 H 1447.66 -2.50599 4.6315 0
M  V30 15309 H 1450.15 -1.43312 3.49672 0
M  V30 15310 H 1450.47 -2.34251 7.36442 0
M  V30 15311 H 1448.81 -2.11331 6.62091 0
M  V30 15312 H 1452 -1.69693 4.36259 0
M  V30 15313 H 1452.18 -2.11184 6.12622 0
M  V30 15314 N 1445.58 -1.40446 -0.715026 0
M  V30 15315 C 1446.54 -1.40506 -1.81082 0
M  V30 15316 C 1447.54 -0.298768 -1.58 0
M  V30 15317 O 1448.73 -0.5577 -1.65031 0
M  V30 15318 C 1445.87 -1.19735 -3.19181 0
M  V30 15319 H 1447.06 -2.38034 -1.82427 0
M  V30 15320 H 1444.61 -1.26303 -0.920718 0
M  V30 15321 H 1445.35 -0.229695 -3.23486 0
M  V30 15322 H 1445.13 -1.99871 -3.37334 0
M  V30 15323 H 1446.62 -1.22566 -3.99208 0
M  V30 15324 N 1447.06 0.947303 -1.25952 0
M  V30 15325 C 1448.31 1.68721 -1.10527 0
M  V30 15326 C 1448.62 1.92403 0.352215 0
M  V30 15327 O 1449.83 2.6416 0.627036 0
M  V30 15328 C 1448.28 3.03785 -1.92983 0
M  V30 15329 C 1447.89 2.87873 -3.43268 0
M  V30 15330 C 1449.64 3.81509 -1.86149 0
M  V30 15331 C 1447.54 4.18373 -4.17993 0
M  V30 15332 H 1446.47 0.632774 -0.410016 0
M  V30 15333 H 1449.12 1.054 -1.5021 0
M  V30 15334 H 1447.51 3.68052 -1.46128 0
M  V30 15335 H 1448.68 2.32493 -3.97848 0
M  V30 15336 H 1446.99 2.23598 -3.51273 0
M  V30 15337 H 1449.59 4.78179 -2.39267 0
M  V30 15338 H 1449.93 4.07923 -0.83091 0
M  V30 15339 H 1450.47 3.24005 -2.30794 0
M  V30 15340 H 1447.21 3.97145 -5.21494 0
M  V30 15341 H 1446.73 4.7349 -3.68194 0
M  V30 15342 H 1448.41 4.86869 -4.26108 0
M  V30 15343 N 1448.54 1.07657 1.15099 0
M  V30 15344 C 1449.49 0.694043 2.22004 0
M  V30 15345 C 1450.48 -0.296607 1.66783 0
M  V30 15346 O 1451.69 -0.159989 1.79288 0
M  V30 15347 H 1448.06 0.206374 0.723128 0
M  V30 15348 H 1450.03 1.60523 2.51545 0
M  V30 15349 C 1448.78 0.111245 3.47522 0
M  V30 15350 H 1448.1 0.864677 3.90338 0
M  V30 15351 H 1449.54 -0.118705 4.23834 0
M  V30 15352 C 1448 -1.14889 3.16705 0
M  V30 15353 O 1448.53 -2.2349 3.33789 0
M  V30 15354 N 1446.74 -1.05627 2.70724 0
M  V30 15355 H 1446.29 -0.172463 2.57022 0
M  V30 15356 H 1446.24 -1.9002 2.50479 0
M  V30 15357 N 1450.02 -1.31994 0.861122 0
M  V30 15358 C 1451.43 -1.49756 0.551844 0
M  V30 15359 C 1451.63 -1.79473 -0.916056 0
M  V30 15360 O 1450.69 -1.86813 -1.69874 0
M  V30 15361 C 1452 -2.63737 1.44442 0
M  V30 15362 C 1453.55 -2.77621 1.44552 0
M  V30 15363 C 1454.02 -3.94689 2.32346 0
M  V30 15364 N 1455.52 -4.01961 2.30177 0
M  V30 15365 C 1456.25 -4.91794 2.94833 0
M  V30 15366 N 1455.75 -5.86589 3.68626 0
M  V30 15367 N 1457.54 -4.84968 2.84188 0
M  V30 15368 H 1449.69 -1.10972 1.81105 0
M  V30 15369 H 1451.95 -0.54753 0.773896 0
M  V30 15370 H 1451.66 -2.48526 2.48853 0
M  V30 15371 H 1451.53 -3.59671 1.13651 0
M  V30 15372 H 1453.92 -2.92251 0.409034 0
M  V30 15373 H 1454 -1.8238 1.79363 0
M  V30 15374 H 1453.65 -3.80817 3.36067 0
M  V30 15375 H 1453.58 -4.89219 1.94865 0
M  V30 15376 H 1456.07 -3.34132 1.76533 0
M  V30 15377 H 1456.38 -6.51846 4.15111 0
M  V30 15378 H 1454.72 -5.86596 3.72734 0
M  V30 15379 H 1457.92 -4.09883 2.26084 0
M  V30 15380 H 1458.09 -5.54774 3.34857 0
M  V30 15381 N 1451.49 -0.619688 -1.44906 0
M  V30 15382 C 1452.46 0.0822364 -2.29052 0
M  V30 15383 C 1453.46 0.783427 -1.40425 0
M  V30 15384 O 1454.65 0.629751 -1.62419 0
M  V30 15385 C 1451.78 1.12685 -3.21737 0
M  V30 15386 H 1452.97 -0.657726 -2.92599 0
M  V30 15387 H 1450.53 -0.379286 -1.51628 0
M  V30 15388 H 1451.26 1.89717 -2.63017 0
M  V30 15389 H 1451.05 0.628122 -3.87036 0
M  V30 15390 H 1452.54 1.61808 -3.84978 0
M  V30 15391 N 1452.97 1.53444 -0.359552 0
M  V30 15392 C 1453.92 2.25544 0.48977 0
M  V30 15393 C 1454.89 1.25982 1.08248 0
M  V30 15394 O 1456.07 1.54751 1.1161 0
M  V30 15395 C 1453.21 3.04358 1.62666 0
M  V30 15396 C 1452.33 4.18801 1.0597 0
M  V30 15397 C 1451.46 4.85069 2.1652 0
M  V30 15398 C 1450.5 5.91554 1.57259 0
M  V30 15399 N 1449.64 6.51537 2.61617 0
M  V30 15400 H 1454.48 2.97709 -0.13158 0
M  V30 15401 H 1452.02 1.469 -0.0767056 0
M  V30 15402 H 1453.97 3.48324 2.29623 0
M  V30 15403 H 1452.6 2.34459 2.21876 0
M  V30 15404 H 1451.66 3.79364 0.280599 0
M  V30 15405 H 1452.97 4.95341 0.586383 0
M  V30 15406 H 1452.12 5.32187 2.9131 0
M  V30 15407 H 1450.86 4.07988 2.67202 0
M  V30 15408 H 1449.87 5.43803 0.809818 0
M  V30 15409 H 1451.09 6.70552 1.07409 0
M  V30 15410 H 1449.04 5.77312 3.11523 0
M  V30 15411 H 1448.95 7.23599 2.18954 0
M  V30 15412 H 1450.22 7.03306 3.36127 0
M  V30 15413 N 1454.45 0.0885642 1.57351 0
M  V30 15414 C 1455.7 -0.575536 1.93732 0
M  V30 15415 C 1456.02 -1.69126 0.970644 0
M  V30 15416 O 1455.29 -1.95888 0.0215907 0
M  V30 15417 H 1453.87 -0.215592 0.715213 0
M  V30 15418 H 1456.53 0.150362 1.94319 0
M  V30 15419 H 1455.63 -0.989979 2.95983 0
M  V30 15420 N 1455.93 -1.56509 -0.185096 0
M  V30 15421 C 1456.86 -1.98363 -1.23184 0
M  V30 15422 C 1457.84 -0.85709 -1.46929 0
M  V30 15423 O 1459.02 -1.12216 -1.58497 0
M  V30 15424 C 1456.15 -2.33172 -2.57387 0
M  V30 15425 C 1455.11 -3.48658 -2.48236 0
M  V30 15426 C 1454.43 -3.69171 -3.86804 0
M  V30 15427 C 1455.73 -4.82538 -1.99885 0
M  V30 15428 H 1457.43 -2.86053 -0.883982 0
M  V30 15429 H 1454.97 -1.37623 -0.423786 0
M  V30 15430 H 1456.93 -2.61048 -3.30805 0
M  V30 15431 H 1455.65 -1.42377 -2.93933 0
M  V30 15432 H 1454.31 -3.20889 -1.77273 0
M  V30 15433 H 1453.96 -2.75689 -4.20719 0
M  V30 15434 H 1453.66 -4.46868 -3.81553 0
M  V30 15435 H 1455.18 -3.99433 -4.61829 0
M  V30 15436 H 1456.6 -5.0938 -2.63068 0
M  V30 15437 H 1454.99 -5.63775 -2.05614 0
M  V30 15438 H 1456.06 -4.75453 -0.952503 0
M  V30 15439 N 1457.41 0.45317 -1.50944 0
M  V30 15440 C 1458.35 1.54885 -1.71112 0
M  V30 15441 C 1459.32 1.56639 -0.552566 0
M  V30 15442 O 1460.51 1.73894 -0.785203 0
M  V30 15443 C 1457.65 2.92729 -1.82766 0
M  V30 15444 C 1456.76 3.00626 -3.10239 0
M  V30 15445 C 1455.9 4.29495 -3.12582 0
M  V30 15446 C 1454.94 4.312 -4.34434 0
M  V30 15447 N 1454.07 5.51568 -4.34415 0
M  V30 15448 H 1458.91 1.36992 -2.64645 0
M  V30 15449 H 1456.45 0.665753 -1.31172 0
M  V30 15450 H 1458.41 3.7269 -1.87505 0
M  V30 15451 H 1457.04 3.09216 -0.926561 0
M  V30 15452 H 1456.09 2.13426 -3.14886 0
M  V30 15453 H 1457.4 2.97746 -4.00186 0
M  V30 15454 H 1456.56 5.17817 -3.16149 0
M  V30 15455 H 1455.29 4.35009 -2.20496 0
M  V30 15456 H 1454.3 3.41272 -4.3106 0
M  V30 15457 H 1455.52 4.27363 -5.27767 0
M  V30 15458 H 1453.47 5.57834 -3.45192 0
M  V30 15459 H 1453.39 5.50504 -5.18152 0
M  V30 15460 H 1454.66 6.41966 -4.42153 0
M  V30 15461 N 1458.88 1.40823 0.707568 0
M  V30 15462 C 1459.83 1.38198 1.81343 0
M  V30 15463 C 1460.82 0.258234 1.58814 0
M  V30 15464 O 1462.01 0.497972 1.69851 0
M  V30 15465 C 1459.14 1.25483 3.19545 0
M  V30 15466 C 1458.23 2.42672 3.47809 0
M  V30 15467 N 1458.62 3.6815 3.46842 0
M  V30 15468 C 1456.91 2.36225 3.78304 0
M  V30 15469 C 1457.62 4.45805 3.73675 0
M  V30 15470 N 1456.59 3.75753 3.92824 0
M  V30 15471 H 1460.39 2.33147 1.7894 0
M  V30 15472 H 1457.91 1.34709 0.907044 0
M  V30 15473 H 1459.9 1.21684 3.98746 0
M  V30 15474 H 1458.56 0.315081 3.23168 0
M  V30 15475 H 1459.58 4.01201 3.27503 0
M  V30 15476 H 1456.25 1.50659 3.89369 0
M  V30 15477 H 1457.64 5.54692 3.79165 0
M  V30 15478 N 1460.36 -0.94061 1.26453 0
M  V30 15479 C 1461.61 -1.68937 1.12197 0
M  V30 15480 C 1461.94 -1.91309 -0.33382 0
M  V30 15481 O 1461.22 -1.49417 -1.24518 0
M  V30 15482 C 1461.5 -3.06381 1.89215 0
M  V30 15483 C 1461.35 -2.91331 3.42704 0
M  V30 15484 C 1462.67 -4.06507 1.68642 0
M  V30 15485 H 1459.79 -0.613121 0.408964 0
M  V30 15486 H 1462.43 -1.09242 1.55455 0
M  V30 15487 H 1460.58 -3.57339 1.5245 0
M  V30 15488 H 1462.25 -2.47591 3.89226 0
M  V30 15489 H 1460.5 -2.26945 3.697 0
M  V30 15490 H 1461.17 -3.88818 3.91822 0
M  V30 15491 H 1463.64 -3.64512 2.00674 0
M  V30 15492 H 1462.52 -5.0069 2.24945 0
M  V30 15493 H 1462.78 -4.37572 0.631131 0
M  V30 15494 N 1461.84 -1.08266 -1.14527 0
M  V30 15495 C 1463.09 -0.812661 -1.85805 0
M  V30 15496 C 1463.42 0.659878 -1.82645 0
M  V30 15497 O 1462.69 1.48498 -1.25612 0
M  V30 15498 C 1462.98 -1.33335 -3.34505 0
M  V30 15499 C 1462.83 -2.87113 -3.46246 0
M  V30 15500 C 1464.15 -0.957435 -4.29559 0
M  V30 15501 H 1461.27 -0.296681 -0.674648 0
M  V30 15502 H 1463.91 -1.34203 -1.34497 0
M  V30 15503 H 1462.06 -0.883056 -3.78331 0
M  V30 15504 H 1463.73 -3.40502 -3.11217 0
M  V30 15505 H 1461.98 -3.24845 -2.87504 0
M  V30 15506 H 1462.65 -3.18618 -4.50762 0
M  V30 15507 H 1465.12 -1.3456 -3.93742 0
M  V30 15508 H 1464 -1.34897 -5.32066 0
M  V30 15509 H 1464.26 0.135689 -4.41892 0
M  V30 15510 N 1463.32 1.31536 -0.86811 0
M  V30 15511 C 1464.25 2.27486 -0.279749 0
M  V30 15512 C 1465.26 1.53006 0.556158 0
M  V30 15513 O 1466.45 1.74442 0.378454 0
M  V30 15514 C 1463.55 3.33139 0.622197 0
M  V30 15515 C 1462.73 4.37026 -0.180855 0
M  V30 15516 C 1461.79 5.22183 0.64894 0
M  V30 15517 O 1460.81 5.69147 0.0776395 0
M  V30 15518 N 1462.01 5.46365 1.96127 0
M  V30 15519 H 1464.78 2.78613 -1.1043 0
M  V30 15520 H 1462.34 1.44538 -0.729409 0
M  V30 15521 H 1464.33 3.87024 1.18297 0
M  V30 15522 H 1462.9 2.8207 1.34742 0
M  V30 15523 H 1462.12 3.8324 -0.923078 0
M  V30 15524 H 1463.41 5.03508 -0.731953 0
M  V30 15525 H 1462.81 5.09962 2.44857 0
M  V30 15526 H 1461.36 6.03192 2.46987 0
M  V30 15527 N 1464.8 0.627364 1.44575 0
M  V30 15528 C 1466.04 0.133615 2.03963 0
M  V30 15529 C 1466.4 -1.22005 1.48252 0
M  V30 15530 O 1467.6 -1.80569 1.99118 0
M  V30 15531 C 1465.87 0.115834 3.57212 0
M  V30 15532 S 1467.43 -0.313843 4.37676 0
M  V30 15533 H 1464.25 0.0592399 0.708528 0
M  V30 15534 H 1466.85 0.829908 1.77011 0
M  V30 15535 H 1465.56 1.10422 3.95266 0
M  V30 15536 H 1465.09 -0.601828 3.88769 0
M  V30 15537 H 1467.1 -1.55892 4.71075 0
M  V30 15538 N 1466.28 -1.53251 0.367684 0
M  V30 15539 C 1467.52 -2.01585 -0.221679 0
M  V30 15540 C 1467.85 -1.25444 -1.48248 0
M  V30 15541 O 1467.13 -0.348726 -1.91348 0
M  V30 15542 C 1467.41 -3.56449 -0.511507 0
M  V30 15543 C 1467.27 -4.4328 0.763075 0
M  V30 15544 C 1468.58 -4.20113 -1.31121 0
M  V30 15545 H 1465.7 -0.732743 -0.0790954 0
M  V30 15546 H 1468.35 -1.83493 0.492991 0
M  V30 15547 H 1466.5 -3.71996 -1.12033 0
M  V30 15548 H 1468.17 -4.39526 1.40052 0
M  V30 15549 H 1466.41 -4.11164 1.38299 0
M  V30 15550 H 1467.08 -5.4959 0.515215 0
M  V30 15551 H 1469.56 -4.08412 -0.796169 0
M  V30 15552 H 1468.43 -5.28494 -1.48274 0
M  V30 15553 H 1468.69 -3.76316 -2.32032 0
M  V30 15554 N 1467.75 -0.0969077 -1.57302 0
M  V30 15555 C 1469 0.566373 -1.94418 0
M  V30 15556 C 1469.33 1.68078 -0.978769 0
M  V30 15557 O 1468.58 1.957 0.0013214 0
M  V30 15558 C 1468.88 1.15972 -3.38061 0
M  V30 15559 C 1468.55 0.16892 -4.50583 0
M  V30 15560 C 1467.21 -0.103587 -4.81088 0
M  V30 15561 C 1469.56 -0.507513 -5.18723 0
M  V30 15562 C 1466.89 -1.05919 -5.7706 0
M  V30 15563 C 1469.24 -1.4516 -6.1572 0
M  V30 15564 C 1467.91 -1.73232 -6.44629 0
M  V30 15565 H 1467.18 0.207251 -0.711427 0
M  V30 15566 H 1469.82 -0.173125 -1.90716 0
M  V30 15567 H 1468.13 1.97551 -3.3835 0
M  V30 15568 H 1469.83 1.68066 -3.64081 0
M  V30 15569 H 1466.42 0.391501 -4.26808 0
M  V30 15570 H 1470.6 -0.310127 -4.9533 0
M  V30 15571 H 1465.86 -1.28366 -5.97773 0
M  V30 15572 H 1470.03 -1.98155 -6.67613 0
M  V30 15573 H 1467.66 -2.47436 -7.18804 0
M  V30 15574 N 1469.23 1.56605 0.176793 0
M  V30 15575 C 1470.48 1.81952 0.895627 0
M  V30 15576 C 1470.81 0.673893 1.82133 0
M  V30 15577 O 1470.09 -0.324494 1.91774 0
M  V30 15578 C 1470.37 3.17658 1.69604 0
M  V30 15579 C 1470.22 4.4274 0.793834 0
M  V30 15580 C 1471.54 3.50246 2.66488 0
M  V30 15581 H 1468.66 0.661884 0.324159 0
M  V30 15582 H 1471.3 1.89307 0.162092 0
M  V30 15583 H 1469.45 3.11518 2.3214 0
M  V30 15584 H 1471.12 4.60942 0.181775 0
M  V30 15585 H 1469.37 4.33681 0.101566 0
M  V30 15586 H 1470.04 5.34231 1.38927 0
M  V30 15587 H 1472.51 3.56804 2.1408 0
M  V30 15588 H 1471.39 4.46286 3.19562 0
M  V30 15589 H 1471.65 2.7467 3.46423 0
M  V30 15590 N 1470.71 -0.445159 1.51182 0
M  V30 15591 C 1471.67 -1.52224 1.71349 0
M  V30 15592 C 1472.67 -1.49834 0.583632 0
M  V30 15593 O 1473.86 -1.51995 0.85107 0
M  V30 15594 C 1470.99 -2.91789 1.76273 0
M  V30 15595 H 1472.19 -1.35649 2.67468 0
M  V30 15596 H 1469.74 -0.673312 1.41054 0
M  V30 15597 H 1470.48 -3.13777 0.819405 0
M  V30 15598 H 1470.26 -2.94928 2.58379 0
M  V30 15599 H 1471.75 -3.69938 1.93741 0
M  V30 15600 N 1472.19 -1.41197 -0.700089 0
M  V30 15601 C 1473.44 -1.39611 -1.45574 0
M  V30 15602 C 1473.75 -0.00683378 -1.95599 0
M  V30 15603 O 1474.96 0.131643 -2.71181 0
M  V30 15604 C 1473.41 -2.45452 -2.63214 0
M  V30 15605 C 1473.02 -3.90265 -2.19993 0
M  V30 15606 C 1474.76 -2.52996 -3.40871 0
M  V30 15607 C 1472.67 -4.87668 -3.34565 0
M  V30 15608 H 1471.6 -0.51917 -0.546789 0
M  V30 15609 H 1474.25 -1.67001 -0.760456 0
M  V30 15610 H 1472.63 -2.11186 -3.34987 0
M  V30 15611 H 1473.81 -4.33756 -1.55539 0
M  V30 15612 H 1472.12 -3.86339 -1.55341 0
M  V30 15613 H 1474.72 -3.22952 -4.26153 0
M  V30 15614 H 1475.06 -1.56536 -3.85749 0
M  V30 15615 H 1475.6 -2.86331 -2.76151 0
M  V30 15616 H 1472.33 -5.85517 -2.94704 0
M  V30 15617 H 1471.85 -4.4883 -3.97884 0
M  V30 15618 H 1473.53 -5.08215 -4.00409 0
M  V30 15619 N 1473.67 0.933891 -1.2695 0
M  V30 15620 C 1475.08 1.20873 -1.0422 0
M  V30 15621 C 1475.28 2.00205 0.228112 0
M  V30 15622 O 1474.34 2.34539 0.935284 0
M  V30 15623 C 1475.65 1.9629 -2.27795 0
M  V30 15624 C 1477.2 2.09254 -2.3277 0
M  V30 15625 C 1477.67 2.88075 -3.56057 0
M  V30 15626 N 1479.16 2.95646 -3.56578 0
M  V30 15627 C 1479.9 3.57082 -4.48642 0
M  V30 15628 N 1479.4 4.1996 -5.51004 0
M  V30 15629 N 1481.19 3.54425 -4.36279 0
M  V30 15630 H 1473.34 0.403735 -2.08528 0
M  V30 15631 H 1475.6 0.241189 -0.916805 0
M  V30 15632 H 1475.31 1.45412 -3.20231 0
M  V30 15633 H 1475.18 2.9693 -2.32621 0
M  V30 15634 H 1477.57 2.5932 -1.40844 0
M  V30 15635 H 1477.65 1.07854 -2.31951 0
M  V30 15636 H 1477.29 2.38693 -4.48317 0
M  V30 15637 H 1477.22 3.89746 -3.54126 0
M  V30 15638 H 1479.72 2.50951 -2.82545 0
M  V30 15639 H 1480.03 4.64758 -6.1743 0
M  V30 15640 H 1478.37 4.18525 -5.54853 0
M  V30 15641 H 1481.56 3.045 -3.55524 0
M  V30 15642 H 1481.74 4.02016 -5.0822 0
M  V30 15643 N 1475.14 1.08871 1.13951 0
M  V30 15644 C 1476.37 0.842913 1.88951 0
M  V30 15645 C 1476.79 -0.605348 1.78832 0
M  V30 15646 O 1476.14 -1.41631 1.15095 0
M  V30 15647 C 1476.19 1.26198 3.38757 0
M  V30 15648 O 1475.92 2.65344 3.48603 0
M  V30 15649 C 1477.42 1.04773 4.30741 0
M  V30 15650 H 1474.64 0.303651 0.598362 0
M  V30 15651 H 1477.18 1.44922 1.44284 0
M  V30 15652 H 1475.34 0.699682 3.81029 0
M  V30 15653 H 1475.75 2.82863 4.41688 0
M  V30 15654 H 1477.22 1.39029 5.34205 0
M  V30 15655 H 1477.7 -0.0149046 4.39197 0
M  V30 15656 H 1478.31 1.5957 3.9423 0
M  V30 15657 N 1476.62 -1.31073 0.875073 0
M  V30 15658 C 1477.87 -1.95791 0.484661 0
M  V30 15659 C 1478.18 -1.69907 -0.969074 0
M  V30 15660 O 1479.39 -2.28527 -1.46587 0
M  V30 15661 C 1477.85 -3.50532 0.815804 0
M  V30 15662 C 1477.45 -3.85249 2.28664 0
M  V30 15663 C 1479.2 -4.21615 0.494111 0
M  V30 15664 C 1477.1 -5.33124 2.55993 0
M  V30 15665 H 1476.03 -0.732806 0.177516 0
M  V30 15666 H 1478.69 -1.49169 1.06868 0
M  V30 15667 H 1477.07 -3.95673 0.16098 0
M  V30 15668 H 1478.24 -3.51051 2.98496 0
M  V30 15669 H 1476.56 -3.27244 2.57488 0
M  V30 15670 H 1479.15 -5.30417 0.675456 0
M  V30 15671 H 1479.5 -4.12437 -0.565815 0
M  V30 15672 H 1480.03 -3.82125 1.1057 0
M  V30 15673 H 1476.77 -5.47343 3.60688 0
M  V30 15674 H 1476.29 -5.68657 1.90761 0
M  V30 15675 H 1477.97 -6.00446 2.40984 0
M  V30 15676 N 1478.1 -0.635022 -1.4424 0
M  V30 15677 C 1479.35 -0.140788 -2.01609 0
M  V30 15678 C 1479.67 1.24317 -1.50234 0
M  V30 15679 O 1478.94 1.82677 -0.707519 0
M  V30 15680 H 1477.52 -0.0490568 -0.745387 0
M  V30 15681 H 1480.18 -0.8226 -1.7669 0
M  V30 15682 H 1479.28 -0.111456 -3.11901 0
M  V30 15683 N 1479.58 1.53054 -0.375806 0
M  V30 15684 C 1480.53 2.27576 0.480838 0
M  V30 15685 C 1481.52 1.30948 1.07466 0
M  V30 15686 O 1482.73 1.48538 1.01669 0
M  V30 15687 H 1479.1 0.731641 0.173799 0
M  V30 15688 H 1481.07 2.97919 -0.169327 0
M  V30 15689 C 1479.82 3.08533 1.60321 0
M  V30 15690 H 1479.14 3.82735 1.15558 0
M  V30 15691 H 1480.58 3.63837 2.17712 0
M  V30 15692 C 1479.04 2.20004 2.55147 0
M  V30 15693 O 1479.57 1.81771 3.58221 0
M  V30 15694 N 1477.78 1.84433 2.24573 0
M  V30 15695 H 1477.33 2.15723 1.40788 0
M  V30 15696 H 1477.28 1.25488 2.88271 0
M  V30 15697 N 1481.06 0.105248 1.57248 0
M  V30 15698 C 1482.31 -0.555797 1.93891 0
M  V30 15699 C 1482.62 -1.68703 0.989883 0
M  V30 15700 O 1483.82 -2.40991 1.25043 0
M  V30 15701 C 1482.28 -1.04006 3.44544 0
M  V30 15702 C 1481.89 0.0619641 4.47957 0
M  V30 15703 C 1483.63 -1.67327 3.90131 0
M  V30 15704 C 1481.54 -0.438229 5.89774 0
M  V30 15705 H 1480.47 -0.211391 0.723761 0
M  V30 15706 H 1483.12 0.182887 1.82586 0
M  V30 15707 H 1481.5 -1.83275 3.51036 0
M  V30 15708 H 1482.68 0.837803 4.5312 0
M  V30 15709 H 1480.99 0.600973 4.1204 0
M  V30 15710 H 1483.59 -2.0584 4.93492 0
M  V30 15711 H 1483.93 -2.54638 3.29341 0
M  V30 15712 H 1484.46 -0.946231 3.86382 0
M  V30 15713 H 1481.2 0.398506 6.54288 0
M  V30 15714 H 1480.72 -1.18085 5.88061 0
M  V30 15715 H 1482.4 -0.903922 6.40655 0
M  V30 15716 N 1482.53 -1.56697 -0.168486 0
M  V30 15717 C 1483.47 -1.91738 -1.23741 0
M  V30 15718 C 1484.45 -0.780522 -1.42642 0
M  V30 15719 O 1485.63 -1.0341 -1.57602 0
M  V30 15720 C 1482.76 -2.17077 -2.59991 0
M  V30 15721 C 1481.8 -3.39759 -2.5781 0
M  V30 15722 S 1482.64 -4.94035 -2.06614 0
M  V30 15723 C 1483.79 -5.22472 -3.44636 0
M  V30 15724 H 1484.02 -2.82104 -0.938344 0
M  V30 15725 H 1481.56 -1.49822 -0.373177 0
M  V30 15726 H 1483.52 -2.32356 -3.38409 0
M  V30 15727 H 1482.18 -1.27413 -2.87097 0
M  V30 15728 H 1481.37 -3.54698 -3.58058 0
M  V30 15729 H 1480.97 -3.2361 -1.8749 0
M  V30 15730 H 1483.26 -5.14623 -4.40647 0
M  V30 15731 H 1484.21 -6.24075 -3.34569 0
M  V30 15732 H 1484.61 -4.50034 -3.40779 0
M  V30 15733 N 1484.01 0.437135 -1.51416 0
M  V30 15734 C 1485.26 1.1835 -1.63328 0
M  V30 15735 C 1485.57 1.92343 -0.355455 0
M  V30 15736 O 1486.78 2.69183 -0.353951 0
M  V30 15737 C 1485.24 2.15235 -2.88447 0
M  V30 15738 C 1484.84 1.46889 -4.23235 0
M  V30 15739 C 1486.59 2.90303 -3.09716 0
M  V30 15740 C 1484.5 2.42259 -5.39504 0
M  V30 15741 H 1483.43 0.445467 -0.608338 0
M  V30 15742 H 1486.08 0.450528 -1.77883 0
M  V30 15743 H 1484.46 2.91968 -2.67527 0
M  V30 15744 H 1485.63 0.757128 -4.54537 0
M  V30 15745 H 1483.95 0.839725 -4.07845 0
M  V30 15746 H 1486.54 3.61747 -3.93756 0
M  V30 15747 H 1486.89 3.5166 -2.22802 0
M  V30 15748 H 1487.42 2.20677 -3.30978 0
M  V30 15749 H 1484.16 1.85591 -6.28678 0
M  V30 15750 H 1483.68 3.11488 -5.12577 0
M  V30 15751 H 1485.36 3.03384 -5.7146 0
M  V30 15752 N 1485.49 1.41566 0.692592 0
M  V30 15753 C 1486.74 1.41292 1.4548 0
M  V30 15754 C 1487.07 0.0229093 1.94186 0
M  V30 15755 O 1486.34 -0.949849 1.6973 0
M  V30 15756 C 1486.63 2.42225 2.66457 0
M  V30 15757 C 1486.48 3.90345 2.23496 0
M  V30 15758 C 1487.8 2.40374 3.68658 0
M  V30 15759 H 1484.92 0.51453 0.527663 0
M  V30 15760 H 1487.56 1.72862 0.788598 0
M  V30 15761 H 1485.71 2.15435 3.23296 0
M  V30 15762 H 1487.38 4.2805 1.71962 0
M  V30 15763 H 1485.63 4.05068 1.55249 0
M  V30 15764 H 1486.3 4.56518 3.10314 0
M  V30 15765 H 1488.77 2.64156 3.21498 0
M  V30 15766 H 1487.65 3.13004 4.5091 0
M  V30 15767 H 1487.91 1.42338 4.1856 0
M  V30 15768 N 1486.97 -0.927146 1.27443 0
M  V30 15769 C 1488.2 -1.70896 1.16629 0
M  V30 15770 C 1488.61 -1.8676 -0.276811 0
M  V30 15771 O 1487.97 -1.38503 -1.18842 0
M  V30 15772 C 1488.02 -3.1083 1.84573 0
M  V30 15773 O 1487.74 -2.9571 3.23244 0
M  V30 15774 C 1489.24 -4.05159 1.79891 0
M  V30 15775 H 1486.46 -0.534638 0.405467 0
M  V30 15776 H 1489.01 -1.16134 1.68325 0
M  V30 15777 H 1487.16 -3.6245 1.3678 0
M  V30 15778 H 1487.57 -3.84181 3.57079 0
M  V30 15779 H 1489.05 -5.00859 2.32044 0
M  V30 15780 H 1489.53 -4.32426 0.768373 0
M  V30 15781 H 1490.13 -3.59464 2.273 0
M  V30 15782 N 1488.45 -1.09474 -1.13372 0
M  V30 15783 C 1489.67 -0.852921 -1.88502 0
M  V30 15784 C 1490.09 0.595855 -1.79151 0
M  V30 15785 O 1489.45 1.41019 -1.15845 0
M  V30 15786 C 1489.5 -1.27993 -3.38083 0
M  V30 15787 O 1489.22 -2.67189 -3.47191 0
M  V30 15788 C 1490.72 -1.07056 -4.30179 0
M  V30 15789 H 1487.94 -0.30682 -0.596743 0
M  V30 15790 H 1490.48 -1.45685 -1.43513 0
M  V30 15791 H 1488.64 -0.719879 -3.80653 0
M  V30 15792 H 1489.05 -2.85202 -4.40182 0
M  V30 15793 H 1490.53 -1.4186 -5.3346 0
M  V30 15794 H 1491 -0.00838732 -4.39199 0
M  V30 15795 H 1491.61 -1.61659 -3.93378 0
M  V30 15796 N 1489.92 1.30607 -0.882012 0
M  V30 15797 C 1490.85 2.30666 -0.362706 0
M  V30 15798 C 1491.84 1.60865 0.552861 0
M  V30 15799 O 1493.02 1.88493 0.467339 0
M  V30 15800 C 1490.15 3.44675 0.42622 0
M  V30 15801 C 1489.1 4.26152 -0.397322 0
M  V30 15802 C 1488.43 5.32185 0.518027 0
M  V30 15803 C 1489.73 4.95955 -1.63785 0
M  V30 15804 H 1491.42 2.74351 -1.19883 0
M  V30 15805 H 1488.97 1.31895 -0.577912 0
M  V30 15806 H 1490.92 4.13734 0.80013 0
M  V30 15807 H 1489.65 2.99787 1.29597 0
M  V30 15808 H 1488.31 3.58776 -0.753332 0
M  V30 15809 H 1487.95 4.83545 1.3854 0
M  V30 15810 H 1487.65 5.87593 -0.0291802 0
M  V30 15811 H 1489.18 6.04101 0.888518 0
M  V30 15812 H 1490.59 5.57547 -1.3347 0
M  V30 15813 H 1488.99 5.61215 -2.12504 0
M  V30 15814 H 1490.06 4.22252 -2.38394 0
M  V30 15815 N 1491.4 0.642663 1.43901 0
M  V30 15816 C 1492.33 -0.0419756 2.33462 0
M  V30 15817 C 1493.31 -0.822923 1.48869 0
M  V30 15818 O 1494.5 -0.786508 1.7756 0
M  V30 15819 C 1491.63 -1.01631 3.32097 0
M  V30 15820 C 1490.58 -0.346206 4.26597 0
M  V30 15821 C 1489.91 -1.43125 5.15189 0
M  V30 15822 C 1491.21 0.754799 5.16817 0
M  V30 15823 H 1492.9 0.705929 2.90959 0
M  V30 15824 H 1490.45 0.340924 1.39906 0
M  V30 15825 H 1492.4 -1.5041 3.93643 0
M  V30 15826 H 1491.13 -1.79525 2.72834 0
M  V30 15827 H 1489.78 0.121038 3.664 0
M  V30 15828 H 1489.43 -2.20135 4.52271 0
M  V30 15829 H 1489.13 -0.988194 5.79231 0
M  V30 15830 H 1490.66 -1.92061 5.79607 0
M  V30 15831 H 1492.07 0.349624 5.72233 0
M  V30 15832 H 1490.47 1.12169 5.89524 0
M  V30 15833 H 1491.54 1.61718 4.57138 0
M  V30 15834 N 1492.88 -1.52852 0.383918 0
M  V30 15835 C 1493.81 -2.23927 -0.488816 0
M  V30 15836 C 1494.83 -1.2598 -1.03115 0
M  V30 15837 O 1496.02 -1.5209 -0.934398 0
M  V30 15838 C 1493.12 -2.9378 -1.68957 0
M  V30 15839 C 1492.29 -4.18388 -1.27555 0
M  V30 15840 C 1491.35 -4.71287 -2.3404 0
M  V30 15841 O 1490.37 -5.34511 -1.9567 0
M  V30 15842 N 1491.58 -4.50679 -3.65881 0
M  V30 15843 H 1494.34 -2.99459 0.120084 0
M  V30 15844 H 1491.9 -1.60532 0.210004 0
M  V30 15845 H 1493.89 -3.26071 -2.39707 0
M  V30 15846 H 1492.46 -2.21588 -2.20493 0
M  V30 15847 H 1491.68 -3.92194 -0.397157 0
M  V30 15848 H 1492.97 -4.99361 -0.975506 0
M  V30 15849 H 1492.37 -4.00201 -3.9982 0
M  V30 15850 H 1490.93 -4.87473 -4.32681 0
M  V30 15851 N 1494.36 -0.113586 -1.5719 0
M  V30 15852 C 1495.61 0.54572 -1.95008 0
M  V30 15853 C 1495.93 1.67031 -0.996541 0
M  V30 15854 O 1495.19 1.9569 -0.0194353 0
M  V30 15855 C 1495.49 1.1238 -3.39272 0
M  V30 15856 C 1495.15 0.12112 -4.50737 0
M  V30 15857 C 1493.82 -0.154607 -4.80952 0
M  V30 15858 C 1496.17 -0.562502 -5.18156 0
M  V30 15859 C 1493.5 -1.12033 -5.75904 0
M  V30 15860 C 1495.85 -1.51682 -6.14146 0
M  V30 15861 C 1494.51 -1.80059 -6.42756 0
M  V30 15862 H 1493.78 0.199693 -0.713585 0
M  V30 15863 H 1496.43 -0.193344 -1.90521 0
M  V30 15864 H 1494.73 1.93951 -3.40426 0
M  V30 15865 H 1496.43 1.64195 -3.65843 0
M  V30 15866 H 1493.02 0.34621 -4.27199 0
M  V30 15867 H 1497.21 -0.362645 -4.94973 0
M  V30 15868 H 1492.46 -1.34699 -5.96377 0
M  V30 15869 H 1496.64 -2.05225 -6.65474 0
M  V30 15870 H 1494.26 -2.55046 -7.16139 0
M  V30 15871 N 1495.84 1.56784 0.160173 0
M  V30 15872 C 1496.77 1.92391 1.22723 0
M  V30 15873 C 1497.75 0.788076 1.42226 0
M  V30 15874 O 1498.93 1.04245 1.57052 0
M  V30 15875 C 1496.06 2.18452 2.58836 0
M  V30 15876 C 1495.11 3.41121 2.56005 0
M  V30 15877 S 1495.94 4.95124 2.03991 0
M  V30 15878 C 1497.09 5.24292 3.4186 0
M  V30 15879 H 1497.33 2.82597 0.92337 0
M  V30 15880 H 1494.86 1.50018 0.365226 0
M  V30 15881 H 1496.82 2.34147 3.37172 0
M  V30 15882 H 1495.48 1.28934 2.86417 0
M  V30 15883 H 1494.67 3.56592 3.56172 0
M  V30 15884 H 1494.27 3.246 1.85771 0
M  V30 15885 H 1496.57 5.16953 4.37911 0
M  V30 15886 H 1497.51 6.2584 3.31255 0
M  V30 15887 H 1497.92 4.51834 3.38387 0
M  V30 15888 N 1497.32 -0.429099 1.51646 0
M  V30 15889 C 1498.56 -1.17784 1.64722 0
M  V30 15890 C 1498.89 -1.90998 0.367415 0
M  V30 15891 O 1498.15 -1.8463 -0.648862 0
M  V30 15892 C 1498.44 -2.2131 2.80636 0
M  V30 15893 C 1498.11 -1.65048 4.19607 0
M  V30 15894 C 1496.77 -1.49428 4.57411 0
M  V30 15895 C 1499.12 -1.23765 5.06292 0
M  V30 15896 C 1496.45 -0.910109 5.79598 0
M  V30 15897 C 1498.8 -0.667743 6.29066 0
M  V30 15898 C 1497.47 -0.498507 6.65636 0
M  V30 15899 H 1496.74 -0.431001 0.60276 0
M  V30 15900 H 1499.39 -0.46775 1.857 0
M  V30 15901 H 1497.69 -2.98388 2.53913 0
M  V30 15902 H 1499.39 -2.79079 2.87951 0
M  V30 15903 H 1495.98 -1.78185 3.89805 0
M  V30 15904 H 1500.16 -1.3465 4.77685 0
M  V30 15905 H 1495.42 -0.766825 6.06572 0
M  V30 15906 H 1499.59 -0.339377 6.95573 0
M  V30 15907 H 1497.22 -0.0437292 7.60187 0
M  V30 15908 N 1498.79 -1.41931 -0.685074 0
M  V30 15909 C 1499.76 -1.44315 -1.78061 0
M  V30 15910 C 1500.76 -0.332215 -1.57331 0
M  V30 15911 O 1501.95 -0.59258 -1.63811 0
M  V30 15912 C 1499.08 -1.26479 -3.16569 0
M  V30 15913 H 1500.27 -2.4185 -1.77337 0
M  V30 15914 H 1497.82 -1.28228 -0.893721 0
M  V30 15915 H 1498.56 -0.298259 -3.22926 0
M  V30 15916 H 1498.34 -2.06981 -3.33018 0
M  V30 15917 H 1499.83 -1.31006 -3.96519 0
M  V30 15918 N 1500.27 0.920374 -1.27933 0
M  V30 15919 C 1501.51 1.68333 -1.15945 0
M  V30 15920 C 1501.88 1.8982 0.288522 0
M  V30 15921 O 1503.08 2.63503 0.530976 0
M  V30 15922 C 1501.35 3.00865 -1.92912 0
M  V30 15923 S 1502.91 3.91981 -1.97221 0
M  V30 15924 H 1499.72 0.578189 -0.413785 0
M  V30 15925 H 1502.33 1.09521 -1.61943 0
M  V30 15926 H 1501.03 2.82924 -2.97292 0
M  V30 15927 H 1500.56 3.64727 -1.47437 0
M  V30 15928 H 1502.58 4.84439 -1.07393 0
M  V30 15929 N 1501.75 1.10074 1.1279 0
M  V30 15930 C 1503 0.835715 1.83572 0
M  V30 15931 C 1503.31 -0.640831 1.84805 0
M  V30 15932 O 1504.52 -1.02162 2.51545 0
M  V30 15933 C 1502.97 1.44519 3.29609 0
M  V30 15934 C 1502.58 2.95476 3.36746 0
M  V30 15935 C 1504.33 1.2594 4.05388 0
M  V30 15936 C 1502.23 3.49477 4.77095 0
M  V30 15937 H 1501.16 0.308974 0.687787 0
M  V30 15938 H 1503.81 1.32427 1.27025 0
M  V30 15939 H 1502.2 0.884323 3.86 0
M  V30 15940 H 1503.37 3.57846 2.90315 0
M  V30 15941 H 1501.68 3.13166 2.74437 0
M  V30 15942 H 1504.28 1.63732 5.09015 0
M  V30 15943 H 1504.62 0.200633 4.15816 0
M  V30 15944 H 1505.16 1.78814 3.55346 0
M  V30 15945 H 1501.9 4.55003 4.7186 0
M  V30 15946 H 1501.42 2.91873 5.23995 0
M  V30 15947 H 1503.1 3.47077 5.46028 0
M  V30 15948 N 1503.23 -1.30138 0.888926 0
M  V30 15949 C 1504.48 -1.95602 0.508359 0
M  V30 15950 C 1504.8 -1.70495 -0.946377 0
M  V30 15951 O 1504.07 -1.03073 -1.66592 0
M  V30 15952 H 1502.65 -0.723728 0.185006 0
M  V30 15953 H 1505.31 -1.58594 1.13286 0
M  V30 15954 H 1504.4 -3.04559 0.681915 0
M  V30 15955 N 1504.71 -0.650285 -1.43559 0
M  V30 15956 C 1505.95 -0.162725 -2.02146 0
M  V30 15957 C 1506.28 1.21911 -1.51166 0
M  V30 15958 O 1505.56 1.81329 -0.703563 0
M  V30 15959 C 1505.84 -0.170356 -3.59697 0
M  V30 15960 C 1505.7 -1.5859 -4.20915 0
M  V30 15961 C 1507.01 0.494831 -4.37309 0
M  V30 15962 H 1504.13 -0.0606055 -0.734504 0
M  V30 15963 H 1506.78 -0.830411 -1.70892 0
M  V30 15964 H 1504.93 0.39819 -3.86454 0
M  V30 15965 H 1506.6 -2.20481 -4.05199 0
M  V30 15966 H 1504.84 -2.13407 -3.77677 0
M  V30 15967 H 1505.51 -1.54312 -5.29992 0
M  V30 15968 H 1507.99 0.0111281 -4.16099 0
M  V30 15969 H 1506.86 0.458753 -5.4698 0
M  V30 15970 H 1507.12 1.56846 -4.13342 0
M  V30 15971 N 1506.18 1.52647 -0.392018 0
M  V30 15972 C 1507.12 2.24183 0.476934 0
M  V30 15973 C 1508.13 1.26526 1.02446 0
M  V30 15974 O 1509.32 1.52583 0.92632 0
M  V30 15975 C 1506.42 2.94672 1.67397 0
M  V30 15976 C 1505.59 4.19058 1.25335 0
M  V30 15977 C 1504.65 4.72522 2.31537 0
M  V30 15978 O 1503.68 5.35541 1.92833 0
M  V30 15979 N 1504.88 4.52613 3.63486 0
M  V30 15980 H 1507.64 2.99391 -0.135963 0
M  V30 15981 H 1505.2 1.60419 -0.218514 0
M  V30 15982 H 1507.2 3.27338 2.37975 0
M  V30 15983 H 1505.77 2.22755 2.19315 0
M  V30 15984 H 1504.99 3.92399 0.376352 0
M  V30 15985 H 1506.27 4.99871 0.94901 0
M  V30 15986 H 1505.67 4.02316 3.97692 0
M  V30 15987 H 1504.23 4.89761 4.3009 0
M  V30 15988 N 1507.66 0.121921 1.57128 0
M  V30 15989 C 1508.59 -0.823788 2.18486 0
M  V30 15990 C 1509.57 -1.27519 1.12574 0
M  V30 15991 O 1510.76 -1.33727 1.40822 0
M  V30 15992 C 1507.89 -2.07284 2.78659 0
M  V30 15993 C 1506.84 -1.75912 3.90178 0
M  V30 15994 C 1506.17 -3.07871 4.37172 0
M  V30 15995 C 1507.47 -1.02517 5.1214 0
M  V30 15996 H 1509.16 -0.312488 2.97765 0
M  V30 15997 H 1506.71 -0.148862 1.43228 0
M  V30 15998 H 1508.66 -2.73903 3.20242 0
M  V30 15999 H 1507.39 -2.60743 1.96673 0
M  V30 16000 H 1506.04 -1.11681 3.49174 0
M  V30 16001 H 1505.69 -3.59271 3.52041 0
M  V30 16002 H 1505.39 -2.87653 5.12376 0
M  V30 16003 H 1506.92 -3.75604 4.81409 0
M  V30 16004 H 1508.33 -1.59295 5.50725 0
M  V30 16005 H 1506.73 -0.923836 5.92946 0
M  V30 16006 H 1507.8 -0.0124219 4.84898 0
M  V30 16007 N 1509.14 -1.56867 -0.151857 0
M  V30 16008 C 1510.39 -1.83082 -0.865285 0
M  V30 16009 C 1510.72 -0.702056 -1.81387 0
M  V30 16010 O 1509.97 0.309291 -1.9324 0
M  V30 16011 C 1510.27 -3.15597 -1.6773 0
M  V30 16012 C 1509.94 -4.4231 -0.875929 0
M  V30 16013 C 1508.6 -4.76724 -0.654826 0
M  V30 16014 C 1510.95 -5.20246 -0.315162 0
M  V30 16015 C 1508.28 -5.86538 0.13783 0
M  V30 16016 C 1510.63 -6.30892 0.464508 0
M  V30 16017 C 1509.29 -6.63859 0.696233 0
M  V30 16018 H 1508.56 -0.669945 -0.31663 0
M  V30 16019 H 1511.21 -1.91064 -0.129175 0
M  V30 16020 H 1509.52 -3.03044 -2.48338 0
M  V30 16021 H 1511.21 -3.33094 -2.23269 0
M  V30 16022 H 1507.8 -4.15328 -1.05832 0
M  V30 16023 H 1511.99 -4.94038 -0.473273 0
M  V30 16024 H 1507.24 -6.10525 0.32691 0
M  V30 16025 H 1511.42 -6.90479 0.906187 0
M  V30 16026 H 1509.04 -7.48788 1.3123 0
M  V30 16027 N 1510.62 0.421051 -1.51871 0
M  V30 16028 C 1511.57 1.5122 -1.74359 0
M  V30 16029 C 1512.54 1.55432 -0.585667 0
M  V30 16030 O 1513.72 1.7219 -0.821912 0
M  V30 16031 C 1510.86 2.88787 -1.88935 0
M  V30 16032 C 1509.97 2.93977 -3.16546 0
M  V30 16033 C 1509.11 4.22768 -3.21622 0
M  V30 16034 C 1508.15 4.21888 -4.43483 0
M  V30 16035 N 1507.28 5.4223 -4.46017 0
M  V30 16036 H 1512.12 1.31348 -2.67492 0
M  V30 16037 H 1509.66 0.637779 -1.32555 0
M  V30 16038 H 1511.62 3.68629 -1.95368 0
M  V30 16039 H 1510.25 3.07181 -0.991942 0
M  V30 16040 H 1509.3 2.06699 -3.19343 0
M  V30 16041 H 1510.61 2.8919 -4.06412 0
M  V30 16042 H 1509.77 5.10995 -3.27061 0
M  V30 16043 H 1508.51 4.30234 -2.29674 0
M  V30 16044 H 1507.51 3.32052 -4.38202 0
M  V30 16045 H 1508.74 4.16072 -5.36713 0
M  V30 16046 H 1506.68 5.50386 -3.56947 0
M  V30 16047 H 1506.6 5.39389 -5.29713 0
M  V30 16048 H 1507.87 6.32443 -4.55671 0
M  V30 16049 N 1512.1 1.42293 0.677538 0
M  V30 16050 C 1513.34 1.42334 1.43476 0
M  V30 16051 C 1513.67 0.0397842 1.94959 0
M  V30 16052 O 1512.94 -0.921258 1.72886 0
M  V30 16053 H 1511.52 0.523969 0.532415 0
M  V30 16054 H 1514.18 1.7769 0.800758 0
M  V30 16055 H 1513.27 2.12146 2.28912 0
M  V30 16056 N 1513.57 -0.913576 1.28419 0
M  V30 16057 C 1514.52 -2.01603 1.12361 0
M  V30 16058 C 1515.49 -1.66087 0.0206953 0
M  V30 16059 O 1516.68 -1.89895 0.185659 0
M  V30 16060 C 1513.82 -3.35897 0.791655 0
M  V30 16061 C 1512.93 -3.84281 1.97363 0
M  V30 16062 C 1512.06 -5.07087 1.58228 0
M  V30 16063 C 1511.1 -5.47804 2.73089 0
M  V30 16064 N 1510.24 -6.618 2.34446 0
M  V30 16065 H 1515.08 -2.1467 2.0669 0
M  V30 16066 H 1512.62 -1.05147 1.02871 0
M  V30 16067 H 1514.58 -4.13149 0.579943 0
M  V30 16068 H 1513.21 -3.22596 -0.114699 0
M  V30 16069 H 1512.26 -3.03184 2.29746 0
M  V30 16070 H 1513.57 -4.10417 2.83477 0
M  V30 16071 H 1512.72 -5.91883 1.33264 0
M  V30 16072 H 1511.46 -4.82759 0.692429 0
M  V30 16073 H 1510.47 -4.61549 2.98751 0
M  V30 16074 H 1511.69 -5.74119 3.62717 0
M  V30 16075 H 1509.64 -6.39103 1.4793 0
M  V30 16076 H 1509.56 -6.87663 3.14096 0
M  V30 16077 H 1510.82 -7.49901 2.12766 0
M  V30 16078 N 1515.05 -1.1067 -1.12204 0
M  V30 16079 C 1516.3 -0.85063 -1.83768 0
M  V30 16080 C 1516.63 0.62379 -1.84226 0
M  V30 16081 O 1515.88 1.47603 -1.28498 0
M  V30 16082 C 1516.18 -1.34727 -3.31034 0
M  V30 16083 C 1515.85 -2.83353 -3.50745 0
M  V30 16084 C 1514.51 -3.2394 -3.55832 0
M  V30 16085 C 1516.86 -3.79118 -3.57658 0
M  V30 16086 C 1514.19 -4.59036 -3.6538 0
M  V30 16087 C 1516.54 -5.1402 -3.68736 0
M  V30 16088 C 1515.21 -5.54177 -3.72081 0
M  V30 16089 H 1514.48 -0.311268 -0.672453 0
M  V30 16090 H 1517.12 -1.38373 -1.32383 0
M  V30 16091 H 1515.43 -0.73424 -3.84859 0
M  V30 16092 H 1517.12 -1.12558 -3.84879 0
M  V30 16093 H 1513.71 -2.50952 -3.47449 0
M  V30 16094 H 1517.9 -3.48867 -3.52995 0
M  V30 16095 H 1513.15 -4.89568 -3.66243 0
M  V30 16096 H 1517.33 -5.88067 -3.73028 0
M  V30 16097 H 1514.96 -6.58853 -3.79232 0
M  V30 16098 N 1516.53 1.29665 -0.895815 0
M  V30 16099 C 1517.76 1.99572 -0.534267 0
M  V30 16100 C 1518.17 1.67254 0.884455 0
M  V30 16101 O 1517.51 0.911762 1.59476 0
M  V30 16102 C 1517.57 3.53719 -0.642099 0
M  V30 16103 C 1517.24 4.09583 -2.02709 0
M  V30 16104 C 1518.23 4.24769 -2.99779 0
M  V30 16105 C 1515.92 4.44706 -2.33542 0
M  V30 16106 C 1517.91 4.74305 -4.25809 0
M  V30 16107 C 1515.6 4.93939 -3.59815 0
M  V30 16108 C 1516.6 5.08693 -4.55763 0
M  V30 16109 O 1516.29 5.5686 -5.79795 0
M  V30 16110 H 1516.02 0.644481 -0.204012 0
M  V30 16111 H 1518.57 1.66262 -1.20607 0
M  V30 16112 H 1516.8 3.86603 0.0867197 0
M  V30 16113 H 1518.49 4.04861 -0.290265 0
M  V30 16114 H 1519.26 3.97925 -2.77273 0
M  V30 16115 H 1515.14 4.32483 -1.59622 0
M  V30 16116 H 1518.68 4.85736 -5.00706 0
M  V30 16117 H 1514.58 5.2022 -3.82154 0
M  V30 16118 H 1515.35 5.75182 -5.82329 0
M  V30 16119 N 1518.01 0.657889 1.43212 0
M  V30 16120 C 1519.24 0.181072 2.06106 0
M  V30 16121 C 1519.65 -1.15513 1.49339 0
M  V30 16122 O 1519.01 -1.71409 0.626517 0
M  V30 16123 C 1519.06 0.0890244 3.6139 0
M  V30 16124 O 1518.78 1.37241 4.16049 0
M  V30 16125 C 1520.28 -0.413313 4.41369 0
M  V30 16126 H 1517.5 0.0920577 0.664655 0
M  V30 16127 H 1520.05 0.899855 1.83638 0
M  V30 16128 H 1518.2 -0.580345 3.83028 0
M  V30 16129 H 1518.61 1.23467 5.09761 0
M  V30 16130 H 1520.09 -0.426663 5.50349 0
M  V30 16131 H 1520.57 -1.44549 4.14731 0
M  V30 16132 H 1521.17 0.223727 4.24711 0
M  V30 16133 N 1519.49 -1.52437 0.400108 0
M  V30 16134 C 1520.73 -2.03621 -0.178245 0
M  V30 16135 C 1521.09 -1.27965 -1.4314 0
M  V30 16136 O 1522.29 -1.69329 -2.08761 0
M  V30 16137 C 1520.56 -3.54816 -0.428968 0
M  V30 16138 S 1522.12 -4.27807 -0.97606 0
M  V30 16139 H 1518.94 -0.709293 -0.0492434 0
M  V30 16140 H 1521.54 -1.87576 0.550948 0
M  V30 16141 H 1520.25 -4.07464 0.490016 0
M  V30 16142 H 1519.78 -3.75088 -1.18629 0
M  V30 16143 H 1521.79 -4.41875 -2.25746 0
M  V30 16144 N 1520.96 -0.130252 -1.57061 0
M  V30 16145 C 1522.19 0.532416 -1.99932 0
M  V30 16146 C 1522.61 1.59505 -1.01013 0
M  V30 16147 O 1521.96 1.82499 -0.00463158 0
M  V30 16148 C 1522.02 1.14833 -3.42776 0
M  V30 16149 O 1521.74 0.128163 -4.37912 0
M  V30 16150 C 1523.24 1.89324 -4.00838 0
M  V30 16151 H 1520.46 0.140046 -0.656223 0
M  V30 16152 H 1523 -0.219905 -2.03314 0
M  V30 16153 H 1521.16 1.85137 -3.40298 0
M  V30 16154 H 1521.57 0.577135 -5.21315 0
M  V30 16155 H 1523.04 2.27731 -5.02835 0
M  V30 16156 H 1523.52 2.77277 -3.40608 0
M  V30 16157 H 1524.13 1.23757 -4.06896 0
M  V30 16158 N 1522.44 1.56945 0.143535 0
M  V30 16159 C 1523.72 1.74461 0.884454 0
M  V30 16160 C 1524.1 0.699201 1.99184 0
M  V30 16161 O 1523.45 -0.281267 2.26762 0
M  V30 16162 C 1523.66 3.18639 1.42373 0
M  V30 16163 C 1525.01 3.80426 1.88577 0
M  V30 16164 O 1526.03 3.2209 1.52107 0
M  V30 16165 O 1524.89 4.82913 2.55847 0
M  V30 16166 H 1521.98 0.713457 0.41822 0
M  V30 16167 H 1524.53 1.69208 0.12919 0
M  V30 16168 H 1523.3 3.86227 0.628056 0
M  V30 16169 H 1522.92 3.28332 2.2424 0
M  V30 16170 N 1523.92 -0.412991 1.52093 0
M  V30 16171 C 1524.83 -1.52768 1.78042 0
M  V30 16172 C 1525.85 -1.60758 0.665791 0
M  V30 16173 O 1527.02 -1.77545 0.950772 0
M  V30 16174 C 1524.09 -2.8854 1.92213 0
M  V30 16175 C 1523.15 -2.90468 3.16112 0
M  V30 16176 C 1522.38 -4.19763 3.29598 0
M  V30 16177 O 1522.61 -5.13454 2.48438 0
M  V30 16178 O 1521.54 -4.2847 4.22726 0
M  V30 16179 H 1525.37 -1.33777 2.72649 0
M  V30 16180 H 1522.95 -0.598461 1.3689 0
M  V30 16181 H 1524.83 -3.69073 2.03379 0
M  V30 16182 H 1523.51 -3.07607 1.00795 0
M  V30 16183 H 1522.41 -2.08801 3.10408 0
M  V30 16184 H 1523.75 -2.76349 4.07298 0
M  V30 16185 N 1525.4 -1.4265 -0.669982 0
M  V30 16186 C 1526.36 -1.46196 -1.7652 0
M  V30 16187 C 1527.36 -0.348884 -1.5697 0
M  V30 16188 O 1528.55 -0.609921 -1.63174 0
M  V30 16189 C 1525.68 -1.29829 -3.1521 0
M  V30 16190 H 1526.88 -2.43718 -1.74762 0
M  V30 16191 H 1524.43 -1.29168 -0.88007 0
M  V30 16192 H 1525.17 -0.332493 -3.22591 0
M  V30 16193 H 1524.95 -2.10501 -3.30804 0
M  V30 16194 H 1526.44 -1.35205 -3.95107 0
M  V30 16195 N 1526.88 0.906753 -1.28902 0
M  V30 16196 C 1527.82 2.01004 -1.13429 0
M  V30 16197 C 1528.79 1.66074 -0.0295031 0
M  V30 16198 O 1529.98 1.89793 -0.195727 0
M  V30 16199 C 1527.12 3.35473 -0.809457 0
M  V30 16200 C 1526.23 3.83229 -1.99398 0
M  V30 16201 C 1525.37 5.06241 -1.60915 0
M  V30 16202 C 1524.41 5.46348 -2.7599 0
M  V30 16203 N 1523.54 6.60548 -2.37952 0
M  V30 16204 H 1528.38 2.13571 -2.07825 0
M  V30 16205 H 1525.92 1.046 -1.03428 0
M  V30 16206 H 1527.88 4.12836 -0.601845 0
M  V30 16207 H 1526.51 3.22652 0.0975896 0
M  V30 16208 H 1525.56 3.01962 -2.31351 0
M  V30 16209 H 1526.87 4.08908 -2.85649 0
M  V30 16210 H 1526.03 5.91168 -1.36401 0
M  V30 16211 H 1524.77 4.82385 -0.718021 0
M  V30 16212 H 1523.77 4.59959 -3.01195 0
M  V30 16213 H 1525 5.72188 -3.65757 0
M  V30 16214 H 1522.94 6.38309 -1.51318 0
M  V30 16215 H 1522.86 6.85987 -3.17738 0
M  V30 16216 H 1524.13 7.48762 -2.1674 0
M  V30 16217 N 1528.36 1.11264 1.11616 0
M  V30 16218 C 1529.31 0.738429 2.15711 0
M  V30 16219 C 1530.29 -0.25663 1.5884 0
M  V30 16220 O 1531.48 -0.0640255 1.76884 0
M  V30 16221 C 1528.61 0.181245 3.42821 0
M  V30 16222 C 1527.7 1.20386 4.06655 0
M  V30 16223 N 1528.09 2.39745 4.45372 0
M  V30 16224 C 1526.39 1.04637 4.33552 0
M  V30 16225 C 1527.09 3.04949 4.95359 0
M  V30 16226 N 1526.06 2.32435 4.91401 0
M  V30 16227 H 1529.86 1.6469 2.43423 0
M  V30 16228 H 1527.38 0.991616 1.28611 0
M  V30 16229 H 1529.38 -0.104966 4.16768 0
M  V30 16230 H 1528.04 -0.721832 3.16575 0
M  V30 16231 H 1529.05 2.77213 4.37462 0
M  V30 16232 H 1525.72 0.19957 4.17023 0
M  V30 16233 H 1527.11 4.06528 5.34962 0
M  V30 16234 N 1529.83 -1.29188 0.902679 0
M  V30 16235 C 1531.06 -1.99576 0.545635 0
M  V30 16236 C 1531.48 -1.67541 -0.870372 0
M  V30 16237 O 1530.83 -0.922082 -1.57493 0
M  V30 16238 C 1530.88 -3.54013 0.731916 0
M  V30 16239 O 1530.61 -3.84914 2.09219 0
M  V30 16240 C 1532.11 -4.41666 0.38022 0
M  V30 16241 H 1529.33 -0.637593 0.209083 0
M  V30 16242 H 1531.87 -1.64652 1.21284 0
M  V30 16243 H 1530.03 -3.87239 0.111849 0
M  V30 16244 H 1530.44 -4.79581 2.12373 0
M  V30 16245 H 1531.91 -5.49138 0.561382 0
M  V30 16246 H 1532.39 -4.33858 -0.682915 0
M  V30 16247 H 1533 -4.13918 0.977354 0
M  V30 16248 N 1531.31 -0.665475 -1.42861 0
M  V30 16249 C 1532.72 -0.26225 -1.84849 0
M  V30 16250 C 1533.07 1.19372 -1.55707 0
M  V30 16251 O 1532.2 1.91269 -1.01218 0
M  V30 16252 C 1532.79 -0.469189 -3.35535 0
M  V30 16253 C 1531.35 -0.120172 -3.76208 0
M  V30 16254 C 1530.5 -0.766153 -2.66506 0
M  V30 16255 H 1533.45 -0.868296 -1.32839 0
M  V30 16256 H 1533.47 0.281571 -3.79457 0
M  V30 16257 H 1532.98 -1.52894 -3.56714 0
M  V30 16258 H 1531.08 0.936505 -3.60639 0
M  V30 16259 H 1531.2 -0.554188 -4.75884 0
M  V30 16260 H 1529.56 -0.198292 -2.53927 0
M  V30 16261 H 1530.34 -1.82918 -2.9051 0
M  V30 16262 N 1532.79 1.52222 -0.408187 0
M  V30 16263 C 1533.72 2.24676 0.453129 0
M  V30 16264 C 1534.73 1.27605 1.01098 0
M  V30 16265 O 1535.92 1.53557 0.910084 0
M  V30 16266 C 1533.02 2.96431 1.64262 0
M  V30 16267 C 1532.2 4.20364 1.20883 0
M  V30 16268 C 1531.26 4.74951 2.26512 0
M  V30 16269 O 1530.28 5.37556 1.87142 0
M  V30 16270 N 1531.48 4.56443 3.58665 0
M  V30 16271 H 1534.25 2.9923 -0.16771 0
M  V30 16272 H 1531.81 1.60178 -0.235517 0
M  V30 16273 H 1533.8 3.29844 2.3449 0
M  V30 16274 H 1532.37 2.25068 2.1694 0
M  V30 16275 H 1531.59 3.92776 0.334712 0
M  V30 16276 H 1532.88 5.0085 0.895939 0
M  V30 16277 H 1532.28 4.06511 3.93402 0
M  V30 16278 H 1530.83 4.94295 4.24871 0
M  V30 16279 N 1534.27 0.138579 1.5699 0
M  V30 16280 C 1535.18 -0.817548 2.19894 0
M  V30 16281 C 1536.19 -1.27806 1.18075 0
M  V30 16282 O 1537.37 -1.33699 1.5062 0
M  V30 16283 C 1534.43 -2.04244 2.80152 0
M  V30 16284 C 1533.5 -1.63197 3.97071 0
M  V30 16285 C 1532.73 -2.79847 4.54446 0
M  V30 16286 O 1532.95 -3.95827 4.10703 0
M  V30 16287 O 1531.89 -2.55804 5.44838 0
M  V30 16288 H 1535.71 -0.312123 3.02092 0
M  V30 16289 H 1533.3 -0.0880281 1.4914 0
M  V30 16290 H 1535.18 -2.75945 3.18485 0
M  V30 16291 H 1533.85 -2.53755 2.00973 0
M  V30 16292 H 1532.76 -0.885448 3.6347 0
M  V30 16293 H 1534.09 -1.1841 4.77745 0
M  V30 16294 N 1535.75 -1.57019 -0.13521 0
M  V30 16295 C 1536.99 -1.85801 -0.851896 0
M  V30 16296 C 1537.35 -0.724449 -1.77808 0
M  V30 16297 O 1538.55 -0.893619 -2.53511 0
M  V30 16298 C 1536.82 -3.19788 -1.59595 0
M  V30 16299 S 1538.38 -3.70159 -2.35644 0
M  V30 16300 H 1535.2 -0.651534 -0.284649 0
M  V30 16301 H 1537.8 -1.95184 -0.111177 0
M  V30 16302 H 1536.5 -4.00247 -0.907221 0
M  V30 16303 H 1536.04 -3.13441 -2.37735 0
M  V30 16304 H 1538.05 -3.40364 -3.61063 0
M  V30 16305 N 1537.22 0.404919 -1.52309 0
M  V30 16306 C 1538.17 1.49363 -1.75953 0
M  V30 16307 C 1539.14 1.54802 -0.60212 0
M  V30 16308 O 1540.33 1.71308 -0.840128 0
M  V30 16309 C 1537.47 2.86767 -1.91987 0
M  V30 16310 C 1536.58 2.90603 -3.19646 0
M  V30 16311 C 1535.71 4.19333 -3.26088 0
M  V30 16312 C 1534.75 4.17161 -4.47932 0
M  V30 16313 N 1533.89 5.37469 -4.51743 0
M  V30 16314 H 1538.73 1.28503 -2.6887 0
M  V30 16315 H 1536.27 0.623684 -1.33224 0
M  V30 16316 H 1538.23 3.66536 -1.99267 0
M  V30 16317 H 1536.86 3.06112 -1.02447 0
M  V30 16318 H 1535.91 2.033 -3.21517 0
M  V30 16319 H 1537.22 2.84864 -4.09456 0
M  V30 16320 H 1536.37 5.07497 -3.32463 0
M  V30 16321 H 1535.11 4.27774 -2.34224 0
M  V30 16322 H 1534.12 3.27386 -4.417 0
M  V30 16323 H 1535.34 4.10356 -5.41096 0
M  V30 16324 H 1533.29 5.46569 -3.62764 0
M  V30 16325 H 1533.21 5.3374 -5.35404 0
M  V30 16326 H 1534.47 6.27575 -4.62353 0
M  V30 16327 N 1538.7 1.43003 0.662408 0
M  V30 16328 C 1539.95 1.43848 1.41958 0
M  V30 16329 C 1540.27 0.06046 1.94906 0
M  V30 16330 O 1539.54 -0.90287 1.73854 0
M  V30 16331 H 1538.12 0.529587 0.526827 0
M  V30 16332 H 1540.78 1.7853 0.781867 0
M  V30 16333 H 1539.88 2.14562 2.26649 0
M  V30 16334 N 1540.18 -0.899904 1.29381 0
M  V30 16335 C 1541.41 -1.68911 1.20349 0
M  V30 16336 C 1541.83 -1.86657 -0.232523 0
M  V30 16337 O 1541.19 -1.38674 -1.16787 0
M  V30 16338 C 1541.24 -3.05124 1.92177 0
M  V30 16339 O 1540.34 -3.93358 1.23867 0
M  V30 16340 H 1539.68 -0.516698 0.417036 0
M  V30 16341 H 1542.21 -1.12422 1.70946 0
M  V30 16342 H 1542.22 -3.55267 2.00623 0
M  V30 16343 H 1540.9 -2.91525 2.96624 0
M  V30 16344 H 1539.47 -3.51793 1.23677 0
M  V30 16345 N 1541.66 -1.11854 -1.11024 0
M  V30 16346 C 1542.91 -0.870073 -1.82855 0
M  V30 16347 C 1543.23 0.604215 -1.84877 0
M  V30 16348 O 1542.49 1.46232 -1.30056 0
M  V30 16349 C 1542.79 -1.3823 -3.29586 0
M  V30 16350 C 1542.45 -2.87057 -3.4772 0
M  V30 16351 C 1541.12 -3.27696 -3.52376 0
M  V30 16352 C 1543.47 -3.8289 -3.53617 0
M  V30 16353 C 1540.8 -4.62886 -3.60491 0
M  V30 16354 C 1543.15 -5.17902 -3.63263 0
M  V30 16355 C 1541.81 -5.58092 -3.66182 0
M  V30 16356 H 1541.08 -0.318382 -0.669114 0
M  V30 16357 H 1543.73 -1.39769 -1.30908 0
M  V30 16358 H 1542.03 -0.775018 -3.84058 0
M  V30 16359 H 1543.73 -1.16634 -3.83663 0
M  V30 16360 H 1540.32 -2.54623 -3.44768 0
M  V30 16361 H 1544.5 -3.52591 -3.49275 0
M  V30 16362 H 1539.76 -4.93425 -3.61029 0
M  V30 16363 H 1543.93 -5.9199 -3.6677 0
M  V30 16364 H 1541.56 -6.62838 -3.72222 0
M  V30 16365 N 1543.14 1.28707 -0.909517 0
M  V30 16366 C 1544.07 2.29845 -0.411552 0
M  V30 16367 C 1545.05 1.62001 0.518615 0
M  V30 16368 O 1546.23 1.89442 0.427252 0
M  V30 16369 C 1543.36 3.45501 0.353013 0
M  V30 16370 C 1542.32 4.25213 -0.487625 0
M  V30 16371 C 1541.64 5.33164 0.405026 0
M  V30 16372 C 1542.94 4.9237 -1.74268 0
M  V30 16373 H 1544.64 2.71746 -1.25676 0
M  V30 16374 H 1542.18 1.30639 -0.605759 0
M  V30 16375 H 1544.14 4.15338 0.712191 0
M  V30 16376 H 1542.86 3.02469 1.23209 0
M  V30 16377 H 1541.52 3.57098 -0.829265 0
M  V30 16378 H 1541.17 4.86375 1.28252 0
M  V30 16379 H 1540.87 5.87399 -0.153811 0
M  V30 16380 H 1542.39 6.0585 0.760179 0
M  V30 16381 H 1543.8 5.5459 -1.45266 0
M  V30 16382 H 1542.2 5.56581 -2.2436 0
M  V30 16383 H 1543.27 4.171 -2.47297 0
M  V30 16384 N 1544.61 0.673042 1.42506 0
M  V30 16385 C 1545.86 0.194864 2.01862 0
M  V30 16386 C 1546.19 -1.19491 1.53087 0
M  V30 16387 O 1545.47 -1.80187 0.732322 0
M  V30 16388 C 1545.75 0.227559 3.5938 0
M  V30 16389 C 1545.6 1.65266 4.18338 0
M  V30 16390 C 1546.92 -0.425197 4.38041 0
M  V30 16391 H 1544.04 0.0722831 0.733447 0
M  V30 16392 H 1546.68 0.857493 1.6955 0
M  V30 16393 H 1544.83 -0.336658 3.87039 0
M  V30 16394 H 1546.51 2.26899 4.0164 0
M  V30 16395 H 1544.75 2.19388 3.74234 0
M  V30 16396 H 1545.42 1.62724 5.2747 0
M  V30 16397 H 1547.9 0.0550709 4.16064 0
M  V30 16398 H 1546.77 -0.371675 5.4764 0
M  V30 16399 H 1547.03 -1.50251 4.15785 0
M  V30 16400 N 1546.09 -1.52004 0.416254 0
M  V30 16401 C 1547.32 -2.06008 -0.156264 0
M  V30 16402 C 1547.73 -1.28562 -1.3881 0
M  V30 16403 O 1547.07 -0.33265 -1.80663 0
M  V30 16404 C 1547.14 -3.55039 -0.564614 0
M  V30 16405 C 1546.8 -4.53587 0.557481 0
M  V30 16406 C 1547.8 -5.0004 1.42324 0
M  V30 16407 C 1545.48 -4.96935 0.732205 0
M  V30 16408 C 1547.48 -5.88492 2.4486 0
M  V30 16409 C 1545.16 -5.85181 1.76087 0
M  V30 16410 C 1546.16 -6.30855 2.61747 0
M  V30 16411 O 1545.85 -7.17353 3.6285 0
M  V30 16412 H 1545.58 -0.675681 -0.0207555 0
M  V30 16413 H 1548.13 -1.96806 0.58792 0
M  V30 16414 H 1546.36 -3.61951 -1.36119 0
M  V30 16415 H 1548.05 -3.91656 -1.06586 0
M  V30 16416 H 1548.82 -4.67261 1.29968 0
M  V30 16417 H 1544.7 -4.60939 0.0751016 0
M  V30 16418 H 1548.24 -6.24063 3.11754 0
M  V30 16419 H 1544.14 -6.17373 1.8847 0
M  V30 16420 H 1544.91 -7.35481 3.59179 0
M  V30 16421 N 1547.57 -0.146903 -1.56914 0
M  V30 16422 C 1548.98 0.373938 -1.82917 0
M  V30 16423 C 1549.33 1.64741 -1.06559 0
M  V30 16424 O 1548.46 2.14156 -0.310849 0
M  V30 16425 C 1549.05 0.685213 -3.31799 0
M  V30 16426 C 1547.61 1.15058 -3.58383 0
M  V30 16427 C 1546.76 0.17362 -2.76756 0
M  V30 16428 H 1549.71 -0.371602 -1.54288 0
M  V30 16429 H 1549.73 1.53989 -3.47948 0
M  V30 16430 H 1549.24 -0.241816 -3.87346 0
M  V30 16431 H 1547.34 2.09355 -3.08223 0
M  V30 16432 H 1547.46 1.07662 -4.66847 0
M  V30 16433 H 1545.82 0.666227 -2.45832 0
M  V30 16434 H 1546.6 -0.746998 -3.35074 0
M  V30 16435 N 1549.05 1.57088 0.126881 0
M  V30 16436 C 1550.33 1.7539 0.8659 0
M  V30 16437 C 1550.71 0.720288 1.98432 0
M  V30 16438 O 1550.05 -0.2572 2.27048 0
M  V30 16439 C 1550.26 3.20131 1.38985 0
M  V30 16440 C 1551.61 3.82404 1.84532 0
M  V30 16441 O 1552.64 3.23685 1.48682 0
M  V30 16442 O 1551.49 4.85599 2.50711 0
M  V30 16443 H 1548.59 0.717853 0.41063 0
M  V30 16444 H 1551.13 1.69335 0.111236 0
M  V30 16445 H 1549.91 3.86871 0.587056 0
M  V30 16446 H 1549.53 3.30692 2.20745 0
M  V30 16447 N 1550.53 -0.396836 1.52522 0
M  V30 16448 C 1551.77 -1.14037 1.66853 0
M  V30 16449 C 1552.1 -1.90706 0.406987 0
M  V30 16450 O 1551.37 -1.87165 -0.578443 0
M  V30 16451 H 1549.95 -0.423967 0.615029 0
M  V30 16452 H 1552.61 -0.451042 1.89609 0
M  V30 16453 H 1551.7 -1.84763 2.51533 0
M  V30 16454 N 1552.01 -1.43353 -0.654814 0
M  V30 16455 C 1553.28 -1.35363 -1.41195 0
M  V30 16456 C 1553.66 -0.000661523 -2.111 0
M  V30 16457 O 1553.01 1.01583 -2.04678 0
M  V30 16458 C 1553.22 -2.53572 -2.39796 0
M  V30 16459 C 1554.57 -2.96587 -3.03844 0
M  V30 16460 O 1555.59 -2.53607 -2.50124 0
M  V30 16461 O 1554.45 -3.71039 -4.01239 0
M  V30 16462 H 1551.55 -0.534861 -0.630756 0
M  V30 16463 H 1554.09 -1.55399 -0.681857 0
M  V30 16464 H 1552.86 -3.43682 -1.87078 0
M  V30 16465 H 1552.49 -2.35628 -3.20258 0
M  V30 16466 N 1553.48 0.89303 -1.29857 0
M  V30 16467 C 1554.73 1.64657 -1.18389 0
M  V30 16468 C 1555.06 1.92417 0.262587 0
M  V30 16469 O 1554.34 1.53936 1.18887 0
M  V30 16470 C 1554.62 2.99148 -2.00456 0
M  V30 16471 C 1554.47 2.78411 -3.53281 0
M  V30 16472 C 1555.79 3.99968 -1.83613 0
M  V30 16473 H 1552.91 0.59752 -0.431438 0
M  V30 16474 H 1555.55 1.03397 -1.59402 0
M  V30 16475 H 1553.7 3.51435 -1.65607 0
M  V30 16476 H 1555.38 2.32974 -3.98147 0
M  V30 16477 H 1553.62 2.13067 -3.77869 0
M  V30 16478 H 1554.29 3.74008 -4.05983 0
M  V30 16479 H 1556.77 3.56813 -2.14064 0
M  V30 16480 H 1555.64 4.91997 -2.43373 0
M  V30 16481 H 1555.9 4.34928 -0.793098 0
M  V30 16482 N 1554.96 1.12442 1.10429 0
M  V30 16483 C 1556.19 0.902914 1.86714 0
M  V30 16484 C 1556.61 -0.542514 1.80107 0
M  V30 16485 O 1555.97 -1.38406 1.17105 0
M  V30 16486 C 1556.02 1.38238 3.33051 0
M  V30 16487 O 1555.12 0.560877 4.08568 0
M  V30 16488 H 1554.46 0.324397 0.579364 0
M  V30 16489 H 1556.99 1.49652 1.39519 0
M  V30 16490 H 1557 1.38148 3.839 0
M  V30 16491 H 1555.68 2.43486 3.37176 0
M  V30 16492 H 1554.25 0.628771 3.67561 0
M  V30 16493 N 1556.44 -1.28223 0.91633 0
M  V30 16494 C 1557.86 -1.47281 0.614864 0
M  V30 16495 C 1558.06 -1.83197 -0.839111 0
M  V30 16496 O 1557.11 -1.9385 -1.61798 0
M  V30 16497 C 1558.42 -2.57373 1.55498 0
M  V30 16498 C 1559.97 -2.71241 1.56197 0
M  V30 16499 C 1560.45 -3.84479 2.48877 0
M  V30 16500 N 1561.94 -3.91837 2.47019 0
M  V30 16501 C 1562.67 -4.78846 3.15427 0
M  V30 16502 N 1562.17 -5.70427 3.93173 0
M  V30 16503 N 1563.96 -4.72478 3.04501 0
M  V30 16504 H 1556.11 -1.03191 1.85649 0
M  V30 16505 H 1558.38 -0.514213 0.796422 0
M  V30 16506 H 1558.08 -2.37747 2.5917 0
M  V30 16507 H 1557.96 -3.54527 1.28803 0
M  V30 16508 H 1560.34 -2.90254 0.532619 0
M  V30 16509 H 1560.42 -1.74609 1.86937 0
M  V30 16510 H 1560.07 -3.6622 3.51916 0
M  V30 16511 H 1560 -4.80514 2.15439 0
M  V30 16512 H 1562.49 -3.26344 1.90546 0
M  V30 16513 H 1562.8 -6.33653 4.42384 0
M  V30 16514 H 1561.15 -5.70259 3.97278 0
M  V30 16515 H 1564.34 -3.99925 2.43265 0
M  V30 16516 H 1564.51 -5.40073 3.58086 0
M  V30 16517 N 1557.92 -0.68059 -1.42147 0
M  V30 16518 C 1559.33 -0.281841 -1.8456 0
M  V30 16519 C 1559.68 1.17714 -1.56965 0
M  V30 16520 O 1558.8 1.90185 -1.03241 0
M  V30 16521 C 1559.4 -0.504751 -3.35019 0
M  V30 16522 C 1557.96 -0.160067 -3.76059 0
M  V30 16523 C 1557.11 -0.794377 -2.65678 0
M  V30 16524 H 1560.06 -0.882337 -1.31911 0
M  V30 16525 H 1560.08 0.241308 -3.79734 0
M  V30 16526 H 1559.59 -1.56669 -3.55072 0
M  V30 16527 H 1557.69 0.898202 -3.61612 0
M  V30 16528 H 1557.8 -0.60463 -4.75269 0
M  V30 16529 H 1556.17 -0.225213 -2.53702 0
M  V30 16530 H 1556.95 -1.85989 -2.88553 0
M  V30 16531 N 1559.4 1.51781 -0.424309 0
M  V30 16532 C 1560.33 2.30313 0.384462 0
M  V30 16533 C 1561.31 1.35166 1.03268 0
M  V30 16534 O 1562.49 1.64081 1.0388 0
M  V30 16535 C 1559.62 3.13566 1.49311 0
M  V30 16536 C 1558.58 4.16884 0.969096 0
M  V30 16537 C 1557.9 4.88576 2.17251 0
M  V30 16538 C 1559.2 5.22298 0.0125613 0
M  V30 16539 H 1560.9 2.98172 -0.270871 0
M  V30 16540 H 1558.44 1.43396 -0.131712 0
M  V30 16541 H 1560.39 3.67279 2.06602 0
M  V30 16542 H 1559.12 2.43504 2.17655 0
M  V30 16543 H 1557.78 3.64203 0.418494 0
M  V30 16544 H 1557.43 4.15029 2.84183 0
M  V30 16545 H 1557.13 5.58432 1.82833 0
M  V30 16546 H 1558.65 5.45107 2.75119 0
M  V30 16547 H 1560.06 5.71161 0.494744 0
M  V30 16548 H 1558.46 5.99606 -0.243544 0
M  V30 16549 H 1559.53 4.75935 -0.92813 0
M  V30 16550 N 1560.87 0.155222 1.56834 0
M  V30 16551 C 1562.12 -0.494557 1.96677 0
M  V30 16552 C 1562.45 -1.63973 1.04051 0
M  V30 16553 O 1561.73 -1.94316 0.0844791 0
M  V30 16554 C 1562.01 -0.992902 3.46141 0
M  V30 16555 C 1561.86 0.151335 4.49545 0
M  V30 16556 C 1563.18 -1.87197 3.98303 0
M  V30 16557 H 1560.3 -0.178298 0.715107 0
M  V30 16558 H 1562.94 0.23811 1.88502 0
M  V30 16559 H 1561.09 -1.61724 3.53239 0
M  V30 16560 H 1562.77 0.787945 4.54521 0
M  V30 16561 H 1561.01 0.809262 4.26185 0
M  V30 16562 H 1561.68 -0.23921 5.51481 0
M  V30 16563 H 1564.16 -1.34578 3.93736 0
M  V30 16564 H 1563.03 -2.18972 5.03331 0
M  V30 16565 H 1563.29 -2.81191 3.41151 0
M  V30 16566 N 1562.35 -1.57153 -0.118549 0
M  V30 16567 C 1563.77 -1.52458 -0.472096 0
M  V30 16568 C 1563.97 -0.868289 -1.81832 0
M  V30 16569 O 1563.02 -0.450817 -2.48443 0
M  V30 16570 C 1564.34 -2.9722 -0.456175 0
M  V30 16571 C 1565.88 -3.08312 -0.539694 0
M  V30 16572 C 1566.36 -4.54635 -0.554158 0
M  V30 16573 N 1567.85 -4.59091 -0.615584 0
M  V30 16574 C 1568.59 -5.69724 -0.64823 0
M  V30 16575 N 1568.08 -6.89852 -0.638494 0
M  V30 16576 N 1569.87 -5.57833 -0.691272 0
M  V30 16577 H 1562.03 -1.98202 0.76353 0
M  V30 16578 H 1564.29 -0.905179 0.281699 0
M  V30 16579 H 1563.99 -3.48608 0.465364 0
M  V30 16580 H 1563.87 -3.5468 -1.28381 0
M  V30 16581 H 1566.26 -2.56926 -1.45165 0
M  V30 16582 H 1566.34 -2.53845 0.315638 0
M  V30 16583 H 1565.98 -5.06667 0.353759 0
M  V30 16584 H 1565.91 -5.06914 -1.42638 0
M  V30 16585 H 1568.4 -3.72624 -0.629253 0
M  V30 16586 H 1568.71 -7.69925 -0.66604 0
M  V30 16587 H 1567.06 -6.92354 -0.605912 0
M  V30 16588 H 1570.25 -4.62893 -0.696244 0
M  V30 16589 H 1570.42 -6.44063 -0.713246 0
M  V30 16590 N 1563.83 0.388742 -1.5273 0
M  V30 16591 C 1564.74 1.49916 -1.8045 0
M  V30 16592 C 1565.76 1.59679 -0.691282 0
M  V30 16593 O 1566.93 1.7601 -0.978898 0
M  V30 16594 C 1564 2.85445 -1.96779 0
M  V30 16595 C 1563.06 2.85402 -3.20693 0
M  V30 16596 C 1562.29 4.14466 -3.36234 0
M  V30 16597 O 1562.51 5.09436 -2.56576 0
M  V30 16598 O 1561.45 4.2169 -4.29489 0
M  V30 16599 H 1565.27 1.29423 -2.74743 0
M  V30 16600 H 1562.86 0.576607 -1.37825 0
M  V30 16601 H 1564.74 3.65791 -2.09224 0
M  V30 16602 H 1563.42 3.05964 -1.05676 0
M  V30 16603 H 1562.32 2.03836 -3.1369 0
M  V30 16604 H 1563.66 2.69835 -4.11643 0
M  V30 16605 N 1565.31 1.43698 0.647203 0
M  V30 16606 C 1566.72 1.27231 0.963563 0
M  V30 16607 C 1566.92 0.196385 2.00541 0
M  V30 16608 O 1565.98 -0.423162 2.48929 0
M  V30 16609 C 1567.29 2.63863 1.44211 0
M  V30 16610 C 1568.84 2.71444 1.55844 0
M  V30 16611 C 1569.32 4.08508 2.07087 0
M  V30 16612 N 1570.81 4.10603 2.14381 0
M  V30 16613 C 1571.54 5.13496 2.55166 0
M  V30 16614 N 1571.04 6.26759 2.95203 0
M  V30 16615 N 1572.83 5.0085 2.55158 0
M  V30 16616 H 1564.98 2.12358 -0.0420956 0
M  V30 16617 H 1567.24 0.946989 0.0437628 0
M  V30 16618 H 1566.95 3.43589 0.75096 0
M  V30 16619 H 1566.82 2.89666 2.41605 0
M  V30 16620 H 1569.21 1.92046 2.24058 0
M  V30 16621 H 1569.29 2.49399 0.56866 0
M  V30 16622 H 1568.94 4.88375 1.39472 0
M  V30 16623 H 1568.87 4.2792 3.06907 0
M  V30 16624 H 1571.36 3.2885 1.86188 0
M  V30 16625 H 1571.67 7.01096 3.25091 0
M  V30 16626 H 1570.02 6.30222 2.92993 0
M  V30 16627 H 1573.21 4.11428 2.2326 0
M  V30 16628 H 1573.38 5.81165 2.86621 0
M  V30 16629 N 1566.79 -0.886131 1.30328 0
M  V30 16630 C 1567.72 -2.00793 1.19183 0
M  V30 16631 C 1568.7 -1.69899 0.08276 0
M  V30 16632 O 1569.88 -1.92389 0.264593 0
M  V30 16633 C 1567.01 -3.35922 0.881669 0
M  V30 16634 C 1565.97 -3.81072 1.94855 0
M  V30 16635 C 1565.29 -5.1348 1.4914 0
M  V30 16636 C 1566.59 -3.99923 3.35944 0
M  V30 16637 H 1568.29 -2.10375 2.13032 0
M  V30 16638 H 1565.83 -1.0108 1.02561 0
M  V30 16639 H 1567.79 -4.13922 0.790359 0
M  V30 16640 H 1566.51 -3.26469 -0.0925037 0
M  V30 16641 H 1565.17 -3.053 2.02947 0
M  V30 16642 H 1564.82 -5.00453 0.50553 0
M  V30 16643 H 1564.52 -5.44659 2.205 0
M  V30 16644 H 1566.04 -5.94005 1.41386 0
M  V30 16645 H 1567.45 -4.68364 3.30617 0
M  V30 16646 H 1565.85 -4.42477 4.05381 0
M  V30 16647 H 1566.92 -3.03816 3.77921 0
M  V30 16648 N 1568.26 -1.13026 -1.09832 0
M  V30 16649 C 1569.51 -0.900674 -1.82372 0
M  V30 16650 C 1569.87 0.56724 -1.83848 0
M  V30 16651 O 1569.16 1.41423 -1.29268 0
M  V30 16652 C 1569.35 -1.41718 -3.28102 0
M  V30 16653 C 1569.18 -2.93378 -3.40821 0
M  V30 16654 C 1567.95 -3.6168 -3.52868 0
M  V30 16655 C 1570.15 -3.91341 -3.33702 0
M  V30 16656 N 1568.13 -5.01393 -3.54228 0
M  V30 16657 C 1569.5 -5.17221 -3.41881 0
M  V30 16658 C 1571.56 -3.83665 -3.17341 0
M  V30 16659 C 1570.26 -6.36324 -3.35386 0
M  V30 16660 C 1572.29 -5.02298 -3.1217 0
M  V30 16661 C 1571.65 -6.27039 -3.20938 0
M  V30 16662 H 1567.75 -0.382934 -0.681825 0
M  V30 16663 H 1570.33 -1.43771 -1.31293 0
M  V30 16664 H 1568.5 -0.907117 -3.77659 0
M  V30 16665 H 1570.23 -1.12902 -3.88632 0
M  V30 16666 H 1566.99 -3.12188 -3.5614 0
M  V30 16667 H 1567.41 -5.74286 -3.58504 0
M  V30 16668 H 1572.06 -2.88113 -3.09436 0
M  V30 16669 H 1569.77 -7.32136 -3.42056 0
M  V30 16670 H 1573.36 -4.98095 -3.00653 0
M  V30 16671 H 1572.24 -7.17296 -3.16947 0
M  V30 16672 N 1569.74 1.27735 -0.923117 0
M  V30 16673 C 1570.99 1.94858 -0.56198 0
M  V30 16674 C 1571.32 1.72414 0.893698 0
M  V30 16675 O 1570.6 1.05054 1.63689 0
M  V30 16676 C 1570.88 3.49102 -0.883173 0
M  V30 16677 C 1570.73 3.80908 -2.39227 0
M  V30 16678 C 1572.05 4.38405 -0.385848 0
M  V30 16679 H 1569.17 0.707728 -0.205646 0
M  V30 16680 H 1571.81 1.50935 -1.15406 0
M  V30 16681 H 1569.96 3.86644 -0.379292 0
M  V30 16682 H 1571.63 3.53182 -2.96749 0
M  V30 16683 H 1569.88 3.2762 -2.84337 0
M  V30 16684 H 1570.55 4.88653 -2.56754 0
M  V30 16685 H 1573.02 4.07988 -0.817631 0
M  V30 16686 H 1571.9 5.45161 -0.63958 0
M  V30 16687 H 1572.16 4.36296 0.714009 0
M  V30 16688 N 1571.22 0.688118 1.41784 0
M  V30 16689 C 1572.17 0.00661035 2.32599 0
M  V30 16690 C 1573.16 -0.776475 1.50556 0
M  V30 16691 O 1574.37 -0.682937 1.66541 0
M  V30 16692 H 1570.74 -0.0166615 0.751815 0
M  V30 16693 H 1572.71 0.789718 2.8776 0
M  V30 16694 C 1571.46 -0.921251 3.35273 0
M  V30 16695 H 1570.79 -0.328099 3.98451 0
M  V30 16696 H 1572.23 -1.36655 4.01374 0
M  V30 16697 C 1570.69 -2.03393 2.68576 0
M  V30 16698 O 1571.22 -3.1219 2.52785 0
M  V30 16699 N 1569.42 -1.8095 2.27389 0
M  V30 16700 H 1568.97 -0.924692 2.40431 0
M  V30 16701 H 1568.93 -2.55584 1.83096 0
M  V30 16702 N 1572.7 -1.51554 0.432352 0
M  V30 16703 C 1573.92 -2.06947 -0.136995 0
M  V30 16704 C 1574.35 -1.29817 -1.36122 0
M  V30 16705 O 1573.71 -0.334733 -1.78183 0
M  V30 16706 C 1573.75 -3.57871 -0.442785 0
M  V30 16707 O 1572.86 -3.82966 -1.53007 0
M  V30 16708 H 1572.2 -0.663988 -0.00405152 0
M  V30 16709 H 1574.73 -1.95225 0.612249 0
M  V30 16710 H 1574.74 -4.02042 -0.694694 0
M  V30 16711 H 1573.41 -4.13436 0.452013 0
M  V30 16712 H 1571.99 -3.50661 -1.26851 0
M  V30 16713 N 1574.18 -0.163538 -1.56749 0
M  V30 16714 C 1575.45 0.529349 -1.88301 0
M  V30 16715 C 1575.83 1.81844 -1.07219 0
M  V30 16716 O 1575.18 2.27912 -0.16381 0
M  V30 16717 C 1575.39 0.778796 -3.402 0
M  V30 16718 C 1576.74 1.11225 -4.09773 0
M  V30 16719 O 1577.76 0.867598 -3.45472 0
M  V30 16720 O 1576.62 1.57344 -5.2336 0
M  V30 16721 H 1573.72 0.271928 -0.781015 0
M  V30 16722 H 1576.26 -0.20139 -1.68501 0
M  V30 16723 H 1575.03 -0.132839 -3.91074 0
M  V30 16724 H 1574.66 1.56313 -3.65584 0
M  V30 16725 N 1575.65 1.57214 0.110213 0
M  V30 16726 C 1576.9 1.85312 0.816439 0
M  V30 16727 C 1577.23 0.749901 1.79462 0
M  V30 16728 O 1576.48 -0.257948 1.93993 0
M  V30 16729 C 1576.78 3.19933 1.59304 0
M  V30 16730 C 1576.45 4.44477 0.75835 0
M  V30 16731 C 1575.11 4.78292 0.528201 0
M  V30 16732 C 1577.46 5.20899 0.177117 0
M  V30 16733 C 1574.79 5.85966 -0.293292 0
M  V30 16734 C 1577.14 6.29439 -0.631615 0
M  V30 16735 C 1575.81 6.6178 -0.871998 0
M  V30 16736 H 1575.08 0.678104 0.298756 0
M  V30 16737 H 1577.72 1.91339 0.0784721 0
M  V30 16738 H 1576.03 3.09522 2.40216 0
M  V30 16739 H 1577.73 3.38897 2.14359 0
M  V30 16740 H 1574.32 4.17988 0.94783 0
M  V30 16741 H 1578.5 4.95119 0.342121 0
M  V30 16742 H 1573.76 6.09444 -0.488665 0
M  V30 16743 H 1577.93 6.87834 -1.08894 0
M  V30 16744 H 1575.56 7.45045 -1.51037 0
M  V30 16745 N 1577.13 -0.380637 1.52934 0
M  V30 16746 C 1578.08 -1.48584 1.78957 0
M  V30 16747 C 1579.07 -1.56103 0.657901 0
M  V30 16748 O 1580.28 -1.59169 0.84055 0
M  V30 16749 H 1576.66 -0.494687 0.566382 0
M  V30 16750 H 1578.63 -1.23833 2.71492 0
M  V30 16751 C 1577.38 -2.85615 1.98291 0
M  V30 16752 H 1576.7 -2.80583 2.84804 0
M  V30 16753 H 1578.14 -3.62164 2.20485 0
M  V30 16754 C 1576.6 -3.28267 0.757764 0
M  V30 16755 O 1577.13 -4.01654 -0.0608007 0
M  V30 16756 N 1575.33 -2.84641 0.585486 0
M  V30 16757 H 1574.88 -2.25087 1.25274 0
M  V30 16758 H 1574.84 -3.13536 -0.232871 0
M  V30 16759 N 1578.61 -1.44039 -0.639573 0
M  V30 16760 C 1579.86 -1.46377 -1.39928 0
M  V30 16761 C 1580.19 -0.0931685 -1.94277 0
M  V30 16762 O 1579.44 0.903841 -1.73578 0
M  V30 16763 C 1579.74 -2.46459 -2.5883 0
M  V30 16764 C 1579.41 -3.91998 -2.2282 0
M  V30 16765 C 1578.07 -4.31633 -2.12712 0
M  V30 16766 C 1580.42 -4.83656 -1.94232 0
M  V30 16767 C 1577.75 -5.60863 -1.72191 0
M  V30 16768 C 1580.1 -6.13265 -1.55206 0
M  V30 16769 C 1578.76 -6.51863 -1.43633 0
M  V30 16770 H 1578.03 -0.535633 -0.512034 0
M  V30 16771 H 1580.68 -1.77202 -0.72607 0
M  V30 16772 H 1578.99 -2.09087 -3.31345 0
M  V30 16773 H 1580.68 -2.45518 -3.17052 0
M  V30 16774 H 1577.27 -3.60636 -2.31602 0
M  V30 16775 H 1581.46 -4.53796 -2.00955 0
M  V30 16776 H 1576.71 -5.89595 -1.61828 0
M  V30 16777 H 1580.89 -6.83752 -1.32121 0
M  V30 16778 H 1578.51 -7.51903 -1.12006 0
M  V30 16779 N 1580.09 0.879207 -1.30796 0
M  V30 16780 C 1581.37 1.61328 -1.10602 0
M  V30 16781 C 1581.75 2.08301 0.342621 0
M  V30 16782 O 1581.09 1.85436 1.33514 0
M  V30 16783 C 1581.3 2.77838 -2.11203 0
M  V30 16784 C 1582.65 3.48028 -2.43231 0
M  V30 16785 O 1583.68 2.88034 -2.09559 0
M  V30 16786 O 1582.53 4.56233 -3.00854 0
M  V30 16787 H 1579.63 0.709335 -0.425174 0
M  V30 16788 H 1582.17 0.925478 -1.42243 0
M  V30 16789 H 1580.95 2.40475 -3.08687 0
M  V30 16790 H 1580.57 3.54312 -1.80414 0
M  V30 16791 N 1581.57 1.13606 1.09231 0
M  V30 16792 C 1582.52 0.810747 2.18013 0
M  V30 16793 C 1583.51 -0.207782 1.68121 0
M  V30 16794 O 1584.72 -0.0647274 1.79884 0
M  V30 16795 H 1581.09 0.244415 0.711172 0
M  V30 16796 H 1583.06 1.73632 2.42682 0
M  V30 16797 C 1581.81 0.295302 3.46444 0
M  V30 16798 H 1581.13 1.07037 3.85205 0
M  V30 16799 H 1582.57 0.106127 4.23867 0
M  V30 16800 C 1581.03 -0.979398 3.2235 0
M  V30 16801 O 1581.56 -2.05483 3.45166 0
M  V30 16802 N 1579.77 -0.911282 2.75942 0
M  V30 16803 H 1579.32 -0.035979 2.57575 0
M  V30 16804 H 1579.27 -1.76476 2.60199 0
M  V30 16805 N 1583.05 -1.27244 0.929878 0
M  V30 16806 C 1584.29 -1.94557 0.572306 0
M  V30 16807 C 1584.62 -1.72886 -0.884542 0
M  V30 16808 O 1583.9 -1.0592 -1.63129 0
M  V30 16809 C 1584.18 -3.48629 0.901675 0
M  V30 16810 C 1584.04 -3.79633 2.41244 0
M  V30 16811 C 1585.35 -4.38195 0.409093 0
M  V30 16812 H 1582.47 -0.706627 0.209397 0
M  V30 16813 H 1585.12 -1.50321 1.16205 0
M  V30 16814 H 1583.27 -3.86437 0.399791 0
M  V30 16815 H 1584.94 -3.51604 2.98618 0
M  V30 16816 H 1583.18 -3.26108 2.8607 0
M  V30 16817 H 1583.85 -4.87284 2.59342 0
M  V30 16818 H 1586.33 -4.07548 0.839256 0
M  V30 16819 H 1585.2 -5.44814 0.668482 0
M  V30 16820 H 1585.46 -4.36669 -0.690861 0
M  V30 16821 N 1584.52 -0.695628 -1.41417 0
M  V30 16822 C 1585.45 -0.0447013 -2.33457 0
M  V30 16823 C 1586.43 0.767104 -1.51821 0
M  V30 16824 O 1587.62 0.720066 -1.80357 0
M  V30 16825 C 1584.75 0.892353 -3.3564 0
M  V30 16826 C 1583.7 0.187638 -4.27588 0
M  V30 16827 C 1583.03 1.23906 -5.20146 0
M  V30 16828 C 1584.33 -0.946093 -5.1366 0
M  V30 16829 H 1586.02 -0.81343 -2.88138 0
M  V30 16830 H 1583.57 -0.392614 -1.38544 0
M  V30 16831 H 1585.52 1.35696 -3.98954 0
M  V30 16832 H 1584.25 1.69275 -2.79309 0
M  V30 16833 H 1582.91 -0.256942 -3.65698 0
M  V30 16834 H 1582.55 2.03198 -4.6013 0
M  V30 16835 H 1582.25 0.772536 -5.82499 0
M  V30 16836 H 1583.78 1.70417 -5.86336 0
M  V30 16837 H 1585.19 -0.561764 -5.70541 0
M  V30 16838 H 1583.59 -1.33971 -5.84954 0
M  V30 16839 H 1584.66 -1.78573 -4.50821 0
M  V30 16840 N 1586 1.51322 -0.440383 0
M  V30 16841 C 1587.23 2.07017 0.126018 0
M  V30 16842 C 1587.65 1.30537 1.35431 0
M  V30 16843 O 1587.01 0.344178 1.78003 0
M  V30 16844 C 1587.06 3.58101 0.4238 0
M  V30 16845 O 1586.16 3.83772 1.50973 0
M  V30 16846 H 1585.5 0.664 0.000530178 0
M  V30 16847 H 1588.03 1.94897 -0.622594 0
M  V30 16848 H 1588.04 4.02405 0.673363 0
M  V30 16849 H 1586.72 4.13191 -0.473932 0
M  V30 16850 H 1585.29 3.51329 1.24989 0
M  V30 16851 N 1587.48 0.171848 1.5666 0
M  V30 16852 C 1588.44 -0.744316 2.16778 0
M  V30 16853 C 1589.44 -1.15769 1.11598 0
M  V30 16854 O 1590.63 -1.07456 1.37109 0
M  V30 16855 C 1587.76 -2.01319 2.75106 0
M  V30 16856 H 1588.96 -0.220952 2.99085 0
M  V30 16857 H 1586.51 -0.0777149 1.56107 0
M  V30 16858 H 1587.25 -2.57963 1.96534 0
M  V30 16859 H 1587.03 -1.72575 3.5208 0
M  V30 16860 H 1588.52 -2.667 3.21342 0
M  V30 16861 N 1588.96 -1.5727 -0.101874 0
M  V30 16862 C 1589.89 -1.96813 -1.15498 0
M  V30 16863 C 1590.87 -0.840319 -1.39203 0
M  V30 16864 O 1592.05 -1.10002 -1.53075 0
M  V30 16865 C 1589.18 -2.27908 -2.5055 0
M  V30 16866 C 1588.23 -3.50388 -2.43168 0
M  V30 16867 S 1589.06 -5.02354 -1.85475 0
M  V30 16868 C 1590.21 -5.36619 -3.22166 0
M  V30 16869 H 1590.45 -2.8583 -0.81785 0
M  V30 16870 H 1587.98 -1.5127 -0.309296 0
M  V30 16871 H 1589.94 -2.465 -3.2825 0
M  V30 16872 H 1588.6 -1.39475 -2.81435 0
M  V30 16873 H 1587.79 -3.69565 -3.42692 0
M  V30 16874 H 1587.39 -3.31271 -1.73596 0
M  V30 16875 H 1589.69 -5.32849 -4.18423 0
M  V30 16876 H 1590.63 -6.37703 -3.07799 0
M  V30 16877 H 1591.04 -4.64082 -3.21385 0
M  V30 16878 N 1590.44 0.372521 -1.53134 0
M  V30 16879 C 1591.37 1.47817 -1.73855 0
M  V30 16880 C 1592.35 1.51645 -0.586723 0
M  V30 16881 O 1593.53 1.69803 -0.818496 0
M  V30 16882 C 1590.66 2.86213 -1.81107 0
M  V30 16883 C 1589.7 3.00139 -3.03016 0
M  V30 16884 S 1590.54 2.69617 -4.62674 0
M  V30 16885 C 1591.69 4.10176 -4.72765 0
M  V30 16886 H 1591.93 1.30019 -2.67362 0
M  V30 16887 H 1589.46 0.566429 -1.43635 0
M  V30 16888 H 1591.42 3.65958 -1.85971 0
M  V30 16889 H 1590.08 3.01326 -0.886632 0
M  V30 16890 H 1589.27 4.0148 -3.0468 0
M  V30 16891 H 1588.87 2.28309 -2.96228 0
M  V30 16892 H 1591.16 5.04328 -4.52393 0
M  V30 16893 H 1592.11 4.1352 -5.7481 0
M  V30 16894 H 1592.52 3.96853 -4.01458 0
M  V30 16895 N 1591.91 1.44376 0.631925 0
M  V30 16896 C 1592.88 1.50825 1.72582 0
M  V30 16897 C 1593.88 0.390379 1.55989 0
M  V30 16898 O 1595.07 0.65297 1.61499 0
M  V30 16899 C 1592.2 1.38141 3.11657 0
M  V30 16900 H 1593.39 2.48265 1.68239 0
M  V30 16901 H 1590.94 1.31456 0.845514 0
M  V30 16902 H 1591.68 0.417905 3.21596 0
M  V30 16903 H 1591.46 2.19198 3.25107 0
M  V30 16904 H 1592.95 1.45633 3.91383 0
M  V30 16905 N 1593.39 -0.872258 1.31261 0
M  V30 16906 C 1594.32 -1.99517 1.21306 0
M  V30 16907 C 1595.3 -1.69801 0.100775 0
M  V30 16908 O 1596.49 -1.92098 0.284984 0
M  V30 16909 C 1593.62 -3.34968 0.917249 0
M  V30 16910 C 1592.57 -3.78984 1.98885 0
M  V30 16911 C 1591.9 -5.11869 1.54578 0
M  V30 16912 C 1593.2 -3.96338 3.40167 0
M  V30 16913 H 1594.89 -2.08104 2.15251 0
M  V30 16914 H 1592.44 -0.999865 1.03628 0
M  V30 16915 H 1594.39 -4.1306 0.834217 0
M  V30 16916 H 1593.11 -3.26549 -0.0578721 0
M  V30 16917 H 1591.77 -3.0313 2.06174 0
M  V30 16918 H 1591.42 -4.99889 0.558581 0
M  V30 16919 H 1591.12 -5.4229 2.26265 0
M  V30 16920 H 1592.65 -5.92472 1.47678 0
M  V30 16921 H 1594.06 -4.64831 3.35566 0
M  V30 16922 H 1592.46 -4.38153 4.10051 0
M  V30 16923 H 1593.53 -2.9979 3.81122 0
M  V30 16924 N 1594.87 -1.14184 -1.08627 0
M  V30 16925 C 1596.12 -0.908664 -1.80968 0
M  V30 16926 C 1596.44 0.564864 -1.86117 0
M  V30 16927 O 1595.7 1.4344 -1.33129 0
M  V30 16928 C 1596 -1.4519 -3.2658 0
M  V30 16929 C 1595.66 -2.94368 -3.41552 0
M  V30 16930 C 1594.33 -3.35096 -3.45346 0
M  V30 16931 C 1596.68 -3.90304 -3.45416 0
M  V30 16932 C 1594.01 -4.70428 -3.50591 0
M  V30 16933 C 1596.36 -5.25491 -3.52196 0
M  V30 16934 C 1595.02 -5.65734 -3.54262 0
M  V30 16935 H 1594.29 -0.332504 -0.66221 0
M  V30 16936 H 1596.94 -1.42514 -1.27914 0
M  V30 16937 H 1595.24 -0.856308 -3.82328 0
M  V30 16938 H 1596.94 -1.24746 -3.81103 0
M  V30 16939 H 1593.53 -2.61879 -3.3929 0
M  V30 16940 H 1597.72 -3.59921 -3.41718 0
M  V30 16941 H 1592.97 -5.00971 -3.50482 0
M  V30 16942 H 1597.15 -5.99637 -3.54131 0
M  V30 16943 H 1594.77 -6.70585 -3.58079 0
M  V30 16944 N 1596.35 1.26749 -0.936613 0
M  V30 16945 C 1597.58 1.98059 -0.598357 0
M  V30 16946 C 1597.99 1.6979 0.825646 0
M  V30 16947 O 1597.35 0.963514 1.54992 0
M  V30 16948 C 1597.4 3.51948 -0.825519 0
M  V30 16949 O 1597.12 3.79232 -2.19351 0
M  V30 16950 C 1598.62 4.40503 -0.497186 0
M  V30 16951 H 1595.84 0.631826 -0.225914 0
M  V30 16952 H 1598.39 1.61379 -1.25607 0
M  V30 16953 H 1596.54 3.86806 -0.214479 0
M  V30 16954 H 1596.95 4.73782 -2.25014 0
M  V30 16955 H 1598.43 5.47457 -0.706779 0
M  V30 16956 H 1598.91 4.35516 0.567645 0
M  V30 16957 H 1599.51 4.11181 -1.08675 0
M  V30 16958 N 1597.83 0.703118 1.41046 0
M  V30 16959 C 1599.07 0.237638 2.01403 0
M  V30 16960 C 1599.41 -1.16217 1.55587 0
M  V30 16961 O 1598.68 -1.78593 0.770377 0
M  V30 16962 C 1598.96 0.303738 3.58817 0
M  V30 16963 C 1598.82 1.74103 4.14739 0
M  V30 16964 C 1600.14 -0.332186 4.38845 0
M  V30 16965 H 1597.25 0.0878243 0.731749 0
M  V30 16966 H 1599.9 0.893264 1.67693 0
M  V30 16967 H 1598.05 -0.254485 3.87666 0
M  V30 16968 H 1599.72 2.35368 3.96736 0
M  V30 16969 H 1597.96 2.27277 3.69496 0
M  V30 16970 H 1598.63 1.73876 5.239 0
M  V30 16971 H 1601.11 0.143312 4.15853 0
M  V30 16972 H 1599.98 -0.255429 5.48305 0
M  V30 16973 H 1600.25 -1.41397 4.18878 0
M  V30 16974 N 1599.3 -1.51086 0.448402 0
M  V30 16975 C 1600.53 -2.07081 -0.115038 0
M  V30 16976 C 1600.95 -1.31253 -1.34737 0
M  V30 16977 O 1600.31 -0.353613 -1.77818 0
M  V30 16978 C 1600.36 -3.58321 -0.404803 0
M  V30 16979 O 1599.46 -3.84567 -1.48936 0
M  V30 16980 H 1598.81 -0.663993 0.00299118 0
M  V30 16981 H 1601.34 -1.94564 0.632921 0
M  V30 16982 H 1601.35 -4.02756 -0.652013 0
M  V30 16983 H 1600.02 -4.12934 0.495838 0
M  V30 16984 H 1598.6 -3.51987 -1.23124 0
M  V30 16985 N 1600.78 -0.180154 -1.56567 0
M  V30 16986 C 1602.01 0.46854 -2.01525 0
M  V30 16987 C 1602.43 1.56211 -1.06036 0
M  V30 16988 O 1601.78 1.82392 -0.06269 0
M  V30 16989 C 1601.83 1.0387 -3.46256 0
M  V30 16990 O 1601.55 -0.0112203 -4.38099 0
M  V30 16991 C 1603.06 1.76475 -4.06659 0
M  V30 16992 H 1600.28 0.119098 -0.660346 0
M  V30 16993 H 1602.82 -0.284477 -2.02512 0
M  V30 16994 H 1600.97 1.74217 -3.46016 0
M  V30 16995 H 1601.39 0.41099 -5.22887 0
M  V30 16996 H 1602.86 2.11618 -5.09825 0
M  V30 16997 H 1603.34 2.66301 -3.49257 0
M  V30 16998 H 1603.95 1.10749 -4.10627 0
M  V30 16999 N 1602.26 1.57322 0.0935319 0
M  V30 17000 C 1603.51 1.86167 0.796739 0
M  V30 17001 C 1603.84 0.768893 1.78657 0
M  V30 17002 O 1603.09 -0.237358 1.94255 0
M  V30 17003 C 1603.39 3.21605 1.55901 0
M  V30 17004 C 1603.06 4.45256 0.711165 0
M  V30 17005 C 1601.72 4.78826 0.477442 0
M  V30 17006 C 1604.07 5.21058 0.121859 0
M  V30 17007 C 1601.4 5.85622 -0.355425 0
M  V30 17008 C 1603.75 6.28734 -0.69834 0
M  V30 17009 C 1602.41 6.60818 -0.94214 0
M  V30 17010 H 1601.68 0.681235 0.291547 0
M  V30 17011 H 1604.33 1.91412 0.0581736 0
M  V30 17012 H 1602.64 3.12052 2.36919 0
M  V30 17013 H 1604.33 3.41151 2.10753 0
M  V30 17014 H 1600.92 4.1897 0.903444 0
M  V30 17015 H 1605.11 4.95454 0.289588 0
M  V30 17016 H 1600.36 6.08891 -0.553277 0
M  V30 17017 H 1604.54 6.8664 -1.16183 0
M  V30 17018 H 1602.16 7.43401 -1.5893 0
M  V30 17019 N 1603.74 -0.364395 1.53329 0
M  V30 17020 C 1604.65 -1.47027 1.82812 0
M  V30 17021 C 1605.66 -1.58559 0.716598 0
M  V30 17022 O 1606.84 -1.7443 1.00678 0
M  V30 17023 C 1603.91 -2.82278 2.01295 0
M  V30 17024 C 1602.97 -2.80264 3.25193 0
M  V30 17025 C 1602.2 -4.09065 3.42785 0
M  V30 17026 O 1602.42 -5.0529 2.64648 0
M  V30 17027 O 1601.36 -4.14804 4.36144 0
M  V30 17028 H 1605.18 -1.25035 2.76767 0
M  V30 17029 H 1602.77 -0.554608 1.38724 0
M  V30 17030 H 1604.65 -3.62416 2.15017 0
M  V30 17031 H 1603.32 -3.04244 1.10531 0
M  V30 17032 H 1602.23 -1.9882 3.16893 0
M  V30 17033 H 1603.56 -2.63252 4.15884 0
M  V30 17034 N 1605.22 -1.44709 -0.62426 0
M  V30 17035 C 1606.46 -1.47561 -1.38094 0
M  V30 17036 C 1606.79 -0.112115 -1.94677 0
M  V30 17037 O 1606.06 0.856458 -1.76186 0
M  V30 17038 H 1604.64 -0.543368 -0.512601 0
M  V30 17039 H 1607.3 -1.8054 -0.734258 0
M  V30 17040 H 1606.39 -2.20496 -2.2088 0
M  V30 17041 N 1606.69 0.865285 -1.31722 0
M  V30 17042 C 1607.94 1.62098 -1.22865 0
M  V30 17043 C 1608.3 1.91249 0.210099 0
M  V30 17044 O 1607.59 1.53634 1.14487 0
M  V30 17045 C 1607.78 2.95462 -2.0109 0
M  V30 17046 C 1607.61 2.79333 -3.52425 0
M  V30 17047 C 1606.38 2.78273 -4.21773 0
M  V30 17048 C 1608.58 2.53854 -4.47284 0
M  V30 17049 N 1606.56 2.53243 -5.59233 0
M  V30 17050 C 1607.93 2.38131 -5.72445 0
M  V30 17051 C 1609.99 2.39236 -4.36658 0
M  V30 17052 C 1608.69 2.09276 -6.88183 0
M  V30 17053 C 1610.72 2.1177 -5.52184 0
M  V30 17054 C 1610.08 1.96839 -6.76338 0
M  V30 17055 H 1606.18 0.597308 -0.504724 0
M  V30 17056 H 1608.76 1.01803 -1.65965 0
M  V30 17057 H 1606.93 3.53754 -1.60352 0
M  V30 17058 H 1608.66 3.60343 -1.84214 0
M  V30 17059 H 1605.42 2.90826 -3.73788 0
M  V30 17060 H 1605.84 2.43686 -6.31622 0
M  V30 17061 H 1610.49 2.49505 -3.41331 0
M  V30 17062 H 1608.2 1.97745 -7.83532 0
M  V30 17063 H 1611.79 2.01253 -5.45883 0
M  V30 17064 H 1610.67 1.75888 -7.64221 0
M  V30 17065 N 1608.17 1.14759 1.0802 0
M  V30 17066 C 1609.58 0.928711 1.61963 0
M  V30 17067 C 1609.93 -0.531568 1.88862 0
M  V30 17068 O 1609.06 -1.40129 1.64902 0
M  V30 17069 C 1609.65 1.67943 2.94246 0
M  V30 17070 C 1608.21 1.50602 3.44958 0
M  V30 17071 C 1607.36 1.69938 2.19126 0
M  V30 17072 H 1610.31 1.29882 0.911945 0
M  V30 17073 H 1610.33 1.14493 3.62866 0
M  V30 17074 H 1609.84 2.7422 2.74636 0
M  V30 17075 H 1607.95 0.466901 3.69663 0
M  V30 17076 H 1608.06 2.27857 4.21447 0
M  V30 17077 H 1606.42 1.12534 2.28491 0
M  V30 17078 H 1607.21 2.77566 2.0202 0
M  V30 17079 N 1609.65 -1.26251 0.943322 0
M  V30 17080 C 1610.61 -2.24554 0.459158 0
M  V30 17081 C 1611.61 -1.54918 -0.430926 0
M  V30 17082 O 1612.8 -1.72678 -0.229803 0
M  V30 17083 C 1609.94 -3.39221 -0.337973 0
M  V30 17084 H 1611.13 -2.689 1.32789 0
M  V30 17085 H 1608.68 -1.38442 0.725495 0
M  V30 17086 H 1609.42 -3.00279 -1.22486 0
M  V30 17087 H 1609.2 -3.90947 0.300428 0
M  V30 17088 H 1610.69 -4.12246 -0.666568 0
M  V30 17089 N 1611.13 -0.710588 -1.40671 0
M  V30 17090 C 1612.06 -0.0694601 -2.33397 0
M  V30 17091 C 1613.04 0.750959 -1.52626 0
M  V30 17092 O 1614.23 0.700896 -1.81111 0
M  V30 17093 C 1611.36 0.856704 -3.36568 0
M  V30 17094 C 1610.31 0.142276 -4.27763 0
M  V30 17095 C 1609.64 1.18382 -5.21431 0
M  V30 17096 C 1610.94 -1.00052 -5.12627 0
M  V30 17097 H 1612.63 -0.843945 -2.87259 0
M  V30 17098 H 1610.18 -0.407287 -1.3812 0
M  V30 17099 H 1612.13 1.31457 -4.00371 0
M  V30 17100 H 1610.85 1.66303 -2.81089 0
M  V30 17101 H 1609.51 -0.295714 -3.65405 0
M  V30 17102 H 1609.16 1.98306 -4.62259 0
M  V30 17103 H 1608.86 0.71071 -5.83286 0
M  V30 17104 H 1610.38 1.64189 -5.88111 0
M  V30 17105 H 1611.8 -0.622246 -5.69913 0
M  V30 17106 H 1610.19 -1.40168 -5.83501 0
M  V30 17107 H 1611.26 -1.83345 -4.48902 0
M  V30 17108 N 1612.61 1.50847 -0.456408 0
M  V30 17109 C 1613.54 2.31077 0.335523 0
M  V30 17110 C 1614.52 1.37326 1.00377 0
M  V30 17111 O 1615.7 1.66247 1.00376 0
M  V30 17112 C 1612.83 3.16662 1.42627 0
M  V30 17113 C 1611.79 4.18846 0.88045 0
M  V30 17114 C 1611.11 4.93074 2.06838 0
M  V30 17115 C 1612.41 5.22208 -0.0982288 0
M  V30 17116 H 1614.11 2.97531 -0.334056 0
M  V30 17117 H 1611.65 1.43085 -0.162099 0
M  V30 17118 H 1613.61 3.71578 1.98765 0
M  V30 17119 H 1612.33 2.48066 2.12441 0
M  V30 17120 H 1610.99 3.65009 0.341147 0
M  V30 17121 H 1610.64 4.20963 2.75316 0
M  V30 17122 H 1610.34 5.62184 1.70947 0
M  V30 17123 H 1611.86 5.5082 2.63494 0
M  V30 17124 H 1613.28 5.72082 0.373481 0
M  V30 17125 H 1611.67 5.98954 -0.370674 0
M  V30 17126 H 1612.74 4.73859 -1.02887 0
M  V30 17127 N 1614.09 0.188454 1.56469 0
M  V30 17128 C 1615.32 -0.457182 2.01478 0
M  V30 17129 C 1615.72 -1.5619 1.06777 0
M  V30 17130 O 1615.07 -1.8359 0.063659 0
M  V30 17131 C 1615.13 -1.08002 3.42893 0
M  V30 17132 C 1614.79 -0.114858 4.56856 0
M  V30 17133 C 1615.79 0.673269 5.15522 0
M  V30 17134 C 1613.47 -0.00570411 5.023 0
M  V30 17135 C 1615.47 1.55758 6.18076 0
M  V30 17136 C 1613.16 0.882173 6.04699 0
M  V30 17137 C 1614.15 1.66239 6.6246 0
M  V30 17138 O 1613.84 2.5354 7.62871 0
M  V30 17139 H 1613.57 -0.119784 0.665303 0
M  V30 17140 H 1616.13 0.292446 2.03307 0
M  V30 17141 H 1614.36 -1.87811 3.3803 0
M  V30 17142 H 1616.05 -1.62962 3.7175 0
M  V30 17143 H 1616.81 0.599207 4.81284 0
M  V30 17144 H 1612.69 -0.602804 4.57042 0
M  V30 17145 H 1616.24 2.16701 6.63088 0
M  V30 17146 H 1612.13 0.957375 6.38361 0
M  V30 17147 H 1612.9 2.47245 7.80264 0
M  V30 17148 N 1615.56 -1.5737 -0.0851874 0
M  V30 17149 C 1616.51 -2.02758 -1.10262 0
M  V30 17150 C 1617.48 -0.905702 -1.39235 0
M  V30 17151 O 1618.67 -1.17241 -1.50529 0
M  V30 17152 C 1615.81 -2.46528 -2.41492 0
M  V30 17153 C 1614.92 -3.72278 -2.19165 0
M  V30 17154 C 1614.05 -4.04885 -3.43863 0
M  V30 17155 C 1613.09 -5.23715 -3.16842 0
M  V30 17156 N 1612.23 -5.52026 -4.33833 0
M  V30 17157 H 1617.07 -2.89453 -0.708583 0
M  V30 17158 H 1614.61 -1.43156 -0.338332 0
M  V30 17159 H 1616.56 -2.69952 -3.18091 0
M  V30 17160 H 1615.19 -1.62829 -2.78723 0
M  V30 17161 H 1614.25 -3.56272 -1.33321 0
M  V30 17162 H 1615.56 -4.5902 -1.95197 0
M  V30 17163 H 1614.71 -4.29138 -4.28865 0
M  V30 17164 H 1613.45 -3.16683 -3.70895 0
M  V30 17165 H 1612.46 -4.99272 -2.30234 0
M  V30 17166 H 1613.68 -6.13523 -2.91146 0
M  V30 17167 H 1611.63 -4.66784 -4.60922 0
M  V30 17168 H 1611.54 -6.3316 -4.13091 0
M  V30 17169 H 1612.81 -5.80822 -5.19871 0
M  V30 17170 N 1617.04 0.356258 -1.53521 0
M  V30 17171 C 1618 1.41975 -1.79933 0
M  V30 17172 C 1619 1.46177 -0.669997 0
M  V30 17173 O 1620.19 1.46774 -0.938239 0
M  V30 17174 C 1617.33 2.81015 -1.92985 0
M  V30 17175 H 1618.52 1.19824 -2.74922 0
M  V30 17176 H 1616.07 0.589928 -1.4474 0
M  V30 17177 H 1616.81 3.08466 -1.00095 0
M  V30 17178 H 1616.59 2.79363 -2.75135 0
M  V30 17179 H 1618.08 3.58013 -2.1498 0
M  V30 17180 N 1618.52 1.45038 0.616577 0
M  V30 17181 C 1619.77 1.47861 1.37186 0
M  V30 17182 C 1620.08 0.120862 1.95226 0
M  V30 17183 O 1621.29 0.0266872 2.71487 0
M  V30 17184 C 1619.74 2.6038 2.48455 0
M  V30 17185 C 1619.35 4.02428 1.96866 0
M  V30 17186 C 1621.1 2.7244 3.25541 0
M  V30 17187 C 1619 5.06345 3.05563 0
M  V30 17188 H 1617.93 0.550166 0.51559 0
M  V30 17189 H 1620.58 1.71151 0.661796 0
M  V30 17190 H 1618.97 2.30357 3.22105 0
M  V30 17191 H 1620.14 4.42087 1.29985 0
M  V30 17192 H 1618.45 3.94739 1.32552 0
M  V30 17193 H 1621.05 3.47248 4.06599 0
M  V30 17194 H 1621.39 1.7876 3.75966 0
M  V30 17195 H 1621.93 3.01944 2.58988 0
M  V30 17196 H 1618.67 6.01703 2.60065 0
M  V30 17197 H 1618.19 4.71264 3.7104 0
M  V30 17198 H 1619.87 5.30695 3.70097 0
M  V30 17199 N 1620 -0.858287 1.32179 0
M  V30 17200 C 1621.27 -1.59548 1.13154 0
M  V30 17201 C 1621.65 -2.0882 -0.309439 0
M  V30 17202 O 1621 -1.87536 -1.30547 0
M  V30 17203 C 1621.21 -2.74443 2.15597 0
M  V30 17204 C 1622.56 -3.44115 2.48737 0
M  V30 17205 O 1623.58 -2.84664 2.14114 0
M  V30 17206 O 1622.44 -4.51389 3.08074 0
M  V30 17207 H 1619.54 -0.702481 0.436405 0
M  V30 17208 H 1622.08 -0.902731 1.43697 0
M  V30 17209 H 1620.86 -2.35533 3.12473 0
M  V30 17210 H 1620.48 -3.51397 1.86028 0
M  V30 17211 N 1621.48 -1.1533 -1.07409 0
M  V30 17212 C 1622.44 -0.852155 -2.1277 0
M  V30 17213 C 1623.44 0.14782 -1.60119 0
M  V30 17214 O 1624.63 -0.0817436 -1.74008 0
M  V30 17215 C 1621.76 -0.272233 -3.39811 0
M  V30 17216 H 1622.95 -1.78604 -2.40917 0
M  V30 17217 H 1620.51 -0.960698 -1.23289 0
M  V30 17218 H 1621.24 0.669873 -3.17306 0
M  V30 17219 H 1621.03 -0.992629 -3.79327 0
M  V30 17220 H 1622.52 -0.0790986 -4.17525 0
M  V30 17221 N 1622.95 1.25748 -0.950004 0
M  V30 17222 C 1624.18 1.97127 -0.618432 0
M  V30 17223 C 1624.59 1.70855 0.81272 0
M  V30 17224 O 1623.93 0.978581 1.55465 0
M  V30 17225 C 1624 3.50678 -0.791546 0
M  V30 17226 C 1623.66 4.00617 -2.19899 0
M  V30 17227 C 1624.66 4.11672 -3.17525 0
M  V30 17228 C 1622.34 4.34401 -2.52193 0
M  V30 17229 C 1624.34 4.55818 -4.45543 0
M  V30 17230 C 1622.02 4.78234 -3.80441 0
M  V30 17231 C 1623.02 4.88905 -4.76929 0
M  V30 17232 O 1622.71 5.31768 -6.02891 0
M  V30 17233 H 1622.44 0.635248 -0.231163 0
M  V30 17234 H 1625 1.60997 -1.2755 0
M  V30 17235 H 1623.23 3.86623 -0.0773298 0
M  V30 17236 H 1624.91 4.03265 -0.461719 0
M  V30 17237 H 1625.68 3.85807 -2.93901 0
M  V30 17238 H 1621.56 4.25324 -1.77821 0
M  V30 17239 H 1625.1 4.64062 -5.20857 0
M  V30 17240 H 1621 5.03543 -4.03874 0
M  V30 17241 H 1621.77 5.49966 -6.06201 0
M  V30 17242 N 1624.43 0.718038 1.40292 0
M  V30 17243 C 1625.39 0.0757483 2.29075 0
M  V30 17244 C 1626.39 -0.684831 1.45488 0
M  V30 17245 O 1627.58 -0.516369 1.66371 0
M  V30 17246 C 1624.72 -0.902534 3.28736 0
M  V30 17247 H 1625.91 0.857729 2.87373 0
M  V30 17248 H 1623.46 0.482839 1.48655 0
M  V30 17249 H 1624.2 -1.71148 2.75461 0
M  V30 17250 H 1623.98 -0.360009 3.90444 0
M  V30 17251 H 1625.47 -1.34903 3.9521 0
M  V30 17252 N 1625.91 -1.50602 0.464402 0
M  V30 17253 C 1626.82 -2.32142 -0.338721 0
M  V30 17254 C 1627.84 -1.4223 -1.00233 0
M  V30 17255 O 1629.01 -1.75288 -0.99177 0
M  V30 17256 C 1626.08 -3.16725 -1.41019 0
M  V30 17257 C 1625.14 -4.22449 -0.76388 0
M  V30 17258 C 1624.37 -5.0299 -1.78429 0
M  V30 17259 O 1624.59 -4.84516 -3.00999 0
M  V30 17260 O 1623.53 -5.86338 -1.35982 0
M  V30 17261 H 1627.35 -3.01927 0.327695 0
M  V30 17262 H 1624.94 -1.47675 0.226379 0
M  V30 17263 H 1626.82 -3.69228 -2.03097 0
M  V30 17264 H 1625.5 -2.49675 -2.06019 0
M  V30 17265 H 1624.4 -3.73955 -0.104318 0
M  V30 17266 H 1625.74 -4.9195 -0.156929 0
M  V30 17267 N 1627.39 -0.19675 -1.56367 0
M  V30 17268 C 1628.67 0.489288 -1.89381 0
M  V30 17269 C 1629.05 1.79529 -1.11052 0
M  V30 17270 O 1628.39 2.27513 -0.212117 0
M  V30 17271 C 1628.6 0.706459 -3.41775 0
M  V30 17272 C 1629.95 1.02508 -4.1204 0
M  V30 17273 O 1630.98 0.794123 -3.47235 0
M  V30 17274 O 1629.83 1.46207 -5.26579 0
M  V30 17275 H 1626.93 0.2553 -0.786607 0
M  V30 17276 H 1629.47 -0.237086 -1.68036 0
M  V30 17277 H 1628.25 -0.215762 -3.90705 0
M  V30 17278 H 1627.87 1.48523 -3.68818 0
M  V30 17279 N 1628.87 1.57413 0.0768405 0
M  V30 17280 C 1629.82 1.99785 1.09864 0
M  V30 17281 C 1630.8 0.879104 1.34761 0
M  V30 17282 O 1631.99 1.143 1.35146 0
M  V30 17283 C 1629.12 2.44111 2.41381 0
M  V30 17284 C 1628.21 3.62709 2.1978 0
M  V30 17285 N 1628.6 4.77051 1.68094 0
M  V30 17286 C 1626.9 3.6916 2.50273 0
M  V30 17287 C 1627.6 5.58921 1.6119 0
M  V30 17288 N 1626.57 5.0262 2.07061 0
M  V30 17289 H 1630.38 2.85631 0.692257 0
M  V30 17290 H 1627.89 1.59898 0.283993 0
M  V30 17291 H 1629.89 2.72703 3.15339 0
M  V30 17292 H 1628.55 1.59649 2.82741 0
M  V30 17293 H 1629.56 4.99443 1.3703 0
M  V30 17294 H 1626.23 2.95401 2.95033 0
M  V30 17295 H 1627.62 6.60708 1.22125 0
M  V30 17296 N 1630.34 -0.348112 1.53707 0
M  V30 17297 C 1631.59 -1.08671 1.70396 0
M  V30 17298 C 1631.91 -1.89314 0.467453 0
M  V30 17299 O 1631.18 -1.88911 -0.518605 0
M  V30 17300 H 1629.76 -0.404186 0.628206 0
M  V30 17301 H 1632.43 -0.390491 1.90948 0
M  V30 17302 H 1631.52 -1.76668 2.57284 0
M  V30 17303 N 1631.82 -1.45363 -0.608876 0
M  V30 17304 C 1633.23 -1.43794 -1.19081 0
M  V30 17305 C 1633.58 -0.164874 -1.95506 0
M  V30 17306 O 1632.71 0.733623 -2.03585 0
M  V30 17307 C 1633.3 -2.60506 -2.16615 0
M  V30 17308 C 1631.86 -2.62061 -2.70187 0
M  V30 17309 C 1631.01 -2.36018 -1.4557 0
M  V30 17310 H 1633.96 -1.53622 -0.39826 0
M  V30 17311 H 1633.98 -2.34531 -2.99625 0
M  V30 17312 H 1633.49 -3.53147 -1.60963 0
M  V30 17313 H 1631.6 -1.73423 -3.2978 0
M  V30 17314 H 1631.71 -3.61242 -3.14708 0
M  V30 17315 H 1630.07 -1.8555 -1.74481 0
M  V30 17316 H 1630.86 -3.30802 -0.917884 0
M  V30 17317 N 1633.3 0.851265 -1.32632 0
M  V30 17318 C 1634.55 1.60057 -1.22738 0
M  V30 17319 C 1634.86 1.94485 0.208525 0
M  V30 17320 O 1636.07 2.68083 0.429361 0
M  V30 17321 C 1634.52 2.88634 -2.14985 0
M  V30 17322 C 1634.13 2.61617 -3.63676 0
M  V30 17323 C 1635.88 3.6665 -2.13935 0
M  V30 17324 C 1633.78 3.86215 -4.47875 0
M  V30 17325 H 1632.71 0.600617 -0.455824 0
M  V30 17326 H 1635.36 0.939671 -1.57615 0
M  V30 17327 H 1633.75 3.56199 -1.73027 0
M  V30 17328 H 1634.92 2.02342 -4.13998 0
M  V30 17329 H 1633.24 1.96926 -3.66891 0
M  V30 17330 H 1635.83 4.59114 -2.74078 0
M  V30 17331 H 1636.18 4.00636 -1.13121 0
M  V30 17332 H 1636.71 3.05993 -2.54192 0
M  V30 17333 H 1633.45 3.57367 -5.49517 0
M  V30 17334 H 1632.97 4.44874 -4.02302 0
M  V30 17335 H 1634.65 4.5392 -4.61049 0
M  V30 17336 N 1634.78 1.15898 1.06796 0
M  V30 17337 C 1636.01 0.959978 1.82943 0
M  V30 17338 C 1636.42 -0.495084 1.82608 0
M  V30 17339 O 1635.76 -1.35528 1.24008 0
M  V30 17340 C 1635.82 1.40408 3.30947 0
M  V30 17341 C 1635.49 2.87801 3.54993 0
M  V30 17342 C 1636.48 3.85834 3.48465 0
M  V30 17343 C 1634.17 3.25601 3.82478 0
M  V30 17344 C 1636.16 5.19672 3.6908 0
M  V30 17345 C 1633.85 4.59609 4.02744 0
M  V30 17346 C 1634.85 5.56454 3.96041 0
M  V30 17347 O 1634.53 6.8804 4.1576 0
M  V30 17348 H 1634.27 0.340717 0.583856 0
M  V30 17349 H 1636.82 1.54211 1.35677 0
M  V30 17350 H 1635.05 0.765395 3.7905 0
M  V30 17351 H 1636.74 1.1733 3.88572 0
M  V30 17352 H 1637.51 3.57977 3.27227 0
M  V30 17353 H 1633.38 2.50803 3.86806 0
M  V30 17354 H 1636.93 5.95249 3.63764 0
M  V30 17355 H 1632.83 4.8718 4.23469 0
M  V30 17356 H 1633.59 6.94541 4.33076 0
M  V30 17357 N 1636.26 -1.25243 0.956659 0
M  V30 17358 C 1637.2 -2.2781 0.46963 0
M  V30 17359 C 1638.2 -1.63003 -0.461138 0
M  V30 17360 O 1639.4 -1.76805 -0.337644 0
M  V30 17361 H 1635.78 -0.740078 0.133374 0
M  V30 17362 H 1637.75 -2.66273 1.34689 0
M  V30 17363 C 1636.5 -3.46904 -0.235206 0
M  V30 17364 H 1635.82 -3.97006 0.471869 0
M  V30 17365 H 1637.26 -4.20548 -0.539969 0
M  V30 17366 C 1635.72 -3.03697 -1.45841 0
M  V30 17367 O 1636.25 -3.09887 -2.55603 0
M  V30 17368 N 1634.46 -2.58866 -1.32049 0
M  V30 17369 H 1634 -2.54029 -0.427428 0
M  V30 17370 H 1633.96 -2.30322 -2.14008 0
M  V30 17371 N 1637.73 -0.725468 -1.3991 0
M  V30 17372 C 1638.96 -0.278797 -2.0471 0
M  V30 17373 C 1639.37 1.08796 -1.54791 0
M  V30 17374 O 1638.72 1.69685 -0.703763 0
M  V30 17375 C 1638.78 -0.191732 -3.58988 0
M  V30 17376 C 1638.44 -1.49539 -4.31842 0
M  V30 17377 C 1639.44 -2.43925 -4.59126 0
M  V30 17378 C 1637.12 -1.75705 -4.70567 0
M  V30 17379 C 1639.12 -3.62717 -5.24133 0
M  V30 17380 C 1636.8 -2.94776 -5.35304 0
M  V30 17381 C 1637.8 -3.88104 -5.62018 0
M  V30 17382 O 1637.49 -5.05085 -6.25415 0
M  V30 17383 H 1637.22 -0.121262 -0.665035 0
M  V30 17384 H 1639.78 -0.987188 -1.80122 0
M  V30 17385 H 1638.01 0.572683 -3.82436 0
M  V30 17386 H 1639.7 0.22168 -4.05294 0
M  V30 17387 H 1640.46 -2.24977 -4.29663 0
M  V30 17388 H 1636.34 -1.03912 -4.49136 0
M  V30 17389 H 1639.88 -4.35579 -5.44901 0
M  V30 17390 H 1635.78 -3.13629 -5.64187 0
M  V30 17391 H 1636.55 -5.05294 -6.4391 0
M  V30 17392 N 1639.21 1.50354 -0.472382 0
M  V30 17393 C 1640.63 1.59097 -0.126613 0
M  V30 17394 C 1640.83 1.4804 1.36698 0
M  V30 17395 O 1639.88 1.33956 2.14038 0
M  V30 17396 C 1641.2 2.92958 -0.677957 0
M  V30 17397 C 1642.75 3.06356 -0.6415 0
M  V30 17398 C 1643.22 4.42793 -1.17041 0
M  V30 17399 N 1644.71 4.49208 -1.12988 0
M  V30 17400 C 1645.45 5.53171 -1.50961 0
M  V30 17401 N 1644.94 6.64381 -1.96391 0
M  V30 17402 N 1646.74 5.43722 -1.42556 0
M  V30 17403 H 1638.89 1.55785 -1.44378 0
M  V30 17404 H 1641.15 0.736295 -0.597138 0
M  V30 17405 H 1640.86 3.06529 -1.72433 0
M  V30 17406 H 1640.73 3.77002 -0.122247 0
M  V30 17407 H 1643.12 2.92431 0.395964 0
M  V30 17408 H 1643.2 2.24066 -1.23403 0
M  V30 17409 H 1642.84 4.57466 -2.20651 0
M  V30 17410 H 1642.77 5.23677 -0.554086 0
M  V30 17411 H 1645.26 3.69407 -0.796692 0
M  V30 17412 H 1645.58 7.39772 -2.23511 0
M  V30 17413 H 1643.92 6.65498 -2.00344 0
M  V30 17414 H 1647.11 4.55729 -1.06905 0
M  V30 17415 H 1647.28 6.24625 -1.72476 0
M  V30 17416 N 1640.69 0.205039 1.56261 0
M  V30 17417 C 1641.94 -0.431735 1.98151 0
M  V30 17418 C 1642.27 -1.60579 1.09215 0
M  V30 17419 O 1641.55 -1.93949 0.146257 0
M  V30 17420 C 1641.83 -0.882278 3.49124 0
M  V30 17421 C 1641.68 0.294278 4.48836 0
M  V30 17422 C 1643 -1.7443 4.04057 0
M  V30 17423 H 1640.12 -0.155457 0.720418 0
M  V30 17424 H 1642.76 0.29796 1.87649 0
M  V30 17425 H 1640.91 -1.50404 3.58205 0
M  V30 17426 H 1642.58 0.932148 4.51784 0
M  V30 17427 H 1640.83 0.94444 4.23394 0
M  V30 17428 H 1641.5 -0.063639 5.51963 0
M  V30 17429 H 1643.97 -1.21983 3.97818 0
M  V30 17430 H 1642.85 -2.02848 5.10043 0
M  V30 17431 H 1643.11 -2.70195 3.49924 0
M  V30 17432 N 1642.17 -1.57451 -0.0684915 0
M  V30 17433 C 1643.08 -2.07274 -1.09885 0
M  V30 17434 C 1644.1 -1.00295 -1.42186 0
M  V30 17435 O 1645.27 -1.31786 -1.52297 0
M  V30 17436 C 1642.34 -2.50949 -2.39219 0
M  V30 17437 C 1641.4 -3.7224 -2.13859 0
M  V30 17438 C 1640.63 -4.13823 -3.37026 0
M  V30 17439 O 1640.85 -3.55248 -4.46268 0
M  V30 17440 O 1639.79 -5.06587 -3.25044 0
M  V30 17441 H 1643.61 -2.9539 -0.705587 0
M  V30 17442 H 1641.2 -1.46698 -0.282849 0
M  V30 17443 H 1643.08 -2.79547 -3.15327 0
M  V30 17444 H 1641.76 -1.6596 -2.77919 0
M  V30 17445 H 1640.66 -3.4872 -1.35445 0
M  V30 17446 H 1642 -4.58091 -1.80038 0
M  V30 17447 N 1643.65 0.339955 -1.5389 0
M  V30 17448 C 1644.9 1.07723 -1.70524 0
M  V30 17449 C 1645.21 1.89693 -0.477058 0
M  V30 17450 O 1646.42 2.66387 -0.524424 0
M  V30 17451 C 1644.87 1.96455 -3.01551 0
M  V30 17452 C 1644.48 1.19675 -4.3172 0
M  V30 17453 C 1646.22 2.70019 -3.27552 0
M  V30 17454 C 1644.13 2.07458 -5.53819 0
M  V30 17455 H 1643.06 0.405877 -0.635437 0
M  V30 17456 H 1645.71 0.336489 -1.80388 0
M  V30 17457 H 1644.09 2.74364 -2.85553 0
M  V30 17458 H 1645.27 0.466526 -4.58432 0
M  V30 17459 H 1643.58 0.578651 -4.1236 0
M  V30 17460 H 1646.18 3.35973 -4.15964 0
M  V30 17461 H 1646.52 3.36779 -2.44716 0
M  V30 17462 H 1647.06 1.99182 -3.44342 0
M  V30 17463 H 1643.79 1.45234 -6.39208 0
M  V30 17464 H 1643.31 2.7826 -5.31349 0
M  V30 17465 H 1644.99 2.66428 -5.89598 0
M  V30 17466 N 1645.13 1.45684 0.601159 0
M  V30 17467 C 1646.35 1.53806 1.39135 0
M  V30 17468 C 1646.78 0.173625 1.87297 0
M  V30 17469 O 1646.13 -0.842931 1.60513 0
M  V30 17470 C 1646.18 2.53201 2.56752 0
M  V30 17471 O 1645.29 2.05427 3.57594 0
M  V30 17472 H 1644.63 0.51824 0.415118 0
M  V30 17473 H 1647.16 1.91095 0.731006 0
M  V30 17474 H 1647.17 2.72215 3.03912 0
M  V30 17475 H 1645.84 3.52294 2.21047 0
M  V30 17476 H 1644.42 1.96318 3.17039 0
M  V30 17477 N 1646.6 -0.84422 1.33082 0
M  V30 17478 C 1647.85 -1.60149 1.24419 0
M  V30 17479 C 1648.18 -1.93259 -0.190992 0
M  V30 17480 O 1647.46 -1.58242 -1.13092 0
M  V30 17481 C 1647.74 -2.91502 2.11421 0
M  V30 17482 C 1647.59 -2.65108 3.6337 0
M  V30 17483 C 1648.91 -3.92878 1.98331 0
M  V30 17484 H 1646.03 -0.581096 0.453317 0
M  V30 17485 H 1648.67 -0.974093 1.6313 0
M  V30 17486 H 1646.82 -3.45046 1.78537 0
M  V30 17487 H 1648.5 -2.18037 4.06519 0
M  V30 17488 H 1646.74 -1.98896 3.85516 0
M  V30 17489 H 1647.41 -3.58682 4.19584 0
M  V30 17490 H 1649.89 -3.48623 2.27159 0
M  V30 17491 H 1648.76 -4.82625 2.61466 0
M  V30 17492 H 1649.02 -4.31685 0.953972 0
M  V30 17493 N 1648.08 -1.16463 -1.0618 0
M  V30 17494 C 1649.33 -0.946846 -1.79 0
M  V30 17495 C 1649.66 0.525259 -1.87273 0
M  V30 17496 O 1648.91 1.40584 -1.36142 0
M  V30 17497 C 1649.21 -1.52085 -3.23427 0
M  V30 17498 C 1648.88 -3.01547 -3.35232 0
M  V30 17499 C 1647.54 -3.42346 -3.38161 0
M  V30 17500 C 1649.89 -3.97543 -3.37059 0
M  V30 17501 C 1647.22 -4.77759 -3.40534 0
M  V30 17502 C 1649.57 -5.32843 -3.4097 0
M  V30 17503 C 1648.23 -5.73121 -3.42182 0
M  V30 17504 H 1647.5 -0.346475 -0.655008 0
M  V30 17505 H 1650.15 -1.45195 -1.24862 0
M  V30 17506 H 1648.46 -0.937212 -3.80426 0
M  V30 17507 H 1650.15 -1.32801 -3.78371 0
M  V30 17508 H 1646.74 -2.69017 -3.33658 0
M  V30 17509 H 1650.93 -3.67088 -3.34006 0
M  V30 17510 H 1646.18 -5.08293 -3.39777 0
M  V30 17511 H 1650.36 -6.07014 -3.41332 0
M  V30 17512 H 1647.98 -6.78029 -3.43774 0
M  V30 17513 N 1649.56 1.24734 -0.963288 0
M  V30 17514 C 1650.81 1.92686 -0.622766 0
M  V30 17515 C 1651.13 1.75357 0.841442 0
M  V30 17516 O 1650.39 1.09757 1.62025 0
M  V30 17517 C 1650.69 3.44867 -0.938151 0
M  V30 17518 C 1650.35 3.82361 -2.38979 0
M  V30 17519 C 1649.02 3.92307 -2.78655 0
M  V30 17520 C 1651.37 4.00775 -3.3321 0
M  V30 17521 C 1648.7 4.1808 -4.11614 0
M  V30 17522 C 1651.05 4.28043 -4.65792 0
M  V30 17523 C 1649.71 4.36207 -5.05252 0
M  V30 17524 H 1648.98 0.705088 -0.227886 0
M  V30 17525 H 1651.63 1.48107 -1.21395 0
M  V30 17526 H 1649.93 3.90905 -0.264676 0
M  V30 17527 H 1651.63 3.95645 -0.653134 0
M  V30 17528 H 1648.22 3.75182 -2.07212 0
M  V30 17529 H 1652.41 3.92497 -3.03743 0
M  V30 17530 H 1647.66 4.22619 -4.41818 0
M  V30 17531 H 1651.84 4.41236 -5.3878 0
M  V30 17532 H 1649.46 4.55931 -6.08301 0
M  V30 17533 N 1651.04 0.732878 1.39523 0
M  V30 17534 C 1652.29 0.276787 1.99792 0
M  V30 17535 C 1652.6 -1.14181 1.58814 0
M  V30 17536 O 1653.81 -1.69731 2.11905 0
M  V30 17537 C 1652.26 0.443924 3.57152 0
M  V30 17538 C 1651.87 1.87027 4.07093 0
M  V30 17539 C 1653.61 0.0495022 4.24471 0
M  V30 17540 C 1651.52 1.98708 5.57018 0
M  V30 17541 H 1650.45 0.0997337 0.747375 0
M  V30 17542 H 1653.1 0.906454 1.59548 0
M  V30 17543 H 1651.48 -0.254605 3.95181 0
M  V30 17544 H 1652.66 2.60059 3.80403 0
M  V30 17545 H 1650.97 2.21772 3.52429 0
M  V30 17546 H 1653.57 0.115815 5.34575 0
M  V30 17547 H 1653.91 -0.994967 4.04235 0
M  V30 17548 H 1654.45 0.69911 3.91609 0
M  V30 17549 H 1651.18 3.01336 5.82131 0
M  V30 17550 H 1650.7 1.30111 5.85518 0
M  V30 17551 H 1652.38 1.76725 6.22396 0
M  V30 17552 N 1652.52 -1.50101 0.480349 0
M  V30 17553 C 1653.76 -2.02674 -0.0715373 0
M  V30 17554 C 1654.09 -1.36095 -1.38535 0
M  V30 17555 O 1653.37 -0.489703 -1.88234 0
M  V30 17556 C 1653.65 -3.59261 -0.245693 0
M  V30 17557 C 1653.51 -4.36399 1.08979 0
M  V30 17558 C 1654.82 -4.28682 -0.995966 0
M  V30 17559 H 1651.94 -0.736592 -0.0245244 0
M  V30 17560 H 1654.59 -1.7933 0.627743 0
M  V30 17561 H 1652.74 -3.79281 -0.841308 0
M  V30 17562 H 1654.41 -4.27926 1.72269 0
M  V30 17563 H 1652.65 -3.99773 1.68417 0
M  V30 17564 H 1653.32 -5.44254 0.921468 0
M  V30 17565 H 1655.8 -4.13193 -0.491025 0
M  V30 17566 H 1654.67 -5.38037 -1.08663 0
M  V30 17567 H 1654.93 -3.92491 -2.03479 0
M  V30 17568 N 1653.99 -0.213323 -1.5615 0
M  V30 17569 C 1655.22 0.425071 -2.0218 0
M  V30 17570 C 1655.63 1.54471 -1.09249 0
M  V30 17571 O 1654.97 1.83465 -0.0928585 0
M  V30 17572 C 1655.04 1.02533 -3.44568 0
M  V30 17573 C 1654.7 0.0421613 -4.56981 0
M  V30 17574 C 1655.7 -0.755199 -5.14386 0
M  V30 17575 C 1653.38 -0.0742081 -5.02245 0
M  V30 17576 C 1655.38 -1.65571 -6.1552 0
M  V30 17577 C 1653.06 -0.978264 -6.03219 0
M  V30 17578 C 1654.06 -1.76757 -6.59732 0
M  V30 17579 O 1653.75 -2.65644 -7.58741 0
M  V30 17580 H 1653.48 0.109184 -0.667124 0
M  V30 17581 H 1656.04 -0.324754 -2.02816 0
M  V30 17582 H 1654.27 1.82409 -3.40975 0
M  V30 17583 H 1655.95 1.57027 -3.74296 0
M  V30 17584 H 1656.72 -0.6757 -4.8027 0
M  V30 17585 H 1652.6 0.530016 -4.57943 0
M  V30 17586 H 1656.14 -2.27223 -6.59557 0
M  V30 17587 H 1652.04 -1.05881 -6.36757 0
M  V30 17588 H 1652.81 -2.59627 -7.76232 0
M  V30 17589 N 1655.47 1.57485 0.0601405 0
M  V30 17590 C 1656.72 1.86998 0.75595 0
M  V30 17591 C 1657.03 0.807616 1.78149 0
M  V30 17592 O 1658.24 0.99096 2.52769 0
M  V30 17593 C 1656.7 3.31746 1.39545 0
M  V30 17594 C 1656.3 4.46139 0.407874 0
M  V30 17595 C 1658.05 3.70445 2.07294 0
M  V30 17596 C 1655.96 5.81933 1.05395 0
M  V30 17597 H 1654.89 0.697619 0.286083 0
M  V30 17598 H 1657.54 1.83498 0.00948593 0
M  V30 17599 H 1655.92 3.29894 2.19057 0
M  V30 17600 H 1657.09 4.59405 -0.358281 0
M  V30 17601 H 1655.41 4.1607 -0.16581 0
M  V30 17602 H 1658 4.692 2.56428 0
M  V30 17603 H 1658.35 3.00839 2.87753 0
M  V30 17604 H 1658.88 3.74337 1.34598 0
M  V30 17605 H 1655.62 6.54861 0.289437 0
M  V30 17606 H 1655.14 5.72446 1.79068 0
M  V30 17607 H 1656.82 6.27652 1.5704 0
M  V30 17608 N 1656.95 -0.331789 1.54068 0
M  V30 17609 C 1658.2 -1.06818 1.71093 0
M  V30 17610 C 1658.51 -1.89438 0.487111 0
M  V30 17611 O 1659.72 -2.66105 0.538544 0
M  V30 17612 C 1658.17 -1.94853 3.02589 0
M  V30 17613 C 1657.78 -1.17384 4.32348 0
M  V30 17614 C 1659.53 -2.68278 3.28979 0
M  V30 17615 C 1657.43 -2.04518 5.54911 0
M  V30 17616 H 1656.36 -0.402501 0.63758 0
M  V30 17617 H 1659.01 -0.326918 1.80564 0
M  V30 17618 H 1657.4 -2.72845 2.87004 0
M  V30 17619 H 1658.57 -0.442208 4.58673 0
M  V30 17620 H 1656.89 -0.556775 4.12661 0
M  V30 17621 H 1659.48 -3.33762 4.1774 0
M  V30 17622 H 1659.83 -3.35476 2.46498 0
M  V30 17623 H 1660.36 -1.97353 3.45394 0
M  V30 17624 H 1657.1 -1.41842 6.3997 0
M  V30 17625 H 1656.62 -2.75438 5.32817 0
M  V30 17626 H 1658.3 -2.63297 5.91002 0
M  V30 17627 N 1658.43 -1.46001 -0.593424 0
M  V30 17628 C 1659.68 -1.50025 -1.34816 0
M  V30 17629 C 1659.99 -0.151905 -1.95009 0
M  V30 17630 O 1661.2 -0.0698751 -2.7141 0
M  V30 17631 C 1659.65 -2.643 -2.44282 0
M  V30 17632 C 1659.26 -4.05509 -1.90438 0
M  V30 17633 C 1661 -2.77584 -3.21165 0
M  V30 17634 C 1658.91 -5.11142 -2.97469 0
M  V30 17635 H 1657.84 -0.558299 -0.506772 0
M  V30 17636 H 1660.49 -1.72182 -0.634484 0
M  V30 17637 H 1658.87 -2.35453 -3.18399 0
M  V30 17638 H 1660.05 -4.44099 -1.22935 0
M  V30 17639 H 1658.36 -3.96798 -1.26256 0
M  V30 17640 H 1660.96 -3.53673 -4.01023 0
M  V30 17641 H 1661.3 -1.84718 -3.73075 0
M  V30 17642 H 1661.84 -3.06026 -2.54151 0
M  V30 17643 H 1658.58 -6.05764 -2.5046 0
M  V30 17644 H 1658.1 -4.77107 -3.63495 0
M  V30 17645 H 1659.77 -5.36516 -3.61607 0
M  V30 17646 N 1659.91 0.83715 -1.33527 0
M  V30 17647 C 1661.16 1.58747 -1.24428 0
M  V30 17648 C 1661.47 1.94696 0.187885 0
M  V30 17649 O 1662.67 2.68524 0.400903 0
M  V30 17650 C 1661.13 2.86337 -2.18035 0
M  V30 17651 C 1660.74 2.57745 -3.66431 0
M  V30 17652 C 1662.48 3.6436 -2.17812 0
M  V30 17653 C 1660.39 3.81443 -4.51946 0
M  V30 17654 H 1659.32 0.595749 -0.462168 0
M  V30 17655 H 1661.97 0.922901 -1.58603 0
M  V30 17656 H 1660.35 3.54344 -1.76795 0
M  V30 17657 H 1661.53 1.97939 -4.16121 0
M  V30 17658 H 1659.84 1.93023 -3.68959 0
M  V30 17659 H 1662.44 4.56181 -2.78932 0
M  V30 17660 H 1662.78 3.99414 -1.17364 0
M  V30 17661 H 1663.31 3.03279 -2.57423 0
M  V30 17662 H 1660.05 3.51519 -5.53276 0
M  V30 17663 H 1659.57 4.40582 -4.06998 0
M  V30 17664 H 1661.25 4.49004 -4.65837 0
M  V30 17665 N 1661.38 1.17024 1.05561 0
M  V30 17666 C 1662.35 0.885897 2.11387 0
M  V30 17667 C 1663.35 -0.122327 1.60334 0
M  V30 17668 O 1664.54 0.109416 1.73856 0
M  V30 17669 C 1661.67 0.32626 3.39335 0
M  V30 17670 H 1662.86 1.82414 2.38045 0
M  V30 17671 H 1660.42 0.980191 1.21745 0
M  V30 17672 H 1661.15 -0.619308 3.18332 0
M  V30 17673 H 1660.94 1.05285 3.777 0
M  V30 17674 H 1662.43 0.145513 4.17346 0
M  V30 17675 N 1662.86 -1.24221 0.969889 0
M  V30 17676 C 1664.11 -1.92353 0.632976 0
M  V30 17677 C 1664.44 -1.75801 -0.832131 0
M  V30 17678 O 1663.69 -1.10614 -1.6144 0
M  V30 17679 C 1663.99 -3.44365 0.956427 0
M  V30 17680 C 1663.66 -3.81088 2.41003 0
M  V30 17681 C 1662.32 -3.90823 2.80732 0
M  V30 17682 C 1664.67 -3.99002 3.35331 0
M  V30 17683 C 1662 -4.15891 4.13825 0
M  V30 17684 C 1664.35 -4.25567 4.68055 0
M  V30 17685 C 1663.02 -4.33522 5.07558 0
M  V30 17686 H 1662.29 -0.703869 0.231622 0
M  V30 17687 H 1664.93 -1.47461 1.22179 0
M  V30 17688 H 1663.24 -3.90759 0.285402 0
M  V30 17689 H 1664.93 -3.95293 0.674107 0
M  V30 17690 H 1661.52 -3.74077 2.09199 0
M  V30 17691 H 1665.71 -3.90881 3.0582 0
M  V30 17692 H 1660.96 -4.2027 4.44053 0
M  V30 17693 H 1665.14 -4.38372 5.41113 0
M  V30 17694 H 1662.77 -4.52699 6.10711 0
M  V30 17695 N 1664.34 -0.740267 -1.39132 0
M  V30 17696 C 1665.59 -0.290523 -2.00405 0
M  V30 17697 C 1665.92 1.12383 -1.58746 0
M  V30 17698 O 1665.17 1.78148 -0.81005 0
M  V30 17699 C 1665.47 -0.346009 -3.55721 0
M  V30 17700 C 1665.14 -1.71412 -4.17048 0
M  V30 17701 C 1663.8 -2.08857 -4.33512 0
M  V30 17702 C 1666.15 -2.61216 -4.51016 0
M  V30 17703 C 1663.48 -3.35603 -4.81235 0
M  V30 17704 C 1665.83 -3.8734 -5.0015 0
M  V30 17705 C 1664.49 -4.2487 -5.14822 0
M  V30 17706 H 1663.76 -0.10631 -0.733334 0
M  V30 17707 H 1666.41 -0.948141 -1.66381 0
M  V30 17708 H 1664.72 0.395183 -3.89802 0
M  V30 17709 H 1666.41 0.020191 -4.00995 0
M  V30 17710 H 1663 -1.41301 -4.04638 0
M  V30 17711 H 1667.19 -2.33556 -4.3791 0
M  V30 17712 H 1662.44 -3.64617 -4.90779 0
M  V30 17713 H 1666.62 -4.57079 -5.25406 0
M  V30 17714 H 1664.24 -5.23147 -5.51562 0
M  V30 17715 N 1665.82 1.49844 -0.488302 0
M  V30 17716 C 1666.75 2.25604 0.343226 0
M  V30 17717 C 1667.73 1.29642 0.981415 0
M  V30 17718 O 1668.91 1.58904 1.014 0
M  V30 17719 C 1666.04 3.04541 1.48231 0
M  V30 17720 C 1665.09 4.15561 0.959774 0
M  V30 17721 S 1665.92 5.35319 -0.139328 0
M  V30 17722 C 1667.08 6.17808 1.00322 0
M  V30 17723 H 1667.31 2.95784 -0.299825 0
M  V30 17724 H 1664.84 1.5196 -0.273415 0
M  V30 17725 H 1666.8 3.50608 2.13505 0
M  V30 17726 H 1665.46 2.33854 2.09693 0
M  V30 17727 H 1664.65 4.7026 1.81304 0
M  V30 17728 H 1664.26 3.72019 0.384461 0
M  V30 17729 H 1666.55 6.49984 1.91121 0
M  V30 17730 H 1667.49 7.06367 0.495116 0
M  V30 17731 H 1667.9 5.50148 1.26482 0
M  V30 17732 N 1667.3 0.221601 1.56034 0
M  V30 17733 C 1668.23 -0.728495 2.1626 0
M  V30 17734 C 1669.21 -1.19097 1.107 0
M  V30 17735 O 1670.39 -1.27371 1.38957 0
M  V30 17736 C 1667.52 -1.987 2.74292 0
M  V30 17737 C 1666.56 -1.66449 3.92679 0
M  V30 17738 S 1667.4 -0.78924 5.29652 0
M  V30 17739 C 1668.55 -2.05731 5.91122 0
M  V30 17740 H 1668.79 -0.216607 2.9651 0
M  V30 17741 H 1666.32 0.0062956 1.54399 0
M  V30 17742 H 1668.28 -2.70962 3.08366 0
M  V30 17743 H 1666.94 -2.47001 1.94034 0
M  V30 17744 H 1666.13 -2.59955 4.31786 0
M  V30 17745 H 1665.73 -1.0225 3.59751 0
M  V30 17746 H 1668.03 -3.00728 6.07099 0
M  V30 17747 H 1668.97 -1.71014 6.87139 0
M  V30 17748 H 1669.38 -2.19786 5.19956 0
M  V30 17749 N 1668.77 -1.57515 -0.0517878 0
M  V30 17750 C 1669.72 -2.06114 -1.07795 0
M  V30 17751 C 1670.72 -0.97034 -1.38855 0
M  V30 17752 O 1671.92 -1.15536 -1.38027 0
M  V30 17753 H 1668.3 -0.657451 -0.365051 0
M  V30 17754 H 1670.27 -2.9141 -0.642068 0
M  V30 17755 C 1669.02 -2.53728 -2.37734 0
M  V30 17756 H 1668.34 -3.37266 -2.14689 0
M  V30 17757 H 1669.78 -2.91466 -3.07934 0
M  V30 17758 C 1668.24 -1.42868 -3.05107 0
M  V30 17759 O 1668.77 -0.782025 -3.94014 0
M  V30 17760 N 1666.98 -1.16882 -2.66058 0
M  V30 17761 H 1666.52 -1.6965 -1.93847 0
M  V30 17762 H 1666.48 -0.429164 -3.11457 0
M  V30 17763 N 1670.25 0.323614 -1.54242 0
M  V30 17764 C 1671.5 1.05909 -1.71657 0
M  V30 17765 C 1671.82 1.89177 -0.497151 0
M  V30 17766 O 1673.02 2.65816 -0.552649 0
M  V30 17767 C 1671.48 1.93246 -3.03618 0
M  V30 17768 C 1671.09 1.1509 -4.32965 0
M  V30 17769 C 1672.83 2.6653 -3.30397 0
M  V30 17770 C 1670.74 2.01573 -5.55988 0
M  V30 17771 H 1669.67 0.399114 -0.639706 0
M  V30 17772 H 1672.32 0.317338 -1.80735 0
M  V30 17773 H 1670.7 2.71319 -2.88447 0
M  V30 17774 H 1671.87 0.417877 -4.58901 0
M  V30 17775 H 1670.19 0.534882 -4.1295 0
M  V30 17776 H 1672.79 3.31542 -4.19504 0
M  V30 17777 H 1673.13 3.34164 -2.48274 0
M  V30 17778 H 1673.66 1.95518 -3.46435 0
M  V30 17779 H 1670.4 1.38446 -6.40713 0
M  V30 17780 H 1669.92 2.72609 -5.3427 0
M  V30 17781 H 1671.6 2.60159 -5.9239 0
M  V30 17782 N 1671.73 1.46313 0.585673 0
M  V30 17783 C 1672.98 1.5147 1.34399 0
M  V30 17784 C 1673.31 0.165209 1.93797 0
M  V30 17785 O 1672.56 -0.838796 1.76813 0
M  V30 17786 C 1672.86 2.55895 2.49504 0
M  V30 17787 C 1672.53 3.99997 2.08118 0
M  V30 17788 C 1671.19 4.3923 1.96545 0
M  V30 17789 C 1673.54 4.90532 1.76147 0
M  V30 17790 C 1670.87 5.66867 1.51256 0
M  V30 17791 C 1673.22 6.18603 1.32338 0
M  V30 17792 C 1671.88 6.56745 1.1934 0
M  V30 17793 H 1671.15 0.554268 0.491801 0
M  V30 17794 H 1673.8 1.79774 0.659803 0
M  V30 17795 H 1672.11 2.21241 3.23357 0
M  V30 17796 H 1673.8 2.57116 3.07722 0
M  V30 17797 H 1670.39 3.68983 2.18058 0
M  V30 17798 H 1674.58 4.60942 1.83974 0
M  V30 17799 H 1669.83 5.95194 1.39834 0
M  V30 17800 H 1674.01 6.88185 1.06653 0
M  V30 17801 H 1671.63 7.55542 0.840228 0
M  V30 17802 N 1673.21 -0.830057 1.33969 0
M  V30 17803 C 1674.46 -1.58821 1.26111 0
M  V30 17804 C 1674.79 -1.9345 -0.170484 0
M  V30 17805 O 1674.06 -1.59433 -1.11407 0
M  V30 17806 C 1674.35 -2.89243 2.14501 0
M  V30 17807 C 1674.2 -2.61239 3.66162 0
M  V30 17808 C 1675.52 -3.90752 2.02487 0
M  V30 17809 H 1672.64 -0.576255 0.459455 0
M  V30 17810 H 1675.28 -0.956736 1.64154 0
M  V30 17811 H 1673.43 -3.43133 1.82186 0
M  V30 17812 H 1675.1 -2.13713 4.08809 0
M  V30 17813 H 1673.34 -1.94796 3.87604 0
M  V30 17814 H 1674.02 -3.54212 4.23365 0
M  V30 17815 H 1676.49 -3.46194 2.30844 0
M  V30 17816 H 1675.37 -4.79825 2.6657 0
M  V30 17817 H 1675.63 -4.30649 0.999704 0
M  V30 17818 N 1674.69 -1.17582 -1.04939 0
M  V30 17819 C 1675.94 -0.96387 -1.77634 0
M  V30 17820 C 1676.26 0.508548 -1.88252 0
M  V30 17821 O 1675.53 1.36913 -1.40113 0
M  V30 17822 H 1674.11 -0.353636 -0.65799 0
M  V30 17823 H 1676.77 -1.48104 -1.26693 0
M  V30 17824 H 1675.86 -1.39438 -2.79219 0
M  V30 17825 N 1676.17 1.23705 -0.976463 0
M  V30 17826 C 1677.41 1.92015 -0.643168 0
M  V30 17827 C 1677.74 1.76239 0.822796 0
M  V30 17828 O 1677 1.11469 1.60851 0
M  V30 17829 C 1677.29 3.43853 -0.974676 0
M  V30 17830 C 1676.96 3.79805 -2.43021 0
M  V30 17831 C 1675.62 3.89329 -2.82801 0
M  V30 17832 C 1677.97 3.97218 -3.37442 0
M  V30 17833 C 1675.3 4.13691 -4.16025 0
M  V30 17834 C 1677.65 4.23079 -4.70305 0
M  V30 17835 C 1676.32 4.30824 -5.0985 0
M  V30 17836 H 1675.59 0.702631 -0.235352 0
M  V30 17837 H 1678.24 1.46811 -1.22959 0
M  V30 17838 H 1676.54 3.90602 -0.306121 0
M  V30 17839 H 1678.24 3.9493 -0.695061 0
M  V30 17840 H 1674.83 3.72963 -2.11179 0
M  V30 17841 H 1679.01 3.89254 -3.07889 0
M  V30 17842 H 1674.27 4.17909 -4.46276 0
M  V30 17843 H 1678.44 4.35496 -5.4343 0
M  V30 17844 H 1676.07 4.49454 -6.13103 0
M  V30 17845 N 1677.64 0.747635 1.38738 0
M  V30 17846 C 1678.89 0.301593 2.00545 0
M  V30 17847 C 1679.22 -1.11208 1.59205 0
M  V30 17848 O 1678.5 -1.76052 0.826806 0
M  V30 17849 C 1678.78 0.417739 3.57669 0
M  V30 17850 C 1678.63 1.87209 4.0899 0
M  V30 17851 C 1679.95 -0.192403 4.39679 0
M  V30 17852 H 1677.07 0.11106 0.728584 0
M  V30 17853 H 1679.71 0.946162 1.64766 0
M  V30 17854 H 1677.86 -0.131024 3.88279 0
M  V30 17855 H 1679.54 2.4787 3.89048 0
M  V30 17856 H 1677.78 2.38917 3.62079 0
M  V30 17857 H 1678.45 1.90455 5.18103 0
M  V30 17858 H 1680.93 0.27554 4.15187 0
M  V30 17859 H 1679.8 -0.0808605 5.4884 0
M  V30 17860 H 1680.06 -1.28 4.23165 0
M  V30 17861 N 1679.12 -1.49583 0.496242 0
M  V30 17862 C 1680.37 -2.01634 -0.051782 0
M  V30 17863 C 1680.68 -1.38133 -1.38487 0
M  V30 17864 O 1681.89 -1.81484 -2.0193 0
M  V30 17865 C 1680.35 -3.59617 -0.142755 0
M  V30 17866 C 1679.95 -4.32088 1.1834 0
M  V30 17867 C 1681.7 -4.19626 -0.641397 0
M  V30 17868 C 1679.6 -5.81917 1.05485 0
M  V30 17869 H 1678.53 -0.753645 -0.0231258 0
M  V30 17870 H 1681.19 -1.72165 0.634944 0
M  V30 17871 H 1679.57 -3.85781 -0.893826 0
M  V30 17872 H 1680.74 -4.17628 1.94739 0
M  V30 17873 H 1679.06 -3.83801 1.61511 0
M  V30 17874 H 1681.65 -5.29343 -0.755008 0
M  V30 17875 H 1682 -3.82676 -1.63906 0
M  V30 17876 H 1682.53 -3.97765 0.053003 0
M  V30 17877 H 1679.27 -6.23384 2.02664 0
M  V30 17878 H 1678.79 -5.98882 0.331667 0
M  V30 17879 H 1680.47 -6.4285 0.731641 0
M  V30 17880 N 1680.6 -0.229873 -1.55915 0
M  V30 17881 C 1681.85 0.399963 -1.97695 0
M  V30 17882 C 1682.16 1.60303 -1.12081 0
M  V30 17883 O 1683.37 2.30292 -1.43797 0
M  V30 17884 C 1681.82 0.762982 -3.51719 0
M  V30 17885 C 1681.43 -0.417738 -4.46048 0
M  V30 17886 C 1683.18 1.35796 -4.02194 0
M  V30 17887 C 1681.08 -0.0318216 -5.91391 0
M  V30 17888 H 1680.01 0.153209 -0.73827 0
M  V30 17889 H 1682.66 -0.327401 -1.80556 0
M  V30 17890 H 1681.05 1.548 -3.6449 0
M  V30 17891 H 1682.22 -1.19523 -4.45029 0
M  V30 17892 H 1680.53 -0.926501 -4.05962 0
M  V30 17893 H 1683.13 1.65974 -5.08288 0
M  V30 17894 H 1683.47 2.27661 -3.48534 0
M  V30 17895 H 1684.01 0.6362 -3.9268 0
M  V30 17896 H 1680.75 -0.917176 -6.49052 0
M  V30 17897 H 1680.27 0.709811 -5.95585 0
M  V30 17898 H 1681.95 0.391966 -6.45812 0
M  V30 17899 N 1682.08 1.5754 0.0434337 0
M  V30 17900 C 1683.31 1.92856 0.749268 0
M  V30 17901 C 1683.72 0.828405 1.69655 0
M  V30 17902 O 1683.08 -0.196294 1.81441 0
M  V30 17903 C 1683.13 3.28052 1.51869 0
M  V30 17904 O 1682.85 4.3384 0.609442 0
M  V30 17905 C 1684.35 3.77562 2.32298 0
M  V30 17906 H 1681.57 0.636818 0.211433 0
M  V30 17907 H 1684.11 2.04499 0.00524119 0
M  V30 17908 H 1682.27 3.1785 2.21472 0
M  V30 17909 H 1682.68 5.11794 1.1475 0
M  V30 17910 H 1684.16 4.7471 2.817 0
M  V30 17911 H 1684.63 3.08015 3.13087 0
M  V30 17912 H 1685.24 3.908 1.67796 0
M  V30 17913 N 1683.56 -0.31543 1.54411 0
M  V30 17914 C 1684.8 -1.0524 1.73005 0
M  V30 17915 C 1685.13 -1.87747 0.50808 0
M  V30 17916 O 1684.39 -1.88935 -0.51012 0
M  V30 17917 C 1684.68 -1.99884 2.96279 0
M  V30 17918 C 1684.35 -1.33468 4.30694 0
M  V30 17919 C 1683.01 -1.15087 4.67235 0
M  V30 17920 C 1685.36 -0.858688 5.14078 0
M  V30 17921 C 1682.69 -0.47767 5.84752 0
M  V30 17922 C 1685.04 -0.199278 6.32286 0
M  V30 17923 C 1683.71 -0.00338158 6.675 0
M  V30 17924 H 1682.98 -0.385102 0.63307 0
M  V30 17925 H 1685.63 -0.328714 1.88658 0
M  V30 17926 H 1683.93 -2.78732 2.75347 0
M  V30 17927 H 1685.63 -2.56951 3.07859 0
M  V30 17928 H 1682.22 -1.48779 4.01949 0
M  V30 17929 H 1686.4 -0.98846 4.86357 0
M  V30 17930 H 1681.66 -0.314772 6.10589 0
M  V30 17931 H 1685.83 0.177517 6.96174 0
M  V30 17932 H 1683.46 0.52028 7.58418 0
M  V30 17933 N 1685.03 -1.46622 -0.577906 0
M  V30 17934 C 1686.45 -1.31683 -0.901762 0
M  V30 17935 C 1686.65 -0.291842 -1.99375 0
M  V30 17936 O 1685.71 0.303913 -2.50664 0
M  V30 17937 C 1687.02 -2.70443 -1.31457 0
M  V30 17938 C 1688.57 -2.7857 -1.42715 0
M  V30 17939 C 1689.04 -4.17923 -1.87361 0
M  V30 17940 N 1690.53 -4.20364 -1.94546 0
M  V30 17941 C 1691.27 -5.25085 -2.30376 0
M  V30 17942 N 1690.76 -6.4013 -2.64964 0
M  V30 17943 N 1692.56 -5.12453 -2.30972 0
M  V30 17944 H 1684.71 -2.11916 0.143367 0
M  V30 17945 H 1686.97 -0.947999 0.00146914 0
M  V30 17946 H 1686.68 -3.46781 -0.586174 0
M  V30 17947 H 1686.55 -3.00864 -2.2751 0
M  V30 17948 H 1688.94 -2.02518 -2.14641 0
M  V30 17949 H 1689.02 -2.51828 -0.449021 0
M  V30 17950 H 1688.66 -4.94473 -1.16012 0
M  V30 17951 H 1688.59 -4.42076 -2.8614 0
M  V30 17952 H 1691.08 -3.37359 -1.70286 0
M  V30 17953 H 1691.4 -7.15808 -2.91271 0
M  V30 17954 H 1689.74 -6.43483 -2.62591 0
M  V30 17955 H 1692.93 -4.21611 -2.03376 0
M  V30 17956 H 1693.11 -5.94178 -2.58566 0
M  V30 17957 N 1686.51 0.822941 -1.34408 0
M  V30 17958 C 1687.48 1.91541 -1.25876 0
M  V30 17959 C 1688.48 1.59856 -0.17397 0
M  V30 17960 O 1689.67 1.68896 -0.426592 0
M  V30 17961 C 1686.8 3.27586 -0.943415 0
M  V30 17962 H 1687.99 2.00529 -2.22998 0
M  V30 17963 H 1685.54 1.01691 -1.18695 0
M  V30 17964 H 1686.28 3.24291 0.0246389 0
M  V30 17965 H 1686.06 3.51966 -1.72807 0
M  V30 17966 H 1687.55 4.07589 -0.908891 0
M  V30 17967 N 1687.99 1.18137 1.04314 0
M  V30 17968 C 1688.92 0.863879 2.12296 0
M  V30 17969 C 1689.94 -0.137469 1.62219 0
M  V30 17970 O 1691.12 0.0900306 1.78273 0
M  V30 17971 C 1688.22 0.269002 3.37831 0
M  V30 17972 C 1687.4 1.3154 4.17152 0
M  V30 17973 C 1686.46 0.736666 5.21018 0
M  V30 17974 O 1685.48 1.41075 5.5144 0
M  V30 17975 N 1686.68 -0.467037 5.78618 0
M  V30 17976 H 1689.45 1.7933 2.40127 0
M  V30 17977 H 1687.01 1.08142 1.20486 0
M  V30 17978 H 1689 -0.131671 4.04486 0
M  V30 17979 H 1687.57 -0.564386 3.07463 0
M  V30 17980 H 1686.79 1.89148 3.45856 0
M  V30 17981 H 1688.08 2.02093 4.66943 0
M  V30 17982 H 1687.48 -1.03247 5.56198 0
M  V30 17983 H 1686.04 -0.809663 6.46752 0
M  V30 17984 N 1689.47 -1.23186 0.98301 0
M  V30 17985 C 1690.72 -1.91292 0.652051 0
M  V30 17986 C 1691.04 -1.77046 -0.8173 0
M  V30 17987 O 1690.31 -1.15146 -1.58487 0
M  V30 17988 H 1688.89 -0.708011 0.23818 0
M  V30 17989 H 1691.55 -1.49754 1.24739 0
M  V30 17990 H 1690.65 -2.98662 0.905951 0
M  V30 17991 N 1690.95 -0.754982 -1.38339 0
M  V30 17992 C 1691.86 -0.130303 -2.34238 0
M  V30 17993 C 1692.87 0.699048 -1.5934 0
M  V30 17994 O 1694.05 0.622876 -1.91526 0
M  V30 17995 C 1691.11 0.751285 -3.38462 0
M  V30 17996 C 1690.17 -0.0925987 -4.292 0
M  V30 17997 C 1689.41 0.747007 -5.28446 0
M  V30 17998 O 1689.63 1.98495 -5.34749 0
M  V30 17999 O 1688.56 0.165072 -6.01674 0
M  V30 18000 H 1692.39 -0.92233 -2.89356 0
M  V30 18001 H 1689.98 -0.515896 -1.4021 0
M  V30 18002 H 1691.86 1.2551 -4.02275 0
M  V30 18003 H 1690.53 1.52178 -2.85698 0
M  V30 18004 H 1689.44 -0.64239 -3.68543 0
M  V30 18005 H 1690.77 -0.825784 -4.85223 0
M  V30 18006 N 1692.42 1.49318 -0.504168 0
M  V30 18007 C 1693.36 2.27103 0.309327 0
M  V30 18008 C 1694.37 1.33776 0.927781 0
M  V30 18009 O 1695.56 1.59034 0.810585 0
M  V30 18010 C 1692.66 3.06277 1.45078 0
M  V30 18011 C 1691.83 4.27201 0.939045 0
M  V30 18012 C 1690.89 4.88395 1.95849 0
M  V30 18013 O 1689.92 5.4837 1.52576 0
M  V30 18014 N 1691.12 4.78328 3.28911 0
M  V30 18015 H 1693.88 2.97558 -0.35767 0
M  V30 18016 H 1691.44 1.58356 -0.336907 0
M  V30 18017 H 1693.44 3.44088 2.13038 0
M  V30 18018 H 1692.01 2.38409 2.02188 0
M  V30 18019 H 1691.23 3.9411 0.0842433 0
M  V30 18020 H 1692.51 5.05534 0.575603 0
M  V30 18021 H 1691.91 4.30707 3.66753 0
M  V30 18022 H 1690.47 5.20315 3.92576 0
M  V30 18023 N 1693.9 0.238138 1.5579 0
M  V30 18024 C 1694.81 -0.676049 2.24648 0
M  V30 18025 C 1695.83 -1.20038 1.25964 0
M  V30 18026 O 1697 -1.2385 1.58818 0
M  V30 18027 C 1694.07 -1.86014 2.92574 0
M  V30 18028 C 1693.13 -1.37615 4.06646 0
M  V30 18029 C 1692.36 -2.5038 4.71323 0
M  V30 18030 O 1692.59 -3.68906 4.35045 0
M  V30 18031 O 1691.52 -2.20636 5.60003 0
M  V30 18032 H 1695.35 -0.119372 3.03465 0
M  V30 18033 H 1692.93 0.00699789 1.49398 0
M  V30 18034 H 1694.81 -2.55132 3.35389 0
M  V30 18035 H 1693.49 -2.4046 2.16704 0
M  V30 18036 H 1692.4 -0.652503 3.68366 0
M  V30 18037 H 1693.73 -0.877871 4.84308 0
M  V30 18038 N 1695.38 -1.57561 -0.0350783 0
M  V30 18039 C 1696.61 -1.92971 -0.737958 0
M  V30 18040 C 1697.02 -0.835771 -1.6974 0
M  V30 18041 O 1696.36 0.19703 -1.8264 0
M  V30 18042 C 1696.42 -3.24138 -1.55482 0
M  V30 18043 C 1696.09 -4.50622 -0.760818 0
M  V30 18044 C 1697.08 -5.19861 -0.0637364 0
M  V30 18045 C 1694.77 -4.97154 -0.717134 0
M  V30 18046 C 1696.76 -6.33907 0.666395 0
M  V30 18047 C 1694.45 -6.11098 0.0167462 0
M  V30 18048 C 1695.45 -6.79328 0.707276 0
M  V30 18049 O 1695.14 -7.91093 1.42925 0
M  V30 18050 H 1694.87 -0.641628 -0.212814 0
M  V30 18051 H 1697.42 -2.054 0.00152065 0
M  V30 18052 H 1695.65 -3.08019 -2.33798 0
M  V30 18053 H 1697.34 -3.44919 -2.13976 0
M  V30 18054 H 1698.11 -4.84919 -0.0885544 0
M  V30 18055 H 1693.99 -4.43895 -1.24411 0
M  V30 18056 H 1697.53 -6.87098 1.20592 0
M  V30 18057 H 1693.43 -6.45485 0.0435085 0
M  V30 18058 H 1694.2 -8.07418 1.34231 0
M  V30 18059 N 1696.86 0.307236 -1.54576 0
M  V30 18060 C 1697.79 1.40019 -1.81459 0
M  V30 18061 C 1698.8 1.47113 -0.697246 0
M  V30 18062 O 1699.99 1.49544 -0.974626 0
M  V30 18063 C 1697.09 2.78439 -1.93197 0
M  V30 18064 C 1696.27 2.94353 -3.23536 0
M  V30 18065 C 1695.32 4.13232 -3.25769 0
M  V30 18066 O 1694.35 4.05614 -3.99331 0
M  V30 18067 N 1695.55 5.23567 -2.50715 0
M  V30 18068 H 1698.32 1.17317 -2.75784 0
M  V30 18069 H 1695.88 0.497286 -1.54074 0
M  V30 18070 H 1697.87 3.56202 -1.921 0
M  V30 18071 H 1696.44 2.94117 -1.05895 0
M  V30 18072 H 1695.66 2.03754 -3.37458 0
M  V30 18073 H 1696.95 3.01892 -4.09559 0
M  V30 18074 H 1696.35 5.32635 -1.90569 0
M  V30 18075 H 1694.9 5.99687 -2.55379 0
M  V30 18076 N 1698.34 1.46926 0.570122 0
M  V30 18077 C 1699.28 1.5883 1.69929 0
M  V30 18078 C 1700.28 0.456167 1.63143 0
M  V30 18079 O 1701.48 0.633503 1.68484 0
M  V30 18080 H 1697.86 0.499606 0.562048 0
M  V30 18081 H 1699.83 2.53744 1.57023 0
M  V30 18082 C 1698.58 1.60761 3.08304 0
M  V30 18083 H 1697.9 2.47219 3.14202 0
M  V30 18084 H 1699.34 1.73142 3.87037 0
M  V30 18085 C 1697.8 0.338515 3.35195 0
M  V30 18086 O 1698.33 -0.565917 3.97694 0
M  V30 18087 N 1696.54 0.222525 2.89747 0
M  V30 18088 H 1696.08 0.959435 2.39066 0
M  V30 18089 H 1696.04 -0.625697 3.08111 0
M  V30 18090 N 1699.82 -0.815801 1.34842 0
M  V30 18091 C 1701.06 -1.58588 1.28955 0
M  V30 18092 C 1701.42 -1.91512 -0.136769 0
M  V30 18093 O 1702.62 -2.6689 -0.319903 0
M  V30 18094 C 1700.89 -2.84584 2.1621 0
M  V30 18095 S 1702.45 -3.75069 2.27747 0
M  V30 18096 H 1699.27 -0.543479 0.458422 0
M  V30 18097 H 1701.87 -0.96306 1.70133 0
M  V30 18098 H 1700.57 -2.58405 3.18834 0
M  V30 18099 H 1700.11 -3.51857 1.75954 0
M  V30 18100 H 1702.12 -4.74373 1.45549 0
M  V30 18101 N 1701.29 -1.18689 -1.03686 0
M  V30 18102 C 1702.2 -0.932473 -2.15272 0
M  V30 18103 C 1703.22 0.104751 -1.73684 0
M  V30 18104 O 1704.4 -0.0780471 -2.01249 0
M  V30 18105 C 1701.46 -0.465807 -3.43557 0
M  V30 18106 C 1700.52 -1.57146 -3.99504 0
M  V30 18107 C 1699.75 -1.12696 -5.21666 0
M  V30 18108 O 1699.98 0.0127657 -5.70399 0
M  V30 18109 O 1698.91 -1.92627 -5.70244 0
M  V30 18110 H 1702.74 -1.86626 -2.39592 0
M  V30 18111 H 1700.32 -0.969029 -1.13711 0
M  V30 18112 H 1702.2 -0.213819 -4.20857 0
M  V30 18113 H 1700.88 0.43964 -3.20701 0
M  V30 18114 H 1699.79 -1.8775 -3.23575 0
M  V30 18115 H 1701.12 -2.45317 -4.26709 0
M  V30 18116 N 1702.77 1.22662 -0.989529 0
M  V30 18117 C 1703.7 2.26762 -0.556891 0
M  V30 18118 C 1704.68 1.64971 0.414538 0
M  V30 18119 O 1705.87 1.91775 0.305909 0
M  V30 18120 C 1703 3.47047 0.132573 0
M  V30 18121 C 1701.95 4.21251 -0.757058 0
M  V30 18122 C 1701.28 5.3466 0.065134 0
M  V30 18123 C 1702.58 4.8029 -2.05229 0
M  V30 18124 H 1704.27 2.63204 -1.42703 0
M  V30 18125 H 1701.82 1.26522 -0.687614 0
M  V30 18126 H 1703.77 4.19027 0.446609 0
M  V30 18127 H 1702.49 3.09692 1.03723 0
M  V30 18128 H 1701.15 3.51101 -1.05469 0
M  V30 18129 H 1700.8 4.93547 0.970607 0
M  V30 18130 H 1700.5 5.85231 -0.527063 0
M  V30 18131 H 1702.03 6.09458 0.373342 0
M  V30 18132 H 1703.44 5.44229 -1.80242 0
M  V30 18133 H 1701.84 5.41186 -2.59302 0
M  V30 18134 H 1702.91 4.00529 -2.73322 0
M  V30 18135 N 1704.25 0.762308 1.37937 0
M  V30 18136 C 1705.53 0.247502 1.94028 0
M  V30 18137 C 1705.91 -1.25581 1.69684 0
M  V30 18138 O 1705.25 -2.03446 1.04028 0
M  V30 18139 C 1705.46 0.610643 3.43616 0
M  V30 18140 C 1706.81 0.57515 4.20687 0
M  V30 18141 O 1707.84 0.549461 3.51937 0
M  V30 18142 O 1706.7 0.593825 5.43264 0
M  V30 18143 H 1703.79 0.0544389 0.825206 0
M  V30 18144 H 1706.34 0.843021 1.47279 0
M  V30 18145 H 1705.11 1.64853 3.54879 0
M  V30 18146 H 1704.73 -0.0124265 3.97598 0
M  V30 18147 N 1705.73 -1.49049 0.51208 0
M  V30 18148 C 1706.67 -2.29326 -0.260408 0
M  V30 18149 C 1707.64 -1.36232 -0.950265 0
M  V30 18150 O 1708.83 -1.65193 -0.954777 0
M  V30 18151 C 1705.97 -3.19177 -1.31225 0
M  V30 18152 C 1705.08 -4.27336 -0.63305 0
M  V30 18153 C 1704.22 -5.04389 -1.66628 0
M  V30 18154 C 1703.26 -6.04372 -0.969561 0
M  V30 18155 N 1702.39 -6.74549 -1.94751 0
M  V30 18156 H 1707.23 -2.94876 0.430384 0
M  V30 18157 H 1704.77 -1.45383 0.224086 0
M  V30 18158 H 1706.73 -3.69655 -1.9342 0
M  V30 18159 H 1705.36 -2.55588 -1.97166 0
M  V30 18160 H 1704.41 -3.80262 0.102433 0
M  V30 18161 H 1705.72 -4.98727 -0.0851363 0
M  V30 18162 H 1704.88 -5.58791 -2.36299 0
M  V30 18163 H 1703.62 -4.32797 -2.24807 0
M  V30 18164 H 1702.62 -5.49191 -0.25869 0
M  V30 18165 H 1703.85 -6.77955 -0.394125 0
M  V30 18166 H 1701.79 -6.0572 -2.5187 0
M  V30 18167 H 1701.71 -7.41954 -1.45055 0
M  V30 18168 H 1702.98 -7.3355 -2.63675 0
M  V30 18169 N 1707.21 -0.246397 -1.55662 0
M  V30 18170 C 1708.15 0.66961 -2.22753 0
M  V30 18171 C 1709.15 1.18048 -1.21495 0
M  V30 18172 O 1710.35 1.13743 -1.39508 0
M  V30 18173 H 1706.73 0.234421 -0.714529 0
M  V30 18174 H 1708.7 0.0805962 -2.98291 0
M  V30 18175 C 1707.45 1.8558 -2.94033 0
M  V30 18176 H 1706.77 1.47184 -3.71721 0
M  V30 18177 H 1708.21 2.47397 -3.44341 0
M  V30 18178 C 1706.67 2.72664 -1.97879 0
M  V30 18179 O 1707.2 3.72177 -1.51154 0
M  V30 18180 N 1705.41 2.3922 -1.64991 0
M  V30 18181 H 1704.95 1.58348 -2.03184 0
M  V30 18182 H 1704.91 2.97762 -1.00922 0
M  V30 18183 N 1708.68 1.57577 0.026722 0
M  V30 18184 C 1709.62 2.03515 1.05424 0
M  V30 18185 C 1710.63 0.948362 1.32325 0
M  V30 18186 O 1711.82 1.22563 1.29771 0
M  V30 18187 C 1708.92 2.39744 2.39533 0
M  V30 18188 C 1708.09 3.70832 2.31954 0
M  V30 18189 C 1707.15 3.94224 3.48531 0
M  V30 18190 O 1706.18 4.6525 3.27919 0
M  V30 18191 N 1707.38 3.40044 4.70479 0
M  V30 18192 H 1710.14 2.92282 0.662678 0
M  V30 18193 H 1707.7 1.60471 0.214623 0
M  V30 18194 H 1709.7 2.52529 3.16245 0
M  V30 18195 H 1708.27 1.56636 2.70525 0
M  V30 18196 H 1707.49 3.68378 1.40325 0
M  V30 18197 H 1708.77 4.56821 2.24035 0
M  V30 18198 H 1708.17 2.82478 4.90125 0
M  V30 18199 H 1706.73 3.58205 5.44548 0
M  V30 18200 N 1710.16 -0.299034 1.54737 0
M  V30 18201 C 1711.58 -0.644805 1.45995 0
M  V30 18202 C 1711.78 -1.90634 0.652749 0
M  V30 18203 O 1710.83 -2.51985 0.161228 0
M  V30 18204 C 1712.15 -0.795974 2.89974 0
M  V30 18205 C 1713.69 -0.891731 3.00029 0
M  V30 18206 C 1714.17 -1.07488 4.45208 0
M  V30 18207 N 1715.66 -1.14104 4.48926 0
M  V30 18208 C 1716.4 -1.30108 5.58444 0
M  V30 18209 N 1715.89 -1.42998 6.77882 0
M  V30 18210 N 1717.68 -1.33012 5.46136 0
M  V30 18211 H 1709.84 0.529806 2.05686 0
M  V30 18212 H 1712.1 0.175406 0.931631 0
M  V30 18213 H 1711.8 0.0601375 3.51649 0
M  V30 18214 H 1711.68 -1.68437 3.37504 0
M  V30 18215 H 1714.07 -1.73833 2.38466 0
M  V30 18216 H 1714.15 0.0207194 2.55792 0
M  V30 18217 H 1713.79 -0.233045 5.07365 0
M  V30 18218 H 1713.72 -2.00159 4.87077 0
M  V30 18219 H 1716.21 -1.05488 3.62878 0
M  V30 18220 H 1716.52 -1.5497 7.57102 0
M  V30 18221 H 1714.87 -1.4005 6.80743 0
M  V30 18222 H 1718.06 -1.22555 4.51772 0
M  V30 18223 H 1718.23 -1.45141 6.31536 0
M  V30 18224 N 1711.64 -1.47227 -0.562322 0
M  V30 18225 C 1712.57 -1.55383 -1.6849 0
M  V30 18226 C 1713.58 -0.440437 -1.56729 0
M  V30 18227 O 1714.77 -0.709803 -1.63781 0
M  V30 18228 C 1711.87 -1.43723 -3.06915 0
M  V30 18229 C 1711.05 -2.69541 -3.4448 0
M  V30 18230 C 1710.11 -2.5179 -4.62048 0
M  V30 18231 O 1709.13 -3.25587 -4.66885 0
M  V30 18232 N 1710.33 -1.59282 -5.5822 0
M  V30 18233 H 1713.1 -2.52181 -1.61941 0
M  V30 18234 H 1710.66 -1.43541 -0.748832 0
M  V30 18235 H 1712.65 -1.2959 -3.83391 0
M  V30 18236 H 1711.22 -0.550272 -3.07719 0
M  V30 18237 H 1710.44 -2.98472 -2.57504 0
M  V30 18238 H 1711.73 -3.53079 -3.66351 0
M  V30 18239 H 1711.13 -0.984666 -5.57064 0
M  V30 18240 H 1709.68 -1.51103 -6.34043 0
M  V30 18241 N 1713.12 0.808639 -1.35273 0
M  V30 18242 C 1714.36 1.57901 -1.29794 0
M  V30 18243 C 1714.72 1.91582 0.126611 0
M  V30 18244 O 1715.92 2.67056 0.305745 0
M  V30 18245 C 1714.19 2.83433 -2.17716 0
M  V30 18246 S 1715.75 3.73856 -2.29732 0
M  V30 18247 H 1712.57 0.541041 -0.461298 0
M  V30 18248 H 1715.17 0.954024 -1.70642 0
M  V30 18249 H 1713.88 2.5671 -3.202 0
M  V30 18250 H 1713.41 3.50919 -1.77818 0
M  V30 18251 H 1715.42 4.73595 -1.48063 0
M  V30 18252 N 1714.6 1.19237 1.03055 0
M  V30 18253 C 1715.84 0.995444 1.76688 0
M  V30 18254 C 1716.18 -0.472805 1.88357 0
M  V30 18255 O 1715.45 -1.3511 1.39913 0
M  V30 18256 C 1715.73 1.66308 3.19396 0
M  V30 18257 C 1715.59 3.20486 3.15609 0
M  V30 18258 C 1716.91 1.38468 4.17749 0
M  V30 18259 H 1714.02 0.36304 0.641382 0
M  V30 18260 H 1716.67 1.47052 1.20315 0
M  V30 18261 H 1714.82 1.25915 3.67529 0
M  V30 18262 H 1716.49 3.70081 2.75387 0
M  V30 18263 H 1714.73 3.52118 2.53369 0
M  V30 18264 H 1715.4 3.62345 4.16426 0
M  V30 18265 H 1717.88 1.73485 3.78209 0
M  V30 18266 H 1716.75 1.87735 5.15797 0
M  V30 18267 H 1717.02 0.309505 4.41015 0
M  V30 18268 N 1716.07 -1.22136 0.99602 0
M  V30 18269 C 1716.98 -2.27869 0.557927 0
M  V30 18270 C 1718 -1.69462 -0.394781 0
M  V30 18271 O 1719.18 -1.99704 -0.26084 0
M  V30 18272 C 1716.24 -3.46501 -0.117434 0
M  V30 18273 C 1715.3 -4.20213 0.878627 0
M  V30 18274 C 1714.54 -5.33181 0.2354 0
M  V30 18275 O 1714.76 -5.62093 -0.969954 0
M  V30 18276 O 1713.69 -5.94486 0.941828 0
M  V30 18277 H 1717.52 -2.67517 1.43765 0
M  V30 18278 H 1715.1 -1.28362 0.764428 0
M  V30 18279 H 1716.99 -4.18476 -0.49559 0
M  V30 18280 H 1715.66 -3.08772 -0.971674 0
M  V30 18281 H 1714.57 -3.50497 1.30777 0
M  V30 18282 H 1715.9 -4.6183 1.70217 0
M  V30 18283 N 1717.55 -0.769612 -1.37531 0
M  V30 18284 C 1718.78 -0.343783 -2.0372 0
M  V30 18285 C 1719.19 1.03816 -1.58173 0
M  V30 18286 O 1718.53 1.6736 -0.75739 0
M  V30 18287 C 1718.6 -0.305844 -3.58197 0
M  V30 18288 C 1718.26 -1.63202 -4.26866 0
M  V30 18289 C 1719.26 -2.58408 -4.51133 0
M  V30 18290 C 1716.94 -1.90587 -4.64739 0
M  V30 18291 C 1718.94 -3.79208 -5.12328 0
M  V30 18292 C 1716.62 -3.11657 -5.25655 0
M  V30 18293 C 1717.62 -4.05788 -5.49386 0
M  V30 18294 O 1717.31 -5.24727 -6.09029 0
M  V30 18295 H 1717.04 -0.142358 -0.66084 0
M  V30 18296 H 1719.59 -1.04399 -1.7689 0
M  V30 18297 H 1717.82 0.450724 -3.84064 0
M  V30 18298 H 1719.51 0.0926269 -4.05794 0
M  V30 18299 H 1720.28 -2.38532 -4.22288 0
M  V30 18300 H 1716.16 -1.18148 -4.45603 0
M  V30 18301 H 1719.7 -4.52694 -5.30767 0
M  V30 18302 H 1715.6 -3.3142 -5.53924 0
M  V30 18303 H 1716.37 -5.25523 -6.27509 0
M  V30 18304 N 1719.03 1.48775 -0.519977 0
M  V30 18305 C 1719.99 2.27967 0.237405 0
M  V30 18306 C 1720.99 1.34787 0.876868 0
M  V30 18307 O 1722.18 1.57773 0.738463 0
M  V30 18308 C 1719.32 3.13353 1.34248 0
M  V30 18309 H 1720.51 2.96386 -0.457753 0
M  V30 18310 H 1718.06 1.53852 -0.275569 0
M  V30 18311 H 1718.8 2.49543 2.0712 0
M  V30 18312 H 1718.58 3.81885 0.889187 0
M  V30 18313 H 1720.07 3.73116 1.87547 0
M  V30 18314 N 1720.51 0.254649 1.55529 0
M  V30 18315 C 1721.44 -0.635656 2.24681 0
M  V30 18316 C 1722.42 -1.17519 1.22977 0
M  V30 18317 O 1723.6 -1.21311 1.51649 0
M  V30 18318 C 1720.73 -1.82922 2.95224 0
M  V30 18319 C 1719.69 -1.42212 4.03683 0
M  V30 18320 C 1719.01 -2.69713 4.61691 0
M  V30 18321 C 1720.31 -0.587436 5.18986 0
M  V30 18322 H 1722.01 -0.0590063 2.99342 0
M  V30 18323 H 1719.55 -0.02694 1.43975 0
M  V30 18324 H 1721.51 -2.45777 3.42304 0
M  V30 18325 H 1720.23 -2.43137 2.18064 0
M  V30 18326 H 1718.89 -0.81687 3.57383 0
M  V30 18327 H 1718.54 -3.28143 3.81223 0
M  V30 18328 H 1718.24 -2.43194 5.34911 0
M  V30 18329 H 1719.76 -3.33453 5.11509 0
M  V30 18330 H 1721.18 -1.12048 5.62244 0
M  V30 18331 H 1719.57 -0.417988 5.98643 0
M  V30 18332 H 1720.64 0.398577 4.83259 0
M  V30 18333 N 1721.99 -1.57589 -0.0183649 0
M  V30 18334 C 1722.93 -2.07252 -1.01563 0
M  V30 18335 C 1723.9 -0.963941 -1.35268 0
M  V30 18336 O 1725.09 -1.2352 -1.45421 0
M  V30 18337 C 1722.23 -2.56548 -2.30818 0
M  V30 18338 C 1721.34 -3.81238 -2.03178 0
M  V30 18339 C 1720.48 -4.19105 -3.26381 0
M  V30 18340 C 1719.52 -5.36682 -2.94344 0
M  V30 18341 N 1718.65 -5.6993 -4.1003 0
M  V30 18342 H 1723.49 -2.92198 -0.585179 0
M  V30 18343 H 1721.03 -1.44462 -0.27731 0
M  V30 18344 H 1722.99 -2.832 -3.06355 0
M  V30 18345 H 1721.62 -1.74504 -2.71566 0
M  V30 18346 H 1720.67 -3.61606 -1.1809 0
M  V30 18347 H 1721.98 -4.66886 -1.75552 0
M  V30 18348 H 1721.14 -4.46942 -4.10278 0
M  V30 18349 H 1719.87 -3.32129 -3.57129 0
M  V30 18350 H 1718.88 -5.08587 -2.08851 0
M  V30 18351 H 1720.1 -6.2532 -2.64862 0
M  V30 18352 H 1718.05 -4.85913 -4.40709 0
M  V30 18353 H 1717.97 -6.50111 -3.85865 0
M  V30 18354 H 1719.24 -6.02349 -4.94768 0
M  V30 18355 N 1723.46 0.290824 -1.54893 0
M  V30 18356 C 1724.43 1.34215 -1.85793 0
M  V30 18357 C 1725.43 1.43204 -0.731393 0
M  V30 18358 O 1726.62 1.42663 -0.999647 0
M  V30 18359 C 1723.75 2.72577 -2.0473 0
M  V30 18360 H 1724.94 1.08056 -2.79757 0
M  V30 18361 H 1722.5 0.528008 -1.47111 0
M  V30 18362 H 1723.23 3.03943 -1.13088 0
M  V30 18363 H 1723.02 2.67442 -2.86736 0
M  V30 18364 H 1724.51 3.48573 -2.29971 0
M  V30 18365 N 1724.94 1.47523 0.554506 0
M  V30 18366 C 1725.87 1.56275 1.67663 0
M  V30 18367 C 1726.89 0.448743 1.56493 0
M  V30 18368 O 1728.08 0.718478 1.63402 0
M  V30 18369 C 1725.18 1.45348 3.06149 0
M  V30 18370 C 1724.35 2.71364 3.43046 0
M  V30 18371 C 1723.41 2.54237 4.60706 0
M  V30 18372 O 1722.43 3.28059 4.65152 0
M  V30 18373 N 1723.64 1.6224 5.57367 0
M  V30 18374 H 1726.4 2.53036 1.60601 0
M  V30 18375 H 1723.96 1.43936 0.741209 0
M  V30 18376 H 1725.95 1.31621 3.82698 0
M  V30 18377 H 1724.52 0.566583 3.07423 0
M  V30 18378 H 1723.74 2.99833 2.55917 0
M  V30 18379 H 1725.03 3.55017 3.64473 0
M  V30 18380 H 1724.43 1.01419 5.56534 0
M  V30 18381 H 1722.99 1.54463 6.33233 0
M  V30 18382 N 1726.42 -0.801453 1.357 0
M  V30 18383 C 1727.83 -1.37581 1.26208 0
M  V30 18384 C 1728.18 -1.95928 -0.103326 0
M  V30 18385 O 1727.31 -1.91676 -1.00445 0
M  V30 18386 C 1727.9 -2.50122 2.28527 0
M  V30 18387 C 1726.46 -3.03405 2.2276 0
M  V30 18388 C 1725.61 -1.76401 2.13958 0
M  V30 18389 H 1728.56 -0.60407 1.46754 0
M  V30 18390 H 1728.58 -3.28814 1.91472 0
M  V30 18391 H 1728.09 -2.07626 3.27892 0
M  V30 18392 H 1726.19 -3.50352 1.26822 0
M  V30 18393 H 1726.31 -3.61038 3.14942 0
M  V30 18394 H 1724.67 -1.98158 1.60017 0
M  V30 18395 H 1725.45 -1.3605 3.15191 0
M  V30 18396 N 1727.9 -1.19782 -1.02421 0
M  V30 18397 C 1728.83 -0.963553 -2.12692 0
M  V30 18398 C 1729.81 0.104769 -1.69777 0
M  V30 18399 O 1730.99 -0.0512017 -1.94132 0
M  V30 18400 C 1728.12 -0.506525 -3.43586 0
M  V30 18401 C 1727.08 -1.51722 -4.00206 0
M  V30 18402 C 1726.4 -0.917097 -5.26776 0
M  V30 18403 C 1727.7 -2.89879 -4.34474 0
M  V30 18404 H 1729.4 -1.88579 -2.32547 0
M  V30 18405 H 1726.94 -0.908111 -1.11756 0
M  V30 18406 H 1728.9 -0.329907 -4.20107 0
M  V30 18407 H 1727.62 0.451322 -3.23467 0
M  V30 18408 H 1726.28 -1.68106 -3.25785 0
M  V30 18409 H 1725.93 0.0484457 -5.02977 0
M  V30 18410 H 1725.63 -1.59204 -5.65622 0
M  V30 18411 H 1727.15 -0.751379 -6.05959 0
M  V30 18412 H 1728.57 -2.7705 -5.01913 0
M  V30 18413 H 1726.96 -3.54209 -4.84413 0
M  V30 18414 H 1728.03 -3.42179 -3.43571 0
M  V30 18415 N 1729.38 1.21606 -1.00248 0
M  V30 18416 C 1730.79 1.42695 -0.714862 0
M  V30 18417 C 1730.99 1.88542 0.710917 0
M  V30 18418 O 1730.05 2.04535 1.48059 0
M  V30 18419 C 1731.36 2.4605 -1.72858 0
M  V30 18420 C 1732.91 2.59836 -1.74511 0
M  V30 18421 C 1733.39 3.66421 -2.74772 0
M  V30 18422 N 1734.88 3.73889 -2.73425 0
M  V30 18423 C 1735.61 4.5598 -3.47664 0
M  V30 18424 N 1735.11 5.41987 -4.31535 0
M  V30 18425 N 1736.9 4.50379 -3.36326 0
M  V30 18426 H 1729.05 0.901565 -1.92316 0
M  V30 18427 H 1731.31 0.458128 -0.829954 0
M  V30 18428 H 1731.02 2.19329 -2.74932 0
M  V30 18429 H 1730.89 3.44812 -1.5292 0
M  V30 18430 H 1733.28 2.85895 -0.731304 0
M  V30 18431 H 1733.36 1.61317 -1.98521 0
M  V30 18432 H 1733.01 3.41108 -3.76308 0
M  V30 18433 H 1732.94 4.64531 -2.48029 0
M  V30 18434 H 1735.43 3.12443 -2.12575 0
M  V30 18435 H 1735.74 6.01673 -4.84984 0
M  V30 18436 H 1734.09 5.41537 -4.35618 0
M  V30 18437 H 1737.28 3.82217 -2.70237 0
M  V30 18438 H 1737.45 5.14122 -3.9444 0
M  V30 18439 N 1730.86 0.776895 1.37121 0
M  V30 18440 C 1732.27 0.457116 1.52914 0
M  V30 18441 C 1732.47 -1.0265 1.73394 0
M  V30 18442 O 1731.53 -1.81224 1.75824 0
M  V30 18443 C 1732.84 1.27667 2.72253 0
M  V30 18444 C 1734.39 1.26909 2.86117 0
M  V30 18445 C 1734.86 2.0721 4.08446 0
M  V30 18446 N 1736.35 2.04591 4.15568 0
M  V30 18447 C 1737.09 2.63502 5.09268 0
M  V30 18448 N 1736.59 3.31222 6.08493 0
M  V30 18449 N 1738.38 2.53304 5.0179 0
M  V30 18450 H 1730.53 1.73811 1.2208 0
M  V30 18451 H 1732.79 0.738142 0.594853 0
M  V30 18452 H 1732.5 2.32825 2.63601 0
M  V30 18453 H 1732.37 0.909363 3.66074 0
M  V30 18454 H 1734.76 0.225476 2.94237 0
M  V30 18455 H 1734.84 1.67607 1.9324 0
M  V30 18456 H 1734.48 3.11595 4.01087 0
M  V30 18457 H 1734.41 1.63891 5.00447 0
M  V30 18458 H 1736.91 1.55293 3.44518 0
M  V30 18459 H 1737.22 3.73535 6.76529 0
M  V30 18460 H 1735.56 3.35322 6.08756 0
M  V30 18461 H 1738.75 2.00009 4.23218 0
M  V30 18462 H 1738.93 2.99509 5.74629 0
M  V30 18463 N 1732.33 -1.48497 0.527859 0
M  V30 18464 C 1733.56 -2.066 -0.00302155 0
M  V30 18465 C 1733.97 -1.38505 -1.28892 0
M  V30 18466 O 1733.31 -0.465745 -1.77698 0
M  V30 18467 C 1733.38 -3.58249 -0.2997 0
M  V30 18468 C 1733.04 -4.48202 0.892405 0
M  V30 18469 C 1734.04 -4.88105 1.79023 0
M  V30 18470 C 1731.72 -4.90134 1.0988 0
M  V30 18471 C 1733.72 -5.68707 2.87838 0
M  V30 18472 C 1731.4 -5.70507 2.19009 0
M  V30 18473 C 1732.4 -6.09701 3.07821 0
M  V30 18474 O 1732.09 -6.88461 4.15062 0
M  V30 18475 H 1731.82 -0.675359 0.029422 0
M  V30 18476 H 1734.38 -1.91903 0.732286 0
M  V30 18477 H 1732.61 -3.71051 -1.08895 0
M  V30 18478 H 1734.29 -3.98483 -0.772407 0
M  V30 18479 H 1735.06 -4.56333 1.64271 0
M  V30 18480 H 1730.94 -4.59112 0.416808 0
M  V30 18481 H 1734.48 -5.99219 3.57187 0
M  V30 18482 H 1730.38 -6.01692 2.33746 0
M  V30 18483 H 1731.15 -7.06812 4.12746 0
M  V30 18484 N 1733.81 -0.262893 -1.55392 0
M  V30 18485 C 1735.06 0.357939 -1.98499 0
M  V30 18486 C 1735.37 1.5789 -1.15456 0
M  V30 18487 O 1736.58 2.2719 -1.4865 0
M  V30 18488 C 1735.04 0.688205 -3.53259 0
M  V30 18489 C 1734.64 -0.512257 -4.45062 0
M  V30 18490 C 1736.39 1.27234 -4.04984 0
M  V30 18491 C 1734.29 -0.157257 -5.91191 0
M  V30 18492 H 1733.22 0.137514 -0.741354 0
M  V30 18493 H 1735.88 -0.365626 -1.79821 0
M  V30 18494 H 1734.26 1.47034 -3.67692 0
M  V30 18495 H 1735.43 -1.28935 -4.42394 0
M  V30 18496 H 1733.75 -1.0124 -4.03905 0
M  V30 18497 H 1736.34 1.55155 -5.11694 0
M  V30 18498 H 1736.69 2.20217 -3.53285 0
M  V30 18499 H 1737.22 0.552763 -3.93941 0
M  V30 18500 H 1733.96 -1.05464 -6.4696 0
M  V30 18501 H 1733.48 0.583319 -5.96957 0
M  V30 18502 H 1735.16 0.254892 -6.46498 0
M  V30 18503 N 1735.29 1.57597 0.0100073 0
M  V30 18504 C 1736.7 1.78287 0.554143 0
M  V30 18505 C 1737.05 0.896332 1.74529 0
M  V30 18506 O 1736.18 0.0961505 2.16186 0
M  V30 18507 C 1736.77 3.23331 1.01206 0
M  V30 18508 C 1735.33 3.45152 1.50157 0
M  V30 18509 C 1734.48 2.73654 0.448221 0
M  V30 18510 H 1737.43 1.57221 -0.216189 0
M  V30 18511 H 1737.45 3.30893 1.87856 0
M  V30 18512 H 1736.96 3.87829 0.144921 0
M  V30 18513 H 1735.06 2.85854 2.38994 0
M  V30 18514 H 1735.18 4.53813 1.53594 0
M  V30 18515 H 1733.54 2.3798 0.907603 0
M  V30 18516 H 1734.32 3.40846 -0.40978 0
M  V30 18517 N 1736.77 -0.282606 1.55045 0
M  V30 18518 C 1737.71 -1.34908 1.87266 0
M  V30 18519 C 1738.68 -1.49528 0.72323 0
M  V30 18520 O 1739.87 -1.6409 0.973602 0
M  V30 18521 C 1737.01 -2.70603 2.14168 0
M  V30 18522 C 1736.12 -2.64284 3.41728 0
M  V30 18523 C 1735.26 -3.92094 3.58379 0
M  V30 18524 C 1734.3 -3.80246 4.79666 0
M  V30 18525 N 1733.43 -4.99871 4.93025 0
M  V30 18526 H 1738.27 -1.06731 2.78231 0
M  V30 18527 H 1735.81 -0.515845 1.37759 0
M  V30 18528 H 1737.77 -3.49542 2.27763 0
M  V30 18529 H 1736.4 -2.97003 1.26448 0
M  V30 18530 H 1735.45 -1.77108 3.36656 0
M  V30 18531 H 1736.76 -2.51425 4.30798 0
M  V30 18532 H 1735.92 -4.79473 3.7174 0
M  V30 18533 H 1734.66 -4.07808 2.67476 0
M  V30 18534 H 1733.66 -2.91251 4.66319 0
M  V30 18535 H 1734.89 -3.6606 5.71994 0
M  V30 18536 H 1732.83 -5.16014 4.0505 0
M  V30 18537 H 1732.75 -4.89507 5.76124 0
M  V30 18538 H 1734.02 -5.88849 5.10761 0
M  V30 18539 N 1738.25 -1.47815 -0.546675 0
M  V30 18540 C 1739.19 -1.61513 -1.67381 0
M  V30 18541 C 1740.19 -0.482064 -1.62396 0
M  V30 18542 O 1741.39 -0.660227 -1.67454 0
M  V30 18543 H 1737.77 -0.508484 -0.554029 0
M  V30 18544 H 1739.74 -2.5621 -1.52967 0
M  V30 18545 C 1738.49 -1.65645 -3.05707 0
M  V30 18546 H 1737.81 -2.52186 -3.10229 0
M  V30 18547 H 1739.25 -1.79277 -3.84234 0
M  V30 18548 C 1737.71 -0.391799 -3.34614 0
M  V30 18549 O 1738.24 0.502576 -3.98544 0
M  V30 18550 N 1736.45 -0.268593 -2.89356 0
M  V30 18551 H 1735.99 -0.997347 -2.37509 0
M  V30 18552 H 1735.95 0.5766 -3.09067 0
M  V30 18553 N 1739.72 0.794246 -1.36123 0
M  V30 18554 C 1741.13 1.36909 -1.26936 0
M  V30 18555 C 1741.49 1.9598 0.0929337 0
M  V30 18556 O 1740.61 1.92206 0.994266 0
M  V30 18557 C 1741.21 2.48906 -2.2985 0
M  V30 18558 C 1739.76 3.0222 -2.24366 0
M  V30 18559 C 1738.91 1.75264 -2.1489 0
M  V30 18560 H 1741.86 0.596278 -1.47072 0
M  V30 18561 H 1741.88 3.27794 -1.93213 0
M  V30 18562 H 1741.4 2.05884 -3.28988 0
M  V30 18563 H 1739.5 3.49675 -1.28679 0
M  V30 18564 H 1739.61 3.59363 -3.16852 0
M  V30 18565 H 1737.97 1.97306 -1.61066 0
M  V30 18566 H 1738.76 1.34377 -3.15908 0
M  V30 18567 N 1741.2 1.20323 1.01785 0
M  V30 18568 C 1742.15 0.918588 2.08677 0
M  V30 18569 C 1743.14 -0.121089 1.60444 0
M  V30 18570 O 1744.33 0.086115 1.7679 0
M  V30 18571 C 1741.46 0.471136 3.40052 0
M  V30 18572 C 1740.54 1.54417 3.94989 0
M  V30 18573 N 1740.93 2.76628 4.23451 0
M  V30 18574 C 1739.23 1.41004 4.23124 0
M  V30 18575 C 1739.93 3.45834 4.67733 0
M  V30 18576 N 1738.91 2.73245 4.69934 0
M  V30 18577 H 1742.71 1.84727 2.28589 0
M  V30 18578 H 1740.22 1.09705 1.19744 0
M  V30 18579 H 1742.22 0.248624 4.16158 0
M  V30 18580 H 1740.88 -0.450936 3.21553 0
M  V30 18581 H 1741.89 3.13291 4.12395 0
M  V30 18582 H 1738.57 0.552281 4.13831 0
M  V30 18583 H 1739.96 4.50404 4.98584 0
M  V30 18584 N 1742.68 -1.21073 1.00892 0
M  V30 18585 C 1743.61 -2.22968 0.530841 0
M  V30 18586 C 1744.62 -1.58239 -0.382664 0
M  V30 18587 O 1745.81 -1.77567 -0.182237 0
M  V30 18588 C 1742.91 -3.37991 -0.248096 0
M  V30 18589 C 1742.09 -4.32309 0.665439 0
M  V30 18590 C 1741.15 -5.2616 -0.0645731 0
M  V30 18591 O 1740.17 -5.66484 0.555383 0
M  V30 18592 N 1741.37 -5.64777 -1.3419 0
M  V30 18593 H 1744.14 -2.64614 1.4071 0
M  V30 18594 H 1741.7 -1.35536 0.885528 0
M  V30 18595 H 1743.69 -3.97774 -0.745513 0
M  V30 18596 H 1742.26 -2.95297 -1.02558 0
M  V30 18597 H 1741.48 -3.70607 1.34329 0
M  V30 18598 H 1742.77 -4.92254 1.28701 0
M  V30 18599 H 1742.17 -5.34016 -1.86664 0
M  V30 18600 H 1740.72 -6.26905 -1.78419 0
M  V30 18601 N 1744.16 -0.784156 -1.36707 0
M  V30 18602 C 1745.39 -0.365371 -2.03344 0
M  V30 18603 C 1745.8 1.02133 -1.59266 0
M  V30 18604 O 1745.14 1.66547 -0.775098 0
M  V30 18605 C 1745.2 -0.343819 -3.57852 0
M  V30 18606 C 1744.87 -1.6772 -4.25111 0
M  V30 18607 C 1745.86 -2.63179 -4.48367 0
M  V30 18608 C 1743.55 -1.95505 -4.62691 0
M  V30 18609 C 1745.54 -3.84621 -5.08277 0
M  V30 18610 C 1743.23 -3.17215 -5.2232 0
M  V30 18611 C 1744.23 -4.11592 -5.45052 0
M  V30 18612 O 1743.91 -5.31157 -6.0343 0
M  V30 18613 H 1743.65 -0.14936 -0.659293 0
M  V30 18614 H 1746.2 -1.06269 -1.75772 0
M  V30 18615 H 1744.43 0.409964 -3.84521 0
M  V30 18616 H 1746.12 0.0495818 -4.0587 0
M  V30 18617 H 1746.89 -2.42998 -4.19735 0
M  V30 18618 H 1742.76 -1.22867 -4.44325 0
M  V30 18619 H 1746.31 -4.58298 -5.25936 0
M  V30 18620 H 1742.21 -3.37276 -5.50377 0
M  V30 18621 H 1742.97 -5.32149 -6.219 0
M  V30 18622 N 1745.64 1.48215 -0.535727 0
M  V30 18623 C 1747.05 1.58417 -0.193977 0
M  V30 18624 C 1747.25 1.53705 1.30296 0
M  V30 18625 O 1746.31 1.42913 2.08164 0
M  V30 18626 C 1747.62 2.89819 -0.8016 0
M  V30 18627 C 1749.17 3.03359 -0.770858 0
M  V30 18628 C 1749.64 4.3743 -1.35716 0
M  V30 18629 N 1751.14 4.44012 -1.31938 0
M  V30 18630 C 1751.87 5.4627 -1.74287 0
M  V30 18631 N 1751.37 6.55454 -2.24393 0
M  V30 18632 N 1753.16 5.37187 -1.65489 0
M  V30 18633 H 1745.31 1.49521 -1.50855 0
M  V30 18634 H 1747.57 0.710306 -0.627829 0
M  V30 18635 H 1747.28 2.98939 -1.85278 0
M  V30 18636 H 1747.15 3.76144 -0.282036 0
M  V30 18637 H 1749.54 2.93848 0.271577 0
M  V30 18638 H 1749.62 2.1863 -1.32795 0
M  V30 18639 H 1749.27 4.47696 -2.39855 0
M  V30 18640 H 1749.2 5.20856 -0.775696 0
M  V30 18641 H 1751.69 3.65695 -0.952653 0
M  V30 18642 H 1752 7.29626 -2.54686 0
M  V30 18643 H 1750.34 6.56402 -2.2839 0
M  V30 18644 H 1753.54 4.50785 -1.26138 0
M  V30 18645 H 1753.71 6.16747 -1.98814 0
M  V30 18646 N 1747.11 0.27113 1.5525 0
M  V30 18647 C 1748.36 -0.347304 1.99804 0
M  V30 18648 C 1748.69 -1.55803 1.15928 0
M  V30 18649 O 1747.97 -1.93154 0.228386 0
M  V30 18650 C 1748.25 -0.733408 3.52552 0
M  V30 18651 C 1748.1 0.48438 4.47184 0
M  V30 18652 C 1749.42 -1.57136 4.11092 0
M  V30 18653 H 1746.54 -0.124762 0.726363 0
M  V30 18654 H 1749.18 0.37728 1.86217 0
M  V30 18655 H 1747.33 -1.35076 3.64262 0
M  V30 18656 H 1749.01 1.12293 4.47424 0
M  V30 18657 H 1747.25 1.12317 4.19008 0
M  V30 18658 H 1747.92 0.170525 5.51737 0
M  V30 18659 H 1750.4 -1.05001 4.02634 0
M  V30 18660 H 1749.27 -1.81033 5.18187 0
M  V30 18661 H 1749.53 -2.55111 3.61069 0
M  V30 18662 N 1748.59 -1.576 -0.00164943 0
M  V30 18663 C 1749.84 -1.91617 -0.682236 0
M  V30 18664 C 1750.19 -0.872639 -1.71472 0
M  V30 18665 O 1749.49 0.11537 -1.91252 0
M  V30 18666 C 1749.68 -3.30147 -1.36886 0
M  V30 18667 C 1749.51 -4.47878 -0.404393 0
M  V30 18668 C 1748.28 -5.05298 -0.0153944 0
M  V30 18669 C 1750.48 -5.13249 0.328688 0
M  V30 18670 N 1748.46 -6.06545 0.947457 0
M  V30 18671 C 1749.83 -6.09311 1.14628 0
M  V30 18672 C 1751.89 -4.96349 0.392701 0
M  V30 18673 C 1750.59 -6.90294 2.02204 0
M  V30 18674 C 1752.61 -5.77916 1.25569 0
M  V30 18675 C 1751.98 -6.7357 2.06113 0
M  V30 18676 H 1748.08 -0.74956 -0.2229 0
M  V30 18677 H 1750.66 -1.94613 0.0583106 0
M  V30 18678 H 1748.83 -3.28029 -2.07971 0
M  V30 18679 H 1750.56 -3.51599 -2.00401 0
M  V30 18680 H 1747.32 -4.72045 -0.383417 0
M  V30 18681 H 1747.74 -6.6185 1.4242 0
M  V30 18682 H 1752.38 -4.22249 -0.215731 0
M  V30 18683 H 1750.1 -7.6372 2.64116 0
M  V30 18684 H 1753.69 -5.66881 1.30911 0
M  V30 18685 H 1752.57 -7.35587 2.71811 0
M  V30 18686 N 1750.07 0.274379 -1.55193 0
M  V30 18687 C 1751.03 1.32237 -1.87206 0
M  V30 18688 C 1752.03 1.4242 -0.74654 0
M  V30 18689 O 1753.22 1.41595 -1.01472 0
M  V30 18690 C 1750.36 2.7039 -2.0761 0
M  V30 18691 H 1751.55 1.05083 -2.80887 0
M  V30 18692 H 1749.1 0.512375 -1.47663 0
M  V30 18693 H 1749.84 3.02727 -1.16306 0
M  V30 18694 H 1749.62 2.64385 -2.89556 0
M  V30 18695 H 1751.11 3.46114 -2.33655 0
M  V30 18696 N 1751.55 1.48103 0.538828 0
M  V30 18697 C 1752.78 1.59316 1.32008 0
M  V30 18698 C 1753.19 0.250107 1.87136 0
M  V30 18699 O 1752.55 -0.759358 1.65952 0
M  V30 18700 C 1752.6 2.63287 2.47714 0
M  V30 18701 O 1752.32 3.92379 1.9486 0
M  V30 18702 C 1753.82 2.84856 3.39664 0
M  V30 18703 H 1751.04 0.53743 0.401758 0
M  V30 18704 H 1753.59 1.93864 0.65092 0
M  V30 18705 H 1751.74 2.31621 3.10532 0
M  V30 18706 H 1752.15 4.49346 2.70534 0
M  V30 18707 H 1753.63 3.61426 4.17223 0
M  V30 18708 H 1754.11 1.93352 3.9435 0
M  V30 18709 H 1754.71 3.17791 2.82647 0
M  V30 18710 N 1753.03 -0.787016 1.36542 0
M  V30 18711 C 1754.27 -1.54728 1.311 0
M  V30 18712 C 1754.61 -1.93895 -0.108853 0
M  V30 18713 O 1753.88 -1.62896 -1.06278 0
M  V30 18714 C 1754.16 -2.82272 2.23594 0
M  V30 18715 C 1754.02 -2.49457 3.74287 0
M  V30 18716 C 1755.34 -3.84112 2.14816 0
M  V30 18717 H 1752.45 -0.561347 0.477555 0
M  V30 18718 H 1755.1 -0.904027 1.67115 0
M  V30 18719 H 1753.25 -3.37163 1.93011 0
M  V30 18720 H 1754.92 -2.00599 4.15401 0
M  V30 18721 H 1753.16 -1.82366 3.93605 0
M  V30 18722 H 1753.83 -3.40563 4.3442 0
M  V30 18723 H 1756.31 -3.38674 2.41741 0
M  V30 18724 H 1755.18 -4.71101 2.817 0
M  V30 18725 H 1755.45 -4.2725 1.13621 0
M  V30 18726 N 1754.5 -1.20861 -1.01145 0
M  V30 18727 C 1755.45 -0.959005 -2.1191 0
M  V30 18728 C 1756.45 0.0914738 -1.69153 0
M  V30 18729 O 1757.65 -0.0593443 -1.79902 0
M  V30 18730 H 1754.03 -0.292825 -0.692645 0
M  V30 18731 H 1756 -1.89937 -2.30145 0
M  V30 18732 C 1754.75 -0.533258 -3.43586 0
M  V30 18733 H 1754.07 -1.33319 -3.76917 0
M  V30 18734 H 1755.51 -0.397868 -4.22129 0
M  V30 18735 C 1753.97 0.755011 -3.28331 0
M  V30 18736 O 1754.5 1.81217 -3.58502 0
M  V30 18737 N 1752.71 0.719026 -2.81564 0
M  V30 18738 H 1752.25 -0.141544 -2.57211 0
M  V30 18739 H 1752.21 1.58132 -2.71738 0
M  V30 18740 N 1755.98 1.20536 -1.01532 0
M  V30 18741 C 1757.21 1.94393 -0.722908 0
M  V30 18742 C 1757.63 1.74191 0.709857 0
M  V30 18743 O 1756.99 1.03538 1.48827 0
M  V30 18744 C 1757.04 3.44597 -1.06231 0
M  V30 18745 O 1756.14 4.12036 -0.173286 0
M  V30 18746 H 1755.48 0.607361 -0.268345 0
M  V30 18747 H 1758.01 1.53003 -1.35835 0
M  V30 18748 H 1758.02 3.95212 -1.01348 0
M  V30 18749 H 1756.7 3.58624 -2.10621 0
M  V30 18750 H 1755.28 3.71851 -0.27953 0
M  V30 18751 N 1757.46 0.791395 1.36289 0
M  V30 18752 C 1758.42 0.197069 2.28351 0
M  V30 18753 C 1759.42 -0.606748 1.48913 0
M  V30 18754 O 1760.61 -0.427453 1.68874 0
M  V30 18755 C 1757.75 -0.727009 3.33058 0
M  V30 18756 H 1758.94 1.00885 2.82422 0
M  V30 18757 H 1756.49 0.560959 1.45887 0
M  V30 18758 H 1757.23 -1.56306 2.84146 0
M  V30 18759 H 1757.01 -0.152537 3.91803 0
M  V30 18760 H 1758.5 -1.13765 4.01805 0
M  V30 18761 N 1758.94 -1.47929 0.54358 0
M  V30 18762 C 1759.9 -2.28316 -0.201107 0
M  V30 18763 C 1760.9 -1.36165 -0.855313 0
M  V30 18764 O 1762.09 -1.58928 -0.71327 0
M  V30 18765 C 1759.22 -3.1545 -1.29245 0
M  V30 18766 H 1760.42 -2.9562 0.504848 0
M  V30 18767 H 1757.97 -1.53394 0.300011 0
M  V30 18768 H 1758.71 -2.52807 -2.03124 0
M  V30 18769 H 1758.49 -3.83251 -0.82832 0
M  V30 18770 H 1759.98 -3.76053 -1.81587 0
M  V30 18771 N 1760.42 -0.27936 -1.55104 0
M  V30 18772 C 1761.66 0.336205 -1.9969 0
M  V30 18773 C 1761.99 1.55542 -1.16777 0
M  V30 18774 O 1761.25 1.94385 -0.226497 0
M  V30 18775 C 1761.55 0.758312 -3.49263 0
M  V30 18776 C 1761.21 -0.356741 -4.49487 0
M  V30 18777 C 1759.87 -0.662905 -4.76612 0
M  V30 18778 C 1762.23 -1.10789 -5.09289 0
M  V30 18779 C 1759.55 -1.72373 -5.60807 0
M  V30 18780 C 1761.91 -2.15847 -5.94637 0
M  V30 18781 C 1760.57 -2.47094 -6.20081 0
M  V30 18782 H 1759.84 0.123026 -0.730716 0
M  V30 18783 H 1762.49 -0.393956 -1.87404 0
M  V30 18784 H 1760.79 1.56822 -3.59046 0
M  V30 18785 H 1762.49 1.24541 -3.8117 0
M  V30 18786 H 1759.08 -0.107997 -4.28464 0
M  V30 18787 H 1763.26 -0.884619 -4.88353 0
M  V30 18788 H 1758.52 -1.97079 -5.78766 0
M  V30 18789 H 1762.69 -2.74523 -6.40008 0
M  V30 18790 H 1760.32 -3.29428 -6.85114 0
M  V30 18791 N 1761.9 1.57599 -0.0067085 0
M  V30 18792 C 1762.81 2.1228 0.998709 0
M  V30 18793 C 1763.82 1.06964 1.37239 0
M  V30 18794 O 1765 1.38902 1.45836 0
M  V30 18795 C 1762.06 2.62076 2.26973 0
M  V30 18796 C 1761.12 3.8202 1.95855 0
M  V30 18797 C 1760.36 4.29431 3.16898 0
M  V30 18798 O 1760.58 3.76136 4.2881 0
M  V30 18799 O 1759.51 5.21518 3.00504 0
M  V30 18800 H 1763.34 2.9842 0.563849 0
M  V30 18801 H 1760.92 1.47881 0.212535 0
M  V30 18802 H 1762.81 2.94274 3.01631 0
M  V30 18803 H 1761.48 1.79031 2.69684 0
M  V30 18804 H 1760.39 3.54785 1.18653 0
M  V30 18805 H 1761.72 4.66159 1.57977 0
M  V30 18806 N 1763.37 -0.266145 1.55336 0
M  V30 18807 C 1764.6 -1.01342 1.80037 0
M  V30 18808 C 1765.01 -1.80175 0.577368 0
M  V30 18809 O 1764.35 -1.77765 -0.46318 0
M  V30 18810 C 1764.42 -2.0141 2.97782 0
M  V30 18811 C 1764.08 -1.4145 4.34558 0
M  V30 18812 C 1765.08 -0.826689 5.13285 0
M  V30 18813 C 1762.76 -1.43964 4.81227 0
M  V30 18814 C 1764.76 -0.272004 6.36819 0
M  V30 18815 C 1762.44 -0.881101 6.04715 0
M  V30 18816 C 1763.44 -0.298287 6.82348 0
M  V30 18817 O 1763.13 0.251684 8.03506 0
M  V30 18818 H 1762.86 -0.304756 0.603407 0
M  V30 18819 H 1765.42 -0.300216 2.03194 0
M  V30 18820 H 1763.65 -2.76508 2.70334 0
M  V30 18821 H 1765.33 -2.62321 3.09746 0
M  V30 18822 H 1766.1 -0.79991 4.78358 0
M  V30 18823 H 1761.98 -1.88267 4.20805 0
M  V30 18824 H 1765.52 0.183538 6.97359 0
M  V30 18825 H 1761.42 -0.905142 6.39122 0
M  V30 18826 H 1762.19 0.1417 8.18377 0
M  V30 18827 N 1764.85 -1.48386 -0.530967 0
M  V30 18828 C 1765.78 -1.6573 -1.64486 0
M  V30 18829 C 1766.76 -0.506198 -1.62393 0
M  V30 18830 O 1767.95 -0.738623 -1.79605 0
M  V30 18831 C 1765.08 -1.69594 -3.03076 0
M  V30 18832 C 1764.03 -2.84195 -3.20027 0
M  V30 18833 C 1763.36 -2.73148 -4.59668 0
M  V30 18834 C 1764.66 -4.25504 -3.02892 0
M  V30 18835 H 1766.35 -2.58983 -1.50227 0
M  V30 18836 H 1763.9 -1.24633 -0.721286 0
M  V30 18837 H 1765.85 -1.80316 -3.80873 0
M  V30 18838 H 1764.57 -0.729193 -3.18356 0
M  V30 18839 H 1763.23 -2.73027 -2.44647 0
M  V30 18840 H 1762.88 -1.74444 -4.71782 0
M  V30 18841 H 1762.58 -3.50047 -4.71954 0
M  V30 18842 H 1764.11 -2.85836 -5.39565 0
M  V30 18843 H 1765.52 -4.37511 -3.70482 0
M  V30 18844 H 1763.92 -5.03393 -3.26673 0
M  V30 18845 H 1764.99 -4.42036 -1.99329 0
M  V30 18846 N 1766.33 0.779763 -1.36958 0
M  V30 18847 C 1767.26 1.89973 -1.26434 0
M  V30 18848 C 1768.24 1.61939 -0.146502 0
M  V30 18849 O 1769.42 1.85776 -0.319321 0
M  V30 18850 C 1766.55 3.25016 -0.953002 0
M  V30 18851 C 1765.6 3.71971 -2.08662 0
M  V30 18852 S 1766.43 3.86589 -3.70553 0
M  V30 18853 C 1767.59 5.24493 -3.41552 0
M  V30 18854 H 1767.82 1.98609 -2.21228 0
M  V30 18855 H 1765.35 0.940021 -1.22487 0
M  V30 18856 H 1767.31 4.03018 -0.780191 0
M  V30 18857 H 1765.97 3.14092 -0.0226841 0
M  V30 18858 H 1765.16 4.69853 -1.82358 0
M  V30 18859 H 1764.77 3.01048 -2.21915 0
M  V30 18860 H 1767.06 6.09397 -2.96044 0
M  V30 18861 H 1768 5.55805 -4.38733 0
M  V30 18862 H 1768.41 4.92051 -2.7667 0
M  V30 18863 N 1767.81 1.21396 1.00503 0
M  V30 18864 C 1769.05 1.03117 1.74279 0
M  V30 18865 C 1769.38 -0.43531 1.89566 0
M  V30 18866 O 1768.64 -1.33929 1.42694 0
M  V30 18867 C 1768.94 1.67343 3.15802 0
M  V30 18868 C 1768.6 3.17198 3.20463 0
M  V30 18869 C 1767.26 3.5809 3.21442 0
M  V30 18870 C 1769.62 4.13172 3.17708 0
M  V30 18871 C 1766.94 4.93462 3.17352 0
M  V30 18872 C 1769.3 5.48505 3.15159 0
M  V30 18873 C 1767.96 5.88794 3.14448 0
M  V30 18874 H 1767.23 0.377332 0.637732 0
M  V30 18875 H 1769.88 1.50987 1.17792 0
M  V30 18876 H 1768.18 1.11765 3.75521 0
M  V30 18877 H 1769.88 1.50703 3.71604 0
M  V30 18878 H 1766.47 2.8463 3.20443 0
M  V30 18879 H 1770.65 3.82606 3.16112 0
M  V30 18880 H 1765.91 5.23925 3.15138 0
M  V30 18881 H 1770.08 6.22608 3.11982 0
M  V30 18882 H 1767.71 6.93659 3.11033 0
M  V30 18883 N 1769.29 -1.19996 1.0217 0
M  V30 18884 C 1770.22 -2.25206 0.616818 0
M  V30 18885 C 1771.2 -1.66013 -0.370653 0
M  V30 18886 O 1772.38 -1.92519 -0.254956 0
M  V30 18887 C 1769.51 -3.47276 -0.0405129 0
M  V30 18888 C 1768.47 -4.19096 0.868479 0
M  V30 18889 C 1767.79 -5.34645 0.0766447 0
M  V30 18890 C 1769.09 -4.7468 2.1789 0
M  V30 18891 H 1770.79 -2.59328 1.49632 0
M  V30 18892 H 1768.33 -1.24655 0.720917 0
M  V30 18893 H 1770.28 -4.20063 -0.335355 0
M  V30 18894 H 1769.01 -3.12333 -0.954759 0
M  V30 18895 H 1767.67 -3.48181 1.1474 0
M  V30 18896 H 1767.32 -4.95946 -0.839411 0
M  V30 18897 H 1767.02 -5.83628 0.682041 0
M  V30 18898 H 1768.54 -6.10233 -0.211624 0
M  V30 18899 H 1769.95 -5.39259 1.94608 0
M  V30 18900 H 1768.35 -5.34121 2.7356 0
M  V30 18901 H 1769.42 -3.93141 2.83845 0
M  V30 18902 N 1770.76 -0.798611 -1.35867 0
M  V30 18903 C 1771.69 -0.217751 -2.32482 0
M  V30 18904 C 1772.67 0.652374 -1.57093 0
M  V30 18905 O 1773.86 0.584297 -1.85202 0
M  V30 18906 C 1770.99 0.640925 -3.41335 0
M  V30 18907 C 1769.94 -0.130053 -4.27802 0
M  V30 18908 C 1769.27 0.849811 -5.27904 0
M  V30 18909 C 1770.57 -1.32451 -5.05227 0
M  V30 18910 H 1772.26 -1.02492 -2.81311 0
M  V30 18911 H 1769.81 -0.494302 -1.3525 0
M  V30 18912 H 1771.76 1.05729 -4.07921 0
M  V30 18913 H 1770.49 1.4809 -2.91096 0
M  V30 18914 H 1769.15 -0.5275 -3.62785 0
M  V30 18915 H 1768.79 1.68507 -4.73935 0
M  V30 18916 H 1768.49 0.338323 -5.86625 0
M  V30 18917 H 1770.02 1.26455 -5.97362 0
M  V30 18918 H 1771.43 -0.983429 -5.64802 0
M  V30 18919 H 1769.83 -1.76992 -5.73405 0
M  V30 18920 H 1770.9 -2.11522 -4.36333 0
M  V30 18921 N 1772.24 1.47639 -0.551417 0
M  V30 18922 C 1773.49 2.01687 -0.0230887 0
M  V30 18923 C 1773.8 1.43178 1.33265 0
M  V30 18924 O 1775.01 1.88853 1.95056 0
M  V30 18925 C 1773.47 3.59899 0.00918719 0
M  V30 18926 C 1773.07 4.27398 -1.34295 0
M  V30 18927 C 1774.82 4.21718 0.485213 0
M  V30 18928 C 1772.72 5.77601 -1.2701 0
M  V30 18929 H 1771.65 0.753984 -0.00486122 0
M  V30 18930 H 1774.31 1.6969 -0.698405 0
M  V30 18931 H 1772.69 3.88832 0.75003 0
M  V30 18932 H 1773.86 4.10113 -2.10105 0
M  V30 18933 H 1772.18 3.77542 -1.75644 0
M  V30 18934 H 1774.77 5.3178 0.558025 0
M  V30 18935 H 1775.12 3.88495 1.4959 0
M  V30 18936 H 1775.65 3.97294 -0.200594 0
M  V30 18937 H 1772.39 6.15433 -2.2566 0
M  V30 18938 H 1771.91 5.97239 -0.553709 0
M  V30 18939 H 1773.59 6.39692 -0.969726 0
M  V30 18940 N 1773.72 0.287581 1.54954 0
M  V30 18941 C 1774.65 -0.587855 2.25979 0
M  V30 18942 C 1775.63 -1.14884 1.25442 0
M  V30 18943 O 1776.82 -1.18067 1.54188 0
M  V30 18944 C 1773.95 -1.76618 2.99037 0
M  V30 18945 C 1772.9 -1.33617 4.06609 0
M  V30 18946 C 1772.23 -2.59859 4.67309 0
M  V30 18947 C 1773.53 -0.477219 5.20115 0
M  V30 18948 H 1775.22 0.00450183 2.994 0
M  V30 18949 H 1772.77 0.00360521 1.44 0
M  V30 18950 H 1774.72 -2.38461 3.4744 0
M  V30 18951 H 1773.44 -2.38457 2.23172 0
M  V30 18952 H 1772.1 -0.74088 3.59036 0
M  V30 18953 H 1771.75 -3.19983 3.88098 0
M  V30 18954 H 1771.45 -2.31793 5.3995 0
M  V30 18955 H 1772.97 -3.22528 5.18467 0
M  V30 18956 H 1774.39 -1.00096 5.64494 0
M  V30 18957 H 1772.79 -0.290913 5.99394 0
M  V30 18958 H 1773.86 0.500993 4.82305 0
M  V30 18959 N 1775.2 -1.57593 0.0150662 0
M  V30 18960 C 1776.13 -2.12395 -0.970081 0
M  V30 18961 C 1777.11 -1.03666 -1.34861 0
M  V30 18962 O 1778.29 -1.31427 -1.4297 0
M  V30 18963 C 1775.42 -2.63958 -2.25707 0
M  V30 18964 C 1774.38 -3.77348 -2.01971 0
M  V30 18965 C 1773.7 -4.15284 -3.36814 0
M  V30 18966 C 1775 -5.04008 -1.37017 0
M  V30 18967 H 1776.7 -2.9496 -0.513731 0
M  V30 18968 H 1774.24 -1.41889 -0.245666 0
M  V30 18969 H 1776.2 -3.00927 -2.94993 0
M  V30 18970 H 1774.92 -1.78535 -2.73483 0
M  V30 18971 H 1773.58 -3.40795 -1.35107 0
M  V30 18972 H 1773.23 -3.26863 -3.82321 0
M  V30 18973 H 1772.93 -4.91686 -3.21744 0
M  V30 18974 H 1774.45 -4.54824 -4.07391 0
M  V30 18975 H 1775.87 -5.38652 -1.96282 0
M  V30 18976 H 1774.26 -5.85315 -1.32388 0
M  V30 18977 H 1775.33 -4.83698 -0.341281 0
M  V30 18978 N 1776.68 0.257904 -1.55475 0
M  V30 18979 C 1777.62 1.33893 -1.90198 0
M  V30 18980 C 1778.62 1.50381 -0.779868 0
M  V30 18981 O 1779.82 1.51986 -0.964376 0
M  V30 18982 H 1776.2 0.448115 -0.603901 0
M  V30 18983 H 1778.17 1.01868 -2.80474 0
M  V30 18984 C 1776.92 2.68954 -2.20361 0
M  V30 18985 H 1776.24 2.57064 -3.062 0
M  V30 18986 H 1777.68 3.43498 -2.48567 0
M  V30 18987 C 1776.14 3.21208 -1.01623 0
M  V30 18988 O 1776.67 4.00867 -0.258567 0
M  V30 18989 N 1774.88 2.79088 -0.809825 0
M  V30 18990 H 1774.42 2.1442 -1.42764 0
M  V30 18991 H 1774.38 3.14395 -0.0170171 0
M  V30 18992 N 1778.15 1.48666 0.52309 0
M  V30 18993 C 1779.38 1.60707 1.30311 0
M  V30 18994 C 1779.8 0.269941 1.8686 0
M  V30 18995 O 1779.15 -0.741714 1.66748 0
M  V30 18996 C 1779.21 2.65899 2.44908 0
M  V30 18997 O 1778.93 3.94423 1.90688 0
M  V30 18998 C 1780.43 2.88443 3.36624 0
M  V30 18999 H 1777.65 0.541661 0.396035 0
M  V30 19000 H 1780.19 1.94544 0.630322 0
M  V30 19001 H 1778.35 2.34902 3.08058 0
M  V30 19002 H 1778.76 4.5219 2.65753 0
M  V30 19003 H 1780.23 3.65831 4.13366 0
M  V30 19004 H 1780.71 1.97524 3.92277 0
M  V30 19005 H 1781.32 3.20771 2.7926 0
M  V30 19006 N 1779.63 -0.772489 1.37369 0
M  V30 19007 C 1780.88 -1.53329 1.32733 0
M  V30 19008 C 1781.21 -1.93999 -0.0882815 0
M  V30 19009 O 1780.49 -1.64014 -1.04545 0
M  V30 19010 C 1780.77 -2.79885 2.26575 0
M  V30 19011 C 1780.62 -2.45474 3.76912 0
M  V30 19012 C 1781.94 -3.81812 2.18878 0
M  V30 19013 H 1779.06 -0.55625 0.483482 0
M  V30 19014 H 1781.7 -0.886251 1.68064 0
M  V30 19015 H 1779.85 -3.35097 1.96576 0
M  V30 19016 H 1781.52 -1.96182 4.17505 0
M  V30 19017 H 1779.77 -1.78181 3.95517 0
M  V30 19018 H 1780.44 -3.35937 4.38007 0
M  V30 19019 H 1782.91 -3.36091 2.4532 0
M  V30 19020 H 1781.79 -4.68087 2.86681 0
M  V30 19021 H 1782.05 -4.26021 1.18146 0
M  V30 19022 N 1781.11 -1.21927 -0.998575 0
M  V30 19023 C 1782.07 -0.985744 -2.0692 0
M  V30 19024 C 1783.07 0.0456907 -1.60735 0
M  V30 19025 O 1784.26 -0.192241 -1.73136 0
M  V30 19026 C 1781.4 -0.48779 -3.37392 0
M  V30 19027 H 1782.59 -1.93563 -2.2907 0
M  V30 19028 H 1780.14 -1.03716 -1.1693 0
M  V30 19029 H 1780.88 0.466723 -3.20924 0
M  V30 19030 H 1780.66 -1.23186 -3.72247 0
M  V30 19031 H 1782.15 -0.344469 -4.16177 0
M  V30 19032 N 1782.59 1.19452 -1.02805 0
M  V30 19033 C 1783.52 2.24875 -0.628752 0
M  V30 19034 C 1784.5 1.66207 0.361844 0
M  V30 19035 O 1785.68 1.92652 0.244743 0
M  V30 19036 C 1782.81 3.47293 0.0220954 0
M  V30 19037 C 1781.77 4.1863 -0.890693 0
M  V30 19038 C 1781.09 5.34597 -0.104997 0
M  V30 19039 C 1782.39 4.73518 -2.20405 0
M  V30 19040 H 1784.09 2.5853 -1.51005 0
M  V30 19041 H 1781.63 1.24271 -0.727518 0
M  V30 19042 H 1783.59 4.20235 0.313073 0
M  V30 19043 H 1782.31 3.12835 0.938182 0
M  V30 19044 H 1780.97 3.47568 -1.16585 0
M  V30 19045 H 1780.62 4.96385 0.813098 0
M  V30 19046 H 1780.32 5.83258 -0.712983 0
M  V30 19047 H 1781.84 6.10337 0.179259 0
M  V30 19048 H 1783.26 5.3822 -1.97465 0
M  V30 19049 H 1781.65 5.32663 -2.76388 0
M  V30 19050 H 1782.72 3.9163 -2.85926 0
M  V30 19051 N 1784.07 0.805805 1.35442 0
M  V30 19052 C 1785.03 0.221278 2.28129 0
M  V30 19053 C 1786.03 -0.590919 1.49549 0
M  V30 19054 O 1787.22 -0.409518 1.69318 0
M  V30 19055 C 1784.35 -0.691643 3.3381 0
M  V30 19056 H 1785.54 1.03875 2.81336 0
M  V30 19057 H 1783.1 0.5764 1.45284 0
M  V30 19058 H 1783.83 -1.53283 2.85788 0
M  V30 19059 H 1783.62 -0.110972 3.91943 0
M  V30 19060 H 1785.11 -1.09497 4.02989 0
M  V30 19061 N 1785.54 -1.47344 0.559239 0
M  V30 19062 C 1786.48 -2.26985 -0.235197 0
M  V30 19063 C 1787.46 -1.34177 -0.918443 0
M  V30 19064 O 1788.64 -1.63561 -0.937027 0
M  V30 19065 C 1785.77 -3.11267 -1.33532 0
M  V30 19066 C 1784.81 -4.19667 -0.760412 0
M  V30 19067 S 1785.65 -5.34044 0.394576 0
M  V30 19068 C 1786.8 -6.21891 -0.707314 0
M  V30 19069 H 1787.03 -2.94017 0.440606 0
M  V30 19070 H 1784.57 -1.50482 0.345606 0
M  V30 19071 H 1786.53 -3.60395 -1.96534 0
M  V30 19072 H 1785.19 -2.43593 -1.98296 0
M  V30 19073 H 1784.38 -4.78375 -1.58661 0
M  V30 19074 H 1783.98 -3.73429 -0.206528 0
M  V30 19075 H 1786.27 -6.58362 -1.59891 0
M  V30 19076 H 1787.22 -7.07925 -0.157535 0
M  V30 19077 H 1787.62 -5.55556 -1.0009 0
M  V30 19078 N 1787.02 -0.295795 -1.54799 0
M  V30 19079 C 1787.95 0.616191 -2.20762 0
M  V30 19080 C 1788.97 1.10157 -1.19872 0
M  V30 19081 O 1790.16 1.01992 -1.46492 0
M  V30 19082 C 1787.26 1.85497 -2.83627 0
M  V30 19083 C 1786.43 1.51295 -4.10401 0
M  V30 19084 C 1785.49 2.60633 -4.57118 0
M  V30 19085 O 1784.51 2.25945 -5.22434 0
M  V30 19086 N 1785.72 3.91078 -4.28997 0
M  V30 19087 H 1788.48 0.0515252 -2.99656 0
M  V30 19088 H 1786.04 -0.11777 -1.61471 0
M  V30 19089 H 1788.03 2.57979 -3.11816 0
M  V30 19090 H 1786.6 2.32816 -2.08604 0
M  V30 19091 H 1785.82 0.621 -3.89278 0
M  V30 19092 H 1787.11 1.25974 -4.92958 0
M  V30 19093 H 1786.51 4.22072 -3.76659 0
M  V30 19094 H 1785.07 4.59875 -4.61907 0
M  V30 19095 N 1788.5 1.57583 -0.0234236 0
M  V30 19096 C 1789.45 2.06367 0.969361 0
M  V30 19097 C 1790.44 0.963028 1.28898 0
M  V30 19098 O 1791.63 1.22663 1.27604 0
M  V30 19099 C 1788.76 2.58967 2.25368 0
M  V30 19100 C 1787.84 3.75952 1.96268 0
M  V30 19101 N 1788.23 4.86776 1.37415 0
M  V30 19102 C 1786.53 3.84329 2.2629 0
M  V30 19103 C 1787.23 5.68041 1.25318 0
M  V30 19104 N 1786.21 5.14771 1.74677 0
M  V30 19105 H 1790.01 2.89455 0.509205 0
M  V30 19106 H 1787.52 1.6138 0.181729 0
M  V30 19107 H 1789.52 2.92206 2.97358 0
M  V30 19108 H 1788.18 1.77307 2.72015 0
M  V30 19109 H 1789.19 5.07147 1.0499 0
M  V30 19110 H 1785.87 3.13566 2.7565 0
M  V30 19111 H 1787.26 6.67137 0.798588 0
M  V30 19112 N 1789.98 -0.249655 1.5561 0
M  V30 19113 C 1791.21 -0.994263 1.81102 0
M  V30 19114 C 1791.62 -1.79553 0.596445 0
M  V30 19115 O 1790.96 -1.78246 -0.4443 0
M  V30 19116 C 1791.02 -1.9824 2.99902 0
M  V30 19117 C 1790.69 -1.36833 4.36034 0
M  V30 19118 C 1791.68 -0.772202 5.14133 0
M  V30 19119 C 1789.37 -1.38852 4.82727 0
M  V30 19120 C 1791.36 -0.204446 6.37072 0
M  V30 19121 C 1789.05 -0.816913 6.05615 0
M  V30 19122 C 1790.05 -0.225898 6.82626 0
M  V30 19123 O 1789.74 0.336892 8.03194 0
M  V30 19124 H 1789.47 -0.298339 0.606605 0
M  V30 19125 H 1792.02 -0.278647 2.03501 0
M  V30 19126 H 1790.25 -2.73625 2.73252 0
M  V30 19127 H 1791.94 -2.59021 3.12511 0
M  V30 19128 H 1792.71 -0.749129 4.7918 0
M  V30 19129 H 1788.59 -1.83793 4.22778 0
M  V30 19130 H 1792.13 0.257492 6.97125 0
M  V30 19131 H 1788.03 -0.837303 6.40046 0
M  V30 19132 H 1788.79 0.228492 8.18181 0
M  V30 19133 N 1791.46 -1.48941 -0.515198 0
M  V30 19134 C 1792.37 -1.67271 -1.64492 0
M  V30 19135 C 1793.38 -0.555222 -1.64904 0
M  V30 19136 O 1794.56 -0.828161 -1.83585 0
M  V30 19137 C 1791.62 -1.722 -3.00912 0
M  V30 19138 C 1790.69 -2.95683 -3.11239 0
M  V30 19139 C 1789.92 -3.00368 -4.41152 0
M  V30 19140 O 1790.14 -2.13041 -5.29122 0
M  V30 19141 O 1789.08 -3.92691 -4.56155 0
M  V30 19142 H 1792.9 -2.62947 -1.51962 0
M  V30 19143 H 1790.49 -1.32515 -0.68993 0
M  V30 19144 H 1792.37 -1.77877 -3.82018 0
M  V30 19145 H 1791.04 -0.796995 -3.13735 0
M  V30 19146 H 1789.95 -2.95531 -2.29374 0
M  V30 19147 H 1791.28 -3.87617 -3.03338 0
M  V30 19148 N 1792.94 0.765193 -1.37777 0
M  V30 19149 C 1793.87 1.888 -1.29951 0
M  V30 19150 C 1794.88 1.61387 -0.213996 0
M  V30 19151 O 1796.07 1.72183 -0.470657 0
M  V30 19152 C 1793.17 3.24178 -0.988004 0
M  V30 19153 C 1792.34 3.79186 -2.18029 0
M  V30 19154 C 1791.4 4.93054 -1.83804 0
M  V30 19155 O 1790.43 5.08296 -2.56172 0
M  V30 19156 N 1791.63 5.75153 -0.786062 0
M  V30 19157 H 1794.39 1.96028 -2.267 0
M  V30 19158 H 1791.96 0.944602 -1.31487 0
M  V30 19159 H 1793.95 3.97881 -0.739771 0
M  V30 19160 H 1792.52 3.1241 -0.108852 0
M  V30 19161 H 1791.74 2.97185 -2.58988 0
M  V30 19162 H 1793.03 4.12669 -2.97627 0
M  V30 19163 H 1792.42 5.65395 -0.185678 0
M  V30 19164 H 1790.98 6.49054 -0.597697 0
M  V30 19165 N 1794.41 1.22455 0.992094 0
M  V30 19166 C 1795.64 1.07594 1.76723 0
M  V30 19167 C 1796.06 -0.37345 1.8507 0
M  V30 19168 O 1795.41 -1.25876 1.32142 0
M  V30 19169 C 1795.46 1.68178 3.19998 0
M  V30 19170 O 1795.19 3.07447 3.12102 0
M  V30 19171 C 1796.69 1.58602 4.13957 0
M  V30 19172 H 1793.91 0.377148 0.554978 0
M  V30 19173 H 1796.45 1.62065 1.24721 0
M  V30 19174 H 1794.61 1.17768 3.69066 0
M  V30 19175 H 1795.02 3.36641 4.0221 0
M  V30 19176 H 1796.49 2.05714 5.12236 0
M  V30 19177 H 1796.97 0.542712 4.35834 0
M  V30 19178 H 1797.58 2.08321 3.70786 0
M  V30 19179 N 1795.89 -1.18905 1.03437 0
M  V30 19180 C 1796.85 -2.20529 0.624461 0
M  V30 19181 C 1797.85 -1.57688 -0.314824 0
M  V30 19182 O 1799.04 -1.73906 -0.101082 0
M  V30 19183 C 1796.18 -3.40793 -0.0854166 0
M  V30 19184 H 1797.37 -2.58309 1.5237 0
M  V30 19185 H 1794.92 -1.32679 0.826189 0
M  V30 19186 H 1795.66 -3.08538 -0.998747 0
M  V30 19187 H 1795.44 -3.87642 0.589596 0
M  V30 19188 H 1796.93 -4.16055 -0.358938 0
M  V30 19189 N 1797.37 -0.812977 -1.35013 0
M  V30 19190 C 1798.78 -0.45647 -1.81034 0
M  V30 19191 C 1799.13 1.02217 -1.6747 0
M  V30 19192 O 1798.26 1.79478 -1.20898 0
M  V30 19193 C 1798.85 -0.821773 -3.28683 0
M  V30 19194 C 1797.41 -0.517776 -3.72822 0
M  V30 19195 C 1796.56 -1.04399 -2.56897 0
M  V30 19196 H 1799.51 -1.00405 -1.22901 0
M  V30 19197 H 1799.53 -0.12173 -3.80305 0
M  V30 19198 H 1799.04 -1.89799 -3.38523 0
M  V30 19199 H 1797.14 0.549446 -3.68527 0
M  V30 19200 H 1797.26 -1.05488 -4.67343 0
M  V30 19201 H 1795.62 -0.466002 -2.50401 0
M  V30 19202 H 1796.4 -2.12645 -2.69512 0
M  V30 19203 N 1798.85 1.47045 -0.567045 0
M  V30 19204 C 1800.09 2.02446 -0.0466799 0
M  V30 19205 C 1800.42 1.44032 1.3071 0
M  V30 19206 O 1799.68 0.58926 1.86618 0
M  V30 19207 C 1799.98 3.57298 0.0855754 0
M  V30 19208 C 1799.64 4.34678 -1.19858 0
M  V30 19209 C 1798.3 4.55538 -1.55043 0
M  V30 19210 C 1800.66 4.7923 -2.04909 0
M  V30 19211 C 1797.98 5.18201 -2.75108 0
M  V30 19212 C 1800.34 5.43218 -3.24186 0
M  V30 19213 C 1799 5.62309 -3.59673 0
M  V30 19214 H 1798.27 0.740803 -0.0170814 0
M  V30 19215 H 1800.92 1.76602 -0.740536 0
M  V30 19216 H 1799.22 3.82189 0.862463 0
M  V30 19217 H 1800.92 3.97824 0.50371 0
M  V30 19218 H 1797.51 4.18727 -0.914632 0
M  V30 19219 H 1801.69 4.62884 -1.79032 0
M  V30 19220 H 1796.95 5.31175 -3.02759 0
M  V30 19221 H 1801.12 5.76702 -3.90369 0
M  V30 19222 H 1798.75 6.10636 -4.528 0
M  V30 19223 N 1800.33 0.304 1.5464 0
M  V30 19224 C 1801.27 -0.586475 2.25085 0
M  V30 19225 C 1802.27 -1.13458 1.25792 0
M  V30 19226 O 1803.47 -1.08487 1.43633 0
M  V30 19227 H 1799.85 -0.20774 0.722737 0
M  V30 19228 H 1801.82 0.0301682 2.98385 0
M  V30 19229 C 1800.57 -1.74539 3.00718 0
M  V30 19230 H 1799.89 -1.33287 3.76928 0
M  V30 19231 H 1801.33 -2.34447 3.53285 0
M  V30 19232 C 1799.79 -2.65132 2.07862 0
M  V30 19233 O 1800.32 -3.6631 1.64863 0
M  V30 19234 N 1798.53 -2.32932 1.73756 0
M  V30 19235 H 1798.07 -1.50698 2.08921 0
M  V30 19236 H 1798.03 -2.93811 1.11904 0
M  V30 19237 N 1801.8 -1.57568 0.0317802 0
M  V30 19238 C 1803.03 -1.95927 -0.655449 0
M  V30 19239 C 1803.44 -0.907011 -1.66042 0
M  V30 19240 O 1802.78 0.119389 -1.83312 0
M  V30 19241 C 1802.85 -3.30441 -1.41595 0
M  V30 19242 C 1802.51 -4.53444 -0.569009 0
M  V30 19243 C 1803.51 -5.19663 0.156812 0
M  V30 19244 C 1801.19 -4.99749 -0.505629 0
M  V30 19245 C 1803.19 -6.3051 0.934657 0
M  V30 19246 C 1800.87 -6.10477 0.275919 0
M  V30 19247 C 1801.87 -6.75717 0.994766 0
M  V30 19248 O 1801.56 -7.84319 1.7635 0
M  V30 19249 H 1801.29 -0.650077 -0.185408 0
M  V30 19250 H 1803.85 -2.05209 0.0886364 0
M  V30 19251 H 1802.08 -3.17658 -2.20523 0
M  V30 19252 H 1803.76 -3.53684 -1.99154 0
M  V30 19253 H 1804.53 -4.84858 0.117196 0
M  V30 19254 H 1800.41 -4.48772 -1.05472 0
M  V30 19255 H 1803.95 -6.81365 1.49626 0
M  V30 19256 H 1799.85 -6.4472 0.317242 0
M  V30 19257 H 1800.62 -8.00999 1.68355 0
M  V30 19258 N 1803.28 0.241399 -1.5574 0
M  V30 19259 C 1804.25 1.28236 -1.89969 0
M  V30 19260 C 1805.25 1.40804 -0.776582 0
M  V30 19261 O 1806.44 1.3941 -1.04453 0
M  V30 19262 C 1803.57 2.65926 -2.13299 0
M  V30 19263 H 1804.76 0.991011 -2.83053 0
M  V30 19264 H 1802.31 0.480939 -1.48717 0
M  V30 19265 H 1803.05 3.00192 -1.22701 0
M  V30 19266 H 1802.83 2.58184 -2.95099 0
M  V30 19267 H 1804.32 3.4108 -2.40944 0
M  V30 19268 N 1804.76 1.49212 0.507292 0
M  V30 19269 C 1805.69 1.60013 1.62699 0
M  V30 19270 C 1806.67 0.449472 1.56264 0
M  V30 19271 O 1807.86 0.66417 1.76412 0
M  V30 19272 C 1804.98 1.54923 3.01192 0
M  V30 19273 C 1804.03 2.7511 3.2591 0
M  V30 19274 S 1804.86 4.3685 3.09714 0
M  V30 19275 C 1806.02 4.34395 4.50613 0
M  V30 19276 H 1806.25 2.54733 1.53291 0
M  V30 19277 H 1803.78 1.38025 0.69198 0
M  V30 19278 H 1805.74 1.52673 3.81053 0
M  V30 19279 H 1804.4 0.615015 3.0802 0
M  V30 19280 H 1803.6 2.6775 4.26996 0
M  V30 19281 H 1803.2 2.7474 2.5376 0
M  V30 19282 H 1805.49 4.05727 5.42579 0
M  V30 19283 H 1806.43 5.35738 4.63023 0
M  V30 19284 H 1806.84 3.64556 4.30998 0
M  V30 19285 N 1806.24 -0.757876 1.38181 0
M  V30 19286 C 1807.52 -1.50715 1.24677 0
M  V30 19287 C 1807.9 -2.1054 -0.153689 0
M  V30 19288 O 1807.24 -1.96703 -1.16276 0
M  V30 19289 C 1807.45 -2.57695 2.3536 0
M  V30 19290 C 1808.8 -3.24716 2.73578 0
M  V30 19291 O 1809.83 -2.67997 2.3464 0
M  V30 19292 O 1808.68 -4.27294 3.40709 0
M  V30 19293 H 1805.78 -0.668175 0.487311 0
M  V30 19294 H 1808.32 -0.793653 1.49997 0
M  V30 19295 H 1807.1 -2.11706 3.29084 0
M  V30 19296 H 1806.72 -3.36629 2.11581 0
M  V30 19297 N 1807.72 -1.22979 -0.985586 0
M  V30 19298 C 1808.97 -1.05286 -1.7204 0
M  V30 19299 C 1809.28 0.411213 -1.91229 0
M  V30 19300 O 1810.48 0.70797 -2.62107 0
M  V30 19301 C 1808.94 -1.8355 -3.09576 0
M  V30 19302 C 1808.55 -3.34254 -2.98293 0
M  V30 19303 C 1810.29 -1.74329 -3.87052 0
M  V30 19304 C 1808.2 -4.0493 -4.31029 0
M  V30 19305 H 1807.13 -0.390364 -0.645083 0
M  V30 19306 H 1809.78 -1.46898 -1.09969 0
M  V30 19307 H 1808.16 -1.34741 -3.72372 0
M  V30 19308 H 1809.34 -3.90511 -2.44618 0
M  V30 19309 H 1807.65 -3.44231 -2.34294 0
M  V30 19310 H 1810.25 -2.24449 -4.85311 0
M  V30 19311 H 1810.59 -0.705078 -4.10286 0
M  V30 19312 H 1811.12 -2.20721 -3.30949 0
M  V30 19313 H 1807.86 -5.09035 -4.12993 0
M  V30 19314 H 1807.38 -3.5346 -4.84588 0
M  V30 19315 H 1809.06 -4.10935 -4.99742 0
M  V30 19316 N 1809.19 1.18355 -1.04066 0
M  V30 19317 C 1810.12 2.24196 -0.652568 0
M  V30 19318 C 1811.11 1.66581 0.344195 0
M  V30 19319 O 1812.29 1.929 0.224296 0
M  V30 19320 C 1809.42 3.47297 -0.0147409 0
M  V30 19321 C 1808.37 4.17661 -0.935044 0
M  V30 19322 C 1807.7 5.34455 -0.161692 0
M  V30 19323 C 1809 4.71153 -2.25415 0
M  V30 19324 H 1810.69 2.56914 -1.53738 0
M  V30 19325 H 1808.24 1.23492 -0.740658 0
M  V30 19326 H 1810.19 4.20544 0.268484 0
M  V30 19327 H 1808.92 3.13812 0.904949 0
M  V30 19328 H 1807.58 3.46312 -1.20265 0
M  V30 19329 H 1807.22 4.97219 0.760404 0
M  V30 19330 H 1806.92 5.82469 -0.774805 0
M  V30 19331 H 1808.45 6.10493 0.114515 0
M  V30 19332 H 1809.86 5.36095 -2.03163 0
M  V30 19333 H 1808.26 5.29701 -2.82022 0
M  V30 19334 H 1809.33 3.88576 -2.90064 0
M  V30 19335 N 1810.67 0.820125 1.3458 0
M  V30 19336 C 1811.62 0.22828 2.31477 0
M  V30 19337 C 1812.61 -0.629439 1.57272 0
M  V30 19338 O 1813.82 -0.521091 1.72292 0
M  V30 19339 H 1810.2 0.0550728 0.749981 0
M  V30 19340 H 1812.17 1.0604 2.78923 0
M  V30 19341 C 1810.92 -0.597495 3.42528 0
M  V30 19342 H 1810.24 0.0531749 3.99765 0
M  V30 19343 H 1811.68 -0.977765 4.12572 0
M  V30 19344 C 1810.14 -1.76868 2.86739 0
M  V30 19345 O 1810.67 -2.86674 2.81391 0
M  V30 19346 N 1808.87 -1.58453 2.436 0
M  V30 19347 H 1808.42 -0.691318 2.4815 0
M  V30 19348 H 1808.38 -2.36969 2.06624 0
M  V30 19349 N 1812.15 -1.46743 0.574835 0
M  V30 19350 C 1813.08 -2.27221 -0.211109 0
M  V30 19351 C 1814.06 -1.35143 -0.90416 0
M  V30 19352 O 1815.25 -1.64545 -0.919627 0
M  V30 19353 C 1812.37 -3.12665 -1.30223 0
M  V30 19354 C 1811.42 -4.20449 -0.715857 0
M  V30 19355 S 1812.25 -5.33596 0.451197 0
M  V30 19356 C 1813.41 -6.22606 -0.641314 0
M  V30 19357 H 1813.64 -2.93533 0.471766 0
M  V30 19358 H 1811.17 -1.50107 0.361547 0
M  V30 19359 H 1813.13 -3.62459 -1.927 0
M  V30 19360 H 1811.79 -2.45682 -1.95702 0
M  V30 19361 H 1810.99 -4.80031 -1.53578 0
M  V30 19362 H 1810.59 -3.73627 -0.166909 0
M  V30 19363 H 1812.88 -6.60021 -1.52899 0
M  V30 19364 H 1813.82 -7.08052 -0.0824416 0
M  V30 19365 H 1814.23 -5.56586 -0.941918 0
M  V30 19366 N 1813.63 -0.312197 -1.54477 0
M  V30 19367 C 1814.87 0.294208 -2.00655 0
M  V30 19368 C 1815.21 1.52674 -1.20018 0
M  V30 19369 O 1814.48 1.92481 -0.279517 0
M  V30 19370 C 1814.77 0.639677 -3.54373 0
M  V30 19371 C 1814.62 -0.602773 -4.45743 0
M  V30 19372 C 1815.94 1.46181 -4.15113 0
M  V30 19373 H 1813.06 0.10546 -0.729416 0
M  V30 19374 H 1815.7 -0.426519 -1.85151 0
M  V30 19375 H 1813.85 1.25371 -3.67715 0
M  V30 19376 H 1815.52 -1.24116 -4.44289 0
M  V30 19377 H 1813.76 -1.23386 -4.15882 0
M  V30 19378 H 1814.43 -0.316748 -5.5109 0
M  V30 19379 H 1816.91 0.942887 -4.05276 0
M  V30 19380 H 1815.79 1.67231 -5.22805 0
M  V30 19381 H 1816.05 2.45448 -3.67706 0
M  V30 19382 N 1815.11 1.57549 -0.040136 0
M  V30 19383 C 1816.35 1.9225 0.636094 0
M  V30 19384 C 1816.68 0.917539 1.71498 0
M  V30 19385 O 1815.94 -0.0718721 1.95568 0
M  V30 19386 C 1816.24 3.3366 1.28084 0
M  V30 19387 C 1815.9 4.49682 0.331249 0
M  V30 19388 C 1814.56 4.81149 0.0699171 0
M  V30 19389 C 1816.92 5.20216 -0.320179 0
M  V30 19390 C 1814.24 5.80503 -0.850464 0
M  V30 19391 C 1816.6 6.20553 -1.22868 0
M  V30 19392 C 1815.26 6.50455 -1.4988 0
M  V30 19393 H 1814.53 0.703493 0.232763 0
M  V30 19394 H 1817.18 1.91216 -0.104258 0
M  V30 19395 H 1815.48 3.31008 2.0962 0
M  V30 19396 H 1817.18 3.57785 1.81082 0
M  V30 19397 H 1813.77 4.25119 0.545114 0
M  V30 19398 H 1817.95 4.96126 -0.131354 0
M  V30 19399 H 1813.21 6.02012 -1.06733 0
M  V30 19400 H 1817.38 6.74323 -1.73958 0
M  V30 19401 H 1815.01 7.27257 -2.21362 0
M  V30 19402 N 1816.58 -0.233136 1.55866 0
M  V30 19403 C 1817.81 -0.976415 1.82411 0
M  V30 19404 C 1818.23 -1.78409 0.617724 0
M  V30 19405 O 1817.58 -1.77749 -0.413709 0
M  V30 19406 C 1817.64 -1.90328 3.07339 0
M  V30 19407 O 1817.36 -1.12828 4.23322 0
M  V30 19408 C 1818.86 -2.76142 3.46786 0
M  V30 19409 H 1816.08 -0.2867 0.606666 0
M  V30 19410 H 1818.62 -0.251863 2.02943 0
M  V30 19411 H 1816.78 -2.58193 2.88816 0
M  V30 19412 H 1817.19 -1.75643 4.94216 0
M  V30 19413 H 1818.66 -3.36901 4.37266 0
M  V30 19414 H 1819.14 -3.47953 2.68003 0
M  V30 19415 H 1819.75 -2.13708 3.67708 0
M  V30 19416 N 1818.06 -1.49479 -0.499372 0
M  V30 19417 C 1819.31 -1.58734 -1.25092 0
M  V30 19418 C 1819.63 -0.276701 -1.93027 0
M  V30 19419 O 1818.9 0.704058 -1.82811 0
M  V30 19420 H 1817.48 -0.584857 -0.464706 0
M  V30 19421 H 1820.14 -1.86113 -0.578608 0
M  V30 19422 H 1819.24 -2.38422 -2.01399 0
M  V30 19423 N 1819.54 0.750537 -1.38581 0
M  V30 19424 C 1820.47 1.87785 -1.38777 0
M  V30 19425 C 1821.45 1.68204 -0.253244 0
M  V30 19426 O 1822.64 1.88752 -0.456779 0
M  V30 19427 C 1819.77 3.2535 -1.21511 0
M  V30 19428 C 1818.72 3.59538 -2.32199 0
M  V30 19429 C 1818.05 4.95873 -2.00036 0
M  V30 19430 C 1819.35 3.64102 -3.74469 0
M  V30 19431 H 1821.04 1.87879 -2.33113 0
M  V30 19432 H 1818.59 0.902504 -1.12209 0
M  V30 19433 H 1820.54 4.03872 -1.20272 0
M  V30 19434 H 1819.26 3.25744 -0.236366 0
M  V30 19435 H 1817.92 2.83336 -2.32629 0
M  V30 19436 H 1817.57 4.9283 -1.00638 0
M  V30 19437 H 1817.27 5.19716 -2.7417 0
M  V30 19438 H 1818.8 5.7677 -2.00421 0
M  V30 19439 H 1820.21 4.32731 -3.76054 0
M  V30 19440 H 1818.61 3.99455 -4.47834 0
M  V30 19441 H 1819.68 2.64259 -4.06565 0
M  V30 19442 N 1821.02 1.235 0.979051 0
M  V30 19443 C 1822.27 1.06791 1.72052 0
M  V30 19444 C 1822.59 -0.395002 1.90447 0
M  V30 19445 O 1821.85 -1.30872 1.45503 0
M  V30 19446 C 1822.15 1.74004 3.12182 0
M  V30 19447 C 1821.81 3.23924 3.13662 0
M  V30 19448 C 1820.48 3.64828 3.13774 0
M  V30 19449 C 1822.83 4.19818 3.08872 0
M  V30 19450 C 1820.16 5.00083 3.06813 0
M  V30 19451 C 1822.51 5.55066 3.03454 0
M  V30 19452 C 1821.17 5.95332 3.01888 0
M  V30 19453 H 1820.44 0.390774 0.629584 0
M  V30 19454 H 1823.09 1.53452 1.14563 0
M  V30 19455 H 1821.39 1.19705 3.73066 0
M  V30 19456 H 1823.09 1.58551 3.68324 0
M  V30 19457 H 1819.68 2.91363 3.14334 0
M  V30 19458 H 1823.87 3.89225 3.07925 0
M  V30 19459 H 1819.12 5.30492 3.03954 0
M  V30 19460 H 1823.3 6.29085 2.98705 0
M  V30 19461 H 1820.92 7.001 2.96249 0
M  V30 19462 N 1822.5 -1.17802 1.04693 0
M  V30 19463 C 1823.73 -1.91867 0.774246 0
M  V30 19464 C 1824.14 -1.76534 -0.669425 0
M  V30 19465 O 1823.5 -1.09915 -1.45688 0
M  V30 19466 C 1823.55 -3.43086 1.13904 0
M  V30 19467 O 1823.27 -3.57943 2.52604 0
M  V30 19468 C 1824.77 -4.34238 0.891767 0
M  V30 19469 H 1821.99 -0.60892 0.281882 0
M  V30 19470 H 1824.53 -1.49414 1.39627 0
M  V30 19471 H 1822.69 -3.83304 0.561863 0
M  V30 19472 H 1823.1 -4.51599 2.66756 0
M  V30 19473 H 1824.58 -5.3887 1.1968 0
M  V30 19474 H 1825.05 -4.38858 -0.17323 0
M  V30 19475 H 1825.66 -3.99727 1.45254 0
M  V30 19476 N 1823.98 -0.827251 -1.34143 0
M  V30 19477 C 1825.22 -0.413762 -1.9741 0
M  V30 19478 C 1825.54 1.0297 -1.66303 0
M  V30 19479 O 1826.74 1.5473 -2.23094 0
M  V30 19480 C 1825.2 -0.688904 -3.53245 0
M  V30 19481 C 1824.81 -2.14627 -3.93242 0
M  V30 19482 C 1826.55 -0.341794 -4.23122 0
M  V30 19483 C 1824.46 -2.36607 -5.42006 0
M  V30 19484 H 1823.39 -0.150982 -0.738729 0
M  V30 19485 H 1826.04 -1.01421 -1.52925 0
M  V30 19486 H 1824.42 -0.0182319 -3.95996 0
M  V30 19487 H 1825.6 -2.85646 -3.61584 0
M  V30 19488 H 1823.91 -2.45523 -3.36314 0
M  V30 19489 H 1826.51 -0.483797 -5.32507 0
M  V30 19490 H 1826.85 0.714135 -4.10129 0
M  V30 19491 H 1827.38 -0.96722 -3.85862 0
M  V30 19492 H 1824.12 -3.40722 -5.5999 0
M  V30 19493 H 1823.64 -1.70137 -5.75164 0
M  V30 19494 H 1825.32 -2.19181 -6.08744 0
M  V30 19495 N 1825.45 1.46436 -0.582609 0
M  V30 19496 C 1826.36 2.34099 0.153178 0
M  V30 19497 C 1827.38 1.49745 0.886135 0
M  V30 19498 O 1828.56 1.82615 0.849341 0
M  V30 19499 C 1825.62 3.26929 1.15404 0
M  V30 19500 C 1824.68 4.27183 0.425764 0
M  V30 19501 C 1823.91 5.15578 1.37895 0
M  V30 19502 O 1824.14 5.06903 2.61545 0
M  V30 19503 O 1823.07 5.9529 0.889585 0
M  V30 19504 H 1826.9 2.98368 -0.566585 0
M  V30 19505 H 1824.48 1.45409 -0.343013 0
M  V30 19506 H 1826.36 3.842 1.73114 0
M  V30 19507 H 1825.04 2.65257 1.85527 0
M  V30 19508 H 1823.95 3.73601 -0.193175 0
M  V30 19509 H 1825.28 4.91641 -0.234496 0
M  V30 19510 N 1826.93 0.320385 1.54309 0
M  V30 19511 C 1827.86 -0.589487 2.20455 0
M  V30 19512 C 1828.84 -1.11816 1.1805 0
M  V30 19513 O 1830.03 -1.18276 1.46776 0
M  V30 19514 C 1827.15 -1.80854 2.86373 0
M  V30 19515 C 1826.2 -1.41139 4.0247 0
M  V30 19516 S 1827.03 -0.450803 5.33599 0
M  V30 19517 C 1828.19 -1.67721 6.03009 0
M  V30 19518 H 1828.42 -0.0275989 2.97287 0
M  V30 19519 H 1825.95 0.104475 1.54046 0
M  V30 19520 H 1827.91 -2.50803 3.24974 0
M  V30 19521 H 1826.57 -2.34161 2.0935 0
M  V30 19522 H 1825.77 -2.31969 4.47444 0
M  V30 19523 H 1825.37 -0.791646 3.65526 0
M  V30 19524 H 1827.66 -2.6151 6.24995 0
M  V30 19525 H 1828.6 -1.26968 6.96624 0
M  V30 19526 H 1829.01 -1.86274 5.32881 0
M  V30 19527 N 1828.41 -1.57525 0.0484906 0
M  V30 19528 C 1829.66 -1.9287 -0.626817 0
M  V30 19529 C 1829.99 -0.926899 -1.70652 0
M  V30 19530 O 1829.26 0.0475129 -1.94442 0
M  V30 19531 C 1829.55 -3.38609 -1.22539 0
M  V30 19532 C 1829.4 -4.49537 -0.153923 0
M  V30 19533 C 1830.72 -3.84689 -2.13781 0
M  V30 19534 H 1827.84 -0.701367 -0.226391 0
M  V30 19535 H 1830.48 -1.89683 0.109708 0
M  V30 19536 H 1828.63 -3.41456 -1.85311 0
M  V30 19537 H 1830.3 -4.58818 0.477846 0
M  V30 19538 H 1828.54 -4.30692 0.518334 0
M  V30 19539 H 1829.22 -5.48589 -0.612708 0
M  V30 19540 H 1831.69 -3.83701 -1.60974 0
M  V30 19541 H 1830.57 -4.8732 -2.52607 0
M  V30 19542 H 1830.83 -3.21293 -3.03682 0
M  V30 19543 N 1829.89 0.224867 -1.55988 0
M  V30 19544 C 1830.82 1.28192 -1.95164 0
M  V30 19545 C 1831.8 1.49062 -0.81942 0
M  V30 19546 O 1832.98 1.61301 -1.08146 0
M  V30 19547 C 1830.11 2.63237 -2.26547 0
M  V30 19548 C 1829.07 2.57029 -3.42228 0
M  V30 19549 C 1828.39 3.96073 -3.59207 0
M  V30 19550 C 1829.69 2.12101 -4.77295 0
M  V30 19551 H 1831.39 0.956495 -2.8371 0
M  V30 19552 H 1828.93 0.458673 -1.365 0
M  V30 19553 H 1830.89 3.37341 -2.52545 0
M  V30 19554 H 1829.61 2.97461 -1.3485 0
M  V30 19555 H 1828.27 1.85382 -3.16273 0
M  V30 19556 H 1827.92 4.27599 -2.64892 0
M  V30 19557 H 1827.62 3.92802 -4.37013 0
M  V30 19558 H 1829.14 4.71844 -3.8755 0
M  V30 19559 H 1830.56 2.75946 -5.0252 0
M  V30 19560 H 1828.95 2.19895 -5.5836 0
M  V30 19561 H 1830.02 1.07319 -4.72875 0
M  V30 19562 N 1831.37 1.49742 0.491438 0
M  V30 19563 C 1832.31 1.67115 1.59189 0
M  V30 19564 C 1833.28 0.512523 1.57995 0
M  V30 19565 O 1834.47 0.740693 1.75836 0
M  V30 19566 C 1831.61 1.75258 2.97286 0
M  V30 19567 C 1830.72 3.02488 3.08424 0
M  V30 19568 C 1829.86 3.0155 4.37311 0
M  V30 19569 C 1828.89 4.2332 4.42116 0
M  V30 19570 N 1828.03 4.20238 5.62445 0
M  V30 19571 H 1832.87 2.61073 1.43683 0
M  V30 19572 H 1830.41 1.29435 0.69892 0
M  V30 19573 H 1832.37 1.77959 3.77341 0
M  V30 19574 H 1831 0.847568 3.11474 0
M  V30 19575 H 1830.05 3.09353 2.21371 0
M  V30 19576 H 1831.36 3.92479 3.07834 0
M  V30 19577 H 1830.51 3.02868 5.25695 0
M  V30 19578 H 1829.25 2.09354 4.4048 0
M  V30 19579 H 1828.26 4.22236 3.52132 0
M  V30 19580 H 1829.48 5.1672 4.40656 0
M  V30 19581 H 1827.43 3.30884 5.66438 0
M  V30 19582 H 1827.35 5.03974 5.63512 0
M  V30 19583 H 1828.61 4.25672 6.53011 0
M  V30 19584 N 1832.84 -0.743177 1.38977 0
M  V30 19585 C 1834.09 -1.49798 1.35069 0
M  V30 19586 C 1834.41 -1.95527 -0.0533172 0
M  V30 19587 O 1835.61 -2.70648 -0.21497 0
M  V30 19588 C 1834.07 -2.70637 2.37242 0
M  V30 19589 C 1833.68 -2.3189 3.83316 0
M  V30 19590 C 1835.42 -3.4849 2.42395 0
M  V30 19591 C 1833.33 -3.49403 4.77149 0
M  V30 19592 H 1832.26 -0.562495 0.50211 0
M  V30 19593 H 1834.91 -0.81145 1.64584 0
M  V30 19594 H 1833.29 -3.41323 2.00785 0
M  V30 19595 H 1834.46 -1.68803 4.28768 0
M  V30 19596 H 1832.78 -1.67148 3.8138 0
M  V30 19597 H 1835.38 -4.35882 3.09694 0
M  V30 19598 H 1835.72 -3.9038 1.446 0
M  V30 19599 H 1836.25 -2.84825 2.77704 0
M  V30 19600 H 1832.99 -3.1257 5.76177 0
M  V30 19601 H 1832.51 -4.11498 4.36382 0
M  V30 19602 H 1834.19 -4.15847 4.95661 0
M  V30 19603 N 1834.32 -1.24018 -0.972487 0
M  V30 19604 C 1835.57 -1.07105 -1.70913 0
M  V30 19605 C 1835.88 0.390908 -1.91654 0
M  V30 19606 O 1837.09 0.68013 -2.62843 0
M  V30 19607 C 1835.55 -1.86823 -3.07612 0
M  V30 19608 C 1835.15 -3.37399 -2.94731 0
M  V30 19609 C 1836.9 -1.78425 -3.85182 0
M  V30 19610 C 1834.81 -4.09479 -4.2671 0
M  V30 19611 H 1833.74 -0.397184 -0.640907 0
M  V30 19612 H 1836.39 -1.48056 -1.08405 0
M  V30 19613 H 1834.77 -1.38683 -3.70922 0
M  V30 19614 H 1835.94 -3.93084 -2.40462 0
M  V30 19615 H 1834.26 -3.46697 -2.3063 0
M  V30 19616 H 1836.85 -2.29584 -4.82903 0
M  V30 19617 H 1837.2 -0.748555 -4.09515 0
M  V30 19618 H 1837.73 -2.24219 -3.28589 0
M  V30 19619 H 1834.47 -5.13387 -4.07571 0
M  V30 19620 H 1833.99 -3.5858 -4.80812 0
M  V30 19621 H 1835.67 -4.16212 -4.95355 0
M  V30 19622 N 1835.8 1.17245 -1.05316 0
M  V30 19623 C 1836.76 2.19508 -0.659467 0
M  V30 19624 C 1837.76 1.58169 0.289697 0
M  V30 19625 O 1838.95 1.74045 0.0734019 0
M  V30 19626 C 1836.09 3.40886 0.0311886 0
M  V30 19627 H 1837.28 2.55852 -1.5646 0
M  V30 19628 H 1834.83 1.31348 -0.847193 0
M  V30 19629 H 1835.57 3.10088 0.949535 0
M  V30 19630 H 1835.35 3.86655 -0.651191 0
M  V30 19631 H 1836.84 4.16573 0.292702 0
M  V30 19632 N 1837.28 0.834353 1.33702 0
M  V30 19633 C 1838.53 0.427887 1.97928 0
M  V30 19634 C 1838.85 -1.0118 1.66111 0
M  V30 19635 O 1838.11 -1.72144 0.930848 0
M  V30 19636 C 1838.41 0.590236 3.52493 0
M  V30 19637 C 1838.07 1.99735 4.04249 0
M  V30 19638 C 1836.74 2.38224 4.18094 0
M  V30 19639 C 1839.09 2.91665 4.3195 0
M  V30 19640 C 1836.42 3.67957 4.56973 0
M  V30 19641 C 1838.77 4.20874 4.72279 0
M  V30 19642 C 1837.43 4.59326 4.8433 0
M  V30 19643 H 1836.7 0.156575 0.724269 0
M  V30 19644 H 1839.35 1.06051 1.59454 0
M  V30 19645 H 1837.65 -0.125718 3.91598 0
M  V30 19646 H 1839.35 0.256094 4.00181 0
M  V30 19647 H 1835.94 1.6884 3.93943 0
M  V30 19648 H 1840.12 2.63168 4.20781 0
M  V30 19649 H 1835.38 3.9756 4.64495 0
M  V30 19650 H 1839.55 4.92187 4.92671 0
M  V30 19651 H 1837.18 5.59901 5.14213 0
M  V30 19652 N 1838.76 -1.46125 0.590367 0
M  V30 19653 C 1839.7 -2.30384 -0.138481 0
M  V30 19654 C 1840.67 -1.41078 -0.876715 0
M  V30 19655 O 1841.86 -1.70022 -0.86587 0
M  V30 19656 C 1839 -3.25684 -1.14122 0
M  V30 19657 C 1838.11 -4.30091 -0.405639 0
M  V30 19658 C 1837.25 -5.12513 -1.39657 0
M  V30 19659 C 1836.29 -6.08662 -0.647833 0
M  V30 19660 N 1835.42 -6.83924 -1.5872 0
M  V30 19661 H 1840.26 -2.9218 0.586086 0
M  V30 19662 H 1837.8 -1.43991 0.300835 0
M  V30 19663 H 1839.76 -3.79388 -1.73553 0
M  V30 19664 H 1838.39 -2.6568 -1.8334 0
M  V30 19665 H 1837.44 -3.79184 0.303858 0
M  V30 19666 H 1838.75 -4.98477 0.179348 0
M  V30 19667 H 1837.91 -5.70531 -2.06346 0
M  V30 19668 H 1836.64 -4.44105 -2.01549 0
M  V30 19669 H 1835.65 -5.4979 0.0327878 0
M  V30 19670 H 1836.87 -6.79091 -0.0342018 0
M  V30 19671 H 1834.82 -6.1822 -2.19408 0
M  V30 19672 H 1834.74 -7.48599 -1.05522 0
M  V30 19673 H 1836.01 -7.46496 -2.2442 0
M  V30 19674 N 1840.23 -0.328564 -1.54137 0
M  V30 19675 C 1841.65 0.158467 -1.86026 0
M  V30 19676 C 1842 1.51216 -1.25012 0
M  V30 19677 O 1841.12 2.09081 -0.558029 0
M  V30 19678 C 1841.72 0.294317 -3.37519 0
M  V30 19679 C 1840.28 0.72557 -3.69341 0
M  V30 19680 C 1839.42 -0.149724 -2.76895 0
M  V30 19681 H 1842.37 -0.548678 -1.48913 0
M  V30 19682 H 1842.39 1.12438 -3.63508 0
M  V30 19683 H 1841.91 -0.691071 -3.81898 0
M  V30 19684 H 1840.01 1.72052 -3.30498 0
M  V30 19685 H 1840.12 0.525853 -4.76205 0
M  V30 19686 H 1838.48 0.375531 -2.51916 0
M  V30 19687 H 1839.27 -1.13197 -3.24101 0
M  V30 19688 N 1841.71 1.57497 -0.0568439 0
M  V30 19689 C 1842.66 2.11862 0.915593 0
M  V30 19690 C 1843.63 1.02738 1.30515 0
M  V30 19691 O 1844.81 1.30318 1.39362 0
M  V30 19692 C 1841.95 2.67269 2.18315 0
M  V30 19693 C 1841.07 3.90498 1.84757 0
M  V30 19694 C 1840.2 4.342 3.06013 0
M  V30 19695 C 1839.24 5.50115 2.68403 0
M  V30 19696 N 1838.38 5.88844 3.8237 0
M  V30 19697 H 1843.22 2.94657 0.445101 0
M  V30 19698 H 1840.76 1.45621 0.20807 0
M  V30 19699 H 1842.71 2.97494 2.92494 0
M  V30 19700 H 1841.34 1.87262 2.62931 0
M  V30 19701 H 1840.4 3.66828 1.00703 0
M  V30 19702 H 1841.71 4.7473 1.53077 0
M  V30 19703 H 1840.86 4.66008 3.88486 0
M  V30 19704 H 1839.6 3.4879 3.40876 0
M  V30 19705 H 1838.61 5.17973 1.84348 0
M  V30 19706 H 1839.83 6.37244 2.34726 0
M  V30 19707 H 1837.78 5.06387 4.17024 0
M  V30 19708 H 1837.69 6.67781 3.54407 0
M  V30 19709 H 1838.96 6.25269 4.65466 0
M  V30 19710 N 1843.19 -0.216591 1.56105 0
M  V30 19711 C 1844.14 -1.27204 1.89217 0
M  V30 19712 C 1845.12 -1.42048 0.755716 0
M  V30 19713 O 1846.32 -1.4478 1.01822 0
M  V30 19714 C 1843.45 -2.62143 2.21666 0
M  V30 19715 C 1842.53 -2.5118 3.41716 0
M  V30 19716 N 1842.92 -2.09872 4.60203 0
M  V30 19717 C 1841.22 -2.82126 3.45428 0
M  V30 19718 C 1841.92 -2.1028 5.42363 0
M  V30 19719 N 1840.9 -2.50959 4.82204 0
M  V30 19720 H 1844.7 -0.943648 2.78339 0
M  V30 19721 H 1842.21 -0.425133 1.56737 0
M  V30 19722 H 1844.21 -3.38352 2.43565 0
M  V30 19723 H 1842.87 -2.95824 1.3386 0
M  V30 19724 H 1843.88 -1.80924 4.8527 0
M  V30 19725 H 1840.56 -3.20146 2.67979 0
M  V30 19726 H 1841.95 -1.80426 6.47222 0
M  V30 19727 N 1844.67 -1.5 -0.48349 0
M  V30 19728 C 1845.9 -1.63867 -1.25821 0
M  V30 19729 C 1846.31 -0.316335 -1.86537 0
M  V30 19730 O 1845.65 0.710307 -1.69412 0
M  V30 19731 C 1845.71 -2.66251 -2.41559 0
M  V30 19732 C 1845.38 -4.10141 -2.01577 0
M  V30 19733 C 1846.37 -4.964 -1.5454 0
M  V30 19734 C 1844.06 -4.55983 -2.10677 0
M  V30 19735 C 1846.05 -6.26546 -1.17129 0
M  V30 19736 C 1843.74 -5.86137 -1.72877 0
M  V30 19737 C 1844.74 -6.71243 -1.2618 0
M  V30 19738 O 1844.42 -7.98969 -0.888988 0
M  V30 19739 H 1844.16 -0.554155 -0.387154 0
M  V30 19740 H 1846.71 -1.96893 -0.585005 0
M  V30 19741 H 1844.94 -2.28442 -3.12011 0
M  V30 19742 H 1846.63 -2.69466 -3.03551 0
M  V30 19743 H 1847.4 -4.62205 -1.46942 0
M  V30 19744 H 1843.27 -3.89895 -2.45974 0
M  V30 19745 H 1846.82 -6.92927 -0.806093 0
M  V30 19746 H 1842.72 -6.19857 -1.80131 0
M  V30 19747 H 1843.48 -8.12133 -1.01893 0
M  V30 19748 N 1846.15 0.735796 -1.39369 0
M  V30 19749 C 1847.39 1.49534 -1.3655 0
M  V30 19750 C 1847.72 1.94461 0.0388165 0
M  V30 19751 O 1846.98 1.67048 1.01949 0
M  V30 19752 C 1847.28 2.7495 -2.28336 0
M  V30 19753 C 1846.94 2.48894 -3.75982 0
M  V30 19754 C 1845.6 2.41498 -4.16212 0
M  V30 19755 C 1847.96 2.26589 -4.69369 0
M  V30 19756 C 1845.28 2.09836 -5.47892 0
M  V30 19757 C 1847.64 1.96444 -6.01326 0
M  V30 19758 C 1846.3 1.87515 -6.4062 0
M  V30 19759 H 1845.57 0.547184 -0.49967 0
M  V30 19760 H 1848.22 0.844587 -1.71869 0
M  V30 19761 H 1846.52 3.44764 -1.86132 0
M  V30 19762 H 1848.22 3.32975 -2.23448 0
M  V30 19763 H 1844.81 2.5553 -3.44097 0
M  V30 19764 H 1848.99 2.31272 -4.39121 0
M  V30 19765 H 1844.25 2.01445 -5.77261 0
M  V30 19766 H 1848.42 1.78193 -6.73216 0
M  V30 19767 H 1846.05 1.62747 -7.42575 0
M  V30 19768 N 1847.63 1.24532 0.965897 0
M  V30 19769 C 1848.85 1.11318 1.74401 0
M  V30 19770 C 1849.27 -0.33411 1.8582 0
M  V30 19771 O 1848.63 -1.23044 1.34783 0
M  V30 19772 C 1848.68 1.74927 3.16358 0
M  V30 19773 O 1848.4 3.13998 3.05511 0
M  V30 19774 C 1849.9 1.67347 4.105 0
M  V30 19775 H 1847.12 0.388835 0.546853 0
M  V30 19776 H 1849.66 1.64674 1.21255 0
M  V30 19777 H 1847.82 1.2557 3.66485 0
M  V30 19778 H 1848.23 3.45097 3.94979 0
M  V30 19779 H 1849.71 2.16533 5.07757 0
M  V30 19780 H 1850.18 0.635036 4.34585 0
M  V30 19781 H 1850.79 2.16139 3.66284 0
M  V30 19782 N 1849.1 -1.16685 1.05936 0
M  V30 19783 C 1850.38 -1.8312 0.6875 0
M  V30 19784 C 1850.76 -1.94035 -0.831474 0
M  V30 19785 O 1850.11 -1.48067 -1.74036 0
M  V30 19786 C 1850.32 -3.20331 1.38524 0
M  V30 19787 C 1851.67 -3.96149 1.52811 0
M  V30 19788 O 1852.69 -3.29837 1.34485 0
M  V30 19789 O 1851.55 -5.15005 1.82845 0
M  V30 19790 H 1848.64 -0.790513 0.242937 0
M  V30 19791 H 1851.19 -1.23918 1.15941 0
M  V30 19792 H 1849.96 -3.074 2.42118 0
M  V30 19793 H 1849.58 -3.87206 0.903164 0
M  V30 19794 N 1850.58 -0.841432 -1.33258 0
M  V30 19795 C 1851.54 -0.281685 -2.27462 0
M  V30 19796 C 1852.54 0.551062 -1.51063 0
M  V30 19797 O 1853.73 0.364482 -1.70344 0
M  V30 19798 C 1850.87 0.602896 -3.35526 0
M  V30 19799 H 1852.06 -1.11298 -2.78483 0
M  V30 19800 H 1849.61 -0.614717 -1.43704 0
M  V30 19801 H 1850.35 1.45652 -2.89751 0
M  V30 19802 H 1850.13 0.00701634 -3.92099 0
M  V30 19803 H 1851.62 0.987735 -4.05751 0
M  V30 19804 N 1852.06 1.4581 -0.598108 0
M  V30 19805 C 1853.31 2.03163 -0.0981368 0
M  V30 19806 C 1853.66 1.45942 1.25374 0
M  V30 19807 O 1852.95 0.620981 1.81258 0
M  V30 19808 C 1853.15 3.57399 0.00976809 0
M  V30 19809 C 1852.98 4.29579 -1.3301 0
M  V30 19810 C 1851.75 4.6788 -1.90831 0
M  V30 19811 C 1853.94 4.62141 -2.25677 0
M  V30 19812 N 1851.93 5.24878 -3.18397 0
M  V30 19813 C 1853.3 5.19872 -3.37836 0
M  V30 19814 C 1855.35 4.44077 -2.25167 0
M  V30 19815 C 1854.06 5.61443 -4.49639 0
M  V30 19816 C 1856.08 4.86674 -3.36009 0
M  V30 19817 C 1855.44 5.44489 -4.4689 0
M  V30 19818 H 1851.54 0.777994 -0.0790554 0
M  V30 19819 H 1854.13 1.77757 -0.794384 0
M  V30 19820 H 1852.3 3.82486 0.675215 0
M  V30 19821 H 1854.03 4.01403 0.515531 0
M  V30 19822 H 1850.78 4.51131 -1.44145 0
M  V30 19823 H 1851.21 5.57884 -3.83529 0
M  V30 19824 H 1855.85 3.987 -1.40706 0
M  V30 19825 H 1853.57 6.0579 -5.34831 0
M  V30 19826 H 1857.15 4.74437 -3.36751 0
M  V30 19827 H 1856.03 5.76846 -5.31243 0
M  V30 19828 N 1853.54 0.336733 1.53961 0
M  V30 19829 C 1854.49 -0.538599 2.26278 0
M  V30 19830 C 1855.48 -1.10764 1.2817 0
M  V30 19831 O 1856.69 -1.05416 1.45902 0
M  V30 19832 H 1853.06 -0.192363 0.72698 0
M  V30 19833 H 1855.03 0.0934532 2.98254 0
M  V30 19834 C 1853.78 -1.68121 3.04353 0
M  V30 19835 H 1853.1 -1.25261 3.7967 0
M  V30 19836 H 1854.54 -2.26901 3.58179 0
M  V30 19837 C 1853 -2.60663 2.13439 0
M  V30 19838 O 1853.53 -3.62731 1.72596 0
M  V30 19839 N 1851.74 -2.29194 1.78658 0
M  V30 19840 H 1851.29 -1.46233 2.1207 0
M  V30 19841 H 1851.24 -2.91371 1.18111 0
M  V30 19842 N 1855.02 -1.57465 0.0651956 0
M  V30 19843 C 1856.24 -1.9756 -0.614633 0
M  V30 19844 C 1856.66 -0.943308 -1.63546 0
M  V30 19845 O 1856.02 0.0708362 -1.82362 0
M  V30 19846 C 1856.07 -3.37735 -1.28909 0
M  V30 19847 O 1855.79 -4.37008 -0.309131 0
M  V30 19848 C 1857.29 -3.92667 -2.05736 0
M  V30 19849 H 1854.51 -0.64987 -0.167061 0
M  V30 19850 H 1857.05 -2.0405 0.135647 0
M  V30 19851 H 1855.21 -3.32352 -1.9905 0
M  V30 19852 H 1855.62 -5.18483 -0.792206 0
M  V30 19853 H 1857.1 -4.92988 -2.48329 0
M  V30 19854 H 1857.57 -3.28851 -2.91124 0
M  V30 19855 H 1858.18 -4.01431 -1.40476 0
M  V30 19856 N 1856.49 0.20831 -1.56217 0
M  V30 19857 C 1857.74 0.930725 -1.79844 0
M  V30 19858 C 1858.07 1.83801 -0.636208 0
M  V30 19859 O 1857.32 1.92 0.378755 0
M  V30 19860 C 1857.62 1.78999 -3.09345 0
M  V30 19861 C 1857.29 1.03482 -4.38865 0
M  V30 19862 C 1855.95 0.826263 -4.74053 0
M  V30 19863 C 1858.3 0.50251 -5.18772 0
M  V30 19864 C 1855.63 0.0737118 -5.86654 0
M  V30 19865 C 1857.98 -0.236764 -6.32157 0
M  V30 19866 C 1856.65 -0.456453 -6.65938 0
M  V30 19867 H 1855.92 0.340576 -0.658095 0
M  V30 19868 H 1858.56 0.197971 -1.90474 0
M  V30 19869 H 1856.87 2.59101 -2.93894 0
M  V30 19870 H 1858.57 2.35132 -3.24829 0
M  V30 19871 H 1855.16 1.20736 -4.11243 0
M  V30 19872 H 1859.34 0.651071 -4.92011 0
M  V30 19873 H 1854.6 -0.106598 -6.11307 0
M  V30 19874 H 1858.77 -0.656674 -6.93297 0
M  V30 19875 H 1856.4 -1.0415 -7.53032 0
M  V30 19876 N 1857.97 1.50255 0.475528 0
M  V30 19877 C 1859.25 1.51537 1.23676 0
M  V30 19878 C 1859.63 0.257508 2.09524 0
M  V30 19879 O 1858.98 -0.759242 2.15517 0
M  V30 19880 C 1859.19 2.80865 2.07162 0
M  V30 19881 C 1860.53 3.31353 2.655 0
M  V30 19882 O 1861.56 2.82156 2.17408 0
M  V30 19883 O 1860.42 4.17102 3.53112 0
M  V30 19884 H 1857.51 0.607633 0.560991 0
M  V30 19885 H 1860.06 1.62541 0.487712 0
M  V30 19886 H 1858.83 3.63891 1.43871 0
M  V30 19887 H 1858.45 2.72844 2.89209 0
M  V30 19888 N 1859.45 -0.728395 1.39758 0
M  V30 19889 C 1860.41 -1.82415 1.38772 0
M  V30 19890 C 1861.41 -1.58278 0.283678 0
M  V30 19891 O 1862.6 -1.65556 0.541927 0
M  V30 19892 C 1859.73 -3.20309 1.16684 0
M  V30 19893 H 1860.93 -1.8469 2.36283 0
M  V30 19894 H 1858.48 -0.932729 1.25419 0
M  V30 19895 H 1859.22 -3.2369 0.198817 0
M  V30 19896 H 1859 -3.39226 1.96643 0
M  V30 19897 H 1860.49 -4.0036 1.18751 0
M  V30 19898 N 1860.93 -1.25042 -0.959279 0
M  V30 19899 C 1861.86 -1.07494 -2.07285 0
M  V30 19900 C 1862.84 0.0146264 -1.70094 0
M  V30 19901 O 1864.02 -0.154035 -1.93588 0
M  V30 19902 C 1861.15 -0.68794 -3.40418 0
M  V30 19903 C 1860.11 -1.72722 -3.91601 0
M  V30 19904 C 1859.43 -1.19504 -5.21175 0
M  V30 19905 C 1860.73 -3.12502 -4.18497 0
M  V30 19906 H 1862.43 -2.00641 -2.22224 0
M  V30 19907 H 1859.97 -0.966074 -1.06785 0
M  V30 19908 H 1861.93 -0.552133 -4.17767 0
M  V30 19909 H 1860.65 0.279224 -3.25404 0
M  V30 19910 H 1859.31 -1.85139 -3.16416 0
M  V30 19911 H 1858.96 -0.218239 -5.02526 0
M  V30 19912 H 1858.66 -1.88962 -5.56387 0
M  V30 19913 H 1860.18 -1.07153 -6.01124 0
M  V30 19914 H 1861.6 -3.03266 -4.86521 0
M  V30 19915 H 1859.99 -3.79389 -4.64956 0
M  V30 19916 H 1861.06 -3.5991 -3.2495 0
M  V30 19917 N 1862.41 1.16121 -1.06553 0
M  V30 19918 C 1863.66 1.86055 -0.778871 0
M  V30 19919 C 1863.97 1.82747 0.697357 0
M  V30 19920 O 1865.17 2.48285 1.09849 0
M  V30 19921 C 1863.63 3.33897 -1.34315 0
M  V30 19922 C 1863.24 3.45673 -2.84981 0
M  V30 19923 C 1864.98 4.09069 -1.13415 0
M  V30 19924 C 1862.89 4.87616 -3.34641 0
M  V30 19925 H 1861.82 0.696963 -0.287678 0
M  V30 19926 H 1864.47 1.31038 -1.28458 0
M  V30 19927 H 1862.85 3.88536 -0.765208 0
M  V30 19928 H 1864.03 3.01181 -3.4875 0
M  V30 19929 H 1862.34 2.83938 -3.04579 0
M  V30 19930 H 1864.94 5.13809 -1.48002 0
M  V30 19931 H 1865.28 4.16237 -0.0726719 0
M  V30 19932 H 1865.81 3.60676 -1.67802 0
M  V30 19933 H 1862.55 4.85629 -4.40278 0
M  V30 19934 H 1862.07 5.32722 -2.75622 0
M  V30 19935 H 1863.75 5.56443 -3.30122 0
M  V30 19936 N 1863.88 0.848487 1.3281 0
M  V30 19937 C 1865.13 0.449521 1.97755 0
M  V30 19938 C 1865.46 -0.990923 1.67016 0
M  V30 19939 O 1864.74 -1.69434 0.955119 0
M  V30 19940 C 1865.02 0.681898 3.53585 0
M  V30 19941 C 1864.87 2.17031 3.93976 0
M  V30 19942 C 1866.19 0.134271 4.39895 0
M  V30 19943 H 1863.31 0.164799 0.718339 0
M  V30 19944 H 1865.95 1.06578 1.57293 0
M  V30 19945 H 1864.1 0.157353 3.88181 0
M  V30 19946 H 1865.78 2.76046 3.69589 0
M  V30 19947 H 1864.02 2.65117 3.43359 0
M  V30 19948 H 1864.69 2.28362 5.02548 0
M  V30 19949 H 1867.17 0.582756 4.11999 0
M  V30 19950 H 1866.04 0.326479 5.47928 0
M  V30 19951 H 1866.3 -0.962576 4.31494 0
M  V30 19952 N 1865.36 -1.4549 0.605832 0
M  V30 19953 C 1866.61 -2.02551 0.100487 0
M  V30 19954 C 1866.94 -1.47346 -1.26502 0
M  V30 19955 O 1866.22 -0.647471 -1.83407 0
M  V30 19956 C 1866.5 -3.60051 0.0596664 0
M  V30 19957 C 1866.35 -4.25592 1.45572 0
M  V30 19958 C 1867.67 -4.35581 -0.629073 0
M  V30 19959 H 1864.79 -0.73602 0.0379904 0
M  V30 19960 H 1867.43 -1.73365 0.777468 0
M  V30 19961 H 1865.58 -3.85047 -0.516838 0
M  V30 19962 H 1867.25 -4.11787 2.07916 0
M  V30 19963 H 1865.5 -3.84061 2.01692 0
M  V30 19964 H 1866.17 -5.34487 1.37941 0
M  V30 19965 H 1868.64 -4.15868 -0.139076 0
M  V30 19966 H 1867.52 -5.4531 -0.626735 0
M  V30 19967 H 1867.78 -4.08323 -1.69483 0
M  V30 19968 N 1866.84 -0.344893 -1.5378 0
M  V30 19969 C 1868.09 0.250711 -2.00539 0
M  V30 19970 C 1868.41 1.5096 -1.23435 0
M  V30 19971 O 1867.68 1.92893 -0.341893 0
M  V30 19972 H 1866.26 0.0956318 -0.740853 0
M  V30 19973 H 1868.92 -0.466361 -1.89238 0
M  V30 19974 H 1868.02 0.49222 -3.08194 0
M  V30 19975 N 1868.32 1.57428 -0.0735454 0
M  V30 19976 C 1869.54 1.98301 0.607591 0
M  V30 19977 C 1869.97 0.951686 1.62248 0
M  V30 19978 O 1869.33 -0.0825008 1.81112 0
M  V30 19979 C 1869.37 3.38201 1.2511 0
M  V30 19980 O 1868.48 3.37711 2.36696 0
M  V30 19981 H 1867.82 0.64539 0.156104 0
M  V30 19982 H 1870.35 2.0406 -0.148578 0
M  V30 19983 H 1870.36 3.75424 1.59753 0
M  V30 19984 H 1869.03 4.12793 0.50745 0
M  V30 19985 H 1867.61 3.1226 2.03833 0
M  V30 19986 N 1869.8 -0.200022 1.56326 0
M  V30 19987 C 1871.05 -0.919331 1.7953 0
M  V30 19988 C 1871.36 -1.84628 0.645908 0
M  V30 19989 O 1872.56 -2.60584 0.762132 0
M  V30 19990 C 1871.02 -1.68508 3.18014 0
M  V30 19991 C 1870.63 -0.803202 4.40741 0
M  V30 19992 C 1872.37 -2.39432 3.50532 0
M  V30 19993 C 1870.28 -1.56753 5.70248 0
M  V30 19994 H 1869.21 -0.347018 0.669399 0
M  V30 19995 H 1871.86 -0.172713 1.82685 0
M  V30 19996 H 1870.24 -2.4754 3.09095 0
M  V30 19997 H 1871.42 -0.0518889 4.60771 0
M  V30 19998 H 1869.73 -0.205039 4.15895 0
M  V30 19999 H 1872.33 -2.97158 4.44524 0
M  V30 20000 H 1872.67 -3.13378 2.74043 0
M  V30 20001 H 1873.2 -1.6737 3.60877 0
M  V30 20002 H 1869.94 -0.870942 6.49688 0
M  V30 20003 H 1869.46 -2.29291 5.54243 0
M  V30 20004 H 1871.14 -2.12262 6.11191 0
M  V30 20005 N 1871.27 -1.50505 -0.467553 0
M  V30 20006 C 1872.52 -1.6191 -1.22118 0
M  V30 20007 C 1872.85 -0.320112 -1.91544 0
M  V30 20008 O 1872.13 0.678631 -1.82277 0
M  V30 20009 C 1872.41 -2.80184 -2.26206 0
M  V30 20010 C 1872.26 -4.19975 -1.61062 0
M  V30 20011 C 1873.58 -2.94011 -3.27484 0
M  V30 20012 H 1870.7 -0.589289 -0.442615 0
M  V30 20013 H 1873.34 -1.82902 -0.514484 0
M  V30 20014 H 1871.49 -2.62417 -2.86478 0
M  V30 20015 H 1873.17 -4.4934 -1.04359 0
M  V30 20016 H 1871.41 -4.24069 -0.91365 0
M  V30 20017 H 1872.08 -4.98667 -2.36718 0
M  V30 20018 H 1874.56 -3.10288 -2.77238 0
M  V30 20019 H 1873.43 -3.78384 -3.97639 0
M  V30 20020 H 1873.69 -2.04777 -3.91815 0
M  V30 20021 N 1872.75 0.720973 -1.40142 0
M  V30 20022 C 1874.03 1.47356 -1.28629 0
M  V30 20023 C 1874.41 2.10873 0.0978138 0
M  V30 20024 O 1873.76 1.99717 1.1102 0
M  V30 20025 C 1873.97 2.51364 -2.4211 0
M  V30 20026 C 1875.32 3.17348 -2.82091 0
M  V30 20027 O 1876.34 2.61682 -2.41663 0
M  V30 20028 O 1875.2 4.1811 -3.51918 0
M  V30 20029 H 1872.29 0.655019 -0.504855 0
M  V30 20030 H 1874.84 0.753605 -1.52049 0
M  V30 20031 H 1873.61 2.02907 -3.34581 0
M  V30 20032 H 1873.23 3.30901 -2.20432 0
M  V30 20033 N 1874.23 1.25549 0.952634 0
M  V30 20034 C 1875.48 1.09811 1.69188 0
M  V30 20035 C 1875.79 -0.360368 1.92252 0
M  V30 20036 O 1877 -0.638228 2.63892 0
M  V30 20037 C 1875.45 1.91693 3.04601 0
M  V30 20038 C 1875.06 3.42045 2.89326 0
M  V30 20039 C 1876.81 1.8453 3.82294 0
M  V30 20040 C 1874.71 4.16216 4.20141 0
M  V30 20041 H 1873.64 0.40733 0.634507 0
M  V30 20042 H 1876.29 1.49762 1.06035 0
M  V30 20043 H 1874.68 1.44566 3.68669 0
M  V30 20044 H 1875.85 3.96859 2.34178 0
M  V30 20045 H 1874.17 3.50322 2.25085 0
M  V30 20046 H 1876.76 2.37237 4.79189 0
M  V30 20047 H 1877.11 0.81361 4.08272 0
M  V30 20048 H 1877.64 2.29418 3.2498 0
M  V30 20049 H 1874.38 5.19806 3.99352 0
M  V30 20050 H 1873.9 3.66184 4.75047 0
M  V30 20051 H 1875.58 4.2404 4.88671 0
M  V30 20052 N 1875.71 -1.15554 1.07168 0
M  V30 20053 C 1876.67 -2.18431 0.694305 0
M  V30 20054 C 1877.67 -1.5861 -0.264497 0
M  V30 20055 O 1878.86 -1.7414 -0.0457035 0
M  V30 20056 C 1875.99 -3.40892 0.0230473 0
M  V30 20057 H 1877.19 -2.53331 1.60511 0
M  V30 20058 H 1874.74 -1.29984 0.867982 0
M  V30 20059 H 1875.47 -3.11559 -0.900083 0
M  V30 20060 H 1875.26 -3.8557 0.712622 0
M  V30 20061 H 1876.75 -4.16986 -0.226392 0
M  V30 20062 N 1877.19 -0.855519 -1.32358 0
M  V30 20063 C 1878.43 -0.460002 -1.97514 0
M  V30 20064 C 1878.77 0.982052 -1.67539 0
M  V30 20065 O 1878.04 1.68925 -0.964091 0
M  V30 20066 C 1878.32 -0.70064 -3.53218 0
M  V30 20067 C 1878.18 -2.19118 -3.9282 0
M  V30 20068 C 1879.5 -0.157597 -4.39818 0
M  V30 20069 H 1876.62 -0.168606 -0.717455 0
M  V30 20070 H 1879.26 -1.0741 -1.56726 0
M  V30 20071 H 1877.41 -0.177937 -3.88092 0
M  V30 20072 H 1879.08 -2.78002 -3.6812 0
M  V30 20073 H 1877.32 -2.66934 -3.41948 0
M  V30 20074 H 1877.99 -2.31024 -5.0133 0
M  V30 20075 H 1880.47 -0.604597 -4.11684 0
M  V30 20076 H 1879.35 -0.355532 -5.47747 0
M  V30 20077 H 1879.61 0.939679 -4.31998 0
M  V30 20078 N 1878.67 1.45167 -0.61354 0
M  V30 20079 C 1879.89 2.06565 -0.117608 0
M  V30 20080 C 1880.31 1.45716 1.20051 0
M  V30 20081 O 1879.67 0.573512 1.73254 0
M  V30 20082 C 1879.72 3.61493 0.0221474 0
M  V30 20083 O 1879.44 4.20072 -1.24383 0
M  V30 20084 C 1880.94 4.39889 0.548841 0
M  V30 20085 H 1878.16 0.667172 -0.0715756 0
M  V30 20086 H 1880.7 1.86318 -0.84296 0
M  V30 20087 H 1878.86 3.81063 0.697854 0
M  V30 20088 H 1879.27 5.13317 -1.07733 0
M  V30 20089 H 1880.75 5.48776 0.595696 0
M  V30 20090 H 1881.22 4.1009 1.57234 0
M  V30 20091 H 1881.83 4.25198 -0.0930203 0
M  V30 20092 N 1880.14 0.353044 1.53595 0
M  V30 20093 C 1881.05 -0.507548 2.29044 0
M  V30 20094 C 1882.07 -1.10364 1.34521 0
M  V30 20095 O 1883.25 -1.11728 1.67567 0
M  V30 20096 C 1880.31 -1.63799 3.05566 0
M  V30 20097 C 1879.37 -1.07071 4.15733 0
M  V30 20098 C 1878.6 -2.14728 4.88597 0
M  V30 20099 O 1878.83 -3.35619 4.61211 0
M  V30 20100 O 1877.76 -1.78489 5.74826 0
M  V30 20101 H 1881.59 0.10606 3.03515 0
M  V30 20102 H 1879.17 0.117799 1.48935 0
M  V30 20103 H 1881.05 -2.2955 3.5339 0
M  V30 20104 H 1879.73 -2.23723 2.33944 0
M  V30 20105 H 1878.64 -0.37746 3.72191 0
M  V30 20106 H 1879.97 -0.516205 4.89486 0
M  V30 20107 N 1881.62 -1.57387 0.0818932 0
M  V30 20108 C 1882.87 -1.94156 -0.585765 0
M  V30 20109 C 1883.2 -0.962889 -1.68648 0
M  V30 20110 O 1882.48 0.00625819 -1.94499 0
M  V30 20111 C 1882.76 -3.41132 -1.15329 0
M  V30 20112 C 1882.61 -4.49762 -0.0585349 0
M  V30 20113 C 1883.93 -3.89137 -2.05573 0
M  V30 20114 H 1881.05 -0.706012 -0.211463 0
M  V30 20115 H 1883.69 -1.89408 0.149918 0
M  V30 20116 H 1881.84 -3.4531 -1.78026 0
M  V30 20117 H 1883.51 -4.57702 0.575061 0
M  V30 20118 H 1881.76 -4.29496 0.609574 0
M  V30 20119 H 1882.43 -5.49765 -0.496206 0
M  V30 20120 H 1884.9 -3.87029 -1.52798 0
M  V30 20121 H 1883.78 -4.92569 -2.42213 0
M  V30 20122 H 1884.04 -3.27663 -2.96799 0
M  V30 20123 N 1883.1 0.191729 -1.56429 0
M  V30 20124 C 1884.05 1.25706 -1.95706 0
M  V30 20125 C 1885.04 1.46938 -0.842948 0
M  V30 20126 O 1886.25 1.47759 -1.02797 0
M  V30 20127 H 1882.62 0.422099 -0.622364 0
M  V30 20128 H 1884.59 0.8988 -2.84542 0
M  V30 20129 C 1883.34 2.59366 -2.3157 0
M  V30 20130 H 1882.67 2.43845 -3.16827 0
M  V30 20131 H 1884.11 3.32646 -2.62912 0
M  V30 20132 C 1882.56 3.16609 -1.15155 0
M  V30 20133 O 1883.09 3.9941 -0.428355 0
M  V30 20134 N 1881.3 2.75402 -0.927467 0
M  V30 20135 H 1880.85 2.08172 -1.5173 0
M  V30 20136 H 1880.81 3.1404 -0.150348 0
M  V30 20137 N 1884.58 1.50751 0.459565 0
M  V30 20138 C 1885.53 1.70997 1.57679 0
M  V30 20139 C 1886.52 0.575925 1.59309 0
M  V30 20140 O 1887.73 0.756735 1.6332 0
M  V30 20141 H 1884.1 0.539921 0.52344 0
M  V30 20142 H 1886.07 2.64693 1.37769 0
M  V30 20143 C 1884.82 1.83187 2.9553 0
M  V30 20144 H 1884.14 2.69844 2.94998 0
M  V30 20145 H 1885.58 2.01374 3.73128 0
M  V30 20146 C 1884.04 0.586222 3.31761 0
M  V30 20147 O 1884.57 -0.269358 4.00796 0
M  V30 20148 N 1882.78 0.436839 2.87298 0
M  V30 20149 H 1882.33 1.13413 2.31291 0
M  V30 20150 H 1882.28 -0.395424 3.11903 0
M  V30 20151 N 1886.06 -0.713531 1.40522 0
M  V30 20152 C 1887.3 -1.47052 1.38637 0
M  V30 20153 C 1887.62 -1.94998 -0.00984474 0
M  V30 20154 O 1886.89 -1.70486 -0.964959 0
M  V30 20155 H 1885.47 -0.545577 0.51025 0
M  V30 20156 H 1888.14 -0.84572 1.75595 0
M  V30 20157 H 1887.23 -2.34237 2.06251 0
M  V30 20158 N 1887.53 -1.26053 -0.945962 0
M  V30 20159 C 1888.78 -1.11095 -1.68826 0
M  V30 20160 C 1889.1 0.347174 -1.91885 0
M  V30 20161 O 1888.37 1.24545 -1.51213 0
M  V30 20162 H 1886.95 -0.408128 -0.625652 0
M  V30 20163 H 1889.61 -1.58309 -1.13686 0
M  V30 20164 H 1888.71 -1.626 -2.66397 0
M  V30 20165 N 1889.01 1.14984 -1.07779 0
M  V30 20166 C 1889.96 2.1788 -0.671747 0
M  V30 20167 C 1890.95 1.57976 0.305353 0
M  V30 20168 O 1892.14 1.76604 0.118388 0
M  V30 20169 C 1889.27 3.43216 -0.0757397 0
M  V30 20170 C 1888.35 4.10164 -1.07824 0
M  V30 20171 N 1888.74 4.52533 -2.25937 0
M  V30 20172 C 1887.04 4.36564 -0.912555 0
M  V30 20173 C 1887.74 5.04503 -2.89572 0
M  V30 20174 N 1886.72 4.98316 -2.17214 0
M  V30 20175 H 1890.52 2.48372 -1.57126 0
M  V30 20176 H 1888.03 1.31599 -0.951599 0
M  V30 20177 H 1890.03 4.16248 0.233075 0
M  V30 20178 H 1888.69 3.14206 0.81884 0
M  V30 20179 H 1889.7 4.4578 -2.6363 0
M  V30 20180 H 1886.38 4.17439 -0.0712389 0
M  V30 20181 H 1887.77 5.4721 -3.89886 0
M  V30 20182 N 1890.49 0.862526 1.31902 0
M  V30 20183 C 1891.42 0.328423 2.31179 0
M  V30 20184 C 1892.4 -0.57668 1.60026 0
M  V30 20185 O 1893.59 -0.49527 1.87778 0
M  V30 20186 C 1890.72 -0.47734 3.44004 0
M  V30 20187 C 1889.67 0.334015 4.26695 0
M  V30 20188 C 1889 -0.596973 5.31357 0
M  V30 20189 C 1890.3 1.56405 4.98332 0
M  V30 20190 H 1891.99 1.15797 2.761 0
M  V30 20191 H 1889.54 0.558268 1.32738 0
M  V30 20192 H 1891.49 -0.861461 4.12501 0
M  V30 20193 H 1890.21 -1.34033 2.9783 0
M  V30 20194 H 1888.87 0.699989 3.59855 0
M  V30 20195 H 1888.52 -1.45703 4.81435 0
M  V30 20196 H 1888.22 -0.0580517 5.87571 0
M  V30 20197 H 1889.74 -0.978099 6.02715 0
M  V30 20198 H 1891.16 1.25178 5.59467 0
M  V30 20199 H 1889.55 2.04149 5.64308 0
M  V30 20200 H 1890.62 2.32099 4.25744 0
M  V30 20201 N 1891.97 -1.4484 0.62123 0
M  V30 20202 C 1893.22 -2.01734 0.121544 0
M  V30 20203 C 1893.54 -1.49041 -1.25745 0
M  V30 20204 O 1892.81 -0.690056 -1.83344 0
M  V30 20205 H 1891.39 -0.745822 0.0419419 0
M  V30 20206 H 1894.05 -1.77467 0.805702 0
M  V30 20207 H 1893.15 -3.11993 0.0816882 0
M  V30 20208 N 1893.45 -0.361184 -1.53405 0
M  V30 20209 C 1894.36 0.495394 -2.2931 0
M  V30 20210 C 1895.37 1.09649 -1.35104 0
M  V30 20211 O 1896.55 1.10838 -1.68158 0
M  V30 20212 C 1893.61 1.62176 -3.06431 0
M  V30 20213 C 1892.67 1.04865 -4.16295 0
M  V30 20214 C 1891.91 2.12134 -4.89729 0
M  V30 20215 O 1892.13 3.33169 -4.62985 0
M  V30 20216 O 1891.06 1.75438 -5.75765 0
M  V30 20217 H 1894.89 -0.122155 -3.03454 0
M  V30 20218 H 1892.48 -0.125695 -1.4887 0
M  V30 20219 H 1894.36 2.27673 -3.54603 0
M  V30 20220 H 1893.03 2.22479 -2.35127 0
M  V30 20221 H 1891.94 0.357717 -3.72386 0
M  V30 20222 H 1893.27 0.490239 -4.89752 0
M  V30 20223 N 1894.92 1.57341 -0.0902386 0
M  V30 20224 C 1896.15 1.98934 0.586524 0
M  V30 20225 C 1896.57 0.968841 1.6123 0
M  V30 20226 O 1895.93 -0.0632868 1.8119 0
M  V30 20227 C 1895.98 3.39509 1.21516 0
M  V30 20228 O 1895.08 3.40203 2.331 0
M  V30 20229 H 1894.43 0.647009 0.14925 0
M  V30 20230 H 1896.96 2.03891 -0.170213 0
M  V30 20231 H 1896.97 3.77097 1.55762 0
M  V30 20232 H 1895.64 4.13308 0.463639 0
M  V30 20233 H 1894.22 3.14405 2.0051 0
M  V30 20234 N 1896.4 -0.183431 1.56529 0
M  V30 20235 C 1897.63 -0.921964 1.85781 0
M  V30 20236 C 1898.05 -1.75564 0.675184 0
M  V30 20237 O 1897.41 -1.7736 -0.375913 0
M  V30 20238 C 1897.46 -1.7844 3.13355 0
M  V30 20239 O 1896.56 -2.88461 2.94727 0
M  V30 20240 H 1895.9 -0.258974 0.611415 0
M  V30 20241 H 1898.43 -0.185225 2.0376 0
M  V30 20242 H 1898.44 -2.18675 3.44449 0
M  V30 20243 H 1897.12 -1.17195 3.99047 0
M  V30 20244 H 1895.7 -2.51897 2.74959 0
M  V30 20245 N 1897.88 -1.50992 -0.451564 0
M  V30 20246 C 1898.79 -1.74097 -1.5725 0
M  V30 20247 C 1899.81 -0.624663 -1.62401 0
M  V30 20248 O 1900.98 -0.90528 -1.79907 0
M  V30 20249 C 1898.05 -1.84808 -2.93338 0
M  V30 20250 C 1897.11 -3.08618 -2.98418 0
M  V30 20251 C 1896.34 -3.18808 -4.28015 0
M  V30 20252 O 1896.56 -2.35291 -5.1961 0
M  V30 20253 O 1895.5 -4.11685 -4.39089 0
M  V30 20254 H 1899.32 -2.69156 -1.40673 0
M  V30 20255 H 1896.91 -1.35322 -0.633105 0
M  V30 20256 H 1898.79 -1.9392 -3.7413 0
M  V30 20257 H 1897.47 -0.929344 -3.10072 0
M  V30 20258 H 1896.37 -3.04993 -2.16633 0
M  V30 20259 H 1897.71 -4.00133 -2.86625 0
M  V30 20260 N 1899.36 0.706069 -1.40899 0
M  V30 20261 C 1900.64 1.45984 -1.30185 0
M  V30 20262 C 1901.02 2.10965 0.0754423 0
M  V30 20263 O 1900.36 2.00883 1.08896 0
M  V30 20264 C 1900.57 2.48782 -2.44762 0
M  V30 20265 C 1901.92 3.14339 -2.85441 0
M  V30 20266 O 1902.95 2.59104 -2.44425 0
M  V30 20267 O 1901.8 4.14354 -3.56333 0
M  V30 20268 H 1898.9 0.649628 -0.511774 0
M  V30 20269 H 1901.44 0.737436 -1.5284 0
M  V30 20270 H 1900.22 1.99346 -3.36715 0
M  V30 20271 H 1899.84 3.28545 -2.23929 0
M  V30 20272 N 1900.84 1.26553 0.939264 0
M  V30 20273 C 1902.06 1.15098 1.72532 0
M  V30 20274 C 1902.49 -0.289811 1.85854 0
M  V30 20275 O 1901.84 -1.20997 1.35017 0
M  V30 20276 C 1901.89 1.82703 3.10889 0
M  V30 20277 O 1901 1.11712 3.96981 0
M  V30 20278 H 1900.34 0.40095 0.529278 0
M  V30 20279 H 1902.87 1.67408 1.17625 0
M  V30 20280 H 1902.88 1.89603 3.61268 0
M  V30 20281 H 1901.55 2.87519 3.00509 0
M  V30 20282 H 1900.13 1.12801 3.5543 0
M  V30 20283 N 1902.31 -1.14411 1.08387 0
M  V30 20284 C 1903.54 -1.89848 0.835015 0
M  V30 20285 C 1903.96 -1.78034 -0.607091 0
M  V30 20286 O 1903.32 -1.12039 -1.42538 0
M  V30 20287 C 1903.37 -3.37818 1.26141 0
M  V30 20288 O 1902.47 -4.10325 0.41322 0
M  V30 20289 H 1901.82 -0.590682 0.303299 0
M  V30 20290 H 1904.35 -1.44823 1.44525 0
M  V30 20291 H 1904.36 -3.88631 1.24218 0
M  V30 20292 H 1903.03 -3.45735 2.31172 0
M  V30 20293 H 1901.61 -3.69589 0.495854 0
M  V30 20294 N 1903.79 -0.869509 -1.31443 0
M  V30 20295 C 1905.21 -0.561369 -1.49402 0
M  V30 20296 C 1905.41 0.90461 -1.80053 0
M  V30 20297 O 1904.46 1.68681 -1.87891 0
M  V30 20298 C 1905.78 -1.46118 -2.62812 0
M  V30 20299 C 1907.33 -1.46317 -2.76695 0
M  V30 20300 C 1907.8 -2.34855 -3.93201 0
M  V30 20301 N 1909.29 -2.32732 -4.00487 0
M  V30 20302 C 1910.03 -2.97959 -4.89906 0
M  V30 20303 N 1909.52 -3.72353 -5.8423 0
M  V30 20304 N 1911.32 -2.8727 -4.83149 0
M  V30 20305 H 1903.47 -1.81808 -1.09816 0
M  V30 20306 H 1905.73 -0.777367 -0.542591 0
M  V30 20307 H 1905.44 -2.5043 -2.46936 0
M  V30 20308 H 1905.31 -1.15938 -3.5894 0
M  V30 20309 H 1907.7 -0.427634 -2.91985 0
M  V30 20310 H 1907.78 -1.8052 -1.81235 0
M  V30 20311 H 1907.42 -3.38485 -3.78669 0
M  V30 20312 H 1907.35 -1.97976 -4.87968 0
M  V30 20313 H 1909.84 -1.78657 -3.33002 0
M  V30 20314 H 1910.16 -4.19253 -6.4919 0
M  V30 20315 H 1908.5 -3.76461 -5.8421 0
M  V30 20316 H 1911.69 -2.28689 -4.08435 0
M  V30 20317 H 1911.86 -3.38383 -5.52631 0
M  V30 20318 N 1905.27 1.44508 -0.628902 0
M  V30 20319 C 1906.52 2.01281 -0.129966 0
M  V30 20320 C 1906.83 1.50041 1.25488 0
M  V30 20321 O 1908.04 1.98927 1.84771 0
M  V30 20322 C 1906.49 3.59442 -0.1816 0
M  V30 20323 C 1906.1 4.19678 -1.56762 0
M  V30 20324 C 1907.85 4.23697 0.260988 0
M  V30 20325 C 1905.75 5.70056 -1.57449 0
M  V30 20326 H 1904.68 0.752667 -0.0448215 0
M  V30 20327 H 1907.33 1.65749 -0.787372 0
M  V30 20328 H 1905.72 3.92261 0.542864 0
M  V30 20329 H 1906.89 3.98399 -2.31549 0
M  V30 20330 H 1905.21 3.67701 -1.9541 0
M  V30 20331 H 1907.8 5.33991 0.275356 0
M  V30 20332 H 1908.15 3.95878 1.28787 0
M  V30 20333 H 1908.68 3.95672 -0.410909 0
M  V30 20334 H 1905.42 6.02606 -2.57966 0
M  V30 20335 H 1904.94 5.93464 -0.869514 0
M  V30 20336 H 1906.62 6.33652 -1.30745 0
M  V30 20337 N 1906.75 0.369315 1.53212 0
M  V30 20338 C 1907.97 -0.222451 2.06204 0
M  V30 20339 C 1908.4 -1.41373 1.24077 0
M  V30 20340 O 1907.76 -1.79415 0.260767 0
M  V30 20341 C 1907.81 -0.590386 3.55734 0
M  V30 20342 O 1906.91 -1.68711 3.76311 0
M  V30 20343 H 1906.25 -0.0315041 0.663252 0
M  V30 20344 H 1908.78 0.531 1.97589 0
M  V30 20345 H 1908.79 -0.860345 3.98826 0
M  V30 20346 H 1907.47 0.28067 4.14952 0
M  V30 20347 H 1906.04 -1.41242 3.45116 0
M  V30 20348 N 1908.23 -1.57291 0.0985816 0
M  V30 20349 C 1909.48 -1.93654 -0.564011 0
M  V30 20350 C 1909.79 -0.982723 -1.69121 0
M  V30 20351 O 1911 -1.2402 -2.41519 0
M  V30 20352 C 1909.45 -3.441 -1.05466 0
M  V30 20353 C 1909.06 -4.47979 0.0429743 0
M  V30 20354 C 1910.8 -3.89418 -1.68979 0
M  V30 20355 C 1908.71 -5.89583 -0.463226 0
M  V30 20356 H 1907.64 -0.722858 -0.214457 0
M  V30 20357 H 1910.29 -1.82662 0.175145 0
M  V30 20358 H 1908.67 -3.50256 -1.84761 0
M  V30 20359 H 1909.85 -4.53471 0.818587 0
M  V30 20360 H 1908.16 -4.12291 0.583501 0
M  V30 20361 H 1910.76 -4.92615 -2.0793 0
M  V30 20362 H 1911.1 -3.28258 -2.56032 0
M  V30 20363 H 1911.64 -3.85978 -0.962602 0
M  V30 20364 H 1908.37 -6.54451 0.370767 0
M  V30 20365 H 1907.89 -5.87555 -1.20577 0
M  V30 20366 H 1909.57 -6.40266 -0.931072 0
M  V30 20367 N 1909.71 0.175127 -1.56624 0
M  V30 20368 C 1910.93 0.908041 -1.85909 0
M  V30 20369 C 1911.35 1.75993 -0.683514 0
M  V30 20370 O 1910.71 1.79162 0.347453 0
M  V30 20371 C 1910.76 1.78791 -3.14191 0
M  V30 20372 O 1910.48 0.970386 -4.27218 0
M  V30 20373 C 1911.98 2.63081 -3.56796 0
M  V30 20374 H 1909.2 0.263986 -0.616889 0
M  V30 20375 H 1911.74 0.176369 -2.03738 0
M  V30 20376 H 1909.9 2.47296 -2.982 0
M  V30 20377 H 1910.31 1.57179 -5.00395 0
M  V30 20378 H 1911.79 3.2044 -4.49469 0
M  V30 20379 H 1912.26 3.37766 -2.80732 0
M  V30 20380 H 1912.87 1.99914 -3.75386 0
M  V30 20381 N 1911.18 1.5123 0.44355 0
M  V30 20382 C 1912.43 1.6359 1.1935 0
M  V30 20383 C 1912.76 0.349172 1.9134 0
M  V30 20384 O 1912.01 -0.66645 1.84003 0
M  V30 20385 C 1912.31 2.78511 2.23978 0
M  V30 20386 C 1911.98 4.18013 1.69045 0
M  V30 20387 C 1910.64 4.55964 1.53786 0
M  V30 20388 C 1912.99 5.05088 1.28591 0
M  V30 20389 C 1910.32 5.78703 0.965374 0
M  V30 20390 C 1912.67 6.284 0.72774 0
M  V30 20391 C 1911.34 6.6513 0.562001 0
M  V30 20392 H 1910.61 0.59862 0.436733 0
M  V30 20393 H 1913.25 1.85245 0.485449 0
M  V30 20394 H 1911.56 2.51054 3.00798 0
M  V30 20395 H 1913.26 2.85275 2.81814 0
M  V30 20396 H 1909.85 3.88087 1.81896 0
M  V30 20397 H 1914.03 4.76378 1.39202 0
M  V30 20398 H 1909.29 6.05813 0.824671 0
M  V30 20399 H 1913.46 6.95217 0.405735 0
M  V30 20400 H 1911.09 7.60111 0.116266 0
M  V30 20401 N 1912.66 -0.698586 1.41271 0
M  V30 20402 C 1913.91 -1.45861 1.40466 0
M  V30 20403 C 1914.24 -1.94496 0.0127551 0
M  V30 20404 O 1913.49 -1.69692 -0.974843 0
M  V30 20405 C 1913.79 -2.688 2.35545 0
M  V30 20406 C 1913.46 -2.38839 3.82449 0
M  V30 20407 C 1912.12 -2.30378 4.22468 0
M  V30 20408 C 1914.47 -2.14065 4.75211 0
M  V30 20409 C 1911.8 -1.95236 5.53263 0
M  V30 20410 C 1914.15 -1.80432 6.06323 0
M  V30 20411 C 1912.81 -1.70465 6.45367 0
M  V30 20412 H 1912.08 -0.533744 0.514002 0
M  V30 20413 H 1914.73 -0.798723 1.74048 0
M  V30 20414 H 1913.04 -3.39708 1.95207 0
M  V30 20415 H 1914.73 -3.26933 2.32197 0
M  V30 20416 H 1911.32 -2.46317 3.50751 0
M  V30 20417 H 1915.51 -2.19548 4.45098 0
M  V30 20418 H 1910.76 -1.86069 5.82399 0
M  V30 20419 H 1914.94 -1.60281 6.77704 0
M  V30 20420 H 1912.56 -1.43002 7.46629 0
M  V30 20421 N 1914.14 -1.27049 -0.93254 0
M  V30 20422 C 1915.56 -1.04349 -1.20762 0
M  V30 20423 C 1915.76 0.225981 -2.00229 0
M  V30 20424 O 1914.81 0.932788 -2.34639 0
M  V30 20425 C 1916.12 -2.28004 -1.96048 0
M  V30 20426 C 1917.67 -2.32993 -2.09006 0
M  V30 20427 C 1918.15 -3.56364 -2.87696 0
M  V30 20428 N 1919.64 -3.56892 -2.95266 0
M  V30 20429 C 1920.37 -4.49022 -3.56604 0
M  V30 20430 N 1919.87 -5.51451 -4.19374 0
M  V30 20431 N 1921.66 -4.36656 -3.53961 0
M  V30 20432 H 1913.81 -2.0857 -0.401516 0
M  V30 20433 H 1916.08 -0.917061 -0.240213 0
M  V30 20434 H 1915.78 -3.20386 -1.45072 0
M  V30 20435 H 1915.66 -2.32937 -2.96682 0
M  V30 20436 H 1918.04 -1.41119 -2.5917 0
M  V30 20437 H 1918.12 -2.32065 -1.07607 0
M  V30 20438 H 1917.77 -4.48571 -2.38216 0
M  V30 20439 H 1917.7 -3.54541 -3.89369 0
M  V30 20440 H 1920.19 -2.82812 -2.5065 0
M  V30 20441 H 1920.5 -6.17924 -4.64101 0
M  V30 20442 H 1918.85 -5.55298 -4.17934 0
M  V30 20443 H 1922.04 -3.55848 -3.04122 0
M  V30 20444 H 1922.21 -5.08647 -4.01475 0
M  V30 20445 N 1915.62 1.13835 -1.08993 0
M  V30 20446 C 1916.55 2.21226 -0.74707 0
M  V30 20447 C 1917.53 1.67891 0.273232 0
M  V30 20448 O 1918.71 1.93678 0.142278 0
M  V30 20449 C 1915.84 3.46922 -0.162028 0
M  V30 20450 C 1914.8 4.1332 -1.11135 0
M  V30 20451 C 1914.12 5.33289 -0.388228 0
M  V30 20452 C 1915.42 4.61169 -2.45195 0
M  V30 20453 H 1917.12 2.50162 -1.64497 0
M  V30 20454 H 1914.66 1.20239 -0.792368 0
M  V30 20455 H 1916.62 4.21304 0.0898753 0
M  V30 20456 H 1915.34 3.17368 0.771036 0
M  V30 20457 H 1914 3.40899 -1.34845 0
M  V30 20458 H 1913.65 4.99997 0.548832 0
M  V30 20459 H 1913.35 5.78659 -1.02115 0
M  V30 20460 H 1914.87 6.10429 -0.144519 0
M  V30 20461 H 1916.29 5.26996 -2.25717 0
M  V30 20462 H 1914.68 5.17263 -3.04235 0
M  V30 20463 H 1915.75 3.75923 -3.06284 0
M  V30 20464 N 1917.1 0.876467 1.3098 0
M  V30 20465 C 1918.34 0.49064 1.96466 0
M  V30 20466 C 1918.67 -0.958443 1.69246 0
M  V30 20467 O 1917.93 -1.69096 0.985144 0
M  V30 20468 C 1918.22 0.70208 3.50436 0
M  V30 20469 C 1917.89 2.12494 3.9769 0
M  V30 20470 C 1916.55 2.51405 4.10303 0
M  V30 20471 C 1918.9 3.0526 4.22452 0
M  V30 20472 C 1916.23 3.82309 4.45035 0
M  V30 20473 C 1918.58 4.35686 4.5865 0
M  V30 20474 C 1917.25 4.74502 4.69472 0
M  V30 20475 H 1916.52 0.179538 0.718921 0
M  V30 20476 H 1919.17 1.1107 1.55999 0
M  V30 20477 H 1917.47 -0.00106996 3.918 0
M  V30 20478 H 1919.17 0.383279 3.99164 0
M  V30 20479 H 1915.76 1.81287 3.88372 0
M  V30 20480 H 1919.94 2.76422 4.12195 0
M  V30 20481 H 1915.2 4.12136 4.51612 0
M  V30 20482 H 1919.37 5.07612 4.76763 0
M  V30 20483 H 1917 5.75976 4.9614 0
M  V30 20484 N 1918.57 -1.44173 0.636557 0
M  V30 20485 C 1919.99 -1.56704 0.302646 0
M  V30 20486 C 1920.19 -1.62316 -1.19398 0
M  V30 20487 O 1919.25 -1.56914 -1.97824 0
M  V30 20488 C 1920.56 -2.83608 0.999346 0
M  V30 20489 C 1922.11 -2.97328 0.978005 0
M  V30 20490 C 1922.58 -4.27042 1.65527 0
M  V30 20491 N 1924.07 -4.33868 1.62212 0
M  V30 20492 C 1924.81 -5.32966 2.11505 0
M  V30 20493 N 1924.3 -6.38439 2.69012 0
M  V30 20494 N 1926.1 -5.24511 2.02102 0
M  V30 20495 H 1918.25 -1.38773 1.60797 0
M  V30 20496 H 1920.51 -0.665369 0.675269 0
M  V30 20497 H 1920.22 -2.85466 2.05432 0
M  V30 20498 H 1920.09 -3.73308 0.540484 0
M  V30 20499 H 1922.48 -2.9502 -0.0685065 0
M  V30 20500 H 1922.56 -2.08963 1.47541 0
M  V30 20501 H 1922.2 -4.30109 2.70126 0
M  V30 20502 H 1922.13 -5.14275 1.13266 0
M  V30 20503 H 1924.62 -3.58264 1.20231 0
M  V30 20504 H 1924.94 -7.10348 3.04344 0
M  V30 20505 H 1923.28 -6.39109 2.73066 0
M  V30 20506 H 1926.47 -4.41024 1.56892 0
M  V30 20507 H 1926.65 -6.01586 2.40828 0
M  V30 20508 N 1920.05 -0.377435 -1.53014 0
M  V30 20509 C 1921.3 0.208838 -2.01722 0
M  V30 20510 C 1921.63 1.47446 -1.26385 0
M  V30 20511 O 1920.91 1.91122 -0.360903 0
M  V30 20512 C 1921.19 0.4888 -3.56767 0
M  V30 20513 C 1921.04 -0.791285 -4.42785 0
M  V30 20514 C 1922.36 1.28443 -4.2094 0
M  V30 20515 H 1919.48 0.0744281 -0.733232 0
M  V30 20516 H 1922.12 -0.504664 -1.83175 0
M  V30 20517 H 1920.27 1.09662 -3.72702 0
M  V30 20518 H 1921.94 -1.42848 -4.38625 0
M  V30 20519 H 1920.19 -1.40914 -4.10275 0
M  V30 20520 H 1920.86 -0.550199 -5.49251 0
M  V30 20521 H 1923.33 0.770147 -4.08911 0
M  V30 20522 H 1922.21 1.44906 -5.29427 0
M  V30 20523 H 1922.47 2.29631 -3.77786 0
M  V30 20524 N 1921.53 1.57237 -0.106922 0
M  V30 20525 C 1922.46 2.10354 0.884666 0
M  V30 20526 C 1923.44 1.01696 1.26873 0
M  V30 20527 O 1924.63 1.29272 1.3719 0
M  V30 20528 C 1921.75 2.59029 2.18223 0
M  V30 20529 C 1920.8 3.79458 1.94715 0
M  V30 20530 S 1921.63 5.22464 1.17439 0
M  V30 20531 C 1922.79 5.74498 2.48401 0
M  V30 20532 H 1923.02 2.94132 0.432824 0
M  V30 20533 H 1920.55 1.54031 0.106612 0
M  V30 20534 H 1922.51 2.87729 2.92783 0
M  V30 20535 H 1921.17 1.75455 2.60527 0
M  V30 20536 H 1920.37 4.11624 2.9083 0
M  V30 20537 H 1919.97 3.51312 1.2828 0
M  V30 20538 H 1922.26 5.83486 3.44312 0
M  V30 20539 H 1923.2 6.72796 2.20797 0
M  V30 20540 H 1923.61 5.02494 2.57215 0
M  V30 20541 N 1923.01 -0.166818 1.56715 0
M  V30 20542 C 1924.42 -0.518754 1.50934 0
M  V30 20543 C 1924.62 -1.84416 0.811964 0
M  V30 20544 O 1923.68 -2.49712 0.374207 0
M  V30 20545 C 1924.99 -0.547356 2.95676 0
M  V30 20546 C 1926.54 -0.634247 3.06507 0
M  V30 20547 C 1927.02 -0.693699 4.52716 0
M  V30 20548 N 1928.51 -0.756466 4.56981 0
M  V30 20549 C 1929.24 -0.823116 5.67461 0
M  V30 20550 N 1928.74 -0.850325 6.87562 0
M  V30 20551 N 1930.53 -0.862482 5.55444 0
M  V30 20552 H 1922.68 0.70222 2.00456 0
M  V30 20553 H 1924.95 0.253731 0.913414 0
M  V30 20554 H 1924.65 0.357945 3.49874 0
M  V30 20555 H 1924.53 -1.39227 3.50565 0
M  V30 20556 H 1926.91 -1.52997 2.52341 0
M  V30 20557 H 1926.99 0.23743 2.54696 0
M  V30 20558 H 1926.64 0.197788 5.07515 0
M  V30 20559 H 1926.57 -1.58158 5.02288 0
M  V30 20560 H 1929.06 -0.74354 3.70513 0
M  V30 20561 H 1929.37 -0.902481 7.67512 0
M  V30 20562 H 1927.72 -0.818528 6.90163 0
M  V30 20563 H 1930.91 -0.838257 4.60533 0
M  V30 20564 H 1931.08 -0.910962 6.41565 0
M  V30 20565 N 1924.49 -1.51463 -0.435524 0
M  V30 20566 C 1925.42 -1.75856 -1.53613 0
M  V30 20567 C 1926.4 -0.608449 -1.58846 0
M  V30 20568 O 1927.58 -0.85135 -1.74544 0
M  V30 20569 C 1924.71 -1.88525 -2.91677 0
M  V30 20570 C 1923.67 -3.03972 -3.01305 0
M  V30 20571 C 1922.99 -3.01828 -4.41366 0
M  V30 20572 C 1924.29 -4.43905 -2.75219 0
M  V30 20573 H 1925.99 -2.68013 -1.33452 0
M  V30 20574 H 1923.53 -1.28968 -0.640564 0
M  V30 20575 H 1925.49 -2.04173 -3.68634 0
M  V30 20576 H 1924.21 -0.930179 -3.13074 0
M  V30 20577 H 1922.87 -2.88033 -2.26788 0
M  V30 20578 H 1922.52 -2.04095 -4.59733 0
M  V30 20579 H 1922.22 -3.79353 -4.48737 0
M  V30 20580 H 1923.74 -3.19572 -5.20294 0
M  V30 20581 H 1925.15 -4.60187 -3.41908 0
M  V30 20582 H 1923.55 -5.2315 -2.93998 0
M  V30 20583 H 1924.62 -4.53818 -1.70814 0
M  V30 20584 N 1925.96 0.691085 -1.4164 0
M  V30 20585 C 1927.21 1.45329 -1.41447 0
M  V30 20586 C 1927.54 1.94184 -0.0249758 0
M  V30 20587 O 1926.82 1.69831 0.948043 0
M  V30 20588 C 1927.1 2.66199 -2.42508 0
M  V30 20589 C 1926.95 2.23081 -3.90583 0
M  V30 20590 C 1928.27 3.68402 -2.40766 0
M  V30 20591 H 1925.39 0.527115 -0.515091 0
M  V30 20592 H 1928.03 0.786758 -1.72945 0
M  V30 20593 H 1926.18 3.23066 -2.15778 0
M  V30 20594 H 1927.86 1.71506 -4.28233 0
M  V30 20595 H 1926.1 1.54818 -4.05233 0
M  V30 20596 H 1926.77 3.09828 -4.56848 0
M  V30 20597 H 1929.25 3.21217 -2.64497 0
M  V30 20598 H 1928.12 4.50576 -3.13484 0
M  V30 20599 H 1928.38 4.18408 -1.42783 0
M  V30 20600 N 1927.44 1.27542 0.925789 0
M  V30 20601 C 1928.39 1.10432 2.02666 0
M  V30 20602 C 1929.36 0.004846 1.66099 0
M  V30 20603 O 1930.54 0.167531 1.90063 0
M  V30 20604 C 1927.68 0.759567 3.36637 0
M  V30 20605 C 1926.8 1.93687 3.86147 0
M  V30 20606 C 1925.93 1.53382 5.08574 0
M  V30 20607 C 1924.97 2.67849 5.50385 0
M  V30 20608 N 1924.11 2.2812 6.64007 0
M  V30 20609 H 1928.95 2.04632 2.16633 0
M  V30 20610 H 1926.49 1.01863 1.06124 0
M  V30 20611 H 1928.44 0.540492 4.13684 0
M  V30 20612 H 1927.07 -0.145477 3.22472 0
M  V30 20613 H 1926.13 2.26843 3.05363 0
M  V30 20614 H 1927.44 2.79548 4.13104 0
M  V30 20615 H 1926.59 1.2761 5.93128 0
M  V30 20616 H 1925.33 0.646332 4.83398 0
M  V30 20617 H 1924.34 2.94333 4.64379 0
M  V30 20618 H 1925.56 3.57222 5.77554 0
M  V30 20619 H 1923.51 1.41825 6.40485 0
M  V30 20620 H 1923.42 3.07519 6.90629 0
M  V30 20621 H 1924.69 2.056 7.51897 0
M  V30 20622 N 1928.92 -1.13255 1.09595 0
M  V30 20623 C 1929.85 -2.20827 0.758791 0
M  V30 20624 C 1930.83 -1.68034 -0.264325 0
M  V30 20625 O 1932.02 -1.93751 -0.132005 0
M  V30 20626 C 1929.15 -3.46831 0.180424 0
M  V30 20627 C 1928.1 -4.12724 1.13325 0
M  V30 20628 C 1927.43 -5.33075 0.416504 0
M  V30 20629 C 1928.73 -4.59862 2.47637 0
M  V30 20630 H 1930.42 -2.49287 1.65821 0
M  V30 20631 H 1927.97 -1.19818 0.798734 0
M  V30 20632 H 1929.92 -4.21346 -0.0675313 0
M  V30 20633 H 1928.64 -3.17773 -0.754194 0
M  V30 20634 H 1927.3 -3.40179 1.36651 0
M  V30 20635 H 1926.95 -5.00281 -0.522308 0
M  V30 20636 H 1926.65 -5.78109 1.05183 0
M  V30 20637 H 1928.17 -6.10344 0.17689 0
M  V30 20638 H 1929.59 -5.25791 2.28509 0
M  V30 20639 H 1927.99 -5.15642 3.06974 0
M  V30 20640 H 1929.06 -3.74294 3.08273 0
M  V30 20641 N 1930.4 -0.883401 -1.30514 0
M  V30 20642 C 1931.33 -0.36516 -2.30627 0
M  V30 20643 C 1932.31 0.551149 -1.60923 0
M  V30 20644 O 1933.49 0.465333 -1.88543 0
M  V30 20645 C 1930.62 0.422552 -3.4472 0
M  V30 20646 C 1929.58 -0.401856 -4.26109 0
M  V30 20647 C 1928.9 0.512363 -5.3224 0
M  V30 20648 C 1930.2 -1.64313 -4.95781 0
M  V30 20649 H 1931.9 -1.20175 -2.74223 0
M  V30 20650 H 1929.44 -0.579315 -1.31833 0
M  V30 20651 H 1931.4 0.795726 -4.13819 0
M  V30 20652 H 1930.12 1.29278 -2.99925 0
M  V30 20653 H 1928.78 -0.75715 -3.58696 0
M  V30 20654 H 1928.43 1.38025 -4.83692 0
M  V30 20655 H 1928.13 -0.0354331 -5.87589 0
M  V30 20656 H 1929.65 0.882088 -6.04195 0
M  V30 20657 H 1931.07 -1.34063 -5.57405 0
M  V30 20658 H 1929.46 -2.13101 -5.60989 0
M  V30 20659 H 1930.53 -2.38843 -4.21998 0
M  V30 20660 N 1931.88 1.43833 -0.644194 0
M  V30 20661 C 1933.1 2.06784 -0.159719 0
M  V30 20662 C 1933.53 1.47913 1.16204 0
M  V30 20663 O 1932.88 0.585574 1.71583 0
M  V30 20664 C 1932.93 3.60527 -0.0724271 0
M  V30 20665 O 1932.04 4.0088 0.967917 0
M  V30 20666 H 1931.38 0.657771 -0.0907406 0
M  V30 20667 H 1933.91 1.8449 -0.884568 0
M  V30 20668 H 1933.92 4.07841 0.113872 0
M  V30 20669 H 1932.59 4.02755 -1.03736 0
M  V30 20670 H 1931.17 3.65174 0.755135 0
M  V30 20671 N 1933.35 0.385544 1.52811 0
M  V30 20672 C 1934.3 -0.451417 2.26342 0
M  V30 20673 C 1935.27 -1.06094 1.27801 0
M  V30 20674 O 1936.46 -1.08968 1.56623 0
M  V30 20675 C 1933.6 -1.57477 3.07075 0
M  V30 20676 C 1932.71 -0.988468 4.20539 0
M  V30 20677 C 1931.84 -2.08256 4.88675 0
M  V30 20678 C 1930.88 -1.47196 5.94138 0
M  V30 20679 N 1930.02 -2.5052 6.55884 0
M  V30 20680 H 1934.86 0.182092 2.97443 0
M  V30 20681 H 1932.4 0.101628 1.46749 0
M  V30 20682 H 1934.36 -2.23677 3.52171 0
M  V30 20683 H 1932.99 -2.17864 2.38191 0
M  V30 20684 H 1932.04 -0.216168 3.79785 0
M  V30 20685 H 1933.35 -0.502223 4.96265 0
M  V30 20686 H 1932.5 -2.82235 5.37055 0
M  V30 20687 H 1931.24 -2.60239 4.12464 0
M  V30 20688 H 1930.25 -0.717401 5.45099 0
M  V30 20689 H 1931.47 -0.960124 6.72279 0
M  V30 20690 H 1929.42 -3.0168 5.82516 0
M  V30 20691 H 1929.34 -2.0664 7.27211 0
M  V30 20692 H 1930.6 -3.24141 7.0891 0
M  V30 20693 N 1934.83 -1.57178 0.115259 0
M  V30 20694 C 1936.08 -1.94681 -0.542571 0
M  V30 20695 C 1936.4 -0.999211 -1.67454 0
M  V30 20696 O 1935.67 -0.054836 -1.95823 0
M  V30 20697 H 1934.25 -0.718769 -0.203421 0
M  V30 20698 H 1936.91 -1.94036 0.183323 0
M  V30 20699 H 1936.01 -2.9762 -0.939599 0
M  V30 20700 N 1936.31 0.158505 -1.56801 0
M  V30 20701 C 1937.22 1.2157 -2.00644 0
M  V30 20702 C 1938.24 1.47694 -0.919914 0
M  V30 20703 O 1939.41 1.59591 -1.22853 0
M  V30 20704 C 1936.48 2.53191 -2.36844 0
M  V30 20705 C 1935.54 2.34816 -3.59389 0
M  V30 20706 C 1934.77 3.60161 -3.93853 0
M  V30 20707 O 1935 4.65871 -3.29121 0
M  V30 20708 O 1933.93 3.53508 -4.8715 0
M  V30 20709 H 1937.76 0.873512 -2.90867 0
M  V30 20710 H 1935.34 0.366356 -1.44839 0
M  V30 20711 H 1937.22 3.30812 -2.6104 0
M  V30 20712 H 1935.9 2.86963 -1.4978 0
M  V30 20713 H 1934.8 1.55184 -3.40395 0
M  V30 20714 H 1936.14 2.05964 -4.47034 0
M  V30 20715 N 1937.79 1.51692 0.427485 0
M  V30 20716 C 1939.04 1.64521 1.17376 0
M  V30 20717 C 1939.36 0.368482 1.91487 0
M  V30 20718 O 1938.63 -0.616035 1.85962 0
M  V30 20719 H 1937.21 0.606362 0.436273 0
M  V30 20720 H 1939.87 1.88662 0.489152 0
M  V30 20721 H 1938.97 2.47759 1.89794 0
M  V30 20722 N 1939.27 -0.683564 1.42004 0
M  V30 20723 C 1940.52 -1.43934 1.413 0
M  V30 20724 C 1940.83 -1.95578 0.0296606 0
M  V30 20725 O 1942.04 -2.71316 -0.0999859 0
M  V30 20726 C 1940.49 -2.60331 2.48507 0
M  V30 20727 C 1940.1 -2.15424 3.92806 0
M  V30 20728 C 1941.84 -3.37895 2.56957 0
M  V30 20729 C 1939.75 -3.28851 4.91539 0
M  V30 20730 H 1938.68 -0.540693 0.525516 0
M  V30 20731 H 1941.33 -0.740914 1.67877 0
M  V30 20732 H 1939.71 -3.325 2.15081 0
M  V30 20733 H 1940.89 -1.50466 4.35542 0
M  V30 20734 H 1939.2 -1.50822 3.88126 0
M  V30 20735 H 1941.8 -4.22355 3.27903 0
M  V30 20736 H 1942.14 -3.83896 1.61027 0
M  V30 20737 H 1942.68 -2.72791 2.89534 0
M  V30 20738 H 1939.41 -2.87851 5.88916 0
M  V30 20739 H 1938.93 -3.92619 4.53443 0
M  V30 20740 H 1940.61 -3.9445 5.12853 0
M  V30 20741 N 1940.75 -1.28031 -0.919012 0
M  V30 20742 C 1942.16 -1.05624 -1.19649 0
M  V30 20743 C 1942.36 0.204731 -2.00457 0
M  V30 20744 O 1941.42 0.907849 -2.35615 0
M  V30 20745 C 1942.73 -2.3007 -1.93619 0
M  V30 20746 C 1944.28 -2.35196 -2.06523 0
M  V30 20747 C 1944.75 -3.59395 -2.839 0
M  V30 20748 N 1946.24 -3.60004 -2.91464 0
M  V30 20749 C 1946.98 -4.52779 -3.51822 0
M  V30 20750 N 1946.48 -5.55868 -4.13501 0
M  V30 20751 N 1948.27 -4.40385 -3.4931 0
M  V30 20752 H 1940.42 -2.08985 -0.379372 0
M  V30 20753 H 1942.68 -0.919558 -0.230473 0
M  V30 20754 H 1942.39 -3.21907 -1.41665 0
M  V30 20755 H 1942.26 -2.36071 -2.94195 0
M  V30 20756 H 1944.65 -1.4386 -2.57659 0
M  V30 20757 H 1944.73 -2.33194 -1.0514 0
M  V30 20758 H 1944.37 -4.51072 -2.33445 0
M  V30 20759 H 1944.3 -3.58651 -3.85587 0
M  V30 20760 H 1946.8 -2.85455 -2.47637 0
M  V30 20761 H 1947.11 -6.22812 -4.57521 0
M  V30 20762 H 1945.45 -5.597 -4.12021 0
M  V30 20763 H 1948.64 -3.59053 -3.0033 0
M  V30 20764 H 1948.82 -5.12877 -3.96057 0
M  V30 20765 N 1942.22 1.12672 -1.10194 0
M  V30 20766 C 1943.45 1.87955 -0.864907 0
M  V30 20767 C 1943.87 1.79527 0.584436 0
M  V30 20768 O 1943.22 1.1674 1.40278 0
M  V30 20769 C 1943.27 3.37261 -1.30143 0
M  V30 20770 O 1943 3.45483 -2.69394 0
M  V30 20771 C 1944.5 4.29488 -1.09793 0
M  V30 20772 H 1941.72 0.594777 -0.310614 0
M  V30 20773 H 1944.26 1.42583 -1.46596 0
M  V30 20774 H 1942.42 3.80187 -0.744103 0
M  V30 20775 H 1942.83 4.38357 -2.87999 0
M  V30 20776 H 1944.3 5.32546 -1.45254 0
M  V30 20777 H 1944.78 4.39185 -0.0363527 0
M  V30 20778 H 1945.39 3.92341 -1.6416 0
M  V30 20779 N 1943.7 0.89031 1.30043 0
M  V30 20780 C 1944.63 0.377386 2.3043 0
M  V30 20781 C 1945.61 -0.542607 1.61213 0
M  V30 20782 O 1946.8 -0.455328 1.88787 0
M  V30 20783 C 1943.93 -0.404264 3.44939 0
M  V30 20784 C 1942.88 0.424448 4.2589 0
M  V30 20785 C 1942.21 -0.48413 5.32504 0
M  V30 20786 C 1943.51 1.6694 4.94902 0
M  V30 20787 H 1945.2 1.21628 2.73582 0
M  V30 20788 H 1942.75 0.586299 1.31524 0
M  V30 20789 H 1944.7 -0.773769 4.14235 0
M  V30 20790 H 1943.42 -1.27685 3.00606 0
M  V30 20791 H 1942.08 0.776162 3.58289 0
M  V30 20792 H 1941.73 -1.35458 4.84417 0
M  V30 20793 H 1941.43 0.0665939 5.87562 0
M  V30 20794 H 1942.96 -0.850034 6.04654 0
M  V30 20795 H 1944.37 1.37017 5.56686 0
M  V30 20796 H 1942.77 2.16073 5.59851 0
M  V30 20797 H 1943.84 2.41077 4.20725 0
M  V30 20798 N 1945.18 -1.43489 0.651812 0
M  V30 20799 C 1946.11 -2.33484 -0.0271093 0
M  V30 20800 C 1947.09 -1.4939 -0.813427 0
M  V30 20801 O 1948.28 -1.78058 -0.775186 0
M  V30 20802 C 1945.41 -3.32737 -0.995143 0
M  V30 20803 C 1944.36 -4.26809 -0.319036 0
M  V30 20804 C 1943.69 -5.1609 -1.39842 0
M  V30 20805 C 1944.99 -5.16326 0.787692 0
M  V30 20806 H 1946.68 -2.90503 0.724441 0
M  V30 20807 H 1944.23 -1.39686 0.349826 0
M  V30 20808 H 1946.18 -3.94593 -1.479 0
M  V30 20809 H 1944.9 -2.73972 -1.77784 0
M  V30 20810 H 1943.56 -3.66316 0.144366 0
M  V30 20811 H 1943.21 -4.53664 -2.17251 0
M  V30 20812 H 1942.91 -5.79848 -0.951292 0
M  V30 20813 H 1944.43 -5.80819 -1.88367 0
M  V30 20814 H 1945.85 -5.71999 0.386053 0
M  V30 20815 H 1944.24 -5.88798 1.1592 0
M  V30 20816 H 1945.31 -4.56099 1.64626 0
M  V30 20817 N 1946.66 -0.393643 -1.52605 0
M  V30 20818 C 1947.9 0.179883 -2.02603 0
M  V30 20819 C 1948.26 1.44108 -1.27478 0
M  V30 20820 O 1947.55 1.88034 -0.367952 0
M  V30 20821 C 1947.75 0.497148 -3.53925 0
M  V30 20822 C 1947.57 -0.731749 -4.43707 0
M  V30 20823 C 1946.34 -1.25232 -4.89536 0
M  V30 20824 C 1948.54 -1.60534 -4.88603 0
M  V30 20825 N 1946.52 -2.43831 -5.634 0
M  V30 20826 C 1947.9 -2.63772 -5.61092 0
M  V30 20827 C 1949.95 -1.62493 -4.70638 0
M  V30 20828 C 1948.65 -3.68859 -6.17524 0
M  V30 20829 C 1950.68 -2.66489 -5.27956 0
M  V30 20830 C 1950.04 -3.68449 -6.00354 0
M  V30 20831 H 1946.14 0.0277973 -0.781506 0
M  V30 20832 H 1948.72 -0.544509 -1.86931 0
M  V30 20833 H 1946.9 1.19059 -3.69702 0
M  V30 20834 H 1948.63 1.0582 -3.9062 0
M  V30 20835 H 1945.38 -0.812663 -4.66576 0
M  V30 20836 H 1945.81 -3.03852 -6.04982 0
M  V30 20837 H 1950.45 -0.850107 -4.14165 0
M  V30 20838 H 1948.17 -4.47206 -6.73077 0
M  V30 20839 H 1951.75 -2.68893 -5.15934 0
M  V30 20840 H 1950.63 -4.476 -6.43913 0
M  V30 20841 N 1948.14 1.57115 -0.123593 0
M  V30 20842 C 1949.36 1.99705 0.540887 0
M  V30 20843 C 1949.78 1.00336 1.59932 0
M  V30 20844 O 1949.14 -0.00310477 1.825 0
M  V30 20845 C 1949.19 3.42286 1.16285 0
M  V30 20846 O 1948.91 4.37854 0.146725 0
M  V30 20847 C 1950.41 4.00032 1.91021 0
M  V30 20848 H 1947.63 0.655623 0.142827 0
M  V30 20849 H 1950.17 2.03406 -0.211285 0
M  V30 20850 H 1948.33 3.39511 1.86578 0
M  V30 20851 H 1948.74 5.21066 0.599228 0
M  V30 20852 H 1950.22 5.01865 2.29861 0
M  V30 20853 H 1950.69 3.3943 2.78719 0
M  V30 20854 H 1951.3 4.06368 1.25481 0
M  V30 20855 N 1949.61 -0.150187 1.56883 0
M  V30 20856 C 1950.86 -0.863336 1.83174 0
M  V30 20857 C 1951.19 -1.81313 0.703986 0
M  V30 20858 O 1950.44 -1.93273 -0.307235 0
M  V30 20859 C 1950.74 -1.67394 3.15775 0
M  V30 20860 C 1950.41 -0.871221 4.42403 0
M  V30 20861 C 1949.07 -0.649752 4.76793 0
M  V30 20862 C 1951.42 -0.309625 5.2028 0
M  V30 20863 C 1948.75 0.144072 5.86523 0
M  V30 20864 C 1951.1 0.471222 6.30843 0
M  V30 20865 C 1949.77 0.703297 6.63785 0
M  V30 20866 H 1949.04 -0.315917 0.670282 0
M  V30 20867 H 1951.68 -0.127141 1.91077 0
M  V30 20868 H 1949.99 -2.48015 3.03308 0
M  V30 20869 H 1951.69 -2.22915 3.33332 0
M  V30 20870 H 1948.28 -1.0539 4.15441 0
M  V30 20871 H 1952.46 -0.468015 4.94088 0
M  V30 20872 H 1947.72 0.333407 6.1049 0
M  V30 20873 H 1951.89 0.913535 6.90382 0
M  V30 20874 H 1949.52 1.32027 7.48647 0
M  V30 20875 N 1951.09 -1.51916 -0.419434 0
M  V30 20876 C 1952.34 -1.64698 -1.16436 0
M  V30 20877 C 1952.65 -0.377878 -1.91915 0
M  V30 20878 O 1953.86 -0.385341 -2.68752 0
M  V30 20879 C 1952.32 -2.90939 -2.11854 0
M  V30 20880 C 1951.92 -4.2492 -1.4194 0
M  V30 20881 C 1953.67 -3.13083 -2.86669 0
M  V30 20882 C 1951.58 -5.42294 -2.35946 0
M  V30 20883 H 1950.51 -0.613496 -0.438337 0
M  V30 20884 H 1953.16 -1.78397 -0.429738 0
M  V30 20885 H 1951.54 -2.70916 -2.88826 0
M  V30 20886 H 1952.71 -4.5539 -0.70403 0
M  V30 20887 H 1951.03 -4.08797 -0.792071 0
M  V30 20888 H 1953.62 -3.97951 -3.57127 0
M  V30 20889 H 1953.97 -2.26891 -3.49036 0
M  V30 20890 H 1954.5 -3.33531 -2.168 0
M  V30 20891 H 1951.24 -6.30801 -1.78242 0
M  V30 20892 H 1950.76 -5.16177 -3.05485 0
M  V30 20893 H 1952.44 -5.74962 -2.96695 0
M  V30 20894 N 1952.57 0.676023 -1.42365 0
M  V30 20895 C 1953.52 1.78959 -1.45747 0
M  V30 20896 C 1954.49 1.6319 -0.309563 0
M  V30 20897 O 1955.67 1.83761 -0.51346 0
M  V30 20898 C 1952.81 3.16982 -1.36441 0
M  V30 20899 C 1951.93 3.44047 -2.61257 0
M  V30 20900 C 1951.06 4.71791 -2.44103 0
M  V30 20901 C 1950.1 4.91887 -3.64299 0
M  V30 20902 N 1949.24 6.10871 -3.46094 0
M  V30 20903 H 1954.08 1.75403 -2.4091 0
M  V30 20904 H 1951.61 0.856293 -1.19608 0
M  V30 20905 H 1953.57 3.96741 -1.29044 0
M  V30 20906 H 1952.2 3.19666 -0.448744 0
M  V30 20907 H 1951.25 2.58551 -2.79026 0
M  V30 20908 H 1952.57 3.5479 -3.50607 0
M  V30 20909 H 1951.72 5.59639 -2.34285 0
M  V30 20910 H 1950.46 4.63329 -1.52241 0
M  V30 20911 H 1949.46 4.02482 -3.74551 0
M  V30 20912 H 1950.69 5.02195 -4.5714 0
M  V30 20913 H 1948.63 6.03584 -2.56949 0
M  V30 20914 H 1948.55 6.2247 -4.29031 0
M  V30 20915 H 1949.82 7.014 -3.40085 0
M  V30 20916 N 1954.05 1.28517 0.912209 0
M  V30 20917 C 1955.27 1.18732 1.70052 0
M  V30 20918 C 1955.7 -0.250323 1.86427 0
M  V30 20919 O 1955.06 -1.18105 1.37553 0
M  V30 20920 C 1955.1 1.89256 3.06944 0
M  V30 20921 O 1954.21 1.20108 3.94522 0
M  V30 20922 H 1953.55 0.412087 0.520654 0
M  V30 20923 H 1956.08 1.69866 1.14048 0
M  V30 20924 H 1956.09 1.97223 3.57165 0
M  V30 20925 H 1954.76 2.93829 2.94343 0
M  V30 20926 H 1953.34 1.20315 3.52957 0
M  V30 20927 N 1955.53 -1.12086 1.1079 0
M  V30 20928 C 1956.77 -1.83677 0.852585 0
M  V30 20929 C 1957.1 -1.84292 -0.621829 0
M  V30 20930 O 1956.36 -1.28655 -1.47466 0
M  V30 20931 C 1956.66 -3.3089 1.35079 0
M  V30 20932 C 1956.32 -3.50443 2.83726 0
M  V30 20933 C 1954.98 -3.55487 3.24318 0
M  V30 20934 C 1957.34 -3.57254 3.79498 0
M  V30 20935 C 1954.66 -3.64891 4.59425 0
M  V30 20936 C 1957.02 -3.68189 5.14412 0
M  V30 20937 C 1955.68 -3.71491 5.54573 0
M  V30 20938 H 1954.95 -0.672122 0.311983 0
M  V30 20939 H 1957.6 -1.32236 1.38513 0
M  V30 20940 H 1955.9 -3.8478 0.738335 0
M  V30 20941 H 1957.6 -3.84759 1.12967 0
M  V30 20942 H 1954.19 -3.47182 2.51322 0
M  V30 20943 H 1958.37 -3.52624 3.49242 0
M  V30 20944 H 1953.63 -3.65721 4.89957 0
M  V30 20945 H 1957.8 -3.72402 5.88464 0
M  V30 20946 H 1955.43 -3.7853 6.59256 0
M  V30 20947 N 1957 -0.897194 -1.29569 0
M  V30 20948 C 1957.94 -0.330353 -2.26807 0
M  V30 20949 C 1958.95 0.521937 -1.54207 0
M  V30 20950 O 1960.14 0.339502 -1.75242 0
M  V30 20951 C 1957.24 0.547835 -3.34443 0
M  V30 20952 C 1956.41 -0.278159 -4.36515 0
M  V30 20953 C 1955.47 0.532461 -5.23499 0
M  V30 20954 O 1954.5 -0.0491596 -5.69179 0
M  V30 20955 N 1955.7 1.83908 -5.50598 0
M  V30 20956 H 1958.46 -1.16608 -2.76084 0
M  V30 20957 H 1956.02 -0.761424 -1.42877 0
M  V30 20958 H 1958.02 1.09647 -3.89563 0
M  V30 20959 H 1956.59 1.28425 -2.85001 0
M  V30 20960 H 1955.81 -1.00822 -3.81089 0
M  V30 20961 H 1957.09 -0.843929 -5.01752 0
M  V30 20962 H 1956.49 2.33437 -5.1529 0
M  V30 20963 H 1955.05 2.33489 -6.08544 0
M  V30 20964 N 1958.48 1.43142 -0.659413 0
M  V30 20965 C 1959.45 2.29192 0.0190393 0
M  V30 20966 C 1960.45 1.42532 0.744404 0
M  V30 20967 O 1961.64 1.64093 0.584722 0
M  V30 20968 C 1958.77 3.24723 1.03769 0
M  V30 20969 H 1959.96 2.90674 -0.738166 0
M  V30 20970 H 1957.51 1.50525 -0.420956 0
M  V30 20971 H 1958.25 2.68149 1.82392 0
M  V30 20972 H 1958.03 3.88621 0.52115 0
M  V30 20973 H 1959.52 3.89294 1.5113 0
M  V30 20974 N 1959.96 0.40173 1.52394 0
M  V30 20975 C 1960.89 -0.41861 2.29717 0
M  V30 20976 C 1961.87 -1.05263 1.33618 0
M  V30 20977 O 1963.06 -1.06304 1.62521 0
M  V30 20978 C 1960.19 -1.5395 3.11314 0
M  V30 20979 C 1959.14 -1.03088 4.154 0
M  V30 20980 C 1958.47 -2.2448 4.85297 0
M  V30 20981 C 1959.77 -0.0900956 5.22222 0
M  V30 20982 H 1961.46 0.226577 2.98541 0
M  V30 20983 H 1959.01 0.110411 1.43576 0
M  V30 20984 H 1960.96 -2.12031 3.64171 0
M  V30 20985 H 1959.68 -2.21246 2.40246 0
M  V30 20986 H 1958.34 -0.472515 3.63542 0
M  V30 20987 H 1957.99 -2.90313 4.10764 0
M  V30 20988 H 1957.69 -1.91103 5.55656 0
M  V30 20989 H 1959.21 -2.83181 5.40963 0
M  V30 20990 H 1960.63 -0.579479 5.70364 0
M  V30 20991 H 1959.03 0.154505 5.99901 0
M  V30 20992 H 1960.1 0.857375 4.7726 0
M  V30 20993 N 1961.44 -1.57047 0.131923 0
M  V30 20994 C 1962.85 -1.82552 -0.391375 0
M  V30 20995 C 1963.2 -1.04983 -1.6575 0
M  V30 20996 O 1962.33 -0.2904 -2.14443 0
M  V30 20997 C 1962.92 -3.3113 -0.716843 0
M  V30 20998 C 1961.48 -3.57269 -1.18472 0
M  V30 20999 C 1960.63 -2.76578 -0.200021 0
M  V30 21000 H 1963.58 -1.54636 0.356863 0
M  V30 21001 H 1963.6 -3.46463 -1.57302 0
M  V30 21002 H 1963.11 -3.87559 0.204844 0
M  V30 21003 H 1961.21 -3.06211 -2.12287 0
M  V30 21004 H 1961.32 -4.65798 -1.12111 0
M  V30 21005 H 1959.69 -2.45185 -0.689655 0
M  V30 21006 H 1960.47 -3.35772 0.71499 0
M  V30 21007 N 1962.92 0.141865 -1.5696 0
M  V30 21008 C 1964.15 0.867144 -1.87521 0
M  V30 21009 C 1964.55 1.75017 -0.718719 0
M  V30 21010 O 1963.9 1.80883 0.320455 0
M  V30 21011 C 1963.96 1.77109 -3.12846 0
M  V30 21012 C 1963.62 1.06471 -4.44424 0
M  V30 21013 C 1964.62 0.416192 -5.18231 0
M  V30 21014 C 1962.31 1.05268 -4.91145 0
M  V30 21015 C 1964.3 -0.234905 -6.36967 0
M  V30 21016 C 1961.99 0.397777 -6.09804 0
M  V30 21017 C 1962.98 -0.244885 -6.82561 0
M  V30 21018 O 1962.67 -0.889395 -7.98965 0
M  V30 21019 H 1962.4 0.255843 -0.625716 0
M  V30 21020 H 1964.96 0.137798 -2.04937 0
M  V30 21021 H 1963.19 2.54151 -2.91452 0
M  V30 21022 H 1964.88 2.36878 -3.29612 0
M  V30 21023 H 1965.64 0.417253 -4.83202 0
M  V30 21024 H 1961.52 1.54232 -4.34435 0
M  V30 21025 H 1965.07 -0.737115 -6.93695 0
M  V30 21026 H 1960.96 0.3944 -6.44294 0
M  V30 21027 H 1961.73 -0.791577 -8.14663 0
M  V30 21028 N 1964.39 1.52136 0.411372 0
M  V30 21029 C 1965.64 1.66331 1.16025 0
M  V30 21030 C 1965.97 0.390981 1.90223 0
M  V30 21031 O 1965.25 -0.610512 1.8467 0
M  V30 21032 C 1965.53 2.88386 2.15651 0
M  V30 21033 C 1965.38 4.25664 1.45364 0
M  V30 21034 C 1966.7 3.05963 3.16346 0
M  V30 21035 H 1963.82 0.60531 0.420439 0
M  V30 21036 H 1966.46 1.84685 0.446247 0
M  V30 21037 H 1964.61 2.72869 2.76541 0
M  V30 21038 H 1966.29 4.52904 0.876105 0
M  V30 21039 H 1964.53 4.27168 0.75563 0
M  V30 21040 H 1965.2 5.07109 2.18047 0
M  V30 21041 H 1967.68 3.20363 2.65531 0
M  V30 21042 H 1966.55 3.92882 3.83321 0
M  V30 21043 H 1966.81 2.19177 3.83945 0
M  V30 21044 N 1965.87 -0.668464 1.42721 0
M  V30 21045 C 1966.84 -1.76365 1.46384 0
M  V30 21046 C 1967.84 -1.56932 0.350554 0
M  V30 21047 O 1969.03 -1.63109 0.611658 0
M  V30 21048 C 1966.16 -3.15071 1.30164 0
M  V30 21049 H 1967.35 -1.74503 2.43903 0
M  V30 21050 H 1964.9 -0.878695 1.29262 0
M  V30 21051 H 1965.64 -3.22555 0.335926 0
M  V30 21052 H 1965.42 -3.3058 2.10853 0
M  V30 21053 H 1966.91 -3.94963 1.35625 0
M  V30 21054 N 1967.35 -1.28999 -0.905381 0
M  V30 21055 C 1968.28 -1.16189 -2.0254 0
M  V30 21056 C 1969.26 -0.0575293 -1.70003 0
M  V30 21057 O 1970.45 -0.236004 -1.92761 0
M  V30 21058 C 1967.58 -0.831704 -3.37194 0
M  V30 21059 C 1966.53 -1.89176 -3.83922 0
M  V30 21060 C 1965.86 -1.41501 -5.15637 0
M  V30 21061 C 1967.16 -3.29971 -4.04866 0
M  V30 21062 H 1968.85 -2.09886 -2.13514 0
M  V30 21063 H 1966.4 -1.0105 -1.02591 0
M  V30 21064 H 1968.35 -0.728825 -4.1505 0
M  V30 21065 H 1967.07 0.140958 -3.26296 0
M  V30 21066 H 1965.73 -1.98393 -3.08279 0
M  V30 21067 H 1965.38 -0.431182 -5.01149 0
M  V30 21068 H 1965.08 -2.12391 -5.47872 0
M  V30 21069 H 1966.61 -1.32552 -5.96039 0
M  V30 21070 H 1968.02 -3.23628 -4.73221 0
M  V30 21071 H 1966.42 -3.98768 -4.48447 0
M  V30 21072 H 1967.49 -3.73369 -3.09393 0
M  V30 21073 N 1968.83 1.11497 -1.11383 0
M  V30 21074 C 1969.76 2.19592 -0.793827 0
M  V30 21075 C 1970.74 1.68433 0.237559 0
M  V30 21076 O 1971.93 1.93936 0.101164 0
M  V30 21077 C 1969.06 3.465 -0.235579 0
M  V30 21078 C 1968.01 4.10869 -1.19877 0
M  V30 21079 C 1967.34 5.32345 -0.501259 0
M  V30 21080 C 1968.64 4.55864 -2.54922 0
M  V30 21081 H 1970.33 2.46617 -1.69766 0
M  V30 21082 H 1967.88 1.18532 -0.817695 0
M  V30 21083 H 1969.83 4.214 0.000490272 0
M  V30 21084 H 1968.55 3.18932 0.703544 0
M  V30 21085 H 1967.21 3.37962 -1.42046 0
M  V30 21086 H 1966.86 5.01048 0.442652 0
M  V30 21087 H 1966.56 5.76363 -1.14367 0
M  V30 21088 H 1968.08 6.09985 -0.273968 0
M  V30 21089 H 1969.5 5.22089 -2.36845 0
M  V30 21090 H 1967.89 5.10693 -3.15139 0
M  V30 21091 H 1968.96 3.69342 -3.14189 0
M  V30 21092 N 1970.31 0.904053 1.29092 0
M  V30 21093 C 1971.56 0.528154 1.94662 0
M  V30 21094 C 1971.87 -0.930986 1.72023 0
M  V30 21095 O 1973.08 -1.4146 2.31735 0
M  V30 21096 C 1971.53 0.893684 3.48628 0
M  V30 21097 C 1971.14 2.37189 3.8006 0
M  V30 21098 C 1972.88 0.587904 4.20409 0
M  V30 21099 C 1970.79 2.67805 5.2729 0
M  V30 21100 H 1969.72 0.193795 0.72867 0
M  V30 21101 H 1972.37 1.10164 1.46752 0
M  V30 21102 H 1970.75 0.249078 3.95216 0
M  V30 21103 H 1971.93 3.06241 3.44315 0
M  V30 21104 H 1970.24 2.64714 3.21428 0
M  V30 21105 H 1972.84 0.793441 5.2878 0
M  V30 21106 H 1973.18 -0.473803 4.13595 0
M  V30 21107 H 1973.72 1.19054 3.79567 0
M  V30 21108 H 1970.45 3.72791 5.39172 0
M  V30 21109 H 1969.97 2.03381 5.64266 0
M  V30 21110 H 1971.65 2.543 5.94929 0
M  V30 21111 N 1971.79 -1.4279 0.666995 0
M  V30 21112 C 1972.75 -2.29199 -0.00688445 0
M  V30 21113 C 1973.75 -1.42924 -0.736835 0
M  V30 21114 O 1974.94 -1.64401 -0.576011 0
M  V30 21115 C 1972.07 -3.25268 -1.02046 0
M  V30 21116 H 1973.26 -2.90278 0.753571 0
M  V30 21117 H 1970.82 -1.50299 0.428933 0
M  V30 21118 H 1971.55 -2.69112 -1.80967 0
M  V30 21119 H 1971.34 -3.88892 -0.500533 0
M  V30 21120 H 1972.83 -3.9009 -1.49063 0
M  V30 21121 N 1973.26 -0.409806 -1.52179 0
M  V30 21122 C 1974.2 0.459953 -2.23517 0
M  V30 21123 C 1975.17 1.04743 -1.24369 0
M  V30 21124 O 1976.36 1.09517 -1.53422 0
M  V30 21125 C 1973.49 1.6385 -2.9643 0
M  V30 21126 C 1972.53 1.17434 -4.10014 0
M  V30 21127 S 1973.36 0.138933 -5.3532 0
M  V30 21128 C 1974.52 1.32279 -6.11762 0
M  V30 21129 H 1974.75 -0.145775 -2.96942 0
M  V30 21130 H 1972.29 -0.19411 -1.53175 0
M  V30 21131 H 1974.24 2.31429 -3.39044 0
M  V30 21132 H 1972.91 2.21557 -2.22646 0
M  V30 21133 H 1972.1 2.05487 -4.60208 0
M  V30 21134 H 1971.7 0.577187 -3.69519 0
M  V30 21135 H 1973.99 2.24626 -6.39179 0
M  V30 21136 H 1974.94 0.861371 -7.02841 0
M  V30 21137 H 1975.34 1.54889 -5.42835 0
M  V30 21138 N 1974.74 1.56975 -0.14025 0
M  V30 21139 C 1975.99 1.95081 0.512469 0
M  V30 21140 C 1976.3 1.02722 1.66456 0
M  V30 21141 O 1977.51 1.3038 2.38146 0
M  V30 21142 C 1975.97 3.46775 0.963057 0
M  V30 21143 C 1975.57 4.47708 -0.161733 0
M  V30 21144 C 1977.32 3.93761 1.58595 0
M  V30 21145 C 1975.22 5.90604 0.306746 0
M  V30 21146 H 1974.15 0.72829 0.195216 0
M  V30 21147 H 1976.81 1.82134 -0.223514 0
M  V30 21148 H 1975.19 3.55032 1.7541 0
M  V30 21149 H 1976.36 4.51141 -0.938529 0
M  V30 21150 H 1974.68 4.10599 -0.692608 0
M  V30 21151 H 1977.27 4.97954 1.94796 0
M  V30 21152 H 1977.62 3.34931 2.47238 0
M  V30 21153 H 1978.15 3.88394 0.859928 0
M  V30 21154 H 1974.89 6.53238 -0.544152 0
M  V30 21155 H 1974.41 5.90546 1.04956 0
M  V30 21156 H 1976.09 6.42509 0.760989 0
M  V30 21157 N 1976.22 -0.133539 1.57033 0
M  V30 21158 C 1977.47 -0.843859 1.8408 0
M  V30 21159 C 1977.79 -1.80556 0.723177 0
M  V30 21160 O 1977.05 -1.93588 -0.286718 0
M  V30 21161 C 1977.35 -1.64036 3.17533 0
M  V30 21162 C 1977.01 -0.82425 4.43302 0
M  V30 21163 C 1975.68 -0.599146 4.77455 0
M  V30 21164 C 1978.03 -0.254425 5.20579 0
M  V30 21165 C 1975.36 0.206272 5.86337 0
M  V30 21166 C 1977.71 0.538105 6.30307 0
M  V30 21167 C 1976.37 0.773661 6.63001 0
M  V30 21168 H 1975.64 -0.30879 0.673595 0
M  V30 21169 H 1978.29 -0.106868 1.91202 0
M  V30 21170 H 1976.59 -2.44784 3.05921 0
M  V30 21171 H 1978.29 -2.19367 3.35677 0
M  V30 21172 H 1974.88 -1.00978 4.16535 0
M  V30 21173 H 1979.07 -0.415584 4.94557 0
M  V30 21174 H 1974.32 0.398139 6.10102 0
M  V30 21175 H 1978.5 0.986708 6.89374 0
M  V30 21176 H 1976.12 1.3996 7.47205 0
M  V30 21177 N 1977.7 -1.52352 -0.403298 0
M  V30 21178 C 1978.94 -1.66697 -1.14971 0
M  V30 21179 C 1979.27 -0.39978 -1.90347 0
M  V30 21180 O 1978.53 0.617431 -1.85705 0
M  V30 21181 C 1978.83 -2.84352 -2.16515 0
M  V30 21182 C 1978.49 -4.22348 -1.57903 0
M  V30 21183 C 1977.15 -4.59881 -1.41643 0
M  V30 21184 C 1979.51 -5.0832 -1.15154 0
M  V30 21185 C 1976.83 -5.81059 -0.811602 0
M  V30 21186 C 1979.19 -6.30109 -0.560875 0
M  V30 21187 C 1977.85 -6.66386 -0.385456 0
M  V30 21188 H 1977.12 -0.609988 -0.420708 0
M  V30 21189 H 1979.77 -1.86467 -0.436164 0
M  V30 21190 H 1978.07 -2.58941 -2.94036 0
M  V30 21191 H 1979.77 -2.92647 -2.74151 0
M  V30 21192 H 1976.36 -3.92774 -1.71543 0
M  V30 21193 H 1980.54 -4.79902 -1.26523 0
M  V30 21194 H 1975.8 -6.07786 -0.66376 0
M  V30 21195 H 1979.97 -6.96048 -0.221267 0
M  V30 21196 H 1977.6 -7.60152 0.0853049 0
M  V30 21197 N 1979.18 0.660885 -1.43074 0
M  V30 21198 C 1980.42 1.41668 -1.43572 0
M  V30 21199 C 1980.74 1.95506 -0.0607715 0
M  V30 21200 O 1981.94 2.71441 0.0568092 0
M  V30 21201 C 1980.4 2.56345 -2.52617 0
M  V30 21202 C 1980.01 2.09147 -3.96183 0
M  V30 21203 C 1981.75 3.33765 -2.623 0
M  V30 21204 C 1979.66 3.20989 -4.96709 0
M  V30 21205 H 1978.59 0.532264 -0.534051 0
M  V30 21206 H 1981.24 0.714113 -1.69035 0
M  V30 21207 H 1979.62 3.29036 -2.20343 0
M  V30 21208 H 1980.8 1.43518 -4.3788 0
M  V30 21209 H 1979.11 1.44628 -3.90476 0
M  V30 21210 H 1981.71 4.17085 -3.34581 0
M  V30 21211 H 1982.05 3.81285 -1.67114 0
M  V30 21212 H 1982.58 2.6815 -2.93837 0
M  V30 21213 H 1979.32 2.78445 -5.93421 0
M  V30 21214 H 1978.84 3.85356 -4.59631 0
M  V30 21215 H 1980.52 3.86241 -5.19063 0
M  V30 21216 N 1980.65 1.29477 0.898527 0
M  V30 21217 C 1981.88 1.20232 1.68011 0
M  V30 21218 C 1982.29 -0.239393 1.87679 0
M  V30 21219 O 1981.64 -1.17197 1.41459 0
M  V30 21220 C 1981.7 1.84564 3.08507 0
M  V30 21221 C 1981.36 3.33862 3.12065 0
M  V30 21222 C 1982.36 4.30068 2.92125 0
M  V30 21223 C 1980.04 3.75082 3.34094 0
M  V30 21224 C 1982.04 5.65469 2.94149 0
M  V30 21225 C 1979.72 5.10604 3.35748 0
M  V30 21226 C 1980.72 6.05607 3.15798 0
M  V30 21227 O 1980.41 7.38655 3.17243 0
M  V30 21228 H 1980.14 0.417733 0.531484 0
M  V30 21229 H 1982.7 1.71396 1.13193 0
M  V30 21230 H 1980.93 1.27913 3.64932 0
M  V30 21231 H 1982.62 1.69625 3.68758 0
M  V30 21232 H 1983.38 3.99556 2.74918 0
M  V30 21233 H 1979.26 3.01588 3.48662 0
M  V30 21234 H 1982.8 6.39598 2.78496 0
M  V30 21235 H 1978.7 5.40761 3.52488 0
M  V30 21236 H 1979.47 7.47475 3.33502 0
M  V30 21237 N 1982.13 -1.10905 1.11972 0
M  V30 21238 C 1983.1 -2.1529 0.786324 0
M  V30 21239 C 1984.1 -1.59589 -0.196987 0
M  V30 21240 O 1985.29 -1.74177 0.0281964 0
M  V30 21241 C 1982.42 -3.40488 0.167611 0
M  V30 21242 H 1983.61 -2.46295 1.71111 0
M  V30 21243 H 1981.16 -1.26185 0.922332 0
M  V30 21244 H 1981.9 -3.15096 -0.76713 0
M  V30 21245 H 1981.68 -3.822 0.875514 0
M  V30 21246 H 1983.17 -4.17571 -0.0493303 0
M  V30 21247 N 1983.61 -0.910886 -1.2861 0
M  V30 21248 C 1984.86 -0.543361 -1.95385 0
M  V30 21249 C 1985.19 0.910109 -1.71554 0
M  V30 21250 O 1984.46 1.64684 -1.03487 0
M  V30 21251 C 1984.75 -0.849821 -3.49929 0
M  V30 21252 C 1984.6 -2.35581 -3.83173 0
M  V30 21253 C 1985.92 -0.343997 -4.38754 0
M  V30 21254 H 1983.04 -0.198884 -0.709658 0
M  V30 21255 H 1985.68 -1.13961 -1.52029 0
M  V30 21256 H 1983.83 -0.34238 -3.86988 0
M  V30 21257 H 1985.5 -2.93365 -3.55998 0
M  V30 21258 H 1983.75 -2.81197 -3.30319 0
M  V30 21259 H 1984.42 -2.52079 -4.9108 0
M  V30 21260 H 1986.89 -0.778662 -4.08749 0
M  V30 21261 H 1985.77 -0.58753 -5.45747 0
M  V30 21262 H 1986.03 0.755609 -4.35595 0
M  V30 21263 N 1985.09 1.42434 -0.674558 0
M  V30 21264 C 1986.34 2.00765 -0.193936 0
M  V30 21265 C 1986.65 1.53957 1.20651 0
M  V30 21266 O 1987.86 2.04705 1.78348 0
M  V30 21267 C 1986.31 3.58682 -0.295862 0
M  V30 21268 C 1985.92 4.14478 -1.70034 0
M  V30 21269 C 1987.66 4.24313 0.12606 0
M  V30 21270 C 1985.57 5.64758 -1.75505 0
M  V30 21271 H 1984.5 0.75086 -0.0687443 0
M  V30 21272 H 1987.15 1.6316 -0.839705 0
M  V30 21273 H 1985.53 3.9379 0.417795 0
M  V30 21274 H 1986.71 3.90831 -2.44106 0
M  V30 21275 H 1985.02 3.61298 -2.07009 0
M  V30 21276 H 1987.62 5.34596 0.105331 0
M  V30 21277 H 1987.96 3.99775 1.16127 0
M  V30 21278 H 1988.5 3.94164 -0.536581 0
M  V30 21279 H 1985.24 5.94094 -2.77007 0
M  V30 21280 H 1984.76 5.90397 -1.05788 0
M  V30 21281 H 1986.43 6.29172 -1.50838 0
M  V30 21282 N 1986.57 0.417871 1.51959 0
M  V30 21283 C 1987.81 -0.154746 2.01507 0
M  V30 21284 C 1988.14 -1.44898 1.30497 0
M  V30 21285 O 1987.41 -1.91043 0.433536 0
M  V30 21286 H 1985.99 -0.0601759 0.744572 0
M  V30 21287 H 1988.65 0.556118 1.86798 0
M  V30 21288 H 1987.74 -0.344616 3.10192 0
M  V30 21289 N 1988.04 -1.56898 0.148573 0
M  V30 21290 C 1988.98 -2.12626 -0.828583 0
M  V30 21291 C 1989.96 -1.05024 -1.24132 0
M  V30 21292 O 1991.14 -1.32864 -1.33714 0
M  V30 21293 C 1988.27 -2.64724 -2.11279 0
M  V30 21294 C 1987.31 -3.84487 -1.84586 0
M  V30 21295 S 1988.15 -5.25394 -1.03545 0
M  V30 21296 C 1989.3 -5.80882 -2.33082 0
M  V30 21297 H 1989.53 -2.95177 -0.354688 0
M  V30 21298 H 1987.07 -1.5426 -0.0657356 0
M  V30 21299 H 1989.03 -2.95391 -2.85052 0
M  V30 21300 H 1987.69 -1.82301 -2.55784 0
M  V30 21301 H 1986.88 -4.1919 -2.79814 0
M  V30 21302 H 1986.48 -3.5459 -1.18921 0
M  V30 21303 H 1988.77 -5.9241 -3.28721 0
M  V30 21304 H 1989.72 -6.78413 -2.02882 0
M  V30 21305 H 1990.12 -5.09137 -2.43802 0
M  V30 21306 N 1989.52 0.125209 -1.57102 0
M  V30 21307 C 1990.45 1.17944 -1.96524 0
M  V30 21308 C 1991.47 1.37997 -0.863757 0
M  V30 21309 O 1992.66 1.37182 -1.14208 0
M  V30 21310 C 1989.76 2.54056 -2.24296 0
M  V30 21311 C 1988.93 2.5469 -3.55601 0
M  V30 21312 C 1987.99 3.72501 -3.71658 0
M  V30 21313 O 1987.01 3.56372 -4.43833 0
M  V30 21314 N 1988.22 4.90822 -3.09958 0
M  V30 21315 H 1990.98 0.844157 -2.87566 0
M  V30 21316 H 1988.54 0.314552 -1.58815 0
M  V30 21317 H 1990.53 3.31418 -2.32259 0
M  V30 21318 H 1989.1 2.79791 -1.39412 0
M  V30 21319 H 1988.32 1.63087 -3.58882 0
M  V30 21320 H 1989.61 2.52164 -4.41917 0
M  V30 21321 H 1989.01 5.0683 -2.51276 0
M  V30 21322 H 1987.57 5.65882 -3.23451 0
M  V30 21323 N 1991 1.52564 0.395213 0
M  V30 21324 C 1991.93 1.71641 1.50382 0
M  V30 21325 C 1992.91 0.564147 1.525 0
M  V30 21326 O 1994.1 0.793198 1.70999 0
M  V30 21327 C 1991.22 1.76838 2.8887 0
M  V30 21328 C 1990.27 2.98527 3.04605 0
M  V30 21329 S 1991.1 4.5862 2.76456 0
M  V30 21330 C 1992.26 4.66624 4.17149 0
M  V30 21331 H 1992.49 2.65402 1.33973 0
M  V30 21332 H 1990.02 1.42778 0.587689 0
M  V30 21333 H 1991.98 1.80518 3.68678 0
M  V30 21334 H 1990.64 0.841802 3.02609 0
M  V30 21335 H 1989.84 2.98686 4.05959 0
M  V30 21336 H 1989.44 2.92806 2.32681 0
M  V30 21337 H 1991.73 4.44856 5.10988 0
M  V30 21338 H 1992.67 5.68608 4.22008 0
M  V30 21339 H 1993.08 3.95522 4.02768 0
M  V30 21340 N 1992.48 -0.653289 1.43422 0
M  V30 21341 C 1993.73 -1.41319 1.45036 0
M  V30 21342 C 1994.05 -1.94357 0.074626 0
M  V30 21343 O 1993.31 -1.72707 -0.920363 0
M  V30 21344 C 1993.61 -2.6117 2.43978 0
M  V30 21345 C 1993.27 -2.2655 3.89854 0
M  V30 21346 C 1991.94 -2.16821 4.29584 0
M  V30 21347 C 1994.29 -1.98838 4.81781 0
M  V30 21348 C 1991.62 -1.77535 5.59194 0
M  V30 21349 C 1993.97 -1.61051 6.11756 0
M  V30 21350 C 1992.63 -1.49847 6.50463 0
M  V30 21351 H 1991.9 -0.517121 0.530723 0
M  V30 21352 H 1994.55 -0.742946 1.76501 0
M  V30 21353 H 1992.85 -3.33326 2.05916 0
M  V30 21354 H 1994.55 -3.19381 2.42481 0
M  V30 21355 H 1991.14 -2.35033 3.58409 0
M  V30 21356 H 1995.32 -2.05276 4.51858 0
M  V30 21357 H 1990.58 -1.67447 5.88023 0
M  V30 21358 H 1994.75 -1.38639 6.8246 0
M  V30 21359 H 1992.38 -1.19176 7.508 0
M  V30 21360 N 1993.96 -1.29952 -0.891648 0
M  V30 21361 C 1995.2 -1.18155 -1.63963 0
M  V30 21362 C 1995.53 0.265477 -1.93184 0
M  V30 21363 O 1994.8 1.1802 -1.56359 0
M  V30 21364 H 1993.38 -0.434297 -0.607779 0
M  V30 21365 H 1996.04 -1.62988 -1.06869 0
M  V30 21366 H 1995.13 -1.73753 -2.59261 0
M  V30 21367 N 1995.44 1.1031 -1.12559 0
M  V30 21368 C 1996.38 2.16689 -0.794638 0
M  V30 21369 C 1997.35 1.64369 0.239196 0
M  V30 21370 O 1998.54 1.90462 0.113478 0
M  V30 21371 C 1995.68 3.44143 -0.256828 0
M  V30 21372 C 1994.79 4.10409 -1.34863 0
M  V30 21373 C 1993.93 5.25588 -0.77012 0
M  V30 21374 C 1992.96 5.8376 -1.84096 0
M  V30 21375 N 1992.1 6.90314 -1.28107 0
M  V30 21376 H 1996.94 2.44342 -1.7059 0
M  V30 21377 H 1994.48 1.19936 -0.851695 0
M  V30 21378 H 1996.44 4.17136 0.0730472 0
M  V30 21379 H 1995.07 3.16837 0.61759 0
M  V30 21380 H 1994.12 3.35372 -1.79526 0
M  V30 21381 H 1995.43 4.49686 -2.15833 0
M  V30 21382 H 1994.58 6.05439 -0.390991 0
M  V30 21383 H 1993.32 4.87649 0.0707618 0
M  V30 21384 H 1992.33 5.02577 -2.22926 0
M  V30 21385 H 1993.55 6.23763 -2.68508 0
M  V30 21386 H 1991.5 6.54371 -0.462033 0
M  V30 21387 H 1991.42 7.28309 -2.02735 0
M  V30 21388 H 1992.68 7.73942 -0.929211 0
M  V30 21389 N 1996.91 0.917694 1.28125 0
M  V30 21390 C 1998.16 0.553715 1.95094 0
M  V30 21391 C 1998.49 -0.900999 1.72034 0
M  V30 21392 O 1997.77 -1.64132 1.04359 0
M  V30 21393 C 1998.05 0.868367 3.49473 0
M  V30 21394 C 1997.9 2.3761 3.81918 0
M  V30 21395 C 1999.22 0.367261 4.38565 0
M  V30 21396 H 1996.34 0.202644 0.708593 0
M  V30 21397 H 1998.98 1.14765 1.51423 0
M  V30 21398 H 1997.13 0.362898 3.86801 0
M  V30 21399 H 1998.81 2.95249 3.54437 0
M  V30 21400 H 1997.05 2.82945 3.28823 0
M  V30 21401 H 1997.72 2.5468 4.89737 0
M  V30 21402 H 2000.2 0.800328 4.08331 0
M  V30 21403 H 1999.07 0.616464 5.45427 0
M  V30 21404 H 1999.33 -0.732497 4.3599 0
M  V30 21405 N 1998.39 -1.42074 0.682102 0
M  V30 21406 C 1999.35 -2.29193 0.0174256 0
M  V30 21407 C 2000.35 -1.43698 -0.721635 0
M  V30 21408 O 2001.54 -1.65003 -0.558542 0
M  V30 21409 C 1998.68 -3.26332 -0.985903 0
M  V30 21410 H 1999.87 -2.89462 0.784316 0
M  V30 21411 H 1997.42 -1.49836 0.44485 0
M  V30 21412 H 1998.16 -2.71016 -1.78103 0
M  V30 21413 H 1997.94 -3.89401 -0.459258 0
M  V30 21414 H 1999.43 -3.91649 -1.44918 0
M  V30 21415 N 1999.87 -0.425924 -1.51735 0
M  V30 21416 C 2000.8 0.382011 -2.30354 0
M  V30 21417 C 2001.78 1.03124 -1.35276 0
M  V30 21418 O 2002.97 1.03705 -1.64191 0
M  V30 21419 C 2000.1 1.48978 -3.13724 0
M  V30 21420 C 1999.05 0.964659 -4.16987 0
M  V30 21421 C 1998.38 2.1673 -4.88807 0
M  V30 21422 C 1999.68 0.00700314 -5.223 0
M  V30 21423 H 2001.37 -0.274043 -2.98143 0
M  V30 21424 H 1998.92 -0.133238 -1.43382 0
M  V30 21425 H 2000.87 2.06211 -3.67498 0
M  V30 21426 H 1999.59 2.17396 -2.43735 0
M  V30 21427 H 1998.25 0.414618 -3.64248 0
M  V30 21428 H 1997.9 2.83741 -4.15331 0
M  V30 21429 H 1997.6 1.82239 -5.58626 0
M  V30 21430 H 1999.12 2.74538 -5.454 0
M  V30 21431 H 2000.54 0.488665 -5.71214 0
M  V30 21432 H 1998.93 -0.249924 -5.99579 0
M  V30 21433 H 2000 -0.933195 -4.75836 0
M  V30 21434 N 2001.35 1.56817 -0.156891 0
M  V30 21435 C 2002.28 2.14404 0.810167 0
M  V30 21436 C 2003.29 1.09595 1.20386 0
M  V30 21437 O 2004.48 1.36836 1.14622 0
M  V30 21438 C 2001.58 2.65998 2.09996 0
M  V30 21439 C 2000.75 3.95312 1.87209 0
M  V30 21440 C 1999.81 4.32116 3.00271 0
M  V30 21441 O 1998.84 5.00259 2.71532 0
M  V30 21442 N 2000.04 3.925 4.27696 0
M  V30 21443 H 2002.81 2.98009 0.317935 0
M  V30 21444 H 2000.37 1.61879 0.0263634 0
M  V30 21445 H 2002.36 2.87626 2.84699 0
M  V30 21446 H 2000.93 1.87062 2.50453 0
M  V30 21447 H 2000.15 3.82209 0.964891 0
M  V30 21448 H 2001.44 4.79795 1.69335 0
M  V30 21449 H 2000.84 3.37612 4.5391 0
M  V30 21450 H 1999.39 4.19159 4.99148 0
M  V30 21451 N 2002.83 -0.116876 1.57166 0
M  V30 21452 C 2004.1 -0.854715 1.75937 0
M  V30 21453 C 2004.48 -1.97969 0.732908 0
M  V30 21454 O 2003.83 -2.27207 -0.242738 0
M  V30 21455 C 2004.04 -1.36944 3.2101 0
M  V30 21456 C 2005.39 -1.82093 3.83572 0
M  V30 21457 O 2006.41 -1.46618 3.24625 0
M  V30 21458 O 2005.27 -2.47614 4.87186 0
M  V30 21459 H 2002.37 -0.40605 0.720453 0
M  V30 21460 H 2004.91 -0.100451 1.69402 0
M  V30 21461 H 2003.68 -0.56241 3.87237 0
M  V30 21462 H 2003.31 -2.18635 3.32091 0
M  V30 21463 N 2004.3 -1.52772 -0.387116 0
M  V30 21464 C 2005.55 -1.67576 -1.12973 0
M  V30 21465 C 2005.87 -0.419122 -1.90443 0
M  V30 21466 O 2005.14 0.566514 -1.8753 0
M  V30 21467 H 2003.72 -0.617716 -0.420043 0
M  V30 21468 H 2006.38 -1.89892 -0.43896 0
M  V30 21469 H 2005.48 -2.52704 -1.83158 0
M  V30 21470 N 2005.78 0.645673 -1.43767 0
M  V30 21471 C 2007.01 1.43303 -1.49237 0
M  V30 21472 C 2007.42 1.88464 -0.11261 0
M  V30 21473 O 2006.78 1.59955 0.878664 0
M  V30 21474 C 2006.83 2.66302 -2.4447 0
M  V30 21475 O 2006.55 2.23028 -3.77081 0
M  V30 21476 C 2008.05 3.59583 -2.59259 0
M  V30 21477 H 2005.27 0.439978 -0.506617 0
M  V30 21478 H 2007.82 0.790924 -1.88586 0
M  V30 21479 H 2005.97 3.26636 -2.08296 0
M  V30 21480 H 2006.39 3.02664 -4.28363 0
M  V30 21481 H 2007.86 4.42532 -3.29953 0
M  V30 21482 H 2008.34 4.07431 -1.64001 0
M  V30 21483 H 2008.94 3.05126 -2.96274 0
M  V30 21484 N 2007.26 1.30423 0.884744 0
M  V30 21485 C 2008.19 1.12637 1.99613 0
M  V30 21486 C 2009.2 0.0695549 1.62651 0
M  V30 21487 O 2010.39 0.315593 1.75688 0
M  V30 21488 C 2007.49 0.695652 3.31683 0
M  V30 21489 C 2006.67 1.83427 3.97081 0
M  V30 21490 C 2005.73 1.39206 5.07453 0
M  V30 21491 O 2004.75 2.09931 5.29072 0
M  V30 21492 N 2005.95 0.27121 5.79866 0
M  V30 21493 H 2008.72 2.0836 2.15421 0
M  V30 21494 H 2006.28 1.22561 1.05784 0
M  V30 21495 H 2008.27 0.382828 4.02885 0
M  V30 21496 H 2006.84 -0.169542 3.1214 0
M  V30 21497 H 2006.06 2.31519 3.19049 0
M  V30 21498 H 2007.35 2.5973 4.37513 0
M  V30 21499 H 2006.75 -0.318111 5.64805 0
M  V30 21500 H 2005.3 0.0178406 6.51798 0
M  V30 21501 N 2008.74 -1.09711 1.13142 0
M  V30 21502 C 2009.99 -1.81198 0.886021 0
M  V30 21503 C 2010.3 -1.86501 -0.589624 0
M  V30 21504 O 2011.51 -2.54267 -0.951866 0
M  V30 21505 C 2009.96 -3.25498 1.53554 0
M  V30 21506 C 2009.57 -3.2847 3.0465 0
M  V30 21507 C 2011.31 -4.01761 1.37072 0
M  V30 21508 C 2009.22 -4.67276 3.62501 0
M  V30 21509 H 2008.15 -0.679005 0.327824 0
M  V30 21510 H 2010.8 -1.23325 1.35879 0
M  V30 21511 H 2009.18 -3.83414 0.990434 0
M  V30 21512 H 2010.36 -2.80336 3.65716 0
M  V30 21513 H 2008.67 -2.65697 3.20615 0
M  V30 21514 H 2011.27 -5.04306 1.77707 0
M  V30 21515 H 2011.61 -4.15105 0.315226 0
M  V30 21516 H 2012.15 -3.50279 1.88545 0
M  V30 21517 H 2008.88 -4.59133 4.67843 0
M  V30 21518 H 2008.4 -5.15746 3.06212 0
M  V30 21519 H 2010.08 -5.36249 3.62002 0
M  V30 21520 N 2010.22 -0.924476 -1.27637 0
M  V30 21521 C 2011.16 -0.411501 -2.28931 0
M  V30 21522 C 2012.16 0.502472 -1.61776 0
M  V30 21523 O 2013.36 0.382531 -1.75888 0
M  V30 21524 H 2009.74 -0.114496 -0.743233 0
M  V30 21525 H 2011.71 -1.27869 -2.69615 0
M  V30 21526 C 2010.46 0.323415 -3.46193 0
M  V30 21527 H 2009.78 -0.37068 -3.98078 0
M  V30 21528 H 2011.22 0.646821 -4.19037 0
M  V30 21529 C 2009.68 1.53523 -2.99887 0
M  V30 21530 O 2010.21 2.63407 -3.03281 0
M  V30 21531 N 2008.42 1.38594 -2.55421 0
M  V30 21532 H 2007.96 0.491939 -2.52859 0
M  V30 21533 H 2007.92 2.198 -2.24801 0
M  V30 21534 N 2011.69 1.41711 -0.689627 0
M  V30 21535 C 2013.11 1.55473 -0.360597 0
M  V30 21536 C 2013.31 1.66635 1.13292 0
M  V30 21537 O 2012.37 1.64148 1.91864 0
M  V30 21538 C 2013.68 2.79704 -1.10392 0
M  V30 21539 C 2015.23 2.93494 -1.08768 0
M  V30 21540 C 2015.7 4.20604 -1.81263 0
M  V30 21541 N 2017.19 4.27549 -1.78203 0
M  V30 21542 C 2017.93 5.24749 -2.3114 0
M  V30 21543 N 2017.42 6.28015 -2.92522 0
M  V30 21544 N 2019.22 5.16648 -2.21429 0
M  V30 21545 H 2011.37 1.3271 -1.65837 0
M  V30 21546 H 2013.63 0.639848 -0.699499 0
M  V30 21547 H 2013.34 2.77645 -2.15885 0
M  V30 21548 H 2013.21 3.71044 -0.678662 0
M  V30 21549 H 2015.6 2.95071 -0.0410356 0
M  V30 21550 H 2015.68 2.03343 -1.55195 0
M  V30 21551 H 2015.32 4.19788 -2.85904 0
M  V30 21552 H 2015.25 5.09716 -1.32275 0
M  V30 21553 H 2017.74 3.53555 -1.33445 0
M  V30 21554 H 2018.06 6.98563 -3.30498 0
M  V30 21555 H 2016.4 6.28534 -2.96598 0
M  V30 21556 H 2019.59 4.34898 -1.73152 0
M  V30 21557 H 2019.77 5.92234 -2.62989 0
M  V30 21558 N 2013.17 0.433965 1.51507 0
M  V30 21559 C 2014.12 -0.393604 2.29246 0
M  V30 21560 C 2015.11 -1.02389 1.34955 0
M  V30 21561 O 2016.32 -0.959241 1.52311 0
M  V30 21562 H 2012.7 -0.14574 0.737742 0
M  V30 21563 H 2014.67 0.282942 2.97056 0
M  V30 21564 C 2013.42 -1.48425 3.14428 0
M  V30 21565 H 2012.74 -1.00862 3.86868 0
M  V30 21566 H 2014.18 -2.03662 3.71884 0
M  V30 21567 C 2012.64 -2.46561 2.29585 0
M  V30 21568 O 2013.17 -3.5102 1.95315 0
M  V30 21569 N 2011.37 -2.17368 1.92872 0
M  V30 21570 H 2010.92 -1.3245 2.20941 0
M  V30 21571 H 2010.88 -2.8327 1.36402 0
M  V30 21572 N 2014.65 -1.56732 0.165206 0
M  V30 21573 C 2015.6 -2.18974 -0.784415 0
M  V30 21574 C 2016.59 -1.15199 -1.242 0
M  V30 21575 O 2017.8 -1.33411 -1.20837 0
M  V30 21576 H 2014.17 -0.701387 -0.27122 0
M  V30 21577 H 2016.14 -2.9747 -0.235435 0
M  V30 21578 C 2014.89 -2.83996 -2.00603 0
M  V30 21579 H 2014.22 -3.63574 -1.66295 0
M  V30 21580 H 2015.66 -3.31025 -2.6495 0
M  V30 21581 C 2014.12 -1.83448 -2.82574 0
M  V30 21582 O 2014.65 -1.31617 -3.79526 0
M  V30 21583 N 2012.85 -1.52342 -2.47468 0
M  V30 21584 H 2012.4 -1.94684 -1.68689 0
M  V30 21585 H 2012.36 -0.853184 -3.02602 0
M  V30 21586 N 2016.13 0.10854 -1.57226 0
M  V30 21587 C 2017.08 1.15155 -2.02094 0
M  V30 21588 C 2018.07 1.42263 -0.919651 0
M  V30 21589 O 2019.28 1.42102 -1.10485 0
M  V30 21590 H 2015.65 0.388515 -0.643863 0
M  V30 21591 H 2017.62 0.746707 -2.88906 0
M  V30 21592 C 2016.37 2.46727 -2.44992 0
M  V30 21593 H 2015.69 2.26708 -3.29307 0
M  V30 21594 H 2017.13 3.18242 -2.80175 0
M  V30 21595 C 2015.59 3.10059 -1.31776 0
M  V30 21596 O 2016.12 3.96577 -0.639471 0
M  V30 21597 N 2014.33 2.70099 -1.07215 0
M  V30 21598 H 2013.88 1.99837 -1.62552 0
M  V30 21599 H 2013.83 3.12802 -0.316602 0
M  V30 21600 N 2017.61 1.52975 0.379009 0
M  V30 21601 C 2018.85 1.68505 1.12304 0
M  V30 21602 C 2019.18 0.430012 1.89687 0
M  V30 21603 O 2018.44 -0.587809 1.86664 0
M  V30 21604 C 2018.74 2.8776 2.11964 0
M  V30 21605 C 2018.4 4.24806 1.51163 0
M  V30 21606 C 2017.06 4.62077 1.34308 0
M  V30 21607 C 2019.42 5.10087 1.07053 0
M  V30 21608 C 2016.74 5.82277 0.719058 0
M  V30 21609 C 2019.1 6.30921 0.460559 0
M  V30 21610 C 2017.76 6.66915 0.279391 0
M  V30 21611 H 2017.03 0.616604 0.41095 0
M  V30 21612 H 2019.68 1.87137 0.406443 0
M  V30 21613 H 2017.98 2.63586 2.89879 0
M  V30 21614 H 2019.68 2.96971 2.69461 0
M  V30 21615 H 2016.27 3.95453 1.65272 0
M  V30 21616 H 2020.45 4.81854 1.18872 0
M  V30 21617 H 2015.71 6.08765 0.566983 0
M  V30 21618 H 2019.88 6.96312 0.110504 0
M  V30 21619 H 2017.51 7.5992 -0.206228 0
M  V30 21620 N 2019.08 -0.63804 1.44107 0
M  V30 21621 C 2020.02 -1.76333 1.46421 0
M  V30 21622 C 2021.03 -1.58805 0.358429 0
M  V30 21623 O 2022.22 -1.67246 0.623768 0
M  V30 21624 C 2019.32 -3.13967 1.27586 0
M  V30 21625 C 2018.49 -3.58016 2.51283 0
M  V30 21626 C 2017.55 -4.74503 2.27449 0
M  V30 21627 O 2016.58 -4.83167 3.00895 0
M  V30 21628 N 2017.78 -5.6574 1.3007 0
M  V30 21629 H 2020.54 -1.74822 2.43429 0
M  V30 21630 H 2018.1 -0.822384 1.39458 0
M  V30 21631 H 2020.1 -3.89605 1.09499 0
M  V30 21632 H 2018.67 -3.10162 0.389684 0
M  V30 21633 H 2017.89 -2.7266 2.84693 0
M  V30 21634 H 2019.17 -3.84197 3.33572 0
M  V30 21635 H 2018.57 -5.61427 0.693968 0
M  V30 21636 H 2017.13 -6.41037 1.17964 0
M  V30 21637 N 2020.56 -1.3089 -0.877815 0
M  V30 21638 C 2021.79 -1.23068 -1.66319 0
M  V30 21639 C 2022.21 0.205309 -1.8768 0
M  V30 21640 O 2021.56 1.13467 -1.42939 0
M  V30 21641 C 2021.61 -1.96305 -3.03557 0
M  V30 21642 O 2021.33 -3.34298 -2.83154 0
M  V30 21643 C 2022.84 -1.95228 -3.97996 0
M  V30 21644 H 2020.06 -0.425583 -0.518768 0
M  V30 21645 H 2022.6 -1.72636 -1.09623 0
M  V30 21646 H 2020.75 -1.50518 -3.56964 0
M  V30 21647 H 2021.17 -3.71486 -3.70268 0
M  V30 21648 H 2022.64 -2.50997 -4.91635 0
M  V30 21649 H 2023.12 -0.932904 -4.29178 0
M  V30 21650 H 2023.73 -2.40858 -3.50525 0
M  V30 21651 N 2022.04 1.0911 -1.13723 0
M  V30 21652 C 2023.29 1.81352 -0.900984 0
M  V30 21653 C 2023.62 1.85876 0.572749 0
M  V30 21654 O 2022.87 1.3252 1.44003 0
M  V30 21655 C 2023.17 3.27193 -1.43805 0
M  V30 21656 C 2022.84 3.42797 -2.92918 0
M  V30 21657 C 2021.5 3.46763 -3.33629 0
M  V30 21658 C 2023.85 3.47067 -3.88837 0
M  V30 21659 C 2021.18 3.52582 -4.68938 0
M  V30 21660 C 2023.53 3.5442 -5.23993 0
M  V30 21661 C 2022.19 3.56657 -5.64227 0
M  V30 21662 H 2021.46 0.663614 -0.329694 0
M  V30 21663 H 2024.11 1.28517 -1.41971 0
M  V30 21664 H 2022.42 3.82687 -0.840093 0
M  V30 21665 H 2024.11 3.81628 -1.23129 0
M  V30 21666 H 2020.7 3.40397 -2.60438 0
M  V30 21667 H 2024.89 3.4324 -3.58469 0
M  V30 21668 H 2020.14 3.52602 -4.99481 0
M  V30 21669 H 2024.32 3.56669 -5.9813 0
M  V30 21670 H 2021.94 3.60918 -6.69061 0
M  V30 21671 N 2023.52 0.931232 1.27145 0
M  V30 21672 C 2024.93 0.617607 1.76189 0
M  V30 21673 C 2025.28 -0.867239 1.75993 0
M  V30 21674 O 2024.41 -1.67865 1.36567 0
M  V30 21675 C 2025 1.11436 3.19949 0
M  V30 21676 C 2023.56 0.851337 3.66646 0
M  V30 21677 C 2022.71 1.27104 2.46454 0
M  V30 21678 H 2025.66 1.11062 1.13362 0
M  V30 21679 H 2025.68 0.463637 3.77665 0
M  V30 21680 H 2025.19 2.19507 3.2006 0
M  V30 21681 H 2023.29 -0.215418 3.71977 0
M  V30 21682 H 2023.4 1.47136 4.55947 0
M  V30 21683 H 2021.77 0.689554 2.45188 0
M  V30 21684 H 2022.55 2.36047 2.49273 0
M  V30 21685 N 2025 -1.41343 0.697132 0
M  V30 21686 C 2025.93 -2.29199 -0.00639609 0
M  V30 21687 C 2026.94 -1.44867 -0.742796 0
M  V30 21688 O 2028.13 -1.68354 -0.593239 0
M  V30 21689 C 2025.23 -3.22767 -1.03317 0
M  V30 21690 C 2024.4 -4.35865 -0.366071 0
M  V30 21691 C 2023.46 -5.09999 -1.29567 0
M  V30 21692 O 2022.49 -5.63727 -0.787462 0
M  V30 21693 N 2023.69 -5.1761 -2.62792 0
M  V30 21694 H 2026.46 -2.90219 0.747884 0
M  V30 21695 H 2024.02 -1.52512 0.543287 0
M  V30 21696 H 2026.01 -3.69231 -1.65682 0
M  V30 21697 H 2024.58 -2.63045 -1.68897 0
M  V30 21698 H 2023.8 -3.91765 0.437484 0
M  V30 21699 H 2025.09 -5.08706 0.0977313 0
M  V30 21700 H 2024.49 -4.7541 -3.06598 0
M  V30 21701 H 2023.04 -5.67645 -3.20348 0
M  V30 21702 N 2026.48 -0.441993 -1.51275 0
M  V30 21703 C 2027.44 0.355502 -2.26426 0
M  V30 21704 C 2028.44 0.945699 -1.30051 0
M  V30 21705 O 2029.63 0.819422 -1.53724 0
M  V30 21706 C 2026.76 1.50344 -3.05957 0
M  V30 21707 H 2027.95 -0.303177 -2.98364 0
M  V30 21708 H 2025.51 -0.195279 -1.55075 0
M  V30 21709 H 2026.24 2.19803 -2.38447 0
M  V30 21710 H 2026.03 1.08636 -3.7675 0
M  V30 21711 H 2027.52 2.06676 -3.6287 0
M  V30 21712 N 2027.95 1.56642 -0.173515 0
M  V30 21713 C 2029.2 1.97241 0.47157 0
M  V30 21714 C 2029.53 1.05958 1.62747 0
M  V30 21715 O 2028.81 0.107151 1.94205 0
M  V30 21716 C 2029.09 3.47276 0.952439 0
M  V30 21717 C 2028.94 4.49338 -0.203789 0
M  V30 21718 C 2030.26 4.00461 1.82535 0
M  V30 21719 H 2027.38 0.71714 0.169941 0
M  V30 21720 H 2030.02 1.88211 -0.260093 0
M  V30 21721 H 2028.17 3.55102 1.57591 0
M  V30 21722 H 2029.85 4.5357 -0.840936 0
M  V30 21723 H 2028.09 4.25211 -0.858945 0
M  V30 21724 H 2028.76 5.51723 0.174833 0
M  V30 21725 H 2031.24 3.9528 1.29974 0
M  V30 21726 H 2030.11 5.05853 2.13083 0
M  V30 21727 H 2030.37 3.44409 2.7719 0
M  V30 21728 N 2029.43 -0.1002 1.57281 0
M  V30 21729 C 2030.36 -1.12278 2.04734 0
M  V30 21730 C 2031.34 -1.42079 0.935281 0
M  V30 21731 O 2032.53 -1.52197 1.20622 0
M  V30 21732 C 2029.66 -2.44402 2.46748 0
M  V30 21733 C 2028.61 -2.29021 3.61571 0
M  V30 21734 C 2027.94 -3.66276 3.89545 0
M  V30 21735 C 2029.24 -1.73501 4.9264 0
M  V30 21736 H 2030.93 -0.728019 2.90414 0
M  V30 21737 H 2028.48 -0.348753 1.39713 0
M  V30 21738 H 2030.43 -3.16206 2.78553 0
M  V30 21739 H 2029.15 -2.85804 1.58061 0
M  V30 21740 H 2027.81 -1.59664 3.30005 0
M  V30 21741 H 2027.46 -4.05197 2.98034 0
M  V30 21742 H 2027.16 -3.56833 4.66845 0
M  V30 21743 H 2028.69 -4.39555 4.2382 0
M  V30 21744 H 2030.1 -2.35141 5.22859 0
M  V30 21745 H 2028.5 -1.7483 5.74068 0
M  V30 21746 H 2029.57 -0.69403 4.79908 0
M  V30 21747 N 2030.91 -1.53174 -0.370891 0
M  V30 21748 C 2031.84 -1.82213 -1.46017 0
M  V30 21749 C 2032.82 -0.675274 -1.56122 0
M  V30 21750 O 2034.01 -0.924614 -1.70776 0
M  V30 21751 C 2031.14 -2.00727 -2.83419 0
M  V30 21752 C 2030.09 -3.16478 -2.88141 0
M  V30 21753 C 2029.42 -3.20276 -4.28167 0
M  V30 21754 C 2030.72 -4.55179 -2.56143 0
M  V30 21755 H 2032.41 -2.73432 -1.21965 0
M  V30 21756 H 2029.96 -1.31569 -0.585288 0
M  V30 21757 H 2031.91 -2.19625 -3.59643 0
M  V30 21758 H 2030.63 -1.06213 -3.08847 0
M  V30 21759 H 2029.29 -2.97392 -2.14367 0
M  V30 21760 H 2028.94 -2.2341 -4.50663 0
M  V30 21761 H 2028.64 -3.98044 -4.32244 0
M  V30 21762 H 2030.16 -3.41352 -5.06272 0
M  V30 21763 H 2031.58 -4.74274 -3.22082 0
M  V30 21764 H 2029.97 -5.35148 -2.71544 0
M  V30 21765 H 2031.04 -4.60654 -1.51412 0
M  V30 21766 N 2032.39 0.630389 -1.44443 0
M  V30 21767 C 2033.32 1.75348 -1.54192 0
M  V30 21768 C 2034.3 1.65453 -0.394887 0
M  V30 21769 O 2035.48 1.84201 -0.615103 0
M  V30 21770 C 2032.61 3.13881 -1.48647 0
M  V30 21771 C 2031.57 3.38566 -2.61835 0
M  V30 21772 C 2030.89 4.77136 -2.41341 0
M  V30 21773 C 2032.19 3.31055 -4.0398 0
M  V30 21774 H 2033.89 1.67446 -2.48198 0
M  V30 21775 H 2031.43 0.804159 -1.19454 0
M  V30 21776 H 2033.39 3.92226 -1.54068 0
M  V30 21777 H 2032.11 3.22568 -0.511585 0
M  V30 21778 H 2030.77 2.62602 -2.55805 0
M  V30 21779 H 2030.42 4.82527 -1.42043 0
M  V30 21780 H 2030.12 4.9461 -3.1723 0
M  V30 21781 H 2031.64 5.57709 -2.48581 0
M  V30 21782 H 2033.06 3.99304 -4.11375 0
M  V30 21783 H 2031.45 3.60064 -4.80077 0
M  V30 21784 H 2032.52 2.28852 -4.27498 0
M  V30 21785 N 2033.87 1.31354 0.870861 0
M  V30 21786 C 2035.11 1.20988 1.62383 0
M  V30 21787 C 2035.44 -0.232177 1.93109 0
M  V30 21788 O 2034.7 -1.1807 1.56071 0
M  V30 21789 C 2034.99 1.99835 2.96312 0
M  V30 21790 C 2034.66 3.49342 2.85081 0
M  V30 21791 C 2033.32 3.90108 2.81725 0
M  V30 21792 C 2035.67 4.44485 2.72181 0
M  V30 21793 C 2033 5.24286 2.63327 0
M  V30 21794 C 2035.35 5.78787 2.5532 0
M  V30 21795 C 2034.02 6.18775 2.50347 0
M  V30 21796 H 2033.29 0.442726 0.594201 0
M  V30 21797 H 2035.94 1.62609 1.01146 0
M  V30 21798 H 2034.24 1.50892 3.61578 0
M  V30 21799 H 2035.94 1.89196 3.53562 0
M  V30 21800 H 2032.53 3.16954 2.8851 0
M  V30 21801 H 2036.71 4.13921 2.7383 0
M  V30 21802 H 2031.97 5.54344 2.57901 0
M  V30 21803 H 2036.14 6.52137 2.44315 0
M  V30 21804 H 2033.77 7.22689 2.3585 0
M  V30 21805 N 2035.34 -1.08505 1.143 0
M  V30 21806 C 2036.76 -1.32937 0.883172 0
M  V30 21807 C 2036.96 -1.95791 -0.47623 0
M  V30 21808 O 2036.02 -2.2103 -1.22073 0
M  V30 21809 C 2037.33 -2.23189 2.01512 0
M  V30 21810 C 2038.88 -2.36672 2.0483 0
M  V30 21811 C 2039.35 -3.30266 3.17314 0
M  V30 21812 N 2040.84 -3.37843 3.16886 0
M  V30 21813 C 2041.58 -4.1029 4.00561 0
M  V30 21814 N 2041.07 -4.85454 4.94274 0
M  V30 21815 N 2042.87 -4.06111 3.88626 0
M  V30 21816 H 2035.02 -0.660869 2.01857 0
M  V30 21817 H 2037.28 -0.353741 0.879529 0
M  V30 21818 H 2036.99 -1.84248 2.99576 0
M  V30 21819 H 2036.86 -3.23644 1.93738 0
M  V30 21820 H 2039.25 -2.74873 1.07373 0
M  V30 21821 H 2039.33 -1.35963 2.16674 0
M  V30 21822 H 2038.97 -2.92787 4.15016 0
M  V30 21823 H 2038.9 -4.30901 3.02707 0
M  V30 21824 H 2041.39 -2.84257 2.49011 0
M  V30 21825 H 2041.71 -5.38193 5.54588 0
M  V30 21826 H 2040.05 -4.8451 4.98272 0
M  V30 21827 H 2043.24 -3.46497 3.14734 0
M  V30 21828 H 2043.42 -4.6231 4.54064 0
M  V30 21829 N 2036.82 -0.937962 -1.26649 0
M  V30 21830 C 2038.06 -0.591253 -1.95662 0
M  V30 21831 C 2038.43 0.853316 -1.71996 0
M  V30 21832 O 2039.63 1.3088 -2.34785 0
M  V30 21833 C 2037.9 -0.920382 -3.45346 0
M  V30 21834 S 2039.46 -0.683733 -4.3344 0
M  V30 21835 H 2036.27 -0.217883 -0.676793 0
M  V30 21836 H 2038.88 -1.20859 -1.53666 0
M  V30 21837 H 2037.58 -1.96921 -3.6007 0
M  V30 21838 H 2037.11 -0.292641 -3.9231 0
M  V30 21839 H 2039.13 0.453606 -4.94122 0
M  V30 21840 N 2038.3 1.40971 -0.704618 0
M  V30 21841 C 2039.26 2.29137 -0.053886 0
M  V30 21842 C 2040.26 1.44828 0.698682 0
M  V30 21843 O 2041.45 1.65871 0.532221 0
M  V30 21844 C 2038.58 3.27859 0.933861 0
M  V30 21845 H 2039.78 2.88178 -0.830268 0
M  V30 21846 H 2037.33 1.49109 -0.468632 0
M  V30 21847 H 2038.07 2.73815 1.73769 0
M  V30 21848 H 2037.85 3.90082 0.397249 0
M  V30 21849 H 2039.34 3.93905 1.38669 0
M  V30 21850 N 2039.78 0.45001 1.51039 0
M  V30 21851 C 2041.01 -0.110496 2.06605 0
M  V30 21852 C 2041.42 -1.35362 1.31615 0
M  V30 21853 O 2040.78 -1.78515 0.379306 0
M  V30 21854 C 2040.83 -0.419948 3.59052 0
M  V30 21855 O 2040.55 0.773848 4.31211 0
M  V30 21856 C 2042.05 -1.02974 4.31174 0
M  V30 21857 H 2039.27 -0.00230221 0.670996 0
M  V30 21858 H 2041.82 0.632737 1.94465 0
M  V30 21859 H 2039.97 -1.11309 3.71065 0
M  V30 21860 H 2040.38 0.505717 5.22056 0
M  V30 21861 H 2041.86 -1.19617 5.38884 0
M  V30 21862 H 2042.34 -2.01422 3.9029 0
M  V30 21863 H 2042.94 -0.375607 4.23638 0
M  V30 21864 N 2041.26 -1.56548 0.18182 0
M  V30 21865 C 2042.5 -1.96807 -0.459512 0
M  V30 21866 C 2042.83 -1.06933 -1.63065 0
M  V30 21867 O 2042.1 -0.137842 -1.95414 0
M  V30 21868 H 2040.68 -0.72675 -0.172753 0
M  V30 21869 H 2043.34 -1.93084 0.265455 0
M  V30 21870 H 2042.43 -3.01338 -0.812522 0
M  V30 21871 N 2042.73 0.0918577 -1.57332 0
M  V30 21872 C 2043.64 1.1295 -2.0562 0
M  V30 21873 C 2044.66 1.4366 -0.981728 0
M  V30 21874 O 2045.84 1.54237 -1.29511 0
M  V30 21875 C 2042.9 2.42918 -2.4737 0
M  V30 21876 C 2041.96 2.19361 -3.69024 0
M  V30 21877 C 2041.2 3.43132 -4.08774 0
M  V30 21878 O 2041.42 4.51492 -3.48584 0
M  V30 21879 O 2040.35 3.32529 -5.01705 0
M  V30 21880 H 2044.18 0.74936 -2.9431 0
M  V30 21881 H 2041.76 0.304595 -1.46262 0
M  V30 21882 H 2043.65 3.19442 -2.74835 0
M  V30 21883 H 2042.32 2.80352 -1.61816 0
M  V30 21884 H 2041.23 1.40607 -3.46671 0
M  V30 21885 H 2042.56 1.86818 -4.55368 0
M  V30 21886 N 2044.21 1.53368 0.362763 0
M  V30 21887 C 2045.18 1.7933 1.42736 0
M  V30 21888 C 2046.18 0.663794 1.4646 0
M  V30 21889 O 2047.37 0.932009 1.47171 0
M  V30 21890 C 2044.5 1.91792 2.81831 0
M  V30 21891 H 2045.69 2.74412 1.20989 0
M  V30 21892 H 2043.24 1.44488 0.596058 0
M  V30 21893 H 2043.98 0.987867 3.08888 0
M  V30 21894 H 2043.76 2.73948 2.80526 0
M  V30 21895 H 2045.25 2.13461 3.58921 0
M  V30 21896 N 2045.69 -0.62272 1.44776 0
M  V30 21897 C 2046.94 -1.38229 1.49212 0
M  V30 21898 C 2047.29 -1.91986 0.126106 0
M  V30 21899 O 2046.58 -1.71221 -0.859879 0
M  V30 21900 C 2046.78 -2.55936 2.49463 0
M  V30 21901 C 2046.61 -2.13703 3.95678 0
M  V30 21902 C 2045.38 -2.00585 4.63782 0
M  V30 21903 C 2047.58 -1.72097 4.84652 0
M  V30 21904 N 2045.56 -1.52004 5.94784 0
M  V30 21905 C 2046.93 -1.34822 6.05164 0
M  V30 21906 C 2048.98 -1.59553 4.71643 0
M  V30 21907 C 2047.69 -0.862559 7.1411 0
M  V30 21908 C 2049.71 -1.12391 5.80622 0
M  V30 21909 C 2049.07 -0.760715 7.0028 0
M  V30 21910 H 2045.17 -0.500304 0.601016 0
M  V30 21911 H 2047.76 -0.713505 1.81155 0
M  V30 21912 H 2045.93 -3.20431 2.19496 0
M  V30 21913 H 2047.66 -3.22764 2.44142 0
M  V30 21914 H 2044.42 -2.21301 4.18716 0
M  V30 21915 H 2044.84 -1.29988 6.64404 0
M  V30 21916 H 2049.48 -1.86262 3.7956 0
M  V30 21917 H 2047.2 -0.582988 8.05994 0
M  V30 21918 H 2050.79 -1.03132 5.72586 0
M  V30 21919 H 2049.67 -0.40138 7.83172 0
M  V30 21920 N 2047.17 -1.31814 -0.863883 0
M  V30 21921 C 2048.1 -1.15798 -1.97796 0
M  V30 21922 C 2049.11 -0.0954225 -1.6252 0
M  V30 21923 O 2050.3 -0.343504 -1.75164 0
M  V30 21924 C 2047.4 -0.748332 -3.30535 0
M  V30 21925 C 2046.58 -1.89721 -3.94113 0
M  V30 21926 C 2045.63 -1.47262 -5.05174 0
M  V30 21927 O 2044.66 -2.18322 -5.25666 0
M  V30 21928 N 2045.86 -0.363428 -5.79361 0
M  V30 21929 H 2048.63 -2.11761 -2.12079 0
M  V30 21930 H 2046.19 -1.24229 -1.03821 0
M  V30 21931 H 2048.18 -0.446875 -4.02225 0
M  V30 21932 H 2046.75 0.119862 -3.1237 0
M  V30 21933 H 2045.97 -2.36566 -3.15326 0
M  V30 21934 H 2047.26 -2.66657 -4.33326 0
M  V30 21935 H 2046.66 0.228215 -5.65239 0
M  V30 21936 H 2045.21 -0.121534 -6.51687 0
M  V30 21937 N 2048.65 1.07897 -1.14873 0
M  V30 21938 C 2049.56 2.18494 -0.854259 0
M  V30 21939 C 2050.57 1.73194 0.167297 0
M  V30 21940 O 2051.75 2.01399 -0.00544437 0
M  V30 21941 C 2048.81 3.45013 -0.341649 0
M  V30 21942 C 2047.87 4.0491 -1.42641 0
M  V30 21943 C 2047.11 5.2539 -0.938165 0
M  V30 21944 O 2047.33 5.69982 0.218391 0
M  V30 21945 O 2046.26 5.76818 -1.71943 0
M  V30 21946 H 2050.09 2.46164 -1.77867 0
M  V30 21947 H 2047.68 1.1713 -0.927406 0
M  V30 21948 H 2049.56 4.21354 -0.0619573 0
M  V30 21949 H 2048.23 3.18907 0.554969 0
M  V30 21950 H 2047.14 3.30133 -1.75963 0
M  V30 21951 H 2048.47 4.35276 -2.29774 0
M  V30 21952 N 2050.12 0.944665 1.2615 0
M  V30 21953 C 2051.37 0.589817 1.92884 0
M  V30 21954 C 2051.69 -0.875787 1.74898 0
M  V30 21955 O 2052.89 -1.34016 2.36118 0
M  V30 21956 C 2051.35 1.00415 3.45608 0
M  V30 21957 C 2050.96 2.4916 3.72321 0
M  V30 21958 C 2052.7 0.721357 4.18326 0
M  V30 21959 C 2050.61 2.84445 5.18503 0
M  V30 21960 H 2049.54 0.216879 0.722135 0
M  V30 21961 H 2052.19 1.14777 1.43173 0
M  V30 21962 H 2050.57 0.374687 3.94223 0
M  V30 21963 H 2051.74 3.1704 3.34398 0
M  V30 21964 H 2050.06 2.74805 3.12843 0
M  V30 21965 H 2052.66 0.961267 5.25988 0
M  V30 21966 H 2053 -0.341981 4.14893 0
M  V30 21967 H 2053.53 1.3107 3.75587 0
M  V30 21968 H 2050.27 3.89756 5.2704 0
M  V30 21969 H 2049.79 2.2123 5.5751 0
M  V30 21970 H 2051.47 2.73098 5.86538 0
M  V30 21971 N 2051.6 -1.40596 0.712085 0
M  V30 21972 C 2052.54 -2.28199 0.00642592 0
M  V30 21973 C 2053.51 -1.43146 -0.771234 0
M  V30 21974 O 2054.7 -1.72561 -0.758605 0
M  V30 21975 C 2051.82 -3.23654 -0.998287 0
M  V30 21976 C 2050.87 -4.25358 -0.311852 0
M  V30 21977 S 2051.7 -5.26866 0.957734 0
M  V30 21978 C 2052.86 -6.25884 -0.0449648 0
M  V30 21979 H 2053.09 -2.877 0.749396 0
M  V30 21980 H 2050.63 -1.45978 0.502974 0
M  V30 21981 H 2052.58 -3.79176 -1.57275 0
M  V30 21982 H 2051.24 -2.63217 -1.71394 0
M  V30 21983 H 2050.44 -4.92484 -1.07125 0
M  V30 21984 H 2050.04 -3.73517 0.18997 0
M  V30 21985 H 2052.33 -6.7159 -0.892942 0
M  V30 21986 H 2053.27 -7.05614 0.592806 0
M  V30 21987 H 2053.68 -5.6303 -0.407125 0
M  V30 21988 N 2053.08 -0.458013 -1.50798 0
M  V30 21989 C 2054.01 0.333063 -2.31112 0
M  V30 21990 C 2054.99 1.00231 -1.37433 0
M  V30 21991 O 2056.18 1.00199 -1.66354 0
M  V30 21992 C 2053.31 1.4229 -3.16814 0
M  V30 21993 C 2052.26 0.875993 -4.1894 0
M  V30 21994 C 2051.59 2.06313 -4.93294 0
M  V30 21995 C 2052.89 -0.103786 -5.22197 0
M  V30 21996 H 2054.58 -0.337222 -2.97495 0
M  V30 21997 H 2052.13 -0.163622 -1.43067 0
M  V30 21998 H 2054.08 1.98369 -3.7179 0
M  V30 21999 H 2052.8 2.12177 -2.48291 0
M  V30 22000 H 2051.46 0.337263 -3.65045 0
M  V30 22001 H 2051.11 2.74868 -4.21256 0
M  V30 22002 H 2050.81 1.70348 -5.62366 0
M  V30 22003 H 2052.33 2.62908 -5.511 0
M  V30 22004 H 2053.75 0.367392 -5.72122 0
M  V30 22005 H 2052.15 -0.377048 -5.98914 0
M  V30 22006 H 2053.22 -1.03392 -4.73749 0
M  V30 22007 N 2054.56 1.56449 -0.190119 0
M  V30 22008 C 2055.52 2.17632 0.718966 0
M  V30 22009 C 2056.52 1.12941 1.14459 0
M  V30 22010 O 2057.71 1.38353 1.05849 0
M  V30 22011 C 2054.84 2.77437 1.98095 0
M  V30 22012 H 2056.04 2.99322 0.186033 0
M  V30 22013 H 2053.59 1.56187 0.0594913 0
M  V30 22014 H 2054.33 1.99531 2.55652 0
M  V30 22015 H 2054.11 3.5407 1.68454 0
M  V30 22016 H 2055.6 3.24433 2.62932 0
M  V30 22017 N 2056.04 -0.0835127 1.57379 0
M  V30 22018 C 2057.26 -0.801948 1.91268 0
M  V30 22019 C 2057.69 -1.70915 0.785469 0
M  V30 22020 O 2057.05 -1.79392 -0.262357 0
M  V30 22021 C 2057.09 -1.58151 3.24069 0
M  V30 22022 O 2056.2 -2.69134 3.12475 0
M  V30 22023 H 2055.54 -0.219566 0.626647 0
M  V30 22024 H 2058.07 -0.0552662 2.04525 0
M  V30 22025 H 2058.08 -1.96327 3.57659 0
M  V30 22026 H 2056.75 -0.915794 4.05692 0
M  V30 22027 H 2055.33 -2.33901 2.90422 0
M  V30 22028 N 2057.52 -1.53558 -0.354624 0
M  V30 22029 C 2058.45 -1.83751 -1.44076 0
M  V30 22030 C 2059.43 -0.691795 -1.55397 0
M  V30 22031 O 2060.61 -0.942676 -1.69786 0
M  V30 22032 C 2057.74 -2.03721 -2.81274 0
M  V30 22033 C 2056.7 -3.19517 -2.84769 0
M  V30 22034 C 2056.02 -3.248 -4.24746 0
M  V30 22035 C 2057.32 -4.5787 -2.51301 0
M  V30 22036 H 2059.02 -2.7471 -1.19058 0
M  V30 22037 H 2056.56 -1.32182 -0.5713 0
M  V30 22038 H 2058.51 -2.23427 -3.57293 0
M  V30 22039 H 2057.24 -1.09482 -3.07703 0
M  V30 22040 H 2055.9 -2.99649 -2.11201 0
M  V30 22041 H 2055.55 -2.28177 -4.48268 0
M  V30 22042 H 2055.25 -4.02606 -4.27998 0
M  V30 22043 H 2056.77 -3.46702 -5.02623 0
M  V30 22044 H 2058.18 -4.77663 -3.17034 0
M  V30 22045 H 2056.58 -5.37998 -2.65853 0
M  V30 22046 H 2057.65 -4.62234 -1.46518 0
M  V30 22047 N 2058.99 0.615033 -1.45104 0
M  V30 22048 C 2060.4 1.19689 -1.43288 0
M  V30 22049 C 2060.76 1.95574 -0.156585 0
M  V30 22050 O 2059.88 2.03272 0.742247 0
M  V30 22051 C 2060.48 2.17717 -2.59586 0
M  V30 22052 C 2059.03 2.71295 -2.60914 0
M  V30 22053 C 2058.18 1.46569 -2.35399 0
M  V30 22054 H 2061.13 0.404769 -1.53451 0
M  V30 22055 H 2061.15 3.00617 -2.33259 0
M  V30 22056 H 2060.67 1.62458 -3.52461 0
M  V30 22057 H 2058.77 3.30513 -1.72024 0
M  V30 22058 H 2058.88 3.16236 -3.59905 0
M  V30 22059 H 2057.24 1.75266 -1.84808 0
M  V30 22060 H 2058.03 0.931898 -3.3041 0
M  V30 22061 N 2060.47 1.3227 0.85688 0
M  V30 22062 C 2061.72 1.22461 1.60772 0
M  V30 22063 C 2062.04 -0.214164 1.9382 0
M  V30 22064 O 2061.31 -1.13833 1.59433 0
M  V30 22065 H 2059.89 0.450259 0.596051 0
M  V30 22066 H 2062.55 1.65764 1.0251 0
M  V30 22067 H 2061.65 1.80566 2.54563 0
M  V30 22068 N 2061.95 -1.07287 1.15444 0
M  V30 22069 C 2062.9 -2.16605 0.847634 0
M  V30 22070 C 2063.89 -1.68449 -0.179217 0
M  V30 22071 O 2065.1 -1.79968 -0.0341862 0
M  V30 22072 H 2061.47 -0.706921 0.25645 0
M  V30 22073 H 2063.44 -2.397 1.77726 0
M  V30 22074 C 2062.19 -3.45893 0.354062 0
M  V30 22075 H 2061.52 -3.83333 1.1356 0
M  V30 22076 H 2062.96 -4.23626 0.178055 0
M  V30 22077 C 2061.41 -3.23966 -0.924544 0
M  V30 22078 O 2061.94 -3.48604 -1.99594 0
M  V30 22079 N 2060.15 -2.77449 -0.864314 0
M  V30 22080 H 2059.7 -2.57599 0.00774481 0
M  V30 22081 H 2059.66 -2.63157 -1.72034 0
M  V30 22082 N 2063.43 -0.951342 -1.25647 0
M  V30 22083 C 2064.84 -0.655246 -1.45529 0
M  V30 22084 C 2065.04 0.788272 -1.85441 0
M  V30 22085 O 2064.1 1.5639 -1.98238 0
M  V30 22086 C 2065.41 -1.62536 -2.52987 0
M  V30 22087 C 2066.96 -1.63618 -2.6683 0
M  V30 22088 C 2067.44 -2.59385 -3.77469 0
M  V30 22089 N 2068.93 -2.57731 -3.84876 0
M  V30 22090 C 2069.66 -3.28512 -4.69966 0
M  V30 22091 N 2069.16 -4.08754 -5.59367 0
M  V30 22092 N 2070.95 -3.17415 -4.63901 0
M  V30 22093 H 2063.1 -1.88424 -0.980317 0
M  V30 22094 H 2065.36 -0.8103 -0.492055 0
M  V30 22095 H 2065.07 -2.65628 -2.3051 0
M  V30 22096 H 2064.94 -1.38531 -3.5084 0
M  V30 22097 H 2067.33 -0.61246 -2.88674 0
M  V30 22098 H 2067.41 -1.91681 -1.69387 0
M  V30 22099 H 2067.06 -3.61882 -3.56376 0
M  V30 22100 H 2066.99 -2.28608 -4.7439 0
M  V30 22101 H 2069.48 -1.99473 -3.20966 0
M  V30 22102 H 2069.79 -4.5969 -6.21212 0
M  V30 22103 H 2068.14 -4.12853 -5.59086 0
M  V30 22104 H 2071.33 -2.54201 -3.93064 0
M  V30 22105 H 2071.5 -3.72843 -5.29992 0
M  V30 22106 N 2064.91 1.40216 -0.719531 0
M  V30 22107 C 2066.15 2.02672 -0.265214 0
M  V30 22108 C 2066.51 1.55831 1.12164 0
M  V30 22109 O 2067.71 2.10377 1.67317 0
M  V30 22110 C 2065.98 3.55716 -0.346559 0
M  V30 22111 S 2067.54 4.3879 0.0301928 0
M  V30 22112 H 2064.36 0.703215 -0.104928 0
M  V30 22113 H 2066.96 1.71274 -0.942624 0
M  V30 22114 H 2065.66 3.87299 -1.35748 0
M  V30 22115 H 2065.2 3.91847 0.349197 0
M  V30 22116 H 2067.21 4.80169 1.25107 0
M  V30 22117 N 2066.38 0.466004 1.50553 0
M  V30 22118 C 2067.66 -0.152071 1.95008 0
M  V30 22119 C 2068.04 -1.57451 1.40614 0
M  V30 22120 O 2067.39 -2.20345 0.605014 0
M  V30 22121 C 2067.6 -0.100584 3.48855 0
M  V30 22122 C 2068.95 -0.291998 4.23595 0
M  V30 22123 O 2069.97 -0.177401 3.55758 0
M  V30 22124 O 2068.83 -0.52288 5.43993 0
M  V30 22125 H 2065.92 -0.114439 0.819044 0
M  V30 22126 H 2068.47 0.526042 1.61341 0
M  V30 22127 H 2067.24 0.892745 3.8098 0
M  V30 22128 H 2066.86 -0.820375 3.89044 0
M  V30 22129 N 2067.86 -1.56346 0.198413 0
M  V30 22130 C 2069.27 -1.84047 -0.313597 0
M  V30 22131 C 2069.62 -1.11918 -1.61148 0
M  V30 22132 O 2068.75 -0.381091 -2.13018 0
M  V30 22133 C 2069.34 -3.33872 -0.575755 0
M  V30 22134 C 2067.9 -3.61973 -1.03213 0
M  V30 22135 C 2067.05 -2.77177 -0.0825349 0
M  V30 22136 H 2070 -1.52983 0.422128 0
M  V30 22137 H 2070.02 -3.52823 -1.42466 0
M  V30 22138 H 2069.53 -3.86341 0.369036 0
M  V30 22139 H 2067.63 -3.14939 -1.99108 0
M  V30 22140 H 2067.75 -4.70134 -0.922545 0
M  V30 22141 H 2066.11 -2.4789 -0.585043 0
M  V30 22142 H 2066.89 -3.32437 0.856759 0
M  V30 22143 N 2069.34 0.0751653 -1.57421 0
M  V30 22144 C 2070.25 1.10763 -2.06806 0
M  V30 22145 C 2071.27 1.4261 -0.99691 0
M  V30 22146 O 2072.44 1.52854 -1.31139 0
M  V30 22147 C 2069.51 2.40281 -2.49932 0
M  V30 22148 C 2068.57 2.15435 -3.7133 0
M  V30 22149 C 2067.8 3.38777 -4.1239 0
M  V30 22150 O 2068.02 4.4777 -3.53353 0
M  V30 22151 O 2066.96 3.27189 -5.05204 0
M  V30 22152 H 2070.78 0.718102 -2.95088 0
M  V30 22153 H 2068.37 0.289065 -1.46577 0
M  V30 22154 H 2070.25 3.16509 -2.78208 0
M  V30 22155 H 2068.93 2.7862 -1.64781 0
M  V30 22156 H 2067.83 1.36922 -3.48142 0
M  V30 22157 H 2069.17 1.81978 -4.57324 0
M  V30 22158 N 2070.82 1.53744 0.346476 0
M  V30 22159 C 2072.04 1.75095 1.1116 0
M  V30 22160 C 2072.47 0.487459 1.81674 0
M  V30 22161 O 2071.83 -0.55973 1.72443 0
M  V30 22162 C 2071.87 2.92927 2.103 0
M  V30 22163 O 2070.98 2.62871 3.17762 0
M  V30 22164 H 2070.32 0.580905 0.321629 0
M  V30 22165 H 2072.85 2.00696 0.397762 0
M  V30 22166 H 2072.86 3.19633 2.53572 0
M  V30 22167 H 2071.53 3.84566 1.58372 0
M  V30 22168 H 2070.11 2.47043 2.79328 0
M  V30 22169 N 2072.3 -0.607329 1.45428 0
M  V30 22170 C 2073.57 -1.36669 1.39932 0
M  V30 22171 C 2073.95 -2.10984 0.0700663 0
M  V30 22172 O 2073.3 -2.07907 -0.947984 0
M  V30 22173 C 2073.51 -2.3133 2.61319 0
M  V30 22174 C 2074.86 -2.93928 3.06417 0
M  V30 22175 O 2075.88 -2.4165 2.61694 0
M  V30 22176 O 2074.74 -3.88823 3.8403 0
M  V30 22177 H 2071.84 -0.61283 0.55531 0
M  V30 22178 H 2074.38 -0.630396 1.57557 0
M  V30 22179 H 2073.15 -1.75677 3.49647 0
M  V30 22180 H 2072.78 -3.12338 2.4603 0
M  V30 22181 N 2073.77 -1.32722 -0.849853 0
M  V30 22182 C 2075.02 -1.23556 -1.60437 0
M  V30 22183 C 2075.35 0.201425 -1.93454 0
M  V30 22184 O 2074.6 1.15572 -1.57929 0
M  V30 22185 C 2074.9 -2.04524 -2.93095 0
M  V30 22186 C 2074.57 -3.53833 -2.79487 0
M  V30 22187 C 2073.23 -3.94541 -2.75483 0
M  V30 22188 C 2075.58 -4.48759 -2.65076 0
M  V30 22189 C 2072.91 -5.28409 -2.54953 0
M  V30 22190 C 2075.26 -5.82776 -2.4608 0
M  V30 22191 C 2073.93 -6.2268 -2.40471 0
M  V30 22192 H 2073.2 -0.452123 -0.587082 0
M  V30 22193 H 2075.84 -1.64198 -0.985462 0
M  V30 22194 H 2074.15 -1.56625 -3.59132 0
M  V30 22195 H 2075.85 -1.94797 -3.50507 0
M  V30 22196 H 2072.44 -3.21504 -2.83431 0
M  V30 22197 H 2076.62 -4.18225 -2.6721 0
M  V30 22198 H 2071.88 -5.58376 -2.4905 0
M  V30 22199 H 2076.05 -6.55942 -2.33909 0
M  V30 22200 H 2073.68 -7.26349 -2.24322 0
M  V30 22201 N 2075.25 1.06673 -1.16011 0
M  V30 22202 C 2076.5 1.79046 -0.937394 0
M  V30 22203 C 2076.82 1.87476 0.536438 0
M  V30 22204 O 2076.09 1.38065 1.38977 0
M  V30 22205 H 2074.67 0.663167 -0.343829 0
M  V30 22206 H 2077.33 1.28878 -1.46207 0
M  V30 22207 H 2076.43 2.81259 -1.35278 0
M  V30 22208 N 2076.73 0.957992 1.25141 0
M  V30 22209 C 2078.14 0.65484 1.74839 0
M  V30 22210 C 2078.49 -0.829713 1.77793 0
M  V30 22211 O 2077.62 -1.6493 1.40096 0
M  V30 22212 C 2078.21 1.18197 3.17513 0
M  V30 22213 C 2076.77 0.928917 3.64758 0
M  V30 22214 C 2075.92 1.32303 2.43703 0
M  V30 22215 H 2078.87 1.13442 1.1098 0
M  V30 22216 H 2078.89 0.543641 3.76596 0
M  V30 22217 H 2078.4 2.26246 3.15332 0
M  V30 22218 H 2076.5 -0.136467 3.7235 0
M  V30 22219 H 2076.62 1.56774 4.52724 0
M  V30 22220 H 2074.98 0.741407 2.4367 0
M  V30 22221 H 2075.76 2.41281 2.4421 0
M  V30 22222 N 2078.21 -1.39832 0.726957 0
M  V30 22223 C 2079.46 -2.00277 0.27085 0
M  V30 22224 C 2079.78 -1.57958 -1.14343 0
M  V30 22225 O 2079.05 -0.824155 -1.7772 0
M  V30 22226 H 2077.63 -0.740656 0.0971496 0
M  V30 22227 H 2080.29 -1.71001 0.935123 0
M  V30 22228 H 2079.39 -3.10528 0.312892 0
M  V30 22229 N 2079.69 -0.473982 -1.50304 0
M  V30 22230 C 2080.6 0.323933 -2.32353 0
M  V30 22231 C 2081.61 0.993251 -1.42865 0
M  V30 22232 O 2082.79 0.980589 -1.75916 0
M  V30 22233 C 2079.85 1.38999 -3.17616 0
M  V30 22234 C 2078.91 0.736965 -4.22927 0
M  V30 22235 C 2078.15 1.75223 -5.04116 0
M  V30 22236 O 2078.37 2.97908 -4.86423 0
M  V30 22237 O 2077.3 1.32246 -5.87192 0
M  V30 22238 H 2081.13 -0.346913 -3.01712 0
M  V30 22239 H 2078.72 -0.235777 -1.47528 0
M  V30 22240 H 2080.6 2.00742 -3.70514 0
M  V30 22241 H 2079.27 2.04425 -2.50982 0
M  V30 22242 H 2078.18 0.0805047 -3.74013 0
M  V30 22243 H 2079.51 0.125602 -4.9204 0
M  V30 22244 N 2081.16 1.56239 -0.206702 0
M  V30 22245 C 2082.07 2.2324 0.721172 0
M  V30 22246 C 2083.09 1.2352 1.22552 0
M  V30 22247 O 2084.27 1.56291 1.27025 0
M  V30 22248 C 2081.33 2.88767 1.91871 0
M  V30 22249 C 2080.39 4.03791 1.45779 0
M  V30 22250 C 2079.63 4.66183 2.59825 0
M  V30 22251 O 2079.85 4.27524 3.77597 0
M  V30 22252 O 2078.78 5.55444 2.31874 0
M  V30 22253 H 2082.61 3.03163 0.180488 0
M  V30 22254 H 2080.19 1.49382 0.0231036 0
M  V30 22255 H 2082.08 3.30181 2.61837 0
M  V30 22256 H 2080.75 2.11815 2.44777 0
M  V30 22257 H 2079.66 3.66976 0.726587 0
M  V30 22258 H 2080.99 4.82441 0.975269 0
M  V30 22259 N 2082.64 -0.0668159 1.57458 0
M  V30 22260 C 2083.89 -0.765025 1.87493 0
M  V30 22261 C 2084.22 -1.77326 0.799106 0
M  V30 22262 O 2083.47 -1.9463 -0.204353 0
M  V30 22263 C 2083.77 -1.5042 3.24204 0
M  V30 22264 C 2083.44 -0.635488 4.46399 0
M  V30 22265 C 2082.1 -0.396101 4.79567 0
M  V30 22266 C 2084.45 -0.0334012 5.21189 0
M  V30 22267 C 2081.78 0.454772 5.84935 0
M  V30 22268 C 2084.13 0.804955 6.27458 0
M  V30 22269 C 2082.8 1.05417 6.59123 0
M  V30 22270 H 2082.07 -0.279943 0.686085 0
M  V30 22271 H 2084.71 -0.0256766 1.91483 0
M  V30 22272 H 2083.02 -2.31589 3.16028 0
M  V30 22273 H 2084.71 -2.04932 3.44679 0
M  V30 22274 H 2081.3 -0.832201 4.20443 0
M  V30 22275 H 2085.49 -0.205452 4.95875 0
M  V30 22276 H 2080.74 0.656546 6.07865 0
M  V30 22277 H 2084.92 1.27821 6.84569 0
M  V30 22278 H 2082.55 1.71525 7.40596 0
M  V30 22279 N 2084.12 -1.53926 -0.338317 0
M  V30 22280 C 2085.35 -1.75368 -1.09789 0
M  V30 22281 C 2085.76 -0.495294 -1.82187 0
M  V30 22282 O 2085.12 0.533316 -1.74534 0
M  V30 22283 C 2085.17 -2.93722 -2.10736 0
M  V30 22284 O 2084.89 -4.14695 -1.4128 0
M  V30 22285 C 2086.39 -3.27258 -2.99027 0
M  V30 22286 H 2083.61 -0.585824 -0.327188 0
M  V30 22287 H 2086.16 -2.00767 -0.388932 0
M  V30 22288 H 2084.31 -2.70639 -2.77188 0
M  V30 22289 H 2084.73 -4.81165 -2.08759 0
M  V30 22290 H 2086.2 -4.13409 -3.65783 0
M  V30 22291 H 2086.68 -2.43786 -3.65329 0
M  V30 22292 H 2087.28 -3.52366 -2.38156 0
M  V30 22293 N 2085.6 0.599608 -1.45748 0
M  V30 22294 C 2086.84 1.36961 -1.51727 0
M  V30 22295 C 2087.2 1.91347 -0.158221 0
M  V30 22296 O 2088.4 2.6864 -0.0927187 0
M  V30 22297 C 2086.68 2.48104 -2.57253 0
M  V30 22298 S 2088.23 3.35754 -2.82515 0
M  V30 22299 H 2085.05 0.466839 -0.536267 0
M  V30 22300 H 2087.65 0.691067 -1.82878 0
M  V30 22301 H 2086.36 2.06513 -3.54656 0
M  V30 22302 H 2085.89 3.2075 -2.27778 0
M  V30 22303 H 2087.9 4.46478 -2.165 0
M  V30 22304 N 2087.08 1.33171 0.842803 0
M  V30 22305 C 2088.33 1.24159 1.59464 0
M  V30 22306 C 2088.65 -0.193595 1.94037 0
M  V30 22307 O 2087.92 -1.12135 1.60632 0
M  V30 22308 H 2086.5 0.456555 0.591241 0
M  V30 22309 H 2089.16 1.66842 1.00746 0
M  V30 22310 H 2088.25 1.83255 2.52634 0
M  V30 22311 N 2088.56 -1.06056 1.16576 0
M  V30 22312 C 2089.78 -1.83131 0.973539 0
M  V30 22313 C 2090.21 -1.82047 -0.473358 0
M  V30 22314 O 2089.56 -1.22303 -1.33834 0
M  V30 22315 C 2089.61 -3.2753 1.50852 0
M  V30 22316 O 2088.72 -4.06129 0.716451 0
M  V30 22317 H 2088.06 -0.566557 0.346279 0
M  V30 22318 H 2090.59 -1.33704 1.54869 0
M  V30 22319 H 2090.6 -3.78346 1.52704 0
M  V30 22320 H 2089.27 -3.27634 2.56181 0
M  V30 22321 H 2087.85 -3.64892 0.768639 0
M  V30 22322 N 2090.03 -0.964615 -1.24631 0
M  V30 22323 C 2090.98 -0.484126 -2.27506 0
M  V30 22324 C 2091.98 0.45075 -1.63293 0
M  V30 22325 O 2093.18 0.32638 -1.77016 0
M  V30 22326 H 2089.56 -0.138083 -0.739214 0
M  V30 22327 H 2091.53 -1.36382 -2.6541 0
M  V30 22328 C 2090.28 0.213113 -3.47046 0
M  V30 22329 H 2089.6 -0.497138 -3.96697 0
M  V30 22330 H 2091.04 0.513181 -4.20883 0
M  V30 22331 C 2089.5 1.43904 -3.0462 0
M  V30 22332 O 2090.03 2.53625 -3.11508 0
M  V30 22333 N 2088.23 1.30398 -2.59701 0
M  V30 22334 H 2087.78 0.411244 -2.54296 0
M  V30 22335 H 2087.74 2.12537 -2.3168 0
M  V30 22336 N 2091.51 1.39445 -0.734362 0
M  V30 22337 C 2092.76 2.00526 -0.282025 0
M  V30 22338 C 2093.09 1.58268 1.13055 0
M  V30 22339 O 2092.34 0.802491 1.7849 0
M  V30 22340 C 2092.64 3.55865 -0.330927 0
M  V30 22341 C 2092.31 4.1777 -1.69643 0
M  V30 22342 C 2090.97 4.34393 -2.07017 0
M  V30 22343 C 2093.32 4.52119 -2.59302 0
M  V30 22344 C 2090.65 4.82653 -3.3356 0
M  V30 22345 C 2093 5.01788 -3.85217 0
M  V30 22346 C 2091.66 5.16618 -4.22684 0
M  V30 22347 H 2090.93 0.733778 -0.1032 0
M  V30 22348 H 2093.58 1.66781 -0.94108 0
M  V30 22349 H 2091.89 3.89631 0.411703 0
M  V30 22350 H 2093.58 4.00983 0.0371893 0
M  V30 22351 H 2090.17 4.05233 -1.39584 0
M  V30 22352 H 2094.36 4.38896 -2.31698 0
M  V30 22353 H 2089.61 4.9232 -3.62534 0
M  V30 22354 H 2093.79 5.27339 -4.54848 0
M  V30 22355 H 2091.41 5.53775 -5.20805 0
M  V30 22356 N 2092.99 0.481946 1.5005 0
M  V30 22357 C 2093.95 -0.295344 2.27289 0
M  V30 22358 C 2094.95 -0.910886 1.32512 0
M  V30 22359 O 2096.14 -0.778377 1.55843 0
M  V30 22360 C 2093.27 -1.42179 3.09835 0
M  V30 22361 H 2094.47 0.382176 2.97455 0
M  V30 22362 H 2092.02 0.236325 1.54503 0
M  V30 22363 H 2092.76 -2.13404 2.44191 0
M  V30 22364 H 2092.54 -0.986087 3.79498 0
M  V30 22365 H 2094.03 -1.96982 3.68223 0
M  V30 22366 N 2094.47 -1.56127 0.214985 0
M  V30 22367 C 2095.72 -1.97304 -0.41881 0
M  V30 22368 C 2096.03 -1.10547 -1.61366 0
M  V30 22369 O 2097.24 -1.41593 -2.31654 0
M  V30 22370 C 2095.69 -3.50975 -0.796509 0
M  V30 22371 C 2095.3 -4.46426 0.375156 0
M  V30 22372 C 2097.04 -4.0088 -1.39627 0
M  V30 22373 C 2094.95 -5.91395 -0.0246118 0
M  V30 22374 H 2093.88 -0.736775 -0.160246 0
M  V30 22375 H 2096.53 -1.8086 0.310157 0
M  V30 22376 H 2094.91 -3.62996 -1.58271 0
M  V30 22377 H 2096.09 -4.46149 1.15271 0
M  V30 22378 H 2094.4 -4.06827 0.887721 0
M  V30 22379 H 2097 -5.06681 -1.70816 0
M  V30 22380 H 2097.34 -3.46346 -2.30977 0
M  V30 22381 H 2097.88 -3.92055 -0.673641 0
M  V30 22382 H 2094.61 -6.49897 0.855201 0
M  V30 22383 H 2094.13 -5.94881 -0.766611 0
M  V30 22384 H 2095.81 -6.45408 -0.453573 0
M  V30 22385 N 2095.95 0.0584645 -1.57492 0
M  V30 22386 C 2096.91 1.05251 -2.03605 0
M  V30 22387 C 2097.91 1.30807 -0.935209 0
M  V30 22388 O 2099.1 1.26304 -1.19971 0
M  V30 22389 C 2096.23 2.39288 -2.42804 0
M  V30 22390 H 2097.42 0.654779 -2.92665 0
M  V30 22391 H 2094.98 0.304552 -1.53304 0
M  V30 22392 H 2095.71 2.83868 -1.56811 0
M  V30 22393 H 2095.5 2.22077 -3.23147 0
M  V30 22394 H 2096.99 3.10713 -2.79011 0
M  V30 22395 N 2097.42 1.54103 0.330149 0
M  V30 22396 C 2098.65 1.75693 1.08699 0
M  V30 22397 C 2099.06 0.502371 1.82409 0
M  V30 22398 O 2098.4 -0.53629 1.75698 0
M  V30 22399 C 2098.47 2.89199 2.13551 0
M  V30 22400 C 2098.13 4.28338 1.59298 0
M  V30 22401 C 2099.13 5.09428 1.03823 0
M  V30 22402 C 2096.81 4.74863 1.6374 0
M  V30 22403 C 2098.81 6.3515 0.535098 0
M  V30 22404 C 2096.49 6.00554 1.1304 0
M  V30 22405 C 2097.49 6.80531 0.580184 0
M  V30 22406 O 2097.18 8.03859 0.0807823 0
M  V30 22407 H 2096.91 0.590289 0.329447 0
M  V30 22408 H 2099.47 2.01779 0.38398 0
M  V30 22409 H 2097.7 2.58669 2.87449 0
M  V30 22410 H 2099.38 2.98634 2.74905 0
M  V30 22411 H 2100.15 4.74641 0.997028 0
M  V30 22412 H 2096.03 4.1266 2.05506 0
M  V30 22413 H 2099.57 6.97521 0.104978 0
M  V30 22414 H 2095.47 6.34833 1.16865 0
M  V30 22415 H 2096.24 8.18263 0.196822 0
M  V30 22416 N 2098.9 -0.59187 1.46064 0
M  V30 22417 C 2100.15 -1.3504 1.50899 0
M  V30 22418 C 2100.48 -1.93865 0.156992 0
M  V30 22419 O 2099.73 -1.76455 -0.846284 0
M  V30 22420 C 2100.03 -2.50587 2.54835 0
M  V30 22421 C 2099.7 -2.09811 3.99111 0
M  V30 22422 C 2098.36 -1.98406 4.38393 0
M  V30 22423 C 2100.71 -1.78225 4.89781 0
M  V30 22424 C 2098.04 -1.53658 5.66221 0
M  V30 22425 C 2100.39 -1.34959 6.18036 0
M  V30 22426 C 2099.06 -1.22123 6.56233 0
M  V30 22427 H 2098.33 -0.494146 0.552178 0
M  V30 22428 H 2100.97 -0.667418 1.79493 0
M  V30 22429 H 2099.28 -3.24292 2.19868 0
M  V30 22430 H 2100.97 -3.08809 2.55809 0
M  V30 22431 H 2097.56 -2.1962 3.68056 0
M  V30 22432 H 2101.75 -1.85927 4.60158 0
M  V30 22433 H 2097 -1.42356 5.94596 0
M  V30 22434 H 2101.18 -1.09569 6.87726 0
M  V30 22435 H 2098.81 -0.872249 7.55179 0
M  V30 22436 N 2100.38 -1.33616 -0.835729 0
M  V30 22437 C 2101.63 -1.24597 -1.58614 0
M  V30 22438 C 2101.94 0.185813 -1.94715 0
M  V30 22439 O 2103.15 0.398045 -2.68566 0
M  V30 22440 C 2101.6 -2.18339 -2.86105 0
M  V30 22441 C 2101.21 -3.66705 -2.57355 0
M  V30 22442 C 2102.96 -2.182 -3.64128 0
M  V30 22443 C 2100.86 -4.52352 -3.80962 0
M  V30 22444 H 2099.79 -0.462802 -0.595256 0
M  V30 22445 H 2102.44 -1.58701 -0.921212 0
M  V30 22446 H 2100.83 -1.77172 -3.54156 0
M  V30 22447 H 2102 -4.16331 -1.97496 0
M  V30 22448 H 2100.32 -3.69164 -1.92631 0
M  V30 22449 H 2102.91 -2.79417 -4.55884 0
M  V30 22450 H 2103.26 -1.17789 -3.99289 0
M  V30 22451 H 2103.79 -2.57745 -3.03005 0
M  V30 22452 H 2100.53 -5.5365 -3.5093 0
M  V30 22453 H 2100.05 -4.07467 -4.40149 0
M  V30 22454 H 2101.73 -4.66315 -4.48508 0
M  V30 22455 N 2101.86 1.05436 -1.17136 0
M  V30 22456 C 2103.08 1.82612 -0.983237 0
M  V30 22457 C 2103.51 1.82295 0.463697 0
M  V30 22458 O 2102.87 1.23011 1.33184 0
M  V30 22459 C 2102.91 3.26726 -1.52587 0
M  V30 22460 O 2102.02 4.05743 -0.737979 0
M  V30 22461 H 2101.36 0.564713 -0.349279 0
M  V30 22462 H 2103.89 1.3288 -1.55576 0
M  V30 22463 H 2103.9 3.77531 -1.54708 0
M  V30 22464 H 2102.57 3.26271 -2.57915 0
M  V30 22465 H 2101.15 3.64479 -0.78798 0
M  V30 22466 N 2103.34 0.971211 1.24118 0
M  V30 22467 C 2104.58 0.635022 1.92286 0
M  V30 22468 C 2104.91 -0.83026 1.75889 0
M  V30 22469 O 2104.17 -1.61322 1.10786 0
M  V30 22470 C 2104.47 0.960091 3.44263 0
M  V30 22471 C 2104.13 2.41409 3.80832 0
M  V30 22472 C 2102.79 2.81148 3.90524 0
M  V30 22473 C 2105.15 3.35755 3.98645 0
M  V30 22474 C 2102.47 4.14268 4.15451 0
M  V30 22475 C 2104.83 4.68508 4.25069 0
M  V30 22476 C 2103.49 5.08019 4.32981 0
M  V30 22477 H 2102.76 0.232371 0.703623 0
M  V30 22478 H 2105.41 1.22335 1.47331 0
M  V30 22479 H 2103.71 0.289561 3.90729 0
M  V30 22480 H 2105.41 0.678313 3.95221 0
M  V30 22481 H 2102 2.09597 3.73855 0
M  V30 22482 H 2106.18 3.06236 3.90555 0
M  V30 22483 H 2101.44 4.445 4.19797 0
M  V30 22484 H 2105.61 5.41579 4.37796 0
M  V30 22485 H 2103.24 6.11192 4.52049 0
M  V30 22486 N 2104.81 -1.39054 0.741747 0
M  V30 22487 C 2106.06 -2.00374 0.292655 0
M  V30 22488 C 2106.39 -1.58866 -1.12214 0
M  V30 22489 O 2105.64 -0.811946 -1.78062 0
M  V30 22490 C 2105.94 -3.55684 0.349795 0
M  V30 22491 C 2105.61 -4.16865 1.71856 0
M  V30 22492 C 2104.27 -4.33289 2.09318 0
M  V30 22493 C 2106.62 -4.50738 2.61696 0
M  V30 22494 C 2103.95 -4.80878 3.36115 0
M  V30 22495 C 2106.3 -4.99738 3.87872 0
M  V30 22496 C 2104.97 -5.14369 4.25418 0
M  V30 22497 H 2104.24 -0.733221 0.10709 0
M  V30 22498 H 2106.88 -1.6628 0.949911 0
M  V30 22499 H 2105.19 -3.89844 -0.391034 0
M  V30 22500 H 2106.89 -4.00997 -0.0159237 0
M  V30 22501 H 2103.48 -4.04488 1.41731 0
M  V30 22502 H 2107.66 -4.37661 2.34022 0
M  V30 22503 H 2102.92 -4.90391 3.6514 0
M  V30 22504 H 2107.09 -5.24919 4.57638 0
M  V30 22505 H 2104.72 -5.51005 5.23734 0
M  V30 22506 N 2106.29 -0.489897 -1.49792 0
M  V30 22507 C 2107.23 0.340825 -2.2564 0
M  V30 22508 C 2108.2 0.980035 -1.29746 0
M  V30 22509 O 2109.39 1.01231 -1.59011 0
M  V30 22510 C 2106.51 1.47906 -3.04699 0
M  V30 22511 C 2105.56 0.955351 -4.15662 0
M  V30 22512 S 2106.39 -0.145024 -5.35304 0
M  V30 22513 C 2107.55 0.996645 -6.17914 0
M  V30 22514 H 2107.78 -0.302973 -2.95752 0
M  V30 22515 H 2105.32 -0.275032 -1.51931 0
M  V30 22516 H 2107.27 2.13132 -3.50835 0
M  V30 22517 H 2105.93 2.09444 -2.34077 0
M  V30 22518 H 2105.13 1.80804 -4.70453 0
M  V30 22519 H 2104.73 0.380501 -3.72059 0
M  V30 22520 H 2107.02 1.90429 -6.50187 0
M  V30 22521 H 2107.96 0.487599 -7.06419 0
M  V30 22522 H 2108.37 1.25897 -5.50282 0
M  V30 22523 N 2107.77 1.56011 -0.223262 0
M  V30 22524 C 2108.7 2.23355 0.680795 0
M  V30 22525 C 2109.68 1.20584 1.19973 0
M  V30 22526 O 2110.87 1.49174 1.24342 0
M  V30 22527 C 2108 2.91478 1.88833 0
M  V30 22528 C 2106.95 4.00736 1.50316 0
M  V30 22529 C 2106.28 4.56164 2.7896 0
M  V30 22530 C 2107.58 5.17697 0.69188 0
M  V30 22531 H 2109.27 2.99162 0.119304 0
M  V30 22532 H 2106.82 1.43891 0.055942 0
M  V30 22533 H 2108.77 3.37282 2.52623 0
M  V30 22534 H 2107.49 2.13121 2.47481 0
M  V30 22535 H 2106.15 3.55665 0.888708 0
M  V30 22536 H 2105.8 3.74535 3.35757 0
M  V30 22537 H 2105.5 5.29903 2.53922 0
M  V30 22538 H 2107.02 5.04687 3.43691 0
M  V30 22539 H 2108.44 5.59872 1.23353 0
M  V30 22540 H 2106.84 5.97679 0.538515 0
M  V30 22541 H 2107.91 4.83964 -0.301131 0
M  V30 22542 N 2109.25 -0.0501116 1.5752 0
M  V30 22543 C 2110.49 -0.750186 1.90136 0
M  V30 22544 C 2110.85 -1.73631 0.819531 0
M  V30 22545 O 2112.05 -2.48308 1.02939 0
M  V30 22546 C 2110.32 -1.4207 3.27949 0
M  V30 22547 S 2111.88 -2.15284 3.82359 0
M  V30 22548 H 2108.7 -0.249004 0.665972 0
M  V30 22549 H 2111.3 -0.00547796 1.95499 0
M  V30 22550 H 2110.01 -0.689478 4.04567 0
M  V30 22551 H 2109.54 -2.2044 3.25837 0
M  V30 22552 H 2111.55 -3.42131 3.59389 0
M  V30 22553 N 2110.73 -1.54276 -0.321972 0
M  V30 22554 C 2111.69 -1.83051 -1.37931 0
M  V30 22555 C 2112.69 -0.702392 -1.44648 0
M  V30 22556 O 2113.88 -0.970701 -1.44648 0
M  V30 22557 C 2111.01 -1.99197 -2.76647 0
M  V30 22558 H 2112.2 -2.77523 -1.1367 0
M  V30 22559 H 2109.76 -1.46018 -0.55754 0
M  V30 22560 H 2110.49 -1.06942 -3.0616 0
M  V30 22561 H 2110.28 -2.81289 -2.73164 0
M  V30 22562 H 2111.77 -2.22902 -3.53135 0
M  V30 22563 N 2112.2 0.584116 -1.46376 0
M  V30 22564 C 2113.45 1.34238 -1.51613 0
M  V30 22565 C 2113.78 1.93779 -0.167271 0
M  V30 22566 O 2113.03 1.76902 0.836914 0
M  V30 22567 C 2113.33 2.49232 -2.56161 0
M  V30 22568 C 2113 2.07692 -4.00219 0
M  V30 22569 C 2111.66 1.96078 -4.39439 0
M  V30 22570 C 2114.01 1.75625 -4.90719 0
M  V30 22571 C 2111.34 1.50653 -5.67028 0
M  V30 22572 C 2113.69 1.3168 -6.18743 0
M  V30 22573 C 2112.36 1.18641 -6.56872 0
M  V30 22574 H 2111.63 0.491211 -0.554791 0
M  V30 22575 H 2114.27 0.657889 -1.79845 0
M  V30 22576 H 2112.58 3.23121 -2.21585 0
M  V30 22577 H 2114.28 3.07448 -2.57443 0
M  V30 22578 H 2110.87 2.17665 -3.69215 0
M  V30 22579 H 2115.05 1.83484 -4.61137 0
M  V30 22580 H 2110.31 1.39201 -5.95343 0
M  V30 22581 H 2114.48 1.0592 -6.88298 0
M  V30 22582 H 2112.11 0.832188 -7.55631 0
M  V30 22583 N 2113.68 1.34058 0.828631 0
M  V30 22584 C 2114.61 1.278 1.95421 0
M  V30 22585 C 2115.59 0.156548 1.69378 0
M  V30 22586 O 2116.78 0.347987 1.91057 0
M  V30 22587 C 2113.91 1.02688 3.31772 0
M  V30 22588 C 2112.86 2.11238 3.7224 0
M  V30 22589 C 2112.19 1.71324 5.0651 0
M  V30 22590 C 2113.49 3.53014 3.84939 0
M  V30 22591 H 2115.18 2.21977 2.00914 0
M  V30 22592 H 2112.73 1.06859 0.965253 0
M  V30 22593 H 2114.68 0.969571 4.10094 0
M  V30 22594 H 2113.41 0.0495214 3.26562 0
M  V30 22595 H 2112.07 2.16029 2.96188 0
M  V30 22596 H 2111.71 0.722632 4.97782 0
M  V30 22597 H 2111.41 2.43972 5.34557 0
M  V30 22598 H 2112.94 1.67077 5.87297 0
M  V30 22599 H 2114.35 3.50667 4.53547 0
M  V30 22600 H 2112.75 4.24235 4.24434 0
M  V30 22601 H 2113.82 3.90772 2.87098 0
M  V30 22602 N 2115.16 -1.04814 1.17694 0
M  V30 22603 C 2116.41 -1.77277 0.962076 0
M  V30 22604 C 2116.72 -1.88834 -0.509992 0
M  V30 22605 O 2117.93 -2.58075 -0.843166 0
M  V30 22606 C 2116.39 -3.18693 1.67221 0
M  V30 22607 C 2115.99 -3.15253 3.18308 0
M  V30 22608 C 2117.74 -3.95585 1.53988 0
M  V30 22609 C 2115.64 -4.51481 3.81993 0
M  V30 22610 H 2114.57 -0.66449 0.356328 0
M  V30 22611 H 2117.23 -1.17451 1.40988 0
M  V30 22612 H 2115.61 -3.78868 1.15216 0
M  V30 22613 H 2116.78 -2.64573 3.77277 0
M  V30 22614 H 2115.1 -2.51859 3.31596 0
M  V30 22615 H 2117.69 -4.96315 1.98937 0
M  V30 22616 H 2118.04 -4.13394 0.491003 0
M  V30 22617 H 2118.57 -3.41967 2.03232 0
M  V30 22618 H 2115.31 -4.38877 4.86895 0
M  V30 22619 H 2114.83 -5.02295 3.27811 0
M  V30 22620 H 2116.51 -5.20413 3.84421 0
M  V30 22621 N 2116.64 -0.977779 -1.23601 0
M  V30 22622 C 2117.89 -0.640749 -1.91252 0
M  V30 22623 C 2118.2 0.829108 -1.77159 0
M  V30 22624 O 2119.41 1.27709 -2.39589 0
M  V30 22625 C 2117.86 -1.09542 -3.42824 0
M  V30 22626 C 2117.47 -2.58944 -3.65584 0
M  V30 22627 C 2119.22 -0.832015 -4.16266 0
M  V30 22628 C 2117.12 -2.98092 -5.10779 0
M  V30 22629 H 2116.05 -0.235949 -0.716131 0
M  V30 22630 H 2118.7 -1.18533 -1.40079 0
M  V30 22631 H 2117.09 -0.479076 -3.93091 0
M  V30 22632 H 2118.26 -3.25795 -3.25875 0
M  V30 22633 H 2116.57 -2.83003 -3.05447 0
M  V30 22634 H 2119.17 -1.10039 -5.23255 0
M  V30 22635 H 2119.51 0.231859 -4.15654 0
M  V30 22636 H 2120.05 -1.40982 -3.7198 0
M  V30 22637 H 2116.79 -4.03592 -5.16521 0
M  V30 22638 H 2116.31 -2.35933 -5.51449 0
M  V30 22639 H 2117.99 -2.88553 -5.79091 0
M  V30 22640 N 2118.12 1.38658 -0.749111 0
M  V30 22641 C 2119.07 2.3235 -0.10773 0
M  V30 22642 C 2120.06 1.5379 0.710284 0
M  V30 22643 O 2121.27 1.69353 0.609885 0
M  V30 22644 H 2117.64 0.751829 -0.0160406 0
M  V30 22645 H 2119.61 2.84055 -0.91408 0
M  V30 22646 C 2118.36 3.38962 0.774615 0
M  V30 22647 H 2117.68 3.99501 0.154555 0
M  V30 22648 H 2119.12 4.06936 1.19076 0
M  V30 22649 C 2117.58 2.77165 1.91524 0
M  V30 22650 O 2118.11 2.66119 3.00904 0
M  V30 22651 N 2116.32 2.35041 1.70892 0
M  V30 22652 H 2115.87 2.44224 0.819286 0
M  V30 22653 H 2115.82 1.94035 2.47382 0
M  V30 22654 N 2119.6 0.497834 1.49531 0
M  V30 22655 C 2120.53 -0.271671 2.31914 0
M  V30 22656 C 2121.51 -0.965521 1.40042 0
M  V30 22657 O 2122.69 -0.957536 1.68952 0
M  V30 22658 C 2119.82 -1.3384 3.20475 0
M  V30 22659 C 2118.78 -0.76461 4.21115 0
M  V30 22660 C 2118.1 -1.93162 4.98591 0
M  V30 22661 C 2119.4 0.242201 5.21738 0
M  V30 22662 H 2121.1 0.415979 2.96496 0
M  V30 22663 H 2118.64 0.201496 1.42583 0
M  V30 22664 H 2120.59 -1.88442 3.76918 0
M  V30 22665 H 2119.32 -2.05519 2.5383 0
M  V30 22666 H 2117.98 -0.240359 3.65811 0
M  V30 22667 H 2117.63 -2.63602 4.28396 0
M  V30 22668 H 2117.33 -1.55378 5.66685 0
M  V30 22669 H 2118.85 -2.48204 5.57877 0
M  V30 22670 H 2120.26 -0.215575 5.72895 0
M  V30 22671 H 2118.66 0.535707 5.97704 0
M  V30 22672 H 2119.73 1.15916 4.70841 0
M  V30 22673 N 2121.07 -1.5589 0.231532 0
M  V30 22674 C 2122.32 -1.98561 -0.397452 0
M  V30 22675 C 2122.65 -1.11939 -1.5906 0
M  V30 22676 O 2121.9 -0.166615 -1.94989 0
M  V30 22677 C 2122.2 -3.46766 -0.865354 0
M  V30 22678 C 2121.87 -4.50371 0.218353 0
M  V30 22679 C 2120.53 -4.78425 0.516031 0
M  V30 22680 C 2122.88 -5.12455 0.950761 0
M  V30 22681 C 2120.21 -5.65842 1.55046 0
M  V30 22682 C 2122.56 -6.00993 1.9746 0
M  V30 22683 C 2121.23 -6.27386 2.27909 0
M  V30 22684 H 2120.5 -0.726587 -0.145438 0
M  V30 22685 H 2123.14 -1.88527 0.336141 0
M  V30 22686 H 2121.45 -3.54054 -1.67788 0
M  V30 22687 H 2123.15 -3.7716 -1.36204 0
M  V30 22688 H 2119.74 -4.28593 -0.023809 0
M  V30 22689 H 2123.92 -4.90842 0.734029 0
M  V30 22690 H 2119.18 -5.84552 1.79188 0
M  V30 22691 H 2123.35 -6.48147 2.54712 0
M  V30 22692 H 2120.98 -6.9492 3.08205 0
M  V30 22693 N 2122.55 0.0417572 -1.57545 0
M  V30 22694 C 2123.8 0.736189 -1.88966 0
M  V30 22695 C 2124.13 1.75678 -0.827697 0
M  V30 22696 O 2123.41 1.93851 0.158734 0
M  V30 22697 C 2123.69 1.4172 -3.3104 0
M  V30 22698 C 2123.54 0.410987 -4.47918 0
M  V30 22699 C 2124.86 2.3545 -3.71822 0
M  V30 22700 H 2121.98 0.266166 -0.687259 0
M  V30 22701 H 2124.62 -0.000952352 -1.9 0
M  V30 22702 H 2122.77 2.04552 -3.30289 0
M  V30 22703 H 2124.44 -0.214433 -4.60801 0
M  V30 22704 H 2122.69 -0.270954 -4.32953 0
M  V30 22705 H 2123.36 0.925718 -5.44182 0
M  V30 22706 H 2125.83 1.82673 -3.73858 0
M  V30 22707 H 2124.71 2.80087 -4.72062 0
M  V30 22708 H 2124.97 3.21575 -3.03384 0
M  V30 22709 N 2124.03 1.54445 0.313786 0
M  V30 22710 C 2124.99 1.8378 1.36959 0
M  V30 22711 C 2125.99 0.710053 1.44274 0
M  V30 22712 O 2127.18 0.978359 1.44131 0
M  V30 22713 C 2124.31 2.00661 2.75586 0
M  V30 22714 H 2125.51 2.78122 1.12197 0
M  V30 22715 H 2123.06 1.46311 0.549789 0
M  V30 22716 H 2123.8 1.08564 3.05589 0
M  V30 22717 H 2123.58 2.82734 2.71669 0
M  V30 22718 H 2125.07 2.24771 3.51948 0
M  V30 22719 N 2125.51 -0.576345 1.46683 0
M  V30 22720 C 2126.75 -1.3363 1.52548 0
M  V30 22721 C 2127.09 -1.93371 0.179205 0
M  V30 22722 O 2126.36 -1.76827 -0.810088 0
M  V30 22723 C 2126.64 -2.46086 2.62895 0
M  V30 22724 C 2126.5 -1.91338 4.07075 0
M  V30 22725 C 2127.82 -3.48104 2.6928 0
M  V30 22726 H 2124.94 -0.484517 0.555349 0
M  V30 22727 H 2127.58 -0.646838 1.78651 0
M  V30 22728 H 2125.73 -3.04898 2.40769 0
M  V30 22729 H 2127.4 -1.36934 4.40507 0
M  V30 22730 H 2125.64 -1.22127 4.16254 0
M  V30 22731 H 2126.31 -2.72545 4.80024 0
M  V30 22732 H 2128.79 -2.99183 2.89187 0
M  V30 22733 H 2127.67 -4.2424 3.48298 0
M  V30 22734 H 2127.93 -4.05739 1.7558 0
M  V30 22735 N 2126.99 -1.34495 -0.82151 0
M  V30 22736 C 2128.23 -1.26273 -1.57284 0
M  V30 22737 C 2128.55 0.165151 -1.94902 0
M  V30 22738 O 2129.75 0.369538 -2.68973 0
M  V30 22739 C 2128.21 -2.21361 -2.83773 0
M  V30 22740 C 2127.82 -3.69414 -2.53451 0
M  V30 22741 C 2129.56 -2.2205 -3.61793 0
M  V30 22742 C 2127.47 -4.56367 -3.76142 0
M  V30 22743 H 2126.4 -0.46909 -0.590314 0
M  V30 22744 H 2129.05 -1.59669 -0.904328 0
M  V30 22745 H 2127.43 -1.80918 -3.52256 0
M  V30 22746 H 2128.61 -4.18403 -1.93069 0
M  V30 22747 H 2126.92 -3.71187 -1.88704 0
M  V30 22748 H 2129.52 -2.84237 -4.52895 0
M  V30 22749 H 2129.86 -1.22017 -3.98017 0
M  V30 22750 H 2130.39 -2.60945 -3.00254 0
M  V30 22751 H 2127.13 -5.57341 -3.45038 0
M  V30 22752 H 2126.65 -4.12112 -4.35802 0
M  V30 22753 H 2128.33 -4.71045 -4.43537 0
M  V30 22754 N 2128.46 1.04188 -1.18248 0
M  V30 22755 C 2129.4 2.11707 -0.851784 0
M  V30 22756 C 2130.38 1.61536 0.185734 0
M  V30 22757 O 2131.56 1.88388 0.0649765 0
M  V30 22758 C 2128.69 3.37603 -0.272436 0
M  V30 22759 C 2127.73 4.0662 -1.28694 0
M  V30 22760 S 2128.57 4.53841 -2.84234 0
M  V30 22761 C 2129.72 5.82971 -2.27807 0
M  V30 22762 H 2129.95 2.39432 -1.76237 0
M  V30 22763 H 2127.49 1.16938 -1.00821 0
M  V30 22764 H 2129.45 4.10463 0.0553219 0
M  V30 22765 H 2128.11 3.07995 0.616252 0
M  V30 22766 H 2127.3 4.97111 -0.830431 0
M  V30 22767 H 2126.9 3.39872 -1.56087 0
M  V30 22768 H 2129.19 6.56851 -1.6599 0
M  V30 22769 H 2130.14 6.33383 -3.16593 0
M  V30 22770 H 2130.54 5.38017 -1.70873 0
M  V30 22771 N 2129.94 0.98432 1.23081 0
M  V30 22772 C 2131.22 0.571642 1.8706 0
M  V30 22773 C 2131.6 -0.951185 1.88456 0
M  V30 22774 O 2130.95 -1.82954 1.36894 0
M  V30 22775 C 2131.16 1.18221 3.28367 0
M  V30 22776 C 2132.51 1.27739 4.04929 0
M  V30 22777 O 2133.53 1.13596 3.37601 0
M  V30 22778 O 2132.39 1.50282 5.25431 0
M  V30 22779 H 2129.48 0.193027 0.804158 0
M  V30 22780 H 2132.03 1.07965 1.30926 0
M  V30 22781 H 2130.8 2.22421 3.21939 0
M  V30 22782 H 2130.42 0.65926 3.92096 0
M  V30 22783 N 2131.42 -1.38259 0.756453 0
M  V30 22784 C 2132.37 -2.3229 0.120051 0
M  V30 22785 C 2133.36 -1.54164 -0.702119 0
M  V30 22786 O 2134.57 -1.69674 -0.600895 0
M  V30 22787 H 2130.94 -0.751733 0.0200275 0
M  V30 22788 H 2132.91 -2.83566 0.929131 0
M  V30 22789 C 2131.66 -3.39368 -0.756628 0
M  V30 22790 H 2130.99 -3.99577 -0.133366 0
M  V30 22791 H 2132.43 -4.07562 -1.16916 0
M  V30 22792 C 2130.89 -2.78176 -1.90051 0
M  V30 22793 O 2131.42 -2.67711 -2.99489 0
M  V30 22794 N 2129.62 -2.35944 -1.69644 0
M  V30 22795 H 2129.17 -2.44655 -0.806323 0
M  V30 22796 H 2129.13 -1.95344 -2.46349 0
M  V30 22797 N 2132.9 -0.505757 -1.49264 0
M  V30 22798 C 2134.15 0.0370719 -2.02466 0
M  V30 22799 C 2134.47 1.36554 -1.38504 0
M  V30 22800 O 2133.73 1.88895 -0.51159 0
M  V30 22801 C 2134.03 0.233245 -3.56638 0
M  V30 22802 C 2133.69 -1.01781 -4.39262 0
M  V30 22803 C 2132.36 -1.36074 -4.6156 0
M  V30 22804 C 2134.71 -1.84918 -4.87293 0
M  V30 22805 C 2132.04 -2.53445 -5.29134 0
M  V30 22806 C 2134.39 -3.01446 -5.56159 0
M  V30 22807 C 2133.05 -3.36113 -5.76701 0
M  V30 22808 H 2132.32 0.0135656 -0.740876 0
M  V30 22809 H 2134.97 -0.666878 -1.79513 0
M  V30 22810 H 2133.27 1.01976 -3.78296 0
M  V30 22811 H 2134.97 0.66778 -3.95401 0
M  V30 22812 H 2131.56 -0.740706 -4.22151 0
M  V30 22813 H 2135.74 -1.59738 -4.69891 0
M  V30 22814 H 2131 -2.80536 -5.4324 0
M  V30 22815 H 2135.17 -3.66189 -5.9235 0
M  V30 22816 H 2132.8 -4.27163 -6.28837 0
M  V30 22817 N 2134.38 1.55765 -0.239796 0
M  V30 22818 C 2135.65 1.90659 0.436876 0
M  V30 22819 C 2136.03 1.1596 1.76398 0
M  V30 22820 O 2135.38 0.274778 2.26842 0
M  V30 22821 C 2135.59 3.43593 0.611939 0
M  V30 22822 C 2136.94 4.1471 0.911065 0
M  V30 22823 O 2137.96 3.49293 0.698064 0
M  V30 22824 O 2136.82 5.30411 1.3163 0
M  V30 22825 H 2133.92 0.793348 0.233511 0
M  V30 22826 H 2136.46 1.67318 -0.283335 0
M  V30 22827 H 2135.23 3.89961 -0.323424 0
M  V30 22828 H 2134.86 3.72773 1.38296 0
M  V30 22829 N 2135.85 -0.0334016 1.57565 0
M  V30 22830 C 2137.08 -0.735904 1.93049 0
M  V30 22831 C 2137.49 -1.6965 0.837577 0
M  V30 22832 O 2136.84 -1.82661 -0.195087 0
M  V30 22833 C 2136.9 -1.55137 3.24303 0
M  V30 22834 C 2136.56 -0.756022 4.50703 0
M  V30 22835 C 2137.56 -0.0582042 5.19867 0
M  V30 22836 C 2135.24 -0.711843 4.9723 0
M  V30 22837 C 2137.24 0.67314 6.33836 0
M  V30 22838 C 2134.92 0.0232493 6.11096 0
M  V30 22839 C 2135.92 0.714505 6.79252 0
M  V30 22840 O 2135.61 1.43767 7.9094 0
M  V30 22841 H 2135.34 -0.212131 0.641854 0
M  V30 22842 H 2137.9 0.00370645 2.054 0
M  V30 22843 H 2136.13 -2.3347 3.08267 0
M  V30 22844 H 2137.82 -2.13609 3.45147 0
M  V30 22845 H 2138.58 -0.083394 4.84928 0
M  V30 22846 H 2134.46 -1.23938 4.44027 0
M  V30 22847 H 2138 1.21324 6.86969 0
M  V30 22848 H 2133.9 0.0503776 6.4548 0
M  V30 22849 H 2134.67 1.3509 8.07275 0
M  V30 22850 N 2137.33 -1.54609 -0.305591 0
M  V30 22851 C 2138.26 -1.88242 -1.38157 0
M  V30 22852 C 2139.24 -0.740883 -1.53117 0
M  V30 22853 O 2140.43 -0.996214 -1.66701 0
M  V30 22854 C 2137.56 -2.12567 -2.7465 0
M  V30 22855 C 2136.51 -3.28415 -2.74459 0
M  V30 22856 C 2135.84 -3.38148 -4.14198 0
M  V30 22857 C 2137.14 -4.65633 -2.36607 0
M  V30 22858 H 2138.83 -2.78359 -1.10258 0
M  V30 22859 H 2136.38 -1.33933 -0.528959 0
M  V30 22860 H 2138.33 -2.34681 -3.50004 0
M  V30 22861 H 2137.06 -1.19216 -3.04064 0
M  V30 22862 H 2135.71 -3.06217 -2.01561 0
M  V30 22863 H 2135.36 -2.42323 -4.40782 0
M  V30 22864 H 2135.06 -4.16019 -4.14973 0
M  V30 22865 H 2136.59 -3.62517 -4.91339 0
M  V30 22866 H 2138 -4.87508 -3.01677 0
M  V30 22867 H 2136.4 -5.46184 -2.48603 0
M  V30 22868 H 2137.47 -4.66662 -1.31738 0
M  V30 22869 N 2138.81 0.568558 -1.46987 0
M  V30 22870 C 2140.04 1.35191 -1.56624 0
M  V30 22871 C 2140.45 1.87602 -0.212353 0
M  V30 22872 O 2139.81 1.64388 0.792639 0
M  V30 22873 C 2139.86 2.52969 -2.58242 0
M  V30 22874 O 2139.58 2.02726 -3.88373 0
M  V30 22875 C 2141.08 3.45334 -2.77955 0
M  V30 22876 H 2138.3 0.412505 -0.529227 0
M  V30 22877 H 2140.85 0.689847 -1.92513 0
M  V30 22878 H 2139 3.15136 -2.25318 0
M  V30 22879 H 2139.42 2.79532 -4.43804 0
M  V30 22880 H 2140.89 4.2442 -3.52947 0
M  V30 22881 H 2141.37 3.98165 -1.85368 0
M  V30 22882 H 2141.97 2.88992 -3.12032 0
M  V30 22883 N 2140.29 1.34929 0.814366 0
M  V30 22884 C 2141.7 1.14798 1.10877 0
M  V30 22885 C 2141.9 -0.0447901 2.0145 0
M  V30 22886 O 2140.96 -0.717746 2.42084 0
M  V30 22887 C 2142.27 2.44729 1.74724 0
M  V30 22888 C 2143.82 2.50864 1.8718 0
M  V30 22889 C 2144.3 3.80819 2.54443 0
M  V30 22890 N 2145.79 3.82027 2.61935 0
M  V30 22891 C 2146.52 4.79305 3.14729 0
M  V30 22892 N 2146.02 5.86969 3.68021 0
M  V30 22893 N 2147.81 4.6675 3.1321 0
M  V30 22894 H 2139.96 2.11338 0.212102 0
M  V30 22895 H 2142.23 0.934964 0.156671 0
M  V30 22896 H 2141.93 3.32146 1.15637 0
M  V30 22897 H 2141.81 2.58702 2.74505 0
M  V30 22898 H 2144.19 1.6388 2.45412 0
M  V30 22899 H 2144.27 2.40811 0.862763 0
M  V30 22900 H 2143.92 4.68196 1.96862 0
M  V30 22901 H 2143.85 3.88157 3.55867 0
M  V30 22902 H 2146.34 3.04231 2.2417 0
M  V30 22903 H 2146.65 6.57199 4.06582 0
M  V30 22904 H 2145 5.90671 3.66241 0
M  V30 22905 H 2148.19 3.81784 2.70849 0
M  V30 22906 H 2148.36 5.42728 3.54049 0
M  V30 22907 N 2141.77 -1.0356 1.18799 0
M  V30 22908 C 2143.04 -1.73872 0.895991 0
M  V30 22909 C 2143.42 -2.02395 -0.59995 0
M  V30 22910 O 2142.77 -1.6732 -1.55616 0
M  V30 22911 C 2142.98 -3.02028 1.74871 0
M  V30 22912 C 2144.33 -3.75667 1.97887 0
M  V30 22913 O 2145.35 -3.11939 1.71966 0
M  V30 22914 O 2144.21 -4.90219 2.41553 0
M  V30 22915 H 2141.31 -0.756859 0.333306 0
M  V30 22916 H 2143.85 -1.09579 1.29578 0
M  V30 22917 H 2142.62 -2.77126 2.76256 0
M  V30 22918 H 2142.25 -3.7406 1.34776 0
M  V30 22919 N 2143.25 -0.990834 -1.22557 0
M  V30 22920 C 2144.49 -0.676169 -1.91832 0
M  V30 22921 C 2144.85 0.782981 -1.75747 0
M  V30 22922 O 2144.14 1.55864 -1.11432 0
M  V30 22923 C 2144.33 -1.01474 -3.42692 0
M  V30 22924 C 2144.16 -2.50525 -3.73453 0
M  V30 22925 C 2142.93 -3.16896 -3.93579 0
M  V30 22926 C 2145.13 -3.48636 -3.78097 0
M  V30 22927 N 2143.11 -4.55445 -4.11634 0
M  V30 22928 C 2144.48 -4.72635 -4.01268 0
M  V30 22929 C 2146.54 -3.42972 -3.60936 0
M  V30 22930 C 2145.24 -5.91661 -4.0906 0
M  V30 22931 C 2147.27 -4.61372 -3.69986 0
M  V30 22932 C 2146.63 -5.8417 -3.93605 0
M  V30 22933 H 2142.73 -0.298668 -0.722718 0
M  V30 22934 H 2145.31 -1.27042 -1.47541 0
M  V30 22935 H 2143.48 -0.449081 -3.85795 0
M  V30 22936 H 2145.22 -0.656274 -3.99343 0
M  V30 22937 H 2141.97 -2.67369 -3.9091 0
M  V30 22938 H 2142.39 -5.27304 -4.24594 0
M  V30 22939 H 2147.04 -2.4905 -3.41663 0
M  V30 22940 H 2144.75 -6.85988 -4.27137 0
M  V30 22941 H 2148.34 -4.58576 -3.58049 0
M  V30 22942 H 2147.22 -6.74257 -4.00434 0
M  V30 22943 N 2144.72 1.37856 -0.763775 0
M  V30 22944 C 2145.95 2.04686 -0.334395 0
M  V30 22945 C 2146.37 1.57229 1.0325 0
M  V30 22946 O 2145.73 0.728884 1.66003 0
M  V30 22947 C 2145.78 3.58616 -0.377715 0
M  V30 22948 O 2144.88 4.07641 0.624687 0
M  V30 22949 H 2144.22 0.647714 -0.146161 0
M  V30 22950 H 2146.75 1.76329 -1.03774 0
M  V30 22951 H 2146.76 4.07339 -0.232185 0
M  V30 22952 H 2145.44 3.92514 -1.37496 0
M  V30 22953 H 2144.02 3.7026 0.442931 0
M  V30 22954 N 2146.2 0.513665 1.48994 0
M  V30 22955 C 2147.45 -0.0282469 2.0168 0
M  V30 22956 C 2147.76 -1.36865 1.3974 0
M  V30 22957 O 2148.97 -1.99799 1.83828 0
M  V30 22958 C 2147.43 -0.100776 3.59759 0
M  V30 22959 C 2147.03 1.23375 4.30677 0
M  V30 22960 C 2148.78 -0.592381 4.20346 0
M  V30 22961 C 2146.68 1.12269 5.80646 0
M  V30 22962 H 2145.61 -0.0143288 0.753864 0
M  V30 22963 H 2148.27 0.654994 1.71412 0
M  V30 22964 H 2146.65 -0.848743 3.86798 0
M  V30 22965 H 2147.82 1.996 4.15327 0
M  V30 22966 H 2146.14 1.65979 3.8189 0
M  V30 22967 H 2148.73 -0.69318 5.30188 0
M  V30 22968 H 2149.08 -1.59429 3.84562 0
M  V30 22969 H 2149.61 0.0994202 3.97676 0
M  V30 22970 H 2146.35 2.09925 6.20976 0
M  V30 22971 H 2145.87 0.401536 5.98454 0
M  V30 22972 H 2147.55 0.806614 6.41952 0
M  V30 22973 N 2147.68 -1.55636 0.248053 0
M  V30 22974 C 2148.61 -2.2441 -0.645175 0
M  V30 22975 C 2149.59 -1.22477 -1.18039 0
M  V30 22976 O 2150.78 -1.51133 -1.21953 0
M  V30 22977 C 2147.91 -2.94446 -1.84171 0
M  V30 22978 C 2146.86 -4.03076 -1.43922 0
M  V30 22979 C 2146.19 -4.60544 -2.71668 0
M  V30 22980 C 2147.49 -5.18732 -0.609431 0
M  V30 22981 H 2149.18 -2.99314 -0.0716951 0
M  V30 22982 H 2146.73 -1.43962 -0.033043 0
M  V30 22983 H 2148.68 -3.41259 -2.47225 0
M  V30 22984 H 2147.4 -2.17031 -2.44059 0
M  V30 22985 H 2146.06 -3.57034 -0.832012 0
M  V30 22986 H 2145.71 -3.79829 -3.29756 0
M  V30 22987 H 2145.41 -5.33876 -2.4546 0
M  V30 22988 H 2146.93 -5.10091 -3.35618 0
M  V30 22989 H 2148.35 -5.61764 -1.1443 0
M  V30 22990 H 2146.74 -5.9846 -0.443361 0
M  V30 22991 H 2147.81 -4.83424 0.378087 0
M  V30 22992 N 2149.16 0.0250451 -1.5758 0
M  V30 22993 C 2150.41 0.713634 -1.89081 0
M  V30 22994 C 2150.73 1.7568 -0.846258 0
M  V30 22995 O 2150 1.95534 0.119612 0
M  V30 22996 H 2148.58 0.266566 -0.697819 0
M  V30 22997 H 2151.24 -0.00995501 -1.94897 0
M  V30 22998 H 2150.33 1.20068 -2.8808 0
M  V30 22999 N 2150.64 1.54769 0.297388 0
M  V30 23000 C 2152.05 1.65183 0.87014 0
M  V30 23001 C 2152.4 0.562844 1.87953 0
M  V30 23002 O 2151.52 -0.299913 2.14312 0
M  V30 23003 C 2152.12 2.99437 1.58501 0
M  V30 23004 C 2150.68 3.1196 2.10612 0
M  V30 23005 C 2149.82 2.60882 0.94 0
M  V30 23006 H 2152.77 1.58526 0.0743014 0
M  V30 23007 H 2152.8 2.91063 2.45077 0
M  V30 23008 H 2152.31 3.78675 0.850115 0
M  V30 23009 H 2150.41 2.3745 2.87138 0
M  V30 23010 H 2150.52 4.1817 2.33817 0
M  V30 23011 H 2148.89 2.17426 1.32658 0
M  V30 23012 H 2149.67 3.42601 0.219 0
M  V30 23013 N 2152.11 -0.560755 1.47286 0
M  V30 23014 C 2153.06 -1.66355 1.55916 0
M  V30 23015 C 2154.05 -1.55367 0.418332 0
M  V30 23016 O 2155.24 -1.63909 0.668047 0
M  V30 23017 C 2152.37 -3.05134 1.57315 0
M  V30 23018 C 2151.45 -3.2134 2.7677 0
M  V30 23019 N 2151.85 -3.07623 4.01499 0
M  V30 23020 C 2150.14 -3.52332 2.73456 0
M  V30 23021 C 2150.84 -3.26423 4.8148 0
M  V30 23022 N 2149.82 -3.52594 4.13737 0
M  V30 23023 H 2153.62 -1.54314 2.50129 0
M  V30 23024 H 2151.14 -0.765413 1.43231 0
M  V30 23025 H 2153.13 -3.84312 1.61587 0
M  V30 23026 H 2151.79 -3.18291 0.64195 0
M  V30 23027 H 2152.8 -2.85025 4.32413 0
M  V30 23028 H 2149.48 -3.72037 1.89458 0
M  V30 23029 H 2150.87 -3.20816 5.90362 0
M  V30 23030 N 2153.59 -1.35359 -0.807199 0
M  V30 23031 C 2154.54 -1.24773 -1.90829 0
M  V30 23032 C 2155.53 -0.143129 -1.60262 0
M  V30 23033 O 2156.72 -0.374292 -1.72997 0
M  V30 23034 C 2153.85 -1.02132 -3.27756 0
M  V30 23035 C 2152.93 -2.16979 -3.64391 0
M  V30 23036 N 2153.32 -3.42201 -3.72468 0
M  V30 23037 C 2151.62 -2.08352 -3.94342 0
M  V30 23038 C 2152.32 -4.17721 -4.04826 0
M  V30 23039 N 2151.3 -3.46471 -4.18878 0
M  V30 23040 H 2155.1 -2.19648 -1.95274 0
M  V30 23041 H 2152.61 -1.27823 -1.00175 0
M  V30 23042 H 2154.61 -0.926363 -4.06478 0
M  V30 23043 H 2153.27 -0.0814038 -3.24598 0
M  V30 23044 H 2154.28 -3.7656 -3.5556 0
M  V30 23045 H 2150.96 -1.22212 -3.99212 0
M  V30 23046 H 2152.35 -5.2593 -4.18147 0
M  V30 23047 N 2155.07 1.02928 -1.19346 0
M  V30 23048 C 2156 2.13099 -0.954528 0
M  V30 23049 C 2156.98 1.69731 0.111965 0
M  V30 23050 O 2158.17 1.94152 -0.0429718 0
M  V30 23051 C 2155.3 3.43798 -0.491955 0
M  V30 23052 C 2154.25 4.00845 -1.50024 0
M  V30 23053 C 2153.58 5.2716 -0.894759 0
M  V30 23054 C 2154.88 4.35699 -2.88035 0
M  V30 23055 H 2156.57 2.33345 -1.87592 0
M  V30 23056 H 2154.12 1.1214 -0.903366 0
M  V30 23057 H 2156.07 4.20243 -0.312095 0
M  V30 23058 H 2154.79 3.23272 0.46503 0
M  V30 23059 H 2153.45 3.26495 -1.66724 0
M  V30 23060 H 2153.1 5.02952 0.0697668 0
M  V30 23061 H 2152.8 5.66291 -1.56805 0
M  V30 23062 H 2154.32 6.06272 -0.725685 0
M  V30 23063 H 2155.74 5.03083 -2.7492 0
M  V30 23064 H 2154.13 4.8591 -3.52152 0
M  V30 23065 H 2155.2 3.45019 -3.4072 0
M  V30 23066 N 2156.55 0.997319 1.2203 0
M  V30 23067 C 2157.82 0.59145 1.86444 0
M  V30 23068 C 2158.2 -0.931144 1.89454 0
M  V30 23069 O 2157.55 -1.81492 1.38827 0
M  V30 23070 C 2157.76 1.21697 3.27095 0
M  V30 23071 C 2159.11 1.32027 4.03552 0
M  V30 23072 O 2160.13 1.1717 3.36377 0
M  V30 23073 O 2158.99 1.55846 5.23807 0
M  V30 23074 H 2156.09 0.201545 0.802065 0
M  V30 23075 H 2158.63 1.09348 1.29773 0
M  V30 23076 H 2157.41 2.25823 3.19562 0
M  V30 23077 H 2157.03 0.70081 3.91375 0
M  V30 23078 N 2158.03 -1.37449 0.771075 0
M  V30 23079 C 2158.94 -2.3407 0.157631 0
M  V30 23080 C 2159.95 -1.60145 -0.680404 0
M  V30 23081 O 2161.13 -1.9224 -0.600482 0
M  V30 23082 C 2158.19 -3.39316 -0.711733 0
M  V30 23083 C 2157.25 -4.29063 0.142682 0
M  V30 23084 C 2156.49 -5.29282 -0.685284 0
M  V30 23085 O 2156.71 -5.37029 -1.92241 0
M  V30 23086 O 2155.64 -6.01825 -0.0948431 0
M  V30 23087 H 2159.47 -2.8826 0.956036 0
M  V30 23088 H 2157.06 -1.39598 0.532224 0
M  V30 23089 H 2158.94 -4.03713 -1.20806 0
M  V30 23090 H 2157.61 -2.87455 -1.48834 0
M  V30 23091 H 2156.52 -3.67769 0.685357 0
M  V30 23092 H 2157.85 -4.84227 0.882356 0
M  V30 23093 N 2159.5 -0.52156 -1.4872 0
M  V30 23094 C 2160.75 0.0155956 -2.02494 0
M  V30 23095 C 2161.08 1.35077 -1.39944 0
M  V30 23096 O 2160.33 1.88342 -0.531596 0
M  V30 23097 C 2160.63 0.195406 -3.56865 0
M  V30 23098 C 2160.3 -1.06435 -4.38158 0
M  V30 23099 C 2158.96 -1.40962 -4.6009 0
M  V30 23100 C 2161.31 -1.90076 -4.85305 0
M  V30 23101 C 2158.64 -2.59043 -5.26416 0
M  V30 23102 C 2160.99 -3.07328 -5.5293 0
M  V30 23103 C 2159.66 -3.42211 -5.73104 0
M  V30 23104 H 2158.93 0.00570684 -0.740978 0
M  V30 23105 H 2161.57 -0.68588 -1.78796 0
M  V30 23106 H 2159.88 0.979581 -3.79357 0
M  V30 23107 H 2161.58 0.625805 -3.96087 0
M  V30 23108 H 2158.17 -0.785439 -4.21342 0
M  V30 23109 H 2162.35 -1.64713 -4.6817 0
M  V30 23110 H 2157.61 -2.86282 -5.40234 0
M  V30 23111 H 2161.78 -3.72451 -5.88433 0
M  V30 23112 H 2159.41 -4.33809 -6.24271 0
M  V30 23113 N 2160.98 1.55502 -0.256304 0
M  V30 23114 C 2161.93 2.2177 0.63926 0
M  V30 23115 C 2162.9 1.18474 1.16418 0
M  V30 23116 O 2164.08 1.46954 1.21693 0
M  V30 23117 C 2161.22 2.92819 1.82623 0
M  V30 23118 C 2160.34 4.10791 1.33695 0
M  V30 23119 C 2159.47 4.69531 2.48423 0
M  V30 23120 C 2158.51 5.79735 1.96403 0
M  V30 23121 N 2157.65 6.32617 3.04533 0
M  V30 23122 H 2162.49 2.97924 0.0674772 0
M  V30 23123 H 2160.03 1.47084 0.0215424 0
M  V30 23124 H 2161.98 3.32216 2.52366 0
M  V30 23125 H 2160.61 2.19122 2.37034 0
M  V30 23126 H 2159.67 3.76644 0.533253 0
M  V30 23127 H 2160.98 4.90321 0.915786 0
M  V30 23128 H 2160.13 5.11551 3.26191 0
M  V30 23129 H 2158.87 3.89238 2.93845 0
M  V30 23130 H 2157.88 5.37183 1.17108 0
M  V30 23131 H 2159.1 6.61885 1.51939 0
M  V30 23132 H 2157.05 5.55225 3.49372 0
M  V30 23133 H 2156.96 7.07366 2.66776 0
M  V30 23134 H 2158.23 6.79295 3.82332 0
M  V30 23135 N 2162.46 -0.0166879 1.57591 0
M  V30 23136 C 2163.88 -0.372531 1.55191 0
M  V30 23137 C 2164.08 -1.75838 0.984042 0
M  V30 23138 O 2163.13 -2.45008 0.610513 0
M  V30 23139 C 2164.45 -0.263043 2.99547 0
M  V30 23140 C 2165.99 -0.339216 3.11156 0
M  V30 23141 C 2166.47 -0.259039 4.57267 0
M  V30 23142 N 2167.96 -0.317455 4.62111 0
M  V30 23143 C 2168.69 -0.278499 5.72723 0
M  V30 23144 N 2168.19 -0.191112 6.92536 0
M  V30 23145 N 2169.98 -0.32914 5.61136 0
M  V30 23146 H 2162.13 0.890086 1.9285 0
M  V30 23147 H 2164.4 0.339637 0.885071 0
M  V30 23148 H 2164.1 0.689794 3.44869 0
M  V30 23149 H 2163.98 -1.0518 3.62239 0
M  V30 23150 H 2166.36 -1.28249 2.65775 0
M  V30 23151 H 2166.45 0.479109 2.51273 0
M  V30 23152 H 2166.09 0.68062 5.03319 0
M  V30 23153 H 2166.02 -1.09563 5.15076 0
M  V30 23154 H 2168.51 -0.387004 3.75913 0
M  V30 23155 H 2168.82 -0.166827 7.7262 0
M  V30 23156 H 2167.17 -0.15698 6.94823 0
M  V30 23157 H 2170.36 -0.395489 4.66426 0
M  V30 23158 H 2170.53 -0.295314 6.47327 0
M  V30 23159 N 2163.94 -1.54924 -0.289176 0
M  V30 23160 C 2165.19 -1.73974 -1.02059 0
M  V30 23161 C 2165.5 -0.539167 -1.88022 0
M  V30 23162 O 2166.71 -0.611723 -2.64519 0
M  V30 23163 C 2165.16 -3.07847 -1.86435 0
M  V30 23164 C 2164.77 -4.35421 -1.05417 0
M  V30 23165 C 2166.51 -3.36252 -2.59104 0
M  V30 23166 C 2164.42 -5.6034 -1.89138 0
M  V30 23167 H 2163.35 -0.648438 -0.384766 0
M  V30 23168 H 2166 -1.81397 -0.276999 0
M  V30 23169 H 2164.38 -2.94419 -2.64827 0
M  V30 23170 H 2165.56 -4.59718 -0.315551 0
M  V30 23171 H 2163.87 -4.14039 -0.442763 0
M  V30 23172 H 2166.47 -4.26785 -3.22115 0
M  V30 23173 H 2166.81 -2.55656 -3.28551 0
M  V30 23174 H 2167.35 -3.50705 -1.87753 0
M  V30 23175 H 2164.09 -6.43638 -1.2414 0
M  V30 23176 H 2163.61 -5.4021 -2.6064 0
M  V30 23177 H 2165.28 -5.98038 -2.46899 0
M  V30 23178 N 2165.42 0.552936 -1.47582 0
M  V30 23179 C 2166.66 1.30952 -1.55638 0
M  V30 23180 C 2167.02 1.91166 -0.217561 0
M  V30 23181 O 2166.31 1.75129 0.777208 0
M  V30 23182 C 2166.5 2.43742 -2.6139 0
M  V30 23183 C 2166.33 1.94581 -4.05423 0
M  V30 23184 C 2165.1 1.78229 -4.72824 0
M  V30 23185 C 2167.3 1.48778 -4.92311 0
M  V30 23186 N 2165.28 1.23453 -6.01359 0
M  V30 23187 C 2166.65 1.05795 -6.10907 0
M  V30 23188 C 2168.71 1.36868 -4.78719 0
M  V30 23189 C 2167.41 0.520866 -7.17412 0
M  V30 23190 C 2169.44 0.845611 -5.85323 0
M  V30 23191 C 2168.8 0.425735 -7.03112 0
M  V30 23192 H 2164.9 0.471059 -0.624201 0
M  V30 23193 H 2167.48 0.626261 -1.84353 0
M  V30 23194 H 2165.65 3.09593 -2.34535 0
M  V30 23195 H 2167.39 3.10748 -2.59263 0
M  V30 23196 H 2164.14 2.01072 -4.28797 0
M  V30 23197 H 2164.57 0.981404 -6.69849 0
M  V30 23198 H 2169.21 1.67941 -3.88015 0
M  V30 23199 H 2166.93 0.197773 -8.07858 0
M  V30 23200 H 2170.51 0.756959 -5.76855 0
M  V30 23201 H 2169.39 0.0272611 -7.84195 0
M  V30 23202 N 2166.89 1.35785 0.800009 0
M  V30 23203 C 2168.12 1.32717 1.59377 0
M  V30 23204 C 2168.54 -0.0914251 1.87878 0
M  V30 23205 O 2167.9 -1.06023 1.47068 0
M  V30 23206 C 2167.95 2.14589 2.898 0
M  V30 23207 O 2167.05 1.53112 3.82924 0
M  V30 23208 H 2166.4 0.45473 0.483856 0
M  V30 23209 H 2168.93 1.7892 0.992412 0
M  V30 23210 H 2168.94 2.26784 3.39165 0
M  V30 23211 H 2167.61 3.17717 2.68382 0
M  V30 23212 H 2166.19 1.49795 3.41491 0
M  V30 23213 N 2168.37 -1.02294 1.19891 0
M  V30 23214 C 2169.28 -2.14169 0.957533 0
M  V30 23215 C 2170.3 -1.73795 -0.0844739 0
M  V30 23216 O 2171.47 -2.01144 0.101528 0
M  V30 23217 C 2168.54 -3.4299 0.50587 0
M  V30 23218 C 2167.6 -3.97643 1.61797 0
M  V30 23219 C 2166.83 -5.20315 1.18777 0
M  V30 23220 O 2167.06 -5.70375 0.0538032 0
M  V30 23221 O 2165.99 -5.67957 1.99268 0
M  V30 23222 H 2169.82 -2.37398 1.89409 0
M  V30 23223 H 2167.4 -1.12572 0.982234 0
M  V30 23224 H 2169.28 -4.20579 0.26292 0
M  V30 23225 H 2167.96 -3.21192 -0.402182 0
M  V30 23226 H 2166.87 -3.21362 1.91514 0
M  V30 23227 H 2168.2 -4.23817 2.5028 0
M  V30 23228 N 2169.85 -1.00378 -1.21499 0
M  V30 23229 C 2171.08 -0.703551 -1.94252 0
M  V30 23230 C 2171.49 0.73767 -1.74227 0
M  V30 23231 O 2170.83 1.51064 -1.04525 0
M  V30 23232 C 2170.89 -0.94326 -3.46905 0
M  V30 23233 C 2170.56 -2.37108 -3.90677 0
M  V30 23234 C 2171.55 -3.35123 -3.97478 0
M  V30 23235 C 2169.24 -2.70841 -4.23025 0
M  V30 23236 C 2171.23 -4.64939 -4.36017 0
M  V30 23237 C 2168.92 -4.00873 -4.61242 0
M  V30 23238 C 2169.92 -4.97734 -4.67708 0
M  V30 23239 O 2169.61 -6.25441 -5.05054 0
M  V30 23240 H 2169.34 -0.258563 -0.624597 0
M  V30 23241 H 2171.89 -1.34429 -1.55299 0
M  V30 23242 H 2170.12 -0.245347 -3.85921 0
M  V30 23243 H 2171.81 -0.636609 -4.00877 0
M  V30 23244 H 2172.58 -3.10397 -3.72665 0
M  V30 23245 H 2168.46 -1.96145 -4.17191 0
M  V30 23246 H 2172 -5.4054 -4.40978 0
M  V30 23247 H 2167.9 -4.25385 -4.85508 0
M  V30 23248 H 2168.67 -6.29538 -5.23091 0
M  V30 23249 N 2171.33 1.37038 -0.778354 0
M  V30 23250 C 2172.61 1.93726 -0.270129 0
M  V30 23251 C 2172.99 1.71138 1.23592 0
M  V30 23252 O 2172.33 1.06396 2.02218 0
M  V30 23253 C 2172.54 3.4288 -0.650703 0
M  V30 23254 C 2173.89 4.19987 -0.624207 0
M  V30 23255 O 2174.92 3.51271 -0.590496 0
M  V30 23256 O 2173.77 5.42534 -0.657186 0
M  V30 23257 H 2170.87 0.824515 -0.0640657 0
M  V30 23258 H 2173.41 1.46286 -0.860152 0
M  V30 23259 H 2172.19 3.52931 -1.68984 0
M  V30 23260 H 2171.81 3.97585 -0.0339758 0
M  V30 23261 N 2172.81 0.529439 1.48441 0
M  V30 23262 C 2174.22 0.0888387 1.86489 0
M  V30 23263 C 2174.57 -1.33364 1.43905 0
M  V30 23264 O 2173.69 -1.9987 0.829524 0
M  V30 23265 C 2174.29 0.154445 3.38448 0
M  V30 23266 C 2172.85 -0.230958 3.75691 0
M  V30 23267 C 2172 0.514449 2.72486 0
M  V30 23268 H 2174.95 0.740717 1.40353 0
M  V30 23269 H 2174.97 -0.63398 3.75181 0
M  V30 23270 H 2174.48 1.18985 3.69411 0
M  V30 23271 H 2172.58 -1.26853 3.50341 0
M  V30 23272 H 2172.69 0.108275 4.78978 0
M  V30 23273 H 2171.06 -0.039218 2.5467 0
M  V30 23274 H 2171.84 1.55048 3.06293 0
M  V30 23275 N 2174.29 -1.55364 0.264547 0
M  V30 23276 C 2175.53 -1.98966 -0.354543 0
M  V30 23277 C 2175.85 -1.15427 -1.57168 0
M  V30 23278 O 2175.12 -0.241233 -1.94409 0
M  V30 23279 H 2173.7 -0.734885 -0.133986 0
M  V30 23280 H 2176.37 -1.91405 0.367431 0
M  V30 23281 H 2175.46 -3.05221 -0.651647 0
M  V30 23282 N 2175.76 0.00833021 -1.57598 0
M  V30 23283 C 2176.73 0.9872 -2.0685 0
M  V30 23284 C 2177.73 1.27766 -0.976351 0
M  V30 23285 O 2178.92 1.22423 -1.23929 0
M  V30 23286 C 2176.05 2.31443 -2.50294 0
M  V30 23287 H 2177.24 0.561338 -2.946 0
M  V30 23288 H 2174.79 0.255625 -1.54195 0
M  V30 23289 H 2175.53 2.78735 -1.65763 0
M  V30 23290 H 2175.31 2.11684 -3.30049 0
M  V30 23291 H 2176.8 3.0168 -2.88754 0
M  V30 23292 N 2177.24 1.55075 0.280956 0
M  V30 23293 C 2178.19 1.87409 1.34709 0
M  V30 23294 C 2179.16 0.72482 1.49451 0
M  V30 23295 O 2180.34 0.975348 1.63987 0
M  V30 23296 C 2177.48 2.14456 2.70375 0
M  V30 23297 C 2176.6 3.42009 2.6392 0
M  V30 23298 C 2175.73 3.58796 3.91713 0
M  V30 23299 C 2174.77 4.8007 3.79736 0
M  V30 23300 N 2173.91 4.93556 4.99346 0
M  V30 23301 H 2178.75 2.78344 1.06435 0
M  V30 23302 H 2176.28 1.37813 0.514379 0
M  V30 23303 H 2178.24 2.28135 3.493 0
M  V30 23304 H 2176.87 1.26764 2.96868 0
M  V30 23305 H 2175.92 3.36844 1.7675 0
M  V30 23306 H 2177.24 4.31065 2.50967 0
M  V30 23307 H 2176.39 3.7225 4.79077 0
M  V30 23308 H 2175.13 2.6791 4.07524 0
M  V30 23309 H 2174.13 4.66628 2.90754 0
M  V30 23310 H 2175.36 5.72383 3.65451 0
M  V30 23311 H 2173.31 4.05599 5.15582 0
M  V30 23312 H 2173.22 5.76645 4.88893 0
M  V30 23313 H 2174.49 5.11387 5.88305 0
M  V30 23314 N 2178.72 -0.545102 1.47873 0
M  V30 23315 C 2179.97 -1.29914 1.54812 0
M  V30 23316 C 2180.29 -1.93786 0.217214 0
M  V30 23317 O 2179.56 -1.80559 -0.759941 0
M  V30 23318 H 2178.14 -0.482471 0.57029 0
M  V30 23319 H 2180.8 -0.635565 1.84246 0
M  V30 23320 H 2179.9 -2.08635 2.32116 0
M  V30 23321 N 2180.2 -1.36208 -0.792797 0
M  V30 23322 C 2181.61 -1.16547 -1.09036 0
M  V30 23323 C 2181.81 0.0127355 -2.01496 0
M  V30 23324 O 2180.87 0.679142 -2.43195 0
M  V30 23325 C 2182.18 -2.47477 -1.70808 0
M  V30 23326 C 2183.73 -2.5381 -1.83165 0
M  V30 23327 C 2184.21 -3.84818 -2.48352 0
M  V30 23328 N 2185.7 -3.86146 -2.55824 0
M  V30 23329 C 2186.43 -4.84251 -3.07064 0
M  V30 23330 N 2185.93 -5.92749 -3.58637 0
M  V30 23331 N 2187.72 -4.71674 -3.05745 0
M  V30 23332 H 2179.87 -2.11649 -0.178453 0
M  V30 23333 H 2182.13 -0.937338 -0.141777 0
M  V30 23334 H 2181.84 -3.33944 -1.10338 0
M  V30 23335 H 2181.71 -2.63037 -2.70354 0
M  V30 23336 H 2184.1 -1.67764 -2.42774 0
M  V30 23337 H 2184.18 -2.42153 -0.824343 0
M  V30 23338 H 2183.83 -4.71269 -1.89388 0
M  V30 23339 H 2183.76 -3.9377 -3.49647 0
M  V30 23340 H 2186.25 -3.07758 -2.19301 0
M  V30 23341 H 2186.56 -6.63584 -3.96075 0
M  V30 23342 H 2184.91 -5.96423 -3.56798 0
M  V30 23343 H 2188.1 -3.86044 -2.6474 0
M  V30 23344 H 2188.27 -5.48291 -3.4537 0
M  V30 23345 N 2181.68 1.01656 -1.20431 0
M  V30 23346 C 2182.92 1.74663 -1.00874 0
M  V30 23347 C 2183.24 1.9012 0.459746 0
M  V30 23348 O 2184.44 2.6022 0.774445 0
M  V30 23349 C 2182.9 3.14147 -1.75612 0
M  V30 23350 C 2182.51 3.06703 -3.26554 0
M  V30 23351 C 2184.25 3.91364 -1.64422 0
M  V30 23352 C 2182.16 4.41194 -3.93829 0
M  V30 23353 H 2181.09 0.654809 -0.37382 0
M  V30 23354 H 2183.74 1.13672 -1.44052 0
M  V30 23355 H 2182.12 3.7568 -1.25221 0
M  V30 23356 H 2183.3 2.54477 -3.84159 0
M  V30 23357 H 2181.61 2.42979 -3.38157 0
M  V30 23358 H 2184.21 4.90866 -2.12026 0
M  V30 23359 H 2184.55 4.11947 -0.600434 0
M  V30 23360 H 2185.08 3.36459 -2.12227 0
M  V30 23361 H 2181.82 4.25814 -4.9836 0
M  V30 23362 H 2181.34 4.93427 -3.41013 0
M  V30 23363 H 2183.02 5.10038 -3.98084 0
M  V30 23364 N 2183.15 1.01021 1.20965 0
M  V30 23365 C 2184.1 0.575015 2.23522 0
M  V30 23366 C 2185.07 -0.401609 1.61172 0
M  V30 23367 O 2186.26 -0.302487 1.88387 0
M  V30 23368 C 2183.4 -0.0869827 3.4499 0
M  V30 23369 C 2182.51 0.933442 4.21795 0
M  V30 23370 C 2181.64 0.243164 5.30643 0
M  V30 23371 C 2180.68 1.25078 5.99184 0
M  V30 23372 N 2179.82 0.587617 6.99637 0
M  V30 23373 H 2184.66 1.45423 2.60108 0
M  V30 23374 H 2182.2 0.728091 1.27817 0
M  V30 23375 H 2184.15 -0.487872 4.14338 0
M  V30 23376 H 2182.78 -0.929881 3.09117 0
M  V30 23377 H 2181.84 1.45254 3.51576 0
M  V30 23378 H 2183.15 1.70003 4.68936 0
M  V30 23379 H 2182.3 -0.213561 6.06324 0
M  V30 23380 H 2181.04 -0.555781 4.84523 0
M  V30 23381 H 2180.05 1.71796 5.2227 0
M  V30 23382 H 2181.27 2.0509 6.47391 0
M  V30 23383 H 2179.22 -0.191575 6.5572 0
M  V30 23384 H 2179.13 1.29237 7.44872 0
M  V30 23385 H 2180.4 0.154271 7.79347 0
M  V30 23386 N 2184.63 -1.36623 0.78561 0
M  V30 23387 C 2185.58 -2.27475 0.154576 0
M  V30 23388 C 2186.57 -1.46775 -0.659246 0
M  V30 23389 O 2187.76 -1.69191 -0.519944 0
M  V30 23390 C 2184.89 -3.35819 -0.712793 0
M  V30 23391 C 2183.97 -4.23958 0.109612 0
M  V30 23392 N 2184.36 -4.92266 1.16221 0
M  V30 23393 C 2182.66 -4.45859 -0.112163 0
M  V30 23394 C 2183.36 -5.57436 1.66254 0
M  V30 23395 N 2182.34 -5.34832 0.972395 0
M  V30 23396 H 2186.14 -2.77769 0.960279 0
M  V30 23397 H 2183.65 -1.49904 0.624702 0
M  V30 23398 H 2185.65 -3.9983 -1.18075 0
M  V30 23399 H 2184.31 -2.87079 -1.51708 0
M  V30 23400 H 2185.32 -4.94331 1.54459 0
M  V30 23401 H 2182 -4.07963 -0.887264 0
M  V30 23402 H 2183.39 -6.21995 2.54111 0
M  V30 23403 N 2186.11 -0.537304 -1.48158 0
M  V30 23404 C 2187.04 0.210088 -2.32553 0
M  V30 23405 C 2188.02 0.928052 -1.42552 0
M  V30 23406 O 2189.21 0.912405 -1.71432 0
M  V30 23407 C 2186.34 1.25296 -3.23911 0
M  V30 23408 C 2185.29 0.65269 -4.22994 0
M  V30 23409 C 2184.62 1.79875 -5.03537 0
M  V30 23410 C 2185.92 -0.380445 -5.20913 0
M  V30 23411 H 2187.61 -0.494444 -2.95289 0
M  V30 23412 H 2185.16 -0.239229 -1.41999 0
M  V30 23413 H 2187.11 1.78383 -3.81782 0
M  V30 23414 H 2185.83 1.98717 -2.59189 0
M  V30 23415 H 2184.49 0.143286 -3.6632 0
M  V30 23416 H 2184.14 2.52152 -4.35234 0
M  V30 23417 H 2183.84 1.40299 -5.70605 0
M  V30 23418 H 2185.36 2.33326 -5.64262 0
M  V30 23419 H 2186.78 0.0636068 -5.73265 0
M  V30 23420 H 2185.17 -0.693989 -5.96074 0
M  V30 23421 H 2186.24 -1.28359 -4.67602 0
M  V30 23422 N 2187.59 1.55221 -0.272782 0
M  V30 23423 C 2188.87 1.91543 0.396336 0
M  V30 23424 C 2189.25 1.19676 1.73899 0
M  V30 23425 O 2188.59 0.322832 2.26208 0
M  V30 23426 C 2188.8 3.44814 0.53892 0
M  V30 23427 C 2190.15 4.1655 0.822894 0
M  V30 23428 O 2191.18 3.50695 0.623816 0
M  V30 23429 O 2190.03 5.33084 1.2035 0
M  V30 23430 H 2187.13 0.798123 0.21663 0
M  V30 23431 H 2189.67 1.66679 -0.318762 0
M  V30 23432 H 2188.45 3.89187 -0.406068 0
M  V30 23433 H 2188.07 3.75623 1.30358 0
M  V30 23434 N 2189.07 2.77022e-05 1.576 0
M  V30 23435 C 2190.31 -0.685829 1.90851 0
M  V30 23436 C 2190.65 -1.73422 0.873984 0
M  V30 23437 O 2189.92 -1.94204 -0.107282 0
M  V30 23438 C 2190.2 -1.32893 3.34681 0
M  V30 23439 C 2190.06 -0.292085 4.48851 0
M  V30 23440 C 2191.38 -2.25509 3.77933 0
M  V30 23441 H 2188.49 -0.247851 0.694074 0
M  V30 23442 H 2191.14 0.0513272 1.89931 0
M  V30 23443 H 2189.29 -1.95723 3.35596 0
M  V30 23444 H 2190.96 0.336531 4.60071 0
M  V30 23445 H 2189.2 0.385648 4.32082 0
M  V30 23446 H 2189.87 -0.781112 5.46445 0
M  V30 23447 H 2192.35 -1.72696 3.7857 0
M  V30 23448 H 2191.22 -2.67473 4.79322 0
M  V30 23449 H 2191.49 -3.13419 3.11803 0
M  V30 23450 N 2190.54 -1.55222 -0.272728 0
M  V30 23451 C 2191.79 -1.76102 -1.00578 0
M  V30 23452 C 2192.12 -0.560658 -1.85931 0
M  V30 23453 O 2191.4 0.441768 -1.89417 0
M  V30 23454 C 2191.68 -3.06631 -1.88811 0
M  V30 23455 C 2191.53 -4.37022 -1.06449 0
M  V30 23456 C 2192.85 -3.33202 -2.87514 0
M  V30 23457 H 2189.97 -0.640705 -0.364233 0
M  V30 23458 H 2192.61 -1.87953 -0.278156 0
M  V30 23459 H 2190.76 -2.96659 -2.5085 0
M  V30 23460 H 2192.44 -4.58953 -0.464782 0
M  V30 23461 H 2190.68 -4.32237 -0.367967 0
M  V30 23462 H 2191.35 -5.24681 -1.71505 0
M  V30 23463 H 2193.83 -3.42969 -2.35609 0
M  V30 23464 H 2192.7 -4.25798 -3.46392 0
M  V30 23465 H 2192.96 -2.52855 -3.62652 0
M  V30 23466 N 2192.02 0.537252 -1.4816 0
M  V30 23467 C 2192.99 1.62469 -1.61668 0
M  V30 23468 C 2193.99 1.53139 -0.490422 0
M  V30 23469 O 2195.18 1.56939 -0.756026 0
M  V30 23470 C 2192.31 3.02073 -1.58003 0
M  V30 23471 H 2193.5 1.51834 -2.58624 0
M  V30 23472 H 2191.05 0.758747 -1.36648 0
M  V30 23473 H 2191.79 3.18221 -0.624969 0
M  V30 23474 H 2191.57 3.10254 -2.3976 0
M  V30 23475 H 2193.06 3.81148 -1.70634 0
M  V30 23476 N 2193.5 1.36626 0.785562 0
M  V30 23477 C 2194.43 1.33953 1.91256 0
M  V30 23478 C 2195.41 0.210355 1.68794 0
M  V30 23479 O 2196.6 0.408594 1.89853 0
M  V30 23480 C 2193.73 1.13191 3.28337 0
M  V30 23481 C 2192.68 2.22974 3.65331 0
M  V30 23482 C 2192.01 1.87351 5.00803 0
M  V30 23483 C 2193.31 3.65082 3.73514 0
M  V30 23484 H 2195 2.28257 1.93751 0
M  V30 23485 H 2192.55 1.09876 0.930768 0
M  V30 23486 H 2194.5 1.09955 4.06802 0
M  V30 23487 H 2193.22 0.15339 3.2624 0
M  V30 23488 H 2191.88 2.25342 2.89165 0
M  V30 23489 H 2191.53 0.880632 4.95231 0
M  V30 23490 H 2191.23 2.60855 5.26525 0
M  V30 23491 H 2192.75 1.85677 5.81684 0
M  V30 23492 H 2194.17 3.64919 4.42162 0
M  V30 23493 H 2192.57 4.37523 4.10723 0
M  V30 23494 H 2193.64 3.99708 2.7452 0
M  V30 23495 N 2194.98 -1.01016 1.20969 0
M  V30 23496 C 2195.91 -2.11553 0.988309 0
M  V30 23497 C 2196.89 -1.69888 -0.084948 0
M  V30 23498 O 2198.07 -1.9406 0.0738543 0
M  V30 23499 C 2195.2 -3.42972 0.546588 0
M  V30 23500 C 2194.16 -3.98408 1.56382 0
M  V30 23501 C 2193.48 -5.2567 0.978512 0
M  V30 23502 C 2194.78 -4.31061 2.9493 0
M  V30 23503 H 2196.48 -2.30331 1.9128 0
M  V30 23504 H 2194.02 -1.10688 0.921092 0
M  V30 23505 H 2195.98 -4.19693 0.378913 0
M  V30 23506 H 2194.7 -3.23971 -0.413541 0
M  V30 23507 H 2193.36 -3.23801 1.71897 0
M  V30 23508 H 2193.01 -5.02999 0.0102572 0
M  V30 23509 H 2192.71 -5.63725 1.65794 0
M  V30 23510 H 2194.23 -6.05041 0.822046 0
M  V30 23511 H 2195.65 -4.98645 2.82889 0
M  V30 23512 H 2194.04 -4.80246 3.59838 0
M  V30 23513 H 2195.11 -3.39555 3.46166 0
M  V30 23514 N 2196.46 -1.01661 -1.20428 0
M  V30 23515 C 2197.87 -0.731467 -1.41851 0
M  V30 23516 C 2198.07 0.688865 -1.89359 0
M  V30 23517 O 2197.13 1.45662 -2.06249 0
M  V30 23518 C 2198.44 -1.75718 -2.44016 0
M  V30 23519 C 2199.99 -1.77532 -2.57782 0
M  V30 23520 C 2200.46 -2.7903 -3.63189 0
M  V30 23521 N 2201.96 -2.7777 -3.70673 0
M  V30 23522 C 2202.69 -3.52962 -4.51891 0
M  V30 23523 N 2202.19 -4.3783 -5.36914 0
M  V30 23524 N 2203.98 -3.41559 -4.46424 0
M  V30 23525 H 2196.13 -1.93355 -0.879059 0
M  V30 23526 H 2198.39 -0.835244 -0.448411 0
M  V30 23527 H 2198.1 -2.77473 -2.16105 0
M  V30 23528 H 2197.97 -1.56933 -3.43004 0
M  V30 23529 H 2200.36 -0.764619 -2.85022 0
M  V30 23530 H 2200.44 -2.0039 -1.58989 0
M  V30 23531 H 2200.09 -3.80264 -3.36693 0
M  V30 23532 H 2200.02 -2.53433 -4.61605 0
M  V30 23533 H 2202.51 -2.16206 -3.09941 0
M  V30 23534 H 2202.82 -4.91973 -5.95972 0
M  V30 23535 H 2201.16 -4.41908 -5.36416 0
M  V30 23536 H 2204.36 -2.74679 -3.79037 0
M  V30 23537 H 2204.53 -4.00413 -5.09484 0
M  V30 23538 N 2197.93 1.36205 -0.792844 0
M  V30 23539 C 2199.35 1.5237 -0.47493 0
M  V30 23540 C 2199.55 1.7458 1.00619 0
M  V30 23541 O 2198.61 1.77927 1.79159 0
M  V30 23542 C 2199.92 2.70745 -1.30835 0
M  V30 23543 C 2201.47 2.84617 -1.30239 0
M  V30 23544 C 2201.94 4.06 -2.11963 0
M  V30 23545 N 2203.43 4.13152 -2.09427 0
M  V30 23546 C 2204.17 5.06158 -2.69428 0
M  V30 23547 N 2203.66 6.04586 -3.38301 0
M  V30 23548 N 2205.46 4.988 -2.59143 0
M  V30 23549 H 2197.61 1.20043 -1.75224 0
M  V30 23550 H 2199.87 0.586198 -0.745034 0
M  V30 23551 H 2199.58 2.60866 -2.35885 0
M  V30 23552 H 2199.45 3.64988 -0.952024 0
M  V30 23553 H 2201.84 2.93954 -0.259799 0
M  V30 23554 H 2201.92 1.91271 -1.6985 0
M  V30 23555 H 2201.56 3.97423 -3.16255 0
M  V30 23556 H 2201.49 4.985 -1.6972 0
M  V30 23557 H 2203.98 3.42682 -1.59303 0
M  V30 23558 H 2204.3 6.72123 -3.81405 0
M  V30 23559 H 2202.64 6.04801 -3.42404 0
M  V30 23560 H 2205.83 4.20855 -2.04935 0
M  V30 23561 H 2206.01 5.71094 -3.06195 0
M  V30 23562 N 2199.41 0.545154 1.47871 0
M  V30 23563 C 2200.66 0.0145388 2.01695 0
M  V30 23564 C 2200.97 -1.3387 1.42612 0
M  V30 23565 O 2202.18 -1.95854 1.88025 0
M  V30 23566 C 2200.64 -0.0244435 3.59892 0
M  V30 23567 C 2200.24 1.32482 4.27963 0
M  V30 23568 C 2201.99 -0.503086 4.21508 0
M  V30 23569 C 2199.9 1.2456 5.78134 0
M  V30 23570 H 2198.83 0.00166498 0.753998 0
M  V30 23571 H 2201.48 0.691205 1.69984 0
M  V30 23572 H 2199.86 -0.766507 3.88511 0
M  V30 23573 H 2201.03 2.08365 4.11 0
M  V30 23574 H 2199.35 1.74042 3.78283 0
M  V30 23575 H 2201.94 -0.580563 5.31539 0
M  V30 23576 H 2202.29 -1.51236 3.87858 0
M  V30 23577 H 2202.82 0.183751 3.97375 0
M  V30 23578 H 2199.56 2.2305 6.16384 0
M  V30 23579 H 2199.08 0.528387 5.97468 0
M  V30 23580 H 2200.76 0.9426 6.40097 0
M  V30 23581 N 2200.89 -1.55074 0.28101 0
M  V30 23582 C 2201.82 -2.20164 -0.637229 0
M  V30 23583 C 2202.84 -1.18815 -1.11296 0
M  V30 23584 O 2204.02 -1.45512 -1.03386 0
M  V30 23585 C 2201.12 -2.81844 -1.88195 0
M  V30 23586 C 2200.3 -4.08938 -1.55204 0
M  V30 23587 C 2199.36 -4.5461 -2.64983 0
M  V30 23588 O 2198.38 -5.20254 -2.3092 0
M  V30 23589 N 2199.58 -4.25245 -3.95154 0
M  V30 23590 H 2202.35 -2.99593 -0.0801167 0
M  V30 23591 H 2199.91 -1.61576 0.102357 0
M  V30 23592 H 2201.9 -3.0934 -2.60942 0
M  V30 23593 H 2200.47 -2.06373 -2.34796 0
M  V30 23594 H 2199.69 -3.88668 -0.658117 0
M  V30 23595 H 2200.98 -4.91734 -1.30673 0
M  V30 23596 H 2200.38 -3.72614 -4.25647 0
M  V30 23597 H 2198.94 -4.57498 -4.64261 0
M  V30 23598 N 2202.37 -0.00838561 -1.57598 0
M  V30 23599 C 2203.78 0.533299 -1.78921 0
M  V30 23600 C 2204.13 1.73471 -0.916639 0
M  V30 23601 O 2203.26 2.16059 -0.121374 0
M  V30 23602 C 2203.85 0.974256 -3.2449 0
M  V30 23603 C 2202.41 1.46119 -3.46881 0
M  V30 23604 C 2201.56 0.416254 -2.74158 0
M  V30 23605 H 2204.51 -0.234523 -1.56958 0
M  V30 23606 H 2204.53 1.83982 -3.33063 0
M  V30 23607 H 2204.04 0.0996498 -3.87972 0
M  V30 23608 H 2202.14 2.35641 -2.88624 0
M  V30 23609 H 2202.26 1.48287 -4.55574 0
M  V30 23610 H 2200.62 0.879768 -2.39023 0
M  V30 23611 H 2201.4 -0.44953 -3.40344 0
M  V30 23612 N 2203.85 1.55365 0.264492 0
M  V30 23613 C 2205.26 1.66992 0.834906 0
M  V30 23614 C 2205.61 0.602585 1.86717 0
M  V30 23615 O 2204.73 -0.254387 2.149 0
M  V30 23616 C 2205.33 3.02732 1.52114 0
M  V30 23617 C 2203.89 3.16358 2.03948 0
M  V30 23618 C 2203.04 2.62817 0.884452 0
M  V30 23619 H 2205.99 1.58648 0.040659 0
M  V30 23620 H 2206.01 2.96196 2.38848 0
M  V30 23621 H 2205.52 3.80393 0.769601 0
M  V30 23622 H 2203.62 2.43487 2.82037 0
M  V30 23623 H 2203.73 4.23036 2.24894 0
M  V30 23624 H 2202.1 2.20191 1.28016 0
M  V30 23625 H 2202.88 3.42988 0.14628 0
M  V30 23626 N 2205.33 -0.529387 1.48443 0
M  V30 23627 C 2206.26 -1.6431 1.65905 0
M  V30 23628 C 2207.24 -1.6234 0.507926 0
M  V30 23629 O 2208.42 -1.79526 0.740534 0
M  V30 23630 C 2205.55 -3.02895 1.69917 0
M  V30 23631 C 2204.51 -3.19724 2.84536 0
M  V30 23632 C 2203.83 -4.59377 2.73637 0
M  V30 23633 C 2205.13 -3.02439 4.25826 0
M  V30 23634 H 2206.83 -1.49951 2.59143 0
M  V30 23635 H 2204.37 -0.71996 1.2471 0
M  V30 23636 H 2206.32 -3.80681 1.80721 0
M  V30 23637 H 2205.05 -3.18278 0.73258 0
M  V30 23638 H 2203.71 -2.44356 2.73287 0
M  V30 23639 H 2203.36 -4.71596 1.74946 0
M  V30 23640 H 2203.06 -4.71582 3.50549 0
M  V30 23641 H 2204.58 -5.3926 2.8641 0
M  V30 23642 H 2205.99 -3.70016 4.37905 0
M  V30 23643 H 2204.39 -3.26137 5.03741 0
M  V30 23644 H 2205.46 -1.98859 4.42248 0
M  V30 23645 N 2206.8 -1.37041 -0.778305 0
M  V30 23646 C 2208.05 -1.31626 -1.53359 0
M  V30 23647 C 2208.37 0.100797 -1.94739 0
M  V30 23648 O 2207.64 1.04344 -1.65799 0
M  V30 23649 H 2206.22 -0.484244 -0.568785 0
M  V30 23650 H 2208.88 -1.71459 -0.926712 0
M  V30 23651 H 2207.98 -1.951 -2.43603 0
M  V30 23652 N 2208.28 1.00373 -1.21503 0
M  V30 23653 C 2209.53 1.74169 -1.03302 0
M  V30 23654 C 2209.86 1.89612 0.433293 0
M  V30 23655 O 2209.11 1.42837 1.33777 0
M  V30 23656 C 2209.41 3.15624 -1.67679 0
M  V30 23657 C 2209.08 3.20125 -3.17539 0
M  V30 23658 C 2207.74 3.2106 -3.58432 0
M  V30 23659 C 2210.09 3.17268 -4.1351 0
M  V30 23660 C 2207.42 3.16826 -4.938 0
M  V30 23661 C 2209.77 3.14575 -5.4884 0
M  V30 23662 C 2208.43 3.13821 -5.89129 0
M  V30 23663 H 2207.7 0.63733 -0.378011 0
M  V30 23664 H 2210.35 1.17632 -1.51113 0
M  V30 23665 H 2208.66 3.75402 -1.12165 0
M  V30 23666 H 2210.35 3.71444 -1.51098 0
M  V30 23667 H 2206.94 3.2014 -2.84971 0
M  V30 23668 H 2211.13 3.15704 -3.82942 0
M  V30 23669 H 2206.38 3.14581 -5.2426 0
M  V30 23670 H 2210.56 3.11319 -6.22939 0
M  V30 23671 H 2208.18 3.10294 -6.93989 0
M  V30 23672 N 2209.76 1.02298 1.19887 0
M  V30 23673 C 2211.01 0.714591 1.89045 0
M  V30 23674 C 2211.33 -0.758649 1.79637 0
M  V30 23675 O 2210.6 -1.54616 1.20294 0
M  V30 23676 H 2209.18 0.261329 0.699797 0
M  V30 23677 H 2211.84 1.29595 1.45572 0
M  V30 23678 H 2210.94 1.00365 2.95522 0
M  V30 23679 N 2211.24 -1.35782 0.800057 0
M  V30 23680 C 2212.18 -2.29898 0.203888 0
M  V30 23681 C 2213.15 -1.52496 -0.658348 0
M  V30 23682 O 2214.34 -1.80961 -0.6048 0
M  V30 23683 C 2211.48 -3.38984 -0.64682 0
M  V30 23684 C 2210.59 -4.3136 0.23513 0
M  V30 23685 C 2209.73 -5.27534 -0.622961 0
M  V30 23686 C 2208.77 -6.11548 0.25979 0
M  V30 23687 N 2207.9 -6.9988 -0.557896 0
M  V30 23688 H 2212.74 -2.80294 1.01191 0
M  V30 23689 H 2210.28 -1.37956 0.510554 0
M  V30 23690 H 2212.24 -4.00889 -1.15514 0
M  V30 23691 H 2210.87 -2.89881 -1.42016 0
M  V30 23692 H 2209.92 -3.70516 0.861504 0
M  V30 23693 H 2211.23 -4.90339 0.914854 0
M  V30 23694 H 2210.39 -5.94781 -1.19667 0
M  V30 23695 H 2209.13 -4.69036 -1.33628 0
M  V30 23696 H 2208.13 -5.43255 0.845822 0
M  V30 23697 H 2209.36 -6.72124 0.970866 0
M  V30 23698 H 2207.3 -6.43877 -1.2553 0
M  V30 23699 H 2207.22 -7.55973 0.06392 0
M  V30 23700 H 2208.49 -7.71483 -1.11509 0
M  V30 23701 N 2212.72 -0.552988 -1.4758 0
M  V30 23702 C 2213.65 0.18541 -2.32763 0
M  V30 23703 C 2214.63 0.91288 -1.43529 0
M  V30 23704 O 2215.81 0.894171 -1.7239 0
M  V30 23705 C 2212.94 1.21853 -3.25222 0
M  V30 23706 C 2211.9 0.607789 -4.23663 0
M  V30 23707 C 2211.22 1.74524 -5.05416 0
M  V30 23708 C 2212.52 -0.435674 -5.2048 0
M  V30 23709 H 2214.22 -0.525735 -2.94748 0
M  V30 23710 H 2211.76 -0.254276 -1.41737 0
M  V30 23711 H 2213.71 1.74323 -3.83653 0
M  V30 23712 H 2212.44 1.95957 -2.61282 0
M  V30 23713 H 2211.1 0.104425 -3.66451 0
M  V30 23714 H 2210.75 2.47521 -4.37884 0
M  V30 23715 H 2210.45 1.34239 -5.72061 0
M  V30 23716 H 2211.97 2.27328 -5.66705 0
M  V30 23717 H 2213.38 0.0028008 -5.733 0
M  V30 23718 H 2211.78 -0.757172 -5.95304 0
M  V30 23719 H 2212.85 -1.33311 -4.66215 0
M  V30 23720 N 2214.19 1.54923 -0.28923 0
M  V30 23721 C 2215.43 2.01808 0.324501 0
M  V30 23722 C 2215.8 1.17318 1.51988 0
M  V30 23723 O 2217 1.53847 2.20419 0
M  V30 23724 C 2215.27 3.50803 0.683516 0
M  V30 23725 S 2216.83 4.19662 1.28178 0
M  V30 23726 H 2213.65 0.703901 0.100223 0
M  V30 23727 H 2216.25 1.91058 -0.414358 0
M  V30 23728 H 2214.95 4.09936 -0.195145 0
M  V30 23729 H 2214.48 3.65565 1.45347 0
M  V30 23730 H 2216.5 4.2446 2.56998 0
M  V30 23731 N 2215.67 0.0167433 1.57591 0
M  V30 23732 C 2217.08 -0.523803 1.79202 0
M  V30 23733 C 2217.43 -1.72982 0.925826 0
M  V30 23734 O 2216.56 -2.15992 0.13283 0
M  V30 23735 C 2217.15 -0.957034 3.25002 0
M  V30 23736 C 2215.71 -1.44277 3.47651 0
M  V30 23737 C 2214.86 -0.401709 2.74375 0
M  V30 23738 H 2217.81 0.242844 1.56831 0
M  V30 23739 H 2217.83 -1.82213 3.34034 0
M  V30 23740 H 2217.34 -0.0790733 3.88019 0
M  V30 23741 H 2215.44 -2.34107 2.8987 0
M  V30 23742 H 2215.56 -1.45869 4.56354 0
M  V30 23743 H 2213.92 -0.867079 2.39487 0
M  V30 23744 H 2214.7 0.467573 3.40101 0
M  V30 23745 N 2217.15 -1.55503 -0.256249 0
M  V30 23746 C 2218.1 -1.85919 -1.31978 0
M  V30 23747 C 2219.08 -0.719321 -1.43926 0
M  V30 23748 O 2220.28 -0.981045 -1.47325 0
M  V30 23749 C 2217.41 -2.14923 -2.677 0
M  V30 23750 C 2216.49 -3.35213 -2.59795 0
M  V30 23751 N 2216.88 -4.54713 -2.21516 0
M  V30 23752 C 2215.18 -3.38136 -2.90826 0
M  V30 23753 C 2215.88 -5.36836 -2.24014 0
M  V30 23754 N 2214.86 -4.75661 -2.6315 0
M  V30 23755 H 2218.66 -2.75847 -1.01418 0
M  V30 23756 H 2216.17 -1.55604 -0.464884 0
M  V30 23757 H 2218.17 -2.34875 -3.44441 0
M  V30 23758 H 2216.83 -1.26288 -2.99135 0
M  V30 23759 H 2217.84 -4.80509 -1.93215 0
M  V30 23760 H 2214.52 -2.59745 -3.26862 0
M  V30 23761 H 2215.91 -6.42421 -1.96839 0
M  V30 23762 N 2218.63 0.521507 -1.48721 0
M  V30 23763 C 2220.04 0.850831 -1.3503 0
M  V30 23764 C 2220.24 1.98116 -0.367746 0
M  V30 23765 O 2219.3 2.51642 0.207993 0
M  V30 23766 C 2220.61 1.21036 -2.75265 0
M  V30 23767 C 2222.16 1.31976 -2.83816 0
M  V30 23768 C 2222.64 1.71269 -4.24772 0
M  V30 23769 N 2224.13 1.78356 -4.27485 0
M  V30 23770 C 2224.86 2.10161 -5.33498 0
M  V30 23771 N 2224.36 2.40332 -6.49779 0
M  V30 23772 N 2226.15 2.11239 -5.20898 0
M  V30 23773 H 2218.3 -0.224167 -2.11214 0
M  V30 23774 H 2220.57 -0.0376605 -0.947252 0
M  V30 23775 H 2220.27 0.453354 -3.48766 0
M  V30 23776 H 2220.15 2.15858 -3.0933 0
M  V30 23777 H 2222.53 2.06752 -2.10565 0
M  V30 23778 H 2222.61 0.352552 -2.53359 0
M  V30 23779 H 2222.26 0.9705 -4.98542 0
M  V30 23780 H 2222.19 2.69054 -4.52678 0
M  V30 23781 H 2224.68 1.57282 -3.43614 0
M  V30 23782 H 2224.99 2.6373 -7.26406 0
M  V30 23783 H 2223.34 2.37833 -6.53039 0
M  V30 23784 H 2226.53 1.87131 -4.29068 0
M  V30 23785 H 2226.7 2.35694 -6.03616 0
M  V30 23786 N 2220.11 1.37452 0.771027 0
M  V30 23787 C 2221.35 1.32896 1.53187 0
M  V30 23788 C 2221.69 -0.086217 1.94009 0
M  V30 23789 O 2220.96 -1.0437 1.64125 0
M  V30 23790 C 2221.24 2.26873 2.79644 0
M  V30 23791 C 2221.1 3.77173 2.45072 0
M  V30 23792 C 2222.42 2.19284 3.81579 0
M  V30 23793 H 2219.53 0.484074 0.555735 0
M  V30 23794 H 2222.18 1.68158 0.884463 0
M  V30 23795 H 2220.33 1.96932 3.34888 0
M  V30 23796 H 2222 4.17714 1.95737 0
M  V30 23797 H 2220.24 3.95707 1.7776 0
M  V30 23798 H 2220.91 4.38365 3.3547 0
M  V30 23799 H 2223.39 2.45677 3.3583 0
M  V30 23800 H 2222.26 2.87179 4.67782 0
M  V30 23801 H 2222.53 1.18599 4.25895 0
M  V30 23802 N 2221.58 -0.997276 1.22033 0
M  V30 23803 C 2222.55 -2.06815 0.987945 0
M  V30 23804 C 2223.55 -1.6074 -0.0439802 0
M  V30 23805 O 2224.74 -1.73115 0.194083 0
M  V30 23806 C 2221.87 -3.3734 0.49138 0
M  V30 23807 H 2223.06 -2.28864 1.93807 0
M  V30 23808 H 2220.62 -1.1682 1.0384 0
M  V30 23809 H 2221.35 -3.20973 -0.463307 0
M  V30 23810 H 2221.14 -3.72115 1.23582 0
M  V30 23811 H 2222.63 -4.1614 0.348897 0
M  V30 23812 N 2223.06 -1.02932 -1.19343 0
M  V30 23813 C 2224.3 -0.734761 -1.90737 0
M  V30 23814 C 2224.67 0.723383 -1.77852 0
M  V30 23815 O 2225.87 1.13104 -2.43846 0
M  V30 23816 C 2224.14 -1.17402 -3.37567 0
M  V30 23817 S 2225.7 -1.00336 -4.27174 0
M  V30 23818 H 2222.52 -0.267485 -0.658766 0
M  V30 23819 H 2225.12 -1.31925 -1.44278 0
M  V30 23820 H 2223.82 -2.23087 -3.44471 0
M  V30 23821 H 2223.35 -0.58284 -3.89059 0
M  V30 23822 H 2225.37 0.085828 -4.96126 0
M  V30 23823 N 2224.54 1.35356 -0.807246 0
M  V30 23824 C 2225.49 2.29786 -0.216077 0
M  V30 23825 C 2226.46 1.52843 0.650252 0
M  V30 23826 O 2227.64 1.81279 0.595195 0
M  V30 23827 C 2224.78 3.39322 0.628834 0
M  V30 23828 C 2223.9 4.31229 -0.258003 0
M  V30 23829 C 2223.03 5.27857 0.594976 0
M  V30 23830 C 2222.07 6.11402 -0.292218 0
M  V30 23831 N 2221.21 7.00166 0.520772 0
M  V30 23832 H 2226.05 2.79753 -1.02676 0
M  V30 23833 H 2223.58 1.37683 -0.517863 0
M  V30 23834 H 2225.54 4.01496 1.13386 0
M  V30 23835 H 2224.17 2.9063 1.40477 0
M  V30 23836 H 2223.22 3.70054 -0.881141 0
M  V30 23837 H 2224.54 4.89846 -0.940845 0
M  V30 23838 H 2223.69 5.95407 1.16511 0
M  V30 23839 H 2222.43 4.69738 1.31138 0
M  V30 23840 H 2221.43 5.42799 -0.87462 0
M  V30 23841 H 2222.66 6.716 -1.0065 0
M  V30 23842 H 2220.6 6.44534 1.22114 0
M  V30 23843 H 2220.52 7.55928 -0.10401 0
M  V30 23844 H 2221.79 7.72063 1.07416 0
M  V30 23845 N 2226.02 0.560807 1.47284 0
M  V30 23846 C 2227.43 0.220837 1.58065 0
M  V30 23847 C 2227.63 -1.27668 1.55894 0
M  V30 23848 O 2226.69 -2.05708 1.46426 0
M  V30 23849 C 2228 0.850676 2.88416 0
M  V30 23850 C 2229.55 0.822237 3.02007 0
M  V30 23851 C 2230.03 1.43121 4.35064 0
M  V30 23852 N 2231.52 1.39456 4.41708 0
M  V30 23853 C 2232.25 1.83534 5.43234 0
M  V30 23854 N 2231.75 2.35485 6.51551 0
M  V30 23855 N 2233.54 1.74583 5.34301 0
M  V30 23856 H 2225.69 1.53371 1.46939 0
M  V30 23857 H 2227.96 0.639795 0.699547 0
M  V30 23858 H 2227.66 1.90326 2.95752 0
M  V30 23859 H 2227.54 0.345839 3.75611 0
M  V30 23860 H 2229.92 -0.221663 2.94266 0
M  V30 23861 H 2230 1.36487 2.16345 0
M  V30 23862 H 2229.65 2.4742 4.43561 0
M  V30 23863 H 2229.58 0.86399 5.19464 0
M  V30 23864 H 2232.07 1.01459 3.64026 0
M  V30 23865 H 2232.38 2.67034 7.25198 0
M  V30 23866 H 2230.73 2.39498 6.5243 0
M  V30 23867 H 2233.92 1.33771 4.48579 0
M  V30 23868 H 2234.09 2.09253 6.13284 0
M  V30 23869 N 2227.5 -1.54768 0.297442 0
M  V30 23870 C 2228.43 -2.26349 -0.573454 0
M  V30 23871 C 2229.41 -1.26171 -1.14083 0
M  V30 23872 O 2230.59 -1.54936 -1.17083 0
M  V30 23873 C 2227.72 -3.00156 -1.74711 0
M  V30 23874 C 2226.68 -4.07451 -1.31025 0
M  V30 23875 C 2226 -4.68954 -2.56878 0
M  V30 23876 C 2227.3 -5.20409 -0.444092 0
M  V30 23877 H 2229 -2.99391 0.0235657 0
M  V30 23878 H 2226.54 -1.43994 0.0127742 0
M  V30 23879 H 2228.5 -3.48951 -2.36243 0
M  V30 23880 H 2227.22 -2.24686 -2.37031 0
M  V30 23881 H 2225.88 -3.595 -0.718003 0
M  V30 23882 H 2225.53 -3.90128 -3.17505 0
M  V30 23883 H 2225.23 -5.41415 -2.28351 0
M  V30 23884 H 2226.75 -5.2051 -3.1922 0
M  V30 23885 H 2228.16 -5.6512 -0.965 0
M  V30 23886 H 2226.56 -5.99568 -0.252741 0
M  V30 23887 H 2227.63 -4.81976 0.531693 0
M  V30 23888 N 2228.97 -0.0251005 -1.5758 0
M  V30 23889 C 2230.22 0.65538 -1.91918 0
M  V30 23890 C 2230.55 1.7201 -0.901464 0
M  V30 23891 O 2229.83 1.9435 0.0763727 0
M  V30 23892 C 2230.11 1.27552 -3.36753 0
M  V30 23893 C 2229.96 0.22064 -4.49259 0
M  V30 23894 C 2231.28 2.19468 -3.81473 0
M  V30 23895 H 2228.4 0.236778 -0.697929 0
M  V30 23896 H 2231.04 -0.081537 -1.89825 0
M  V30 23897 H 2229.19 1.90359 -3.38667 0
M  V30 23898 H 2230.87 -0.409682 -4.59477 0
M  V30 23899 H 2229.11 -0.45434 -4.31414 0
M  V30 23900 H 2229.78 0.694079 -5.47619 0
M  V30 23901 H 2232.26 1.66652 -3.81269 0
M  V30 23902 H 2231.13 2.59813 -4.83516 0
M  V30 23903 H 2231.39 3.08419 -3.1675 0
M  V30 23904 N 2230.45 1.55637 0.247999 0
M  V30 23905 C 2231.42 1.89423 1.29041 0
M  V30 23906 C 2232.42 0.770606 1.41132 0
M  V30 23907 O 2233.61 1.03861 1.39852 0
M  V30 23908 C 2230.74 2.12169 2.66828 0
M  V30 23909 H 2231.93 2.8263 1.003 0
M  V30 23910 H 2229.48 1.48512 0.487239 0
M  V30 23911 H 2230.22 1.21427 3.00709 0
M  V30 23912 H 2230 2.94002 2.59433 0
M  V30 23913 H 2231.49 2.39496 3.42098 0
M  V30 23914 N 2231.93 -0.513613 1.48996 0
M  V30 23915 C 2232.86 -1.63376 1.59322 0
M  V30 23916 C 2233.84 -1.56453 0.442844 0
M  V30 23917 O 2235.03 -1.76692 0.656686 0
M  V30 23918 C 2232.15 -3.01846 1.53645 0
M  V30 23919 C 2231.2 -3.27073 2.73725 0
M  V30 23920 S 2232.03 -3.11563 4.35533 0
M  V30 23921 C 2233.19 -4.5245 4.32481 0
M  V30 23922 H 2233.42 -1.5437 2.54081 0
M  V30 23923 H 2230.95 -0.697824 1.37731 0
M  V30 23924 H 2232.91 -3.81697 1.51056 0
M  V30 23925 H 2231.57 -3.08278 0.601952 0
M  V30 23926 H 2230.77 -4.28128 2.65938 0
M  V30 23927 H 2230.37 -2.54922 2.73662 0
M  V30 23928 H 2232.66 -5.44294 4.03423 0
M  V30 23929 H 2233.6 -4.6529 5.33771 0
M  V30 23930 H 2234.01 -4.32539 3.62726 0
M  V30 23931 N 2233.41 -1.37859 -0.763727 0
M  V30 23932 C 2234.36 -1.3437 -1.89862 0
M  V30 23933 C 2235.35 -0.231173 -1.67815 0
M  V30 23934 O 2236.56 -0.399648 -1.75507 0
M  V30 23935 H 2232.93 -0.418941 -0.624494 0
M  V30 23936 H 2234.9 -2.30158 -1.89921 0
M  V30 23937 C 2233.65 -1.17556 -3.27225 0
M  V30 23938 H 2232.98 -2.0242 -3.4477 0
M  V30 23939 H 2234.42 -1.19167 -4.06909 0
M  V30 23940 C 2232.87 0.118252 -3.36692 0
M  V30 23941 O 2233.4 1.09895 -3.86375 0
M  V30 23942 N 2231.61 0.171666 -2.90093 0
M  V30 23943 H 2231.16 -0.627056 -2.49851 0
M  V30 23944 H 2231.12 1.03694 -2.96808 0
M  V30 23945 N 2234.89 0.990791 -1.22561 0
M  V30 23946 C 2235.82 2.07904 -0.94081 0
M  V30 23947 C 2236.8 1.62178 0.117054 0
M  V30 23948 O 2237.98 1.88494 -0.0149837 0
M  V30 23949 C 2235.11 3.36143 -0.41538 0
M  V30 23950 C 2234.16 4.00796 -1.45825 0
M  V30 23951 S 2234.99 4.41377 -3.03227 0
M  V30 23952 C 2236.14 5.72784 -2.52327 0
M  V30 23953 H 2236.38 2.31742 -1.86234 0
M  V30 23954 H 2233.91 1.12556 -1.0569 0
M  V30 23955 H 2235.87 4.10328 -0.118819 0
M  V30 23956 H 2234.53 3.10332 0.485066 0
M  V30 23957 H 2233.72 4.93142 -1.04053 0
M  V30 23958 H 2233.32 3.32946 -1.70362 0
M  V30 23959 H 2235.62 6.4922 -1.937 0
M  V30 23960 H 2236.56 6.19386 -3.43172 0
M  V30 23961 H 2236.97 5.30286 -1.93539 0
M  V30 23962 N 2236.37 1.03564 1.18795 0
M  V30 23963 C 2237.78 0.764706 1.70321 0
M  V30 23964 C 2238.13 -0.714964 1.82709 0
M  V30 23965 O 2237.25 -1.55687 1.50302 0
M  V30 23966 C 2237.85 1.38151 3.09354 0
M  V30 23967 C 2236.41 1.15901 3.58112 0
M  V30 23968 C 2235.55 1.47534 2.34796 0
M  V30 23969 H 2238.5 1.2027 1.03541 0
M  V30 23970 H 2238.53 0.782042 3.72377 0
M  V30 23971 H 2238.04 2.45842 3.00305 0
M  V30 23972 H 2236.14 0.10061 3.72464 0
M  V30 23973 H 2236.25 1.85248 4.41837 0
M  V30 23974 H 2234.62 0.894871 2.38462 0
M  V30 23975 H 2235.4 2.56323 2.28371 0
M  V30 23976 N 2237.84 -1.34926 0.814413 0
M  V30 23977 C 2238.77 -2.32213 0.244868 0
M  V30 23978 C 2239.75 -1.57843 -0.633996 0
M  V30 23979 O 2240.94 -1.85871 -0.562644 0
M  V30 23980 C 2238.07 -3.4206 -0.601046 0
M  V30 23981 C 2237.02 -4.27621 0.179971 0
M  V30 23982 C 2236.35 -5.2886 -0.788144 0
M  V30 23983 C 2237.65 -5.03647 1.38338 0
M  V30 23984 H 2239.34 -2.80095 1.05768 0
M  V30 23985 H 2236.89 -1.34664 0.510052 0
M  V30 23986 H 2238.84 -4.09127 -1.00961 0
M  V30 23987 H 2237.57 -2.92805 -1.44683 0
M  V30 23988 H 2236.23 -3.62145 0.569803 0
M  V30 23989 H 2235.87 -4.75869 -1.62964 0
M  V30 23990 H 2235.57 -5.8698 -0.269839 0
M  V30 23991 H 2237.1 -5.98797 -1.19475 0
M  V30 23992 H 2238.51 -5.63616 1.04928 0
M  V30 23993 H 2236.91 -5.71301 1.83672 0
M  V30 23994 H 2237.98 -4.33835 2.166 0
M  V30 23995 N 2239.32 -0.56861 -1.46985 0
M  V30 23996 C 2240.27 0.185608 -2.31858 0
M  V30 23997 C 2241.26 0.898224 -1.43626 0
M  V30 23998 O 2242.47 0.818214 -1.60329 0
M  V30 23999 H 2238.84 0.0787267 -0.747868 0
M  V30 24000 H 2240.82 -0.549243 -2.93302 0
M  V30 24001 C 2239.56 1.19514 -3.26515 0
M  V30 24002 H 2238.89 0.656215 -3.94378 0
M  V30 24003 H 2240.33 1.69353 -3.8871 0
M  V30 24004 C 2238.79 2.2489 -2.50851 0
M  V30 24005 O 2239.32 3.3201 -2.26125 0
M  V30 24006 N 2237.52 1.9912 -2.11659 0
M  V30 24007 H 2237.07 1.1202 -2.31968 0
M  V30 24008 H 2237.03 2.69839 -1.61351 0
M  V30 24009 N 2240.8 1.54608 -0.305646 0
M  V30 24010 C 2242.02 2.05107 0.307526 0
M  V30 24011 C 2242.45 1.18125 1.46383 0
M  V30 24012 O 2241.81 0.186356 1.8034 0
M  V30 24013 C 2241.86 3.52989 0.736978 0
M  V30 24014 O 2240.96 3.69013 1.84128 0
M  V30 24015 H 2240.3 0.661382 0.0589027 0
M  V30 24016 H 2242.83 1.99616 -0.448842 0
M  V30 24017 H 2242.84 3.94927 1.02452 0
M  V30 24018 H 2241.52 4.15758 -0.108847 0
M  V30 24019 H 2240.09 3.3898 1.55392 0
M  V30 24020 N 2242.28 0.033457 1.57564 0
M  V30 24021 C 2243.55 -0.683131 1.83283 0
M  V30 24022 C 2243.93 -1.90082 0.918264 0
M  V30 24023 O 2243.28 -2.28486 -0.0250729 0
M  V30 24024 C 2243.49 -1.05724 3.32601 0
M  V30 24025 C 2244.84 -1.44704 3.99181 0
M  V30 24026 O 2245.86 -1.15009 3.37122 0
M  V30 24027 O 2244.72 -2.00051 5.08569 0
M  V30 24028 H 2241.82 -0.335533 0.755875 0
M  V30 24029 H 2244.36 0.06147 1.69589 0
M  V30 24030 H 2243.14 -0.190759 3.90835 0
M  V30 24031 H 2242.76 -1.85987 3.51418 0
M  V30 24032 N 2243.76 -1.55766 -0.239741 0
M  V30 24033 C 2245 -1.77581 -0.96486 0
M  V30 24034 C 2245.32 -0.598732 -1.85581 0
M  V30 24035 O 2244.59 0.385193 -1.92076 0
M  V30 24036 H 2243.17 -0.65494 -0.359253 0
M  V30 24037 H 2245.84 -1.93212 -0.255967 0
M  V30 24038 H 2244.93 -2.69011 -1.58238 0
M  V30 24039 N 2245.23 0.505704 -1.49266 0
M  V30 24040 C 2246.46 1.28426 -1.62217 0
M  V30 24041 C 2246.88 1.86533 -0.29173 0
M  V30 24042 O 2246.23 1.67602 0.722204 0
M  V30 24043 C 2246.28 2.41788 -2.68739 0
M  V30 24044 O 2246.01 1.86071 -3.96622 0
M  V30 24045 C 2247.51 3.33235 -2.92352 0
M  V30 24046 H 2244.73 0.389687 -0.546246 0
M  V30 24047 H 2247.27 0.607575 -1.95266 0
M  V30 24048 H 2245.43 3.05296 -2.38481 0
M  V30 24049 H 2245.84 2.60457 -4.55261 0
M  V30 24050 H 2247.31 4.09068 -3.70631 0
M  V30 24051 H 2247.79 3.89945 -2.02088 0
M  V30 24052 H 2248.4 2.75498 -3.24008 0
M  V30 24053 N 2246.71 1.38262 0.756405 0
M  V30 24054 C 2247.96 1.34514 1.51769 0
M  V30 24055 C 2248.29 -0.065635 1.94089 0
M  V30 24056 O 2247.57 -1.02623 1.65223 0
M  V30 24057 C 2247.85 2.29826 2.77222 0
M  V30 24058 C 2247.7 3.79751 2.41058 0
M  V30 24059 C 2249.02 2.23319 3.79232 0
M  V30 24060 H 2246.14 0.489941 0.55057 0
M  V30 24061 H 2248.78 1.69087 0.866577 0
M  V30 24062 H 2246.93 2.00473 3.3278 0
M  V30 24063 H 2248.6 4.19766 1.91296 0
M  V30 24064 H 2246.85 3.9757 1.73553 0
M  V30 24065 H 2247.52 4.41898 3.30802 0
M  V30 24066 H 2249.99 2.49225 3.33206 0
M  V30 24067 H 2248.87 2.92124 4.64709 0
M  V30 24068 H 2249.13 1.2311 4.24613 0
M  V30 24069 N 2248.19 -0.984277 1.23084 0
M  V30 24070 C 2249.42 -1.76035 1.08717 0
M  V30 24071 C 2249.83 -1.85304 -0.361659 0
M  V30 24072 O 2249.19 -1.32941 -1.25032 0
M  V30 24073 C 2249.24 -3.1892 1.70212 0
M  V30 24074 O 2248.96 -3.10138 3.09428 0
M  V30 24075 C 2250.46 -4.12939 1.61235 0
M  V30 24076 H 2247.68 -0.552565 0.380674 0
M  V30 24077 H 2250.23 -1.23686 1.62856 0
M  V30 24078 H 2248.38 -3.68308 1.20116 0
M  V30 24079 H 2248.8 -4.00059 3.39195 0
M  V30 24080 H 2250.27 -5.10916 2.08971 0
M  V30 24081 H 2250.75 -4.3548 0.570452 0
M  V30 24082 H 2251.35 -3.69452 2.10678 0
M  V30 24083 N 2249.67 -1.04192 -1.18244 0
M  V30 24084 C 2250.92 -0.74605 -1.88256 0
M  V30 24085 C 2251.24 0.726299 -1.8043 0
M  V30 24086 O 2250.5 1.54589 -1.20003 0
M  V30 24087 C 2250.8 -1.15917 -3.3808 0
M  V30 24088 C 2250.46 -2.63202 -3.66109 0
M  V30 24089 C 2249.13 -3.03438 -3.73468 0
M  V30 24090 C 2251.48 -3.58426 -3.78391 0
M  V30 24091 C 2248.81 -4.37785 -3.90591 0
M  V30 24092 C 2251.16 -4.92493 -3.9703 0
M  V30 24093 C 2249.82 -5.32399 -4.02626 0
M  V30 24094 H 2249.09 -0.272999 -0.688878 0
M  V30 24095 H 2251.74 -1.30717 -1.39947 0
M  V30 24096 H 2250.04 -0.516874 -3.88376 0
M  V30 24097 H 2251.74 -0.907585 -3.90594 0
M  V30 24098 H 2248.33 -2.31037 -3.60999 0
M  V30 24099 H 2252.51 -3.28485 -3.72036 0
M  V30 24100 H 2247.77 -4.6822 -3.93167 0
M  V30 24101 H 2251.94 -5.66182 -4.05476 0
M  V30 24102 H 2249.57 -6.36508 -4.15646 0
M  V30 24103 N 2251.15 1.34492 -0.821557 0
M  V30 24104 C 2252.09 2.31453 -0.230743 0
M  V30 24105 C 2253.09 1.57339 0.627765 0
M  V30 24106 O 2254.29 1.72348 0.519257 0
M  V30 24107 H 2250.67 0.749922 -0.0558709 0
M  V30 24108 H 2252.64 2.7881 -1.06337 0
M  V30 24109 C 2251.39 3.42591 0.593849 0
M  V30 24110 H 2250.71 3.99759 -0.057429 0
M  V30 24111 H 2252.15 4.12676 0.973374 0
M  V30 24112 C 2250.61 2.86927 1.76563 0
M  V30 24113 O 2251.14 2.81696 2.86375 0
M  V30 24114 N 2249.35 2.43769 1.58193 0
M  V30 24115 H 2248.89 2.48224 0.688677 0
M  V30 24116 H 2248.85 2.06876 2.36749 0
M  V30 24117 N 2252.62 0.576397 1.46681 0
M  V30 24118 C 2253.59 -0.150199 2.28707 0
M  V30 24119 C 2254.59 -0.82477 1.38037 0
M  V30 24120 O 2255.78 -0.677691 1.60477 0
M  V30 24121 C 2252.91 -1.22187 3.1825 0
M  V30 24122 H 2254.1 0.570573 2.94422 0
M  V30 24123 H 2251.66 0.334105 1.52687 0
M  V30 24124 H 2252.39 -1.97442 2.57269 0
M  V30 24125 H 2252.18 -0.742744 3.85001 0
M  V30 24126 H 2253.67 -1.73166 3.80004 0
M  V30 24127 N 2254.1 -1.54444 0.313841 0
M  V30 24128 C 2255.33 -2.04802 -0.293882 0
M  V30 24129 C 2255.75 -1.1905 -1.46535 0
M  V30 24130 O 2255.1 -0.218971 -1.81182 0
M  V30 24131 C 2255.15 -3.53892 -0.737744 0
M  V30 24132 O 2254.87 -4.36386 0.387115 0
M  V30 24133 C 2256.38 -4.20302 -1.40929 0
M  V30 24134 H 2253.6 -0.66813 -0.061994 0
M  V30 24135 H 2256.14 -1.99324 0.457205 0
M  V30 24136 H 2254.29 -3.5969 -1.43883 0
M  V30 24137 H 2254.71 -5.24485 0.0392196 0
M  V30 24138 H 2256.18 -5.26104 -1.67089 0
M  V30 24139 H 2256.66 -3.7082 -2.35348 0
M  V30 24140 H 2257.27 -4.18616 -0.751043 0
M  V30 24141 N 2255.58 -0.0418125 -1.57545 0
M  V30 24142 C 2256.51 0.933891 -2.14011 0
M  V30 24143 C 2257.49 1.33082 -1.0594 0
M  V30 24144 O 2258.68 1.40719 -1.33835 0
M  V30 24145 C 2255.81 2.21194 -2.67751 0
M  V30 24146 C 2254.76 1.95538 -3.80722 0
M  V30 24147 C 2254.09 3.29717 -4.20941 0
M  V30 24148 C 2255.39 1.28443 -5.06261 0
M  V30 24149 H 2257.08 0.463593 -2.95789 0
M  V30 24150 H 2254.63 0.221548 -1.42286 0
M  V30 24151 H 2256.58 2.89843 -3.05891 0
M  V30 24152 H 2255.3 2.70413 -1.83151 0
M  V30 24153 H 2253.96 1.29304 -3.4304 0
M  V30 24154 H 2253.61 3.76719 -3.33305 0
M  V30 24155 H 2253.31 3.13352 -4.97076 0
M  V30 24156 H 2254.83 3.99612 -4.61673 0
M  V30 24157 H 2256.25 1.87111 -5.41906 0
M  V30 24158 H 2254.65 1.22434 -5.87477 0
M  V30 24159 H 2255.72 0.259134 -4.84207 0
M  V30 24160 N 2257.06 1.55891 0.231477 0
M  V30 24161 C 2258.31 1.78442 0.95732 0
M  V30 24162 C 2258.63 0.608852 1.84725 0
M  V30 24163 O 2257.89 -0.407216 1.91416 0
M  V30 24164 C 2258.19 3.06653 1.83571 0
M  V30 24165 C 2257.85 4.3728 1.09985 0
M  V30 24166 C 2256.52 4.72774 0.896546 0
M  V30 24167 C 2258.87 5.17969 0.579467 0
M  V30 24168 C 2256.2 5.8648 0.160793 0
M  V30 24169 C 2258.55 6.32439 -0.142894 0
M  V30 24170 C 2257.21 6.66542 -0.357544 0
M  V30 24171 H 2256.48 0.652966 0.350308 0
M  V30 24172 H 2259.13 1.90159 0.226225 0
M  V30 24173 H 2257.43 2.90015 2.63436 0
M  V30 24174 H 2259.13 3.21302 2.39929 0
M  V30 24175 H 2255.72 4.09405 1.26828 0
M  V30 24176 H 2259.9 4.9099 0.724038 0
M  V30 24177 H 2255.16 6.11398 -0.0158367 0
M  V30 24178 H 2259.33 6.94195 -0.553681 0
M  V30 24179 H 2256.96 7.54495 -0.929599 0
M  V30 24180 N 2258.54 -0.497781 1.49532 0
M  V30 24181 C 2259.5 -1.58125 1.65919 0
M  V30 24182 C 2260.5 -1.51785 0.530851 0
M  V30 24183 O 2261.69 -1.54879 0.79737 0
M  V30 24184 C 2258.82 -2.97777 1.65956 0
M  V30 24185 H 2260.01 -1.44924 2.62559 0
M  V30 24186 H 2257.57 -0.722251 1.38612 0
M  V30 24187 H 2258.3 -3.16452 0.70912 0
M  V30 24188 H 2258.09 -3.03788 2.47902 0
M  V30 24189 H 2259.58 -3.7649 1.80679 0
M  V30 24190 N 2260.01 -1.38661 -0.749062 0
M  V30 24191 C 2260.94 -1.38976 -1.87637 0
M  V30 24192 C 2261.93 -0.255034 -1.68177 0
M  V30 24193 O 2263.11 -0.458787 -1.88703 0
M  V30 24194 C 2260.24 -1.21857 -3.2522 0
M  V30 24195 C 2259.19 -2.32581 -3.59291 0
M  V30 24196 C 2258.52 -2.00563 -4.9566 0
M  V30 24197 C 2259.82 -3.74857 -3.63703 0
M  V30 24198 H 2261.51 -2.33313 -1.87631 0
M  V30 24199 H 2259.06 -1.12305 -0.90131 0
M  V30 24200 H 2261.01 -1.20702 -4.03744 0
M  V30 24201 H 2259.74 -0.239832 -3.25718 0
M  V30 24202 H 2258.4 -2.3293 -2.83089 0
M  V30 24203 H 2258.04 -1.01162 -4.92722 0
M  V30 24204 H 2257.74 -2.74723 -5.19424 0
M  V30 24205 H 2259.27 -2.01034 -5.76557 0
M  V30 24206 H 2260.68 -3.76514 -4.32331 0
M  V30 24207 H 2259.08 -4.48259 -3.98978 0
M  V30 24208 H 2260.15 -4.06846 -2.63826 0
M  V30 24209 N 2261.49 0.977736 -1.23605 0
M  V30 24210 C 2262.74 1.72193 -1.07132 0
M  V30 24211 C 2263.07 1.90234 0.390467 0
M  V30 24212 O 2262.35 1.45655 1.28899 0
M  V30 24213 C 2262.63 3.11864 -1.80037 0
M  V30 24214 C 2262.48 3.01377 -3.33904 0
M  V30 24215 C 2263.8 4.11334 -1.56499 0
M  V30 24216 H 2260.92 0.624992 -0.390582 0
M  V30 24217 H 2263.56 1.13808 -1.52144 0
M  V30 24218 H 2261.71 3.61707 -1.41775 0
M  V30 24219 H 2263.39 2.59036 -3.81704 0
M  V30 24220 H 2261.63 2.3782 -3.628 0
M  V30 24221 H 2262.3 4.00278 -3.80107 0
M  V30 24222 H 2264.78 3.70309 -1.89764 0
M  V30 24223 H 2263.65 5.07148 -2.09982 0
M  V30 24224 H 2263.91 4.39253 -0.500951 0
M  V30 24225 N 2262.97 1.04818 1.1769 0
M  V30 24226 C 2264.39 0.768819 1.39862 0
M  V30 24227 C 2264.59 -0.638418 1.91119 0
M  V30 24228 O 2263.64 -1.40143 2.10039 0
M  V30 24229 C 2264.96 1.82126 2.39271 0
M  V30 24230 C 2266.5 1.84304 2.52984 0
M  V30 24231 C 2266.98 2.88561 3.55664 0
M  V30 24232 N 2268.47 2.875 3.63178 0
M  V30 24233 C 2269.21 3.64819 4.42374 0
M  V30 24234 N 2268.7 4.51912 5.25117 0
M  V30 24235 N 2270.49 3.53275 4.37211 0
M  V30 24236 H 2262.65 1.95618 0.827485 0
M  V30 24237 H 2264.91 0.846839 0.426108 0
M  V30 24238 H 2264.61 2.83105 2.08673 0
M  V30 24239 H 2264.49 1.65972 3.38723 0
M  V30 24240 H 2266.88 0.839919 2.82895 0
M  V30 24241 H 2266.96 2.04535 1.5362 0
M  V30 24242 H 2266.6 3.89057 3.26492 0
M  V30 24243 H 2266.53 2.65583 4.54723 0
M  V30 24244 H 2269.02 2.24348 3.04099 0
M  V30 24245 H 2269.33 5.07601 5.82719 0
M  V30 24246 H 2267.68 4.55975 5.24511 0
M  V30 24247 H 2270.87 2.84632 3.71621 0
M  V30 24248 H 2271.04 4.1378 4.98688 0
M  V30 24249 N 2264.45 -1.34055 0.828678 0
M  V30 24250 C 2265.68 -2.02326 0.432656 0
M  V30 24251 C 2266.09 -1.62387 -0.963119 0
M  V30 24252 O 2265.45 -0.83215 -1.62424 0
M  V30 24253 C 2265.5 -3.57566 0.531883 0
M  V30 24254 O 2265.22 -3.9606 1.87265 0
M  V30 24255 C 2266.72 -4.43105 0.1315 0
M  V30 24256 H 2263.94 -0.648332 0.172934 0
M  V30 24257 H 2266.49 -1.71206 1.11843 0
M  V30 24258 H 2264.64 -3.87255 -0.10587 0
M  V30 24259 H 2265.06 -4.90754 1.85096 0
M  V30 24260 H 2266.53 -5.51424 0.252001 0
M  V30 24261 H 2267.01 -4.29337 -0.92557 0
M  V30 24262 H 2267.61 -4.18755 0.74328 0
M  V30 24263 N 2265.93 -0.584167 -1.46374 0
M  V30 24264 C 2267.15 -0.0740769 -2.07268 0
M  V30 24265 C 2267.58 1.22221 -1.42981 0
M  V30 24266 O 2266.94 1.73858 -0.514123 0
M  V30 24267 C 2266.98 0.0767136 -3.60518 0
M  V30 24268 O 2266.09 1.13285 -3.96535 0
M  V30 24269 H 2265.43 -0.0634641 -0.66096 0
M  V30 24270 H 2267.96 -0.807525 -1.8799 0
M  V30 24271 H 2267.97 0.282418 -4.07021 0
M  V30 24272 H 2266.64 -0.869932 -4.067 0
M  V30 24273 H 2265.22 0.905489 -3.61739 0
M  V30 24274 N 2267.41 1.54275 -0.322027 0
M  V30 24275 C 2268.34 2.27232 0.537371 0
M  V30 24276 C 2269.32 1.2797 1.12061 0
M  V30 24277 O 2270.5 1.56779 1.14603 0
M  V30 24278 C 2267.63 3.02897 1.69913 0
M  V30 24279 C 2266.59 4.09484 1.24526 0
M  V30 24280 C 2265.91 4.72981 2.49385 0
M  V30 24281 C 2267.21 5.21049 0.361243 0
M  V30 24282 H 2268.91 2.99315 -0.0711932 0
M  V30 24283 H 2266.45 1.43956 -0.0356808 0
M  V30 24284 H 2268.4 3.52666 2.30662 0
M  V30 24285 H 2267.13 2.28429 2.33427 0
M  V30 24286 H 2265.79 3.60597 0.660719 0
M  V30 24287 H 2265.44 3.95129 3.11258 0
M  V30 24288 H 2265.14 5.44979 2.19708 0
M  V30 24289 H 2266.66 5.25523 3.10899 0
M  V30 24290 H 2268.07 5.66584 0.874972 0
M  V30 24291 H 2266.47 5.99894 0.157323 0
M  V30 24292 H 2267.54 4.81069 -0.608304 0
M  V30 24293 N 2268.88 0.0501669 1.5752 0
M  V30 24294 C 2269.83 -0.924566 2.11472 0
M  V30 24295 C 2270.8 -1.30949 1.02184 0
M  V30 24296 O 2271.99 -1.39914 1.29726 0
M  V30 24297 C 2269.13 -2.19446 2.66341 0
M  V30 24298 C 2268.24 -1.86411 3.89711 0
M  V30 24299 C 2267.37 -3.07851 4.32899 0
M  V30 24300 C 2266.41 -2.70733 5.48972 0
M  V30 24301 N 2265.55 -3.84863 5.87218 0
M  V30 24302 H 2270.39 -0.457588 2.94466 0
M  V30 24303 H 2267.93 -0.214241 1.45532 0
M  V30 24304 H 2269.88 -2.93753 2.96252 0
M  V30 24305 H 2268.51 -2.63723 1.86146 0
M  V30 24306 H 2267.57 -1.02257 3.66398 0
M  V30 24307 H 2268.88 -1.55088 4.74077 0
M  V30 24308 H 2268.03 -3.90458 4.64357 0
M  V30 24309 H 2266.77 -3.42352 3.47342 0
M  V30 24310 H 2265.78 -1.86542 5.17187 0
M  V30 24311 H 2267 -2.37425 6.36244 0
M  V30 24312 H 2264.95 -4.19166 5.04614 0
M  V30 24313 H 2264.86 -3.57235 6.66273 0
M  V30 24314 H 2266.13 -4.68113 6.2329 0
M  V30 24315 N 2270.36 -1.56011 -0.223207 0
M  V30 24316 C 2271.61 -1.78146 -0.945881 0
M  V30 24317 C 2271.92 -0.618429 -1.85566 0
M  V30 24318 O 2273.13 -0.723364 -2.61686 0
M  V30 24319 C 2271.59 -3.15478 -1.7321 0
M  V30 24320 C 2271.19 -4.395 -0.868542 0
M  V30 24321 C 2272.94 -3.46939 -2.44609 0
M  V30 24322 C 2270.84 -5.67858 -1.65202 0
M  V30 24323 H 2269.77 -0.664173 -0.356917 0
M  V30 24324 H 2272.43 -1.82409 -0.199813 0
M  V30 24325 H 2270.81 -3.05387 -2.52101 0
M  V30 24326 H 2271.98 -4.60643 -0.120285 0
M  V30 24327 H 2270.3 -4.15545 -0.266757 0
M  V30 24328 H 2272.89 -4.40063 -3.03724 0
M  V30 24329 H 2273.24 -2.69361 -3.17412 0
M  V30 24330 H 2273.77 -3.58352 -1.72709 0
M  V30 24331 H 2270.51 -6.48324 -0.967293 0
M  V30 24332 H 2270.03 -5.50779 -2.37493 0
M  V30 24333 H 2271.71 -6.07972 -2.21312 0
M  V30 24334 N 2271.84 0.489844 -1.49794 0
M  V30 24335 C 2272.79 1.59011 -1.67284 0
M  V30 24336 C 2273.76 1.5794 -0.514204 0
M  V30 24337 O 2274.94 1.75757 -0.742564 0
M  V30 24338 C 2272.08 2.97099 -1.75574 0
M  V30 24339 C 2271.19 3.08102 -3.02816 0
M  V30 24340 C 2270.33 4.3699 -3.02016 0
M  V30 24341 C 2269.37 4.41666 -4.2379 0
M  V30 24342 N 2268.51 5.61998 -4.20836 0
M  V30 24343 H 2273.35 1.43405 -2.61226 0
M  V30 24344 H 2270.88 0.697542 -1.2951 0
M  V30 24345 H 2272.84 3.77152 -1.78361 0
M  V30 24346 H 2271.47 3.11384 -0.850882 0
M  V30 24347 H 2270.52 2.21041 -3.09588 0
M  V30 24348 H 2271.83 3.07416 -3.92806 0
M  V30 24349 H 2270.99 5.25373 -3.03427 0
M  V30 24350 H 2269.73 4.40256 -2.09823 0
M  V30 24351 H 2268.73 3.51683 -4.2261 0
M  V30 24352 H 2269.96 4.40106 -5.17188 0
M  V30 24353 H 2267.9 5.66086 -3.31486 0
M  V30 24354 H 2267.82 5.62976 -5.04574 0
M  V30 24355 H 2269.09 6.52558 -4.26367 0
M  V30 24356 N 2273.32 1.39056 0.741698 0
M  V30 24357 C 2274.55 1.39174 1.53095 0
M  V30 24358 C 2274.96 -0.0154767 1.88794 0
M  V30 24359 O 2274.32 -0.985132 1.53627 0
M  V30 24360 C 2274.37 2.25845 2.8227 0
M  V30 24361 O 2274.09 3.61086 2.4809 0
M  V30 24362 C 2275.59 2.34273 3.76339 0
M  V30 24363 H 2272.81 0.475608 0.473327 0
M  V30 24364 H 2275.35 1.82787 0.917013 0
M  V30 24365 H 2273.51 1.85662 3.40012 0
M  V30 24366 H 2273.92 4.06848 3.31021 0
M  V30 24367 H 2275.4 2.99178 4.63893 0
M  V30 24368 H 2275.87 1.35989 4.17617 0
M  V30 24369 H 2276.48 2.74896 3.24518 0
M  V30 24370 N 2274.8 -0.971167 1.24121 0
M  V30 24371 C 2275.71 -2.09915 1.04751 0
M  V30 24372 C 2276.72 -1.73997 -0.0106856 0
M  V30 24373 O 2277.9 -2.00532 0.186749 0
M  V30 24374 C 2274.96 -3.40535 0.650888 0
M  V30 24375 C 2274.02 -3.90423 1.78517 0
M  V30 24376 C 2273.26 -5.14809 1.40738 0
M  V30 24377 O 2273.48 -5.69633 0.29567 0
M  V30 24378 O 2272.41 -5.58995 2.23178 0
M  V30 24379 H 2276.24 -2.29151 1.99308 0
M  V30 24380 H 2273.82 -1.08305 1.0291 0
M  V30 24381 H 2275.71 -4.19085 0.441066 0
M  V30 24382 H 2274.38 -3.22609 -0.265592 0
M  V30 24383 H 2273.29 -3.1295 2.04972 0
M  V30 24384 H 2274.62 -4.1282 2.6803 0
M  V30 24385 N 2276.27 -1.05441 -1.17133 0
M  V30 24386 C 2277.52 -0.764462 -1.87084 0
M  V30 24387 C 2277.84 0.710755 -1.81585 0
M  V30 24388 O 2277.11 1.51372 -1.24352 0
M  V30 24389 H 2275.69 -0.279791 -0.692622 0
M  V30 24390 H 2278.36 -1.33409 -1.42085 0
M  V30 24391 H 2277.45 -1.08165 -2.92757 0
M  V30 24392 N 2277.75 1.33613 -0.835776 0
M  V30 24393 C 2278.7 2.31195 -0.255278 0
M  V30 24394 C 2279.69 1.57996 0.611042 0
M  V30 24395 O 2280.9 1.72889 0.500948 0
M  V30 24396 H 2277.28 0.749287 -0.0638217 0
M  V30 24397 H 2279.25 2.77667 -1.09288 0
M  V30 24398 C 2278 3.43202 0.55748 0
M  V30 24399 H 2277.32 3.99675 -0.0998256 0
M  V30 24400 H 2278.76 4.13685 0.929549 0
M  V30 24401 C 2277.22 2.88784 1.7351 0
M  V30 24402 O 2277.75 2.84717 2.83371 0
M  V30 24403 N 2275.95 2.45433 1.55599 0
M  V30 24404 H 2275.5 2.4894 0.662311 0
M  V30 24405 H 2275.46 2.09375 2.34541 0
M  V30 24406 N 2279.23 0.591922 1.46062 0
M  V30 24407 C 2280.16 -0.123632 2.33172 0
M  V30 24408 C 2281.14 -0.874505 1.45899 0
M  V30 24409 O 2282.33 -0.84815 1.747 0
M  V30 24410 C 2279.46 -1.13188 3.28338 0
M  V30 24411 C 2278.41 -0.495249 4.25125 0
M  V30 24412 C 2277.74 -1.61063 5.09866 0
M  V30 24413 C 2279.04 0.573516 5.19142 0
M  V30 24414 H 2280.73 0.603698 2.9325 0
M  V30 24415 H 2278.28 0.291766 1.41013 0
M  V30 24416 H 2280.23 -1.6409 3.8814 0
M  V30 24417 H 2278.95 -1.8896 2.66386 0
M  V30 24418 H 2277.61 -0.00723008 3.66599 0
M  V30 24419 H 2277.26 -2.35824 4.44293 0
M  V30 24420 H 2276.96 -1.19025 5.75419 0
M  V30 24421 H 2278.48 -2.12223 5.72533 0
M  V30 24422 H 2279.9 0.149201 5.73106 0
M  V30 24423 H 2278.3 0.91474 5.93087 0
M  V30 24424 H 2279.37 1.45625 4.62516 0
M  V30 24425 N 2280.71 -1.54102 0.330204 0
M  V30 24426 C 2281.62 -2.28265 -0.541493 0
M  V30 24427 C 2282.63 -1.32868 -1.12349 0
M  V30 24428 O 2283.81 -1.6589 -1.14203 0
M  V30 24429 C 2280.88 -3.03101 -1.68317 0
M  V30 24430 C 2279.94 -4.14098 -1.13231 0
M  V30 24431 C 2279.17 -4.85356 -2.21958 0
M  V30 24432 O 2279.39 -4.56178 -3.42429 0
M  V30 24433 O 2278.33 -5.72113 -1.87003 0
M  V30 24434 H 2282.15 -3.03639 0.0609914 0
M  V30 24435 H 2279.74 -1.49093 0.0956762 0
M  V30 24436 H 2281.62 -3.49944 -2.34771 0
M  V30 24437 H 2280.29 -2.30597 -2.27171 0
M  V30 24438 H 2279.2 -3.7159 -0.432671 0
M  V30 24439 H 2280.53 -4.88665 -0.588812 0
M  V30 24440 N 2282.19 -0.0585199 -1.57491 0
M  V30 24441 C 2283.12 0.942657 -2.08918 0
M  V30 24442 C 2284.13 1.27004 -1.01852 0
M  V30 24443 O 2285.32 1.22954 -1.294 0
M  V30 24444 C 2282.42 2.26219 -2.52345 0
M  V30 24445 C 2281.59 2.11564 -3.82831 0
M  V30 24446 C 2280.65 3.26705 -4.12493 0
M  V30 24447 O 2279.68 3.02283 -4.823 0
M  V30 24448 N 2280.88 4.51404 -3.64986 0
M  V30 24449 H 2283.65 0.503671 -2.95437 0
M  V30 24450 H 2281.21 0.127541 -1.61397 0
M  V30 24451 H 2283.2 3.02128 -2.69259 0
M  V30 24452 H 2281.77 2.6166 -1.71034 0
M  V30 24453 H 2280.99 1.20201 -3.75427 0
M  V30 24454 H 2282.28 1.99007 -4.68267 0
M  V30 24455 H 2281.67 4.74134 -3.08566 0
M  V30 24456 H 2280.23 5.24383 -3.87125 0
M  V30 24457 N 2283.66 1.56128 0.21493 0
M  V30 24458 C 2284.63 1.92118 1.24994 0
M  V30 24459 C 2285.63 0.800369 1.39466 0
M  V30 24460 O 2286.82 1.06804 1.37617 0
M  V30 24461 C 2283.95 2.17781 2.62267 0
M  V30 24462 H 2285.14 2.84694 0.942825 0
M  V30 24463 H 2282.7 1.49512 0.455627 0
M  V30 24464 H 2283.43 1.27778 2.98066 0
M  V30 24465 H 2283.22 2.99439 2.53138 0
M  V30 24466 H 2284.71 2.46699 3.36941 0
M  V30 24467 N 2285.14 -0.481893 1.50052 0
M  V30 24468 C 2286.09 -1.602 1.68637 0
M  V30 24469 C 2287.08 -1.60147 0.552212 0
M  V30 24470 O 2288.29 -1.64426 0.732406 0
M  V30 24471 H 2284.67 -0.531398 0.53209 0
M  V30 24472 H 2286.64 -1.41683 2.62619 0
M  V30 24473 C 2285.39 -2.98216 1.7878 0
M  V30 24474 H 2284.71 -2.98972 2.65435 0
M  V30 24475 H 2286.15 -3.76076 1.95813 0
M  V30 24476 C 2284.61 -3.32594 0.536907 0
M  V30 24477 O 2285.14 -4.00352 -0.328827 0
M  V30 24478 N 2283.34 -2.87915 0.394141 0
M  V30 24479 H 2282.89 -2.32949 1.09967 0
M  V30 24480 H 2282.85 -3.11282 -0.441683 0
M  V30 24481 N 2286.62 -1.39448 -0.734313 0
M  V30 24482 C 2287.55 -1.34124 -1.85859 0
M  V30 24483 C 2288.57 -0.249892 -1.60871 0
M  V30 24484 O 2289.75 -0.508895 -1.71092 0
M  V30 24485 C 2286.85 -1.05997 -3.21897 0
M  V30 24486 C 2286.03 -2.26422 -3.74235 0
M  V30 24487 C 2285.09 -1.94741 -4.88838 0
M  V30 24488 O 2284.11 -2.67431 -5.02463 0
M  V30 24489 N 2285.31 -0.913985 -5.7326 0
M  V30 24490 H 2288.08 -2.31011 -1.9093 0
M  V30 24491 H 2285.64 -1.33559 -0.915079 0
M  V30 24492 H 2287.63 -0.828217 -3.96135 0
M  V30 24493 H 2286.2 -0.178416 -3.1209 0
M  V30 24494 H 2285.42 -2.65544 -2.91342 0
M  V30 24495 H 2286.71 -3.06745 -4.05937 0
M  V30 24496 H 2286.11 -0.311576 -5.64841 0
M  V30 24497 H 2284.67 -0.742128 -6.47561 0
M  V30 24498 N 2288.1 0.964571 -1.24635 0
M  V30 24499 C 2289.01 2.09357 -1.05863 0
M  V30 24500 C 2290.02 1.74 0.00145797 0
M  V30 24501 O 2291.2 2.0043 -0.197381 0
M  V30 24502 C 2288.27 3.40185 -0.668938 0
M  V30 24503 C 2287.33 3.89471 -1.80585 0
M  V30 24504 C 2286.56 5.14056 -1.43466 0
M  V30 24505 O 2286.78 5.69468 -0.325875 0
M  V30 24506 O 2285.72 5.57803 -2.26139 0
M  V30 24507 H 2289.54 2.28091 -2.0052 0
M  V30 24508 H 2287.13 1.07758 -1.03482 0
M  V30 24509 H 2289.01 4.18846 -0.463285 0
M  V30 24510 H 2287.68 3.22745 0.24848 0
M  V30 24511 H 2286.59 3.11858 -2.06628 0
M  V30 24512 H 2287.92 4.11393 -2.70216 0
M  V30 24513 N 2289.58 1.0606 1.16572 0
M  V30 24514 C 2290.51 0.690527 2.23056 0
M  V30 24515 C 2291.49 -0.315871 1.67141 0
M  V30 24516 O 2292.67 -0.191522 1.93253 0
M  V30 24517 C 2289.8 0.073686 3.47222 0
M  V30 24518 C 2288.76 1.0058 4.16014 0
M  V30 24519 C 2288.08 0.252383 5.34104 0
M  V30 24520 C 2289.38 2.33379 4.6726 0
M  V30 24521 H 2291.08 1.58077 2.54268 0
M  V30 24522 H 2288.62 0.761512 1.22217 0
M  V30 24523 H 2290.58 -0.197066 4.20939 0
M  V30 24524 H 2289.3 -0.851555 3.15303 0
M  V30 24525 H 2287.96 1.26126 3.44221 0
M  V30 24526 H 2287.61 -0.675901 4.98438 0
M  V30 24527 H 2287.31 0.873557 5.8107 0
M  V30 24528 H 2288.83 -0.0108784 6.10599 0
M  V30 24529 H 2290.24 2.12233 5.32569 0
M  V30 24530 H 2288.64 2.90973 5.24838 0
M  V30 24531 H 2289.71 2.96617 3.83596 0
M  V30 24532 N 2291.06 -1.33168 0.84285 0
M  V30 24533 C 2292.47 -1.50502 0.531154 0
M  V30 24534 C 2292.67 -1.78194 -0.940702 0
M  V30 24535 O 2291.73 -1.84454 -1.72432 0
M  V30 24536 C 2293.04 -2.65702 1.40794 0
M  V30 24537 C 2294.59 -2.79587 1.40713 0
M  V30 24538 C 2295.06 -3.97853 2.26885 0
M  V30 24539 N 2296.55 -4.05095 2.24616 0
M  V30 24540 C 2297.29 -4.9581 2.88028 0
M  V30 24541 N 2296.79 -5.91614 3.60507 0
M  V30 24542 N 2298.58 -4.88838 2.77477 0
M  V30 24543 H 2290.73 -1.13457 1.79559 0
M  V30 24544 H 2292.99 -0.558143 0.766277 0
M  V30 24545 H 2292.7 -2.51932 2.45404 0
M  V30 24546 H 2292.57 -3.61203 1.08683 0
M  V30 24547 H 2294.96 -2.92787 0.36872 0
M  V30 24548 H 2295.04 -1.84835 1.76832 0
M  V30 24549 H 2294.68 -3.85412 3.30787 0
M  V30 24550 H 2294.61 -4.91858 1.88105 0
M  V30 24551 H 2297.11 -3.36533 1.71912 0
M  V30 24552 H 2297.42 -6.57505 4.06088 0
M  V30 24553 H 2295.76 -5.91677 3.64614 0
M  V30 24554 H 2298.95 -4.12959 2.20413 0
M  V30 24555 H 2299.13 -5.59336 3.2718 0
M  V30 24556 N 2292.53 -0.599659 -1.45746 0
M  V30 24557 C 2293.78 -0.0893865 -2.01502 0
M  V30 24558 C 2294.1 1.28485 -1.47482 0
M  V30 24559 O 2295.3 1.88741 -1.95164 0
M  V30 24560 C 2293.76 -0.109145 -3.59734 0
M  V30 24561 C 2293.37 -1.48274 -4.22751 0
M  V30 24562 C 2295.11 0.346299 -4.23085 0
M  V30 24563 C 2293.02 -1.45931 -5.73113 0
M  V30 24564 H 2291.95 -0.029648 -0.753417 0
M  V30 24565 H 2294.6 -0.753818 -1.67302 0
M  V30 24566 H 2292.98 0.621785 -3.91088 0
M  V30 24567 H 2294.15 -2.23475 -4.02983 0
M  V30 24568 H 2292.47 -1.87962 -3.71563 0
M  V30 24569 H 2295.07 0.382886 -5.33327 0
M  V30 24570 H 2295.41 1.36736 -3.93203 0
M  V30 24571 H 2295.94 -0.331107 -3.9642 0
M  V30 24572 H 2292.68 -2.45773 -6.07681 0
M  V30 24573 H 2292.2 -0.749769 -5.95095 0
M  V30 24574 H 2293.88 -1.17952 -6.36157 0
M  V30 24575 N 2294.01 1.53925 -0.338371 0
M  V30 24576 C 2295.26 2.01125 0.260108 0
M  V30 24577 C 2295.59 1.22592 1.50615 0
M  V30 24578 O 2294.87 0.312147 1.91979 0
M  V30 24579 C 2295.15 3.55408 0.579437 0
M  V30 24580 C 2295 4.44656 -0.678342 0
M  V30 24581 C 2296.32 4.17535 1.39114 0
M  V30 24582 H 2293.44 0.731101 0.0930644 0
M  V30 24583 H 2296.08 1.844 -0.457884 0
M  V30 24584 H 2294.23 3.6979 1.19112 0
M  V30 24585 H 2295.9 4.42119 -1.31639 0
M  V30 24586 H 2294.15 4.13728 -1.30427 0
M  V30 24587 H 2294.82 5.50473 -0.41024 0
M  V30 24588 H 2297.29 4.06818 0.873963 0
M  V30 24589 H 2296.17 5.25568 1.58333 0
M  V30 24590 H 2296.43 3.71819 2.39171 0
M  V30 24591 N 2295.49 0.0668712 1.57458 0
M  V30 24592 C 2296.74 -0.602913 1.92478 0
M  V30 24593 C 2297.05 -1.71067 0.948449 0
M  V30 24594 O 2298.26 -2.43968 1.19129 0
M  V30 24595 C 2296.71 -1.12377 3.41905 0
M  V30 24596 C 2296.32 -0.0472913 4.47975 0
M  V30 24597 C 2298.07 -1.7679 3.85934 0
M  V30 24598 C 2295.97 -0.581919 5.8853 0
M  V30 24599 H 2294.9 -0.228977 0.718391 0
M  V30 24600 H 2297.55 0.138308 1.82978 0
M  V30 24601 H 2295.94 -1.91781 3.46462 0
M  V30 24602 H 2297.11 0.727058 4.55028 0
M  V30 24603 H 2295.42 0.500316 4.13383 0
M  V30 24604 H 2298.02 -2.17813 4.88325 0
M  V30 24605 H 2298.36 -2.62593 3.23033 0
M  V30 24606 H 2298.9 -1.04017 3.8396 0
M  V30 24607 H 2295.64 0.238836 6.55065 0
M  V30 24608 H 2295.16 -1.3239 5.85007 0
M  V30 24609 H 2296.84 -1.05988 6.3826 0
M  V30 24610 N 2296.97 -1.56239 -0.206647 0
M  V30 24611 C 2297.91 -1.93623 -1.25614 0
M  V30 24612 C 2298.88 -0.7953 -1.45822 0
M  V30 24613 O 2300.07 -1.05248 -1.59146 0
M  V30 24614 C 2297.21 -2.27111 -2.59835 0
M  V30 24615 C 2296.32 -3.54212 -2.47302 0
M  V30 24616 C 2295.46 -3.77076 -3.74148 0
M  V30 24617 C 2294.5 -4.97641 -3.56398 0
M  V30 24618 N 2293.63 -5.16819 -4.75229 0
M  V30 24619 H 2298.47 -2.83106 -0.930333 0
M  V30 24620 H 2296.01 -1.40111 -0.448041 0
M  V30 24621 H 2297.97 -2.44541 -3.38017 0
M  V30 24622 H 2296.6 -1.40784 -2.90482 0
M  V30 24623 H 2295.65 -3.44893 -1.60477 0
M  V30 24624 H 2296.96 -4.42548 -2.30114 0
M  V30 24625 H 2296.12 -3.94683 -4.60771 0
M  V30 24626 H 2294.86 -2.87049 -3.94277 0
M  V30 24627 H 2293.86 -4.79969 -2.6816 0
M  V30 24628 H 2295.09 -5.89167 -3.37726 0
M  V30 24629 H 2293.03 -4.29736 -4.95644 0
M  V30 24630 H 2292.95 -5.99314 -4.60824 0
M  V30 24631 H 2294.22 -5.38874 -5.63236 0
M  V30 24632 N 2298.45 0.473929 -1.50305 0
M  V30 24633 C 2299.39 1.57228 -1.68961 0
M  V30 24634 C 2300.36 1.57386 -0.530927 0
M  V30 24635 O 2301.55 1.7496 -0.761164 0
M  V30 24636 C 2298.69 2.9522 -1.78715 0
M  V30 24637 C 2297.8 3.04872 -3.06067 0
M  V30 24638 C 2296.94 4.33762 -3.06633 0
M  V30 24639 C 2295.97 4.37146 -4.2845 0
M  V30 24640 N 2295.11 5.57503 -4.26773 0
M  V30 24641 H 2299.95 1.40626 -2.62732 0
M  V30 24642 H 2297.49 0.683766 -1.30242 0
M  V30 24643 H 2299.45 3.75239 -1.82351 0
M  V30 24644 H 2298.08 3.10464 -0.88386 0
M  V30 24645 H 2297.13 2.17745 -3.11915 0
M  V30 24646 H 2298.44 3.03233 -3.96045 0
M  V30 24647 H 2297.59 5.22125 -3.08983 0
M  V30 24648 H 2296.33 4.38006 -2.1448 0
M  V30 24649 H 2295.34 3.47181 -4.26316 0
M  V30 24650 H 2296.56 4.34595 -5.21827 0
M  V30 24651 H 2294.51 5.62538 -3.37472 0
M  V30 24652 H 2294.43 5.57592 -5.10516 0
M  V30 24653 H 2295.69 6.47999 -4.33264 0
M  V30 24654 N 2299.92 1.39835 0.726907 0
M  V30 24655 C 2301.17 1.36808 1.48211 0
M  V30 24656 C 2301.49 -0.0304947 1.95576 0
M  V30 24657 O 2302.69 -0.18337 2.7088 0
M  V30 24658 C 2301.15 2.40384 2.6785 0
M  V30 24659 C 2300.76 3.85996 2.27401 0
M  V30 24660 C 2302.5 2.46445 3.45637 0
M  V30 24661 C 2300.41 4.81195 3.43811 0
M  V30 24662 H 2299.34 0.508641 0.556597 0
M  V30 24663 H 2301.99 1.65519 0.792187 0
M  V30 24664 H 2300.37 2.04755 3.38957 0
M  V30 24665 H 2301.54 4.30709 1.63788 0
M  V30 24666 H 2299.86 3.83304 1.62686 0
M  V30 24667 H 2302.46 3.1476 4.32238 0
M  V30 24668 H 2302.8 1.49146 3.88666 0
M  V30 24669 H 2303.33 2.81009 2.81565 0
M  V30 24670 H 2300.07 5.79786 3.05824 0
M  V30 24671 H 2299.59 4.41155 4.06377 0
M  V30 24672 H 2301.27 5.00481 4.10034 0
M  V30 24673 N 2301.4 -0.957948 1.25144 0
M  V30 24674 C 2302.65 -1.70529 1.10866 0
M  V30 24675 C 2303 -1.89238 -0.347357 0
M  V30 24676 O 2302.3 -1.44985 -1.25259 0
M  V30 24677 C 2302.49 -3.09183 1.79277 0
M  V30 24678 C 2302.32 -3.04001 3.31382 0
M  V30 24679 C 2301.09 -3.07941 4.00625 0
M  V30 24680 C 2303.29 -2.85423 4.2783 0
M  V30 24681 N 2301.27 -2.9288 5.39532 0
M  V30 24682 C 2302.64 -2.78759 5.53799 0
M  V30 24683 C 2304.69 -2.70078 4.18285 0
M  V30 24684 C 2303.4 -2.58319 6.71315 0
M  V30 24685 C 2305.42 -2.51007 5.3549 0
M  V30 24686 C 2304.79 -2.45061 6.60397 0
M  V30 24687 H 2300.88 -0.632124 0.460373 0
M  V30 24688 H 2303.47 -1.13497 1.58198 0
M  V30 24689 H 2301.64 -3.64389 1.34445 0
M  V30 24690 H 2303.37 -3.7268 1.57771 0
M  V30 24691 H 2300.13 -3.17003 3.51861 0
M  V30 24692 H 2300.55 -2.88564 6.12421 0
M  V30 24693 H 2305.19 -2.73451 3.22466 0
M  V30 24694 H 2302.91 -2.53688 7.67247 0
M  V30 24695 H 2306.5 -2.40064 5.29963 0
M  V30 24696 H 2305.38 -2.30496 7.49561 0
M  V30 24697 N 2302.88 -1.06677 -1.16008 0
M  V30 24698 C 2303.83 -0.681006 -2.20524 0
M  V30 24699 C 2304.8 0.324255 -1.62904 0
M  V30 24700 O 2305.98 0.21226 -1.89616 0
M  V30 24701 C 2303.12 -0.0777158 -3.45012 0
M  V30 24702 C 2302.23 -1.13362 -4.16861 0
M  V30 24703 C 2301.37 -0.496063 -5.28879 0
M  V30 24704 C 2300.41 -1.53524 -5.92534 0
M  V30 24705 N 2299.55 -0.920754 -6.96036 0
M  V30 24706 H 2304.39 -1.57667 -2.52874 0
M  V30 24707 H 2301.92 -0.788245 -1.24198 0
M  V30 24708 H 2303.88 0.28963 -4.16193 0
M  V30 24709 H 2302.51 0.781338 -3.13201 0
M  V30 24710 H 2301.56 -1.61863 -3.44245 0
M  V30 24711 H 2302.87 -1.92182 -4.6029 0
M  V30 24712 H 2302.03 -0.0759671 -6.06652 0
M  V30 24713 H 2300.77 0.323976 -4.86623 0
M  V30 24714 H 2299.77 -1.96519 -5.13479 0
M  V30 24715 H 2301 -2.35744 -6.36869 0
M  V30 24716 H 2298.94 -0.121495 -6.55887 0
M  V30 24717 H 2298.86 -1.64629 -7.37857 0
M  V30 24718 H 2300.13 -0.525932 -7.77724 0
M  V30 24719 N 2304.36 1.32719 -0.8499 0
M  V30 24720 C 2305.77 1.50218 -0.539128 0
M  V30 24721 C 2305.97 1.7869 0.931239 0
M  V30 24722 O 2305.03 1.85366 1.71452 0
M  V30 24723 C 2306.34 2.64952 -1.42201 0
M  V30 24724 C 2307.89 2.78837 -1.42194 0
M  V30 24725 C 2308.37 3.96644 -2.28992 0
M  V30 24726 N 2309.86 4.03898 -2.26761 0
M  V30 24727 C 2310.59 4.94276 -2.90653 0
M  V30 24728 N 2310.09 5.89693 -3.63639 0
M  V30 24729 N 2311.88 4.8736 -2.80066 0
M  V30 24730 H 2304.03 1.12503 -1.80158 0
M  V30 24731 H 2306.29 0.554071 -0.769226 0
M  V30 24732 H 2306 2.50627 -2.46737 0
M  V30 24733 H 2305.87 3.60622 -1.10597 0
M  V30 24734 H 2308.26 2.92588 -0.384242 0
M  V30 24735 H 2308.34 1.83895 -1.7781 0
M  V30 24736 H 2307.99 3.83652 -3.32826 0
M  V30 24737 H 2307.92 4.90853 -1.9071 0
M  V30 24738 H 2310.41 3.35617 -1.73694 0
M  V30 24739 H 2310.72 6.55342 -4.09569 0
M  V30 24740 H 2309.07 5.89735 -3.67747 0
M  V30 24741 H 2312.26 4.11785 -2.226 0
M  V30 24742 H 2312.43 5.57593 -3.30142 0
M  V30 24743 N 2305.84 0.60738 1.45426 0
M  V30 24744 C 2306.77 -0.160442 2.27635 0
M  V30 24745 C 2307.75 -0.873832 1.37124 0
M  V30 24746 O 2308.93 -0.882745 1.66553 0
M  V30 24747 C 2306.06 -1.23226 3.15489 0
M  V30 24748 C 2305.1 -0.622023 4.2194 0
M  V30 24749 S 2305.94 0.569945 5.32458 0
M  V30 24750 C 2307.09 -0.502467 6.2388 0
M  V30 24751 H 2307.33 0.537035 2.92409 0
M  V30 24752 H 2304.86 0.394894 1.49265 0
M  V30 24753 H 2306.82 -1.84578 3.66662 0
M  V30 24754 H 2305.48 -1.9018 2.4998 0
M  V30 24755 H 2304.67 -1.42847 4.83333 0
M  V30 24756 H 2304.27 -0.0836406 3.73906 0
M  V30 24757 H 2306.57 -1.38159 6.63263 0
M  V30 24758 H 2307.51 0.0753003 7.0806 0
M  V30 24759 H 2307.92 -0.817702 5.58546 0
M  V30 24760 N 2307.31 -1.53743 0.34653 0
M  V30 24761 C 2308.26 -2.2512 -0.508874 0
M  V30 24762 C 2309.23 -1.2506 -1.09313 0
M  V30 24763 O 2310.42 -1.53799 -1.12918 0
M  V30 24764 C 2307.56 -3.02968 -1.65241 0
M  V30 24765 C 2306.67 -4.17888 -1.09517 0
M  V30 24766 C 2305.8 -4.83216 -2.20625 0
M  V30 24767 C 2304.84 -5.90199 -1.62269 0
M  V30 24768 N 2303.98 -6.49296 -2.67131 0
M  V30 24769 H 2308.82 -2.9781 0.106336 0
M  V30 24770 H 2306.36 -1.4696 0.0642485 0
M  V30 24771 H 2308.32 -3.46364 -2.32568 0
M  V30 24772 H 2306.95 -2.32569 -2.23856 0
M  V30 24773 H 2306 -3.79112 -0.312751 0
M  V30 24774 H 2307.31 -4.94826 -0.628357 0
M  V30 24775 H 2306.46 -5.29699 -2.95811 0
M  V30 24776 H 2305.2 -4.05708 -2.70652 0
M  V30 24777 H 2304.21 -5.43097 -0.855893 0
M  V30 24778 H 2305.43 -6.69617 -1.1309 0
M  V30 24779 H 2303.38 -5.7465 -3.16407 0
M  V30 24780 H 2303.3 -7.21717 -2.25081 0
M  V30 24781 H 2304.56 -7.00431 -3.42077 0
M  V30 24782 N 2308.79 -0.0752207 -1.5742 0
M  V30 24783 C 2309.72 0.920446 -2.09906 0
M  V30 24784 C 2310.74 1.25916 -1.03194 0
M  V30 24785 O 2311.93 1.21575 -1.30697 0
M  V30 24786 C 2309.03 2.2353 -2.5473 0
M  V30 24787 C 2308.2 2.07491 -3.85053 0
M  V30 24788 C 2307.26 3.22311 -4.15935 0
M  V30 24789 O 2306.28 2.97151 -4.85479 0
M  V30 24790 N 2307.49 4.47507 -3.69753 0
M  V30 24791 H 2310.25 0.472307 -2.95955 0
M  V30 24792 H 2307.81 0.110416 -1.61523 0
M  V30 24793 H 2309.8 2.99255 -2.72449 0
M  V30 24794 H 2308.37 2.59831 -1.738 0
M  V30 24795 H 2307.59 1.16213 -3.76681 0
M  V30 24796 H 2308.88 1.94029 -4.70351 0
M  V30 24797 H 2308.28 4.70835 -3.13578 0
M  V30 24798 H 2306.84 5.20248 -3.92665 0
M  V30 24799 N 2310.27 1.56347 0.198358 0
M  V30 24800 C 2311.22 1.94286 1.24585 0
M  V30 24801 C 2312.19 0.803022 1.45399 0
M  V30 24802 O 2313.37 1.0609 1.58586 0
M  V30 24803 C 2310.51 2.28486 2.58627 0
M  V30 24804 C 2309.63 3.55518 2.4542 0
M  V30 24805 C 2308.76 3.79055 3.72143 0
M  V30 24806 C 2307.8 4.99524 3.53754 0
M  V30 24807 N 2306.94 5.19332 4.72482 0
M  V30 24808 H 2311.78 2.83595 0.915307 0
M  V30 24809 H 2309.31 1.40346 0.440604 0
M  V30 24810 H 2311.27 2.4633 3.36715 0
M  V30 24811 H 2309.9 1.42322 2.89731 0
M  V30 24812 H 2308.95 3.45739 1.58646 0
M  V30 24813 H 2310.27 4.43762 2.27764 0
M  V30 24814 H 2309.42 3.97121 4.58672 0
M  V30 24815 H 2308.16 2.89135 3.92749 0
M  V30 24816 H 2307.16 4.81384 2.65611 0
M  V30 24817 H 2308.39 5.9095 3.34597 0
M  V30 24818 H 2306.33 4.32359 4.93358 0
M  V30 24819 H 2306.25 6.01749 4.57639 0
M  V30 24820 H 2307.52 5.41853 5.60371 0
M  V30 24821 N 2311.75 -0.465951 1.50554 0
M  V30 24822 C 2312.68 -1.57125 1.72725 0
M  V30 24823 C 2313.66 -1.60039 0.576322 0
M  V30 24824 O 2314.84 -1.76224 0.816011 0
M  V30 24825 C 2311.97 -2.95416 1.82611 0
M  V30 24826 C 2310.93 -3.07368 2.9784 0
M  V30 24827 C 2310.25 -4.47357 2.92875 0
M  V30 24828 C 2311.55 -2.84106 4.3827 0
M  V30 24829 H 2313.25 -1.38825 2.6527 0
M  V30 24830 H 2310.79 -0.666418 1.27651 0
M  V30 24831 H 2312.75 -3.72673 1.96705 0
M  V30 24832 H 2311.47 -3.14884 0.866914 0
M  V30 24833 H 2310.13 -2.32545 2.83405 0
M  V30 24834 H 2309.78 -4.63752 1.94791 0
M  V30 24835 H 2309.48 -4.56289 3.70235 0
M  V30 24836 H 2311 -5.26627 3.09024 0
M  V30 24837 H 2312.42 -3.5111 4.53205 0
M  V30 24838 H 2310.81 -3.04478 5.1712 0
M  V30 24839 H 2311.88 -1.79923 4.50284 0
M  V30 24840 N 2313.23 -1.40218 -0.719481 0
M  V30 24841 C 2314.16 -1.42925 -1.84647 0
M  V30 24842 C 2315.14 -0.290649 -1.67598 0
M  V30 24843 O 2316.32 -0.49871 -1.87687 0
M  V30 24844 C 2313.45 -1.28728 -3.22562 0
M  V30 24845 C 2312.41 -2.4015 -3.54277 0
M  V30 24846 C 2311.73 -2.11032 -4.91294 0
M  V30 24847 C 2313.03 -3.82487 -3.5567 0
M  V30 24848 H 2314.73 -2.37241 -1.8264 0
M  V30 24849 H 2312.27 -1.14192 -0.877285 0
M  V30 24850 H 2314.23 -1.29239 -4.01093 0
M  V30 24851 H 2312.95 -0.308868 -3.25136 0
M  V30 24852 H 2311.61 -2.38882 -2.78084 0
M  V30 24853 H 2311.26 -1.11591 -4.90466 0
M  V30 24854 H 2310.96 -2.85679 -5.1348 0
M  V30 24855 H 2312.48 -2.13219 -5.72163 0
M  V30 24856 H 2313.89 -3.856 -4.24247 0
M  V30 24857 H 2312.29 -4.56621 -3.8938 0
M  V30 24858 H 2313.36 -4.12351 -2.55137 0
M  V30 24859 N 2314.7 0.951297 -1.25651 0
M  V30 24860 C 2315.98 1.67286 -1.01364 0
M  V30 24861 C 2316.36 2.06047 0.459099 0
M  V30 24862 O 2315.71 1.77642 1.4372 0
M  V30 24863 C 2315.92 2.89264 -1.95262 0
M  V30 24864 C 2317.27 3.61143 -2.23296 0
M  V30 24865 O 2318.29 2.99352 -1.93046 0
M  V30 24866 O 2317.15 4.72414 -2.74749 0
M  V30 24867 H 2314.24 0.7321 -0.384653 0
M  V30 24868 H 2316.79 1.00393 -1.36819 0
M  V30 24869 H 2315.56 2.57437 -2.9469 0
M  V30 24870 H 2315.19 3.63887 -1.60224 0
M  V30 24871 N 2316.18 1.07291 1.1544 0
M  V30 24872 C 2317.09 0.704096 2.23785 0
M  V30 24873 C 2318.11 -0.284383 1.7166 0
M  V30 24874 O 2319.28 -0.13117 2.00972 0
M  V30 24875 C 2316.35 0.106853 3.46535 0
M  V30 24876 C 2315.41 1.14849 4.13652 0
M  V30 24877 C 2314.64 0.579653 5.30543 0
M  V30 24878 O 2314.87 -0.604485 5.67188 0
M  V30 24879 O 2313.8 1.32424 5.87152 0
M  V30 24880 H 2317.63 1.60761 2.57662 0
M  V30 24881 H 2315.21 0.845825 1.23151 0
M  V30 24882 H 2317.09 -0.223974 4.20804 0
M  V30 24883 H 2315.77 -0.769994 3.14409 0
M  V30 24884 H 2314.68 1.53166 3.41308 0
M  V30 24885 H 2316.01 1.99722 4.49858 0
M  V30 24886 N 2317.66 -1.32267 0.856927 0
M  V30 24887 C 2318.91 -1.97465 0.462104 0
M  V30 24888 C 2319.24 -1.67644 -0.980269 0
M  V30 24889 O 2318.51 -0.965888 -1.68822 0
M  V30 24890 C 2318.8 -3.53143 0.704398 0
M  V30 24891 C 2318.65 -3.92587 2.19536 0
M  V30 24892 C 2319.97 -4.39801 0.162278 0
M  V30 24893 H 2317.09 -0.717275 0.169369 0
M  V30 24894 H 2319.73 -1.56612 1.07577 0
M  V30 24895 H 2317.88 -3.88073 0.182067 0
M  V30 24896 H 2319.55 -3.67824 2.78394 0
M  V30 24897 H 2317.8 -3.41664 2.67298 0
M  V30 24898 H 2318.47 -5.01084 2.31557 0
M  V30 24899 H 2320.94 -4.1162 0.608978 0
M  V30 24900 H 2319.82 -5.47709 0.361361 0
M  V30 24901 H 2320.08 -4.32098 -0.935082 0
M  V30 24902 N 2319.14 -0.615084 -1.45102 0
M  V30 24903 C 2320.39 -0.110753 -2.01396 0
M  V30 24904 C 2320.7 1.26914 -1.48836 0
M  V30 24905 O 2321.91 1.86661 -1.97155 0
M  V30 24906 C 2320.36 -0.147293 -3.59598 0
M  V30 24907 C 2319.97 -1.5275 -4.21155 0
M  V30 24908 C 2321.71 0.301406 -4.23429 0
M  V30 24909 C 2319.62 -1.52002 -5.71533 0
M  V30 24910 H 2318.55 -0.0376373 -0.75306 0
M  V30 24911 H 2321.2 -0.77152 -1.66493 0
M  V30 24912 H 2319.58 0.58027 -3.91725 0
M  V30 24913 H 2320.76 -2.27737 -4.0059 0
M  V30 24914 H 2319.07 -1.91892 -3.69549 0
M  V30 24915 H 2321.67 0.326298 -5.33703 0
M  V30 24916 H 2322.01 1.32558 -3.94631 0
M  V30 24917 H 2322.55 -0.373134 -3.96046 0
M  V30 24918 H 2319.29 -2.52204 -6.0504 0
M  V30 24919 H 2318.81 -0.812845 -5.94267 0
M  V30 24920 H 2320.48 -1.24693 -6.34871 0
M  V30 24921 N 2320.62 1.53557 -0.354678 0
M  V30 24922 C 2322.03 1.86268 0.126869 0
M  V30 24923 C 2322.38 1.27561 1.49073 0
M  V30 24924 O 2321.5 0.593437 2.08104 0
M  V30 24925 C 2322.1 3.3797 0.236987 0
M  V30 24926 C 2320.66 3.70519 0.662777 0
M  V30 24927 C 2319.81 2.76601 -0.196701 0
M  V30 24928 H 2322.76 1.47961 -0.573875 0
M  V30 24929 H 2322.78 3.65364 1.06252 0
M  V30 24930 H 2322.29 3.8067 -0.755792 0
M  V30 24931 H 2320.39 3.3337 1.66418 0
M  V30 24932 H 2320.5 4.77029 0.44495 0
M  V30 24933 H 2318.87 2.52517 0.332719 0
M  V30 24934 H 2319.65 3.22133 -1.18682 0
M  V30 24935 N 2322.1 0.083568 1.57378 0
M  V30 24936 C 2323.51 -0.447326 1.81262 0
M  V30 24937 C 2323.86 -1.689 0.998361 0
M  V30 24938 O 2322.98 -2.15234 0.22432 0
M  V30 24939 C 2323.58 -0.818328 3.28769 0
M  V30 24940 C 2322.14 -1.29402 3.53457 0
M  V30 24941 C 2321.28 -0.284976 2.75832 0
M  V30 24942 H 2324.23 0.309142 1.5566 0
M  V30 24943 H 2324.26 -1.67881 3.41462 0
M  V30 24944 H 2323.77 0.0855701 3.88006 0
M  V30 24945 H 2321.87 -2.21602 2.99538 0
M  V30 24946 H 2321.98 -1.26382 4.6213 0
M  V30 24947 H 2320.35 -0.764725 2.42949 0
M  V30 24948 H 2321.13 0.6114 3.37812 0
M  V30 24949 N 2323.57 -1.5645 -0.190064 0
M  V30 24950 C 2324.98 -1.70785 -0.754282 0
M  V30 24951 C 2325.34 -0.690984 -1.8363 0
M  V30 24952 O 2324.46 0.151566 -2.15869 0
M  V30 24953 C 2325.06 -3.09645 -1.37497 0
M  V30 24954 C 2323.61 -3.25728 -1.88622 0
M  V30 24955 C 2322.76 -2.66737 -0.758051 0
M  V30 24956 H 2325.71 -1.58661 0.0350803 0
M  V30 24957 H 2325.73 -3.07254 -2.24444 0
M  V30 24958 H 2325.25 -3.83632 -0.587234 0
M  V30 24959 H 2323.35 -2.56666 -2.70099 0
M  V30 24960 H 2323.46 -4.33284 -2.04455 0
M  V30 24961 H 2321.82 -2.26048 -1.17365 0
M  V30 24962 H 2322.61 -3.43296 0.0175308 0
M  V30 24963 N 2325.05 0.45796 -1.50799 0
M  V30 24964 C 2326.33 1.21899 -1.5297 0
M  V30 24965 C 2326.71 2.09209 -0.281943 0
M  V30 24966 O 2326.06 2.16389 0.734038 0
M  V30 24967 C 2326.27 2.0387 -2.83263 0
M  V30 24968 C 2327.61 2.61615 -3.34429 0
M  V30 24969 O 2328.64 2.14101 -2.84674 0
M  V30 24970 O 2327.5 3.4822 -4.21195 0
M  V30 24971 H 2324.59 0.553862 -0.614139 0
M  V30 24972 H 2327.14 0.46871 -1.63099 0
M  V30 24973 H 2325.91 1.39615 -3.65545 0
M  V30 24974 H 2325.53 2.86006 -2.762 0
M  V30 24975 N 2326.53 1.40598 0.712035 0
M  V30 24976 C 2327.44 1.43469 1.85617 0
M  V30 24977 C 2328.46 0.326932 1.70901 0
M  V30 24978 O 2329.63 0.572077 1.93104 0
M  V30 24979 C 2326.7 1.2989 3.21449 0
M  V30 24980 C 2325.76 2.50839 3.48394 0
M  V30 24981 C 2324.99 2.37899 4.77745 0
M  V30 24982 O 2325.21 1.39469 5.53086 0
M  V30 24983 O 2324.15 3.27342 5.05105 0
M  V30 24984 H 2327.97 2.39961 1.86151 0
M  V30 24985 H 2325.56 1.21959 0.862929 0
M  V30 24986 H 2327.44 1.24538 4.02577 0
M  V30 24987 H 2326.12 0.365053 3.21635 0
M  V30 24988 H 2325.02 2.61768 2.67261 0
M  V30 24989 H 2326.36 3.42996 3.53007 0
M  V30 24990 N 2328.01 -0.94462 1.26153 0
M  V30 24991 C 2328.92 -2.07646 1.0918 0
M  V30 24992 C 2329.93 -1.7398 0.0262241 0
M  V30 24993 O 2331.11 -2.00091 0.229243 0
M  V30 24994 C 2328.17 -3.39078 0.722974 0
M  V30 24995 C 2327.24 -3.86549 1.86758 0
M  V30 24996 C 2326.47 -5.11708 1.51626 0
M  V30 24997 O 2326.69 -5.68878 0.416431 0
M  V30 24998 O 2325.63 -5.54135 2.34985 0
M  V30 24999 H 2329.45 -2.24872 2.04124 0
M  V30 25000 H 2327.04 -1.06098 1.05184 0
M  V30 25001 H 2328.92 -4.18056 0.529861 0
M  V30 25002 H 2327.59 -3.23099 -0.197102 0
M  V30 25003 H 2326.5 -3.08531 2.11564 0
M  V30 25004 H 2327.83 -4.07042 2.76726 0
M  V30 25005 N 2329.49 -1.07901 -1.1487 0
M  V30 25006 C 2330.4 -0.715954 -2.23408 0
M  V30 25007 C 2331.41 0.275275 -1.71809 0
M  V30 25008 O 2332.59 0.12051 -2.01039 0
M  V30 25009 C 2329.65 -0.125229 -3.46474 0
M  V30 25010 C 2328.71 -1.17041 -4.13037 0
M  V30 25011 C 2327.95 -0.607781 -5.30228 0
M  V30 25012 O 2328.17 0.574397 -5.67501 0
M  V30 25013 O 2327.1 -1.35536 -5.86441 0
M  V30 25014 H 2330.93 -1.62125 -2.56805 0
M  V30 25015 H 2328.51 -0.852344 -1.22701 0
M  V30 25016 H 2330.4 0.201655 -4.20917 0
M  V30 25017 H 2329.07 0.753309 -3.14813 0
M  V30 25018 H 2327.98 -1.54974 -3.40491 0
M  V30 25019 H 2329.31 -2.02105 -4.48792 0
M  V30 25020 N 2330.96 1.31811 -0.863929 0
M  V30 25021 C 2332.21 1.97217 -0.47257 0
M  V30 25022 C 2332.54 1.68161 0.971364 0
M  V30 25023 O 2331.82 0.974827 1.68307 0
M  V30 25024 C 2332.1 3.52765 -0.723116 0
M  V30 25025 C 2331.95 3.91417 -2.21614 0
M  V30 25026 C 2333.27 4.39708 -0.185599 0
M  V30 25027 H 2330.39 0.716366 -0.173171 0
M  V30 25028 H 2333.03 1.56039 -1.08406 0
M  V30 25029 H 2331.18 3.87971 -0.202645 0
M  V30 25030 H 2332.86 3.66343 -2.80341 0
M  V30 25031 H 2331.1 3.40241 -2.69106 0
M  V30 25032 H 2331.77 4.99849 -2.34212 0
M  V30 25033 H 2334.25 4.11291 -0.630798 0
M  V30 25034 H 2333.12 5.4751 -0.390402 0
M  V30 25035 H 2333.38 4.32588 0.912153 0
M  V30 25036 N 2332.44 0.62277 1.44773 0
M  V30 25037 C 2333.67 0.130758 2.06486 0
M  V30 25038 C 2334.08 -1.19121 1.46478 0
M  V30 25039 O 2333.44 -1.72886 0.584532 0
M  V30 25040 C 2333.49 0.00087075 3.615 0
M  V30 25041 O 2333.21 1.27055 4.19272 0
M  V30 25042 C 2334.71 -0.520821 4.4023 0
M  V30 25043 H 2331.93 0.0758223 0.666702 0
M  V30 25044 H 2334.48 0.854807 1.85778 0
M  V30 25045 H 2332.63 -0.673576 3.81499 0
M  V30 25046 H 2333.05 1.10999 5.1262 0
M  V30 25047 H 2334.52 -0.560741 5.49145 0
M  V30 25048 H 2335 -1.5462 4.11083 0
M  V30 25049 H 2335.6 0.120092 4.2513 0
M  V30 25050 N 2333.92 -1.53367 0.362817 0
M  V30 25051 C 2335.17 -2.01513 -0.228078 0
M  V30 25052 C 2335.5 -1.24972 -1.48646 0
M  V30 25053 O 2334.77 -0.342649 -1.91458 0
M  V30 25054 C 2335.06 -3.56284 -0.522821 0
M  V30 25055 C 2334.91 -4.4352 0.748997 0
M  V30 25056 C 2336.23 -4.19695 -1.32454 0
M  V30 25057 H 2333.35 -0.732489 -0.0814214 0
M  V30 25058 H 2335.99 -1.83648 0.487162 0
M  V30 25059 H 2334.14 -3.71638 -1.13214 0
M  V30 25060 H 2335.81 -4.39968 1.38656 0
M  V30 25061 H 2334.05 -4.11601 1.36993 0
M  V30 25062 H 2334.73 -5.49751 0.497763 0
M  V30 25063 H 2337.2 -4.08157 -0.809131 0
M  V30 25064 H 2336.08 -5.28021 -1.49951 0
M  V30 25065 H 2336.34 -3.75577 -2.33226 0
M  V30 25066 N 2335.4 -0.091913 -1.57332 0
M  V30 25067 C 2336.65 0.571412 -1.93854 0
M  V30 25068 C 2336.97 1.68919 -0.974242 0
M  V30 25069 O 2336.24 1.95883 -0.0257598 0
M  V30 25070 H 2334.82 0.214069 -0.71567 0
M  V30 25071 H 2337.48 -0.154498 -1.94287 0
M  V30 25072 H 2336.58 0.983677 -2.96193 0
M  V30 25073 N 2336.88 1.56548 0.181765 0
M  V30 25074 C 2337.82 1.95597 1.22518 0
M  V30 25075 C 2338.79 0.818398 1.44539 0
M  V30 25076 O 2339.98 1.07766 1.57452 0
M  V30 25077 C 2337.12 2.31216 2.56189 0
M  V30 25078 C 2336.23 3.58101 2.41635 0
M  V30 25079 C 2335.37 3.82981 3.68102 0
M  V30 25080 C 2334.41 5.03248 3.48436 0
M  V30 25081 N 2333.54 5.24314 4.66947 0
M  V30 25082 H 2338.38 2.8455 0.885176 0
M  V30 25083 H 2335.92 1.40806 0.425694 0
M  V30 25084 H 2337.88 2.49888 3.34084 0
M  V30 25085 H 2336.51 1.45387 2.88206 0
M  V30 25086 H 2335.56 3.47403 1.5497 0
M  V30 25087 H 2336.87 4.46153 2.23045 0
M  V30 25088 H 2336.03 4.01964 4.54434 0
M  V30 25089 H 2334.76 2.93285 3.8966 0
M  V30 25090 H 2333.77 4.84175 2.6049 0
M  V30 25091 H 2334.99 5.94466 3.2831 0
M  V30 25092 H 2332.94 4.37567 4.88744 0
M  V30 25093 H 2332.86 6.06569 4.51231 0
M  V30 25094 H 2334.13 5.47766 5.54592 0
M  V30 25095 N 2338.35 -0.449957 1.5104 0
M  V30 25096 C 2339.6 -1.20042 1.63083 0
M  V30 25097 C 2339.93 -1.91486 0.341058 0
M  V30 25098 O 2339.18 -1.83718 -0.674244 0
M  V30 25099 C 2339.48 -2.25157 2.77559 0
M  V30 25100 C 2339.15 -1.70815 4.17292 0
M  V30 25101 C 2337.81 -1.55717 4.55308 0
M  V30 25102 C 2340.16 -1.30731 5.04538 0
M  V30 25103 C 2337.49 -0.989897 5.78289 0
M  V30 25104 C 2339.84 -0.754372 6.28086 0
M  V30 25105 C 2338.51 -0.590192 6.64886 0
M  V30 25106 H 2337.78 -0.439266 0.596763 0
M  V30 25107 H 2340.42 -0.493297 1.85037 0
M  V30 25108 H 2338.73 -3.01859 2.49777 0
M  V30 25109 H 2340.43 -2.83021 2.84078 0
M  V30 25110 H 2337.02 -1.8354 3.87313 0
M  V30 25111 H 2341.2 -1.41221 4.75784 0
M  V30 25112 H 2336.46 -0.850344 6.05458 0
M  V30 25113 H 2340.63 -0.435202 6.95039 0
M  V30 25114 H 2338.26 -0.148487 7.60055 0
M  V30 25115 N 2339.83 -1.40974 -0.704569 0
M  V30 25116 C 2341.06 -1.42977 -1.49135 0
M  V30 25117 C 2341.47 -0.0308739 -1.89175 0
M  V30 25118 O 2340.81 0.95811 -1.56735 0
M  V30 25119 C 2340.88 -2.26699 -2.79012 0
M  V30 25120 C 2340.54 -3.74977 -2.6123 0
M  V30 25121 C 2341.54 -4.67353 -2.27765 0
M  V30 25122 C 2339.22 -4.18918 -2.77151 0
M  V30 25123 C 2341.22 -6.01657 -2.10447 0
M  V30 25124 C 2338.9 -5.53289 -2.5945 0
M  V30 25125 C 2339.9 -6.44474 -2.26147 0
M  V30 25126 O 2339.59 -7.76367 -2.08591 0
M  V30 25127 H 2339.32 -0.489301 -0.466434 0
M  V30 25128 H 2341.87 -1.85794 -0.875767 0
M  V30 25129 H 2340.1 -1.78679 -3.42944 0
M  V30 25130 H 2341.79 -2.2051 -3.40778 0
M  V30 25131 H 2342.56 -4.34698 -2.15088 0
M  V30 25132 H 2338.44 -3.48256 -3.02058 0
M  V30 25133 H 2341.98 -6.72794 -1.84375 0
M  V30 25134 H 2337.88 -5.85527 -2.71715 0
M  V30 25135 H 2338.65 -7.87416 -2.23425 0
M  V30 25136 N 2341.31 0.937917 -1.26653 0
M  V30 25137 C 2342.27 2.01865 -1.08549 0
M  V30 25138 C 2343.27 1.60767 -0.032761 0
M  V30 25139 O 2344.46 1.71992 -0.276458 0
M  V30 25140 C 2341.6 3.34611 -0.651769 0
M  V30 25141 H 2342.79 2.19357 -2.04506 0
M  V30 25142 H 2340.34 1.11732 -1.09296 0
M  V30 25143 H 2341.08 3.22818 0.309639 0
M  V30 25144 H 2340.86 3.65795 -1.41195 0
M  V30 25145 H 2342.35 4.14001 -0.547046 0
M  V30 25146 N 2342.79 1.08509 1.14296 0
M  V30 25147 C 2344.02 0.836909 1.89218 0
M  V30 25148 C 2344.43 -0.611022 1.78639 0
M  V30 25149 O 2343.79 -1.41996 1.14645 0
M  V30 25150 C 2343.84 1.25122 3.39156 0
M  V30 25151 O 2343.56 2.64235 3.49444 0
M  V30 25152 C 2345.06 1.03405 4.31071 0
M  V30 25153 H 2342.28 0.30175 0.599323 0
M  V30 25154 H 2344.83 1.44463 1.44743 0
M  V30 25155 H 2342.98 0.687581 3.81249 0
M  V30 25156 H 2343.39 2.81459 4.42584 0
M  V30 25157 H 2344.87 1.37332 5.34644 0
M  V30 25158 H 2345.35 -0.0288487 4.39191 0
M  V30 25159 H 2345.95 1.58318 3.94735 0
M  V30 25160 N 2344.27 -1.31351 0.870907 0
M  V30 25161 C 2345.51 -1.96672 0.482307 0
M  V30 25162 C 2345.84 -1.68838 -0.965608 0
M  V30 25163 O 2345.1 -0.977967 -1.69512 0
M  V30 25164 C 2345.4 -3.50731 0.687219 0
M  V30 25165 C 2345.06 -3.98587 2.10807 0
M  V30 25166 C 2343.72 -4.11366 2.49663 0
M  V30 25167 C 2346.08 -4.23742 3.03466 0
M  V30 25168 C 2343.4 -4.46652 3.80419 0
M  V30 25169 C 2345.76 -4.60493 4.33738 0
M  V30 25170 C 2344.42 -4.71479 4.72508 0
M  V30 25171 H 2343.69 -0.719675 0.176489 0
M  V30 25172 H 2346.34 -1.56469 1.10407 0
M  V30 25173 H 2344.64 -3.91796 -0.0176787 0
M  V30 25174 H 2346.34 -3.99323 0.366355 0
M  V30 25175 H 2342.93 -3.89137 1.79639 0
M  V30 25176 H 2347.11 -4.13363 2.74672 0
M  V30 25177 H 2342.37 -4.53355 4.10218 0
M  V30 25178 H 2346.54 -4.7891 5.05587 0
M  V30 25179 H 2344.17 -4.98577 5.73868 0
M  V30 25180 N 2345.74 -0.630439 -1.44441 0
M  V30 25181 C 2346.67 0.0617672 -2.33418 0
M  V30 25182 C 2347.66 0.835515 -1.48166 0
M  V30 25183 O 2348.84 0.801533 -1.76887 0
M  V30 25184 C 2345.97 1.04443 -3.31223 0
M  V30 25185 C 2344.92 0.382361 -4.26289 0
M  V30 25186 C 2344.25 1.47488 -5.13957 0
M  V30 25187 C 2345.55 -0.710956 -5.17439 0
M  V30 25188 H 2347.24 -0.681236 -2.91547 0
M  V30 25189 H 2344.79 -0.329051 -1.4019 0
M  V30 25190 H 2346.74 1.53742 -3.92354 0
M  V30 25191 H 2345.47 1.81831 -2.71302 0
M  V30 25192 H 2344.13 -0.0899698 -3.6649 0
M  V30 25193 H 2343.77 2.23962 -4.50389 0
M  V30 25194 H 2343.47 1.03727 -5.78372 0
M  V30 25195 H 2345 1.96968 -5.77958 0
M  V30 25196 H 2346.41 -0.301097 -5.72509 0
M  V30 25197 H 2344.81 -1.07166 -5.90454 0
M  V30 25198 H 2345.88 -1.57837 -4.58493 0
M  V30 25199 N 2347.22 1.53172 -0.370945 0
M  V30 25200 C 2348.47 2.00516 0.218214 0
M  V30 25201 C 2348.78 1.26218 1.49427 0
M  V30 25202 O 2349.99 1.64178 2.16236 0
M  V30 25203 C 2348.45 3.57207 0.439417 0
M  V30 25204 C 2348.05 4.40388 -0.822321 0
M  V30 25205 C 2349.8 4.12892 0.985939 0
M  V30 25206 C 2347.71 5.88643 -0.570407 0
M  V30 25207 H 2346.64 0.749157 0.0853201 0
M  V30 25208 H 2349.29 1.76823 -0.490514 0
M  V30 25209 H 2347.67 3.77076 1.20954 0
M  V30 25210 H 2348.84 4.32291 -1.59565 0
M  V30 25211 H 2347.16 3.95834 -1.29245 0
M  V30 25212 H 2349.75 5.21294 1.18982 0
M  V30 25213 H 2350.1 3.67823 1.94966 0
M  V30 25214 H 2350.63 3.96842 0.27585 0
M  V30 25215 H 2347.37 6.37998 -1.50461 0
M  V30 25216 H 2346.89 5.99575 0.164322 0
M  V30 25217 H 2348.57 6.46697 -0.197954 0
M  V30 25218 N 2348.7 0.100255 1.57281 0
M  V30 25219 C 2349.63 -0.886935 2.11344 0
M  V30 25220 C 2350.65 -1.24259 1.05184 0
M  V30 25221 O 2351.83 -1.1948 1.32615 0
M  V30 25222 C 2348.93 -2.19449 2.58254 0
M  V30 25223 C 2348.11 -2.01339 3.88306 0
M  V30 25224 C 2347.17 -3.15654 4.2101 0
M  V30 25225 O 2346.19 -2.8939 4.90145 0
M  V30 25226 N 2347.39 -4.41568 3.76826 0
M  V30 25227 H 2350.16 -0.425163 2.96669 0
M  V30 25228 H 2347.72 -0.084705 1.61678 0
M  V30 25229 H 2349.71 -2.94883 2.77175 0
M  V30 25230 H 2348.28 -2.57034 1.77912 0
M  V30 25231 H 2347.5 -1.10205 3.78482 0
M  V30 25232 H 2348.79 -1.86522 4.73378 0
M  V30 25233 H 2348.19 -4.65787 3.21029 0
M  V30 25234 H 2346.75 -5.13935 4.00892 0
M  V30 25235 N 2350.18 -1.56643 -0.17346 0
M  V30 25236 C 2351.46 -1.72742 -0.917586 0
M  V30 25237 C 2351.84 -0.661062 -2.00482 0
M  V30 25238 O 2351.18 0.32449 -2.26184 0
M  V30 25239 C 2351.39 -3.15864 -1.48428 0
M  V30 25240 C 2352.74 -3.76758 -1.95803 0
M  V30 25241 O 2353.77 -3.19129 -1.58226 0
M  V30 25242 O 2352.63 -4.77942 -2.65016 0
M  V30 25243 H 2349.72 -0.705346 -0.431759 0
M  V30 25244 H 2352.27 -1.6893 -0.161457 0
M  V30 25245 H 2351.04 -3.84958 -0.701647 0
M  V30 25246 H 2350.66 -3.23993 -2.30465 0
M  V30 25247 N 2351.66 0.44194 -1.51277 0
M  V30 25248 C 2352.89 1.21255 -1.67275 0
M  V30 25249 C 2353.3 1.85593 -0.367656 0
M  V30 25250 O 2352.64 1.71306 0.663318 0
M  V30 25251 C 2352.7 2.34124 -2.72811 0
M  V30 25252 C 2352.36 1.9019 -4.15544 0
M  V30 25253 C 2353.36 1.40792 -5.00473 0
M  V30 25254 C 2351.05 1.98022 -4.61619 0
M  V30 25255 C 2353.04 0.998063 -6.29537 0
M  V30 25256 C 2350.73 1.56647 -5.90682 0
M  V30 25257 C 2351.73 1.07621 -6.74468 0
M  V30 25258 O 2351.41 0.668318 -8.01117 0
M  V30 25259 H 2351.15 0.371725 -0.564621 0
M  V30 25260 H 2353.7 0.530486 -1.98431 0
M  V30 25261 H 2351.93 3.05593 -2.3696 0
M  V30 25262 H 2353.62 2.96004 -2.77734 0
M  V30 25263 H 2354.38 1.3414 -4.66081 0
M  V30 25264 H 2350.26 2.35128 -3.9653 0
M  V30 25265 H 2353.81 0.614698 -6.94886 0
M  V30 25266 H 2349.7 1.62968 -6.24589 0
M  V30 25267 H 2350.47 0.794579 -8.14634 0
M  V30 25268 N 2353.14 1.41345 0.697083 0
M  V30 25269 C 2354.38 1.40621 1.45712 0
M  V30 25270 C 2354.71 0.0148248 1.94494 0
M  V30 25271 O 2353.97 -0.973036 1.69795 0
M  V30 25272 C 2354.26 2.35831 2.68549 0
M  V30 25273 C 2353.93 3.82703 2.38431 0
M  V30 25274 C 2352.59 4.22713 2.29928 0
M  V30 25275 C 2354.94 4.75439 2.13559 0
M  V30 25276 C 2352.27 5.5347 1.94647 0
M  V30 25277 C 2354.62 6.06514 1.79786 0
M  V30 25278 C 2353.29 6.45548 1.69778 0
M  V30 25279 H 2352.56 0.51457 0.533197 0
M  V30 25280 H 2355.21 1.74133 0.79687 0
M  V30 25281 H 2353.51 1.95569 3.395 0
M  V30 25282 H 2355.21 2.32545 3.26686 0
M  V30 25283 H 2351.8 3.51013 2.45943 0
M  V30 25284 H 2355.98 4.45332 2.19074 0
M  V30 25285 H 2351.24 5.82596 1.85449 0
M  V30 25286 H 2355.41 6.77874 1.5956 0
M  V30 25287 H 2353.04 7.46781 1.42207 0
M  V30 25288 N 2354.61 -0.931187 1.27148 0
M  V30 25289 C 2356.03 -1.20651 1.04477 0
M  V30 25290 C 2356.23 -2.00253 -0.22385 0
M  V30 25291 O 2355.29 -2.34738 -0.93029 0
M  V30 25292 C 2356.6 -1.95805 2.28212 0
M  V30 25293 C 2358.15 -2.08758 2.33215 0
M  V30 25294 C 2358.62 -2.87316 3.5667 0
M  V30 25295 N 2360.11 -2.94886 3.57206 0
M  V30 25296 C 2360.85 -3.56126 4.49401 0
M  V30 25297 N 2360.34 -4.18786 5.51896 0
M  V30 25298 N 2362.14 -3.53496 4.37032 0
M  V30 25299 H 2354.29 -0.399296 2.08613 0
M  V30 25300 H 2356.55 -0.239237 0.917317 0
M  V30 25301 H 2356.26 -1.44731 3.2054 0
M  V30 25302 H 2356.13 -2.96434 2.33253 0
M  V30 25303 H 2358.52 -2.5902 1.41395 0
M  V30 25304 H 2358.6 -1.0736 2.3218 0
M  V30 25305 H 2358.24 -2.37738 4.48824 0
M  V30 25306 H 2358.17 -3.88992 3.54955 0
M  V30 25307 H 2360.66 -2.50349 2.83079 0
M  V30 25308 H 2360.98 -4.63443 6.18418 0
M  V30 25309 H 2359.32 -4.17343 5.55743 0
M  V30 25310 H 2362.51 -3.03743 3.56171 0
M  V30 25311 H 2362.69 -4.00933 5.09074 0
M  V30 25312 N 2356.09 -1.09114 -1.13719 0
M  V30 25313 C 2357.04 -0.727629 -2.1903 0
M  V30 25314 C 2358.01 0.289627 -1.63555 0
M  V30 25315 O 2359.19 0.171992 -1.90023 0
M  V30 25316 C 2356.33 -0.150881 -3.4477 0
M  V30 25317 C 2355.45 -1.22179 -4.14363 0
M  V30 25318 C 2354.58 -0.608135 -5.27707 0
M  V30 25319 C 2353.62 -1.66058 -5.89145 0
M  V30 25320 N 2352.76 -1.06819 -6.93927 0
M  V30 25321 H 2357.6 -1.62996 -2.49472 0
M  V30 25322 H 2355.13 -0.814412 -1.22498 0
M  V30 25323 H 2357.09 0.201284 -4.16714 0
M  V30 25324 H 2355.72 0.714728 -3.14788 0
M  V30 25325 H 2354.77 -1.69128 -3.40734 0
M  V30 25326 H 2356.09 -2.01903 -4.5611 0
M  V30 25327 H 2355.24 -0.20463 -6.06355 0
M  V30 25328 H 2353.98 0.220683 -4.872 0
M  V30 25329 H 2352.98 -2.07366 -5.09195 0
M  V30 25330 H 2354.21 -2.492 -6.31725 0
M  V30 25331 H 2352.16 -0.260591 -6.55482 0
M  V30 25332 H 2352.07 -1.80243 -7.34199 0
M  V30 25333 H 2353.34 -0.69078 -7.76433 0
M  V30 25334 N 2357.57 1.30887 -0.877861 0
M  V30 25335 C 2358.82 1.96414 -0.492731 0
M  V30 25336 C 2359.14 1.69348 0.956641 0
M  V30 25337 O 2358.4 0.986943 1.68991 0
M  V30 25338 C 2358.7 3.50361 -0.705809 0
M  V30 25339 C 2358.36 3.97463 -2.12917 0
M  V30 25340 C 2357.03 4.10036 -2.51842 0
M  V30 25341 C 2359.38 4.22127 -3.05709 0
M  V30 25342 C 2356.71 4.44628 -3.82783 0
M  V30 25343 C 2359.06 4.58186 -4.36174 0
M  V30 25344 C 2357.72 4.68967 -4.75002 0
M  V30 25345 H 2356.99 0.718729 -0.180303 0
M  V30 25346 H 2359.64 1.55881 -1.11236 0
M  V30 25347 H 2357.94 3.918 -0.00309945 0
M  V30 25348 H 2359.64 3.99123 -0.387526 0
M  V30 25349 H 2356.23 3.88179 -1.81701 0
M  V30 25350 H 2360.42 4.11901 -2.7686 0
M  V30 25351 H 2355.67 4.51173 -4.12617 0
M  V30 25352 H 2359.85 4.76222 -5.08119 0
M  V30 25353 H 2357.47 4.95527 -5.76504 0
M  V30 25354 N 2359.05 0.638091 1.44105 0
M  V30 25355 C 2360.46 0.304314 1.56672 0
M  V30 25356 C 2360.66 -1.19225 1.62442 0
M  V30 25357 O 2359.72 -1.97657 1.57124 0
M  V30 25358 C 2361.03 1.00236 2.83502 0
M  V30 25359 C 2362.58 0.981168 2.97224 0
M  V30 25360 C 2363.06 1.65982 4.26865 0
M  V30 25361 N 2364.55 1.62674 4.33695 0
M  V30 25362 C 2365.28 2.12072 5.32741 0
M  V30 25363 N 2364.78 2.69692 6.38152 0
M  V30 25364 N 2366.57 2.0266 5.24295 0
M  V30 25365 H 2358.72 1.60945 1.38602 0
M  V30 25366 H 2360.98 0.675977 0.66465 0
M  V30 25367 H 2360.69 2.05735 2.85247 0
M  V30 25368 H 2360.56 0.544456 3.7325 0
M  V30 25369 H 2362.95 -0.065367 2.95028 0
M  V30 25370 H 2363.03 1.47763 2.08806 0
M  V30 25371 H 2362.68 2.70584 4.29822 0
M  V30 25372 H 2362.61 1.13813 5.14154 0
M  V30 25373 H 2365.1 1.20612 3.58136 0
M  V30 25374 H 2365.41 3.05099 7.10024 0
M  V30 25375 H 2363.76 2.73746 6.38818 0
M  V30 25376 H 2366.95 1.57361 4.40857 0
M  V30 25377 H 2367.12 2.41468 6.0133 0
M  V30 25378 N 2360.53 -1.52973 0.379063 0
M  V30 25379 C 2361.94 -1.59574 0.0285728 0
M  V30 25380 C 2362.14 -1.39357 -1.4554 0
M  V30 25381 O 2361.2 -1.20545 -2.21867 0
M  V30 25382 C 2362.51 -2.96571 0.496587 0
M  V30 25383 C 2364.06 -3.0972 0.451963 0
M  V30 25384 C 2364.53 -4.4915 0.896003 0
M  V30 25385 N 2366.02 -4.55304 0.851602 0
M  V30 25386 C 2366.76 -5.61405 1.16671 0
M  V30 25387 N 2366.26 -6.75197 1.55178 0
M  V30 25388 N 2368.05 -5.51457 1.08863 0
M  V30 25389 H 2360.2 -1.64365 1.34528 0
M  V30 25390 H 2362.46 -0.77161 0.550747 0
M  V30 25391 H 2362.17 -3.16549 1.53264 0
M  V30 25392 H 2362.04 -3.7704 -0.109736 0
M  V30 25393 H 2364.43 -2.89444 -0.574978 0
M  V30 25394 H 2364.51 -2.31228 1.09396 0
M  V30 25395 H 2364.15 -4.70165 1.92113 0
M  V30 25396 H 2364.08 -5.26093 0.231123 0
M  V30 25397 H 2366.58 -3.73605 0.568103 0
M  V30 25398 H 2366.89 -7.52113 1.77613 0
M  V30 25399 H 2365.23 -6.76555 1.59056 0
M  V30 25400 H 2368.42 -4.61439 0.786884 0
M  V30 25401 H 2368.6 -6.34046 1.33753 0
M  V30 25402 N 2362 -0.108595 -1.57225 0
M  V30 25403 C 2363.42 0.24803 -1.57661 0
M  V30 25404 C 2363.62 1.67462 -1.12066 0
M  V30 25405 O 2362.68 2.39382 -0.803278 0
M  V30 25406 C 2363.99 0.0241758 -3.0069 0
M  V30 25407 C 2365.54 0.0908822 -3.12868 0
M  V30 25408 C 2366.01 -0.105148 -4.57879 0
M  V30 25409 N 2367.5 -0.050766 -4.63172 0
M  V30 25410 C 2368.24 -0.177497 -5.73125 0
M  V30 25411 N 2367.73 -0.359817 -6.91865 0
M  V30 25412 N 2369.53 -0.117808 -5.61977 0
M  V30 25413 H 2361.68 -1.04052 -1.85167 0
M  V30 25414 H 2363.94 -0.408895 -0.855283 0
M  V30 25415 H 2363.65 -0.961663 -3.38297 0
M  V30 25416 H 2363.52 0.760615 -3.69452 0
M  V30 25417 H 2365.91 1.06724 -2.75126 0
M  V30 25418 H 2365.99 -0.677268 -2.46671 0
M  V30 25419 H 2365.63 -1.07843 -4.96319 0
M  V30 25420 H 2365.56 0.682862 -5.22154 0
M  V30 25421 H 2368.05 0.0870602 -3.778 0
M  V30 25422 H 2368.37 -0.447665 -7.71502 0
M  V30 25423 H 2366.71 -0.395658 -6.93873 0
M  V30 25424 H 2369.9 0.0235919 -4.68094 0
M  V30 25425 H 2370.08 -0.220019 -6.47626 0
M  V30 25426 N 2363.48 1.56732 0.16515 0
M  V30 25427 C 2364.43 1.96885 1.20436 0
M  V30 25428 C 2365.4 0.833683 1.43663 0
M  V30 25429 O 2366.58 1.0943 1.563 0
M  V30 25430 C 2363.72 2.33921 2.53723 0
M  V30 25431 C 2362.84 3.60644 2.37823 0
M  V30 25432 C 2361.97 3.86864 3.64019 0
M  V30 25433 C 2361.01 5.06915 3.43079 0
M  V30 25434 N 2360.15 5.29237 4.6136 0
M  V30 25435 H 2364.99 2.85473 0.854946 0
M  V30 25436 H 2362.52 1.41249 0.410735 0
M  V30 25437 H 2364.48 2.53417 3.31415 0
M  V30 25438 H 2363.11 1.48436 2.86647 0
M  V30 25439 H 2362.16 3.49027 1.51276 0
M  V30 25440 H 2363.48 4.48494 2.183 0
M  V30 25441 H 2362.63 4.06761 4.50145 0
M  V30 25442 H 2361.37 2.97401 3.86528 0
M  V30 25443 H 2360.37 4.8691 2.5534 0
M  V30 25444 H 2361.6 5.97914 3.21986 0
M  V30 25445 H 2359.55 4.42726 4.84076 0
M  V30 25446 H 2359.46 6.11321 4.44772 0
M  V30 25447 H 2360.73 5.53618 5.48751 0
M  V30 25448 N 2364.96 -0.433911 1.51509 0
M  V30 25449 C 2365.87 -1.55207 1.7592 0
M  V30 25450 C 2366.89 -1.61661 0.643574 0
M  V30 25451 O 2368.06 -1.78839 0.926214 0
M  V30 25452 C 2365.13 -2.91161 1.88218 0
M  V30 25453 C 2364.19 -2.94796 3.12079 0
M  V30 25454 C 2363.42 -4.24266 3.23782 0
M  V30 25455 O 2363.64 -5.16829 2.41339 0
M  V30 25456 O 2362.58 -4.34255 4.16781 0
M  V30 25457 H 2366.4 -1.37522 2.70779 0
M  V30 25458 H 2363.99 -0.617269 1.36052 0
M  V30 25459 H 2365.87 -3.71841 1.98273 0
M  V30 25460 H 2364.55 -3.08967 0.965467 0
M  V30 25461 H 2363.45 -2.13059 3.07501 0
M  V30 25462 H 2364.79 -2.81936 4.03451 0
M  V30 25463 N 2366.44 -1.41713 -0.689577 0
M  V30 25464 C 2367.39 -1.44033 -1.80342 0
M  V30 25465 C 2368.36 -0.293977 -1.63478 0
M  V30 25466 O 2369.54 -0.495902 -1.84243 0
M  V30 25467 C 2366.68 -1.3341 -3.1827 0
M  V30 25468 C 2365.79 -2.57963 -3.46525 0
M  V30 25469 C 2364.93 -2.3959 -4.74099 0
M  V30 25470 C 2363.97 -3.59589 -4.95341 0
M  V30 25471 N 2363.1 -3.4025 -6.14145 0
M  V30 25472 H 2367.94 -2.39225 -1.77694 0
M  V30 25473 H 2365.48 -1.18785 -0.867667 0
M  V30 25474 H 2367.44 -1.25253 -3.97954 0
M  V30 25475 H 2366.07 -0.41822 -3.20079 0
M  V30 25476 H 2365.12 -2.76546 -2.61202 0
M  V30 25477 H 2366.43 -3.47206 -3.5812 0
M  V30 25478 H 2365.59 -2.28934 -5.61849 0
M  V30 25479 H 2364.33 -1.47813 -4.64761 0
M  V30 25480 H 2363.33 -3.70693 -4.06038 0
M  V30 25481 H 2364.56 -4.52327 -5.06534 0
M  V30 25482 H 2362.5 -2.51177 -6.06008 0
M  V30 25483 H 2362.42 -4.23072 -6.26535 0
M  V30 25484 H 2363.69 -3.33377 -7.04613 0
M  V30 25485 N 2367.92 0.924431 -1.2764 0
M  V30 25486 C 2369.16 1.66916 -1.13944 0
M  V30 25487 C 2369.49 1.92446 0.314555 0
M  V30 25488 O 2368.76 1.53305 1.21961 0
M  V30 25489 H 2367.34 0.618635 -0.418689 0
M  V30 25490 H 2370 1.10982 -1.60215 0
M  V30 25491 H 2369.09 2.63599 -1.67098 0
M  V30 25492 N 2369.39 1.09715 1.13139 0
M  V30 25493 C 2370.32 0.761141 2.20746 0
M  V30 25494 C 2371.31 -0.262537 1.68062 0
M  V30 25495 O 2372.49 -0.129943 1.93765 0
M  V30 25496 C 2369.62 0.184115 3.46812 0
M  V30 25497 C 2368.57 1.13764 4.12604 0
M  V30 25498 C 2367.9 0.422176 5.33031 0
M  V30 25499 C 2369.2 2.48127 4.59598 0
M  V30 25500 H 2370.89 1.66086 2.4911 0
M  V30 25501 H 2368.44 0.800008 1.19732 0
M  V30 25502 H 2370.39 -0.0630474 4.21353 0
M  V30 25503 H 2369.12 -0.750812 3.17853 0
M  V30 25504 H 2367.78 1.37013 3.40034 0
M  V30 25505 H 2367.42 -0.516984 5.00336 0
M  V30 25506 H 2367.12 1.05798 5.77997 0
M  V30 25507 H 2368.65 0.183385 6.10325 0
M  V30 25508 H 2370.06 2.29068 5.25548 0
M  V30 25509 H 2368.46 3.07523 5.15315 0
M  V30 25510 H 2369.53 3.08671 3.73965 0
M  V30 25511 N 2370.87 -1.30419 0.88479 0
M  V30 25512 C 2371.8 -2.30588 0.367614 0
M  V30 25513 C 2372.78 -1.60982 -0.549436 0
M  V30 25514 O 2373.97 -1.88592 -0.463327 0
M  V30 25515 C 2371.1 -3.44765 -0.418883 0
M  V30 25516 C 2370.05 -4.26066 0.406391 0
M  V30 25517 C 2369.38 -5.32294 -0.506699 0
M  V30 25518 C 2370.68 -4.95606 1.64841 0
M  V30 25519 H 2372.37 -2.74095 1.20467 0
M  V30 25520 H 2369.92 -1.31771 0.580718 0
M  V30 25521 H 2371.87 -4.13903 -0.791322 0
M  V30 25522 H 2370.6 -3.00062 -1.28958 0
M  V30 25523 H 2369.25 -3.58615 0.760967 0
M  V30 25524 H 2368.9 -4.83839 -1.3751 0
M  V30 25525 H 2368.6 -5.87585 0.041686 0
M  V30 25526 H 2370.13 -6.04288 -0.875658 0
M  V30 25527 H 2371.54 -5.57262 1.34656 0
M  V30 25528 H 2369.94 -5.60761 2.13698 0
M  V30 25529 H 2371.01 -4.21743 2.39292 0
M  V30 25530 N 2372.35 -0.645724 -1.43764 0
M  V30 25531 C 2373.6 -0.155767 -2.01499 0
M  V30 25532 C 2373.92 1.23197 -1.51154 0
M  V30 25533 O 2373.19 1.82146 -0.721076 0
M  V30 25534 H 2371.77 -0.0545948 -0.745002 0
M  V30 25535 H 2374.43 -0.835708 -1.76074 0
M  V30 25536 H 2373.53 -0.134631 -3.11809 0
M  V30 25537 N 2373.83 1.5277 -0.38717 0
M  V30 25538 C 2374.78 2.27927 0.463912 0
M  V30 25539 C 2375.77 1.31743 1.0649 0
M  V30 25540 O 2376.98 1.49289 1.00562 0
M  V30 25541 H 2373.35 0.732912 0.168357 0
M  V30 25542 H 2375.32 2.97785 -0.191462 0
M  V30 25543 C 2374.07 3.09715 1.58024 0
M  V30 25544 H 2373.39 3.83583 1.12711 0
M  V30 25545 H 2374.83 3.65445 2.15002 0
M  V30 25546 C 2373.29 2.21894 2.53505 0
M  V30 25547 O 2373.82 1.84428 3.5686 0
M  V30 25548 N 2372.03 1.86097 2.23196 0
M  V30 25549 H 2371.58 2.16763 1.39181 0
M  V30 25550 H 2371.53 1.27626 2.87331 0
M  V30 25551 N 2375.31 0.116931 1.57166 0
M  V30 25552 C 2376.58 -0.585016 1.86647 0
M  V30 25553 C 2376.96 -1.84947 1.01773 0
M  V30 25554 O 2376.31 -2.28298 0.096078 0
M  V30 25555 C 2376.52 -0.879447 3.37738 0
M  V30 25556 C 2377.87 -1.23341 4.06291 0
M  V30 25557 O 2378.89 -0.969775 3.42745 0
M  V30 25558 O 2377.75 -1.72811 5.18458 0
M  V30 25559 H 2374.85 -0.294994 0.772598 0
M  V30 25560 H 2377.39 0.151279 1.69024 0
M  V30 25561 H 2376.16 0.0166824 3.91296 0
M  V30 25562 H 2375.79 -1.67097 3.60783 0
M  V30 25563 N 2376.78 -1.56818 -0.156836 0
M  V30 25564 C 2377.75 -1.96624 -1.17777 0
M  V30 25565 C 2378.75 -0.851579 -1.36399 0
M  V30 25566 O 2379.94 -1.11838 -1.33559 0
M  V30 25567 C 2377.07 -2.27365 -2.54004 0
M  V30 25568 H 2378.26 -2.87997 -0.836513 0
M  V30 25569 H 2375.82 -1.511 -0.399823 0
M  V30 25570 H 2376.55 -1.38753 -2.93118 0
M  V30 25571 H 2376.34 -3.08627 -2.4185 0
M  V30 25572 H 2377.83 -2.59034 -3.27553 0
M  V30 25573 N 2378.26 0.425871 -1.51737 0
M  V30 25574 C 2379.23 1.50029 -1.73274 0
M  V30 25575 C 2380.23 1.49079 -0.602665 0
M  V30 25576 O 2381.42 1.50899 -0.870357 0
M  V30 25577 C 2378.55 2.8952 -1.79975 0
M  V30 25578 H 2379.74 1.32232 -2.69174 0
M  V30 25579 H 2377.29 0.655295 -1.419 0
M  V30 25580 H 2378.03 3.12708 -0.859296 0
M  V30 25581 H 2377.81 2.91614 -2.62114 0
M  V30 25582 H 2379.3 3.67441 -1.98437 0
M  V30 25583 N 2379.74 1.42077 0.682052 0
M  V30 25584 C 2381.15 1.37548 1.26243 0
M  V30 25585 C 2381.5 0.0651826 1.96092 0
M  V30 25586 O 2380.63 -0.836262 1.99589 0
M  V30 25587 C 2381.22 2.49147 2.29589 0
M  V30 25588 C 2379.78 2.47974 2.83171 0
M  V30 25589 C 2378.93 2.28305 1.57391 0
M  V30 25590 H 2381.88 1.51396 0.475911 0
M  V30 25591 H 2381.9 2.18982 3.11171 0
M  V30 25592 H 2381.41 3.44499 1.78723 0
M  V30 25593 H 2379.51 1.56419 3.38177 0
M  V30 25594 H 2379.63 3.44761 3.32681 0
M  V30 25595 H 2377.99 1.76431 1.83696 0
M  V30 25596 H 2378.77 3.25703 1.08501 0
M  V30 25597 N 2381.22 -0.917649 1.28129 0
M  V30 25598 C 2382.44 -1.70553 1.1801 0
M  V30 25599 C 2382.87 -1.86319 -0.258224 0
M  V30 25600 O 2382.23 -1.37051 -1.18687 0
M  V30 25601 C 2382.28 -3.07743 1.87954 0
M  V30 25602 O 2381.38 -3.95028 1.18434 0
M  V30 25603 H 2380.72 -0.522396 0.409876 0
M  V30 25604 H 2383.25 -1.14767 1.69381 0
M  V30 25605 H 2383.26 -3.57998 1.95708 0
M  V30 25606 H 2381.94 -2.95586 2.92578 0
M  V30 25607 H 2380.51 -3.53464 1.18818 0
M  V30 25608 N 2382.7 -1.10314 -1.12555 0
M  V30 25609 C 2383.93 -0.866906 -1.87863 0
M  V30 25610 C 2384.34 0.582525 -1.79589 0
M  V30 25611 O 2383.7 1.40154 -1.1689 0
M  V30 25612 C 2383.75 -1.30502 -3.37122 0
M  V30 25613 O 2383.47 -2.69761 -3.45196 0
M  V30 25614 C 2384.97 -1.1025 -4.29371 0
M  V30 25615 H 2382.19 -0.311246 -0.594447 0
M  V30 25616 H 2384.73 -1.46748 -1.42426 0
M  V30 25617 H 2382.89 -0.748148 -3.80107 0
M  V30 25618 H 2383.3 -2.88465 -4.3805 0
M  V30 25619 H 2384.78 -1.45821 -5.32391 0
M  V30 25620 H 2385.25 -0.0410263 -4.39181 0
M  V30 25621 H 2385.86 -1.64578 -3.92166 0
M  V30 25622 N 2384.18 1.29948 -0.891694 0
M  V30 25623 C 2385.4 2.00567 -0.527967 0
M  V30 25624 C 2385.83 1.66355 0.87794 0
M  V30 25625 O 2385.18 0.88379 1.583 0
M  V30 25626 C 2385.23 3.53383 -0.717807 0
M  V30 25627 O 2384.34 4.1174 0.233304 0
M  V30 25628 H 2383.68 0.630834 -0.207231 0
M  V30 25629 H 2386.21 1.65636 -1.20108 0
M  V30 25630 H 2386.22 4.03271 -0.619378 0
M  V30 25631 H 2384.89 3.77622 -1.74282 0
M  V30 25632 H 2383.47 3.72796 0.0880051 0
M  V30 25633 N 2385.65 0.653339 1.4342 0
M  V30 25634 C 2386.88 0.172883 2.06678 0
M  V30 25635 C 2387.3 -1.1526 1.4865 0
M  V30 25636 O 2386.66 -1.71207 0.596487 0
M  V30 25637 C 2386.71 0.0953818 3.60474 0
M  V30 25638 O 2385.81 -0.942372 4.01489 0
M  V30 25639 H 2385.15 0.0949271 0.657179 0
M  V30 25640 H 2387.68 0.896297 1.83923 0
M  V30 25641 H 2387.69 -0.0879011 4.07905 0
M  V30 25642 H 2386.37 1.06298 4.02086 0
M  V30 25643 H 2384.95 -0.731867 3.65648 0
M  V30 25644 N 2387.13 -1.52563 0.395266 0
M  V30 25645 C 2388.09 -2.25226 -0.424961 0
M  V30 25646 C 2389.09 -1.27081 -0.985244 0
M  V30 25647 O 2390.28 -1.51132 -0.866305 0
M  V30 25648 C 2387.42 -3.01189 -1.59681 0
M  V30 25649 H 2388.61 -2.99155 0.211285 0
M  V30 25650 H 2386.16 -1.55602 0.1475 0
M  V30 25651 H 2386.9 -2.31576 -2.27031 0
M  V30 25652 H 2386.68 -3.73231 -1.2017 0
M  V30 25653 H 2388.17 -3.56343 -2.17736 0
M  V30 25654 N 2388.61 -0.125265 -1.57101 0
M  V30 25655 C 2389.54 0.819136 -2.18661 0
M  V30 25656 C 2390.52 1.27279 -1.12846 0
M  V30 25657 O 2391.71 1.33427 -1.41106 0
M  V30 25658 C 2388.84 2.0669 -2.79099 0
M  V30 25659 C 2387.79 1.75081 -3.90552 0
M  V30 25660 C 2387.12 3.0694 -4.37826 0
M  V30 25661 C 2388.42 1.01426 -5.12357 0
M  V30 25662 H 2390.11 0.30615 -2.97831 0
M  V30 25663 H 2387.66 0.145814 -1.4326 0
M  V30 25664 H 2389.61 2.73221 -3.20825 0
M  V30 25665 H 2388.33 2.60324 -1.97228 0
M  V30 25666 H 2386.99 1.10938 -3.49411 0
M  V30 25667 H 2386.64 3.58521 -3.52805 0
M  V30 25668 H 2386.34 2.86562 -5.12987 0
M  V30 25669 H 2387.86 3.74578 -4.82207 0
M  V30 25670 H 2389.28 1.58122 -5.51063 0
M  V30 25671 H 2387.67 0.911214 -5.93142 0
M  V30 25672 H 2388.74 0.00210157 -4.849 0
M  V30 25673 N 2390.09 1.56899 0.148518 0
M  V30 25674 C 2391.02 1.94752 1.20849 0
M  V30 25675 C 2392.03 0.843176 1.39264 0
M  V30 25676 O 2393.22 1.12159 1.38862 0
M  V30 25677 C 2390.32 2.205 2.57358 0
M  V30 25678 C 2389.49 3.51781 2.59941 0
M  V30 25679 C 2388.55 3.66087 3.77977 0
M  V30 25680 O 2387.58 4.38494 3.62921 0
M  V30 25681 N 2388.78 3.02637 4.95369 0
M  V30 25682 H 2391.55 2.86281 0.886754 0
M  V30 25683 H 2389.11 1.5833 0.338094 0
M  V30 25684 H 2391.1 2.27313 3.34829 0
M  V30 25685 H 2389.67 1.35243 2.8183 0
M  V30 25686 H 2388.89 3.56422 1.68396 0
M  V30 25687 H 2390.18 4.38125 2.58696 0
M  V30 25688 H 2389.58 2.43724 5.10505 0
M  V30 25689 H 2388.13 3.15014 5.70622 0
M  V30 25690 N 2391.57 -0.417818 1.51961 0
M  V30 25691 C 2392.53 -1.49108 1.74067 0
M  V30 25692 C 2393.53 -1.48757 0.610563 0
M  V30 25693 O 2394.72 -1.50435 0.878347 0
M  V30 25694 C 2391.85 -2.88562 1.81507 0
M  V30 25695 H 2393.04 -1.30803 2.69872 0
M  V30 25696 H 2390.6 -0.64776 1.42245 0
M  V30 25697 H 2391.33 -3.12248 0.875868 0
M  V30 25698 H 2391.12 -2.9022 2.63656 0
M  V30 25699 H 2392.61 -3.66383 2.00382 0
M  V30 25700 N 2393.04 -1.42436 -0.674508 0
M  V30 25701 C 2394.29 -1.42639 -1.43173 0
M  V30 25702 C 2394.61 -0.0439335 -1.94951 0
M  V30 25703 O 2393.88 0.917577 -1.73082 0
M  V30 25704 H 2392.46 -0.525101 -0.531298 0
M  V30 25705 H 2395.12 -1.7786 -0.796975 0
M  V30 25706 H 2394.22 -2.12633 -2.2846 0
M  V30 25707 N 2394.52 0.910841 -1.28614 0
M  V30 25708 C 2395.45 2.0303 -1.15329 0
M  V30 25709 C 2396.43 1.70026 -0.0503222 0
M  V30 25710 O 2397.62 1.92859 -0.22783 0
M  V30 25711 C 2394.75 3.37544 -0.817403 0
M  V30 25712 C 2393.7 3.84721 -1.87547 0
M  V30 25713 C 2393.03 5.16232 -1.39314 0
M  V30 25714 C 2394.33 4.06261 -3.28251 0
M  V30 25715 H 2396.02 2.14402 -2.08979 0
M  V30 25716 H 2393.57 1.03019 -1.00614 0
M  V30 25717 H 2395.52 4.15355 -0.711224 0
M  V30 25718 H 2394.24 3.26233 0.154789 0
M  V30 25719 H 2392.9 3.09117 -1.97084 0
M  V30 25720 H 2392.55 5.01327 -0.409934 0
M  V30 25721 H 2392.25 5.48768 -2.10066 0
M  V30 25722 H 2393.78 5.96595 -1.30024 0
M  V30 25723 H 2395.19 4.74588 -3.21619 0
M  V30 25724 H 2393.59 4.50133 -3.96863 0
M  V30 25725 H 2394.66 3.10973 -3.72054 0
M  V30 25726 N 2396 1.10909 1.11969 0
M  V30 25727 C 2397.42 0.841876 1.3559 0
M  V30 25728 C 2397.62 -0.536212 1.94234 0
M  V30 25729 O 2396.67 -1.28812 2.17172 0
M  V30 25730 C 2397.99 1.94553 2.29281 0
M  V30 25731 C 2399.53 1.97455 2.42859 0
M  V30 25732 C 2400.01 3.07008 3.39868 0
M  V30 25733 N 2401.5 3.06347 3.47427 0
M  V30 25734 C 2402.23 3.87755 4.22414 0
M  V30 25735 N 2401.73 4.79112 5.00424 0
M  V30 25736 N 2403.52 3.75954 4.1787 0
M  V30 25737 H 2395.67 1.99729 0.722629 0
M  V30 25738 H 2397.94 0.868235 0.38062 0
M  V30 25739 H 2397.64 2.93769 1.93373 0
M  V30 25740 H 2397.52 1.83694 3.29449 0
M  V30 25741 H 2399.9 0.988694 2.78045 0
M  V30 25742 H 2399.99 2.12391 1.42562 0
M  V30 25743 H 2399.63 4.05816 3.0541 0
M  V30 25744 H 2399.56 2.89313 4.40006 0
M  V30 25745 H 2402.05 2.40152 2.9178 0
M  V30 25746 H 2402.36 5.37776 5.54993 0
M  V30 25747 H 2400.71 4.83137 4.99603 0
M  V30 25748 H 2403.9 3.03931 3.56011 0
M  V30 25749 H 2404.07 4.39633 4.76054 0
M  V30 25750 N 2397.48 -1.29474 0.898573 0
M  V30 25751 C 2398.7 -2.00285 0.538596 0
M  V30 25752 C 2399.13 -1.66818 -0.869106 0
M  V30 25753 O 2398.49 -0.892172 -1.57829 0
M  V30 25754 C 2398.53 -3.52998 0.736537 0
M  V30 25755 O 2397.64 -4.11857 -0.211465 0
M  V30 25756 H 2396.98 -0.629726 0.210574 0
M  V30 25757 H 2399.51 -1.64996 1.20985 0
M  V30 25758 H 2399.52 -4.02937 0.640756 0
M  V30 25759 H 2398.19 -3.76693 1.76283 0
M  V30 25760 H 2396.77 -3.72838 -0.0682336 0
M  V30 25761 N 2398.96 -0.660936 -1.43071 0
M  V30 25762 C 2399.89 0.0122419 -2.33497 0
M  V30 25763 C 2400.87 0.803899 -1.49905 0
M  V30 25764 O 2402.05 0.763833 -1.78548 0
M  V30 25765 C 2399.18 0.973936 -3.33364 0
M  V30 25766 C 2398.14 0.291852 -4.27004 0
M  V30 25767 C 2397.46 1.36553 -5.16969 0
M  V30 25768 C 2398.76 -0.820552 -5.15814 0
M  V30 25769 H 2400.46 -0.742924 -2.90036 0
M  V30 25770 H 2398 -0.358713 -1.39461 0
M  V30 25771 H 2399.96 1.45385 -3.95527 0
M  V30 25772 H 2398.68 1.76036 -2.75098 0
M  V30 25773 H 2397.34 -0.167687 -3.66216 0
M  V30 25774 H 2396.99 2.14358 -4.55038 0
M  V30 25775 H 2396.69 0.914352 -5.80442 0
M  V30 25776 H 2398.21 1.84665 -5.82006 0
M  V30 25777 H 2399.62 -0.422467 -5.71741 0
M  V30 25778 H 2398.02 -1.19667 -5.88048 0
M  V30 25779 H 2399.09 -1.67526 -4.55042 0
M  V30 25780 N 2400.43 1.52351 -0.403352 0
M  V30 25781 C 2401.37 2.24531 0.46026 0
M  V30 25782 C 2402.38 1.27283 1.01503 0
M  V30 25783 O 2403.57 1.53267 0.914955 0
M  V30 25784 C 2400.67 2.95908 1.65203 0
M  V30 25785 C 2399.84 4.19978 1.22217 0
M  V30 25786 C 2398.9 4.7423 2.28019 0
M  V30 25787 O 2397.93 5.36959 1.88847 0
M  V30 25788 N 2399.13 4.55302 3.60112 0
M  V30 25789 H 2401.89 2.99282 -0.158209 0
M  V30 25790 H 2399.45 1.60252 -0.23043 0
M  V30 25791 H 2401.45 3.29097 2.35536 0
M  V30 25792 H 2400.02 2.24378 2.17654 0
M  V30 25793 H 2399.24 3.92668 0.347181 0
M  V30 25794 H 2400.52 5.00563 0.911836 0
M  V30 25795 H 2399.92 4.0526 3.94691 0
M  V30 25796 H 2398.48 4.92944 4.26438 0
M  V30 25797 N 2401.91 0.133594 1.57033 0
M  V30 25798 C 2403.19 -0.565187 1.87257 0
M  V30 25799 C 2403.57 -1.83857 1.03729 0
M  V30 25800 O 2402.92 -2.28183 0.120287 0
M  V30 25801 C 2403.13 -0.843576 3.38651 0
M  V30 25802 C 2404.48 -1.19025 4.07576 0
M  V30 25803 O 2405.5 -0.933368 3.43754 0
M  V30 25804 O 2404.36 -1.67303 5.20262 0
M  V30 25805 H 2401.45 -0.286783 0.775683 0
M  V30 25806 H 2404 0.169198 1.68854 0
M  V30 25807 H 2402.77 0.0581836 3.91257 0
M  V30 25808 H 2402.39 -1.63261 3.62535 0
M  V30 25809 N 2403.39 -1.56975 -0.140195 0
M  V30 25810 C 2404.32 -2.0181 -1.17452 0
M  V30 25811 C 2405.3 -0.898819 -1.44413 0
M  V30 25812 O 2406.49 -1.1671 -1.55218 0
M  V30 25813 C 2403.62 -2.40449 -2.50603 0
M  V30 25814 C 2402.57 -3.55625 -2.38149 0
M  V30 25815 C 2401.9 -3.80098 -3.76072 0
M  V30 25816 C 2403.2 -4.88065 -1.85983 0
M  V30 25817 H 2404.89 -2.88467 -0.801692 0
M  V30 25818 H 2402.44 -1.3878 -0.384196 0
M  V30 25819 H 2404.39 -2.70416 -3.23193 0
M  V30 25820 H 2403.11 -1.50737 -2.89734 0
M  V30 25821 H 2401.77 -3.25834 -1.6801 0
M  V30 25822 H 2401.42 -2.87625 -4.12651 0
M  V30 25823 H 2401.12 -4.57613 -3.68598 0
M  V30 25824 H 2402.64 -4.12496 -4.50199 0
M  V30 25825 H 2404.06 -5.16706 -2.48371 0
M  V30 25826 H 2402.46 -5.69433 -1.89383 0
M  V30 25827 H 2403.53 -4.77986 -0.815938 0
M  V30 25828 N 2404.87 0.409753 -1.5218 0
M  V30 25829 C 2406.12 1.15448 -1.6588 0
M  V30 25830 C 2406.44 1.91044 -0.390804 0
M  V30 25831 O 2405.71 1.86668 0.59429 0
M  V30 25832 H 2404.29 0.429166 -0.611412 0
M  V30 25833 H 2406.95 0.467101 -1.8922 0
M  V30 25834 H 2406.05 1.86889 -2.49958 0
M  V30 25835 N 2406.35 1.42792 0.666944 0
M  V30 25836 C 2407.76 1.3888 1.24777 0
M  V30 25837 C 2408.11 0.0859771 1.96012 0
M  V30 25838 O 2407.23 -0.815046 2.00464 0
M  V30 25839 C 2407.83 2.51568 2.26934 0
M  V30 25840 C 2406.39 2.50963 2.80525 0
M  V30 25841 C 2405.53 2.29962 1.54961 0
M  V30 25842 H 2408.49 1.51892 0.459826 0
M  V30 25843 H 2408.51 2.2227 3.08831 0
M  V30 25844 H 2408.02 3.46375 1.75059 0
M  V30 25845 H 2406.12 1.59997 3.36499 0
M  V30 25846 H 2406.23 3.4827 3.29005 0
M  V30 25847 H 2404.6 1.7837 1.81814 0
M  V30 25848 H 2405.38 3.26835 1.05041 0
M  V30 25849 N 2407.82 -0.904008 1.29095 0
M  V30 25850 C 2408.73 -2.04068 1.15731 0
M  V30 25851 C 2409.75 -1.73809 0.0815613 0
M  V30 25852 O 2410.93 -1.9926 0.292784 0
M  V30 25853 C 2407.99 -3.36606 0.830483 0
M  V30 25854 C 2407.05 -3.80411 1.98962 0
M  V30 25855 C 2406.29 -5.06625 1.67829 0
M  V30 25856 O 2406.51 -5.67265 0.597205 0
M  V30 25857 O 2405.44 -5.46379 2.52495 0
M  V30 25858 H 2409.27 -2.18264 2.11174 0
M  V30 25859 H 2406.85 -1.02698 1.08506 0
M  V30 25860 H 2408.74 -4.16158 0.662594 0
M  V30 25861 H 2407.41 -3.23563 -0.0942109 0
M  V30 25862 H 2406.32 -3.01645 2.21272 0
M  V30 25863 H 2407.65 -3.98032 2.89536 0
M  V30 25864 N 2409.3 -1.11501 -1.11379 0
M  V30 25865 C 2410.24 -0.717728 -2.16619 0
M  V30 25866 C 2411.21 0.286385 -1.60058 0
M  V30 25867 O 2412.4 0.182656 -1.87613 0
M  V30 25868 C 2409.52 -0.060786 -3.38645 0
M  V30 25869 C 2408.57 -1.03015 -4.13872 0
M  V30 25870 S 2409.4 -2.55297 -4.70727 0
M  V30 25871 C 2410.56 -1.90905 -5.96076 0
M  V30 25872 H 2410.79 -1.6092 -2.49984 0
M  V30 25873 H 2408.33 -0.933114 -1.23014 0
M  V30 25874 H 2410.28 0.311893 -4.09313 0
M  V30 25875 H 2408.94 0.807648 -3.03539 0
M  V30 25876 H 2408.14 -0.517941 -5.01332 0
M  V30 25877 H 2407.74 -1.34528 -3.48967 0
M  V30 25878 H 2410.03 -1.24589 -6.65946 0
M  V30 25879 H 2410.97 -2.76365 -6.51942 0
M  V30 25880 H 2411.38 -1.36894 -5.4765 0
M  V30 25881 N 2410.78 1.28995 -0.905426 0
M  V30 25882 C 2412.2 1.47797 -0.602356 0
M  V30 25883 C 2412.4 1.82479 0.854613 0
M  V30 25884 O 2411.45 1.92471 1.63435 0
M  V30 25885 C 2412.77 2.58682 -1.5331 0
M  V30 25886 C 2414.31 2.72555 -1.53892 0
M  V30 25887 C 2414.79 3.86575 -2.45609 0
M  V30 25888 N 2416.28 3.93917 -2.43688 0
M  V30 25889 C 2417.02 4.81503 -3.11356 0
M  V30 25890 N 2416.51 5.7374 -3.88323 0
M  V30 25891 N 2418.3 4.75043 -3.00484 0
M  V30 25892 H 2410.46 1.04761 -1.84767 0
M  V30 25893 H 2412.72 0.520947 -0.792034 0
M  V30 25894 H 2412.42 2.39936 -2.57145 0
M  V30 25895 H 2412.3 3.55607 -1.25793 0
M  V30 25896 H 2414.69 2.90695 -0.507992 0
M  V30 25897 H 2414.77 1.76188 -1.8545 0
M  V30 25898 H 2414.41 3.69191 -3.48799 0
M  V30 25899 H 2414.34 4.82323 -2.11358 0
M  V30 25900 H 2416.83 3.27948 -1.87772 0
M  V30 25901 H 2417.14 6.37381 -4.36996 0
M  V30 25902 H 2415.49 5.73607 -3.92429 0
M  V30 25903 H 2418.68 4.01973 -2.39865 0
M  V30 25904 H 2418.85 5.43089 -3.53494 0
M  V30 25905 N 2412.26 0.668514 1.42719 0
M  V30 25906 C 2413.19 -0.0525728 2.2914 0
M  V30 25907 C 2414.2 -0.771832 1.43341 0
M  V30 25908 O 2415.39 -0.627038 1.67124 0
M  V30 25909 C 2412.49 -1.09799 3.2062 0
M  V30 25910 C 2411.67 -0.453813 4.35039 0
M  V30 25911 C 2410.73 -1.39816 5.07285 0
M  V30 25912 O 2409.75 -0.90088 5.62026 0
M  V30 25913 N 2410.95 -2.73167 5.12211 0
M  V30 25914 H 2413.72 0.68926 2.91666 0
M  V30 25915 H 2411.28 0.512449 1.53576 0
M  V30 25916 H 2413.27 -1.73088 3.65818 0
M  V30 25917 H 2411.84 -1.74162 2.59589 0
M  V30 25918 H 2411.06 0.358465 3.92567 0
M  V30 25919 H 2412.35 -0.00478028 5.088 0
M  V30 25920 H 2411.75 -3.16114 4.69136 0
M  V30 25921 H 2410.3 -3.3172 5.61075 0
M  V30 25922 N 2413.74 -1.52135 0.411426 0
M  V30 25923 C 2414.7 -2.25664 -0.401049 0
M  V30 25924 C 2415.7 -1.28119 -0.97171 0
M  V30 25925 O 2416.89 -1.52042 -0.850227 0
M  V30 25926 C 2414.02 -3.02866 -1.56477 0
M  V30 25927 H 2415.22 -2.98914 0.243003 0
M  V30 25928 H 2412.77 -1.55437 0.163995 0
M  V30 25929 H 2413.5 -2.33971 -2.24562 0
M  V30 25930 H 2413.29 -3.74485 -1.16204 0
M  V30 25931 H 2414.78 -3.58633 -2.13945 0
M  V30 25932 N 2415.22 -0.14192 -1.5696 0
M  V30 25933 C 2416.15 0.795898 -2.19517 0
M  V30 25934 C 2417.13 1.26075 -1.14189 0
M  V30 25935 O 2418.31 1.31923 -1.42513 0
M  V30 25936 C 2415.44 2.03718 -2.81276 0
M  V30 25937 C 2414.4 1.70929 -3.92387 0
M  V30 25938 C 2413.72 3.02279 -4.41057 0
M  V30 25939 C 2415.02 0.959864 -5.13404 0
M  V30 25940 H 2416.72 0.274543 -2.98139 0
M  V30 25941 H 2414.26 0.130611 -1.43406 0
M  V30 25942 H 2416.21 2.69802 -3.23705 0
M  V30 25943 H 2414.94 2.58218 -1.99978 0
M  V30 25944 H 2413.6 1.07226 -3.50568 0
M  V30 25945 H 2413.25 3.54759 -3.56588 0
M  V30 25946 H 2412.95 2.81105 -5.15998 0
M  V30 25947 H 2414.47 3.69443 -4.86153 0
M  V30 25948 H 2415.88 1.52269 -5.52709 0
M  V30 25949 H 2414.28 0.848253 -5.94075 0
M  V30 25950 H 2415.35 -0.0493287 -4.84875 0
M  V30 25951 N 2416.69 1.57047 0.131868 0
M  V30 25952 C 2417.92 1.88343 0.856428 0
M  V30 25953 C 2418.34 0.731787 1.74041 0
M  V30 25954 O 2417.69 -0.297914 1.80052 0
M  V30 25955 C 2417.74 3.19002 1.70058 0
M  V30 25956 O 2417.47 4.29731 0.852203 0
M  V30 25957 C 2418.97 3.63915 2.53141 0
M  V30 25958 H 2416.19 0.623934 0.246874 0
M  V30 25959 H 2418.73 2.04147 0.120117 0
M  V30 25960 H 2416.89 3.04906 2.38979 0
M  V30 25961 H 2417.3 5.04539 1.4332 0
M  V30 25962 H 2418.77 4.58135 3.07923 0
M  V30 25963 H 2419.25 2.8994 3.29896 0
M  V30 25964 H 2419.86 3.80756 1.89486 0
M  V30 25965 N 2418.17 -0.401677 1.52395 0
M  V30 25966 C 2419.41 -1.15702 1.68501 0
M  V30 25967 C 2419.78 -1.87576 0.409781 0
M  V30 25968 O 2420.98 -2.65057 0.44703 0
M  V30 25969 C 2419.25 -2.11919 2.87793 0
M  V30 25970 S 2420.81 -2.95461 3.2442 0
M  V30 25971 H 2417.62 -0.391851 0.593274 0
M  V30 25972 H 2420.23 -0.443248 1.90409 0
M  V30 25973 H 2418.93 -1.57817 3.78843 0
M  V30 25974 H 2418.46 -2.87824 2.6818 0
M  V30 25975 H 2420.48 -4.13939 2.73621 0
M  V30 25976 N 2419.65 -1.43144 -0.659362 0
M  V30 25977 C 2420.93 -1.34914 -1.41624 0
M  V30 25978 C 2421.31 0.00604075 -2.11099 0
M  V30 25979 O 2420.65 1.02232 -2.04355 0
M  V30 25980 C 2420.86 -2.5281 -2.406 0
M  V30 25981 C 2422.21 -2.95621 -3.04784 0
M  V30 25982 O 2423.24 -2.52812 -2.50928 0
M  V30 25983 O 2422.1 -3.69763 -4.02415 0
M  V30 25984 H 2419.19 -0.532856 -0.632451 0
M  V30 25985 H 2421.74 -1.55182 -0.686787 0
M  V30 25986 H 2420.51 -3.43087 -1.88168 0
M  V30 25987 H 2420.13 -2.3461 -3.21005 0
M  V30 25988 N 2421.13 0.897149 -1.29572 0
M  V30 25989 C 2422.36 1.68127 -1.20585 0
M  V30 25990 C 2422.77 1.87355 0.233148 0
M  V30 25991 O 2422.13 1.41238 1.15577 0
M  V30 25992 C 2422.18 3.06437 -1.91777 0
M  V30 25993 O 2421.9 2.88086 -3.30058 0
M  V30 25994 C 2423.4 4.00851 -1.89298 0
M  V30 25995 H 2420.62 0.525029 -0.417835 0
M  V30 25996 H 2423.16 1.12174 -1.70989 0
M  V30 25997 H 2421.32 3.59159 -1.45202 0
M  V30 25998 H 2421.73 3.75742 -3.65948 0
M  V30 25999 H 2423.21 4.95306 -2.43671 0
M  V30 26000 H 2423.68 4.30515 -0.869089 0
M  V30 26001 H 2424.29 3.54061 -2.35628 0
M  V30 26002 N 2422.61 1.1209 1.10786 0
M  V30 26003 C 2423.52 0.798377 2.20597 0
M  V30 26004 C 2424.53 -0.21132 1.72712 0
M  V30 26005 O 2425.71 -0.0458123 2.01348 0
M  V30 26006 C 2422.77 0.253734 3.4577 0
M  V30 26007 C 2421.83 1.3229 4.08409 0
M  V30 26008 C 2421.07 0.804153 5.27607 0
M  V30 26009 O 2421.29 -0.363378 5.69241 0
M  V30 26010 O 2420.22 1.57208 5.81007 0
M  V30 26011 H 2424.05 1.71545 2.50611 0
M  V30 26012 H 2421.63 0.897296 1.19453 0
M  V30 26013 H 2423.52 -0.045295 4.21376 0
M  V30 26014 H 2422.19 -0.635949 3.17392 0
M  V30 26015 H 2421.1 1.67505 3.34504 0
M  V30 26016 H 2422.43 2.18622 4.40982 0
M  V30 26017 N 2424.08 -1.28513 0.912254 0
M  V30 26018 C 2424.99 -2.31086 0.404547 0
M  V30 26019 C 2426.01 -1.66448 -0.50704 0
M  V30 26020 O 2427.19 -1.97517 -0.393589 0
M  V30 26021 C 2424.25 -3.44944 -0.348512 0
M  V30 26022 C 2423.31 -4.25141 0.596114 0
M  V30 26023 C 2422.54 -5.33563 -0.1211 0
M  V30 26024 O 2422.77 -5.54363 -1.34307 0
M  V30 26025 O 2421.7 -5.99447 0.542822 0
M  V30 26026 H 2425.53 -2.76519 1.25583 0
M  V30 26027 H 2423.11 -1.33179 0.677022 0
M  V30 26028 H 2424.99 -4.14233 -0.773877 0
M  V30 26029 H 2423.67 -3.01596 -1.17566 0
M  V30 26030 H 2422.58 -3.58446 1.07085 0
M  V30 26031 H 2423.91 -4.72164 1.39003 0
M  V30 26032 N 2425.56 -0.676073 -1.42362 0
M  V30 26033 C 2426.47 0.00149265 -2.346 0
M  V30 26034 C 2427.49 0.787458 -1.55162 0
M  V30 26035 O 2428.66 0.729488 -1.87724 0
M  V30 26036 C 2425.73 0.940239 -3.33707 0
M  V30 26037 C 2424.79 0.148664 -4.29043 0
M  V30 26038 C 2424.02 1.0427 -5.23415 0
M  V30 26039 O 2424.25 2.28222 -5.22753 0
M  V30 26040 O 2423.18 0.50282 -5.99796 0
M  V30 26041 H 2427.01 -0.758319 -2.9408 0
M  V30 26042 H 2424.59 -0.436314 -1.42887 0
M  V30 26043 H 2426.47 1.4791 -3.94589 0
M  V30 26044 H 2425.15 1.67988 -2.76698 0
M  V30 26045 H 2424.06 -0.434335 -3.7157 0
M  V30 26046 H 2425.39 -0.551891 -4.89096 0
M  V30 26047 N 2427.04 1.51915 -0.419488 0
M  V30 26048 C 2427.95 2.31034 0.407487 0
M  V30 26049 C 2428.97 1.39192 1.04411 0
M  V30 26050 O 2430.14 1.72266 1.04337 0
M  V30 26051 C 2427.21 3.12399 1.50359 0
M  V30 26052 C 2426.27 4.19995 0.888955 0
M  V30 26053 C 2425.5 4.97471 1.93283 0
M  V30 26054 O 2425.72 4.75367 3.1525 0
M  V30 26055 O 2424.66 5.82043 1.53329 0
M  V30 26056 H 2428.48 3.02767 -0.237918 0
M  V30 26057 H 2426.07 1.48282 -0.182439 0
M  V30 26058 H 2427.95 3.63036 2.13969 0
M  V30 26059 H 2426.63 2.43449 2.13341 0
M  V30 26060 H 2425.53 3.7348 0.215287 0
M  V30 26061 H 2426.87 4.91267 0.302905 0
M  V30 26062 N 2428.52 0.150242 1.56882 0
M  V30 26063 C 2429.43 -0.801184 2.20495 0
M  V30 26064 C 2430.44 -1.26925 1.19021 0
M  V30 26065 O 2431.62 -1.32576 1.5161 0
M  V30 26066 C 2428.69 -2.02156 2.81662 0
M  V30 26067 C 2427.75 -1.60242 3.98273 0
M  V30 26068 C 2426.98 -2.76462 4.56513 0
M  V30 26069 O 2427.2 -3.92764 4.13634 0
M  V30 26070 O 2426.14 -2.51748 5.46724 0
M  V30 26071 H 2429.96 -0.289664 3.02315 0
M  V30 26072 H 2427.55 -0.0769422 1.49202 0
M  V30 26073 H 2429.43 -2.7357 3.20527 0
M  V30 26074 H 2428.1 -2.52254 2.02853 0
M  V30 26075 H 2427.01 -0.858413 3.64118 0
M  V30 26076 H 2428.34 -1.14856 4.78611 0
M  V30 26077 N 2430 -1.57115 -0.123538 0
M  V30 26078 C 2430.91 -2.03302 -1.1707 0
M  V30 26079 C 2431.92 -0.952585 -1.45608 0
M  V30 26080 O 2433.1 -1.26377 -1.56815 0
M  V30 26081 C 2430.16 -2.42425 -2.47852 0
M  V30 26082 C 2429.22 -3.6453 -2.26752 0
M  V30 26083 C 2428.46 -4.01778 -3.51298 0
M  V30 26084 O 2428.68 -3.39417 -4.58424 0
M  V30 26085 O 2427.61 -4.94904 -3.42569 0
M  V30 26086 H 2431.44 -2.9274 -0.808504 0
M  V30 26087 H 2429.03 -1.45619 -0.334001 0
M  V30 26088 H 2430.91 -2.68344 -3.24915 0
M  V30 26089 H 2429.58 -1.56135 -2.83555 0
M  V30 26090 H 2428.49 -3.43767 -1.47563 0
M  V30 26091 H 2429.82 -4.51511 -1.95955 0
M  V30 26092 N 2431.47 0.393589 -1.52606 0
M  V30 26093 C 2432.72 1.13682 -1.67095 0
M  V30 26094 C 2433.04 1.90619 -0.411045 0
M  V30 26095 O 2432.31 1.87288 0.574458 0
M  V30 26096 H 2430.89 0.422657 -0.61593 0
M  V30 26097 H 2433.56 0.447005 -1.89705 0
M  V30 26098 H 2432.65 1.84228 -2.51926 0
M  V30 26099 N 2432.95 1.43492 0.651762 0
M  V30 26100 C 2433.88 1.44732 1.77723 0
M  V30 26101 C 2434.9 0.343259 1.5914 0
M  V30 26102 O 2436.09 0.607781 1.67834 0
M  V30 26103 C 2433.19 1.24584 3.1517 0
M  V30 26104 C 2432.36 2.47855 3.60398 0
M  V30 26105 C 2431.42 2.22911 4.76652 0
M  V30 26106 O 2430.44 2.96271 4.86016 0
M  V30 26107 N 2431.65 1.24666 5.66956 0
M  V30 26108 H 2434.41 2.41749 1.77136 0
M  V30 26109 H 2431.97 1.38667 0.835654 0
M  V30 26110 H 2433.96 1.05777 3.90632 0
M  V30 26111 H 2432.53 0.36007 3.10519 0
M  V30 26112 H 2431.75 2.82078 2.75364 0
M  V30 26113 H 2433.04 3.29891 3.87362 0
M  V30 26114 H 2432.44 0.640364 5.62064 0
M  V30 26115 H 2431 1.11841 6.42133 0
M  V30 26116 N 2434.43 -0.890264 1.30046 0
M  V30 26117 C 2435.34 -2.02829 1.17889 0
M  V30 26118 C 2436.36 -1.73712 0.0999915 0
M  V30 26119 O 2437.53 -1.98939 0.313902 0
M  V30 26120 C 2434.6 -3.35707 0.866138 0
M  V30 26121 C 2433.66 -3.7828 2.02985 0
M  V30 26122 C 2432.89 -5.04817 1.73193 0
M  V30 26123 O 2433.11 -5.666 0.657337 0
M  V30 26124 O 2432.05 -5.4367 2.58276 0
M  V30 26125 H 2435.87 -2.16012 2.13478 0
M  V30 26126 H 2433.46 -1.01541 1.09589 0
M  V30 26127 H 2435.34 -4.15432 0.706696 0
M  V30 26128 H 2434.02 -3.23645 -0.0598874 0
M  V30 26129 H 2432.92 -2.99281 2.24459 0
M  V30 26130 H 2434.26 -3.94939 2.93741 0
M  V30 26131 N 2435.91 -1.12676 -1.1019 0
M  V30 26132 C 2437.16 -0.881893 -1.81844 0
M  V30 26133 C 2437.48 0.593835 -1.85738 0
M  V30 26134 O 2436.75 1.43157 -1.33727 0
M  V30 26135 H 2435.33 -0.323273 -0.673427 0
M  V30 26136 H 2437.99 -1.42175 -1.33313 0
M  V30 26137 H 2437.09 -1.26565 -2.85285 0
M  V30 26138 N 2437.39 1.28028 -0.919057 0
M  V30 26139 C 2438.63 1.95035 -0.555791 0
M  V30 26140 C 2438.97 1.7213 0.899167 0
M  V30 26141 O 2438.24 1.04533 1.64021 0
M  V30 26142 C 2438.52 3.4938 -0.872085 0
M  V30 26143 C 2438.38 3.81665 -2.38016 0
M  V30 26144 C 2439.7 4.38526 -0.371927 0
M  V30 26145 H 2436.81 0.708377 -0.203398 0
M  V30 26146 H 2439.46 1.51301 -1.14927 0
M  V30 26147 H 2437.61 3.86763 -0.367014 0
M  V30 26148 H 2439.28 3.54123 -2.95626 0
M  V30 26149 H 2437.52 3.28522 -2.83295 0
M  V30 26150 H 2438.19 4.89465 -2.55201 0
M  V30 26151 H 2440.67 4.08245 -0.804673 0
M  V30 26152 H 2439.54 5.45361 -0.622268 0
M  V30 26153 H 2439.81 4.36067 0.727857 0
M  V30 26154 N 2438.86 0.683613 1.42002 0
M  V30 26155 C 2439.77 0.0109488 2.34597 0
M  V30 26156 C 2440.79 -0.779218 1.55577 0
M  V30 26157 O 2441.97 -0.719522 1.88109 0
M  V30 26158 C 2439.03 -0.922529 3.34201 0
M  V30 26159 C 2438.09 -0.125908 4.29115 0
M  V30 26160 C 2437.33 -1.01493 5.23961 0
M  V30 26161 O 2437.55 -2.25447 5.23956 0
M  V30 26162 O 2436.48 -0.471004 6.00054 0
M  V30 26163 H 2440.31 0.773904 2.93674 0
M  V30 26164 H 2437.89 0.443886 1.42653 0
M  V30 26165 H 2439.78 -1.45816 3.95368 0
M  V30 26166 H 2438.45 -1.66518 2.77585 0
M  V30 26167 H 2437.36 0.454034 3.71335 0
M  V30 26168 H 2438.69 0.577822 4.88797 0
M  V30 26169 N 2440.34 -1.5169 0.427538 0
M  V30 26170 C 2441.25 -2.31247 -0.395229 0
M  V30 26171 C 2442.27 -1.39744 -1.03671 0
M  V30 26172 O 2443.45 -1.72817 -1.03422 0
M  V30 26173 C 2440.51 -3.13192 -1.487 0
M  V30 26174 C 2439.57 -4.20461 -0.866669 0
M  V30 26175 C 2438.8 -4.98489 -1.90642 0
M  V30 26176 O 2439.03 -4.77032 -3.12725 0
M  V30 26177 O 2437.96 -5.82848 -1.5024 0
M  V30 26178 H 2441.79 -3.02636 0.253971 0
M  V30 26179 H 2439.37 -1.48183 0.1903 0
M  V30 26180 H 2441.25 -3.64166 -2.12041 0
M  V30 26181 H 2439.93 -2.44577 -2.12047 0
M  V30 26182 H 2438.84 -3.73589 -0.195478 0
M  V30 26183 H 2440.17 -4.91421 -0.276848 0
M  V30 26184 N 2441.82 -0.15856 -1.568 0
M  V30 26185 C 2442.73 0.789479 -2.20917 0
M  V30 26186 C 2443.75 1.26292 -1.19693 0
M  V30 26187 O 2444.92 1.3177 -1.52311 0
M  V30 26188 C 2441.99 2.0066 -2.82731 0
M  V30 26189 C 2441.05 1.58127 -3.99117 0
M  V30 26190 C 2440.28 2.74037 -4.57973 0
M  V30 26191 O 2440.51 3.90565 -4.15711 0
M  V30 26192 O 2439.44 2.48845 -5.48051 0
M  V30 26193 H 2443.27 0.273628 -3.02465 0
M  V30 26194 H 2440.85 0.0690286 -1.4924 0
M  V30 26195 H 2442.73 2.71866 -3.21973 0
M  V30 26196 H 2441.41 2.51175 -2.04188 0
M  V30 26197 H 2440.31 0.83909 -3.64568 0
M  V30 26198 H 2441.65 1.12316 -4.79214 0
M  V30 26199 N 2443.3 1.57178 0.115204 0
M  V30 26200 C 2444.58 1.76028 0.852842 0
M  V30 26201 C 2444.96 0.735015 1.97891 0
M  V30 26202 O 2444.3 -0.24032 2.27233 0
M  V30 26203 C 2444.51 3.21155 1.36602 0
M  V30 26204 C 2445.86 3.83765 1.81685 0
M  V30 26205 O 2446.89 3.24781 1.46273 0
M  V30 26206 O 2445.75 4.87449 2.47095 0
M  V30 26207 H 2442.84 0.720884 0.405284 0
M  V30 26208 H 2445.39 1.69413 0.0986487 0
M  V30 26209 H 2444.16 3.87297 0.558289 0
M  V30 26210 H 2443.78 3.32324 2.18281 0
M  V30 26211 N 2444.78 -0.38549 1.52813 0
M  V30 26212 C 2445.69 -1.49532 1.80769 0
M  V30 26213 C 2446.7 -1.59531 0.694679 0
M  V30 26214 O 2447.88 -1.75801 0.982642 0
M  V30 26215 C 2444.94 -2.85026 1.97386 0
M  V30 26216 C 2444.01 -2.84719 3.213 0
M  V30 26217 C 2443.24 -4.1375 3.37115 0
M  V30 26218 O 2443.46 -5.08889 2.57659 0
M  V30 26219 O 2442.4 -4.20775 4.30386 0
M  V30 26220 H 2446.22 -1.28838 2.75017 0
M  V30 26221 H 2443.81 -0.573673 1.37947 0
M  V30 26222 H 2445.69 -3.65345 2.10003 0
M  V30 26223 H 2444.36 -3.05739 1.06327 0
M  V30 26224 H 2443.27 -2.03168 3.14123 0
M  V30 26225 H 2444.6 -2.68958 4.12217 0
M  V30 26226 N 2446.26 -1.43835 -0.644143 0
M  V30 26227 C 2447.2 -1.49697 -1.75668 0
M  V30 26228 C 2448.17 -0.345838 -1.6246 0
M  V30 26229 O 2449.36 -0.554266 -1.82572 0
M  V30 26230 C 2446.5 -1.43468 -3.13864 0
M  V30 26231 C 2445.61 -2.68856 -3.38142 0
M  V30 26232 C 2444.75 -2.54552 -4.66237 0
M  V30 26233 C 2443.78 -3.75165 -4.8365 0
M  V30 26234 N 2442.92 -3.59616 -6.0301 0
M  V30 26235 H 2447.76 -2.44757 -1.69994 0
M  V30 26236 H 2445.3 -1.21486 -0.829437 0
M  V30 26237 H 2447.26 -1.3785 -3.93768 0
M  V30 26238 H 2445.89 -0.519839 -3.18587 0
M  V30 26239 H 2444.94 -2.84716 -2.52271 0
M  V30 26240 H 2446.25 -3.58423 -3.46892 0
M  V30 26241 H 2445.4 -2.46693 -5.54281 0
M  V30 26242 H 2444.14 -1.62524 -4.59823 0
M  V30 26243 H 2443.15 -3.83423 -3.94039 0
M  V30 26244 H 2444.37 -4.68213 -4.91887 0
M  V30 26245 H 2442.32 -2.7033 -5.9771 0
M  V30 26246 H 2442.24 -4.4279 -6.12758 0
M  V30 26247 H 2443.5 -3.55625 -6.93651 0
M  V30 26248 N 2447.73 0.883355 -1.30517 0
M  V30 26249 C 2449.01 1.61678 -1.10089 0
M  V30 26250 C 2449.39 2.08191 0.349233 0
M  V30 26251 O 2448.74 1.85011 1.34102 0
M  V30 26252 C 2448.95 2.78507 -2.1032 0
M  V30 26253 C 2450.3 3.48799 -2.42125 0
M  V30 26254 O 2451.32 2.88698 -2.08643 0
M  V30 26255 O 2450.18 4.57186 -2.99404 0
M  V30 26256 H 2447.27 0.710682 -0.422919 0
M  V30 26257 H 2449.82 0.92999 -1.41948 0
M  V30 26258 H 2448.59 2.41454 -3.07922 0
M  V30 26259 H 2448.21 3.54883 -1.79288 0
M  V30 26260 N 2449.21 1.13259 1.09591 0
M  V30 26261 C 2450.14 0.830984 2.18213 0
M  V30 26262 C 2451.12 -0.208936 1.68812 0
M  V30 26263 O 2452.31 -0.0682324 1.9408 0
M  V30 26264 C 2449.44 0.294357 3.4605 0
M  V30 26265 C 2448.39 1.26833 4.08775 0
M  V30 26266 C 2447.72 0.591542 5.31418 0
M  V30 26267 C 2449.02 2.62623 4.51472 0
M  V30 26268 H 2450.71 1.73927 2.437 0
M  V30 26269 H 2448.26 0.837695 1.17127 0
M  V30 26270 H 2450.21 0.0710347 4.2134 0
M  V30 26271 H 2448.93 -0.64931 3.20081 0
M  V30 26272 H 2447.59 1.47762 3.35503 0
M  V30 26273 H 2447.24 -0.357544 5.01728 0
M  V30 26274 H 2446.94 1.24133 5.74339 0
M  V30 26275 H 2448.47 0.377462 6.09432 0
M  V30 26276 H 2449.88 2.45672 5.17994 0
M  V30 26277 H 2448.28 3.23761 5.05271 0
M  V30 26278 H 2449.35 3.20412 3.63956 0
M  V30 26279 N 2450.69 -1.27539 0.925834 0
M  V30 26280 C 2451.6 -2.30644 0.429034 0
M  V30 26281 C 2452.62 -1.66977 -0.489358 0
M  V30 26282 O 2453.79 -1.97923 -0.372618 0
M  V30 26283 C 2450.86 -3.45294 -0.311906 0
M  V30 26284 C 2449.92 -4.24485 0.641173 0
M  V30 26285 C 2449.15 -5.33661 -0.0645016 0
M  V30 26286 O 2449.37 -5.55756 -1.28419 0
M  V30 26287 O 2448.31 -5.98838 0.606371 0
M  V30 26288 H 2452.13 -2.75171 1.28509 0
M  V30 26289 H 2449.72 -1.32454 0.691109 0
M  V30 26290 H 2451.6 -4.15031 -0.729899 0
M  V30 26291 H 2450.28 -3.02826 -1.1436 0
M  V30 26292 H 2449.18 -3.5729 1.10881 0
M  V30 26293 H 2450.52 -4.70663 1.44003 0
M  V30 26294 N 2452.17 -0.691135 -1.41637 0
M  V30 26295 C 2453.4 -0.229127 -2.05627 0
M  V30 26296 C 2453.81 1.11996 -1.51994 0
M  V30 26297 O 2453.17 1.699 -0.666352 0
M  V30 26298 C 2453.22 -0.173346 -3.61084 0
M  V30 26299 O 2452.94 -1.46914 -4.12732 0
M  V30 26300 C 2454.44 0.310188 -4.42213 0
M  V30 26301 H 2451.66 -0.107545 -0.662325 0
M  V30 26302 H 2454.2 -0.94247 -1.81488 0
M  V30 26303 H 2452.36 0.490791 -3.84279 0
M  V30 26304 H 2452.77 -1.3533 -5.0674 0
M  V30 26305 H 2454.25 0.298099 -5.51194 0
M  V30 26306 H 2454.72 1.3483 -4.17992 0
M  V30 26307 H 2455.33 -0.322791 -4.24073 0
M  V30 26308 N 2453.65 1.51461 -0.435577 0
M  V30 26309 C 2454.59 2.29287 0.391164 0
M  V30 26310 C 2455.59 1.35064 1.02245 0
M  V30 26311 O 2456.79 1.52413 0.957619 0
M  V30 26312 H 2453.17 0.737897 0.144955 0
M  V30 26313 H 2455.14 2.97025 -0.286103 0
M  V30 26314 C 2453.89 3.14586 1.48091 0
M  V30 26315 H 2453.21 3.86975 1.0045 0
M  V30 26316 H 2454.65 3.721 2.03267 0
M  V30 26317 C 2453.11 2.29847 2.46317 0
M  V30 26318 O 2453.64 1.95688 3.50812 0
M  V30 26319 N 2451.85 1.93103 2.17162 0
M  V30 26320 H 2451.39 2.21082 1.32215 0
M  V30 26321 H 2451.35 1.36703 2.83125 0
M  V30 26322 N 2455.12 0.166873 1.56714 0
M  V30 26323 C 2456.07 -0.765154 2.17748 0
M  V30 26324 C 2457.04 -1.23009 1.11616 0
M  V30 26325 O 2458.23 -1.29905 1.39747 0
M  V30 26326 C 2455.37 -1.99085 2.81885 0
M  V30 26327 C 2454.48 -1.5699 4.02465 0
M  V30 26328 C 2453.61 -2.74892 4.54542 0
M  V30 26329 C 2452.65 -2.29265 5.67542 0
M  V30 26330 N 2451.79 -3.40245 6.14148 0
M  V30 26331 H 2456.63 -0.237899 2.97049 0
M  V30 26332 H 2454.17 -0.105699 1.4672 0
M  V30 26333 H 2456.13 -2.70968 3.17225 0
M  V30 26334 H 2454.76 -2.49188 2.05195 0
M  V30 26335 H 2453.81 -0.747971 3.72974 0
M  V30 26336 H 2455.12 -1.19495 4.84275 0
M  V30 26337 H 2454.27 -3.54938 4.92041 0
M  V30 26338 H 2453.01 -3.15644 3.7178 0
M  V30 26339 H 2452.02 -1.47664 5.29599 0
M  V30 26340 H 2453.24 -1.89576 6.52103 0
M  V30 26341 H 2451.19 -3.80581 5.34317 0
M  V30 26342 H 2451.11 -3.06828 6.90936 0
M  V30 26343 H 2452.37 -4.20589 6.56297 0
M  V30 26344 N 2456.6 -1.57237 -0.106866 0
M  V30 26345 C 2457.57 -2.00272 -1.11462 0
M  V30 26346 C 2458.57 -0.894542 -1.33621 0
M  V30 26347 O 2459.76 -1.1603 -1.29933 0
M  V30 26348 C 2456.89 -2.35331 -2.46642 0
M  V30 26349 H 2458.08 -2.90513 -0.744465 0
M  V30 26350 H 2455.63 -1.52295 -0.35155 0
M  V30 26351 H 2456.37 -1.48008 -2.88555 0
M  V30 26352 H 2456.15 -3.16165 -2.31909 0
M  V30 26353 H 2457.64 -2.69324 -3.19146 0
M  V30 26354 N 2458.08 0.377381 -1.53015 0
M  V30 26355 C 2459.31 1.14216 -1.72517 0
M  V30 26356 C 2459.72 1.83389 -0.448768 0
M  V30 26357 O 2459.08 1.7312 0.577562 0
M  V30 26358 C 2459.13 2.18143 -2.88264 0
M  V30 26359 O 2458.85 1.51788 -4.10965 0
M  V30 26360 C 2460.35 3.07259 -3.19542 0
M  V30 26361 H 2457.57 0.34199 -0.577307 0
M  V30 26362 H 2460.12 0.4399 -1.99713 0
M  V30 26363 H 2458.27 2.83986 -2.63497 0
M  V30 26364 H 2458.69 2.20937 -4.75697 0
M  V30 26365 H 2460.16 3.76186 -4.03966 0
M  V30 26366 H 2460.64 3.71415 -2.34409 0
M  V30 26367 H 2461.24 2.47047 -3.46191 0
M  V30 26368 N 2459.56 1.44175 0.636506 0
M  V30 26369 C 2460.49 1.4509 1.76137 0
M  V30 26370 C 2461.47 0.310354 1.59611 0
M  V30 26371 O 2462.65 0.506509 1.81567 0
M  V30 26372 C 2459.78 1.27845 3.13645 0
M  V30 26373 C 2458.83 2.45392 3.48833 0
M  V30 26374 S 2459.66 4.0793 3.46919 0
M  V30 26375 C 2460.82 3.93098 4.87057 0
M  V30 26376 H 2461.05 2.40271 1.75092 0
M  V30 26377 H 2458.58 1.31408 0.810643 0
M  V30 26378 H 2460.54 1.18582 3.92999 0
M  V30 26379 H 2459.2 0.341842 3.12234 0
M  V30 26380 H 2458.39 2.29175 4.48882 0
M  V30 26381 H 2458 2.51367 2.7693 0
M  V30 26382 H 2460.29 3.56456 5.76147 0
M  V30 26383 H 2461.23 4.92958 5.08329 0
M  V30 26384 H 2461.64 3.25254 4.61378 0
M  V30 26385 N 2461.04 -0.876421 1.30983 0
M  V30 26386 C 2462.28 -1.63136 1.20477 0
M  V30 26387 C 2462.62 -1.92735 -0.238063 0
M  V30 26388 O 2461.89 -1.55437 -1.16917 0
M  V30 26389 C 2462.17 -2.96571 2.04249 0
M  V30 26390 C 2462.03 -2.7389 3.56797 0
M  V30 26391 C 2463.35 -3.97597 1.88691 0
M  V30 26392 H 2460.46 -0.591978 0.439012 0
M  V30 26393 H 2463.11 -1.01358 1.60706 0
M  V30 26394 H 2461.26 -3.49297 1.70069 0
M  V30 26395 H 2462.93 -2.27885 4.01081 0
M  V30 26396 H 2461.17 -2.08238 3.80551 0
M  V30 26397 H 2461.84 -3.68807 4.10713 0
M  V30 26398 H 2464.32 -3.54059 2.1859 0
M  V30 26399 H 2463.19 -4.88858 2.49619 0
M  V30 26400 H 2463.46 -4.33883 0.848419 0
M  V30 26401 N 2462.51 -1.13839 -1.08989 0
M  V30 26402 C 2463.74 -0.926618 -1.85549 0
M  V30 26403 C 2464.16 0.519534 -1.80783 0
M  V30 26404 O 2463.52 1.36903 -1.18858 0
M  V30 26405 C 2463.57 -1.42468 -3.31263 0
M  V30 26406 O 2462.67 -0.612861 -4.07821 0
M  V30 26407 H 2462.02 -0.331748 -0.575186 0
M  V30 26408 H 2464.55 -1.51416 -1.37602 0
M  V30 26409 H 2464.56 -1.43025 -3.8211 0
M  V30 26410 H 2463.23 -2.4776 -3.34048 0
M  V30 26411 H 2461.81 -0.675528 -3.6673 0
M  V30 26412 N 2463.99 1.27046 -0.932584 0
M  V30 26413 C 2464.92 2.25809 -0.392774 0
M  V30 26414 C 2465.94 1.55587 0.479213 0
M  V30 26415 O 2467.13 1.76111 0.291047 0
M  V30 26416 C 2464.23 3.35826 0.455397 0
M  V30 26417 C 2463.4 4.35582 -0.398431 0
M  V30 26418 C 2462.46 5.24768 0.387893 0
M  V30 26419 O 2461.48 5.68827 -0.206103 0
M  V30 26420 N 2462.69 5.5546 1.68654 0
M  V30 26421 H 2465.45 2.72764 -1.24178 0
M  V30 26422 H 2463.01 1.40723 -0.800536 0
M  V30 26423 H 2465 3.92439 0.988623 0
M  V30 26424 H 2463.57 2.88434 1.20517 0
M  V30 26425 H 2462.79 3.78163 -1.11293 0
M  V30 26426 H 2464.08 4.99234 -0.981977 0
M  V30 26427 H 2463.48 5.21531 2.19138 0
M  V30 26428 H 2462.04 6.14752 2.16619 0
M  V30 26429 N 2465.47 0.698636 1.41269 0
M  V30 26430 C 2466.88 0.305321 1.84187 0
M  V30 26431 C 2467.23 -1.15705 1.58451 0
M  V30 26432 O 2466.36 -1.88855 1.05655 0
M  V30 26433 C 2466.95 0.547373 3.34349 0
M  V30 26434 C 2465.51 0.207944 3.75825 0
M  V30 26435 C 2464.66 0.828145 2.64645 0
M  V30 26436 H 2467.61 0.899063 1.30777 0
M  V30 26437 H 2467.63 -0.192931 3.80011 0
M  V30 26438 H 2467.14 1.61178 3.53048 0
M  V30 26439 H 2465.24 -0.852079 3.62726 0
M  V30 26440 H 2465.36 0.665105 4.74461 0
M  V30 26441 H 2463.72 0.257503 2.53395 0
M  V30 26442 H 2464.5 1.89648 2.86161 0
M  V30 26443 N 2466.95 -1.51228 0.443603 0
M  V30 26444 C 2468.17 -2.07043 -0.121612 0
M  V30 26445 C 2468.6 -1.30825 -1.35153 0
M  V30 26446 O 2467.96 -0.347965 -1.77929 0
M  V30 26447 C 2468 -3.5819 -0.416177 0
M  V30 26448 O 2467.11 -3.84092 -1.50156 0
M  V30 26449 H 2466.45 -0.663999 0.000883038 0
M  V30 26450 H 2468.98 -1.94764 0.626741 0
M  V30 26451 H 2468.99 -4.02547 -0.664797 0
M  V30 26452 H 2467.66 -4.13089 0.482725 0
M  V30 26453 H 2466.24 -3.51594 -1.24241 0
M  V30 26454 N 2468.43 -0.175182 -1.56623 0
M  V30 26455 C 2469.39 0.7397 -2.16936 0
M  V30 26456 C 2470.39 1.15532 -1.11844 0
M  V30 26457 O 2471.58 1.07164 -1.37337 0
M  V30 26458 C 2468.71 2.00733 -2.75534 0
M  V30 26459 H 2469.9 0.214586 -2.99131 0
M  V30 26460 H 2467.46 0.0743922 -1.56123 0
M  V30 26461 H 2468.19 2.57544 -1.97083 0
M  V30 26462 H 2467.98 1.71825 -3.52447 0
M  V30 26463 H 2469.47 2.66016 -3.21909 0
M  V30 26464 N 2469.91 1.57292 0.0985263 0
M  V30 26465 C 2471.32 1.53047 0.452643 0
M  V30 26466 C 2471.52 0.891374 1.80712 0
M  V30 26467 O 2470.58 0.482419 2.47849 0
M  V30 26468 C 2471.89 2.97776 0.418288 0
M  V30 26469 C 2473.44 3.08974 0.500388 0
M  V30 26470 C 2473.91 4.55304 0.496217 0
M  V30 26471 N 2475.4 4.59838 0.55707 0
M  V30 26472 C 2476.14 5.70503 0.575625 0
M  V30 26473 N 2475.64 6.90609 0.550593 0
M  V30 26474 N 2477.43 5.58668 0.620178 0
M  V30 26475 H 2469.58 1.97213 -0.788708 0
M  V30 26476 H 2471.84 0.901519 -0.293203 0
M  V30 26477 H 2471.55 3.47987 -0.50972 0
M  V30 26478 H 2471.42 3.56286 1.23854 0
M  V30 26479 H 2473.81 2.58754 1.41882 0
M  V30 26480 H 2473.89 2.53423 -0.347938 0
M  V30 26481 H 2473.53 5.06175 -0.418251 0
M  V30 26482 H 2473.46 5.08689 1.36171 0
M  V30 26483 H 2475.96 3.73395 0.58175 0
M  V30 26484 H 2476.27 7.7071 0.56794 0
M  V30 26485 H 2474.61 6.93069 0.517694 0
M  V30 26486 H 2477.8 4.63742 0.637241 0
M  V30 26487 H 2477.98 6.44919 0.63117 0
M  V30 26488 N 2471.38 -0.369261 1.53213 0
M  V30 26489 C 2472.8 -0.710687 1.42903 0
M  V30 26490 C 2473 -1.93412 0.565169 0
M  V30 26491 O 2472.06 -2.52458 0.0461928 0
M  V30 26492 C 2473.37 -0.927332 2.86044 0
M  V30 26493 C 2474.92 -1.02757 2.95652 0
M  V30 26494 C 2475.39 -1.27671 4.39845 0
M  V30 26495 N 2476.88 -1.3445 4.43258 0
M  V30 26496 C 2477.62 -1.5543 5.51932 0
M  V30 26497 N 2477.11 -1.73751 6.70658 0
M  V30 26498 N 2478.91 -1.57769 5.39505 0
M  V30 26499 H 2471.06 0.435493 2.07888 0
M  V30 26500 H 2473.32 0.132755 0.938659 0
M  V30 26501 H 2473.03 -0.100225 3.51557 0
M  V30 26502 H 2472.9 -1.83647 3.29475 0
M  V30 26503 H 2475.29 -1.84523 2.30294 0
M  V30 26504 H 2475.37 -0.0959054 2.5562 0
M  V30 26505 H 2475.01 -0.464086 5.05775 0
M  V30 26506 H 2474.94 -2.22154 4.77446 0
M  V30 26507 H 2477.43 -1.2192 3.57693 0
M  V30 26508 H 2477.75 -1.89322 7.49251 0
M  V30 26509 H 2476.09 -1.70936 6.73651 0
M  V30 26510 H 2479.28 -1.43021 4.45716 0
M  V30 26511 H 2479.46 -1.73779 6.24263 0
M  V30 26512 N 2472.86 -1.4451 -0.628851 0
M  V30 26513 C 2474.11 -1.47122 -1.38562 0
M  V30 26514 C 2474.43 -0.105933 -1.94712 0
M  V30 26515 O 2473.7 0.862048 -1.75913 0
M  V30 26516 H 2472.28 -0.541738 -0.514324 0
M  V30 26517 H 2474.94 -1.80306 -0.739986 0
M  V30 26518 H 2474.04 -2.19793 -2.21579 0
M  V30 26519 N 2474.34 0.869463 -1.31446 0
M  V30 26520 C 2475.56 1.66056 -1.24259 0
M  V30 26521 C 2475.99 1.87149 0.188895 0
M  V30 26522 O 2475.35 1.41362 1.13519 0
M  V30 26523 C 2475.4 3.00555 -1.99246 0
M  V30 26524 O 2474.5 3.9036 -1.33014 0
M  V30 26525 H 2473.84 0.506824 -0.428982 0
M  V30 26526 H 2476.37 1.08401 -1.73523 0
M  V30 26527 H 2476.38 3.50488 -2.0886 0
M  V30 26528 H 2475.06 2.84523 -3.03347 0
M  V30 26529 H 2473.63 3.48811 -1.31854 0
M  V30 26530 N 2475.82 1.14415 1.08383 0
M  V30 26531 C 2477.07 0.910711 1.80417 0
M  V30 26532 C 2477.39 -0.56421 1.86659 0
M  V30 26533 O 2476.66 -1.41012 1.35987 0
M  V30 26534 H 2475.24 0.333946 0.668198 0
M  V30 26535 H 2477.9 1.44278 1.31034 0
M  V30 26536 H 2476.99 1.31087 2.83236 0
M  V30 26537 N 2477.3 -1.26549 0.939309 0
M  V30 26538 C 2478.54 -1.93132 0.581635 0
M  V30 26539 C 2478.86 -1.74525 -0.883193 0
M  V30 26540 O 2480.06 -2.35548 -1.35016 0
M  V30 26541 C 2478.52 -3.46031 0.989486 0
M  V30 26542 C 2478.13 -3.73374 2.4758 0
M  V30 26543 C 2479.87 -4.18628 0.703617 0
M  V30 26544 C 2477.78 -5.19704 2.82245 0
M  V30 26545 H 2476.71 -0.723048 0.213816 0
M  V30 26546 H 2479.36 -1.43658 1.14169 0
M  V30 26547 H 2477.74 -3.94379 0.357972 0
M  V30 26548 H 2478.92 -3.35739 3.1562 0
M  V30 26549 H 2477.23 -3.14005 2.73477 0
M  V30 26550 H 2479.83 -5.26391 0.938961 0
M  V30 26551 H 2480.17 -4.14744 -0.359566 0
M  V30 26552 H 2480.7 -3.76139 1.29476 0
M  V30 26553 H 2477.44 -5.28687 3.87518 0
M  V30 26554 H 2476.96 -5.58443 2.18864 0
M  V30 26555 H 2478.64 -5.8769 2.70609 0
M  V30 26556 N 2478.77 -0.706118 -1.40896 0
M  V30 26557 C 2480 -0.249471 -2.05894 0
M  V30 26558 C 2480.42 1.09663 -1.52825 0
M  V30 26559 O 2479.78 1.68875 -0.659618 0
M  V30 26560 C 2479.83 -0.229104 -3.59871 0
M  V30 26561 O 2478.93 0.792713 -4.0471 0
M  V30 26562 H 2478.27 -0.119252 -0.653204 0
M  V30 26563 H 2480.8 -0.963942 -1.8047 0
M  V30 26564 H 2480.81 -0.0635509 -4.07951 0
M  V30 26565 H 2479.49 -1.21148 -3.97864 0
M  V30 26566 H 2478.07 0.595655 -3.68112 0
M  V30 26567 N 2480.25 1.50991 -0.451617 0
M  V30 26568 C 2481.5 2.025 0.110202 0
M  V30 26569 C 2481.83 1.33426 1.41107 0
M  V30 26570 O 2481.11 0.453692 1.89135 0
M  V30 26571 C 2481.39 3.58727 0.314208 0
M  V30 26572 C 2481.24 4.38399 -1.00631 0
M  V30 26573 C 2482.56 4.26704 1.07759 0
M  V30 26574 H 2479.68 0.73599 0.0385767 0
M  V30 26575 H 2482.32 1.80496 -0.593406 0
M  V30 26576 H 2480.47 3.77607 0.913535 0
M  V30 26577 H 2482.14 4.31136 -1.64072 0
M  V30 26578 H 2480.39 4.02914 -1.60757 0
M  V30 26579 H 2481.06 5.45914 -0.817437 0
M  V30 26580 H 2483.53 4.1218 0.569788 0
M  V30 26581 H 2482.41 5.35865 1.18911 0
M  V30 26582 H 2482.67 3.88536 2.10932 0
M  V30 26583 N 2481.73 0.183486 1.56528 0
M  V30 26584 C 2482.95 -0.467393 2.02065 0
M  V30 26585 C 2483.38 -1.55194 1.06285 0
M  V30 26586 O 2482.74 -1.81246 0.0443883 0
M  V30 26587 C 2482.79 -1.01147 3.46124 0
M  V30 26588 O 2481.89 -2.12493 3.53441 0
M  V30 26589 H 2481.23 -0.110577 0.654728 0
M  V30 26590 H 2483.76 0.290953 2.02521 0
M  V30 26591 H 2483.77 -1.33101 3.85679 0
M  V30 26592 H 2482.45 -0.21746 4.15331 0
M  V30 26593 H 2481.02 -1.81491 3.25754 0
M  V30 26594 N 2483.21 -1.57342 -0.0901833 0
M  V30 26595 C 2484.14 -2.05444 -1.10972 0
M  V30 26596 C 2485.12 -0.944308 -1.41481 0
M  V30 26597 O 2486.3 -1.21589 -1.51426 0
M  V30 26598 C 2483.43 -2.483 -2.42826 0
M  V30 26599 C 2482.39 -3.63022 -2.26714 0
M  V30 26600 C 2481.71 -3.9187 -3.63789 0
M  V30 26601 C 2483.01 -4.93735 -1.70361 0
M  V30 26602 H 2484.71 -2.90872 -0.709513 0
M  V30 26603 H 2482.25 -1.39932 -0.339849 0
M  V30 26604 H 2484.21 -2.80561 -3.14426 0
M  V30 26605 H 2482.93 -1.59878 -2.84792 0
M  V30 26606 H 2481.59 -3.31015 -1.57559 0
M  V30 26607 H 2481.24 -3.00608 -4.03291 0
M  V30 26608 H 2480.94 -4.69108 -3.53853 0
M  V30 26609 H 2482.46 -4.2661 -4.36848 0
M  V30 26610 H 2483.88 -5.24346 -2.31807 0
M  V30 26611 H 2482.27 -5.7517 -1.71171 0
M  V30 26612 H 2483.34 -4.8034 -0.663458 0
M  V30 26613 N 2484.69 0.36113 -1.53407 0
M  V30 26614 C 2486.1 0.937699 -1.61444 0
M  V30 26615 C 2486.45 1.9012 -0.484643 0
M  V30 26616 O 2485.57 2.12888 0.388275 0
M  V30 26617 C 2486.17 1.70748 -2.92627 0
M  V30 26618 C 2484.73 2.23332 -3.02985 0
M  V30 26619 C 2483.87 1.04707 -2.56772 0
M  V30 26620 H 2486.83 0.139789 -1.58083 0
M  V30 26621 H 2486.85 2.56903 -2.8068 0
M  V30 26622 H 2486.36 1.00597 -3.74836 0
M  V30 26623 H 2484.46 2.96711 -2.25373 0
M  V30 26624 H 2484.57 2.50909 -4.08144 0
M  V30 26625 H 2482.94 1.41535 -2.11754 0
M  V30 26626 H 2483.72 0.360479 -3.41402 0
M  V30 26627 N 2486.16 1.44842 0.621179 0
M  V30 26628 C 2487.41 1.48367 1.38257 0
M  V30 26629 C 2487.74 0.119658 1.93831 0
M  V30 26630 O 2487.02 -0.864081 1.74252 0
M  V30 26631 C 2487.3 2.55203 2.54054 0
M  V30 26632 C 2487.15 4.00999 2.03765 0
M  V30 26633 C 2488.47 2.58448 3.5622 0
M  V30 26634 H 2485.59 0.540187 0.501365 0
M  V30 26635 H 2488.23 1.76577 0.701469 0
M  V30 26636 H 2486.38 2.31279 3.12157 0
M  V30 26637 H 2488.06 4.36088 1.50415 0
M  V30 26638 H 2486.3 4.12302 1.34869 0
M  V30 26639 H 2486.97 4.71416 2.87177 0
M  V30 26640 H 2489.45 2.7985 3.07934 0
M  V30 26641 H 2488.32 3.35087 4.3475 0
M  V30 26642 H 2488.58 1.63021 4.10946 0
M  V30 26643 N 2487.64 -0.862479 1.31905 0
M  V30 26644 C 2488.89 -1.6129 1.21778 0
M  V30 26645 C 2489.21 -1.93728 -0.222378 0
M  V30 26646 O 2488.48 -1.58949 -1.14508 0
M  V30 26647 H 2487.06 -0.597954 0.447728 0
M  V30 26648 H 2489.72 -1.03212 1.65328 0
M  V30 26649 H 2488.82 -2.55326 1.79485 0
M  V30 26650 N 2489.12 -1.14988 -1.07775 0
M  V30 26651 C 2490.4 -0.832726 -1.76989 0
M  V30 26652 C 2490.78 0.672525 -2.00101 0
M  V30 26653 O 2490.13 1.61547 -1.61601 0
M  V30 26654 C 2490.34 -1.63869 -3.08136 0
M  V30 26655 C 2491.68 -1.84215 -3.82557 0
M  V30 26656 O 2492.71 -1.60609 -3.17936 0
M  V30 26657 O 2491.57 -2.23723 -4.98608 0
M  V30 26658 H 2488.66 -0.305804 -0.768383 0
M  V30 26659 H 2491.21 -1.25543 -1.14179 0
M  V30 26660 H 2489.98 -2.66085 -2.86905 0
M  V30 26661 H 2489.6 -1.21203 -3.78676 0
M  V30 26662 N 2490.6 1.26049 -0.946007 0
M  V30 26663 C 2492.01 1.45805 -0.649071 0
M  V30 26664 C 2492.21 1.85106 0.796126 0
M  V30 26665 O 2491.27 1.97573 1.57229 0
M  V30 26666 C 2492.58 2.53674 -1.61462 0
M  V30 26667 C 2494.13 2.67521 -1.62485 0
M  V30 26668 C 2494.61 3.78566 -2.57783 0
M  V30 26669 N 2496.1 3.85965 -2.56097 0
M  V30 26670 C 2496.83 4.71354 -3.26517 0
M  V30 26671 N 2496.33 5.61095 -4.06379 0
M  V30 26672 N 2498.12 4.65243 -3.15445 0
M  V30 26673 H 2490.27 0.988295 -1.88007 0
M  V30 26674 H 2492.54 0.495485 -0.808207 0
M  V30 26675 H 2492.24 2.31634 -2.64648 0
M  V30 26676 H 2492.12 3.51425 -1.37042 0
M  V30 26677 H 2494.5 2.88931 -0.600217 0
M  V30 26678 H 2494.58 1.70198 -1.90961 0
M  V30 26679 H 2494.23 3.57907 -3.60368 0
M  V30 26680 H 2494.16 4.75355 -2.26595 0
M  V30 26681 H 2496.65 3.21808 -1.98111 0
M  V30 26682 H 2496.96 6.23156 -4.57053 0
M  V30 26683 H 2495.31 5.60831 -4.10479 0
M  V30 26684 H 2498.5 3.94138 -2.52532 0
M  V30 26685 H 2498.67 5.31568 -3.70593 0
M  V30 26686 N 2492.08 0.71358 1.4052 0
M  V30 26687 C 2493.01 0.0744274 2.33381 0
M  V30 26688 C 2493.99 -0.747709 1.52785 0
M  V30 26689 O 2495.17 -0.69704 1.81259 0
M  V30 26690 C 2492.3 -0.849539 3.36749 0
M  V30 26691 C 2491.26 -0.133172 4.27793 0
M  V30 26692 C 2490.58 -1.17272 5.21681 0
M  V30 26693 C 2491.88 1.01143 5.12413 0
M  V30 26694 H 2493.58 0.850057 2.87079 0
M  V30 26695 H 2491.12 0.410226 1.38033 0
M  V30 26696 H 2493.08 -1.30605 4.0065 0
M  V30 26697 H 2491.8 -1.65704 2.81442 0
M  V30 26698 H 2490.46 0.303491 3.65342 0
M  V30 26699 H 2490.11 -1.97322 4.6268 0
M  V30 26700 H 2489.81 -0.698294 5.83436 0
M  V30 26701 H 2491.33 -1.62937 5.88459 0
M  V30 26702 H 2492.74 0.634374 5.69779 0
M  V30 26703 H 2491.14 1.41409 5.83201 0
M  V30 26704 H 2492.21 1.843 4.48511 0
M  V30 26705 N 2493.55 -1.50749 0.459618 0
M  V30 26706 C 2494.97 -1.867 0.00174828 0
M  V30 26707 C 2495.32 -1.37527 -1.39931 0
M  V30 26708 O 2494.44 -0.735385 -2.03522 0
M  V30 26709 C 2495.04 -3.388 -0.00360343 0
M  V30 26710 C 2493.6 -3.74204 -0.40596 0
M  V30 26711 C 2492.74 -2.74589 0.386778 0
M  V30 26712 H 2495.69 -1.43656 0.674438 0
M  V30 26713 H 2495.71 -3.71815 -0.808306 0
M  V30 26714 H 2495.23 -3.74559 1.01623 0
M  V30 26715 H 2493.33 -3.44043 -1.43057 0
M  V30 26716 H 2493.44 -4.78961 -0.115278 0
M  V30 26717 H 2491.8 -2.5421 -0.157974 0
M  V30 26718 H 2492.59 -3.13192 1.40591 0
M  V30 26719 N 2495.03 -0.191784 -1.56429 0
M  V30 26720 C 2496.31 0.495298 -1.89225 0
M  V30 26721 C 2496.69 1.79881 -1.10481 0
M  V30 26722 O 2496.04 2.2758 -0.204892 0
M  V30 26723 C 2496.25 0.717307 -3.41549 0
M  V30 26724 C 2497.6 1.03816 -4.11713 0
M  V30 26725 O 2498.62 0.805143 -3.46981 0
M  V30 26726 O 2497.48 1.47878 -5.26112 0
M  V30 26727 H 2494.57 0.257796 -0.785793 0
M  V30 26728 H 2497.12 -0.23175 -1.6811 0
M  V30 26729 H 2495.89 -0.203356 -3.90771 0
M  V30 26730 H 2495.51 1.49693 -3.68344 0
M  V30 26731 N 2496.51 1.57387 0.0818378 0
M  V30 26732 C 2497.74 1.91354 0.799912 0
M  V30 26733 C 2498.16 0.787288 1.70831 0
M  V30 26734 O 2497.52 -0.260448 1.7942 0
M  V30 26735 C 2497.57 3.24237 1.57806 0
M  V30 26736 O 2496.67 3.12762 2.68801 0
M  V30 26737 H 2496.01 0.626881 0.218899 0
M  V30 26738 H 2498.54 2.04531 0.0530896 0
M  V30 26739 H 2498.55 3.57868 1.95946 0
M  V30 26740 H 2497.23 4.05789 0.911476 0
M  V30 26741 H 2495.8 2.9067 2.33592 0
M  V30 26742 N 2497.99 -0.35299 1.53596 0
M  V30 26743 C 2498.92 -1.4388 1.83904 0
M  V30 26744 C 2499.9 -1.55323 0.693448 0
M  V30 26745 O 2501.08 -1.69686 0.944482 0
M  V30 26746 C 2498.21 -2.81057 2.04021 0
M  V30 26747 C 2497.17 -2.84428 3.19819 0
M  V30 26748 C 2496.49 -4.244 3.25252 0
M  V30 26749 C 2497.79 -2.50814 4.58137 0
M  V30 26750 H 2499.49 -1.18765 2.74837 0
M  V30 26751 H 2497.03 -0.569894 1.32243 0
M  V30 26752 H 2498.99 -3.57055 2.23807 0
M  V30 26753 H 2497.71 -3.07586 1.0981 0
M  V30 26754 H 2496.37 -2.10882 2.99874 0
M  V30 26755 H 2496.02 -4.48025 2.28654 0
M  V30 26756 H 2495.72 -4.27569 4.03061 0
M  V30 26757 H 2497.24 -5.02254 3.47237 0
M  V30 26758 H 2498.66 -3.16526 4.78001 0
M  V30 26759 H 2497.05 -2.65281 5.38281 0
M  V30 26760 H 2498.12 -1.46026 4.6239 0
M  V30 26761 N 2499.47 -1.45169 -0.613489 0
M  V30 26762 C 2500.69 -1.5262 -1.40434 0
M  V30 26763 C 2501.12 -0.15774 -1.87437 0
M  V30 26764 O 2500.48 0.856509 -1.59792 0
M  V30 26765 C 2500.52 -2.51016 -2.58889 0
M  V30 26766 O 2499.63 -2.02388 -3.59323 0
M  V30 26767 H 2498.97 -0.514702 -0.419497 0
M  V30 26768 H 2501.5 -1.90469 -0.747181 0
M  V30 26769 H 2501.51 -2.69629 -3.06209 0
M  V30 26770 H 2500.18 -3.50407 -2.24026 0
M  V30 26771 H 2498.76 -1.93624 -3.18692 0
M  V30 26772 N 2500.95 0.855472 -1.32361 0
M  V30 26773 C 2502.19 1.6096 -1.22875 0
M  V30 26774 C 2502.52 1.93367 0.209624 0
M  V30 26775 O 2501.78 1.57438 1.1624 0
M  V30 26776 C 2502.07 2.93959 -2.0328 0
M  V30 26777 C 2501.74 2.80985 -3.52645 0
M  V30 26778 C 2500.4 2.77154 -3.93369 0
M  V30 26779 C 2502.75 2.66975 -4.47631 0
M  V30 26780 C 2500.08 2.5719 -5.27323 0
M  V30 26781 C 2502.43 2.48548 -5.81727 0
M  V30 26782 C 2501.1 2.43109 -6.21655 0
M  V30 26783 H 2500.37 0.588994 -0.44963 0
M  V30 26784 H 2503.02 0.992414 -1.63779 0
M  V30 26785 H 2501.32 3.59793 -1.55102 0
M  V30 26786 H 2503.02 3.51329 -1.9331 0
M  V30 26787 H 2499.61 2.84791 -3.203 0
M  V30 26788 H 2503.79 2.68981 -4.17089 0
M  V30 26789 H 2499.05 2.51414 -5.57316 0
M  V30 26790 H 2503.22 2.36688 -6.54944 0
M  V30 26791 H 2500.85 2.27399 -7.25392 0
M  V30 26792 N 2502.42 1.15558 1.07164 0
M  V30 26793 C 2503.67 0.929795 1.79441 0
M  V30 26794 C 2503.99 -0.544381 1.87247 0
M  V30 26795 O 2503.26 -1.39562 1.37475 0
M  V30 26796 H 2501.84 0.341014 0.664619 0
M  V30 26797 H 2504.5 1.45659 1.29497 0
M  V30 26798 H 2503.6 1.34084 2.8183 0
M  V30 26799 N 2503.9 -1.25546 0.952678 0
M  V30 26800 C 2505.31 -1.75115 0.647423 0
M  V30 26801 C 2505.66 -1.77439 -0.837243 0
M  V30 26802 O 2504.79 -1.39396 -1.65523 0
M  V30 26803 C 2505.38 -3.18012 1.1685 0
M  V30 26804 C 2503.94 -3.65148 0.913446 0
M  V30 26805 C 2503.09 -2.44262 1.31269 0
M  V30 26806 H 2506.04 -1.1146 1.1297 0
M  V30 26807 H 2506.06 -3.76823 0.527672 0
M  V30 26808 H 2505.57 -3.16288 2.24908 0
M  V30 26809 H 2503.67 -3.72289 -0.15225 0
M  V30 26810 H 2503.79 -4.53384 1.54853 0
M  V30 26811 H 2502.15 -2.43982 0.731071 0
M  V30 26812 H 2502.93 -2.4523 2.40244 0
M  V30 26813 N 2505.38 -0.721022 -1.40139 0
M  V30 26814 C 2506.6 -0.271295 -2.05618 0
M  V30 26815 C 2507.03 1.08036 -1.5398 0
M  V30 26816 O 2506.39 1.68166 -0.677493 0
M  V30 26817 C 2506.44 -0.26726 -3.59608 0
M  V30 26818 O 2505.54 0.749743 -4.05528 0
M  V30 26819 H 2504.88 -0.126174 -0.651902 0
M  V30 26820 H 2507.41 -0.983029 -1.79437 0
M  V30 26821 H 2507.42 -0.106816 -4.0786 0
M  V30 26822 H 2506.1 -1.25361 -3.96557 0
M  V30 26823 H 2504.67 0.556579 -3.68723 0
M  V30 26824 N 2506.86 1.50503 -0.467606 0
M  V30 26825 C 2508.13 1.95024 0.149996 0
M  V30 26826 C 2508.51 1.40782 1.57301 0
M  V30 26827 O 2507.86 0.607358 2.2028 0
M  V30 26828 C 2508.07 3.48866 0.0968711 0
M  V30 26829 C 2509.42 4.23626 0.28749 0
M  V30 26830 O 2510.44 3.55777 0.173615 0
M  V30 26831 O 2509.3 5.44048 0.51709 0
M  V30 26832 H 2506.4 0.819165 0.113568 0
M  V30 26833 H 2508.94 1.61285 -0.527758 0
M  V30 26834 H 2507.72 3.80885 -0.896798 0
M  V30 26835 H 2507.34 3.89132 0.816234 0
M  V30 26836 N 2508.34 0.200077 1.56325 0
M  V30 26837 C 2509.61 -0.485256 1.89485 0
M  V30 26838 C 2509.99 -1.79292 1.11434 0
M  V30 26839 O 2509.34 -2.27468 0.216959 0
M  V30 26840 C 2509.55 -0.699183 3.41925 0
M  V30 26841 C 2510.9 -1.01631 4.12258 0
M  V30 26842 O 2511.92 -0.786731 3.47403 0
M  V30 26843 O 2510.78 -1.45086 5.26889 0
M  V30 26844 H 2507.88 -0.253625 0.787149 0
M  V30 26845 H 2510.42 0.240662 1.67985 0
M  V30 26846 H 2509.19 0.224077 3.90658 0
M  V30 26847 H 2508.82 -1.47738 3.69133 0
M  V30 26848 N 2509.81 -1.57429 -0.0734901 0
M  V30 26849 C 2511.09 -1.78228 -0.805872 0
M  V30 26850 C 2511.47 -0.787224 -1.95872 0
M  V30 26851 O 2510.82 0.179989 -2.2779 0
M  V30 26852 C 2511.03 -3.24664 -1.28039 0
M  V30 26853 C 2512.38 -3.88447 -1.71446 0
M  V30 26854 O 2513.4 -3.28545 -1.3761 0
M  V30 26855 O 2512.26 -4.93829 -2.34084 0
M  V30 26856 H 2509.35 -0.731376 -0.386028 0
M  V30 26857 H 2511.9 -1.69615 -0.0536971 0
M  V30 26858 H 2510.67 -3.88641 -0.455408 0
M  V30 26859 H 2510.29 -3.37994 -2.09394 0
M  V30 26860 N 2511.29 0.344839 -1.53781 0
M  V30 26861 C 2512.71 0.687863 -1.44016 0
M  V30 26862 C 2512.91 1.92488 -0.595868 0
M  V30 26863 O 2511.96 2.52352 -0.0863508 0
M  V30 26864 C 2513.28 0.881707 -2.87483 0
M  V30 26865 C 2514.82 0.980407 -2.97249 0
M  V30 26866 C 2515.3 1.20658 -4.41821 0
M  V30 26867 N 2516.79 1.27381 -4.45341 0
M  V30 26868 C 2517.53 1.46629 -5.54335 0
M  V30 26869 N 2517.02 1.63059 -6.73338 0
M  V30 26870 N 2518.81 1.49166 -5.41946 0
M  V30 26871 H 2510.97 -0.468511 -2.07168 0
M  V30 26872 H 2513.23 -0.147672 -0.936428 0
M  V30 26873 H 2512.93 0.0442826 -3.51672 0
M  V30 26874 H 2512.81 1.78382 -3.32355 0
M  V30 26875 H 2515.2 1.80835 -2.33201 0
M  V30 26876 H 2515.28 0.0552264 -2.5574 0
M  V30 26877 H 2514.92 0.383563 -5.0645 0
M  V30 26878 H 2514.85 2.1453 -4.8092 0
M  V30 26879 H 2517.34 1.16214 -3.59587 0
M  V30 26880 H 2517.65 1.77378 -7.52168 0
M  V30 26881 H 2516 1.60197 -6.76285 0
M  V30 26882 H 2519.19 1.35912 -4.47935 0
M  V30 26883 H 2519.36 1.63826 -6.26949 0
M  V30 26884 N 2512.77 1.45492 0.605781 0
M  V30 26885 C 2514.02 1.49308 1.36204 0
M  V30 26886 C 2514.34 0.136897 1.94519 0
M  V30 26887 O 2513.61 -0.833952 1.77263 0
M  V30 26888 H 2512.19 0.549852 0.50564 0
M  V30 26889 H 2514.85 1.8146 0.711208 0
M  V30 26890 H 2513.95 2.2329 2.18055 0
M  V30 26891 N 2514.25 -0.848441 1.32813 0
M  V30 26892 C 2515.48 -1.63536 1.26742 0
M  V30 26893 C 2515.89 -1.88091 -0.163451 0
M  V30 26894 O 2515.25 -1.45431 -1.10255 0
M  V30 26895 C 2515.3 -2.99108 2.03018 0
M  V30 26896 O 2515.02 -2.75637 3.40523 0
M  V30 26897 C 2516.52 -3.93549 2.04045 0
M  V30 26898 H 2513.74 -0.509159 0.437033 0
M  V30 26899 H 2516.29 -1.0575 1.75035 0
M  V30 26900 H 2514.44 -3.53522 1.58432 0
M  V30 26901 H 2514.85 -3.61901 3.79642 0
M  V30 26902 H 2516.33 -4.85922 2.61886 0
M  V30 26903 H 2516.81 -4.26993 1.02827 0
M  V30 26904 H 2517.41 -3.45072 2.48606 0
M  V30 26905 N 2515.73 -1.16125 -1.06549 0
M  V30 26906 C 2517.14 -0.94926 -1.60767 0
M  V30 26907 C 2517.49 0.507474 -1.89523 0
M  V30 26908 O 2516.61 1.38018 -1.66673 0
M  V30 26909 C 2517.21 -1.71676 -2.92083 0
M  V30 26910 C 2515.77 -1.54983 -3.43012 0
M  V30 26911 C 2514.91 -1.72715 -2.16944 0
M  V30 26912 H 2517.87 -1.31033 -0.895331 0
M  V30 26913 H 2517.89 -1.19105 -3.61378 0
M  V30 26914 H 2517.4 -2.77695 -2.71122 0
M  V30 26915 H 2515.5 -0.513938 -3.69039 0
M  V30 26916 H 2515.61 -2.33206 -4.18512 0
M  V30 26917 H 2513.98 -1.15435 -2.27039 0
M  V30 26918 H 2514.76 -2.80116 -1.98468 0
M  V30 26919 N 2517.2 1.25039 -0.959323 0
M  V30 26920 C 2518.43 1.96947 -0.633984 0
M  V30 26921 C 2518.85 1.71251 0.794886 0
M  V30 26922 O 2518.2 0.991314 1.53229 0
M  V30 26923 C 2518.26 3.50402 -0.888866 0
M  V30 26924 O 2517.98 3.75214 -2.26156 0
M  V30 26925 C 2519.48 4.39535 -0.57656 0
M  V30 26926 H 2516.7 0.627648 -0.237274 0
M  V30 26927 H 2519.24 1.59087 -1.28498 0
M  V30 26928 H 2517.4 3.86356 -0.284213 0
M  V30 26929 H 2517.81 4.69646 -2.33523 0
M  V30 26930 H 2519.28 5.46093 -0.80541 0
M  V30 26931 H 2519.76 4.36469 0.488998 0
M  V30 26932 H 2520.37 4.09154 -1.16074 0
M  V30 26933 N 2518.68 0.728444 1.39755 0
M  V30 26934 C 2519.91 0.282195 2.05471 0
M  V30 26935 C 2520.33 -1.07218 1.54551 0
M  V30 26936 O 2519.69 -1.67804 0.686401 0
M  V30 26937 C 2519.74 0.286327 3.59461 0
M  V30 26938 O 2518.84 -0.728227 4.05919 0
M  V30 26939 H 2518.18 0.129629 0.651224 0
M  V30 26940 H 2520.71 0.992531 1.78913 0
M  V30 26941 H 2520.72 0.128444 4.07798 0
M  V30 26942 H 2519.4 1.27463 3.95886 0
M  V30 26943 H 2517.98 -0.537017 3.69013 0
M  V30 26944 N 2520.16 -1.50253 0.475581 0
M  V30 26945 C 2521.39 -2.07255 -0.0776678 0
M  V30 26946 C 2521.81 -1.33662 -1.32348 0
M  V30 26947 O 2521.17 -0.385628 -1.77151 0
M  V30 26948 C 2521.22 -3.58993 -0.340106 0
M  V30 26949 O 2520.32 -3.87191 -1.41975 0
M  V30 26950 H 2519.66 -0.663831 0.0149673 0
M  V30 26951 H 2522.19 -1.93391 0.667912 0
M  V30 26952 H 2522.2 -4.03867 -0.579261 0
M  V30 26953 H 2520.88 -4.11972 0.570239 0
M  V30 26954 H 2519.45 -3.5415 -1.16756 0
M  V30 26955 N 2521.64 -0.208365 -1.56217 0
M  V30 26956 C 2522.57 0.739238 -2.16951 0
M  V30 26957 C 2523.58 1.16718 -1.13494 0
M  V30 26958 O 2524.77 1.10061 -1.40531 0
M  V30 26959 C 2521.87 2.01137 -2.72758 0
M  V30 26960 C 2521.05 1.74111 -4.01253 0
M  V30 26961 C 2520.1 2.85901 -4.41754 0
M  V30 26962 O 2519.13 2.54937 -5.08916 0
M  V30 26963 N 2520.33 4.14561 -4.06349 0
M  V30 26964 H 2523.1 0.219784 -2.98893 0
M  V30 26965 H 2520.66 -0.026873 -1.61878 0
M  V30 26966 H 2522.65 2.75089 -2.96831 0
M  V30 26967 H 2521.22 2.44167 -1.95195 0
M  V30 26968 H 2520.44 0.838707 -3.85174 0
M  V30 26969 H 2521.73 1.53469 -4.85103 0
M  V30 26970 H 2521.13 4.42565 -3.52353 0
M  V30 26971 H 2519.68 4.85098 -4.35343 0
M  V30 26972 N 2523.12 1.57465 0.0651402 0
M  V30 26973 C 2524.53 1.76239 0.616182 0
M  V30 26974 C 2524.88 0.83472 1.77558 0
M  V30 26975 O 2524 0.0204537 2.1639 0
M  V30 26976 C 2524.6 3.19592 1.12456 0
M  V30 26977 C 2523.16 3.39687 1.62141 0
M  V30 26978 C 2522.3 2.71918 0.543691 0
M  V30 26979 H 2525.26 1.57881 -0.16105 0
M  V30 26980 H 2525.28 3.24118 1.99318 0
M  V30 26981 H 2524.79 3.87085 0.280524 0
M  V30 26982 H 2522.89 2.77318 2.48849 0
M  V30 26983 H 2523 4.48161 1.69377 0
M  V30 26984 H 2521.37 2.34659 0.99031 0
M  V30 26985 H 2522.15 3.42071 -0.290276 0
M  V30 26986 N 2524.59 -0.336679 1.53962 0
M  V30 26987 C 2525.82 -1.10043 1.75799 0
M  V30 26988 C 2526.24 -1.8136 0.499017 0
M  V30 26989 O 2525.6 -1.72796 -0.548739 0
M  V30 26990 C 2525.65 -2.0843 2.9426 0
M  V30 26991 O 2524.75 -3.16082 2.64889 0
M  V30 26992 H 2524.1 -0.317924 0.582941 0
M  V30 26993 H 2526.63 -0.384975 2.00946 0
M  V30 26994 H 2526.64 -2.51531 3.21241 0
M  V30 26995 H 2525.31 -1.55921 3.85567 0
M  V30 26996 H 2523.89 -2.77749 2.48817 0
M  V30 26997 N 2526.07 -1.45812 -0.598057 0
M  V30 26998 C 2527.32 -1.50548 -1.35879 0
M  V30 26999 C 2527.65 -0.150479 -1.93616 0
M  V30 27000 O 2526.93 0.836249 -1.75605 0
M  V30 27001 C 2527.21 -2.59213 -2.49962 0
M  V30 27002 C 2527.06 -4.0419 -1.9736 0
M  V30 27003 C 2528.38 -2.64082 -3.52063 0
M  V30 27004 H 2525.5 -0.548095 -0.492707 0
M  V30 27005 H 2528.14 -1.77671 -0.673288 0
M  V30 27006 H 2526.29 -2.36216 -3.08439 0
M  V30 27007 H 2527.96 -4.38426 -1.43458 0
M  V30 27008 H 2526.21 -4.14395 -1.28293 0
M  V30 27009 H 2526.88 -4.75925 -2.79641 0
M  V30 27010 H 2529.35 -2.84713 -3.03443 0
M  V30 27011 H 2528.23 -3.41961 -4.29364 0
M  V30 27012 H 2528.49 -1.69538 -4.08301 0
M  V30 27013 N 2527.55 0.841385 -1.33261 0
M  V30 27014 C 2528.96 1.41267 -1.22068 0
M  V30 27015 C 2529.31 1.95535 0.161445 0
M  V30 27016 O 2528.44 1.8861 1.06091 0
M  V30 27017 C 2529.03 2.56796 -2.21001 0
M  V30 27018 C 2527.59 3.09885 -2.13655 0
M  V30 27019 C 2526.74 1.82675 -2.08626 0
M  V30 27020 H 2529.69 0.64737 -1.44896 0
M  V30 27021 H 2529.71 3.34353 -1.81626 0
M  V30 27022 H 2529.22 2.17268 -3.21584 0
M  V30 27023 H 2527.32 3.53963 -1.16366 0
M  V30 27024 H 2527.44 3.70228 -3.04085 0
M  V30 27025 H 2525.8 2.02821 -1.54064 0
M  V30 27026 H 2526.58 1.45347 -3.11013 0
M  V30 27027 N 2529.03 1.16688 1.05932 0
M  V30 27028 C 2529.96 0.834541 2.13467 0
M  V30 27029 C 2530.97 -0.159812 1.62014 0
M  V30 27030 O 2532.16 0.0654542 1.7838 0
M  V30 27031 C 2529.26 0.22242 3.38169 0
M  V30 27032 C 2528.44 1.25778 4.18926 0
M  V30 27033 C 2527.5 0.664794 5.21984 0
M  V30 27034 O 2526.52 1.33462 5.53332 0
M  V30 27035 N 2527.72 -0.546732 5.7792 0
M  V30 27036 H 2530.49 1.76004 2.42575 0
M  V30 27037 H 2528.05 1.06471 1.21965 0
M  V30 27038 H 2530.04 -0.187401 4.04266 0
M  V30 27039 H 2528.61 -0.606704 3.06656 0
M  V30 27040 H 2527.83 1.84364 3.4843 0
M  V30 27041 H 2529.12 1.95639 4.69684 0
M  V30 27042 H 2528.52 -1.10903 5.54723 0
M  V30 27043 H 2527.07 -0.898715 6.45574 0
M  V30 27044 N 2530.51 -1.24529 0.96594 0
M  V30 27045 C 2531.47 -2.23689 0.499586 0
M  V30 27046 C 2532.47 -1.5567 -0.402913 0
M  V30 27047 O 2533.66 -1.73064 -0.198619 0
M  V30 27048 C 2530.79 -3.39775 -0.276732 0
M  V30 27049 H 2531.99 -2.66461 1.37618 0
M  V30 27050 H 2529.54 -1.37111 0.750348 0
M  V30 27051 H 2530.27 -3.0244 -1.1705 0
M  V30 27052 H 2530.06 -3.90342 0.370895 0
M  V30 27053 H 2531.55 -4.13381 -0.592103 0
M  V30 27054 N 2531.99 -0.735845 -1.39367 0
M  V30 27055 C 2533.23 -0.283597 -2.001 0
M  V30 27056 C 2533.55 1.13335 -1.58682 0
M  V30 27057 O 2532.82 1.77192 -0.835454 0
M  V30 27058 H 2531.4 -0.101864 -0.740022 0
M  V30 27059 H 2534.07 -0.945992 -1.70402 0
M  V30 27060 H 2533.16 -0.332658 -3.10322 0
M  V30 27061 N 2533.46 1.49999 -0.483543 0
M  V30 27062 C 2534.69 2.07293 0.0666755 0
M  V30 27063 C 2535.11 1.34362 1.31637 0
M  V30 27064 O 2534.47 0.395018 1.76944 0
M  V30 27065 C 2534.52 3.59168 0.321063 0
M  V30 27066 O 2533.62 3.87938 1.3992 0
M  V30 27067 H 2532.96 0.663743 -0.0184875 0
M  V30 27068 H 2535.49 1.93034 -0.678159 0
M  V30 27069 H 2535.5 4.04169 0.557835 0
M  V30 27070 H 2534.18 4.11664 -0.592079 0
M  V30 27071 H 2532.76 3.54765 1.14876 0
M  V30 27072 N 2534.94 0.216646 1.56104 0
M  V30 27073 C 2535.89 -0.711997 2.21435 0
M  V30 27074 C 2536.88 -1.20345 1.1922 0
M  V30 27075 O 2538.09 -1.16385 1.37312 0
M  V30 27076 H 2534.46 -0.248014 0.709925 0
M  V30 27077 H 2536.44 -0.137506 2.98083 0
M  V30 27078 C 2535.18 -1.91158 2.90438 0
M  V30 27079 H 2534.51 -1.54251 3.68845 0
M  V30 27080 H 2535.95 -2.53924 3.39557 0
M  V30 27081 C 2534.41 -2.7639 1.9264 0
M  V30 27082 O 2534.94 -3.74993 1.44024 0
M  V30 27083 N 2533.14 -2.42325 1.60396 0
M  V30 27084 H 2532.69 -1.62197 2.00125 0
M  V30 27085 H 2532.65 -2.99634 0.952212 0
M  V30 27086 N 2536.42 -1.57498 -0.0567885 0
M  V30 27087 C 2537.65 -1.92214 -0.765592 0
M  V30 27088 C 2538.06 -0.813991 -1.70351 0
M  V30 27089 O 2537.42 0.211669 -1.81268 0
M  V30 27090 C 2537.47 -3.26753 -1.54644 0
M  V30 27091 O 2537.19 -4.33308 -0.646202 0
M  V30 27092 C 2538.69 -3.75579 -2.3549 0
M  V30 27093 H 2535.91 -0.635003 -0.216824 0
M  V30 27094 H 2538.46 -2.04488 -0.0225787 0
M  V30 27095 H 2536.61 -3.15961 -2.24159 0
M  V30 27096 H 2537.03 -5.10802 -1.19084 0
M  V30 27097 H 2538.5 -4.72304 -2.85714 0
M  V30 27098 H 2538.98 -3.0535 -3.15687 0
M  V30 27099 H 2539.58 -3.89363 -1.71103 0
M  V30 27100 N 2537.9 0.328509 -1.54138 0
M  V30 27101 C 2538.85 1.40507 -1.7956 0
M  V30 27102 C 2539.83 1.47124 -0.651399 0
M  V30 27103 O 2541.02 1.51741 -0.911252 0
M  V30 27104 C 2538.15 2.77434 -2.02201 0
M  V30 27105 C 2537.24 2.75149 -3.22729 0
M  V30 27106 N 2537.63 2.42487 -4.43885 0
M  V30 27107 C 2535.93 3.06283 -3.24202 0
M  V30 27108 C 2536.63 2.48813 -5.25801 0
M  V30 27109 N 2535.6 2.85052 -4.62867 0
M  V30 27110 H 2539.41 1.14175 -2.70816 0
M  V30 27111 H 2536.92 0.536964 -1.53266 0
M  V30 27112 H 2538.92 3.55022 -2.18552 0
M  V30 27113 H 2537.58 3.047 -1.12196 0
M  V30 27114 H 2538.59 2.15419 -4.70972 0
M  V30 27115 H 2535.27 3.38623 -2.44214 0
M  V30 27116 H 2536.66 2.26592 -6.32539 0
M  V30 27117 N 2539.38 1.46127 0.590316 0
M  V30 27118 C 2540.79 1.30914 0.912894 0
M  V30 27119 C 2540.99 0.274928 1.99616 0
M  V30 27120 O 2540.05 -0.325153 2.50398 0
M  V30 27121 C 2541.36 2.69319 1.33745 0
M  V30 27122 C 2542.91 2.7735 1.45072 0
M  V30 27123 C 2543.38 4.1632 1.90897 0
M  V30 27124 N 2544.87 4.187 1.98103 0
M  V30 27125 C 2545.61 5.23113 2.34819 0
M  V30 27126 N 2545.11 6.3786 2.70381 0
M  V30 27127 N 2546.9 5.10477 2.35308 0
M  V30 27128 H 2539.05 2.1203 -0.125395 0
M  V30 27129 H 2541.31 0.947977 0.00656814 0
M  V30 27130 H 2541.02 3.46271 0.615554 0
M  V30 27131 H 2540.89 2.98924 2.30053 0
M  V30 27132 H 2543.28 2.00691 2.1635 0
M  V30 27133 H 2543.36 2.51438 0.470355 0
M  V30 27134 H 2543 4.93472 1.202 0
M  V30 27135 H 2542.93 4.39634 2.89878 0
M  V30 27136 H 2545.43 3.35903 1.7314 0
M  V30 27137 H 2545.74 7.13313 2.97329 0
M  V30 27138 H 2544.08 6.41234 2.68037 0
M  V30 27139 H 2547.27 4.19872 2.06943 0
M  V30 27140 H 2547.45 5.91964 2.63595 0
M  V30 27141 N 2540.85 -0.834306 1.33705 0
M  V30 27142 C 2542.27 -1.12569 1.13139 0
M  V30 27143 C 2542.47 -2.01362 -0.0746907 0
M  V30 27144 O 2541.53 -2.40992 -0.753605 0
M  V30 27145 C 2542.84 -1.78338 2.42108 0
M  V30 27146 C 2544.39 -1.90883 2.48058 0
M  V30 27147 C 2544.86 -2.60068 3.77 0
M  V30 27148 N 2546.35 -2.67577 3.78096 0
M  V30 27149 C 2547.09 -3.2181 4.7458 0
M  V30 27150 N 2546.58 -3.76694 5.81441 0
M  V30 27151 N 2548.38 -3.20104 4.62049 0
M  V30 27152 H 2540.53 -0.243452 2.11 0
M  V30 27153 H 2542.79 -0.170533 0.932535 0
M  V30 27154 H 2542.5 -1.20555 3.30393 0
M  V30 27155 H 2542.37 -2.78315 2.54599 0
M  V30 27156 H 2544.76 -2.47818 1.60219 0
M  V30 27157 H 2544.84 -0.898417 2.39504 0
M  V30 27158 H 2544.48 -2.03791 4.65222 0
M  V30 27159 H 2544.41 -3.6159 3.82832 0
M  V30 27160 H 2546.9 -2.28661 3.00869 0
M  V30 27161 H 2547.22 -4.16294 6.51091 0
M  V30 27162 H 2545.56 -3.74969 5.85169 0
M  V30 27163 H 2548.75 -2.76486 3.77721 0
M  V30 27164 H 2548.93 -3.62067 5.37412 0
M  V30 27165 N 2542.33 -1.17248 -1.05312 0
M  V30 27166 C 2543.58 -0.958225 -1.77939 0
M  V30 27167 C 2543.9 0.514523 -1.8809 0
M  V30 27168 O 2543.17 1.37357 -1.39678 0
M  V30 27169 H 2541.75 -0.351545 -0.659109 0
M  V30 27170 H 2544.41 -1.47701 -1.27163 0
M  V30 27171 H 2543.51 -1.38551 -2.79661 0
M  V30 27172 N 2543.81 1.24015 -0.972531 0
M  V30 27173 C 2545.04 1.96804 -0.654452 0
M  V30 27174 C 2545.46 1.71601 0.770368 0
M  V30 27175 O 2544.82 0.982673 1.52359 0
M  V30 27176 C 2544.87 3.48103 -0.941092 0
M  V30 27177 O 2543.97 4.1239 -0.0290197 0
M  V30 27178 H 2543.31 0.616378 -0.24693 0
M  V30 27179 H 2545.84 1.57662 -1.30399 0
M  V30 27180 H 2545.85 3.98516 -0.87459 0
M  V30 27181 H 2544.53 3.65774 -1.97945 0
M  V30 27182 H 2543.1 3.72601 -0.149257 0
M  V30 27183 N 2545.29 0.743226 1.38974 0
M  V30 27184 C 2546.54 0.294205 1.99947 0
M  V30 27185 C 2546.86 -1.12492 1.59281 0
M  V30 27186 O 2546.13 -1.76746 0.844839 0
M  V30 27187 H 2544.71 0.105787 0.739472 0
M  V30 27188 H 2547.37 0.955016 1.69898 0
M  V30 27189 H 2546.47 0.349111 3.10141 0
M  V30 27190 N 2546.77 -1.4974 0.491491 0
M  V30 27191 C 2547.73 -2.27473 -0.280866 0
M  V30 27192 C 2548.73 -1.3309 -0.90243 0
M  V30 27193 O 2549.92 -1.56335 -0.768438 0
M  V30 27194 C 2547.05 -3.10734 -1.40203 0
M  V30 27195 H 2548.24 -2.97206 0.401109 0
M  V30 27196 H 2545.8 -1.54349 0.246159 0
M  V30 27197 H 2546.53 -2.45545 -2.11844 0
M  V30 27198 H 2546.32 -3.80118 -0.961903 0
M  V30 27199 H 2547.81 -3.69469 -1.94633 0
M  V30 27200 N 2548.24 -0.224922 -1.55987 0
M  V30 27201 C 2549.17 0.678418 -2.23427 0
M  V30 27202 C 2550.16 1.19845 -1.20712 0
M  V30 27203 O 2551.34 1.24183 -1.49306 0
M  V30 27204 C 2548.47 1.88522 -2.91679 0
M  V30 27205 C 2547.42 1.49889 -4.00895 0
M  V30 27206 C 2546.75 2.78475 -4.5646 0
M  V30 27207 C 2548.05 0.68637 -5.1777 0
M  V30 27208 H 2549.74 0.116121 -2.99175 0
M  V30 27209 H 2547.29 0.0544107 -1.43897 0
M  V30 27210 H 2549.24 2.52264 -3.37551 0
M  V30 27211 H 2547.97 2.47254 -2.13384 0
M  V30 27212 H 2546.63 0.884922 -3.55759 0
M  V30 27213 H 2546.27 3.35358 -3.74892 0
M  V30 27214 H 2545.97 2.53358 -5.30173 0
M  V30 27215 H 2547.5 3.43153 -5.05053 0
M  V30 27216 H 2548.91 1.22757 -5.60003 0
M  V30 27217 H 2547.31 0.532154 -5.97736 0
M  V30 27218 H 2548.38 -0.306281 -4.83932 0
M  V30 27219 N 2549.72 1.57526 0.0484352 0
M  V30 27220 C 2550.97 1.87555 0.742032 0
M  V30 27221 C 2551.28 0.820833 1.77543 0
M  V30 27222 O 2552.49 1.00972 2.52026 0
M  V30 27223 C 2550.95 3.32774 1.37075 0
M  V30 27224 C 2550.55 4.4643 0.374707 0
M  V30 27225 C 2552.3 3.71975 2.04535 0
M  V30 27226 C 2550.21 5.827 1.01067 0
M  V30 27227 H 2549.14 0.699726 0.28089 0
M  V30 27228 H 2551.79 1.835 -0.00415102 0
M  V30 27229 H 2550.17 3.31513 2.16599 0
M  V30 27230 H 2551.34 4.59126 -0.392412 0
M  V30 27231 H 2549.66 4.15935 -0.196726 0
M  V30 27232 H 2552.25 4.71093 2.52934 0
M  V30 27233 H 2552.6 3.02969 2.85509 0
M  V30 27234 H 2553.13 3.75327 1.31812 0
M  V30 27235 H 2549.87 6.55058 0.240763 0
M  V30 27236 H 2549.39 5.73761 1.74809 0
M  V30 27237 H 2551.07 6.28802 1.52372 0
M  V30 27238 N 2551.2 -0.32033 1.5431 0
M  V30 27239 C 2552.45 -1.05789 1.7267 0
M  V30 27240 C 2552.78 -1.87907 0.502117 0
M  V30 27241 O 2552.03 -1.88772 -0.516116 0
M  V30 27242 C 2552.33 -2.00823 2.95643 0
M  V30 27243 C 2552 -1.34835 4.30268 0
M  V30 27244 C 2550.66 -1.16569 4.66867 0
M  V30 27245 C 2553.01 -0.875005 5.13803 0
M  V30 27246 C 2550.34 -0.496233 5.84598 0
M  V30 27247 C 2552.69 -0.219351 6.3222 0
M  V30 27248 C 2551.35 -0.0245742 6.67495 0
M  V30 27249 H 2550.62 -0.38711 0.631844 0
M  V30 27250 H 2553.27 -0.334702 1.88552 0
M  V30 27251 H 2551.58 -2.79604 2.74461 0
M  V30 27252 H 2553.27 -2.57927 3.07042 0
M  V30 27253 H 2549.86 -1.50054 4.01474 0
M  V30 27254 H 2554.05 -1.0039 4.86041 0
M  V30 27255 H 2549.3 -0.334156 6.10486 0
M  V30 27256 H 2553.48 0.155413 6.96227 0
M  V30 27257 H 2551.1 0.496198 7.58579 0
M  V30 27258 N 2552.68 -1.46438 -0.582558 0
M  V30 27259 C 2553.91 -1.55327 -1.36679 0
M  V30 27260 C 2554.32 -0.194442 -1.87796 0
M  V30 27261 O 2553.68 0.80829 -1.63624 0
M  V30 27262 C 2553.73 -2.55817 -2.55421 0
M  V30 27263 O 2553.45 -3.86421 -2.06423 0
M  V30 27264 C 2554.95 -2.74647 -3.47971 0
M  V30 27265 H 2552.17 -0.525266 -0.417536 0
M  V30 27266 H 2554.72 -1.91846 -0.708185 0
M  V30 27267 H 2552.87 -2.22301 -3.17272 0
M  V30 27268 H 2553.28 -4.41116 -2.83754 0
M  V30 27269 H 2554.76 -3.48881 -4.27769 0
M  V30 27270 H 2555.24 -1.8156 -3.99916 0
M  V30 27271 H 2555.84 -3.0926 -2.91956 0
M  V30 27272 N 2554.16 0.827204 -1.34146 0
M  V30 27273 C 2555.41 1.57817 -1.25605 0
M  V30 27274 C 2555.72 1.9483 0.173411 0
M  V30 27275 O 2556.92 2.68814 0.380936 0
M  V30 27276 C 2555.38 2.84709 -2.20156 0
M  V30 27277 C 2554.99 2.55015 -3.68336 0
M  V30 27278 C 2556.73 3.62731 -2.20514 0
M  V30 27279 C 2554.64 3.78074 -4.54768 0
M  V30 27280 H 2553.57 0.592297 -0.466583 0
M  V30 27281 H 2556.22 0.911088 -1.59284 0
M  V30 27282 H 2554.6 3.5302 -1.79423 0
M  V30 27283 H 2555.78 1.94841 -4.17581 0
M  V30 27284 H 2554.09 1.90276 -3.70384 0
M  V30 27285 H 2556.69 4.54096 -2.82314 0
M  V30 27286 H 2557.03 3.98531 -1.20329 0
M  V30 27287 H 2557.56 3.01358 -2.5967 0
M  V30 27288 H 2554.3 3.47397 -5.55873 0
M  V30 27289 H 2553.82 4.37545 -4.10261 0
M  V30 27290 H 2555.5 4.4553 -4.69161 0
M  V30 27291 N 2555.63 1.17805 1.04688 0
M  V30 27292 C 2557.05 0.974717 1.59236 0
M  V30 27293 C 2557.4 -0.477259 1.90307 0
M  V30 27294 O 2556.52 -1.35349 1.68848 0
M  V30 27295 C 2557.12 1.76301 2.89315 0
M  V30 27296 C 2555.68 1.6042 3.40503 0
M  V30 27297 C 2554.82 1.76144 2.14169 0
M  V30 27298 H 2557.77 1.3244 0.874371 0
M  V30 27299 H 2557.79 1.24839 3.59438 0
M  V30 27300 H 2557.31 2.81973 2.6667 0
M  V30 27301 H 2555.41 0.572583 3.68174 0
M  V30 27302 H 2555.52 2.39834 4.14749 0
M  V30 27303 H 2553.88 1.19032 2.25174 0
M  V30 27304 H 2554.67 2.83238 1.93987 0
M  V30 27305 N 2557.11 -1.23497 0.979094 0
M  V30 27306 C 2558.02 -2.28616 0.526472 0
M  V30 27307 C 2559.04 -1.68902 -0.418097 0
M  V30 27308 O 2560.21 -1.99325 -0.288337 0
M  V30 27309 C 2557.28 -3.46306 -0.165174 0
M  V30 27310 C 2556.34 -4.21384 0.820634 0
M  V30 27311 C 2555.57 -5.33454 0.1619 0
M  V30 27312 O 2555.8 -5.60702 -1.04732 0
M  V30 27313 O 2554.73 -5.95727 0.859813 0
M  V30 27314 H 2558.56 -2.69473 1.40065 0
M  V30 27315 H 2556.14 -1.29404 0.746665 0
M  V30 27316 H 2558.02 -4.17753 -0.553213 0
M  V30 27317 H 2556.7 -3.07404 -1.01413 0
M  V30 27318 H 2555.61 -3.52266 1.25935 0
M  V30 27319 H 2556.94 -4.64132 1.63836 0
M  V30 27320 N 2558.59 -0.750586 -1.38578 0
M  V30 27321 C 2559.5 -0.122866 -2.34278 0
M  V30 27322 C 2560.52 0.704103 -1.59118 0
M  V30 27323 O 2561.69 0.628954 -1.91327 0
M  V30 27324 C 2558.76 0.762027 -3.38222 0
M  V30 27325 C 2557.82 -0.0789714 -4.29227 0
M  V30 27326 C 2557.05 0.763781 -5.28206 0
M  V30 27327 O 2557.28 2.00192 -5.34116 0
M  V30 27328 O 2556.21 0.184174 -6.01618 0
M  V30 27329 H 2560.04 -0.913139 -2.89647 0
M  V30 27330 H 2557.62 -0.511442 -1.40373 0
M  V30 27331 H 2559.5 1.26786 -4.01875 0
M  V30 27332 H 2558.18 1.53085 -2.85214 0
M  V30 27333 H 2557.08 -0.630686 -3.68745 0
M  V30 27334 H 2558.42 -0.810375 -4.85483 0
M  V30 27335 N 2560.07 1.49477 -0.499425 0
M  V30 27336 C 2561.32 2.02049 0.0455641 0
M  V30 27337 C 2561.64 1.38141 1.3763 0
M  V30 27338 O 2560.91 0.536199 1.88419 0
M  V30 27339 H 2559.49 0.746737 0.0198285 0
M  V30 27340 H 2562.15 1.83517 -0.656307 0
M  V30 27341 H 2561.25 3.11601 0.17639 0
M  V30 27342 N 2561.55 0.233191 1.55865 0
M  V30 27343 C 2562.5 -0.688471 2.22177 0
M  V30 27344 C 2563.49 -1.19074 1.20489 0
M  V30 27345 O 2564.7 -1.14922 1.38538 0
M  V30 27346 H 2561.07 -0.24047 0.712515 0
M  V30 27347 H 2563.04 -0.105883 2.98212 0
M  V30 27348 C 2561.79 -1.88066 2.92449 0
M  V30 27349 H 2561.11 -1.5033 3.7046 0
M  V30 27350 H 2562.55 -2.50308 3.42231 0
M  V30 27351 C 2561.01 -2.74332 1.9556 0
M  V30 27352 O 2561.54 -3.73445 1.47993 0
M  V30 27353 N 2559.75 -2.4061 1.62957 0
M  V30 27354 H 2559.3 -1.60065 2.01834 0
M  V30 27355 H 2559.25 -2.98607 0.983939 0
M  V30 27356 N 2563.03 -1.57549 -0.0400806 0
M  V30 27357 C 2564.25 -1.93407 -0.748897 0
M  V30 27358 C 2564.68 -0.832304 -1.68684 0
M  V30 27359 O 2564.03 0.212787 -1.80047 0
M  V30 27360 C 2564.08 -3.28307 -1.49154 0
M  V30 27361 O 2563.19 -3.19778 -2.60414 0
M  V30 27362 H 2562.53 -0.632464 -0.202201 0
M  V30 27363 H 2565.06 -2.046 0.00115682 0
M  V30 27364 H 2565.07 -3.62937 -1.86389 0
M  V30 27365 H 2563.74 -4.08063 -0.803568 0
M  V30 27366 H 2562.32 -2.96762 -2.25803 0
M  V30 27367 N 2564.5 0.312142 -1.54478 0
M  V30 27368 C 2565.44 1.40595 -1.81013 0
M  V30 27369 C 2566.45 1.47334 -0.692572 0
M  V30 27370 O 2567.64 1.49852 -0.969873 0
M  V30 27371 C 2564.74 2.79051 -1.92312 0
M  V30 27372 C 2563.91 2.95378 -3.22599 0
M  V30 27373 C 2562.97 4.14264 -3.24455 0
M  V30 27374 O 2562 4.0688 -3.98042 0
M  V30 27375 N 2563.2 5.2436 -2.49052 0
M  V30 27376 H 2565.96 1.18192 -2.7541 0
M  V30 27377 H 2563.52 0.502175 -1.53915 0
M  V30 27378 H 2565.52 3.5681 -1.90968 0
M  V30 27379 H 2564.09 2.94452 -1.0496 0
M  V30 27380 H 2563.31 2.04825 -3.36809 0
M  V30 27381 H 2564.59 3.03191 -4.08599 0
M  V30 27382 H 2563.99 5.33237 -1.88877 0
M  V30 27383 H 2562.55 6.00495 -2.53473 0
M  V30 27384 N 2565.98 1.46745 0.574784 0
M  V30 27385 C 2567.39 1.46534 1.15692 0
M  V30 27386 C 2567.74 0.210459 1.95068 0
M  V30 27387 O 2566.87 -0.685908 2.05242 0
M  V30 27388 C 2567.46 2.65491 2.10476 0
M  V30 27389 C 2566.02 2.68296 2.63997 0
M  V30 27390 C 2565.17 2.39351 1.40022 0
M  V30 27391 H 2568.12 1.54509 0.362298 0
M  V30 27392 H 2568.14 2.4146 2.9407 0
M  V30 27393 H 2567.65 3.56807 1.52677 0
M  V30 27394 H 2565.75 1.81073 3.25643 0
M  V30 27395 H 2565.87 3.68489 3.06191 0
M  V30 27396 H 2564.23 1.89571 1.70102 0
M  V30 27397 H 2565.01 3.32854 0.840427 0
M  V30 27398 N 2567.46 -0.820078 1.34583 0
M  V30 27399 C 2568.41 -1.93115 1.26393 0
M  V30 27400 C 2569.38 -1.65521 0.138583 0
M  V30 27401 O 2570.56 -1.88097 0.320037 0
M  V30 27402 C 2567.7 -3.29427 1.02818 0
M  V30 27403 C 2566.81 -3.69296 2.24153 0
M  V30 27404 C 2565.95 -4.94571 1.93838 0
M  V30 27405 C 2564.99 -5.27028 3.113 0
M  V30 27406 N 2564.13 -6.43481 2.80849 0
M  V30 27407 H 2568.97 -1.99451 2.21412 0
M  V30 27408 H 2566.5 -0.975765 1.10078 0
M  V30 27409 H 2568.46 -4.07988 0.87186 0
M  V30 27410 H 2567.09 -3.22596 0.114669 0
M  V30 27411 H 2566.14 -2.86105 2.50696 0
M  V30 27412 H 2567.45 -3.89251 3.11905 0
M  V30 27413 H 2566.61 -5.80926 1.74958 0
M  V30 27414 H 2565.35 -4.76624 1.03349 0
M  V30 27415 H 2564.35 -4.3917 3.30772 0
M  V30 27416 H 2565.58 -5.46913 4.0257 0
M  V30 27417 H 2563.52 -6.26985 1.9294 0
M  V30 27418 H 2563.44 -6.63622 3.62134 0
M  V30 27419 H 2564.71 -7.32899 2.6548 0
M  V30 27420 N 2568.94 -1.18359 -1.04062 0
M  V30 27421 C 2570.19 -0.977044 -1.76913 0
M  V30 27422 C 2570.51 0.494544 -1.88625 0
M  V30 27423 O 2569.78 1.35868 -1.41127 0
M  V30 27424 H 2568.36 -0.358516 -0.655344 0
M  V30 27425 H 2571.02 -1.49041 -1.25589 0
M  V30 27426 H 2570.11 -1.41509 -2.78175 0
M  V30 27427 N 2570.42 1.22976 -0.98563 0
M  V30 27428 C 2571.64 1.95558 -0.675617 0
M  V30 27429 C 2572.06 1.72899 0.758382 0
M  V30 27430 O 2571.42 1.02359 1.51092 0
M  V30 27431 C 2571.47 3.48438 -0.962992 0
M  V30 27432 O 2571.19 3.70332 -2.34063 0
M  V30 27433 C 2572.69 4.38213 -0.669662 0
M  V30 27434 H 2569.91 0.622474 -0.250534 0
M  V30 27435 H 2572.45 1.56325 -1.31843 0
M  V30 27436 H 2570.61 3.85666 -0.366101 0
M  V30 27437 H 2571.02 4.64587 -2.43432 0
M  V30 27438 H 2572.5 5.44261 -0.921063 0
M  V30 27439 H 2572.97 4.37408 0.396307 0
M  V30 27440 H 2573.58 4.066 -1.24727 0
M  V30 27441 N 2571.89 0.757924 1.38178 0
M  V30 27442 C 2572.84 0.133097 2.30416 0
M  V30 27443 C 2573.81 -0.70493 1.50399 0
M  V30 27444 O 2575 -0.660161 1.79015 0
M  V30 27445 C 2572.14 -0.750754 3.36835 0
M  V30 27446 C 2571.25 0.102373 4.31879 0
M  V30 27447 C 2570.38 -0.784887 5.25369 0
M  V30 27448 C 2569.42 0.0716122 6.12058 0
M  V30 27449 N 2568.56 -0.772849 6.97833 0
M  V30 27450 H 2573.4 0.925235 2.83273 0
M  V30 27451 H 2570.94 0.46789 1.3946 0
M  V30 27452 H 2572.89 -1.27787 3.97148 0
M  V30 27453 H 2571.52 -1.50863 2.85377 0
M  V30 27454 H 2570.58 0.74716 3.7299 0
M  V30 27455 H 2571.89 0.763639 4.9292 0
M  V30 27456 H 2571.04 -1.37901 5.9082 0
M  V30 27457 H 2569.78 -1.47987 4.64705 0
M  V30 27458 H 2568.79 0.678368 5.45599 0
M  V30 27459 H 2570.01 0.763725 6.74792 0
M  V30 27460 H 2567.96 -1.45271 6.39713 0
M  V30 27461 H 2567.87 -0.168576 7.55812 0
M  V30 27462 H 2569.14 -1.3518 7.67689 0
M  V30 27463 N 2573.37 -1.4921 0.507345 0
M  V30 27464 C 2574.62 -2.0207 -0.0348484 0
M  V30 27465 C 2574.94 -1.38869 -1.36896 0
M  V30 27466 O 2574.21 -0.546184 -1.88132 0
M  V30 27467 H 2572.79 -0.746831 -0.0158681 0
M  V30 27468 H 2575.45 -1.83167 0.66603 0
M  V30 27469 H 2574.55 -3.1169 -0.159862 0
M  V30 27470 N 2574.85 -0.241454 -1.55739 0
M  V30 27471 C 2575.78 0.693053 -2.18471 0
M  V30 27472 C 2576.8 1.14284 -1.15944 0
M  V30 27473 O 2577.98 1.07055 -1.42834 0
M  V30 27474 C 2575.08 1.95306 -2.76963 0
M  V30 27475 C 2574.26 1.65561 -4.04856 0
M  V30 27476 C 2573.32 2.76467 -4.47719 0
M  V30 27477 O 2572.34 2.44085 -5.14209 0
M  V30 27478 N 2573.54 4.05848 -4.15051 0
M  V30 27479 H 2576.31 0.156335 -2.99292 0
M  V30 27480 H 2573.87 -0.0612036 -1.61784 0
M  V30 27481 H 2575.86 2.6873 -3.02599 0
M  V30 27482 H 2574.43 2.39972 -2.00331 0
M  V30 27483 H 2573.65 0.756818 -3.86867 0
M  V30 27484 H 2574.94 1.43145 -4.88249 0
M  V30 27485 H 2574.34 4.34992 -3.61661 0
M  V30 27486 H 2572.9 4.75754 -4.45535 0
M  V30 27487 N 2576.33 1.57568 0.0317248 0
M  V30 27488 C 2577.28 2.0747 1.05161 0
M  V30 27489 C 2578.27 0.987944 1.37608 0
M  V30 27490 O 2579.48 1.17284 1.36544 0
M  V30 27491 H 2575.85 0.662047 0.356649 0
M  V30 27492 H 2577.82 2.92204 0.604906 0
M  V30 27493 C 2576.57 2.56735 2.34484 0
M  V30 27494 H 2575.89 3.39973 2.10377 0
M  V30 27495 H 2577.33 2.95364 3.04198 0
M  V30 27496 C 2575.79 1.46742 3.03263 0
M  V30 27497 O 2576.32 0.832138 3.92986 0
M  V30 27498 N 2574.53 1.20261 2.64548 0
M  V30 27499 H 2574.08 1.72105 1.91671 0
M  V30 27500 H 2574.03 0.468792 3.10885 0
M  V30 27501 N 2577.81 -0.303946 1.54641 0
M  V30 27502 C 2578.75 -1.37476 1.85389 0
M  V30 27503 C 2579.72 -1.5051 0.702554 0
M  V30 27504 O 2580.91 -1.65416 0.950896 0
M  V30 27505 C 2578.05 -2.73529 2.10418 0
M  V30 27506 C 2577.16 -2.68968 3.38054 0
M  V30 27507 C 2576.3 -3.96996 3.52941 0
M  V30 27508 C 2575.34 -3.86821 4.7438 0
M  V30 27509 N 2574.47 -5.06618 4.86089 0
M  V30 27510 H 2579.31 -1.10555 2.76734 0
M  V30 27511 H 2576.85 -0.534781 1.37035 0
M  V30 27512 H 2578.81 -3.52648 2.22925 0
M  V30 27513 H 2577.44 -2.98717 1.22343 0
M  V30 27514 H 2576.49 -1.81731 3.34183 0
M  V30 27515 H 2577.8 -2.57338 4.27292 0
M  V30 27516 H 2576.96 -4.84551 3.65097 0
M  V30 27517 H 2575.69 -4.11456 2.61831 0
M  V30 27518 H 2574.7 -2.9765 4.62261 0
M  V30 27519 H 2575.92 -3.73908 5.66895 0
M  V30 27520 H 2573.87 -5.21547 3.97901 0
M  V30 27521 H 2573.79 -4.974 5.69324 0
M  V30 27522 H 2575.06 -5.95832 5.02598 0
M  V30 27523 N 2579.28 -1.47047 -0.566994 0
M  V30 27524 C 2580.22 -1.54847 -1.68982 0
M  V30 27525 C 2581.23 -0.435459 -1.56868 0
M  V30 27526 O 2582.42 -0.704599 -1.64005 0
M  V30 27527 C 2579.52 -1.42748 -3.0737 0
M  V30 27528 C 2578.69 -2.68446 -3.45334 0
M  V30 27529 C 2577.75 -2.50322 -4.62845 0
M  V30 27530 O 2576.78 -3.24103 -4.67916 0
M  V30 27531 N 2577.98 -1.57509 -5.58723 0
M  V30 27532 H 2580.74 -2.51666 -1.6274 0
M  V30 27533 H 2578.3 -1.43303 -0.753385 0
M  V30 27534 H 2580.3 -1.28372 -3.838 0
M  V30 27535 H 2578.87 -0.540499 -3.07892 0
M  V30 27536 H 2578.09 -2.97653 -2.5845 0
M  V30 27537 H 2579.37 -3.51914 -3.6747 0
M  V30 27538 H 2578.77 -0.966974 -5.57374 0
M  V30 27539 H 2577.33 -1.49089 -6.3452 0
M  V30 27540 N 2580.76 0.812929 -1.35016 0
M  V30 27541 C 2582.04 1.55615 -1.18504 0
M  V30 27542 C 2582.42 2.0975 0.238384 0
M  V30 27543 O 2581.77 1.91859 1.24106 0
M  V30 27544 C 2581.98 2.66967 -2.24788 0
M  V30 27545 C 2583.33 3.35474 -2.60274 0
M  V30 27546 O 2584.35 2.77232 -2.23653 0
M  V30 27547 O 2583.21 4.40673 -3.23218 0
M  V30 27548 H 2580.3 0.687264 -0.459996 0
M  V30 27549 H 2582.85 0.853438 -1.46678 0
M  V30 27550 H 2581.62 2.24792 -3.20288 0
M  V30 27551 H 2581.24 3.4488 -1.97847 0
M  V30 27552 N 2582.24 1.18909 1.03433 0
M  V30 27553 C 2583.15 0.937053 2.15073 0
M  V30 27554 C 2584.17 -0.101054 1.73706 0
M  V30 27555 O 2585.34 0.0823301 2.01232 0
M  V30 27556 C 2582.41 0.473118 3.43457 0
M  V30 27557 C 2581.47 1.57996 3.99169 0
M  V30 27558 C 2580.7 1.13806 5.21425 0
M  V30 27559 O 2580.92 -0.000625679 5.704 0
M  V30 27560 O 2579.86 1.9384 5.69833 0
M  V30 27561 H 2583.68 1.87136 2.39194 0
M  V30 27562 H 2581.27 0.971447 1.13504 0
M  V30 27563 H 2583.15 0.222776 4.20811 0
M  V30 27564 H 2581.83 -0.432813 3.20793 0
M  V30 27565 H 2580.73 1.88439 3.23174 0
M  V30 27566 H 2582.07 2.46224 4.26186 0
M  V30 27567 N 2583.72 -1.22452 0.992137 0
M  V30 27568 C 2585 -1.86693 0.583541 0
M  V30 27569 C 2585.38 -1.89058 -0.939166 0
M  V30 27570 O 2584.72 -1.38056 -1.82079 0
M  V30 27571 C 2584.93 -3.27607 1.20309 0
M  V30 27572 C 2586.28 -4.04108 1.30315 0
M  V30 27573 O 2587.31 -3.36871 1.15743 0
M  V30 27574 O 2586.16 -5.24463 1.53625 0
M  V30 27575 H 2583.26 -0.802912 0.198143 0
M  V30 27576 H 2585.8 -1.30236 1.08797 0
M  V30 27577 H 2584.58 -3.20516 2.24467 0
M  V30 27578 H 2584.2 -3.91669 0.684213 0
M  V30 27579 N 2585.2 -0.765242 -1.37774 0
M  V30 27580 C 2586.11 -0.147707 -2.34135 0
M  V30 27581 C 2587.12 0.687187 -1.59855 0
M  V30 27582 O 2588.3 0.608626 -1.91984 0
M  V30 27583 C 2585.36 0.726111 -3.39011 0
M  V30 27584 C 2584.42 -0.124492 -4.29119 0
M  V30 27585 C 2583.66 0.707715 -5.28987 0
M  V30 27586 O 2583.88 1.94515 -5.36209 0
M  V30 27587 O 2582.81 0.120354 -6.0178 0
M  V30 27588 H 2586.64 -0.943808 -2.88662 0
M  V30 27589 H 2584.23 -0.526302 -1.39823 0
M  V30 27590 H 2586.11 1.22517 -4.03197 0
M  V30 27591 H 2584.78 1.50051 -2.86821 0
M  V30 27592 H 2583.69 -0.669761 -3.68056 0
M  V30 27593 H 2585.02 -0.861821 -4.84596 0
M  V30 27594 N 2586.67 1.48939 -0.515251 0
M  V30 27595 C 2587.58 2.33158 0.259733 0
M  V30 27596 C 2588.6 1.4555 0.953475 0
M  V30 27597 O 2589.78 1.78553 0.931703 0
M  V30 27598 C 2586.84 3.21329 1.30187 0
M  V30 27599 C 2585.9 4.24799 0.620054 0
M  V30 27600 C 2585.14 5.08756 1.61254 0
M  V30 27601 O 2585.36 4.94453 2.84381 0
M  V30 27602 O 2584.29 5.90616 1.16003 0
M  V30 27603 H 2588.12 3.00641 -0.429984 0
M  V30 27604 H 2585.7 1.46821 -0.276372 0
M  V30 27605 H 2587.59 3.75909 1.90448 0
M  V30 27606 H 2586.26 2.56524 1.97426 0
M  V30 27607 H 2585.17 3.74093 -0.0226677 0
M  V30 27608 H 2586.5 4.92199 -0.0101358 0
M  V30 27609 N 2588.15 0.249709 1.55609 0
M  V30 27610 C 2589.4 -0.374806 1.99306 0
M  V30 27611 C 2589.73 -1.57385 1.13769 0
M  V30 27612 O 2589.01 -1.93451 0.201745 0
M  V30 27613 C 2589.29 -0.781924 3.51508 0
M  V30 27614 C 2589.14 0.422707 4.47809 0
M  V30 27615 C 2590.46 -1.62786 4.08887 0
M  V30 27616 H 2587.58 -0.13476 0.724575 0
M  V30 27617 H 2590.22 0.351582 1.86719 0
M  V30 27618 H 2588.37 -1.40083 3.62366 0
M  V30 27619 H 2590.05 1.06116 4.48929 0
M  V30 27620 H 2588.29 1.06532 4.20516 0
M  V30 27621 H 2588.96 0.0944736 5.51919 0
M  V30 27622 H 2591.44 -1.10539 4.01149 0
M  V30 27623 H 2590.31 -1.88157 5.15643 0
M  V30 27624 H 2590.57 -2.60062 3.57519 0
M  V30 27625 N 2589.63 -1.57583 -0.0233682 0
M  V30 27626 C 2591.04 -1.7781 -0.569239 0
M  V30 27627 C 2591.39 -0.881503 -1.75283 0
M  V30 27628 O 2590.52 -0.0778186 -2.1626 0
M  V30 27629 C 2591.11 -3.22461 -1.03944 0
M  V30 27630 C 2589.67 -3.43866 -1.53078 0
M  V30 27631 C 2588.82 -2.73264 -0.471406 0
M  V30 27632 H 2591.77 -1.57398 0.202852 0
M  V30 27633 H 2591.79 -3.29289 -1.90655 0
M  V30 27634 H 2591.3 -3.87693 -0.177796 0
M  V30 27635 H 2589.4 -2.83818 -2.41409 0
M  V30 27636 H 2589.52 -4.52494 -1.57436 0
M  V30 27637 H 2587.88 -2.37202 -0.927746 0
M  V30 27638 H 2588.66 -3.41181 0.380868 0
M  V30 27639 N 2591.11 0.29574 -1.548 0
M  V30 27640 C 2592.39 1.0502 -1.65016 0
M  V30 27641 C 2592.77 2.05048 -0.501841 0
M  V30 27642 O 2592.11 2.22944 0.50083 0
M  V30 27643 C 2592.32 1.72736 -3.03255 0
M  V30 27644 C 2593.67 2.24739 -3.60246 0
M  V30 27645 O 2594.7 1.8276 -3.05741 0
M  V30 27646 O 2593.56 3.01673 -4.55693 0
M  V30 27647 H 2590.65 0.485732 -0.669323 0
M  V30 27648 H 2593.2 0.293409 -1.67144 0
M  V30 27649 H 2591.97 1.00131 -3.78272 0
M  V30 27650 H 2591.59 2.55158 -3.04927 0
M  V30 27651 N 2592.59 1.47346 0.559187 0
M  V30 27652 C 2594 1.32821 0.88492 0
M  V30 27653 C 2594.2 0.317208 1.98988 0
M  V30 27654 O 2593.26 -0.271967 2.51031 0
M  V30 27655 C 2594.57 2.72095 1.28003 0
M  V30 27656 C 2596.12 2.80365 1.39156 0
M  V30 27657 C 2596.6 4.20276 1.82023 0
M  V30 27658 N 2598.09 4.22808 1.89177 0
M  V30 27659 C 2598.82 5.27976 2.2367 0
M  V30 27660 N 2598.32 6.43452 2.56791 0
M  V30 27661 N 2600.11 5.15353 2.24427 0
M  V30 27662 H 2592.26 2.11716 -0.170341 0
M  V30 27663 H 2594.52 0.947903 -0.0135413 0
M  V30 27664 H 2594.23 3.47499 0.541966 0
M  V30 27665 H 2594.1 3.03737 2.2366 0
M  V30 27666 H 2596.49 2.05235 2.12044 0
M  V30 27667 H 2596.57 2.5238 0.416916 0
M  V30 27668 H 2596.22 4.9591 1.09706 0
M  V30 27669 H 2596.15 4.45684 2.80488 0
M  V30 27670 H 2598.64 3.395 1.65976 0
M  V30 27671 H 2598.95 7.19459 2.82131 0
M  V30 27672 H 2597.3 6.46775 2.54375 0
M  V30 27673 H 2600.49 4.24167 1.9799 0
M  V30 27674 H 2600.66 5.97422 2.50979 0
M  V30 27675 N 2594.07 -0.805758 1.35445 0
M  V30 27676 C 2595 -1.93224 1.31099 0
M  V30 27677 C 2595.98 -1.69088 0.185274 0
M  V30 27678 O 2597.16 -1.90439 0.380366 0
M  V30 27679 C 2594.29 -3.29981 1.08305 0
M  V30 27680 C 2593.25 -3.68601 2.17526 0
M  V30 27681 C 2592.57 -5.03529 1.79896 0
M  V30 27682 C 2593.87 -3.78892 3.59497 0
M  V30 27683 H 2595.57 -1.97118 2.25355 0
M  V30 27684 H 2593.11 -0.946977 1.08482 0
M  V30 27685 H 2595.06 -4.08389 1.03904 0
M  V30 27686 H 2593.79 -3.26431 0.104942 0
M  V30 27687 H 2592.45 -2.92478 2.21025 0
M  V30 27688 H 2592.1 -4.96484 0.807017 0
M  V30 27689 H 2591.8 -5.30339 2.5301 0
M  V30 27690 H 2593.32 -5.84376 1.77022 0
M  V30 27691 H 2594.73 -4.4753 3.58315 0
M  V30 27692 H 2593.13 -4.17173 4.31378 0
M  V30 27693 H 2594.2 -2.80424 3.95589 0
M  V30 27694 N 2595.54 -1.19456 -1.02801 0
M  V30 27695 C 2596.77 -1.02367 -1.80377 0
M  V30 27696 C 2597.19 0.422975 -1.83283 0
M  V30 27697 O 2596.55 1.30411 -1.25947 0
M  V30 27698 C 2596.6 -1.59827 -3.23246 0
M  V30 27699 O 2595.7 -0.828176 -4.03999 0
M  V30 27700 H 2595.04 -0.361771 -0.556792 0
M  V30 27701 H 2597.57 -1.58498 -1.29382 0
M  V30 27702 H 2597.58 -1.63079 -3.73991 0
M  V30 27703 H 2596.26 -2.65118 -3.20445 0
M  V30 27704 H 2594.84 -0.868973 -3.62634 0
M  V30 27705 N 2597.02 1.21924 -0.998617 0
M  V30 27706 C 2598.25 1.94548 -0.695311 0
M  V30 27707 C 2598.66 1.73913 0.745049 0
M  V30 27708 O 2598 1.03883 1.51506 0
M  V30 27709 C 2598.06 3.47301 -0.928546 0
M  V30 27710 C 2597.73 3.91679 -2.3545 0
M  V30 27711 C 2598.73 3.98895 -3.33435 0
M  V30 27712 C 2596.41 4.2417 -2.69045 0
M  V30 27713 C 2598.4 4.37984 -4.63086 0
M  V30 27714 C 2596.09 4.62937 -3.98915 0
M  V30 27715 C 2597.09 4.69813 -4.95746 0
M  V30 27716 O 2596.78 5.077 -6.23294 0
M  V30 27717 H 2596.51 0.625687 -0.255913 0
M  V30 27718 H 2599.06 1.55868 -1.3377 0
M  V30 27719 H 2597.29 3.86021 -0.228985 0
M  V30 27720 H 2598.98 4.01143 -0.619609 0
M  V30 27721 H 2599.75 3.73977 -3.08814 0
M  V30 27722 H 2595.63 4.18019 -1.94375 0
M  V30 27723 H 2599.17 4.43266 -5.38666 0
M  V30 27724 H 2595.07 4.87307 -4.23323 0
M  V30 27725 H 2595.84 5.25755 -6.27315 0
M  V30 27726 N 2598.5 0.772537 1.37367 0
M  V30 27727 C 2599.43 0.173345 2.32856 0
M  V30 27728 C 2600.41 -0.682234 1.55819 0
M  V30 27729 O 2601.6 -0.619534 1.84053 0
M  V30 27730 C 2598.73 -0.705947 3.4005 0
M  V30 27731 C 2597.68 0.0483896 4.27973 0
M  V30 27732 C 2597.01 -0.950399 5.26186 0
M  V30 27733 C 2598.31 1.22785 5.07662 0
M  V30 27734 H 2600 0.971052 2.83215 0
M  V30 27735 H 2597.55 0.468401 1.36169 0
M  V30 27736 H 2599.5 -1.13494 4.05829 0
M  V30 27737 H 2598.22 -1.53618 2.88217 0
M  V30 27738 H 2596.88 0.458171 3.63726 0
M  V30 27739 H 2596.53 -1.7752 4.70633 0
M  V30 27740 H 2596.23 -0.450211 5.85873 0
M  V30 27741 H 2597.75 -1.37832 5.9484 0
M  V30 27742 H 2599.17 0.875466 5.66576 0
M  V30 27743 H 2597.56 1.66018 5.76679 0
M  V30 27744 H 2598.63 2.03157 4.4029 0
M  V30 27745 N 2599.98 -1.48664 0.523142 0
M  V30 27746 C 2601.25 -1.95446 -0.0775105 0
M  V30 27747 C 2601.63 -1.46523 -1.51968 0
M  V30 27748 O 2600.98 -0.688695 -2.17874 0
M  V30 27749 C 2601.19 -3.48985 0.0326748 0
M  V30 27750 C 2602.54 -4.24401 -0.130066 0
M  V30 27751 O 2603.56 -3.56176 -0.0414516 0
M  V30 27752 O 2602.42 -5.45592 -0.314814 0
M  V30 27753 H 2599.52 -0.822816 -0.0830868 0
M  V30 27754 H 2602.06 -1.59215 0.587255 0
M  V30 27755 H 2600.84 -3.77294 1.03754 0
M  V30 27756 H 2600.46 -3.91893 -0.671248 0
M  V30 27757 N 2601.46 -0.257958 -1.55475 0
M  V30 27758 C 2602.37 0.647386 -2.25491 0
M  V30 27759 C 2603.38 1.18424 -1.27482 0
M  V30 27760 O 2604.56 1.21817 -1.60382 0
M  V30 27761 C 2601.62 1.82273 -2.94919 0
M  V30 27762 C 2600.68 1.32425 -4.08365 0
M  V30 27763 C 2599.92 2.44357 -4.74474 0
M  V30 27764 O 2600.14 3.63336 -4.39708 0
M  V30 27765 O 2599.07 2.13487 -5.62767 0
M  V30 27766 H 2602.9 0.0807173 -3.03593 0
M  V30 27767 H 2600.48 -0.0260225 -1.49377 0
M  V30 27768 H 2602.37 2.5084 -3.38611 0
M  V30 27769 H 2601.04 2.37681 -2.19748 0
M  V30 27770 H 2599.95 0.60554 -3.69167 0
M  V30 27771 H 2601.28 0.816126 -4.85387 0
M  V30 27772 N 2602.93 1.57593 0.0150108 0
M  V30 27773 C 2603.87 2.04293 1.03909 0
M  V30 27774 C 2604.88 0.958169 1.31617 0
M  V30 27775 O 2606.07 1.23524 1.28857 0
M  V30 27776 C 2603.17 2.41518 2.37744 0
M  V30 27777 C 2602.34 3.72545 2.29192 0
M  V30 27778 C 2601.4 3.96804 3.45591 0
M  V30 27779 O 2600.43 4.67674 3.24453 0
M  V30 27780 N 2601.63 3.43531 4.67939 0
M  V30 27781 H 2604.39 2.92766 0.640939 0
M  V30 27782 H 2601.95 1.60626 0.202691 0
M  V30 27783 H 2603.95 2.54872 3.1436 0
M  V30 27784 H 2602.52 1.58642 2.69354 0
M  V30 27785 H 2601.74 3.69411 1.37584 0
M  V30 27786 H 2603.02 4.58473 2.20634 0
M  V30 27787 H 2602.42 2.86113 4.88012 0
M  V30 27788 H 2600.98 3.62241 5.41871 0
M  V30 27789 N 2604.41 -0.287527 1.54955 0
M  V30 27790 C 2605.38 -1.33819 1.86078 0
M  V30 27791 C 2606.38 -1.43048 0.734439 0
M  V30 27792 O 2607.57 -1.4245 1.00268 0
M  V30 27793 C 2604.7 -2.72141 2.0531 0
M  V30 27794 H 2605.89 -1.0746 2.79986 0
M  V30 27795 H 2603.44 -0.524876 1.47223 0
M  V30 27796 H 2604.18 -3.03702 1.13735 0
M  V30 27797 H 2603.96 -2.66831 2.87304 0
M  V30 27798 H 2605.45 -3.48083 2.30713 0
M  V30 27799 N 2605.89 -1.47641 -0.551365 0
M  V30 27800 C 2607.14 -1.5426 -1.30569 0
M  V30 27801 C 2607.46 -0.208997 -1.93877 0
M  V30 27802 O 2606.73 0.767588 -1.80236 0
M  V30 27803 H 2605.31 -0.56824 -0.484884 0
M  V30 27804 H 2607.97 -1.83975 -0.64337 0
M  V30 27805 H 2607.07 -2.3123 -2.09617 0
M  V30 27806 N 2607.37 0.798563 -1.3587 0
M  V30 27807 C 2608.6 1.58719 -1.32725 0
M  V30 27808 C 2609.01 1.88568 0.09353 0
M  V30 27809 O 2608.37 1.49423 1.04781 0
M  V30 27810 C 2608.42 2.91367 -2.1398 0
M  V30 27811 O 2608.14 2.62809 -3.50518 0
M  V30 27812 C 2609.64 3.85705 -2.18511 0
M  V30 27813 H 2606.86 0.492588 -0.455629 0
M  V30 27814 H 2609.41 0.991812 -1.78839 0
M  V30 27815 H 2607.56 3.47399 -1.71444 0
M  V30 27816 H 2607.97 3.47562 -3.92812 0
M  V30 27817 H 2609.45 4.75867 -2.7974 0
M  V30 27818 H 2609.93 4.22883 -1.18604 0
M  V30 27819 H 2610.53 3.35608 -2.61242 0
M  V30 27820 N 2608.85 1.19999 1.02166 0
M  V30 27821 C 2610.26 1.00827 1.57133 0
M  V30 27822 C 2610.61 -0.436784 1.91276 0
M  V30 27823 O 2609.73 -1.31737 1.71681 0
M  V30 27824 C 2610.33 1.82398 2.85511 0
M  V30 27825 C 2608.89 1.67607 3.37024 0
M  V30 27826 C 2608.03 1.80648 2.10385 0
M  V30 27827 H 2610.99 1.34265 0.846082 0
M  V30 27828 H 2611.01 1.32435 3.56709 0
M  V30 27829 H 2610.52 2.87566 2.60629 0
M  V30 27830 H 2608.62 0.65055 3.66877 0
M  V30 27831 H 2608.73 2.48578 4.09568 0
M  V30 27832 H 2607.1 1.23782 2.22599 0
M  V30 27833 H 2607.88 2.87289 1.87935 0
M  V30 27834 N 2610.32 -1.21392 1.00507 0
M  V30 27835 C 2611.74 -1.72212 0.721112 0
M  V30 27836 C 2612.09 -1.80831 -0.761231 0
M  V30 27837 O 2611.21 -1.46291 -1.59461 0
M  V30 27838 C 2611.81 -3.12769 1.30233 0
M  V30 27839 C 2610.37 -3.60945 1.0675 0
M  V30 27840 C 2609.51 -2.38474 1.41511 0
M  V30 27841 H 2612.46 -1.06568 1.17596 0
M  V30 27842 H 2612.48 -3.74246 0.687021 0
M  V30 27843 H 2612 -3.06464 2.3812 0
M  V30 27844 H 2610.1 -3.726 0.00578711 0
M  V30 27845 H 2610.21 -4.46408 1.73944 0
M  V30 27846 H 2608.57 -2.40662 0.833894 0
M  V30 27847 H 2609.36 -2.3482 2.50429 0
M  V30 27848 N 2611.8 -0.779811 -1.36955 0
M  V30 27849 C 2613.04 -0.353078 -2.01327 0
M  V30 27850 C 2613.41 1.05283 -1.6056 0
M  V30 27851 O 2614.61 1.58012 -2.17452 0
M  V30 27852 C 2612.88 -0.500884 -3.53873 0
M  V30 27853 S 2614.44 -0.160607 -4.38506 0
M  V30 27854 H 2611.26 -0.135402 -0.697988 0
M  V30 27855 H 2613.86 -1.0162 -1.67014 0
M  V30 27856 H 2612.56 -1.52458 -3.81031 0
M  V30 27857 H 2612.09 0.178505 -3.92995 0
M  V30 27858 H 2614.11 1.04113 -4.85155 0
M  V30 27859 N 2613.28 1.48384 -0.531019 0
M  V30 27860 C 2614.51 2.074 0.000693079 0
M  V30 27861 C 2614.93 1.38482 1.27296 0
M  V30 27862 O 2614.29 0.451111 1.75598 0
M  V30 27863 C 2614.34 3.60007 0.206634 0
M  V30 27864 O 2613.44 3.92193 1.27507 0
M  V30 27865 H 2612.78 0.662818 -0.0395946 0
M  V30 27866 H 2615.31 1.90779 -0.739228 0
M  V30 27867 H 2615.32 4.05739 0.428969 0
M  V30 27868 H 2614 4.09572 -0.722747 0
M  V30 27869 H 2612.57 3.5824 1.03531 0
M  V30 27870 N 2614.76 0.2662 1.55336 0
M  V30 27871 C 2616 -0.353646 1.99693 0
M  V30 27872 C 2616.34 -1.5617 1.15432 0
M  V30 27873 O 2615.61 -1.93226 0.222252 0
M  V30 27874 C 2615.9 -0.744598 3.52318 0
M  V30 27875 C 2615.75 0.47018 4.47336 0
M  V30 27876 C 2617.07 -1.5844 4.10591 0
M  V30 27877 H 2614.19 -0.127068 0.725963 0
M  V30 27878 H 2616.83 0.371366 1.86335 0
M  V30 27879 H 2614.98 -1.36232 3.63831 0
M  V30 27880 H 2616.65 1.10872 4.47778 0
M  V30 27881 H 2614.89 1.10986 4.19362 0
M  V30 27882 H 2615.56 0.153007 5.51788 0
M  V30 27883 H 2618.04 -1.06279 4.02298 0
M  V30 27884 H 2616.92 -1.82677 5.1761 0
M  V30 27885 H 2617.18 -2.56256 3.60258 0
M  V30 27886 N 2616.24 -1.57599 -0.0066531 0
M  V30 27887 C 2617.17 -2.11038 -0.999259 0
M  V30 27888 C 2618.15 -1.01798 -1.36276 0
M  V30 27889 O 2619.33 -1.29445 -1.44768 0
M  V30 27890 C 2616.46 -2.60822 -2.29323 0
M  V30 27891 C 2615.42 -3.74529 -2.07153 0
M  V30 27892 C 2614.74 -4.10602 -3.42505 0
M  V30 27893 C 2616.04 -5.02071 -1.4395 0
M  V30 27894 H 2617.74 -2.94224 -0.55433 0
M  V30 27895 H 2615.28 -1.41537 -0.265197 0
M  V30 27896 H 2617.24 -2.96833 -2.99112 0
M  V30 27897 H 2615.96 -1.7475 -2.75917 0
M  V30 27898 H 2614.62 -3.38901 -1.39791 0
M  V30 27899 H 2614.27 -3.21563 -3.8679 0
M  V30 27900 H 2613.97 -4.87205 -3.28489 0
M  V30 27901 H 2615.49 -4.49167 -4.1362 0
M  V30 27902 H 2616.9 -5.35896 -2.03686 0
M  V30 27903 H 2615.3 -5.83435 -1.40442 0
M  V30 27904 H 2616.37 -4.83181 -0.407908 0
M  V30 27905 N 2617.72 0.279305 -1.55105 0
M  V30 27906 C 2618.65 1.34942 -1.90559 0
M  V30 27907 C 2619.63 1.51838 -0.766765 0
M  V30 27908 O 2620.81 1.64986 -1.02437 0
M  V30 27909 C 2617.94 2.71002 -2.17198 0
M  V30 27910 C 2616.9 2.68845 -3.33026 0
M  V30 27911 C 2616.22 4.08399 -3.4513 0
M  V30 27912 C 2617.52 2.2867 -4.69582 0
M  V30 27913 H 2619.22 1.05517 -2.8019 0
M  V30 27914 H 2616.76 0.50615 -1.34811 0
M  V30 27915 H 2618.71 3.45971 -2.40587 0
M  V30 27916 H 2617.44 3.01997 -1.2436 0
M  V30 27917 H 2616.1 1.96335 -3.09594 0
M  V30 27918 H 2615.75 4.36605 -2.4977 0
M  V30 27919 H 2615.45 4.07852 -4.23002 0
M  V30 27920 H 2616.97 4.85115 -3.70805 0
M  V30 27921 H 2618.38 2.93359 -4.92558 0
M  V30 27922 H 2616.78 2.39296 -5.50325 0
M  V30 27923 H 2617.85 1.23798 -4.6883 0
M  V30 27924 N 2619.19 1.47931 0.543528 0
M  V30 27925 C 2620.6 1.48955 1.12558 0
M  V30 27926 C 2620.96 0.251788 1.94578 0
M  V30 27927 O 2620.08 -0.642219 2.06651 0
M  V30 27928 C 2620.68 2.69896 2.04797 0
M  V30 27929 C 2619.23 2.73835 2.58246 0
M  V30 27930 C 2618.38 2.42268 1.34914 0
M  V30 27931 H 2621.33 1.55243 0.329443 0
M  V30 27932 H 2621.35 2.47644 2.88882 0
M  V30 27933 H 2620.87 3.59965 1.45074 0
M  V30 27934 H 2618.97 1.8794 3.21729 0
M  V30 27935 H 2619.08 3.74901 2.98306 0
M  V30 27936 H 2617.44 1.93137 1.66043 0
M  V30 27937 H 2618.23 3.34562 0.769634 0
M  V30 27938 N 2620.67 -0.791347 1.36292 0
M  V30 27939 C 2622.08 -1.36639 1.27227 0
M  V30 27940 C 2622.43 -1.95999 -0.0887624 0
M  V30 27941 O 2621.56 -1.92418 -0.990173 0
M  V30 27942 C 2622.15 -2.48417 2.30379 0
M  V30 27943 C 2620.71 -3.01742 2.25009 0
M  V30 27944 C 2619.86 -1.74807 2.15263 0
M  V30 27945 H 2622.81 -0.593147 1.47199 0
M  V30 27946 H 2622.83 -3.27382 1.93911 0
M  V30 27947 H 2622.34 -2.05183 3.29426 0
M  V30 27948 H 2620.44 -3.494 1.29423 0
M  V30 27949 H 2620.56 -3.58687 3.17616 0
M  V30 27950 H 2618.92 -1.96963 1.61486 0
M  V30 27951 H 2619.7 -1.33704 3.16193 0
M  V30 27952 N 2622.15 -1.2054 -1.01528 0
M  V30 27953 C 2623.1 -0.923027 -2.08481 0
M  V30 27954 C 2624.08 0.117673 -1.60469 0
M  V30 27955 O 2625.28 -0.0898775 -1.76772 0
M  V30 27956 C 2622.4 -0.478372 -3.39951 0
M  V30 27957 C 2621.49 -1.55257 -3.94659 0
M  V30 27958 N 2621.88 -2.77529 -4.22861 0
M  V30 27959 C 2620.18 -1.41904 -4.22823 0
M  V30 27960 C 2620.88 -3.46828 -4.66996 0
M  V30 27961 N 2619.86 -2.74245 -4.69351 0
M  V30 27962 H 2623.66 -1.85213 -2.28196 0
M  V30 27963 H 2621.17 -1.09959 -1.1951 0
M  V30 27964 H 2623.17 -0.257481 -4.16104 0
M  V30 27965 H 2621.83 0.444092 -3.21649 0
M  V30 27966 H 2622.84 -3.14168 -4.11727 0
M  V30 27967 H 2619.52 -0.561088 -4.13713 0
M  V30 27968 H 2620.91 -4.51464 -4.97624 0
M  V30 27969 N 2623.63 1.20858 -1.01149 0
M  V30 27970 C 2625.04 1.4216 -0.725447 0
M  V30 27971 C 2625.24 1.89065 0.696886 0
M  V30 27972 O 2624.3 2.0563 1.46535 0
M  V30 27973 C 2625.61 2.44758 -1.74682 0
M  V30 27974 C 2627.16 2.58532 -1.76438 0
M  V30 27975 C 2627.64 3.64369 -2.77488 0
M  V30 27976 N 2629.13 3.71847 -2.76196 0
M  V30 27977 C 2629.86 4.53383 -3.51043 0
M  V30 27978 N 2629.36 5.38765 -4.3555 0
M  V30 27979 N 2631.15 4.47867 -3.39663 0
M  V30 27980 H 2623.3 0.887248 -1.92981 0
M  V30 27981 H 2625.56 0.451947 -0.833335 0
M  V30 27982 H 2625.27 2.1728 -2.76555 0
M  V30 27983 H 2625.14 3.43666 -1.55478 0
M  V30 27984 H 2627.53 2.85344 -0.75253 0
M  V30 27985 H 2627.61 1.59837 -1.99714 0
M  V30 27986 H 2627.26 3.38302 -3.78833 0
M  V30 27987 H 2627.19 4.62675 -2.51474 0
M  V30 27988 H 2629.68 3.10854 -2.14891 0
M  V30 27989 H 2629.99 5.98052 -4.89442 0
M  V30 27990 H 2628.34 5.38284 -4.3963 0
M  V30 27991 H 2631.53 3.80198 -2.7307 0
M  V30 27992 H 2631.7 5.11177 -3.98249 0
M  V30 27993 N 2625.11 0.787064 1.3654 0
M  V30 27994 C 2626.07 0.189818 2.28413 0
M  V30 27995 C 2627.07 -0.611473 1.4872 0
M  V30 27996 O 2628.26 -0.432813 1.68738 0
M  V30 27997 C 2625.39 -0.73758 3.32825 0
M  V30 27998 H 2626.58 0.999881 2.82741 0
M  V30 27999 H 2624.14 0.556324 1.46064 0
M  V30 28000 H 2624.87 -1.57207 2.83648 0
M  V30 28001 H 2624.66 -0.164975 3.91753 0
M  V30 28002 H 2626.15 -1.1504 4.01442 0
M  V30 28003 N 2626.58 -1.48101 0.53888 0
M  V30 28004 C 2627.52 -2.27763 -0.256238 0
M  V30 28005 C 2628.53 -1.35905 -0.896306 0
M  V30 28006 O 2629.72 -1.60882 -0.773247 0
M  V30 28007 C 2626.82 -3.0958 -1.3789 0
M  V30 28008 C 2625.99 -4.29276 -0.839084 0
M  V30 28009 C 2625.05 -4.92833 -1.84397 0
M  V30 28010 O 2624.08 -5.51781 -1.39736 0
M  V30 28011 N 2625.28 -4.85875 -3.17657 0
M  V30 28012 H 2628.04 -2.96642 0.42702 0
M  V30 28013 H 2625.6 -1.57526 0.373774 0
M  V30 28014 H 2627.6 -3.48967 -2.04949 0
M  V30 28015 H 2626.17 -2.43063 -1.96568 0
M  V30 28016 H 2625.39 -3.94199 0.00776216 0
M  V30 28017 H 2626.67 -5.06739 -0.457459 0
M  V30 28018 H 2626.07 -4.3915 -3.56601 0
M  V30 28019 H 2624.63 -5.29336 -3.80325 0
M  V30 28020 N 2628.06 -0.274434 -1.55192 0
M  V30 28021 C 2629.48 0.0797262 -1.59401 0
M  V30 28022 C 2629.68 1.54657 -1.29165 0
M  V30 28023 O 2628.73 2.29533 -1.05219 0
M  V30 28024 C 2630.05 -0.294291 -2.99256 0
M  V30 28025 C 2631.59 -0.240851 -3.12072 0
M  V30 28026 C 2632.07 -0.589298 -4.54193 0
M  V30 28027 N 2633.56 -0.540825 -4.60032 0
M  V30 28028 C 2634.3 -0.783247 -5.68025 0
M  V30 28029 N 2633.79 -1.09025 -6.84168 0
M  V30 28030 N 2635.58 -0.712091 -5.57571 0
M  V30 28031 H 2627.74 -1.2307 -1.73111 0
M  V30 28032 H 2630 -0.497143 -0.807188 0
M  V30 28033 H 2629.7 -1.3144 -3.26215 0
M  V30 28034 H 2629.58 0.365215 -3.75428 0
M  V30 28035 H 2631.97 0.769973 -2.84878 0
M  V30 28036 H 2632.05 -0.934605 -2.38115 0
M  V30 28037 H 2631.69 -1.59781 -4.82113 0
M  V30 28038 H 2631.62 0.126238 -5.26449 0
M  V30 28039 H 2634.11 -0.313393 -3.76598 0
M  V30 28040 H 2634.42 -1.26191 -7.62427 0
M  V30 28041 H 2632.77 -1.12801 -6.85785 0
M  V30 28042 H 2635.96 -0.472096 -4.65713 0
M  V30 28043 H 2636.13 -0.904402 -6.41658 0
M  V30 28044 N 2629.54 1.576 -0.00170483 0
M  V30 28045 C 2630.77 1.94641 0.692719 0
M  V30 28046 C 2631.18 0.875159 1.67743 0
M  V30 28047 O 2630.52 -0.15435 1.8305 0
M  V30 28048 C 2630.58 3.27679 1.47875 0
M  V30 28049 C 2630.25 4.52275 0.655438 0
M  V30 28050 C 2631.24 5.19868 -0.0576128 0
M  V30 28051 C 2628.93 4.98693 0.600907 0
M  V30 28052 C 2630.92 6.32179 -0.814163 0
M  V30 28053 C 2628.61 6.10892 -0.159367 0
M  V30 28054 C 2629.61 6.77492 -0.865634 0
M  V30 28055 O 2629.3 7.87541 -1.6135 0
M  V30 28056 H 2629.03 0.64642 0.19778 0
M  V30 28057 H 2631.58 2.0534 -0.0494591 0
M  V30 28058 H 2629.81 3.13392 2.26545 0
M  V30 28059 H 2631.5 3.49819 2.05867 0
M  V30 28060 H 2632.27 4.84994 -0.0246464 0
M  V30 28061 H 2628.15 4.46678 1.14017 0
M  V30 28062 H 2631.69 6.84096 -1.36596 0
M  V30 28063 H 2627.59 6.45208 -0.194148 0
M  V30 28064 H 2628.35 8.04066 -1.53039 0
M  V30 28065 N 2631.02 -0.271076 1.55251 0
M  V30 28066 C 2631.95 -1.36072 1.83193 0
M  V30 28067 C 2632.93 -1.47462 0.685117 0
M  V30 28068 O 2634.11 -1.64056 0.928321 0
M  V30 28069 C 2631.24 -2.73692 1.99525 0
M  V30 28070 C 2630.29 -2.79576 3.22086 0
M  V30 28071 S 2631.12 -2.38627 4.79393 0
M  V30 28072 C 2632.27 -3.78219 4.987 0
M  V30 28073 H 2632.51 -1.12167 2.75329 0
M  V30 28074 H 2630.04 -0.470808 1.47047 0
M  V30 28075 H 2632 -3.52945 2.0962 0
M  V30 28076 H 2630.66 -2.94848 1.08275 0
M  V30 28077 H 2629.85 -3.80589 3.30406 0
M  V30 28078 H 2629.45 -2.08347 3.10592 0
M  V30 28079 H 2631.75 -4.73506 4.84559 0
M  V30 28080 H 2632.69 -3.74849 6.00744 0
M  V30 28081 H 2633.1 -3.69611 4.26671 0
M  V30 28082 N 2632.5 -1.48217 -0.535675 0
M  V30 28083 C 2633.77 -1.46432 -1.29681 0
M  V30 28084 C 2634.15 -0.172889 -2.10391 0
M  V30 28085 O 2633.5 0.845451 -2.12284 0
M  V30 28086 C 2633.71 -2.72291 -2.18309 0
M  V30 28087 C 2635.06 -3.20388 -2.78633 0
M  V30 28088 O 2636.08 -2.73168 -2.28599 0
M  V30 28089 O 2634.94 -4.02538 -3.69629 0
M  V30 28090 H 2632.04 -0.584539 -0.585016 0
M  V30 28091 H 2634.58 -1.60444 -0.552799 0
M  V30 28092 H 2633.35 -3.578 -1.58415 0
M  V30 28093 H 2632.98 -2.60971 -2.99967 0
M  V30 28094 N 2633.97 0.784108 -1.3671 0
M  V30 28095 C 2635.22 1.53916 -1.30975 0
M  V30 28096 C 2635.54 1.94695 0.109051 0
M  V30 28097 O 2634.81 1.65355 1.05046 0
M  V30 28098 H 2633.39 0.570833 -0.481829 0
M  V30 28099 H 2636.06 0.933971 -1.71064 0
M  V30 28100 H 2635.15 2.44428 -1.94066 0
M  V30 28101 N 2635.45 1.21076 1.00888 0
M  V30 28102 C 2636.4 0.934071 2.07988 0
M  V30 28103 C 2637.39 -0.109162 1.60529 0
M  V30 28104 O 2638.58 0.0992509 1.76722 0
M  V30 28105 C 2635.71 0.496394 3.39692 0
M  V30 28106 C 2634.79 1.57348 3.9383 0
M  V30 28107 N 2635.18 2.79768 4.21383 0
M  V30 28108 C 2633.48 1.44145 4.22064 0
M  V30 28109 C 2634.18 3.493 4.6515 0
M  V30 28110 N 2633.16 2.7673 4.6789 0
M  V30 28111 H 2636.96 1.86421 2.2721 0
M  V30 28112 H 2634.48 1.10592 1.18925 0
M  V30 28113 H 2636.47 0.279544 4.15962 0
M  V30 28114 H 2635.13 -0.427028 3.2188 0
M  V30 28115 H 2636.14 3.16347 4.10055 0
M  V30 28116 H 2632.82 0.58302 4.13409 0
M  V30 28117 H 2634.21 4.54097 4.95223 0
M  V30 28118 N 2636.93 -1.2032 1.01789 0
M  V30 28119 C 2637.86 -2.254 0.609664 0
M  V30 28120 C 2638.84 -1.65894 -0.375922 0
M  V30 28121 O 2640.03 -1.92437 -0.261067 0
M  V30 28122 C 2637.16 -3.47262 -0.0515384 0
M  V30 28123 C 2636.11 -4.1937 0.855169 0
M  V30 28124 C 2635.44 -5.34667 0.0596697 0
M  V30 28125 C 2636.74 -4.75369 2.16382 0
M  V30 28126 H 2638.43 -2.59801 1.48807 0
M  V30 28127 H 2635.98 -1.24883 0.716956 0
M  V30 28128 H 2637.93 -4.19955 -0.34869 0
M  V30 28129 H 2636.65 -3.12028 -0.964671 0
M  V30 28130 H 2635.31 -3.48544 1.13634 0
M  V30 28131 H 2634.96 -4.95677 -0.855153 0
M  V30 28132 H 2634.66 -5.83842 0.663508 0
M  V30 28133 H 2636.18 -6.10163 -0.230998 0
M  V30 28134 H 2637.6 -5.39874 1.92895 0
M  V30 28135 H 2636 -5.34987 2.71863 0
M  V30 28136 H 2637.07 -3.9404 2.82596 0
M  V30 28137 N 2638.41 -0.794293 -1.3612 0
M  V30 28138 C 2639.65 -0.369487 -1.99406 0
M  V30 28139 C 2639.99 1.0574 -1.62888 0
M  V30 28140 O 2639.26 1.73144 -0.886084 0
M  V30 28141 C 2639.55 -0.538896 -3.56045 0
M  V30 28142 C 2639.4 -2.00983 -4.024 0
M  V30 28143 C 2640.72 0.0430585 -4.40079 0
M  V30 28144 H 2637.84 -0.135725 -0.724395 0
M  V30 28145 H 2640.48 -1.00154 -1.61459 0
M  V30 28146 H 2638.63 -0.000839293 -3.885 0
M  V30 28147 H 2640.3 -2.60932 -3.8041 0
M  V30 28148 H 2638.54 -2.51069 -3.53761 0
M  V30 28149 H 2639.21 -2.07931 -5.1134 0
M  V30 28150 H 2641.69 -0.416301 -4.14012 0
M  V30 28151 H 2640.57 -0.10547 -5.48799 0
M  V30 28152 H 2640.83 1.13563 -4.27266 0
M  V30 28153 N 2639.89 1.47813 -0.546727 0
M  V30 28154 C 2641.3 1.86372 -0.110597 0
M  V30 28155 C 2641.65 1.45451 1.31675 0
M  V30 28156 O 2640.77 0.852793 1.98888 0
M  V30 28157 C 2641.37 3.38244 -0.193933 0
M  V30 28158 C 2639.93 3.75935 0.187098 0
M  V30 28159 C 2639.07 2.71867 -0.546214 0
M  V30 28160 H 2642.03 1.39479 -0.757047 0
M  V30 28161 H 2642.05 3.75896 0.590152 0
M  V30 28162 H 2641.56 3.67997 -1.23288 0
M  V30 28163 H 2639.66 3.51798 1.22755 0
M  V30 28164 H 2639.77 4.78819 -0.164167 0
M  V30 28165 H 2638.14 2.54698 0.00949427 0
M  V30 28166 H 2638.92 3.04462 -1.58612 0
M  V30 28167 N 2641.36 0.28266 1.55044 0
M  V30 28168 C 2642.78 -0.0712717 1.59441 0
M  V30 28169 C 2642.98 -1.5397 1.29983 0
M  V30 28170 O 2642.04 -2.28971 1.06435 0
M  V30 28171 C 2643.35 0.310157 2.99096 0
M  V30 28172 C 2644.9 0.257398 3.1194 0
M  V30 28173 C 2645.37 0.613377 4.53874 0
M  V30 28174 N 2646.86 0.565214 4.59739 0
M  V30 28175 C 2647.6 0.81336 5.67602 0
M  V30 28176 N 2647.09 1.12652 6.8358 0
M  V30 28177 N 2648.89 0.741651 5.57186 0
M  V30 28178 H 2641.04 1.23987 1.72456 0
M  V30 28179 H 2643.3 0.501417 0.80454 0
M  V30 28180 H 2643.01 1.33168 3.25514 0
M  V30 28181 H 2642.88 -0.3453 3.75616 0
M  V30 28182 H 2645.27 -0.754855 2.85282 0
M  V30 28183 H 2645.35 0.94722 2.37616 0
M  V30 28184 H 2644.99 1.62335 4.81258 0
M  V30 28185 H 2644.92 -0.0983174 5.26508 0
M  V30 28186 H 2647.41 0.33336 3.76427 0
M  V30 28187 H 2647.73 1.30233 7.61748 0
M  V30 28188 H 2646.07 1.16437 6.85177 0
M  V30 28189 H 2649.26 0.496787 4.65456 0
M  V30 28190 H 2649.44 0.938418 6.41169 0
M  V30 28191 N 2642.84 -1.57597 0.0100627 0
M  V30 28192 C 2644.26 -1.55801 -0.346137 0
M  V30 28193 C 2644.46 -1.01375 -1.74142 0
M  V30 28194 O 2643.51 -0.652011 -2.43937 0
M  V30 28195 C 2644.83 -2.99951 -0.212163 0
M  V30 28196 C 2646.38 -3.11687 -0.286354 0
M  V30 28197 C 2646.85 -4.57641 -0.181389 0
M  V30 28198 N 2648.34 -4.62583 -0.238974 0
M  V30 28199 C 2649.08 -5.73113 -0.18125 0
M  V30 28200 N 2648.57 -6.92761 -0.0735392 0
M  V30 28201 N 2650.37 -5.61613 -0.23385 0
M  V30 28202 H 2642.52 -1.91312 0.92269 0
M  V30 28203 H 2644.78 -0.879179 0.354611 0
M  V30 28204 H 2644.49 -3.43649 0.74823 0
M  V30 28205 H 2644.36 -3.63972 -0.99016 0
M  V30 28206 H 2646.75 -2.67913 -1.2372 0
M  V30 28207 H 2646.83 -2.50424 0.521689 0
M  V30 28208 H 2646.47 -5.02091 0.765951 0
M  V30 28209 H 2646.4 -5.16862 -1.00805 0
M  V30 28210 H 2648.89 -3.76516 -0.323144 0
M  V30 28211 H 2649.21 -7.72792 -0.0356645 0
M  V30 28212 H 2647.55 -6.94989 -0.0390239 0
M  V30 28213 H 2650.74 -4.6703 -0.316265 0
M  V30 28214 H 2650.91 -6.47735 -0.1854 0
M  V30 28215 N 2644.32 0.262839 -1.55393 0
M  V30 28216 C 2645.74 0.610556 -1.4746 0
M  V30 28217 C 2645.94 1.89059 -0.697064 0
M  V30 28218 O 2644.99 2.5154 -0.219996 0
M  V30 28219 C 2646.31 0.728079 -2.91752 0
M  V30 28220 C 2647.85 0.821463 -3.02028 0
M  V30 28221 C 2648.33 0.970681 -4.47596 0
M  V30 28222 N 2649.82 1.03595 -4.51467 0
M  V30 28223 C 2650.55 1.17039 -5.61328 0
M  V30 28224 N 2650.05 1.27138 -6.81034 0
M  V30 28225 N 2651.84 1.20229 -5.49091 0
M  V30 28226 H 2643.99 -0.577668 -2.04394 0
M  V30 28227 H 2646.26 -0.197102 -0.927284 0
M  V30 28228 H 2645.96 -0.142193 -3.51412 0
M  V30 28229 H 2645.84 1.60514 -3.41343 0
M  V30 28230 H 2648.22 1.6822 -2.42458 0
M  V30 28231 H 2648.31 -0.0804137 -2.55674 0
M  V30 28232 H 2647.95 0.114566 -5.07771 0
M  V30 28233 H 2647.88 1.88736 -4.91616 0
M  V30 28234 H 2650.37 0.969896 -3.65242 0
M  V30 28235 H 2650.68 1.37258 -7.60513 0
M  V30 28236 H 2649.03 1.24124 -6.83826 0
M  V30 28237 H 2652.22 1.11977 -4.54509 0
M  V30 28238 H 2652.39 1.30362 -6.34752 0
M  V30 28239 N 2645.8 1.48499 0.527807 0
M  V30 28240 C 2646.73 1.6608 1.64133 0
M  V30 28241 C 2647.71 0.509653 1.62285 0
M  V30 28242 O 2648.89 0.742444 1.79447 0
M  V30 28243 C 2646.02 1.70239 3.02714 0
M  V30 28244 C 2644.98 2.84876 3.19421 0
M  V30 28245 C 2644.3 2.74126 4.59085 0
M  V30 28246 C 2645.6 4.26148 3.01986 0
M  V30 28247 H 2647.3 2.59302 1.49675 0
M  V30 28248 H 2644.84 1.24787 0.718632 0
M  V30 28249 H 2646.8 1.81126 3.80488 0
M  V30 28250 H 2645.52 0.735967 3.182 0
M  V30 28251 H 2644.18 2.73547 2.44065 0
M  V30 28252 H 2643.83 1.75448 4.7141 0
M  V30 28253 H 2643.53 3.51051 4.71208 0
M  V30 28254 H 2645.05 2.86984 5.38955 0
M  V30 28255 H 2646.47 4.38298 3.6955 0
M  V30 28256 H 2644.86 5.04088 3.25601 0
M  V30 28257 H 2645.93 4.42459 1.98388 0
M  V30 28258 N 2647.28 -0.776847 1.37123 0
M  V30 28259 C 2648.21 -1.90399 1.35168 0
M  V30 28260 C 2649.19 -1.68657 0.221099 0
M  V30 28261 O 2650.37 -1.89589 0.420675 0
M  V30 28262 C 2647.5 -3.27609 1.1528 0
M  V30 28263 C 2646.46 -3.63904 2.25295 0
M  V30 28264 C 2645.78 -4.996 1.90536 0
M  V30 28265 C 2647.08 -3.71181 3.67453 0
M  V30 28266 H 2648.78 -1.92293 2.29486 0
M  V30 28267 H 2646.32 -0.923753 1.10466 0
M  V30 28268 H 2648.28 -4.06094 1.12543 0
M  V30 28269 H 2647 -3.26135 0.17416 0
M  V30 28270 H 2645.66 -2.87724 2.27179 0
M  V30 28271 H 2645.31 -4.9466 0.912147 0
M  V30 28272 H 2645.01 -5.24853 2.64202 0
M  V30 28273 H 2646.53 -5.8049 1.89377 0
M  V30 28274 H 2647.95 -4.39829 3.67727 0
M  V30 28275 H 2646.34 -4.07929 4.4013 0
M  V30 28276 H 2647.41 -2.7197 4.01448 0
M  V30 28277 N 2648.76 -1.2161 -1.00244 0
M  V30 28278 C 2650.17 -1.03314 -1.55509 0
M  V30 28279 C 2650.52 0.406299 -1.91947 0
M  V30 28280 O 2649.64 1.28989 -1.73755 0
M  V30 28281 C 2650.24 -1.86918 -2.82573 0
M  V30 28282 C 2648.8 -1.72947 -3.34315 0
M  V30 28283 C 2647.94 -1.83972 -2.07484 0
M  V30 28284 H 2650.89 -1.35594 -0.824615 0
M  V30 28285 H 2650.92 -1.38094 -3.54557 0
M  V30 28286 H 2650.43 -2.91676 -2.56021 0
M  V30 28287 H 2648.53 -0.708834 -3.65795 0
M  V30 28288 H 2648.64 -2.55062 -4.05562 0
M  V30 28289 H 2647.01 -1.27308 -2.20601 0
M  V30 28290 H 2647.79 -2.90243 -1.83341 0
M  V30 28291 N 2650.23 1.19778 -1.02425 0
M  V30 28292 C 2651.64 1.71043 -0.748419 0
M  V30 28293 C 2652 1.82019 0.732366 0
M  V30 28294 O 2651.12 1.48809 1.57114 0
M  V30 28295 C 2651.72 3.10658 -1.35193 0
M  V30 28296 C 2650.27 3.59201 -1.12478 0
M  V30 28297 C 2649.42 2.36193 -1.45287 0
M  V30 28298 H 2652.37 1.04684 -1.19277 0
M  V30 28299 H 2652.39 3.73106 -0.746473 0
M  V30 28300 H 2651.91 3.02637 -2.42966 0
M  V30 28301 H 2650.01 3.72543 -0.0650637 0
M  V30 28302 H 2650.12 4.43585 -1.81023 0
M  V30 28303 H 2648.48 2.39305 -0.872076 0
M  V30 28304 H 2649.27 2.30806 -2.54133 0
M  V30 28305 N 2651.71 0.801501 1.35697 0
M  V30 28306 C 2652.94 0.391804 2.03156 0
M  V30 28307 C 2653.35 -0.99564 1.60413 0
M  V30 28308 O 2652.71 -1.64067 0.799256 0
M  V30 28309 C 2652.76 0.459734 3.58565 0
M  V30 28310 O 2652.48 1.79247 3.99752 0
M  V30 28311 C 2653.98 0.0421984 4.4328 0
M  V30 28312 H 2651.2 0.159837 0.651685 0
M  V30 28313 H 2653.75 1.08371 1.73424 0
M  V30 28314 H 2651.9 -0.183871 3.86963 0
M  V30 28315 H 2652.32 1.75171 4.94384 0
M  V30 28316 H 2653.79 0.140851 5.5182 0
M  V30 28317 H 2654.27 -1.01188 4.27385 0
M  V30 28318 H 2654.87 0.658761 4.20167 0
M  V30 28319 N 2653.19 -1.47521 0.554558 0
M  V30 28320 C 2654.6 -1.86311 0.120479 0
M  V30 28321 C 2654.95 -1.46148 -1.30902 0
M  V30 28322 O 2654.08 -0.863329 -1.98433 0
M  V30 28323 C 2654.67 -3.38137 0.211868 0
M  V30 28324 C 2653.23 -3.76029 -0.167158 0
M  V30 28325 C 2652.38 -2.71574 0.560624 0
M  V30 28326 H 2655.33 -1.39076 0.764433 0
M  V30 28327 H 2655.35 -3.76203 -0.570209 0
M  V30 28328 H 2654.86 -3.67338 1.25238 0
M  V30 28329 H 2652.96 -3.52444 -1.20888 0
M  V30 28330 H 2653.08 -4.78725 0.189557 0
M  V30 28331 H 2651.44 -2.547 0.00401313 0
M  V30 28332 H 2652.22 -3.03617 1.60224 0
M  V30 28333 N 2654.67 -0.290879 -1.54892 0
M  V30 28334 C 2655.63 0.576745 -2.21825 0
M  V30 28335 C 2656.63 1.06917 -1.20106 0
M  V30 28336 O 2657.82 0.966817 -1.44908 0
M  V30 28337 C 2654.95 1.79742 -2.89665 0
M  V30 28338 H 2656.15 -0.00789323 -2.99899 0
M  V30 28339 H 2653.7 -0.0416208 -1.56245 0
M  V30 28340 H 2654.43 2.42215 -2.15644 0
M  V30 28341 H 2654.22 1.45208 -3.64221 0
M  V30 28342 H 2655.71 2.41404 -3.40755 0
M  V30 28343 N 2656.15 1.57589 -0.0184203 0
M  V30 28344 C 2657.39 1.90977 0.661219 0
M  V30 28345 C 2657.71 0.894383 1.73279 0
M  V30 28346 O 2656.98 -0.0656444 1.9579 0
M  V30 28347 H 2655.56 0.704905 0.247221 0
M  V30 28348 H 2658.23 1.94796 -0.0636981 0
M  V30 28349 H 2657.32 2.91282 1.12078 0
M  V30 28350 N 2657.62 -0.254594 1.5553 0
M  V30 28351 C 2659.04 -0.602727 1.47781 0
M  V30 28352 C 2659.24 -1.88687 0.70708 0
M  V30 28353 O 2658.3 -2.5142 0.233332 0
M  V30 28354 C 2659.61 -0.712597 2.92134 0
M  V30 28355 C 2661.16 -0.805435 3.0246 0
M  V30 28356 C 2661.63 -0.94693 4.48104 0
M  V30 28357 N 2663.12 -1.01199 4.5201 0
M  V30 28358 C 2663.86 -1.14061 5.61941 0
M  V30 28359 N 2663.35 -1.23524 6.81699 0
M  V30 28360 N 2665.15 -1.17316 5.49721 0
M  V30 28361 H 2657.3 0.588499 2.04084 0
M  V30 28362 H 2659.56 0.202017 0.926225 0
M  V30 28363 H 2659.27 0.160828 3.51332 0
M  V30 28364 H 2659.14 -1.58701 3.4219 0
M  V30 28365 H 2661.53 -1.66932 2.43347 0
M  V30 28366 H 2661.61 0.0939716 2.55627 0
M  V30 28367 H 2661.25 -0.0876358 5.07824 0
M  V30 28368 H 2661.18 -1.86126 4.9261 0
M  V30 28369 H 2663.67 -0.950512 3.65751 0
M  V30 28370 H 2663.99 -1.33223 7.6123 0
M  V30 28371 H 2662.33 -1.20496 6.84475 0
M  V30 28372 H 2665.52 -1.09565 4.55097 0
M  V30 28373 H 2665.7 -1.26994 6.35434 0
M  V30 28374 N 2659.1 -1.48777 -0.519925 0
M  V30 28375 C 2660.05 -1.64047 -1.6235 0
M  V30 28376 C 2661.02 -0.482279 -1.58944 0
M  V30 28377 O 2662.2 -0.707003 -1.77218 0
M  V30 28378 C 2659.34 -1.69552 -3.00576 0
M  V30 28379 C 2658.46 -2.96547 -3.1414 0
M  V30 28380 C 2657.59 -2.9315 -4.42986 0
M  V30 28381 C 2656.63 -4.14805 -4.50114 0
M  V30 28382 N 2655.77 -4.09428 -5.70363 0
M  V30 28383 H 2660.61 -2.58284 -1.48639 0
M  V30 28384 H 2658.14 -1.28078 -0.723493 0
M  V30 28385 H 2660.1 -1.70726 -3.80668 0
M  V30 28386 H 2658.73 -0.787973 -3.13035 0
M  V30 28387 H 2657.78 -3.05072 -2.27234 0
M  V30 28388 H 2659.1 -3.86533 -3.15268 0
M  V30 28389 H 2658.25 -2.92781 -5.3138 0
M  V30 28390 H 2656.99 -2.0091 -4.44395 0
M  V30 28391 H 2655.99 -4.15439 -3.60126 0
M  V30 28392 H 2657.22 -5.08216 -4.50436 0
M  V30 28393 H 2655.17 -3.20014 -5.72649 0
M  V30 28394 H 2655.08 -4.93129 -5.73027 0
M  V30 28395 H 2656.35 -4.13133 -6.61016 0
M  V30 28396 N 2660.58 0.769564 -1.37534 0
M  V30 28397 C 2661.99 1.34598 -1.29385 0
M  V30 28398 C 2662.34 1.96116 0.0575694 0
M  V30 28399 O 2661.47 1.93969 0.959436 0
M  V30 28400 C 2662.06 2.4472 -2.34302 0
M  V30 28401 C 2660.62 2.98124 -2.29781 0
M  V30 28402 C 2659.77 1.7136 -2.18016 0
M  V30 28403 H 2662.72 0.569654 -1.48124 0
M  V30 28404 H 2662.74 3.24256 -1.99094 0
M  V30 28405 H 2662.25 1.99916 -3.32649 0
M  V30 28406 H 2660.35 3.47297 -1.34965 0
M  V30 28407 H 2660.47 3.53589 -3.23283 0
M  V30 28408 H 2658.83 1.94369 -1.64599 0
M  V30 28409 H 2659.61 1.28657 -3.1828 0
M  V30 28410 N 2662.06 1.22139 0.995977 0
M  V30 28411 C 2663.28 1.07113 1.77599 0
M  V30 28412 C 2663.71 -0.374232 1.8434 0
M  V30 28413 O 2663.07 -1.27026 1.29361 0
M  V30 28414 C 2663.11 1.68341 3.18894 0
M  V30 28415 O 2662.22 0.934998 4.01661 0
M  V30 28416 H 2661.56 0.376406 0.547005 0
M  V30 28417 H 2664.09 1.61872 1.25134 0
M  V30 28418 H 2664.1 1.72937 3.69536 0
M  V30 28419 H 2662.77 2.73521 3.13303 0
M  V30 28420 H 2661.35 0.964814 3.60202 0
M  V30 28421 N 2663.54 -1.19233 1.03059 0
M  V30 28422 C 2664.78 -1.88959 0.728052 0
M  V30 28423 C 2665.11 -1.79729 -0.743483 0
M  V30 28424 O 2664.37 -1.18523 -1.55727 0
M  V30 28425 C 2664.67 -3.3917 1.12686 0
M  V30 28426 C 2664.33 -3.68604 2.59696 0
M  V30 28427 C 2662.99 -3.76347 2.99861 0
M  V30 28428 C 2665.35 -3.81794 3.54799 0
M  V30 28429 C 2662.67 -3.9475 4.34038 0
M  V30 28430 C 2665.03 -4.01712 4.88683 0
M  V30 28431 C 2663.69 -4.07688 5.28533 0
M  V30 28432 H 2662.96 -0.691451 0.266413 0
M  V30 28433 H 2665.61 -1.41188 1.29376 0
M  V30 28434 H 2663.91 -3.88851 0.479791 0
M  V30 28435 H 2665.61 -3.91443 0.870272 0
M  V30 28436 H 2662.2 -3.63187 2.27582 0
M  V30 28437 H 2666.38 -3.75154 3.2492 0
M  V30 28438 H 2661.64 -3.97617 4.64447 0
M  V30 28439 H 2665.81 -4.1086 5.62287 0
M  V30 28440 H 2663.44 -4.217 6.32513 0
M  V30 28441 N 2665.01 -0.808686 -1.3527 0
M  V30 28442 C 2666.24 -0.402572 -2.02946 0
M  V30 28443 C 2666.66 0.987119 -1.60939 0
M  V30 28444 O 2666.01 1.63641 -0.807946 0
M  V30 28445 C 2666.07 -0.478743 -3.58316 0
M  V30 28446 O 2665.79 -1.81365 -3.98796 0
M  V30 28447 C 2667.29 -0.065706 -4.43251 0
M  V30 28448 H 2664.51 -0.163291 -0.650828 0
M  V30 28449 H 2667.05 -1.09289 -1.72847 0
M  V30 28450 H 2665.21 0.163347 -3.87055 0
M  V30 28451 H 2665.62 -1.7779 -4.93448 0
M  V30 28452 H 2667.09 -0.170114 -5.51738 0
M  V30 28453 H 2667.57 0.989203 -4.27915 0
M  V30 28454 H 2668.18 -0.681034 -4.19812 0
M  V30 28455 N 2666.49 1.47225 -0.562374 0
M  V30 28456 C 2667.74 2.01664 -0.0380765 0
M  V30 28457 C 2668.05 1.44164 1.32197 0
M  V30 28458 O 2669.26 1.90298 1.93647 0
M  V30 28459 C 2667.72 3.59896 -0.0175591 0
M  V30 28460 C 2667.32 4.26388 -1.37468 0
M  V30 28461 C 2669.07 4.22067 0.45386 0
M  V30 28462 C 2666.98 5.76641 -1.31299 0
M  V30 28463 H 2665.91 0.753927 -0.0104644 0
M  V30 28464 H 2668.56 1.69166 -0.710996 0
M  V30 28465 H 2666.94 3.89379 0.721114 0
M  V30 28466 H 2668.11 4.0854 -2.13147 0
M  V30 28467 H 2666.43 3.76226 -1.78445 0
M  V30 28468 H 2669.02 5.3218 0.518491 0
M  V30 28469 H 2669.37 3.89596 1.46699 0
M  V30 28470 H 2669.9 3.97134 -0.230114 0
M  V30 28471 H 2666.64 6.13739 -2.30228 0
M  V30 28472 H 2666.16 5.96811 -0.598078 0
M  V30 28473 H 2667.84 6.38953 -1.01724 0
M  V30 28474 N 2667.97 0.299089 1.54736 0
M  V30 28475 C 2668.9 -0.611492 2.20892 0
M  V30 28476 C 2669.92 -1.09902 1.20106 0
M  V30 28477 O 2671.1 -1.0168 1.46708 0
M  V30 28478 C 2668.2 -1.84892 2.84021 0
M  V30 28479 C 2667.38 -1.50421 4.10722 0
M  V30 28480 C 2666.44 -2.59659 4.57672 0
M  V30 28481 O 2665.46 -2.24832 5.22914 0
M  V30 28482 N 2666.66 -3.90164 4.29828 0
M  V30 28483 H 2669.43 -0.0451474 2.99666 0
M  V30 28484 H 2666.99 0.121207 1.61446 0
M  V30 28485 H 2668.98 -2.57315 3.12364 0
M  V30 28486 H 2667.55 -2.32371 2.09099 0
M  V30 28487 H 2666.77 -0.612713 3.89409 0
M  V30 28488 H 2668.06 -1.24925 4.93225 0
M  V30 28489 H 2667.46 -4.21269 3.77556 0
M  V30 28490 H 2666.02 -4.58891 4.62885 0
M  V30 28491 N 2669.45 -1.57577 0.0267774 0
M  V30 28492 C 2670.69 -1.93568 -0.656556 0
M  V30 28493 C 2671.05 -0.903242 -1.69427 0
M  V30 28494 O 2672.25 -1.14927 -2.42992 0
M  V30 28495 C 2670.52 -3.34488 -1.25906 0
M  V30 28496 S 2672.08 -3.92404 -1.96379 0
M  V30 28497 H 2668.9 -0.677324 -0.216225 0
M  V30 28498 H 2671.5 -1.95293 0.0898818 0
M  V30 28499 H 2670.21 -4.07448 -0.491333 0
M  V30 28500 H 2669.74 -3.36201 -2.04285 0
M  V30 28501 H 2671.75 -3.75649 -3.24195 0
M  V30 28502 N 2670.93 0.246342 -1.55663 0
M  V30 28503 C 2671.86 1.3087 -1.93379 0
M  V30 28504 C 2672.84 1.50177 -0.798799 0
M  V30 28505 O 2674.02 1.62776 -1.05913 0
M  V30 28506 C 2671.15 2.66334 -2.22897 0
M  V30 28507 C 2670.11 2.61721 -3.38653 0
M  V30 28508 C 2669.43 4.00986 -3.53715 0
M  V30 28509 C 2670.73 2.18658 -4.74327 0
M  V30 28510 H 2672.43 0.995502 -2.82365 0
M  V30 28511 H 2669.97 0.47744 -1.35855 0
M  V30 28512 H 2671.93 3.4079 -2.47872 0
M  V30 28513 H 2670.65 2.99291 -1.30738 0
M  V30 28514 H 2669.31 1.89723 -3.13689 0
M  V30 28515 H 2668.96 4.31209 -2.58975 0
M  V30 28516 H 2668.66 3.98787 -4.31558 0
M  V30 28517 H 2670.18 4.7714 -3.81011 0
M  V30 28518 H 2671.59 2.82845 -4.9867 0
M  V30 28519 H 2669.99 2.27569 -5.55277 0
M  V30 28520 H 2671.06 1.13826 -4.71351 0
M  V30 28521 N 2672.4 1.4905 0.512027 0
M  V30 28522 C 2673.34 1.61012 1.63119 0
M  V30 28523 C 2674.35 0.493379 1.55144 0
M  V30 28524 O 2675.54 0.764983 1.61277 0
M  V30 28525 C 2672.64 1.54057 3.0186 0
M  V30 28526 C 2671.81 2.81078 3.35133 0
M  V30 28527 C 2670.87 2.67327 4.53236 0
M  V30 28528 O 2669.9 3.41246 4.55565 0
M  V30 28529 N 2671.1 1.78137 5.52492 0
M  V30 28530 H 2673.86 2.57532 1.53288 0
M  V30 28531 H 2671.42 1.46 0.69968 0
M  V30 28532 H 2673.42 1.42528 3.78772 0
M  V30 28533 H 2671.99 0.654399 3.05674 0
M  V30 28534 H 2671.21 3.0704 2.47225 0
M  V30 28535 H 2672.49 3.6531 3.54156 0
M  V30 28536 H 2671.89 1.17317 5.53401 0
M  V30 28537 H 2670.45 1.72536 6.28549 0
M  V30 28538 N 2673.88 -0.762259 1.3794 0
M  V30 28539 C 2675.3 -1.06413 1.18947 0
M  V30 28540 C 2675.5 -2.01474 0.0321517 0
M  V30 28541 O 2674.55 -2.44648 -0.624801 0
M  V30 28542 C 2675.87 -1.65253 2.51221 0
M  V30 28543 C 2677.42 -1.77466 2.57827 0
M  V30 28544 C 2677.89 -2.39718 3.90255 0
M  V30 28545 N 2679.38 -2.47159 3.91748 0
M  V30 28546 C 2680.12 -2.96201 4.90971 0
M  V30 28547 N 2679.61 -3.45344 6.00591 0
M  V30 28548 N 2681.41 -2.95162 4.78368 0
M  V30 28549 H 2673.56 -0.131263 2.11994 0
M  V30 28550 H 2675.82 -0.120862 0.940264 0
M  V30 28551 H 2675.53 -1.02872 3.36319 0
M  V30 28552 H 2675.4 -2.64428 2.68994 0
M  V30 28553 H 2677.79 -2.38977 1.7313 0
M  V30 28554 H 2677.87 -0.770198 2.43929 0
M  V30 28555 H 2677.51 -1.78844 4.75371 0
M  V30 28556 H 2677.44 -3.40789 4.0146 0
M  V30 28557 H 2679.93 -2.12392 3.12567 0
M  V30 28558 H 2680.25 -3.81195 6.72242 0
M  V30 28559 H 2678.59 -3.43424 6.04223 0
M  V30 28560 H 2681.78 -2.56075 3.91846 0
M  V30 28561 H 2681.95 -3.33071 5.55849 0
M  V30 28562 N 2675.36 -1.22666 -0.989486 0
M  V30 28563 C 2676.29 -0.957578 -2.08238 0
M  V30 28564 C 2677.31 0.0650812 -1.6267 0
M  V30 28565 O 2678.49 -0.169343 -1.77695 0
M  V30 28566 C 2675.59 -0.419204 -3.36297 0
M  V30 28567 C 2674.77 -1.49989 -4.1088 0
M  V30 28568 C 2673.83 -0.967995 -5.1722 0
M  V30 28569 O 2672.85 -1.65496 -5.4461 0
M  V30 28570 N 2674.05 0.208858 -5.80124 0
M  V30 28571 H 2676.82 -1.89847 -2.31901 0
M  V30 28572 H 2674.38 -1.13401 -1.1555 0
M  V30 28573 H 2676.37 -0.0486162 -4.04671 0
M  V30 28574 H 2674.94 0.426883 -3.09672 0
M  V30 28575 H 2674.16 -2.04365 -3.37088 0
M  V30 28576 H 2675.45 -2.2269 -4.57479 0
M  V30 28577 H 2674.85 0.783719 -5.60245 0
M  V30 28578 H 2673.41 0.520798 -6.49716 0
M  V30 28579 N 2676.84 1.18685 -1.0369 0
M  V30 28580 C 2678.09 1.88198 -0.736605 0
M  V30 28581 C 2678.41 1.8051 0.737633 0
M  V30 28582 O 2677.68 1.22091 1.53201 0
M  V30 28583 H 2676.26 0.6967 -0.269479 0
M  V30 28584 H 2678.92 1.4405 -1.31285 0
M  V30 28585 H 2678.02 2.9433 -1.03807 0
M  V30 28586 N 2678.32 0.815849 1.34839 0
M  V30 28587 C 2679.54 0.412296 2.03261 0
M  V30 28588 C 2679.97 -0.971723 1.61056 0
M  V30 28589 O 2679.33 -1.63099 0.791729 0
M  V30 28590 C 2679.37 0.514351 3.56913 0
M  V30 28591 O 2678.48 -0.468603 4.09729 0
M  V30 28592 H 2677.82 0.170782 0.641661 0
M  V30 28593 H 2680.35 1.1043 1.72239 0
M  V30 28594 H 2680.36 0.387528 4.06155 0
M  V30 28595 H 2679.03 1.52381 3.86979 0
M  V30 28596 H 2677.61 -0.301251 3.71681 0
M  V30 28597 N 2679.8 -1.46924 0.570174 0
M  V30 28598 C 2681.04 -2.0433 0.0535102 0
M  V30 28599 C 2681.4 -1.43353 -1.27726 0
M  V30 28600 O 2682.6 -1.91882 -1.88241 0
M  V30 28601 C 2680.87 -3.57392 -0.0243668 0
M  V30 28602 S 2682.43 -4.36108 -0.485274 0
M  V30 28603 H 2679.25 -0.710306 0.0314033 0
M  V30 28604 H 2681.85 -1.8013 0.75984 0
M  V30 28605 H 2680.55 -3.99293 0.948331 0
M  V30 28606 H 2680.09 -3.8611 -0.753854 0
M  V30 28607 H 2682.1 -4.64598 -1.74249 0
M  V30 28608 N 2681.27 -0.307291 -1.54575 0
M  V30 28609 C 2682.18 0.57532 -2.27436 0
M  V30 28610 C 2683.2 1.14309 -1.31185 0
M  V30 28611 O 2684.38 1.16653 -1.64177 0
M  V30 28612 C 2681.44 1.72798 -3.00569 0
M  V30 28613 C 2680.5 1.19366 -4.12371 0
M  V30 28614 C 2679.73 2.29139 -4.82007 0
M  V30 28615 O 2679.96 3.49164 -4.51044 0
M  V30 28616 O 2678.89 1.95475 -5.69274 0
M  V30 28617 H 2682.72 -0.0159092 -3.03696 0
M  V30 28618 H 2680.3 -0.0735326 -1.49219 0
M  V30 28619 H 2682.18 2.3994 -3.4642 0
M  V30 28620 H 2680.86 2.3057 -2.27199 0
M  V30 28621 H 2679.77 0.487786 -3.70906 0
M  V30 28622 H 2681.1 0.66129 -4.87737 0
M  V30 28623 N 2682.75 1.57561 -0.0351337 0
M  V30 28624 C 2684.03 1.83356 0.68118 0
M  V30 28625 C 2684.41 0.920286 1.89984 0
M  V30 28626 O 2683.76 -0.0226414 2.28489 0
M  V30 28627 C 2683.97 3.32713 1.0537 0
M  V30 28628 C 2685.31 3.99335 1.44279 0
M  V30 28629 O 2686.34 3.37244 1.14651 0
M  V30 28630 O 2685.2 5.08781 1.99509 0
M  V30 28631 H 2682.29 0.756232 0.334728 0
M  V30 28632 H 2684.84 1.69582 -0.0632746 0
M  V30 28633 H 2683.61 3.90855 0.1866 0
M  V30 28634 H 2683.23 3.51616 1.85612 0
M  V30 28635 N 2684.23 -0.238084 1.55791 0
M  V30 28636 C 2685.16 -1.29842 1.9407 0
M  V30 28637 C 2686.14 -1.49752 0.806752 0
M  V30 28638 O 2687.33 -1.62212 1.06775 0
M  V30 28639 C 2684.46 -2.65149 2.24307 0
M  V30 28640 C 2683.41 -2.59921 3.40037 0
M  V30 28641 C 2682.74 -3.99105 3.55836 0
M  V30 28642 C 2684.04 -2.16139 4.7548 0
M  V30 28643 H 2685.73 -0.980514 2.82889 0
M  V30 28644 H 2683.28 -0.470229 1.36106 0
M  V30 28645 H 2685.23 -3.3947 2.49676 0
M  V30 28646 H 2683.95 -2.98594 1.32323 0
M  V30 28647 H 2682.61 -1.88057 3.1469 0
M  V30 28648 H 2682.26 -4.2983 2.61258 0
M  V30 28649 H 2681.96 -3.96493 4.33667 0
M  V30 28650 H 2683.48 -4.75113 3.83536 0
M  V30 28651 H 2684.9 -2.80197 5.00163 0
M  V30 28652 H 2683.29 -2.24621 5.56476 0
M  V30 28653 H 2684.36 -1.11325 4.71948 0
M  V30 28654 N 2685.71 -1.4932 -0.504115 0
M  V30 28655 C 2687.12 -1.51887 -1.08569 0
M  V30 28656 C 2687.47 -0.303289 -1.93842 0
M  V30 28657 O 2686.59 0.587203 -2.08281 0
M  V30 28658 C 2687.19 -2.75231 -1.97569 0
M  V30 28659 C 2685.75 -2.80586 -2.50895 0
M  V30 28660 C 2684.9 -2.45759 -1.28443 0
M  V30 28661 H 2687.85 -1.56062 -0.288167 0
M  V30 28662 H 2687.87 -2.55216 -2.82215 0
M  V30 28663 H 2687.38 -3.63685 -1.35479 0
M  V30 28664 H 2685.48 -1.96404 -3.16633 0
M  V30 28665 H 2685.59 -3.82678 -2.88261 0
M  V30 28666 H 2683.96 -1.97471 -1.60864 0
M  V30 28667 H 2684.74 -3.36485 -0.680661 0
M  V30 28668 N 2687.19 0.754933 -1.38342 0
M  V30 28669 C 2688.43 1.50938 -1.33794 0
M  V30 28670 C 2688.75 1.95475 0.0698923 0
M  V30 28671 O 2689.95 2.70456 0.237908 0
M  V30 28672 C 2688.41 2.72639 -2.34939 0
M  V30 28673 C 2688.02 2.35132 -3.81336 0
M  V30 28674 C 2689.76 3.50532 -2.39431 0
M  V30 28675 C 2687.67 3.53436 -4.7417 0
M  V30 28676 H 2686.6 0.566732 -0.497323 0
M  V30 28677 H 2689.25 0.825374 -1.6389 0
M  V30 28678 H 2687.63 3.43013 -1.97884 0
M  V30 28679 H 2688.81 1.72432 -4.27322 0
M  V30 28680 H 2687.12 1.70375 -3.79949 0
M  V30 28681 H 2689.72 4.38492 -3.05988 0
M  V30 28682 H 2690.06 3.91592 -1.41285 0
M  V30 28683 H 2690.59 2.8717 -2.75279 0
M  V30 28684 H 2687.33 3.17443 -5.73507 0
M  V30 28685 H 2686.85 4.15183 -4.32878 0
M  V30 28686 H 2688.53 4.20034 -4.92118 0
M  V30 28687 N 2688.66 1.23189 0.982967 0
M  V30 28688 C 2690.07 1.05775 1.53846 0
M  V30 28689 C 2690.43 -0.37571 1.92569 0
M  V30 28690 O 2689.55 -1.26208 1.75785 0
M  V30 28691 C 2690.15 1.91389 2.79563 0
M  V30 28692 C 2688.7 1.78244 3.31521 0
M  V30 28693 C 2687.85 1.87249 2.04531 0
M  V30 28694 H 2690.8 1.36889 0.802938 0
M  V30 28695 H 2690.82 1.43717 3.52315 0
M  V30 28696 H 2690.34 2.95712 2.51348 0
M  V30 28697 H 2688.44 0.76694 3.64621 0
M  V30 28698 H 2688.55 2.61482 4.01452 0
M  V30 28699 H 2686.91 1.30801 2.18548 0
M  V30 28700 H 2687.7 2.93123 1.787 0
M  V30 28701 N 2690.14 -1.18133 1.04318 0
M  V30 28702 C 2691.39 -1.87805 0.746575 0
M  V30 28703 C 2691.71 -1.80899 -0.72805 0
M  V30 28704 O 2690.98 -1.22901 -1.52552 0
M  V30 28705 H 2689.56 -0.695261 0.27317 0
M  V30 28706 H 2692.22 -1.43351 1.32047 0
M  V30 28707 H 2691.32 -2.93776 1.05367 0
M  V30 28708 N 2691.62 -0.822988 -1.34405 0
M  V30 28709 C 2692.85 -0.424075 -2.02507 0
M  V30 28710 C 2693.26 0.969994 -1.61977 0
M  V30 28711 O 2692.62 1.62775 -0.825257 0
M  V30 28712 C 2692.67 -0.51672 -3.57788 0
M  V30 28713 O 2692.39 -1.85584 -3.9685 0
M  V30 28714 C 2693.89 -0.112715 -4.43157 0
M  V30 28715 H 2691.11 -0.170184 -0.64906 0
M  V30 28716 H 2693.66 -1.11116 -1.71678 0
M  V30 28717 H 2691.81 0.122285 -3.87207 0
M  V30 28718 H 2692.23 -1.83014 -4.91535 0
M  V30 28719 H 2693.7 -0.228623 -5.51526 0
M  V30 28720 H 2694.18 0.943761 -4.2894 0
M  V30 28721 H 2694.78 -0.725522 -4.19066 0
M  V30 28722 N 2693.1 1.4662 -0.577957 0
M  V30 28723 C 2694.33 2.06491 -0.0671031 0
M  V30 28724 C 2694.74 1.428 1.24116 0
M  V30 28725 O 2694.08 0.52579 1.76015 0
M  V30 28726 C 2694.14 3.59059 0.177932 0
M  V30 28727 C 2693.81 4.44915 -1.04402 0
M  V30 28728 C 2694.8 4.81748 -1.95487 0
M  V30 28729 C 2692.49 4.86122 -1.26453 0
M  V30 28730 C 2694.48 5.5861 -3.06975 0
M  V30 28731 C 2692.17 5.62745 -2.38247 0
M  V30 28732 C 2693.17 5.98902 -3.28338 0
M  V30 28733 O 2692.85 6.73977 -4.3819 0
M  V30 28734 H 2692.59 0.673972 -0.0523278 0
M  V30 28735 H 2695.14 1.89307 -0.796999 0
M  V30 28736 H 2693.37 3.74533 0.962385 0
M  V30 28737 H 2695.06 4.00875 0.636711 0
M  V30 28738 H 2695.83 4.50495 -1.79665 0
M  V30 28739 H 2691.7 4.57433 -0.572397 0
M  V30 28740 H 2695.25 5.8675 -3.77319 0
M  V30 28741 H 2691.15 5.93411 -2.54034 0
M  V30 28742 H 2691.91 6.92396 -4.36498 0
M  V30 28743 N 2694.58 0.315484 1.5441 0
M  V30 28744 C 2695.53 -0.56951 2.20773 0
M  V30 28745 C 2696.51 -1.08785 1.18553 0
M  V30 28746 O 2697.7 -1.02621 1.44215 0
M  V30 28747 C 2694.83 -1.73389 2.96296 0
M  V30 28748 C 2693.92 -1.23083 4.05847 0
M  V30 28749 N 2694.31 -0.446839 5.03822 0
M  V30 28750 C 2692.61 -1.51028 4.1965 0
M  V30 28751 C 2693.31 -0.177148 5.8143 0
M  V30 28752 N 2692.28 -0.761023 5.38247 0
M  V30 28753 H 2696.09 0.0368593 2.93877 0
M  V30 28754 H 2693.6 0.120944 1.61949 0
M  V30 28755 H 2695.6 -2.37959 3.42317 0
M  V30 28756 H 2694.26 -2.34382 2.24712 0
M  V30 28757 H 2695.27 -0.0904116 5.17821 0
M  V30 28758 H 2691.94 -2.12664 3.59277 0
M  V30 28759 H 2693.33 0.453468 6.70368 0
M  V30 28760 N 2696.05 -1.5754 0.0434891 0
M  V30 28761 C 2697.47 -1.565 -0.313011 0
M  V30 28762 C 2697.67 -1.05046 -1.71953 0
M  V30 28763 O 2696.73 -0.703606 -2.42499 0
M  V30 28764 C 2698.04 -3.00333 -0.148491 0
M  V30 28765 C 2699.59 -3.12225 -0.220176 0
M  V30 28766 C 2700.06 -4.57922 -0.084276 0
M  V30 28767 N 2701.55 -4.62986 -0.1408 0
M  V30 28768 C 2702.29 -5.73369 -0.0596435 0
M  V30 28769 N 2701.78 -6.92761 0.0734222 0
M  V30 28770 N 2703.58 -5.61983 -0.114671 0
M  V30 28771 H 2695.73 -1.89312 0.963063 0
M  V30 28772 H 2697.99 -0.871459 0.37318 0
M  V30 28773 H 2697.7 -3.41984 0.820954 0
M  V30 28774 H 2697.57 -3.6599 -0.912734 0
M  V30 28775 H 2699.96 -2.70477 -1.18009 0
M  V30 28776 H 2700.04 -2.49261 0.57469 0
M  V30 28777 H 2699.68 -5.00354 0.87228 0
M  V30 28778 H 2699.61 -5.18884 -0.898189 0
M  V30 28779 H 2702.1 -3.77117 -0.243207 0
M  V30 28780 H 2702.42 -7.72694 0.128264 0
M  V30 28781 H 2700.76 -6.94915 0.108402 0
M  V30 28782 H 2703.95 -4.67596 -0.217129 0
M  V30 28783 H 2704.13 -6.47982 -0.047964 0
M  V30 28784 N 2697.53 0.229818 -1.55915 0
M  V30 28785 C 2698.78 0.953534 -1.78191 0
M  V30 28786 C 2699.1 1.85196 -0.610536 0
M  V30 28787 O 2698.37 1.92317 0.372955 0
M  V30 28788 H 2696.95 0.355076 -0.657214 0
M  V30 28789 H 2699.61 0.243659 -1.93371 0
M  V30 28790 H 2698.71 1.56522 -2.70014 0
M  V30 28791 N 2699.01 1.49585 0.49619 0
M  V30 28792 C 2700.43 1.36454 0.82779 0
M  V30 28793 C 2700.63 0.40132 1.97463 0
M  V30 28794 O 2699.68 -0.165251 2.51959 0
M  V30 28795 C 2701 2.77279 1.16347 0
M  V30 28796 C 2702.54 2.86015 1.2714 0
M  V30 28797 C 2703.02 4.27618 1.64034 0
M  V30 28798 N 2704.51 4.30451 1.71074 0
M  V30 28799 C 2705.24 5.36988 2.01076 0
M  V30 28800 N 2704.74 6.53764 2.29269 0
M  V30 28801 N 2706.53 5.24408 2.02367 0
M  V30 28802 H 2698.68 2.10803 -0.259984 0
M  V30 28803 H 2700.95 0.946476 -0.053733 0
M  V30 28804 H 2700.65 3.49485 0.394092 0
M  V30 28805 H 2700.53 3.1295 2.10576 0
M  V30 28806 H 2702.91 2.14044 2.03149 0
M  V30 28807 H 2703 2.53921 0.309498 0
M  V30 28808 H 2702.64 5.00117 0.885742 0
M  V30 28809 H 2702.57 4.57179 2.61332 0
M  V30 28810 H 2705.06 3.46234 1.51427 0
M  V30 28811 H 2705.37 7.30778 2.51363 0
M  V30 28812 H 2703.72 6.56982 2.26715 0
M  V30 28813 H 2706.91 4.32183 1.79822 0
M  V30 28814 H 2707.08 6.0753 2.25414 0
M  V30 28815 N 2700.49 -0.747586 1.3874 0
M  V30 28816 C 2701.44 -1.88281 1.36577 0
M  V30 28817 C 2702.43 -1.67534 0.250742 0
M  V30 28818 O 2703.64 -1.75029 0.420104 0
M  V30 28819 H 2700.01 -0.619562 0.426201 0
M  V30 28820 H 2701.98 -1.87222 2.32359 0
M  V30 28821 C 2700.73 -3.2583 1.21367 0
M  V30 28822 H 2700.05 -3.42384 2.0643 0
M  V30 28823 H 2701.49 -4.05491 1.23908 0
M  V30 28824 C 2699.95 -3.36807 -0.0789507 0
M  V30 28825 O 2700.48 -3.87632 -1.05378 0
M  V30 28826 N 2698.69 -2.90273 -0.137799 0
M  V30 28827 H 2698.24 -2.49103 0.656172 0
M  V30 28828 H 2698.19 -2.97998 -1.00223 0
M  V30 28829 N 2701.97 -1.23709 -0.97642 0
M  V30 28830 C 2703.19 -1.09925 -1.75873 0
M  V30 28831 C 2703.62 0.344858 -1.84912 0
M  V30 28832 O 2702.97 1.24951 -1.31365 0
M  V30 28833 C 2703.02 -1.73393 -3.16176 0
M  V30 28834 O 2702.13 -0.998781 -4.00123 0
M  V30 28835 H 2701.47 -0.385061 -0.540947 0
M  V30 28836 H 2704 -1.63842 -1.22543 0
M  V30 28837 H 2704.01 -1.78795 -3.66738 0
M  V30 28838 H 2702.68 -2.78471 -3.08912 0
M  V30 28839 H 2701.26 -1.022 -3.58622 0
M  V30 28840 N 2703.44 1.17579 -1.04943 0
M  V30 28841 C 2704.69 1.87406 -0.756525 0
M  V30 28842 C 2705.01 1.81283 0.718446 0
M  V30 28843 O 2704.28 1.23709 1.51898 0
M  V30 28844 H 2702.86 0.693802 -0.276853 0
M  V30 28845 H 2705.53 1.42649 -1.32805 0
M  V30 28846 H 2704.62 2.93213 -1.06923 0
M  V30 28847 N 2704.92 0.830104 1.33967 0
M  V30 28848 C 2706.33 0.479487 1.80438 0
M  V30 28849 C 2706.68 -1.00076 1.68758 0
M  V30 28850 O 2705.81 -1.77924 1.23174 0
M  V30 28851 C 2706.4 0.863562 3.2761 0
M  V30 28852 C 2704.96 0.565211 3.72132 0
M  V30 28853 C 2704.11 1.07662 2.55547 0
M  V30 28854 H 2707.06 1.01962 1.21612 0
M  V30 28855 H 2707.08 0.17015 3.80119 0
M  V30 28856 H 2706.59 1.94095 3.36079 0
M  V30 28857 H 2704.7 -0.502472 3.69196 0
M  V30 28858 H 2704.81 1.1143 4.65961 0
M  V30 28859 H 2703.17 0.497851 2.49787 0
M  V30 28860 H 2703.96 2.1606 2.66783 0
M  V30 28861 N 2706.4 -1.46311 0.585725 0
M  V30 28862 C 2707.35 -2.32059 -0.158536 0
M  V30 28863 C 2708.34 -1.44664 -0.881401 0
M  V30 28864 O 2709.55 -1.61273 -0.799447 0
M  V30 28865 H 2705.92 -0.748736 -0.0699934 0
M  V30 28866 H 2707.9 -2.92641 0.583435 0
M  V30 28867 C 2706.64 -3.27887 -1.15695 0
M  V30 28868 H 2705.97 -3.95117 -0.610145 0
M  V30 28869 H 2707.41 -3.9066 -1.64805 0
M  V30 28870 C 2705.87 -2.53458 -2.21947 0
M  V30 28871 O 2706.4 -2.29984 -3.29348 0
M  V30 28872 N 2704.6 -2.13969 -1.96636 0
M  V30 28873 H 2704.15 -2.3326 -1.09305 0
M  V30 28874 H 2704.11 -1.6449 -2.67938 0
M  V30 28875 N 2707.88 -0.323668 -1.54241 0
M  V30 28876 C 2709.3 0.0289737 -1.59574 0
M  V30 28877 C 2709.5 1.50469 -1.3402 0
M  V30 28878 O 2708.55 2.26069 -1.12468 0
M  V30 28879 C 2709.86 -0.389348 -2.98169 0
M  V30 28880 C 2711.41 -0.340013 -3.11148 0
M  V30 28881 C 2711.89 -0.733498 -4.52088 0
M  V30 28882 N 2713.38 -0.686907 -4.58078 0
M  V30 28883 C 2714.11 -0.963564 -5.65246 0
M  V30 28884 N 2713.61 -1.30736 -6.80353 0
M  V30 28885 N 2715.4 -0.889118 -5.55024 0
M  V30 28886 H 2707.55 -1.28515 -1.69108 0
M  V30 28887 H 2709.82 -0.522572 -0.790963 0
M  V30 28888 H 2709.52 -1.41752 -3.21868 0
M  V30 28889 H 2709.4 0.245591 -3.764 0
M  V30 28890 H 2711.78 0.678952 -2.87183 0
M  V30 28891 H 2711.86 -1.00989 -2.35021 0
M  V30 28892 H 2711.51 -1.75038 -4.76785 0
M  V30 28893 H 2711.44 -0.0413115 -5.26584 0
M  V30 28894 H 2713.93 -0.433046 -3.75411 0
M  V30 28895 H 2714.24 -1.50383 -7.58027 0
M  V30 28896 H 2712.59 -1.34562 -6.81849 0
M  V30 28897 H 2715.78 -0.62002 -4.63976 0
M  V30 28898 H 2715.95 -1.10808 -6.38456 0
M  V30 28899 N 2709.36 1.57515 -0.0518432 0
M  V30 28900 C 2710.32 2.10468 0.90751 0
M  V30 28901 C 2711.32 1.02442 1.23945 0
M  V30 28902 O 2712.51 1.28512 1.17602 0
M  V30 28903 C 2709.64 2.58948 2.21718 0
M  V30 28904 H 2710.84 2.96528 0.448457 0
M  V30 28905 H 2708.39 1.55059 0.19657 0
M  V30 28906 H 2709.12 1.76283 2.72203 0
M  V30 28907 H 2708.91 3.3789 1.98929 0
M  V30 28908 H 2710.4 3.00061 2.90436 0
M  V30 28909 N 2710.84 -0.221546 1.56035 0
M  V30 28910 C 2711.77 -1.29802 1.88902 0
M  V30 28911 C 2712.78 -1.43045 0.777294 0
M  V30 28912 O 2713.97 -1.43943 1.05559 0
M  V30 28913 C 2711.07 -2.67363 2.08255 0
M  V30 28914 C 2710.24 -2.76068 3.39272 0
M  V30 28915 C 2709.3 -3.94643 3.48056 0
M  V30 28916 O 2708.33 -3.82981 4.21087 0
M  V30 28917 N 2709.53 -5.08948 2.792 0
M  V30 28918 H 2712.29 -1.01933 2.81833 0
M  V30 28919 H 2709.86 -0.411584 1.56581 0
M  V30 28920 H 2711.85 -3.45069 2.11447 0
M  V30 28921 H 2710.42 -2.87832 1.21949 0
M  V30 28922 H 2709.64 -1.84839 3.48178 0
M  V30 28923 H 2710.93 -2.78853 4.2558 0
M  V30 28924 H 2710.32 -5.21318 2.19645 0
M  V30 28925 H 2708.88 -5.84695 2.88053 0
M  V30 28926 N 2712.31 -1.49846 -0.48825 0
M  V30 28927 C 2713.56 -1.59659 -1.23909 0
M  V30 28928 C 2713.88 -0.291039 -1.92816 0
M  V30 28929 O 2713.15 0.690453 -1.83329 0
M  V30 28930 H 2711.73 -0.588294 -0.460347 0
M  V30 28931 H 2714.39 -1.86538 -0.564761 0
M  V30 28932 H 2713.49 -2.39912 -1.99621 0
M  V30 28933 N 2713.79 0.740218 -1.39135 0
M  V30 28934 C 2715.02 1.53456 -1.3952 0
M  V30 28935 C 2715.44 1.88098 0.00965577 0
M  V30 28936 O 2714.8 1.51538 0.995285 0
M  V30 28937 C 2714.85 2.80196 -2.26986 0
M  V30 28938 O 2713.95 3.75905 -1.69615 0
M  V30 28939 H 2713.29 0.463628 -0.475336 0
M  V30 28940 H 2715.82 0.913685 -1.83065 0
M  V30 28941 H 2715.83 3.28985 -2.41315 0
M  V30 28942 H 2714.51 2.54315 -3.29085 0
M  V30 28943 H 2713.08 3.34655 -1.645 0
M  V30 28944 N 2715.27 1.24225 0.969846 0
M  V30 28945 C 2716.52 1.09234 1.7158 0
M  V30 28946 C 2716.87 -0.365399 1.88898 0
M  V30 28947 O 2716.16 -1.26637 1.43783 0
M  V30 28948 C 2716.36 1.76319 3.1088 0
M  V30 28949 C 2716.19 3.28466 3.07149 0
M  V30 28950 C 2714.96 3.97669 3.1175 0
M  V30 28951 C 2717.15 4.25087 2.89492 0
M  V30 28952 N 2715.14 5.36712 2.98015 0
M  V30 28953 C 2716.51 5.51114 2.84031 0
M  V30 28954 C 2718.56 4.15689 2.74057 0
M  V30 28955 C 2717.27 6.68819 2.64713 0
M  V30 28956 C 2719.29 5.3307 2.56106 0
M  V30 28957 C 2718.65 6.58029 2.51352 0
M  V30 28958 H 2714.75 0.45432 0.636488 0
M  V30 28959 H 2717.34 1.57108 1.15001 0
M  V30 28960 H 2715.51 1.30962 3.65655 0
M  V30 28961 H 2717.24 1.54208 3.74169 0
M  V30 28962 H 2713.99 3.4882 3.20346 0
M  V30 28963 H 2714.42 6.0964 2.94394 0
M  V30 28964 H 2719.06 3.19842 2.76515 0
M  V30 28965 H 2716.78 7.64791 2.60998 0
M  V30 28966 H 2720.36 5.27648 2.4511 0
M  V30 28967 H 2719.24 7.47327 2.37638 0
M  V30 28968 N 2716.75 -1.1702 1.05565 0
M  V30 28969 C 2717.71 -2.19367 0.664137 0
M  V30 28970 C 2718.71 -1.5823 -0.28633 0
M  V30 28971 O 2719.9 -1.74061 -0.0696974 0
M  V30 28972 C 2717.03 -3.40892 -0.0239333 0
M  V30 28973 H 2718.23 -2.55518 1.57004 0
M  V30 28974 H 2715.78 -1.31168 0.849987 0
M  V30 28975 H 2716.51 -3.10289 -0.942934 0
M  V30 28976 H 2716.3 -3.86515 0.659419 0
M  V30 28977 H 2717.79 -4.16634 -0.283835 0
M  V30 28978 N 2718.23 -0.837197 -1.33524 0
M  V30 28979 C 2719.45 -0.44553 -2.02046 0
M  V30 28980 C 2719.87 0.952759 -1.62997 0
M  V30 28981 O 2719.23 1.61891 -0.842475 0
M  V30 28982 C 2719.28 -0.554639 -3.5722 0
M  V30 28983 O 2719 -1.89783 -3.94859 0
M  V30 28984 C 2720.5 -0.159711 -4.43012 0
M  V30 28985 H 2717.72 -0.177059 -0.647218 0
M  V30 28986 H 2720.26 -1.12931 -1.7049 0
M  V30 28987 H 2718.42 0.08121 -3.87315 0
M  V30 28988 H 2718.83 -1.88217 -4.89566 0
M  V30 28989 H 2720.31 -0.287107 -5.51253 0
M  V30 28990 H 2720.78 0.898213 -4.29917 0
M  V30 28991 H 2721.39 -0.769929 -4.18273 0
M  V30 28992 N 2719.7 1.45999 -0.593476 0
M  V30 28993 C 2721.11 1.85926 -0.169834 0
M  V30 28994 C 2721.47 1.49567 1.26981 0
M  V30 28995 O 2720.59 0.915636 1.96074 0
M  V30 28996 C 2721.19 3.37456 -0.301444 0
M  V30 28997 C 2719.74 3.7634 0.0674022 0
M  V30 28998 C 2718.89 2.69992 -0.63243 0
M  V30 28999 H 2721.84 1.37 -0.801038 0
M  V30 29000 H 2721.86 3.77583 0.470265 0
M  V30 29001 H 2721.38 3.63888 -1.34933 0
M  V30 29002 H 2719.48 3.55525 1.11501 0
M  V30 29003 H 2719.59 4.78054 -0.316416 0
M  V30 29004 H 2717.95 2.546 -0.0715408 0
M  V30 29005 H 2718.74 2.99262 -1.68218 0
M  V30 29006 N 2721.18 0.331843 1.54067 0
M  V30 29007 C 2722.59 -0.154507 1.8606 0
M  V30 29008 C 2722.94 -1.5095 1.25334 0
M  V30 29009 O 2722.07 -2.08962 0.562478 0
M  V30 29010 C 2722.66 -0.287133 3.37581 0
M  V30 29011 C 2721.22 -0.717708 3.69494 0
M  V30 29012 C 2720.37 0.155617 2.76863 0
M  V30 29013 H 2723.32 0.551847 1.48796 0
M  V30 29014 H 2723.34 -1.11664 3.63746 0
M  V30 29015 H 2722.85 0.699198 3.8175 0
M  V30 29016 H 2720.96 -1.71349 3.30863 0
M  V30 29017 H 2721.07 -0.515716 4.76316 0
M  V30 29018 H 2719.43 -0.370169 2.51996 0
M  V30 29019 H 2720.22 1.13887 3.23859 0
M  V30 29020 N 2722.66 -1.57485 0.0601958 0
M  V30 29021 C 2723.59 -2.09018 -0.940433 0
M  V30 29022 C 2724.61 -1.01987 -1.26895 0
M  V30 29023 O 2725.79 -1.29531 -1.22817 0
M  V30 29024 C 2722.89 -2.52586 -2.2595 0
M  V30 29025 C 2722.07 -3.83056 -2.11156 0
M  V30 29026 C 2721.13 -4.1284 -3.26266 0
M  V30 29027 O 2720.15 -4.82621 -3.0177 0
M  V30 29028 N 2721.35 -3.65466 -4.51015 0
M  V30 29029 H 2724.12 -2.95491 -0.500526 0
M  V30 29030 H 2721.68 -1.6141 -0.125824 0
M  V30 29031 H 2723.67 -2.69581 -3.01842 0
M  V30 29032 H 2722.24 -1.71313 -2.61478 0
M  V30 29033 H 2721.46 -3.75554 -1.19802 0
M  V30 29034 H 2722.75 -4.68478 -1.98509 0
M  V30 29035 H 2722.15 -3.09071 -4.73806 0
M  V30 29036 H 2720.71 -3.87682 -5.23971 0
M  V30 29037 N 2724.14 0.213268 -1.5615 0
M  V30 29038 C 2725.55 0.563333 -1.49328 0
M  V30 29039 C 2725.75 1.86746 -0.756859 0
M  V30 29040 O 2724.81 2.50713 -0.29991 0
M  V30 29041 C 2726.12 0.634892 -2.93921 0
M  V30 29042 C 2727.67 0.72496 -3.04489 0
M  V30 29043 C 2728.15 0.82779 -4.50457 0
M  V30 29044 N 2729.64 0.891796 -4.54534 0
M  V30 29045 C 2730.37 0.991215 -5.64768 0
M  V30 29046 N 2729.87 1.05407 -6.84734 0
M  V30 29047 N 2731.66 1.027 -5.52638 0
M  V30 29048 H 2723.81 -0.642402 -2.02452 0
M  V30 29049 H 2726.08 -0.226503 -0.920544 0
M  V30 29050 H 2725.78 -0.253921 -3.50782 0
M  V30 29051 H 2725.66 1.49573 -3.46277 0
M  V30 29052 H 2728.04 1.60421 -2.47688 0
M  V30 29053 H 2728.12 -0.161714 -2.55288 0
M  V30 29054 H 2727.77 -0.0470357 -5.07878 0
M  V30 29055 H 2727.7 1.73 -4.97372 0
M  V30 29056 H 2730.19 0.853206 -3.68142 0
M  V30 29057 H 2730.5 1.12993 -7.64495 0
M  V30 29058 H 2728.85 1.02306 -6.87429 0
M  V30 29059 H 2732.04 0.974606 -4.57842 0
M  V30 29060 H 2732.21 1.10102 -6.38578 0
M  V30 29061 N 2725.62 1.50103 0.480296 0
M  V30 29062 C 2726.86 1.60314 1.2306 0
M  V30 29063 C 2727.19 0.30126 1.92659 0
M  V30 29064 O 2726.46 -0.680721 1.83693 0
M  V30 29065 H 2725.04 0.590727 0.457221 0
M  V30 29066 H 2727.7 1.86835 0.55486 0
M  V30 29067 H 2726.79 2.40967 1.98346 0
M  V30 29068 N 2727.09 -0.732829 1.39526 0
M  V30 29069 C 2728.51 -1.03866 1.21177 0
M  V30 29070 C 2728.71 -2.01361 0.0748802 0
M  V30 29071 O 2727.77 -2.45918 -0.572767 0
M  V30 29072 C 2729.08 -1.59887 2.5467 0
M  V30 29073 C 2730.63 -1.71957 2.61533 0
M  V30 29074 C 2731.1 -2.31387 3.95252 0
M  V30 29075 N 2732.59 -2.38794 3.96903 0
M  V30 29076 C 2733.33 -2.8572 4.97143 0
M  V30 29077 N 2732.82 -3.32527 6.07781 0
M  V30 29078 N 2734.62 -2.84949 4.84521 0
M  V30 29079 H 2726.77 -0.0862667 2.12225 0
M  V30 29080 H 2729.03 -0.10089 0.942616 0
M  V30 29081 H 2728.74 -0.957151 3.38425 0
M  V30 29082 H 2728.61 -2.58663 2.74542 0
M  V30 29083 H 2731 -2.35251 1.7816 0
M  V30 29084 H 2731.08 -0.718284 2.45508 0
M  V30 29085 H 2730.72 -1.6872 4.79057 0
M  V30 29086 H 2730.65 -3.32197 4.08599 0
M  V30 29087 H 2733.14 -2.05714 3.17002 0
M  V30 29088 H 2733.46 -3.6685 6.80177 0
M  V30 29089 H 2731.8 -3.3053 6.11371 0
M  V30 29090 H 2734.99 -2.47706 3.97189 0
M  V30 29091 H 2735.17 -3.21206 5.62789 0
M  V30 29092 N 2728.57 -1.24737 -0.963244 0
M  V30 29093 C 2729.5 -1.06836 -2.07626 0
M  V30 29094 C 2730.48 0.0200267 -1.70088 0
M  V30 29095 O 2731.67 -0.147888 -1.93636 0
M  V30 29096 C 2728.8 -0.677129 -3.40635 0
M  V30 29097 C 2727.75 -1.71478 -3.92147 0
M  V30 29098 C 2727.08 -1.17849 -5.21551 0
M  V30 29099 C 2728.38 -3.11172 -4.19487 0
M  V30 29100 H 2730.07 -1.99934 -2.2286 0
M  V30 29101 H 2727.62 -0.962679 -1.07091 0
M  V30 29102 H 2729.57 -0.538866 -4.1794 0
M  V30 29103 H 2728.3 0.289554 -3.25314 0
M  V30 29104 H 2726.95 -1.84134 -3.17002 0
M  V30 29105 H 2726.6 -0.202284 -5.02593 0
M  V30 29106 H 2726.3 -1.87195 -5.56985 0
M  V30 29107 H 2727.83 -1.05244 -6.01462 0
M  V30 29108 H 2729.24 -3.01719 -4.87482 0
M  V30 29109 H 2727.64 -3.77911 -4.66158 0
M  V30 29110 H 2728.71 -3.58877 -3.26091 0
M  V30 29111 N 2730.05 1.16459 -1.06184 0
M  V30 29112 C 2730.98 2.22982 -0.6929 0
M  V30 29113 C 2731.96 1.67175 0.314092 0
M  V30 29114 O 2733.15 1.93274 0.189465 0
M  V30 29115 C 2730.28 3.47214 -0.077381 0
M  V30 29116 C 2729.23 4.15907 -1.01023 0
M  V30 29117 C 2728.56 5.34077 -0.258067 0
M  V30 29118 C 2729.86 4.67011 -2.33876 0
M  V30 29119 H 2731.55 2.54099 -1.58347 0
M  V30 29120 H 2729.1 1.22136 -0.762812 0
M  V30 29121 H 2731.05 4.2096 0.192586 0
M  V30 29122 H 2729.77 3.15394 0.848199 0
M  V30 29123 H 2728.43 3.44086 -1.26492 0
M  V30 29124 H 2728.08 4.9851 0.670596 0
M  V30 29125 H 2727.78 5.80977 -0.87974 0
M  V30 29126 H 2729.3 6.106 0.00438055 0
M  V30 29127 H 2730.72 5.32343 -2.12799 0
M  V30 29128 H 2729.12 5.24528 -2.91531 0
M  V30 29129 H 2730.19 3.8328 -2.97025 0
M  V30 29130 N 2731.53 0.844266 1.33079 0
M  V30 29131 C 2732.76 0.455577 2.01514 0
M  V30 29132 C 2733.17 -0.949377 1.63657 0
M  V30 29133 O 2732.51 -1.62929 0.848509 0
M  V30 29134 C 2732.57 0.502864 3.55966 0
M  V30 29135 C 2732.24 1.86488 4.17218 0
M  V30 29136 C 2733.23 2.82888 4.362 0
M  V30 29137 C 2730.92 2.15919 4.53524 0
M  V30 29138 C 2732.91 4.06877 4.90642 0
M  V30 29139 C 2730.6 3.40164 5.07673 0
M  V30 29140 C 2731.6 4.3546 5.26178 0
M  V30 29141 O 2731.28 5.57506 5.79173 0
M  V30 29142 H 2731.02 0.178576 0.651987 0
M  V30 29143 H 2733.57 1.13993 1.70865 0
M  V30 29144 H 2731.8 -0.238292 3.85965 0
M  V30 29145 H 2733.49 0.131241 4.05688 0
M  V30 29146 H 2734.26 2.61452 4.08495 0
M  V30 29147 H 2730.13 1.42536 4.38411 0
M  V30 29148 H 2733.68 4.81268 5.05002 0
M  V30 29149 H 2729.58 3.61455 5.34809 0
M  V30 29150 H 2730.34 5.59321 5.97581 0
M  V30 29151 N 2733.01 -1.45682 0.60121 0
M  V30 29152 C 2733.97 -2.28929 -0.111358 0
M  V30 29153 C 2734.97 -1.39417 -0.801222 0
M  V30 29154 O 2736.16 -1.61605 -0.650355 0
M  V30 29155 C 2733.29 -3.20278 -1.16767 0
M  V30 29156 H 2734.48 -2.93411 0.620463 0
M  V30 29157 H 2732.04 -1.52098 0.359973 0
M  V30 29158 H 2732.77 -2.60583 -1.93047 0
M  V30 29159 H 2732.56 -3.86206 -0.67729 0
M  V30 29160 H 2734.05 -3.82889 -1.66691 0
M  V30 29161 N 2734.48 -0.340009 -1.53889 0
M  V30 29162 C 2735.9 0.144638 -1.86139 0
M  V30 29163 C 2736.25 1.50283 -1.26132 0
M  V30 29164 O 2735.37 2.08661 -0.573552 0
M  V30 29165 C 2735.97 0.269226 -3.37729 0
M  V30 29166 C 2734.53 0.698103 -3.6987 0
M  V30 29167 C 2733.67 -0.170298 -2.76777 0
M  V30 29168 H 2736.62 -0.55973 -1.48502 0
M  V30 29169 H 2736.64 1.09734 -3.64333 0
M  V30 29170 H 2736.16 -0.719433 -3.81374 0
M  V30 29171 H 2734.26 1.69591 -3.31767 0
M  V30 29172 H 2734.37 0.490449 -4.76583 0
M  V30 29173 H 2732.73 0.356799 -2.52188 0
M  V30 29174 H 2733.52 -1.15603 -3.23251 0
M  V30 29175 N 2735.96 1.57451 -0.0685468 0
M  V30 29176 C 2736.89 2.15565 0.897432 0
M  V30 29177 C 2737.87 1.08184 1.31264 0
M  V30 29178 O 2739.06 1.36204 1.38427 0
M  V30 29179 C 2736.19 2.71466 2.16618 0
M  V30 29180 C 2735.14 3.83986 1.89047 0
M  V30 29181 C 2734.47 4.26476 3.22525 0
M  V30 29182 C 2735.77 5.08368 1.19831 0
M  V30 29183 H 2737.46 2.96533 0.413321 0
M  V30 29184 H 2735.01 1.42641 0.197365 0
M  V30 29185 H 2736.96 3.10766 2.84609 0
M  V30 29186 H 2735.69 1.87715 2.67265 0
M  V30 29187 H 2734.35 3.45185 1.23463 0
M  V30 29188 H 2733.99 3.39651 3.71007 0
M  V30 29189 H 2733.69 5.02323 3.0487 0
M  V30 29190 H 2735.22 4.6839 3.91719 0
M  V30 29191 H 2736.63 5.45004 1.77886 0
M  V30 29192 H 2735.03 5.89471 1.12445 0
M  V30 29193 H 2736.1 4.84577 0.176911 0
M  V30 29194 N 2737.44 -0.204984 1.56261 0
M  V30 29195 C 2738.37 -1.25696 1.96781 0
M  V30 29196 C 2739.35 -1.48007 0.838335 0
M  V30 29197 O 2740.54 -1.59911 1.10192 0
M  V30 29198 C 2737.67 -2.60331 2.2988 0
M  V30 29199 C 2736.62 -2.5265 3.45473 0
M  V30 29200 C 2735.95 -3.91467 3.64222 0
M  V30 29201 C 2737.25 -2.06005 4.79957 0
M  V30 29202 H 2738.94 -0.920288 2.84905 0
M  V30 29203 H 2736.49 -0.441253 1.37073 0
M  V30 29204 H 2738.44 -3.34098 2.5682 0
M  V30 29205 H 2737.16 -2.9572 1.38627 0
M  V30 29206 H 2735.82 -1.8134 3.18609 0
M  V30 29207 H 2735.47 -4.24191 2.70316 0
M  V30 29208 H 2735.17 -3.87205 4.4198 0
M  V30 29209 H 2736.7 -4.66871 3.93528 0
M  V30 29210 H 2738.11 -2.69524 5.05994 0
M  V30 29211 H 2736.51 -2.12767 5.61115 0
M  V30 29212 H 2737.58 -1.01289 4.74203 0
M  V30 29213 N 2738.92 -1.50356 -0.472329 0
M  V30 29214 C 2739.85 -1.72057 -1.57856 0
M  V30 29215 C 2740.83 -0.569533 -1.60282 0
M  V30 29216 O 2742.02 -0.808534 -1.76568 0
M  V30 29217 C 2739.15 -1.81357 -2.96188 0
M  V30 29218 C 2738.1 -2.96535 -3.08628 0
M  V30 29219 C 2737.43 -2.90975 -4.48595 0
M  V30 29220 C 2738.73 -4.37062 -2.85962 0
M  V30 29221 H 2740.42 -2.64679 -1.39948 0
M  V30 29222 H 2737.97 -1.27368 -0.671823 0
M  V30 29223 H 2739.92 -1.95123 -3.73504 0
M  V30 29224 H 2738.64 -0.853558 -3.15249 0
M  V30 29225 H 2737.3 -2.82417 -2.33744 0
M  V30 29226 H 2736.95 -1.92823 -4.64573 0
M  V30 29227 H 2736.65 -3.68297 -4.57855 0
M  V30 29228 H 2738.17 -3.06789 -5.27933 0
M  V30 29229 H 2739.59 -4.51712 -3.53028 0
M  V30 29230 H 2737.98 -5.15825 -3.06667 0
M  V30 29231 H 2739.05 -4.49517 -1.8183 0
M  V30 29232 N 2740.4 0.725419 -1.39912 0
M  V30 29233 C 2741.64 1.48735 -1.37861 0
M  V30 29234 C 2741.98 1.94187 0.0223846 0
M  V30 29235 O 2741.25 1.67468 0.989175 0
M  V30 29236 C 2741.53 2.72033 -2.35945 0
M  V30 29237 C 2741.39 2.32539 -3.85027 0
M  V30 29238 C 2742.71 3.74163 -2.31711 0
M  V30 29239 H 2739.83 0.539519 -0.502084 0
M  V30 29240 H 2742.47 0.828697 -1.70975 0
M  V30 29241 H 2740.62 3.28232 -2.07836 0
M  V30 29242 H 2742.29 1.81898 -4.23923 0
M  V30 29243 H 2740.53 1.64654 -4.01337 0
M  V30 29244 H 2741.2 3.20877 -4.49157 0
M  V30 29245 H 2743.68 3.27571 -2.56586 0
M  V30 29246 H 2742.56 4.58087 -3.02403 0
M  V30 29247 H 2742.82 4.21766 -1.32537 0
M  V30 29248 N 2741.88 1.25246 0.956615 0
M  V30 29249 C 2742.79 1.07193 2.08679 0
M  V30 29250 C 2743.8 0.00962132 1.73997 0
M  V30 29251 O 2744.98 0.210139 2.00301 0
M  V30 29252 C 2742.04 0.690586 3.39753 0
M  V30 29253 C 2741.1 1.83061 3.88313 0
M  V30 29254 C 2740.34 1.46737 5.13132 0
M  V30 29255 O 2740.56 0.362129 5.69249 0
M  V30 29256 O 2739.49 2.29687 5.56352 0
M  V30 29257 H 2743.32 2.01969 2.26809 0
M  V30 29258 H 2740.9 1.04167 1.07097 0
M  V30 29259 H 2742.79 0.489945 4.18542 0
M  V30 29260 H 2741.46 -0.227924 3.22897 0
M  V30 29261 H 2740.37 2.0861 3.10536 0
M  V30 29262 H 2741.7 2.7283 4.09664 0
M  V30 29263 N 2743.35 -1.15894 1.068 0
M  V30 29264 C 2744.26 -2.24081 0.694603 0
M  V30 29265 C 2745.28 -1.71538 -0.291657 0
M  V30 29266 O 2746.46 -2.00915 -0.139688 0
M  V30 29267 C 2743.52 -3.46577 0.0921623 0
M  V30 29268 C 2742.58 -4.14135 1.13095 0
M  V30 29269 C 2741.81 -5.30784 0.557158 0
M  V30 29270 O 2742.04 -5.66927 -0.628523 0
M  V30 29271 O 2740.97 -5.87708 1.29934 0
M  V30 29272 H 2744.8 -2.58341 1.59668 0
M  V30 29273 H 2742.38 -1.23508 0.840597 0
M  V30 29274 H 2744.26 -4.20706 -0.24181 0
M  V30 29275 H 2742.94 -3.14079 -0.783315 0
M  V30 29276 H 2741.85 -3.41954 1.51718 0
M  V30 29277 H 2743.18 -4.507 1.97813 0
M  V30 29278 N 2744.83 -0.851312 -1.32629 0
M  V30 29279 C 2746.08 -0.452163 -1.96977 0
M  V30 29280 C 2746.4 0.99479 -1.67717 0
M  V30 29281 O 2745.67 1.69474 -0.98262 0
M  V30 29282 H 2744.25 -0.164214 -0.728727 0
M  V30 29283 H 2746.91 -1.08701 -1.61772 0
M  V30 29284 H 2746.01 -0.594461 -3.06386 0
M  V30 29285 N 2746.31 1.45361 -0.608928 0
M  V30 29286 C 2747.27 2.28985 0.099216 0
M  V30 29287 C 2748.27 1.3984 0.793817 0
M  V30 29288 O 2749.46 1.61947 0.641776 0
M  V30 29289 C 2746.59 3.20893 1.15067 0
M  V30 29290 H 2747.79 2.93078 -0.636015 0
M  V30 29291 H 2745.34 1.51905 -0.368034 0
M  V30 29292 H 2746.08 2.61603 1.91662 0
M  V30 29293 H 2745.86 3.8656 0.656799 0
M  V30 29294 H 2747.35 3.83768 1.64658 0
M  V30 29295 N 2747.79 0.348166 1.53706 0
M  V30 29296 C 2748.75 -0.494019 2.23813 0
M  V30 29297 C 2749.75 -1.02386 1.23991 0
M  V30 29298 O 2750.94 -0.91237 1.48396 0
M  V30 29299 C 2748.07 -1.68867 2.96136 0
M  V30 29300 H 2749.27 0.119193 2.99663 0
M  V30 29301 H 2746.82 0.0995813 1.55982 0
M  V30 29302 H 2747.55 -2.34045 2.24485 0
M  V30 29303 H 2747.34 -1.3159 3.6936 0
M  V30 29304 H 2748.83 -2.28591 3.49479 0
M  V30 29305 N 2749.27 -1.57412 0.0768958 0
M  V30 29306 C 2750.51 -1.933 -0.589884 0
M  V30 29307 C 2750.83 -0.958079 -1.69841 0
M  V30 29308 O 2750.1 -0.00706705 -1.95899 0
M  V30 29309 H 2748.68 -0.713595 -0.220888 0
M  V30 29310 H 2751.35 -1.94425 0.135951 0
M  V30 29311 H 2750.44 -2.95241 -1.0119 0
M  V30 29312 N 2750.74 0.196695 -1.56368 0
M  V30 29313 C 2751.65 1.26426 -1.9762 0
M  V30 29314 C 2752.67 1.49894 -0.883624 0
M  V30 29315 O 2753.85 1.62539 -1.18924 0
M  V30 29316 C 2750.91 2.58891 -2.306 0
M  V30 29317 C 2749.97 2.4351 -3.53556 0
M  V30 29318 C 2749.21 3.69658 -3.84953 0
M  V30 29319 O 2749.43 4.73758 -3.17663 0
M  V30 29320 O 2748.36 3.65283 -4.78385 0
M  V30 29321 H 2752.19 0.944182 -2.8865 0
M  V30 29322 H 2749.77 0.401566 -1.43902 0
M  V30 29323 H 2751.66 3.37079 -2.52895 0
M  V30 29324 H 2750.33 2.9053 -1.42738 0
M  V30 29325 H 2749.24 1.63439 -3.36509 0
M  V30 29326 H 2750.57 2.16804 -4.41879 0
M  V30 29327 N 2752.22 1.50604 0.464349 0
M  V30 29328 C 2753.47 1.6161 1.21353 0
M  V30 29329 C 2753.79 0.321677 1.92328 0
M  V30 29330 O 2753.06 -0.661199 1.84404 0
M  V30 29331 H 2751.64 0.595543 0.450929 0
M  V30 29332 H 2754.3 1.87413 0.535013 0
M  V30 29333 H 2753.4 2.43058 1.95779 0
M  V30 29334 N 2753.7 -0.717989 1.40295 0
M  V30 29335 C 2754.93 -1.50493 1.41547 0
M  V30 29336 C 2755.34 -1.89196 0.012821 0
M  V30 29337 O 2754.68 -1.55814 -0.973023 0
M  V30 29338 C 2754.74 -2.81163 2.24026 0
M  V30 29339 C 2754.41 -2.64796 3.72468 0
M  V30 29340 C 2755.4 -2.32214 4.65159 0
M  V30 29341 C 2753.09 -2.81136 4.16255 0
M  V30 29342 C 2755.08 -2.16178 5.99621 0
M  V30 29343 C 2752.77 -2.64717 5.50788 0
M  V30 29344 C 2753.77 -2.32286 6.42287 0
M  V30 29345 O 2753.46 -2.1599 7.74341 0
M  V30 29346 H 2753.19 -0.471082 0.484827 0
M  V30 29347 H 2755.74 -0.893456 1.8495 0
M  V30 29348 H 2753.97 -3.44633 1.75399 0
M  V30 29349 H 2755.66 -3.42867 2.17249 0
M  V30 29350 H 2756.43 -2.19226 4.32626 0
M  V30 29351 H 2752.31 -3.05367 3.45358 0
M  V30 29352 H 2755.85 -1.90787 6.71004 0
M  V30 29353 H 2751.75 -2.77289 5.82907 0
M  V30 29354 H 2752.52 -2.30928 7.85248 0
M  V30 29355 N 2755.18 -1.25752 -0.94996 0
M  V30 29356 C 2756.11 -1.09032 -2.06481 0
M  V30 29357 C 2757.09 0.00198542 -1.701 0
M  V30 29358 O 2758.27 -0.168417 -1.93468 0
M  V30 29359 C 2755.4 -0.71322 -3.39898 0
M  V30 29360 C 2754.36 -1.75628 -3.90306 0
M  V30 29361 C 2753.68 -1.23374 -5.20272 0
M  V30 29362 C 2754.98 -3.15603 -4.16163 0
M  V30 29363 H 2756.68 -2.02287 -2.20727 0
M  V30 29364 H 2754.22 -0.973983 -1.06064 0
M  V30 29365 H 2756.18 -0.583164 -4.17345 0
M  V30 29366 H 2754.9 0.255034 -3.25603 0
M  V30 29367 H 2753.56 -1.87485 -3.15031 0
M  V30 29368 H 2753.21 -0.255579 -5.0235 0
M  V30 29369 H 2752.91 -1.93092 -5.54968 0
M  V30 29370 H 2754.43 -1.11617 -6.00312 0
M  V30 29371 H 2755.85 -3.06873 -4.84254 0
M  V30 29372 H 2754.24 -3.82834 -4.62124 0
M  V30 29373 H 2755.31 -3.62315 -3.22266 0
M  V30 29374 N 2756.66 1.15326 -1.07413 0
M  V30 29375 C 2757.9 1.85759 -0.796106 0
M  V30 29376 C 2758.23 1.82766 0.679832 0
M  V30 29377 O 2757.5 1.26903 1.4924 0
M  V30 29378 H 2756.08 0.687774 -0.291507 0
M  V30 29379 H 2758.74 1.398 -1.35801 0
M  V30 29380 H 2757.83 2.90879 -1.13119 0
M  V30 29381 N 2758.13 0.858334 1.32176 0
M  V30 29382 C 2759.55 0.548682 1.49872 0
M  V30 29383 C 2759.75 -0.919842 1.7928 0
M  V30 29384 O 2758.81 -1.70268 1.86454 0
M  V30 29385 C 2760.12 1.43885 2.64041 0
M  V30 29386 C 2761.67 1.43966 2.77926 0
M  V30 29387 C 2762.14 2.31513 3.95178 0
M  V30 29388 N 2763.63 2.29329 4.02446 0
M  V30 29389 C 2764.37 2.93795 4.92415 0
M  V30 29390 N 2763.86 3.67387 5.87366 0
M  V30 29391 N 2765.66 2.83163 4.85567 0
M  V30 29392 H 2757.81 1.8087 1.11354 0
M  V30 29393 H 2760.07 0.772739 0.549162 0
M  V30 29394 H 2759.78 2.48328 2.4905 0
M  V30 29395 H 2759.65 1.12891 3.5991 0
M  V30 29396 H 2762.04 0.402864 2.92337 0
M  V30 29397 H 2762.12 1.78977 1.82759 0
M  V30 29398 H 2761.76 3.35262 3.81525 0
M  V30 29399 H 2761.69 1.93832 4.89629 0
M  V30 29400 H 2764.18 1.75827 3.34504 0
M  V30 29401 H 2764.5 4.13734 6.52721 0
M  V30 29402 H 2762.84 3.71495 5.87381 0
M  V30 29403 H 2766.03 2.25218 4.10359 0
M  V30 29404 H 2766.21 3.33685 5.5548 0
M  V30 29405 N 2759.61 -1.45036 0.616628 0
M  V30 29406 C 2760.84 -2.07051 0.120228 0
M  V30 29407 C 2761.26 -1.45668 -1.19006 0
M  V30 29408 O 2760.62 -0.552723 -1.72669 0
M  V30 29409 C 2760.67 -3.606 0.00361239 0
M  V30 29410 O 2759.77 -3.9896 -1.04424 0
M  V30 29411 H 2759.11 -0.659382 0.0781715 0
M  V30 29412 H 2761.64 -1.86144 0.8492 0
M  V30 29413 H 2761.65 -4.07549 -0.191682 0
M  V30 29414 H 2760.33 -4.04661 0.96031 0
M  V30 29415 H 2758.91 -3.63667 -0.824686 0
M  V30 29416 N 2761.09 -0.356312 -1.53519 0
M  V30 29417 C 2762.32 0.239925 -2.06008 0
M  V30 29418 C 2762.74 1.4242 -1.22874 0
M  V30 29419 O 2762.1 1.79629 -0.245547 0
M  V30 29420 C 2762.15 0.620524 -3.55221 0
M  V30 29421 O 2761.25 1.71896 -3.74867 0
M  V30 29422 H 2760.59 0.0371261 -0.662961 0
M  V30 29423 H 2763.12 -0.514229 -1.98032 0
M  V30 29424 H 2763.13 0.894127 -3.98082 0
M  V30 29425 H 2761.81 -0.24548 -4.15175 0
M  V30 29426 H 2760.38 1.44163 -3.43906 0
M  V30 29427 N 2762.57 1.57369 -0.0852427 0
M  V30 29428 C 2763.82 1.9361 0.579624 0
M  V30 29429 C 2764.14 0.967072 1.6933 0
M  V30 29430 O 2763.41 0.0174559 1.95892 0
M  V30 29431 H 2761.99 0.714756 0.217101 0
M  V30 29432 H 2764.65 1.9435 -0.14626 0
M  V30 29433 H 2763.75 2.95773 0.996224 0
M  V30 29434 N 2764.05 -0.188399 1.5647 0
M  V30 29435 C 2765.46 -0.752464 1.70865 0
M  V30 29436 C 2765.81 -1.83556 0.692938 0
M  V30 29437 O 2764.93 -2.15885 -0.149269 0
M  V30 29438 C 2765.53 -1.37168 3.09791 0
M  V30 29439 C 2764.09 -1.88275 3.25929 0
M  V30 29440 C 2763.23 -0.755212 2.66818 0
M  V30 29441 H 2766.19 0.0367687 1.58657 0
M  V30 29442 H 2766.21 -2.24117 3.07493 0
M  V30 29443 H 2765.72 -0.583151 3.83694 0
M  V30 29444 H 2763.82 -2.69826 2.56953 0
M  V30 29445 H 2763.93 -2.03994 4.33501 0
M  V30 29446 H 2762.3 -1.17124 2.26172 0
M  V30 29447 H 2763.08 0.0211841 3.43293 0
M  V30 29448 N 2765.53 -1.50848 -0.456355 0
M  V30 29449 C 2766.46 -1.73722 -1.56022 0
M  V30 29450 C 2767.44 -0.586501 -1.59669 0
M  V30 29451 O 2768.62 -0.827216 -1.75701 0
M  V30 29452 C 2765.75 -1.84488 -2.94247 0
M  V30 29453 C 2764.71 -2.99791 -3.05466 0
M  V30 29454 C 2764.03 -2.95717 -4.45483 0
M  V30 29455 C 2765.33 -4.4007 -2.8131 0
M  V30 29456 H 2767.03 -2.66148 -1.37133 0
M  V30 29457 H 2764.57 -1.28073 -0.658277 0
M  V30 29458 H 2766.52 -1.99074 -3.71413 0
M  V30 29459 H 2765.25 -0.886946 -3.14326 0
M  V30 29460 H 2763.91 -2.8488 -2.30736 0
M  V30 29461 H 2763.56 -1.9774 -4.62502 0
M  V30 29462 H 2763.26 -3.73133 -4.53923 0
M  V30 29463 H 2764.78 -3.12371 -5.24649 0
M  V30 29464 H 2766.19 -4.55431 -3.48218 0
M  V30 29465 H 2764.59 -5.19048 -3.01179 0
M  V30 29466 H 2765.66 -4.51421 -1.77052 0
M  V30 29467 N 2767 0.710538 -1.40674 0
M  V30 29468 C 2768.42 1.01925 -1.22814 0
M  V30 29469 C 2768.62 2.01216 -0.106905 0
M  V30 29470 O 2767.68 2.46798 0.533571 0
M  V30 29471 C 2768.99 1.55815 -2.57181 0
M  V30 29472 C 2770.54 1.67775 -2.64236 0
M  V30 29473 C 2771.01 2.25069 -3.98883 0
M  V30 29474 N 2772.5 2.32449 -4.00652 0
M  V30 29475 C 2773.24 2.77775 -5.01626 0
M  V30 29476 N 2772.73 3.22815 -6.12994 0
M  V30 29477 N 2774.53 2.77204 -4.88993 0
M  V30 29478 H 2766.68 0.0524927 -2.12335 0
M  V30 29479 H 2768.94 0.0858814 -0.944102 0
M  V30 29480 H 2768.65 0.903189 -3.39905 0
M  V30 29481 H 2768.52 2.54262 -2.78622 0
M  V30 29482 H 2770.91 2.32387 -1.8188 0
M  V30 29483 H 2770.99 0.679134 -2.4662 0
M  V30 29484 H 2770.63 1.61077 -4.81681 0
M  V30 29485 H 2770.56 3.25654 -4.13832 0
M  V30 29486 H 2773.05 2.00645 -3.20235 0
M  V30 29487 H 2773.37 3.55983 -6.85927 0
M  V30 29488 H 2771.71 3.20762 -6.16552 0
M  V30 29489 H 2774.9 2.41356 -4.0108 0
M  V30 29490 H 2775.08 3.12211 -5.67827 0
M  V30 29491 N 2768.48 1.26254 0.943277 0
M  V30 29492 C 2769.71 1.14446 1.72365 0
M  V30 29493 C 2770.12 -0.300539 1.86393 0
M  V30 29494 O 2769.48 -1.20593 1.3698 0
M  V30 29495 C 2769.53 1.80605 3.13152 0
M  V30 29496 O 2769.25 3.19458 2.99797 0
M  V30 29497 C 2770.75 1.74724 4.07414 0
M  V30 29498 H 2767.97 0.398636 0.539751 0
M  V30 29499 H 2770.52 1.66834 1.18265 0
M  V30 29500 H 2768.67 1.3216 3.6416 0
M  V30 29501 H 2769.09 3.52165 3.8869 0
M  V30 29502 H 2770.56 2.25656 5.03769 0
M  V30 29503 H 2771.04 0.71332 4.33369 0
M  V30 29504 H 2771.64 2.22711 3.62326 0
M  V30 29505 N 2769.96 -1.14755 1.08024 0
M  V30 29506 C 2771.21 -1.85701 0.807541 0
M  V30 29507 C 2771.53 -1.82721 -0.666585 0
M  V30 29508 O 2770.79 -1.25021 -1.5056 0
M  V30 29509 C 2771.09 -3.34086 1.2697 0
M  V30 29510 C 2770.75 -3.57258 2.75096 0
M  V30 29511 C 2769.42 -3.6329 3.15553 0
M  V30 29512 C 2771.77 -3.66402 3.70673 0
M  V30 29513 C 2769.1 -3.75986 4.5039 0
M  V30 29514 C 2771.45 -3.80623 5.05281 0
M  V30 29515 C 2770.11 -3.84904 5.45349 0
M  V30 29516 H 2769.38 -0.67953 0.2955 0
M  V30 29517 H 2772.03 -1.35574 1.35248 0
M  V30 29518 H 2770.33 -3.86466 0.644284 0
M  V30 29519 H 2772.03 -3.87399 1.03551 0
M  V30 29520 H 2768.62 -3.53207 2.42781 0
M  V30 29521 H 2772.81 -3.61035 3.4054 0
M  V30 29522 H 2768.06 -3.7756 4.80893 0
M  V30 29523 H 2772.24 -3.86642 5.79207 0
M  V30 29524 H 2769.86 -3.94494 6.4983 0
M  V30 29525 N 2771.44 -0.865331 -1.31719 0
M  V30 29526 C 2772.67 -0.488286 -2.01056 0
M  V30 29527 C 2773.08 0.917971 -1.64981 0
M  V30 29528 O 2772.44 1.60067 -0.876625 0
M  V30 29529 C 2772.49 -0.630286 -3.55963 0
M  V30 29530 O 2772.21 -1.98116 -3.90745 0
M  V30 29531 C 2773.71 -0.253645 -4.42574 0
M  V30 29532 H 2770.93 -0.190748 -0.643317 0
M  V30 29533 H 2773.47 -1.16522 -1.68056 0
M  V30 29534 H 2771.63 -0.000963517 -3.874 0
M  V30 29535 H 2772.04 -1.98559 -4.85463 0
M  V30 29536 H 2773.52 -0.403971 -5.5052 0
M  V30 29537 H 2773.99 0.806819 -4.31726 0
M  V30 29538 H 2774.6 -0.858478 -4.16546 0
M  V30 29539 N 2772.92 1.44707 -0.624311 0
M  V30 29540 C 2774.16 2.03991 -0.129309 0
M  V30 29541 C 2774.52 1.47994 1.22318 0
M  V30 29542 O 2775.72 1.98737 1.80989 0
M  V30 29543 C 2773.99 3.57236 -0.108294 0
M  V30 29544 S 2775.55 4.37609 0.323081 0
M  V30 29545 H 2772.37 0.708651 -0.0577442 0
M  V30 29546 H 2774.97 1.77185 -0.82617 0
M  V30 29547 H 2773.67 3.95498 -1.09587 0
M  V30 29548 H 2773.21 3.88641 0.610032 0
M  V30 29549 H 2775.22 4.70745 1.56886 0
M  V30 29550 N 2774.39 0.364449 1.53328 0
M  V30 29551 C 2775.32 -0.474503 2.28628 0
M  V30 29552 C 2776.3 -1.0849 1.31011 0
M  V30 29553 O 2777.49 -1.10236 1.5988 0
M  V30 29554 C 2774.62 -1.61496 3.07468 0
M  V30 29555 C 2773.57 -1.13187 4.12762 0
M  V30 29556 C 2772.9 -2.36247 4.79678 0
M  V30 29557 C 2774.2 -0.217416 5.21847 0
M  V30 29558 H 2775.89 0.153708 2.99005 0
M  V30 29559 H 2773.44 0.0753659 1.43803 0
M  V30 29560 H 2775.39 -2.20849 3.58892 0
M  V30 29561 H 2774.12 -2.27038 2.34779 0
M  V30 29562 H 2772.78 -0.561026 3.62282 0
M  V30 29563 H 2772.42 -3.00243 4.03563 0
M  V30 29564 H 2772.12 -2.04596 5.50831 0
M  V30 29565 H 2773.65 -2.96288 5.33897 0
M  V30 29566 H 2775.06 -0.718393 5.68781 0
M  V30 29567 H 2773.46 0.00816956 6.00099 0
M  V30 29568 H 2774.53 0.740738 4.79209 0
M  V30 29569 N 2775.87 -1.57322 0.0935872 0
M  V30 29570 C 2776.82 -2.1048 -0.876484 0
M  V30 29571 C 2777.81 -1.01948 -1.2448 0
M  V30 29572 O 2779 -1.28225 -1.22014 0
M  V30 29573 C 2776.13 -2.68748 -2.1361 0
M  V30 29574 C 2775.21 -3.8432 -1.79328 0
M  V30 29575 N 2775.6 -4.92413 -1.15598 0
M  V30 29576 C 2773.9 -3.94027 -2.08947 0
M  V30 29577 C 2774.6 -5.73059 -0.998935 0
M  V30 29578 N 2773.58 -5.2204 -1.51576 0
M  V30 29579 H 2777.38 -2.91436 -0.379777 0
M  V30 29580 H 2774.89 -1.62029 -0.10967 0
M  V30 29581 H 2776.89 -3.0516 -2.84048 0
M  V30 29582 H 2775.55 -1.89247 -2.63848 0
M  V30 29583 H 2776.56 -5.11319 -0.822973 0
M  V30 29584 H 2773.24 -3.25532 -2.6141 0
M  V30 29585 H 2774.63 -6.70032 -0.500654 0
M  V30 29586 N 2777.35 0.180099 -1.56568 0
M  V30 29587 C 2778.6 0.899465 -1.81762 0
M  V30 29588 C 2778.93 1.82275 -0.670048 0
M  V30 29589 O 2778.2 1.91705 0.328541 0
M  V30 29590 C 2778.49 1.70274 -3.17299 0
M  V30 29591 C 2778.34 0.803177 -4.42571 0
M  V30 29592 C 2779.66 2.67227 -3.49683 0
M  V30 29593 H 2776.78 0.325555 -0.661198 0
M  V30 29594 H 2779.42 0.166087 -1.89273 0
M  V30 29595 H 2777.57 2.32797 -3.11027 0
M  V30 29596 H 2779.24 0.191504 -4.60902 0
M  V30 29597 H 2777.48 0.11072 -4.33659 0
M  V30 29598 H 2778.16 1.40054 -5.33937 0
M  V30 29599 H 2780.63 2.14833 -3.56351 0
M  V30 29600 H 2779.51 3.20503 -4.45611 0
M  V30 29601 H 2779.77 3.47002 -2.73938 0
M  V30 29602 N 2778.83 1.51088 0.448349 0
M  V30 29603 C 2780.24 1.55812 1.02857 0
M  V30 29604 C 2780.59 0.375023 1.92582 0
M  V30 29605 O 2779.71 -0.509496 2.10317 0
M  V30 29606 C 2780.31 2.82374 1.87218 0
M  V30 29607 C 2778.87 2.89704 2.40309 0
M  V30 29608 C 2778.02 2.50357 1.19233 0
M  V30 29609 H 2780.97 1.57024 0.230047 0
M  V30 29610 H 2780.99 2.65514 2.72548 0
M  V30 29611 H 2780.5 3.68463 1.21888 0
M  V30 29612 H 2778.6 2.0802 3.09125 0
M  V30 29613 H 2778.71 3.93113 2.7386 0
M  V30 29614 H 2777.08 2.03305 1.53424 0
M  V30 29615 H 2777.86 3.38779 0.555308 0
M  V30 29616 N 2780.31 -0.703068 1.41049 0
M  V30 29617 C 2781.55 -1.46018 1.39726 0
M  V30 29618 C 2781.88 -1.94999 0.00464685 0
M  V30 29619 O 2781.15 -1.71198 -0.952262 0
M  V30 29620 H 2779.73 -0.54177 0.51429 0
M  V30 29621 H 2782.39 -0.832647 1.76219 0
M  V30 29622 H 2781.48 -2.32697 2.07986 0
M  V30 29623 N 2781.78 -1.26752 -0.936569 0
M  V30 29624 C 2783.01 -1.15358 -1.71756 0
M  V30 29625 C 2783.43 0.29065 -1.86549 0
M  V30 29626 O 2782.78 1.19865 -1.37618 0
M  V30 29627 C 2782.84 -1.82263 -3.1219 0
M  V30 29628 O 2782.56 -3.21043 -2.98099 0
M  V30 29629 C 2784.06 -1.76882 -4.06482 0
M  V30 29630 H 2781.28 -0.401492 -0.537629 0
M  V30 29631 H 2783.82 -1.67459 -1.17379 0
M  V30 29632 H 2781.98 -1.34089 -3.63454 0
M  V30 29633 H 2782.39 -3.54221 -3.86817 0
M  V30 29634 H 2783.86 -2.28325 -5.02565 0
M  V30 29635 H 2784.34 -0.736292 -4.32984 0
M  V30 29636 H 2784.95 -2.24629 -3.6114 0
M  V30 29637 N 2783.26 1.1418 -1.08631 0
M  V30 29638 C 2784.21 2.17374 -0.68792 0
M  V30 29639 C 2785.2 1.58199 0.293604 0
M  V30 29640 O 2786.39 1.76687 0.105261 0
M  V30 29641 C 2783.52 3.43151 -0.101244 0
M  V30 29642 C 2782.6 4.09352 -1.10869 0
M  V30 29643 N 2782.99 4.50842 -2.29293 0
M  V30 29644 C 2781.29 4.35874 -0.944974 0
M  V30 29645 C 2781.99 5.02337 -2.93313 0
M  V30 29646 N 2780.97 4.96688 -2.20912 0
M  V30 29647 H 2784.77 2.47197 -1.58968 0
M  V30 29648 H 2782.29 1.30888 -0.961352 0
M  V30 29649 H 2784.28 4.1641 0.202135 0
M  V30 29650 H 2782.94 3.14805 0.795467 0
M  V30 29651 H 2783.95 4.43809 -2.66935 0
M  V30 29652 H 2780.63 4.17375 -0.102259 0
M  V30 29653 H 2782.02 5.44298 -3.93941 0
M  V30 29654 N 2784.74 0.872304 1.31258 0
M  V30 29655 C 2785.97 0.498135 2.01329 0
M  V30 29656 C 2786.39 -0.902539 1.65033 0
M  V30 29657 O 2785.75 -1.59594 0.860193 0
M  V30 29658 C 2785.8 0.665268 3.5441 0
M  V30 29659 O 2784.9 -0.294401 4.11348 0
M  V30 29660 H 2784.24 0.197844 0.633841 0
M  V30 29661 H 2786.77 1.17636 1.674 0
M  V30 29662 H 2786.78 0.559444 4.04146 0
M  V30 29663 H 2785.46 1.68657 3.80168 0
M  V30 29664 H 2784.03 -0.143337 3.72624 0
M  V30 29665 N 2786.22 -1.44374 0.631976 0
M  V30 29666 C 2787.5 -1.95483 0.0676803 0
M  V30 29667 C 2787.88 -1.57392 -1.4068 0
M  V30 29668 O 2787.22 -0.848412 -2.12166 0
M  V30 29669 C 2787.43 -3.47781 0.291453 0
M  V30 29670 C 2788.78 -4.24196 0.185102 0
M  V30 29671 O 2789.81 -3.55502 0.222865 0
M  V30 29672 O 2788.66 -5.46425 0.0907602 0
M  V30 29673 H 2785.76 -0.826712 -0.0218234 0
M  V30 29674 H 2788.3 -1.5442 0.703739 0
M  V30 29675 H 2787.08 -3.68558 1.31455 0
M  V30 29676 H 2786.7 -3.95792 -0.378702 0
M  V30 29677 N 2787.7 -0.372575 -1.53133 0
M  V30 29678 C 2789.11 0.105123 -1.86404 0
M  V30 29679 C 2789.46 1.47574 -1.29292 0
M  V30 29680 O 2788.58 2.07397 -0.617683 0
M  V30 29681 C 2789.18 0.197528 -3.38224 0
M  V30 29682 C 2787.74 0.619491 -3.71267 0
M  V30 29683 C 2786.88 -0.228968 -2.76353 0
M  V30 29684 H 2789.84 -0.591103 -1.47281 0
M  V30 29685 H 2789.86 1.01981 -3.66579 0
M  V30 29686 H 2789.37 -0.800166 -3.79762 0
M  V30 29687 H 2787.47 1.62516 -3.3529 0
M  V30 29688 H 2787.58 0.389248 -4.77516 0
M  V30 29689 H 2785.95 0.303226 -2.52889 0
M  V30 29690 H 2786.73 -1.22433 -3.20726 0
M  V30 29691 N 2789.17 1.5727 -0.101929 0
M  V30 29692 C 2790.4 1.99364 0.571724 0
M  V30 29693 C 2790.82 0.980796 1.60505 0
M  V30 29694 O 2790.18 -0.0498199 1.81232 0
M  V30 29695 C 2790.23 3.40402 1.1899 0
M  V30 29696 O 2789.33 3.41926 2.30566 0
M  V30 29697 H 2788.68 0.6481 0.144437 0
M  V30 29698 H 2791.21 2.03759 -0.185361 0
M  V30 29699 H 2791.22 3.78244 1.52955 0
M  V30 29700 H 2789.89 4.13641 0.432911 0
M  V30 29701 H 2788.47 3.15886 1.98167 0
M  V30 29702 N 2790.65 -0.171793 1.56661 0
M  V30 29703 C 2791.6 -1.21732 1.92783 0
M  V30 29704 C 2792.59 -1.39826 0.79609 0
M  V30 29705 O 2793.78 -1.41804 1.05927 0
M  V30 29706 C 2790.91 -2.55687 2.29083 0
M  V30 29707 C 2789.99 -2.4129 3.48769 0
M  V30 29708 N 2790.38 -1.96606 4.66026 0
M  V30 29709 C 2788.68 -2.72117 3.53367 0
M  V30 29710 C 2789.38 -1.9466 5.48163 0
M  V30 29711 N 2788.36 -2.37046 4.89194 0
M  V30 29712 H 2792.16 -0.863542 2.80927 0
M  V30 29713 H 2789.68 -0.380068 1.5789 0
M  V30 29714 H 2791.67 -3.31237 2.53156 0
M  V30 29715 H 2790.33 -2.91869 1.42277 0
M  V30 29716 H 2791.34 -1.66951 4.90253 0
M  V30 29717 H 2788.02 -3.1234 2.77038 0
M  V30 29718 H 2789.41 -1.61815 6.52124 0
M  V30 29719 N 2792.13 -1.51324 -0.44033 0
M  V30 29720 C 2793.38 -1.6352 -1.18767 0
M  V30 29721 C 2793.7 -0.352234 -1.91792 0
M  V30 29722 O 2792.97 0.631779 -1.85433 0
M  V30 29723 H 2791.55 -0.602642 -0.441398 0
M  V30 29724 H 2794.21 -1.8824 -0.505129 0
M  V30 29725 H 2793.31 -2.46141 -1.91887 0
M  V30 29726 N 2793.61 0.695578 -1.41419 0
M  V30 29727 C 2794.56 1.80951 -1.43267 0
M  V30 29728 C 2795.53 1.63601 -0.287045 0
M  V30 29729 O 2796.71 1.84451 -0.488087 0
M  V30 29730 C 2793.85 3.18833 -1.3206 0
M  V30 29731 C 2792.96 3.47615 -2.56491 0
M  V30 29732 C 2792.1 4.75111 -2.37578 0
M  V30 29733 C 2791.14 4.96861 -3.57486 0
M  V30 29734 N 2790.27 6.15582 -3.37643 0
M  V30 29735 H 2795.11 1.78707 -2.3847 0
M  V30 29736 H 2792.65 0.872694 -1.18416 0
M  V30 29737 H 2794.61 3.98482 -1.23565 0
M  V30 29738 H 2793.24 3.20254 -0.404648 0
M  V30 29739 H 2792.29 2.62372 -2.75437 0
M  V30 29740 H 2793.6 3.59588 -3.45684 0
M  V30 29741 H 2792.76 5.62814 -2.2655 0
M  V30 29742 H 2791.5 4.65383 -1.45842 0
M  V30 29743 H 2790.5 4.07605 -3.68969 0
M  V30 29744 H 2791.73 5.08447 -4.50176 0
M  V30 29745 H 2789.67 6.07067 -2.48606 0
M  V30 29746 H 2789.59 6.28323 -4.20412 0
M  V30 29747 H 2790.86 7.0602 -3.30387 0
M  V30 29748 N 2795.09 1.27247 0.929833 0
M  V30 29749 C 2796.5 1.04606 1.2054 0
M  V30 29750 C 2796.7 -0.221719 2.00276 0
M  V30 29751 O 2795.76 -0.927792 2.34837 0
M  V30 29752 C 2797.07 2.2842 1.95562 0
M  V30 29753 C 2798.62 2.33437 2.08509 0
M  V30 29754 C 2799.1 3.56975 2.86937 0
M  V30 29755 N 2800.59 3.5752 2.94506 0
M  V30 29756 C 2801.32 4.4978 3.55648 0
M  V30 29757 N 2800.82 5.52342 4.18199 0
M  V30 29758 N 2802.61 4.37408 3.53031 0
M  V30 29759 H 2794.76 2.08655 0.397076 0
M  V30 29760 H 2797.02 0.917571 0.23826 0
M  V30 29761 H 2796.73 3.20694 1.44389 0
M  V30 29762 H 2796.6 2.33568 2.96186 0
M  V30 29763 H 2798.99 1.41671 2.58869 0
M  V30 29764 H 2799.07 2.32294 1.07113 0
M  V30 29765 H 2798.72 4.49077 2.37261 0
M  V30 29766 H 2798.65 3.55369 3.88614 0
M  V30 29767 H 2801.14 2.83345 2.50048 0
M  V30 29768 H 2801.45 6.1891 4.62785 0
M  V30 29769 H 2799.8 5.56187 4.16751 0
M  V30 29770 H 2802.99 3.56494 3.03364 0
M  V30 29771 H 2803.16 5.095 4.00391 0
M  V30 29772 N 2796.57 -1.13603 1.09235 0
M  V30 29773 C 2797.81 -1.84469 0.825558 0
M  V30 29774 C 2798.13 -1.83824 -0.650669 0
M  V30 29775 O 2797.4 -1.29261 -1.47202 0
M  V30 29776 H 2795.98 -0.683049 0.302412 0
M  V30 29777 H 2798.65 -1.37622 1.38008 0
M  V30 29778 H 2797.74 -2.89042 1.17732 0
M  V30 29779 N 2798.04 -0.879253 -1.30793 0
M  V30 29780 C 2799.27 -0.508805 -2.01062 0
M  V30 29781 C 2799.69 0.893774 -1.65509 0
M  V30 29782 O 2799.05 1.59136 -0.868644 0
M  V30 29783 C 2799.1 -0.684053 -3.54052 0
M  V30 29784 O 2798.2 0.272582 -4.11498 0
M  V30 29785 H 2797.54 -0.201202 -0.632782 0
M  V30 29786 H 2800.07 -1.18522 -1.66774 0
M  V30 29787 H 2800.08 -0.580869 -4.03844 0
M  V30 29788 H 2798.76 -1.70671 -3.79268 0
M  V30 29789 H 2797.34 0.123574 -3.72695 0
M  V30 29790 N 2799.52 1.44037 -0.639624 0
M  V30 29791 C 2800.48 2.29144 0.0506226 0
M  V30 29792 C 2801.48 1.41492 0.763976 0
M  V30 29793 O 2802.67 1.63272 0.60728 0
M  V30 29794 C 2799.81 3.23262 1.08235 0
M  V30 29795 H 2801 2.91663 -0.698038 0
M  V30 29796 H 2798.55 1.5109 -0.400173 0
M  V30 29797 H 2799.29 2.65609 1.8607 0
M  V30 29798 H 2799.07 3.87866 0.574656 0
M  V30 29799 H 2800.56 3.87174 1.56481 0
M  V30 29800 N 2801 0.380691 1.52933 0
M  V30 29801 C 2802.28 -0.261383 1.93846 0
M  V30 29802 C 2802.66 -1.65102 1.31547 0
M  V30 29803 O 2802 -2.23396 0.480273 0
M  V30 29804 C 2802.21 -0.296405 3.47739 0
M  V30 29805 C 2803.56 -0.529504 4.21285 0
M  V30 29806 O 2804.59 -0.376979 3.542 0
M  V30 29807 O 2803.45 -0.827658 5.40196 0
M  V30 29808 H 2800.54 -0.160271 0.811321 0
M  V30 29809 H 2803.09 0.434573 1.64041 0
M  V30 29810 H 2801.86 0.677308 3.85394 0
M  V30 29811 H 2801.48 -1.03764 3.83821 0
M  V30 29812 N 2802.48 -1.57214 0.110268 0
M  V30 29813 C 2803.7 -1.99665 -0.561144 0
M  V30 29814 C 2804.13 -0.989294 -1.59983 0
M  V30 29815 O 2803.49 0.040208 -1.81255 0
M  V30 29816 C 2803.53 -3.41029 -1.17183 0
M  V30 29817 O 2802.64 -3.43144 -2.28749 0
M  V30 29818 H 2801.98 -0.648857 -0.140998 0
M  V30 29819 H 2804.51 -2.03657 0.196164 0
M  V30 29820 H 2804.52 -3.7905 -1.50947 0
M  V30 29821 H 2803.19 -4.13865 -0.410968 0
M  V30 29822 H 2801.77 -3.16933 -1.96489 0
M  V30 29823 N 2803.96 0.163482 -1.5675 0
M  V30 29824 C 2804.89 1.20435 -2.00044 0
M  V30 29825 C 2805.87 1.45732 -0.877282 0
M  V30 29826 O 2807.05 1.56933 -1.14393 0
M  V30 29827 C 2804.18 2.54145 -2.36702 0
M  V30 29828 C 2803.14 2.43402 -3.52051 0
M  V30 29829 C 2802.46 3.81673 -3.74473 0
M  V30 29830 C 2803.76 1.93208 -4.85251 0
M  V30 29831 H 2805.46 0.844427 -2.87245 0
M  V30 29832 H 2803 0.404755 -1.38195 0
M  V30 29833 H 2804.95 3.27171 -2.65588 0
M  V30 29834 H 2803.68 2.9194 -1.46419 0
M  V30 29835 H 2802.34 1.72829 -3.23304 0
M  V30 29836 H 2801.99 4.16875 -2.81468 0
M  V30 29837 H 2801.69 3.75351 -4.5209 0
M  V30 29838 H 2803.21 4.56273 -4.05768 0
M  V30 29839 H 2804.62 2.56014 -5.12962 0
M  V30 29840 H 2803.02 1.97815 -5.66559 0
M  V30 29841 H 2804.09 0.886806 -4.76722 0
M  V30 29842 N 2805.43 1.51555 0.432299 0
M  V30 29843 C 2806.68 1.64717 1.18306 0
M  V30 29844 C 2807.01 0.364729 1.90744 0
M  V30 29845 O 2806.29 -0.635904 1.83811 0
M  V30 29846 C 2806.57 2.85387 2.19605 0
M  V30 29847 C 2806.42 4.2362 1.51216 0
M  V30 29848 C 2807.74 3.01574 3.20532 0
M  V30 29849 H 2804.86 0.599459 0.42874 0
M  V30 29850 H 2807.5 1.84053 0.471656 0
M  V30 29851 H 2805.65 2.69032 2.80275 0
M  V30 29852 H 2807.33 4.51654 0.938437 0
M  V30 29853 H 2805.57 4.26086 0.814426 0
M  V30 29854 H 2806.24 5.04056 2.25015 0
M  V30 29855 H 2808.72 3.16674 2.6992 0
M  V30 29856 H 2807.59 3.87562 3.88699 0
M  V30 29857 H 2807.85 2.13865 3.86929 0
M  V30 29858 N 2806.91 -0.688069 1.41786 0
M  V30 29859 C 2807.82 -1.83155 1.46599 0
M  V30 29860 C 2808.84 -1.70321 0.355892 0
M  V30 29861 O 2810.01 -1.92105 0.60477 0
M  V30 29862 C 2807.08 -3.19198 1.35327 0
M  V30 29863 C 2806.14 -3.44086 2.56717 0
M  V30 29864 C 2805.37 -4.73638 2.45973 0
M  V30 29865 O 2805.6 -5.50639 1.48837 0
M  V30 29866 O 2804.53 -4.99476 3.35868 0
M  V30 29867 H 2808.36 -1.82051 2.43086 0
M  V30 29868 H 2805.94 -0.842104 1.23406 0
M  V30 29869 H 2807.82 -4.00405 1.31354 0
M  V30 29870 H 2806.5 -3.20969 0.419592 0
M  V30 29871 H 2805.4 -2.62779 2.66266 0
M  V30 29872 H 2806.74 -3.47135 3.48939 0
M  V30 29873 N 2808.39 -1.27739 -0.923072 0
M  V30 29874 C 2809.35 -1.10898 -2.00585 0
M  V30 29875 C 2810.35 -0.0515209 -1.60717 0
M  V30 29876 O 2811.54 -0.296511 -1.71658 0
M  V30 29877 C 2808.67 -0.690776 -3.33828 0
M  V30 29878 H 2809.87 -2.07052 -2.16955 0
M  V30 29879 H 2807.42 -1.10592 -1.10449 0
M  V30 29880 H 2808.16 0.271944 -3.23158 0
M  V30 29881 H 2807.94 -1.45455 -3.64123 0
M  V30 29882 H 2809.43 -0.595324 -4.13335 0
M  V30 29883 N 2809.87 1.13022 -1.09836 0
M  V30 29884 C 2811.11 1.84666 -0.838222 0
M  V30 29885 C 2811.45 1.83538 0.634613 0
M  V30 29886 O 2810.72 1.27649 1.46751 0
M  V30 29887 C 2811.01 3.32633 -1.37938 0
M  V30 29888 C 2810.86 3.42251 -2.91863 0
M  V30 29889 C 2812.18 4.28197 -1.01662 0
M  V30 29890 H 2809.3 0.67049 -0.305962 0
M  V30 29891 H 2811.94 1.32633 -1.36046 0
M  V30 29892 H 2810.09 3.77077 -0.935177 0
M  V30 29893 H 2811.76 3.06489 -3.44764 0
M  V30 29894 H 2810 2.82994 -3.28781 0
M  V30 29895 H 2810.67 4.46323 -3.24807 0
M  V30 29896 H 2813.15 3.91848 -1.3998 0
M  V30 29897 H 2812.03 5.30154 -1.42226 0
M  V30 29898 H 2812.29 4.42037 0.0747017 0
M  V30 29899 N 2811.35 0.886177 1.30325 0
M  V30 29900 C 2812.28 0.370068 2.30549 0
M  V30 29901 C 2813.26 -0.547722 1.6104 0
M  V30 29902 O 2814.44 -0.461319 1.88641 0
M  V30 29903 C 2811.57 -0.415214 3.44809 0
M  V30 29904 C 2810.53 0.410925 4.26023 0
M  V30 29905 C 2809.85 -0.501034 5.32347 0
M  V30 29906 C 2811.15 1.65368 4.9543 0
M  V30 29907 H 2812.85 1.20758 2.73967 0
M  V30 29908 H 2810.39 0.58212 1.31709 0
M  V30 29909 H 2812.35 -0.786917 4.13987 0
M  V30 29910 H 2811.07 -1.28639 3.00199 0
M  V30 29911 H 2809.73 0.764782 3.58534 0
M  V30 29912 H 2809.38 -1.36995 4.83985 0
M  V30 29913 H 2809.08 0.0479389 5.8758 0
M  V30 29914 H 2810.6 -0.869227 6.04381 0
M  V30 29915 H 2812.01 1.35249 5.57118 0
M  V30 29916 H 2810.41 2.14294 5.60534 0
M  V30 29917 H 2811.48 2.3974 4.21488 0
M  V30 29918 N 2812.82 -1.43695 0.647253 0
M  V30 29919 C 2814.07 -2.01099 0.155588 0
M  V30 29920 C 2814.39 -1.51627 -1.23567 0
M  V30 29921 O 2815.59 -2.01264 -1.82222 0
M  V30 29922 C 2814.05 -3.59181 0.227359 0
M  V30 29923 C 2813.66 -4.17648 1.62093 0
M  V30 29924 C 2815.4 -4.23995 -0.207011 0
M  V30 29925 C 2813.31 -5.68005 1.64695 0
M  V30 29926 H 2812.24 -0.752035 0.0544027 0
M  V30 29927 H 2814.89 -1.64733 0.808415 0
M  V30 29928 H 2813.27 -3.92921 -0.492868 0
M  V30 29929 H 2814.44 -3.95418 2.36603 0
M  V30 29930 H 2812.76 -3.65183 2.00077 0
M  V30 29931 H 2815.36 -5.34298 -0.207332 0
M  V30 29932 H 2815.7 -3.97486 -1.23735 0
M  V30 29933 H 2816.23 -3.95117 0.461263 0
M  V30 29934 H 2812.97 -5.99272 2.65619 0
M  V30 29935 H 2812.49 -5.92309 0.945018 0
M  V30 29936 H 2814.17 -6.31936 1.38804 0
M  V30 29937 N 2814.3 -0.388796 -1.52729 0
M  V30 29938 C 2815.53 0.196174 -2.0647 0
M  V30 29939 C 2815.95 1.39782 -1.25868 0
M  V30 29940 O 2815.31 1.79068 -0.283594 0
M  V30 29941 C 2815.36 0.545037 -3.56457 0
M  V30 29942 O 2814.46 1.63906 -3.78429 0
M  V30 29943 H 2813.8 0.0230553 -0.6636 0
M  V30 29944 H 2816.33 -0.556119 -1.96897 0
M  V30 29945 H 2816.34 0.809487 -3.99889 0
M  V30 29946 H 2815.02 -0.333489 -4.14561 0
M  V30 29947 H 2813.6 1.36836 -3.46887 0
M  V30 29948 N 2815.78 1.57153 -0.118604 0
M  V30 29949 C 2816.69 2.18836 0.845446 0
M  V30 29950 C 2817.71 1.1644 1.29297 0
M  V30 29951 O 2818.88 1.48908 1.35604 0
M  V30 29952 C 2815.95 2.77532 2.0779 0
M  V30 29953 C 2815.01 3.94963 1.68233 0
M  V30 29954 C 2814.24 4.5085 2.85604 0
M  V30 29955 O 2814.46 4.05636 4.01018 0
M  V30 29956 O 2813.4 5.4154 2.62712 0
M  V30 29957 H 2817.22 3.0167 0.350515 0
M  V30 29958 H 2814.81 1.49016 0.106987 0
M  V30 29959 H 2816.69 3.1495 2.79972 0
M  V30 29960 H 2815.37 1.9773 2.5629 0
M  V30 29961 H 2814.27 3.62315 0.931599 0
M  V30 29962 H 2815.61 4.762 1.24475 0
M  V30 29963 N 2817.26 -0.155167 1.56834 0
M  V30 29964 C 2818.51 -0.86743 1.82538 0
M  V30 29965 C 2818.83 -1.82072 0.6982 0
M  V30 29966 O 2818.1 -1.93877 -0.280773 0
M  V30 29967 H 2816.68 -0.323315 0.673407 0
M  V30 29968 H 2819.34 -0.151122 1.94313 0
M  V30 29969 H 2818.44 -1.43461 2.77174 0
M  V30 29970 N 2818.74 -1.51782 -0.424256 0
M  V30 29971 C 2819.67 -1.76992 -1.52302 0
M  V30 29972 C 2820.65 -0.620237 -1.58389 0
M  V30 29973 O 2821.83 -0.864298 -1.73907 0
M  V30 29974 C 2818.96 -1.90688 -2.90268 0
M  V30 29975 C 2817.92 -3.06203 -2.99038 0
M  V30 29976 C 2817.24 -3.051 -4.39111 0
M  V30 29977 C 2818.54 -4.45938 -2.71912 0
M  V30 29978 H 2820.24 -2.68997 -1.31457 0
M  V30 29979 H 2817.78 -1.29441 -0.630962 0
M  V30 29980 H 2819.74 -2.06907 -3.67107 0
M  V30 29981 H 2818.46 -0.95342 -3.12374 0
M  V30 29982 H 2817.12 -2.8971 -2.24641 0
M  V30 29983 H 2816.77 -2.07506 -4.58203 0
M  V30 29984 H 2816.47 -3.82677 -4.45906 0
M  V30 29985 H 2817.99 -3.23429 -5.17905 0
M  V30 29986 H 2819.4 -4.62715 -3.38479 0
M  V30 29987 H 2817.8 -5.2532 -2.90102 0
M  V30 29988 H 2818.87 -4.55075 -1.67437 0
M  V30 29989 N 2820.21 0.68054 -1.42149 0
M  V30 29990 C 2821.46 1.43776 -1.42031 0
M  V30 29991 C 2821.78 1.94967 -0.035669 0
M  V30 29992 O 2821.05 1.72691 0.924906 0
M  V30 29993 H 2819.63 0.533519 -0.522844 0
M  V30 29994 H 2822.3 0.804507 -1.77521 0
M  V30 29995 H 2821.39 2.29359 -2.11662 0
M  V30 29996 N 2821.69 1.28226 0.916285 0
M  V30 29997 C 2822.62 1.14468 2.03518 0
M  V30 29998 C 2823.6 0.0431143 1.70045 0
M  V30 29999 O 2824.79 0.219653 1.92954 0
M  V30 30000 C 2821.92 0.803087 3.37887 0
M  V30 30001 C 2820.87 1.85914 3.85512 0
M  V30 30002 C 2820.2 1.37125 5.16818 0
M  V30 30003 C 2821.5 3.26526 4.07649 0
M  V30 30004 H 2823.19 2.08068 2.15286 0
M  V30 30005 H 2820.74 1.00176 1.03444 0
M  V30 30006 H 2822.69 0.693611 4.15653 0
M  V30 30007 H 2821.42 -0.168617 3.26164 0
M  V30 30008 H 2820.07 1.95772 3.0995 0
M  V30 30009 H 2819.72 0.388678 5.01496 0
M  V30 30010 H 2819.42 2.07738 5.49653 0
M  V30 30011 H 2820.95 1.27494 5.97141 0
M  V30 30012 H 2822.36 3.19604 4.75948 0
M  V30 30013 H 2820.76 3.94951 4.51811 0
M  V30 30014 H 2821.83 3.70732 3.12547 0
M  V30 30015 N 2823.17 -1.12438 1.10433 0
M  V30 30016 C 2824.42 -1.83947 0.84675 0
M  V30 30017 C 2824.75 -1.84094 -0.627677 0
M  V30 30018 O 2824 -1.28186 -1.47874 0
M  V30 30019 C 2824.3 -3.31318 1.34028 0
M  V30 30020 C 2823.97 -3.51342 2.82612 0
M  V30 30021 C 2822.63 -3.56515 3.23188 0
M  V30 30022 C 2824.98 -3.58457 3.78362 0
M  V30 30023 C 2822.31 -3.66348 4.58264 0
M  V30 30024 C 2824.66 -3.6982 5.13241 0
M  V30 30025 C 2823.32 -3.7325 5.5339 0
M  V30 30026 H 2822.59 -0.673109 0.309848 0
M  V30 30027 H 2825.24 -1.32675 1.38093 0
M  V30 30028 H 2823.55 -3.85013 0.726114 0
M  V30 30029 H 2825.24 -3.85116 1.11745 0
M  V30 30030 H 2821.83 -3.47978 2.50218 0
M  V30 30031 H 2826.02 -3.53731 3.48121 0
M  V30 30032 H 2821.27 -3.67275 4.88793 0
M  V30 30033 H 2825.45 -3.74269 5.87278 0
M  V30 30034 H 2823.07 -3.80621 6.58051 0
M  V30 30035 N 2824.65 -0.893076 -1.29853 0
M  V30 30036 C 2825.61 -0.370727 -2.26182 0
M  V30 30037 C 2826.61 0.491358 -1.53109 0
M  V30 30038 O 2827.8 0.297356 -1.71643 0
M  V30 30039 C 2824.93 0.470768 -3.37634 0
M  V30 30040 H 2826.13 -1.2214 -2.73901 0
M  V30 30041 H 2823.68 -0.670635 -1.41181 0
M  V30 30042 H 2824.42 1.3417 -2.95244 0
M  V30 30043 H 2824.2 -0.146853 -3.91825 0
M  V30 30044 H 2825.69 0.827753 -4.09314 0
M  V30 30045 N 2826.13 1.4335 -0.654865 0
M  V30 30046 C 2827.54 1.56306 -0.322577 0
M  V30 30047 C 2827.74 1.63823 1.17321 0
M  V30 30048 O 2826.8 1.5942 1.9581 0
M  V30 30049 C 2828.11 2.82313 -1.03538 0
M  V30 30050 C 2829.66 2.96059 -1.01579 0
M  V30 30051 C 2830.14 4.24899 -1.70952 0
M  V30 30052 N 2831.63 4.31767 -1.67724 0
M  V30 30053 C 2832.36 5.3023 -2.18275 0
M  V30 30054 N 2831.86 6.34961 -2.77121 0
M  V30 30055 N 2833.65 5.21894 -2.08765 0
M  V30 30056 H 2825.8 1.36715 -1.62551 0
M  V30 30057 H 2828.06 0.656715 -0.683688 0
M  V30 30058 H 2827.77 2.82827 -2.0905 0
M  V30 30059 H 2827.64 3.72589 -0.587979 0
M  V30 30060 H 2830.03 2.95084 0.0309315 0
M  V30 30061 H 2830.11 2.07067 -1.5019 0
M  V30 30062 H 2829.76 4.26635 -2.75582 0
M  V30 30063 H 2829.69 5.12791 -1.19806 0
M  V30 30064 H 2832.18 3.56704 -1.24784 0
M  V30 30065 H 2832.49 7.06415 -3.13365 0
M  V30 30066 H 2830.84 6.3558 -2.81182 0
M  V30 30067 H 2834.03 4.38991 -1.62496 0
M  V30 30068 H 2834.2 5.98471 -2.48469 0
M  V30 30069 N 2827.61 0.39689 1.52521 0
M  V30 30070 C 2828.88 -0.240808 1.94112 0
M  V30 30071 C 2829.26 -1.63697 1.33291 0
M  V30 30072 O 2828.61 -2.22874 0.50394 0
M  V30 30073 C 2828.82 -0.259505 3.48034 0
M  V30 30074 C 2830.17 -0.484791 4.21823 0
M  V30 30075 O 2831.19 -0.33939 3.54579 0
M  V30 30076 O 2830.05 -0.770317 5.41044 0
M  V30 30077 H 2827.15 -0.151657 0.812976 0
M  V30 30078 H 2829.69 0.451947 1.63571 0
M  V30 30079 H 2828.46 0.718146 3.84654 0
M  V30 30080 H 2828.09 -0.996869 3.849 0
M  V30 30081 N 2829.08 -1.57088 0.126936 0
M  V30 30082 C 2830.49 -1.82427 -0.397169 0
M  V30 30083 C 2830.85 -1.04456 -1.66083 0
M  V30 30084 O 2829.97 -0.28359 -2.14534 0
M  V30 30085 C 2830.57 -3.309 -0.727353 0
M  V30 30086 C 2829.12 -3.56891 -1.19606 0
M  V30 30087 C 2828.27 -2.76513 -0.208801 0
M  V30 30088 H 2831.22 -1.54748 0.351951 0
M  V30 30089 H 2831.24 -3.45961 -1.58401 0
M  V30 30090 H 2830.76 -3.87622 0.192538 0
M  V30 30091 H 2828.86 -3.05535 -2.13258 0
M  V30 30092 H 2828.97 -4.6544 -1.1359 0
M  V30 30093 H 2827.33 -2.44965 -0.697436 0
M  V30 30094 H 2828.12 -3.35997 0.704326 0
M  V30 30095 N 2830.56 0.146848 -1.56914 0
M  V30 30096 C 2831.98 0.499492 -1.51582 0
M  V30 30097 C 2832.18 1.83367 -0.835383 0
M  V30 30098 O 2831.23 2.49215 -0.405976 0
M  V30 30099 C 2832.55 0.509659 -2.96349 0
M  V30 30100 C 2834.09 0.595163 -3.07289 0
M  V30 30101 C 2834.57 0.635991 -4.53563 0
M  V30 30102 N 2836.06 0.69821 -4.57907 0
M  V30 30103 C 2836.8 0.750786 -5.68464 0
M  V30 30104 N 2836.29 0.762699 -6.88589 0
M  V30 30105 N 2838.08 0.791679 -5.56497 0
M  V30 30106 H 2830.24 -0.727691 -1.99546 0
M  V30 30107 H 2832.5 -0.265343 -0.910108 0
M  V30 30108 H 2832.2 -0.402471 -3.4939 0
M  V30 30109 H 2832.08 1.34752 -3.52309 0
M  V30 30110 H 2834.47 1.49771 -2.54269 0
M  V30 30111 H 2834.55 -0.269845 -2.54373 0
M  V30 30112 H 2834.19 -0.262402 -5.07222 0
M  V30 30113 H 2834.12 1.51749 -5.04262 0
M  V30 30114 H 2836.61 0.696296 -3.7143 0
M  V30 30115 H 2836.92 0.804669 -7.68599 0
M  V30 30116 H 2835.27 0.730573 -6.9115 0
M  V30 30117 H 2838.46 0.779543 -4.61563 0
M  V30 30118 H 2838.63 0.829188 -6.42673 0
M  V30 30119 N 2832.04 1.52005 0.4162 0
M  V30 30120 C 2833.29 1.65717 1.1638 0
M  V30 30121 C 2833.61 0.383628 1.90679 0
M  V30 30122 O 2832.87 -0.633153 1.85175 0
M  V30 30123 C 2833.17 2.82506 2.18918 0
M  V30 30124 C 2832.83 4.20994 1.61478 0
M  V30 30125 C 2831.5 4.58664 1.45536 0
M  V30 30126 C 2833.85 5.07325 1.19459 0
M  V30 30127 C 2831.18 5.8035 0.860835 0
M  V30 30128 C 2833.53 6.29611 0.614276 0
M  V30 30129 C 2832.19 6.66035 0.441939 0
M  V30 30130 H 2831.46 0.6064 0.425864 0
M  V30 30131 H 2834.11 1.8609 0.451957 0
M  V30 30132 H 2832.41 2.56439 2.9622 0
M  V30 30133 H 2834.11 2.90312 2.76623 0
M  V30 30134 H 2830.7 3.91305 1.74867 0
M  V30 30135 H 2834.89 4.78812 1.30587 0
M  V30 30136 H 2830.14 6.07202 0.715265 0
M  V30 30137 H 2834.32 6.95836 0.280271 0
M  V30 30138 H 2831.94 7.60197 -0.0208554 0
M  V30 30139 N 2833.52 -0.672992 1.42508 0
M  V30 30140 C 2834.76 -1.43516 1.43286 0
M  V30 30141 C 2835.1 -1.94136 0.0497021 0
M  V30 30142 O 2834.37 -1.71024 -0.926339 0
M  V30 30143 C 2834.65 -2.63089 2.45878 0
M  V30 30144 C 2834.51 -2.18089 3.93392 0
M  V30 30145 C 2835.83 -3.65306 2.45438 0
M  V30 30146 H 2832.95 -0.520513 0.521762 0
M  V30 30147 H 2835.59 -0.76467 1.73933 0
M  V30 30148 H 2833.74 -3.20292 2.19875 0
M  V30 30149 H 2835.41 -1.66039 4.30382 0
M  V30 30150 H 2833.65 -1.49645 4.07172 0
M  V30 30151 H 2834.32 -3.03985 4.60757 0
M  V30 30152 H 2836.8 -3.17823 2.68567 0
M  V30 30153 H 2835.68 -4.46548 3.19196 0
M  V30 30154 H 2835.94 -4.16556 1.481 0
M  V30 30155 N 2835 -1.2871 -0.909472 0
M  V30 30156 C 2835.96 -1.13019 -1.99397 0
M  V30 30157 C 2836.96 -0.0685643 -1.60654 0
M  V30 30158 O 2838.15 -0.314701 -1.71334 0
M  V30 30159 C 2835.28 -0.726144 -3.33077 0
M  V30 30160 H 2836.47 -2.09341 -2.14747 0
M  V30 30161 H 2834.03 -1.11758 -1.0927 0
M  V30 30162 H 2834.76 0.237653 -3.23428 0
M  V30 30163 H 2834.55 -1.49308 -3.6256 0
M  V30 30164 H 2836.04 -0.639131 -4.1268 0
M  V30 30165 N 2836.47 1.1185 -1.11028 0
M  V30 30166 C 2837.4 2.19843 -0.786851 0
M  V30 30167 C 2838.38 1.68357 0.242905 0
M  V30 30168 O 2839.57 1.93903 0.107321 0
M  V30 30169 C 2836.7 3.46573 -0.224577 0
M  V30 30170 C 2835.65 4.11248 -1.18572 0
M  V30 30171 C 2834.98 5.32502 -0.484355 0
M  V30 30172 C 2836.28 4.56671 -2.53473 0
M  V30 30173 H 2837.97 2.47155 -1.68982 0
M  V30 30174 H 2835.52 1.18791 -0.813927 0
M  V30 30175 H 2837.47 4.21398 0.0138694 0
M  V30 30176 H 2836.2 3.18707 0.713666 0
M  V30 30177 H 2834.86 3.38412 -1.40972 0
M  V30 30178 H 2834.5 5.00905 0.458558 0
M  V30 30179 H 2834.2 5.76723 -1.12536 0
M  V30 30180 H 2835.73 6.10069 -0.2546 0
M  V30 30181 H 2837.14 5.22839 -2.35186 0
M  V30 30182 H 2835.54 5.11691 -3.13516 0
M  V30 30183 H 2836.61 3.70338 -3.13014 0
M  V30 30184 N 2837.95 0.89995 1.29378 0
M  V30 30185 C 2838.91 0.382716 2.25982 0
M  V30 30186 C 2839.91 -0.483232 1.53367 0
M  V30 30187 O 2841.1 -0.288249 1.71799 0
M  V30 30188 C 2838.24 -0.452855 3.37879 0
M  V30 30189 H 2839.43 1.23591 2.7325 0
M  V30 30190 H 2836.98 0.678113 1.40824 0
M  V30 30191 H 2837.72 -1.32602 2.95951 0
M  V30 30192 H 2837.5 0.167631 3.91742 0
M  V30 30193 H 2838.99 -0.806035 4.09747 0
M  V30 30194 N 2839.43 -1.43001 0.662458 0
M  V30 30195 C 2840.38 -2.30788 -0.0234918 0
M  V30 30196 C 2841.35 -1.45272 -0.805317 0
M  V30 30197 O 2842.53 -1.74126 -0.78006 0
M  V30 30198 C 2839.67 -3.30967 -0.977487 0
M  V30 30199 C 2838.79 -4.31578 -0.19079 0
M  V30 30200 C 2837.92 -5.18836 -1.13942 0
M  V30 30201 C 2836.96 -6.11134 -0.343688 0
M  V30 30202 N 2836.1 -6.90984 -1.24438 0
M  V30 30203 H 2840.94 -2.88896 0.730972 0
M  V30 30204 H 2838.47 -1.42313 0.372222 0
M  V30 30205 H 2840.43 -3.87566 -1.5443 0
M  V30 30206 H 2839.06 -2.74487 -1.69872 0
M  V30 30207 H 2838.11 -3.77199 0.492455 0
M  V30 30208 H 2839.43 -4.96964 0.427552 0
M  V30 30209 H 2838.58 -5.80106 -1.77656 0
M  V30 30210 H 2837.32 -4.53598 -1.79166 0
M  V30 30211 H 2836.32 -5.48944 0.306747 0
M  V30 30212 H 2837.55 -6.78418 0.30428 0
M  V30 30213 H 2835.49 -6.28386 -1.88325 0
M  V30 30214 H 2835.41 -7.52928 -0.680827 0
M  V30 30215 H 2836.68 -7.56752 -1.86938 0
M  V30 30216 N 2840.91 -0.404973 -1.52308 0
M  V30 30217 C 2841.84 0.457871 -2.2458 0
M  V30 30218 C 2842.85 1.01367 -1.27391 0
M  V30 30219 O 2844.04 0.913323 -1.53364 0
M  V30 30220 C 2841.14 1.64888 -2.96083 0
M  V30 30221 C 2840.32 1.2177 -4.20108 0
M  V30 30222 C 2839.37 2.27514 -4.74472 0
M  V30 30223 O 2838.4 1.88276 -5.3716 0
M  V30 30224 N 2839.6 3.59627 -4.55685 0
M  V30 30225 H 2842.37 -0.161393 -2.99265 0
M  V30 30226 H 2839.93 -0.232135 -1.60227 0
M  V30 30227 H 2841.92 2.35185 -3.29348 0
M  V30 30228 H 2840.49 2.17415 -2.2461 0
M  V30 30229 H 2839.71 0.343002 -3.92705 0
M  V30 30230 H 2841 0.906508 -5.00659 0
M  V30 30231 H 2840.4 3.94259 -4.0568 0
M  V30 30232 H 2838.95 4.25913 -4.93397 0
M  V30 30233 N 2842.39 1.57018 -0.135265 0
M  V30 30234 C 2843.3 2.19721 0.822187 0
M  V30 30235 C 2844.31 1.17805 1.28055 0
M  V30 30236 O 2845.49 1.50338 1.34017 0
M  V30 30237 C 2842.55 2.79721 2.04835 0
M  V30 30238 C 2841.61 3.96725 1.64035 0
M  V30 30239 C 2840.85 4.53854 2.80806 0
M  V30 30240 O 2841.07 4.09867 3.96693 0
M  V30 30241 O 2840 5.44296 2.56953 0
M  V30 30242 H 2843.83 3.02025 0.318499 0
M  V30 30243 H 2841.42 1.49122 0.0911759 0
M  V30 30244 H 2843.3 3.17902 2.76616 0
M  V30 30245 H 2841.97 2.00437 2.54179 0
M  V30 30246 H 2840.88 3.63283 0.893119 0
M  V30 30247 H 2842.21 4.77494 1.19418 0
M  V30 30248 N 2843.86 -0.138524 1.5699 0
M  V30 30249 C 2845.11 -0.848173 1.83 0
M  V30 30250 C 2845.43 -1.81951 0.717861 0
M  V30 30251 O 2846.63 -2.57392 0.863801 0
M  V30 30252 C 2845.09 -1.55899 3.24382 0
M  V30 30253 C 2844.7 -0.629632 4.43553 0
M  V30 30254 C 2846.44 -2.25492 3.59658 0
M  V30 30255 C 2844.35 -1.34256 5.7596 0
M  V30 30256 H 2843.28 -0.320483 0.6825 0
M  V30 30257 H 2845.93 -0.100892 1.83222 0
M  V30 30258 H 2844.31 -2.3522 3.18571 0
M  V30 30259 H 2845.48 0.128963 4.6062 0
M  V30 30260 H 2843.8 -0.0416794 4.16379 0
M  V30 30261 H 2846.4 -2.79485 4.55842 0
M  V30 30262 H 2846.74 -3.02383 2.86129 0
M  V30 30263 H 2847.27 -1.5308 3.67167 0
M  V30 30264 H 2844.01 -0.615326 6.52606 0
M  V30 30265 H 2843.53 -2.07365 5.62814 0
M  V30 30266 H 2845.21 -1.88115 6.19049 0
M  V30 30267 N 2845.34 -1.52224 -0.408133 0
M  V30 30268 C 2846.31 -1.75013 -1.47997 0
M  V30 30269 C 2847.31 -0.620023 -1.48366 0
M  V30 30270 O 2848.5 -0.887908 -1.49873 0
M  V30 30271 C 2845.63 -1.83341 -2.874 0
M  V30 30272 H 2846.82 -2.70699 -1.29082 0
M  V30 30273 H 2844.37 -1.42655 -0.63869 0
M  V30 30274 H 2845.11 -0.895732 -3.11684 0
M  V30 30275 H 2844.89 -2.65499 -2.88535 0
M  V30 30276 H 2846.38 -2.02711 -3.651 0
M  V30 30277 N 2846.82 0.665425 -1.42863 0
M  V30 30278 C 2848.1 1.42195 -1.34313 0
M  V30 30279 C 2848.48 2.11095 0.0149894 0
M  V30 30280 O 2847.83 2.0392 1.03097 0
M  V30 30281 C 2848.04 2.41669 -2.51787 0
M  V30 30282 C 2849.38 3.06034 -2.94327 0
M  V30 30283 O 2850.41 2.51997 -2.51746 0
M  V30 30284 O 2849.27 4.03978 -3.68054 0
M  V30 30285 H 2846.36 0.634704 -0.53017 0
M  V30 30286 H 2848.91 0.693359 -1.54889 0
M  V30 30287 H 2847.68 1.89621 -3.42286 0
M  V30 30288 H 2847.3 3.21997 -2.33247 0
M  V30 30289 N 2848.3 1.29191 0.902633 0
M  V30 30290 C 2849.26 1.14075 1.98795 0
M  V30 30291 C 2850.26 0.0770832 1.60615 0
M  V30 30292 O 2851.45 0.323783 1.71165 0
M  V30 30293 C 2848.58 0.743797 3.32687 0
M  V30 30294 H 2849.78 2.10477 2.13634 0
M  V30 30295 H 2847.33 1.12336 1.08676 0
M  V30 30296 H 2848.06 -0.220498 3.2355 0
M  V30 30297 H 2847.85 1.51229 3.61763 0
M  V30 30298 H 2849.34 0.661007 4.12335 0
M  V30 30299 N 2849.78 -1.1126 1.1162 0
M  V30 30300 C 2851.02 -1.84668 0.876186 0
M  V30 30301 C 2851.38 -1.8279 -0.587519 0
M  V30 30302 O 2852.58 -2.51665 -0.944367 0
M  V30 30303 C 2850.85 -3.27777 1.42467 0
M  V30 30304 S 2852.41 -4.18414 1.32192 0
M  V30 30305 H 2849.23 -0.636774 0.316292 0
M  V30 30306 H 2851.83 -1.33943 1.42406 0
M  V30 30307 H 2850.54 -3.2671 2.48372 0
M  V30 30308 H 2850.07 -3.83571 0.873911 0
M  V30 30309 H 2852.08 -4.95365 0.287694 0
M  V30 30310 N 2851.25 -0.906798 -1.28899 0
M  V30 30311 C 2852.67 -0.603928 -1.47732 0
M  V30 30312 C 2852.87 0.85267 -1.8257 0
M  V30 30313 O 2851.93 1.6323 -1.92645 0
M  V30 30314 C 2853.24 -1.53585 -2.58519 0
M  V30 30315 C 2854.79 -1.54182 -2.72391 0
M  V30 30316 C 2855.26 -2.4602 -3.86314 0
M  V30 30317 N 2856.75 -2.44107 -3.93657 0
M  V30 30318 C 2857.49 -3.11868 -4.81172 0
M  V30 30319 N 2856.98 -3.88933 -5.73326 0
M  V30 30320 N 2858.78 -3.0099 -4.74723 0
M  V30 30321 H 2850.93 -1.84879 -1.04564 0
M  V30 30322 H 2853.19 -0.792588 -0.520104 0
M  V30 30323 H 2852.9 -2.574 -2.39662 0
M  V30 30324 H 2852.77 -1.26171 -3.55472 0
M  V30 30325 H 2855.16 -0.511086 -2.90641 0
M  V30 30326 H 2855.24 -1.85637 -1.7599 0
M  V30 30327 H 2854.88 -3.49191 -3.68819 0
M  V30 30328 H 2854.81 -2.11871 -4.82098 0
M  V30 30329 H 2857.3 -1.88121 -3.27748 0
M  V30 30330 H 2857.62 -4.37674 -6.36915 0
M  V30 30331 H 2855.96 -3.93039 -5.73189 0
M  V30 30332 H 2859.15 -2.40293 -4.01717 0
M  V30 30333 H 2859.33 -3.54072 -5.42713 0
M  V30 30334 N 2852.73 1.42648 -0.670032 0
M  V30 30335 C 2853.66 2.335 -0.00262605 0
M  V30 30336 C 2854.64 1.50414 0.794337 0
M  V30 30337 O 2855.83 1.7903 0.752448 0
M  V30 30338 C 2852.96 3.33978 0.952689 0
M  V30 30339 C 2851.91 4.27181 0.264658 0
M  V30 30340 C 2851.24 5.17828 1.33258 0
M  V30 30341 C 2852.54 5.15281 -0.85338 0
M  V30 30342 H 2854.23 2.89557 -0.761377 0
M  V30 30343 H 2851.78 1.39229 -0.367586 0
M  V30 30344 H 2853.73 3.96444 1.42863 0
M  V30 30345 H 2852.46 2.76214 1.7428 0
M  V30 30346 H 2851.11 3.66102 -0.191002 0
M  V30 30347 H 2850.76 4.56394 2.11456 0
M  V30 30348 H 2850.46 5.81013 0.877374 0
M  V30 30349 H 2851.99 5.8317 1.80955 0
M  V30 30350 H 2853.4 5.71461 -0.458863 0
M  V30 30351 H 2851.8 5.87274 -1.23409 0
M  V30 30352 H 2852.87 4.53966 -1.7042 0
M  V30 30353 N 2854.21 0.413044 1.52091 0
M  V30 30354 C 2855.44 -0.160845 2.06274 0
M  V30 30355 C 2855.85 -1.38531 1.28275 0
M  V30 30356 O 2855.21 -1.79387 0.335662 0
M  V30 30357 C 2855.26 -0.50738 3.57922 0
M  V30 30358 O 2854.98 0.668464 4.3297 0
M  V30 30359 C 2856.48 -1.13458 4.28535 0
M  V30 30360 H 2853.7 -0.0186642 0.67074 0
M  V30 30361 H 2856.25 0.585127 1.9595 0
M  V30 30362 H 2854.4 -1.20325 3.6824 0
M  V30 30363 H 2854.82 0.378261 5.23134 0
M  V30 30364 H 2856.29 -1.32723 5.35807 0
M  V30 30365 H 2856.77 -2.10879 3.85262 0
M  V30 30366 H 2857.37 -0.478802 4.22596 0
M  V30 30367 N 2855.69 -1.56945 0.143591 0
M  V30 30368 C 2856.62 -2.19602 -0.793561 0
M  V30 30369 C 2857.6 -1.14323 -1.25953 0
M  V30 30370 O 2858.79 -1.42654 -1.31771 0
M  V30 30371 C 2855.92 -2.81492 -2.03419 0
M  V30 30372 C 2854.87 -3.92568 -1.70512 0
M  V30 30373 C 2854.2 -4.41379 -3.0181 0
M  V30 30374 C 2855.5 -5.13506 -0.9544 0
M  V30 30375 H 2857.19 -2.98168 -0.271371 0
M  V30 30376 H 2854.74 -1.4342 -0.129085 0
M  V30 30377 H 2856.69 -3.23991 -2.69458 0
M  V30 30378 H 2855.41 -2.00253 -2.58005 0
M  V30 30379 H 2854.07 -3.50682 -1.06853 0
M  V30 30380 H 2853.72 -3.56965 -3.54379 0
M  V30 30381 H 2853.42 -5.16296 -2.80556 0
M  V30 30382 H 2854.94 -4.86546 -3.68925 0
M  V30 30383 H 2856.36 -5.52871 -1.51681 0
M  V30 30384 H 2854.75 -5.94165 -0.84193 0
M  V30 30385 H 2855.82 -4.84869 0.0544885 0
M  V30 30386 N 2857.17 0.130197 -1.57061 0
M  V30 30387 C 2858.44 0.8696 -1.75206 0
M  V30 30388 C 2858.82 1.98583 -0.716098 0
M  V30 30389 O 2858.17 2.26993 0.261992 0
M  V30 30390 C 2858.38 1.39661 -3.19837 0
M  V30 30391 C 2859.73 1.85338 -3.82014 0
M  V30 30392 O 2860.75 1.49365 -3.23371 0
M  V30 30393 O 2859.61 2.51735 -4.85069 0
M  V30 30394 H 2856.71 0.412144 -0.716984 0
M  V30 30395 H 2859.25 0.11481 -1.69311 0
M  V30 30396 H 2858.03 0.59522 -3.86746 0
M  V30 30397 H 2857.65 2.21442 -3.30226 0
M  V30 30398 N 2858.65 1.52438 0.400055 0
M  V30 30399 C 2859.56 1.79334 1.5125 0
M  V30 30400 C 2860.57 0.679425 1.60187 0
M  V30 30401 O 2861.75 0.965822 1.76731 0
M  V30 30402 C 2858.81 1.94657 2.86896 0
M  V30 30403 C 2857.87 3.18569 2.87772 0
M  V30 30404 C 2857.11 3.33152 4.16948 0
M  V30 30405 O 2857.33 2.52792 5.11324 0
M  V30 30406 O 2856.26 4.26351 4.24863 0
M  V30 30407 H 2860.09 2.73775 1.31456 0
M  V30 30408 H 2857.67 1.37393 0.58681 0
M  V30 30409 H 2859.56 2.06507 3.67332 0
M  V30 30410 H 2858.23 1.03405 3.06739 0
M  V30 30411 H 2857.14 3.1217 2.06157 0
M  V30 30412 H 2858.47 4.09631 2.72879 0
M  V30 30413 N 2860.12 -0.657839 1.43214 0
M  V30 30414 C 2861.06 -1.78271 1.42459 0
M  V30 30415 C 2862.03 -1.60054 0.286626 0
M  V30 30416 O 2863.22 -1.82299 0.479499 0
M  V30 30417 C 2860.35 -3.15509 1.23174 0
M  V30 30418 C 2859.39 -3.52438 2.40187 0
M  V30 30419 S 2860.22 -3.52937 4.02735 0
M  V30 30420 C 2861.38 -4.92839 3.85824 0
M  V30 30421 H 2861.61 -1.7864 2.37645 0
M  V30 30422 H 2859.15 -0.830062 1.3019 0
M  V30 30423 H 2861.1 -3.94717 1.12735 0
M  V30 30424 H 2859.77 -3.12707 0.295453 0
M  V30 30425 H 2858.96 -4.52235 2.22486 0
M  V30 30426 H 2858.56 -2.80631 2.47229 0
M  V30 30427 H 2860.85 -5.81375 3.47864 0
M  V30 30428 H 2861.8 -5.15591 4.85357 0
M  V30 30429 H 2862.2 -4.66156 3.18369 0
M  V30 30430 N 2861.6 -1.29668 -0.895769 0
M  V30 30431 C 2862.88 -1.08541 -1.62721 0
M  V30 30432 C 2863.26 0.369083 -2.07848 0
M  V30 30433 O 2862.61 1.35861 -1.83723 0
M  V30 30434 C 2862.82 -2.07653 -2.80502 0
M  V30 30435 C 2864.16 -2.38786 -3.51093 0
M  V30 30436 O 2865.19 -2.05879 -2.90676 0
M  V30 30437 O 2864.05 -2.95028 -4.60023 0
M  V30 30438 H 2861.14 -0.416119 -0.714685 0
M  V30 30439 H 2863.69 -1.41054 -0.943492 0
M  V30 30440 H 2862.46 -3.05604 -2.44381 0
M  V30 30441 H 2862.08 -1.75893 -3.56577 0
M  V30 30442 N 2863.08 1.10667 -1.12208 0
M  V30 30443 C 2864.03 2.19026 -0.782957 0
M  V30 30444 C 2865.02 1.67843 0.229145 0
M  V30 30445 O 2866.23 1.79787 0.0875979 0
M  V30 30446 H 2862.6 0.714223 -0.235351 0
M  V30 30447 H 2864.57 2.44871 -1.70531 0
M  V30 30448 C 2863.32 3.46791 -0.251221 0
M  V30 30449 H 2862.65 3.86535 -1.0213 0
M  V30 30450 H 2864.09 4.23968 -0.0522154 0
M  V30 30451 C 2862.54 3.21078 1.02031 0
M  V30 30452 O 2863.07 3.42525 2.09855 0
M  V30 30453 N 2861.28 2.74761 0.946299 0
M  V30 30454 H 2860.83 2.57508 0.0687317 0
M  V30 30455 H 2860.79 2.57934 1.7977 0
M  V30 30456 N 2864.56 0.913621 1.28416 0
M  V30 30457 C 2865.52 0.406663 2.25563 0
M  V30 30458 C 2866.52 -0.466938 1.53871 0
M  V30 30459 O 2867.71 -0.270012 1.72095 0
M  V30 30460 C 2864.84 -0.416993 3.3834 0
M  V30 30461 H 2866.04 1.26482 2.71923 0
M  V30 30462 H 2863.59 0.693011 1.40097 0
M  V30 30463 H 2864.32 -1.29456 2.97341 0
M  V30 30464 H 2864.11 0.209171 3.91542 0
M  V30 30465 H 2865.6 -0.76253 4.10579 0
M  V30 30466 N 2866.04 -1.4229 0.677588 0
M  V30 30467 C 2867 -2.29198 0.0101488 0
M  V30 30468 C 2868 -1.43468 -0.726193 0
M  V30 30469 O 2869.19 -1.64825 -0.563778 0
M  V30 30470 C 2866.32 -3.26018 -0.996259 0
M  V30 30471 H 2867.51 -2.8971 0.775122 0
M  V30 30472 H 2865.07 -1.49976 0.440091 0
M  V30 30473 H 2865.8 -2.70449 -1.78963 0
M  V30 30474 H 2865.59 -3.89253 -0.471618 0
M  V30 30475 H 2867.08 -3.91187 -1.4616 0
M  V30 30476 N 2867.51 -0.421104 -1.5187 0
M  V30 30477 C 2868.74 0.152334 -2.0684 0
M  V30 30478 C 2869.16 1.37081 -1.28804 0
M  V30 30479 O 2868.52 1.78426 -0.321513 0
M  V30 30480 C 2868.57 0.469305 -3.57533 0
M  V30 30481 O 2867.67 1.55842 -3.81821 0
M  V30 30482 H 2867.01 0.00897419 -0.663939 0
M  V30 30483 H 2869.54 -0.597759 -1.95673 0
M  V30 30484 H 2869.55 0.724482 -4.01516 0
M  V30 30485 H 2868.23 -0.421349 -4.1376 0
M  V30 30486 H 2866.81 1.29447 -3.49711 0
M  V30 30487 N 2868.99 1.56866 -0.151912 0
M  V30 30488 C 2870.27 1.87903 0.543295 0
M  V30 30489 C 2870.65 1.05868 1.82634 0
M  V30 30490 O 2870 0.146908 2.28027 0
M  V30 30491 C 2870.21 3.39613 0.803997 0
M  V30 30492 C 2871.56 4.08937 1.1426 0
M  V30 30493 O 2872.58 3.4482 0.893187 0
M  V30 30494 O 2871.44 5.22179 1.6122 0
M  V30 30495 H 2868.53 0.778977 0.277711 0
M  V30 30496 H 2871.08 1.68645 -0.188892 0
M  V30 30497 H 2869.85 3.91162 -0.103841 0
M  V30 30498 H 2869.47 3.64416 1.59019 0
M  V30 30499 N 2870.47 -0.121866 1.57128 0
M  V30 30500 C 2871.4 -1.15089 2.03167 0
M  V30 30501 C 2872.38 -1.43355 0.915612 0
M  V30 30502 O 2873.57 -1.53845 1.18513 0
M  V30 30503 C 2870.7 -2.4778 2.43357 0
M  V30 30504 C 2869.65 -2.33982 3.5838 0
M  V30 30505 C 2868.98 -3.7161 3.84461 0
M  V30 30506 C 2870.28 -1.80274 4.90203 0
M  V30 30507 H 2871.97 -0.767972 2.89383 0
M  V30 30508 H 2869.52 -0.367973 1.39219 0
M  V30 30509 H 2871.47 -3.20015 2.74169 0
M  V30 30510 H 2870.19 -2.87955 1.54108 0
M  V30 30511 H 2868.85 -1.64196 3.27773 0
M  V30 30512 H 2868.5 -4.09266 2.92422 0
M  V30 30513 H 2868.2 -3.63232 4.61883 0
M  V30 30514 H 2869.72 -4.45354 4.17722 0
M  V30 30515 H 2871.14 -2.42324 5.19569 0
M  V30 30516 H 2869.54 -1.82725 5.71605 0
M  V30 30517 H 2870.61 -0.7601 4.78906 0
M  V30 30518 N 2871.95 -1.52648 -0.391965 0
M  V30 30519 C 2872.88 -1.80183 -1.48514 0
M  V30 30520 C 2873.86 -0.653694 -1.57038 0
M  V30 30521 O 2875.04 -0.900992 -1.72034 0
M  V30 30522 C 2872.17 -1.96802 -2.86158 0
M  V30 30523 C 2871.13 -3.12477 -2.92476 0
M  V30 30524 C 2870.45 -3.14345 -4.3254 0
M  V30 30525 C 2871.75 -4.51606 -2.62392 0
M  V30 30526 H 2873.45 -2.71725 -1.25721 0
M  V30 30527 H 2870.99 -1.3075 -0.603364 0
M  V30 30528 H 2872.95 -2.14647 -3.62635 0
M  V30 30529 H 2871.67 -1.01946 -3.10281 0
M  V30 30530 H 2870.33 -2.9441 -2.18445 0
M  V30 30531 H 2869.98 -2.17178 -4.53699 0
M  V30 30532 H 2869.68 -3.92049 -4.37688 0
M  V30 30533 H 2871.2 -3.34342 -5.10928 0
M  V30 30534 H 2872.62 -4.6979 -3.28588 0
M  V30 30535 H 2871.01 -5.31355 -2.78894 0
M  V30 30536 H 2872.08 -4.58524 -1.57746 0
M  V30 30537 N 2873.43 0.650235 -1.43561 0
M  V30 30538 C 2874.39 1.74486 -1.48618 0
M  V30 30539 C 2875.39 1.56473 -0.37051 0
M  V30 30540 O 2876.58 1.62316 -0.632379 0
M  V30 30541 C 2873.71 3.13388 -1.34166 0
M  V30 30542 H 2874.9 1.71382 -2.46106 0
M  V30 30543 H 2872.46 0.862163 -1.3037 0
M  V30 30544 H 2873.19 3.22102 -0.376974 0
M  V30 30545 H 2872.98 3.27868 -2.15046 0
M  V30 30546 H 2874.47 3.93204 -1.40644 0
M  V30 30547 N 2874.9 1.30141 0.88888 0
M  V30 30548 C 2875.84 1.12003 1.9997 0
M  V30 30549 C 2876.85 0.0643905 1.62673 0
M  V30 30550 O 2878.04 0.310013 1.75787 0
M  V30 30551 C 2875.14 0.685118 3.31903 0
M  V30 30552 C 2874.31 1.82165 3.97661 0
M  V30 30553 C 2873.37 1.37594 5.07892 0
M  V30 30554 O 2872.4 2.0825 5.29736 0
M  V30 30555 N 2873.6 0.252799 5.79949 0
M  V30 30556 H 2876.36 2.07675 2.16082 0
M  V30 30557 H 2873.92 1.22225 1.06173 0
M  V30 30558 H 2875.92 0.370035 4.03005 0
M  V30 30559 H 2874.49 -0.179452 3.12084 0
M  V30 30560 H 2873.71 2.30505 3.19783 0
M  V30 30561 H 2874.99 2.58339 4.38336 0
M  V30 30562 H 2874.39 -0.336042 5.64701 0
M  V30 30563 H 2872.95 -0.00285356 6.518 0
M  V30 30564 N 2876.38 -1.1007 1.12794 0
M  V30 30565 C 2877.63 -1.8175 0.883828 0
M  V30 30566 C 2877.95 -1.85801 -0.591858 0
M  V30 30567 O 2877.22 -1.33879 -1.43015 0
M  V30 30568 H 2875.8 -0.673082 0.32399 0
M  V30 30569 H 2878.46 -1.33162 1.42316 0
M  V30 30570 H 2877.56 -2.85151 1.26868 0
M  V30 30571 N 2877.86 -0.920419 -1.2793 0
M  V30 30572 C 2879.09 -0.573122 -1.98804 0
M  V30 30573 C 2879.5 0.847171 -1.68726 0
M  V30 30574 O 2878.86 1.56205 -0.943726 0
M  V30 30575 C 2878.91 -0.780695 -3.52969 0
M  V30 30576 O 2878.63 -2.14511 -3.81991 0
M  V30 30577 C 2880.13 -0.441127 -4.411 0
M  V30 30578 H 2877.35 -0.217861 -0.634648 0
M  V30 30579 H 2879.9 -1.23545 -1.62963 0
M  V30 30580 H 2878.05 -0.165272 -3.87047 0
M  V30 30581 H 2878.47 -2.1897 -4.76605 0
M  V30 30582 H 2879.94 -0.637102 -5.48311 0
M  V30 30583 H 2880.42 0.622984 -4.34759 0
M  V30 30584 H 2881.02 -1.03438 -4.1253 0
M  V30 30585 N 2879.34 1.41929 -0.685124 0
M  V30 30586 C 2880.56 2.06242 -0.218878 0
M  V30 30587 C 2880.99 1.5118 1.1192 0
M  V30 30588 O 2880.35 0.634476 1.69835 0
M  V30 30589 C 2880.39 3.60172 -0.175655 0
M  V30 30590 O 2879.5 4.03488 0.852705 0
M  V30 30591 H 2878.84 0.654902 -0.109542 0
M  V30 30592 H 2881.37 1.81881 -0.937045 0
M  V30 30593 H 2881.38 4.08 -0.00298323 0
M  V30 30594 H 2880.05 3.99619 -1.15229 0
M  V30 30595 H 2878.63 3.67187 0.650236 0
M  V30 30596 N 2880.82 0.429152 1.51644 0
M  V30 30597 C 2882.04 -0.141363 2.06918 0
M  V30 30598 C 2882.47 -1.36396 1.29529 0
M  V30 30599 O 2881.82 -1.78253 0.330971 0
M  V30 30600 C 2881.87 -0.450337 3.57777 0
M  V30 30601 O 2880.98 -1.53815 3.82642 0
M  V30 30602 H 2880.32 -0.00545303 0.663978 0
M  V30 30603 H 2882.85 0.608127 1.95353 0
M  V30 30604 H 2882.86 -0.703178 4.01895 0
M  V30 30605 H 2881.53 0.443286 4.13531 0
M  V30 30606 H 2880.11 -1.27591 3.50393 0
M  V30 30607 N 2882.29 -1.56783 0.160229 0
M  V30 30608 C 2883.22 -2.20431 -0.770225 0
M  V30 30609 C 2884.21 -1.15653 -1.24734 0
M  V30 30610 O 2885.39 -1.44043 -1.30251 0
M  V30 30611 C 2882.52 -2.83634 -2.00422 0
M  V30 30612 C 2881.47 -3.94355 -1.66338 0
M  V30 30613 C 2880.8 -4.44555 -2.97111 0
M  V30 30614 C 2882.1 -5.14489 -0.899882 0
M  V30 30615 H 2883.79 -2.98439 -0.239731 0
M  V30 30616 H 2881.34 -1.43549 -0.113866 0
M  V30 30617 H 2883.29 -3.26831 -2.66006 0
M  V30 30618 H 2882.02 -2.02978 -2.55866 0
M  V30 30619 H 2880.68 -3.51796 -1.03127 0
M  V30 30620 H 2880.32 -3.60704 -3.50573 0
M  V30 30621 H 2880.02 -5.19243 -2.75064 0
M  V30 30622 H 2881.55 -4.90431 -3.63744 0
M  V30 30623 H 2882.96 -5.54448 -1.45808 0
M  V30 30624 H 2881.36 -5.95024 -0.778864 0
M  V30 30625 H 2882.43 -4.84784 0.105912 0
M  V30 30626 N 2883.77 0.113531 -1.57191 0
M  V30 30627 C 2885 0.833179 -1.89055 0
M  V30 30628 C 2885.41 1.73693 -0.75017 0
M  V30 30629 O 2884.75 1.81432 0.287776 0
M  V30 30630 C 2884.82 1.71438 -3.15989 0
M  V30 30631 C 2884.48 0.984371 -4.46272 0
M  V30 30632 C 2885.48 0.32265 -5.18898 0
M  V30 30633 C 2883.16 0.963924 -4.92964 0
M  V30 30634 C 2885.16 -0.349758 -6.3644 0
M  V30 30635 C 2882.84 0.287721 -6.10422 0
M  V30 30636 C 2883.84 -0.36796 -6.82008 0
M  V30 30637 O 2883.53 -1.03336 -7.97231 0
M  V30 30638 H 2883.26 0.244515 -0.630229 0
M  V30 30639 H 2885.82 0.100811 -2.05152 0
M  V30 30640 H 2884.05 2.48853 -2.95989 0
M  V30 30641 H 2885.73 2.30894 -3.33831 0
M  V30 30642 H 2886.5 0.330029 -4.83876 0
M  V30 30643 H 2882.38 1.46371 -4.37146 0
M  V30 30644 H 2885.92 -0.862118 -6.92252 0
M  V30 30645 H 2881.82 0.278123 -6.44901 0
M  V30 30646 H 2882.59 -0.93839 -8.13103 0
M  V30 30647 N 2885.25 1.52854 0.383864 0
M  V30 30648 C 2886.48 1.72332 1.15397 0
M  V30 30649 C 2886.9 0.443012 1.82809 0
M  V30 30650 O 2886.26 -0.601615 1.71027 0
M  V30 30651 C 2886.31 2.87712 2.17381 0
M  V30 30652 O 2885.41 2.55044 3.24078 0
M  V30 30653 H 2884.75 0.572889 0.335699 0
M  V30 30654 H 2887.28 1.99667 0.446585 0
M  V30 30655 H 2887.29 3.13355 2.61291 0
M  V30 30656 H 2885.97 3.8059 1.67703 0
M  V30 30657 H 2884.54 2.40158 2.85269 0
M  V30 30658 N 2886.73 -0.642612 1.43904 0
M  V30 30659 C 2888.01 -1.4004 1.36558 0
M  V30 30660 C 2888.39 -2.11092 0.0185959 0
M  V30 30661 O 2887.73 -2.05534 -0.998402 0
M  V30 30662 C 2887.94 -2.37633 2.556 0
M  V30 30663 C 2889.29 -3.01313 2.99158 0
M  V30 30664 O 2890.32 -2.4796 2.55723 0
M  V30 30665 O 2889.18 -3.98072 3.74434 0
M  V30 30666 H 2886.27 -0.626189 0.5402 0
M  V30 30667 H 2888.82 -0.66863 1.55973 0
M  V30 30668 H 2887.59 -1.84151 3.45259 0
M  V30 30669 H 2887.21 -3.18245 2.3834 0
M  V30 30670 N 2888.21 -1.30611 -0.881966 0
M  V30 30671 C 2889.12 -1.19178 -2.02074 0
M  V30 30672 C 2890.13 -0.11105 -1.73645 0
M  V30 30673 O 2891.31 -0.326563 -1.98735 0
M  V30 30674 C 2888.37 -0.887496 -3.35148 0
M  V30 30675 C 2887.44 -2.0539 -3.76979 0
M  V30 30676 C 2886.67 -1.76404 -5.03704 0
M  V30 30677 O 2886.89 -0.693401 -5.6617 0
M  V30 30678 O 2885.83 -2.61733 -5.42014 0
M  V30 30679 H 2889.65 -2.14849 -2.14648 0
M  V30 30680 H 2887.24 -1.10233 -1.00841 0
M  V30 30681 H 2889.12 -0.733133 -4.14974 0
M  V30 30682 H 2887.79 0.0392785 -3.23676 0
M  V30 30683 H 2886.7 -2.2636 -2.97845 0
M  V30 30684 H 2888.03 -2.9625 -3.93061 0
M  V30 30685 N 2889.69 1.0947 -1.13376 0
M  V30 30686 C 2890.6 2.1965 -0.824068 0
M  V30 30687 C 2891.61 1.72947 0.191149 0
M  V30 30688 O 2892.79 2.01388 0.022311 0
M  V30 30689 C 2889.85 3.45451 -0.29407 0
M  V30 30690 C 2888.91 4.06837 -1.37047 0
M  V30 30691 C 2888.15 5.26633 -0.865672 0
M  V30 30692 O 2888.37 5.69627 0.29692 0
M  V30 30693 O 2887.3 5.79133 -1.63978 0
M  V30 30694 H 2891.13 2.48592 -1.74458 0
M  V30 30695 H 2888.71 1.18397 -0.911176 0
M  V30 30696 H 2890.6 4.214 -0.00388446 0
M  V30 30697 H 2889.27 3.18112 0.598865 0
M  V30 30698 H 2888.18 3.32527 -1.71397 0
M  V30 30699 H 2889.51 4.38401 -2.23754 0
M  V30 30700 N 2891.16 0.92719 1.2744 0
M  V30 30701 C 2892.39 0.583077 1.99035 0
M  V30 30702 C 2892.81 -0.831731 1.68712 0
M  V30 30703 O 2892.17 -1.55802 0.927108 0
M  V30 30704 C 2892.22 0.814986 3.5127 0
M  V30 30705 O 2891.32 -0.119669 4.12226 0
M  V30 30706 H 2890.66 0.224549 0.624879 0
M  V30 30707 H 2893.19 1.2463 1.6226 0
M  V30 30708 H 2893.2 0.730353 4.0141 0
M  V30 30709 H 2891.88 1.8463 3.72672 0
M  V30 30710 H 2890.46 0.0148344 3.72897 0
M  V30 30711 N 2892.64 -1.41564 0.692641 0
M  V30 30712 C 2893.89 -2.00502 0.219487 0
M  V30 30713 C 2894.2 -1.55481 -1.1868 0
M  V30 30714 O 2895.41 -2.06959 -1.75727 0
M  V30 30715 C 2893.87 -3.58276 0.341514 0
M  V30 30716 C 2893.47 -4.1228 1.75299 0
M  V30 30717 C 2895.22 -4.24439 -0.0720153 0
M  V30 30718 C 2893.12 -5.62478 1.82682 0
M  V30 30719 H 2892.05 -0.749923 0.0783006 0
M  V30 30720 H 2894.71 -1.62078 0.860414 0
M  V30 30721 H 2893.09 -3.9429 -0.367614 0
M  V30 30722 H 2894.26 -3.87691 2.49064 0
M  V30 30723 H 2892.58 -3.58632 2.11593 0
M  V30 30724 H 2895.17 -5.34687 -0.0372445 0
M  V30 30725 H 2895.52 -4.01222 -1.11026 0
M  V30 30726 H 2896.05 -3.93449 0.586733 0
M  V30 30727 H 2892.79 -5.90518 2.8455 0
M  V30 30728 H 2892.31 -5.89002 1.13298 0
M  V30 30729 H 2893.99 -6.272 1.58838 0
M  V30 30730 N 2894.12 -0.437188 -1.51415 0
M  V30 30731 C 2895.05 0.364881 -2.30631 0
M  V30 30732 C 2896.03 1.02116 -1.36038 0
M  V30 30733 O 2897.22 1.02482 -1.64958 0
M  V30 30734 C 2894.35 1.46642 -3.14823 0
M  V30 30735 C 2893.3 0.933644 -4.17693 0
M  V30 30736 C 2892.63 2.13092 -4.90404 0
M  V30 30737 C 2893.93 -0.0318119 -5.2229 0
M  V30 30738 H 2895.62 -0.296193 -2.97931 0
M  V30 30739 H 2893.17 -0.14389 -1.43279 0
M  V30 30740 H 2895.12 2.03474 -3.69021 0
M  V30 30741 H 2893.84 2.15578 -2.45344 0
M  V30 30742 H 2892.5 0.387538 -3.64546 0
M  V30 30743 H 2892.15 2.80647 -4.17428 0
M  V30 30744 H 2891.85 1.78082 -5.59965 0
M  V30 30745 H 2893.37 2.70478 -5.47425 0
M  V30 30746 H 2894.79 0.446202 -5.71561 0
M  V30 30747 H 2893.18 -0.294475 -5.99377 0
M  V30 30748 H 2894.25 -0.968531 -4.75129 0
M  V30 30749 N 2895.6 1.56696 -0.168541 0
M  V30 30750 C 2896.82 2.0161 0.486653 0
M  V30 30751 C 2897.25 1.04799 1.56201 0
M  V30 30752 O 2896.61 0.0270914 1.8128 0
M  V30 30753 C 2896.65 3.45143 1.04445 0
M  V30 30754 O 2895.76 3.51397 2.15856 0
M  V30 30755 H 2895.1 0.653643 0.116819 0
M  V30 30756 H 2897.63 2.02789 -0.271615 0
M  V30 30757 H 2897.64 3.84391 1.36775 0
M  V30 30758 H 2896.31 4.15105 0.257082 0
M  V30 30759 H 2894.89 3.24007 1.84591 0
M  V30 30760 N 2897.08 -0.105193 1.57249 0
M  V30 30761 C 2898.49 -0.459127 1.52853 0
M  V30 30762 C 2898.69 -1.81088 0.883706 0
M  V30 30763 O 2897.75 -2.48051 0.471908 0
M  V30 30764 C 2899.06 -0.430908 2.97596 0
M  V30 30765 C 2900.61 -0.513482 3.08759 0
M  V30 30766 C 2901.08 -0.515514 4.5509 0
M  V30 30767 N 2902.57 -0.576558 4.59598 0
M  V30 30768 C 2903.31 -0.599804 5.70254 0
M  V30 30769 N 2902.81 -0.579863 6.90369 0
M  V30 30770 N 2904.6 -0.643855 5.584 0
M  V30 30771 H 2896.75 0.780341 1.97546 0
M  V30 30772 H 2899.01 0.289379 0.902753 0
M  V30 30773 H 2898.72 0.494964 3.482 0
M  V30 30774 H 2898.59 -1.25363 3.55758 0
M  V30 30775 H 2900.98 -1.42977 2.5815 0
M  V30 30776 H 2901.06 0.337192 2.53568 0
M  V30 30777 H 2900.7 0.39679 5.06348 0
M  V30 30778 H 2900.63 -1.38326 5.08108 0
M  V30 30779 H 2903.13 -0.597573 3.73145 0
M  V30 30780 H 2903.44 -0.600606 7.70463 0
M  V30 30781 H 2901.78 -0.54707 6.92844 0
M  V30 30782 H 2904.97 -0.656893 4.63468 0
M  V30 30783 H 2905.15 -0.658503 6.44645 0
M  V30 30784 N 2898.55 -1.53055 -0.375752 0
M  V30 30785 C 2899.8 -1.68744 -1.11945 0
M  V30 30786 C 2900.13 -0.434048 -1.89595 0
M  V30 30787 O 2899.38 0.583834 -1.86788 0
M  V30 30788 C 2899.68 -2.88211 -2.11351 0
M  V30 30789 C 2899.35 -4.25127 -1.50259 0
M  V30 30790 C 2898.01 -4.62361 -1.33325 0
M  V30 30791 C 2900.36 -5.10314 -1.05967 0
M  V30 30792 C 2897.69 -5.82429 -0.706663 0
M  V30 30793 C 2900.04 -6.31018 -0.44713 0
M  V30 30794 C 2898.71 -6.66973 -0.265196 0
M  V30 30795 H 2897.98 -0.617478 -0.409637 0
M  V30 30796 H 2900.62 -1.87223 -0.402459 0
M  V30 30797 H 2898.93 -2.64202 -2.89317 0
M  V30 30798 H 2900.63 -2.97544 -2.68828 0
M  V30 30799 H 2897.22 -3.95804 -1.6443 0
M  V30 30800 H 2901.4 -4.82106 -1.17847 0
M  V30 30801 H 2896.66 -6.08885 -0.554025 0
M  V30 30802 H 2900.83 -6.96334 -0.095684 0
M  V30 30803 H 2898.46 -7.59875 0.222401 0
M  V30 30804 N 2900.03 0.634971 -1.44242 0
M  V30 30805 C 2901.31 1.39314 -1.37299 0
M  V30 30806 C 2901.69 2.11079 -0.0297903 0
M  V30 30807 O 2901.04 2.06061 0.987488 0
M  V30 30808 C 2901.25 2.36274 -2.56857 0
M  V30 30809 C 2902.6 2.99722 -3.00752 0
M  V30 30810 O 2903.62 2.466 -2.57034 0
M  V30 30811 O 2902.48 3.96081 -3.7654 0
M  V30 30812 H 2899.57 0.623315 -0.543514 0
M  V30 30813 H 2902.12 0.660349 -1.56325 0
M  V30 30814 H 2900.89 1.82318 -3.46231 0
M  V30 30815 H 2900.51 3.16977 -2.40024 0
M  V30 30816 N 2901.51 1.31076 0.875027 0
M  V30 30817 C 2902.42 1.20248 2.01439 0
M  V30 30818 C 2903.44 0.120258 1.73584 0
M  V30 30819 O 2904.61 0.337098 1.98559 0
M  V30 30820 C 2901.68 0.905258 3.34673 0
M  V30 30821 C 2900.74 2.07386 3.75885 0
M  V30 30822 C 2899.97 1.79073 5.02761 0
M  V30 30823 O 2900.19 0.723417 5.65794 0
M  V30 30824 O 2899.13 2.64604 5.40619 0
M  V30 30825 H 2902.95 2.15984 2.13506 0
M  V30 30826 H 2900.54 1.10767 1.00255 0
M  V30 30827 H 2902.42 0.75513 4.14579 0
M  V30 30828 H 2901.1 -0.0221126 3.23692 0
M  V30 30829 H 2900 2.27937 2.96641 0
M  V30 30830 H 2901.34 2.9833 3.91484 0
M  V30 30831 N 2902.99 -1.08867 1.13955 0
M  V30 30832 C 2903.9 -2.1921 0.835705 0
M  V30 30833 C 2904.91 -1.73046 -0.181975 0
M  V30 30834 O 2906.09 -2.01397 -0.0116307 0
M  V30 30835 C 2903.16 -3.4529 0.312386 0
M  V30 30836 C 2902.22 -4.06105 1.39203 0
M  V30 30837 C 2901.45 -5.26166 0.893589 0
M  V30 30838 O 2901.67 -5.69776 -0.266707 0
M  V30 30839 O 2900.61 -5.78255 1.67047 0
M  V30 30840 H 2904.43 -2.47664 1.75774 0
M  V30 30841 H 2902.02 -1.17913 0.917442 0
M  V30 30842 H 2903.9 -4.21392 0.0262323 0
M  V30 30843 H 2902.57 -3.18425 -0.581986 0
M  V30 30844 H 2901.48 -3.31613 1.73158 0
M  V30 30845 H 2902.81 -4.37208 2.26075 0
M  V30 30846 N 2904.47 -0.933936 -1.26946 0
M  V30 30847 C 2905.74 -0.495817 -1.89212 0
M  V30 30848 C 2906.12 1.02634 -1.84471 0
M  V30 30849 O 2905.47 1.88321 -1.29412 0
M  V30 30850 C 2905.68 -1.04896 -3.32863 0
M  V30 30851 C 2907.03 -1.11322 -4.09747 0
M  V30 30852 O 2908.05 -0.999026 -3.41903 0
M  V30 30853 O 2906.91 -1.28992 -5.31059 0
M  V30 30854 H 2904.01 -0.160473 -0.811281 0
M  V30 30855 H 2906.55 -1.02603 -1.35169 0
M  V30 30856 H 2905.32 -2.09271 -3.30638 0
M  V30 30857 H 2904.95 -0.500761 -3.94434 0
M  V30 30858 N 2905.94 1.41194 -0.700139 0
M  V30 30859 C 2906.87 2.33442 -0.0521542 0
M  V30 30860 C 2907.86 1.52065 0.762254 0
M  V30 30861 O 2909.04 1.80586 0.714304 0
M  V30 30862 C 2906.17 3.35923 0.881634 0
M  V30 30863 C 2905.12 4.27646 0.173987 0
M  V30 30864 C 2904.45 5.20539 1.22244 0
M  V30 30865 C 2905.75 5.13355 -0.962487 0
M  V30 30866 H 2907.44 2.87877 -0.822625 0
M  V30 30867 H 2904.99 1.38418 -0.397036 0
M  V30 30868 H 2906.94 3.99385 1.34422 0
M  V30 30869 H 2905.67 2.79848 1.68382 0
M  V30 30870 H 2904.33 3.65615 -0.268615 0
M  V30 30871 H 2903.97 4.60776 2.01728 0
M  V30 30872 H 2903.67 5.82743 0.753935 0
M  V30 30873 H 2905.2 5.86877 1.68545 0
M  V30 30874 H 2906.61 5.70359 -0.579975 0
M  V30 30875 H 2905.01 5.84524 -1.35838 0
M  V30 30876 H 2906.08 4.50249 -1.80011 0
M  V30 30877 N 2907.42 0.445212 1.51181 0
M  V30 30878 C 2908.67 -0.118375 2.01753 0
M  V30 30879 C 2908.99 -1.42521 1.33089 0
M  V30 30880 O 2908.26 -1.9023 0.467924 0
M  V30 30881 H 2906.84 -0.0467361 0.745537 0
M  V30 30882 H 2909.5 0.58972 1.85764 0
M  V30 30883 H 2908.6 -0.28861 3.10763 0
M  V30 30884 N 2908.9 -1.56605 0.176849 0
M  V30 30885 C 2910.18 -1.88744 -0.513332 0
M  V30 30886 C 2910.56 -1.0876 -1.80927 0
M  V30 30887 O 2909.91 -0.183167 -2.27765 0
M  V30 30888 C 2910.12 -3.40849 -0.749865 0
M  V30 30889 C 2911.46 -4.10703 -1.0774 0
M  V30 30890 O 2912.49 -3.46197 -0.838216 0
M  V30 30891 O 2911.35 -5.24677 -1.52892 0
M  V30 30892 H 2908.44 -0.783297 -0.265283 0
M  V30 30893 H 2910.99 -1.68324 0.215698 0
M  V30 30894 H 2909.76 -3.90947 0.166058 0
M  V30 30895 H 2909.38 -3.66899 -1.53201 0
M  V30 30896 N 2910.38 0.0968524 -1.57302 0
M  V30 30897 C 2911.29 1.13602 -2.0526 0
M  V30 30898 C 2912.3 1.43971 -0.977162 0
M  V30 30899 O 2913.48 1.54647 -1.2902 0
M  V30 30900 C 2910.55 2.43702 -2.46597 0
M  V30 30901 C 2909.61 2.20532 -3.68326 0
M  V30 30902 C 2908.84 3.44428 -4.07682 0
M  V30 30903 O 2909.06 4.52597 -3.47149 0
M  V30 30904 O 2908 3.3412 -5.00647 0
M  V30 30905 H 2911.82 0.7587 -2.9407 0
M  V30 30906 H 2909.41 0.309237 -1.46165 0
M  V30 30907 H 2911.29 3.20313 -2.7382 0
M  V30 30908 H 2909.96 2.80864 -1.60925 0
M  V30 30909 H 2908.87 1.41707 -3.46222 0
M  V30 30910 H 2910.2 1.88263 -4.54772 0
M  V30 30911 N 2911.86 1.53252 0.36763 0
M  V30 30912 C 2912.79 1.74326 1.47261 0
M  V30 30913 C 2913.77 0.591562 1.51457 0
M  V30 30914 O 2914.95 0.823912 1.6954 0
M  V30 30915 C 2912.08 1.8202 2.85634 0
M  V30 30916 C 2911.12 3.03972 2.99171 0
M  V30 30917 S 2911.96 4.63532 2.68139 0
M  V30 30918 C 2913.11 4.74072 4.08664 0
M  V30 30919 H 2913.35 2.67776 1.29165 0
M  V30 30920 H 2910.88 1.43815 0.561841 0
M  V30 30921 H 2912.84 1.87138 3.65362 0
M  V30 30922 H 2911.5 0.896248 3.01042 0
M  V30 30923 H 2910.69 3.0596 4.00505 0
M  V30 30924 H 2910.29 2.96956 2.27362 0
M  V30 30925 H 2912.59 4.54001 5.02881 0
M  V30 30926 H 2913.53 5.76127 4.11683 0
M  V30 30927 H 2913.94 4.02723 3.95569 0
M  V30 30928 N 2913.34 -0.627313 1.44577 0
M  V30 30929 C 2914.3 -1.721 1.51375 0
M  V30 30930 C 2915.3 -1.55864 0.395357 0
M  V30 30931 O 2916.49 -1.6129 0.658122 0
M  V30 30932 C 2913.62 -3.11214 1.39135 0
M  V30 30933 H 2914.81 -1.67445 2.48801 0
M  V30 30934 H 2912.37 -0.841313 1.31726 0
M  V30 30935 H 2913.1 -3.21461 0.42817 0
M  V30 30936 H 2912.89 -3.24406 2.20235 0
M  V30 30937 H 2914.38 -3.90916 1.46881 0
M  V30 30938 N 2914.81 -1.31539 -0.868063 0
M  V30 30939 C 2916.05 -1.22635 -1.63524 0
M  V30 30940 C 2916.42 0.211782 -1.90828 0
M  V30 30941 O 2917.62 0.424341 -2.65429 0
M  V30 30942 C 2915.89 -2.04881 -2.92846 0
M  V30 30943 S 2917.45 -2.1286 -3.83714 0
M  V30 30944 H 2914.27 -0.436752 -0.561042 0
M  V30 30945 H 2916.87 -1.66225 -1.02905 0
M  V30 30946 H 2915.57 -3.08453 -2.70712 0
M  V30 30947 H 2915.1 -1.62018 -3.58488 0
M  V30 30948 H 2917.12 -1.26831 -4.79717 0
M  V30 30949 N 2916.29 1.08262 -1.1453 0
M  V30 30950 C 2917.54 1.80945 -0.915791 0
M  V30 30951 C 2917.87 1.86065 0.556197 0
M  V30 30952 O 2917.15 1.33759 1.41205 0
M  V30 30953 C 2917.43 3.26484 -1.51922 0
M  V30 30954 C 2917.28 3.29565 -3.06116 0
M  V30 30955 C 2918.6 4.235 -1.19732 0
M  V30 30956 H 2915.72 0.656909 -0.334124 0
M  V30 30957 H 2918.36 1.26743 -1.41549 0
M  V30 30958 H 2916.51 3.72771 -1.09427 0
M  V30 30959 H 2918.18 2.9159 -3.57453 0
M  V30 30960 H 2916.43 2.68794 -3.40488 0
M  V30 30961 H 2917.1 4.32145 -3.43445 0
M  V30 30962 H 2919.57 3.85558 -1.56474 0
M  V30 30963 H 2918.45 5.23644 -1.64584 0
M  V30 30964 H 2918.71 4.41956 -0.112849 0
M  V30 30965 N 2917.77 0.940655 1.26449 0
M  V30 30966 C 2918.72 0.420708 2.24085 0
M  V30 30967 C 2919.7 -0.482274 1.53502 0
M  V30 30968 O 2920.9 -0.317606 1.74127 0
M  V30 30969 C 2918.02 -0.313392 3.41867 0
M  V30 30970 C 2917.11 0.606852 4.19736 0
M  V30 30971 N 2917.5 1.7324 4.75207 0
M  V30 30972 C 2915.8 0.412338 4.4409 0
M  V30 30973 C 2916.5 2.30582 5.34048 0
M  V30 30974 N 2915.48 1.5939 5.19707 0
M  V30 30975 H 2919.28 1.27991 2.64567 0
M  V30 30976 H 2916.79 0.796461 1.41528 0
M  V30 30977 H 2918.79 -0.702919 4.10931 0
M  V30 30978 H 2917.45 -1.16937 3.02912 0
M  V30 30979 H 2918.46 2.11456 4.72765 0
M  V30 30980 H 2915.14 -0.401911 4.15561 0
M  V30 30981 H 2916.53 3.25414 5.8784 0
M  V30 30982 N 2919.25 -1.40821 0.707617 0
M  V30 30983 C 2920.21 -2.29125 0.0587627 0
M  V30 30984 C 2921.21 -1.44976 -0.695598 0
M  V30 30985 O 2922.4 -1.65983 -0.528689 0
M  V30 30986 C 2919.53 -3.28057 -0.926881 0
M  V30 30987 H 2920.73 -2.88001 0.8364 0
M  V30 30988 H 2918.28 -1.49009 0.471804 0
M  V30 30989 H 2919.01 -2.74185 -1.73186 0
M  V30 30990 H 2918.8 -3.90166 -0.388946 0
M  V30 30991 H 2920.29 -3.94199 -1.3783 0
M  V30 30992 N 2920.73 -0.453223 -1.50943 0
M  V30 30993 C 2921.66 0.340399 -2.31005 0
M  V30 30994 C 2922.64 1.00667 -1.37114 0
M  V30 30995 O 2923.82 1.00727 -1.66035 0
M  V30 30996 C 2920.95 1.43295 -3.1636 0
M  V30 30997 C 2919.91 0.889289 -4.18659 0
M  V30 30998 C 2919.23 2.07879 -4.92636 0
M  V30 30999 C 2920.53 -0.087206 -5.22227 0
M  V30 31000 H 2922.23 -0.327775 -2.976 0
M  V30 31001 H 2919.77 -0.159079 -1.43119 0
M  V30 31002 H 2921.72 1.99549 -3.71158 0
M  V30 31003 H 2920.45 2.12964 -2.47617 0
M  V30 31004 H 2919.11 0.348851 -3.64936 0
M  V30 31005 H 2918.76 2.76204 -4.20381 0
M  V30 31006 H 2918.46 1.72133 -5.61822 0
M  V30 31007 H 2919.98 2.64656 -5.50263 0
M  V30 31008 H 2921.39 0.385555 -5.72002 0
M  V30 31009 H 2919.79 -0.358031 -5.99031 0
M  V30 31010 H 2920.86 -1.01887 -4.74075 0
M  V30 31011 O 2922.24 1.58168 -0.326379 0
M  V30 31012 H 2922.93 1.92295 0.232856 0
M  V30 END ATOM
M  V30 BEGIN BOND
M  V30 END BOND
M  V30 END CTAB
M  END
$$$$
