drugbank_target|P0A793 Aspartate 1-decarboxylase (DB02175; DB03382)
 OpenBabel12092119553D

  0  0  0     0  0            999 V3000
M  V30 BEGIN CTAB
M  V30 COUNTS 1930 1947 0 0 0
M  V30 BEGIN ATOM
M  V30 1 H -0.908 1.98254 -0.117106 0
M  V30 2 N 0 1.576 0 0
M  V30 3 C 0.933 2.03868 1.02534 0
M  V30 4 C 1.911 0.928543 1.3348 0
M  V30 5 O 3.095 1.19667 1.45644 0
M  V30 6 C 0.222 2.43627 2.35294 0
M  V30 7 C -0.732 3.65373 2.2001 0
M  V30 8 S 0.101 5.13292 1.52614 0
M  V30 9 C 1.257 5.56322 2.86805 0
M  V30 10 H 1.49 2.90518 0.631377 0
M  V30 11 H -0.977 1.52953 0.210867 0
M  V30 12 H 0.981 2.67203 3.11629 0
M  V30 13 H -0.358 1.57376 2.7183 0
M  V30 14 H -1.165 3.90944 3.18086 0
M  V30 15 H -1.563 3.418 1.51819 0
M  V30 16 H 0.729 5.58782 3.83104 0
M  V30 17 H 1.672 6.56266 2.65933 0
M  V30 18 H 2.08 4.83886 2.90714 0
M  V30 19 N 1.4781 -0.272755 1.55222 0
M  V30 20 C 2.7271 -1.00211 1.75045 0
M  V30 21 C 3.0401 -1.87441 0.559046 0
M  V30 22 O 4.2461 -2.63856 0.639698 0
M  V30 23 C 2.7021 -1.83165 3.09804 0
M  V30 24 C 2.3101 -1.008 4.36513 0
M  V30 25 C 4.0541 -2.55529 3.38977 0
M  V30 26 C 1.9611 -1.83194 5.62311 0
M  V30 27 H 0.8911 -0.377878 0.652476 0
M  V30 28 H 3.5421 -0.257776 1.8168 0
M  V30 29 H 1.9241 -2.61694 2.97207 0
M  V30 30 H 3.0981 -0.266855 4.60027 0
M  V30 31 H 1.4131 -0.398897 4.14485 0
M  V30 32 H 4.0101 -3.17578 4.30172 0
M  V30 33 H 4.3531 -3.25825 2.59121 0
M  V30 34 H 4.8861 -1.84029 3.52673 0
M  V30 35 H 1.6251 -1.17318 6.44916 0
M  V30 36 H 1.1451 -2.54905 5.4294 0
M  V30 37 H 2.8241 -2.40552 6.00619 0
M  V30 38 N 2.9562 -1.48159 -0.537278 0
M  V30 39 C 4.3722 -1.34118 -0.865129 0
M  V30 40 C 4.5722 -0.346678 -1.98495 0
M  V30 41 O 3.6282 0.234715 -2.51407 0
M  V30 42 C 4.9412 -2.73963 -1.23954 0
M  V30 43 C 6.4892 -2.82397 -1.34984 0
M  V30 44 C 6.9642 -4.22928 -1.75772 0
M  V30 45 N 8.4552 -4.25566 -1.82887 0
M  V30 46 C 9.1902 -5.31235 -2.15817 0
M  V30 47 N 8.6862 -6.47189 -2.47222 0
M  V30 48 N 10.4792 -5.18624 -2.16761 0
M  V30 49 H 2.6302 -2.1144 0.201715 0
M  V30 50 H 4.8932 -0.947598 0.0275949 0
M  V30 51 H 4.5992 -3.48264 -0.490381 0
M  V30 52 H 4.4732 -3.0702 -2.19132 0
M  V30 53 H 6.8602 -2.08356 -2.08978 0
M  V30 54 H 6.9412 -2.5297 -0.379448 0
M  V30 55 H 6.5852 -4.97482 -1.02341 0
M  V30 56 H 6.5152 -4.49794 -2.73848 0
M  V30 57 H 9.0062 -3.41924 -1.60924 0
M  V30 58 H 9.3192 -7.23564 -2.71433 0
M  V30 59 H 7.6642 -6.50476 -2.44757 0
M  V30 60 H 10.8552 -4.27056 -1.91679 0
M  V30 61 H 11.0282 -6.01078 -2.42093 0
M  V30 62 N 4.4343 0.785586 -1.36625 0
M  V30 63 C 5.6623 1.57448 -1.3423 0
M  V30 64 C 6.0773 1.88649 0.0755653 0
M  V30 65 O 5.4343 1.50414 1.03354 0
M  V30 66 C 5.4853 2.89316 -2.16745 0
M  V30 67 O 5.2063 2.59459 -3.53005 0
M  V30 68 C 6.7073 3.83606 -2.22174 0
M  V30 69 H 3.9273 0.488226 -0.4603 0
M  V30 70 H 6.4713 0.974733 -1.79775 0
M  V30 71 H 4.6263 3.4575 -1.74745 0
M  V30 72 H 5.0403 3.43804 -3.96105 0
M  V30 73 H 6.5143 4.73181 -2.8426 0
M  V30 74 H 6.9913 4.21734 -1.22627 0
M  V30 75 H 7.5973 3.33104 -2.64427 0
M  V30 76 N 5.9124 1.20967 1.01018 0
M  V30 77 C 6.8454 0.907578 2.09376 0
M  V30 78 C 7.8234 -0.142868 1.61971 0
M  V30 79 O 9.0074 -0.0150391 1.88494 0
M  V30 80 C 6.1344 0.361791 3.36762 0
M  V30 81 C 5.1804 1.39423 4.03068 0
M  V30 82 S 6.0134 2.96159 4.4615 0
M  V30 83 C 7.1694 2.43173 5.7673 0
M  V30 84 H 7.4024 1.82519 2.34678 0
M  V30 85 H 4.9354 1.03884 1.14225 0
M  V30 86 H 6.8934 0.0534523 4.10465 0
M  V30 87 H 5.5544 -0.53443 3.0952 0
M  V30 88 H 4.7474 0.961853 4.94737 0
M  V30 89 H 4.3494 1.65038 3.35617 0
M  V30 90 H 6.6414 1.83335 6.52223 0
M  V30 91 H 7.5844 3.33264 6.24773 0
M  V30 92 H 7.9924 1.85069 5.33301 0
M  V30 93 N 7.3905 -1.2043 1.01659 0
M  V30 94 C 8.3205 -2.25466 0.607226 0
M  V30 95 C 9.3015 -1.65853 -0.377716 0
M  V30 96 O 10.4865 -1.92409 -0.263149 0
M  V30 97 C 7.6165 -3.47256 -0.0552949 0
M  V30 98 C 6.5705 -4.19462 0.850632 0
M  V30 99 C 5.8965 -5.34673 0.0538859 0
M  V30 100 C 7.1965 -4.75603 2.15868 0
M  V30 101 H 8.8905 -2.59962 1.48526 0
M  V30 102 H 6.4365 -1.2496 0.715605 0
M  V30 103 H 8.3895 -4.19917 -0.353233 0
M  V30 104 H 7.1135 -3.11924 -0.968045 0
M  V30 105 H 5.7725 -3.48667 1.13257 0
M  V30 106 H 5.4205 -4.95585 -0.860514 0
M  V30 107 H 5.1205 -5.83913 0.657192 0
M  V30 108 H 6.6445 -6.10138 -0.237598 0
M  V30 109 H 8.0585 -5.40083 1.92311 0
M  V30 110 H 6.4555 -5.3528 2.71284 0
M  V30 111 H 7.5255 -3.94346 2.82169 0
M  V30 112 N 8.8686 -0.792821 -1.36206 0
M  V30 113 C 9.8006 -0.151469 -2.28699 0
M  V30 114 C 10.8136 0.641262 -1.49638 0
M  V30 115 O 12.0026 0.475885 -1.72039 0
M  V30 116 C 9.1026 0.808424 -3.29117 0
M  V30 117 C 8.2756 0.0650202 -4.37352 0
M  V30 118 C 7.3346 0.941358 -5.17711 0
M  V30 119 O 6.3606 0.397352 -5.67811 0
M  V30 120 N 7.5626 2.2652 -5.3448 0
M  V30 121 H 10.3276 -0.945982 -2.84379 0
M  V30 122 H 7.8886 -0.647032 -1.48409 0
M  V30 123 H 9.8806 1.3986 -3.79765 0
M  V30 124 H 8.4506 1.5038 -2.74052 0
M  V30 125 H 7.6706 -0.706255 -3.87822 0
M  V30 126 H 8.9586 -0.447847 -5.06825 0
M  V30 127 H 8.3566 2.73128 -4.95396 0
M  V30 128 H 6.9136 2.80493 -5.88359 0
M  V30 129 N 10.3467 1.47872 -0.545128 0
M  V30 130 C 11.5947 2.02093 -0.016553 0
M  V30 131 C 11.9157 1.42305 1.3332 0
M  V30 132 O 11.1857 0.593853 1.86682 0
M  V30 133 H 9.7657 0.746993 -0.00313038 0
M  V30 134 H 12.4277 1.81414 -0.712397 0
M  V30 135 H 11.5237 3.11996 0.0805422 0
M  V30 136 N 11.8248 0.280983 1.55075 0
M  V30 137 C 12.7718 -0.603937 2.22758 0
M  V30 138 C 13.7418 -1.1452 1.20309 0
M  V30 139 O 14.9268 -1.19343 1.48869 0
M  V30 140 C 12.0668 -1.77947 2.95684 0
M  V30 141 C 11.1798 -1.2715 4.12864 0
M  V30 142 C 10.3148 -2.4093 4.7342 0
M  V30 143 C 9.3538 -1.87165 5.82783 0
M  V30 144 N 8.4908 -2.94441 6.37377 0
M  V30 145 H 13.3308 -0.020124 2.97993 0
M  V30 146 H 10.8678 0.00183425 1.471 0
M  V30 147 H 12.8258 -2.47055 3.36184 0
M  V30 148 H 11.4558 -2.33522 2.22861 0
M  V30 149 H 10.5078 -0.473331 3.77444 0
M  V30 150 H 11.8198 -0.837751 4.91715 0
M  V30 151 H 10.9738 -3.18021 5.1667 0
M  V30 152 H 9.7128 -2.87623 3.93859 0
M  V30 153 H 8.7178 -1.08556 5.38976 0
M  V30 154 H 9.9428 -1.41401 6.64216 0
M  V30 155 H 7.8888 -3.40505 5.60707 0
M  V30 156 H 7.8058 -2.55501 7.11516 0
M  V30 157 H 9.0738 -3.71489 6.85285 0
M  V30 158 N 13.3029 -1.57598 0.00835791 0
M  V30 159 C 14.2329 -2.1198 -0.979113 0
M  V30 160 C 15.2139 -1.03091 -1.35301 0
M  V30 161 O 16.3989 -1.30818 -1.43528 0
M  V30 162 C 13.5289 -2.62995 -2.26828 0
M  V30 163 C 12.4829 -3.76485 -2.03576 0
M  V30 164 C 11.8089 -4.13846 -3.38579 0
M  V30 165 C 13.1089 -5.0342 -1.39161 0
M  V30 166 H 14.8029 -2.94738 -0.526281 0
M  V30 167 H 12.3489 -1.41783 -0.251704 0
M  V30 168 H 14.3019 -2.99669 -2.96271 0
M  V30 169 H 13.0259 -1.7737 -2.7424 0
M  V30 170 H 11.6849 -3.40217 -1.36557 0
M  V30 171 H 11.3329 -3.25232 -3.83709 0
M  V30 172 H 11.0329 -4.90312 -3.23834 0
M  V30 173 H 12.5569 -4.53086 -4.09323 0
M  V30 174 H 13.9709 -5.37812 -1.98573 0
M  V30 175 H 12.3679 -5.84746 -1.34878 0
M  V30 176 H 13.4379 -4.83548 -0.361868 0
M  V30 177 N 14.781 0.264519 -1.55364 0
M  V30 178 C 15.731 1.32966 -1.85214 0
M  V30 179 C 16.715 1.44306 -0.711653 0
M  V30 180 O 17.907 1.47844 -0.973192 0
M  V30 181 C 15.036 2.68839 -2.13495 0
M  V30 182 C 14.122 2.61575 -3.33825 0
M  V30 183 N 14.513 2.23933 -4.53528 0
M  V30 184 C 12.811 2.92621 -3.36584 0
M  V30 185 C 13.512 2.26868 -5.35636 0
M  V30 186 N 12.488 2.65677 -4.74254 0
M  V30 187 H 16.29 1.02884 -2.75304 0
M  V30 188 H 13.804 0.473157 -1.55354 0
M  V30 189 H 15.801 3.45685 -2.33039 0
M  V30 190 H 14.461 2.99802 -1.24694 0
M  V30 191 H 15.472 1.95769 -4.79474 0
M  V30 192 H 12.149 3.2824 -2.58002 0
M  V30 193 H 13.539 2.00254 -6.41364 0
M  V30 194 N 16.2591 1.48442 0.529413 0
M  V30 195 C 17.6751 1.34575 0.858004 0
M  V30 196 C 17.8751 0.3572 1.98309 0
M  V30 197 O 16.9311 -0.221379 2.51528 0
M  V30 198 C 18.2441 2.74617 1.22499 0
M  V30 199 C 19.7921 2.83109 1.33484 0
M  V30 200 C 20.2671 4.23854 1.73526 0
M  V30 201 N 21.7581 4.2653 1.80628 0
M  V30 202 C 22.4931 5.32372 2.12997 0
M  V30 203 N 21.9891 6.48491 2.43786 0
M  V30 204 N 23.7821 5.19766 2.14008 0
M  V30 205 H 15.9331 2.1133 -0.212925 0
M  V30 206 H 18.1961 0.947439 -0.0326199 0
M  V30 207 H 17.9021 3.4852 0.471905 0
M  V30 208 H 17.7761 3.08177 2.17501 0
M  V30 209 H 20.1631 2.09462 2.0787 0
M  V30 210 H 20.2441 2.53168 0.366027 0
M  V30 211 H 19.8881 4.98018 0.997013 0
M  V30 212 H 19.8181 4.5124 2.71459 0
M  V30 213 H 22.3091 3.42772 1.59108 0
M  V30 214 H 22.6221 7.24993 2.67592 0
M  V30 215 H 20.9671 6.51765 2.41304 0
M  V30 216 H 24.1581 4.28066 1.89412 0
M  V30 217 H 24.3311 6.02354 2.38902 0
M  V30 218 N 17.7372 -0.778329 1.37039 0
M  V30 219 C 18.9832 -1.53892 1.32079 0
M  V30 220 C 19.3162 -1.9396 -0.0965386 0
M  V30 221 O 18.5912 -1.63568 -1.05242 0
M  V30 222 C 18.8742 -2.80847 2.25382 0
M  V30 223 C 18.7272 -2.47076 3.75864 0
M  V30 224 C 20.0462 -3.82741 2.1725 0
M  V30 225 H 17.1652 -0.558303 0.48111 0
M  V30 226 H 19.8072 -0.893397 1.67685 0
M  V30 227 H 17.9572 -3.35931 1.95148 0
M  V30 228 H 19.6292 -1.97957 4.16666 0
M  V30 229 H 17.8722 -1.79863 3.94755 0
M  V30 230 H 18.5432 -3.37798 4.36574 0
M  V30 231 H 21.0192 -3.37133 2.43887 0
M  V30 232 H 19.8952 -4.69303 2.84686 0
M  V30 233 H 20.1562 -4.2652 1.16331 0
M  V30 234 N 19.2153 -1.21501 -1.00376 0
M  V30 235 C 20.1623 -0.975387 -2.09177 0
M  V30 236 C 21.1323 0.0990615 -1.65804 0
M  V30 237 O 22.3173 -0.0483147 -1.90739 0
M  V30 238 C 19.4573 -0.547507 -3.40729 0
M  V30 239 C 18.5703 -1.69153 -3.97506 0
M  V30 240 C 17.7053 -1.2127 -5.17172 0
M  V30 241 C 16.7443 -2.32897 -5.66061 0
M  V30 242 N 15.8813 -1.86138 -6.76976 0
M  V30 243 H 20.7213 -1.9068 -2.29009 0
M  V30 244 H 18.2583 -0.950257 -1.12288 0
M  V30 245 H 20.2163 -0.280667 -4.16255 0
M  V30 246 H 18.8463 0.346904 -3.20931 0
M  V30 247 H 17.8983 -2.07298 -3.18954 0
M  V30 248 H 19.2103 -2.5316 -4.29781 0
M  V30 249 H 18.3643 -0.902591 -5.99948 0
M  V30 250 H 17.1033 -0.342692 -4.86495 0
M  V30 251 H 16.1083 -2.64709 -4.81881 0
M  V30 252 H 17.3333 -3.20396 -5.98768 0
M  V30 253 H 15.2793 -1.01484 -6.48103 0
M  V30 254 H 15.1963 -2.63717 -7.08512 0
M  V30 255 H 16.4643 -1.58165 -7.63285 0
M  V30 256 N 20.6934 1.19889 -1.02296 0
M  V30 257 C 21.9394 1.89701 -0.717033 0
M  V30 258 C 22.2724 1.7905 0.751989 0
M  V30 259 O 21.5474 1.17891 1.547 0
M  V30 260 C 21.8304 3.40858 -1.16136 0
M  V30 261 C 21.6834 3.60411 -2.69117 0
M  V30 262 C 23.0024 4.33876 -0.737549 0
M  V30 263 H 20.1214 0.688874 -0.261957 0
M  V30 264 H 22.7634 1.41154 -1.27183 0
M  V30 265 H 20.9134 3.82335 -0.689342 0
M  V30 266 H 22.5854 3.28145 -3.2422 0
M  V30 267 H 20.8284 3.03665 -3.0979 0
M  V30 268 H 21.4994 4.66396 -2.95261 0
M  V30 269 H 23.9754 4.00081 -1.14344 0
M  V30 270 H 22.8514 5.38242 -1.0764 0
M  V30 271 H 23.1124 4.40628 0.360436 0
M  V30 272 N 22.1715 0.800033 1.35784 0
M  V30 273 C 23.3995 0.389606 2.03199 0
M  V30 274 C 23.8145 -0.997375 1.60306 0
M  V30 275 O 23.1715 -1.64154 0.797481 0
M  V30 276 C 23.2225 0.455855 3.58614 0
M  V30 277 O 22.9435 1.78815 3.99946 0
M  V30 278 C 24.4445 0.0374032 4.43284 0
M  V30 279 H 21.6645 0.159132 0.651857 0
M  V30 280 H 24.2085 1.08183 1.73541 0
M  V30 281 H 22.3635 -0.188057 3.86943 0
M  V30 282 H 22.7775 1.74636 4.94573 0
M  V30 283 H 24.2515 0.134882 5.51835 0
M  V30 284 H 24.7285 -1.01651 4.27275 0
M  V30 285 H 25.3345 0.654215 4.20238 0
M  V30 286 N 23.6496 -1.47581 0.552962 0
M  V30 287 C 24.5996 -2.26961 -0.217423 0
M  V30 288 C 25.5836 -1.34099 -0.889168 0
M  V30 289 O 26.7756 -1.58483 -0.788176 0
M  V30 290 C 23.9046 -3.19756 -1.24944 0
M  V30 291 C 22.9906 -4.20097 -0.581327 0
M  V30 292 N 23.3816 -5.04614 0.346171 0
M  V30 293 C 21.6796 -4.38099 -0.835767 0
M  V30 294 C 22.3806 -5.77052 0.733854 0
M  V30 295 N 21.3566 -5.43526 0.0896567 0
M  V30 296 H 25.1586 -2.89688 0.495761 0
M  V30 297 H 22.6726 -1.58068 0.372597 0
M  V30 298 H 24.6696 -3.75305 -1.81527 0
M  V30 299 H 23.3296 -2.58585 -1.96376 0
M  V30 300 H 24.3406 -5.12869 0.720098 0
M  V30 301 H 21.0176 -3.88102 -1.53892 0
M  V30 302 H 22.4076 -6.5504 1.49574 0
M  V30 303 N 25.1277 -0.289203 -1.54924 0
M  V30 304 C 26.0907 0.579144 -2.21762 0
M  V30 305 C 27.0907 1.07047 -1.1999 0
M  V30 306 O 28.2807 0.968384 -1.44803 0
M  V30 307 C 25.4127 1.80055 -2.8947 0
M  V30 308 H 26.6057 -0.00464908 -2.999 0
M  V30 309 H 24.1587 -0.0399306 -1.56249 0
M  V30 310 H 24.8937 2.42449 -2.15381 0
M  V30 311 H 24.6787 1.45602 -3.64064 0
M  V30 312 H 26.1687 2.41773 -3.40493 0
M  V30 313 N 26.6058 1.57591 -0.0167156 0
M  V30 314 C 27.8828 1.82547 0.702564 0
M  V30 315 C 28.2628 0.898018 1.91047 0
M  V30 316 O 27.6108 -0.0493456 2.28447 0
M  V30 317 C 27.8208 3.31459 1.09251 0
M  V30 318 C 29.1688 3.97622 1.48937 0
M  V30 319 O 30.1928 3.35881 1.18584 0
M  V30 320 O 29.0518 5.06415 2.05442 0
M  V30 321 H 26.1458 0.752268 0.343544 0
M  V30 322 H 28.6918 1.69644 -0.0434495 0
M  V30 323 H 27.4638 3.9061 0.23227 0
M  V30 324 H 27.0868 3.49422 1.89709 0
M  V30 325 N 28.0839 -0.256276 1.55502 0
M  V30 326 C 29.0139 -1.32102 1.92539 0
M  V30 327 C 29.9949 -1.50684 0.789194 0
M  V30 328 O 31.1799 -1.63449 1.04872 0
M  V30 329 C 28.3099 -2.67752 2.21192 0
M  V30 330 C 27.2639 -2.63878 3.36975 0
M  V30 331 C 26.5899 -4.03236 3.51147 0
M  V30 332 C 27.8899 -2.21682 4.72921 0
M  V30 333 H 29.5839 -1.01351 2.81724 0
M  V30 334 H 27.1299 -0.486105 1.35547 0
M  V30 335 H 29.0829 -3.42365 2.45691 0
M  V30 336 H 27.8069 -3.0012 1.28824 0
M  V30 337 H 26.4659 -1.91722 3.12471 0
M  V30 338 H 26.1139 -4.32854 2.56216 0
M  V30 339 H 25.8139 -4.01535 4.29003 0
M  V30 340 H 27.3379 -4.79563 3.77957 0
M  V30 341 H 28.7519 -2.86023 4.96854 0
M  V30 342 H 27.1489 -2.3111 5.53812 0
M  V30 343 H 28.2189 -1.16833 4.70615 0
M  V30 344 N 29.562 -1.4872 -0.521534 0
M  V30 345 C 30.512 -1.60269 -1.62166 0
M  V30 346 C 31.496 -0.45935 -1.54204 0
M  V30 347 O 32.688 -0.711241 -1.62081 0
M  V30 348 C 29.817 -1.65344 -3.00859 0
M  V30 349 C 28.903 -2.85187 -3.13894 0
M  V30 350 N 29.294 -4.09509 -2.96877 0
M  V30 351 C 27.592 -2.82695 -3.44963 0
M  V30 352 C 28.293 -4.89959 -3.13552 0
M  V30 353 N 27.269 -4.22934 -3.41508 0
M  V30 354 H 31.071 -2.5413 -1.47632 0
M  V30 355 H 28.585 -1.45209 -0.727194 0
M  V30 356 H 30.582 -1.71713 -3.79895 0
M  V30 357 H 29.242 -0.726058 -3.16478 0
M  V30 358 H 30.253 -4.39814 -2.73467 0
M  V30 359 H 26.93 -1.99249 -3.66887 0
M  V30 360 H 28.32 -5.98654 -3.05061 0
M  V30 361 N 31.0401 0.771051 -1.3745 0
M  V30 362 C 32.2701 1.55789 -1.35696 0
M  V30 363 C 32.6781 1.89107 0.0594523 0
M  V30 364 O 32.0211 1.51984 1.03183 0
M  V30 365 C 32.0831 2.89515 -2.13123 0
M  V30 366 C 31.7471 2.78829 -3.62082 0
M  V30 367 C 32.7441 2.49812 -4.5595 0
M  V30 368 C 30.4291 2.9683 -4.05213 0
M  V30 369 C 32.4231 2.38923 -5.90927 0
M  V30 370 C 30.1101 2.85562 -5.40276 0
M  V30 371 C 31.1081 2.56649 -6.32946 0
M  V30 372 O 30.7961 2.45408 -7.65526 0
M  V30 373 H 30.5281 0.489257 -0.466481 0
M  V30 374 H 33.0821 0.963446 -1.81403 0
M  V30 375 H 31.3121 3.51081 -1.62107 0
M  V30 376 H 33.0011 3.50915 -2.03994 0
M  V30 377 H 33.7671 2.3559 -4.23937 0
M  V30 378 H 29.6461 3.18335 -3.33442 0
M  V30 379 H 33.1901 2.16277 -6.63227 0
M  V30 380 H 29.0871 2.99351 -5.71891 0
M  V30 381 H 29.8551 2.60753 -7.75855 0
M  V30 382 N 32.5182 1.22032 0.997298 0
M  V30 383 C 33.4282 1.00271 2.12092 0
M  V30 384 C 34.4442 -0.047621 1.73935 0
M  V30 385 O 35.6202 0.144136 2.00884 0
M  V30 386 C 32.6852 0.578449 3.4184 0
M  V30 387 C 31.7462 1.70189 3.94125 0
M  V30 388 C 30.9792 1.29778 5.17681 0
M  V30 389 O 31.2022 0.174676 5.70132 0
M  V30 390 O 30.1362 2.11261 5.63607 0
M  V30 391 H 33.9622 1.94398 2.3333 0
M  V30 392 H 31.5472 1.00587 1.10465 0
M  V30 393 H 33.4292 0.351998 4.19927 0
M  V30 394 H 32.1042 -0.334019 3.21972 0
M  V30 395 H 31.0112 1.98282 3.1723 0
M  V30 396 H 32.3442 2.59206 4.18417 0
M  V30 397 N 33.9963 -1.19345 1.0293 0
M  V30 398 C 35.2443 -1.88665 0.724574 0
M  V30 399 C 35.5653 -1.80036 -0.749144 0
M  V30 400 O 34.8353 -1.2111 -1.53978 0
M  V30 401 H 33.4153 -0.698406 0.265025 0
M  V30 402 H 36.0773 -1.44885 1.30362 0
M  V30 403 H 35.1733 -2.94987 1.01926 0
M  V30 404 N 35.4744 -0.807222 -1.35358 0
M  V30 405 C 36.6994 -0.399309 -2.0352 0
M  V30 406 C 37.1244 0.981986 -1.60433 0
M  V30 407 O 36.4824 1.63601 -0.781299 0
M  V30 408 C 36.5304 -0.491552 -3.57234 0
M  V30 409 O 35.6344 0.494754 -4.09421 0
M  V30 410 H 34.9754 -0.166682 -0.642739 0
M  V30 411 H 37.5054 -1.09328 -1.72941 0
M  V30 412 H 37.5154 -0.361588 -4.06395 0
M  V30 413 H 36.1904 -1.49907 -3.87944 0
M  V30 414 H 34.7674 0.324977 -3.71481 0
M  V30 415 N 36.9525 1.47285 -0.560781 0
M  V30 416 C 38.1925 2.0436 -0.0404627 0
M  V30 417 C 38.5565 1.42534 1.28639 0
M  V30 418 O 39.7575 1.90677 1.89462 0
M  V30 419 C 38.0285 3.57369 0.0471856 0
M  V30 420 S 39.5875 4.3579 0.513109 0
M  V30 421 H 36.4055 0.710492 -0.0268674 0
M  V30 422 H 39.0075 1.80611 -0.748323 0
M  V30 423 H 37.7115 3.9989 -0.922817 0
M  V30 424 H 37.2425 3.8562 0.778491 0
M  V30 425 H 39.2575 4.63476 1.77212 0
M  V30 426 N 38.4306 0.297415 1.54768 0
M  V30 427 C 39.3936 -0.567375 2.22066 0
M  V30 428 C 40.3936 -1.06409 1.20556 0
M  V30 429 O 41.5836 -0.960691 1.45315 0
M  V30 430 C 38.7156 -1.78517 2.90421 0
M  V30 431 H 39.9086 0.0205534 2.99893 0
M  V30 432 H 37.4616 0.0482163 1.56226 0
M  V30 433 H 38.1966 -2.41303 2.16664 0
M  V30 434 H 37.9816 -1.43669 3.64831 0
M  V30 435 H 39.4716 -2.39964 3.41771 0
M  V30 436 N 39.9087 -1.5758 0.0250728 0
M  V30 437 C 41.1577 -1.90811 -0.653767 0
M  V30 438 C 41.4707 -0.90273 -1.73523 0
M  V30 439 O 42.6767 -1.12614 -2.47043 0
M  V30 440 C 41.1327 -3.38804 -1.21409 0
M  V30 441 C 40.7407 -4.47692 -0.166126 0
M  V30 442 C 42.4847 -3.81108 -1.86967 0
M  V30 443 C 40.3917 -5.86779 -0.737856 0
M  V30 444 H 39.3217 -0.712063 -0.247956 0
M  V30 445 H 41.9727 -1.83281 0.0897137 0
M  V30 446 H 40.3547 -3.41252 -2.00905 0
M  V30 447 H 41.5287 -4.56797 0.606079 0
M  V30 448 H 39.8437 -4.14565 0.390466 0
M  V30 449 H 42.4407 -4.82375 -2.30692 0
M  V30 450 H 42.7837 -3.15953 -2.71071 0
M  V30 451 H 43.3167 -3.81065 -1.14167 0
M  V30 452 H 40.0557 -6.55468 0.0649577 0
M  V30 453 H 39.5757 -5.81288 -1.47864 0
M  V30 454 H 41.2547 -6.35223 -1.22884 0
M  V30 455 N 41.3868 0.248026 -1.55636 0
M  V30 456 C 42.6638 0.998988 -1.68165 0
M  V30 457 C 43.0438 2.03409 -0.564621 0
M  V30 458 O 42.3918 2.24378 0.432076 0
M  V30 459 C 42.6018 1.63334 -3.0842 0
M  V30 460 C 43.9498 2.13562 -3.66983 0
M  V30 461 O 44.9738 1.73277 -3.11213 0
M  V30 462 O 43.8328 2.87526 -4.64749 0
M  V30 463 H 40.9268 0.464933 -0.683935 0
M  V30 464 H 43.4728 0.241902 -1.67967 0
M  V30 465 H 42.2448 0.884583 -3.8117 0
M  V30 466 H 41.8678 2.45666 -3.12624 0
M  V30 467 N 42.8649 1.48995 0.513639 0
M  V30 468 C 43.7969 1.60836 1.63293 0
M  V30 469 C 44.8099 0.491701 1.55197 0
M  V30 470 O 45.9989 0.763238 1.6136 0
M  V30 471 C 43.0989 1.53731 3.02027 0
M  V30 472 C 42.2719 2.80715 3.35437 0
M  V30 473 C 41.3309 2.66837 4.53525 0
M  V30 474 O 40.3569 3.40753 4.55934 0
M  V30 475 N 41.5589 1.77539 5.52684 0
M  V30 476 H 44.3239 2.57366 1.53566 0
M  V30 477 H 41.8849 1.45925 0.701259 0
M  V30 478 H 43.8769 1.42118 3.78926 0
M  V30 479 H 42.4469 0.651092 3.05744 0
M  V30 480 H 41.6669 3.06772 2.47557 0
M  V30 481 H 42.9549 3.64927 3.54551 0
M  V30 482 H 42.3529 1.16719 5.53528 0
M  V30 483 H 40.9099 1.71856 6.28736 0
M  V30 484 N 44.343 -0.763751 1.37857 0
M  V30 485 C 45.62 -1.51244 1.24035 0
M  V30 486 C 46 -2.10472 -0.162649 0
M  V30 487 O 45.348 -1.96206 -1.17112 0
M  V30 488 C 45.558 -2.58694 2.34261 0
M  V30 489 C 46.906 -3.25878 2.72193 0
M  V30 490 O 47.93 -2.68993 2.33497 0
M  V30 491 O 46.789 -4.2874 3.38887 0
M  V30 492 H 43.883 -0.670243 0.484462 0
M  V30 493 H 46.429 -0.800031 1.49658 0
M  V30 494 H 45.201 -2.13105 3.2818 0
M  V30 495 H 44.824 -3.37527 2.10146 0
M  V30 496 N 45.8211 -1.22559 -0.990812 0
M  V30 497 C 47.0681 -1.05141 -1.73065 0
M  V30 498 C 47.3961 0.413191 -1.9006 0
M  V30 499 O 46.6511 1.32257 -1.44245 0
M  V30 500 C 46.9501 -1.71011 -3.13831 0
M  V30 501 C 46.6161 -3.20911 -3.16745 0
M  V30 502 C 45.2781 -3.61812 -3.17247 0
M  V30 503 C 47.6301 -4.16846 -3.12872 0
M  V30 504 C 44.9581 -4.97127 -3.1158 0
M  V30 505 C 47.3101 -5.5214 -3.08746 0
M  V30 506 C 45.9741 -5.92419 -3.07565 0
M  V30 507 H 45.2441 -0.384738 -0.633291 0
M  V30 508 H 47.8911 -1.5235 -1.16025 0
M  V30 509 H 46.1961 -1.16133 -3.74193 0
M  V30 510 H 47.8931 -1.55023 -3.69823 0
M  V30 511 H 44.4831 -2.88344 -3.17105 0
M  V30 512 H 48.6671 -3.86263 -3.11632 0
M  V30 513 H 43.9231 -5.27562 -3.09012 0
M  V30 514 H 48.0971 -6.26201 -3.04705 0
M  V30 515 H 45.7241 -6.97236 -3.02929 0
M  V30 516 N 47.2992 1.18797 -1.03562 0
M  V30 517 C 48.2292 2.24472 -0.643019 0
M  V30 518 C 49.2102 1.66433 0.351283 0
M  V30 519 O 50.3952 1.92803 0.232505 0
M  V30 520 C 47.5252 3.473 4.24935e-05 0
M  V30 521 C 46.4792 4.18055 -0.917257 0
M  V30 522 C 45.8052 5.34519 -0.138941 0
M  V30 523 C 47.1052 4.72109 -2.23407 0
M  V30 524 H 48.7992 2.57566 -1.52643 0
M  V30 525 H 46.3452 1.23806 -0.735394 0
M  V30 526 H 48.2982 4.20426 0.286383 0
M  V30 527 H 47.0222 3.13424 0.918299 0
M  V30 528 H 45.6812 3.46821 -1.1879 0
M  V30 529 H 45.3292 4.96891 0.781562 0
M  V30 530 H 45.0292 5.82794 -0.750005 0
M  V30 531 H 46.5532 6.10438 0.1405 0
M  V30 532 H 47.9672 5.36955 -2.00879 0
M  V30 533 H 46.3642 5.30897 -2.79765 0
M  V30 534 H 47.4342 3.89807 -2.88407 0
M  V30 535 N 48.7773 0.814389 1.34928 0
M  V30 536 C 50.0543 0.321363 1.92942 0
M  V30 537 C 50.4343 -1.19014 1.74353 0
M  V30 538 O 49.7823 -1.99328 1.11716 0
M  V30 539 C 49.9923 0.741323 3.41036 0
M  V30 540 C 51.3403 0.735266 4.18185 0
M  V30 541 O 52.3643 0.68336 3.49584 0
M  V30 542 O 51.2233 0.800703 5.40602 0
M  V30 543 H 48.3173 0.0858893 0.822528 0
M  V30 544 H 50.8633 0.898609 1.43955 0
M  V30 545 H 49.6353 1.78276 3.4833 0
M  V30 546 H 49.2583 0.139307 3.97356 0
M  V30 547 N 50.2554 -1.46986 0.568584 0
M  V30 548 C 51.2184 -2.28624 -0.162366 0
M  V30 549 C 52.2184 -1.37596 -0.832103 0
M  V30 550 O 53.4084 -1.60115 -0.68622 0
M  V30 551 C 50.5404 -3.17596 -1.23878 0
M  V30 552 H 51.7334 -2.94722 0.554899 0
M  V30 553 H 49.2864 -1.52863 0.325976 0
M  V30 554 H 50.0214 -2.56214 -1.98808 0
M  V30 555 H 49.8064 -3.846 -0.763219 0
M  V30 556 H 51.2964 -3.79078 -1.75185 0
M  V30 557 N 51.7335 -0.305618 -1.54608 0
M  V30 558 C 52.6965 0.555591 -2.22364 0
M  V30 559 C 53.6965 1.05768 -1.21119 0
M  V30 560 O 54.8865 0.952972 -1.45822 0
M  V30 561 C 52.0185 1.76974 -2.91364 0
M  V30 562 H 53.2115 -0.0364572 -2.99878 0
M  V30 563 H 50.7645 -0.0565007 -1.56198 0
M  V30 564 H 51.4995 2.40151 -2.17941 0
M  V30 565 H 51.2845 1.41732 -3.65588 0
M  V30 566 H 52.7745 2.38148 -3.43038 0
M  V30 567 N 53.2116 1.57565 -0.0334293 0
M  V30 568 C 54.4596 1.91598 0.642999 0
M  V30 569 C 54.7806 0.910847 1.7242 0
M  V30 570 O 54.0506 -0.0469931 1.95844 0
M  V30 571 H 52.6306 0.707228 0.240496 0
M  V30 572 H 55.2926 1.94726 -0.0822488 0
M  V30 573 H 54.3886 2.92336 1.09298 0
M  V30 574 N 54.6897 -0.239769 1.55765 0
M  V30 575 C 55.9387 -0.964754 1.77131 0
M  V30 576 C 56.2517 -1.86213 0.59868 0
M  V30 577 O 57.4577 -2.6244 0.695522 0
M  V30 578 C 55.9137 -1.76552 3.1362 0
M  V30 579 C 55.5217 -0.915185 4.38553 0
M  V30 580 C 57.2657 -2.48281 3.44321 0
M  V30 581 C 55.1727 -1.71225 5.66071 0
M  V30 582 H 54.1027 -0.363953 0.660344 0
M  V30 583 H 56.7537 -0.219181 1.82186 0
M  V30 584 H 55.1357 -2.55331 3.02691 0
M  V30 585 H 56.3097 -0.169217 4.60489 0
M  V30 586 H 54.6247 -0.310889 4.15238 0
M  V30 587 H 57.2217 -3.08382 4.36812 0
M  V30 588 H 57.5647 -3.20256 2.65973 0
M  V30 589 H 58.0977 -1.76507 3.56497 0
M  V30 590 H 54.8367 -1.03612 6.4726 0
M  V30 591 H 54.3567 -2.43331 5.48224 0
M  V30 592 H 56.0357 -2.27758 6.05587 0
M  V30 593 N 56.1678 -1.49265 -0.50573 0
M  V30 594 C 57.0978 -1.68495 -1.61653 0
M  V30 595 C 58.0788 -0.53366 -1.61512 0
M  V30 596 O 59.2638 -0.76897 -1.78327 0
M  V30 597 C 56.3938 -1.74709 -3.00157 0
M  V30 598 C 55.3478 -2.89581 -3.15162 0
M  V30 599 C 54.6738 -2.80903 -4.5497 0
M  V30 600 C 55.9738 -4.30578 -2.95634 0
M  V30 601 H 57.6678 -2.61493 -1.45814 0
M  V30 602 H 55.2138 -1.25838 -0.70005 0
M  V30 603 H 57.1668 -1.86748 -3.77761 0
M  V30 604 H 55.8908 -0.783067 -3.17074 0
M  V30 605 H 54.5498 -2.77136 -2.39982 0
M  V30 606 H 54.1978 -1.82419 -4.68756 0
M  V30 607 H 53.8978 -3.57999 -4.65951 0
M  V30 608 H 55.4218 -2.94944 -5.34641 0
M  V30 609 H 56.8358 -4.4373 -3.63011 0
M  V30 610 H 55.2328 -5.0886 -3.18091 0
M  V30 611 H 56.3028 -4.45352 -1.91806 0
M  V30 612 N 57.6459 0.756429 -1.3826 0
M  V30 613 C 58.5559 1.9009 -1.37488 0
M  V30 614 C 59.5719 1.71855 -0.272366 0
M  V30 615 O 60.7479 1.94827 -0.510318 0
M  V30 616 C 57.8129 3.25421 -1.19592 0
M  V30 617 C 56.8739 3.56202 -2.39622 0
M  V30 618 C 56.1069 4.85075 -2.2257 0
M  V30 619 O 56.3299 5.57246 -1.21793 0
M  V30 620 O 55.2639 5.15269 -3.11098 0
M  V30 621 H 59.0899 1.93695 -2.33914 0
M  V30 622 H 56.6749 0.901313 -1.1915 0
M  V30 623 H 58.5569 4.06337 -1.11661 0
M  V30 624 H 57.2319 3.22634 -0.262486 0
M  V30 625 H 56.1389 2.75458 -2.53128 0
M  V30 626 H 57.4719 3.63747 -3.31586 0
M  V30 627 N 59.124 1.23083 0.984299 0
M  V30 628 C 60.072 1.00593 2.09723 0
M  V30 629 C 61.066 -0.0538014 1.69315 0
M  V30 630 O 62.272 0.0993719 1.79725 0
M  V30 631 H 58.647 0.30817 0.685956 0
M  V30 632 H 60.618 1.95012 2.2586 0
M  V30 633 C 59.367 0.609601 3.42314 0
M  V30 634 H 58.69 1.41675 3.73856 0
M  V30 635 H 60.13 0.491726 4.21139 0
M  V30 636 C 58.589 -0.681745 3.2993 0
M  V30 637 O 59.119 -1.73192 3.62446 0
M  V30 638 N 57.325 -0.656178 2.83095 0
M  V30 639 H 56.872 0.198759 2.56832 0
M  V30 640 H 56.83 -1.52044 2.75191 0
M  V30 641 N 60.6021 -1.18246 1.0419 0
M  V30 642 C 61.5121 -2.25574 0.644476 0
M  V30 643 C 62.5281 -1.70845 -0.329826 0
M  V30 644 O 63.7041 -2.00554 -0.184443 0
M  V30 645 C 60.7691 -3.46697 0.014877 0
M  V30 646 C 59.8301 -4.16554 1.03834 0
M  V30 647 C 59.0631 -5.31894 0.438692 0
M  V30 648 O 59.2861 -5.65385 -0.754752 0
M  V30 649 O 58.2201 -5.90459 1.168 0
M  V30 650 H 62.0461 -2.61836 1.53869 0
M  V30 651 H 59.6311 -1.25352 0.812854 0
M  V30 652 H 61.5131 -4.20062 -0.335538 0
M  V30 653 H 60.1881 -3.12255 -0.853138 0
M  V30 654 H 59.0951 -3.45251 1.44057 0
M  V30 655 H 60.4281 -4.54998 1.87716 0
M  V30 656 N 62.0802 -0.821533 -1.34494 0
M  V30 657 C 63.0432 -0.247847 -2.27856 0
M  V30 658 C 64.0432 0.573453 -1.50227 0
M  V30 659 O 65.2332 0.389759 -1.69784 0
M  V30 660 C 62.3652 0.652698 -3.34593 0
M  V30 661 H 63.5582 -1.07146 -2.80107 0
M  V30 662 H 61.1112 -0.593291 -1.44602 0
M  V30 663 H 61.8462 1.49943 -2.87555 0
M  V30 664 H 61.6312 0.065292 -3.92046 0
M  V30 665 H 63.1212 1.04793 -4.04238 0
M  V30 666 N 63.5583 1.46682 -0.576371 0
M  V30 667 C 64.8073 2.01619 -0.0572825 0
M  V30 668 C 65.1203 1.45417 1.30818 0
M  V30 669 O 66.3263 1.92133 1.91825 0
M  V30 670 C 64.7823 3.59863 -0.0518371 0
M  V30 671 C 64.3903 4.25059 -1.41523 0
M  V30 672 C 66.1343 4.2248 0.413639 0
M  V30 673 C 64.0413 5.75364 -1.36785 0
M  V30 674 H 62.9713 0.753794 -0.0176448 0
M  V30 675 H 65.6223 1.68481 -0.727076 0
M  V30 676 H 64.0043 3.90048 0.683994 0
M  V30 677 H 65.1783 4.06491 -2.17029 0
M  V30 678 H 63.4933 3.7451 -1.8202 0
M  V30 679 H 66.0903 5.3265 0.467779 0
M  V30 680 H 66.4333 3.90976 1.42982 0
M  V30 681 H 66.9663 3.96897 -0.267929 0
M  V30 682 H 63.7053 6.11518 -2.36063 0
M  V30 683 H 63.2253 5.96214 -0.654895 0
M  V30 684 H 64.9043 6.37955 -1.07805 0
M  V30 685 N 65.0364 0.313813 1.54444 0
M  V30 686 C 66.3134 -0.345447 1.92525 0
M  V30 687 C 66.6934 -1.70667 1.24242 0
M  V30 688 O 66.0414 -2.25273 0.382654 0
M  V30 689 C 66.2514 -0.44737 3.46121 0
M  V30 690 C 67.5994 -0.712238 4.18584 0
M  V30 691 O 68.6234 -0.530678 3.52225 0
M  V30 692 O 67.4824 -1.06183 5.36085 0
M  V30 693 H 64.5764 -0.195407 0.803583 0
M  V30 694 H 67.1224 0.362813 1.65776 0
M  V30 695 H 65.8944 0.509043 3.87975 0
M  V30 696 H 65.5174 -1.20359 3.78945 0
M  V30 697 N 66.5145 -1.57545 0.0417849 0
M  V30 698 C 67.7635 -1.91494 -0.633492 0
M  V30 699 C 68.0765 -0.921084 -1.72556 0
M  V30 700 O 69.2825 -1.15228 -2.45835 0
M  V30 701 C 67.7385 -3.40072 -1.17808 0
M  V30 702 C 67.3465 -4.47843 -0.118633 0
M  V30 703 C 69.0905 -3.8307 -1.82915 0
M  V30 704 C 66.9975 -5.87529 -0.675578 0
M  V30 705 H 65.9275 -0.714653 -0.24039 0
M  V30 706 H 68.5785 -1.83175 0.109148 0
M  V30 707 H 66.9605 -3.43364 -1.97274 0
M  V30 708 H 68.1345 -4.56128 0.654494 0
M  V30 709 H 66.4495 -4.14128 0.434414 0
M  V30 710 H 69.0465 -4.84794 -2.25563 0
M  V30 711 H 69.3895 -3.1881 -2.67705 0
M  V30 712 H 69.9225 -3.82255 -1.10119 0
M  V30 713 H 66.6615 -6.55362 0.134475 0
M  V30 714 H 66.1815 -5.82824 -1.4169 0
M  V30 715 H 67.8605 -6.36491 -1.1614 0
M  V30 716 N 67.9926 0.231505 -1.5589 0
M  V30 717 C 69.2386 0.954429 -1.79617 0
M  V30 718 C 69.5936 1.82367 -0.613199 0
M  V30 719 O 68.8866 1.87524 0.393094 0
M  V30 720 C 69.0806 1.83577 -3.0665 0
M  V30 721 C 68.9096 1.05334 -4.3719 0
M  V30 722 C 67.6796 0.75225 -4.99669 0
M  V30 723 C 69.8776 0.423444 -5.12554 0
M  V30 724 N 67.8596 -0.052627 -6.13877 0
M  V30 725 C 69.2306 -0.245287 -6.19515 0
M  V30 726 C 71.2856 0.335466 -4.96769 0
M  V30 727 C 69.9886 -0.993566 -7.12405 0
M  V30 728 C 72.0146 -0.399321 -5.9005 0
M  V30 729 C 71.3766 -1.05663 -6.9643 0
M  V30 730 H 67.4756 0.329846 -0.709031 0
M  V30 731 H 70.0596 0.226172 -1.93382 0
M  V30 732 H 68.2306 2.53592 -2.94186 0
M  V30 733 H 69.9626 2.49541 -3.18608 0
M  V30 734 H 66.7176 1.06783 -4.61405 0
M  V30 735 H 67.1416 -0.443609 -6.75545 0
M  V30 736 H 71.7836 0.829311 -4.14587 0
M  V30 737 H 69.5016 -1.49896 -7.94076 0
M  V30 738 H 73.0876 -0.468265 -5.79913 0
M  V30 739 H 71.9676 -1.61612 -7.67366 0
M  V30 740 N 69.4707 1.49531 0.497807 0
M  V30 741 C 70.4187 1.66926 1.61983 0
M  V30 742 C 71.4127 0.535167 1.60724 0
M  V30 743 O 72.6187 0.714896 1.65195 0
M  V30 744 H 68.9937 0.526415 0.537021 0
M  V30 745 H 70.9647 2.61098 1.44465 0
M  V30 746 C 69.7137 1.75602 3.00099 0
M  V30 747 H 69.0367 2.62244 3.01775 0
M  V30 748 H 70.4767 1.91807 3.78135 0
M  V30 749 C 68.9357 0.501543 3.33146 0
M  V30 750 O 69.4657 -0.371342 3.9998 0
M  V30 751 N 67.6717 0.363531 2.88317 0
M  V30 752 H 67.2187 1.07485 2.34104 0
M  V30 753 H 67.1767 -0.474728 3.10795 0
M  V30 754 N 70.9488 -0.749086 1.3866 0
M  V30 755 C 72.1948 -1.51056 1.35314 0
M  V30 756 C 72.5278 -1.94121 -0.0553751 0
M  V30 757 O 71.8028 -1.65763 -1.01749 0
M  V30 758 C 72.0858 -2.76003 2.31288 0
M  V30 759 C 71.9388 -2.39047 3.8102 0
M  V30 760 C 73.2578 -3.78046 2.2532 0
M  V30 761 H 70.3768 -0.547972 0.492844 0
M  V30 762 H 73.0188 -0.857628 1.69543 0
M  V30 763 H 71.1688 -3.31716 2.02229 0
M  V30 764 H 72.8408 -1.89074 4.20771 0
M  V30 765 H 71.0838 -1.71449 3.98482 0
M  V30 766 H 71.7548 -3.28462 4.4364 0
M  V30 767 H 74.2308 -3.31884 2.50983 0
M  V30 768 H 73.1068 -4.63159 2.94576 0
M  V30 769 H 73.3678 -4.23957 1.25352 0
M  V30 770 N 72.4269 -1.23603 -0.977757 0
M  V30 771 C 73.6549 -1.09646 -1.75458 0
M  V30 772 C 74.0699 0.351859 -1.85492 0
M  V30 773 O 73.4269 1.24327 -1.336 0
M  V30 774 C 73.4779 -1.71895 -3.18016 0
M  V30 775 O 73.1989 -3.11063 -3.08498 0
M  V30 776 C 74.6999 -1.63415 -4.12081 0
M  V30 777 H 71.9199 -0.38359 -0.550545 0
M  V30 778 H 74.4639 -1.63507 -1.22824 0
M  V30 779 H 72.6189 -1.22061 -3.67668 0
M  V30 780 H 73.0329 -3.41305 -3.9826 0
M  V30 781 H 74.5069 -2.11669 -5.09804 0
M  V30 782 H 74.9839 -0.593462 -4.35172 0
M  V30 783 H 75.5899 -2.12628 -3.68334 0
M  V30 784 N 73.905 1.17692 -1.04816 0
M  V30 785 C 74.853 2.23632 -0.63966 0
M  V30 786 C 75.847 1.6601 0.337219 0
M  V30 787 O 77.053 1.78844 0.203693 0
M  V30 788 H 73.428 0.727949 -0.188665 0
M  V30 789 H 75.399 2.55387 -1.54337 0
M  V30 790 C 74.148 3.4769 -0.0264051 0
M  V30 791 H 73.471 3.92331 -0.769164 0
M  V30 792 H 74.911 4.23418 0.222098 0
M  V30 793 C 73.37 3.13807 1.22584 0
M  V30 794 O 73.9 3.28236 2.31569 0
M  V30 795 N 72.106 2.68065 1.12202 0
M  V30 796 H 71.653 2.56525 0.235133 0
M  V30 797 H 71.611 2.45767 1.96076 0
M  V30 798 N 75.3831 0.828654 1.34056 0
M  V30 799 C 76.6311 0.41863 1.97717 0
M  V30 800 C 76.9521 -1.02314 1.66002 0
M  V30 801 O 76.2221 -1.71119 0.953683 0
M  V30 802 H 74.8021 0.151809 0.731412 0
M  V30 803 H 77.4641 1.05936 1.63596 0
M  V30 804 H 76.5601 0.542318 3.07352 0
M  V30 805 N 76.8612 -1.46375 0.584142 0
M  V30 806 C 77.8082 -2.30323 -0.148286 0
M  V30 807 C 78.7782 -1.40703 -0.882713 0
M  V30 808 O 79.9632 -1.69651 -0.873099 0
M  V30 809 C 77.1032 -3.25196 -1.15507 0
M  V30 810 C 76.2162 -4.29915 -0.423943 0
M  V30 811 C 75.3512 -5.11914 -1.41838 0
M  V30 812 C 74.3902 -6.08381 -0.673736 0
M  V30 813 N 73.5272 -6.83242 -1.6163 0
M  V30 814 H 78.3672 -2.92427 0.573644 0
M  V30 815 H 75.9042 -1.44118 0.294703 0
M  V30 816 H 77.8622 -3.78646 -1.75166 0
M  V30 817 H 76.4922 -2.64898 -1.8447 0
M  V30 818 H 75.5442 -3.7931 0.287714 0
M  V30 819 H 76.8562 -4.98549 0.158128 0
M  V30 820 H 76.0102 -5.69648 -2.08773 0
M  V30 821 H 74.7492 -4.43243 -2.03438 0
M  V30 822 H 73.7542 -5.49799 0.00938483 0
M  V30 823 H 74.9792 -6.79071 -0.0631082 0
M  V30 824 H 72.9252 -6.1728 -2.22038 0
M  V30 825 H 72.8422 -7.48144 -1.08707 0
M  V30 826 H 74.1102 -7.45534 -2.27596 0
M  V30 827 N 78.3393 -0.321999 -1.54275 0
M  V30 828 C 79.7553 0.0306999 -1.5957 0
M  V30 829 C 79.9553 1.50614 -1.33857 0
M  V30 830 O 79.0113 2.2619 -1.12223 0
M  V30 831 C 80.3243 -0.386122 -2.98211 0
M  V30 832 C 81.8723 -0.336647 -3.11184 0
M  V30 833 C 82.3473 -0.728607 -4.52167 0
M  V30 834 N 83.8383 -0.681952 -4.58152 0
M  V30 835 C 84.5733 -0.957449 -5.6535 0
M  V30 836 N 84.0693 -1.3 -6.80494 0
M  V30 837 N 85.8623 -0.883113 -5.55119 0
M  V30 838 H 78.0133 -1.28332 -1.69247 0
M  V30 839 H 80.2763 -0.521716 -0.791528 0
M  V30 840 H 79.9823 -1.41404 -3.22022 0
M  V30 841 H 79.8563 0.249662 -3.76373 0
M  V30 842 H 82.2433 0.682058 -2.8711 0
M  V30 843 H 82.3243 -1.00734 -2.3513 0
M  V30 844 H 81.9683 -1.74522 -4.76974 0
M  V30 845 H 81.8983 -0.0356152 -5.26588 0
M  V30 846 H 84.3893 -0.428985 -3.75457 0
M  V30 847 H 84.7023 -1.49563 -7.58189 0
M  V30 848 H 83.0473 -1.33824 -6.81994 0
M  V30 849 H 86.2383 -0.615001 -4.64042 0
M  V30 850 H 86.4113 -1.10118 -6.38575 0
M  V30 851 N 79.8174 1.5752 -0.0501392 0
M  V30 852 C 81.0644 1.9265 0.623874 0
M  V30 853 C 81.3924 0.928411 1.70912 0
M  V30 854 O 80.6474 -0.0594525 1.9561 0
M  V30 855 C 80.9464 3.34467 1.25963 0
M  V30 856 C 80.6124 4.49883 0.302689 0
M  V30 857 C 79.2744 4.81184 0.0393636 0
M  V30 858 C 81.6264 5.20002 -0.353205 0
M  V30 859 C 78.9544 5.79951 -0.887308 0
M  V30 860 C 81.3064 6.1976 -1.26806 0
M  V30 861 C 79.9704 6.49491 -1.54007 0
M  V30 862 H 79.2404 0.704957 0.228292 0
M  V30 863 H 81.8874 1.91146 -0.116398 0
M  V30 864 H 80.1924 3.32333 2.07514 0
M  V30 865 H 81.8894 3.58928 1.78806 0
M  V30 866 H 78.4794 4.25457 0.518109 0
M  V30 867 H 82.6634 4.96033 -0.162854 0
M  V30 868 H 77.9194 6.01322 -1.10553 0
M  V30 869 H 82.0934 6.73205 -1.78236 0
M  V30 870 H 79.7204 7.25837 -2.25976 0
M  V30 871 N 81.2955 -0.223234 1.56011 0
M  V30 872 C 82.5205 -0.968978 1.83373 0
M  V30 873 C 82.9455 -1.77227 0.630254 0
M  V30 874 O 82.3035 -1.76345 -0.420959 0
M  V30 875 C 82.3515 -1.86363 3.08709 0
M  V30 876 O 81.4555 -2.95873 2.87285 0
M  V30 877 H 80.7965 -0.274461 0.604622 0
M  V30 878 H 83.3265 -0.237056 2.03222 0
M  V30 879 H 83.3365 -2.27376 3.38768 0
M  V30 880 H 82.0115 -1.27319 3.95933 0
M  V30 881 H 80.5885 -2.58818 2.68454 0
M  V30 882 N 82.7736 -1.49793 -0.48987 0
M  V30 883 C 84.0016 -1.63568 -1.26701 0
M  V30 884 C 84.4166 -0.311465 -1.86213 0
M  V30 885 O 83.7736 0.704416 -1.68357 0
M  V30 886 C 83.8246 -2.71284 -2.38929 0
M  V30 887 O 83.5456 -3.9857 -1.81861 0
M  V30 888 C 85.0466 -2.95864 -3.3012 0
M  V30 889 H 82.2666 -0.550342 -0.383881 0
M  V30 890 H 84.8106 -1.95898 -0.586864 0
M  V30 891 H 82.9656 -2.417 -3.02753 0
M  V30 892 H 83.3796 -4.57993 -2.55622 0
M  V30 893 H 84.8536 -3.74941 -4.05121 0
M  V30 894 H 85.3306 -2.06206 -3.87783 0
M  V30 895 H 85.9366 -3.26907 -2.72051 0
M  V30 896 N 84.2517 0.741722 -1.39055 0
M  V30 897 C 85.4817 1.52876 -1.3897 0
M  V30 898 C 85.8897 1.8919 0.0193266 0
M  V30 899 O 85.2327 1.54138 0.999356 0
M  V30 900 C 85.2947 2.84929 -2.19216 0
M  V30 901 C 84.9587 2.71086 -3.67915 0
M  V30 902 C 85.9557 2.40084 -4.61146 0
M  V30 903 C 83.6407 2.88168 -4.11418 0
M  V30 904 C 85.6347 2.26335 -5.95862 0
M  V30 905 C 83.3217 2.74037 -5.46211 0
M  V30 906 C 84.3197 2.43166 -6.38247 0
M  V30 907 O 84.0077 2.29115 -7.70559 0
M  V30 908 H 83.7397 0.479252 -0.476753 0
M  V30 909 H 86.2937 0.924751 -1.83405 0
M  V30 910 H 84.5237 3.47564 -1.69518 0
M  V30 911 H 86.2127 3.46509 -2.11392 0
M  V30 912 H 86.9787 2.26545 -4.28838 0
M  V30 913 H 82.8577 3.11191 -3.40119 0
M  V30 914 H 86.4017 2.0216 -6.67665 0
M  V30 915 H 82.2987 2.87153 -5.78112 0
M  V30 916 H 83.0667 2.44237 -7.81211 0
M  V30 917 N 85.7298 1.2412 0.971189 0
M  V30 918 C 86.6928 1.03156 2.04674 0
M  V30 919 C 87.6928 -0.00990322 1.60797 0
M  V30 920 O 88.8828 0.230729 1.72665 0
M  V30 921 C 86.0148 0.562765 3.36223 0
M  V30 922 H 87.2078 1.98614 2.24705 0
M  V30 923 H 84.7608 1.06293 1.14593 0
M  V30 924 H 85.4958 -0.395176 3.21883 0
M  V30 925 H 85.2808 1.31441 3.69413 0
M  V30 926 H 86.7708 0.437015 4.15307 0
M  V30 927 N 87.2079 -1.17134 1.05439 0
M  V30 928 C 88.4569 -1.86791 0.761049 0
M  V30 929 C 88.7699 -1.82072 -0.714795 0
M  V30 930 O 89.9759 -2.47223 -1.12218 0
M  V30 931 C 88.4319 -3.35166 1.31117 0
M  V30 932 C 88.0399 -3.48381 2.81664 0
M  V30 933 C 89.7839 -4.10134 1.09499 0
M  V30 934 C 87.6909 -4.90793 3.29964 0
M  V30 935 H 86.6209 -0.699681 0.281002 0
M  V30 936 H 89.2719 -1.3226 1.27199 0
M  V30 937 H 87.6539 -3.8925 0.72803 0
M  V30 938 H 88.8279 -3.04502 3.45855 0
M  V30 939 H 87.1429 -2.86836 3.01851 0
M  V30 940 H 89.7399 -5.152 1.43084 0
M  V30 941 H 90.0829 -4.16287 0.0328772 0
M  V30 942 H 90.6159 -3.62264 1.64346 0
M  V30 943 H 87.3549 -4.89816 4.35616 0
M  V30 944 H 86.8749 -5.35333 2.70516 0
M  V30 945 H 88.5539 -5.59573 3.24787 0
M  V30 946 N 88.686 -0.835752 -1.33615 0
M  V30 947 C 89.649 -0.272 -2.2758 0
M  V30 948 C 90.649 0.557487 -1.50827 0
M  V30 949 O 91.839 0.37173 -1.70188 0
M  V30 950 C 88.971 0.617173 -3.35267 0
M  V30 951 H 90.164 -1.10111 -2.78954 0
M  V30 952 H 87.717 -0.608594 -1.43965 0
M  V30 953 H 88.452 1.46884 -2.89129 0
M  V30 954 H 88.237 0.0237066 -3.92093 0
M  V30 955 H 89.727 1.005 -4.05326 0
M  V30 956 N 90.1641 1.46063 -0.591896 0
M  V30 957 C 91.1271 2.28854 0.125973 0
M  V30 958 C 92.1271 1.38903 0.810107 0
M  V30 959 O 93.3171 1.61186 0.66066 0
M  V30 960 C 90.4491 3.19526 1.1881 0
M  V30 961 H 91.6421 2.93802 -0.601717 0
M  V30 962 H 89.1951 1.52325 -0.350254 0
M  V30 963 H 89.9301 2.59345 1.94707 0
M  V30 964 H 89.7151 3.85766 0.701936 0
M  V30 965 H 91.2051 3.81817 1.69132 0
M  V30 966 N 91.6422 0.330177 1.54103 0
M  V30 967 C 92.5522 -0.541534 2.28264 0
M  V30 968 C 93.5682 -1.12351 1.32866 0
M  V30 969 O 94.7442 -1.14206 1.65888 0
M  V30 970 C 91.8092 -1.68322 3.03098 0
M  V30 971 C 90.8702 -1.13238 4.14096 0
M  V30 972 C 90.1032 -2.21966 4.85352 0
M  V30 973 O 90.3262 -3.42437 4.56172 0
M  V30 974 O 89.2602 -1.87013 5.7211 0
M  V30 975 H 93.0862 0.060938 3.03639 0
M  V30 976 H 90.6712 0.09565 1.49093 0
M  V30 977 H 92.5532 -2.34777 3.49939 0
M  V30 978 H 91.2282 -2.27176 2.30593 0
M  V30 979 H 90.1352 -0.432736 3.71589 0
M  V30 980 H 91.4682 -0.588898 4.88664 0
M  V30 981 N 93.1203 -1.57491 0.0584922 0
M  V30 982 C 94.5363 -1.56792 -0.298091 0
M  V30 983 C 94.7363 -1.06679 -1.70944 0
M  V30 984 O 93.7923 -0.726672 -2.41818 0
M  V30 985 C 95.1053 -3.00461 -0.119879 0
M  V30 986 C 96.6533 -3.1242 -0.190428 0
M  V30 987 C 97.1283 -4.57982 -0.0406567 0
M  V30 988 N 98.6193 -4.63099 -0.0966958 0
M  V30 989 C 99.3543 -5.734 -0.00502943 0
M  V30 990 N 98.8503 -6.9266 0.139402 0
M  V30 991 N 100.643 -5.62067 -0.0611391 0
M  V30 992 H 92.7943 -1.88386 0.98105 0
M  V30 993 H 95.0573 -0.867865 0.381463 0
M  V30 994 H 94.7633 -3.41187 0.85349 0
M  V30 995 H 94.6373 -3.66843 -0.877833 0
M  V30 996 H 97.0243 -2.71589 -1.15427 0
M  V30 997 H 97.1053 -2.48702 0.598405 0
M  V30 998 H 96.7493 -4.995 0.919897 0
M  V30 999 H 96.6793 -5.19715 -0.848727 0
M  V30 1000 H 99.1703 -3.77331 -0.207277 0
M  V30 1001 H 99.4833 -7.72536 0.201855 0
M  V30 1002 H 97.8283 -6.94781 0.174586 0
M  V30 1003 H 101.019 -4.67782 -0.172583 0
M  V30 1004 H 101.192 -6.47999 0.0137562 0
M  V30 1005 N 94.5984 0.214957 -1.56127 0
M  V30 1006 C 95.8464 0.936518 -1.79091 0
M  V30 1007 C 96.1674 1.84606 -0.628148 0
M  V30 1008 O 95.4374 1.92664 0.35462 0
M  V30 1009 H 94.0174 0.3488 -0.660566 0
M  V30 1010 H 96.6794 0.22523 -1.93594 0
M  V30 1011 H 95.7754 1.53943 -2.71492 0
M  V30 1012 N 96.0765 1.50051 0.48192 0
M  V30 1013 C 97.3015 1.64508 1.26301 0
M  V30 1014 C 97.7265 0.323851 1.85291 0
M  V30 1015 O 97.0845 -0.710969 1.66778 0
M  V30 1016 C 97.1325 2.7305 2.35533 0
M  V30 1017 O 96.2365 2.3355 3.39895 0
M  V30 1018 H 95.5775 0.549978 0.372048 0
M  V30 1019 H 98.1075 1.9636 0.574786 0
M  V30 1020 H 98.1175 2.95799 2.8101 0
M  V30 1021 H 96.7925 3.68946 1.91967 0
M  V30 1022 H 95.3695 2.21205 3.00204 0
M  V30 1023 N 97.5546 -0.734337 1.39446 0
M  V30 1024 C 98.9706 -1.03997 1.21065 0
M  V30 1025 C 99.1706 -2.01369 0.0727019 0
M  V30 1026 O 98.2266 -2.45856 -0.575426 0
M  V30 1027 C 99.5396 -1.60163 2.54496 0
M  V30 1028 C 101.088 -1.7224 2.61347 0
M  V30 1029 C 101.563 -2.31814 3.95002 0
M  V30 1030 N 103.054 -2.39223 3.96644 0
M  V30 1031 C 103.789 -2.86258 4.96834 0
M  V30 1032 N 103.285 -3.33184 6.07421 0
M  V30 1033 N 105.078 -2.85473 4.84213 0
M  V30 1034 H 97.2286 -0.0885624 2.12215 0
M  V30 1035 H 99.4916 -0.10191 0.942506 0
M  V30 1036 H 99.1976 -0.960811 3.38321 0
M  V30 1037 H 99.0716 -2.5896 2.74262 0
M  V30 1038 H 101.459 -2.35443 1.77906 0
M  V30 1039 H 101.54 -0.720939 2.4543 0
M  V30 1040 H 101.184 -1.69238 4.78875 0
M  V30 1041 H 101.114 -3.32638 4.08239 0
M  V30 1042 H 103.605 -2.06057 3.16779 0
M  V30 1043 H 103.918 -3.67586 6.7978 0
M  V30 1044 H 102.263 -3.31191 6.11013 0
M  V30 1045 H 105.454 -2.48136 3.96921 0
M  V30 1046 H 105.627 -3.21814 5.62441 0
M  V30 1047 N 99.0327 -1.24633 -0.964593 0
M  V30 1048 C 100.282 -1.08188 -1.7023 0
M  V30 1049 C 100.595 0.37873 -1.91898 0
M  V30 1050 O 101.801 0.663427 -2.6327 0
M  V30 1051 C 100.257 -1.88773 -3.06419 0
M  V30 1052 C 99.8647 -3.39263 -2.92582 0
M  V30 1053 C 101.609 -1.80867 -3.84041 0
M  V30 1054 C 99.5157 -4.1218 -4.24101 0
M  V30 1055 H 98.4457 -0.401245 -0.638372 0
M  V30 1056 H 101.097 -1.48742 -1.07462 0
M  V30 1057 H 99.4787 -1.41035 -3.70034 0
M  V30 1058 H 100.653 -3.94603 -2.37961 0
M  V30 1059 H 98.9677 -3.48154 -2.28424 0
M  V30 1060 H 101.565 -2.32646 -4.81435 0
M  V30 1061 H 101.908 -0.774543 -4.09031 0
M  V30 1062 H 102.441 -2.26301 -3.27159 0
M  V30 1063 H 99.1797 -5.15965 -4.04303 0
M  V30 1064 H 98.6997 -3.61626 -4.78526 0
M  V30 1065 H 100.379 -4.19349 -4.92702 0
M  V30 1066 N 100.511 1.16574 -1.06058 0
M  V30 1067 C 101.76 1.86385 -0.770944 0
M  V30 1068 C 102.073 1.82448 0.705129 0
M  V30 1069 O 103.279 2.47815 1.10905 0
M  V30 1070 C 101.735 3.34466 -1.32893 0
M  V30 1071 C 101.343 3.46883 -2.83507 0
M  V30 1072 C 103.087 4.09548 -1.11672 0
M  V30 1073 C 100.994 4.89036 -3.32562 0
M  V30 1074 H 99.9238 0.698181 -0.284709 0
M  V30 1075 H 102.575 1.31583 -1.27899 0
M  V30 1076 H 100.957 3.88859 -0.748662 0
M  V30 1077 H 102.131 3.02663 -3.47465 0
M  V30 1078 H 100.446 2.85232 -3.03368 0
M  V30 1079 H 103.043 5.14434 -1.45814 0
M  V30 1080 H 103.386 4.16264 -0.0549535 0
M  V30 1081 H 103.919 3.61387 -1.66265 0
M  V30 1082 H 100.658 4.87499 -4.38207 0
M  V30 1083 H 100.178 5.3389 -2.73351 0
M  V30 1084 H 101.857 5.57843 -3.2775 0
M  V30 1085 N 101.989 0.842826 1.3317 0
M  V30 1086 C 103.214 0.453129 2.02389 0
M  V30 1087 C 103.639 -0.939105 1.6298 0
M  V30 1088 O 102.997 -1.61472 0.8244 0
M  V30 1089 C 103.045 0.586094 3.55805 0
M  V30 1090 O 102.149 -0.386029 4.10589 0
M  V30 1091 H 101.49 0.183664 0.638094 0
M  V30 1092 H 104.02 1.13875 1.69981 0
M  V30 1093 H 104.03 0.469209 4.05293 0
M  V30 1094 H 102.705 1.6014 3.83833 0
M  V30 1095 H 101.282 -0.226371 3.72212 0
M  V30 1096 N 103.467 -1.45747 0.599634 0
M  V30 1097 C 104.713 -2.02592 0.0918643 0
M  V30 1098 C 105.046 -1.46806 -1.27128 0
M  V30 1099 O 104.321 -0.639658 -1.83681 0
M  V30 1100 C 104.604 -3.60073 0.0443398 0
M  V30 1101 C 104.457 -4.26208 1.43759 0
M  V30 1102 C 105.776 -4.35309 -0.647608 0
M  V30 1103 H 102.895 -0.736175 0.034857 0
M  V30 1104 H 105.537 -1.73694 0.770081 0
M  V30 1105 H 103.687 -3.84823 -0.533224 0
M  V30 1106 H 105.359 -4.12668 2.06162 0
M  V30 1107 H 103.602 -3.84916 2.00056 0
M  V30 1108 H 104.273 -5.35069 1.35665 0
M  V30 1109 H 106.749 -4.15805 -0.156776 0
M  V30 1110 H 105.625 -5.45038 -0.649942 0
M  V30 1111 H 105.886 -4.07598 -1.71219 0
M  V30 1112 N 104.945 -0.338344 -1.53925 0
M  V30 1113 C 105.893 0.536231 -2.26335 0
M  V30 1114 C 106.887 1.1063 -1.28286 0
M  V30 1115 O 108.093 1.05264 -1.46012 0
M  V30 1116 H 104.468 0.191602 -0.727181 0
M  V30 1117 H 106.439 -0.0965747 -2.98244 0
M  V30 1118 C 105.188 1.67803 -3.04528 0
M  V30 1119 H 104.511 1.24864 -3.79801 0
M  V30 1120 H 105.951 2.26526 -3.58416 0
M  V30 1121 C 104.41 2.60439 -2.13712 0
M  V30 1122 O 104.94 3.6255 -1.72975 0
M  V30 1123 N 103.146 2.29006 -1.78898 0
M  V30 1124 H 102.693 1.46011 -2.12223 0
M  V30 1125 H 102.651 2.91248 -1.18416 0
M  V30 1126 N 106.423 1.57458 -0.0668435 0
M  V30 1127 C 107.671 1.92919 0.602214 0
M  V30 1128 C 107.992 0.947215 1.70449 0
M  V30 1129 O 107.262 -0.00544117 1.95899 0
M  V30 1130 H 105.842 0.71217 0.22544 0
M  V30 1131 H 108.504 1.94508 -0.123535 0
M  V30 1132 H 107.6 2.94589 1.03073 0
M  V30 1133 N 107.901 -0.206675 1.56239 0
M  V30 1134 C 108.864 -1.23976 1.92776 0
M  V30 1135 C 109.864 -1.39041 0.807729 0
M  V30 1136 O 111.054 -1.37051 1.0753 0
M  V30 1137 C 108.186 -2.61112 2.19165 0
M  V30 1138 H 109.379 -0.927764 2.85189 0
M  V30 1139 H 106.932 -0.447718 1.4975 0
M  V30 1140 H 107.667 -2.97386 1.29352 0
M  V30 1141 H 107.452 -2.51552 3.00772 0
M  V30 1142 H 108.942 -3.35633 2.48476 0
M  V30 1143 N 109.379 -1.50304 -0.473955 0
M  V30 1144 C 110.342 -1.6841 -1.55469 0
M  V30 1145 C 111.342 -0.554905 -1.50922 0
M  V30 1146 O 112.532 -0.821882 -1.53593 0
M  V30 1147 C 109.664 -1.70667 -2.95102 0
M  V30 1148 H 110.857 -2.64828 -1.40733 0
M  V30 1149 H 108.41 -1.39742 -0.700132 0
M  V30 1150 H 109.145 -0.75932 -3.15285 0
M  V30 1151 H 108.93 -2.52698 -2.9981 0
M  V30 1152 H 110.42 -1.8664 -3.73571 0
M  V30 1153 N 110.857 0.726932 -1.39834 0
M  V30 1154 C 111.82 1.82269 -1.38962 0
M  V30 1155 C 112.82 1.58248 -0.285334 0
M  V30 1156 O 114.01 1.65499 -0.54366 0
M  V30 1157 C 111.142 3.20186 -1.17019 0
M  V30 1158 H 112.335 1.84443 -2.36476 0
M  V30 1159 H 109.888 0.931416 -1.25516 0
M  V30 1160 H 110.623 3.23669 -0.202204 0
M  V30 1161 H 110.408 3.3902 -1.96998 0
M  V30 1162 H 111.898 4.00235 -1.1917 0
M  V30 1163 N 112.336 1.25143 0.95797 0
M  V30 1164 C 113.286 1.01924 2.0395 0
M  V30 1165 C 114.27 -0.0427175 1.60843 0
M  V30 1166 O 115.462 0.17221 1.7616 0
M  V30 1167 C 112.591 0.636373 3.3735 0
M  V30 1168 C 111.677 1.73492 3.8699 0
M  V30 1169 N 112.068 2.96945 4.0946 0
M  V30 1170 C 110.366 1.61467 4.15746 0
M  V30 1171 C 111.067 3.68228 4.50315 0
M  V30 1172 N 110.043 2.95833 4.56053 0
M  V30 1173 H 113.845 1.95653 2.19311 0
M  V30 1174 H 111.359 1.15413 1.14253 0
M  V30 1175 H 113.356 0.451233 4.14451 0
M  V30 1176 H 112.016 -0.293621 3.2337 0
M  V30 1177 H 113.027 3.33025 3.96629 0
M  V30 1178 H 109.704 0.753394 4.10646 0
M  V30 1179 H 111.094 4.74178 4.76031 0
M  V30 1180 N 113.814 -1.1601 1.06675 0
M  V30 1181 C 115.054 -1.88304 0.795037 0
M  V30 1182 C 115.418 -1.80062 -0.666466 0
M  V30 1183 O 116.619 -2.47319 -1.05293 0
M  V30 1184 C 114.89 -3.33664 1.28076 0
M  V30 1185 S 116.449 -4.23768 1.13868 0
M  V30 1186 H 113.267 -0.649928 0.288296 0
M  V30 1187 H 115.869 -1.4001 1.36445 0
M  V30 1188 H 114.573 -3.37203 2.33927 0
M  V30 1189 H 114.104 -3.87009 0.706253 0
M  V30 1190 H 116.119 -4.96148 0.0719668 0
M  V30 1191 N 115.292 -0.849877 -1.32721 0
M  V30 1192 C 116.255 -0.296122 -2.27279 0
M  V30 1193 C 117.255 0.541458 -1.5141 0
M  V30 1194 O 118.445 0.353658 -1.70572 0
M  V30 1195 C 115.577 0.581579 -3.35902 0
M  V30 1196 H 116.77 -1.13064 -2.77771 0
M  V30 1197 H 114.323 -0.62383 -1.43311 0
M  V30 1198 H 115.058 1.43809 -2.9067 0
M  V30 1199 H 114.843 -0.0178814 -3.92096 0
M  V30 1200 H 116.333 0.961951 -4.0637 0
M  V30 1201 N 116.77 1.45427 -0.607355 0
M  V30 1202 C 117.995 2.07124 -0.107006 0
M  V30 1203 C 118.42 1.44906 1.19933 0
M  V30 1204 O 117.778 0.541687 1.73019 0
M  V30 1205 C 117.826 3.60595 0.0194119 0
M  V30 1206 O 116.93 3.98285 1.0697 0
M  V30 1207 H 116.271 0.659868 -0.0739597 0
M  V30 1208 H 118.801 1.86683 -0.837297 0
M  V30 1209 H 118.811 4.07419 0.2177 0
M  V30 1210 H 117.486 4.05266 -0.934453 0
M  V30 1211 H 116.063 3.63133 0.847889 0
M  V30 1212 N 118.248 0.346503 1.53744 0
M  V30 1213 C 119.494 -0.249473 2.0126 0
M  V30 1214 C 119.827 -1.49965 1.23386 0
M  V30 1215 O 119.102 -1.91811 0.32229 0
M  V30 1216 C 119.385 -0.560643 3.55709 0
M  V30 1217 C 119.238 0.701836 4.44291 0
M  V30 1218 C 120.557 -1.36905 4.18264 0
M  V30 1219 H 117.676 -0.0891987 0.731582 0
M  V30 1220 H 120.318 0.467624 1.84156 0
M  V30 1221 H 118.468 -1.17156 3.70414 0
M  V30 1222 H 120.14 1.33974 4.41417 0
M  V30 1223 H 118.383 1.32612 4.13033 0
M  V30 1224 H 119.054 0.43933 5.50249 0
M  V30 1225 H 121.53 -0.852448 4.07275 0
M  V30 1226 H 120.406 -1.55553 5.26398 0
M  V30 1227 H 120.667 -2.37203 3.73078 0
M  V30 1228 N 119.726 -1.57421 0.075193 0
M  V30 1229 C 120.974 -1.93236 -0.591974 0
M  V30 1230 C 121.295 -0.956241 -1.69944 0
M  V30 1231 O 120.565 -0.00494792 -1.95899 0
M  V30 1232 H 119.145 -0.713355 -0.22166 0
M  V30 1233 H 121.807 -1.9444 0.133848 0
M  V30 1234 H 120.903 -2.95131 -1.01509 0
M  V30 1235 N 121.204 0.198386 -1.56346 0
M  V30 1236 C 122.481 0.944982 -1.71258 0
M  V30 1237 C 122.861 2.0151 -0.629048 0
M  V30 1238 O 122.209 2.25639 0.360473 0
M  V30 1239 C 122.419 1.5344 -3.1346 0
M  V30 1240 C 123.767 2.01778 -3.73591 0
M  V30 1241 O 124.791 1.63288 -3.16568 0
M  V30 1242 O 123.65 2.72594 -4.73661 0
M  V30 1243 H 120.744 0.442939 -0.69838 0
M  V30 1244 H 123.29 0.188342 -1.68652 0
M  V30 1245 H 122.062 0.762869 -3.83792 0
M  V30 1246 H 121.685 2.35596 -3.20282 0
M  V30 1247 N 122.682 1.50554 0.465978 0
M  V30 1248 C 123.931 1.61038 1.21448 0
M  V30 1249 C 124.244 0.31865 1.92987 0
M  V30 1250 O 125.45 0.302469 2.6981 0
M  V30 1251 C 123.906 2.84283 2.20706 0
M  V30 1252 C 123.514 4.20352 1.54946 0
M  V30 1253 C 125.258 3.04115 2.96166 0
M  V30 1254 C 123.165 5.34778 2.5252 0
M  V30 1255 H 122.095 0.599718 0.457005 0
M  V30 1256 H 124.746 1.7699 0.484424 0
M  V30 1257 H 123.128 2.61901 2.97025 0
M  V30 1258 H 124.302 4.53008 0.843811 0
M  V30 1259 H 122.617 4.06167 0.917475 0
M  V30 1260 H 125.214 3.86774 3.69202 0
M  V30 1261 H 125.557 2.16045 3.55852 0
M  V30 1262 H 126.09 3.26702 2.26959 0
M  V30 1263 H 122.829 6.25018 1.97566 0
M  V30 1264 H 122.349 5.06534 3.21222 0
M  V30 1265 H 124.028 5.65561 3.14245 0
M  V30 1266 N 124.16 -0.719506 1.40217 0
M  V30 1267 C 125.406 -1.48152 1.38488 0
M  V30 1268 C 125.739 -1.94195 -0.0141867 0
M  V30 1269 O 125.014 -1.67884 -0.982096 0
M  V30 1270 C 125.297 -2.71035 2.37091 0
M  V30 1271 C 125.15 -2.30912 3.86005 0
M  V30 1272 C 126.469 -3.73182 2.33288 0
M  V30 1273 H 123.588 -0.537395 0.504357 0
M  V30 1274 H 126.23 -0.821472 1.71324 0
M  V30 1275 H 124.38 -3.27352 2.0922 0
M  V30 1276 H 126.052 -1.80107 4.24687 0
M  V30 1277 H 124.295 -1.62958 4.02029 0
M  V30 1278 H 124.966 -3.18978 4.50508 0
M  V30 1279 H 127.442 -3.26485 2.57966 0
M  V30 1280 H 126.318 -4.56806 3.04334 0
M  V30 1281 H 126.579 -4.21202 1.34317 0
M  V30 1282 N 125.638 -1.25649 -0.95132 0
M  V30 1283 C 126.887 -1.09988 -1.69073 0
M  V30 1284 C 127.2 0.358355 -1.92289 0
M  V30 1285 O 128.406 0.635466 -2.63958 0
M  V30 1286 C 126.862 -1.92012 -3.044 0
M  V30 1287 C 126.47 -3.42347 -2.88968 0
M  V30 1288 C 128.214 -1.8493 -3.82101 0
M  V30 1289 C 126.121 -4.16655 -4.19705 0
M  V30 1290 H 125.051 -0.407993 -0.63408 0
M  V30 1291 H 127.702 -1.49873 -1.05879 0
M  V30 1292 H 126.084 -1.44952 -3.68517 0
M  V30 1293 H 127.258 -3.97104 -2.33762 0
M  V30 1294 H 125.573 -3.50557 -2.24719 0
M  V30 1295 H 128.17 -2.37739 -4.78941 0
M  V30 1296 H 128.513 -0.817883 -4.08187 0
M  V30 1297 H 129.046 -2.29758 -3.2474 0
M  V30 1298 H 125.785 -5.20224 -3.98807 0
M  V30 1299 H 125.305 -3.66681 -4.74663 0
M  V30 1300 H 126.984 -4.24551 -4.88227 0
M  V30 1301 N 127.117 1.15442 -1.07289 0
M  V30 1302 C 128.366 1.85557 -0.790669 0
M  V30 1303 C 128.679 1.83186 0.685739 0
M  V30 1304 O 129.885 2.48977 1.0827 0
M  V30 1305 C 128.341 3.33038 -1.36433 0
M  V30 1306 C 127.949 3.43856 -2.8717 0
M  V30 1307 C 129.693 4.0834 -1.1601 0
M  V30 1308 C 127.6 4.85482 -3.3773 0
M  V30 1309 H 126.53 0.695122 -0.292098 0
M  V30 1310 H 129.181 1.30219 -1.29287 0
M  V30 1311 H 127.563 3.88043 -0.789864 0
M  V30 1312 H 128.737 2.98961 -3.50655 0
M  V30 1313 H 127.052 2.81998 -3.06376 0
M  V30 1314 H 129.649 5.12859 -1.51262 0
M  V30 1315 H 129.992 4.16182 -0.0991007 0
M  V30 1316 H 130.525 3.59603 -1.70089 0
M  V30 1317 H 127.264 4.82823 -4.43353 0
M  V30 1318 H 126.784 5.30961 -2.78999 0
M  V30 1319 H 128.463 5.54335 -3.33648 0
M  V30 1320 N 128.595 0.856903 1.32268 0
M  V30 1321 C 129.558 0.308171 2.27119 0
M  V30 1322 C 130.558 -0.533421 1.51695 0
M  V30 1323 O 131.748 -0.344607 1.70757 0
M  V30 1324 C 128.88 -0.563757 3.36206 0
M  V30 1325 H 130.073 1.14535 2.77167 0
M  V30 1326 H 127.626 0.631421 1.42978 0
M  V30 1327 H 128.361 -1.42266 2.91429 0
M  V30 1328 H 128.146 0.0386749 3.92081 0
M  V30 1329 H 129.636 -0.940386 4.06874 0
M  V30 1330 N 130.073 -1.45103 0.615059 0
M  V30 1331 C 131.298 -2.07064 0.117988 0
M  V30 1332 C 131.723 -1.4554 -1.19163 0
M  V30 1333 O 131.081 -0.550855 -1.72729 0
M  V30 1334 C 131.129 -3.606 -0.000288387 0
M  V30 1335 O 130.233 -3.98847 -1.04856 0
M  V30 1336 H 129.574 -0.659467 0.0774581 0
M  V30 1337 H 132.104 -1.86236 0.847186 0
M  V30 1338 H 132.114 -4.07529 -0.196091 0
M  V30 1339 H 130.789 -4.04765 0.955932 0
M  V30 1340 H 129.366 -3.63577 -0.828619 0
M  V30 1341 N 131.551 -0.354651 -1.53558 0
M  V30 1342 C 132.798 0.238443 -2.01091 0
M  V30 1343 C 133.126 1.49663 -1.24222 0
M  V30 1344 O 132.381 1.93049 -0.321003 0
M  V30 1345 C 132.68 0.587121 -3.52545 0
M  V30 1346 C 132.346 -0.575472 -4.47213 0
M  V30 1347 C 131.008 -0.894497 -4.72813 0
M  V30 1348 C 133.36 -1.35489 -5.03281 0
M  V30 1349 C 130.688 -1.99511 -5.51736 0
M  V30 1350 C 133.04 -2.44583 -5.83405 0
M  V30 1351 C 131.704 -2.77033 -6.07296 0
M  V30 1352 H 130.974 0.0872526 -0.735845 0
M  V30 1353 H 133.621 -0.484859 -1.8526 0
M  V30 1354 H 131.926 1.39129 -3.66265 0
M  V30 1355 H 133.623 1.05809 -3.86789 0
M  V30 1356 H 130.213 -0.316774 -4.27428 0
M  V30 1357 H 134.397 -1.12167 -4.83459 0
M  V30 1358 H 129.653 -2.25063 -5.68469 0
M  V30 1359 H 133.827 -3.05401 -6.25862 0
M  V30 1360 H 131.454 -3.6244 -6.68237 0
M  V30 1361 N 133.029 1.57378 -0.0835403 0
M  V30 1362 C 134.275 1.94217 0.583733 0
M  V30 1363 C 134.608 0.964653 1.68547 0
M  V30 1364 O 133.883 -0.00422258 1.945 0
M  V30 1365 C 134.166 3.41253 1.14972 0
M  V30 1366 C 134.019 4.49768 0.0538277 0
M  V30 1367 C 135.338 3.89352 2.05166 0
M  V30 1368 H 132.457 0.706233 0.210724 0
M  V30 1369 H 135.099 1.89392 -0.1519 0
M  V30 1370 H 133.249 3.45496 1.77665 0
M  V30 1371 H 134.921 4.57641 -0.579851 0
M  V30 1372 H 133.164 4.29432 -0.614068 0
M  V30 1373 H 133.835 5.49817 0.490452 0
M  V30 1374 H 136.311 3.87189 1.52393 0
M  V30 1375 H 135.187 4.92822 2.41698 0
M  V30 1376 H 135.448 3.27973 2.96456 0
M  V30 1377 N 134.507 -0.190092 1.56449 0
M  V30 1378 C 135.735 -0.925772 1.85033 0
M  V30 1379 C 136.15 -1.76638 0.666658 0
M  V30 1380 O 135.507 -1.78822 -0.364565 0
M  V30 1381 C 135.558 -1.81786 3.12468 0
M  V30 1382 O 135.279 -1.01118 4.26271 0
M  V30 1383 C 136.78 -2.6648 3.54265 0
M  V30 1384 H 134 -0.269872 0.614337 0
M  V30 1385 H 136.544 -0.195837 2.0356 0
M  V30 1386 H 134.699 -2.50136 2.95822 0
M  V30 1387 H 135.113 -1.61956 4.98869 0
M  V30 1388 H 136.587 -3.24722 4.46385 0
M  V30 1389 H 137.064 -3.40434 2.77491 0
M  V30 1390 H 137.67 -2.03493 3.73458 0
M  V30 1391 N 135.985 -1.50799 -0.457987 0
M  V30 1392 C 136.918 -1.65273 -1.57353 0
M  V30 1393 C 137.896 -0.500578 -1.54703 0
M  V30 1394 O 139.08 -0.721781 -1.74134 0
M  V30 1395 C 136.207 -1.64737 -2.95938 0
M  V30 1396 C 135.253 -2.8567 -3.16693 0
M  V30 1397 S 136.086 -4.46791 -2.95191 0
M  V30 1398 C 137.242 -4.48968 -4.36095 0
M  V30 1399 H 137.475 -2.59633 -1.44838 0
M  V30 1400 H 135.008 -1.40225 -0.64625 0
M  V30 1401 H 136.966 -1.65112 -3.7583 0
M  V30 1402 H 135.627 -0.715899 -3.05833 0
M  V30 1403 H 134.82 -2.81637 -4.17967 0
M  V30 1404 H 134.422 -2.8293 -2.44594 0
M  V30 1405 H 136.714 -4.23337 -5.28954 0
M  V30 1406 H 137.657 -5.50664 -4.45168 0
M  V30 1407 H 138.065 -3.78522 -4.18786 0
M  V30 1408 N 137.463 0.71206 -1.40597 0
M  V30 1409 C 138.874 1.29135 -1.34837 0
M  V30 1410 C 139.225 1.96186 -0.0235395 0
M  V30 1411 O 138.35 1.97768 0.878444 0
M  V30 1412 C 138.945 2.34827 -2.44217 0
M  V30 1413 C 137.504 2.88371 -2.41907 0
M  V30 1414 C 136.651 1.62202 -2.24913 0
M  V30 1415 H 139.602 0.507944 -1.50352 0
M  V30 1416 H 139.623 3.15749 -2.12327 0
M  V30 1417 H 139.135 1.85996 -3.40627 0
M  V30 1418 H 137.236 3.41422 -1.49204 0
M  V30 1419 H 137.349 3.39925 -3.37621 0
M  V30 1420 H 135.713 1.874 -1.72492 0
M  V30 1421 H 136.496 1.15391 -3.23326 0
M  V30 1422 N 138.941 1.26152 0.944643 0
M  V30 1423 C 140.218 1.02247 1.66748 0
M  V30 1424 C 140.598 -0.448202 2.06287 0
M  V30 1425 O 139.946 -1.42779 1.78399 0
M  V30 1426 C 140.156 1.96788 2.88228 0
M  V30 1427 C 141.504 2.25201 3.59958 0
M  V30 1428 O 142.528 1.94626 2.98327 0
M  V30 1429 O 141.387 2.77242 4.70956 0
M  V30 1430 H 138.481 0.388517 0.730057 0
M  V30 1431 H 141.027 1.37348 0.99668 0
M  V30 1432 H 139.799 2.96047 2.55875 0
M  V30 1433 H 139.422 1.62145 3.63035 0
M  V30 1434 N 140.419 -1.14872 1.07899 0
M  V30 1435 C 141.329 -2.2341 0.715915 0
M  V30 1436 C 142.345 -1.71808 -0.275306 0
M  V30 1437 O 143.521 -2.01039 -0.120545 0
M  V30 1438 C 140.586 -3.46474 0.125168 0
M  V30 1439 C 139.647 -4.13039 1.17034 0
M  V30 1440 C 138.88 -5.30229 0.607688 0
M  V30 1441 O 139.103 -5.675 -0.574497 0
M  V30 1442 O 138.037 -5.86444 1.35526 0
M  V30 1443 H 141.863 -2.56808 1.62121 0
M  V30 1444 H 139.448 -1.22702 0.852322 0
M  V30 1445 H 141.33 -4.20917 -0.201729 0
M  V30 1446 H 140.005 -3.14811 -0.753364 0
M  V30 1447 H 138.912 -3.40493 1.54968 0
M  V30 1448 H 140.245 -4.48796 2.02097 0
M  V30 1449 N 141.898 -0.863906 -1.31812 0
M  V30 1450 C 142.808 -0.318461 -2.32428 0
M  V30 1451 C 143.824 0.568496 -1.64451 0
M  V30 1452 O 145 0.46666 -1.95919 0
M  V30 1453 C 142.065 0.476355 -3.43412 0
M  V30 1454 C 141.126 -0.43784 -4.27061 0
M  V30 1455 C 140.359 0.319138 -5.32745 0
M  V30 1456 O 140.582 1.54799 -5.48993 0
M  V30 1457 O 139.516 -0.319861 -6.01049 0
M  V30 1458 H 143.342 -1.15229 -2.80991 0
M  V30 1459 H 140.927 -0.627103 -1.35602 0
M  V30 1460 H 142.809 0.927156 -4.11074 0
M  V30 1461 H 141.484 1.28683 -2.97022 0
M  V30 1462 H 140.391 -0.937013 -3.62175 0
M  V30 1463 H 141.724 -1.21375 -4.77 0
M  V30 1464 N 143.376 1.44774 -0.622745 0
M  V30 1465 C 144.339 2.29069 0.0774015 0
M  V30 1466 C 145.339 1.4059 0.780461 0
M  V30 1467 O 146.529 1.62551 0.626322 0
M  V30 1468 C 143.661 3.21974 1.12006 0
M  V30 1469 H 144.854 2.92459 -0.663901 0
M  V30 1470 H 142.407 1.51548 -0.382486 0
M  V30 1471 H 143.142 2.63417 1.89162 0
M  V30 1472 H 142.927 3.87168 0.619951 0
M  V30 1473 H 144.417 3.85318 1.60995 0
M  V30 1474 N 144.854 0.36279 1.53368 0
M  V30 1475 C 146.27 0.0116182 1.59596 0
M  V30 1476 C 146.47 -1.47012 1.37803 0
M  V30 1477 O 145.526 -2.23136 1.18181 0
M  V30 1478 C 146.839 0.465052 2.97082 0
M  V30 1479 C 148.387 0.419033 3.10182 0
M  V30 1480 C 148.862 0.848235 4.50077 0
M  V30 1481 N 150.353 0.803183 4.56183 0
M  V30 1482 C 151.088 1.107 5.62613 0
M  V30 1483 N 150.584 1.47996 6.76808 0
M  V30 1484 N 152.377 1.02998 5.52583 0
M  V30 1485 H 144.528 1.32775 1.65785 0
M  V30 1486 H 146.791 0.542518 0.777417 0
M  V30 1487 H 146.497 1.49892 3.18159 0
M  V30 1488 H 146.371 -0.149786 3.76902 0
M  V30 1489 H 148.758 -0.605696 2.88817 0
M  V30 1490 H 148.839 1.06933 2.32377 0
M  V30 1491 H 148.483 1.87107 4.7218 0
M  V30 1492 H 148.413 0.175218 5.26308 0
M  V30 1493 H 150.904 0.52838 3.74188 0
M  V30 1494 H 151.217 1.69613 7.53957 0
M  V30 1495 H 149.562 1.51859 6.78206 0
M  V30 1496 H 152.753 0.737817 4.62249 0
M  V30 1497 H 152.926 1.2701 6.35431 0
M  V30 1498 N 146.332 -1.57332 0.0918853 0
M  V30 1499 C 147.56 -1.98574 -0.581048 0
M  V30 1500 C 147.975 -0.970903 -1.61923 0
M  V30 1501 O 147.332 0.0399054 -1.82456 0
M  V30 1502 C 147.383 -3.39872 -1.23164 0
M  V30 1503 O 147.104 -4.37469 -0.234989 0
M  V30 1504 C 148.605 -3.96099 -1.99049 0
M  V30 1505 H 145.825 -0.65261 -0.156018 0
M  V30 1506 H 148.369 -2.0379 0.170225 0
M  V30 1507 H 146.524 -3.35679 -1.93386 0
M  V30 1508 H 146.938 -5.19751 -0.70418 0
M  V30 1509 H 148.412 -4.97127 -2.39934 0
M  V30 1510 H 148.889 -3.3374 -2.85507 0
M  V30 1511 H 149.495 -4.03755 -1.3365 0
M  V30 1512 N 147.81 0.181792 -1.56548 0
M  V30 1513 C 149.056 0.896803 -1.82562 0
M  V30 1514 C 149.411 1.80324 -0.670908 0
M  V30 1515 O 148.704 1.8868 0.333235 0
M  V30 1516 C 148.898 1.73728 -3.12335 0
M  V30 1517 C 148.727 0.913714 -4.4032 0
M  V30 1518 C 147.497 0.592903 -5.01809 0
M  V30 1519 C 149.695 0.260164 -5.13642 0
M  V30 1520 N 147.677 -0.247901 -6.13399 0
M  V30 1521 C 149.048 -0.442256 -6.18421 0
M  V30 1522 C 151.103 0.177253 -4.97584 0
M  V30 1523 C 149.806 -1.21971 -7.08883 0
M  V30 1524 C 151.832 -0.586839 -5.88481 0
M  V30 1525 C 151.194 -1.27766 -6.92716 0
M  V30 1526 H 147.293 0.307122 -0.719166 0
M  V30 1527 H 149.877 0.164535 -1.94004 0
M  V30 1528 H 148.048 2.44105 -3.02105 0
M  V30 1529 H 149.78 2.39279 -3.26386 0
M  V30 1530 H 146.535 0.920502 -4.64568 0
M  V30 1531 H 146.959 -0.658304 -6.73792 0
M  V30 1532 H 151.601 0.696993 -4.17015 0
M  V30 1533 H 149.319 -1.75083 -7.88905 0
M  V30 1534 H 152.905 -0.652522 -5.78129 0
M  V30 1535 H 151.785 -1.85943 -7.61836 0
M  V30 1536 N 149.288 1.51039 0.449983 0
M  V30 1537 C 150.704 1.38934 0.785462 0
M  V30 1538 C 150.904 0.461817 1.96136 0
M  V30 1539 O 149.96 -0.0877389 2.52348 0
M  V30 1540 C 151.273 2.80724 1.0777 0
M  V30 1541 C 152.821 2.89787 1.1829 0
M  V30 1542 C 153.296 4.32457 1.50815 0
M  V30 1543 N 154.787 4.35505 1.57764 0
M  V30 1544 C 155.522 5.42914 1.84477 0
M  V30 1545 N 155.018 6.60502 2.09068 0
M  V30 1546 N 156.811 5.3038 1.86155 0
M  V30 1547 H 148.962 2.09904 -0.324647 0
M  V30 1548 H 151.225 0.944378 -0.0827957 0
M  V30 1549 H 150.931 3.50531 0.286498 0
M  V30 1550 H 150.805 3.19273 2.00859 0
M  V30 1551 H 153.192 2.20186 1.96474 0
M  V30 1552 H 153.273 2.54752 0.231314 0
M  V30 1553 H 152.917 5.02603 0.731622 0
M  V30 1554 H 152.847 4.64995 2.47158 0
M  V30 1555 H 155.338 3.50724 1.40715 0
M  V30 1556 H 155.651 7.38158 2.28785 0
M  V30 1557 H 153.996 6.63639 2.06416 0
M  V30 1558 H 157.187 4.37505 1.66454 0
M  V30 1559 H 157.36 6.1417 2.06637 0
M  V30 1560 N 150.766 -0.704594 1.40972 0
M  V30 1561 C 152.177 -1.28418 1.3552 0
M  V30 1562 C 152.528 -1.96171 0.0339434 0
M  V30 1563 O 151.653 -1.98231 -0.867944 0
M  V30 1564 C 152.248 -2.33528 2.45459 0
M  V30 1565 C 150.807 -2.87085 2.43433 0
M  V30 1566 C 149.954 -1.61007 2.2577 0
M  V30 1567 H 152.905 -0.499963 1.50619 0
M  V30 1568 H 152.926 -3.14619 2.13998 0
M  V30 1569 H 152.438 -1.84187 3.41609 0
M  V30 1570 H 150.539 -3.40626 1.51013 0
M  V30 1571 H 150.652 -3.3813 3.39419 0
M  V30 1572 H 149.016 -1.86482 1.73483 0
M  V30 1573 H 149.799 -1.13675 3.23933 0
M  V30 1574 N 152.244 -1.26651 -0.937939 0
M  V30 1575 C 153.192 -1.08308 -2.05845 0
M  V30 1576 C 154.186 -0.0090757 -1.69398 0
M  V30 1577 O 155.392 -0.166007 -1.79233 0
M  V30 1578 H 151.767 -0.333416 -0.674046 0
M  V30 1579 H 153.738 -2.03261 -2.18467 0
M  V30 1580 C 152.487 -0.736229 -3.39816 0
M  V30 1581 H 151.81 -1.55453 -3.6834 0
M  V30 1582 H 153.25 -0.64769 -4.19024 0
M  V30 1583 C 151.709 0.558824 -3.32233 0
M  V30 1584 O 152.239 1.59621 -3.68624 0
M  V30 1585 N 150.445 0.550657 -2.85335 0
M  V30 1586 H 149.992 -0.293943 -2.55917 0
M  V30 1587 H 149.95 1.41726 -2.80644 0
M  V30 1588 N 153.722 1.14298 -1.08507 0
M  V30 1589 C 154.968 1.85633 -0.816581 0
M  V30 1590 C 155.301 1.82784 0.656021 0
M  V30 1591 O 154.576 1.25926 1.48233 0
M  V30 1592 C 154.859 3.34223 -1.34041 0
M  V30 1593 C 154.712 3.45639 -2.87843 0
M  V30 1594 C 156.031 4.29356 -0.9665 0
M  V30 1595 H 153.15 0.67402 -0.298104 0
M  V30 1596 H 155.792 1.34214 -1.34487 0
M  V30 1597 H 153.942 3.78144 -0.89104 0
M  V30 1598 H 155.614 3.10498 -3.41158 0
M  V30 1599 H 153.857 2.86817 -3.25451 0
M  V30 1600 H 154.528 4.50089 -3.19569 0
M  V30 1601 H 157.004 3.93457 -1.35391 0
M  V30 1602 H 155.88 5.3178 -1.3602 0
M  V30 1603 H 156.141 4.41919 0.126362 0
M  V30 1604 N 155.201 0.870884 1.31352 0
M  V30 1605 C 156.164 0.332243 2.26779 0
M  V30 1606 C 157.164 -0.517302 1.52252 0
M  V30 1607 O 158.354 -0.326477 1.71113 0
M  V30 1608 C 155.486 -0.528066 3.36785 0
M  V30 1609 H 156.679 1.17469 2.75937 0
M  V30 1610 H 154.232 0.64655 1.423 0
M  V30 1611 H 154.967 -1.39167 2.92922 0
M  V30 1612 H 154.752 0.0802582 3.92018 0
M  V30 1613 H 156.242 -0.897179 4.07849 0
M  V30 1614 N 156.679 -1.44442 0.630414 0
M  V30 1615 C 157.909 -2.06115 0.141465 0
M  V30 1616 C 158.317 -1.47179 -1.1889 0
M  V30 1617 O 157.66 -0.588873 -1.74006 0
M  V30 1618 C 157.722 -3.59467 -0.0484355 0
M  V30 1619 C 157.386 -4.40864 1.20366 0
M  V30 1620 C 158.383 -4.74391 2.12719 0
M  V30 1621 C 156.068 -4.8125 1.43887 0
M  V30 1622 C 158.062 -5.47186 3.26904 0
M  V30 1623 C 155.749 -5.53795 2.5837 0
M  V30 1624 C 156.747 -5.86682 3.49705 0
M  V30 1625 O 156.435 -6.57749 4.62191 0
M  V30 1626 H 156.167 -0.671648 0.0765792 0
M  V30 1627 H 158.721 -1.86312 0.864695 0
M  V30 1628 H 156.951 -3.77758 -0.826803 0
M  V30 1629 H 158.64 -4.02909 -0.491849 0
M  V30 1630 H 159.406 -4.43728 1.95781 0
M  V30 1631 H 155.285 -4.55073 0.736853 0
M  V30 1632 H 158.829 -5.72773 3.98217 0
M  V30 1633 H 154.726 -5.83872 2.75251 0
M  V30 1634 H 155.494 -6.76217 4.61164 0
M  V30 1635 N 158.157 -0.370918 -1.53173 0
M  V30 1636 C 159.404 0.217102 -2.01333 0
M  V30 1637 C 159.732 1.48338 -1.25802 0
M  V30 1638 O 158.987 1.92698 -0.34146 0
M  V30 1639 C 159.286 0.549696 -3.53147 0
M  V30 1640 C 158.952 -0.622872 -4.46577 0
M  V30 1641 C 157.614 -0.944595 -4.71838 0
M  V30 1642 C 159.966 -1.40819 -5.01816 0
M  V30 1643 C 157.294 -2.05351 -5.49589 0
M  V30 1644 C 159.646 -2.50757 -5.80778 0
M  V30 1645 C 158.31 -2.83458 -6.04324 0
M  V30 1646 H 157.58 0.0794431 -0.736729 0
M  V30 1647 H 160.227 -0.504481 -1.84736 0
M  V30 1648 H 158.532 1.35237 -3.6772 0
M  V30 1649 H 160.229 1.017 -3.87889 0
M  V30 1650 H 156.819 -0.36209 -4.27068 0
M  V30 1651 H 161.003 -1.17289 -4.82242 0
M  V30 1652 H 156.259 -2.3108 -5.6605 0
M  V30 1653 H 160.433 -3.12022 -6.22588 0
M  V30 1654 H 158.06 -3.69508 -6.64355 0
M  V30 1655 N 159.635 1.57281 -0.100228 0
M  V30 1656 C 160.545 2.17833 0.870965 0
M  V30 1657 C 161.561 1.14921 1.30649 0
M  V30 1658 O 162.737 1.47313 1.37335 0
M  V30 1659 C 159.802 2.75085 2.1102 0
M  V30 1660 C 158.863 3.9297 1.72838 0
M  V30 1661 C 158.096 4.47482 2.90854 0
M  V30 1662 O 158.319 4.00922 4.05731 0
M  V30 1663 O 157.253 5.38433 2.69023 0
M  V30 1664 H 161.079 3.0124 0.38575 0
M  V30 1665 H 158.664 1.48881 0.124397 0
M  V30 1666 H 160.546 3.11656 2.83634 0
M  V30 1667 H 159.221 1.94721 2.58584 0
M  V30 1668 H 158.128 3.61201 0.973883 0
M  V30 1669 H 159.461 4.74713 1.30033 0
M  V30 1670 N 161.113 -0.173488 1.56642 0
M  V30 1671 C 162.361 -0.888706 1.81512 0
M  V30 1672 C 162.682 -1.82875 0.676872 0
M  V30 1673 O 161.952 -1.93536 -0.303414 0
M  V30 1674 H 160.532 -0.331164 0.669582 0
M  V30 1675 H 163.194 -0.173823 1.94123 0
M  V30 1676 H 162.29 -1.46691 2.75478 0
M  V30 1677 N 162.591 -1.51276 -0.441967 0
M  V30 1678 C 163.868 -1.54252 -1.20273 0
M  V30 1679 C 164.248 -0.30408 -2.08898 0
M  V30 1680 O 163.596 0.711084 -2.17154 0
M  V30 1681 C 163.806 -2.85406 -2.00859 0
M  V30 1682 C 165.154 -3.37181 -2.58059 0
M  V30 1683 O 166.178 -2.86925 -2.11074 0
M  V30 1684 O 165.037 -4.24858 -3.43741 0
M  V30 1685 H 162.131 -0.619969 -0.547328 0
M  V30 1686 H 164.677 -1.63586 -0.451413 0
M  V30 1687 H 163.449 -3.67003 -1.35736 0
M  V30 1688 H 163.072 -2.79213 -2.83065 0
M  V30 1689 N 164.069 0.697108 -1.41344 0
M  V30 1690 C 165.017 1.83237 -1.43272 0
M  V30 1691 C 166.011 1.66522 -0.310947 0
M  V30 1692 O 167.217 1.73402 -0.482899 0
M  V30 1693 H 163.592 0.603802 -0.448249 0
M  V30 1694 H 165.563 1.78727 -2.38954 0
M  V30 1695 C 164.312 3.21245 -1.33029 0
M  V30 1696 H 163.635 3.34723 -2.18633 0
M  V30 1697 H 165.075 4.00763 -1.38439 0
M  V30 1698 C 163.534 3.36873 -0.0424635 0
M  V30 1699 O 164.064 3.91177 0.913421 0
M  V30 1700 N 162.27 2.90581 0.0331145 0
M  V30 1701 H 161.817 2.46577 -0.745506 0
M  V30 1702 H 161.775 3.01416 0.894199 0
M  V30 1703 N 165.547 1.27147 0.931209 0
M  V30 1704 C 166.457 1.11372 2.06478 0
M  V30 1705 C 167.473 0.044645 1.73943 0
M  V30 1706 O 168.649 0.250417 1.99837 0
M  V30 1707 C 165.714 0.758838 3.38294 0
M  V30 1708 C 164.775 1.90841 3.84549 0
M  V30 1709 C 164.008 1.57036 5.10074 0
M  V30 1710 O 164.231 0.476645 5.68405 0
M  V30 1711 O 163.165 2.40839 5.51616 0
M  V30 1712 H 166.991 2.06493 2.22698 0
M  V30 1713 H 164.576 1.06301 1.04978 0
M  V30 1714 H 166.458 0.574098 4.17471 0
M  V30 1715 H 165.133 -0.162879 3.2329 0
M  V30 1716 H 164.04 2.14819 3.06274 0
M  V30 1717 H 165.373 2.81021 4.04089 0
M  V30 1718 N 167.025 -1.13721 1.09112 0
M  V30 1719 C 167.958 -2.18094 0.67158 0
M  V30 1720 C 168.936 -1.59414 -0.320299 0
M  V30 1721 O 170.12 -1.87183 -0.222444 0
M  V30 1722 C 167.247 -3.38698 -0.0111189 0
M  V30 1723 C 166.293 -4.15966 0.942055 0
M  V30 1724 S 167.126 -4.7604 2.45246 0
M  V30 1725 C 168.282 -5.99994 1.78208 0
M  V30 1726 H 168.515 -2.53344 1.55577 0
M  V30 1727 H 166.048 -1.24967 0.906789 0
M  V30 1728 H 168.006 -4.08559 -0.398716 0
M  V30 1729 H 166.667 -3.01756 -0.871905 0
M  V30 1730 H 165.86 -5.02318 0.411396 0
M  V30 1731 H 165.462 -3.51745 1.2709 0
M  V30 1732 H 167.754 -6.68441 1.10424 0
M  V30 1733 H 168.697 -6.57662 2.62463 0
M  V30 1734 H 169.105 -5.50432 1.25238 0
M  V30 1735 N 168.503 -0.877838 -1.30888 0
M  V30 1736 C 169.45 -0.337538 -2.28318 0
M  V30 1737 C 170.42 0.568346 -1.56074 0
M  V30 1738 O 171.605 0.498298 -1.84178 0
M  V30 1739 C 168.745 0.448142 -3.42178 0
M  V30 1740 C 167.858 -0.48615 -4.29256 0
M  V30 1741 C 166.993 0.314427 -5.30269 0
M  V30 1742 C 166.032 -0.615791 -6.08995 0
M  V30 1743 N 165.169 0.14902 -7.01942 0
M  V30 1744 H 170.009 -1.17356 -2.73919 0
M  V30 1745 H 167.546 -0.590094 -1.34745 0
M  V30 1746 H 169.504 0.919517 -4.06941 0
M  V30 1747 H 168.134 1.24879 -2.97666 0
M  V30 1748 H 167.186 -1.076 -3.64865 0
M  V30 1749 H 168.498 -1.19909 -4.84173 0
M  V30 1750 H 167.652 0.847969 -6.00745 0
M  V30 1751 H 166.391 1.06062 -4.76027 0
M  V30 1752 H 165.396 -1.16102 -5.37401 0
M  V30 1753 H 166.621 -1.36097 -6.65323 0
M  V30 1754 H 164.567 0.877884 -6.50099 0
M  V30 1755 H 164.484 -0.504433 -7.54315 0
M  V30 1756 H 165.752 0.663537 -7.76671 0
M  V30 1757 N 169.982 1.44106 -0.638065 0
M  V30 1758 C 171.398 1.56672 -0.304286 0
M  V30 1759 C 171.598 1.6244 1.19228 0
M  V30 1760 O 170.654 1.57121 1.9766 0
M  V30 1761 C 171.967 2.83503 -1.00231 0
M  V30 1762 C 173.515 2.97226 -0.981116 0
M  V30 1763 C 173.99 4.26868 -1.65974 0
M  V30 1764 N 175.481 4.33698 -1.62666 0
M  V30 1765 C 176.216 5.32745 -2.12063 0
M  V30 1766 N 175.712 6.38157 -2.6968 0
M  V30 1767 N 177.505 5.24299 -2.02651 0
M  V30 1768 H 169.656 1.38605 -1.60942 0
M  V30 1769 H 171.919 0.664661 -0.675965 0
M  V30 1770 H 171.625 2.85251 -2.0573 0
M  V30 1771 H 171.499 3.73251 -0.54439 0
M  V30 1772 H 173.886 2.95027 0.0654188 0
M  V30 1773 H 173.967 2.08808 -1.47759 0
M  V30 1774 H 173.611 4.29826 -2.70576 0
M  V30 1775 H 173.541 5.14156 -1.13804 0
M  V30 1776 H 176.032 3.58138 -1.20606 0
M  V30 1777 H 176.345 7.10029 -3.05087 0
M  V30 1778 H 174.69 6.38823 -2.73734 0
M  V30 1779 H 177.881 4.4086 -1.57353 0
M  V30 1780 H 178.054 6.01334 -2.41457 0
M  V30 1781 N 171.46 0.379036 1.52974 0
M  V30 1782 C 172.688 -0.20679 2.05864 0
M  V30 1783 C 173.103 -1.41356 1.25155 0
M  V30 1784 O 172.46 -1.8009 0.295588 0
M  V30 1785 C 172.511 -0.587045 3.56702 0
M  V30 1786 O 172.232 0.571776 4.34353 0
M  V30 1787 C 173.733 -1.22983 4.25899 0
M  V30 1788 H 170.953 -0.0336123 0.670158 0
M  V30 1789 H 173.497 0.541298 1.97206 0
M  V30 1790 H 171.652 -1.28504 3.65466 0
M  V30 1791 H 172.066 0.261544 5.23847 0
M  V30 1792 H 173.54 -1.44635 5.32715 0
M  V30 1793 H 174.017 -2.19416 3.80465 0
M  V30 1794 H 174.623 -0.572892 4.21424 0
M  V30 1795 N 172.938 -1.57226 0.108567 0
M  V30 1796 C 173.901 -2.13602 -0.831082 0
M  V30 1797 C 174.901 -1.06841 -1.20173 0
M  V30 1798 O 176.091 -1.32666 -1.12895 0
M  V30 1799 C 173.223 -2.66769 -2.12243 0
M  V30 1800 H 174.416 -2.97951 -0.341317 0
M  V30 1801 H 171.969 -1.55667 -0.14057 0
M  V30 1802 H 172.704 -1.85977 -2.65675 0
M  V30 1803 H 172.489 -3.44839 -1.86625 0
M  V30 1804 H 173.979 -3.10332 -2.79435 0
M  V30 1805 N 174.416 0.165178 -1.56732 0
M  V30 1806 C 175.363 1.2044 -1.96883 0
M  V30 1807 C 176.333 1.43664 -0.833657 0
M  V30 1808 O 177.518 1.56302 -1.09427 0
M  V30 1809 C 174.658 2.53727 -2.33916 0
M  V30 1810 C 173.771 2.3783 -3.6064 0
M  V30 1811 C 172.906 3.64026 -3.86857 0
M  V30 1812 C 171.945 3.43088 -5.06909 0
M  V30 1813 N 171.082 4.61369 -5.29229 0
M  V30 1814 H 175.922 0.854996 -2.85471 0
M  V30 1815 H 173.459 0.41076 -1.41249 0
M  V30 1816 H 175.417 3.31419 -2.53411 0
M  V30 1817 H 174.047 2.8665 -1.48431 0
M  V30 1818 H 173.099 1.51282 -3.49024 0
M  V30 1819 H 174.411 2.18308 -4.4849 0
M  V30 1820 H 173.565 4.50152 -4.06753 0
M  V30 1821 H 172.304 3.86533 -2.97394 0
M  V30 1822 H 171.309 2.55349 -4.86906 0
M  V30 1823 H 172.534 3.21997 -5.97909 0
M  V30 1824 H 170.48 4.84084 -4.42718 0
M  V30 1825 H 170.397 4.44783 -6.11313 0
M  V30 1826 H 171.665 5.48761 -5.53608 0
M  V30 1827 N 175.894 1.51508 0.433938 0
M  V30 1828 C 176.857 1.72473 1.50949 0
M  V30 1829 C 177.857 0.594725 1.49398 0
M  V30 1830 O 179.047 0.862315 1.5136 0
M  V30 1831 C 176.179 1.78431 2.90474 0
M  V30 1832 H 177.372 2.68467 1.33662 0
M  V30 1833 H 174.925 1.41549 0.662836 0
M  V30 1834 H 175.66 0.842645 3.13161 0
M  V30 1835 H 175.445 2.60558 2.93005 0
M  V30 1836 H 176.935 1.96479 3.68491 0
M  V30 1837 N 177.372 -0.689602 1.41712 0
M  V30 1838 C 178.621 -1.44534 1.40686 0
M  V30 1839 C 178.934 -1.95588 0.0213352 0
M  V30 1840 O 180.14 -2.71271 -0.111534 0
M  V30 1841 C 178.596 -2.61387 2.47396 0
M  V30 1842 C 178.204 -2.17094 3.91885 0
M  V30 1843 C 179.948 -3.38986 2.55517 0
M  V30 1844 C 177.855 -3.3094 4.90135 0
M  V30 1845 H 176.785 -0.542925 0.52321 0
M  V30 1846 H 179.436 -0.748054 1.6756 0
M  V30 1847 H 177.818 -3.33412 2.13664 0
M  V30 1848 H 178.992 -1.52318 4.34897 0
M  V30 1849 H 177.307 -1.52473 3.8748 0
M  V30 1850 H 179.904 -4.23747 3.26102 0
M  V30 1851 H 180.247 -3.84578 1.59391 0
M  V30 1852 H 180.78 -2.74021 2.8837 0
M  V30 1853 H 177.519 -2.90355 5.87685 0
M  V30 1854 H 177.039 -3.94546 4.51767 0
M  V30 1855 H 178.718 -3.9663 5.11169 0
M  V30 1856 N 178.85 -1.27639 -0.924453 0
M  V30 1857 C 180.261 -1.12834 -1.48746 0
M  V30 1858 C 180.612 0.285505 -1.94112 0
M  V30 1859 O 179.737 1.17874 -1.81479 0
M  V30 1860 C 180.332 -2.04217 -2.70334 0
M  V30 1861 C 178.891 -1.93509 -3.22848 0
M  V30 1862 C 178.038 -1.96583 -1.95577 0
M  V30 1863 H 180.989 -1.40484 -0.738233 0
M  V30 1864 H 181.01 -1.59989 -3.4523 0
M  V30 1865 H 180.522 -3.07111 -2.37285 0
M  V30 1866 H 178.623 -0.936131 -3.60649 0
M  V30 1867 H 178.736 -2.79917 -3.88823 0
M  V30 1868 H 177.1 -1.4085 -2.12211 0
M  V30 1869 H 177.883 -3.01137 -1.64837 0
M  V30 1870 N 180.328 1.1314 -1.09713 0
M  V30 1871 C 181.574 1.84757 -0.836224 0
M  V30 1872 C 181.907 1.8347 0.636598 0
M  V30 1873 O 181.182 1.27491 1.46889 0
M  V30 1874 C 181.465 3.32782 -1.37578 0
M  V30 1875 C 181.318 3.42567 -2.91493 0
M  V30 1876 C 182.637 4.28307 -1.01198 0
M  V30 1877 H 179.756 0.67082 -0.305236 0
M  V30 1878 H 182.398 1.3278 -1.35903 0
M  V30 1879 H 180.548 3.77177 -0.931097 0
M  V30 1880 H 182.22 3.06862 -3.44432 0
M  V30 1881 H 180.463 2.83349 -3.28475 0
M  V30 1882 H 181.134 4.46674 -3.24324 0
M  V30 1883 H 183.61 3.91999 -1.39556 0
M  V30 1884 H 182.486 5.30307 -1.41653 0
M  V30 1885 H 182.747 4.42029 0.0794833 0
M  V30 1886 N 181.806 0.884767 1.30421 0
M  V30 1887 C 182.738 0.308655 2.27112 0
M  V30 1888 C 183.751 -0.536655 1.53701 0
M  V30 1889 O 184.94 -0.35624 1.74909 0
M  V30 1890 C 182.04 -0.579782 3.33904 0
M  V30 1891 C 181.213 0.236417 4.36761 0
M  V30 1892 C 180.272 -0.582482 5.22966 0
M  V30 1893 O 179.298 -0.00525502 5.692 0
M  V30 1894 N 180.5 -1.89163 5.48815 0
M  V30 1895 H 183.265 1.13964 2.77186 0
M  V30 1896 H 180.826 0.747731 1.43599 0
M  V30 1897 H 182.818 -1.13366 3.88497 0
M  V30 1898 H 181.388 -1.31144 2.83761 0
M  V30 1899 H 180.608 0.97174 3.82035 0
M  V30 1900 H 181.896 0.795924 5.02536 0
M  V30 1901 H 181.294 -2.38352 5.13035 0
M  V30 1902 H 179.851 -2.39296 6.06284 0
M  V30 1903 N 183.284 -1.43765 0.645699 0
M  V30 1904 C 184.53 -2.02197 0.156271 0
M  V30 1905 C 184.863 -1.50776 -1.22393 0
M  V30 1906 O 184.138 -0.697771 -1.81553 0
M  V30 1907 C 184.421 -3.59749 0.158872 0
M  V30 1908 C 184.274 -4.21419 1.57245 0
M  V30 1909 C 185.593 -4.37149 -0.50879 0
M  V30 1910 H 182.712 -0.734694 0.0582602 0
M  V30 1911 H 185.354 -1.71157 0.824951 0
M  V30 1912 H 183.504 -3.86325 -0.410525 0
M  V30 1913 H 185.176 -4.059 2.19186 0
M  V30 1914 H 183.419 -3.78356 2.122 0
M  V30 1915 H 184.09 -5.30482 1.52619 0
M  V30 1916 H 186.566 -4.16093 -0.024412 0
M  V30 1917 H 185.442 -5.4683 -0.476213 0
M  V30 1918 H 185.703 -4.12839 -1.58165 0
M  V30 1919 N 184.763 -0.387143 -1.52771 0
M  V30 1920 C 185.726 0.436939 -2.24997 0
M  V30 1921 C 186.726 0.991991 -1.26555 0
M  V30 1922 O 187.916 0.874335 -1.50669 0
M  V30 1923 C 185.048 1.61281 -3.00335 0
M  V30 1924 H 186.241 -0.195365 -2.99263 0
M  V30 1925 H 183.794 -0.139218 -1.55679 0
M  V30 1926 H 184.529 2.2826 -2.30364 0
M  V30 1927 H 184.314 1.22154 -3.72587 0
M  V30 1928 H 185.804 2.19629 -3.5518 0
M  V30 1929 O 186.28 1.59438 -0.257276 0
M  V30 1930 H 186.971 1.91101 0.316273 0
M  V30 END ATOM
M  V30 BEGIN BOND
M  V30 END BOND
M  V30 END CTAB
M  END
$$$$
