drugbank_target|Q96P88 Putative gonadotropin-releasing hormone II receptor (DB00644; DB00666; DB01406)
 OpenBabel12092119323D

  0  0  0     0  0            999 V3000
M  V30 BEGIN CTAB
M  V30 COUNTS 4636 4699 0 0 0
M  V30 BEGIN ATOM
M  V30 1 H -0.908 1.98254 -0.117106 0
M  V30 2 N 0 1.576 0 0
M  V30 3 C 0.933 2.03868 1.02534 0
M  V30 4 C 1.911 0.928543 1.3348 0
M  V30 5 O 3.095 1.19667 1.45644 0
M  V30 6 C 0.222 2.43627 2.35294 0
M  V30 7 C -0.732 3.65373 2.2001 0
M  V30 8 S 0.101 5.13292 1.52614 0
M  V30 9 C 1.257 5.56322 2.86805 0
M  V30 10 H 1.49 2.90518 0.631377 0
M  V30 11 H -0.977 1.52953 0.210867 0
M  V30 12 H 0.981 2.67203 3.11629 0
M  V30 13 H -0.358 1.57376 2.7183 0
M  V30 14 H -1.165 3.90944 3.18086 0
M  V30 15 H -1.563 3.418 1.51819 0
M  V30 16 H 0.729 5.58782 3.83104 0
M  V30 17 H 1.672 6.56266 2.65933 0
M  V30 18 H 2.08 4.83886 2.90714 0
M  V30 19 N 1.4781 -0.272755 1.55222 0
M  V30 20 C 2.7031 -1.02683 1.80197 0
M  V30 21 C 3.1281 -1.79142 0.573551 0
M  V30 22 O 2.4861 -1.74917 -0.476849 0
M  V30 23 C 2.5341 -1.9609 3.02624 0
M  V30 24 O 1.6381 -3.04863 2.77727 0
M  V30 25 H 0.9791 -0.293557 0.595584 0
M  V30 26 H 3.5091 -0.30159 2.02365 0
M  V30 27 H 3.5191 -2.38039 3.31363 0
M  V30 28 H 2.1941 -1.39851 3.91682 0
M  V30 29 H 0.7711 -2.67228 2.60084 0
M  V30 30 N 2.9562 -1.48159 -0.537278 0
M  V30 31 C 3.9192 -1.61665 -1.62472 0
M  V30 32 C 4.9192 -0.490395 -1.5314 0
M  V30 33 O 6.1092 -0.755998 -1.5694 0
M  V30 34 C 3.2412 -1.57997 -3.02076 0
M  V30 35 H 4.4342 -2.58621 -1.51839 0
M  V30 36 H 1.9872 -1.36647 -0.758771 0
M  V30 37 H 2.7222 -0.624913 -3.18222 0
M  V30 38 H 2.5072 -2.39755 -3.10258 0
M  V30 39 H 3.9972 -1.70627 -3.81151 0
M  V30 40 N 4.4343 0.785586 -1.36625 0
M  V30 41 C 5.6823 1.54057 -1.30808 0
M  V30 42 C 6.0033 1.94683 0.111157 0
M  V30 43 O 5.2733 1.65241 1.05224 0
M  V30 44 H 3.8533 0.571354 -0.481211 0
M  V30 45 H 6.5153 0.935821 -1.70963 0
M  V30 46 H 5.6113 2.44637 -1.93801 0
M  V30 47 N 5.9124 1.20967 1.01018 0
M  V30 48 C 6.8604 0.961223 2.1181 0
M  V30 49 C 7.8544 -0.0897034 1.69162 0
M  V30 50 O 9.0604 0.0612271 1.79896 0
M  V30 51 H 5.4354 0.29355 0.692338 0
M  V30 52 H 7.4064 1.90178 2.29946 0
M  V30 53 C 6.1554 0.536854 3.4353 0
M  V30 54 H 5.4784 1.33713 3.76777 0
M  V30 55 H 6.9184 0.402286 4.22087 0
M  V30 56 C 5.3774 -0.751574 3.2841 0
M  V30 57 O 5.9074 -1.80841 3.58691 0
M  V30 58 N 4.1134 -0.716079 2.81639 0
M  V30 59 H 3.6604 0.144236 2.57196 0
M  V30 60 H 3.6184 -1.57847 2.71904 0
M  V30 61 N 7.3905 -1.2043 1.01659 0
M  V30 62 C 8.6385 -1.89423 0.704522 0
M  V30 63 C 8.9595 -1.79231 -0.768197 0
M  V30 64 O 8.2295 -1.1947 -1.55254 0
M  V30 65 H 6.8095 -0.701178 0.257602 0
M  V30 66 H 9.4715 -1.4626 1.28818 0
M  V30 67 H 8.5675 -2.96052 0.987916 0
M  V30 68 N 8.8686 -0.792821 -1.36206 0
M  V30 69 C 10.0966 -0.378825 -2.03402 0
M  V30 70 C 10.5116 1.00586 -1.59774 0
M  V30 71 O 9.8686 1.64574 -0.788764 0
M  V30 72 C 9.9196 -0.43683 -3.58851 0
M  V30 73 O 9.6406 -1.76691 -4.00889 0
M  V30 74 C 11.1416 -0.0138943 -4.43298 0
M  V30 75 H 8.3616 -0.155673 -0.652692 0
M  V30 76 H 10.9056 -1.07261 -1.74113 0
M  V30 77 H 9.0606 0.208575 -3.86838 0
M  V30 78 H 9.4746 -1.72011 -4.95492 0
M  V30 79 H 10.9486 -0.105615 -5.51899 0
M  V30 80 H 11.4256 1.03915 -4.2673 0
M  V30 81 H 12.0316 -0.63192 -4.20579 0
M  V30 82 N 10.3467 1.47872 -0.545128 0
M  V30 83 C 11.7577 1.86384 -0.108581 0
M  V30 84 C 12.1087 1.45309 1.31832 0
M  V30 85 O 11.2337 0.850641 1.9898 0
M  V30 86 C 11.8287 3.38265 -0.190274 0
M  V30 87 C 10.3877 3.75914 0.191164 0
M  V30 88 C 9.5347 2.71926 -0.543273 0
M  V30 89 H 12.4857 1.39561 -0.755537 0
M  V30 90 H 12.5067 3.75831 0.594217 0
M  V30 91 H 12.0187 3.6813 -1.2289 0
M  V30 92 H 10.1197 3.51665 1.23136 0
M  V30 93 H 10.2327 4.78836 -0.158987 0
M  V30 94 H 8.5967 2.54697 0.0122495 0
M  V30 95 H 9.3797 3.04634 -1.58282 0
M  V30 96 N 11.8248 0.280983 1.55075 0
M  V30 97 C 13.0708 -0.327573 2.00745 0
M  V30 98 C 13.4258 -1.53045 1.16598 0
M  V30 99 O 12.7188 -1.90221 0.229451 0
M  V30 100 C 12.9128 -0.754656 3.49342 0
M  V30 101 C 12.7418 0.40529 4.4787 0
M  V30 102 C 11.5118 0.890947 4.97383 0
M  V30 103 C 13.7098 1.24371 4.99035 0
M  V30 104 N 11.6918 2.01975 5.79724 0
M  V30 105 C 13.0628 2.22031 5.7888 0
M  V30 106 C 15.1178 1.27638 4.81262 0
M  V30 107 C 13.8208 3.22709 6.42846 0
M  V30 108 C 15.8468 2.27164 5.46031 0
M  V30 109 C 15.2088 3.23556 6.25692 0
M  V30 110 H 11.3078 -0.0848774 0.77738 0
M  V30 111 H 13.8918 0.406342 1.90413 0
M  V30 112 H 12.0628 -1.45778 3.60005 0
M  V30 113 H 13.7948 -1.34105 3.81835 0
M  V30 114 H 10.5498 0.469262 4.71269 0
M  V30 115 H 10.9738 2.58794 6.25584 0
M  V30 116 H 15.6158 0.544936 4.19274 0
M  V30 117 H 13.3338 3.96784 7.0398 0
M  V30 118 H 16.9198 2.30441 5.34217 0
M  V30 119 H 15.7998 3.99309 6.74924 0
M  V30 120 N 13.3029 -1.57598 0.00835791 0
M  V30 121 C 14.5799 -1.82172 -0.712235 0
M  V30 122 C 14.9599 -0.887873 -1.9152 0
M  V30 123 O 14.3079 0.06146 -2.28417 0
M  V30 124 C 14.5179 -3.30875 -1.11008 0
M  V30 125 C 15.8659 -3.96826 -1.51044 0
M  V30 126 O 16.8899 -3.35248 -1.20364 0
M  V30 127 O 15.7489 -5.05318 -2.08125 0
M  V30 128 H 12.8429 -0.750435 -0.347529 0
M  V30 129 H 15.3889 -1.69665 0.0344523 0
M  V30 130 H 14.1609 -3.90481 -0.252982 0
M  V30 131 H 13.7839 -3.48412 -1.9156 0
M  V30 132 N 14.781 0.264519 -1.55364 0
M  V30 133 C 15.744 1.31046 -1.88042 0
M  V30 134 C 16.744 1.41943 -0.755569 0
M  V30 135 O 17.934 1.40947 -1.02369 0
M  V30 136 C 15.066 2.69067 -2.09323 0
M  V30 137 H 16.259 1.03297 -2.81549 0
M  V30 138 H 13.812 0.502989 -1.47986 0
M  V30 139 H 14.547 3.01982 -1.18226 0
M  V30 140 H 14.332 2.62542 -2.91229 0
M  V30 141 H 15.822 3.44623 -2.35848 0
M  V30 142 N 16.2591 1.48442 0.529413 0
M  V30 143 C 17.4871 1.60151 1.30994 0
M  V30 144 C 17.9021 0.261985 1.86973 0
M  V30 145 O 17.2591 -0.748805 1.66431 0
M  V30 146 C 17.3101 2.64854 2.46038 0
M  V30 147 O 17.0311 3.93608 1.92365 0
M  V30 148 C 18.5321 2.87007 3.37849 0
M  V30 149 H 15.7521 0.539971 0.398338 0
M  V30 150 H 18.2961 1.94273 0.638597 0
M  V30 151 H 16.4511 2.33589 3.09055 0
M  V30 152 H 16.8651 4.51055 2.67675 0
M  V30 153 H 18.3391 3.64068 4.14919 0
M  V30 154 H 18.8161 1.95852 3.93114 0
M  V30 155 H 19.4221 3.19579 2.80623 0
M  V30 156 N 17.7372 -0.778329 1.37039 0
M  V30 157 C 18.9832 -1.53817 1.33086 0
M  V30 158 C 19.3382 -1.92208 -0.0860346 0
M  V30 159 O 18.6312 -1.60713 -1.04316 0
M  V30 160 C 18.8252 -2.81845 2.19768 0
M  V30 161 C 18.6542 -2.55967 3.69744 0
M  V30 162 C 17.4242 -2.50428 4.38878 0
M  V30 163 C 19.6222 -2.2441 4.62758 0
M  V30 164 N 17.6042 -2.16564 5.74433 0
M  V30 165 C 18.9752 -2.0063 5.86641 0
M  V30 166 C 21.0302 -2.1051 4.5121 0
M  V30 167 C 19.7332 -1.64354 7.00272 0
M  V30 168 C 21.7592 -1.75634 5.64718 0
M  V30 169 C 21.1212 -1.52709 6.87648 0
M  V30 170 H 17.2202 -0.563434 0.542279 0
M  V30 171 H 19.8042 -0.908617 1.72198 0
M  V30 172 H 17.9752 -3.42649 1.82883 0
M  V30 173 H 19.7072 -3.47682 2.07122 0
M  V30 174 H 16.4622 -2.66056 3.91805 0
M  V30 175 H 16.8862 -2.02348 6.46053 0
M  V30 176 H 21.5282 -2.26919 3.56746 0
M  V30 177 H 19.2462 -1.46683 7.94676 0
M  V30 178 H 22.8322 -1.65546 5.57751 0
M  V30 179 H 21.7122 -1.2612 7.73992 0
M  V30 180 N 19.2153 -1.21501 -1.00376 0
M  V30 181 C 20.1633 -0.972442 -2.11297 0
M  V30 182 C 21.1573 0.080731 -1.69208 0
M  V30 183 O 22.3633 -0.0707666 -1.79861 0
M  V30 184 H 18.7383 -0.297218 -0.690772 0
M  V30 185 H 20.7093 -1.91394 -2.28934 0
M  V30 186 C 19.4583 -0.555065 -3.43241 0
M  V30 187 H 18.7813 -1.35709 -3.76062 0
M  V30 188 H 20.2213 -0.424664 -4.21868 0
M  V30 189 C 18.6803 0.734147 -3.28804 0
M  V30 190 O 19.2103 1.78937 -3.59645 0
M  V30 191 N 17.4163 0.701133 -2.82015 0
M  V30 192 H 16.9633 -0.157874 -2.57116 0
M  V30 193 H 16.9213 1.56403 -2.72737 0
M  V30 194 N 20.6934 1.19889 -1.02296 0
M  V30 195 C 21.9424 1.88743 -0.711257 0
M  V30 196 C 22.2554 1.80112 0.762817 0
M  V30 197 O 23.4614 2.44161 1.18733 0
M  V30 198 C 21.9174 3.38525 -1.22185 0
M  V30 199 C 21.5254 3.55727 -2.72328 0
M  V30 200 C 23.2694 4.12893 -0.985864 0
M  V30 201 C 21.1764 4.99369 -3.16835 0
M  V30 202 H 20.1064 0.706885 -0.262353 0
M  V30 203 H 22.7574 1.35586 -1.23648 0
M  V30 204 H 21.1394 3.91044 -0.624571 0
M  V30 205 H 22.3134 3.13564 -3.3766 0
M  V30 206 H 20.6284 2.94739 -2.9414 0
M  V30 207 H 23.2254 5.18813 -1.29374 0
M  V30 208 H 23.5684 4.16228 0.0775055 0
M  V30 209 H 24.1014 3.66494 -1.54684 0
M  V30 210 H 20.8404 5.01193 -4.22476 0
M  V30 211 H 20.3604 5.42317 -2.56228 0
M  V30 212 H 22.0394 5.67988 -3.09837 0
M  V30 213 N 22.1715 0.800033 1.35784 0
M  V30 214 C 23.3995 0.389606 2.03199 0
M  V30 215 C 23.8145 -0.997375 1.60306 0
M  V30 216 O 23.1715 -1.64154 0.797481 0
M  V30 217 C 23.2225 0.455855 3.58614 0
M  V30 218 O 22.9435 1.78815 3.99946 0
M  V30 219 C 24.4445 0.0374032 4.43284 0
M  V30 220 H 21.6645 0.159132 0.651857 0
M  V30 221 H 24.2085 1.08183 1.73541 0
M  V30 222 H 22.3635 -0.188057 3.86943 0
M  V30 223 H 22.7775 1.74636 4.94573 0
M  V30 224 H 24.2515 0.134882 5.51835 0
M  V30 225 H 24.7285 -1.01651 4.27275 0
M  V30 226 H 25.3345 0.654215 4.20238 0
M  V30 227 N 23.6496 -1.47581 0.552962 0
M  V30 228 C 24.8956 -2.02782 0.0273648 0
M  V30 229 C 25.2286 -1.42687 -1.31734 0
M  V30 230 O 24.5036 -0.580897 -1.85623 0
M  V30 231 C 24.7866 -3.60031 -0.0702371 0
M  V30 232 C 24.6396 -4.30566 1.30126 0
M  V30 233 C 25.9586 -4.33028 -0.785771 0
M  V30 234 H 23.0776 -0.736912 0.0114185 0
M  V30 235 H 25.7196 -1.76056 0.714432 0
M  V30 236 H 23.8696 -3.82932 -0.655382 0
M  V30 237 H 25.5416 -4.19018 1.92929 0
M  V30 238 H 23.7846 -3.91086 1.87709 0
M  V30 239 H 24.4556 -5.39114 1.18573 0
M  V30 240 H 26.9316 -4.15095 -0.288982 0
M  V30 241 H 25.8076 -5.42695 -0.823013 0
M  V30 242 H 26.0686 -4.01945 -1.841 0
M  V30 243 N 25.1277 -0.289203 -1.54924 0
M  V30 244 C 26.0597 0.625583 -2.20497 0
M  V30 245 C 27.0727 1.10667 -1.19402 0
M  V30 246 O 28.2617 1.02615 -1.46056 0
M  V30 247 C 25.3617 1.86702 -2.82835 0
M  V30 248 C 24.5347 1.5304 -4.09753 0
M  V30 249 C 23.5937 2.62576 -4.56005 0
M  V30 250 O 22.6197 2.28167 -5.21468 0
M  V30 251 N 23.8217 3.92901 -4.27328 0
M  V30 252 H 26.5867 0.0642801 -2.99631 0
M  V30 253 H 24.1477 -0.110896 -1.6152 0
M  V30 254 H 26.1397 2.59304 -3.10715 0
M  V30 255 H 24.7097 2.33702 -2.07611 0
M  V30 256 H 23.9297 0.637564 -3.8901 0
M  V30 257 H 25.2177 1.28072 -4.92418 0
M  V30 258 H 24.6157 4.23671 -3.74859 0
M  V30 259 H 23.1727 4.61837 -4.59946 0
M  V30 260 N 26.6058 1.57591 -0.0167156 0
M  V30 261 C 27.8518 1.92399 0.659861 0
M  V30 262 C 28.2068 0.892561 1.70444 0
M  V30 263 O 27.4998 -0.0930755 1.91374 0
M  V30 264 C 27.6938 3.3172 1.33029 0
M  V30 265 C 27.5228 4.48319 0.352174 0
M  V30 266 C 26.2928 5.05281 -0.0434883 0
M  V30 267 C 28.4908 5.12831 -0.388474 0
M  V30 268 N 26.4728 6.05399 -1.01807 0
M  V30 269 C 27.8438 6.07934 -1.2172 0
M  V30 270 C 29.8988 4.95858 -0.450513 0
M  V30 271 C 28.6018 6.87891 -2.10235 0
M  V30 272 C 30.6278 5.76413 -1.32295 0
M  V30 273 C 29.9898 6.71123 -2.13948 0
M  V30 274 H 26.0888 0.752106 0.21415 0
M  V30 275 H 28.6728 1.94532 -0.0809846 0
M  V30 276 H 26.8438 3.3043 2.04134 0
M  V30 277 H 28.5758 3.5391 1.9629 0
M  V30 278 H 25.3308 4.7246 0.328384 0
M  V30 279 H 25.7548 6.60145 -1.50123 0
M  V30 280 H 30.3968 4.22472 0.166512 0
M  V30 281 H 28.1148 7.60591 -2.72997 0
M  V30 282 H 31.7008 5.65317 -1.37508 0
M  V30 283 H 30.5808 7.3237 -2.80364 0
M  V30 284 N 28.0839 -0.256276 1.55502 0
M  V30 285 C 29.0139 -1.32102 1.92539 0
M  V30 286 C 29.9949 -1.50684 0.789194 0
M  V30 287 O 31.1799 -1.63449 1.04872 0
M  V30 288 C 28.3099 -2.67752 2.21192 0
M  V30 289 C 27.2639 -2.63878 3.36975 0
M  V30 290 C 26.5899 -4.03236 3.51147 0
M  V30 291 C 27.8899 -2.21682 4.72921 0
M  V30 292 H 29.5839 -1.01351 2.81724 0
M  V30 293 H 27.1299 -0.486105 1.35547 0
M  V30 294 H 29.0829 -3.42365 2.45691 0
M  V30 295 H 27.8069 -3.0012 1.28824 0
M  V30 296 H 26.4659 -1.91722 3.12471 0
M  V30 297 H 26.1139 -4.32854 2.56216 0
M  V30 298 H 25.8139 -4.01535 4.29003 0
M  V30 299 H 27.3379 -4.79563 3.77957 0
M  V30 300 H 28.7519 -2.86023 4.96854 0
M  V30 301 H 27.1489 -2.3111 5.53812 0
M  V30 302 H 28.2189 -1.16833 4.70615 0
M  V30 303 N 29.562 -1.4872 -0.521534 0
M  V30 304 C 30.525 -1.63379 -1.60748 0
M  V30 305 C 31.525 -0.50661 -1.52611 0
M  V30 306 O 32.715 -0.772601 -1.5613 0
M  V30 307 C 29.847 -1.61192 -3.00383 0
M  V30 308 H 31.04 -2.60217 -1.49087 0
M  V30 309 H 28.593 -1.37444 -0.744235 0
M  V30 310 H 29.328 -0.65863 -3.17541 0
M  V30 311 H 29.113 -2.43032 -3.07698 0
M  V30 312 H 30.603 -1.7466 -3.7932 0
M  V30 313 N 31.0401 0.771051 -1.3745 0
M  V30 314 C 32.2861 1.5319 -1.32894 0
M  V30 315 C 32.6191 1.94008 0.0862511 0
M  V30 316 O 31.8941 1.64124 1.04373 0
M  V30 317 C 32.1771 2.79648 -2.26868 0
M  V30 318 C 32.0301 2.45079 -3.77169 0
M  V30 319 C 33.3491 3.81583 -2.19277 0
M  V30 320 H 30.4681 0.555744 -0.484064 0
M  V30 321 H 33.1101 0.884492 -1.68157 0
M  V30 322 H 31.2601 3.34891 -1.96926 0
M  V30 323 H 32.9321 1.95745 -4.1771 0
M  V30 324 H 31.1751 1.77767 -3.95704 0
M  V30 325 H 31.8461 3.35478 -4.38359 0
M  V30 326 H 34.3221 3.35835 -2.45671 0
M  V30 327 H 33.1981 4.67787 -2.87171 0
M  V30 328 H 33.4591 4.25897 -1.18592 0
M  V30 329 N 32.5182 1.22032 0.997298 0
M  V30 330 C 33.7952 0.950823 1.70935 0
M  V30 331 C 34.1752 -0.535292 2.042 0
M  V30 332 O 33.5232 -1.50217 1.72183 0
M  V30 333 C 33.7332 1.84386 2.96315 0
M  V30 334 C 35.0812 2.09732 3.69185 0
M  V30 335 O 36.1052 1.81798 3.06314 0
M  V30 336 O 34.9642 2.57018 4.82291 0
M  V30 337 H 32.0582 0.357204 0.745878 0
M  V30 338 H 34.6042 1.32997 1.05404 0
M  V30 339 H 33.3762 2.84928 2.68201 0
M  V30 340 H 32.9992 1.46602 3.69586 0
M  V30 341 N 33.9963 -1.19345 1.0293 0
M  V30 342 C 35.2453 -1.88363 0.721256 0
M  V30 343 C 35.5583 -1.80514 -0.753254 0
M  V30 344 O 36.7643 -2.44788 -1.17436 0
M  V30 345 C 35.2203 -3.37872 1.23978 0
M  V30 346 C 34.8283 -3.54278 2.74211 0
M  V30 347 C 36.5723 -4.12365 1.00775 0
M  V30 348 C 34.4793 -4.97682 3.19479 0
M  V30 349 H 33.4093 -0.705484 0.266098 0
M  V30 350 H 36.0603 -1.34928 1.24365 0
M  V30 351 H 34.4423 -3.90707 0.6453 0
M  V30 352 H 35.6163 -3.11769 3.39318 0
M  V30 353 H 33.9313 -2.93174 2.95699 0
M  V30 354 H 36.5283 -5.18119 1.32123 0
M  V30 355 H 36.8713 -4.16263 -0.0554308 0
M  V30 356 H 37.4043 -3.65668 1.56625 0
M  V30 357 H 34.1433 -4.98945 4.25128 0
M  V30 358 H 33.6633 -5.4095 2.591 0
M  V30 359 H 35.3423 -5.66337 3.12845 0
M  V30 360 N 35.4744 -0.807222 -1.35358 0
M  V30 361 C 36.4374 -0.223665 -2.28106 0
M  V30 362 C 37.4374 0.589354 -1.4961 0
M  V30 363 O 38.6274 0.407745 -1.69361 0
M  V30 364 C 35.7594 0.688149 -3.33882 0
M  V30 365 H 36.9524 -1.04169 -2.81227 0
M  V30 366 H 34.5054 -0.577921 -1.45223 0
M  V30 367 H 35.2404 1.52984 -2.85948 0
M  V30 368 H 35.0254 0.10687 -3.91954 0
M  V30 369 H 36.5154 1.09075 -4.03104 0
M  V30 370 N 36.9525 1.47285 -0.560781 0
M  V30 371 C 38.1925 2.0436 -0.0404627 0
M  V30 372 C 38.5565 1.42534 1.28639 0
M  V30 373 O 39.7575 1.90677 1.89462 0
M  V30 374 C 38.0285 3.57369 0.0471856 0
M  V30 375 S 39.5875 4.3579 0.513109 0
M  V30 376 H 36.4055 0.710492 -0.0268674 0
M  V30 377 H 39.0075 1.80611 -0.748323 0
M  V30 378 H 37.7115 3.9989 -0.922817 0
M  V30 379 H 37.2425 3.8562 0.778491 0
M  V30 380 H 39.2575 4.63476 1.77212 0
M  V30 381 N 38.4306 0.297415 1.54768 0
M  V30 382 C 39.8466 -0.0560823 1.59501 0
M  V30 383 C 40.0466 -1.52725 1.31444 0
M  V30 384 O 39.1026 -2.27947 1.08611 0
M  V30 385 C 40.4156 0.338631 2.98787 0
M  V30 386 C 41.9636 0.287097 3.11681 0
M  V30 387 C 42.4386 0.656579 4.53269 0
M  V30 388 N 43.9296 0.608977 4.59179 0
M  V30 389 C 44.6646 0.867385 5.66802 0
M  V30 390 N 44.1606 1.19157 6.82476 0
M  V30 391 N 45.9536 0.794687 5.56454 0
M  V30 392 H 38.1046 1.25624 1.71267 0
M  V30 393 H 40.3676 0.509057 0.799728 0
M  V30 394 H 40.0736 1.36263 3.2423 0
M  V30 395 H 39.9476 -0.309508 3.75928 0
M  V30 396 H 42.3346 -0.727649 2.85988 0
M  V30 397 H 42.4156 0.969809 2.36703 0
M  V30 398 H 42.0596 1.66912 4.7969 0
M  V30 399 H 41.9896 -0.0481649 5.26578 0
M  V30 400 H 44.4806 0.369198 3.76092 0
M  V30 401 H 44.7936 1.37482 7.60473 0
M  V30 402 H 43.1386 1.22958 6.84037 0
M  V30 403 H 46.3296 0.541098 4.64962 0
M  V30 404 H 46.5026 0.999445 6.40246 0
M  V30 405 N 39.9087 -1.5758 0.0250728 0
M  V30 406 C 41.1367 -1.9593 -0.664747 0
M  V30 407 C 41.5517 -0.901352 -1.65895 0
M  V30 408 O 40.9087 0.117255 -1.82123 0
M  V30 409 C 40.9597 -3.34342 -1.37468 0
M  V30 410 O 40.6807 -4.36079 -0.420324 0
M  V30 411 C 42.1817 -3.873 -2.1567 0
M  V30 412 H 39.4017 -0.645405 -0.183557 0
M  V30 413 H 41.9457 -2.04329 0.0836372 0
M  V30 414 H 40.1007 -3.27175 -2.0745 0
M  V30 415 H 40.5147 -5.16297 -0.923991 0
M  V30 416 H 41.9887 -4.86504 -2.60803 0
M  V30 417 H 42.4657 -3.21331 -2.99405 0
M  V30 418 H 43.0717 -3.97723 -1.50654 0
M  V30 419 N 41.3868 0.248026 -1.55636 0
M  V30 420 C 42.3168 1.31079 -1.93237 0
M  V30 421 C 43.2978 1.50264 -0.797174 0
M  V30 422 O 44.4828 1.62891 -1.05737 0
M  V30 423 C 41.6128 2.66575 -2.22609 0
M  V30 424 C 40.5668 2.62087 -3.3837 0
M  V30 425 C 39.8928 4.01369 -3.53281 0
M  V30 426 C 41.1928 2.19171 -4.7409 0
M  V30 427 H 42.8868 0.998556 -2.82257 0
M  V30 428 H 40.4328 0.47891 -1.35803 0
M  V30 429 H 42.3858 3.41057 -2.47503 0
M  V30 430 H 41.1098 2.99432 -1.30414 0
M  V30 431 H 39.7688 1.90063 -3.13483 0
M  V30 432 H 39.4168 4.31489 -2.58508 0
M  V30 433 H 39.1168 3.99254 -4.31127 0
M  V30 434 H 40.6408 4.77552 -3.80495 0
M  V30 435 H 42.0548 2.83384 -4.98363 0
M  V30 436 H 40.4518 2.2817 -5.5503 0
M  V30 437 H 41.5218 1.14336 -4.71227 0
M  V30 438 N 42.8649 1.48995 0.513639 0
M  V30 439 C 43.7979 1.59319 1.63379 0
M  V30 440 C 44.7759 0.442816 1.56454 0
M  V30 441 O 45.9599 0.656655 1.76693 0
M  V30 442 C 43.0869 1.5364 3.01848 0
M  V30 443 C 42.1329 2.7372 3.27078 0
M  V30 444 S 42.9659 4.35528 3.1157 0
M  V30 445 C 44.1219 4.32473 4.52458 0
M  V30 446 H 44.3549 2.54079 1.54374 0
M  V30 447 H 41.8879 1.3773 0.697849 0
M  V30 448 H 43.8459 1.51049 3.81699 0
M  V30 449 H 42.5069 0.601898 3.08279 0
M  V30 450 H 41.6999 2.6593 4.28132 0
M  V30 451 H 41.3019 2.73657 2.54927 0
M  V30 452 H 43.5939 4.03414 5.44301 0
M  V30 453 H 44.5369 5.33762 4.65299 0
M  V30 454 H 44.9449 3.62718 4.32546 0
M  V30 455 N 44.343 -0.763751 1.37857 0
M  V30 456 C 45.59 -1.52257 1.33506 0
M  V30 457 C 45.918 -1.94343 -0.078022 0
M  V30 458 O 45.173 -1.64958 -1.05297 0
M  V30 459 C 45.472 -2.79499 2.22745 0
M  V30 460 C 45.138 -2.56426 3.70886 0
M  V30 461 C 43.8 -2.49842 4.11257 0
M  V30 462 C 46.152 -2.36008 4.64704 0
M  V30 463 C 43.48 -2.20841 5.43549 0
M  V30 464 C 45.832 -2.0853 5.97242 0
M  V30 465 C 44.496 -2.00396 6.36709 0
M  V30 466 H 43.766 -0.557149 0.488534 0
M  V30 467 H 46.413 -0.879073 1.70131 0
M  V30 468 H 44.718 -3.48447 1.79142 0
M  V30 469 H 46.415 -3.37413 2.16688 0
M  V30 470 H 43.005 -2.62416 3.38874 0
M  V30 471 H 47.189 -2.40079 4.34368 0
M  V30 472 H 42.445 -2.13045 5.73081 0
M  V30 473 H 46.619 -1.91732 6.69486 0
M  V30 474 H 44.246 -1.77688 7.39142 0
M  V30 475 N 45.8211 -1.22559 -0.990812 0
M  V30 476 C 46.7511 -1.0218 -2.09956 0
M  V30 477 C 47.7321 0.0579394 -1.70001 0
M  V30 478 O 48.9171 -0.104684 -1.93918 0
M  V30 479 C 46.0471 -0.601023 -3.4206 0
M  V30 480 C 45.0011 -1.62694 -3.95872 0
M  V30 481 C 44.3271 -1.06193 -5.24049 0
M  V30 482 C 45.6271 -3.01743 -4.2632 0
M  V30 483 H 47.3211 -1.94916 -2.27262 0
M  V30 484 H 44.8671 -0.938566 -1.09211 0
M  V30 485 H 46.8201 -0.445561 -4.19038 0
M  V30 486 H 45.5441 0.362005 -3.24588 0
M  V30 487 H 44.2031 -1.77021 -3.21028 0
M  V30 488 H 43.8511 -0.0901903 -5.02919 0
M  V30 489 H 43.5511 -1.74732 -5.61019 0
M  V30 490 H 45.0751 -0.918092 -6.03658 0
M  V30 491 H 46.4891 -2.90777 -4.94087 0
M  V30 492 H 44.8861 -3.67425 -4.74467 0
M  V30 493 H 45.9561 -3.51518 -3.34011 0
M  V30 494 N 47.2992 1.18797 -1.03562 0
M  V30 495 C 48.2462 2.22253 -0.622259 0
M  V30 496 C 49.2162 1.61987 0.36736 0
M  V30 497 O 50.4012 1.88986 0.262492 0
M  V30 498 C 47.5412 3.45097 0.0138462 0
M  V30 499 C 46.6542 4.19722 -1.02263 0
M  V30 500 C 45.7892 5.30009 -0.355573 0
M  V30 501 C 44.8282 5.96399 -1.37749 0
M  V30 502 N 43.9652 6.98234 -0.735766 0
M  V30 503 H 48.8052 2.56968 -1.50903 0
M  V30 504 H 46.3422 1.26245 -0.755017 0
M  V30 505 H 48.3002 4.15279 0.399948 0
M  V30 506 H 46.9302 3.11018 0.864158 0
M  V30 507 H 45.9822 3.48418 -1.52673 0
M  V30 508 H 47.2942 4.65227 -1.79903 0
M  V30 509 H 46.4482 6.0664 0.0850095 0
M  V30 510 H 45.1872 4.85592 0.452967 0
M  V30 511 H 44.1922 5.18512 -1.82826 0
M  V30 512 H 45.4172 6.42899 -2.18764 0
M  V30 513 H 43.3632 6.55979 0.0525597 0
M  V30 514 H 43.2802 7.41965 -1.44995 0
M  V30 515 H 44.5482 7.78845 -0.31941 0
M  V30 516 N 48.7773 0.814389 1.34928 0
M  V30 517 C 49.7073 0.244827 2.32213 0
M  V30 518 C 50.6883 -0.634024 1.57842 0
M  V30 519 O 51.8733 -0.562676 1.8587 0
M  V30 520 C 49.0033 -0.601106 3.42058 0
M  V30 521 C 47.9573 0.179896 4.27622 0
M  V30 522 C 47.2833 -0.788237 5.28858 0
M  V30 523 C 48.5833 1.38329 5.03649 0
M  V30 524 H 50.2773 1.05763 2.80097 0
M  V30 525 H 47.8233 0.510029 1.34665 0
M  V30 526 H 49.7763 -1.00968 4.09125 0
M  V30 527 H 48.5003 -1.44688 2.92802 0
M  V30 528 H 47.1593 0.569739 3.62146 0
M  V30 529 H 46.8073 -1.62973 4.75866 0
M  V30 530 H 46.5073 -0.269942 5.8698 0
M  V30 531 H 48.0313 -1.19485 5.98795 0
M  V30 532 H 49.4453 1.04918 5.63618 0
M  V30 533 H 47.8423 1.83662 5.71304 0
M  V30 534 H 48.9123 2.16592 4.33839 0
M  V30 535 N 50.2554 -1.46986 0.568584 0
M  V30 536 C 51.1884 -2.27129 -0.220779 0
M  V30 537 C 52.1664 -1.34757 -0.909905 0
M  V30 538 O 53.3504 -1.64152 -0.926622 0
M  V30 539 C 50.4774 -3.12108 -1.31553 0
M  V30 540 C 49.5234 -4.20141 -0.733748 0
M  V30 541 S 50.3564 -5.33783 0.428479 0
M  V30 542 C 51.5124 -6.22327 -0.667811 0
M  V30 543 H 51.7454 -2.93731 0.459267 0
M  V30 544 H 49.2784 -1.5026 0.355154 0
M  V30 545 H 51.2364 -3.61636 -1.94241 0
M  V30 546 H 49.8974 -2.44847 -1.96746 0
M  V30 547 H 49.0904 -4.79373 -1.5562 0
M  V30 548 H 48.6924 -3.73553 -0.182812 0
M  V30 549 H 50.9844 -6.59364 -1.55708 0
M  V30 550 H 51.9274 -7.0801 -0.11258 0
M  V30 551 H 52.3354 -5.5618 -0.965601 0
M  V30 552 N 51.7335 -0.305618 -1.54608 0
M  V30 553 C 52.6965 0.555591 -2.22364 0
M  V30 554 C 53.6965 1.05768 -1.21119 0
M  V30 555 O 54.8865 0.952972 -1.45822 0
M  V30 556 C 52.0185 1.76974 -2.91364 0
M  V30 557 H 53.2115 -0.0364572 -2.99878 0
M  V30 558 H 50.7645 -0.0565007 -1.56198 0
M  V30 559 H 51.4995 2.40151 -2.17941 0
M  V30 560 H 51.2845 1.41732 -3.65588 0
M  V30 561 H 52.7745 2.38148 -3.43038 0
M  V30 562 N 53.2116 1.57565 -0.0334293 0
M  V30 563 C 54.4396 1.9628 0.654347 0
M  V30 564 C 54.8546 0.910138 1.65414 0
M  V30 565 O 54.2116 -0.107595 1.82183 0
M  V30 566 C 54.2626 3.35067 1.35693 0
M  V30 567 O 53.9836 4.36296 0.397191 0
M  V30 568 C 55.4846 3.88439 2.13613 0
M  V30 569 H 52.7046 0.646369 0.180132 0
M  V30 570 H 55.2486 2.04282 -0.0944721 0
M  V30 571 H 53.4036 3.2827 2.05712 0
M  V30 572 H 53.8176 5.1678 0.896597 0
M  V30 573 H 55.2916 4.8788 2.58219 0
M  V30 574 H 55.7686 3.22914 2.97696 0
M  V30 575 H 56.3746 3.98516 1.48543 0
M  V30 576 N 54.6897 -0.239769 1.55765 0
M  V30 577 C 55.9197 -0.982743 1.8173 0
M  V30 578 C 56.3277 -1.7917 0.607835 0
M  V30 579 O 55.6707 -1.78525 -0.432973 0
M  V30 580 C 55.7327 -1.96332 3.01155 0
M  V30 581 C 55.3967 -1.34062 4.36894 0
M  V30 582 C 56.3937 -0.739539 5.14613 0
M  V30 583 C 54.0787 -1.35784 4.83599 0
M  V30 584 C 56.0727 -0.163989 6.37189 0
M  V30 585 C 53.7597 -0.778441 6.06122 0
M  V30 586 C 54.7577 -0.182548 6.82756 0
M  V30 587 O 54.4457 0.387887 8.02964 0
M  V30 588 H 54.1777 -0.294481 0.608487 0
M  V30 589 H 56.7317 -0.26572 2.03674 0
M  V30 590 H 54.9617 -2.71884 2.74984 0
M  V30 591 H 56.6507 -2.57032 3.14149 0
M  V30 592 H 57.4167 -0.718687 4.79646 0
M  V30 593 H 53.2957 -1.81105 4.23936 0
M  V30 594 H 56.8397 0.301753 6.96947 0
M  V30 595 H 52.7367 -0.796645 6.40565 0
M  V30 596 H 53.5047 0.28044 8.18019 0
M  V30 597 N 56.1678 -1.49265 -0.50573 0
M  V30 598 C 57.3928 -1.62478 -1.28902 0
M  V30 599 C 57.8178 -0.294332 -1.85783 0
M  V30 600 O 57.1758 0.737412 -1.65626 0
M  V30 601 C 57.2238 -2.69268 -2.39848 0
M  V30 602 O 56.3278 -2.28113 -3.43567 0
M  V30 603 H 55.6688 -0.54399 -0.380751 0
M  V30 604 H 58.1988 -1.95421 -0.605952 0
M  V30 605 H 58.2088 -2.91291 -2.85681 0
M  V30 606 H 56.8838 -3.65846 -1.97812 0
M  V30 607 H 55.4608 -2.16401 -3.03685 0
M  V30 608 N 57.6459 0.756429 -1.3826 0
M  V30 609 C 58.6089 1.85176 -1.35065 0
M  V30 610 C 59.6089 1.58818 -0.251703 0
M  V30 611 O 60.7989 1.66615 -0.508433 0
M  V30 612 C 57.9309 3.22596 -1.10201 0
M  V30 613 H 59.1239 1.89417 -2.3251 0
M  V30 614 H 56.6769 0.95783 -1.23512 0
M  V30 615 H 57.4119 3.24025 -0.133504 0
M  V30 616 H 57.1969 3.43122 -1.89762 0
M  V30 617 H 58.6869 4.02673 -1.10654 0
M  V30 618 N 59.124 1.23083 0.984299 0
M  V30 619 C 60.087 1.00979 2.05757 0
M  V30 620 C 61.087 -0.0269573 1.60777 0
M  V30 621 O 62.277 0.212403 1.729 0
M  V30 622 C 59.409 0.527072 3.36801 0
M  V30 623 H 60.602 1.9622 2.26799 0
M  V30 624 H 58.155 1.05072 1.15714 0
M  V30 625 H 58.89 -0.429294 3.21446 0
M  V30 626 H 58.675 1.27515 3.70786 0
M  V30 627 H 60.165 0.392942 4.15747 0
M  V30 628 N 60.6021 -1.18246 1.0419 0
M  V30 629 C 61.8491 -1.88257 0.746017 0
M  V30 630 C 62.1771 -1.80429 -0.726331 0
M  V30 631 O 61.4321 -1.2 -1.54591 0
M  V30 632 C 61.7311 -3.38082 1.15911 0
M  V30 633 C 61.3971 -3.66114 2.63195 0
M  V30 634 C 60.0591 -3.73474 3.03432 0
M  V30 635 C 62.4111 -3.78398 3.5842 0
M  V30 636 C 59.7391 -3.90599 4.37778 0
M  V30 637 C 62.0911 -3.97039 4.92487 0
M  V30 638 C 60.7551 -4.02635 5.32392 0
M  V30 639 H 60.0251 -0.688883 0.272987 0
M  V30 640 H 62.6721 -1.3995 1.30715 0
M  V30 641 H 60.9771 -3.88377 0.516806 0
M  V30 642 H 62.6741 -3.90596 0.907516 0
M  V30 643 H 59.2641 -3.61003 2.3103 0
M  V30 644 H 63.4481 -3.72042 3.28479 0
M  V30 645 H 58.7041 -3.93175 4.68213 0
M  V30 646 H 62.8781 -4.05486 5.66175 0
M  V30 647 H 60.5051 -4.15657 6.36501 0
M  V30 648 N 62.0802 -0.821533 -1.34494 0
M  V30 649 C 63.0102 -0.257138 -2.3208 0
M  V30 650 C 63.9912 0.625645 -1.58176 0
M  V30 651 O 65.1762 0.552811 -1.86166 0
M  V30 652 C 62.3062 0.582958 -3.42372 0
M  V30 653 C 61.2602 -0.202571 -4.2752 0
M  V30 654 C 60.5862 0.760179 -5.29269 0
M  V30 655 C 61.8862 -1.40998 -5.02908 0
M  V30 656 H 63.5802 -1.07247 -2.79532 0
M  V30 657 H 61.1262 -0.517163 -1.34393 0
M  V30 658 H 63.0792 0.987972 -4.09655 0
M  V30 659 H 61.8032 1.43133 -2.93565 0
M  V30 660 H 60.4622 -0.588936 -3.61838 0
M  V30 661 H 60.1102 1.60447 -4.76724 0
M  V30 662 H 59.8102 0.238809 -5.87115 0
M  V30 663 H 61.3342 1.16308 -5.9942 0
M  V30 664 H 62.7482 -1.07905 -5.63054 0
M  V30 665 H 61.1452 -1.86689 -5.70322 0
M  V30 666 H 62.2152 -2.1889 -4.32684 0
M  V30 667 N 63.5583 1.46682 -0.576371 0
M  V30 668 C 64.9693 1.86112 -0.148091 0
M  V30 669 C 65.3203 1.48073 1.2872 0
M  V30 670 O 64.4453 0.892656 1.97131 0
M  V30 671 C 65.0403 3.37786 -0.261982 0
M  V30 672 C 63.5993 3.76235 0.111384 0
M  V30 673 C 62.7463 2.70713 -0.60083 0
M  V30 674 H 65.6973 1.37927 -0.78497 0
M  V30 675 H 65.7183 3.77007 0.514364 0
M  V30 676 H 65.2303 3.6544 -1.30671 0
M  V30 677 H 63.3313 3.54198 1.15649 0
M  V30 678 H 63.4443 4.78391 -0.26052 0
M  V30 679 H 61.8083 2.54666 -0.0417783 0
M  V30 680 H 62.5913 3.01208 -1.64708 0
M  V30 681 N 65.0364 0.313813 1.54444 0
M  V30 682 C 66.2824 -0.292108 2.00685 0
M  V30 683 C 66.6154 -1.52548 1.20177 0
M  V30 684 O 65.8904 -1.92452 0.281531 0
M  V30 685 C 66.1734 -0.635968 3.5444 0
M  V30 686 C 66.0264 0.607437 4.4568 0
M  V30 687 C 67.3454 -1.45747 4.15266 0
M  V30 688 H 64.4644 -0.104697 0.729526 0
M  V30 689 H 67.1064 0.428457 1.85106 0
M  V30 690 H 65.2564 -1.24986 3.67846 0
M  V30 691 H 66.9284 1.24581 4.44159 0
M  V30 692 H 65.1714 1.23822 4.15753 0
M  V30 693 H 65.8424 0.322515 5.51057 0
M  V30 694 H 68.3184 -0.938645 4.05375 0
M  V30 695 H 67.1944 -1.66683 5.2298 0
M  V30 696 H 67.4554 -2.45063 3.67963 0
M  V30 697 N 66.5145 -1.57545 0.0417849 0
M  V30 698 C 67.7605 -1.92601 -0.635021 0
M  V30 699 C 68.0935 -0.919627 -1.71045 0
M  V30 700 O 67.3685 0.0557892 -1.9442 0
M  V30 701 C 67.6515 -3.38085 -1.23979 0
M  V30 702 C 67.5045 -4.49467 -0.173057 0
M  V30 703 C 68.8235 -3.83776 -2.15416 0
M  V30 704 H 65.9425 -0.700397 -0.229374 0
M  V30 705 H 68.5845 -1.89728 0.101633 0
M  V30 706 H 66.7345 -3.40664 -1.86762 0
M  V30 707 H 68.4065 -4.59018 0.458312 0
M  V30 708 H 66.6495 -4.30909 0.499996 0
M  V30 709 H 67.3205 -5.48323 -0.636054 0
M  V30 710 H 69.7965 -3.83013 -1.62605 0
M  V30 711 H 68.6725 -4.8624 -2.54679 0
M  V30 712 H 68.9335 -3.19998 -3.05047 0
M  V30 713 N 67.9926 0.231505 -1.5589 0
M  V30 714 C 69.2416 0.955346 -1.7764 0
M  V30 715 C 69.5546 1.85893 -0.608546 0
M  V30 716 O 70.7606 2.62067 -0.70943 0
M  V30 717 C 69.2166 1.74886 -3.14552 0
M  V30 718 C 68.8246 0.891915 -4.39032 0
M  V30 719 C 70.5686 2.46452 -3.45633 0
M  V30 720 C 68.4756 1.68221 -5.66971 0
M  V30 721 H 67.4056 0.360446 -0.662265 0
M  V30 722 H 70.0566 0.209516 -1.823 0
M  V30 723 H 68.4386 2.53723 -3.04041 0
M  V30 724 H 69.6126 0.144793 -4.60572 0
M  V30 725 H 67.9276 0.288863 -4.15397 0
M  V30 726 H 70.5246 3.06061 -4.38441 0
M  V30 727 H 70.8676 3.18841 -2.67668 0
M  V30 728 H 71.4006 1.74613 -3.57428 0
M  V30 729 H 68.1396 1.00178 -6.478 0
M  V30 730 H 67.6596 2.4042 -5.49507 0
M  V30 731 H 69.3386 2.24544 -6.06786 0
M  V30 732 N 69.4707 1.49531 0.497807 0
M  V30 733 C 70.7187 1.58865 1.24926 0
M  V30 734 C 71.0397 0.278721 1.92998 0
M  V30 735 O 70.3097 -0.702144 1.82885 0
M  V30 736 H 68.8897 0.585343 0.464094 0
M  V30 737 H 71.5517 1.86174 0.57666 0
M  V30 738 H 70.6477 2.38633 2.01149 0
M  V30 739 N 70.9488 -0.749086 1.3866 0
M  V30 740 C 71.8788 -1.8764 1.38973 0
M  V30 741 C 72.8598 -1.68178 0.255004 0
M  V30 742 O 74.0448 -1.88704 0.458754 0
M  V30 743 C 71.1748 -3.25222 1.21851 0
M  V30 744 C 70.1288 -3.59295 2.32575 0
M  V30 745 C 69.4548 -4.95663 2.00555 0
M  V30 746 C 70.7548 -3.63709 3.7485 0
M  V30 747 H 72.4488 -1.87635 2.3331 0
M  V30 748 H 69.9948 -0.901329 1.12303 0
M  V30 749 H 71.9478 -4.03746 1.20695 0
M  V30 750 H 70.6718 -3.25719 0.239775 0
M  V30 751 H 69.3308 -2.83093 2.32925 0
M  V30 752 H 68.9788 -4.92724 1.01154 0
M  V30 753 H 68.6788 -5.19429 2.74714 0
M  V30 754 H 70.2028 -5.7656 2.01024 0
M  V30 755 H 71.6168 -4.32338 3.76506 0
M  V30 756 H 70.0138 -3.98986 4.48252 0
M  V30 757 H 71.0838 -2.63834 4.06841 0
M  V30 758 N 72.4269 -1.23603 -0.977757 0
M  V30 759 C 73.7039 -0.977897 -1.69401 0
M  V30 760 C 74.0839 0.502738 -2.05026 0
M  V30 761 O 73.4319 1.47459 -1.74551 0
M  V30 762 C 73.6419 -1.89077 -2.93345 0
M  V30 763 C 74.9899 -2.15579 -3.65802 0
M  V30 764 O 76.0139 -1.86648 -3.03383 0
M  V30 765 O 74.8729 -2.64658 -4.78141 0
M  V30 766 H 71.9669 -0.369025 -0.740101 0
M  V30 767 H 74.5129 -1.34657 -1.03274 0
M  V30 768 H 73.2849 -2.89158 -2.63634 0
M  V30 769 H 72.9079 -1.52463 -3.67207 0
M  V30 770 N 73.905 1.17692 -1.04816 0
M  V30 771 C 75.321 1.39863 -0.768794 0
M  V30 772 C 75.521 1.91118 0.638451 0
M  V30 773 O 74.577 2.10036 1.40146 0
M  V30 774 C 75.89 2.39274 -1.82122 0
M  V30 775 C 77.438 2.52987 -1.843 0
M  V30 776 C 77.913 3.55669 -2.88555 0
M  V30 777 N 79.404 3.63183 -2.87493 0
M  V30 778 C 80.139 4.42381 -3.64811 0
M  V30 779 N 79.635 5.25125 -4.51903 0
M  V30 780 N 81.428 4.37217 -3.53267 0
M  V30 781 H 73.579 0.82752 -1.95617 0
M  V30 782 H 75.842 0.426123 -0.846831 0
M  V30 783 H 75.548 2.08678 -2.83102 0
M  V30 784 H 75.422 3.38725 -1.65967 0
M  V30 785 H 77.809 2.82896 -0.839869 0
M  V30 786 H 77.89 1.53623 -2.04532 0
M  V30 787 H 77.534 3.26499 -3.89051 0
M  V30 788 H 77.464 4.54728 -2.65575 0
M  V30 789 H 79.955 3.04103 -2.24343 0
M  V30 790 H 80.268 5.82728 -5.07591 0
M  V30 791 H 78.613 5.24519 -4.55966 0
M  V30 792 H 81.804 3.71626 -2.84625 0
M  V30 793 H 81.977 4.98696 -4.13771 0
M  V30 794 N 75.3831 0.828654 1.34056 0
M  V30 795 C 76.3151 0.212052 2.28217 0
M  V30 796 C 77.3281 -0.601362 1.51286 0
M  V30 797 O 78.5171 -0.430104 1.73241 0
M  V30 798 C 75.6171 -0.72088 3.31144 0
M  V30 799 C 74.7901 0.0509587 4.3737 0
M  V30 800 C 73.8491 -0.803766 5.20025 0
M  V30 801 O 72.8751 -0.246667 5.68665 0
M  V30 802 N 74.0771 -2.1227 5.40298 0
M  V30 803 H 76.8421 1.02105 2.81771 0
M  V30 804 H 74.4031 0.686153 1.46641 0
M  V30 805 H 76.3951 -1.29742 3.8334 0
M  V30 806 H 74.9651 -1.43061 2.77943 0
M  V30 807 H 74.1851 0.808831 3.85813 0
M  V30 808 H 75.4731 0.582065 5.0546 0
M  V30 809 H 74.8711 -2.59898 5.02464 0
M  V30 810 H 73.4281 -2.64796 5.95589 0
M  V30 811 N 76.8612 -1.46375 0.584142 0
M  V30 812 C 77.8242 -2.28784 -0.138108 0
M  V30 813 C 78.8242 -1.38471 -0.817462 0
M  V30 814 O 80.0142 -1.60833 -0.669199 0
M  V30 815 C 77.1462 -3.18892 -1.20503 0
M  V30 816 H 78.3392 -2.94117 0.586127 0
M  V30 817 H 75.8922 -1.52509 0.342171 0
M  V30 818 H 76.6272 -2.58309 -1.96079 0
M  V30 819 H 76.4122 -3.85388 -0.722384 0
M  V30 820 H 77.9022 -3.80914 -1.71155 0
M  V30 821 N 78.3393 -0.321999 -1.54275 0
M  V30 822 C 79.3023 0.531975 -2.22941 0
M  V30 823 C 80.3023 1.04478 -1.22234 0
M  V30 824 O 81.4923 0.937452 -1.46825 0
M  V30 825 C 78.6243 1.73874 -2.93224 0
M  V30 826 H 79.8173 -0.0682612 -2.99822 0
M  V30 827 H 77.3703 -0.0730644 -1.56129 0
M  V30 828 H 78.1053 2.37825 -2.20476 0
M  V30 829 H 77.8903 1.37847 -3.6707 0
M  V30 830 H 79.3803 2.34496 -3.45545 0
M  V30 831 N 79.8174 1.5752 -0.0501392 0
M  V30 832 C 81.0634 1.92936 0.624798 0
M  V30 833 C 81.3964 0.928685 1.70555 0
M  V30 834 O 80.6714 -0.0454779 1.94447 0
M  V30 835 C 80.9544 3.38737 1.22185 0
M  V30 836 C 80.8074 4.49552 0.149218 0
M  V30 837 C 82.1264 3.84913 2.13378 0
M  V30 838 H 79.2454 0.701604 0.225657 0
M  V30 839 H 81.8874 1.89671 -0.111693 0
M  V30 840 H 80.0374 3.4165 1.84953 0
M  V30 841 H 81.7094 4.58768 -0.482648 0
M  V30 842 H 79.9524 4.30638 -0.522841 0
M  V30 843 H 80.6234 5.48653 0.606966 0
M  V30 844 H 83.0994 3.8387 1.60572 0
M  V30 845 H 81.9754 4.87584 2.52097 0
M  V30 846 H 82.2364 3.21611 3.03346 0
M  V30 847 N 81.2955 -0.223234 1.56011 0
M  V30 848 C 82.2255 -1.27988 1.95298 0
M  V30 849 C 83.2065 -1.48976 0.820979 0
M  V30 850 O 84.3915 -1.61188 1.08315 0
M  V30 851 C 81.5215 -2.63 2.26822 0
M  V30 852 C 80.4755 -2.56671 3.42497 0
M  V30 853 C 79.8015 -3.95697 3.59622 0
M  V30 854 C 81.1015 -2.11601 4.77517 0
M  V30 855 H 82.7955 -0.953525 2.8381 0
M  V30 856 H 80.3415 -0.457244 1.36548 0
M  V30 857 H 82.2945 -3.37077 2.52898 0
M  V30 858 H 81.0185 -2.9732 1.35161 0
M  V30 859 H 79.6775 -1.85051 3.16467 0
M  V30 860 H 79.3255 -4.27322 2.6534 0
M  V30 861 H 79.0255 -3.92345 4.37424 0
M  V30 862 H 80.5495 -4.71438 3.88044 0
M  V30 863 H 81.9635 -2.7542 5.02809 0
M  V30 864 H 80.3605 -2.19311 5.5859 0
M  V30 865 H 81.4305 -1.06824 4.72987 0
M  V30 866 N 82.7736 -1.49793 -0.48987 0
M  V30 867 C 83.7216 -1.67783 -1.61095 0
M  V30 868 C 84.7156 -0.543683 -1.60438 0
M  V30 869 O 85.9216 -0.723647 -1.64813 0
M  V30 870 H 82.2966 -0.529255 -0.534222 0
M  V30 871 H 84.2676 -2.61861 -1.43078 0
M  V30 872 C 83.0166 -1.77191 -2.99164 0
M  V30 873 H 82.3396 -2.63841 -3.0038 0
M  V30 874 H 83.7796 -1.93809 -3.77113 0
M  V30 875 C 82.2386 -0.519203 -3.32875 0
M  V30 876 O 82.7686 0.350124 -4.00171 0
M  V30 877 N 80.9746 -0.378816 -2.8812 0
M  V30 878 H 80.5216 -1.08725 -2.33531 0
M  V30 879 H 80.4796 0.458239 -3.11043 0
M  V30 880 N 84.2517 0.741722 -1.39055 0
M  V30 881 C 85.6627 1.31966 -1.32068 0
M  V30 882 C 86.0137 1.96192 0.0180797 0
M  V30 883 O 85.1387 1.95861 0.920196 0
M  V30 884 C 85.7337 2.39954 -2.39181 0
M  V30 885 C 84.2927 2.93438 -2.35735 0
M  V30 886 C 83.4397 1.66936 -2.21422 0
M  V30 887 H 86.3907 0.539721 -1.4924 0
M  V30 888 H 86.4117 3.20182 -2.05581 0
M  V30 889 H 85.9237 1.9318 -3.36605 0
M  V30 890 H 84.0247 3.4451 -1.41929 0
M  V30 891 H 84.1377 3.4701 -3.30335 0
M  V30 892 H 82.5017 1.91016 -1.68478 0
M  V30 893 H 83.2847 1.22224 -3.20806 0
M  V30 894 N 85.7298 1.2412 0.971189 0
M  V30 895 C 86.6598 1.05508 2.08304 0
M  V30 896 C 87.6408 -0.0308864 1.70072 0
M  V30 897 O 88.8258 0.135521 1.93727 0
M  V30 898 C 85.9558 0.655365 3.4106 0
M  V30 899 C 84.9098 1.68971 3.93234 0
M  V30 900 C 84.2358 1.14516 5.22293 0
M  V30 901 C 85.5358 3.08487 4.21465 0
M  V30 902 H 87.2298 1.98507 2.24132 0
M  V30 903 H 84.7758 0.955821 1.07704 0
M  V30 904 H 86.7288 0.51217 4.18276 0
M  V30 905 H 85.4528 -0.31032 3.25122 0
M  V30 906 H 84.1118 1.82106 3.18171 0
M  V30 907 H 83.7598 0.170189 5.02712 0
M  V30 908 H 83.4598 1.83635 5.58168 0
M  V30 909 H 84.9838 1.01401 6.02121 0
M  V30 910 H 86.3978 2.98601 4.89398 0
M  V30 911 H 84.7948 3.74926 4.68562 0
M  V30 912 H 85.8648 3.56787 3.28376 0
M  V30 913 N 87.2079 -1.17134 1.05439 0
M  V30 914 C 88.4559 -1.87085 0.764429 0
M  V30 915 C 88.7769 -1.81584 -0.710787 0
M  V30 916 O 88.0469 -1.24349 -1.51374 0
M  V30 917 H 86.6269 -0.692627 0.279779 0
M  V30 918 H 89.2889 -1.42087 1.33406 0
M  V30 919 H 88.3849 -2.92759 1.0816 0
M  V30 920 N 88.686 -0.835752 -1.33615 0
M  V30 921 C 89.911 -0.442389 -2.02627 0
M  V30 922 C 90.336 0.947735 -1.62479 0
M  V30 923 O 89.694 1.61907 -0.815826 0
M  V30 924 C 89.742 -0.567216 -3.56111 0
M  V30 925 O 88.846 0.407799 -4.10379 0
M  V30 926 H 88.187 -0.180278 -0.639059 0
M  V30 927 H 90.717 -1.12972 -1.70583 0
M  V30 928 H 90.727 -0.447708 -4.05536 0
M  V30 929 H 89.402 -1.58103 -3.84677 0
M  V30 930 H 87.979 0.246107 -3.72087 0
M  V30 931 N 90.1641 1.46063 -0.591896 0
M  V30 932 C 91.5801 1.57561 -0.254288 0
M  V30 933 C 91.7801 1.58565 1.24336 0
M  V30 934 O 90.8361 1.50753 2.02558 0
M  V30 935 C 92.1491 2.86549 -0.911611 0
M  V30 936 C 93.6971 3.00197 -0.886059 0
M  V30 937 C 94.1721 4.31933 -1.5231 0
M  V30 938 N 95.6631 4.38654 -1.48786 0
M  V30 939 C 96.3981 5.39222 -1.95006 0
M  V30 940 N 95.8941 6.46414 -2.49241 0
M  V30 941 N 97.6871 5.3048 -1.85868 0
M  V30 942 H 89.8381 1.43655 -1.56451 0
M  V30 943 H 92.1011 0.68583 -0.654478 0
M  V30 944 H 91.8071 2.91651 -1.96551 0
M  V30 945 H 91.6811 3.74794 -0.425368 0
M  V30 946 H 94.0681 2.9467 0.159246 0
M  V30 947 H 94.1491 2.13403 -1.41041 0
M  V30 948 H 93.7931 4.38217 -2.56765 0
M  V30 949 H 93.7231 5.17516 -0.973891 0
M  V30 950 H 96.2141 3.61793 -1.09151 0
M  V30 951 H 96.5271 7.19376 -2.82344 0
M  V30 952 H 94.8721 6.47208 -2.53272 0
M  V30 953 H 98.0631 4.45643 -1.43248 0
M  V30 954 H 98.2361 6.08711 -2.22204 0
M  V30 955 N 91.6422 0.330177 1.54103 0
M  V30 956 C 92.8672 -0.274893 2.0557 0
M  V30 957 C 93.2922 -1.44487 1.20437 0
M  V30 958 O 92.6502 -1.80021 0.214991 0
M  V30 959 C 92.6982 -0.68079 3.54115 0
M  V30 960 O 91.8022 -1.7824 3.71893 0
M  V30 961 H 91.1432 -0.0483849 0.662235 0
M  V30 962 H 93.6732 0.480508 1.98878 0
M  V30 963 H 93.6832 -0.961635 3.96505 0
M  V30 964 H 92.3582 0.174903 4.15532 0
M  V30 965 H 90.9352 -1.49985 3.41407 0
M  V30 966 N 93.1203 -1.57491 0.0584922 0
M  V30 967 C 94.3683 -1.92597 -0.612436 0
M  V30 968 C 94.6893 -0.938162 -1.70949 0
M  V30 969 O 93.9593 0.0158301 -1.95894 0
M  V30 970 H 92.5393 -0.710964 -0.229214 0
M  V30 971 H 95.2013 -1.94571 0.113218 0
M  V30 972 H 94.2973 -2.94038 -1.04633 0
M  V30 973 N 94.5984 0.214957 -1.56127 0
M  V30 974 C 95.8444 0.939762 -1.79712 0
M  V30 975 C 96.1774 1.83723 -0.629247 0
M  V30 976 O 95.4524 1.90925 0.371197 0
M  V30 977 C 95.7354 1.77306 -3.13424 0
M  V30 978 C 95.5884 0.90164 -4.40671 0
M  V30 979 C 96.9074 2.74956 -3.43638 0
M  V30 980 H 94.0264 0.340214 -0.653776 0
M  V30 981 H 96.6684 0.20824 -1.88855 0
M  V30 982 H 94.8184 2.39673 -3.0576 0
M  V30 983 H 96.4904 0.294206 -4.60361 0
M  V30 984 H 94.7334 0.207368 -4.33304 0
M  V30 985 H 95.4044 1.51923 -5.30682 0
M  V30 986 H 97.8804 2.22724 -3.51473 0
M  V30 987 H 96.7564 3.30358 -4.38355 0
M  V30 988 H 97.0174 3.53023 -2.66134 0
M  V30 989 N 96.0765 1.50051 0.48192 0
M  V30 990 C 97.4925 1.37237 0.814756 0
M  V30 991 C 97.6925 0.420109 1.97072 0
M  V30 992 O 96.7485 -0.141246 2.52105 0
M  V30 993 C 98.0615 2.78375 1.13701 0
M  V30 994 C 99.6095 2.87213 1.2441 0
M  V30 995 C 100.084 4.29161 1.59954 0
M  V30 996 N 101.575 4.32061 1.66967 0
M  V30 997 C 102.31 5.38879 1.95952 0
M  V30 998 N 101.806 6.55918 2.23031 0
M  V30 999 N 103.599 5.26312 1.97363 0
M  V30 1000 H 95.7505 2.10546 -0.28005 0
M  V30 1001 H 98.0135 0.945921 -0.0627454 0
M  V30 1002 H 97.7195 3.49845 0.360787 0
M  V30 1003 H 97.5935 3.14941 2.07586 0
M  V30 1004 H 99.9805 2.15969 2.01101 0
M  V30 1005 H 100.061 2.54204 0.285299 0
M  V30 1006 H 99.7055 5.00938 0.838067 0
M  V30 1007 H 99.6355 4.59648 2.56966 0
M  V30 1008 H 102.126 3.47661 1.48123 0
M  V30 1009 H 102.439 7.33139 2.44391 0
M  V30 1010 H 100.784 6.59112 2.20447 0
M  V30 1011 H 103.975 4.33876 1.75697 0
M  V30 1012 H 104.148 6.09649 2.19618 0
M  V30 1013 N 97.5546 -0.734337 1.39446 0
M  V30 1014 C 98.5016 -1.84835 1.38219 0
M  V30 1015 C 99.4716 -1.64331 0.24179 0
M  V30 1016 O 100.657 -1.85728 0.437002 0
M  V30 1017 C 97.7966 -3.22355 1.23212 0
M  V30 1018 C 96.9096 -3.5456 2.46801 0
M  V30 1019 C 96.0446 -4.81485 2.24377 0
M  V30 1020 C 95.0836 -5.06536 3.43639 0
M  V30 1021 N 94.2206 -6.24665 3.20528 0
M  V30 1022 H 99.0606 -1.85219 2.33448 0
M  V30 1023 H 96.5976 -0.905039 1.15963 0
M  V30 1024 H 98.5556 -4.0174 1.12522 0
M  V30 1025 H 97.1856 -3.21248 0.316121 0
M  V30 1026 H 96.2376 -2.69872 2.68092 0
M  V30 1027 H 97.5496 -3.6899 3.3563 0
M  V30 1028 H 96.7036 -5.68852 2.10933 0
M  V30 1029 H 95.4426 -4.6923 1.32944 0
M  V30 1030 H 94.4476 -4.17632 3.5758 0
M  V30 1031 H 95.6726 -5.20676 4.35974 0
M  V30 1032 H 93.6186 -6.13696 2.3176 0
M  V30 1033 H 93.5356 -6.39685 4.02913 0
M  V30 1034 H 94.8036 -7.14868 3.10779 0
M  V30 1035 N 99.0327 -1.24633 -0.964593 0
M  V30 1036 C 99.9627 -1.06611 -2.07741 0
M  V30 1037 C 100.944 0.0218666 -1.70086 0
M  V30 1038 O 102.129 -0.145793 -1.93652 0
M  V30 1039 C 99.2587 -0.673444 -3.40708 0
M  V30 1040 C 98.2127 -1.71054 -3.92332 0
M  V30 1041 C 97.5387 -1.17285 -5.21678 0
M  V30 1042 C 98.8387 -3.10718 -4.19824 0
M  V30 1043 H 100.533 -1.99693 -2.23076 0
M  V30 1044 H 98.0787 -0.96152 -1.07195 0
M  V30 1045 H 100.032 -0.534345 -4.17998 0
M  V30 1046 H 98.7557 0.293073 -3.25282 0
M  V30 1047 H 97.4147 -1.83791 -3.17201 0
M  V30 1048 H 97.0627 -0.196847 -5.02615 0
M  V30 1049 H 96.7627 -1.86592 -5.57187 0
M  V30 1050 H 98.2867 -1.04593 -6.01575 0
M  V30 1051 H 99.7007 -3.01192 -4.87808 0
M  V30 1052 H 98.0977 -3.77406 -4.66567 0
M  V30 1053 H 99.1677 -3.58524 -3.26479 0
M  V30 1054 N 100.511 1.16574 -1.06058 0
M  V30 1055 C 101.441 2.23057 -0.690488 0
M  V30 1056 C 102.422 1.67141 0.315901 0
M  V30 1057 O 103.607 1.93253 0.191556 0
M  V30 1058 C 100.737 3.47222 -0.073625 0
M  V30 1059 C 99.6908 4.16016 -1.00573 0
M  V30 1060 C 99.0168 5.34104 -0.252289 0
M  V30 1061 C 100.317 4.67264 -2.33371 0
M  V30 1062 H 102.011 2.54271 -1.58072 0
M  V30 1063 H 99.5568 1.22218 -0.76149 0
M  V30 1064 H 101.51 4.20939 0.19714 0
M  V30 1065 H 100.234 3.15302 0.85161 0
M  V30 1066 H 98.8928 3.44223 -1.2612 0
M  V30 1067 H 98.5408 4.98437 0.675988 0
M  V30 1068 H 98.2408 5.81072 -0.873455 0
M  V30 1069 H 99.7648 6.10599 0.0109857 0
M  V30 1070 H 101.179 5.32573 -2.12223 0
M  V30 1071 H 99.5758 5.24843 -2.90963 0
M  V30 1072 H 100.646 3.83602 -2.96611 0
M  V30 1073 N 101.989 0.842826 1.3317 0
M  V30 1074 C 103.237 0.439577 1.97262 0
M  V30 1075 C 103.558 -1.00548 1.67078 0
M  V30 1076 O 102.828 -1.70098 0.971779 0
M  V30 1077 H 101.408 0.159558 0.72976 0
M  V30 1078 H 104.07 1.07665 1.62463 0
M  V30 1079 H 103.166 0.574886 3.0676 0
M  V30 1080 N 103.467 -1.45747 0.599634 0
M  V30 1081 C 104.43 -2.28917 -0.113835 0
M  V30 1082 C 105.43 -1.3933 -0.802729 0
M  V30 1083 O 106.62 -1.61534 -0.652103 0
M  V30 1084 C 103.752 -3.20152 -1.17114 0
M  V30 1085 H 104.945 -2.93478 0.617289 0
M  V30 1086 H 102.498 -1.52137 0.358327 0
M  V30 1087 H 103.233 -2.60374 -1.93329 0
M  V30 1088 H 103.018 -3.86133 -0.681468 0
M  V30 1089 H 104.508 -3.82708 -1.67105 0
M  V30 1090 N 104.945 -0.338344 -1.53925 0
M  V30 1091 C 105.908 0.508299 -2.23493 0
M  V30 1092 C 106.908 1.03175 -1.23335 0
M  V30 1093 O 108.098 0.921826 -1.47811 0
M  V30 1094 C 105.23 1.70754 -2.95052 0
M  V30 1095 H 106.423 -0.100058 -2.99733 0
M  V30 1096 H 103.976 -0.0896198 -1.56043 0
M  V30 1097 H 104.711 2.35474 -2.22986 0
M  V30 1098 H 104.496 1.33946 -3.68512 0
M  V30 1099 H 105.986 2.30818 -3.48013 0
M  V30 1100 N 106.423 1.57458 -0.0668435 0
M  V30 1101 C 107.669 1.94401 0.598316 0
M  V30 1102 C 108.024 0.946335 1.67518 0
M  V30 1103 O 107.317 -0.0321442 1.91573 0
M  V30 1104 C 107.511 3.35784 1.22409 0
M  V30 1105 C 107.34 4.49212 0.209367 0
M  V30 1106 C 106.11 5.04887 -0.204218 0
M  V30 1107 C 108.308 5.11335 -0.551431 0
M  V30 1108 N 106.29 6.01854 -1.21016 0
M  V30 1109 C 107.661 6.03754 -1.41 0
M  V30 1110 C 109.716 4.94173 -0.608038 0
M  V30 1111 C 108.419 6.80854 -2.32013 0
M  V30 1112 C 110.445 5.71912 -1.50566 0
M  V30 1113 C 109.807 6.63976 -2.35191 0
M  V30 1114 H 105.906 0.758538 0.190114 0
M  V30 1115 H 108.49 1.94175 -0.142832 0
M  V30 1116 H 106.661 3.36757 1.93518 0
M  V30 1117 H 108.393 3.59976 1.84931 0
M  V30 1118 H 105.148 4.73266 0.177908 0
M  V30 1119 H 105.572 6.55035 -1.71049 0
M  V30 1120 H 110.214 4.22788 0.032022 0
M  V30 1121 H 107.932 7.5152 -2.97057 0
M  V30 1122 H 111.518 5.60656 -1.55423 0
M  V30 1123 H 110.398 7.2308 -3.03522 0
M  V30 1124 N 107.901 -0.206675 1.56239 0
M  V30 1125 C 109.149 -0.927007 1.79586 0
M  V30 1126 C 109.47 -1.8427 0.637929 0
M  V30 1127 O 108.74 -1.92849 -0.344398 0
M  V30 1128 H 107.32 -0.345292 0.662407 0
M  V30 1129 H 109.982 -0.21496 1.93711 0
M  V30 1130 H 109.078 -1.52501 2.72305 0
M  V30 1131 N 109.379 -1.50304 -0.473955 0
M  V30 1132 C 110.309 -1.71886 -1.58042 0
M  V30 1133 C 111.29 -0.567799 -1.60344 0
M  V30 1134 O 112.475 -0.806623 -1.76656 0
M  V30 1135 C 109.605 -1.81036 -2.96384 0
M  V30 1136 C 108.559 -2.962 -3.08949 0
M  V30 1137 C 107.885 -2.9049 -4.48909 0
M  V30 1138 C 109.185 -4.36752 -2.86434 0
M  V30 1139 H 110.879 -2.64527 -1.40234 0
M  V30 1140 H 108.425 -1.27295 -0.673201 0
M  V30 1141 H 110.378 -1.94719 -3.73714 0
M  V30 1142 H 109.102 -0.850147 -3.15341 0
M  V30 1143 H 107.761 -2.82164 -2.3405 0
M  V30 1144 H 107.409 -1.92321 -4.64781 0
M  V30 1145 H 107.109 -3.67802 -4.58253 0
M  V30 1146 H 108.633 -3.06218 -5.28264 0
M  V30 1147 H 110.047 -4.5133 -3.53517 0
M  V30 1148 H 108.444 -5.15493 -3.07225 0
M  V30 1149 H 109.514 -4.49321 -1.82316 0
M  V30 1150 N 110.857 0.726932 -1.39834 0
M  V30 1151 C 112.082 1.52121 -1.40976 0
M  V30 1152 C 112.507 1.88098 -0.00826029 0
M  V30 1153 O 111.865 1.52479 0.980807 0
M  V30 1154 C 111.913 2.78021 -2.29644 0
M  V30 1155 O 111.017 3.74272 -1.73188 0
M  V30 1156 H 110.358 0.45908 -0.479731 0
M  V30 1157 H 112.888 0.896207 -1.83927 0
M  V30 1158 H 112.898 3.26671 -2.44438 0
M  V30 1159 H 111.573 2.51169 -3.31492 0
M  V30 1160 H 110.15 3.33073 -1.6768 0
M  V30 1161 N 112.336 1.25143 0.95797 0
M  V30 1162 C 113.583 1.09692 1.70217 0
M  V30 1163 C 113.911 -0.362654 1.91089 0
M  V30 1164 O 113.166 -1.28386 1.47701 0
M  V30 1165 C 113.465 1.79272 3.09187 0
M  V30 1166 C 113.131 3.29196 3.08125 0
M  V30 1167 C 111.793 3.70096 3.07543 0
M  V30 1168 C 114.145 4.24995 3.0171 0
M  V30 1169 C 111.473 5.05213 2.9829 0
M  V30 1170 C 113.825 5.60132 2.93999 0
M  V30 1171 C 112.489 6.00365 2.9175 0
M  V30 1172 H 111.759 0.401393 0.622868 0
M  V30 1173 H 114.406 1.55372 1.11945 0
M  V30 1174 H 112.711 1.26014 3.70982 0
M  V30 1175 H 114.408 1.64773 3.65583 0
M  V30 1176 H 110.998 2.96651 3.09348 0
M  V30 1177 H 115.182 3.9439 3.01281 0
M  V30 1178 H 110.438 5.35569 2.94916 0
M  V30 1179 H 114.612 6.3406 2.87996 0
M  V30 1180 H 112.239 7.05023 2.84336 0
M  V30 1181 N 113.814 -1.1601 1.06675 0
M  V30 1182 C 114.744 -2.22688 0.702307 0
M  V30 1183 C 115.725 -1.67306 -0.307032 0
M  V30 1184 O 116.91 -1.93352 -0.181305 0
M  V30 1185 C 114.04 -3.47178 0.092038 0
M  V30 1186 C 112.994 -4.15477 1.02777 0
M  V30 1187 C 112.32 -5.33963 0.28061 0
M  V30 1188 C 113.62 -4.66019 2.35846 0
M  V30 1189 H 115.314 -2.53429 1.59419 0
M  V30 1190 H 112.86 -1.21813 0.767961 0
M  V30 1191 H 114.813 -4.21037 -0.174814 0
M  V30 1192 H 113.537 -3.15749 -0.834877 0
M  V30 1193 H 112.196 -3.43549 1.27944 0
M  V30 1194 H 111.844 -4.98788 -0.649545 0
M  V30 1195 H 111.544 -5.806 0.904258 0
M  V30 1196 H 113.068 -6.10596 0.021396 0
M  V30 1197 H 114.482 -5.3144 2.15045 0
M  V30 1198 H 112.879 -5.23293 2.93743 0
M  V30 1199 H 113.949 -3.82023 2.98641 0
M  V30 1200 N 115.292 -0.849877 -1.32721 0
M  V30 1201 C 116.222 -0.306308 -2.31482 0
M  V30 1202 C 117.203 0.591952 -1.59468 0
M  V30 1203 O 118.388 0.513199 -1.87296 0
M  V30 1204 C 115.518 0.510204 -3.43532 0
M  V30 1205 C 114.472 -0.293209 -4.26994 0
M  V30 1206 C 113.798 0.647743 -5.30762 0
M  V30 1207 C 115.098 -1.51634 -4.99804 0
M  V30 1208 H 116.792 -1.13153 -2.77195 0
M  V30 1209 H 114.338 -0.545553 -1.33266 0
M  V30 1210 H 116.291 0.900856 -4.11658 0
M  V30 1211 H 115.015 1.36874 -2.96535 0
M  V30 1212 H 113.674 -0.665555 -3.60508 0
M  V30 1213 H 113.322 1.50299 -4.8002 0
M  V30 1214 H 113.022 0.11422 -5.87489 0
M  V30 1215 H 114.546 1.03567 -6.01753 0
M  V30 1216 H 115.96 -1.19824 -5.60638 0
M  V30 1217 H 114.357 -1.98745 -5.66234 0
M  V30 1218 H 115.427 -2.28018 -4.27943 0
M  V30 1219 N 116.77 1.45427 -0.607355 0
M  V30 1220 C 117.733 2.28974 0.101693 0
M  V30 1221 C 118.733 1.39754 0.795329 0
M  V30 1222 O 119.923 1.61878 0.643527 0
M  V30 1223 C 117.055 3.20768 1.15414 0
M  V30 1224 H 118.248 2.93147 -0.632844 0
M  V30 1225 H 115.801 1.51945 -0.366391 0
M  V30 1226 H 116.536 2.61395 1.91945 0
M  V30 1227 H 116.321 3.86489 0.66098 0
M  V30 1228 H 117.811 3.83589 1.65073 0
M  V30 1229 N 118.248 0.346503 1.53744 0
M  V30 1230 C 119.495 -0.249104 2.00962 0
M  V30 1231 C 119.823 -1.5032 1.23426 0
M  V30 1232 O 119.078 -1.93217 0.310761 0
M  V30 1233 C 119.377 -0.605809 3.52228 0
M  V30 1234 C 119.043 0.551747 4.47512 0
M  V30 1235 C 117.705 0.86941 4.73281 0
M  V30 1236 C 120.057 1.32818 5.03993 0
M  V30 1237 C 117.385 1.96582 5.52786 0
M  V30 1238 C 119.737 2.41486 5.84694 0
M  V30 1239 C 118.401 2.73808 6.08757 0
M  V30 1240 H 117.671 -0.0911538 0.735372 0
M  V30 1241 H 120.318 0.475027 1.85515 0
M  V30 1242 H 118.623 -1.4107 3.65522 0
M  V30 1243 H 120.32 -1.07858 3.86222 0
M  V30 1244 H 116.91 0.294102 4.2759 0
M  V30 1245 H 121.094 1.09602 4.84047 0
M  V30 1246 H 116.35 2.22045 5.69654 0
M  V30 1247 H 120.524 3.02078 6.27473 0
M  V30 1248 H 118.151 3.58892 6.7015 0
M  V30 1249 N 119.726 -1.57421 0.075193 0
M  V30 1250 C 121.137 -1.81021 -0.456964 0
M  V30 1251 C 121.488 -0.98936 -1.69429 0
M  V30 1252 O 120.613 -0.212865 -2.15351 0
M  V30 1253 C 121.208 -3.28329 -0.83581 0
M  V30 1254 C 119.767 -3.52764 -1.31281 0
M  V30 1255 C 118.914 -2.75676 -0.299648 0
M  V30 1256 H 121.865 -1.55822 0.300856 0
M  V30 1257 H 121.886 -3.40564 -1.69696 0
M  V30 1258 H 121.398 -3.88046 0.0649238 0
M  V30 1259 H 119.499 -2.98355 -2.23193 0
M  V30 1260 H 119.612 -4.61451 -1.28839 0
M  V30 1261 H 117.976 -2.42538 -0.777641 0
M  V30 1262 H 118.759 -3.38132 0.593417 0
M  V30 1263 N 121.204 0.198386 -1.56346 0
M  V30 1264 C 122.136 1.26987 -1.90806 0
M  V30 1265 C 123.149 1.41877 -0.798419 0
M  V30 1266 O 124.338 1.42362 -1.07682 0
M  V30 1267 C 121.438 2.64246 -2.12196 0
M  V30 1268 C 120.611 2.71007 -3.43328 0
M  V30 1269 C 119.67 3.89439 -3.5387 0
M  V30 1270 O 118.696 3.76695 -4.26719 0
M  V30 1271 N 119.898 5.04752 -2.86715 0
M  V30 1272 H 122.663 0.977433 -2.83313 0
M  V30 1273 H 120.224 0.388322 -1.57174 0
M  V30 1274 H 122.216 3.41896 -2.1654 0
M  V30 1275 H 120.786 2.85992 -1.26204 0
M  V30 1276 H 120.006 1.79657 -3.50881 0
M  V30 1277 H 121.294 2.72512 -4.29668 0
M  V30 1278 H 120.692 5.18004 -2.2735 0
M  V30 1279 H 119.249 5.8036 -2.96691 0
M  V30 1280 N 122.682 1.50554 0.465978 0
M  V30 1281 C 123.612 1.72722 1.57128 0
M  V30 1282 C 124.593 0.576294 1.6004 0
M  V30 1283 O 125.778 0.81598 1.76225 0
M  V30 1284 C 122.908 1.82605 2.95419 0
M  V30 1285 C 121.862 2.97835 3.07373 0
M  V30 1286 C 121.188 2.92867 4.47363 0
M  V30 1287 C 122.488 4.38265 2.84114 0
M  V30 1288 H 124.182 2.65267 1.38829 0
M  V30 1289 H 121.728 1.2765 0.666441 0
M  V30 1290 H 123.681 1.96698 3.72677 0
M  V30 1291 H 122.405 0.866858 3.14886 0
M  V30 1292 H 121.064 2.83401 2.3255 0
M  V30 1293 H 120.712 1.94783 4.63755 0
M  V30 1294 H 120.412 3.70227 4.56296 0
M  V30 1295 H 121.936 3.09015 5.26633 0
M  V30 1296 H 123.35 4.53198 3.51118 0
M  V30 1297 H 121.747 5.17115 3.04487 0
M  V30 1298 H 122.817 4.50281 1.7993 0
M  V30 1299 N 124.16 -0.719506 1.40217 0
M  V30 1300 C 125.407 -1.47933 1.38283 0
M  V30 1301 C 125.735 -1.94493 -0.0161536 0
M  V30 1302 O 124.99 -1.68224 -0.999956 0
M  V30 1303 C 125.289 -2.72271 2.31524 0
M  V30 1304 C 124.955 -2.44496 3.78857 0
M  V30 1305 C 123.617 -2.36631 4.18998 0
M  V30 1306 C 125.969 -2.21104 4.71977 0
M  V30 1307 C 123.297 -2.03437 5.503 0
M  V30 1308 C 125.649 -1.89423 6.03574 0
M  V30 1309 C 124.313 -1.80038 6.42762 0
M  V30 1310 H 123.583 -0.541325 0.506012 0
M  V30 1311 H 126.23 -0.824502 1.72842 0
M  V30 1312 H 124.535 -3.42572 1.90137 0
M  V30 1313 H 126.232 -3.30348 2.27313 0
M  V30 1314 H 122.822 -2.51503 3.47051 0
M  V30 1315 H 127.006 -2.26139 4.41786 0
M  V30 1316 H 122.262 -1.94705 5.79569 0
M  V30 1317 H 126.436 -1.70336 6.75247 0
M  V30 1318 H 124.063 -1.54083 7.44421 0
M  V30 1319 N 125.638 -1.25649 -0.95132 0
M  V30 1320 C 126.568 -1.08808 -2.06599 0
M  V30 1321 C 127.549 0.00382547 -1.701 0
M  V30 1322 O 128.734 -0.166325 -1.93486 0
M  V30 1323 C 125.864 -0.709542 -3.39975 0
M  V30 1324 C 124.818 -1.75206 -3.90496 0
M  V30 1325 C 124.144 -1.22811 -5.20405 0
M  V30 1326 C 125.444 -3.15153 -4.16504 0
M  V30 1327 H 127.138 -2.02048 -2.20946 0
M  V30 1328 H 124.684 -0.972835 -1.06169 0
M  V30 1329 H 126.637 -0.578649 -4.17408 0
M  V30 1330 H 125.361 0.258556 -3.25575 0
M  V30 1331 H 124.02 -1.87145 -3.15234 0
M  V30 1332 H 123.668 -0.250145 -5.02378 0
M  V30 1333 H 123.368 -1.92492 -5.55176 0
M  V30 1334 H 124.892 -1.10968 -6.00432 0
M  V30 1335 H 126.306 -3.06349 -4.84586 0
M  V30 1336 H 124.703 -3.82333 -4.62538 0
M  V30 1337 H 125.773 -3.61966 -3.22658 0
M  V30 1338 N 127.117 1.15442 -1.07289 0
M  V30 1339 C 128.364 1.86213 -0.795668 0
M  V30 1340 C 128.692 1.82291 0.678238 0
M  V30 1341 O 127.947 1.24057 1.51355 0
M  V30 1342 C 128.246 3.3489 -1.24834 0
M  V30 1343 C 127.912 3.59007 -2.72809 0
M  V30 1344 C 126.574 3.65298 -3.13227 0
M  V30 1345 C 128.926 3.68762 -3.68326 0
M  V30 1346 C 126.254 3.78854 -4.4798 0
M  V30 1347 C 128.606 3.83842 -5.0284 0
M  V30 1348 C 127.27 3.88378 -5.4288 0
M  V30 1349 H 126.54 0.681403 -0.291155 0
M  V30 1350 H 129.187 1.36435 -1.34379 0
M  V30 1351 H 127.492 3.8687 -0.619595 0
M  V30 1352 H 129.189 3.88052 -1.01076 0
M  V30 1353 H 125.779 3.5475 -2.40521 0
M  V30 1354 H 129.963 3.63202 -3.38227 0
M  V30 1355 H 125.219 3.80623 -4.78472 0
M  V30 1356 H 129.393 3.90332 -5.76727 0
M  V30 1357 H 127.02 3.98635 -6.47298 0
M  V30 1358 N 128.595 0.856903 1.32268 0
M  V30 1359 C 129.545 0.274899 2.26337 0
M  V30 1360 C 130.529 -0.580543 1.50062 0
M  V30 1361 O 131.721 -0.429559 1.71708 0
M  V30 1362 C 128.85 -0.533841 3.39124 0
M  V30 1363 C 127.936 0.334114 4.22782 0
M  V30 1364 N 128.327 1.42143 4.85416 0
M  V30 1365 C 126.625 0.124256 4.45827 0
M  V30 1366 C 127.326 1.95559 5.47843 0
M  V30 1367 N 126.302 1.25444 5.28928 0
M  V30 1368 H 130.104 1.10612 2.72291 0
M  V30 1369 H 127.618 0.703258 1.46383 0
M  V30 1370 H 129.615 -0.96722 4.05525 0
M  V30 1371 H 128.275 -1.36283 2.94715 0
M  V30 1372 H 129.286 1.80436 4.85451 0
M  V30 1373 H 125.963 -0.669837 4.12092 0
M  V30 1374 H 127.353 2.86714 6.07655 0
M  V30 1375 N 130.073 -1.45103 0.615059 0
M  V30 1376 C 131.301 -2.06553 0.11977 0
M  V30 1377 C 131.716 -1.45842 -1.19898 0
M  V30 1378 O 131.073 -0.575325 -1.73194 0
M  V30 1379 C 131.124 -3.61495 -0.018364 0
M  V30 1380 O 130.845 -4.19942 1.24822 0
M  V30 1381 C 132.346 -4.39947 -0.544237 0
M  V30 1382 H 129.566 -0.667096 0.0722739 0
M  V30 1383 H 132.11 -1.8623 0.84491 0
M  V30 1384 H 130.265 -3.81135 -0.693865 0
M  V30 1385 H 130.679 -5.13204 1.0827 0
M  V30 1386 H 132.153 -5.48838 -0.589953 0
M  V30 1387 H 132.63 -4.10255 -1.56805 0
M  V30 1388 H 133.236 -4.25188 0.0974703 0
M  V30 1389 N 131.551 -0.354651 -1.53558 0
M  V30 1390 C 132.797 0.238797 -2.01389 0
M  V30 1391 C 133.13 1.49309 -1.2418 0
M  V30 1392 O 132.405 1.91638 -0.332457 0
M  V30 1393 C 132.688 0.541771 -3.56001 0
M  V30 1394 C 132.541 -0.725388 -4.43912 0
M  V30 1395 C 133.86 1.34685 -4.18984 0
M  V30 1396 H 130.979 0.0853177 -0.732045 0
M  V30 1397 H 133.621 -0.477384 -1.83905 0
M  V30 1398 H 131.771 1.15189 -3.71031 0
M  V30 1399 H 133.443 -1.36313 -4.407 0
M  V30 1400 H 131.686 -1.34801 -4.12324 0
M  V30 1401 H 132.357 -0.468505 -5.50008 0
M  V30 1402 H 134.833 0.830837 -4.07721 0
M  V30 1403 H 133.709 1.52759 -5.27215 0
M  V30 1404 H 133.97 2.35221 -3.74331 0
M  V30 1405 N 133.029 1.57378 -0.0835403 0
M  V30 1406 C 133.979 2.09916 0.889905 0
M  V30 1407 C 134.963 1.01151 1.25129 0
M  V30 1408 O 136.155 1.27443 1.2283 0
M  V30 1409 C 133.284 2.67379 2.15322 0
M  V30 1410 C 132.37 3.83167 1.81779 0
M  V30 1411 N 132.761 4.91665 1.18739 0
M  V30 1412 C 131.059 3.92685 2.11459 0
M  V30 1413 C 131.76 5.72409 1.0355 0
M  V30 1414 N 130.736 5.21062 1.54906 0
M  V30 1415 H 134.538 2.91188 0.398378 0
M  V30 1416 H 132.052 1.61956 0.120013 0
M  V30 1417 H 134.049 3.0334 2.8599 0
M  V30 1418 H 132.709 1.87558 2.65051 0
M  V30 1419 H 133.72 5.10784 0.855604 0
M  V30 1420 H 130.397 3.23856 2.63483 0
M  V30 1421 H 131.787 6.69699 0.543425 0
M  V30 1422 N 134.507 -0.190092 1.56449 0
M  V30 1423 C 135.747 -0.916414 1.82705 0
M  V30 1424 C 136.111 -1.80235 0.661763 0
M  V30 1425 O 137.312 -2.56484 0.80433 0
M  V30 1426 C 135.583 -1.70691 3.14005 0
M  V30 1427 S 137.142 -2.48457 3.61683 0
M  V30 1428 H 133.96 -0.307281 0.64117 0
M  V30 1429 H 136.562 -0.179433 1.94675 0
M  V30 1430 H 135.266 -1.04677 3.96826 0
M  V30 1431 H 134.797 -2.48562 3.04927 0
M  V30 1432 H 136.812 -3.72756 3.27517 0
M  V30 1433 N 135.985 -1.50799 -0.457987 0
M  V30 1434 C 136.948 -1.7005 -1.53674 0
M  V30 1435 C 137.948 -0.570881 -1.50325 0
M  V30 1436 O 139.138 -0.838126 -1.52712 0
M  V30 1437 C 136.27 -1.73788 -2.93276 0
M  V30 1438 H 137.463 -2.66306 -1.37917 0
M  V30 1439 H 135.016 -1.40477 -0.685271 0
M  V30 1440 H 135.751 -0.792717 -3.14462 0
M  V30 1441 H 135.536 -2.55864 -2.97113 0
M  V30 1442 H 137.026 -1.90591 -3.71571 0
M  V30 1443 N 137.463 0.71206 -1.40597 0
M  V30 1444 C 138.711 1.46907 -1.38791 0
M  V30 1445 C 139.032 1.94998 0.00780391 0
M  V30 1446 O 138.302 1.70587 0.963174 0
M  V30 1447 H 136.882 0.545043 -0.51082 0
M  V30 1448 H 139.544 0.843882 -1.75683 0
M  V30 1449 H 138.64 2.34021 -2.06496 0
M  V30 1450 N 138.941 1.26152 0.944643 0
M  V30 1451 C 140.352 1.10454 1.50522 0
M  V30 1452 C 140.703 -0.31635 1.93633 0
M  V30 1453 O 139.828 -1.20746 1.79581 0
M  V30 1454 C 140.423 1.99891 2.73549 0
M  V30 1455 C 138.982 1.88348 3.25886 0
M  V30 1456 C 138.129 1.93447 1.9868 0
M  V30 1457 H 141.08 1.39292 0.760489 0
M  V30 1458 H 141.101 1.54477 3.47732 0
M  V30 1459 H 140.613 3.03297 2.42141 0
M  V30 1460 H 138.714 0.878636 3.62092 0
M  V30 1461 H 138.827 2.73696 3.93227 0
M  V30 1462 H 137.191 1.37456 2.14425 0
M  V30 1463 H 137.974 2.98476 1.69607 0
M  V30 1464 N 140.419 -1.14872 1.07899 0
M  V30 1465 C 141.665 -1.86064 0.806725 0
M  V30 1466 C 141.998 -1.82434 -0.665706 0
M  V30 1467 O 141.273 -1.25138 -1.48899 0
M  V30 1468 C 141.556 -3.34929 1.32267 0
M  V30 1469 C 141.409 -3.47161 2.86006 0
M  V30 1470 C 142.728 -4.29863 0.943717 0
M  V30 1471 H 139.847 -0.675591 0.294526 0
M  V30 1472 H 142.489 -1.34925 1.33773 0
M  V30 1473 H 140.639 -3.78611 0.870974 0
M  V30 1474 H 142.311 -3.12302 3.39507 0
M  V30 1475 H 140.554 -2.88539 3.23925 0
M  V30 1476 H 141.225 -4.51777 3.17177 0
M  V30 1477 H 143.701 -3.9417 1.33302 0
M  V30 1478 H 142.577 -5.32494 1.33198 0
M  V30 1479 H 142.838 -4.41846 -0.149796 0
M  V30 1480 N 141.898 -0.863906 -1.31812 0
M  V30 1481 C 143.309 -0.52522 -1.7916 0
M  V30 1482 C 143.66 0.957518 -1.71248 0
M  V30 1483 O 142.785 1.74734 -1.27659 0
M  V30 1484 C 143.38 -0.9466 -3.25307 0
M  V30 1485 C 141.939 -0.659668 -3.70574 0
M  V30 1486 C 141.086 -1.14126 -2.52726 0
M  V30 1487 H 144.037 -1.05022 -1.1898 0
M  V30 1488 H 144.058 -0.266766 -3.79564 0
M  V30 1489 H 143.57 -2.02579 -3.31034 0
M  V30 1490 H 141.671 0.408416 -3.70355 0
M  V30 1491 H 141.784 -1.23245 -4.62977 0
M  V30 1492 H 140.148 -0.561216 -2.4844 0
M  V30 1493 H 140.931 -2.22775 -2.61201 0
M  V30 1494 N 143.376 1.44774 -0.622745 0
M  V30 1495 C 144.623 2.02121 -0.1239 0
M  V30 1496 C 144.951 1.48915 1.25118 0
M  V30 1497 O 144.206 0.660045 1.84233 0
M  V30 1498 C 144.505 3.57364 -0.0508323 0
M  V30 1499 C 144.171 4.29787 -1.36358 0
M  V30 1500 C 142.833 4.4929 -1.72314 0
M  V30 1501 C 145.185 4.71062 -2.23048 0
M  V30 1502 C 142.513 5.07325 -2.94682 0
M  V30 1503 C 144.865 5.30452 -3.44679 0
M  V30 1504 C 143.529 5.48175 -3.80868 0
M  V30 1505 H 142.799 0.739612 -0.0453381 0
M  V30 1506 H 145.446 1.73648 -0.807389 0
M  V30 1507 H 143.751 3.85202 0.715991 0
M  V30 1508 H 145.448 3.99456 0.351533 0
M  V30 1509 H 142.038 4.14932 -1.07375 0
M  V30 1510 H 146.222 4.55715 -1.96565 0
M  V30 1511 H 141.478 5.19235 -3.22809 0
M  V30 1512 H 145.652 5.61385 -4.12092 0
M  V30 1513 H 143.279 5.92912 -4.75773 0
M  V30 1514 N 144.854 0.36279 1.53368 0
M  V30 1515 C 146.082 -0.228613 2.05633 0
M  V30 1516 C 146.497 -1.42676 1.23649 0
M  V30 1517 O 145.854 -1.80394 0.27647 0
M  V30 1518 C 145.905 -0.624845 3.56059 0
M  V30 1519 O 145.626 0.525675 4.34935 0
M  V30 1520 C 147.127 -1.27493 4.24571 0
M  V30 1521 H 144.347 -0.0407183 0.669763 0
M  V30 1522 H 146.891 0.520352 1.97769 0
M  V30 1523 H 145.046 -1.32373 3.64083 0
M  V30 1524 H 145.46 0.205969 5.24095 0
M  V30 1525 H 146.934 -1.50277 5.31151 0
M  V30 1526 H 147.411 -2.23439 3.78116 0
M  V30 1527 H 148.017 -0.617558 4.20792 0
M  V30 1528 N 146.332 -1.57332 0.0918853 0
M  V30 1529 C 147.264 -2.10869 -0.898168 0
M  V30 1530 C 148.277 -1.04521 -1.24817 0
M  V30 1531 O 149.466 -1.31977 -1.20184 0
M  V30 1532 C 146.566 -2.57083 -2.2082 0
M  V30 1533 C 145.739 -3.87229 -2.03402 0
M  V30 1534 C 144.798 -4.19324 -3.17889 0
M  V30 1535 O 143.824 -4.88598 -2.91994 0
M  V30 1536 N 145.026 -3.74471 -4.43567 0
M  V30 1537 H 147.791 -2.96439 -0.440943 0
M  V30 1538 H 145.352 -1.61631 -0.0933064 0
M  V30 1539 H 147.344 -2.75602 -2.96354 0
M  V30 1540 H 145.914 -1.76541 -2.57977 0
M  V30 1541 H 145.134 -3.7789 -1.12218 0
M  V30 1542 H 146.422 -4.72379 -1.89038 0
M  V30 1543 H 145.82 -3.18546 -4.67488 0
M  V30 1544 H 144.377 -3.98151 -5.16061 0
M  V30 1545 N 147.81 0.181792 -1.56548 0
M  V30 1546 C 149.05 0.906711 -1.83189 0
M  V30 1547 C 149.414 1.79882 -0.671312 0
M  V30 1548 O 150.615 2.56054 -0.81792 0
M  V30 1549 C 148.886 1.69023 -3.14906 0
M  V30 1550 S 150.445 2.46535 -3.62996 0
M  V30 1551 H 147.263 0.303877 -0.642791 0
M  V30 1552 H 149.865 0.169107 -1.94767 0
M  V30 1553 H 148.569 1.02571 -3.97376 0
M  V30 1554 H 148.1 2.46941 -3.06241 0
M  V30 1555 H 150.115 3.71014 -3.29489 0
M  V30 1556 N 149.288 1.51039 0.449983 0
M  V30 1557 C 150.534 1.63322 1.20223 0
M  V30 1558 C 150.867 0.34241 1.91158 0
M  V30 1559 O 150.142 -0.657344 1.83055 0
M  V30 1560 C 150.425 2.82801 2.22925 0
M  V30 1561 C 150.278 4.21823 1.56157 0
M  V30 1562 C 151.597 2.97807 3.24035 0
M  V30 1563 H 148.716 0.594407 0.435718 0
M  V30 1564 H 151.358 1.83489 0.493136 0
M  V30 1565 H 149.508 2.65738 2.834 0
M  V30 1566 H 151.18 4.50526 0.991162 0
M  V30 1567 H 149.423 4.25105 0.864172 0
M  V30 1568 H 150.094 5.01391 2.30891 0
M  V30 1569 H 152.57 3.13497 2.73603 0
M  V30 1570 H 151.446 3.82992 3.93202 0
M  V30 1571 H 151.707 2.09328 3.89402 0
M  V30 1572 N 150.766 -0.704594 1.40972 0
M  V30 1573 C 151.994 -1.49354 1.43182 0
M  V30 1574 C 152.409 -1.88768 0.0345508 0
M  V30 1575 O 151.766 -1.56184 -0.944081 0
M  V30 1576 C 151.817 -2.76187 2.33244 0
M  V30 1577 O 151.538 -2.38436 3.67532 0
M  V30 1578 C 153.039 -3.7 2.44162 0
M  V30 1579 H 150.259 -0.460559 0.487982 0
M  V30 1580 H 152.803 -0.868261 1.85153 0
M  V30 1581 H 150.958 -3.34974 1.94606 0
M  V30 1582 H 151.372 -3.20126 4.15475 0
M  V30 1583 H 152.846 -4.55803 3.11364 0
M  V30 1584 H 153.323 -4.13867 1.47006 0
M  V30 1585 H 153.929 -3.17121 2.83398 0
M  V30 1586 N 152.244 -1.26651 -0.937939 0
M  V30 1587 C 153.191 -1.0849 -2.03712 0
M  V30 1588 C 154.161 0.011033 -1.66096 0
M  V30 1589 O 155.346 -0.149353 -1.90215 0
M  V30 1590 C 152.486 -0.72735 -3.37348 0
M  V30 1591 C 151.599 -1.89986 -3.87981 0
M  V30 1592 C 150.734 -1.48513 -5.10017 0
M  V30 1593 C 149.773 -2.62575 -5.5292 0
M  V30 1594 N 148.91 -2.21762 -6.66158 0
M  V30 1595 H 153.75 -2.02551 -2.18579 0
M  V30 1596 H 151.287 -1.00844 -1.07093 0
M  V30 1597 H 153.245 -0.50092 -4.14182 0
M  V30 1598 H 151.875 0.176298 -3.22318 0
M  V30 1599 H 150.927 -2.23913 -3.07518 0
M  V30 1600 H 152.239 -2.75586 -4.15757 0
M  V30 1601 H 151.393 -1.21934 -5.94321 0
M  V30 1602 H 150.132 -0.60009 -4.83994 0
M  V30 1603 H 149.137 -2.8988 -4.67172 0
M  V30 1604 H 150.362 -3.51685 -5.80943 0
M  V30 1605 H 148.308 -1.35696 -6.41812 0
M  V30 1606 H 148.225 -3.00903 -6.93537 0
M  V30 1607 H 149.493 -1.98403 -7.53828 0
M  V30 1608 N 153.722 1.14298 -1.08507 0
M  V30 1609 C 154.97 1.84993 -0.813763 0
M  V30 1610 C 155.291 1.83405 0.662393 0
M  V30 1611 O 154.561 1.28319 1.48024 0
M  V30 1612 H 153.141 0.684966 -0.298045 0
M  V30 1613 H 155.803 1.385 -1.37126 0
M  V30 1614 H 154.899 2.89788 -1.15884 0
M  V30 1615 N 155.201 0.870884 1.31352 0
M  V30 1616 C 156.426 0.495957 2.01383 0
M  V30 1617 C 156.851 -0.904324 1.64935 0
M  V30 1618 O 156.209 -1.59687 0.858466 0
M  V30 1619 C 156.257 0.661433 3.54482 0
M  V30 1620 O 155.361 -0.298851 4.11316 0
M  V30 1621 H 154.702 0.197158 0.634054 0
M  V30 1622 H 157.232 1.17455 1.67527 0
M  V30 1623 H 157.242 0.555072 4.04207 0
M  V30 1624 H 155.917 1.68246 3.8035 0
M  V30 1625 H 154.494 -0.147368 3.72609 0
M  V30 1626 N 156.679 -1.44442 0.630414 0
M  V30 1627 C 157.926 -2.02052 0.134617 0
M  V30 1628 C 158.254 -1.49576 -1.24327 0
M  V30 1629 O 157.509 -0.669806 -1.83881 0
M  V30 1630 C 157.808 -3.57332 0.0697835 0
M  V30 1631 C 157.474 -4.29058 1.38635 0
M  V30 1632 C 156.136 -4.4837 1.74694 0
M  V30 1633 C 158.488 -4.69872 2.25543 0
M  V30 1634 C 155.816 -5.05756 2.97369 0
M  V30 1635 C 158.168 -5.28616 3.47487 0
M  V30 1636 C 156.832 -5.46147 3.8377 0
M  V30 1637 H 156.102 -0.739361 0.0492598 0
M  V30 1638 H 158.749 -1.73217 0.816586 0
M  V30 1639 H 157.054 -3.85577 -0.695553 0
M  V30 1640 H 158.751 -3.99637 -0.330344 0
M  V30 1641 H 155.341 -4.14357 1.09574 0
M  V30 1642 H 159.525 -4.54666 1.98979 0
M  V30 1643 H 154.781 -5.17515 3.25558 0
M  V30 1644 H 158.955 -5.59192 4.15063 0
M  V30 1645 H 156.582 -5.9038 4.7891 0
M  V30 1646 N 158.157 -0.370918 -1.53173 0
M  V30 1647 C 159.104 0.473035 -2.259 0
M  V30 1648 C 160.074 1.07311 -1.26781 0
M  V30 1649 O 161.259 1.1046 -1.55574 0
M  V30 1650 C 158.399 1.60405 -3.05556 0
M  V30 1651 C 157.512 1.02863 -4.19575 0
M  V30 1652 C 156.647 2.12918 -4.86661 0
M  V30 1653 C 155.686 1.52869 -5.92704 0
M  V30 1654 N 154.823 2.56779 -6.53459 0
M  V30 1655 H 159.663 -0.153649 -2.97604 0
M  V30 1656 H 157.2 -0.0875946 -1.46839 0
M  V30 1657 H 159.158 2.27034 -3.50016 0
M  V30 1658 H 157.788 2.20131 -2.36097 0
M  V30 1659 H 156.84 0.252465 -3.79561 0
M  V30 1660 H 158.152 0.549642 -4.95762 0
M  V30 1661 H 157.306 2.87356 -5.34333 0
M  V30 1662 H 156.045 2.6417 -4.09958 0
M  V30 1663 H 155.05 0.769479 -5.44389 0
M  V30 1664 H 156.275 1.02435 -6.7133 0
M  V30 1665 H 154.221 3.07235 -5.79606 0
M  V30 1666 H 154.138 2.13583 -7.25202 0
M  V30 1667 H 155.406 3.30903 -7.05779 0
M  V30 1668 N 159.635 1.57281 -0.100228 0
M  V30 1669 C 160.598 2.13158 0.842398 0
M  V30 1670 C 161.598 1.06202 1.20738 0
M  V30 1671 O 162.788 1.32066 1.13597 0
M  V30 1672 C 159.92 2.65639 2.13655 0
M  V30 1673 H 161.113 2.97766 0.357114 0
M  V30 1674 H 158.666 1.5559 0.148823 0
M  V30 1675 H 159.401 1.84566 2.66657 0
M  V30 1676 H 159.186 3.43844 1.88451 0
M  V30 1677 H 160.676 3.08846 2.81077 0
M  V30 1678 N 161.113 -0.173488 1.56642 0
M  V30 1679 C 162.045 -1.23935 1.92802 0
M  V30 1680 C 163.058 -1.40589 0.820889 0
M  V30 1681 O 164.247 -1.40631 1.09933 0
M  V30 1682 C 161.347 -2.60837 2.16373 0
M  V30 1683 C 160.52 -2.6551 3.47596 0
M  V30 1684 C 159.579 -3.8376 3.60021 0
M  V30 1685 O 158.605 -3.69859 4.32658 0
M  V30 1686 N 159.807 -5.00127 2.94709 0
M  V30 1687 H 162.572 -0.932236 2.84832 0
M  V30 1688 H 160.133 -0.363268 1.57772 0
M  V30 1689 H 162.125 -3.38407 2.21952 0
M  V30 1690 H 160.695 -2.83948 1.30738 0
M  V30 1691 H 159.915 -1.74052 3.53694 0
M  V30 1692 H 161.203 -2.65641 4.33949 0
M  V30 1693 H 160.601 -5.14322 2.35563 0
M  V30 1694 H 159.158 -5.75567 3.05886 0
M  V30 1695 N 162.591 -1.51276 -0.441967 0
M  V30 1696 C 163.837 -1.6492 -1.1905 0
M  V30 1697 C 164.192 -0.358731 -1.89026 0
M  V30 1698 O 163.485 0.645193 -1.8041 0
M  V30 1699 C 163.679 -2.78746 -2.23686 0
M  V30 1700 C 163.508 -4.18737 -1.63979 0
M  V30 1701 C 162.278 -4.84739 -1.42674 0
M  V30 1702 C 164.476 -5.01988 -1.11858 0
M  V30 1703 N 162.458 -6.08858 -0.785159 0
M  V30 1704 C 163.829 -6.17071 -0.601989 0
M  V30 1705 C 165.884 -4.87551 -1.0099 0
M  V30 1706 C 164.587 -7.19299 0.0126012 0
M  V30 1707 C 166.613 -5.89983 -0.409206 0
M  V30 1708 C 165.975 -7.04333 0.0968651 0
M  V30 1709 H 162.074 -0.657416 -0.423471 0
M  V30 1710 H 164.658 -1.8849 -0.48782 0
M  V30 1711 H 162.829 -2.56848 -2.91348 0
M  V30 1712 H 164.561 -2.81595 -2.90666 0
M  V30 1713 H 161.316 -4.42528 -1.68719 0
M  V30 1714 H 161.74 -6.75282 -0.481942 0
M  V30 1715 H 166.382 -3.99401 -1.38703 0
M  V30 1716 H 164.1 -8.071 0.401879 0
M  V30 1717 H 167.686 -5.8088 -0.327079 0
M  V30 1718 H 166.566 -7.82238 0.554373 0
M  V30 1719 N 164.069 0.697108 -1.41344 0
M  V30 1720 C 165.001 1.8224 -1.39001 0
M  V30 1721 C 166.014 1.60152 -0.292428 0
M  V30 1722 O 167.203 1.69684 -0.554048 0
M  V30 1723 C 164.303 3.18976 -1.14489 0
M  V30 1724 C 163.476 3.68105 -2.36258 0
M  V30 1725 C 162.535 4.83506 -2.07625 0
M  V30 1726 O 161.561 4.95201 -2.8065 0
M  V30 1727 N 162.763 5.70637 -1.06555 0
M  V30 1728 H 165.528 1.84742 -2.35988 0
M  V30 1729 H 163.089 0.87937 -1.35936 0
M  V30 1730 H 165.081 3.93801 -0.932885 0
M  V30 1731 H 163.651 3.11508 -0.261043 0
M  V30 1732 H 162.871 2.84204 -2.7317 0
M  V30 1733 H 164.159 3.97667 -3.17393 0
M  V30 1734 H 163.557 5.63817 -0.461125 0
M  V30 1735 H 162.114 6.45368 -0.913444 0
M  V30 1736 N 165.547 1.27147 0.931209 0
M  V30 1737 C 166.457 1.11372 2.06478 0
M  V30 1738 C 167.473 0.044645 1.73943 0
M  V30 1739 O 168.649 0.250417 1.99837 0
M  V30 1740 C 165.714 0.758838 3.38294 0
M  V30 1741 C 164.775 1.90841 3.84549 0
M  V30 1742 C 164.008 1.57036 5.10074 0
M  V30 1743 O 164.231 0.476645 5.68405 0
M  V30 1744 O 163.165 2.40839 5.51616 0
M  V30 1745 H 166.991 2.06493 2.22698 0
M  V30 1746 H 164.576 1.06301 1.04978 0
M  V30 1747 H 166.458 0.574098 4.17471 0
M  V30 1748 H 165.133 -0.162879 3.2329 0
M  V30 1749 H 164.04 2.14819 3.06274 0
M  V30 1750 H 165.373 2.81021 4.04089 0
M  V30 1751 N 167.025 -1.13721 1.09112 0
M  V30 1752 C 168.253 -1.88773 0.846899 0
M  V30 1753 C 168.668 -1.7896 -0.601572 0
M  V30 1754 O 168.025 -1.15394 -1.41388 0
M  V30 1755 C 168.076 -3.3849 1.26913 0
M  V30 1756 O 167.797 -3.48043 2.66079 0
M  V30 1757 C 169.298 -4.30518 1.05682 0
M  V30 1758 H 166.518 -0.59772 0.304914 0
M  V30 1759 H 169.062 -1.43977 1.45227 0
M  V30 1760 H 167.217 -3.80881 0.707723 0
M  V30 1761 H 167.631 -4.4109 2.83795 0
M  V30 1762 H 169.105 -5.3391 1.40156 0
M  V30 1763 H 169.582 -4.392 -0.00563416 0
M  V30 1764 H 170.188 -3.93893 1.60402 0
M  V30 1765 N 168.503 -0.877838 -1.30888 0
M  V30 1766 C 169.731 -0.507414 -2.00581 0
M  V30 1767 C 170.146 0.902216 -1.65848 0
M  V30 1768 O 169.503 1.59225 -0.891831 0
M  V30 1769 C 169.554 -0.664162 -3.55347 0
M  V30 1770 O 169.275 -2.01829 -3.8884 0
M  V30 1771 C 170.776 -0.295787 -4.42312 0
M  V30 1772 H 167.996 -0.196866 -0.641471 0
M  V30 1773 H 170.54 -1.18117 -1.66939 0
M  V30 1774 H 168.695 -0.0378619 -3.87381 0
M  V30 1775 H 169.109 -2.03174 -4.8355 0
M  V30 1776 H 170.583 -0.456388 -5.5011 0
M  V30 1777 H 171.06 0.765663 -4.32475 0
M  V30 1778 H 171.666 -0.898113 -4.15709 0
M  V30 1779 N 169.982 1.44106 -0.638065 0
M  V30 1780 C 171.212 2.06037 -0.152394 0
M  V30 1781 C 171.62 1.47808 1.18108 0
M  V30 1782 O 170.963 0.598092 1.73691 0
M  V30 1783 C 171.025 3.59488 0.0293714 0
M  V30 1784 C 170.689 4.4022 -1.22702 0
M  V30 1785 C 171.686 4.73256 -2.15232 0
M  V30 1786 C 169.371 4.8048 -1.46437 0
M  V30 1787 C 171.365 5.45444 -3.29802 0
M  V30 1788 C 169.052 5.52417 -2.61303 0
M  V30 1789 C 170.05 5.84819 -3.52811 0
M  V30 1790 O 169.738 6.55289 -4.65673 0
M  V30 1791 H 169.47 0.671233 -0.0801401 0
M  V30 1792 H 172.024 1.85851 -0.874563 0
M  V30 1793 H 170.254 3.78191 0.806758 0
M  V30 1794 H 171.943 4.03164 0.470475 0
M  V30 1795 H 172.709 4.42684 -1.98131 0
M  V30 1796 H 168.588 4.54676 -0.760977 0
M  V30 1797 H 172.132 5.70653 -4.01249 0
M  V30 1798 H 168.029 5.82404 -2.78344 0
M  V30 1799 H 168.797 6.73762 -4.64744 0
M  V30 1800 N 171.46 0.379036 1.52974 0
M  V30 1801 C 172.408 -0.476033 2.27677 0
M  V30 1802 C 173.402 -1.0719 1.31174 0
M  V30 1803 O 174.608 -1.01355 1.48752 0
M  V30 1804 H 170.983 -0.172255 0.732006 0
M  V30 1805 H 172.954 0.175615 2.97883 0
M  V30 1806 C 171.703 -1.5967 3.0887 0
M  V30 1807 H 171.026 -1.1475 3.82978 0
M  V30 1808 H 172.466 -2.16943 3.64296 0
M  V30 1809 C 170.925 -2.54682 2.20542 0
M  V30 1810 O 171.455 -3.57836 1.82527 0
M  V30 1811 N 169.661 -2.24183 1.84907 0
M  V30 1812 H 169.208 -1.40333 2.1602 0
M  V30 1813 H 169.166 -2.88006 1.26096 0
M  V30 1814 N 172.938 -1.57226 0.108567 0
M  V30 1815 C 173.868 -2.17778 -0.84232 0
M  V30 1816 C 174.849 -1.11487 -1.2847 0
M  V30 1817 O 176.034 -1.39681 -1.34918 0
M  V30 1818 C 173.164 -2.76888 -2.09644 0
M  V30 1819 C 172.118 -3.88669 -1.79221 0
M  V30 1820 C 171.444 -4.34541 -3.11574 0
M  V30 1821 C 172.744 -5.11251 -1.06864 0
M  V30 1822 H 174.438 -2.97489 -0.337774 0
M  V30 1823 H 171.984 -1.43097 -0.161025 0
M  V30 1824 H 173.937 -3.17904 -2.76614 0
M  V30 1825 H 172.661 -1.94451 -2.62405 0
M  V30 1826 H 171.32 -3.48213 -1.14644 0
M  V30 1827 H 170.968 -3.48977 -3.62249 0
M  V30 1828 H 170.668 -5.09914 -2.91996 0
M  V30 1829 H 172.192 -4.782 -3.7968 0
M  V30 1830 H 173.606 -5.49352 -1.63968 0
M  V30 1831 H 172.003 -5.9214 -0.974178 0
M  V30 1832 H 173.073 -4.8487 -0.0536168 0
M  V30 1833 N 174.416 0.165178 -1.56732 0
M  V30 1834 C 175.663 0.880807 -1.8234 0
M  V30 1835 C 175.991 1.81977 -0.686621 0
M  V30 1836 O 175.246 1.92971 0.325697 0
M  V30 1837 C 175.545 1.70405 -3.1416 0
M  V30 1838 C 175.211 0.913475 -4.4155 0
M  V30 1839 C 173.873 0.695303 -4.7615 0
M  V30 1840 C 176.225 0.359349 -5.1996 0
M  V30 1841 C 173.553 -0.0879947 -5.86634 0
M  V30 1842 C 175.905 -0.410893 -6.31264 0
M  V30 1843 C 174.569 -0.639808 -6.64427 0
M  V30 1844 H 173.839 0.32231 -0.667231 0
M  V30 1845 H 176.486 0.145402 -1.90947 0
M  V30 1846 H 174.791 2.50903 -3.00923 0
M  V30 1847 H 176.488 2.26091 -3.31186 0
M  V30 1848 H 173.078 1.09357 -4.14414 0
M  V30 1849 H 177.262 0.515228 -4.93618 0
M  V30 1850 H 172.518 -0.27503 -6.10781 0
M  V30 1851 H 176.692 -0.847494 -6.91224 0
M  V30 1852 H 174.319 -1.24864 -7.49875 0
M  V30 1853 N 175.894 1.51508 0.433938 0
M  V30 1854 C 177.122 1.68157 1.20543 0
M  V30 1855 C 177.537 0.380362 1.84929 0
M  V30 1856 O 176.894 -0.641446 1.70856 0
M  V30 1857 C 176.945 2.79965 2.28696 0
M  V30 1858 O 176.666 4.05045 1.66943 0
M  V30 1859 C 178.167 3.07912 3.18912 0
M  V30 1860 H 175.387 0.56421 0.363191 0
M  V30 1861 H 177.931 1.97941 0.513754 0
M  V30 1862 H 176.086 2.5277 2.93574 0
M  V30 1863 H 176.5 4.67165 2.38448 0
M  V30 1864 H 177.974 3.89719 3.90926 0
M  V30 1865 H 178.451 2.20456 3.79863 0
M  V30 1866 H 179.057 3.36779 2.59731 0
M  V30 1867 N 177.372 -0.689602 1.41712 0
M  V30 1868 C 178.619 -1.44966 1.4139 0
M  V30 1869 C 178.947 -1.94484 0.025105 0
M  V30 1870 O 178.202 -1.70307 -0.964048 0
M  V30 1871 C 178.501 -2.67298 2.37247 0
M  V30 1872 C 178.167 -2.36405 3.83958 0
M  V30 1873 C 176.829 -2.27691 4.23923 0
M  V30 1874 C 179.181 -2.11043 4.76561 0
M  V30 1875 C 176.509 -1.91719 5.54492 0
M  V30 1876 C 178.861 -1.76578 6.07456 0
M  V30 1877 C 177.525 -1.66363 6.46436 0
M  V30 1878 H 176.795 -0.53047 0.517381 0
M  V30 1879 H 179.442 -0.787655 1.74552 0
M  V30 1880 H 177.747 -3.38461 1.9736 0
M  V30 1881 H 179.444 -3.25452 2.34269 0
M  V30 1882 H 176.034 -2.44085 3.52308 0
M  V30 1883 H 180.218 -2.16717 4.46483 0
M  V30 1884 H 175.474 -1.82367 5.83568 0
M  V30 1885 H 179.648 -1.55974 6.78708 0
M  V30 1886 H 177.275 -1.38258 7.47522 0
M  V30 1887 N 178.85 -1.27639 -0.924453 0
M  V30 1888 C 180.09 -1.15407 -1.68703 0
M  V30 1889 C 180.454 0.294581 -1.89727 0
M  V30 1890 O 181.655 0.539385 -2.63333 0
M  V30 1891 C 179.926 -1.9195 -3.0148 0
M  V30 1892 S 181.485 -1.95969 -3.92609 0
M  V30 1893 H 178.303 -0.411937 -0.579507 0
M  V30 1894 H 180.905 -1.61592 -1.10038 0
M  V30 1895 H 179.609 -2.96387 -2.83871 0
M  V30 1896 H 179.14 -1.46272 -3.65196 0
M  V30 1897 H 181.155 -1.05846 -4.84779 0
M  V30 1898 N 180.328 1.1314 -1.09713 0
M  V30 1899 C 181.568 1.8613 -0.844683 0
M  V30 1900 C 181.932 1.81765 0.618491 0
M  V30 1901 O 183.133 2.50024 0.98699 0
M  V30 1902 C 181.404 3.30151 -1.36877 0
M  V30 1903 S 182.963 4.206 -1.25064 0
M  V30 1904 H 179.781 0.642056 -0.305427 0
M  V30 1905 H 182.383 1.36343 -1.4011 0
M  V30 1906 H 181.087 3.30883 -2.42786 0
M  V30 1907 H 180.618 3.85 -0.808614 0
M  V30 1908 H 182.633 4.95783 -0.203486 0
M  V30 1909 N 181.806 0.884767 1.30421 0
M  V30 1910 C 182.736 0.367574 2.30589 0
M  V30 1911 C 183.717 -0.549464 1.60981 0
M  V30 1912 O 184.902 -0.46336 1.88591 0
M  V30 1913 C 182.032 -0.418944 3.44764 0
M  V30 1914 C 180.986 0.406316 4.26067 0
M  V30 1915 C 180.312 -0.506793 5.32293 0
M  V30 1916 C 181.612 1.64832 4.95608 0
M  V30 1917 H 183.306 1.20462 2.74097 0
M  V30 1918 H 180.852 0.580695 1.31772 0
M  V30 1919 H 182.805 -0.791395 4.13902 0
M  V30 1920 H 181.529 -1.28964 3.0006 0
M  V30 1921 H 180.188 0.760903 3.58617 0
M  V30 1922 H 179.836 -1.37519 4.83836 0
M  V30 1923 H 179.536 0.0415828 5.87585 0
M  V30 1924 H 181.06 -0.875764 6.04287 0
M  V30 1925 H 182.474 1.34646 5.57264 0
M  V30 1926 H 180.871 2.13688 5.60765 0
M  V30 1927 H 181.941 2.39284 4.21748 0
M  V30 1928 N 183.284 -1.43765 0.645699 0
M  V30 1929 C 184.531 -2.01898 0.15604 0
M  V30 1930 C 184.859 -1.50887 -1.22733 0
M  V30 1931 O 184.114 -0.689271 -1.8316 0
M  V30 1932 C 184.413 -3.57238 0.107679 0
M  V30 1933 C 184.079 -4.27564 1.43178 0
M  V30 1934 C 182.741 -4.46492 1.7944 0
M  V30 1935 C 185.093 -4.67454 2.30513 0
M  V30 1936 C 182.421 -5.02573 3.02716 0
M  V30 1937 C 184.773 -5.24901 3.53074 0
M  V30 1938 C 183.437 -5.42046 3.89541 0
M  V30 1939 H 182.707 -0.738797 0.057099 0
M  V30 1940 H 185.354 -1.72341 0.834912 0
M  V30 1941 H 183.659 -3.86293 -0.654618 0
M  V30 1942 H 185.356 -3.99965 -0.287938 0
M  V30 1943 H 181.946 -4.13171 1.13963 0
M  V30 1944 H 186.13 -4.5253 2.0379 0
M  V30 1945 H 181.386 -5.14033 3.31028 0
M  V30 1946 H 185.56 -5.54758 4.20971 0
M  V30 1947 H 183.187 -5.85268 4.85145 0
M  V30 1948 N 184.763 -0.387143 -1.52771 0
M  V30 1949 C 185.693 0.440551 -2.29306 0
M  V30 1950 C 186.674 1.06535 -1.32606 0
M  V30 1951 O 187.859 1.07853 -1.61497 0
M  V30 1952 C 184.989 1.56919 -3.09829 0
M  V30 1953 C 183.943 1.07054 -4.14395 0
M  V30 1954 C 183.269 2.29109 -4.83129 0
M  V30 1955 C 184.569 0.140015 -5.22112 0
M  V30 1956 H 186.263 -0.198026 -2.98744 0
M  V30 1957 H 183.809 -0.09668 -1.43675 0
M  V30 1958 H 185.762 2.15503 -3.62128 0
M  V30 1959 H 184.486 2.23532 -2.3812 0
M  V30 1960 H 183.145 0.507247 -3.63074 0
M  V30 1961 H 182.793 2.94227 -4.0797 0
M  V30 1962 H 182.493 1.96406 -5.53804 0
M  V30 1963 H 184.017 2.88339 -5.38231 0
M  V30 1964 H 185.431 0.633978 -5.69784 0
M  V30 1965 H 183.828 -0.0971485 -6.00021 0
M  V30 1966 H 184.898 -0.811711 -4.78058 0
M  V30 1967 N 186.241 1.57166 -0.116904 0
M  V30 1968 C 187.171 2.18222 0.830759 0
M  V30 1969 C 188.152 1.12167 1.27877 0
M  V30 1970 O 189.337 1.40394 1.34176 0
M  V30 1971 C 186.467 2.77996 2.08172 0
M  V30 1972 C 185.421 3.89614 1.77157 0
M  V30 1973 C 184.747 4.36187 3.09265 0
M  V30 1974 C 186.047 5.1181 1.04151 0
M  V30 1975 H 187.741 2.97664 0.321992 0
M  V30 1976 H 185.287 1.4318 0.153434 0
M  V30 1977 H 187.24 3.19366 2.74924 0
M  V30 1978 H 185.964 1.9584 2.6137 0
M  V30 1979 H 184.623 3.48816 1.12796 0
M  V30 1980 H 184.271 3.50893 3.60393 0
M  V30 1981 H 183.971 5.11455 2.89288 0
M  V30 1982 H 185.495 4.80207 3.77139 0
M  V30 1983 H 186.909 5.50214 1.61052 0
M  V30 1984 H 185.306 5.92648 0.942762 0
M  V30 1985 H 186.376 4.84892 0.0279022 0
M  V30 1986 N 187.719 -0.156864 1.56817 0
M  V30 1987 C 189.13 -0.717916 1.72345 0
M  V30 1988 C 189.481 -1.82124 0.729747 0
M  V30 1989 O 188.606 -2.16141 -0.105781 0
M  V30 1990 C 189.201 -1.30904 3.12489 0
M  V30 1991 C 187.76 -1.81676 3.29653 0
M  V30 1992 C 186.907 -0.701349 2.68284 0
M  V30 1993 H 189.858 0.0686989 1.58551 0
M  V30 1994 H 189.879 -2.17882 3.11942 0
M  V30 1995 H 189.391 -0.505796 3.8479 0
M  V30 1996 H 187.492 -2.64598 2.62333 0
M  V30 1997 H 187.605 -1.95226 4.3752 0
M  V30 1998 H 185.969 -1.12548 2.28484 0
M  V30 1999 H 186.752 0.0902846 3.43181 0
M  V30 2000 N 189.197 -1.51736 -0.425897 0
M  V30 2001 C 190.127 -1.76827 -1.52494 0
M  V30 2002 C 191.108 -0.618524 -1.58456 0
M  V30 2003 O 192.293 -0.862416 -1.74 0
M  V30 2004 C 189.423 -1.90374 -2.90474 0
M  V30 2005 C 188.377 -3.0588 -2.99369 0
M  V30 2006 C 187.703 -3.04625 -4.3944 0
M  V30 2007 C 189.003 -4.45644 -2.72394 0
M  V30 2008 H 190.697 -2.68855 -1.31748 0
M  V30 2009 H 188.243 -1.29372 -0.632362 0
M  V30 2010 H 190.196 -2.0651 -3.6733 0
M  V30 2011 H 188.92 -0.95004 -3.12477 0
M  V30 2012 H 187.579 -2.89467 -2.24954 0
M  V30 2013 H 187.227 -2.0701 -4.58428 0
M  V30 2014 H 186.927 -3.82195 -4.46319 0
M  V30 2015 H 188.451 -3.22869 -5.18255 0
M  V30 2016 H 189.865 -4.62348 -3.38979 0
M  V30 2017 H 188.262 -5.25006 -2.9067 0
M  V30 2018 H 189.332 -4.54893 -1.67929 0
M  V30 2019 N 190.675 0.682077 -1.42076 0
M  V30 2020 C 191.903 1.47057 -1.4554 0
M  V30 2021 C 192.318 1.8869 -0.0645779 0
M  V30 2022 O 191.675 1.57666 0.919115 0
M  V30 2023 C 191.726 2.72442 -2.37609 0
M  V30 2024 O 191.447 2.32559 -3.71279 0
M  V30 2025 C 192.948 3.66069 -2.50017 0
M  V30 2026 H 190.168 0.452737 -0.495248 0
M  V30 2027 H 192.712 0.838695 -1.8651 0
M  V30 2028 H 190.867 3.31835 -1.9991 0
M  V30 2029 H 191.281 3.13475 -4.20516 0
M  V30 2030 H 192.755 4.50792 -3.18576 0
M  V30 2031 H 193.232 4.11476 -1.53572 0
M  V30 2032 H 193.838 3.12572 -2.88407 0
M  V30 2033 N 192.153 1.28127 0.917671 0
M  V30 2034 C 193.116 1.11744 2.00115 0
M  V30 2035 C 194.116 0.0583052 1.60694 0
M  V30 2036 O 195.306 0.303755 1.71531 0
M  V30 2037 C 192.438 0.704862 3.33533 0
M  V30 2038 H 193.631 2.07966 2.16079 0
M  V30 2039 H 191.184 1.11058 1.09981 0
M  V30 2040 H 191.919 -0.258299 3.2327 0
M  V30 2041 H 191.704 1.4699 3.63505 0
M  V30 2042 H 193.194 0.612768 4.1308 0
M  V30 2043 N 193.631 -1.12557 1.10312 0
M  V30 2044 C 194.564 -2.1737 0.694674 0
M  V30 2045 C 195.542 -1.59745 -0.303373 0
M  V30 2046 O 196.726 -1.87408 -0.202578 0
M  V30 2047 C 193.853 -3.38691 0.0248052 0
M  V30 2048 C 192.899 -4.14943 0.986121 0
M  V30 2049 S 193.732 -4.73413 2.50281 0
M  V30 2050 C 194.888 -5.9807 1.84562 0
M  V30 2051 H 195.121 -2.5168 1.58255 0
M  V30 2052 H 192.654 -1.23998 0.919992 0
M  V30 2053 H 194.612 -4.08959 -0.355361 0
M  V30 2054 H 193.273 -3.02664 -0.839851 0
M  V30 2055 H 192.466 -5.01854 0.464651 0
M  V30 2056 H 192.068 -3.50377 1.30813 0
M  V30 2057 H 194.36 -6.67232 1.17507 0
M  V30 2058 H 195.303 -6.54841 2.69423 0
M  V30 2059 H 195.711 -5.49073 1.31069 0
M  V30 2060 N 195.109 -0.891671 -1.2995 0
M  V30 2061 C 196.072 -0.36828 -2.26222 0
M  V30 2062 C 197.072 0.493014 -1.53056 0
M  V30 2063 O 198.262 0.299213 -1.71611 0
M  V30 2064 C 195.394 0.47442 -3.37583 0
M  V30 2065 H 196.587 -1.21844 -2.74033 0
M  V30 2066 H 194.14 -0.669107 -1.41254 0
M  V30 2067 H 194.875 1.34489 -2.95099 0
M  V30 2068 H 194.66 -0.142615 -3.91841 0
M  V30 2069 H 196.15 0.83218 -4.09224 0
M  V30 2070 N 196.587 1.43421 -0.653314 0
M  V30 2071 C 197.836 2.01032 -0.164076 0
M  V30 2072 C 198.149 1.52147 1.22926 0
M  V30 2073 O 199.355 2.02031 1.81371 0
M  V30 2074 C 197.811 3.59082 -0.24252 0
M  V30 2075 C 197.419 4.1696 -1.63855 0
M  V30 2076 C 199.163 4.24079 0.18911 0
M  V30 2077 C 197.07 5.67304 -1.67092 0
M  V30 2078 H 196 0.751798 -0.0575769 0
M  V30 2079 H 198.651 1.6439 -0.815362 0
M  V30 2080 H 197.033 3.93125 0.476276 0
M  V30 2081 H 198.207 3.94416 -2.38271 0
M  V30 2082 H 196.522 3.64335 -2.01616 0
M  V30 2083 H 199.119 5.34381 0.184775 0
M  V30 2084 H 199.462 3.98005 1.22056 0
M  V30 2085 H 199.995 3.94918 -0.477938 0
M  V30 2086 H 196.734 5.98145 -2.68146 0
M  V30 2087 H 196.254 5.91904 -0.970014 0
M  V30 2088 H 197.933 6.31344 -1.4147 0
M  V30 2089 N 198.065 0.39524 1.52563 0
M  V30 2090 C 199.305 -0.184744 2.03563 0
M  V30 2091 C 199.669 -1.43548 1.27507 0
M  V30 2092 O 200.87 -2.093 1.68662 0
M  V30 2093 C 199.141 -0.440294 3.54678 0
M  V30 2094 S 200.7 -0.989712 4.27493 0
M  V30 2095 H 197.518 -0.0515075 0.709132 0
M  V30 2096 H 200.12 0.544957 1.87751 0
M  V30 2097 H 198.824 0.477005 4.07618 0
M  V30 2098 H 198.355 -1.19825 3.74707 0
M  V30 2099 H 200.37 -2.27155 4.41152 0
M  V30 2100 N 199.544 -1.57102 0.125237 0
M  V30 2101 C 200.774 -1.99472 -0.538015 0
M  V30 2102 C 201.182 -1.00395 -1.60366 0
M  V30 2103 O 200.525 0.0103875 -1.83697 0
M  V30 2104 C 200.587 -3.38262 -1.21734 0
M  V30 2105 C 200.251 -4.56021 -0.298897 0
M  V30 2106 C 201.248 -5.17817 0.464943 0
M  V30 2107 C 198.933 -5.01869 -0.208149 0
M  V30 2108 C 200.927 -6.23852 1.3072 0
M  V30 2109 C 198.614 -6.07763 0.637736 0
M  V30 2110 C 199.612 -6.68622 1.39403 0
M  V30 2111 O 199.3 -7.7247 2.22586 0
M  V30 2112 H 199.032 -0.659934 -0.146501 0
M  V30 2113 H 201.586 -2.04321 0.210267 0
M  V30 2114 H 199.816 -3.30185 -2.01282 0
M  V30 2115 H 201.505 -3.6488 -1.77813 0
M  V30 2116 H 202.271 -4.83308 0.404741 0
M  V30 2117 H 198.15 -4.54241 -0.786522 0
M  V30 2118 H 201.694 -6.71284 1.898 0
M  V30 2119 H 197.591 -6.41701 0.699309 0
M  V30 2120 H 198.359 -7.89595 2.15596 0
M  V30 2121 N 201.022 0.148545 -1.56898 0
M  V30 2122 C 202.247 0.880385 -1.87787 0
M  V30 2123 C 202.672 1.74018 -0.714093 0
M  V30 2124 O 202.03 1.78153 0.336343 0
M  V30 2125 C 202.078 1.71422 -3.17249 0
M  V30 2126 O 201.182 2.8183 -3.01074 0
M  V30 2127 H 200.523 0.245301 -0.617028 0
M  V30 2128 H 203.053 0.139826 -2.04122 0
M  V30 2129 H 203.063 2.10954 -3.49231 0
M  V30 2130 H 201.738 1.08284 -4.01556 0
M  V30 2131 H 200.315 2.45715 -2.80497 0
M  V30 2132 N 202.5 1.5196 0.417844 0
M  V30 2133 C 203.916 1.40569 0.755816 0
M  V30 2134 C 204.116 0.503316 1.95113 0
M  V30 2135 O 203.172 -0.0341925 2.52477 0
M  V30 2136 C 204.485 2.82947 1.01791 0
M  V30 2137 C 206.033 2.92231 1.12116 0
M  V30 2138 C 206.508 4.35559 1.41608 0
M  V30 2139 N 207.999 4.38753 1.48491 0
M  V30 2140 C 208.734 5.46705 1.7292 0
M  V30 2141 N 208.23 6.64788 1.95011 0
M  V30 2142 N 210.023 5.34209 1.74863 0
M  V30 2143 H 202.174 2.09168 -0.369098 0
M  V30 2144 H 204.437 0.942409 -0.102809 0
M  V30 2145 H 204.143 3.5106 0.212081 0
M  V30 2146 H 204.017 3.23462 1.94042 0
M  V30 2147 H 206.404 2.24304 1.9176 0
M  V30 2148 H 206.485 2.55185 0.177225 0
M  V30 2149 H 206.129 5.04042 0.624848 0
M  V30 2150 H 206.059 4.70133 2.37239 0
M  V30 2151 H 208.55 3.5363 1.33244 0
M  V30 2152 H 208.863 7.42845 2.13076 0
M  V30 2153 H 207.208 6.67869 1.92293 0
M  V30 2154 H 210.399 4.40937 1.57137 0
M  V30 2155 H 210.572 6.18415 1.93563 0
M  V30 2156 N 203.978 -0.674533 1.42435 0
M  V30 2157 C 205.227 -1.43034 1.42212 0
M  V30 2158 C 205.54 -1.95555 0.0420788 0
M  V30 2159 O 206.746 -2.71374 -0.0827558 0
M  V30 2160 C 205.202 -2.58748 2.50155 0
M  V30 2161 C 204.81 -2.12925 3.94166 0
M  V30 2162 C 206.554 -3.36257 2.59098 0
M  V30 2163 C 204.461 -3.25723 4.93618 0
M  V30 2164 H 203.391 -0.537345 0.528939 0
M  V30 2165 H 206.042 -0.73024 1.68344 0
M  V30 2166 H 204.424 -3.31128 2.17188 0
M  V30 2167 H 205.598 -1.47697 4.36488 0
M  V30 2168 H 203.913 -1.48354 3.89076 0
M  V30 2169 H 206.51 -4.20264 3.30578 0
M  V30 2170 H 206.853 -3.82866 1.63461 0
M  V30 2171 H 207.386 -2.70947 2.9126 0
M  V30 2172 H 204.125 -2.84105 5.90732 0
M  V30 2173 H 203.645 -3.89732 4.55926 0
M  V30 2174 H 205.324 -3.91186 5.15347 0
M  V30 2175 N 205.456 -1.28612 -0.910864 0
M  V30 2176 C 206.702 -1.16106 -1.66274 0
M  V30 2177 C 207.035 0.289113 -1.92036 0
M  V30 2178 O 206.31 1.21 -1.52281 0
M  V30 2179 C 206.593 -1.96309 -3.01885 0
M  V30 2180 C 206.446 -3.49405 -2.8326 0
M  V30 2181 C 207.765 -1.78076 -4.02463 0
M  V30 2182 H 204.884 -0.423152 -0.603417 0
M  V30 2183 H 207.526 -1.57961 -1.05586 0
M  V30 2184 H 205.676 -1.60742 -3.53687 0
M  V30 2185 H 207.348 -3.94894 -2.38446 0
M  V30 2186 H 205.591 -3.74893 -2.18261 0
M  V30 2187 H 206.262 -4.00784 -3.79574 0
M  V30 2188 H 208.738 -2.0912 -3.59733 0
M  V30 2189 H 207.614 -2.36561 -4.95308 0
M  V30 2190 H 207.875 -0.733008 -4.35981 0
M  V30 2191 N 206.934 1.1197 -1.10907 0
M  V30 2192 C 207.864 2.19928 -0.784473 0
M  V30 2193 C 208.845 1.6833 0.244726 0
M  V30 2194 O 210.03 1.93892 0.109418 0
M  V30 2195 C 207.16 3.46597 -0.220827 0
M  V30 2196 C 206.114 4.11376 -1.18127 0
M  V30 2197 C 205.44 5.32554 -0.478594 0
M  V30 2198 C 206.74 4.56945 -2.52979 0
M  V30 2199 H 208.434 2.47337 -1.68715 0
M  V30 2200 H 205.98 1.18879 -0.812642 0
M  V30 2201 H 207.933 4.21396 0.0184278 0
M  V30 2202 H 206.657 3.1863 0.717113 0
M  V30 2203 H 205.316 3.38564 -1.40606 0
M  V30 2204 H 204.964 5.00856 0.463976 0
M  V30 2205 H 204.664 5.76844 -1.11912 0
M  V30 2206 H 206.188 6.10096 -0.248 0
M  V30 2207 H 207.602 5.23093 -2.3462 0
M  V30 2208 H 205.999 5.1203 -3.12962 0
M  V30 2209 H 207.069 3.70676 -3.12614 0
M  V30 2210 N 208.412 0.89855 1.29475 0
M  V30 2211 C 209.637 0.538561 2.00285 0
M  V30 2212 C 210.062 -0.869135 1.66816 0
M  V30 2213 O 209.42 -1.57831 0.892145 0
M  V30 2214 C 209.468 0.736475 3.52999 0
M  V30 2215 O 208.572 -0.211537 4.11857 0
M  V30 2216 H 207.913 0.210563 0.62973 0
M  V30 2217 H 210.443 1.20982 1.64998 0
M  V30 2218 H 210.453 0.640685 4.02938 0
M  V30 2219 H 209.128 1.76276 3.76696 0
M  V30 2220 H 207.705 -0.0682991 3.72837 0
M  V30 2221 N 209.89 -1.43072 0.660911 0
M  V30 2222 C 211.136 -2.0202 0.177708 0
M  V30 2223 C 211.469 -1.52066 -1.20787 0
M  V30 2224 O 210.744 -0.716987 -1.80802 0
M  V30 2225 C 211.027 -3.59561 0.197019 0
M  V30 2226 C 210.88 -4.19727 1.61706 0
M  V30 2227 C 212.199 -4.37664 -0.462396 0
M  V30 2228 H 209.318 -0.734034 0.0660494 0
M  V30 2229 H 211.96 -1.70272 0.843058 0
M  V30 2230 H 210.11 -3.86739 -0.369527 0
M  V30 2231 H 211.782 -4.03553 2.23479 0
M  V30 2232 H 210.025 -3.76084 2.16201 0
M  V30 2233 H 210.696 -5.28834 1.58237 0
M  V30 2234 H 213.172 -4.16095 0.0197215 0
M  V30 2235 H 212.048 -5.47305 -0.418188 0
M  V30 2236 H 212.309 -4.14493 -1.53778 0
M  V30 2237 N 211.368 -0.403325 -1.52352 0
M  V30 2238 C 212.593 0.176499 -2.06648 0
M  V30 2239 C 213.018 1.38577 -1.27193 0
M  V30 2240 O 212.376 1.7879 -0.300637 0
M  V30 2241 C 212.424 0.511061 -3.5696 0
M  V30 2242 O 211.528 1.60294 -3.79973 0
M  V30 2243 H 210.869 0.0167337 -0.663789 0
M  V30 2244 H 213.399 -0.574848 -1.96359 0
M  V30 2245 H 213.409 0.771362 -4.00642 0
M  V30 2246 H 212.084 -0.37296 -4.14224 0
M  V30 2247 H 210.661 1.33526 -3.48174 0
M  V30 2248 N 212.846 1.57033 -0.133567 0
M  V30 2249 C 214.262 1.58035 0.222944 0
M  V30 2250 C 214.462 1.14713 1.6566 0
M  V30 2251 O 213.518 0.841218 2.38075 0
M  V30 2252 C 214.831 3.00691 -0.0236116 0
M  V30 2253 C 216.379 3.12973 0.0411512 0
M  V30 2254 C 216.854 4.57654 -0.177899 0
M  V30 2255 N 218.345 4.63033 -0.124365 0
M  V30 2256 C 219.08 5.72771 -0.268553 0
M  V30 2257 N 218.576 6.91206 -0.46972 0
M  V30 2258 N 220.369 5.61718 -0.2071 0
M  V30 2259 H 212.52 1.8349 -1.06981 0
M  V30 2260 H 214.783 0.848677 -0.422436 0
M  V30 2261 H 214.489 3.36726 -1.0153 0
M  V30 2262 H 214.363 3.70614 0.701808 0
M  V30 2263 H 216.75 2.76787 1.02338 0
M  V30 2264 H 216.831 2.45564 -0.716383 0
M  V30 2265 H 216.475 4.94542 -1.15717 0
M  V30 2266 H 216.405 5.23173 0.599797 0
M  V30 2267 H 218.896 3.7789 0.027011 0
M  V30 2268 H 219.209 7.70693 -0.570212 0
M  V30 2269 H 217.554 6.93156 -0.505876 0
M  V30 2270 H 220.745 4.68072 -0.0507986 0
M  V30 2271 H 220.918 6.47195 -0.322909 0
M  V30 2272 N 214.325 -0.140222 1.56975 0
M  V30 2273 C 215.736 -0.699596 1.73097 0
M  V30 2274 C 216.087 -1.8134 0.749022 0
M  V30 2275 O 215.212 -2.16241 -0.0828503 0
M  V30 2276 C 215.807 -1.27582 3.1386 0
M  V30 2277 C 214.366 -1.78169 3.31561 0
M  V30 2278 C 213.513 -0.672855 2.69013 0
M  V30 2279 H 216.464 0.0855115 1.58469 0
M  V30 2280 H 216.485 -2.14561 3.14235 0
M  V30 2281 H 215.997 -0.464955 3.85305 0
M  V30 2282 H 214.098 -2.61801 2.65124 0
M  V30 2283 H 214.211 -1.90574 4.39566 0
M  V30 2284 H 212.575 -1.10118 2.29665 0
M  V30 2285 H 213.358 0.126679 3.43066 0
M  V30 2286 N 215.803 -1.52179 -0.40978 0
M  V30 2287 C 216.735 -1.71703 -1.51825 0
M  V30 2288 C 217.748 -0.597445 -1.51441 0
M  V30 2289 O 218.937 -0.872582 -1.55719 0
M  V30 2290 C 216.037 -1.74171 -2.90719 0
M  V30 2291 C 215.21 -3.03156 -3.15302 0
M  V30 2292 C 214.269 -2.97445 -4.34065 0
M  V30 2293 O 213.295 -3.71352 -4.31377 0
M  V30 2294 N 214.497 -2.15191 -5.39141 0
M  V30 2295 H 217.262 -2.67334 -1.35472 0
M  V30 2296 H 214.823 -1.50409 -0.599069 0
M  V30 2297 H 216.815 -1.67884 -3.68235 0
M  V30 2298 H 215.385 -0.860166 -3.00533 0
M  V30 2299 H 214.605 -3.23097 -2.25836 0
M  V30 2300 H 215.893 -3.88484 -3.28569 0
M  V30 2301 H 215.291 -1.54573 -5.44173 0
M  V30 2302 H 213.848 -2.1476 -6.15403 0
M  V30 2303 N 217.281 0.66697 -1.42791 0
M  V30 2304 C 218.509 1.45505 -1.47091 0
M  V30 2305 C 218.924 1.8861 -0.0845873 0
M  V30 2306 O 218.281 1.58632 0.90234 0
M  V30 2307 C 218.332 2.69906 -2.40485 0
M  V30 2308 O 218.053 2.28608 -3.73725 0
M  V30 2309 C 219.554 3.63396 -2.53886 0
M  V30 2310 H 216.774 0.447459 -0.500022 0
M  V30 2311 H 219.318 0.818866 -1.8739 0
M  V30 2312 H 217.473 3.29696 -2.03419 0
M  V30 2313 H 217.887 3.08997 -4.23817 0
M  V30 2314 H 219.361 4.47387 -3.2334 0
M  V30 2315 H 219.838 4.09824 -1.57927 0
M  V30 2316 H 220.444 3.09495 -2.91706 0
M  V30 2317 N 218.759 1.29093 0.90403 0
M  V30 2318 C 220.175 1.07011 1.1841 0
M  V30 2319 C 220.375 -0.181358 2.00682 0
M  V30 2320 O 219.431 -0.880331 2.36657 0
M  V30 2321 C 220.744 2.32311 1.90924 0
M  V30 2322 C 222.292 2.37587 2.03768 0
M  V30 2323 C 222.767 3.62679 2.79693 0
M  V30 2324 N 224.258 3.63376 2.87249 0
M  V30 2325 C 224.993 4.56848 3.46522 0
M  V30 2326 N 224.489 5.60648 4.06996 0
M  V30 2327 N 226.282 4.44426 3.44154 0
M  V30 2328 H 218.433 2.09412 0.354993 0
M  V30 2329 H 220.696 0.922181 0.219742 0
M  V30 2330 H 220.402 3.23536 1.37905 0
M  V30 2331 H 220.276 2.39483 2.91424 0
M  V30 2332 H 222.663 1.46853 2.55965 0
M  V30 2333 H 222.744 2.34403 1.02415 0
M  V30 2334 H 222.388 4.53762 2.28173 0
M  V30 2335 H 222.318 3.63119 3.81381 0
M  V30 2336 H 224.809 2.88321 2.44293 0
M  V30 2337 H 225.122 6.28101 4.50232 0
M  V30 2338 H 223.467 5.64463 4.05471 0
M  V30 2339 H 226.658 3.62529 2.96126 0
M  V30 2340 H 226.831 5.17457 3.90054 0
M  V30 2341 N 220.237 -1.11381 1.11499 0
M  V30 2342 C 221.184 -2.17439 0.773887 0
M  V30 2343 C 222.154 -1.64132 -0.254899 0
M  V30 2344 O 223.339 -1.90345 -0.13168 0
M  V30 2345 C 220.479 -3.44373 0.223917 0
M  V30 2346 C 219.592 -4.1168 1.30934 0
M  V30 2347 C 218.727 -5.263 0.71984 0
M  V30 2348 C 217.766 -5.85493 1.78507 0
M  V30 2349 N 216.903 -6.91507 1.21502 0
M  V30 2350 H 221.743 -2.45962 1.68246 0
M  V30 2351 H 219.28 -1.20744 0.840191 0
M  V30 2352 H 221.238 -4.17047 -0.112921 0
M  V30 2353 H 219.868 -3.16232 -0.647851 0
M  V30 2354 H 218.92 -3.37073 1.76312 0
M  V30 2355 H 220.232 -4.51729 2.11524 0
M  V30 2356 H 219.386 -6.05785 0.333094 0
M  V30 2357 H 218.125 -4.87559 -0.117377 0
M  V30 2358 H 217.13 -5.04686 2.18111 0
M  V30 2359 H 218.355 -6.26301 2.62533 0
M  V30 2360 H 216.301 -6.54783 0.399455 0
M  V30 2361 H 216.218 -7.30214 1.95763 0
M  V30 2362 H 217.486 -7.74795 0.855181 0
M  V30 2363 N 221.715 -0.905404 -1.28997 0
M  V30 2364 C 222.963 -0.533192 -1.9494 0
M  V30 2365 C 223.284 0.924618 -1.71685 0
M  V30 2366 O 222.554 1.65268 -1.05183 0
M  V30 2367 H 221.134 -0.194194 -0.721317 0
M  V30 2368 H 223.796 -1.15294 -1.57141 0
M  V30 2369 H 222.892 -0.72059 -3.03667 0
M  V30 2370 N 223.193 1.4272 -0.668489 0
M  V30 2371 C 224.418 2.06484 -0.194758 0
M  V30 2372 C 224.843 1.49862 1.13679 0
M  V30 2373 O 224.201 0.614582 1.70565 0
M  V30 2374 C 224.249 3.60353 -0.133546 0
M  V30 2375 O 223.353 4.02464 0.899806 0
M  V30 2376 H 222.694 0.656137 -0.10188 0
M  V30 2377 H 225.224 1.82964 -0.915722 0
M  V30 2378 H 225.234 4.07976 0.0447041 0
M  V30 2379 H 223.909 4.00938 -1.1055 0
M  V30 2380 H 222.486 3.66402 0.693109 0
M  V30 2381 N 224.671 0.411399 1.52136 0
M  V30 2382 C 225.621 -0.430376 2.23901 0
M  V30 2383 C 226.605 -1.0116 1.25121 0
M  V30 2384 O 227.797 -0.934044 1.50348 0
M  V30 2385 C 224.926 -1.54527 3.06556 0
M  V30 2386 C 224.012 -0.9747 4.12747 0
M  V30 2387 N 224.403 -0.130991 5.0563 0
M  V30 2388 C 222.701 -1.24497 4.28271 0
M  V30 2389 C 223.402 0.186689 5.814 0
M  V30 2390 N 222.378 -0.42304 5.41951 0
M  V30 2391 H 226.18 0.220509 2.93072 0
M  V30 2392 H 223.694 0.221952 1.60876 0
M  V30 2393 H 225.691 -2.16093 3.56524 0
M  V30 2394 H 224.351 -2.19875 2.38925 0
M  V30 2395 H 225.362 0.23349 5.17373 0
M  V30 2396 H 222.039 -1.89787 3.7187 0
M  V30 2397 H 223.429 0.871673 6.66222 0
M  V30 2398 N 226.149 -1.5696 0.141893 0
M  V30 2399 C 227.112 -2.15316 -0.785587 0
M  V30 2400 C 228.112 -1.09366 -1.1788 0
M  V30 2401 O 229.302 -1.35031 -1.10056 0
M  V30 2402 C 226.434 -2.71211 -2.06537 0
M  V30 2403 H 227.627 -2.98608 -0.278041 0
M  V30 2404 H 225.18 -1.5593 -0.107519 0
M  V30 2405 H 225.915 -1.91571 -2.6167 0
M  V30 2406 H 225.7 -3.4872 -1.79268 0
M  V30 2407 H 227.19 -3.16189 -2.72789 0
M  V30 2408 N 227.627 0.131896 -1.57047 0
M  V30 2409 C 229.038 0.690407 -1.73465 0
M  V30 2410 C 229.389 1.8094 -0.758629 0
M  V30 2411 O 228.514 2.16282 0.0713813 0
M  V30 2412 C 229.109 1.25916 -3.14532 0
M  V30 2413 C 227.668 1.76409 -3.32501 0
M  V30 2414 C 226.815 0.658579 -2.69366 0
M  V30 2415 H 229.766 -0.0939144 -1.58422 0
M  V30 2416 H 229.787 2.12892 -3.15369 0
M  V30 2417 H 229.299 0.444515 -3.85546 0
M  V30 2418 H 227.4 2.60391 -2.66509 0
M  V30 2419 H 227.513 1.88241 -4.4057 0
M  V30 2420 H 225.877 1.08899 -2.30246 0
M  V30 2421 H 226.66 -0.14487 -3.42994 0
M  V30 2422 N 229.106 1.52395 0.401703 0
M  V30 2423 C 230.069 1.75636 1.47257 0
M  V30 2424 C 231.069 0.62628 1.48103 0
M  V30 2425 O 232.259 0.894227 1.49497 0
M  V30 2426 C 229.391 1.84553 2.86624 0
M  V30 2427 H 230.584 2.71241 1.27938 0
M  V30 2428 H 228.137 1.42923 0.632662 0
M  V30 2429 H 228.872 0.908882 3.11303 0
M  V30 2430 H 228.657 2.66715 2.87412 0
M  V30 2431 H 230.147 2.04251 3.64241 0
M  V30 2432 N 230.584 -0.659388 1.43143 0
M  V30 2433 C 231.832 -1.41654 1.44147 0
M  V30 2434 C 232.153 -1.94893 0.0645739 0
M  V30 2435 O 231.423 -1.74044 -0.899198 0
M  V30 2436 H 230.003 -0.525708 0.530697 0
M  V30 2437 H 232.665 -0.778097 1.78694 0
M  V30 2438 H 231.761 -2.26195 2.1504 0
M  V30 2439 N 232.062 -1.29571 -0.897171 0
M  V30 2440 C 232.972 -1.16808 -2.03453 0
M  V30 2441 C 233.988 -0.0907471 -1.73763 0
M  V30 2442 O 235.164 -0.303312 -1.99103 0
M  V30 2443 C 232.229 -0.848264 -3.36163 0
M  V30 2444 C 231.29 -2.0097 -3.79354 0
M  V30 2445 C 230.523 -1.70505 -5.05731 0
M  V30 2446 O 230.746 -0.62718 -5.66941 0
M  V30 2447 O 229.68 -2.5538 -5.45036 0
M  V30 2448 H 233.506 -2.12325 -2.17144 0
M  V30 2449 H 231.091 -1.09047 -1.02123 0
M  V30 2450 H 232.973 -0.684581 -4.15802 0
M  V30 2451 H 231.648 0.0771071 -3.23608 0
M  V30 2452 H 230.555 -2.22863 -3.00471 0
M  V30 2453 H 231.888 -2.91636 -3.96496 0
M  V30 2454 N 233.54 1.10788 -1.12088 0
M  V30 2455 C 234.787 1.82671 -0.873931 0
M  V30 2456 C 235.115 1.85004 0.600311 0
M  V30 2457 O 234.37 1.30365 1.45957 0
M  V30 2458 C 234.669 3.29294 -1.38926 0
M  V30 2459 C 234.335 3.47113 -2.87791 0
M  V30 2460 C 232.997 3.51684 -3.28439 0
M  V30 2461 C 235.349 3.52808 -3.83635 0
M  V30 2462 C 232.677 3.59513 -4.63646 0
M  V30 2463 C 235.029 3.62169 -5.18668 0
M  V30 2464 C 233.693 3.65003 -5.58864 0
M  V30 2465 H 232.963 0.668441 -0.319794 0
M  V30 2466 H 235.61 1.30613 -1.40045 0
M  V30 2467 H 233.915 3.83894 -0.783122 0
M  V30 2468 H 235.612 3.83416 -1.17443 0
M  V30 2469 H 232.202 3.4423 -2.5535 0
M  V30 2470 H 236.386 3.4853 -3.53328 0
M  V30 2471 H 231.642 3.59987 -4.94185 0
M  V30 2472 H 235.816 3.6552 -5.92763 0
M  V30 2473 H 233.443 3.70822 -6.63623 0
M  V30 2474 N 235.018 0.912232 1.28515 0
M  V30 2475 C 235.981 0.404223 2.25607 0
M  V30 2476 C 236.981 -0.468602 1.53821 0
M  V30 2477 O 238.171 -0.271873 1.72065 0
M  V30 2478 C 235.303 -0.420653 3.38295 0
M  V30 2479 H 236.496 1.26188 2.7206 0
M  V30 2480 H 234.049 0.691495 1.40171 0
M  V30 2481 H 234.784 -1.29777 2.97201 0
M  V30 2482 H 234.569 0.204935 3.91564 0
M  V30 2483 H 236.059 -0.766971 4.10496 0
M  V30 2484 N 236.496 -1.42363 0.676048 0
M  V30 2485 C 237.426 -2.33497 0.0124832 0
M  V30 2486 C 238.407 -1.50748 -0.787981 0
M  V30 2487 O 239.592 -1.79346 -0.744884 0
M  V30 2488 C 236.722 -3.34377 -0.938582 0
M  V30 2489 C 235.676 -4.27289 -0.246622 0
M  V30 2490 C 235.002 -5.18386 -1.31071 0
M  V30 2491 C 236.302 -5.14916 0.875125 0
M  V30 2492 H 237.996 -2.89233 0.773593 0
M  V30 2493 H 235.542 -1.39073 0.37346 0
M  V30 2494 H 237.495 -3.97044 -1.41188 0
M  V30 2495 H 236.219 -2.76947 -1.73113 0
M  V30 2496 H 234.878 -3.66018 0.206456 0
M  V30 2497 H 234.526 -4.57282 -2.09528 0
M  V30 2498 H 234.226 -5.81378 -0.852839 0
M  V30 2499 H 235.75 -5.83929 -1.78492 0
M  V30 2500 H 237.164 -5.71262 0.482983 0
M  V30 2501 H 235.561 -5.86747 1.25887 0
M  V30 2502 H 236.631 -4.53242 1.72335 0
M  V30 2503 N 237.974 -0.419461 -1.51915 0
M  V30 2504 C 239.385 0.0477853 -1.86639 0
M  V30 2505 C 239.736 1.43531 -1.33766 0
M  V30 2506 O 238.861 2.05401 -0.68113 0
M  V30 2507 C 239.456 0.0934885 -3.38671 0
M  V30 2508 C 238.015 0.505097 -3.72996 0
M  V30 2509 C 237.162 -0.313792 -2.75519 0
M  V30 2510 H 240.113 -0.636088 -1.45395 0
M  V30 2511 H 240.134 0.906667 -3.6954 0
M  V30 2512 H 239.646 -0.916501 -3.77123 0
M  V30 2513 H 237.747 1.52135 -3.40126 0
M  V30 2514 H 237.86 0.242309 -4.78487 0
M  V30 2515 H 236.224 0.225363 -2.53701 0
M  V30 2516 H 237.007 -1.32232 -3.16812 0
M  V30 2517 N 239.452 1.56882 -0.150215 0
M  V30 2518 C 240.868 1.58263 0.20617 0
M  V30 2519 C 241.068 1.16464 1.64434 0
M  V30 2520 O 240.124 0.866422 2.3717 0
M  V30 2521 C 241.437 3.00649 -0.0555025 0
M  V30 2522 C 242.985 3.12999 0.00795388 0
M  V30 2523 C 243.46 4.5744 -0.226429 0
M  V30 2524 N 244.951 4.62875 -0.173469 0
M  V30 2525 C 245.686 5.72454 -0.329288 0
M  V30 2526 N 245.182 6.90669 -0.543005 0
M  V30 2527 N 246.975 5.61467 -0.266666 0
M  V30 2528 H 239.126 1.82345 -1.08922 0
M  V30 2529 H 241.389 0.844149 -0.431413 0
M  V30 2530 H 241.095 3.3563 -1.05096 0
M  V30 2531 H 240.969 3.71337 0.66246 0
M  V30 2532 H 243.356 2.77857 0.993966 0
M  V30 2533 H 243.437 2.4479 -0.742388 0
M  V30 2534 H 243.081 4.93287 -1.20956 0
M  V30 2535 H 243.011 5.2378 0.544274 0
M  V30 2536 H 245.502 3.77898 -0.0130709 0
M  V30 2537 H 245.815 7.70045 -0.651922 0
M  V30 2538 H 244.16 6.92581 -0.579366 0
M  V30 2539 H 247.351 4.67992 -0.100441 0
M  V30 2540 H 247.524 6.46816 -0.391535 0
M  V30 2541 N 240.93 -0.123565 1.57115 0
M  V30 2542 C 242.155 -0.850398 1.89164 0
M  V30 2543 C 242.58 -1.7286 0.741688 0
M  V30 2544 O 241.938 -1.78665 -0.307958 0
M  V30 2545 C 241.986 -1.66353 3.19936 0
M  V30 2546 O 241.09 -2.77004 3.0552 0
M  V30 2547 H 240.431 -0.235454 0.620852 0
M  V30 2548 H 242.961 -0.107335 2.04318 0
M  V30 2549 H 242.971 -2.05372 3.52543 0
M  V30 2550 H 241.646 -1.01881 4.03228 0
M  V30 2551 H 240.223 -2.41221 2.84371 0
M  V30 2552 N 242.408 -1.52605 -0.393616 0
M  V30 2553 C 243.655 -1.67424 -1.1391 0
M  V30 2554 C 243.983 -0.411859 -1.90089 0
M  V30 2555 O 243.238 0.605626 -1.86093 0
M  V30 2556 C 243.537 -2.85721 -2.14705 0
M  V30 2557 C 243.203 -4.23342 -1.55218 0
M  V30 2558 C 241.865 -4.60771 -1.3872 0
M  V30 2559 C 244.217 -5.09041 -1.11924 0
M  V30 2560 C 241.545 -5.81563 -0.774689 0
M  V30 2561 C 243.897 -6.30452 -0.520853 0
M  V30 2562 C 242.561 -6.66617 -0.343134 0
M  V30 2563 H 241.831 -0.612648 -0.416826 0
M  V30 2564 H 244.478 -1.8674 -0.424315 0
M  V30 2565 H 242.783 -2.60803 -2.92385 0
M  V30 2566 H 244.48 -2.94382 -2.72288 0
M  V30 2567 H 241.07 -3.93855 -1.69045 0
M  V30 2568 H 245.254 -4.80695 -1.23473 0
M  V30 2569 H 240.51 -6.08196 -0.625154 0
M  V30 2570 H 244.684 -6.96175 -0.177065 0
M  V30 2571 H 242.311 -7.60083 0.133571 0
M  V30 2572 N 243.887 0.651787 -1.4349 0
M  V30 2573 C 245.164 1.40909 -1.35661 0
M  V30 2574 C 245.544 2.11099 -0.00511733 0
M  V30 2575 O 244.892 2.04892 1.0115 0
M  V30 2576 C 245.102 2.3926 -2.54078 0
M  V30 2577 C 246.45 3.03217 -2.97228 0
M  V30 2578 O 247.474 2.49588 -2.54135 0
M  V30 2579 O 246.333 4.00455 -3.71885 0
M  V30 2580 H 243.427 0.629625 -0.536191 0
M  V30 2581 H 245.973 0.678575 -1.55542 0
M  V30 2582 H 244.745 1.86352 -3.44076 0
M  V30 2583 H 244.368 3.1976 -2.36303 0
M  V30 2584 N 245.365 1.30045 0.890287 0
M  V30 2585 C 246.313 1.15873 2.01683 0
M  V30 2586 C 247.307 0.0719403 1.69247 0
M  V30 2587 O 248.513 0.232414 1.78493 0
M  V30 2588 H 244.888 0.358203 0.661207 0
M  V30 2589 H 246.859 2.11229 2.10772 0
M  V30 2590 C 245.608 0.861842 3.36849 0
M  V30 2591 H 244.931 1.69016 3.62317 0
M  V30 2592 H 246.371 0.802762 4.16331 0
M  V30 2593 C 244.83 -0.435132 3.34078 0
M  V30 2594 O 245.36 -1.4583 3.74295 0
M  V30 2595 N 243.566 -0.444377 2.87182 0
M  V30 2596 H 243.113 0.388723 2.5465 0
M  V30 2597 H 243.071 -1.31213 2.85711 0
M  V30 2598 N 246.843 -1.10192 1.12674 0
M  V30 2599 C 248.083 -1.83825 0.893736 0
M  V30 2600 C 248.447 -1.83341 -0.570082 0
M  V30 2601 O 249.648 -2.52553 -0.920354 0
M  V30 2602 C 247.919 -3.26405 1.45582 0
M  V30 2603 S 249.478 -4.17136 1.36171 0
M  V30 2604 H 246.296 -0.633732 0.322342 0
M  V30 2605 H 248.898 -1.32581 1.43675 0
M  V30 2606 H 247.602 -3.24329 2.51473 0
M  V30 2607 H 247.133 -3.82721 0.910405 0
M  V30 2608 H 249.148 -4.95069 0.334863 0
M  V30 2609 N 248.321 -0.919034 -1.28029 0
M  V30 2610 C 249.732 -0.600735 -1.76771 0
M  V30 2611 C 250.083 0.884024 -1.75156 0
M  V30 2612 O 249.208 1.69163 -1.34956 0
M  V30 2613 C 249.803 -1.08372 -3.21 0
M  V30 2614 C 248.362 -0.816248 -3.67443 0
M  V30 2615 C 247.509 -1.24742 -2.47658 0
M  V30 2616 H 250.46 -1.09974 -1.14418 0
M  V30 2617 H 250.481 -0.427512 -3.78091 0
M  V30 2618 H 249.993 -2.16437 -3.22144 0
M  V30 2619 H 248.094 0.250968 -3.71754 0
M  V30 2620 H 248.207 -1.4277 -4.57333 0
M  V30 2621 H 246.571 -0.666083 -2.45836 0
M  V30 2622 H 247.354 -2.33653 -2.51518 0
M  V30 2623 N 249.799 1.42003 -0.683588 0
M  V30 2624 C 251.215 1.55625 -0.353976 0
M  V30 2625 C 251.415 1.66151 1.14 0
M  V30 2626 O 250.471 1.63329 1.92561 0
M  V30 2627 C 251.784 2.80171 -1.092 0
M  V30 2628 C 253.332 2.93954 -1.07518 0
M  V30 2629 C 253.807 4.21372 -1.79471 0
M  V30 2630 N 255.298 4.28303 -1.76381 0
M  V30 2631 C 256.033 5.25729 -2.28904 0
M  V30 2632 N 255.529 6.29254 -2.89846 0
M  V30 2633 N 257.322 5.17586 -2.19228 0
M  V30 2634 H 249.473 1.33415 -1.6527 0
M  V30 2635 H 251.736 0.64282 -0.696769 0
M  V30 2636 H 251.442 2.78561 -2.14701 0
M  V30 2637 H 251.316 3.7133 -0.662862 0
M  V30 2638 H 253.703 2.95086 -0.028475 0
M  V30 2639 H 253.784 2.04002 -1.54328 0
M  V30 2640 H 253.428 4.21001 -2.84114 0
M  V30 2641 H 253.358 5.10275 -1.30104 0
M  V30 2642 H 255.849 3.54119 -1.31939 0
M  V30 2643 H 256.162 6.99964 -3.27522 0
M  V30 2644 H 254.507 6.29791 -2.93919 0
M  V30 2645 H 257.698 4.35631 -1.71299 0
M  V30 2646 H 257.871 5.93348 -2.60466 0
M  V30 2647 N 251.277 0.427512 1.51691 0
M  V30 2648 C 252.523 -0.142439 2.02299 0
M  V30 2649 C 252.856 -1.43214 1.31162 0
M  V30 2650 O 252.131 -1.89833 0.423511 0
M  V30 2651 C 252.414 -0.371301 3.58181 0
M  V30 2652 C 252.267 0.936358 4.39946 0
M  V30 2653 C 253.586 -1.14542 4.24933 0
M  V30 2654 H 250.705 -0.0502937 0.735282 0
M  V30 2655 H 253.347 0.564584 1.81418 0
M  V30 2656 H 251.497 -0.973559 3.76104 0
M  V30 2657 H 253.169 1.57184 4.33694 0
M  V30 2658 H 251.412 1.5432 4.05423 0
M  V30 2659 H 252.083 0.730388 5.47147 0
M  V30 2660 H 254.559 -0.635362 4.11221 0
M  V30 2661 H 253.435 -1.27431 5.33903 0
M  V30 2662 H 253.696 -2.17093 3.85127 0
M  V30 2663 N 252.755 -1.56801 0.158532 0
M  V30 2664 C 254.171 -1.5837 -0.197774 0
M  V30 2665 C 254.371 -1.17334 -1.63814 0
M  V30 2666 O 253.427 -0.878988 -2.36707 0
M  V30 2667 C 254.74 -3.00615 0.0714459 0
M  V30 2668 C 256.288 -3.12999 0.00864533 0
M  V30 2669 C 256.763 -4.57313 0.250685 0
M  V30 2670 N 258.254 -4.62777 0.198014 0
M  V30 2671 C 258.989 -5.72271 0.359642 0
M  V30 2672 N 258.485 -6.90371 0.579625 0
M  V30 2673 N 260.278 -5.61318 0.296438 0
M  V30 2674 H 252.429 -1.81765 1.09887 0
M  V30 2675 H 254.692 -0.841849 0.435884 0
M  V30 2676 H 254.398 -3.35068 1.06874 0
M  V30 2677 H 254.272 -3.71683 -0.642757 0
M  V30 2678 H 256.659 -2.7838 -0.979217 0
M  V30 2679 H 256.74 -2.44393 0.755359 0
M  V30 2680 H 256.384 -4.92639 1.2357 0
M  V30 2681 H 256.314 -5.24061 -0.516489 0
M  V30 2682 H 258.805 -3.77885 0.0331115 0
M  V30 2683 H 259.118 -7.69689 0.69275 0
M  V30 2684 H 257.463 -6.92264 0.616087 0
M  V30 2685 H 260.654 -4.67932 0.125258 0
M  V30 2686 H 260.827 -6.46599 0.425831 0
M  V30 2687 N 254.233 0.115231 -1.57178 0
M  V30 2688 C 255.163 1.1423 -2.03651 0
M  V30 2689 C 256.144 1.42967 -0.921655 0
M  V30 2690 O 257.329 1.53343 -1.19162 0
M  V30 2691 C 254.459 2.4675 -2.44401 0
M  V30 2692 C 253.413 2.32467 -3.59365 0
M  V30 2693 C 252.739 3.69984 -3.86026 0
M  V30 2694 C 254.039 1.78203 -4.90959 0
M  V30 2695 H 255.733 0.755749 -2.89705 0
M  V30 2696 H 253.279 0.362093 -1.39373 0
M  V30 2697 H 255.232 3.18854 -2.75517 0
M  V30 2698 H 253.956 2.87302 -1.55322 0
M  V30 2699 H 252.615 1.62811 -3.28463 0
M  V30 2700 H 252.263 4.08028 -2.94147 0
M  V30 2701 H 251.963 3.61279 -4.63412 0
M  V30 2702 H 253.487 4.43587 -4.19599 0
M  V30 2703 H 254.901 2.40128 -5.20587 0
M  V30 2704 H 253.298 1.8031 -5.72371 0
M  V30 2705 H 254.368 0.739876 -4.79222 0
M  V30 2706 N 255.711 1.52812 0.385517 0
M  V30 2707 C 257.127 1.4214 0.725829 0
M  V30 2708 C 257.327 0.544589 1.94001 0
M  V30 2709 O 256.383 0.0193693 2.52493 0
M  V30 2710 C 257.696 2.85042 0.957668 0
M  V30 2711 C 259.244 2.94543 1.05892 0
M  V30 2712 C 259.719 4.38464 1.32337 0
M  V30 2713 N 261.21 4.41804 1.39151 0
M  V30 2714 C 261.945 5.5025 1.61285 0
M  V30 2715 N 261.441 6.68775 1.80866 0
M  V30 2716 N 263.234 5.37798 1.63492 0
M  V30 2717 H 255.385 2.08338 -0.413383 0
M  V30 2718 H 257.648 0.940016 -0.122775 0
M  V30 2719 H 257.354 3.51431 0.137568 0
M  V30 2720 H 257.228 3.27505 1.87137 0
M  V30 2721 H 259.615 2.28321 1.86959 0
M  V30 2722 H 259.696 2.55504 0.123057 0
M  V30 2723 H 259.34 5.05254 0.517793 0
M  V30 2724 H 259.27 4.75059 2.27214 0
M  V30 2725 H 261.761 3.56377 1.25713 0
M  V30 2726 H 262.074 7.47197 1.97271 0
M  V30 2727 H 260.419 6.71797 1.78083 0
M  V30 2728 H 263.61 4.44171 1.47749 0
M  V30 2729 H 263.783 6.22382 1.80402 0
M  V30 2730 N 257.189 -0.644168 1.43834 0
M  V30 2731 C 258.152 -1.73857 1.49353 0
M  V30 2732 C 259.152 -1.56315 0.377112 0
M  V30 2733 O 260.342 -1.62048 0.639226 0
M  V30 2734 C 257.474 -3.12819 1.35488 0
M  V30 2735 H 258.667 -1.70342 2.46827 0
M  V30 2736 H 256.22 -0.856652 1.30733 0
M  V30 2737 H 256.955 -3.2194 0.390569 0
M  V30 2738 H 256.74 -3.26958 2.16428 0
M  V30 2739 H 258.23 -3.92606 1.42302 0
M  V30 2740 N 258.668 -1.30515 -0.883378 0
M  V30 2741 C 259.598 -1.19607 -2.00541 0
M  V30 2742 C 260.579 -0.086346 -1.69881 0
M  V30 2743 O 261.764 -0.268654 -1.92333 0
M  V30 2744 C 258.894 -0.888758 -3.35736 0
M  V30 2745 C 257.848 -1.95659 -3.8066 0
M  V30 2746 C 257.174 -1.50224 -5.13164 0
M  V30 2747 C 258.474 -3.36788 -3.99213 0
M  V30 2748 H 260.168 -2.13476 -2.09925 0
M  V30 2749 H 257.714 -1.02775 -1.00863 0
M  V30 2750 H 259.667 -0.799094 -4.13754 0
M  V30 2751 H 258.391 0.0856125 -3.26488 0
M  V30 2752 H 257.05 -2.03591 -3.04871 0
M  V30 2753 H 256.698 -0.516092 -5.00345 0
M  V30 2754 H 256.398 -2.2165 -5.44192 0
M  V30 2755 H 257.922 -1.42639 -5.93706 0
M  V30 2756 H 259.336 -3.31605 -4.67665 0
M  V30 2757 H 257.733 -4.06314 -4.41621 0
M  V30 2758 H 258.803 -3.78561 -3.03017 0
M  V30 2759 N 260.146 1.09593 -1.13257 0
M  V30 2760 C 261.562 1.33775 -0.870423 0
M  V30 2761 C 261.762 1.95327 0.494926 0
M  V30 2762 O 260.818 2.19853 1.2418 0
M  V30 2763 C 262.131 2.25106 -1.99369 0
M  V30 2764 C 263.679 2.3862 -2.02558 0
M  V30 2765 C 264.154 3.33285 -3.14142 0
M  V30 2766 N 265.645 3.40857 -3.13641 0
M  V30 2767 C 266.38 4.14101 -3.96621 0
M  V30 2768 N 265.876 4.90157 -4.8961 0
M  V30 2769 N 267.669 4.09808 -3.84726 0
M  V30 2770 H 259.82 0.680136 -2.01216 0
M  V30 2771 H 262.083 0.362133 -0.876107 0
M  V30 2772 H 261.789 1.87103 -2.97801 0
M  V30 2773 H 261.663 3.25481 -1.90635 0
M  V30 2774 H 264.05 2.75887 -1.0474 0
M  V30 2775 H 264.131 1.38028 -2.15364 0
M  V30 2776 H 263.775 2.96741 -4.12198 0
M  V30 2777 H 263.705 4.33776 -2.98574 0
M  V30 2778 H 266.196 2.86624 -2.46282 0
M  V30 2779 H 266.509 5.4347 -5.49418 0
M  V30 2780 H 264.854 4.89251 -4.93617 0
M  V30 2781 H 268.045 3.4949 -3.11408 0
M  V30 2782 H 268.218 4.66629 -4.49623 0
M  V30 2783 N 261.624 0.925811 1.2754 0
M  V30 2784 C 262.554 0.440748 2.29303 0
M  V30 2785 C 263.535 -0.497971 1.62648 0
M  V30 2786 O 264.72 -0.403126 1.8997 0
M  V30 2787 C 261.85 -0.309048 3.45922 0
M  V30 2788 C 260.804 0.54166 4.24559 0
M  V30 2789 C 260.13 -0.337191 5.33636 0
M  V30 2790 C 261.43 1.80516 4.90114 0
M  V30 2791 H 263.124 1.29121 2.70126 0
M  V30 2792 H 260.67 0.622323 1.29858 0
M  V30 2793 H 262.623 -0.659315 4.1621 0
M  V30 2794 H 261.347 -1.19352 3.04011 0
M  V30 2795 H 260.006 0.874609 3.56014 0
M  V30 2796 H 259.654 -1.22056 4.87966 0
M  V30 2797 H 259.354 0.228497 5.87156 0
M  V30 2798 H 260.878 -0.683072 6.06767 0
M  V30 2799 H 262.292 1.52307 5.52698 0
M  V30 2800 H 260.689 2.3142 5.53683 0
M  V30 2801 H 261.759 2.52581 4.13921 0
M  V30 2802 N 263.102 -1.41638 0.69111 0
M  V30 2803 C 264.065 -2.29178 0.0319786 0
M  V30 2804 C 265.065 -1.44153 -0.712496 0
M  V30 2805 O 266.255 -1.65354 -0.548053 0
M  V30 2806 C 263.387 -3.26952 -0.965161 0
M  V30 2807 H 264.58 -2.88959 0.802681 0
M  V30 2808 H 262.133 -1.4955 0.454356 0
M  V30 2809 H 262.868 -2.72142 -1.76378 0
M  V30 2810 H 262.653 -3.89685 -0.434522 0
M  V30 2811 H 264.143 -3.92561 -1.42428 0
M  V30 2812 N 264.58 -0.43555 -1.51462 0
M  V30 2813 C 265.51 0.367376 -2.30592 0
M  V30 2814 C 266.491 1.02263 -1.35928 0
M  V30 2815 O 267.676 1.02661 -1.64847 0
M  V30 2816 C 264.806 1.46983 -3.14664 0
M  V30 2817 C 263.76 0.938161 -4.17591 0
M  V30 2818 C 263.086 2.13622 -4.90173 0
M  V30 2819 C 264.386 -0.0261621 -5.22293 0
M  V30 2820 H 266.08 -0.292969 -2.97963 0
M  V30 2821 H 263.626 -0.14234 -1.43295 0
M  V30 2822 H 265.579 2.03873 -3.688 0
M  V30 2823 H 264.303 2.15843 -2.4511 0
M  V30 2824 H 262.962 0.391481 -3.64504 0
M  V30 2825 H 262.61 2.81098 -4.17124 0
M  V30 2826 H 262.31 1.78688 -5.59772 0
M  V30 2827 H 263.834 2.7107 -5.47132 0
M  V30 2828 H 265.248 0.452384 -5.71512 0
M  V30 2829 H 263.645 -0.287992 -5.99409 0
M  V30 2830 H 264.715 -0.963391 -4.75233 0
M  V30 2831 N 266.058 1.56714 -0.166846 0
M  V30 2832 C 266.988 2.20754 0.760913 0
M  V30 2833 C 267.969 1.16178 1.24244 0
M  V30 2834 O 269.154 1.44592 1.29641 0
M  V30 2835 C 266.284 2.84478 1.99223 0
M  V30 2836 C 265.238 3.95053 1.64672 0
M  V30 2837 C 264.564 4.45805 2.95232 0
M  V30 2838 C 265.864 5.14865 0.878155 0
M  V30 2839 H 267.558 2.98537 0.22713 0
M  V30 2840 H 265.104 1.43596 0.107805 0
M  V30 2841 H 267.057 3.27951 2.64624 0
M  V30 2842 H 265.781 2.04056 2.55007 0
M  V30 2843 H 264.44 3.52228 1.01641 0
M  V30 2844 H 264.088 3.62181 3.49047 0
M  V30 2845 H 263.788 5.204 2.7287 0
M  V30 2846 H 265.312 4.91962 3.6167 0
M  V30 2847 H 266.726 5.55059 1.43466 0
M  V30 2848 H 265.123 5.95348 0.753738 0
M  V30 2849 H 266.193 4.84735 -0.126377 0
M  V30 2850 N 267.536 -0.106894 1.57237 0
M  V30 2851 C 268.785 -0.811163 1.8467 0
M  V30 2852 C 269.098 -1.80469 0.754342 0
M  V30 2853 O 270.304 -2.55601 0.915439 0
M  V30 2854 C 268.76 -1.49337 3.27454 0
M  V30 2855 C 268.368 -0.540217 4.44731 0
M  V30 2856 C 270.112 -2.18206 3.64124 0
M  V30 2857 C 268.019 -1.22634 5.78545 0
M  V30 2858 H 266.949 -0.306679 0.688813 0
M  V30 2859 H 269.6 -0.0639887 1.83388 0
M  V30 2860 H 267.982 -2.2876 3.23241 0
M  V30 2861 H 269.156 0.221659 4.60267 0
M  V30 2862 H 267.471 0.042146 4.16379 0
M  V30 2863 H 270.068 -2.70253 4.61376 0
M  V30 2864 H 270.411 -2.96562 2.92158 0
M  V30 2865 H 270.944 -1.45658 3.70174 0
M  V30 2866 H 267.683 -0.483832 6.53712 0
M  V30 2867 H 267.203 -1.95993 5.66874 0
M  V30 2868 H 268.882 -1.75615 6.2271 0
M  V30 2869 N 269.014 -1.53014 -0.377408 0
M  V30 2870 C 269.944 -1.81589 -1.46791 0
M  V30 2871 C 270.925 -0.668622 -1.56408 0
M  V30 2872 O 272.11 -0.917337 -1.71168 0
M  V30 2873 C 269.24 -1.99519 -2.8427 0
M  V30 2874 C 268.194 -3.15249 -2.89486 0
M  V30 2875 C 267.52 -3.18451 -4.29527 0
M  V30 2876 C 268.82 -4.54084 -2.58079 0
M  V30 2877 H 270.514 -2.7291 -1.23127 0
M  V30 2878 H 268.06 -1.31319 -0.590883 0
M  V30 2879 H 270.013 -2.18092 -3.60575 0
M  V30 2880 H 268.737 -1.04897 -3.09296 0
M  V30 2881 H 267.396 -2.96477 -2.15631 0
M  V30 2882 H 267.044 -2.2149 -4.5161 0
M  V30 2883 H 266.744 -3.962 -4.33934 0
M  V30 2884 H 268.268 -3.39193 -5.07721 0
M  V30 2885 H 269.682 -4.72899 -3.24098 0
M  V30 2886 H 268.079 -5.33987 -2.7382 0
M  V30 2887 H 269.149 -4.60006 -1.53372 0
M  V30 2888 N 270.492 0.636531 -1.44174 0
M  V30 2889 C 271.422 1.76003 -1.53444 0
M  V30 2890 C 272.403 1.65619 -0.387841 0
M  V30 2891 O 273.588 1.84461 -0.607257 0
M  V30 2892 C 270.718 3.14511 -1.4731 0
M  V30 2893 C 269.672 3.39677 -2.60391 0
M  V30 2894 C 268.998 4.78159 -2.39308 0
M  V30 2895 C 270.298 3.32772 -4.02567 0
M  V30 2896 H 271.992 1.68501 -2.47483 0
M  V30 2897 H 269.538 0.809237 -1.19111 0
M  V30 2898 H 271.491 3.92878 -1.52397 0
M  V30 2899 H 270.215 3.22783 -0.49785 0
M  V30 2900 H 268.874 2.63688 -2.54684 0
M  V30 2901 H 268.522 4.83128 -1.39988 0
M  V30 2902 H 268.222 4.95956 -3.15122 0
M  V30 2903 H 269.746 5.58762 -2.46205 0
M  V30 2904 H 271.16 4.01051 -4.09672 0
M  V30 2905 H 269.557 3.62104 -4.7854 0
M  V30 2906 H 270.627 2.30669 -4.2652 0
M  V30 2907 N 271.97 1.30982 0.876444 0
M  V30 2908 C 273.198 1.23242 1.6619 0
M  V30 2909 C 273.613 -0.203345 1.87702 0
M  V30 2910 O 272.97 -1.13317 1.43057 0
M  V30 2911 C 273.021 1.96623 3.03351 0
M  V30 2912 O 272.742 3.34594 2.82804 0
M  V30 2913 C 274.243 1.95644 3.97792 0
M  V30 2914 H 271.463 0.426126 0.518322 0
M  V30 2915 H 274.007 1.7275 1.09442 0
M  V30 2916 H 272.162 1.50892 3.56806 0
M  V30 2917 H 272.576 3.71873 3.69879 0
M  V30 2918 H 274.05 2.51511 4.91372 0
M  V30 2919 H 274.527 0.937395 4.2908 0
M  V30 2920 H 275.133 2.41225 3.50272 0
M  V30 2921 N 273.449 -1.08991 1.13837 0
M  V30 2922 C 274.696 -1.81258 0.902882 0
M  V30 2923 C 275.024 -1.85936 -0.570803 0
M  V30 2924 O 274.279 -1.3267 -1.43865 0
M  V30 2925 C 274.578 -3.27042 1.44147 0
M  V30 2926 C 274.244 -3.4249 2.93276 0
M  V30 2927 C 272.906 -3.46414 3.33992 0
M  V30 2928 C 275.258 -3.4666 3.892 0
M  V30 2929 C 272.586 -3.52091 4.69307 0
M  V30 2930 C 274.938 -3.53872 5.24364 0
M  V30 2931 C 273.602 -3.56066 5.646 0
M  V30 2932 H 272.872 -0.663268 0.330388 0
M  V30 2933 H 275.519 -1.28368 1.42105 0
M  V30 2934 H 273.824 -3.82599 0.844097 0
M  V30 2935 H 275.521 -3.81499 1.23528 0
M  V30 2936 H 272.111 -3.40124 2.60794 0
M  V30 2937 H 276.295 -3.42865 3.58828 0
M  V30 2938 H 271.551 -3.52079 4.9985 0
M  V30 2939 H 275.725 -3.56043 5.98503 0
M  V30 2940 H 273.352 -3.60218 6.69438 0
M  V30 2941 N 274.927 -0.932562 -1.27047 0
M  V30 2942 C 276.176 -0.571351 -1.93439 0
M  V30 2943 C 276.489 0.892467 -1.74053 0
M  V30 2944 O 277.695 1.36267 -2.34826 0
M  V30 2945 C 276.151 -0.97106 -3.46552 0
M  V30 2946 C 275.759 -2.4559 -3.74686 0
M  V30 2947 C 277.503 -0.681333 -4.18997 0
M  V30 2948 C 275.41 -2.79475 -5.21198 0
M  V30 2949 H 274.34 -0.209966 -0.724176 0
M  V30 2950 H 276.991 -1.13403 -1.44263 0
M  V30 2951 H 275.373 -0.336983 -3.94564 0
M  V30 2952 H 276.547 -3.13829 -3.37414 0
M  V30 2953 H 274.862 -2.71802 -3.15456 0
M  V30 2954 H 277.459 -0.910939 -5.26883 0
M  V30 2955 H 277.802 0.381628 -4.14547 0
M  V30 2956 H 278.335 -1.27473 -3.76823 0
M  V30 2957 H 275.074 -3.847 -5.30741 0
M  V30 2958 H 274.594 -2.1589 -5.596 0
M  V30 2959 H 276.273 -2.67478 -5.89122 0
M  V30 2960 N 276.405 1.4127 -0.698611 0
M  V30 2961 C 277.335 2.33447 -0.049629 0
M  V30 2962 C 278.316 1.51982 0.763898 0
M  V30 2963 O 279.501 1.80509 0.716257 0
M  V30 2964 C 276.631 3.35828 0.885267 0
M  V30 2965 C 275.585 4.27627 0.178613 0
M  V30 2966 C 274.911 5.20406 1.22807 0
M  V30 2967 C 276.211 5.13459 -0.956933 0
M  V30 2968 H 277.905 2.87966 -0.81951 0
M  V30 2969 H 275.451 1.38461 -0.395538 0
M  V30 2970 H 277.404 3.9924 1.34854 0
M  V30 2971 H 276.128 2.79666 1.68685 0
M  V30 2972 H 274.787 3.65643 -0.26466 0
M  V30 2973 H 274.435 4.60558 2.02226 0
M  V30 2974 H 274.135 5.82661 0.760239 0
M  V30 2975 H 275.659 5.86695 1.69179 0
M  V30 2976 H 277.073 5.70421 -0.573805 0
M  V30 2977 H 275.47 5.8467 -1.35205 0
M  V30 2978 H 276.54 4.50443 -1.79524 0
M  V30 2979 N 277.883 0.443576 1.51229 0
M  V30 2980 C 279.123 -0.119889 2.04048 0
M  V30 2981 C 279.487 -1.39418 1.32009 0
M  V30 2982 O 280.688 -2.03829 1.75235 0
M  V30 2983 C 278.959 -0.327233 3.55899 0
M  V30 2984 S 280.518 -0.853208 4.30425 0
M  V30 2985 H 277.336 -0.028921 0.710412 0
M  V30 2986 H 279.938 0.604413 1.85922 0
M  V30 2987 H 278.642 0.606445 4.05895 0
M  V30 2988 H 278.173 -1.07844 3.7833 0
M  V30 2989 H 280.188 -2.13005 4.48155 0
M  V30 2990 N 279.361 -1.56624 0.175154 0
M  V30 2991 C 280.607 -1.98061 -0.462976 0
M  V30 2992 C 280.962 -1.05949 -1.60601 0
M  V30 2993 O 280.255 -0.0999027 -1.91339 0
M  V30 2994 C 280.449 -3.43419 -0.989864 0
M  V30 2995 C 280.278 -4.49587 0.100583 0
M  V30 2996 C 279.048 -5.02281 0.551539 0
M  V30 2997 C 281.246 -5.06322 0.902369 0
M  V30 2998 N 279.228 -5.92088 1.62189 0
M  V30 2999 C 280.599 -5.92607 1.82256 0
M  V30 3000 C 282.654 -4.88811 0.947019 0
M  V30 3001 C 281.357 -6.63254 2.78364 0
M  V30 3002 C 283.383 -5.60182 1.89606 0
M  V30 3003 C 282.745 -6.46197 2.80372 0
M  V30 3004 H 278.844 -0.769833 -0.137409 0
M  V30 3005 H 281.428 -1.9273 0.276256 0
M  V30 3006 H 279.599 -3.49288 -1.6986 0
M  V30 3007 H 281.331 -3.7186 -1.59694 0
M  V30 3008 H 278.086 -4.73367 0.148537 0
M  V30 3009 H 278.51 -6.41696 2.15767 0
M  V30 3010 H 283.152 -4.22004 0.259304 0
M  V30 3011 H 280.87 -7.29271 3.48122 0
M  V30 3012 H 284.456 -5.48617 1.93676 0
M  V30 3013 H 283.336 -7.00453 3.52612 0
M  V30 3014 N 280.839 0.0985539 -1.57292 0
M  V30 3015 C 282.067 0.816318 -1.90115 0
M  V30 3016 C 282.482 1.72451 -0.768509 0
M  V30 3017 O 281.839 1.80643 0.259687 0
M  V30 3018 C 281.89 1.63259 -3.22535 0
M  V30 3019 O 281.611 0.760934 -4.31441 0
M  V30 3020 C 283.112 2.45372 -3.69199 0
M  V30 3021 H 280.332 0.233595 -0.629027 0
M  V30 3022 H 282.876 0.0768229 -2.04356 0
M  V30 3023 H 281.031 2.32463 -3.09903 0
M  V30 3024 H 281.445 1.32595 -5.07463 0
M  V30 3025 H 282.919 2.98144 -4.64558 0
M  V30 3026 H 283.396 3.23677 -2.96867 0
M  V30 3027 H 284.002 1.81373 -3.84687 0
M  V30 3028 N 282.317 1.53212 0.369288 0
M  V30 3029 C 283.728 1.60943 0.946276 0
M  V30 3030 C 284.079 0.47452 1.90375 0
M  V30 3031 O 283.204 -0.399597 2.12679 0
M  V30 3032 C 283.799 2.91715 1.72302 0
M  V30 3033 C 282.358 3.01792 2.24941 0
M  V30 3034 C 281.505 2.56211 1.06072 0
M  V30 3035 H 284.456 1.58007 0.148198 0
M  V30 3036 H 284.477 2.79309 2.58393 0
M  V30 3037 H 283.989 3.74295 1.0259 0
M  V30 3038 H 282.09 2.23791 2.97906 0
M  V30 3039 H 282.203 4.06803 2.53077 0
M  V30 3040 H 280.567 2.10998 1.4266 0
M  V30 3041 H 281.35 3.41206 0.378639 0
M  V30 3042 N 283.795 -0.628877 1.44509 0
M  V30 3043 C 285.025 -1.41349 1.50678 0
M  V30 3044 C 285.433 -1.88745 0.131075 0
M  V30 3045 O 284.776 -1.61592 -0.87371 0
M  V30 3046 C 284.838 -2.66608 2.41165 0
M  V30 3047 C 284.502 -2.40993 3.88293 0
M  V30 3048 C 285.499 -2.0268 4.78766 0
M  V30 3049 C 283.184 -2.54563 4.33016 0
M  V30 3050 C 285.178 -1.78269 6.11963 0
M  V30 3051 C 282.865 -2.29766 5.6626 0
M  V30 3052 C 283.863 -1.91678 6.55552 0
M  V30 3053 O 283.551 -1.67158 7.86329 0
M  V30 3054 H 283.283 -0.439851 0.51333 0
M  V30 3055 H 285.837 -0.776084 1.90174 0
M  V30 3056 H 284.067 -3.32994 1.96601 0
M  V30 3057 H 285.756 -3.28615 2.38259 0
M  V30 3058 H 286.522 -1.91751 4.45485 0
M  V30 3059 H 282.401 -2.83179 3.63773 0
M  V30 3060 H 285.945 -1.48465 6.81619 0
M  V30 3061 H 281.842 -2.40306 5.99102 0
M  V30 3062 H 282.61 -1.81386 7.98149 0
M  V30 3063 N 285.273 -1.31445 -0.869486 0
M  V30 3064 C 286.503 -1.23942 -1.65294 0
M  V30 3065 C 286.911 0.197561 -1.88166 0
M  V30 3066 O 286.254 1.14019 -1.44033 0
M  V30 3067 C 286.316 -1.91385 -3.04322 0
M  V30 3068 C 285.98 -3.40726 -3.04557 0
M  V30 3069 C 286.977 -4.36464 -2.82481 0
M  V30 3070 C 284.662 -3.82425 -3.25663 0
M  V30 3071 C 286.656 -5.71876 -2.8149 0
M  V30 3072 C 284.343 -5.1795 -3.243 0
M  V30 3073 C 285.341 -6.12486 -3.02241 0
M  V30 3074 O 285.029 -7.45534 -3.00724 0
M  V30 3075 H 284.761 -0.429459 -0.522054 0
M  V30 3076 H 287.315 -1.73873 -1.0935 0
M  V30 3077 H 285.545 -1.36004 -3.61994 0
M  V30 3078 H 287.234 -1.77791 -3.64891 0
M  V30 3079 H 288 -4.05576 -2.65956 0
M  V30 3080 H 283.879 -3.09274 -3.41863 0
M  V30 3081 H 287.423 -6.45638 -2.64191 0
M  V30 3082 H 283.32 -5.48473 -3.40365 0
M  V30 3083 H 284.088 -7.54713 -3.16782 0
M  V30 3084 N 286.751 1.08385 -1.14413 0
M  V30 3085 C 287.681 2.17321 -0.854044 0
M  V30 3086 C 288.662 1.69024 0.191049 0
M  V30 3087 O 289.847 1.94141 0.0476779 0
M  V30 3088 C 286.977 3.45719 -0.330983 0
M  V30 3089 C 285.931 4.07409 -1.31155 0
M  V30 3090 C 285.257 5.30762 -0.64778 0
M  V30 3091 C 286.557 4.48665 -2.67388 0
M  V30 3092 H 288.251 2.41845 -1.76498 0
M  V30 3093 H 285.797 1.16233 -0.850051 0
M  V30 3094 H 287.75 4.21241 -0.115645 0
M  V30 3095 H 286.474 3.2075 0.615381 0
M  V30 3096 H 285.133 3.33919 -1.51306 0
M  V30 3097 H 284.781 5.02078 0.304398 0
M  V30 3098 H 284.481 5.72992 -1.30207 0
M  V30 3099 H 286.005 6.08998 -0.441972 0
M  V30 3100 H 287.419 5.15364 -2.51143 0
M  V30 3101 H 285.816 5.01814 -3.29093 0
M  V30 3102 H 286.886 3.60543 -3.24248 0
M  V30 3103 N 288.23 0.939286 1.26551 0
M  V30 3104 C 289.16 0.465044 2.28822 0
M  V30 3105 C 290.141 -0.480692 1.63167 0
M  V30 3106 O 291.326 -0.382955 1.90387 0
M  V30 3107 C 288.456 -0.27234 3.46231 0
M  V30 3108 C 287.41 0.58666 4.2396 0
M  V30 3109 C 286.736 -0.280573 5.33963 0
M  V30 3110 C 288.036 1.85704 4.88171 0
M  V30 3111 H 289.73 1.31979 2.68741 0
M  V30 3112 H 287.276 0.636061 1.29191 0
M  V30 3113 H 289.229 -0.615133 4.16886 0
M  V30 3114 H 287.953 -1.16121 3.0526 0
M  V30 3115 H 286.612 0.91232 3.55067 0
M  V30 3116 H 286.26 -1.16874 4.89234 0
M  V30 3117 H 285.96 0.29076 5.8688 0
M  V30 3118 H 287.484 -0.618678 6.07458 0
M  V30 3119 H 288.898 1.58161 5.51052 0
M  V30 3120 H 287.295 2.37279 5.51197 0
M  V30 3121 H 288.365 2.56957 4.11219 0
M  V30 3122 N 289.708 -1.40897 0.706093 0
M  V30 3123 C 290.956 -2.00657 0.241054 0
M  V30 3124 C 291.277 -1.56241 -1.16678 0
M  V30 3125 O 290.547 -0.79765 -1.78926 0
M  V30 3126 H 289.127 -0.742018 0.0861308 0
M  V30 3127 H 291.789 -1.72372 0.909604 0
M  V30 3128 H 290.885 -3.10958 0.266705 0
M  V30 3129 N 291.186 -0.45159 -1.50991 0
M  V30 3130 C 292.119 0.398179 -2.24699 0
M  V30 3131 C 293.097 1.01276 -1.27208 0
M  V30 3132 O 294.281 1.05247 -1.56382 0
M  V30 3133 C 291.408 1.55618 -3.00833 0
M  V30 3134 C 290.454 1.0609 -4.13095 0
M  V30 3135 S 291.287 -0.00865136 -5.35499 0
M  V30 3136 C 292.443 1.15369 -6.15175 0
M  V30 3137 H 292.676 -0.227555 -2.96428 0
M  V30 3138 H 290.209 -0.236251 -1.52582 0
M  V30 3139 H 292.167 2.21997 -3.45293 0
M  V30 3140 H 290.828 2.15337 -2.28667 0
M  V30 3141 H 290.021 1.92726 -4.65696 0
M  V30 3142 H 289.623 0.47513 -3.7097 0
M  V30 3143 H 291.915 2.06925 -6.45126 0
M  V30 3144 H 292.858 0.667344 -7.04948 0
M  V30 3145 H 293.266 1.3987 -5.46897 0
M  V30 3146 N 292.664 1.56529 -0.183458 0
M  V30 3147 C 293.91 1.98304 0.452466 0
M  V30 3148 C 294.265 1.06799 1.60037 0
M  V30 3149 O 293.558 0.110049 1.91284 0
M  V30 3150 C 293.752 3.43939 0.971637 0
M  V30 3151 C 293.581 4.49528 -0.124425 0
M  V30 3152 C 292.351 5.01981 -0.578168 0
M  V30 3153 C 294.549 5.05836 -0.929207 0
M  V30 3154 N 292.531 5.91219 -1.65327 0
M  V30 3155 C 293.902 5.91632 -1.85396 0
M  V30 3156 C 295.957 4.88302 -0.972929 0
M  V30 3157 C 294.66 6.61768 -2.81878 0
M  V30 3158 C 296.686 5.59168 -1.92574 0
M  V30 3159 C 296.048 6.44701 -2.83795 0
M  V30 3160 H 292.147 0.770551 0.133324 0
M  V30 3161 H 294.731 1.92581 -0.286473 0
M  V30 3162 H 292.902 3.50184 1.68006 0
M  V30 3163 H 294.634 3.72702 1.5772 0
M  V30 3164 H 291.389 4.73282 -0.173639 0
M  V30 3165 H 291.813 6.40543 -2.19167 0
M  V30 3166 H 296.455 4.21861 -0.28168 0
M  V30 3167 H 294.173 7.27415 -3.51984 0
M  V30 3168 H 297.759 5.47582 -1.96583 0
M  V30 3169 H 296.639 6.98573 -3.56322 0
M  V30 3170 N 294.142 -0.090211 1.57342 0
M  V30 3171 C 295.372 -0.805055 1.90269 0
M  V30 3172 C 295.78 -1.72561 0.775842 0
M  V30 3173 O 295.123 -1.81839 -0.260843 0
M  V30 3174 C 295.185 -1.66734 3.18497 0
M  V30 3175 C 294.849 -0.918092 4.47683 0
M  V30 3176 C 295.846 -0.245674 5.19319 0
M  V30 3177 C 293.531 -0.890724 4.94339 0
M  V30 3178 C 295.525 0.444088 6.35851 0
M  V30 3179 C 293.212 -0.197179 6.10782 0
M  V30 3180 C 294.21 0.469044 6.81388 0
M  V30 3181 O 293.898 1.15146 7.95611 0
M  V30 3182 H 293.63 -0.235143 0.633785 0
M  V30 3183 H 296.184 -0.0703805 2.05279 0
M  V30 3184 H 294.414 -2.44437 2.99646 0
M  V30 3185 H 296.103 -2.25919 3.37217 0
M  V30 3186 H 296.869 -0.258246 4.84312 0
M  V30 3187 H 292.748 -1.39873 4.39268 0
M  V30 3188 H 296.292 0.964667 6.90898 0
M  V30 3189 H 292.189 -0.18247 6.45242 0
M  V30 3190 H 292.957 1.05885 8.11622 0
M  V30 3191 N 295.62 -1.53406 -0.361157 0
M  V30 3192 C 296.866 -1.70999 -1.1014 0
M  V30 3193 C 297.221 -0.458425 -1.86859 0
M  V30 3194 O 296.514 0.548654 -1.83577 0
M  V30 3195 C 296.708 -2.90211 -2.08596 0
M  V30 3196 C 296.537 -4.26841 -1.41553 0
M  V30 3197 C 295.307 -4.91621 -1.16778 0
M  V30 3198 C 297.505 -5.07212 -0.850915 0
M  V30 3199 N 295.487 -6.12164 -0.461312 0
M  V30 3200 C 296.858 -6.19394 -0.274046 0
M  V30 3201 C 298.913 -4.92218 -0.750036 0
M  V30 3202 C 297.616 -7.18221 0.393868 0
M  V30 3203 C 299.642 -5.91322 -0.095894 0
M  V30 3204 C 299.004 -7.0283 0.470081 0
M  V30 3205 H 295.103 -0.678939 -0.388028 0
M  V30 3206 H 297.687 -1.90811 -0.38722 0
M  V30 3207 H 295.858 -2.71931 -2.77323 0
M  V30 3208 H 297.59 -2.96606 -2.7533 0
M  V30 3209 H 294.345 -4.50849 -1.45024 0
M  V30 3210 H 294.769 -6.76888 -0.123312 0
M  V30 3211 H 299.411 -4.06192 -1.17337 0
M  V30 3212 H 297.129 -8.03835 0.82914 0
M  V30 3213 H 300.715 -5.81797 -0.0187075 0
M  V30 3214 H 299.595 -7.782 0.968241 0
M  V30 3215 N 297.098 0.621204 -1.44841 0
M  V30 3216 C 298.345 1.38055 -1.48145 0
M  V30 3217 C 298.673 1.94143 -0.117867 0
M  V30 3218 O 297.928 1.74713 0.881694 0
M  V30 3219 C 298.227 2.55675 -2.4973 0
M  V30 3220 C 297.893 2.17817 -3.94799 0
M  V30 3221 C 296.555 2.07205 -4.34303 0
M  V30 3222 C 298.907 1.88065 -4.86087 0
M  V30 3223 C 296.235 1.65045 -5.63007 0
M  V30 3224 C 298.587 1.47394 -6.15189 0
M  V30 3225 C 297.251 1.35331 -6.53637 0
M  V30 3226 H 296.521 0.505181 -0.542101 0
M  V30 3227 H 299.168 0.703477 -1.78111 0
M  V30 3228 H 297.473 3.2866 -2.13284 0
M  V30 3229 H 299.17 3.13904 -2.4953 0
M  V30 3230 H 295.76 2.26998 -3.63552 0
M  V30 3231 H 299.944 1.95168 -4.56315 0
M  V30 3232 H 295.2 1.54317 -5.91605 0
M  V30 3233 H 299.374 1.23415 -6.85377 0
M  V30 3234 H 297.001 1.02435 -7.53267 0
M  V30 3235 N 298.576 1.31904 0.862503 0
M  V30 3236 C 299.801 1.25135 1.65397 0
M  V30 3237 C 300.226 -0.179 1.87246 0
M  V30 3238 O 299.584 -1.1277 1.4196 0
M  V30 3239 C 299.632 2.00832 2.99498 0
M  V30 3240 O 298.736 1.35075 3.89652 0
M  V30 3241 H 298.077 0.431655 0.504549 0
M  V30 3242 H 300.607 1.74094 1.07483 0
M  V30 3243 H 300.617 2.10709 3.49379 0
M  V30 3244 H 299.292 3.04847 2.82916 0
M  V30 3245 H 297.869 1.33696 3.48109 0
M  V30 3246 N 300.054 -1.07777 1.14986 0
M  V30 3247 C 301.465 -1.61766 0.932127 0
M  V30 3248 C 301.816 -1.88974 -0.527581 0
M  V30 3249 O 300.941 -1.65198 -1.39781 0
M  V30 3250 C 301.536 -2.93891 1.68563 0
M  V30 3251 C 300.095 -3.44639 1.5133 0
M  V30 3252 C 299.242 -2.18767 1.704 0
M  V30 3253 H 302.193 -0.909201 1.30074 0
M  V30 3254 H 302.214 -3.62623 1.15259 0
M  V30 3255 H 301.726 -2.74057 2.74799 0
M  V30 3256 H 299.827 -3.69564 0.474702 0
M  V30 3257 H 299.94 -4.20966 2.28746 0
M  V30 3258 H 298.304 -2.28253 1.13016 0
M  V30 3259 H 299.087 -2.01433 2.77992 0
M  V30 3260 N 301.532 -0.945985 -1.26051 0
M  V30 3261 C 302.76 -0.613025 -1.9761 0
M  V30 3262 C 303.175 0.813035 -1.70397 0
M  V30 3263 O 302.532 1.54274 -0.974979 0
M  V30 3264 C 302.583 -0.85159 -3.51326 0
M  V30 3265 O 302.304 -2.22157 -3.77595 0
M  V30 3266 C 303.805 -0.529831 -4.40122 0
M  V30 3267 H 301.025 -0.230593 -0.630133 0
M  V30 3268 H 303.569 -1.268 -1.60443 0
M  V30 3269 H 301.724 -0.243151 -3.86636 0
M  V30 3270 H 302.138 -2.2852 -4.721 0
M  V30 3271 H 303.612 -0.747348 -5.46917 0
M  V30 3272 H 304.089 0.535341 -4.35925 0
M  V30 3273 H 304.695 -1.11721 -4.10364 0
M  V30 3274 N 303.011 1.40521 -0.713556 0
M  V30 3275 C 303.944 2.28198 -0.00881422 0
M  V30 3276 C 304.922 1.43227 0.769735 0
M  V30 3277 O 306.106 1.72641 0.756799 0
M  V30 3278 C 303.233 3.23758 0.994899 0
M  V30 3279 C 302.279 4.25391 0.3074 0
M  V30 3280 S 303.112 5.26765 -0.963247 0
M  V30 3281 C 304.268 6.25888 0.0384143 0
M  V30 3282 H 304.501 2.87622 -0.752407 0
M  V30 3283 H 302.034 1.45925 -0.504502 0
M  V30 3284 H 303.992 3.79341 1.56879 0
M  V30 3285 H 302.653 2.63396 1.71118 0
M  V30 3286 H 301.846 4.92596 1.0661 0
M  V30 3287 H 301.448 3.73497 -0.193879 0
M  V30 3288 H 303.74 6.71683 0.885912 0
M  V30 3289 H 304.683 7.05552 -0.60019 0
M  V30 3290 H 305.091 5.63072 0.401233 0
M  V30 3291 N 304.489 0.459591 1.5075 0
M  V30 3292 C 305.419 -0.330644 2.31147 0
M  V30 3293 C 306.4 -1.00087 1.37538 0
M  V30 3294 O 307.585 -1.00025 1.66459 0
M  V30 3295 C 304.715 -1.41958 3.16962 0
M  V30 3296 C 303.669 -0.871608 4.19031 0
M  V30 3297 C 302.995 -2.05797 4.9351 0
M  V30 3298 C 304.295 0.109251 5.22186 0
M  V30 3299 H 305.989 0.340336 2.97459 0
M  V30 3300 H 303.535 0.165119 1.4305 0
M  V30 3301 H 305.488 -1.9798 3.71997 0
M  V30 3302 H 304.212 -2.11917 2.48513 0
M  V30 3303 H 302.871 -0.333442 3.6508 0
M  V30 3304 H 302.519 -2.74427 4.21544 0
M  V30 3305 H 302.219 -1.6976 5.62544 0
M  V30 3306 H 303.743 -2.62331 5.51375 0
M  V30 3307 H 305.157 -0.361405 5.7216 0
M  V30 3308 H 303.554 0.383316 5.98875 0
M  V30 3309 H 304.624 1.03887 4.73641 0
M  V30 3310 N 305.967 -1.56429 0.191757 0
M  V30 3311 C 307.195 -2.01867 -0.453586 0
M  V30 3312 C 307.61 -1.07191 -1.5542 0
M  V30 3313 O 306.967 -0.0762108 -1.82341 0
M  V30 3314 C 307.018 -3.47017 -1.013 0
M  V30 3315 O 306.739 -4.38078 0.0437005 0
M  V30 3316 C 308.24 -4.07956 -1.73456 0
M  V30 3317 H 305.46 -0.661211 -0.114199 0
M  V30 3318 H 308.004 -2.02295 0.299483 0
M  V30 3319 H 306.159 -3.47298 -1.71647 0
M  V30 3320 H 306.573 -5.23178 -0.372212 0
M  V30 3321 H 308.047 -5.1138 -2.07833 0
M  V30 3322 H 308.524 -3.51222 -2.63704 0
M  V30 3323 H 309.13 -4.11437 -1.07702 0
M  V30 3324 N 307.445 0.0818655 -1.57387 0
M  V30 3325 C 308.355 1.11642 -2.06333 0
M  V30 3326 C 309.371 1.43033 -0.99083 0
M  V30 3327 O 310.547 1.53411 -1.30488 0
M  V30 3328 C 307.612 2.41342 -2.48907 0
M  V30 3329 C 306.673 2.17014 -3.7041 0
M  V30 3330 C 305.906 3.4053 -4.10944 0
M  V30 3331 O 306.129 4.4927 -3.51444 0
M  V30 3332 O 305.063 3.29336 -5.03807 0
M  V30 3333 H 308.889 0.730657 -2.9478 0
M  V30 3334 H 306.474 0.295301 -1.46452 0
M  V30 3335 H 308.356 3.17691 -2.76858 0
M  V30 3336 H 307.031 2.79319 -1.63593 0
M  V30 3337 H 305.938 1.38403 -3.47556 0
M  V30 3338 H 307.271 1.83923 -4.56545 0
M  V30 3339 N 308.923 1.53595 0.353017 0
M  V30 3340 C 310.169 1.70638 1.09593 0
M  V30 3341 C 310.502 0.463286 1.88593 0
M  V30 3342 O 309.777 -0.539597 1.86865 0
M  V30 3343 C 310.06 2.96406 2.04489 0
M  V30 3344 C 309.913 4.30901 1.29014 0
M  V30 3345 C 311.232 3.17812 3.0444 0
M  V30 3346 H 308.351 0.620913 0.397034 0
M  V30 3347 H 310.993 1.86254 0.375446 0
M  V30 3348 H 309.143 2.83223 2.65927 0
M  V30 3349 H 310.815 4.55917 0.702638 0
M  V30 3350 H 309.058 4.29741 0.592071 0
M  V30 3351 H 309.729 5.1506 1.98537 0
M  V30 3352 H 312.205 3.30263 2.53112 0
M  V30 3353 H 311.081 4.07223 3.6805 0
M  V30 3354 H 311.342 2.33669 3.75301 0
M  V30 3355 N 310.401 -0.613514 1.45168 0
M  V30 3356 C 311.812 -1.19539 1.43413 0
M  V30 3357 C 312.163 -1.95558 0.158632 0
M  V30 3358 O 311.288 -2.0335 -0.740119 0
M  V30 3359 C 311.883 -2.17445 2.59813 0
M  V30 3360 C 310.442 -2.71022 2.61197 0
M  V30 3361 C 309.589 -1.46323 2.35552 0
M  V30 3362 H 312.54 -0.403163 1.53494 0
M  V30 3363 H 312.561 -3.00373 2.33574 0
M  V30 3364 H 312.073 -1.62089 3.52631 0
M  V30 3365 H 310.174 -3.30332 1.7237 0
M  V30 3366 H 310.287 -3.15859 3.60236 0
M  V30 3367 H 308.651 -1.75072 1.84992 0
M  V30 3368 H 309.434 -0.92844 3.30507 0
M  V30 3369 N 311.879 -1.3236 -0.855495 0
M  V30 3370 C 313.29 -1.2056 -1.42556 0
M  V30 3371 C 313.641 0.182209 -1.95352 0
M  V30 3372 O 312.766 1.08088 -1.87472 0
M  V30 3373 C 313.361 -2.1826 -2.59129 0
M  V30 3374 C 311.92 -2.10351 -3.12137 0
M  V30 3375 C 311.067 -2.06674 -1.84882 0
M  V30 3376 H 314.018 -1.442 -0.662727 0
M  V30 3377 H 314.039 -1.78064 -3.36264 0
M  V30 3378 H 313.551 -3.19257 -2.20673 0
M  V30 3379 H 311.652 -1.12599 -3.55179 0
M  V30 3380 H 311.765 -3.00135 -3.73438 0
M  V30 3381 H 310.129 -1.51901 -2.04446 0
M  V30 3382 H 310.912 -3.09451 -1.48643 0
M  V30 3383 N 313.357 1.07166 -1.15556 0
M  V30 3384 C 314.582 1.84053 -0.955988 0
M  V30 3385 C 315.007 1.81586 0.490739 0
M  V30 3386 O 314.365 1.21018 1.34997 0
M  V30 3387 C 314.413 3.28957 -1.47714 0
M  V30 3388 O 313.517 4.06795 -0.677593 0
M  V30 3389 H 312.858 0.569842 -0.340847 0
M  V30 3390 H 315.388 1.35178 -1.53584 0
M  V30 3391 H 315.398 3.79788 -1.4908 0
M  V30 3392 H 314.073 3.30068 -2.53037 0
M  V30 3393 H 312.65 3.6561 -0.733721 0
M  V30 3394 N 314.835 0.952656 1.25548 0
M  V30 3395 C 315.765 0.489287 2.28316 0
M  V30 3396 C 316.746 -0.463359 1.63667 0
M  V30 3397 O 317.931 -0.36274 1.90782 0
M  V30 3398 C 315.061 -0.235603 3.465 0
M  V30 3399 C 314.015 0.631593 4.23314 0
M  V30 3400 C 313.341 -0.223923 5.34231 0
M  V30 3401 C 314.641 1.90871 4.86174 0
M  V30 3402 H 316.335 1.34822 2.67326 0
M  V30 3403 H 313.881 0.649728 1.28509 0
M  V30 3404 H 315.834 -0.570882 4.17515 0
M  V30 3405 H 314.558 -1.12877 3.06474 0
M  V30 3406 H 313.217 0.949929 3.54079 0
M  V30 3407 H 312.865 -1.11678 4.90446 0
M  V30 3408 H 312.565 0.35299 5.86539 0
M  V30 3409 H 314.089 -0.554214 6.0808 0
M  V30 3410 H 315.503 1.63997 5.49343 0
M  V30 3411 H 313.9 2.43112 5.4865 0
M  V30 3412 H 314.97 2.61304 4.08471 0
M  V30 3413 N 316.313 -1.40141 0.720998 0
M  V30 3414 C 317.538 -2.05618 0.271258 0
M  V30 3415 C 317.963 -1.53978 -1.08039 0
M  V30 3416 O 317.321 -0.677463 -1.68167 0
M  V30 3417 C 317.369 -3.59609 0.267197 0
M  V30 3418 O 316.473 -4.05526 -0.749814 0
M  V30 3419 H 315.814 -0.651904 0.126162 0
M  V30 3420 H 318.344 -1.79439 0.982997 0
M  V30 3421 H 318.354 -4.0786 0.106744 0
M  V30 3422 H 317.029 -3.96559 1.25354 0
M  V30 3423 H 315.606 -3.68722 -0.556644 0
M  V30 3424 N 317.792 -0.46758 -1.50504 0
M  V30 3425 C 318.742 0.34698 -2.25344 0
M  V30 3426 C 319.726 0.964469 -1.2879 0
M  V30 3427 O 320.918 0.8776 -1.53711 0
M  V30 3428 C 318.047 1.43042 -3.1208 0
M  V30 3429 C 317.133 0.82084 -4.16081 0
M  V30 3430 N 317.524 -0.0567602 -5.05768 0
M  V30 3431 C 315.822 1.08517 -4.32597 0
M  V30 3432 C 316.523 -0.402343 -5.80307 0
M  V30 3433 N 315.499 0.221607 -5.43148 0
M  V30 3434 H 319.301 -0.329129 -2.92051 0
M  V30 3435 H 316.815 -0.281508 -1.59942 0
M  V30 3436 H 318.812 2.02712 -3.64299 0
M  V30 3437 H 317.472 2.10856 -2.46921 0
M  V30 3438 H 318.483 -0.425349 -5.1615 0
M  V30 3439 H 315.16 1.75855 -3.78657 0
M  V30 3440 H 316.55 -1.11834 -6.62528 0
M  V30 3441 N 319.27 1.56325 -0.20005 0
M  V30 3442 C 320.519 1.96895 0.437652 0
M  V30 3443 C 320.832 1.08999 1.62415 0
M  V30 3444 O 322.038 1.39372 2.32997 0
M  V30 3445 C 320.494 3.50198 0.830025 0
M  V30 3446 C 320.102 4.46765 -0.332461 0
M  V30 3447 C 321.846 3.99526 1.43453 0
M  V30 3448 C 319.753 5.91344 0.0811468 0
M  V30 3449 H 318.683 0.735209 0.167282 0
M  V30 3450 H 321.334 1.81148 -0.292853 0
M  V30 3451 H 319.716 3.61467 1.61734 0
M  V30 3452 H 320.89 4.47231 -1.11 0
M  V30 3453 H 319.205 4.07657 -0.848789 0
M  V30 3454 H 321.802 5.05025 1.75652 0
M  V30 3455 H 322.145 3.44122 2.34277 0
M  V30 3456 H 322.678 3.91393 0.71109 0
M  V30 3457 H 319.417 6.50685 -0.793033 0
M  V30 3458 H 318.937 5.94121 0.823445 0
M  V30 3459 H 320.616 6.44945 0.515252 0
M  V30 3460 N 320.748 -0.0735177 1.57428 0
M  V30 3461 C 321.678 -1.0879 2.06608 0
M  V30 3462 C 322.659 -1.40473 0.959237 0
M  V30 3463 O 323.844 -1.5013 1.23185 0
M  V30 3464 C 320.974 -2.40183 2.50857 0
M  V30 3465 C 319.928 -2.22858 3.65402 0
M  V30 3466 C 319.254 -3.59619 3.957 0
M  V30 3467 C 320.554 -1.65123 4.95511 0
M  V30 3468 H 322.248 -0.678673 2.91607 0
M  V30 3469 H 319.794 -0.325013 1.40284 0
M  V30 3470 H 321.747 -3.11437 2.83874 0
M  V30 3471 H 320.471 -2.83083 1.62885 0
M  V30 3472 H 319.13 -1.54045 3.32664 0
M  V30 3473 H 318.778 -4.00086 3.04861 0
M  V30 3474 H 318.478 -3.48866 4.72828 0
M  V30 3475 H 320.002 -4.32306 4.31212 0
M  V30 3476 H 321.416 -2.26241 5.26771 0
M  V30 3477 H 319.813 -1.65071 5.7695 0
M  V30 3478 H 320.883 -0.612559 4.81015 0
M  V30 3479 N 322.226 -1.5378 -0.344866 0
M  V30 3480 C 323.473 -1.70963 -1.08526 0
M  V30 3481 C 323.801 -0.472126 -1.88683 0
M  V30 3482 O 323.056 0.546116 -1.87926 0
M  V30 3483 C 323.355 -2.92407 -2.05506 0
M  V30 3484 C 323.021 -4.28066 -1.41671 0
M  V30 3485 C 321.683 -4.64951 -1.2399 0
M  V30 3486 C 324.035 -5.12344 -0.956726 0
M  V30 3487 C 321.363 -5.83733 -0.589277 0
M  V30 3488 C 323.715 -6.3179 -0.320015 0
M  V30 3489 C 322.379 -6.67372 -0.130881 0
M  V30 3490 H 321.649 -0.625598 -0.397124 0
M  V30 3491 H 324.296 -1.87995 -0.36469 0
M  V30 3492 H 322.601 -2.69973 -2.8394 0
M  V30 3493 H 324.298 -3.02895 -2.62784 0
M  V30 3494 H 320.888 -3.99034 -1.56429 0
M  V30 3495 H 325.072 -4.8438 -1.08118 0
M  V30 3496 H 320.328 -6.09877 -0.431344 0
M  V30 3497 H 324.502 -6.96386 0.0445072 0
M  V30 3498 H 322.129 -7.59273 0.375318 0
M  V30 3499 N 323.704 0.605807 -1.45491 0
M  V30 3500 C 324.634 1.72709 -1.57143 0
M  V30 3501 C 325.615 1.6476 -0.422884 0
M  V30 3502 O 326.8 1.83132 -0.646247 0
M  V30 3503 C 323.93 3.11316 -1.53948 0
M  V30 3504 C 322.884 3.34077 -2.67537 0
M  V30 3505 C 322.21 4.72975 -2.49397 0
M  V30 3506 C 323.51 3.24158 -4.09535 0
M  V30 3507 H 325.204 1.63214 -2.51001 0
M  V30 3508 H 322.75 0.78379 -1.208 0
M  V30 3509 H 324.703 3.89557 -1.60696 0
M  V30 3510 H 323.427 3.21655 -0.566205 0
M  V30 3511 H 322.086 2.58227 -2.6022 0
M  V30 3512 H 321.734 4.8005 -1.50205 0
M  V30 3513 H 321.434 4.8916 -3.25571 0
M  V30 3514 H 322.958 5.53414 -2.58002 0
M  V30 3515 H 324.372 3.92271 -4.18086 0
M  V30 3516 H 322.769 3.51872 -4.86113 0
M  V30 3517 H 323.839 2.2157 -4.31317 0
M  V30 3518 N 325.182 1.32811 0.848464 0
M  V30 3519 C 326.112 1.24882 1.97299 0
M  V30 3520 C 327.093 0.131357 1.69592 0
M  V30 3521 O 328.278 0.319553 1.91553 0
M  V30 3522 C 325.408 0.97746 3.33261 0
M  V30 3523 C 324.362 2.05682 3.75338 0
M  V30 3524 C 323.688 1.63777 5.09 0
M  V30 3525 C 324.988 3.47254 3.90144 0
M  V30 3526 H 326.682 2.18966 2.04191 0
M  V30 3527 H 324.228 1.05413 0.981029 0
M  V30 3528 H 326.181 0.908513 4.1149 0
M  V30 3529 H 324.905 0.000980011 3.266 0
M  V30 3530 H 323.564 2.11603 2.99366 0
M  V30 3531 H 323.212 0.648569 4.98801 0
M  V30 3532 H 322.912 2.36 5.38124 0
M  V30 3533 H 324.436 1.5833 5.89715 0
M  V30 3534 H 325.85 3.43888 4.58709 0
M  V30 3535 H 324.247 4.1788 4.30693 0
M  V30 3536 H 325.317 3.86462 2.92874 0
M  V30 3537 N 326.66 -1.06551 1.16123 0
M  V30 3538 C 327.908 -1.78947 0.939267 0
M  V30 3539 C 328.229 -1.87532 -0.534476 0
M  V30 3540 O 327.499 -1.38211 -1.38833 0
M  V30 3541 H 326.079 -0.662807 0.344523 0
M  V30 3542 H 328.741 -1.28725 1.46342 0
M  V30 3543 H 327.837 -2.81117 1.35572 0
M  V30 3544 N 328.138 -0.959301 -1.25041 0
M  V30 3545 C 329.068 -0.501388 -2.28053 0
M  V30 3546 C 330.049 0.454673 -1.63911 0
M  V30 3547 O 331.234 0.352618 -1.90972 0
M  V30 3548 C 328.364 0.217224 -3.4662 0
M  V30 3549 C 327.318 -0.654034 -4.22973 0
M  V30 3550 C 326.644 0.195589 -5.34342 0
M  V30 3551 C 327.944 -1.93447 -4.85155 0
M  V30 3552 H 329.638 -1.36238 -2.66608 0
M  V30 3553 H 327.184 -0.656534 -1.28163 0
M  V30 3554 H 329.137 0.548732 -4.17812 0
M  V30 3555 H 327.861 1.1125 -3.07068 0
M  V30 3556 H 326.52 -0.968693 -3.5357 0
M  V30 3557 H 326.168 1.09076 -4.91031 0
M  V30 3558 H 325.868 -0.384091 -5.86343 0
M  V30 3559 H 327.392 0.521958 -6.08365 0
M  V30 3560 H 328.806 -1.66908 -5.48466 0
M  V30 3561 H 327.203 -2.46018 -5.47353 0
M  V30 3562 H 328.273 -2.63466 -4.07079 0
M  V30 3563 N 329.616 1.39756 -0.72842 0
M  V30 3564 C 330.546 2.33289 -0.0991354 0
M  V30 3565 C 331.527 1.53568 0.731489 0
M  V30 3566 O 332.712 1.81987 0.677807 0
M  V30 3567 C 329.842 3.3763 0.813834 0
M  V30 3568 C 328.796 4.2791 0.0878663 0
M  V30 3569 C 328.122 5.22894 1.11741 0
M  V30 3570 C 329.422 5.11314 -1.06563 0
M  V30 3571 H 331.116 2.86163 -0.880408 0
M  V30 3572 H 328.662 1.37591 -0.424819 0
M  V30 3573 H 330.615 4.0201 1.26355 0
M  V30 3574 H 329.339 2.83181 1.62715 0
M  V30 3575 H 327.998 3.65 -0.342159 0
M  V30 3576 H 327.646 4.64744 1.92412 0
M  V30 3577 H 327.346 5.84143 0.636477 0
M  V30 3578 H 328.87 5.90151 1.56697 0
M  V30 3579 H 330.284 5.69076 -0.694671 0
M  V30 3580 H 328.681 5.81671 -1.47577 0
M  V30 3581 H 329.751 4.46534 -1.89038 0
M  V30 3582 N 331.094 0.475555 1.50254 0
M  V30 3583 C 332.042 -0.330276 2.30243 0
M  V30 3584 C 333.036 -0.986306 1.37726 0
M  V30 3585 O 334.242 -0.9169 1.54897 0
M  V30 3586 H 330.617 -0.125353 0.741479 0
M  V30 3587 H 332.588 0.364702 2.96163 0
M  V30 3588 C 331.337 -1.39704 3.18399 0
M  V30 3589 H 330.66 -0.901621 3.89501 0
M  V30 3590 H 332.1 -1.93336 3.77355 0
M  V30 3591 C 330.559 -2.4014 2.36293 0
M  V30 3592 O 331.089 -3.45504 2.04914 0
M  V30 3593 N 329.295 -2.1197 1.98789 0
M  V30 3594 H 328.842 -1.2631 2.24507 0
M  V30 3595 H 328.8 -2.79403 1.44157 0
M  V30 3596 N 332.573 -1.56217 0.208337 0
M  V30 3597 C 333.536 -2.18455 -0.693557 0
M  V30 3598 C 334.536 -1.14268 -1.13135 0
M  V30 3599 O 335.726 -1.39577 -1.0423 0
M  V30 3600 C 332.858 -2.79727 -1.94848 0
M  V30 3601 H 334.051 -2.99519 -0.15114 0
M  V30 3602 H 331.604 -1.56245 -0.041287 0
M  V30 3603 H 332.339 -2.02497 -2.53309 0
M  V30 3604 H 332.124 -3.56009 -1.64316 0
M  V30 3605 H 333.614 -3.27475 -2.59133 0
M  V30 3606 N 334.051 0.0651679 -1.57465 0
M  V30 3607 C 335.462 0.616213 -1.76238 0
M  V30 3608 C 335.813 1.7756 -0.834689 0
M  V30 3609 O 334.938 2.1639 -0.0204156 0
M  V30 3610 C 335.533 1.12462 -3.1959 0
M  V30 3611 C 334.092 1.62147 -3.39684 0
M  V30 3612 C 333.239 0.543739 -2.71917 0
M  V30 3613 H 336.19 -0.161022 -1.57881 0
M  V30 3614 H 336.211 1.99324 -3.24114 0
M  V30 3615 H 335.723 0.280592 -3.87084 0
M  V30 3616 H 333.824 2.48854 -2.77313 0
M  V30 3617 H 333.937 1.69385 -4.48158 0
M  V30 3618 H 332.301 0.990352 -2.34657 0
M  V30 3619 H 333.084 -0.290216 -3.42071 0
M  V30 3620 N 335.529 1.53961 0.336706 0
M  V30 3621 C 336.459 1.85417 1.41925 0
M  V30 3622 C 337.44 0.709856 1.5458 0
M  V30 3623 O 338.625 0.962396 1.68676 0
M  V30 3624 C 335.755 2.06985 2.78881 0
M  V30 3625 C 334.709 3.22813 2.81026 0
M  V30 3626 C 334.035 3.29727 4.20932 0
M  V30 3627 C 335.335 4.60767 2.45949 0
M  V30 3628 H 337.029 2.76079 1.15848 0
M  V30 3629 H 334.575 1.32839 0.555859 0
M  V30 3630 H 336.528 2.27575 3.54665 0
M  V30 3631 H 335.252 1.13061 3.06406 0
M  V30 3632 H 333.911 3.0209 2.07695 0
M  V30 3633 H 333.559 2.33385 4.45579 0
M  V30 3634 H 333.259 4.07566 4.23277 0
M  V30 3635 H 334.783 3.52536 4.98549 0
M  V30 3636 H 336.197 4.81325 3.11446 0
M  V30 3637 H 334.594 5.4106 2.59566 0
M  V30 3638 H 335.664 4.6391 1.41122 0
M  V30 3639 N 337.007 -0.598083 1.45811 0
M  V30 3640 C 338.284 -1.35777 1.40797 0
M  V30 3641 C 338.664 -2.10935 0.083462 0
M  V30 3642 O 338.012 -2.08505 -0.934763 0
M  V30 3643 C 338.222 -2.29666 2.62783 0
M  V30 3644 C 339.57 -2.91977 3.08277 0
M  V30 3645 O 340.594 -2.39984 2.63223 0
M  V30 3646 O 339.453 -3.86376 3.86491 0
M  V30 3647 H 336.547 -0.609291 0.55919 0
M  V30 3648 H 339.093 -0.620379 1.57954 0
M  V30 3649 H 337.865 -1.73454 3.50756 0
M  V30 3650 H 337.488 -3.1077 2.48008 0
M  V30 3651 N 338.485 -1.33259 -0.841409 0
M  V30 3652 C 339.896 -1.22066 -1.41269 0
M  V30 3653 C 340.247 0.161479 -1.95534 0
M  V30 3654 O 339.372 1.06094 -1.88608 0
M  V30 3655 C 339.967 -2.20996 -2.568 0
M  V30 3656 C 338.526 -2.13649 -3.09888 0
M  V30 3657 C 337.673 -2.08623 -1.82679 0
M  V30 3658 H 340.624 -1.44895 -0.647395 0
M  V30 3659 H 340.645 -1.81621 -3.34356 0
M  V30 3660 H 340.157 -3.2158 -2.17274 0
M  V30 3661 H 338.258 -1.16359 -3.53965 0
M  V30 3662 H 338.371 -3.04079 -3.70234 0
M  V30 3663 H 336.735 -1.54061 -2.02824 0
M  V30 3664 H 337.518 -3.1101 -1.45353 0
M  V30 3665 N 339.963 1.05934 -1.16686 0
M  V30 3666 C 340.893 2.1546 -0.899949 0
M  V30 3667 C 341.874 1.69391 0.155154 0
M  V30 3668 O 343.059 1.94199 0.00648693 0
M  V30 3669 C 340.189 3.44939 -0.404241 0
M  V30 3670 C 339.143 4.04536 -1.39767 0
M  V30 3671 C 338.469 5.29268 -0.760216 0
M  V30 3672 C 339.769 4.42893 -2.76845 0
M  V30 3673 H 341.463 2.38046 -1.81588 0
M  V30 3674 H 339.009 1.14404 -0.874514 0
M  V30 3675 H 340.962 4.20901 -0.204971 0
M  V30 3676 H 339.686 3.21983 0.547206 0
M  V30 3677 H 338.345 3.30635 -1.58355 0
M  V30 3678 H 337.993 5.02611 0.197831 0
M  V30 3679 H 337.693 5.70101 -1.42332 0
M  V30 3680 H 339.217 6.07924 -0.57105 0
M  V30 3681 H 340.631 5.09921 -2.62019 0
M  V30 3682 H 339.028 4.94721 -3.39663 0
M  V30 3683 H 340.098 3.53584 -3.31823 0
M  V30 3684 N 341.441 0.965919 1.2453 0
M  V30 3685 C 342.371 0.513476 2.27784 0
M  V30 3686 C 343.352 -0.445974 1.6415 0
M  V30 3687 O 344.537 -0.342485 1.91156 0
M  V30 3688 C 341.667 -0.198839 3.4673 0
M  V30 3689 C 340.621 0.676456 4.2262 0
M  V30 3690 C 339.947 -0.167248 5.34438 0
M  V30 3691 C 341.247 1.96017 4.84123 0
M  V30 3692 H 342.941 1.3765 2.65881 0
M  V30 3693 H 340.487 0.663321 1.27813 0
M  V30 3694 H 342.44 -0.526567 4.18097 0
M  V30 3695 H 341.164 -1.0962 3.07654 0
M  V30 3696 H 339.823 0.98743 3.53052 0
M  V30 3697 H 339.471 -1.0647 4.91603 0
M  V30 3698 H 339.171 0.415181 5.86131 0
M  V30 3699 H 340.695 -0.489688 6.08633 0
M  V30 3700 H 342.109 1.69814 5.47573 0
M  V30 3701 H 340.506 2.48918 5.4604 0
M  V30 3702 H 341.576 2.65622 4.05676 0
M  V30 3703 N 342.919 -1.39368 0.735821 0
M  V30 3704 C 344.149 -2.04498 0.293967 0
M  V30 3705 C 344.557 -1.55593 -1.07645 0
M  V30 3706 O 343.9 -0.716324 -1.69158 0
M  V30 3707 C 343.962 -3.58836 0.218342 0
M  V30 3708 C 343.626 -4.30721 1.52736 0
M  V30 3709 C 344.623 -4.57305 2.47322 0
M  V30 3710 C 342.308 -4.69251 1.79189 0
M  V30 3711 C 344.302 -5.21429 3.66593 0
M  V30 3712 C 341.989 -5.33104 2.98737 0
M  V30 3713 C 342.987 -5.59125 3.9226 0
M  V30 3714 O 342.675 -6.21653 5.09708 0
M  V30 3715 H 342.407 -0.664118 0.126189 0
M  V30 3716 H 344.961 -1.79385 1.00051 0
M  V30 3717 H 343.191 -3.8285 -0.544314 0
M  V30 3718 H 344.88 -4.05447 -0.191626 0
M  V30 3719 H 345.646 -4.27983 2.28156 0
M  V30 3720 H 341.525 -4.48354 1.07239 0
M  V30 3721 H 345.069 -5.41656 4.39607 0
M  V30 3722 H 340.966 -5.61846 3.17803 0
M  V30 3723 H 341.734 -6.40146 5.10054 0
M  V30 3724 N 344.397 -0.483516 -1.5 0
M  V30 3725 C 345.645 0.067027 -2.01989 0
M  V30 3726 C 345.966 1.3909 -1.36671 0
M  V30 3727 O 345.236 1.88978 -0.516152 0
M  V30 3728 H 343.816 0.0277606 -0.746484 0
M  V30 3729 H 346.478 -0.636773 -1.84204 0
M  V30 3730 H 345.574 0.209484 -3.11396 0
M  V30 3731 N 345.875 1.56104 -0.216619 0
M  V30 3732 C 346.838 2.18819 0.681962 0
M  V30 3733 C 347.838 1.14866 1.12528 0
M  V30 3734 O 349.028 1.40128 1.03488 0
M  V30 3735 C 346.16 2.80756 1.93362 0
M  V30 3736 H 347.353 2.99595 0.135254 0
M  V30 3737 H 344.906 1.56265 0.0330003 0
M  V30 3738 H 345.641 2.03837 2.52232 0
M  V30 3739 H 345.426 3.56876 1.62426 0
M  V30 3740 H 346.916 3.28844 2.57393 0
M  V30 3741 N 347.353 -0.0568162 1.57498 0
M  V30 3742 C 348.6 -0.753104 1.87975 0
M  V30 3743 C 348.928 -1.76815 0.81035 0
M  V30 3744 O 348.183 -1.94756 -0.19199 0
M  V30 3745 C 348.482 -1.48359 3.25153 0
M  V30 3746 C 348.148 -0.60713 4.46794 0
M  V30 3747 C 346.81 -0.365642 4.79809 0
M  V30 3748 C 349.162 -0.000305978 5.212 0
M  V30 3749 C 346.49 0.491905 5.84634 0
M  V30 3750 C 348.842 0.844781 6.26934 0
M  V30 3751 C 347.506 1.096 6.58441 0
M  V30 3752 H 346.776 -0.27558 0.687849 0
M  V30 3753 H 349.423 -0.0135173 1.91495 0
M  V30 3754 H 347.728 -2.29577 3.17492 0
M  V30 3755 H 349.425 -2.02739 3.45974 0
M  V30 3756 H 346.015 -0.805487 4.20963 0
M  V30 3757 H 350.199 -0.173961 4.95995 0
M  V30 3758 H 345.455 0.695131 6.07436 0
M  V30 3759 H 349.629 1.32165 6.83744 0
M  V30 3760 H 347.256 1.76224 7.39492 0
M  V30 3761 N 348.832 -1.54138 -0.328536 0
M  V30 3762 C 350.06 -1.76062 -1.08673 0
M  V30 3763 C 350.475 -0.506852 -1.81869 0
M  V30 3764 O 349.832 0.522223 -1.74869 0
M  V30 3765 C 349.883 -2.95054 -2.08866 0
M  V30 3766 O 349.604 -4.15583 -1.38644 0
M  V30 3767 C 351.105 -3.2915 -2.96943 0
M  V30 3768 H 348.325 -0.587889 -0.323461 0
M  V30 3769 H 350.869 -2.0101 -0.376175 0
M  V30 3770 H 349.024 -2.72394 -2.75464 0
M  V30 3771 H 349.438 -4.82481 -2.05699 0
M  V30 3772 H 350.912 -4.15723 -3.63151 0
M  V30 3773 H 351.389 -2.461 -3.63774 0
M  V30 3774 H 351.995 -3.53871 -2.35914 0
M  V30 3775 N 350.31 0.590341 -1.46126 0
M  V30 3776 C 351.24 1.71032 -1.58966 0
M  V30 3777 C 352.221 1.64302 -0.440335 0
M  V30 3778 O 353.406 1.82436 -0.665634 0
M  V30 3779 C 350.536 3.09665 -1.57241 0
M  V30 3780 C 349.49 3.31221 -2.71066 0
M  V30 3781 C 348.816 4.70303 -2.54399 0
M  V30 3782 C 350.116 3.19796 -4.1295 0
M  V30 3783 H 351.81 1.60543 -2.52718 0
M  V30 3784 H 349.356 0.770933 -1.21625 0
M  V30 3785 H 351.309 3.87831 -1.64819 0
M  V30 3786 H 350.033 3.21036 -0.600289 0
M  V30 3787 H 348.692 2.55452 -2.62944 0
M  V30 3788 H 348.34 4.78429 -1.55288 0
M  V30 3789 H 348.04 4.85679 -3.30741 0
M  V30 3790 H 349.564 5.50647 -2.63857 0
M  V30 3791 H 350.978 3.87815 -4.22223 0
M  V30 3792 H 349.375 3.46696 -4.89818 0
M  V30 3793 H 350.445 2.16983 -4.33643 0
M  V30 3794 N 351.788 1.33704 0.83433 0
M  V30 3795 C 353.036 1.25169 1.58673 0
M  V30 3796 C 353.357 -0.18127 1.94156 0
M  V30 3797 O 352.627 -1.11113 1.6134 0
M  V30 3798 H 351.207 0.4603 0.58833 0
M  V30 3799 H 353.869 1.67478 0.996847 0
M  V30 3800 H 352.965 1.84856 2.51465 0
M  V30 3801 N 353.266 -1.05314 1.17247 0
M  V30 3802 C 354.506 -1.79869 0.970898 0
M  V30 3803 C 354.87 -1.85594 -0.491808 0
M  V30 3804 O 356.071 -2.56229 -0.812409 0
M  V30 3805 C 354.342 -3.19937 1.59295 0
M  V30 3806 S 355.901 -4.10986 1.53741 0
M  V30 3807 H 352.719 -0.61949 0.348931 0
M  V30 3808 H 355.321 -1.26368 1.49169 0
M  V30 3809 H 354.025 -3.13372 2.65003 0
M  V30 3810 H 353.556 -3.78515 1.07191 0
M  V30 3811 H 355.571 -4.93203 0.544537 0
M  V30 3812 N 354.744 -0.972509 -1.24016 0
M  V30 3813 C 356.16 -0.679827 -1.44397 0
M  V30 3814 C 356.36 0.756716 -1.86751 0
M  V30 3815 O 355.416 1.53007 -2.00861 0
M  V30 3816 C 356.729 -1.66803 -2.50195 0
M  V30 3817 C 358.277 -1.68119 -2.64017 0
M  V30 3818 C 358.752 -2.65748 -3.73017 0
M  V30 3819 N 360.243 -2.64219 -3.8045 0
M  V30 3820 C 360.978 -3.36433 -4.64328 0
M  V30 3821 N 360.474 -4.1818 -5.52356 0
M  V30 3822 N 362.267 -3.25235 -4.58453 0
M  V30 3823 H 354.418 -1.90059 -0.948228 0
M  V30 3824 H 356.681 -0.818527 -0.478245 0
M  V30 3825 H 356.387 -2.69498 -2.25973 0
M  V30 3826 H 356.261 -1.4446 -3.48441 0
M  V30 3827 H 358.648 -0.661319 -2.87594 0
M  V30 3828 H 358.729 -1.94525 -1.66113 0
M  V30 3829 H 358.373 -3.67872 -3.50189 0
M  V30 3830 H 358.303 -2.36619 -4.70446 0
M  V30 3831 H 360.794 -2.04887 -3.17537 0
M  V30 3832 H 361.107 -4.70157 -6.13329 0
M  V30 3833 H 359.452 -4.22273 -5.52006 0
M  V30 3834 H 362.643 -2.60829 -3.88698 0
M  V30 3835 H 362.816 -3.81776 -5.23594 0
M  V30 3836 N 356.222 1.38976 -0.743202 0
M  V30 3837 C 357.638 1.53984 -0.419664 0
M  V30 3838 C 357.838 1.70837 1.0685 0
M  V30 3839 O 356.894 1.7135 1.8546 0
M  V30 3840 C 358.207 2.75287 -1.20985 0
M  V30 3841 C 359.755 2.89129 -1.19889 0
M  V30 3842 C 360.23 4.13381 -1.97181 0
M  V30 3843 N 361.721 4.20437 -1.94389 0
M  V30 3844 C 362.456 5.15547 -2.50996 0
M  V30 3845 N 361.952 6.16395 -3.16274 0
M  V30 3846 N 363.745 5.07822 -2.40984 0
M  V30 3847 H 355.896 1.26285 -1.7078 0
M  V30 3848 H 358.159 0.612689 -0.723406 0
M  V30 3849 H 357.865 2.69204 -2.26323 0
M  V30 3850 H 357.739 3.68184 -0.819759 0
M  V30 3851 H 360.126 2.947 -0.153606 0
M  V30 3852 H 360.207 1.97272 -1.62841 0
M  V30 3853 H 359.851 4.08572 -3.01714 0
M  V30 3854 H 359.781 5.04298 -1.51629 0
M  V30 3855 H 362.272 3.48205 -1.46839 0
M  V30 3856 H 362.585 6.85443 -3.56915 0
M  V30 3857 H 360.93 6.16758 -3.20367 0
M  V30 3858 H 364.121 4.27973 -1.89622 0
M  V30 3859 H 364.294 5.81767 -2.85397 0
M  V30 3860 N 357.7 0.491464 1.49741 0
M  V30 3861 C 358.948 -0.0563141 2.02022 0
M  V30 3862 C 359.269 -1.38363 1.37407 0
M  V30 3863 O 358.539 -1.88702 0.526166 0
M  V30 3864 H 357.119 -0.0238014 0.746621 0
M  V30 3865 H 359.781 0.646533 1.83864 0
M  V30 3866 H 358.877 -0.192967 3.11503 0
M  V30 3867 N 359.178 -1.55987 0.224894 0
M  V30 3868 C 360.128 -2.17076 -0.697296 0
M  V30 3869 C 361.112 -1.12006 -1.15514 0
M  V30 3870 O 362.304 -1.37985 -1.10857 0
M  V30 3871 C 359.433 -2.85679 -1.90374 0
M  V30 3872 C 358.519 -3.97977 -1.46543 0
M  V30 3873 N 358.91 -5.00359 -0.739909 0
M  V30 3874 C 357.208 -4.10128 -1.75245 0
M  V30 3875 C 357.909 -5.79407 -0.515939 0
M  V30 3876 N 356.885 -5.32892 -1.07364 0
M  V30 3877 H 360.687 -2.93592 -0.134594 0
M  V30 3878 H 358.201 -1.62379 0.0262885 0
M  V30 3879 H 360.198 -3.27857 -2.57518 0
M  V30 3880 H 358.858 -2.1066 -2.47088 0
M  V30 3881 H 359.869 -5.16412 -0.392253 0
M  V30 3882 H 356.546 -3.46263 -2.33255 0
M  V30 3883 H 357.936 -6.71872 0.0617349 0
M  V30 3884 N 360.656 0.0484629 -1.57525 0
M  V30 3885 C 361.588 1.08222 -2.02041 0
M  V30 3886 C 362.601 1.33621 -0.930012 0
M  V30 3887 O 363.79 1.3145 -1.20761 0
M  V30 3888 C 360.89 2.42818 -2.36416 0
M  V30 3889 C 360.063 2.37049 -3.67596 0
M  V30 3890 C 359.122 3.53937 -3.89378 0
M  V30 3891 O 358.148 3.34308 -4.60681 0
M  V30 3892 N 359.35 4.75126 -3.3352 0
M  V30 3893 H 362.115 0.702946 -2.9134 0
M  V30 3894 H 359.676 0.236745 -1.6016 0
M  V30 3895 H 361.668 3.197 -2.48141 0
M  V30 3896 H 360.238 2.72661 -1.52888 0
M  V30 3897 H 359.458 1.45395 -3.66407 0
M  V30 3898 H 360.746 2.30318 -4.53686 0
M  V30 3899 H 360.144 4.93976 -2.75688 0
M  V30 3900 H 358.701 5.49439 -3.50656 0
M  V30 3901 N 362.134 1.5431 0.320358 0
M  V30 3902 C 363.044 1.86946 1.41734 0
M  V30 3903 C 364.06 0.761689 1.56443 0
M  V30 3904 O 365.236 1.05629 1.71477 0
M  V30 3905 C 362.301 2.09293 2.76401 0
M  V30 3906 C 361.362 3.33082 2.70841 0
M  V30 3907 C 360.595 3.54353 3.99086 0
M  V30 3908 O 360.818 2.79002 4.97508 0
M  V30 3909 O 359.752 4.47838 4.0215 0
M  V30 3910 H 363.578 2.80232 1.17062 0
M  V30 3911 H 361.163 1.40255 0.514673 0
M  V30 3912 H 363.045 2.25303 3.56113 0
M  V30 3913 H 361.72 1.19194 3.00956 0
M  V30 3914 H 360.627 3.22454 1.89668 0
M  V30 3915 H 361.96 4.23249 2.5124 0
M  V30 3916 N 363.613 -0.582584 1.46437 0
M  V30 3917 C 364.543 -1.70187 1.59871 0
M  V30 3918 C 365.524 -1.64066 0.449042 0
M  V30 3919 O 366.709 -1.82081 0.6753 0
M  V30 3920 C 363.839 -3.08827 1.58881 0
M  V30 3921 C 362.793 -3.29779 2.72819 0
M  V30 3922 C 362.119 -4.68947 2.5689 0
M  V30 3923 C 363.419 -3.17601 4.1464 0
M  V30 3924 H 365.113 -1.592 2.53566 0
M  V30 3925 H 362.659 -0.764472 1.22032 0
M  V30 3926 H 364.612 -3.86951 1.66873 0
M  V30 3927 H 363.336 -3.20713 0.617306 0
M  V30 3928 H 361.995 -2.54054 2.64296 0
M  V30 3929 H 361.643 -4.77599 1.57823 0
M  V30 3930 H 361.343 -4.83919 3.33312 0
M  V30 3931 H 362.867 -5.4924 2.66773 0
M  V30 3932 H 364.281 -3.8557 4.24274 0
M  V30 3933 H 362.678 -3.44094 4.9165 0
M  V30 3934 H 363.748 -2.14681 4.34788 0
M  V30 3935 N 365.091 -1.34144 -0.827227 0
M  V30 3936 C 366.316 -1.29476 -1.62021 0
M  V30 3937 C 366.741 0.129292 -1.87655 0
M  V30 3938 O 366.099 1.08967 -1.449 0
M  V30 3939 C 366.147 -2.08702 -2.94068 0
M  V30 3940 O 365.251 -1.45359 -3.85933 0
M  V30 3941 H 364.592 -0.444881 -0.492927 0
M  V30 3942 H 367.122 -1.76882 -1.02829 0
M  V30 3943 H 367.132 -2.19898 -3.43669 0
M  V30 3944 H 365.807 -3.12241 -2.74734 0
M  V30 3945 H 364.384 -1.42879 -3.44442 0
M  V30 3946 N 366.569 1.04691 -1.17803 0
M  V30 3947 C 367.818 1.77176 -0.963931 0
M  V30 3948 C 368.131 1.88888 0.508015 0
M  V30 3949 O 369.337 2.58164 0.840465 0
M  V30 3950 C 367.793 3.18518 -1.67555 0
M  V30 3951 C 367.401 3.14919 -3.18637 0
M  V30 3952 C 369.145 3.95424 -1.54402 0
M  V30 3953 C 367.052 4.51081 -3.82466 0
M  V30 3954 H 365.982 0.664116 -0.357023 0
M  V30 3955 H 368.633 1.17303 -1.4111 0
M  V30 3956 H 367.015 3.78748 -1.15613 0
M  V30 3957 H 368.189 2.64178 -3.77554 0
M  V30 3958 H 366.504 2.51512 -3.31859 0
M  V30 3959 H 369.101 4.96106 -1.99456 0
M  V30 3960 H 369.444 4.13343 -0.495329 0
M  V30 3961 H 369.977 3.41754 -2.0359 0
M  V30 3962 H 366.716 4.38368 -4.87354 0
M  V30 3963 H 366.236 5.01951 -3.28337 0
M  V30 3964 H 367.915 5.2001 -3.84965 0
M  V30 3965 N 368.047 0.979072 1.23499 0
M  V30 3966 C 369.324 0.563674 1.87302 0
M  V30 3967 C 369.704 -0.959199 1.88049 0
M  V30 3968 O 369.052 -1.83535 1.36114 0
M  V30 3969 C 369.262 1.16822 3.28867 0
M  V30 3970 C 370.61 1.26014 4.0547 0
M  V30 3971 O 371.634 1.12158 3.38082 0
M  V30 3972 O 370.493 1.48044 5.26066 0
M  V30 3973 H 367.587 0.189602 0.804972 0
M  V30 3974 H 370.133 1.07407 1.31384 0
M  V30 3975 H 368.905 2.21049 3.22883 0
M  V30 3976 H 368.528 0.642564 3.92373 0
M  V30 3977 N 369.525 -1.3858 0.750561 0
M  V30 3978 C 370.75 -2.04997 0.314812 0
M  V30 3979 C 371.175 -1.56235 -1.04749 0
M  V30 3980 O 370.533 -0.712981 -1.66692 0
M  V30 3981 C 370.581 -3.58961 0.343415 0
M  V30 3982 O 369.685 -4.07025 -0.663628 0
M  V30 3983 H 369.026 -0.649081 0.139962 0
M  V30 3984 H 371.556 -1.77313 1.02084 0
M  V30 3985 H 371.566 -4.07542 0.193233 0
M  V30 3986 H 370.241 -3.93811 1.33738 0
M  V30 3987 H 368.818 -3.6982 -0.478307 0
M  V30 3988 N 371.003 -0.499398 -1.49478 0
M  V30 3989 C 372.228 0.044722 -2.07352 0
M  V30 3990 C 372.653 1.30207 -1.35749 0
M  V30 3991 O 372.011 1.76516 -0.413732 0
M  V30 3992 C 372.059 0.283013 -3.59488 0
M  V30 3993 O 371.163 1.35804 -3.89398 0
M  V30 3994 H 370.504 -0.0255147 -0.66351 0
M  V30 3995 H 373.034 -0.698561 -1.92305 0
M  V30 3996 H 373.044 0.515007 -4.04737 0
M  V30 3997 H 371.719 -0.635636 -4.11014 0
M  V30 3998 H 370.296 1.11113 -3.55961 0
M  V30 3999 N 372.481 1.55866 -0.233164 0
M  V30 4000 C 373.428 2.20796 0.67215 0
M  V30 4001 C 374.398 1.16731 1.18166 0
M  V30 4002 O 375.583 1.45129 1.23864 0
M  V30 4003 C 372.723 2.90072 1.86955 0
M  V30 4004 C 371.836 4.08759 1.39786 0
M  V30 4005 C 370.971 4.65787 2.55374 0
M  V30 4006 C 370.01 5.76752 2.04998 0
M  V30 4007 N 369.147 6.28021 3.13901 0
M  V30 4008 H 373.987 2.9779 0.111749 0
M  V30 4009 H 371.524 1.47036 0.0434007 0
M  V30 4010 H 373.482 3.28428 2.57276 0
M  V30 4011 H 372.112 2.15575 2.40265 0
M  V30 4012 H 371.164 3.7581 0.589173 0
M  V30 4013 H 372.476 4.88906 0.98856 0
M  V30 4014 H 371.63 5.06646 3.33758 0
M  V30 4015 H 370.369 3.84828 2.99598 0
M  V30 4016 H 369.374 5.35383 1.25079 0
M  V30 4017 H 370.599 6.59553 1.61759 0
M  V30 4018 H 368.545 5.49971 3.57586 0
M  V30 4019 H 368.462 7.03323 2.7726 0
M  V30 4020 H 369.73 6.73538 3.92386 0
M  V30 4021 N 373.959 -0.0401083 1.57549 0
M  V30 4022 C 374.869 -1.06133 2.0922 0
M  V30 4023 C 375.885 -1.40356 1.0284 0
M  V30 4024 O 377.061 -1.49897 1.34509 0
M  V30 4025 C 374.126 -2.34658 2.55218 0
M  V30 4026 C 373.187 -2.07117 3.76033 0
M  V30 4027 C 372.42 -3.29514 4.19829 0
M  V30 4028 O 372.643 -4.39794 3.63232 0
M  V30 4029 O 371.577 -3.15863 5.12362 0
M  V30 4030 H 375.403 -0.652244 2.96613 0
M  V30 4031 H 372.988 -0.256368 1.47184 0
M  V30 4032 H 374.87 -3.10239 2.85184 0
M  V30 4033 H 373.545 -2.74883 1.70941 0
M  V30 4034 H 372.452 -1.29139 3.51104 0
M  V30 4035 H 373.785 -1.71754 4.61261 0
M  V30 4036 N 375.437 -1.54477 -0.31217 0
M  V30 4037 C 376.685 -1.72884 -1.04668 0
M  V30 4038 C 377.006 -0.511477 -1.88173 0
M  V30 4039 O 376.276 0.474407 -1.90069 0
M  V30 4040 H 374.856 -0.637461 -0.389425 0
M  V30 4041 H 377.518 -1.91807 -0.345852 0
M  V30 4042 H 376.614 -2.61334 -1.70619 0
M  V30 4043 N 376.915 0.57481 -1.46744 0
M  V30 4044 C 378.14 1.36341 -1.56288 0
M  V30 4045 C 378.565 1.86954 -0.207347 0
M  V30 4046 O 377.923 1.62006 0.813871 0
M  V30 4047 C 377.971 2.52147 -2.57787 0
M  V30 4048 O 377.075 3.53834 -2.11838 0
M  V30 4049 H 376.416 0.405713 -0.525636 0
M  V30 4050 H 378.946 0.696453 -1.92382 0
M  V30 4051 H 378.956 2.98958 -2.77648 0
M  V30 4052 H 377.631 2.14663 -3.5622 0
M  V30 4053 H 376.208 3.1345 -2.01999 0
M  V30 4054 N 378.394 1.34581 0.820102 0
M  V30 4055 C 379.642 1.26845 1.57336 0
M  V30 4056 C 379.963 -0.160667 1.94337 0
M  V30 4057 O 379.233 -1.09396 1.6251 0
M  V30 4058 H 377.813 0.466514 0.583415 0
M  V30 4059 H 380.475 1.68526 0.979027 0
M  V30 4060 H 379.571 1.87513 2.4949 0
M  V30 4061 N 379.872 -1.04064 1.18357 0
M  V30 4062 C 381.288 -1.2947 0.933258 0
M  V30 4063 C 381.488 -1.97466 -0.401169 0
M  V30 4064 O 380.544 -2.25528 -1.13549 0
M  V30 4065 C 381.857 -2.15337 2.09882 0
M  V30 4066 C 383.405 -2.28683 2.13712 0
M  V30 4067 C 383.88 -3.17917 3.29686 0
M  V30 4068 N 385.371 -3.25504 3.29547 0
M  V30 4069 C 386.106 -3.94706 4.15926 0
M  V30 4070 N 385.602 -4.66239 5.12439 0
M  V30 4071 N 387.395 -3.90986 4.0384 0
M  V30 4072 H 379.546 -0.583359 2.04232 0
M  V30 4073 H 381.809 -0.319921 0.892387 0
M  V30 4074 H 381.515 -1.72682 3.06389 0
M  V30 4075 H 381.389 -3.16015 2.05947 0
M  V30 4076 H 383.776 -2.70575 1.17784 0
M  V30 4077 H 383.857 -1.27596 2.21705 0
M  V30 4078 H 383.501 -2.76736 4.25887 0
M  V30 4079 H 383.431 -4.19036 3.1893 0
M  V30 4080 H 385.922 -2.74547 2.59677 0
M  V30 4081 H 386.235 -5.16638 5.74722 0
M  V30 4082 H 384.58 -4.65143 5.16398 0
M  V30 4083 H 387.771 -3.34234 3.27727 0
M  V30 4084 H 387.944 -4.44646 4.71375 0
M  V30 4085 N 381.35 -0.985608 -1.22978 0
M  V30 4086 C 382.283 -0.47487 -2.23204 0
M  V30 4087 C 383.261 0.460865 -1.55932 0
M  V30 4088 O 384.445 0.388105 -1.84461 0
M  V30 4089 C 381.572 0.312427 -3.37256 0
M  V30 4090 C 380.618 -0.568219 -4.22698 0
M  V30 4091 S 381.451 -2.01919 -4.95973 0
M  V30 4092 C 382.607 -1.24118 -6.1347 0
M  V30 4093 H 382.84 -1.32419 -2.66181 0
M  V30 4094 H 380.373 -0.792005 -1.32539 0
M  V30 4095 H 382.331 0.760645 -4.03391 0
M  V30 4096 H 380.992 1.13693 -2.92801 0
M  V30 4097 H 380.185 0.0371657 -5.03986 0
M  V30 4098 H 379.787 -0.952897 -3.61657 0
M  V30 4099 H 382.079 -0.505121 -6.75614 0
M  V30 4100 H 383.022 -2.02907 -6.78406 0
M  V30 4101 H 383.43 -0.757669 -5.59392 0
M  V30 4102 N 382.828 1.3818 -0.7579 0
M  V30 4103 C 383.758 2.33027 -0.148597 0
M  V30 4104 C 384.739 1.55085 0.69875 0
M  V30 4105 O 385.924 1.83384 0.639053 0
M  V30 4106 C 383.054 3.3928 0.742034 0
M  V30 4107 C 382.008 4.28 -0.00291946 0
M  V30 4108 C 381.334 5.25146 1.00625 0
M  V30 4109 C 382.634 5.08938 -1.17385 0
M  V30 4110 H 384.328 2.84231 -0.940909 0
M  V30 4111 H 381.874 1.36659 -0.453908 0
M  V30 4112 H 383.827 4.046 1.17799 0
M  V30 4113 H 382.551 2.86569 1.56671 0
M  V30 4114 H 381.21 3.64192 -0.419504 0
M  V30 4115 H 380.858 4.68721 1.8251 0
M  V30 4116 H 380.558 5.85361 0.512428 0
M  V30 4117 H 382.082 5.93342 1.44143 0
M  V30 4118 H 383.496 5.67474 -0.815224 0
M  V30 4119 H 381.893 5.7841 -1.59882 0
M  V30 4120 H 382.963 4.42424 -1.98468 0
M  V30 4121 N 384.306 0.507319 1.49211 0
M  V30 4122 C 385.238 -0.304532 2.27168 0
M  V30 4123 C 386.251 -0.924956 1.33972 0
M  V30 4124 O 387.44 -0.807227 1.59205 0
M  V30 4125 C 384.54 -1.44431 3.06583 0
M  V30 4126 C 383.713 -0.930026 4.27398 0
M  V30 4127 C 382.772 -1.94817 4.88807 0
M  V30 4128 O 381.798 -1.51418 5.4869 0
M  V30 4129 N 383 -3.279 4.79022 0
M  V30 4130 H 385.765 0.36395 2.97482 0
M  V30 4131 H 383.326 0.340249 1.58284 0
M  V30 4132 H 385.318 -2.12311 3.44537 0
M  V30 4133 H 383.888 -2.01684 2.38835 0
M  V30 4134 H 383.108 -0.0759244 3.94127 0
M  V30 4135 H 384.396 -0.564932 5.05654 0
M  V30 4136 H 383.794 -3.65843 4.3148 0
M  V30 4137 H 382.351 -3.91476 5.21142 0
M  V30 4138 N 385.784 -1.5574 0.241426 0
M  V30 4139 C 386.694 -2.2479 -0.671305 0
M  V30 4140 C 387.71 -1.26217 -1.19772 0
M  V30 4141 O 388.886 -1.59079 -1.23514 0
M  V30 4142 C 385.951 -2.92966 -1.85396 0
M  V30 4143 C 385.012 -4.06935 -1.36756 0
M  V30 4144 C 384.245 -4.71851 -2.49384 0
M  V30 4145 O 384.468 -4.35823 -3.67987 0
M  V30 4146 O 383.402 -5.60467 -2.19454 0
M  V30 4147 H 387.228 -3.0349 -0.112966 0
M  V30 4148 H 384.813 -1.49397 0.0101513 0
M  V30 4149 H 386.695 -3.35927 -2.54423 0
M  V30 4150 H 385.37 -2.17211 -2.40002 0
M  V30 4151 H 384.277 -3.68503 -0.644726 0
M  V30 4152 H 385.61 -4.84492 -0.867647 0
M  V30 4153 N 387.262 0.0317525 -1.57568 0
M  V30 4154 C 388.172 1.05021 -2.0978 0
M  V30 4155 C 389.188 1.39809 -1.03583 0
M  V30 4156 O 390.364 1.49182 -1.35302 0
M  V30 4157 C 387.429 2.33301 -2.56459 0
M  V30 4158 C 386.49 2.0512 -3.77127 0
M  V30 4159 C 385.723 3.27283 -4.2157 0
M  V30 4160 O 385.946 4.37861 -3.65559 0
M  V30 4161 O 384.88 3.13141 -5.14029 0
M  V30 4162 H 388.706 0.636505 -2.96955 0
M  V30 4163 H 386.291 0.248559 -1.47318 0
M  V30 4164 H 388.173 3.08722 -2.86825 0
M  V30 4165 H 386.848 2.73973 -1.72397 0
M  V30 4166 H 385.755 1.27276 -3.51784 0
M  V30 4167 H 387.088 1.69305 -4.62165 0
M  V30 4168 N 388.74 1.54641 0.303973 0
M  V30 4169 C 389.989 1.7299 1.03717 0
M  V30 4170 C 390.302 0.521168 1.88529 0
M  V30 4171 O 391.508 0.586408 2.65092 0
M  V30 4172 C 389.964 3.06051 1.89369 0
M  V30 4173 C 389.572 4.34393 1.09574 0
M  V30 4174 C 391.316 3.3376 2.62306 0
M  V30 4175 C 389.223 5.58506 1.94486 0
M  V30 4176 H 388.153 0.64473 0.390947 0
M  V30 4177 H 390.804 1.81124 0.294328 0
M  V30 4178 H 389.186 2.91874 2.67629 0
M  V30 4179 H 390.36 4.59396 0.359485 0
M  V30 4180 H 388.675 4.13597 0.482324 0
M  V30 4181 H 391.272 4.23687 3.26181 0
M  V30 4182 H 391.615 2.52503 3.3098 0
M  V30 4183 H 392.148 3.48894 1.91097 0
M  V30 4184 H 388.887 6.42422 1.30287 0
M  V30 4185 H 388.407 5.37694 2.65792 0
M  V30 4186 H 390.086 5.95651 2.52605 0
M  V30 4187 N 390.218 -0.567019 1.47046 0
M  V30 4188 C 391.168 -1.67018 1.55207 0
M  V30 4189 C 392.152 -1.55543 0.411714 0
M  V30 4190 O 393.344 -1.64192 0.661064 0
M  V30 4191 C 390.473 -3.05801 1.56014 0
M  V30 4192 C 389.559 -3.22515 2.75399 0
M  V30 4193 N 389.95 -3.09329 4.00186 0
M  V30 4194 C 388.248 -3.53493 2.71954 0
M  V30 4195 C 388.949 -3.2847 4.80086 0
M  V30 4196 N 387.925 -3.54352 4.12233 0
M  V30 4197 H 391.727 -1.55377 2.4947 0
M  V30 4198 H 389.241 -0.771503 1.42904 0
M  V30 4199 H 391.238 -3.84996 1.59949 0
M  V30 4200 H 389.898 -3.18561 0.628396 0
M  V30 4201 H 390.909 -2.86863 4.31196 0
M  V30 4202 H 387.586 -3.7284 1.87873 0
M  V30 4203 H 388.976 -3.23326 5.88991 0
M  V30 4204 N 391.696 -1.35014 -0.812953 0
M  V30 4205 C 392.659 -1.27292 -1.90602 0
M  V30 4206 C 393.659 -0.185817 -1.59723 0
M  V30 4207 O 394.849 -0.439102 -1.68575 0
M  V30 4208 C 391.981 -0.967676 -3.26877 0
M  V30 4209 H 393.174 -2.24479 -1.9887 0
M  V30 4210 H 390.727 -1.19446 -1.00808 0
M  V30 4211 H 391.462 0.0005954 -3.243 0
M  V30 4212 H 391.247 -1.75412 -3.50675 0
M  V30 4213 H 392.737 -0.939085 -4.06904 0
M  V30 4214 N 393.175 1.03435 -1.18907 0
M  V30 4215 C 394.422 1.76743 -0.988334 0
M  V30 4216 C 394.75 1.88447 0.481441 0
M  V30 4217 O 394.005 1.39383 1.37371 0
M  V30 4218 C 394.304 3.19792 -1.59586 0
M  V30 4219 C 393.97 3.28108 -3.09283 0
M  V30 4220 C 392.632 3.30084 -3.5014 0
M  V30 4221 C 394.984 3.27696 -4.05296 0
M  V30 4222 C 392.312 3.29299 -4.85571 0
M  V30 4223 C 394.664 3.28451 -5.4065 0
M  V30 4224 C 393.328 3.28723 -5.80946 0
M  V30 4225 H 392.598 0.64675 -0.361657 0
M  V30 4226 H 395.245 1.21442 -1.48068 0
M  V30 4227 H 393.55 3.78136 -1.02568 0
M  V30 4228 H 395.247 3.75171 -1.41589 0
M  V30 4229 H 391.837 3.27294 -2.76725 0
M  V30 4230 H 396.021 3.25354 -3.74778 0
M  V30 4231 H 391.277 3.2783 -5.16079 0
M  V30 4232 H 395.451 3.27082 -6.14809 0
M  V30 4233 H 393.078 3.27868 -6.85862 0
M  V30 4234 N 394.653 0.992116 1.22453 0
M  V30 4235 C 396.069 0.702713 1.43297 0
M  V30 4236 C 396.269 -0.726909 1.87932 0
M  V30 4237 O 395.325 -1.49792 2.0327 0
M  V30 4238 C 396.638 1.70762 2.47509 0
M  V30 4239 C 398.186 1.72298 2.61309 0
M  V30 4240 C 398.661 2.71649 3.68742 0
M  V30 4241 N 400.152 2.70239 3.76199 0
M  V30 4242 C 400.887 3.43778 4.58917 0
M  V30 4243 N 400.383 4.26914 5.45633 0
M  V30 4244 N 402.176 3.32487 4.5322 0
M  V30 4245 H 394.327 1.91543 0.917871 0
M  V30 4246 H 396.59 0.826031 0.465162 0
M  V30 4247 H 396.296 2.73059 2.21657 0
M  V30 4248 H 396.17 1.49985 3.46099 0
M  V30 4249 H 398.557 0.706989 2.86506 0
M  V30 4250 H 398.638 1.97143 1.62997 0
M  V30 4251 H 398.282 3.73397 3.44292 0
M  V30 4252 H 398.212 2.44074 4.66622 0
M  V30 4253 H 400.703 2.09912 3.14237 0
M  V30 4254 H 401.016 4.79855 6.05771 0
M  V30 4255 H 399.361 4.31002 5.45218 0
M  V30 4256 H 402.552 2.6698 3.84499 0
M  V30 4257 H 402.725 3.90058 5.17454 0
M  V30 4258 N 396.131 -1.37776 0.765217 0
M  V30 4259 C 397.063 -2.28958 0.105361 0
M  V30 4260 C 398.076 -1.48316 -0.67128 0
M  V30 4261 O 399.265 -1.71046 -0.51045 0
M  V30 4262 C 396.365 -3.27421 -0.874569 0
M  V30 4263 C 395.538 -4.37132 -0.153123 0
M  V30 4264 C 394.597 -5.1571 -1.04547 0
M  V30 4265 O 393.623 -5.66896 -0.511672 0
M  V30 4266 N 394.825 -5.29808 -2.37243 0
M  V30 4267 H 397.59 -2.86227 0.888495 0
M  V30 4268 H 395.151 -1.49682 0.617 0
M  V30 4269 H 397.143 -3.7687 -1.47483 0
M  V30 4270 H 395.713 -2.70967 -1.55871 0
M  V30 4271 H 394.933 -3.89166 0.627975 0
M  V30 4272 H 396.221 -5.07625 0.345643 0
M  V30 4273 H 395.619 -4.89793 -2.83054 0
M  V30 4274 H 394.176 -5.82589 -2.9229 0
M  V30 4275 N 397.609 -0.515225 -1.4894 0
M  V30 4276 C 398.539 0.244628 -2.32215 0
M  V30 4277 C 399.52 0.949136 -1.41157 0
M  V30 4278 O 400.705 0.937783 -1.70057 0
M  V30 4279 C 397.835 1.30096 -3.22013 0
M  V30 4280 C 396.789 0.715486 -4.21977 0
M  V30 4281 C 396.115 1.87339 -5.00808 0
M  V30 4282 C 397.415 -0.302982 -5.2142 0
M  V30 4283 H 399.109 -0.450501 -2.95991 0
M  V30 4284 H 396.655 -0.218098 -1.42339 0
M  V30 4285 H 398.608 1.84037 -3.79089 0
M  V30 4286 H 397.332 2.02547 -2.56207 0
M  V30 4287 H 395.991 0.197715 -3.66066 0
M  V30 4288 H 395.639 2.58592 -4.31438 0
M  V30 4289 H 395.339 1.48764 -5.68457 0
M  V30 4290 H 396.863 2.41686 -5.60732 0
M  V30 4291 H 398.277 0.148802 -5.73107 0
M  V30 4292 H 396.674 -0.60532 -5.97039 0
M  V30 4293 H 397.744 -1.21395 -4.69459 0
M  V30 4294 N 399.087 1.5561 -0.249682 0
M  V30 4295 C 399.997 2.25143 0.659375 0
M  V30 4296 C 401.013 1.2685 1.19101 0
M  V30 4297 O 402.189 1.59732 1.22669 0
M  V30 4298 C 399.254 2.93945 1.8384 0
M  V30 4299 C 398.315 4.07655 1.34596 0
M  V30 4300 C 397.548 4.73167 2.46878 0
M  V30 4301 O 397.771 4.37768 3.65671 0
M  V30 4302 O 396.705 5.61623 2.16478 0
M  V30 4303 H 400.531 3.03545 0.0968698 0
M  V30 4304 H 398.116 1.49389 -0.018074 0
M  V30 4305 H 399.998 3.37271 2.52638 0
M  V30 4306 H 398.673 2.18481 2.38847 0
M  V30 4307 H 397.58 3.68839 0.625174 0
M  V30 4308 H 398.913 4.84946 0.841941 0
M  V30 4309 N 400.565 -0.0233959 1.57583 0
M  V30 4310 C 401.811 -0.714119 1.89811 0
M  V30 4311 C 402.144 -1.74702 0.848113 0
M  V30 4312 O 401.419 -1.94023 -0.136135 0
M  V30 4313 C 401.702 -1.37853 3.32669 0
M  V30 4314 C 401.555 -0.358764 4.48367 0
M  V30 4315 C 402.874 -2.31101 3.7454 0
M  V30 4316 H 399.993 -0.25814 0.690314 0
M  V30 4317 H 402.635 0.0230927 1.89986 0
M  V30 4318 H 400.785 -2.00689 3.3265 0
M  V30 4319 H 402.457 0.268115 4.6052 0
M  V30 4320 H 400.7 0.321387 4.32608 0
M  V30 4321 H 401.371 -0.862242 5.45224 0
M  V30 4322 H 403.847 -1.78304 3.75961 0
M  V30 4323 H 402.723 -2.74567 4.75294 0
M  V30 4324 H 402.984 -3.18018 3.0711 0
M  V30 4325 N 402.043 -1.548 -0.295768 0
M  V30 4326 C 402.975 -1.82492 -1.3867 0
M  V30 4327 C 403.988 -0.708134 -1.46592 0
M  V30 4328 O 405.177 -0.985686 -1.48817 0
M  V30 4329 C 402.277 -1.95256 -2.76999 0
M  V30 4330 C 401.45 -3.25709 -2.91946 0
M  V30 4331 C 400.509 -3.28824 -4.10806 0
M  V30 4332 O 399.535 -4.02328 -4.02643 0
M  V30 4333 N 400.737 -2.5459 -5.21694 0
M  V30 4334 H 403.502 -2.76646 -1.15269 0
M  V30 4335 H 401.063 -1.54438 -0.485849 0
M  V30 4336 H 403.055 -1.94736 -3.54768 0
M  V30 4337 H 401.625 -1.08072 -2.93324 0
M  V30 4338 H 400.845 -3.38959 -2.01247 0
M  V30 4339 H 402.133 -4.11786 -2.98847 0
M  V30 4340 H 401.531 -1.94512 -5.31208 0
M  V30 4341 H 400.088 -2.59818 -5.97778 0
M  V30 4342 N 403.521 0.559213 -1.47345 0
M  V30 4343 C 404.468 1.66645 -1.59682 0
M  V30 4344 C 405.438 1.60168 -0.43994 0
M  V30 4345 O 406.623 1.79031 -0.659736 0
M  V30 4346 C 403.763 3.04969 -1.61518 0
M  V30 4347 C 402.876 3.21897 -2.88108 0
M  V30 4348 C 402.011 4.50608 -2.81294 0
M  V30 4349 C 401.05 4.60961 -4.02717 0
M  V30 4350 N 400.187 5.81024 -3.94151 0
M  V30 4351 H 405.027 1.55439 -2.54249 0
M  V30 4352 H 402.564 0.757219 -1.26113 0
M  V30 4353 H 404.522 3.85064 -1.60566 0
M  V30 4354 H 403.152 3.15015 -0.704645 0
M  V30 4355 H 402.204 2.35248 -2.98936 0
M  V30 4356 H 403.516 3.25412 -3.78032 0
M  V30 4357 H 402.67 5.3896 -2.7858 0
M  V30 4358 H 401.409 4.49568 -1.89049 0
M  V30 4359 H 400.414 3.71021 -4.05738 0
M  V30 4360 H 401.639 4.63761 -4.96087 0
M  V30 4361 H 399.585 5.80938 -3.04708 0
M  V30 4362 H 399.502 5.85909 -4.77752 0
M  V30 4363 H 400.77 6.71744 -3.9545 0
M  V30 4364 N 404.999 1.35443 0.805782 0
M  V30 4365 C 406.227 1.31878 1.59423 0
M  V30 4366 C 406.642 -0.103562 1.88516 0
M  V30 4367 O 405.999 -1.05575 1.48863 0
M  V30 4368 C 406.05 2.12426 2.92502 0
M  V30 4369 O 405.771 3.49115 2.6467 0
M  V30 4370 C 407.272 2.16455 3.86862 0
M  V30 4371 H 404.492 0.453002 0.495005 0
M  V30 4372 H 407.036 1.78309 1.00131 0
M  V30 4373 H 405.191 1.69593 3.48306 0
M  V30 4374 H 405.605 3.90957 3.49647 0
M  V30 4375 H 407.079 2.77204 4.77349 0
M  V30 4376 H 407.556 1.16352 4.23508 0
M  V30 4377 H 408.162 2.59453 3.36993 0
M  V30 4378 N 406.477 -1.02803 1.19454 0
M  V30 4379 C 407.723 -1.76478 0.999171 0
M  V30 4380 C 408.056 -1.88456 -0.468828 0
M  V30 4381 O 407.331 -1.40198 -1.34814 0
M  V30 4382 C 407.614 -3.19044 1.66981 0
M  V30 4383 C 407.467 -3.14932 3.21151 0
M  V30 4384 C 408.786 -4.17456 1.39349 0
M  V30 4385 H 405.905 -0.640614 0.364393 0
M  V30 4386 H 408.547 -1.20005 1.47305 0
M  V30 4387 H 406.697 -3.67263 1.2669 0
M  V30 4388 H 408.369 -2.74605 3.70661 0
M  V30 4389 H 406.612 -2.52625 3.52652 0
M  V30 4390 H 407.283 -4.1566 3.63223 0
M  V30 4391 H 409.759 -3.77842 1.74283 0
M  V30 4392 H 408.635 -5.154 1.88823 0
M  V30 4393 H 408.896 -4.40949 0.318813 0
M  V30 4394 N 407.956 -0.998596 -1.21925 0
M  V30 4395 C 409.184 -0.696286 -1.94832 0
M  V30 4396 C 409.599 0.740032 -1.73692 0
M  V30 4397 O 408.956 1.5 -1.03953 0
M  V30 4398 C 409.007 -0.999833 -3.47398 0
M  V30 4399 O 408.728 -2.37972 -3.67833 0
M  V30 4400 C 410.229 -0.716025 -4.37479 0
M  V30 4401 H 407.449 -0.257111 -0.619786 0
M  V30 4402 H 409.993 -1.33491 -1.54921 0
M  V30 4403 H 408.148 -0.406918 -3.85257 0
M  V30 4404 H 408.562 -2.48338 -4.61983 0
M  V30 4405 H 410.036 -0.978642 -5.43256 0
M  V30 4406 H 410.513 0.349968 -4.37803 0
M  V30 4407 H 411.119 -1.29025 -4.05256 0
M  V30 4408 N 409.434 1.37368 -0.772513 0
M  V30 4409 C 410.659 2.0447 -0.347386 0
M  V30 4410 C 411.084 1.57882 1.0225 0
M  V30 4411 O 410.442 0.73941 1.65537 0
M  V30 4412 C 410.49 3.58369 -0.400479 0
M  V30 4413 O 409.594 4.0803 0.598789 0
M  V30 4414 H 408.935 0.646773 -0.15027 0
M  V30 4415 H 411.465 1.75667 -1.04892 0
M  V30 4416 H 411.475 4.07183 -0.258045 0
M  V30 4417 H 410.15 3.91633 -1.39986 0
M  V30 4418 H 408.727 3.70534 0.419411 0
M  V30 4419 N 410.912 0.523116 1.48665 0
M  V30 4420 C 412.328 0.180511 1.58576 0
M  V30 4421 C 412.528 -1.31597 1.52592 0
M  V30 4422 O 411.584 -2.0937 1.4114 0
M  V30 4423 C 412.897 0.776949 2.90489 0
M  V30 4424 C 414.445 0.745058 3.04003 0
M  V30 4425 C 414.92 1.31995 4.38567 0
M  V30 4426 N 416.411 1.28162 4.45117 0
M  V30 4427 C 417.146 1.6964 5.47731 0
M  V30 4428 N 416.642 2.18816 6.57337 0
M  V30 4429 N 418.435 1.6092 5.38573 0
M  V30 4430 H 410.586 1.4958 1.50797 0
M  V30 4431 H 412.849 0.621772 0.715614 0
M  V30 4432 H 412.555 1.82732 3.00503 0
M  V30 4433 H 412.429 0.25007 3.7637 0
M  V30 4434 H 414.816 -0.296532 2.93606 0
M  V30 4435 H 414.897 1.30933 2.1975 0
M  V30 4436 H 414.541 2.36043 4.49718 0
M  V30 4437 H 414.471 0.731418 5.21496 0
M  V30 4438 H 416.962 0.92155 3.66491 0
M  V30 4439 H 417.275 2.48478 7.31764 0
M  V30 4440 H 415.62 2.22805 6.58318 0
M  V30 4441 H 418.811 1.22304 4.5184 0
M  V30 4442 H 418.984 1.93567 6.18414 0
M  V30 4443 N 412.39 -1.55475 0.257931 0
M  V30 4444 C 413.806 -1.59307 -0.0966563 0
M  V30 4445 C 414.006 -1.27514 -1.5602 0
M  V30 4446 O 413.062 -1.02774 -2.30637 0
M  V30 4447 C 414.375 -2.99552 0.262481 0
M  V30 4448 C 415.923 -3.1231 0.207683 0
M  V30 4449 C 416.398 -4.54793 0.541012 0
M  V30 4450 N 417.889 -4.6058 0.491921 0
M  V30 4451 C 418.624 -5.68825 0.722857 0
M  V30 4452 N 418.12 -6.85287 1.0175 0
M  V30 4453 N 419.913 -5.58296 0.652815 0
M  V30 4454 H 412.064 -1.74409 1.21224 0
M  V30 4455 H 414.327 -0.812424 0.48854 0
M  V30 4456 H 414.033 -3.27593 1.27967 0
M  V30 4457 H 413.907 -3.75019 -0.40508 0
M  V30 4458 H 416.294 -2.84044 -0.800195 0
M  V30 4459 H 416.375 -2.39095 0.909255 0
M  V30 4460 H 416.019 -4.83783 1.5465 0
M  V30 4461 H 415.949 -5.26285 -0.18216 0
M  V30 4462 H 418.44 -3.7691 0.273366 0
M  V30 4463 H 418.753 -7.63725 1.18084 0
M  V30 4464 H 417.098 -6.86945 1.05509 0
M  V30 4465 H 420.289 -4.66189 0.422592 0
M  V30 4466 H 420.462 -6.42582 0.836182 0
M  V30 4467 N 413.868 0.0150385 -1.57593 0
M  V30 4468 C 414.831 0.995996 -2.06428 0
M  V30 4469 C 415.831 1.2818 -0.970903 0
M  V30 4470 O 417.021 1.22949 -1.23406 0
M  V30 4471 C 414.153 2.32506 -2.49307 0
M  V30 4472 H 415.346 0.573873 -2.94358 0
M  V30 4473 H 412.899 0.262186 -1.54085 0
M  V30 4474 H 413.634 2.79438 -1.64575 0
M  V30 4475 H 413.419 2.13087 -3.29145 0
M  V30 4476 H 414.909 3.02906 -2.87468 0
M  V30 4477 N 415.346 1.54954 0.287554 0
M  V30 4478 C 416.594 1.74528 1.01904 0
M  V30 4479 C 416.915 0.541349 1.87335 0
M  V30 4480 O 416.185 -0.444108 1.908 0
M  V30 4481 H 414.765 0.643576 0.379235 0
M  V30 4482 H 417.427 1.92333 0.315294 0
M  V30 4483 H 416.523 2.64015 1.6644 0
M  V30 4484 N 416.824 -0.551391 1.4764 0
M  V30 4485 C 417.734 -1.68525 1.63207 0
M  V30 4486 C 418.75 -1.6621 0.514815 0
M  V30 4487 O 419.926 -1.85551 0.783113 0
M  V30 4488 C 416.991 -3.05025 1.64805 0
M  V30 4489 C 416.052 -3.18362 2.88 0
M  V30 4490 C 415.285 -4.4835 2.89513 0
M  V30 4491 O 415.508 -5.34163 2.00065 0
M  V30 4492 O 414.442 -4.65602 3.81443 0
M  V30 4493 H 418.268 -1.58333 2.59161 0
M  V30 4494 H 415.853 -0.722063 1.30792 0
M  V30 4495 H 417.735 -3.86245 1.68502 0
M  V30 4496 H 416.41 -3.15587 0.720197 0
M  V30 4497 H 415.317 -2.36518 2.89845 0
M  V30 4498 H 416.65 -3.12707 3.80099 0
M  V30 4499 N 418.302 -1.35869 -0.798587 0
M  V30 4500 C 419.53 -1.32722 -1.58722 0
M  V30 4501 C 419.945 0.0935631 -1.88568 0
M  V30 4502 O 419.302 1.04784 -1.49421 0
M  V30 4503 C 419.353 -2.13974 -2.91371 0
M  V30 4504 O 419.074 -3.50514 -2.62815 0
M  V30 4505 C 420.575 -2.18504 -3.85708 0
M  V30 4506 H 417.795 -0.45562 -0.492596 0
M  V30 4507 H 420.339 -1.78837 -0.991843 0
M  V30 4508 H 418.494 -1.71438 -3.47402 0
M  V30 4509 H 418.908 -3.92806 -3.47568 0
M  V30 4510 H 420.382 -2.79732 -4.75872 0
M  V30 4511 H 420.859 -1.18597 -4.22885 0
M  V30 4512 H 421.465 -2.61236 -3.35612 0
M  V30 4513 N 419.78 1.02168 -1.19998 0
M  V30 4514 C 420.727 2.10601 -0.944228 0
M  V30 4515 C 421.697 1.65639 0.123664 0
M  V30 4516 O 422.882 1.9079 -0.0199941 0
M  V30 4517 C 420.022 3.41504 -0.496865 0
M  V30 4518 C 419.135 3.99973 -1.63234 0
M  V30 4519 C 418.27 5.18915 -1.13579 0
M  V30 4520 C 417.309 5.69456 -2.24468 0
M  V30 4521 N 416.446 6.79665 -1.76068 0
M  V30 4522 H 421.286 2.31814 -1.8726 0
M  V30 4523 H 418.823 1.13686 -0.933483 0
M  V30 4524 H 420.781 4.16626 -0.218843 0
M  V30 4525 H 419.411 3.2038 0.394508 0
M  V30 4526 H 418.463 3.21997 -2.0254 0
M  V30 4527 H 419.775 4.33492 -2.46752 0
M  V30 4528 H 418.929 6.01222 -0.813429 0
M  V30 4529 H 417.668 4.8695 -0.270434 0
M  V30 4530 H 416.673 4.85757 -2.57526 0
M  V30 4531 H 417.898 6.03459 -3.11472 0
M  V30 4532 H 415.844 6.49538 -0.918516 0
M  V30 4533 H 415.761 7.12349 -2.5317 0
M  V30 4534 H 417.029 7.65549 -1.46817 0
M  V30 4535 N 421.258 1.00505 1.21394 0
M  V30 4536 C 422.506 0.686415 1.90086 0
M  V30 4537 C 422.827 -0.785264 1.7849 0
M  V30 4538 O 422.097 -1.56387 1.17983 0
M  V30 4539 H 420.677 0.2509 0.703604 0
M  V30 4540 H 423.339 1.27417 1.47482 0
M  V30 4541 H 422.435 0.959621 2.96981 0
M  V30 4542 N 422.737 -1.36956 0.779787 0
M  V30 4543 C 423.986 -1.98738 0.344405 0
M  V30 4544 C 424.299 -1.62596 -1.08728 0
M  V30 4545 O 425.505 -2.1754 -1.62445 0
M  V30 4546 C 423.961 -3.5544 0.564829 0
M  V30 4547 C 423.569 -4.00514 2.0073 0
M  V30 4548 C 425.313 -4.24059 0.193471 0
M  V30 4549 C 423.22 -5.49957 2.17489 0
M  V30 4550 H 422.15 -0.743561 0.12503 0
M  V30 4551 H 424.801 -1.56381 0.960057 0
M  V30 4552 H 423.183 -3.95817 -0.120397 0
M  V30 4553 H 424.357 -3.71362 2.72814 0
M  V30 4554 H 422.672 -3.44703 2.336 0
M  V30 4555 H 425.269 -5.33874 0.297097 0
M  V30 4556 H 425.612 -4.07378 -0.857263 0
M  V30 4557 H 426.145 -3.89012 0.831556 0
M  V30 4558 H 422.884 -5.71574 3.2091 0
M  V30 4559 H 422.404 -5.80767 1.49899 0
M  V30 4560 H 424.083 -6.16043 1.97738 0
M  V30 4561 N 424.215 -0.530993 -1.48385 0
M  V30 4562 C 425.44 0.000729535 -2.074 0
M  V30 4563 C 425.865 1.27298 -1.3848 0
M  V30 4564 O 425.223 1.75599 -0.451081 0
M  V30 4565 C 425.271 0.206697 -3.60007 0
M  V30 4566 O 424.375 1.27514 -3.92191 0
M  V30 4567 H 423.716 -0.039583 -0.662819 0
M  V30 4568 H 426.246 -0.739194 -1.9078 0
M  V30 4569 H 426.256 0.42904 -4.05738 0
M  V30 4570 H 424.931 -0.722675 -4.09573 0
M  V30 4571 H 423.508 1.03537 -3.58238 0
M  V30 4572 N 425.693 1.55336 -0.266172 0
M  V30 4573 C 426.942 1.98574 0.353749 0
M  V30 4574 C 427.255 1.15789 1.57646 0
M  V30 4575 O 428.461 1.49129 2.26876 0
M  V30 4576 C 426.917 3.53403 0.680747 0
M  V30 4577 C 426.525 4.44953 -0.52165 0
M  V30 4578 C 428.269 4.05251 1.26379 0
M  V30 4579 C 426.176 5.91156 -0.169736 0
M  V30 4580 H 425.106 0.741643 0.135949 0
M  V30 4581 H 427.757 1.79743 -0.369421 0
M  V30 4582 H 426.139 3.68001 1.46257 0
M  V30 4583 H 427.313 4.42121 -1.29869 0
M  V30 4584 H 425.628 4.03691 -1.02093 0
M  V30 4585 H 428.225 5.12021 1.54074 0
M  V30 4586 H 428.568 3.53749 2.19471 0
M  V30 4587 H 429.101 3.94057 0.544447 0
M  V30 4588 H 425.84 6.46736 -1.0683 0
M  V30 4589 H 425.36 5.97079 0.570717 0
M  V30 4590 H 427.039 6.4655 0.241245 0
M  V30 4591 N 427.171 -0.0066808 1.57599 0
M  V30 4592 C 428.399 -0.704087 1.94551 0
M  V30 4593 C 428.814 -1.67677 0.867746 0
M  V30 4594 O 428.171 -1.8185 -0.153925 0
M  V30 4595 C 428.222 -1.44177 3.31505 0
M  V30 4596 O 427.943 -0.508097 4.35144 0
M  V30 4597 C 429.444 -2.23429 3.82876 0
M  V30 4598 H 426.664 -0.196523 0.641576 0
M  V30 4599 H 429.208 0.042453 2.04456 0
M  V30 4600 H 427.363 -2.13999 3.22929 0
M  V30 4601 H 427.777 -1.02782 5.14331 0
M  V30 4602 H 429.251 -2.70552 4.8115 0
M  V30 4603 H 429.728 -3.05818 3.15233 0
M  V30 4604 H 430.334 -1.58636 3.94607 0
M  V30 4605 N 428.649 -1.55105 -0.279332 0
M  V30 4606 C 429.874 -1.7976 -1.03446 0
M  V30 4607 C 430.299 -0.565952 -1.79384 0
M  V30 4608 O 429.657 0.484259 -1.74713 0
M  V30 4609 C 429.705 -3.0179 -1.97371 0
M  V30 4610 O 428.809 -2.76432 -3.06038 0
M  V30 4611 H 428.15 -0.594334 -0.29608 0
M  V30 4612 H 430.68 -2.02235 -0.310165 0
M  V30 4613 H 430.69 -3.30351 -2.39441 0
M  V30 4614 H 429.365 -3.91085 -1.4151 0
M  V30 4615 H 427.942 -2.58949 -2.68328 0
M  V30 4616 N 430.127 0.543554 -1.4793 0
M  V30 4617 C 431.376 1.29649 -1.54512 0
M  V30 4618 C 431.689 1.94382 -0.217973 0
M  V30 4619 O 432.895 2.71017 -0.161908 0
M  V30 4620 C 431.351 2.35175 -2.72435 0
M  V30 4621 C 430.959 1.76572 -4.11736 0
M  V30 4622 C 432.703 3.11564 -2.8832 0
M  V30 4623 C 430.61 2.79958 -5.20939 0
M  V30 4624 H 429.54 0.487541 -0.57517 0
M  V30 4625 H 432.191 0.575708 -1.74235 0
M  V30 4626 H 430.573 3.10229 -2.46118 0
M  V30 4627 H 431.747 1.07799 -4.48013 0
M  V30 4628 H 430.062 1.12722 -4.00852 0
M  V30 4629 H 432.659 3.88794 -3.67074 0
M  V30 4630 H 433.002 3.66594 -1.97268 0
M  V30 4631 H 433.535 2.43623 -3.14472 0
M  V30 4632 H 430.274 2.29766 -6.13912 0
M  V30 4633 H 429.794 3.47101 -4.89164 0
M  V30 4634 H 431.473 3.43198 -5.48474 0
M  V30 4635 O 431.644 1.46095 0.688375 0
M  V30 4636 H 432.335 1.39822 1.34051 0
M  V30 END ATOM
M  V30 BEGIN BOND
M  V30 END BOND
M  V30 END CTAB
M  END
$$$$
