drugbank_target|Q8TCC7 Solute carrier family 22 member 8 (DB00493; DB01032; DB01053; DB01212; DB01241; DB11995)
 OpenBabel12092120363D

  0  0  0     0  0            999 V3000
M  V30 BEGIN CTAB
M  V30 COUNTS 8531 8644 0 0 0
M  V30 BEGIN ATOM
M  V30 1 H -0.908 1.98254 -0.117106 0
M  V30 2 N 0 1.576 0 0
M  V30 3 C 0.933 2.03868 1.02534 0
M  V30 4 C 1.911 0.928543 1.3348 0
M  V30 5 O 3.095 1.19667 1.45644 0
M  V30 6 C 0.222 2.43627 2.35294 0
M  V30 7 C -0.732 3.65373 2.2001 0
M  V30 8 S 0.101 5.13292 1.52614 0
M  V30 9 C 1.257 5.56322 2.86805 0
M  V30 10 H 1.49 2.90518 0.631377 0
M  V30 11 H -0.977 1.52953 0.210867 0
M  V30 12 H 0.981 2.67203 3.11629 0
M  V30 13 H -0.358 1.57376 2.7183 0
M  V30 14 H -1.165 3.90944 3.18086 0
M  V30 15 H -1.563 3.418 1.51819 0
M  V30 16 H 0.729 5.58782 3.83104 0
M  V30 17 H 1.672 6.56266 2.65933 0
M  V30 18 H 2.08 4.83886 2.90714 0
M  V30 19 N 1.4781 -0.272755 1.55222 0
M  V30 20 C 2.7061 -1.02255 1.79865 0
M  V30 21 C 3.1211 -1.79924 0.572088 0
M  V30 22 O 2.4781 -1.76638 -0.458842 0
M  V30 23 C 2.5291 -1.98094 3.02392 0
M  V30 24 O 2.2501 -1.23572 4.20311 0
M  V30 25 C 3.7511 -2.84884 3.39641 0
M  V30 26 H 0.9711 -0.302057 0.599168 0
M  V30 27 H 3.5151 -0.303465 2.02236 0
M  V30 28 H 1.6701 -2.65465 2.82147 0
M  V30 29 H 2.0841 -1.88172 4.89583 0
M  V30 30 H 3.5581 -3.47927 4.28545 0
M  V30 31 H 4.0351 -3.54665 2.59055 0
M  V30 32 H 4.6411 -2.23003 3.62146 0
M  V30 33 N 2.9562 -1.48159 -0.537278 0
M  V30 34 C 4.2032 -1.55804 -1.29349 0
M  V30 35 C 4.5312 -0.228802 -1.9315 0
M  V30 36 O 3.7862 0.780242 -1.79473 0
M  V30 37 C 4.0852 -2.63956 -2.40961 0
M  V30 38 C 3.7512 -4.0662 -1.94861 0
M  V30 39 C 2.4132 -4.45452 -1.82006 0
M  V30 40 C 4.7652 -4.96055 -1.59933 0
M  V30 41 C 2.0932 -5.71531 -1.32547 0
M  V30 42 C 4.4452 -6.22617 -1.11939 0
M  V30 43 C 3.1092 -6.60312 -0.976951 0
M  V30 44 H 2.3792 -0.570129 -0.473322 0
M  V30 45 H 5.0262 -1.81845 -0.600372 0
M  V30 46 H 3.3312 -2.31747 -3.15912 0
M  V30 47 H 5.0282 -2.67089 -2.99107 0
M  V30 48 H 1.6182 -3.75949 -2.05815 0
M  V30 49 H 5.8022 -4.66738 -1.68728 0
M  V30 50 H 1.0582 -5.99468 -1.202 0
M  V30 51 H 5.2322 -6.91318 -0.839811 0
M  V30 52 H 2.8592 -7.57895 -0.591501 0
M  V30 53 N 4.4343 0.785586 -1.36625 0
M  V30 54 C 5.6593 1.57963 -1.34397 0
M  V30 55 C 6.0843 1.87964 0.071526 0
M  V30 56 O 5.4423 1.48182 1.0446 0
M  V30 57 C 5.4903 2.87511 -2.17646 0
M  V30 58 O 4.5943 3.81281 -1.57158 0
M  V30 59 H 3.9353 0.479014 -0.459828 0
M  V30 60 H 6.4653 0.973411 -1.79961 0
M  V30 61 H 6.4753 3.36745 -2.30362 0
M  V30 62 H 5.1503 2.65002 -3.20541 0
M  V30 63 H 3.7273 3.39885 -1.53403 0
M  V30 64 N 5.9124 1.20967 1.01018 0
M  V30 65 C 6.8224 0.980157 2.13143 0
M  V30 66 C 7.8384 -0.0660665 1.73875 0
M  V30 67 O 9.0144 0.122821 2.01025 0
M  V30 68 C 6.0794 0.54216 3.42435 0
M  V30 69 C 5.1404 1.65999 3.95908 0
M  V30 70 C 4.3734 1.2428 5.19028 0
M  V30 71 O 4.5964 0.114196 5.70286 0
M  V30 72 O 3.5304 2.05271 5.65816 0
M  V30 73 H 7.3564 1.91913 2.35379 0
M  V30 74 H 4.9414 0.994099 1.11526 0
M  V30 75 H 6.8234 0.30744 4.20277 0
M  V30 76 H 5.4984 -0.36815 3.216 0
M  V30 77 H 4.4054 1.94906 3.19316 0
M  V30 78 H 5.7384 2.54753 4.21143 0
M  V30 79 N 7.3905 -1.2043 1.01659 0
M  V30 80 C 8.6395 -1.89118 0.701237 0
M  V30 81 C 8.9525 -1.79705 -0.772358 0
M  V30 82 O 10.1585 -2.43528 -1.20026 0
M  V30 83 C 8.6145 -3.39168 1.20388 0
M  V30 84 C 8.2225 -3.57166 2.70438 0
M  V30 85 C 9.9665 -4.1341 0.963953 0
M  V30 86 C 7.8735 -5.01042 3.14183 0
M  V30 87 H 6.8035 -0.708267 0.2586 0
M  V30 88 H 9.4545 -1.36239 1.22927 0
M  V30 89 H 7.8365 -3.91369 0.603824 0
M  V30 90 H 9.0105 -3.15351 3.35992 0
M  V30 91 H 7.3255 -2.96294 2.92572 0
M  V30 92 H 9.9225 -5.19491 1.26621 0
M  V30 93 H 10.2655 -4.16181 -0.099578 0
M  V30 94 H 10.7985 -3.67309 1.52738 0
M  V30 95 H 7.5375 -5.03426 4.19812 0
M  V30 96 H 7.0575 -5.43668 2.53348 0
M  V30 97 H 8.7365 -5.69623 3.0682 0
M  V30 98 N 8.8686 -0.792821 -1.36206 0
M  V30 99 C 9.7986 -0.207853 -2.32573 0
M  V30 100 C 10.7796 0.659055 -1.56813 0
M  V30 101 O 11.9646 0.592176 -1.84951 0
M  V30 102 C 9.0946 0.655449 -3.41059 0
M  V30 103 C 8.0486 -0.111842 -4.27854 0
M  V30 104 C 7.3746 0.872274 -5.27537 0
M  V30 105 C 8.6746 -1.30299 -5.05786 0
M  V30 106 H 10.3686 -1.01294 -2.81744 0
M  V30 107 H 7.9146 -0.48854 -1.3546 0
M  V30 108 H 9.8676 1.07464 -4.07467 0
M  V30 109 H 8.5916 1.49328 -2.90463 0
M  V30 110 H 7.2506 -0.512053 -3.63006 0
M  V30 111 H 6.8986 1.70523 -4.73214 0
M  V30 112 H 6.5986 0.363291 -5.86476 0
M  V30 113 H 8.1226 1.28996 -5.96818 0
M  V30 114 H 9.5366 -0.959379 -5.65216 0
M  V30 115 H 7.9336 -1.7455 -5.74154 0
M  V30 116 H 9.0036 -2.09663 -4.37229 0
M  V30 117 N 10.3467 1.47872 -0.545128 0
M  V30 118 C 11.6237 1.9554 0.0485222 0
M  V30 119 C 12.0037 1.4876 1.49779 0
M  V30 120 O 11.3517 0.720925 2.16829 0
M  V30 121 C 11.5617 3.48898 -0.084417 0
M  V30 122 C 12.9097 4.24547 0.0671239 0
M  V30 123 O 13.9337 3.56198 -0.0113649 0
M  V30 124 O 12.7927 5.45999 0.233882 0
M  V30 125 H 9.8867 0.823957 0.0708773 0
M  V30 126 H 12.4327 1.58327 -0.610798 0
M  V30 127 H 11.2047 3.75714 -1.09337 0
M  V30 128 H 10.8277 3.92845 0.613066 0
M  V30 129 N 11.8248 0.280983 1.55075 0
M  V30 130 C 13.2408 -0.0729964 1.59433 0
M  V30 131 C 13.4408 -1.5411 1.29817 0
M  V30 132 O 12.4968 -2.29086 1.06187 0
M  V30 133 C 13.8098 0.306921 2.9913 0
M  V30 134 C 15.3578 0.254023 3.11968 0
M  V30 135 C 15.8328 0.608467 4.5394 0
M  V30 136 N 17.3238 0.560241 4.59799 0
M  V30 137 C 18.0588 0.80722 5.6769 0
M  V30 138 N 17.5548 1.11912 6.83701 0
M  V30 139 N 19.3478 0.735623 5.57266 0
M  V30 140 H 11.4988 1.238 1.7259 0
M  V30 141 H 13.7618 0.500547 0.805082 0
M  V30 142 H 13.4678 1.32816 3.25657 0
M  V30 143 H 13.3418 -0.349363 3.75579 0
M  V30 144 H 15.7288 -0.75794 2.852 0
M  V30 145 H 15.8098 0.944649 2.37718 0
M  V30 146 H 15.4538 1.61814 4.81434 0
M  V30 147 H 15.3838 -0.104013 5.26497 0
M  V30 148 H 17.8748 0.329288 3.76463 0
M  V30 149 H 18.1878 1.29409 7.61888 0
M  V30 150 H 16.5328 1.15695 6.85303 0
M  V30 151 H 19.7238 0.491752 4.6551 0
M  V30 152 H 19.8968 0.931482 6.4127 0
M  V30 153 N 13.3029 -1.57598 0.00835791 0
M  V30 154 C 14.5489 -1.91211 -0.675732 0
M  V30 155 C 14.8819 -0.883139 -1.72958 0
M  V30 156 O 14.1569 0.097016 -1.94258 0
M  V30 157 C 14.4399 -3.35379 -1.31123 0
M  V30 158 C 14.2929 -4.48999 -0.268356 0
M  V30 159 C 15.6119 -3.7912 -2.23508 0
M  V30 160 H 12.7309 -0.695374 -0.244179 0
M  V30 161 H 15.3729 -1.89901 0.0613655 0
M  V30 162 H 13.5229 -3.36626 -1.93946 0
M  V30 163 H 15.1949 -4.59887 0.360844 0
M  V30 164 H 13.4379 -4.31873 0.408482 0
M  V30 165 H 14.1089 -5.46851 -0.752218 0
M  V30 166 H 16.5849 -3.79477 -1.70693 0
M  V30 167 H 15.4609 -4.80729 -2.64936 0
M  V30 168 H 15.7219 -3.13455 -3.11766 0
M  V30 169 N 14.781 0.264519 -1.55364 0
M  V30 170 C 16.029 0.993021 -1.76021 0
M  V30 171 C 16.35 1.86511 -0.569099 0
M  V30 172 O 15.62 1.91438 0.415735 0
M  V30 173 H 14.2 0.369639 -0.649135 0
M  V30 174 H 16.862 0.286707 -1.9278 0
M  V30 175 H 15.958 1.62502 -2.66457 0
M  V30 176 N 16.2591 1.48442 0.529413 0
M  V30 177 C 17.4841 1.60406 1.31471 0
M  V30 178 C 17.9091 0.264738 1.86228 0
M  V30 179 O 17.2671 -0.763668 1.64432 0
M  V30 180 C 17.3151 2.65419 2.44101 0
M  V30 181 O 16.4191 2.22618 3.47153 0
M  V30 182 H 15.7601 0.537863 0.389357 0
M  V30 183 H 18.2901 1.94432 0.636965 0
M  V30 184 H 18.3001 2.86709 2.90279 0
M  V30 185 H 16.9751 3.62652 2.03608 0
M  V30 186 H 15.5521 2.11543 3.0709 0
M  V30 187 N 17.7372 -0.778329 1.37039 0
M  V30 188 C 18.6702 -1.8984 1.26633 0
M  V30 189 C 19.6482 -1.61923 0.148197 0
M  V30 190 O 20.8322 -1.85742 0.321265 0
M  V30 191 C 17.9592 -3.24916 0.956403 0
M  V30 192 C 17.0052 -3.71752 2.09051 0
M  V30 193 S 17.8382 -3.86201 3.70957 0
M  V30 194 C 18.9942 -5.24135 3.42101 0
M  V30 195 H 19.2272 -1.98377 2.21436 0
M  V30 196 H 16.7602 -0.938738 1.22585 0
M  V30 197 H 18.7182 -4.02936 0.784409 0
M  V30 198 H 17.3792 -3.14089 0.0259713 0
M  V30 199 H 16.5722 -4.69661 1.8285 0
M  V30 200 H 16.1742 -3.00815 2.2223 0
M  V30 201 H 18.4662 -6.09086 2.96682 0
M  V30 202 H 19.4092 -5.55346 4.39314 0
M  V30 203 H 19.8172 -4.91761 2.77185 0
M  V30 204 N 19.2153 -1.21501 -1.00376 0
M  V30 205 C 20.4633 -1.03095 -1.73827 0
M  V30 206 C 20.7843 0.436341 -1.90055 0
M  V30 207 O 20.0543 1.31466 -1.45236 0
M  V30 208 H 18.6343 -0.378487 -0.644016 0
M  V30 209 H 21.2963 -1.52831 -1.20949 0
M  V30 210 H 20.3923 -1.49991 -2.73695 0
M  V30 211 N 20.6934 1.19889 -1.02296 0
M  V30 212 C 21.6434 2.20777 -0.56934 0
M  V30 213 C 22.6274 1.56379 0.378741 0
M  V30 214 O 23.8194 1.75859 0.200673 0
M  V30 215 C 20.9484 3.43196 0.0845077 0
M  V30 216 C 20.0344 4.14749 -0.88566 0
M  V30 217 N 20.4254 4.62584 -2.04573 0
M  V30 218 C 18.7234 4.40347 -0.707835 0
M  V30 219 C 19.4244 5.17466 -2.65714 0
M  V30 220 N 18.4004 5.0791 -1.93723 0
M  V30 221 H 22.2024 2.55434 -1.45365 0
M  V30 222 H 19.7164 1.35897 -0.88915 0
M  V30 223 H 21.7134 4.14707 0.427067 0
M  V30 224 H 20.3734 3.10042 0.964574 0
M  V30 225 H 21.3844 4.57597 -2.4254 0
M  V30 226 H 18.0614 4.17317 0.12364 0
M  V30 227 H 19.4514 5.64808 -3.63925 0
M  V30 228 N 22.1715 0.800033 1.35784 0
M  V30 229 C 23.4185 0.377342 1.98953 0
M  V30 230 C 23.7465 -1.05378 1.6348 0
M  V30 231 O 23.0015 -1.74459 0.886707 0
M  V30 232 C 23.3005 0.500276 3.53881 0
M  V30 233 C 22.9665 1.89375 4.09204 0
M  V30 234 C 21.6285 2.27499 4.24025 0
M  V30 235 C 23.9805 2.8057 4.39238 0
M  V30 236 C 21.3085 3.562 4.66195 0
M  V30 237 C 23.6605 4.0871 4.82844 0
M  V30 238 C 22.3245 4.46843 4.95871 0
M  V30 239 H 21.5945 0.138079 0.728021 0
M  V30 240 H 24.2415 1.01955 1.62103 0
M  V30 241 H 22.5465 -0.225405 3.91151 0
M  V30 242 H 24.2435 0.154097 4.00704 0
M  V30 243 H 20.8335 1.58753 3.98115 0
M  V30 244 H 25.0175 2.52367 4.27346 0
M  V30 245 H 20.2735 3.85602 4.74469 0
M  V30 246 H 24.4475 4.79481 5.05046 0
M  V30 247 H 22.0745 5.46623 5.28306 0
M  V30 248 N 23.6496 -1.47581 0.552962 0
M  V30 249 C 24.5816 -2.27997 -0.234533 0
M  V30 250 C 25.5946 -1.36753 -0.883321 0
M  V30 251 O 26.7836 -1.61612 -0.757889 0
M  V30 252 C 23.8836 -3.10879 -1.34935 0
M  V30 253 C 23.0566 -4.30056 -0.798158 0
M  V30 254 C 22.1156 -4.94567 -1.79694 0
M  V30 255 O 21.1416 -5.53087 -1.34474 0
M  V30 256 N 22.3436 -4.88878 -3.13015 0
M  V30 257 H 25.1086 -2.96222 0.455255 0
M  V30 258 H 22.6696 -1.57163 0.388761 0
M  V30 259 H 24.6616 -3.50903 -2.01616 0
M  V30 260 H 23.2316 -2.44924 -1.94244 0
M  V30 261 H 22.4516 -3.94174 0.0453079 0
M  V30 262 H 23.7396 -5.07152 -0.409173 0
M  V30 263 H 23.1376 -4.42526 -3.52402 0
M  V30 264 H 21.6946 -5.32934 -3.75266 0
M  V30 265 N 25.1277 -0.289203 -1.54924 0
M  V30 266 C 26.3747 0.323519 -1.99899 0
M  V30 267 C 26.7027 1.54797 -1.17762 0
M  V30 268 O 25.9577 1.94237 -0.238835 0
M  V30 269 C 26.2567 0.736119 -3.49737 0
M  V30 270 C 25.9227 -0.385276 -4.49251 0
M  V30 271 C 24.5847 -0.693156 -4.76181 0
M  V30 272 C 26.9367 -1.14021 -5.08575 0
M  V30 273 C 24.2647 -1.7593 -5.59701 0
M  V30 274 C 26.6167 -2.19619 -5.93254 0
M  V30 275 C 25.2807 -2.51026 -6.185 0
M  V30 276 H 24.5507 0.118384 -0.731482 0
M  V30 277 H 27.1977 -0.405847 -1.8715 0
M  V30 278 H 25.5027 1.54539 -3.60035 0
M  V30 279 H 27.1997 1.22118 -3.81953 0
M  V30 280 H 23.7897 -0.135202 -4.28387 0
M  V30 281 H 27.9737 -0.915611 -4.87781 0
M  V30 282 H 23.2297 -2.0075 -5.77503 0
M  V30 283 H 27.4037 -2.78581 -6.38252 0
M  V30 284 H 25.0307 -3.33772 -6.83008 0
M  V30 285 N 26.6058 1.57591 -0.0167156 0
M  V30 286 C 27.5358 2.12496 0.967858 0
M  V30 287 C 28.5168 1.03807 1.34752 0
M  V30 288 O 29.7018 1.31577 1.42833 0
M  V30 289 C 26.8318 2.64194 2.25431 0
M  V30 290 C 25.7858 3.77559 2.01576 0
M  V30 291 C 25.1118 4.15636 3.36379 0
M  V30 292 C 26.4118 5.04151 1.36489 0
M  V30 293 H 28.1058 2.95013 0.510643 0
M  V30 294 H 25.6518 1.41915 0.244181 0
M  V30 295 H 27.6048 3.01236 2.94678 0
M  V30 296 H 26.3288 1.78821 2.73296 0
M  V30 297 H 24.9878 3.40937 1.34751 0
M  V30 298 H 24.6358 3.27263 3.81979 0
M  V30 299 H 24.3358 4.92022 3.21229 0
M  V30 300 H 25.8598 4.5525 4.06915 0
M  V30 301 H 27.2738 5.38857 1.95718 0
M  V30 302 H 25.6708 5.85453 1.31776 0
M  V30 303 H 26.7408 4.83733 0.336219 0
M  V30 304 N 28.0839 -0.256276 1.55502 0
M  V30 305 C 29.0339 -1.31981 1.85916 0
M  V30 306 C 30.0179 -1.43927 0.719296 0
M  V30 307 O 31.2099 -1.47326 0.981019 0
M  V30 308 C 28.3389 -2.67703 2.14918 0
M  V30 309 C 27.4249 -2.59801 3.35208 0
M  V30 310 N 27.8159 -2.21524 4.54709 0
M  V30 311 C 26.1139 -2.90832 3.38131 0
M  V30 312 C 26.8149 -2.24024 5.36832 0
M  V30 313 N 25.7909 -2.63158 4.75656 0
M  V30 314 H 29.5929 -1.01423 2.75845 0
M  V30 315 H 27.1069 -0.464911 1.55603 0
M  V30 316 H 29.1039 -3.44445 2.34869 0
M  V30 317 H 27.7639 -2.99137 1.26282 0
M  V30 318 H 28.7749 -1.93223 4.80505 0
M  V30 319 H 25.4519 -3.26867 2.59739 0
M  V30 320 H 26.8419 -1.9685 6.42417 0
M  V30 321 N 29.562 -1.4872 -0.521534 0
M  V30 322 C 30.808 -1.574 -1.27879 0
M  V30 323 C 31.141 -0.250817 -1.92573 0
M  V30 324 O 30.416 0.743934 -1.79711 0
M  V30 325 C 30.699 -2.71843 -2.36164 0
M  V30 326 C 30.552 -4.13893 -1.76105 0
M  V30 327 C 31.871 -2.82008 -3.37875 0
M  V30 328 H 28.99 -0.572941 -0.463581 0
M  V30 329 H 31.632 -1.80927 -0.580119 0
M  V30 330 H 29.782 -2.51914 -2.95756 0
M  V30 331 H 31.454 -4.45284 -1.20499 0
M  V30 332 H 29.697 -4.20498 -1.06601 0
M  V30 333 H 30.368 -4.89804 -2.5455 0
M  V30 334 H 32.844 -3.00086 -2.88249 0
M  V30 335 H 31.72 -3.63796 -4.11028 0
M  V30 336 H 31.981 -1.90511 -3.98946 0
M  V30 337 N 31.0401 0.771051 -1.3745 0
M  V30 338 C 32.0031 1.86598 -1.33093 0
M  V30 339 C 33.0031 1.59076 -0.234845 0
M  V30 340 O 34.1931 1.67145 -0.490732 0
M  V30 341 C 31.3251 3.23747 -1.06773 0
M  V30 342 H 32.5181 1.91873 -2.30488 0
M  V30 343 H 30.0711 0.970876 -1.2249 0
M  V30 344 H 30.8061 3.24148 -0.099129 0
M  V30 345 H 30.5911 3.45115 -1.86112 0
M  V30 346 H 32.0811 4.03824 -1.06377 0
M  V30 347 N 32.5182 1.22032 0.997298 0
M  V30 348 C 33.7672 1.03637 1.73038 0
M  V30 349 C 34.0802 -0.429475 1.90827 0
M  V30 350 O 35.2862 -0.732995 2.61418 0
M  V30 351 C 33.7422 1.80582 3.11317 0
M  V30 352 C 33.3502 3.31387 3.01474 0
M  V30 353 C 35.0942 1.70621 3.88701 0
M  V30 354 C 33.0012 4.00791 4.3488 0
M  V30 355 H 31.9312 0.384179 0.648785 0
M  V30 356 H 34.5822 1.4584 1.11368 0
M  V30 357 H 32.9642 1.31175 3.73643 0
M  V30 358 H 34.1382 3.88155 2.4834 0
M  V30 359 H 32.4532 3.41976 2.37575 0
M  V30 360 H 35.0502 2.19799 4.87434 0
M  V30 361 H 35.3932 0.665823 4.10941 0
M  V30 362 H 35.9262 2.17547 3.33044 0
M  V30 363 H 32.6652 5.05064 4.1784 0
M  V30 364 H 32.1852 3.48811 4.87945 0
M  V30 365 H 33.8642 4.06139 5.03647 0
M  V30 366 N 33.9963 -1.19345 1.0293 0
M  V30 367 C 34.9263 -2.2481 0.631105 0
M  V30 368 C 35.9073 -1.66245 -0.360104 0
M  V30 369 O 37.0923 -1.92677 -0.242726 0
M  V30 370 C 34.2223 -3.47295 -0.0184607 0
M  V30 371 C 33.1763 -4.18536 0.895073 0
M  V30 372 C 32.5023 -5.34586 0.110592 0
M  V30 373 C 33.8023 -4.73287 2.209 0
M  V30 374 H 35.4963 -2.58372 1.51275 0
M  V30 375 H 33.0423 -1.24194 0.728818 0
M  V30 376 H 34.9953 -4.20268 -0.308675 0
M  V30 377 H 33.7193 -3.12933 -0.934907 0
M  V30 378 H 32.3783 -3.47446 1.16949 0
M  V30 379 H 32.0263 -4.96469 -0.807902 0
M  V30 380 H 31.7263 -5.83183 0.719087 0
M  V30 381 H 33.2503 -6.10355 -0.172871 0
M  V30 382 H 34.6643 -5.38013 1.98028 0
M  V30 383 H 33.0613 -5.32373 2.76946 0
M  V30 384 H 34.1313 -3.91331 2.86336 0
M  V30 385 N 35.4744 -0.807222 -1.35358 0
M  V30 386 C 36.7224 -0.387122 -1.98358 0
M  V30 387 C 37.0434 1.04942 -1.64354 0
M  V30 388 O 36.3134 1.72615 -0.926339 0
M  V30 389 H 34.8934 -0.140154 -0.733734 0
M  V30 390 H 37.5554 -1.0332 -1.6526 0
M  V30 391 H 36.6514 -0.493352 -3.08176 0
M  V30 392 N 36.9525 1.47285 -0.560781 0
M  V30 393 C 37.8825 2.32857 0.173105 0
M  V30 394 C 38.8635 1.44009 0.905281 0
M  V30 395 O 40.0485 1.7286 0.885046 0
M  V30 396 C 37.1785 3.25861 1.20133 0
M  V30 397 C 36.1325 4.23978 0.585388 0
M  V30 398 C 35.4585 5.06332 1.7185 0
M  V30 399 C 36.7585 5.20242 -0.463178 0
M  V30 400 H 38.4525 2.94466 -0.541307 0
M  V30 401 H 35.9985 1.41601 -0.261764 0
M  V30 402 H 37.9515 3.84569 1.72293 0
M  V30 403 H 36.6755 2.62315 1.94573 0
M  V30 404 H 35.3345 3.66501 0.085054 0
M  V30 405 H 34.9825 4.39186 2.45203 0
M  V30 406 H 34.6825 5.72762 1.31213 0
M  V30 407 H 36.2065 5.67899 2.24329 0
M  V30 408 H 37.6205 5.73293 -0.027502 0
M  V30 409 H 36.0175 5.94896 -0.788627 0
M  V30 410 H 37.0875 4.65504 -1.35773 0
M  V30 411 N 38.4306 0.297415 1.54768 0
M  V30 412 C 39.8416 -0.195947 1.85669 0
M  V30 413 C 40.1926 -1.53707 1.21937 0
M  V30 414 O 39.3176 -2.10164 0.515754 0
M  V30 415 C 39.9126 -0.362318 3.36857 0
M  V30 416 C 38.4716 -0.799901 3.67802 0
M  V30 417 C 37.6186 0.0938578 2.77141 0
M  V30 418 H 40.5696 0.518538 1.4999 0
M  V30 419 H 40.5906 -1.19745 3.61167 0
M  V30 420 H 40.1026 0.613921 3.83214 0
M  V30 421 H 38.2036 -1.78682 3.26961 0
M  V30 422 H 38.3166 -0.621773 4.75048 0
M  V30 423 H 36.6806 -0.426254 2.51108 0
M  V30 424 H 37.4636 1.06639 3.26318 0
M  V30 425 N 39.9087 -1.5758 0.0250728 0
M  V30 426 C 41.1577 -1.90811 -0.653767 0
M  V30 427 C 41.4707 -0.90273 -1.73523 0
M  V30 428 O 42.6767 -1.12614 -2.47043 0
M  V30 429 C 41.1327 -3.38804 -1.21409 0
M  V30 430 C 40.7407 -4.47692 -0.166126 0
M  V30 431 C 42.4847 -3.81108 -1.86967 0
M  V30 432 C 40.3917 -5.86779 -0.737856 0
M  V30 433 H 39.3217 -0.712063 -0.247956 0
M  V30 434 H 41.9727 -1.83281 0.0897137 0
M  V30 435 H 40.3547 -3.41252 -2.00905 0
M  V30 436 H 41.5287 -4.56797 0.606079 0
M  V30 437 H 39.8437 -4.14565 0.390466 0
M  V30 438 H 42.4407 -4.82375 -2.30692 0
M  V30 439 H 42.7837 -3.15953 -2.71071 0
M  V30 440 H 43.3167 -3.81065 -1.14167 0
M  V30 441 H 40.0557 -6.55468 0.0649577 0
M  V30 442 H 39.5757 -5.81288 -1.47864 0
M  V30 443 H 41.2547 -6.35223 -1.22884 0
M  V30 444 N 41.3868 0.248026 -1.55636 0
M  V30 445 C 42.3168 1.31079 -1.93237 0
M  V30 446 C 43.2978 1.50264 -0.797174 0
M  V30 447 O 44.4828 1.62891 -1.05737 0
M  V30 448 C 41.6128 2.66575 -2.22609 0
M  V30 449 C 40.5668 2.62087 -3.3837 0
M  V30 450 C 39.8928 4.01369 -3.53281 0
M  V30 451 C 41.1928 2.19171 -4.7409 0
M  V30 452 H 42.8868 0.998556 -2.82257 0
M  V30 453 H 40.4328 0.47891 -1.35803 0
M  V30 454 H 42.3858 3.41057 -2.47503 0
M  V30 455 H 41.1098 2.99432 -1.30414 0
M  V30 456 H 39.7688 1.90063 -3.13483 0
M  V30 457 H 39.4168 4.31489 -2.58508 0
M  V30 458 H 39.1168 3.99254 -4.31127 0
M  V30 459 H 40.6408 4.77552 -3.80495 0
M  V30 460 H 42.0548 2.83384 -4.98363 0
M  V30 461 H 40.4518 2.2817 -5.5503 0
M  V30 462 H 41.5218 1.14336 -4.71227 0
M  V30 463 N 42.8649 1.48995 0.513639 0
M  V30 464 C 43.8129 1.65199 1.63744 0
M  V30 465 C 44.8069 0.51809 1.61283 0
M  V30 466 O 46.0129 0.697335 1.65943 0
M  V30 467 H 42.3879 0.52069 0.542574 0
M  V30 468 H 44.3589 2.59552 1.47226 0
M  V30 469 C 43.1079 1.72409 3.01945 0
M  V30 470 H 42.4309 2.59029 3.04539 0
M  V30 471 H 43.8709 1.87785 3.80148 0
M  V30 472 C 42.3299 0.46618 3.33659 0
M  V30 473 O 42.8599 -0.413744 3.99564 0
M  V30 474 N 41.0659 0.332931 2.88687 0
M  V30 475 H 40.6129 1.04996 2.35231 0
M  V30 476 H 40.5709 -0.507665 3.10274 0
M  V30 477 N 44.343 -0.763751 1.37857 0
M  V30 478 C 45.276 -1.88486 1.28639 0
M  V30 479 C 46.254 -1.61757 0.165363 0
M  V30 480 O 47.438 -1.85391 0.340948 0
M  V30 481 C 44.565 -3.23884 0.990811 0
M  V30 482 C 43.611 -3.69514 2.12983 0
M  V30 483 S 44.444 -3.82244 3.75033 0
M  V30 484 C 45.6 -5.20477 3.47641 0
M  V30 485 H 45.833 -1.96017 2.23527 0
M  V30 486 H 43.366 -0.925684 1.23574 0
M  V30 487 H 45.324 -4.02081 0.827101 0
M  V30 488 H 43.985 -3.14044 0.0592832 0
M  V30 489 H 43.178 -4.67696 1.87821 0
M  V30 490 H 42.78 -2.98441 2.25408 0
M  V30 491 H 45.072 -6.05905 3.03125 0
M  V30 492 H 46.015 -5.50655 4.4518 0
M  V30 493 H 46.423 -4.88793 2.82385 0
M  V30 494 N 45.8211 -1.22559 -0.990812 0
M  V30 495 C 46.7841 -0.998863 -2.0629 0
M  V30 496 C 47.7841 0.0354834 -1.60761 0
M  V30 497 O 48.9741 -0.203231 -1.7301 0
M  V30 498 C 46.1061 -0.509203 -3.37076 0
M  V30 499 H 47.2991 -1.95014 -2.27837 0
M  V30 500 H 44.8521 -1.04456 -1.16269 0
M  V30 501 H 45.5871 0.446335 -3.21214 0
M  V30 502 H 45.3721 -1.25547 -3.71457 0
M  V30 503 H 46.8621 -0.370888 -4.1595 0
M  V30 504 N 47.2992 1.18797 -1.03562 0
M  V30 505 C 48.2472 2.24297 -0.615905 0
M  V30 506 C 49.2412 1.65643 0.354808 0
M  V30 507 O 50.4472 1.78618 0.22265 0
M  V30 508 H 46.8222 0.729909 -0.180934 0
M  V30 509 H 48.7932 2.5701 -1.5162 0
M  V30 510 C 47.5422 3.47698 0.0104735 0
M  V30 511 H 46.8652 3.93125 -0.727509 0
M  V30 512 H 48.3052 4.23159 0.266995 0
M  V30 513 C 46.7642 3.12489 1.25905 0
M  V30 514 O 47.2942 3.25761 2.35038 0
M  V30 515 N 45.5002 2.6686 1.15039 0
M  V30 516 H 45.0472 2.56261 0.262328 0
M  V30 517 H 45.0052 2.43674 1.98672 0
M  V30 518 N 48.7773 0.814389 1.34928 0
M  V30 519 C 49.7273 0.202752 2.27097 0
M  V30 520 C 50.7113 -0.62799 1.48139 0
M  V30 521 O 51.9033 -0.483969 1.70255 0
M  V30 522 C 49.0323 -0.64146 3.37254 0
M  V30 523 C 48.1183 0.19944 4.23631 0
M  V30 524 N 48.5093 1.26628 4.89693 0
M  V30 525 C 46.8073 -0.0176433 4.45997 0
M  V30 526 C 47.5083 1.78031 5.53787 0
M  V30 527 N 46.4843 1.08553 5.32651 0
M  V30 528 H 50.2863 1.01893 2.75672 0
M  V30 529 H 47.8003 0.656332 1.48546 0
M  V30 530 H 49.7973 -1.09575 4.02243 0
M  V30 531 H 48.4573 -1.4559 2.9023 0
M  V30 532 H 49.4683 1.64901 4.90946 0
M  V30 533 H 46.1453 -0.800601 4.09752 0
M  V30 534 H 47.5353 2.67236 6.16469 0
M  V30 535 N 50.2554 -1.46986 0.568584 0
M  V30 536 C 51.2034 -2.31858 -0.185649 0
M  V30 537 C 52.1974 -1.43624 -0.898249 0
M  V30 538 O 53.4034 -1.60327 -0.818242 0
M  V30 539 H 49.7784 -0.747866 -0.0787399 0
M  V30 540 H 51.7494 -2.93303 0.549191 0
M  V30 541 C 50.4984 -3.26513 -1.19519 0
M  V30 542 H 49.8214 -3.94377 -0.656285 0
M  V30 543 H 51.2614 -3.88707 -1.6936 0
M  V30 544 C 49.7204 -2.50847 -2.24894 0
M  V30 545 O 50.2504 -2.26119 -3.32014 0
M  V30 546 N 48.4564 -2.11656 -1.99124 0
M  V30 547 H 48.0034 -2.31966 -1.12024 0
M  V30 548 H 47.9614 -1.61347 -2.69842 0
M  V30 549 N 51.7335 -0.305618 -1.54608 0
M  V30 550 C 52.6635 0.561482 -2.26649 0
M  V30 551 C 53.6445 1.13415 -1.26772 0
M  V30 552 O 54.8295 1.16262 -1.55553 0
M  V30 553 C 51.9595 1.73122 -3.01075 0
M  V30 554 C 50.9135 1.2887 -4.08138 0
M  V30 555 C 50.2395 2.54396 -4.70305 0
M  V30 556 C 51.5395 0.416578 -5.20636 0
M  V30 557 H 53.2335 -0.0393902 -2.99374 0
M  V30 558 H 50.7795 -0.020385 -1.43986 0
M  V30 559 H 52.7325 2.34396 -3.50195 0
M  V30 560 H 51.4565 2.3584 -2.25936 0
M  V30 561 H 50.1155 0.698991 -3.59875 0
M  V30 562 H 49.7635 3.15439 -3.918 0
M  V30 563 H 49.4635 2.25486 -5.42614 0
M  V30 564 H 50.9875 3.16464 -5.2219 0
M  V30 565 H 52.4015 0.935116 -5.65622 0
M  V30 566 H 50.7985 0.221046 -5.99693 0
M  V30 567 H 51.8685 -0.557162 -4.81688 0
M  V30 568 N 53.2116 1.57565 -0.0334293 0
M  V30 569 C 54.1416 2.13511 0.945265 0
M  V30 570 C 55.1226 1.05231 1.33643 0
M  V30 571 O 56.3076 1.33084 1.41429 0
M  V30 572 C 53.4376 2.6657 2.22616 0
M  V30 573 C 52.3916 3.79676 1.97561 0
M  V30 574 C 51.7176 4.1918 3.31952 0
M  V30 575 C 53.0176 5.0557 1.31135 0
M  V30 576 H 54.7116 2.95538 0.479325 0
M  V30 577 H 52.2576 1.42166 0.229115 0
M  V30 578 H 54.2106 3.04344 2.91466 0
M  V30 579 H 52.9346 1.8171 2.71384 0
M  V30 580 H 51.5936 3.42347 1.31127 0
M  V30 581 H 51.2416 3.31296 3.78487 0
M  V30 582 H 50.9416 4.95402 3.15992 0
M  V30 583 H 52.4656 4.59541 4.02063 0
M  V30 584 H 53.8796 5.40903 1.89992 0
M  V30 585 H 52.2766 5.86818 1.25559 0
M  V30 586 H 53.3466 4.84062 0.284894 0
M  V30 587 N 54.6897 -0.239769 1.55765 0
M  V30 588 C 55.6217 -1.32001 1.87372 0
M  V30 589 C 56.6347 -1.43944 0.760522 0
M  V30 590 O 57.8237 -1.45167 1.0387 0
M  V30 591 C 54.9237 -2.69779 2.05115 0
M  V30 592 C 54.0967 -2.80014 3.36022 0
M  V30 593 C 53.1557 -3.98684 3.4342 0
M  V30 594 O 52.1817 -3.87877 4.16582 0
M  V30 595 N 53.3837 -5.12176 2.73232 0
M  V30 596 H 56.1487 -1.0522 2.80622 0
M  V30 597 H 53.7097 -0.429857 1.56089 0
M  V30 598 H 55.7017 -3.47517 2.07399 0
M  V30 599 H 54.2717 -2.89237 1.18577 0
M  V30 600 H 53.4917 -1.88896 3.45994 0
M  V30 601 H 54.7797 -2.83808 4.22292 0
M  V30 602 H 54.1777 -5.2385 2.13536 0
M  V30 603 H 52.7347 -5.88022 2.81199 0
M  V30 604 N 56.1678 -1.49265 -0.50573 0
M  V30 605 C 57.4168 -1.57761 -1.25675 0
M  V30 606 C 57.7298 -0.267371 -1.93764 0
M  V30 607 O 58.9358 -0.230827 -2.70517 0
M  V30 608 C 57.3918 -2.78332 -2.28165 0
M  V30 609 C 56.9998 -4.16096 -1.66037 0
M  V30 610 C 58.7438 -2.96155 -3.04125 0
M  V30 611 C 56.6508 -5.27895 -2.6661 0
M  V30 612 H 55.5808 -0.587391 -0.472745 0
M  V30 613 H 58.2318 -1.75644 -0.53118 0
M  V30 614 H 56.6138 -2.53934 -3.03865 0
M  V30 615 H 57.7878 -4.50612 -0.963622 0
M  V30 616 H 56.1028 -4.03591 -1.02484 0
M  V30 617 H 58.6998 -3.76849 -3.79327 0
M  V30 618 H 59.0428 -2.06534 -3.61455 0
M  V30 619 H 59.5758 -3.2057 -2.35541 0
M  V30 620 H 56.3148 -6.1956 -2.14068 0
M  V30 621 H 55.8348 -4.97839 -3.34539 0
M  V30 622 H 57.5138 -5.57031 -3.29129 0
M  V30 623 N 57.6459 0.756429 -1.3826 0
M  V30 624 C 58.8929 1.51547 -1.34312 0
M  V30 625 C 59.2209 1.94382 0.0677144 0
M  V30 626 O 58.4759 1.65514 1.04421 0
M  V30 627 C 58.7749 2.78313 -2.24224 0
M  V30 628 C 58.4409 2.54455 -3.72241 0
M  V30 629 C 57.1029 2.47657 -4.12576 0
M  V30 630 C 59.4549 2.3354 -4.65949 0
M  V30 631 C 56.7829 2.17956 -5.44713 0
M  V30 632 C 59.1349 2.05359 -5.9834 0
M  V30 633 C 57.7989 1.97016 -6.37762 0
M  V30 634 H 57.0689 0.55455 -0.491482 0
M  V30 635 H 59.7159 0.870039 -1.70595 0
M  V30 636 H 58.0209 3.47492 -1.80987 0
M  V30 637 H 59.7179 3.36259 -2.18474 0
M  V30 638 H 56.3079 2.60616 -3.40261 0
M  V30 639 H 60.4919 2.37772 -4.35635 0
M  V30 640 H 55.7479 2.10003 -5.74203 0
M  V30 641 H 59.9219 1.88179 -6.70494 0
M  V30 642 H 57.5489 1.73766 -7.40074 0
M  V30 643 N 59.124 1.23083 0.984299 0
M  V30 644 C 60.352 1.08714 1.76037 0
M  V30 645 C 60.767 -0.361691 1.85303 0
M  V30 646 O 60.124 -1.25034 1.32939 0
M  V30 647 C 60.175 1.70206 3.18923 0
M  V30 648 O 59.896 3.09423 3.10144 0
M  V30 649 C 61.397 1.61227 4.12941 0
M  V30 650 H 58.617 0.380664 0.552572 0
M  V30 651 H 61.161 1.62853 1.23689 0
M  V30 652 H 59.316 1.20109 3.6831 0
M  V30 653 H 59.73 3.39188 4.00065 0
M  V30 654 H 61.204 2.08962 5.10919 0
M  V30 655 H 61.681 0.570375 4.35481 0
M  V30 656 H 62.287 2.10671 3.69456 0
M  V30 657 N 60.6021 -1.18246 1.0419 0
M  V30 658 C 61.5651 -2.20128 0.638452 0
M  V30 659 C 62.5651 -1.57885 -0.304805 0
M  V30 660 O 63.7551 -1.73967 -0.0900369 0
M  V30 661 C 60.8871 -3.4084 -0.0637751 0
M  V30 662 H 62.0801 -2.57336 1.54007 0
M  V30 663 H 59.6331 -1.32152 0.834598 0
M  V30 664 H 60.3681 -3.09166 -0.979136 0
M  V30 665 H 60.1531 -3.8726 0.614198 0
M  V30 666 H 61.6431 -4.16274 -0.332512 0
M  V30 667 N 62.0802 -0.821533 -1.34494 0
M  V30 668 C 63.0432 -0.247847 -2.27856 0
M  V30 669 C 64.0432 0.573453 -1.50227 0
M  V30 670 O 65.2332 0.389759 -1.69784 0
M  V30 671 C 62.3652 0.652698 -3.34593 0
M  V30 672 H 63.5582 -1.07146 -2.80107 0
M  V30 673 H 61.1112 -0.593291 -1.44602 0
M  V30 674 H 61.8462 1.49943 -2.87555 0
M  V30 675 H 61.6312 0.065292 -3.92046 0
M  V30 676 H 63.1212 1.04793 -4.04238 0
M  V30 677 N 63.5583 1.46682 -0.576371 0
M  V30 678 C 64.7863 2.06798 -0.0649635 0
M  V30 679 C 65.2013 1.42612 1.23723 0
M  V30 680 O 64.5583 0.529203 1.74659 0
M  V30 681 C 64.6093 3.6132 0.114202 0
M  V30 682 O 64.3303 4.23104 -1.13644 0
M  V30 683 C 65.8313 4.38349 0.66069 0
M  V30 684 H 63.0513 0.668778 -0.0545616 0
M  V30 685 H 65.5953 1.88404 -0.795237 0
M  V30 686 H 63.7503 3.79162 0.794673 0
M  V30 687 H 64.1643 5.15894 -0.946253 0
M  V30 688 H 65.6383 5.47081 0.73526 0
M  V30 689 H 66.1153 4.05953 1.67627 0
M  V30 690 H 66.7213 4.25297 0.0152951 0
M  V30 691 N 65.0364 0.313813 1.54444 0
M  V30 692 C 66.4474 -0.176243 1.85866 0
M  V30 693 C 66.7984 -1.52405 1.23561 0
M  V30 694 O 65.9234 -2.09605 0.538016 0
M  V30 695 C 66.5184 -0.32657 3.37222 0
M  V30 696 C 65.0774 -0.760846 3.6863 0
M  V30 697 C 64.2244 0.123247 2.77026 0
M  V30 698 H 67.1754 0.534418 1.49431 0
M  V30 699 H 67.1964 -1.15908 3.62416 0
M  V30 700 H 66.7084 0.654531 3.82541 0
M  V30 701 H 64.8094 -1.75204 3.28838 0
M  V30 702 H 64.9224 -0.571353 4.75681 0
M  V30 703 H 63.2864 -0.399597 2.51546 0
M  V30 704 H 64.0694 1.10094 3.25168 0
M  V30 705 N 66.5145 -1.57545 0.0417849 0
M  V30 706 C 67.7605 -1.92601 -0.635021 0
M  V30 707 C 68.0935 -0.919627 -1.71045 0
M  V30 708 O 67.3685 0.0557892 -1.9442 0
M  V30 709 C 67.6515 -3.38085 -1.23979 0
M  V30 710 C 67.5045 -4.49467 -0.173057 0
M  V30 711 C 68.8235 -3.83776 -2.15416 0
M  V30 712 H 65.9425 -0.700397 -0.229374 0
M  V30 713 H 68.5845 -1.89728 0.101633 0
M  V30 714 H 66.7345 -3.40664 -1.86762 0
M  V30 715 H 68.4065 -4.59018 0.458312 0
M  V30 716 H 66.6495 -4.30909 0.499996 0
M  V30 717 H 67.3205 -5.48323 -0.636054 0
M  V30 718 H 69.7965 -3.83013 -1.62605 0
M  V30 719 H 68.6725 -4.8624 -2.54679 0
M  V30 720 H 68.9335 -3.19998 -3.05047 0
M  V30 721 N 67.9926 0.231505 -1.5589 0
M  V30 722 C 68.9426 1.29007 -1.87993 0
M  V30 723 C 69.9266 1.42764 -0.742102 0
M  V30 724 O 71.1186 1.45747 -1.00433 0
M  V30 725 C 68.2476 2.6425 -2.1915 0
M  V30 726 C 67.3336 2.54435 -3.39299 0
M  V30 727 N 67.7246 2.14262 -4.58176 0
M  V30 728 C 66.0226 2.85416 -3.42715 0
M  V30 729 C 66.7236 2.15455 -5.40328 0
M  V30 730 N 65.6996 2.55558 -4.79783 0
M  V30 731 H 69.5016 0.970213 -2.77424 0
M  V30 732 H 67.0156 0.440097 -1.56323 0
M  V30 733 H 69.0126 3.40665 -2.40319 0
M  V30 734 H 67.6726 2.9709 -1.31025 0
M  V30 735 H 68.6836 1.85554 -4.83518 0
M  V30 736 H 65.3606 3.22693 -2.64906 0
M  V30 737 H 66.7506 1.86605 -6.45467 0
M  V30 738 N 69.4707 1.49531 0.497807 0
M  V30 739 C 70.4207 1.62829 1.59596 0
M  V30 740 C 71.4047 0.483824 1.53453 0
M  V30 741 O 72.5967 0.736937 1.60929 0
M  V30 742 C 69.7257 1.7011 2.98191 0
M  V30 743 C 68.8117 2.90144 3.09317 0
M  V30 744 N 69.2027 4.1418 2.90324 0
M  V30 745 C 67.5007 2.88148 3.40422 0
M  V30 746 C 68.2017 4.94886 3.05717 0
M  V30 747 N 67.1777 4.28314 3.34736 0
M  V30 748 H 70.9797 2.56446 1.4357 0
M  V30 749 H 68.4937 1.46347 0.704001 0
M  V30 750 H 70.4907 1.77735 3.77115 0
M  V30 751 H 69.1507 0.776315 3.15283 0
M  V30 752 H 70.1617 4.44109 2.66436 0
M  V30 753 H 66.8387 2.05061 3.63671 0
M  V30 754 H 68.2287 6.03432 2.95499 0
M  V30 755 N 70.9488 -0.749086 1.3866 0
M  V30 756 C 72.1888 -1.52112 1.36534 0
M  V30 757 C 72.5528 -1.91951 -0.0432316 0
M  V30 758 O 73.7538 -2.68132 -0.189396 0
M  V30 759 C 72.0248 -2.73704 2.29828 0
M  V30 760 S 73.5838 -3.63519 2.45763 0
M  V30 761 H 70.4018 -0.520482 0.484375 0
M  V30 762 H 73.0038 -0.878963 1.74627 0
M  V30 763 H 71.7078 -2.42552 3.31054 0
M  V30 764 H 71.2388 -3.4286 1.929 0
M  V30 765 H 73.2538 -4.66712 1.68505 0
M  V30 766 N 72.4269 -1.23603 -0.977757 0
M  V30 767 C 73.8429 -0.999251 -1.24447 0
M  V30 768 C 74.0429 0.298053 -1.99283 0
M  V30 769 O 73.0989 1.01681 -2.31122 0
M  V30 770 C 74.4119 -2.20784 -2.04144 0
M  V30 771 C 75.9599 -2.25303 -2.17273 0
M  V30 772 C 76.4349 -3.45755 -3.00362 0
M  V30 773 N 77.9259 -3.4601 -3.07947 0
M  V30 774 C 78.6609 -4.35868 -3.72568 0
M  V30 775 N 78.1569 -5.35966 -4.38991 0
M  V30 776 N 79.9499 -4.23605 -3.6948 0
M  V30 777 H 72.1009 -2.06986 -0.476483 0
M  V30 778 H 74.3639 -0.907801 -0.273134 0
M  V30 779 H 74.0699 -3.14945 -1.56533 0
M  V30 780 H 73.9439 -2.22085 -3.04891 0
M  V30 781 H 76.3309 -1.3168 -2.64092 0
M  V30 782 H 76.4119 -2.28033 -1.15907 0
M  V30 783 H 76.0559 -4.39687 -2.5424 0
M  V30 784 H 75.9859 -3.40266 -4.01904 0
M  V30 785 H 78.4769 -2.73588 -2.60688 0
M  V30 786 H 78.7899 -6.00783 -4.86086 0
M  V30 787 H 77.1349 -5.39863 -4.37691 0
M  V30 788 H 80.3259 -3.44647 -3.16759 0
M  V30 789 H 80.4989 -4.93836 -4.1956 0
M  V30 790 N 73.905 1.17692 -1.04816 0
M  V30 791 C 75.316 1.69501 -0.782698 0
M  V30 792 C 75.667 1.83456 0.695577 0
M  V30 793 O 74.792 1.51942 1.54086 0
M  V30 794 C 75.387 3.07874 -1.41419 0
M  V30 795 C 73.946 3.56864 -1.19686 0
M  V30 796 C 73.093 2.3322 -1.50012 0
M  V30 797 H 76.044 1.02262 -1.2136 0
M  V30 798 H 76.065 3.71528 -0.821428 0
M  V30 799 H 75.577 2.97685 -2.49009 0
M  V30 800 H 73.678 3.72337 -0.140043 0
M  V30 801 H 73.791 4.39851 -1.89916 0
M  V30 802 H 72.155 2.37501 -0.920071 0
M  V30 803 H 72.938 2.25644 -2.58727 0
M  V30 804 N 75.3831 0.828654 1.34056 0
M  V30 805 C 76.7941 0.477534 1.8049 0
M  V30 806 C 77.1451 -1.00258 1.6865 0
M  V30 807 O 76.2701 -1.78057 1.22982 0
M  V30 808 C 76.8651 0.860018 3.27703 0
M  V30 809 C 75.4241 0.561185 3.72193 0
M  V30 810 C 74.5711 1.07385 2.55663 0
M  V30 811 H 77.5221 1.0183 1.21722 0
M  V30 812 H 77.5431 0.166038 3.80138 0
M  V30 813 H 77.0551 1.93731 3.36288 0
M  V30 814 H 75.1561 -0.506465 3.69142 0
M  V30 815 H 75.2691 1.10926 4.66082 0
M  V30 816 H 73.6331 0.495149 2.49841 0
M  V30 817 H 74.4161 2.15771 2.67016 0
M  V30 818 N 76.8612 -1.46375 0.584142 0
M  V30 819 C 77.8112 -2.27371 -0.169232 0
M  V30 820 C 78.7952 -1.35955 -0.860523 0
M  V30 821 O 79.9872 -1.60119 -0.754382 0
M  V30 822 C 77.1162 -3.22334 -1.18134 0
M  V30 823 C 76.2022 -4.21235 -0.492088 0
M  V30 824 N 76.5932 -5.03766 0.453129 0
M  V30 825 C 74.8912 -4.39773 -0.742652 0
M  V30 826 C 75.5922 -5.75366 0.85609 0
M  V30 827 N 74.5682 -5.43214 0.204926 0
M  V30 828 H 78.3702 -2.88572 0.557097 0
M  V30 829 H 75.8842 -1.57242 0.406042 0
M  V30 830 H 77.8812 -3.79071 -1.73525 0
M  V30 831 H 76.5412 -2.62693 -1.90847 0
M  V30 832 H 77.5522 -5.11227 0.828723 0
M  V30 833 H 74.2292 -3.91279 -1.45625 0
M  V30 834 H 75.6192 -6.5172 1.63434 0
M  V30 835 N 78.3393 -0.321999 -1.54275 0
M  V30 836 C 79.2873 0.560206 -2.25753 0
M  V30 837 C 80.2813 1.11984 -1.27106 0
M  V30 838 O 81.4873 1.06806 -1.44888 0
M  V30 839 H 77.8623 0.199304 -0.725108 0
M  V30 840 H 79.8333 -0.0649365 -2.98329 0
M  V30 841 C 78.5823 1.71023 -3.02731 0
M  V30 842 H 77.9053 1.28885 -3.78456 0
M  V30 843 H 79.3453 2.30314 -3.55993 0
M  V30 844 C 77.8043 2.62692 -2.10938 0
M  V30 845 O 78.3343 3.64364 -1.6912 0
M  V30 846 N 76.5403 2.30891 -1.76459 0
M  V30 847 H 76.0873 1.48253 -2.10663 0
M  V30 848 H 76.0453 2.92487 -1.1532 0
M  V30 849 N 79.8174 1.5752 -0.0501392 0
M  V30 850 C 80.7804 2.1037 0.909786 0
M  V30 851 C 81.7804 1.02308 1.24056 0
M  V30 852 O 82.9704 1.28385 1.17741 0
M  V30 853 C 80.1024 2.58708 2.21998 0
M  V30 854 H 81.2954 2.96479 0.451665 0
M  V30 855 H 78.8484 1.55038 0.198248 0
M  V30 856 H 79.5834 1.75989 2.72394 0
M  V30 857 H 79.3684 3.37675 1.99295 0
M  V30 858 H 80.8584 2.99747 2.9076 0
M  V30 859 N 81.2955 -0.223234 1.56011 0
M  V30 860 C 82.5205 -0.968978 1.83373 0
M  V30 861 C 82.9455 -1.77227 0.630254 0
M  V30 862 O 82.3035 -1.76345 -0.420959 0
M  V30 863 C 82.3515 -1.86363 3.08709 0
M  V30 864 O 81.4555 -2.95873 2.87285 0
M  V30 865 H 80.7965 -0.274461 0.604622 0
M  V30 866 H 83.3265 -0.237056 2.03222 0
M  V30 867 H 83.3365 -2.27376 3.38768 0
M  V30 868 H 82.0115 -1.27319 3.95933 0
M  V30 869 H 80.5885 -2.58818 2.68454 0
M  V30 870 N 82.7736 -1.49793 -0.48987 0
M  V30 871 C 84.0016 -1.63568 -1.26701 0
M  V30 872 C 84.4166 -0.311465 -1.86213 0
M  V30 873 O 83.7736 0.704416 -1.68357 0
M  V30 874 C 83.8246 -2.71284 -2.38929 0
M  V30 875 O 83.5456 -3.9857 -1.81861 0
M  V30 876 C 85.0466 -2.95864 -3.3012 0
M  V30 877 H 82.2666 -0.550342 -0.383881 0
M  V30 878 H 84.8106 -1.95898 -0.586864 0
M  V30 879 H 82.9656 -2.417 -3.02753 0
M  V30 880 H 83.3796 -4.57993 -2.55622 0
M  V30 881 H 84.8536 -3.74941 -4.05121 0
M  V30 882 H 85.3306 -2.06206 -3.87783 0
M  V30 883 H 85.9366 -3.26907 -2.72051 0
M  V30 884 N 84.2517 0.741722 -1.39055 0
M  V30 885 C 85.4997 1.49818 -1.35643 0
M  V30 886 C 85.8207 1.94938 0.0491642 0
M  V30 887 O 85.0907 1.68505 0.999141 0
M  V30 888 H 83.6707 0.555755 -0.499144 0
M  V30 889 H 86.3327 0.880957 -1.73854 0
M  V30 890 H 85.4287 2.38348 -2.01486 0
M  V30 891 N 85.7298 1.2412 0.971189 0
M  V30 892 C 87.1408 1.07236 1.52831 0
M  V30 893 C 87.4918 -0.357352 1.92918 0
M  V30 894 O 86.6168 -1.24528 1.76979 0
M  V30 895 C 87.2118 1.94043 2.77728 0
M  V30 896 C 85.7708 1.81394 3.29808 0
M  V30 897 C 84.9178 1.89189 2.02738 0
M  V30 898 H 87.8688 1.37648 0.789864 0
M  V30 899 H 87.8898 1.47066 3.5093 0
M  V30 900 H 87.4018 2.98093 2.4852 0
M  V30 901 H 85.5028 0.801634 3.63874 0
M  V30 902 H 85.6158 2.65294 3.98944 0
M  V30 903 H 83.9798 1.32877 2.17292 0
M  V30 904 H 84.7628 2.94812 1.759 0
M  V30 905 N 87.2079 -1.17134 1.05439 0
M  V30 906 C 88.4539 -1.87979 0.776872 0
M  V30 907 C 88.8089 -1.7965 -0.688751 0
M  V30 908 O 88.1019 -1.19535 -1.4974 0
M  V30 909 C 88.2959 -3.36833 1.19491 0
M  V30 910 C 88.1249 -3.59653 2.69963 0
M  V30 911 C 86.8949 -3.76234 3.37307 0
M  V30 912 C 89.0929 -3.59091 3.68182 0
M  V30 913 N 87.0749 -3.86922 4.76618 0
M  V30 914 C 88.4459 -3.75659 4.93235 0
M  V30 915 C 90.5009 -3.42255 3.61616 0
M  V30 916 C 89.2039 -3.77133 6.12506 0
M  V30 917 C 91.2299 -3.45018 4.8033 0
M  V30 918 C 90.5919 -3.62096 6.04207 0
M  V30 919 H 86.6909 -0.705876 0.336546 0
M  V30 920 H 89.2749 -1.40602 1.34682 0
M  V30 921 H 87.4459 -3.82873 0.652884 0
M  V30 922 H 89.1779 -3.95305 0.866966 0
M  V30 923 H 85.9329 -3.76193 2.87708 0
M  V30 924 H 86.3569 -3.96055 5.49062 0
M  V30 925 H 90.9989 -3.27986 2.66805 0
M  V30 926 H 88.7169 -3.90186 7.07659 0
M  V30 927 H 92.3029 -3.33246 4.76905 0
M  V30 928 H 91.1829 -3.64142 6.94529 0
M  V30 929 N 88.686 -0.835752 -1.33615 0
M  V30 930 C 89.932 -0.430596 -1.98176 0
M  V30 931 C 90.265 1.00684 -1.66061 0
M  V30 932 O 89.54 1.70339 -0.938877 0
M  V30 933 C 89.823 -0.648065 -3.5422 0
M  V30 934 C 89.676 -2.13255 -3.96033 0
M  V30 935 C 90.995 -0.0922113 -4.40003 0
M  V30 936 H 88.114 -0.157924 -0.719881 0
M  V30 937 H 90.756 -1.05069 -1.58305 0
M  V30 938 H 88.906 -0.120237 -3.88314 0
M  V30 939 H 90.578 -2.725 -3.72211 0
M  V30 940 H 88.821 -2.61823 -3.45878 0
M  V30 941 H 89.492 -2.23547 -5.04708 0
M  V30 942 H 91.968 -0.543343 -4.12537 0
M  V30 943 H 90.844 -0.274083 -5.48215 0
M  V30 944 H 91.105 1.00378 -4.30554 0
M  V30 945 N 90.1641 1.46063 -0.591896 0
M  V30 946 C 91.0941 2.33172 0.123673 0
M  V30 947 C 92.0751 1.45897 0.87453 0
M  V30 948 O 93.2601 1.74698 0.848181 0
M  V30 949 C 90.3901 3.28336 1.13194 0
M  V30 950 C 89.3441 4.25124 0.495324 0
M  V30 951 C 88.6701 5.09863 1.61071 0
M  V30 952 C 89.9701 5.19143 -0.573425 0
M  V30 953 H 91.6641 2.93252 -0.603646 0
M  V30 954 H 89.2101 1.41014 -0.291741 0
M  V30 955 H 91.1631 3.88137 1.64097 0
M  V30 956 H 89.8871 2.66383 1.88965 0
M  V30 957 H 88.5461 3.66599 0.00729452 0
M  V30 958 H 88.1941 4.44288 2.35832 0
M  V30 959 H 87.8941 5.75417 1.19035 0
M  V30 960 H 89.4181 5.72529 2.12233 0
M  V30 961 H 90.8321 5.73106 -0.1491 0
M  V30 962 H 89.2291 5.93089 -0.914636 0
M  V30 963 H 90.2991 4.62519 -1.45617 0
M  V30 964 N 91.6422 0.330177 1.54103 0
M  V30 965 C 93.0532 -0.15652 1.86043 0
M  V30 966 C 93.4042 -1.51086 1.2517 0
M  V30 967 O 92.5292 -2.09023 0.560217 0
M  V30 968 C 93.1242 -0.290784 3.3755 0
M  V30 969 C 91.6832 -0.721705 3.69416 0
M  V30 970 C 90.8302 0.152622 2.7688 0
M  V30 971 H 93.7812 0.550237 1.48856 0
M  V30 972 H 93.8022 -1.12058 3.63625 0
M  V30 973 H 93.3142 0.695068 3.81825 0
M  V30 974 H 91.4152 -1.71706 3.30678 0
M  V30 975 H 91.5282 -0.520869 4.7626 0
M  V30 976 H 89.8922 -0.372894 2.51956 0
M  V30 977 H 90.6752 1.13536 3.23982 0
M  V30 978 N 93.1203 -1.57491 0.0584922 0
M  V30 979 C 94.0533 -2.07533 -0.948969 0
M  V30 980 C 95.0313 -0.977444 -1.29942 0
M  V30 981 O 96.2153 -1.2499 -1.41102 0
M  V30 982 C 93.3423 -2.52192 -2.2609 0
M  V30 983 C 92.3883 -3.73287 -2.06298 0
M  V30 984 S 93.2213 -5.18603 -1.33459 0
M  V30 985 C 94.3773 -5.66583 -2.65959 0
M  V30 986 H 94.6103 -2.92662 -0.523118 0
M  V30 987 H 92.1433 -1.53631 -0.153954 0
M  V30 988 H 94.1013 -2.78585 -3.01498 0
M  V30 989 H 92.7623 -1.67356 -2.65802 0
M  V30 990 H 91.9553 -4.0248 -3.03357 0
M  V30 991 H 91.5573 -3.47199 -1.39029 0
M  V30 992 H 93.8493 -5.72616 -3.62101 0
M  V30 993 H 94.7923 -6.65684 -2.41393 0
M  V30 994 H 95.2003 -4.94342 -2.72554 0
M  V30 995 N 94.5984 0.214957 -1.56127 0
M  V30 996 C 95.8464 0.936518 -1.79091 0
M  V30 997 C 96.1674 1.84606 -0.628148 0
M  V30 998 O 95.4374 1.92664 0.35462 0
M  V30 999 H 94.0174 0.3488 -0.660566 0
M  V30 1000 H 96.6794 0.22523 -1.93594 0
M  V30 1001 H 95.7754 1.53943 -2.71492 0
M  V30 1002 N 96.0765 1.50051 0.48192 0
M  V30 1003 C 97.4875 1.5348 1.06305 0
M  V30 1004 C 97.8385 0.331997 1.93371 0
M  V30 1005 O 96.9635 -0.556256 2.09129 0
M  V30 1006 C 97.5585 2.7813 1.93466 0
M  V30 1007 C 96.1175 2.84275 2.46707 0
M  V30 1008 C 95.2645 2.47637 1.24785 0
M  V30 1009 H 98.2155 1.56472 0.264995 0
M  V30 1010 H 98.2365 2.59372 2.78399 0
M  V30 1011 H 97.7485 3.65654 1.30072 0
M  V30 1012 H 95.8495 2.01077 3.13686 0
M  V30 1013 H 95.9625 3.8691 2.82555 0
M  V30 1014 H 94.3265 1.99835 1.57918 0
M  V30 1015 H 95.1095 3.37457 0.630694 0
M  V30 1016 N 97.5546 -0.734337 1.39446 0
M  V30 1017 C 98.5026 -1.86971 1.38364 0
M  V30 1018 C 99.4966 -1.67288 0.266687 0
M  V30 1019 O 100.703 -1.74621 0.436755 0
M  V30 1020 H 97.0776 -0.615474 0.432082 0
M  V30 1021 H 99.0486 -1.85 2.34132 0
M  V30 1022 C 97.7976 -3.2466 1.24465 0
M  V30 1023 H 97.1206 -3.40402 2.09682 0
M  V30 1024 H 98.5606 -4.04292 1.27764 0
M  V30 1025 C 97.0196 -3.36867 -0.0468674 0
M  V30 1026 O 97.5496 -3.88618 -1.01681 0
M  V30 1027 N 95.7556 -2.90391 -0.110145 0
M  V30 1028 H 95.3026 -2.48466 0.679868 0
M  V30 1029 H 95.2606 -2.98939 -0.973799 0
M  V30 1030 N 99.0327 -1.24633 -0.964593 0
M  V30 1031 C 100.281 -1.08573 -1.70459 0
M  V30 1032 C 100.602 0.375655 -1.91347 0
M  V30 1033 O 99.8717 1.26779 -1.49345 0
M  V30 1034 H 98.4517 -0.398784 -0.631649 0
M  V30 1035 H 101.114 -1.56601 -1.16026 0
M  V30 1036 H 100.21 -1.58623 -2.68785 0
M  V30 1037 N 100.511 1.16574 -1.06058 0
M  V30 1038 C 101.458 2.20883 -0.669263 0
M  V30 1039 C 102.428 1.62729 0.332918 0
M  V30 1040 O 103.613 1.895 0.222346 0
M  V30 1041 C 100.753 3.45049 -0.0593572 0
M  V30 1042 C 99.8658 4.17458 -1.11143 0
M  V30 1043 C 99.0008 5.29135 -0.467916 0
M  V30 1044 C 98.0398 5.93343 -1.50369 0
M  V30 1045 N 97.1768 6.96516 -0.883706 0
M  V30 1046 H 102.017 2.53709 -1.5632 0
M  V30 1047 H 99.5538 1.24616 -0.781625 0
M  V30 1048 H 101.512 4.16033 0.311771 0
M  V30 1049 H 100.142 3.12781 0.797992 0
M  V30 1050 H 99.1938 3.45101 -1.60029 0
M  V30 1051 H 100.506 4.61307 -1.89731 0
M  V30 1052 H 99.6598 6.06684 -0.0436871 0
M  V30 1053 H 98.3988 4.86443 0.349864 0
M  V30 1054 H 97.4038 5.14517 -1.93784 0
M  V30 1055 H 98.6288 6.38114 -2.32352 0
M  V30 1056 H 96.5748 6.55943 -0.086595 0
M  V30 1057 H 96.4918 7.38723 -1.607 0
M  V30 1058 H 97.7598 7.77993 -0.484543 0
M  V30 1059 N 101.989 0.842826 1.3317 0
M  V30 1060 C 103.4 0.496651 1.79973 0
M  V30 1061 C 103.751 -0.984641 1.69703 0
M  V30 1062 O 102.876 -1.76743 1.24863 0
M  V30 1063 C 103.471 0.894727 3.26772 0
M  V30 1064 C 102.03 0.600629 3.71577 0
M  V30 1065 C 101.177 1.10091 2.5451 0
M  V30 1066 H 104.128 1.03116 1.20635 0
M  V30 1067 H 104.149 0.206347 3.7994 0
M  V30 1068 H 103.661 1.97287 3.34215 0
M  V30 1069 H 101.762 -0.467284 3.69658 0
M  V30 1070 H 101.875 1.15863 4.64879 0
M  V30 1071 H 100.239 0.52162 2.49301 0
M  V30 1072 H 101.022 2.18591 2.64713 0
M  V30 1073 N 103.467 -1.45747 0.599634 0
M  V30 1074 C 104.377 -2.34262 -0.125888 0
M  V30 1075 C 105.393 -1.50768 -0.868625 0
M  V30 1076 O 106.569 -1.83592 -0.828003 0
M  V30 1077 C 103.634 -3.28252 -1.11587 0
M  V30 1078 C 102.695 -4.27651 -0.375956 0
M  V30 1079 C 101.928 -5.1715 -1.31877 0
M  V30 1080 O 102.151 -5.09916 -2.55621 0
M  V30 1081 O 101.085 -5.96286 -0.820157 0
M  V30 1082 H 104.911 -2.97688 0.601315 0
M  V30 1083 H 102.496 -1.44999 0.359934 0
M  V30 1084 H 104.378 -3.86191 -1.68626 0
M  V30 1085 H 103.053 -2.67401 -1.82424 0
M  V30 1086 H 101.96 -3.7335 0.236698 0
M  V30 1087 H 103.293 -4.91334 0.29177 0
M  V30 1088 N 104.945 -0.338344 -1.53925 0
M  V30 1089 C 106.361 0.0137736 -1.59594 0
M  V30 1090 C 106.561 1.49186 -1.35447 0
M  V30 1091 O 105.617 2.24987 -1.14616 0
M  V30 1092 C 106.93 -0.41773 -2.97784 0
M  V30 1093 C 108.478 -0.369633 -3.1081 0
M  V30 1094 C 108.953 -0.776524 -4.51369 0
M  V30 1095 N 110.444 -0.730506 -4.57403 0
M  V30 1096 C 111.179 -1.01736 -5.64303 0
M  V30 1097 N 110.675 -1.3721 -6.79077 0
M  V30 1098 N 112.468 -0.941942 -5.54151 0
M  V30 1099 H 104.619 -1.3012 -1.67876 0
M  V30 1100 H 106.882 -0.530082 -0.78595 0
M  V30 1101 H 106.588 -1.44811 -3.20504 0
M  V30 1102 H 106.462 0.209729 -3.76616 0
M  V30 1103 H 108.849 0.651568 -2.87817 0
M  V30 1104 H 108.93 -1.03223 -2.34049 0
M  V30 1105 H 108.574 -1.79571 -4.75096 0
M  V30 1106 H 108.504 -0.0914649 -5.26521 0
M  V30 1107 H 110.995 -0.468783 -3.74981 0
M  V30 1108 H 111.308 -1.57597 -7.5656 0
M  V30 1109 H 109.653 -1.4105 -6.80536 0
M  V30 1110 H 112.844 -0.664184 -4.63364 0
M  V30 1111 H 113.017 -1.16884 -6.37371 0
M  V30 1112 N 106.423 1.57458 -0.0668435 0
M  V30 1113 C 107.663 1.95175 0.607116 0
M  V30 1114 C 108.027 0.946039 1.67075 0
M  V30 1115 O 109.228 1.2107 2.39991 0
M  V30 1116 C 107.499 3.37582 1.17358 0
M  V30 1117 S 109.058 3.97271 1.86336 0
M  V30 1118 H 105.876 0.682604 0.19893 0
M  V30 1119 H 108.478 1.95002 -0.139519 0
M  V30 1120 H 107.182 4.08566 0.387553 0
M  V30 1121 H 106.713 3.41288 1.95669 0
M  V30 1122 H 108.728 3.83772 3.14537 0
M  V30 1123 N 107.901 -0.206675 1.56239 0
M  V30 1124 C 108.831 -1.25909 1.96645 0
M  V30 1125 C 109.812 -1.48097 0.836734 0
M  V30 1126 O 110.997 -1.6003 1.10019 0
M  V30 1127 C 108.127 -2.6058 2.29599 0
M  V30 1128 C 107.081 -2.53024 3.452 0
M  V30 1129 C 106.407 -3.91861 3.63798 0
M  V30 1130 C 107.707 -2.06524 4.79734 0
M  V30 1131 H 109.401 -0.923369 2.84806 0
M  V30 1132 H 106.947 -0.442735 1.37025 0
M  V30 1133 H 108.9 -3.34375 2.56459 0
M  V30 1134 H 107.624 -2.95869 1.38307 0
M  V30 1135 H 106.283 -1.81684 3.18412 0
M  V30 1136 H 105.931 -4.24483 2.69857 0
M  V30 1137 H 105.631 -3.87683 4.4156 0
M  V30 1138 H 107.155 -4.67296 3.93022 0
M  V30 1139 H 108.569 -2.70072 5.05702 0
M  V30 1140 H 106.966 -2.13374 5.60885 0
M  V30 1141 H 108.036 -1.01802 4.74093 0
M  V30 1142 N 109.379 -1.50304 -0.473955 0
M  V30 1143 C 110.795 -1.37667 -0.807466 0
M  V30 1144 C 110.995 -0.430555 -1.96846 0
M  V30 1145 O 110.051 0.127874 -2.52176 0
M  V30 1146 C 111.364 -2.78974 -1.12223 0
M  V30 1147 C 112.912 -2.87868 -1.22885 0
M  V30 1148 C 113.387 -4.30003 -1.57676 0
M  V30 1149 N 114.878 -4.3294 -1.64673 0
M  V30 1150 C 115.613 -5.3991 -1.93091 0
M  V30 1151 N 115.109 -6.57092 -2.1955 0
M  V30 1152 N 116.902 -5.27351 -1.94569 0
M  V30 1153 H 109.053 -2.10394 0.291212 0
M  V30 1154 H 111.316 -0.945575 0.0677609 0
M  V30 1155 H 111.022 -3.50031 -0.342229 0
M  V30 1156 H 110.896 -3.16038 -2.05913 0
M  V30 1157 H 113.283 -2.17032 -1.99953 0
M  V30 1158 H 113.364 -2.54352 -0.271814 0
M  V30 1159 H 113.008 -5.01375 -0.81149 0
M  V30 1160 H 112.938 -4.61004 -2.54525 0
M  V30 1161 H 115.429 -3.48441 -1.46277 0
M  V30 1162 H 115.742 -7.34425 -2.405 0
M  V30 1163 H 114.087 -6.60272 -2.16948 0
M  V30 1164 H 117.278 -4.34801 -1.73394 0
M  V30 1165 H 117.451 -6.10805 -2.16381 0
M  V30 1166 N 110.857 0.726932 -1.39834 0
M  V30 1167 C 112.104 1.48664 -1.37496 0
M  V30 1168 C 112.432 1.94482 0.0264678 0
M  V30 1169 O 111.687 1.67692 1.00886 0
M  V30 1170 C 111.986 2.73495 -2.30077 0
M  V30 1171 C 111.652 2.46502 -3.77555 0
M  V30 1172 C 110.314 2.3885 -4.17737 0
M  V30 1173 C 112.666 2.23604 -4.70798 0
M  V30 1174 C 109.994 2.06352 -5.49214 0
M  V30 1175 C 112.346 1.92622 -6.02561 0
M  V30 1176 C 111.01 1.83444 -6.41798 0
M  V30 1177 H 110.28 0.544001 -0.503135 0
M  V30 1178 H 112.927 0.833657 -1.72402 0
M  V30 1179 H 111.232 3.43575 -1.88317 0
M  V30 1180 H 112.929 3.31549 -2.25558 0
M  V30 1181 H 109.519 2.5334 -3.45712 0
M  V30 1182 H 113.703 2.28479 -4.40581 0
M  V30 1183 H 108.959 1.97776 -5.78528 0
M  V30 1184 H 113.133 1.73914 -6.74334 0
M  V30 1185 H 110.76 1.58029 -7.43593 0
M  V30 1186 N 112.336 1.25143 0.95797 0
M  V30 1187 C 113.582 1.09855 1.70469 0
M  V30 1188 C 113.915 -0.360187 1.90831 0
M  V30 1189 O 113.19 -1.26568 1.47685 0
M  V30 1190 C 113.473 1.8497 3.08963 0
M  V30 1191 C 113.326 3.38652 2.96032 0
M  V30 1192 C 114.645 1.63016 4.08795 0
M  V30 1193 H 111.764 0.400465 0.618706 0
M  V30 1194 H 114.406 1.53933 1.11376 0
M  V30 1195 H 112.556 1.47505 3.59409 0
M  V30 1196 H 114.228 3.85772 2.52938 0
M  V30 1197 H 112.471 3.66534 2.32025 0
M  V30 1198 H 113.142 3.8642 3.94187 0
M  V30 1199 H 115.618 1.95625 3.67247 0
M  V30 1200 H 114.494 2.18015 5.03747 0
M  V30 1201 H 114.755 0.570692 4.38401 0
M  V30 1202 N 113.814 -1.1601 1.06675 0
M  V30 1203 C 114.764 -2.18512 0.650888 0
M  V30 1204 C 115.748 -1.57677 -0.320441 0
M  V30 1205 O 116.94 -1.76482 -0.135266 0
M  V30 1206 C 114.069 -3.43273 0.0429255 0
M  V30 1207 C 113.155 -4.11176 1.03898 0
M  V30 1208 N 113.546 -4.54672 2.216 0
M  V30 1209 C 111.844 -4.37417 0.870779 0
M  V30 1210 C 112.545 -5.07248 2.84736 0
M  V30 1211 N 111.521 -5.0037 2.12441 0
M  V30 1212 H 115.323 -2.49863 1.54745 0
M  V30 1213 H 112.837 -1.32503 0.938975 0
M  V30 1214 H 114.834 -4.16006 -0.272857 0
M  V30 1215 H 113.494 -3.13408 -0.84884 0
M  V30 1216 H 114.505 -4.4828 2.59356 0
M  V30 1217 H 111.182 -4.17488 0.0313293 0
M  V30 1218 H 112.572 -5.50912 3.84636 0
M  V30 1219 N 115.292 -0.849877 -1.32721 0
M  V30 1220 C 116.703 -0.506188 -1.79707 0
M  V30 1221 C 117.054 0.975627 -1.70223 0
M  V30 1222 O 116.179 1.76078 -1.25799 0
M  V30 1223 C 116.774 -0.912044 -3.26293 0
M  V30 1224 C 115.333 -0.620326 -3.71253 0
M  V30 1225 C 114.48 -1.11439 -2.53922 0
M  V30 1226 H 117.431 -1.03754 -1.20087 0
M  V30 1227 H 117.452 -0.226493 -3.79825 0
M  V30 1228 H 116.964 -1.99057 -3.33164 0
M  V30 1229 H 115.065 0.447674 -3.69901 0
M  V30 1230 H 115.178 -1.18327 -4.64258 0
M  V30 1231 H 113.542 -0.534834 -2.49021 0
M  V30 1232 H 114.325 -2.19992 -2.6355 0
M  V30 1233 N 116.77 1.45427 -0.607355 0
M  V30 1234 C 118.181 1.85756 -0.187535 0
M  V30 1235 C 118.532 1.5077 1.25551 0
M  V30 1236 O 117.657 0.93427 1.95193 0
M  V30 1237 C 118.252 3.37154 -0.333572 0
M  V30 1238 C 116.811 3.76387 0.0315542 0
M  V30 1239 C 115.958 2.69377 -0.658117 0
M  V30 1240 H 118.909 1.36231 -0.81405 0
M  V30 1241 H 118.93 3.78014 0.43428 0
M  V30 1242 H 118.442 3.62586 -1.38393 0
M  V30 1243 H 116.543 3.56571 1.0811 0
M  V30 1244 H 116.656 4.77731 -0.361935 0
M  V30 1245 H 115.02 2.5452 -0.0957873 0
M  V30 1246 H 115.803 2.97646 -1.7106 0
M  V30 1247 N 118.248 0.346503 1.53744 0
M  V30 1248 C 119.196 -0.52422 2.26616 0
M  V30 1249 C 120.19 -1.09948 1.28871 0
M  V30 1250 O 121.396 -1.04488 1.46568 0
M  V30 1251 H 117.771 -0.187743 0.728187 0
M  V30 1252 H 119.742 0.11239 2.98188 0
M  V30 1253 C 118.491 -1.66186 3.05414 0
M  V30 1254 H 117.814 -1.22848 3.80458 0
M  V30 1255 H 119.254 -2.24622 3.59612 0
M  V30 1256 C 117.713 -2.59302 2.1509 0
M  V30 1257 O 118.243 -3.61628 1.74895 0
M  V30 1258 N 116.449 -2.28055 1.8011 0
M  V30 1259 H 115.996 -1.44883 2.12994 0
M  V30 1260 H 115.954 -2.90615 1.19958 0
M  V30 1261 N 119.726 -1.57421 0.075193 0
M  V30 1262 C 120.689 -2.11791 -0.876203 0
M  V30 1263 C 121.689 -1.04268 -1.22412 0
M  V30 1264 O 122.879 -1.30242 -1.15684 0
M  V30 1265 C 120.011 -2.62207 -2.17854 0
M  V30 1266 H 121.204 -2.9716 -0.40444 0
M  V30 1267 H 118.757 -1.55333 -0.173557 0
M  V30 1268 H 119.492 -1.803 -2.6956 0
M  V30 1269 H 119.277 -3.40802 -1.93897 0
M  V30 1270 H 120.767 -3.04335 -2.85955 0
M  V30 1271 N 121.204 0.198386 -1.56346 0
M  V30 1272 C 122.429 0.939682 -1.84891 0
M  V30 1273 C 122.854 1.76202 -0.658369 0
M  V30 1274 O 122.212 1.76993 0.392851 0
M  V30 1275 C 122.26 1.81428 -3.11635 0
M  V30 1276 O 121.364 2.91265 -2.91956 0
M  V30 1277 H 120.705 0.264807 -0.608912 0
M  V30 1278 H 123.235 0.204695 -2.03573 0
M  V30 1279 H 123.245 2.21958 -3.42343 0
M  V30 1280 H 121.92 1.21004 -3.97908 0
M  V30 1281 H 120.497 2.54514 -2.72538 0
M  V30 1282 N 122.682 1.50554 0.465978 0
M  V30 1283 C 123.612 1.72722 1.57128 0
M  V30 1284 C 124.593 0.576294 1.6004 0
M  V30 1285 O 125.778 0.81598 1.76225 0
M  V30 1286 C 122.908 1.82605 2.95419 0
M  V30 1287 C 121.862 2.97835 3.07373 0
M  V30 1288 C 121.188 2.92867 4.47363 0
M  V30 1289 C 122.488 4.38265 2.84114 0
M  V30 1290 H 124.182 2.65267 1.38829 0
M  V30 1291 H 121.728 1.2765 0.666441 0
M  V30 1292 H 123.681 1.96698 3.72677 0
M  V30 1293 H 122.405 0.866858 3.14886 0
M  V30 1294 H 121.064 2.83401 2.3255 0
M  V30 1295 H 120.712 1.94783 4.63755 0
M  V30 1296 H 120.412 3.70227 4.56296 0
M  V30 1297 H 121.936 3.09015 5.26633 0
M  V30 1298 H 123.35 4.53198 3.51118 0
M  V30 1299 H 121.747 5.17115 3.04487 0
M  V30 1300 H 122.817 4.50281 1.7993 0
M  V30 1301 N 124.16 -0.719506 1.40217 0
M  V30 1302 C 125.571 -1.29848 1.34151 0
M  V30 1303 C 125.922 -1.96196 0.0131349 0
M  V30 1304 O 125.047 -1.973 -0.88892 0
M  V30 1305 C 125.642 -2.36118 2.42968 0
M  V30 1306 C 124.201 -2.8965 2.40374 0
M  V30 1307 C 123.348 -1.63393 2.24049 0
M  V30 1308 H 126.299 -0.51591 1.5008 0
M  V30 1309 H 126.32 -3.16871 2.10649 0
M  V30 1310 H 125.832 -1.878 3.39636 0
M  V30 1311 H 123.933 -3.42208 1.47392 0
M  V30 1312 H 124.046 -3.4171 3.35814 0
M  V30 1313 H 122.41 -1.88312 1.71495 0
M  V30 1314 H 123.193 -1.17104 3.2271 0
M  V30 1315 N 125.638 -1.25649 -0.95132 0
M  V30 1316 C 126.586 -1.06118 -2.06982 0
M  V30 1317 C 127.58 0.00889169 -1.69398 0
M  V30 1318 O 128.786 -0.146988 -1.79399 0
M  V30 1319 H 125.161 -0.326248 -0.677544 0
M  V30 1320 H 127.132 -2.00932 -2.2061 0
M  V30 1321 C 125.881 -0.700145 -3.40578 0
M  V30 1322 H 125.204 -1.51537 -3.69968 0
M  V30 1323 H 126.644 -0.603211 -4.19687 0
M  V30 1324 C 125.103 0.59403 -3.31622 0
M  V30 1325 O 125.633 1.63522 -3.66911 0
M  V30 1326 N 123.839 0.58089 -2.84735 0
M  V30 1327 H 123.386 -0.266783 -2.56215 0
M  V30 1328 H 123.344 1.44695 -2.79125 0
M  V30 1329 N 127.117 1.15442 -1.07289 0
M  V30 1330 C 128.394 1.82306 -0.708792 0
M  V30 1331 C 128.774 1.94991 0.808807 0
M  V30 1332 O 128.122 1.50085 1.72298 0
M  V30 1333 C 128.332 3.18695 -1.42247 0
M  V30 1334 C 129.68 3.94341 -1.57417 0
M  V30 1335 O 130.704 3.28247 -1.38319 0
M  V30 1336 O 129.563 5.12839 -1.88834 0
M  V30 1337 H 126.657 0.787628 -0.252132 0
M  V30 1338 H 129.203 1.22559 -1.17377 0
M  V30 1339 H 127.975 3.04557 -2.45684 0
M  V30 1340 H 127.598 3.86128 -0.948223 0
M  V30 1341 N 128.595 0.856903 1.32268 0
M  V30 1342 C 129.823 0.475439 2.01363 0
M  V30 1343 C 130.238 -0.928486 1.64392 0
M  V30 1344 O 129.595 -1.60624 0.866387 0
M  V30 1345 C 129.646 0.607545 3.56358 0
M  V30 1346 O 129.367 1.95617 3.92002 0
M  V30 1347 C 130.868 0.225382 4.42727 0
M  V30 1348 H 128.088 0.186636 0.644521 0
M  V30 1349 H 130.632 1.15446 1.68797 0
M  V30 1350 H 128.787 -0.0237719 3.87393 0
M  V30 1351 H 129.201 1.95455 4.86721 0
M  V30 1352 H 130.675 0.368813 5.50767 0
M  V30 1353 H 131.152 -0.834369 4.31202 0
M  V30 1354 H 131.758 0.831864 4.17085 0
M  V30 1355 N 130.073 -1.45103 0.615059 0
M  V30 1356 C 131.005 -2.28786 -0.13762 0
M  V30 1357 C 132.018 -1.40376 -0.824525 0
M  V30 1358 O 133.207 -1.64681 -0.688662 0
M  V30 1359 C 130.307 -3.16322 -1.21628 0
M  V30 1360 C 129.48 -4.33054 -0.615039 0
M  V30 1361 C 128.539 -5.01743 -1.58556 0
M  V30 1362 O 127.565 -5.58293 -1.10895 0
M  V30 1363 N 128.767 -5.01714 -2.91998 0
M  V30 1364 H 131.532 -2.94025 0.580483 0
M  V30 1365 H 129.093 -1.55373 0.45507 0
M  V30 1366 H 131.085 -3.59139 -1.86552 0
M  V30 1367 H 129.655 -2.52943 -1.83681 0
M  V30 1368 H 128.875 -3.93627 0.21245 0
M  V30 1369 H 130.163 -5.08431 -0.193704 0
M  V30 1370 H 129.561 -4.57075 -3.33316 0
M  V30 1371 H 128.118 -5.48371 -3.52325 0
M  V30 1372 N 131.551 -0.354651 -1.53558 0
M  V30 1373 C 132.967 -0.00315426 -1.596 0
M  V30 1374 C 133.167 1.47741 -1.37021 0
M  V30 1375 O 132.223 2.23759 -1.16996 0
M  V30 1376 C 133.536 -0.44929 -2.97325 0
M  V30 1377 C 135.084 -0.402578 -3.104 0
M  V30 1378 C 135.559 -0.824355 -4.5052 0
M  V30 1379 N 137.05 -0.778979 -4.56603 0
M  V30 1380 C 137.785 -1.07715 -5.63192 0
M  V30 1381 N 137.281 -1.44405 -6.77583 0
M  V30 1382 N 139.074 -1.00066 -5.53121 0
M  V30 1383 H 131.225 -1.31893 -1.66487 0
M  V30 1384 H 133.488 -0.538388 -0.780284 0
M  V30 1385 H 133.194 -1.48202 -3.1895 0
M  V30 1386 H 133.068 0.169772 -3.76818 0
M  V30 1387 H 135.455 0.621004 -2.88492 0
M  V30 1388 H 135.536 -1.05699 -2.32941 0
M  V30 1389 H 135.18 -1.846 -4.73165 0
M  V30 1390 H 135.11 -0.147304 -5.26394 0
M  V30 1391 H 137.601 -0.508528 -3.74463 0
M  V30 1392 H 137.914 -1.65612 -7.54846 0
M  V30 1393 H 136.259 -1.4826 -6.79002 0
M  V30 1394 H 139.45 -0.713293 -4.62633 0
M  V30 1395 H 139.623 -1.23638 -6.36096 0
M  V30 1396 N 133.029 1.57378 -0.0835403 0
M  V30 1397 C 133.992 2.12252 0.864959 0
M  V30 1398 C 134.992 1.04916 1.21858 0
M  V30 1399 O 136.182 1.30853 1.14991 0
M  V30 1400 C 133.314 2.63358 2.16461 0
M  V30 1401 H 134.507 2.97371 0.388676 0
M  V30 1402 H 132.06 1.55423 0.165317 0
M  V30 1403 H 132.795 1.81727 2.686 0
M  V30 1404 H 132.58 3.41826 1.92087 0
M  V30 1405 H 134.07 3.05847 2.84337 0
M  V30 1406 N 134.507 -0.190092 1.56449 0
M  V30 1407 C 135.44 -1.26375 1.90012 0
M  V30 1408 C 136.418 -1.43705 0.760765 0
M  V30 1409 O 137.602 -1.59014 1.01226 0
M  V30 1410 C 134.729 -2.62962 2.13468 0
M  V30 1411 C 133.775 -2.62474 3.36169 0
M  V30 1412 S 134.608 -2.13412 4.91137 0
M  V30 1413 C 135.764 -3.51812 5.17667 0
M  V30 1414 H 135.997 -0.977181 2.80782 0
M  V30 1415 H 133.53 -0.393814 1.49293 0
M  V30 1416 H 135.488 -3.41583 2.27664 0
M  V30 1417 H 134.149 -2.88828 1.23439 0
M  V30 1418 H 133.342 -3.62918 3.49723 0
M  V30 1419 H 132.944 -1.91937 3.20992 0
M  V30 1420 H 135.236 -4.47706 5.08494 0
M  V30 1421 H 136.179 -3.43148 6.19399 0
M  V30 1422 H 136.587 -3.46956 4.45288 0
M  V30 1423 N 135.985 -1.50799 -0.457987 0
M  V30 1424 C 136.895 -1.73426 -1.57989 0
M  V30 1425 C 137.911 -0.617745 -1.62665 0
M  V30 1426 O 139.087 -0.897614 -1.80291 0
M  V30 1427 C 136.152 -1.83557 -2.94122 0
M  V30 1428 C 135.213 -3.07345 -2.99729 0
M  V30 1429 C 134.446 -3.16983 -4.29368 0
M  V30 1430 O 134.669 -2.33077 -5.20607 0
M  V30 1431 O 133.603 -4.09812 -4.40837 0
M  V30 1432 H 137.429 -2.68555 -1.41817 0
M  V30 1433 H 135.014 -1.35052 -0.638859 0
M  V30 1434 H 136.896 -1.92326 -3.74952 0
M  V30 1435 H 135.571 -0.916137 -3.10465 0
M  V30 1436 H 134.478 -3.04068 -2.1793 0
M  V30 1437 H 135.811 -3.9891 -2.88326 0
M  V30 1438 N 137.463 0.71206 -1.40597 0
M  V30 1439 C 138.874 1.29135 -1.34837 0
M  V30 1440 C 139.225 1.96186 -0.0235395 0
M  V30 1441 O 138.35 1.97768 0.878444 0
M  V30 1442 C 138.945 2.34827 -2.44217 0
M  V30 1443 C 137.504 2.88371 -2.41907 0
M  V30 1444 C 136.651 1.62202 -2.24913 0
M  V30 1445 H 139.602 0.507944 -1.50352 0
M  V30 1446 H 139.623 3.15749 -2.12327 0
M  V30 1447 H 139.135 1.85996 -3.40627 0
M  V30 1448 H 137.236 3.41422 -1.49204 0
M  V30 1449 H 137.349 3.39925 -3.37621 0
M  V30 1450 H 135.713 1.874 -1.72492 0
M  V30 1451 H 136.496 1.15391 -3.23326 0
M  V30 1452 N 138.941 1.26152 0.944643 0
M  V30 1453 C 140.181 1.12708 1.70517 0
M  V30 1454 C 140.545 -0.324727 1.89234 0
M  V30 1455 O 141.746 -0.581211 2.62441 0
M  V30 1456 C 140.017 1.8713 3.04495 0
M  V30 1457 S 141.576 1.89698 3.95677 0
M  V30 1458 H 138.394 0.402665 0.585988 0
M  V30 1459 H 140.996 1.59821 1.12594 0
M  V30 1460 H 139.7 2.91833 2.88551 0
M  V30 1461 H 139.231 1.40444 3.67477 0
M  V30 1462 H 141.246 0.981198 4.86402 0
M  V30 1463 N 140.419 -1.14872 1.07899 0
M  V30 1464 C 141.349 -2.2193 0.725887 0
M  V30 1465 C 142.33 -1.67622 -0.28927 0
M  V30 1466 O 143.515 -1.93533 -0.160787 0
M  V30 1467 C 140.645 -3.47061 0.128856 0
M  V30 1468 C 139.599 -4.14363 1.07178 0
M  V30 1469 C 138.925 -5.33636 0.337229 0
M  V30 1470 C 140.225 -4.63492 2.40775 0
M  V30 1471 H 141.919 -2.51724 1.62097 0
M  V30 1472 H 139.465 -1.20991 0.780838 0
M  V30 1473 H 141.418 -4.21199 -0.130147 0
M  V30 1474 H 140.142 -3.16617 -0.80134 0
M  V30 1475 H 138.801 -3.42173 1.3158 0
M  V30 1476 H 138.449 -4.99449 -0.596606 0
M  V30 1477 H 138.149 -5.79609 0.965788 0
M  V30 1478 H 139.673 -6.10539 0.0861567 0
M  V30 1479 H 141.087 -5.2913 2.20669 0
M  V30 1480 H 139.484 -5.20148 2.99276 0
M  V30 1481 H 140.554 -3.78834 3.02676 0
M  V30 1482 N 141.898 -0.863906 -1.31812 0
M  V30 1483 C 143.175 -0.39275 -1.91616 0
M  V30 1484 C 143.555 1.12461 -1.7865 0
M  V30 1485 O 142.903 1.95045 -1.19037 0
M  V30 1486 C 143.113 -0.867385 -3.38049 0
M  V30 1487 C 144.461 -0.889966 -4.15168 0
M  V30 1488 O 145.485 -0.812635 -3.46806 0
M  V30 1489 O 144.344 -1.00079 -5.37258 0
M  V30 1490 H 141.438 -0.116358 -0.818773 0
M  V30 1491 H 143.984 -0.951418 -1.40521 0
M  V30 1492 H 142.756 -1.91081 -3.41473 0
M  V30 1493 H 142.379 -0.286687 -3.96565 0
M  V30 1494 N 143.376 1.44774 -0.622745 0
M  V30 1495 C 144.624 2.01721 -0.123655 0
M  V30 1496 C 144.945 1.49172 1.25589 0
M  V30 1497 O 144.215 0.691974 1.83272 0
M  V30 1498 H 142.795 0.745777 -0.0427225 0
M  V30 1499 H 145.457 1.77382 -0.807559 0
M  V30 1500 H 144.553 3.11984 -0.0849534 0
M  V30 1501 N 144.854 0.36279 1.53368 0
M  V30 1502 C 146.1 -0.220702 2.02199 0
M  V30 1503 C 146.455 -1.46649 1.24546 0
M  V30 1504 O 145.748 -1.88737 0.32996 0
M  V30 1505 C 145.942 -0.568417 3.52851 0
M  V30 1506 C 145.771 0.642126 4.45092 0
M  V30 1507 C 144.541 1.15335 4.91961 0
M  V30 1508 C 146.739 1.50649 4.91741 0
M  V30 1509 N 144.721 2.3242 5.68202 0
M  V30 1510 C 146.092 2.52404 5.66297 0
M  V30 1511 C 148.147 1.52969 4.73819 0
M  V30 1512 C 146.85 3.56331 6.24836 0
M  V30 1513 C 148.876 2.55789 5.33222 0
M  V30 1514 C 148.238 3.56268 6.07662 0
M  V30 1515 H 144.337 -0.0435508 0.780786 0
M  V30 1516 H 146.921 0.506704 1.87991 0
M  V30 1517 H 145.092 -1.2649 3.67226 0
M  V30 1518 H 146.824 -1.13676 3.88407 0
M  V30 1519 H 143.579 0.718412 4.68119 0
M  V30 1520 H 144.003 2.91591 6.10986 0
M  V30 1521 H 148.645 0.766418 4.15795 0
M  V30 1522 H 146.363 4.33543 6.81958 0
M  V30 1523 H 149.949 2.58435 5.21251 0
M  V30 1524 H 148.829 4.34524 6.52808 0
M  V30 1525 N 146.332 -1.57332 0.0918853 0
M  V30 1526 C 147.578 -1.94524 -0.573425 0
M  V30 1527 C 147.911 -0.973578 -1.68033 0
M  V30 1528 O 147.186 -0.00609226 -1.94499 0
M  V30 1529 C 147.469 -3.41858 -1.13161 0
M  V30 1530 C 147.322 -4.4979 -0.0299747 0
M  V30 1531 C 148.641 -3.90435 -2.03098 0
M  V30 1532 H 145.76 -0.70734 -0.206975 0
M  V30 1533 H 148.402 -1.89309 0.161942 0
M  V30 1534 H 146.552 -3.46433 -1.7583 0
M  V30 1535 H 148.224 -4.57327 0.604112 0
M  V30 1536 H 146.467 -4.291 0.636833 0
M  V30 1537 H 147.138 -5.50069 -0.461287 0
M  V30 1538 H 149.614 -3.87992 -1.50338 0
M  V30 1539 H 148.49 -4.94097 -2.39081 0
M  V30 1540 H 148.751 -3.29541 -2.94712 0
M  V30 1541 N 147.81 0.181792 -1.56548 0
M  V30 1542 C 149.04 0.914618 -1.85252 0
M  V30 1543 C 149.448 1.76791 -0.673914 0
M  V30 1544 O 148.791 1.80009 0.366416 0
M  V30 1545 C 148.853 1.85019 -3.08234 0
M  V30 1546 C 148.517 1.17754 -4.41569 0
M  V30 1547 C 149.514 0.548035 -5.17003 0
M  V30 1548 C 147.199 1.17742 -4.88305 0
M  V30 1549 C 149.193 -0.0726128 -6.37359 0
M  V30 1550 C 146.88 0.552946 -6.08593 0
M  V30 1551 C 147.878 -0.070978 -6.82963 0
M  V30 1552 O 147.566 -0.685635 -8.00971 0
M  V30 1553 H 147.298 0.271695 -0.618998 0
M  V30 1554 H 149.852 0.189944 -2.0452 0
M  V30 1555 H 148.082 2.61491 -2.84885 0
M  V30 1556 H 149.771 2.45195 -3.23472 0
M  V30 1557 H 150.537 0.540174 -4.81982 0
M  V30 1558 H 146.416 1.65246 -4.30366 0
M  V30 1559 H 149.96 -0.560213 -6.95347 0
M  V30 1560 H 145.857 0.558354 -6.43081 0
M  V30 1561 H 146.625 -0.58385 -8.16415 0
M  V30 1562 N 149.288 1.51039 0.449983 0
M  V30 1563 C 150.236 1.71995 1.5659 0
M  V30 1564 C 151.23 0.586029 1.5894 0
M  V30 1565 O 152.436 0.76709 1.62837 0
M  V30 1566 H 148.811 0.543233 0.520001 0
M  V30 1567 H 150.782 2.65562 1.36085 0
M  V30 1568 C 149.531 1.8506 2.9436 0
M  V30 1569 H 148.854 2.71712 2.93279 0
M  V30 1570 H 150.294 2.0374 3.71842 0
M  V30 1571 C 148.753 0.607277 3.31382 0
M  V30 1572 O 149.283 -0.243903 4.00959 0
M  V30 1573 N 147.489 0.455073 2.87015 0
M  V30 1574 H 147.036 1.14879 2.30566 0
M  V30 1575 H 146.994 -0.375611 3.12148 0
M  V30 1576 N 150.766 -0.704594 1.40972 0
M  V30 1577 C 151.991 -1.49858 1.43378 0
M  V30 1578 C 152.416 -1.88061 0.038184 0
M  V30 1579 O 151.774 -1.5402 -0.956425 0
M  V30 1580 C 151.822 -2.74333 2.34038 0
M  V30 1581 O 150.926 -3.7147 1.7912 0
M  V30 1582 H 150.267 -0.45139 0.486974 0
M  V30 1583 H 152.797 -0.866832 1.8533 0
M  V30 1584 H 152.807 -3.22741 2.49604 0
M  V30 1585 H 151.482 -2.45863 3.35446 0
M  V30 1586 H 150.059 -3.30363 1.72958 0
M  V30 1587 N 152.244 -1.26651 -0.937939 0
M  V30 1588 C 153.472 -1.15173 -1.7188 0
M  V30 1589 C 153.887 0.292668 -1.86518 0
M  V30 1590 O 153.244 1.20014 -1.37488 0
M  V30 1591 C 153.295 -1.81925 -3.12387 0
M  V30 1592 O 153.016 -3.2072 -2.98446 0
M  V30 1593 C 154.517 -1.76442 -4.06673 0
M  V30 1594 H 151.737 -0.400911 -0.538063 0
M  V30 1595 H 154.281 -1.67332 -1.1756 0
M  V30 1596 H 152.436 -1.33696 -3.63599 0
M  V30 1597 H 152.85 -3.53802 -3.872 0
M  V30 1598 H 154.324 -2.27781 -5.02812 0
M  V30 1599 H 154.801 -0.731608 -4.33064 0
M  V30 1600 H 155.407 -2.24238 -3.61382 0
M  V30 1601 N 153.722 1.14298 -1.08507 0
M  V30 1602 C 154.669 2.19414 -0.715965 0
M  V30 1603 C 155.639 1.63399 0.298326 0
M  V30 1604 O 156.824 1.89929 0.182101 0
M  V30 1605 C 153.964 3.44845 -0.132534 0
M  V30 1606 C 153.077 4.15007 -1.19973 0
M  V30 1607 C 152.212 5.28024 -0.580048 0
M  V30 1608 C 151.251 5.9002 -1.62921 0
M  V30 1609 N 150.388 6.94485 -1.03125 0
M  V30 1610 H 155.228 2.50336 -1.61666 0
M  V30 1611 H 152.765 1.2293 -0.807882 0
M  V30 1612 H 154.723 4.16601 0.223454 0
M  V30 1613 H 153.353 3.14403 0.731467 0
M  V30 1614 H 152.405 3.41629 -1.67313 0
M  V30 1615 H 153.717 4.57178 -1.99473 0
M  V30 1616 H 152.871 6.06455 -0.172364 0
M  V30 1617 H 151.61 4.87076 0.246603 0
M  V30 1618 H 150.615 5.10291 -2.04654 0
M  V30 1619 H 151.84 6.33042 -2.45835 0
M  V30 1620 H 149.786 6.55612 -0.225711 0
M  V30 1621 H 149.703 7.35148 -1.76334 0
M  V30 1622 H 150.971 7.7679 -0.649458 0
M  V30 1623 N 155.201 0.870884 1.31352 0
M  V30 1624 C 156.478 0.402907 1.91405 0
M  V30 1625 C 156.858 -1.11512 1.79244 0
M  V30 1626 O 156.206 -1.94411 1.2007 0
M  V30 1627 C 156.416 0.885301 3.37585 0
M  V30 1628 C 157.764 0.911971 4.14691 0
M  V30 1629 O 158.788 0.831016 3.46371 0
M  V30 1630 O 157.647 1.02927 5.3672 0
M  V30 1631 H 154.741 0.120698 0.818145 0
M  V30 1632 H 157.287 0.958857 1.40014 0
M  V30 1633 H 156.059 1.92889 3.40455 0
M  V30 1634 H 155.682 0.307714 3.96407 0
M  V30 1635 N 156.679 -1.44442 0.630414 0
M  V30 1636 C 157.904 -2.06927 0.139944 0
M  V30 1637 C 158.329 -1.46795 -1.17613 0
M  V30 1638 O 157.687 -0.569144 -1.72135 0
M  V30 1639 C 157.735 -3.6058 0.0379581 0
M  V30 1640 O 156.839 -3.99937 -1.0062 0
M  V30 1641 H 156.18 -0.658608 0.0844483 0
M  V30 1642 H 158.71 -1.85327 0.866891 0
M  V30 1643 H 158.72 -4.07714 -0.152856 0
M  V30 1644 H 157.395 -4.03728 0.998809 0
M  V30 1645 H 155.972 -3.64436 -0.79001 0
M  V30 1646 N 158.157 -0.370918 -1.53173 0
M  V30 1647 C 159.406 0.218249 -2.00516 0
M  V30 1648 C 159.719 1.49429 -1.26215 0
M  V30 1649 O 160.925 2.16239 -1.64174 0
M  V30 1650 C 159.381 0.43948 -3.57207 0
M  V30 1651 C 158.989 -0.822244 -4.4039 0
M  V30 1652 C 160.733 0.986012 -4.1289 0
M  V30 1653 C 158.64 -0.570304 -5.88644 0
M  V30 1654 H 157.57 0.0853333 -0.749156 0
M  V30 1655 H 160.221 -0.490483 -1.76823 0
M  V30 1656 H 158.603 1.20961 -3.77074 0
M  V30 1657 H 159.777 -1.59557 -4.32294 0
M  V30 1658 H 158.092 -1.29238 -3.95836 0
M  V30 1659 H 160.689 1.18991 -5.21292 0
M  V30 1660 H 161.032 1.94972 -3.6782 0
M  V30 1661 H 161.565 0.27592 -3.96842 0
M  V30 1662 H 158.304 -1.50449 -6.38001 0
M  V30 1663 H 157.824 0.164427 -5.99575 0
M  V30 1664 H 159.503 -0.19784 -6.46697 0
M  V30 1665 N 159.635 1.57281 -0.100228 0
M  V30 1666 C 160.881 1.94826 0.563101 0
M  V30 1667 C 161.214 0.982475 1.67514 0
M  V30 1668 O 160.489 0.0164069 1.94493 0
M  V30 1669 C 160.772 3.42453 1.11346 0
M  V30 1670 C 160.625 4.498 0.00612081 0
M  V30 1671 C 161.944 3.91506 2.01024 0
M  V30 1672 H 159.063 0.708428 0.203221 0
M  V30 1673 H 161.705 1.8922 -0.171979 0
M  V30 1674 H 159.855 3.47361 1.7399 0
M  V30 1675 H 161.527 4.57 -0.628357 0
M  V30 1676 H 159.77 4.28756 -0.659581 0
M  V30 1677 H 160.441 5.50306 0.432109 0
M  V30 1678 H 162.917 3.88784 1.48278 0
M  V30 1679 H 161.793 4.95358 2.36457 0
M  V30 1680 H 162.054 3.31099 2.92961 0
M  V30 1681 N 161.113 -0.173488 1.56642 0
M  V30 1682 C 162.341 -0.906095 1.86004 0
M  V30 1683 C 162.756 -1.75921 0.685355 0
M  V30 1684 O 162.113 -1.79198 -0.345578 0
M  V30 1685 C 162.164 -1.78462 3.14378 0
M  V30 1686 O 161.885 -0.965914 4.27319 0
M  V30 1687 C 163.386 -2.62707 3.57071 0
M  V30 1688 H 160.606 -0.263341 0.617165 0
M  V30 1689 H 163.15 -0.174236 2.03756 0
M  V30 1690 H 161.305 -2.46984 2.98459 0
M  V30 1691 H 161.719 -1.56655 5.00559 0
M  V30 1692 H 163.193 -3.19969 4.49804 0
M  V30 1693 H 163.67 -3.37472 2.81086 0
M  V30 1694 H 164.276 -1.99521 3.75595 0
M  V30 1695 N 162.591 -1.51276 -0.441967 0
M  V30 1696 C 163.501 -1.75092 -1.56141 0
M  V30 1697 C 164.517 -0.634963 -1.62001 0
M  V30 1698 O 165.693 -0.916686 -1.79329 0
M  V30 1699 C 162.758 -1.86666 -2.92158 0
M  V30 1700 C 161.819 -3.10506 -2.96453 0
M  V30 1701 C 161.052 -3.21519 -4.25982 0
M  V30 1702 O 161.275 -2.38586 -5.18105 0
M  V30 1703 O 160.209 -4.14465 -4.36466 0
M  V30 1704 H 164.035 -2.70044 -1.38961 0
M  V30 1705 H 161.62 -1.35722 -0.624499 0
M  V30 1706 H 163.502 -1.96292 -3.72891 0
M  V30 1707 H 162.177 -0.949014 -3.09476 0
M  V30 1708 H 161.084 -3.06363 -2.14692 0
M  V30 1709 H 162.417 -4.01945 -2.84079 0
M  V30 1710 N 164.069 0.697108 -1.41344 0
M  V30 1711 C 165.315 1.45796 -1.41828 0
M  V30 1712 C 165.67 1.92382 -0.0261743 0
M  V30 1713 O 164.963 1.66522 0.947688 0
M  V30 1714 C 165.157 2.68553 -2.35826 0
M  V30 1715 C 164.986 2.33975 -3.84039 0
M  V30 1716 C 163.756 2.24414 -4.52732 0
M  V30 1717 C 165.954 1.97048 -4.75054 0
M  V30 1718 N 163.936 1.82705 -5.86082 0
M  V30 1719 C 165.307 1.66086 -5.9734 0
M  V30 1720 C 167.362 1.83845 -4.62715 0
M  V30 1721 C 166.065 1.23246 -7.08663 0
M  V30 1722 C 168.091 1.4241 -5.73998 0
M  V30 1723 C 167.453 1.12357 -6.95381 0
M  V30 1724 H 163.552 0.530859 -0.574206 0
M  V30 1725 H 166.136 0.806674 -1.77203 0
M  V30 1726 H 164.307 3.31404 -2.02549 0
M  V30 1727 H 166.039 3.35015 -2.2704 0
M  V30 1728 H 162.794 2.4276 -4.0665 0
M  V30 1729 H 163.218 1.64337 -6.56751 0
M  V30 1730 H 167.86 2.05734 -3.69369 0
M  V30 1731 H 165.578 1.00102 -8.01876 0
M  V30 1732 H 169.164 1.32746 -5.66454 0
M  V30 1733 H 168.044 0.807795 -7.80028 0
M  V30 1734 N 165.547 1.27147 0.931209 0
M  V30 1735 C 166.824 1.0401 1.65654 0
M  V30 1736 C 167.204 -0.426297 2.06751 0
M  V30 1737 O 166.552 -1.40879 1.79904 0
M  V30 1738 C 166.762 1.99834 2.86125 0
M  V30 1739 C 168.11 2.29007 3.57549 0
M  V30 1740 O 169.134 1.97779 2.96246 0
M  V30 1741 O 167.993 2.82222 4.67989 0
M  V30 1742 H 165.087 0.396239 0.725895 0
M  V30 1743 H 167.633 1.38397 0.982056 0
M  V30 1744 H 166.405 2.98744 2.52721 0
M  V30 1745 H 166.028 1.65987 3.61295 0
M  V30 1746 N 167.025 -1.13721 1.09112 0
M  V30 1747 C 167.955 -2.21148 0.749385 0
M  V30 1748 C 168.936 -1.6792 -0.271475 0
M  V30 1749 O 170.121 -1.93693 -0.140251 0
M  V30 1750 C 167.251 -3.46905 0.165659 0
M  V30 1751 C 166.205 -4.13203 1.11567 0
M  V30 1752 C 165.531 -5.33248 0.393809 0
M  V30 1753 C 166.831 -4.60912 2.45678 0
M  V30 1754 H 168.525 -2.4999 1.64758 0
M  V30 1755 H 166.071 -1.20156 0.793626 0
M  V30 1756 H 168.024 -4.21313 -0.085466 0
M  V30 1757 H 166.748 -3.17449 -0.767714 0
M  V30 1758 H 165.407 -3.40758 1.35202 0
M  V30 1759 H 165.055 -5.00054 -0.543599 0
M  V30 1760 H 164.755 -5.78552 1.02721 0
M  V30 1761 H 166.279 -6.10413 0.150908 0
M  V30 1762 H 167.693 -5.26759 2.26269 0
M  V30 1763 H 166.09 -5.16944 3.04776 0
M  V30 1764 H 167.16 -3.75603 3.06677 0
M  V30 1765 N 168.503 -0.877838 -1.30888 0
M  V30 1766 C 169.749 -0.493426 -1.96706 0
M  V30 1767 C 170.082 0.953504 -1.6918 0
M  V30 1768 O 169.357 1.67266 -0.992594 0
M  V30 1769 C 169.64 -0.760429 -3.51979 0
M  V30 1770 C 169.493 -2.25747 -3.89048 0
M  V30 1771 C 170.812 -0.232148 -4.39487 0
M  V30 1772 H 167.931 -0.180746 -0.714493 0
M  V30 1773 H 170.573 -1.10052 -1.54882 0
M  V30 1774 H 168.723 -0.243715 -3.87735 0
M  V30 1775 H 170.395 -2.84204 -3.63354 0
M  V30 1776 H 168.638 -2.72694 -3.37373 0
M  V30 1777 H 169.309 -2.39491 -4.97341 0
M  V30 1778 H 171.785 -0.674314 -4.106 0
M  V30 1779 H 170.661 -0.448355 -5.47066 0
M  V30 1780 H 170.922 0.866297 -4.33529 0
M  V30 1781 N 169.982 1.44106 -0.638065 0
M  V30 1782 C 171.222 2.03858 -0.148733 0
M  V30 1783 C 171.586 1.49153 1.20903 0
M  V30 1784 O 172.787 2.00452 1.79088 0
M  V30 1785 C 171.058 3.57117 -0.142314 0
M  V30 1786 S 172.617 4.37897 0.281385 0
M  V30 1787 H 169.435 0.708069 -0.0644912 0
M  V30 1788 H 172.037 1.7639 -0.843009 0
M  V30 1789 H 170.741 3.94436 -1.13349 0
M  V30 1790 H 170.272 3.89205 0.572988 0
M  V30 1791 H 172.287 4.72218 1.52395 0
M  V30 1792 N 171.46 0.379036 1.52974 0
M  V30 1793 C 172.408 -0.476033 2.27677 0
M  V30 1794 C 173.402 -1.0719 1.31174 0
M  V30 1795 O 174.608 -1.01355 1.48752 0
M  V30 1796 H 170.983 -0.172255 0.732006 0
M  V30 1797 H 172.954 0.175615 2.97883 0
M  V30 1798 C 171.703 -1.5967 3.0887 0
M  V30 1799 H 171.026 -1.1475 3.82978 0
M  V30 1800 H 172.466 -2.16943 3.64296 0
M  V30 1801 C 170.925 -2.54682 2.20542 0
M  V30 1802 O 171.455 -3.57836 1.82527 0
M  V30 1803 N 169.661 -2.24183 1.84907 0
M  V30 1804 H 169.208 -1.40333 2.1602 0
M  V30 1805 H 169.166 -2.88006 1.26096 0
M  V30 1806 N 172.938 -1.57226 0.108567 0
M  V30 1807 C 174.163 -1.99604 -0.563303 0
M  V30 1808 C 174.588 -0.987563 -1.6009 0
M  V30 1809 O 173.946 0.0421687 -1.81251 0
M  V30 1810 C 173.994 -3.40902 -1.17552 0
M  V30 1811 O 173.098 -3.42896 -2.2912 0
M  V30 1812 H 172.439 -0.648704 -0.1417 0
M  V30 1813 H 174.969 -2.03679 0.193961 0
M  V30 1814 H 174.979 -3.78886 -1.51357 0
M  V30 1815 H 173.654 -4.1382 -0.415445 0
M  V30 1816 H 172.231 -3.1672 -1.96832 0
M  V30 1817 N 174.416 0.165178 -1.56732 0
M  V30 1818 C 175.364 1.22369 -1.97809 0
M  V30 1819 C 176.358 1.45488 -0.867741 0
M  V30 1820 O 177.564 1.45995 -1.05288 0
M  V30 1821 H 173.939 0.411486 -0.629431 0
M  V30 1822 H 175.91 0.850425 -2.86025 0
M  V30 1823 C 174.659 2.55403 -2.35934 0
M  V30 1824 H 173.982 2.38438 -3.20916 0
M  V30 1825 H 175.422 3.2814 -2.68514 0
M  V30 1826 C 173.881 3.14611 -1.20506 0
M  V30 1827 O 174.411 3.98626 -0.496016 0
M  V30 1828 N 172.617 2.7379 -0.97403 0
M  V30 1829 H 172.164 2.0557 -1.55238 0
M  V30 1830 H 172.122 3.1374 -0.203573 0
M  V30 1831 N 175.894 1.51508 0.433938 0
M  V30 1832 C 176.841 1.73068 1.52696 0
M  V30 1833 C 177.811 0.572441 1.55924 0
M  V30 1834 O 178.996 0.807253 1.72882 0
M  V30 1835 C 176.136 1.86474 2.90381 0
M  V30 1836 C 175.249 3.14037 2.96656 0
M  V30 1837 C 174.384 3.18019 4.25485 0
M  V30 1838 C 173.423 4.39882 4.2564 0
M  V30 1839 N 172.56 4.41394 5.45999 0
M  V30 1840 H 177.4 2.66366 1.33615 0
M  V30 1841 H 174.937 1.32008 0.649018 0
M  V30 1842 H 176.895 1.92229 3.70275 0
M  V30 1843 H 175.525 0.965809 3.08013 0
M  V30 1844 H 174.577 3.17575 2.09404 0
M  V30 1845 H 175.889 4.0394 2.92633 0
M  V30 1846 H 175.043 3.22708 5.13755 0
M  V30 1847 H 173.782 2.2601 4.3217 0
M  V30 1848 H 172.787 4.35366 3.35763 0
M  V30 1849 H 174.012 5.33159 4.20617 0
M  V30 1850 H 171.958 3.52258 5.53399 0
M  V30 1851 H 171.875 5.25111 5.4387 0
M  V30 1852 H 173.143 4.50281 6.36292 0
M  V30 1853 N 177.372 -0.689602 1.41712 0
M  V30 1854 C 178.302 -1.81577 1.46806 0
M  V30 1855 C 179.283 -1.66945 0.326105 0
M  V30 1856 O 180.468 -1.86588 0.538377 0
M  V30 1857 C 177.598 -3.19762 1.35535 0
M  V30 1858 C 176.552 -3.49107 2.47605 0
M  V30 1859 C 175.878 -4.86711 2.21397 0
M  V30 1860 C 177.178 -3.47483 3.89939 0
M  V30 1861 H 178.872 -1.7757 2.41058 0
M  V30 1862 H 176.418 -0.852887 1.16025 0
M  V30 1863 H 178.371 -3.98263 1.3771 0
M  V30 1864 H 177.095 -3.24409 0.377708 0
M  V30 1865 H 175.754 -2.72959 2.44722 0
M  V30 1866 H 175.402 -4.8799 1.21961 0
M  V30 1867 H 175.102 -5.0731 2.96497 0
M  V30 1868 H 176.626 -5.67515 2.25297 0
M  V30 1869 H 178.04 -4.1598 3.94505 0
M  V30 1870 H 176.437 -3.79615 4.64771 0
M  V30 1871 H 177.507 -2.46341 4.17665 0
M  V30 1872 N 178.85 -1.27639 -0.924453 0
M  V30 1873 C 179.797 -1.10644 -2.0255 0
M  V30 1874 C 180.767 -0.00658438 -1.66099 0
M  V30 1875 O 181.952 -0.16952 -1.90045 0
M  V30 1876 C 179.092 -0.76309 -3.36557 0
M  V30 1877 C 178.205 -1.94091 -3.85944 0
M  V30 1878 C 177.34 -1.53914 -5.08413 0
M  V30 1879 C 176.379 -2.68425 -5.50104 0
M  V30 1880 N 175.516 -2.28815 -6.63768 0
M  V30 1881 H 180.356 -2.04858 -2.16419 0
M  V30 1882 H 177.893 -1.01974 -1.06017 0
M  V30 1883 H 179.851 -0.544822 -4.13627 0
M  V30 1884 H 178.481 0.142102 -3.22487 0
M  V30 1885 H 177.533 -2.27162 -3.05125 0
M  V30 1886 H 178.845 -2.7998 -4.12811 0
M  V30 1887 H 177.999 -1.28231 -5.92994 0
M  V30 1888 H 176.738 -0.651391 -4.8333 0
M  V30 1889 H 175.743 -2.94819 -4.64071 0
M  V30 1890 H 176.968 -3.57826 -5.7718 0
M  V30 1891 H 174.914 -1.42495 -6.40337 0
M  V30 1892 H 174.831 -3.08242 -6.90306 0
M  V30 1893 H 176.099 -2.06387 -7.51681 0
M  V30 1894 N 180.328 1.1314 -1.09713 0
M  V30 1895 C 181.238 2.22242 -0.751367 0
M  V30 1896 C 182.254 1.72224 0.247938 0
M  V30 1897 O 183.43 2.01205 0.0885463 0
M  V30 1898 C 180.495 3.46231 -0.180274 0
M  V30 1899 C 179.556 4.11125 -1.2359 0
M  V30 1900 C 178.789 5.29195 -0.691966 0
M  V30 1901 O 179.012 5.68342 0.48414 0
M  V30 1902 O 177.946 5.84214 -1.44838 0
M  V30 1903 H 181.772 2.54197 -1.66186 0
M  V30 1904 H 179.357 1.21331 -0.871735 0
M  V30 1905 H 181.239 4.21185 0.134739 0
M  V30 1906 H 179.914 3.1597 0.703185 0
M  V30 1907 H 178.821 3.37985 -1.60366 0
M  V30 1908 H 180.154 4.45524 -2.09211 0
M  V30 1909 N 181.806 0.884767 1.30421 0
M  V30 1910 C 182.739 0.295999 2.26272 0
M  V30 1911 C 183.717 -0.58332 1.51777 0
M  V30 1912 O 184.901 -0.53346 1.80794 0
M  V30 1913 C 182.028 -0.57944 3.33707 0
M  V30 1914 C 181.074 0.230525 4.25877 0
M  V30 1915 S 181.907 1.61867 5.1045 0
M  V30 1916 C 183.063 0.749756 6.21393 0
M  V30 1917 H 183.296 1.10848 2.75862 0
M  V30 1918 H 180.829 0.684178 1.38414 0
M  V30 1919 H 182.787 -1.07879 3.96071 0
M  V30 1920 H 181.448 -1.36601 2.82841 0
M  V30 1921 H 180.641 -0.437542 5.02097 0
M  V30 1922 H 180.243 0.662493 3.68086 0
M  V30 1923 H 182.535 -0.0333547 6.77492 0
M  V30 1924 H 183.478 1.48356 6.92384 0
M  V30 1925 H 183.886 0.310751 5.63644 0
M  V30 1926 N 183.284 -1.43765 0.645699 0
M  V30 1927 C 184.247 -2.29163 -0.0409488 0
M  V30 1928 C 185.247 -1.41813 -0.757996 0
M  V30 1929 O 186.437 -1.63527 -0.600382 0
M  V30 1930 C 183.569 -3.23716 -1.06869 0
M  V30 1931 H 184.762 -2.91366 0.710345 0
M  V30 1932 H 182.315 -1.5092 0.406547 0
M  V30 1933 H 183.05 -2.66393 -1.84947 0
M  V30 1934 H 182.835 -3.88105 -0.558277 0
M  V30 1935 H 184.325 -3.87831 -1.54845 0
M  V30 1936 N 184.763 -0.387143 -1.52771 0
M  V30 1937 C 185.695 0.484089 -2.2403 0
M  V30 1938 C 186.708 1.02849 -1.26198 0
M  V30 1939 O 187.897 0.931186 -1.52286 0
M  V30 1940 C 184.997 1.68337 -2.94136 0
M  V30 1941 C 184.17 1.26672 -4.18656 0
M  V30 1942 C 183.229 2.33045 -4.7178 0
M  V30 1943 O 182.255 1.94541 -5.34923 0
M  V30 1944 N 183.457 3.64929 -4.5145 0
M  V30 1945 H 186.222 -0.126404 -2.99433 0
M  V30 1946 H 183.783 -0.213392 -1.60488 0
M  V30 1947 H 185.775 2.39019 -3.26577 0
M  V30 1948 H 184.345 2.20025 -2.22053 0
M  V30 1949 H 183.565 0.388878 -3.92277 0
M  V30 1950 H 184.853 0.964964 -4.99566 0
M  V30 1951 H 184.251 3.98974 -4.01044 0
M  V30 1952 H 182.808 4.31651 -4.88386 0
M  V30 1953 N 186.241 1.57166 -0.116904 0
M  V30 1954 C 187.466 1.999 0.55271 0
M  V30 1955 C 187.891 0.996039 1.59564 0
M  V30 1956 O 187.249 -0.032556 1.81271 0
M  V30 1957 C 187.297 3.4152 1.15742 0
M  V30 1958 O 186.401 3.44106 2.27299 0
M  V30 1959 H 185.742 0.649447 0.138258 0
M  V30 1960 H 188.272 2.03573 -0.204759 0
M  V30 1961 H 188.282 3.79684 1.49346 0
M  V30 1962 H 186.957 4.14034 0.393493 0
M  V30 1963 H 185.534 3.17759 1.9515 0
M  V30 1964 N 187.719 -0.156864 1.56817 0
M  V30 1965 C 188.968 -0.869504 1.81996 0
M  V30 1966 C 189.281 -1.82777 0.696545 0
M  V30 1967 O 190.487 -2.58384 0.833658 0
M  V30 1968 C 188.943 -1.59679 3.22538 0
M  V30 1969 C 188.551 -0.681431 4.42787 0
M  V30 1970 C 190.295 -2.2968 3.56997 0
M  V30 1971 C 188.202 -1.40978 5.74351 0
M  V30 1972 H 187.132 -0.328438 0.678708 0
M  V30 1973 H 189.783 -0.1223 1.83092 0
M  V30 1974 H 188.165 -2.38927 3.158 0
M  V30 1975 H 189.339 0.0751166 4.60739 0
M  V30 1976 H 187.654 -0.0903431 4.16302 0
M  V30 1977 H 190.251 -2.84794 4.52544 0
M  V30 1978 H 190.594 -3.05707 2.82576 0
M  V30 1979 H 191.127 -1.57361 3.65352 0
M  V30 1980 H 187.866 -0.691561 6.51842 0
M  V30 1981 H 187.386 -2.13929 5.60352 0
M  V30 1982 H 189.065 -1.95337 6.16808 0
M  V30 1983 N 189.197 -1.51736 -0.425897 0
M  V30 1984 C 190.444 -1.6497 -1.17436 0
M  V30 1985 C 190.772 -0.371445 -1.9092 0
M  V30 1986 O 190.027 0.644963 -1.84767 0
M  V30 1987 C 190.326 -2.81103 -2.20717 0
M  V30 1988 C 189.992 -4.19954 -1.64162 0
M  V30 1989 C 188.654 -4.57725 -1.48462 0
M  V30 1990 C 191.006 -5.06552 -1.22696 0
M  V30 1991 C 188.334 -5.79789 -0.897873 0
M  V30 1992 C 190.686 -6.29205 -0.654464 0
M  V30 1993 C 189.35 -6.6574 -0.484456 0
M  V30 1994 H 188.62 -0.603668 -0.429727 0
M  V30 1995 H 191.267 -1.85798 -0.463829 0
M  V30 1996 H 189.572 -2.54542 -2.97852 0
M  V30 1997 H 191.269 -2.8854 -2.78471 0
M  V30 1998 H 187.859 -3.90181 -1.77361 0
M  V30 1999 H 192.043 -4.77968 -1.33642 0
M  V30 2000 H 187.299 -6.06733 -0.75402 0
M  V30 2001 H 191.473 -6.95643 -0.324694 0
M  V30 2002 H 189.1 -7.60195 -0.0276833 0
M  V30 2003 N 190.675 0.682077 -1.42076 0
M  V30 2004 C 191.608 1.80666 -1.3941 0
M  V30 2005 C 192.586 1.60518 -0.25939 0
M  V30 2006 O 193.77 1.83088 -0.448456 0
M  V30 2007 C 190.897 3.17556 -1.17796 0
M  V30 2008 C 189.943 3.56468 -2.34164 0
M  V30 2009 S 190.776 3.59729 -3.96681 0
M  V30 2010 C 191.932 4.99323 -3.77395 0
M  V30 2011 H 192.165 1.82652 -2.34575 0
M  V30 2012 H 189.698 0.852062 -1.2876 0
M  V30 2013 H 191.656 3.96575 -1.06012 0
M  V30 2014 H 190.317 3.13164 -0.242279 0
M  V30 2015 H 189.51 4.5595 -2.1477 0
M  V30 2016 H 189.112 2.84792 -2.42425 0
M  V30 2017 H 191.404 5.87202 -3.37935 0
M  V30 2018 H 192.347 5.23763 -4.76527 0
M  V30 2019 H 192.755 4.71498 -3.10403 0
M  V30 2020 N 192.153 1.28127 0.917671 0
M  V30 2021 C 193.116 1.11744 2.00115 0
M  V30 2022 C 194.116 0.0583052 1.60694 0
M  V30 2023 O 195.306 0.303755 1.71531 0
M  V30 2024 C 192.438 0.704862 3.33533 0
M  V30 2025 H 193.631 2.07966 2.16079 0
M  V30 2026 H 191.184 1.11058 1.09981 0
M  V30 2027 H 191.919 -0.258299 3.2327 0
M  V30 2028 H 191.704 1.4699 3.63505 0
M  V30 2029 H 193.194 0.612768 4.1308 0
M  V30 2030 N 193.631 -1.12557 1.10312 0
M  V30 2031 C 194.879 -1.83675 0.843091 0
M  V30 2032 C 195.2 -1.84435 -0.633131 0
M  V30 2033 O 194.47 -1.30657 -1.45964 0
M  V30 2034 H 193.05 -0.680138 0.308904 0
M  V30 2035 H 195.712 -1.36301 1.39313 0
M  V30 2036 H 194.808 -2.87908 1.2048 0
M  V30 2037 N 195.109 -0.891671 -1.2995 0
M  V30 2038 C 196.358 -0.509521 -1.95158 0
M  V30 2039 C 196.671 0.947388 -1.71125 0
M  V30 2040 O 197.877 1.43669 -2.30372 0
M  V30 2041 C 196.333 -0.860315 -3.49466 0
M  V30 2042 C 195.941 -2.33545 -3.8231 0
M  V30 2043 C 197.685 -0.547687 -4.20952 0
M  V30 2044 C 195.592 -2.62752 -5.29826 0
M  V30 2045 H 194.522 -0.18682 -0.730489 0
M  V30 2046 H 197.173 -1.08756 -1.47798 0
M  V30 2047 H 195.555 -0.211285 -3.95436 0
M  V30 2048 H 196.729 -3.02936 -3.47227 0
M  V30 2049 H 195.044 -2.61629 -3.23944 0
M  V30 2050 H 197.641 -0.742854 -5.29515 0
M  V30 2051 H 197.984 0.51332 -4.13123 0
M  V30 2052 H 198.517 -1.1542 -3.80688 0
M  V30 2053 H 195.256 -3.6762 -5.42712 0
M  V30 2054 H 194.776 -1.97977 -5.66185 0
M  V30 2055 H 196.455 -2.48601 -5.97333 0
M  V30 2056 N 196.587 1.43421 -0.653314 0
M  V30 2057 C 197.517 2.33487 0.0246656 0
M  V30 2058 C 198.498 1.49475 0.811863 0
M  V30 2059 O 199.683 1.78139 0.773322 0
M  V30 2060 C 196.813 3.32841 0.99166 0
M  V30 2061 C 195.767 4.26842 0.314568 0
M  V30 2062 C 195.093 5.16236 1.39302 0
M  V30 2063 C 196.393 5.16243 -0.793095 0
M  V30 2064 H 198.087 2.90427 -0.727481 0
M  V30 2065 H 195.633 1.39649 -0.351287 0
M  V30 2066 H 197.586 3.94747 1.47487 0
M  V30 2067 H 196.31 2.74158 1.77497 0
M  V30 2068 H 194.969 3.663 -0.148199 0
M  V30 2069 H 194.617 4.53891 2.16776 0
M  V30 2070 H 194.317 5.79948 0.945223 0
M  V30 2071 H 195.841 5.81015 1.87759 0
M  V30 2072 H 197.255 5.71958 -0.392039 0
M  V30 2073 H 195.652 5.88676 -1.16536 0
M  V30 2074 H 196.722 4.55927 -1.65103 0
M  V30 2075 N 198.065 0.39524 1.52563 0
M  V30 2076 C 199.314 -0.186321 2.00838 0
M  V30 2077 C 199.627 -1.47402 1.28577 0
M  V30 2078 O 200.833 -2.13599 1.67593 0
M  V30 2079 C 199.289 -0.382595 3.57861 0
M  V30 2080 C 198.897 0.892202 4.39026 0
M  V30 2081 C 200.641 -0.9202 4.14406 0
M  V30 2082 C 198.548 0.66388 5.87662 0
M  V30 2083 H 197.478 -0.0734041 0.750418 0
M  V30 2084 H 200.129 0.518552 1.76021 0
M  V30 2085 H 198.511 -1.14946 3.7895 0
M  V30 2086 H 199.685 1.66414 4.29701 0
M  V30 2087 H 198 1.35519 3.9373 0
M  V30 2088 H 200.597 -1.10683 5.23119 0
M  V30 2089 H 200.94 -1.89096 3.70875 0
M  V30 2090 H 201.473 -0.212751 3.97231 0
M  V30 2091 H 198.212 1.6058 6.35527 0
M  V30 2092 H 197.732 -0.0690193 5.9976 0
M  V30 2093 H 199.411 0.300699 6.46301 0
M  V30 2094 N 199.544 -1.57102 0.125237 0
M  V30 2095 C 200.792 -1.95021 -0.530198 0
M  V30 2096 C 201.113 -1.00982 -1.66816 0
M  V30 2097 O 200.383 -0.0672693 -1.95784 0
M  V30 2098 H 198.963 -0.720046 -0.198853 0
M  V30 2099 H 201.625 -1.93916 0.19564 0
M  V30 2100 H 200.721 -2.98211 -0.920681 0
M  V30 2101 N 201.022 0.148545 -1.56898 0
M  V30 2102 C 202.27 0.859717 -1.82902 0
M  V30 2103 C 202.591 1.81775 -0.70588 0
M  V30 2104 O 201.861 1.93994 0.272586 0
M  V30 2105 H 200.441 0.320469 -0.674766 0
M  V30 2106 H 203.103 0.142918 -1.94375 0
M  V30 2107 H 202.199 1.4229 -2.77777 0
M  V30 2108 N 202.5 1.5196 0.417844 0
M  V30 2109 C 203.43 1.77634 1.51554 0
M  V30 2110 C 204.411 0.626918 1.58126 0
M  V30 2111 O 205.596 0.871632 1.7354 0
M  V30 2112 C 202.726 1.91911 2.8946 0
M  V30 2113 C 201.68 3.07463 2.97743 0
M  V30 2114 C 201.006 3.06951 4.37819 0
M  V30 2115 C 202.306 4.47082 2.70027 0
M  V30 2116 H 204 2.6955 1.3032 0
M  V30 2117 H 201.546 1.29706 0.625492 0
M  V30 2118 H 203.499 2.08455 3.6623 0
M  V30 2119 H 202.223 0.966598 3.11969 0
M  V30 2120 H 200.882 2.90656 2.23416 0
M  V30 2121 H 200.53 2.09438 4.57323 0
M  V30 2122 H 200.23 3.84556 4.44286 0
M  V30 2123 H 201.754 3.25613 5.16535 0
M  V30 2124 H 203.168 4.6414 3.36522 0
M  V30 2125 H 201.565 5.2654 2.87881 0
M  V30 2126 H 202.635 4.55777 1.65514 0
M  V30 2127 N 203.978 -0.674533 1.42435 0
M  V30 2128 C 205.224 -1.43671 1.43131 0
M  V30 2129 C 205.557 -1.94142 0.0476021 0
M  V30 2130 O 204.832 -1.70924 -0.928188 0
M  V30 2131 C 205.115 -2.63355 2.45594 0
M  V30 2132 C 204.968 -2.18514 3.93156 0
M  V30 2133 C 206.287 -3.65571 2.45043 0
M  V30 2134 H 203.406 -0.521077 0.521198 0
M  V30 2135 H 206.048 -0.766551 1.7385 0
M  V30 2136 H 204.198 -3.2053 2.19528 0
M  V30 2137 H 205.87 -1.66504 4.30202 0
M  V30 2138 H 204.113 -1.50086 4.07009 0
M  V30 2139 H 204.784 -3.04484 4.60428 0
M  V30 2140 H 207.26 -3.18113 2.68223 0
M  V30 2141 H 206.136 -4.46893 3.18713 0
M  V30 2142 H 206.397 -4.16716 1.47649 0
M  V30 2143 N 205.456 -1.28612 -0.910864 0
M  V30 2144 C 206.386 -1.15326 -2.03032 0
M  V30 2145 C 207.367 -0.0502924 -1.70026 0
M  V30 2146 O 208.552 -0.227797 -1.92859 0
M  V30 2147 C 205.682 -0.817343 -3.37545 0
M  V30 2148 C 204.636 -1.8754 -3.84724 0
M  V30 2149 C 203.962 -1.39305 -5.16235 0
M  V30 2150 C 205.262 -3.28244 -4.06267 0
M  V30 2151 H 206.956 -2.08975 -2.14406 0
M  V30 2152 H 204.502 -1.00612 -1.03021 0
M  V30 2153 H 206.455 -0.711151 -4.15356 0
M  V30 2154 H 205.179 0.154846 -3.26233 0
M  V30 2155 H 203.838 -1.97079 -3.09121 0
M  V30 2156 H 203.486 -0.409846 -5.01328 0
M  V30 2157 H 203.186 -2.10057 -5.48771 0
M  V30 2158 H 204.71 -1.30014 -5.96598 0
M  V30 2159 H 206.124 -3.21611 -4.74594 0
M  V30 2160 H 204.521 -3.96855 -4.5014 0
M  V30 2161 H 205.591 -3.72048 -3.10979 0
M  V30 2162 N 206.934 1.1197 -1.10907 0
M  V30 2163 C 208.182 1.83225 -0.852819 0
M  V30 2164 C 208.503 1.84769 0.623341 0
M  V30 2165 O 207.773 1.3143 1.45269 0
M  V30 2166 H 206.353 0.67849 -0.312507 0
M  V30 2167 H 209.015 1.3556 -1.40033 0
M  V30 2168 H 208.111 2.87265 -1.22005 0
M  V30 2169 N 208.412 0.89855 1.29475 0
M  V30 2170 C 209.689 0.443416 1.90508 0
M  V30 2171 C 210.069 -1.07685 1.81569 0
M  V30 2172 O 209.417 -1.9182 1.24166 0
M  V30 2173 C 209.627 0.956708 3.35631 0
M  V30 2174 C 210.975 0.999728 4.12663 0
M  V30 2175 O 211.999 0.904299 3.4453 0
M  V30 2176 O 210.858 1.14289 5.34416 0
M  V30 2177 H 207.952 0.138025 0.815401 0
M  V30 2178 H 210.498 0.98834 1.37949 0
M  V30 2179 H 209.27 2.00067 3.36287 0
M  V30 2180 H 208.893 0.391728 3.95666 0
M  V30 2181 N 209.89 -1.43072 0.660911 0
M  V30 2182 C 210.82 -2.33497 -0.0122829 0
M  V30 2183 C 211.801 -1.49903 -0.803925 0
M  V30 2184 O 212.986 -1.78546 -0.763864 0
M  V30 2185 C 210.116 -3.33363 -0.973994 0
M  V30 2186 C 209.07 -4.27003 -0.291928 0
M  V30 2187 C 208.396 -5.16967 -1.36562 0
M  V30 2188 C 209.696 -5.15816 0.820462 0
M  V30 2189 H 211.39 -2.90038 0.742873 0
M  V30 2190 H 208.936 -1.39461 0.358688 0
M  V30 2191 H 210.889 -3.95524 -1.45392 0
M  V30 2192 H 209.613 -2.75095 -1.7604 0
M  V30 2193 H 208.272 -3.66217 0.167623 0
M  V30 2194 H 207.92 -4.55034 -2.14366 0
M  V30 2195 H 207.62 -5.80441 -0.914454 0
M  V30 2196 H 209.144 -5.82003 -1.84675 0
M  V30 2197 H 210.558 -5.71742 0.422366 0
M  V30 2198 H 208.955 -5.8805 1.19656 0
M  V30 2199 H 210.025 -4.55045 1.67518 0
M  V30 2200 N 211.368 -0.403325 -1.52352 0
M  V30 2201 C 212.593 0.176499 -2.06648 0
M  V30 2202 C 213.018 1.38577 -1.27193 0
M  V30 2203 O 212.376 1.7879 -0.300637 0
M  V30 2204 C 212.424 0.511061 -3.5696 0
M  V30 2205 O 211.528 1.60294 -3.79973 0
M  V30 2206 H 210.869 0.0167337 -0.663789 0
M  V30 2207 H 213.399 -0.574848 -1.96359 0
M  V30 2208 H 213.409 0.771362 -4.00642 0
M  V30 2209 H 212.084 -0.37296 -4.14224 0
M  V30 2210 H 210.661 1.33526 -3.48174 0
M  V30 2211 N 212.846 1.57033 -0.133567 0
M  V30 2212 C 214.123 1.87256 0.56522 0
M  V30 2213 C 214.503 1.03726 1.83859 0
M  V30 2214 O 213.851 0.120247 2.28183 0
M  V30 2215 C 214.061 3.3865 0.843636 0
M  V30 2216 C 215.409 4.07574 1.19032 0
M  V30 2217 O 216.433 3.43752 0.933429 0
M  V30 2218 O 215.292 5.20259 1.67312 0
M  V30 2219 H 212.386 0.775678 0.286796 0
M  V30 2220 H 214.932 1.68855 -0.169168 0
M  V30 2221 H 213.704 3.91257 -0.0581149 0
M  V30 2222 H 213.327 3.62532 1.63268 0
M  V30 2223 N 214.325 -0.140222 1.56975 0
M  V30 2224 C 215.741 -0.493088 1.51792 0
M  V30 2225 C 215.941 -1.83013 0.843116 0
M  V30 2226 O 214.997 -2.49041 0.416493 0
M  V30 2227 C 216.31 -0.497144 2.96562 0
M  V30 2228 C 217.858 -0.582186 3.07538 0
M  V30 2229 C 218.333 -0.616838 4.53827 0
M  V30 2230 N 219.824 -0.678873 4.58198 0
M  V30 2231 C 220.559 -0.726782 5.68775 0
M  V30 2232 N 220.055 -0.733623 6.88905 0
M  V30 2233 N 221.848 -0.768179 5.56826 0
M  V30 2234 H 213.999 0.736108 1.99237 0
M  V30 2235 H 216.262 0.269182 0.90898 0
M  V30 2236 H 215.968 0.417217 3.49217 0
M  V30 2237 H 215.842 -1.33263 3.52875 0
M  V30 2238 H 218.229 -1.48697 2.54899 0
M  V30 2239 H 218.31 0.280581 2.54257 0
M  V30 2240 H 217.954 0.283812 5.07106 0
M  V30 2241 H 217.884 -1.49619 5.04898 0
M  V30 2242 H 220.375 -0.68061 3.7172 0
M  V30 2243 H 220.688 -0.772215 7.68932 0
M  V30 2244 H 219.033 -0.701389 6.91452 0
M  V30 2245 H 222.224 -0.760051 4.61888 0
M  V30 2246 H 222.397 -0.80205 6.43017 0
M  V30 2247 N 215.803 -1.52179 -0.40978 0
M  V30 2248 C 217.05 -1.66206 -1.15679 0
M  V30 2249 C 217.378 -0.391674 -1.90516 0
M  V30 2250 O 216.633 0.62533 -1.8544 0
M  V30 2251 C 216.932 -2.83428 -2.17723 0
M  V30 2252 C 216.598 -4.21672 -1.59699 0
M  V30 2253 C 215.26 -4.59274 -1.43599 0
M  V30 2254 C 217.612 -5.07825 -1.17317 0
M  V30 2255 C 214.94 -5.80709 -0.836328 0
M  V30 2256 C 217.292 -6.29864 -0.587691 0
M  V30 2257 C 215.956 -6.66216 -0.413818 0
M  V30 2258 H 215.226 -0.608192 -0.423301 0
M  V30 2259 H 217.873 -1.86279 -0.444097 0
M  V30 2260 H 216.178 -2.57687 -2.95135 0
M  V30 2261 H 217.875 -2.91477 -2.75394 0
M  V30 2262 H 214.465 -3.9204 -1.73213 0
M  V30 2263 H 218.649 -4.79359 -1.28565 0
M  V30 2264 H 213.905 -6.07498 -0.689626 0
M  V30 2265 H 218.079 -6.95948 -0.250894 0
M  V30 2266 H 215.706 -7.60182 0.0529471 0
M  V30 2267 N 217.281 0.66697 -1.42791 0
M  V30 2268 C 218.529 1.42417 -1.43394 0
M  V30 2269 C 218.85 1.94925 -0.0542373 0
M  V30 2270 O 218.12 1.73564 0.908415 0
M  V30 2271 H 216.7 0.528515 -0.527902 0
M  V30 2272 H 219.362 0.787562 -1.78279 0
M  V30 2273 H 218.458 2.27333 -2.13837 0
M  V30 2274 N 218.759 1.29093 0.90403 0
M  V30 2275 C 220.175 1.07011 1.1841 0
M  V30 2276 C 220.375 -0.181358 2.00682 0
M  V30 2277 O 219.431 -0.880331 2.36657 0
M  V30 2278 C 220.744 2.32311 1.90924 0
M  V30 2279 C 222.292 2.37587 2.03768 0
M  V30 2280 C 222.767 3.62679 2.79693 0
M  V30 2281 N 224.258 3.63376 2.87249 0
M  V30 2282 C 224.993 4.56848 3.46522 0
M  V30 2283 N 224.489 5.60648 4.06996 0
M  V30 2284 N 226.282 4.44426 3.44154 0
M  V30 2285 H 218.433 2.09412 0.354993 0
M  V30 2286 H 220.696 0.922181 0.219742 0
M  V30 2287 H 220.402 3.23536 1.37905 0
M  V30 2288 H 220.276 2.39483 2.91424 0
M  V30 2289 H 222.663 1.46853 2.55965 0
M  V30 2290 H 222.744 2.34403 1.02415 0
M  V30 2291 H 222.388 4.53762 2.28173 0
M  V30 2292 H 222.318 3.63119 3.81381 0
M  V30 2293 H 224.809 2.88321 2.44293 0
M  V30 2294 H 225.122 6.28101 4.50232 0
M  V30 2295 H 223.467 5.64463 4.05471 0
M  V30 2296 H 226.658 3.62529 2.96126 0
M  V30 2297 H 226.831 5.17457 3.90054 0
M  V30 2298 N 220.237 -1.11381 1.11499 0
M  V30 2299 C 221.653 -1.35143 0.849031 0
M  V30 2300 C 221.853 -1.94515 -0.525938 0
M  V30 2301 O 220.909 -2.1785 -1.27662 0
M  V30 2302 C 222.222 -2.28249 1.95762 0
M  V30 2303 C 223.77 -2.41812 1.98736 0
M  V30 2304 C 224.245 -3.3824 3.088 0
M  V30 2305 N 225.736 -3.45803 3.08179 0
M  V30 2306 C 226.471 -4.20358 3.89982 0
M  V30 2307 N 225.967 -4.97884 4.8175 0
M  V30 2308 N 227.76 -4.15877 3.78157 0
M  V30 2309 H 219.911 -0.712062 2.00109 0
M  V30 2310 H 222.174 -0.376025 0.870235 0
M  V30 2311 H 221.88 -1.91817 2.94787 0
M  V30 2312 H 221.754 -3.28473 1.85433 0
M  V30 2313 H 224.141 -2.77518 1.00338 0
M  V30 2314 H 224.222 -1.41437 2.13141 0
M  V30 2315 H 223.866 -3.03261 4.07425 0
M  V30 2316 H 223.796 -4.38471 2.91635 0
M  V30 2317 H 226.287 -2.90506 2.41691 0
M  V30 2318 H 226.6 -5.52142 5.40702 0
M  V30 2319 H 224.945 -4.97043 4.85771 0
M  V30 2320 H 228.136 -3.544 3.05808 0
M  V30 2321 H 228.309 -4.73723 4.42143 0
M  V30 2322 N 221.715 -0.905404 -1.28997 0
M  V30 2323 C 223.126 -0.581953 -1.77398 0
M  V30 2324 C 223.477 0.902552 -1.74208 0
M  V30 2325 O 222.602 1.70584 -1.33154 0
M  V30 2326 C 223.197 -1.04961 -3.22131 0
M  V30 2327 C 221.756 -0.777229 -3.68288 0
M  V30 2328 C 220.903 -1.22109 -2.48967 0
M  V30 2329 H 223.854 -1.08754 -1.15578 0
M  V30 2330 H 223.875 -0.387387 -3.78523 0
M  V30 2331 H 223.387 -2.13008 -3.24421 0
M  V30 2332 H 221.488 0.290383 -3.71467 0
M  V30 2333 H 221.601 -1.37911 -4.58822 0
M  V30 2334 H 219.965 -0.639971 -2.46529 0
M  V30 2335 H 220.748 -2.30972 -2.53982 0
M  V30 2336 N 223.193 1.4272 -0.668489 0
M  V30 2337 C 224.442 2.00846 -0.185389 0
M  V30 2338 C 224.755 1.53442 1.21305 0
M  V30 2339 O 225.961 2.03944 1.79218 0
M  V30 2340 C 224.417 3.58805 -0.280591 0
M  V30 2341 C 224.025 4.15198 -1.68268 0
M  V30 2342 C 225.769 4.24255 0.14412 0
M  V30 2343 C 223.676 5.655 -1.73099 0
M  V30 2344 H 222.606 0.751145 -0.0655475 0
M  V30 2345 H 225.257 1.63516 -0.832752 0
M  V30 2346 H 223.639 3.93608 0.434553 0
M  V30 2347 H 224.813 3.91866 -2.42441 0
M  V30 2348 H 223.128 3.62176 -2.05469 0
M  V30 2349 H 225.725 5.34547 0.128086 0
M  V30 2350 H 226.068 3.99277 1.17827 0
M  V30 2351 H 226.601 3.94389 -0.519798 0
M  V30 2352 H 223.34 5.95268 -2.74475 0
M  V30 2353 H 222.86 5.90842 -1.03274 0
M  V30 2354 H 224.539 6.29808 -1.48158 0
M  V30 2355 N 224.671 0.411399 1.52136 0
M  V30 2356 C 225.601 -0.404015 2.29978 0
M  V30 2357 C 226.582 -1.04412 1.34284 0
M  V30 2358 O 227.767 -1.0527 1.63192 0
M  V30 2359 C 224.897 -1.5197 3.12286 0
M  V30 2360 C 223.851 -1.00448 4.16046 0
M  V30 2361 C 223.177 -2.21393 4.86712 0
M  V30 2362 C 224.477 -0.0569336 5.22269 0
M  V30 2363 H 226.171 0.245529 2.98392 0
M  V30 2364 H 223.717 0.119525 1.43503 0
M  V30 2365 H 225.67 -2.09715 3.6551 0
M  V30 2366 H 224.394 -2.19716 2.41646 0
M  V30 2367 H 223.053 -0.449421 3.63835 0
M  V30 2368 H 222.701 -2.87699 4.12599 0
M  V30 2369 H 222.401 -1.87571 5.56858 0
M  V30 2370 H 223.925 -2.7974 5.4275 0
M  V30 2371 H 225.339 -0.54325 5.7072 0
M  V30 2372 H 223.736 0.192594 5.99791 0
M  V30 2373 H 224.806 0.887663 4.76706 0
M  V30 2374 N 226.149 -1.5696 0.141893 0
M  V30 2375 C 227.377 -2.00322 -0.517579 0
M  V30 2376 C 227.792 -1.02193 -1.58752 0
M  V30 2377 O 227.149 -0.0181619 -1.82491 0
M  V30 2378 C 227.2 -3.43618 -1.12289 0
M  V30 2379 O 226.921 -4.37995 -0.0956929 0
M  V30 2380 C 228.422 -4.02231 -1.86347 0
M  V30 2381 H 225.642 -0.657243 -0.135177 0
M  V30 2382 H 228.186 -2.03146 0.234973 0
M  V30 2383 H 226.341 -3.41662 -1.82609 0
M  V30 2384 H 226.755 -5.21729 -0.538469 0
M  V30 2385 H 228.229 -5.04509 -2.23997 0
M  V30 2386 H 228.706 -3.42655 -2.74744 0
M  V30 2387 H 229.312 -4.07802 -1.20737 0
M  V30 2388 N 227.627 0.131896 -1.57047 0
M  V30 2389 C 228.867 0.847972 -1.85981 0
M  V30 2390 C 229.231 1.77655 -0.7282 0
M  V30 2391 O 230.432 2.53322 -0.898968 0
M  V30 2392 C 228.703 1.58919 -3.20124 0
M  V30 2393 S 230.262 2.34862 -3.70655 0
M  V30 2394 H 227.08 0.283273 -0.652133 0
M  V30 2395 H 229.682 0.107057 -1.95207 0
M  V30 2396 H 228.386 0.898771 -4.00438 0
M  V30 2397 H 227.917 2.37073 -3.13942 0
M  V30 2398 H 229.932 3.60344 -3.41126 0
M  V30 2399 N 229.106 1.52395 0.401703 0
M  V30 2400 C 230.331 1.70972 1.17403 0
M  V30 2401 C 230.756 0.421615 1.83314 0
M  V30 2402 O 230.114 -0.621564 1.70312 0
M  V30 2403 C 230.162 2.85151 2.20728 0
M  V30 2404 O 229.266 2.51238 3.27037 0
M  V30 2405 H 228.607 0.568927 0.342372 0
M  V30 2406 H 231.137 1.99131 0.469891 0
M  V30 2407 H 231.147 3.10279 2.64936 0
M  V30 2408 H 229.822 3.78603 1.7214 0
M  V30 2409 H 228.399 2.36808 2.88057 0
M  V30 2410 N 230.584 -0.659388 1.43143 0
M  V30 2411 C 231.814 -1.44513 1.47646 0
M  V30 2412 C 232.222 -1.88981 0.0910095 0
M  V30 2413 O 231.565 -1.59702 -0.907789 0
M  V30 2414 C 231.627 -2.71663 2.35456 0
M  V30 2415 C 231.291 -2.49175 3.83094 0
M  V30 2416 C 232.288 -2.1279 4.74359 0
M  V30 2417 C 229.973 -2.63691 4.27519 0
M  V30 2418 C 231.967 -1.9121 6.08044 0
M  V30 2419 C 229.654 -2.41726 5.61259 0
M  V30 2420 C 230.652 -2.0554 6.51339 0
M  V30 2421 O 230.34 -1.838 7.82606 0
M  V30 2422 H 230.072 -0.45064 0.503884 0
M  V30 2423 H 232.626 -0.816248 1.88485 0
M  V30 2424 H 230.856 -3.37089 1.89493 0
M  V30 2425 H 232.545 -3.33595 2.31235 0
M  V30 2426 H 233.311 -2.01157 4.41317 0
M  V30 2427 H 229.19 -2.90832 3.57684 0
M  V30 2428 H 232.734 -1.62889 6.78316 0
M  V30 2429 H 228.631 -2.52959 5.9387 0
M  V30 2430 H 229.399 -1.98275 7.94122 0
M  V30 2431 N 232.062 -1.29571 -0.897171 0
M  V30 2432 C 232.992 -1.17473 -2.01798 0
M  V30 2433 C 233.973 -0.068323 -1.69963 0
M  V30 2434 O 235.158 -0.248239 -1.92607 0
M  V30 2435 C 232.288 -0.853099 -3.36659 0
M  V30 2436 C 231.242 -1.9161 -3.82713 0
M  V30 2437 C 230.568 -1.44773 -5.14728 0
M  V30 2438 C 231.868 -3.32535 -4.02763 0
M  V30 2439 H 233.562 -2.11237 -2.12177 0
M  V30 2440 H 231.108 -1.01699 -1.01948 0
M  V30 2441 H 233.061 -0.755165 -4.14578 0
M  V30 2442 H 231.785 0.120236 -3.26379 0
M  V30 2443 H 230.444 -2.00346 -3.07013 0
M  V30 2444 H 230.092 -0.462995 -5.00865 0
M  V30 2445 H 229.792 -2.15865 -5.46513 0
M  V30 2446 H 231.316 -1.36334 -5.95185 0
M  V30 2447 H 232.73 -3.26626 -4.71156 0
M  V30 2448 H 231.127 -4.01607 -4.45905 0
M  V30 2449 H 232.197 -3.75326 -3.07016 0
M  V30 2450 N 233.54 1.10788 -1.12088 0
M  V30 2451 C 234.47 2.19083 -0.807755 0
M  V30 2452 C 235.451 1.6858 0.226859 0
M  V30 2453 O 236.636 1.93997 0.0888475 0
M  V30 2454 C 233.766 3.46344 -0.257576 0
M  V30 2455 C 232.72 4.101 -1.22483 0
M  V30 2456 C 232.046 5.32016 -0.535052 0
M  V30 2457 C 233.346 4.54236 -2.57811 0
M  V30 2458 H 235.04 2.45534 -1.71328 0
M  V30 2459 H 232.586 1.1801 -0.825205 0
M  V30 2460 H 234.539 4.21392 -0.0262679 0
M  V30 2461 H 233.263 3.19373 0.683278 0
M  V30 2462 H 231.922 3.37054 -1.44189 0
M  V30 2463 H 231.57 5.01319 0.410827 0
M  V30 2464 H 231.27 5.75625 -1.18024 0
M  V30 2465 H 232.794 6.09799 -0.312695 0
M  V30 2466 H 234.208 5.20575 -2.40155 0
M  V30 2467 H 232.605 5.08682 -3.18375 0
M  V30 2468 H 233.675 3.6734 -3.16528 0
M  V30 2469 N 235.018 0.912232 1.28515 0
M  V30 2470 C 235.948 0.416403 2.29757 0
M  V30 2471 C 236.929 -0.515194 1.6211 0
M  V30 2472 O 238.114 -0.423253 1.89532 0
M  V30 2473 C 235.244 -0.34572 3.45575 0
M  V30 2474 C 234.198 0.496599 4.25109 0
M  V30 2475 C 233.524 -0.393771 5.33248 0
M  V30 2476 C 234.824 1.75307 4.92001 0
M  V30 2477 H 236.518 1.26249 2.7148 0
M  V30 2478 H 234.064 0.608515 1.30511 0
M  V30 2479 H 236.017 -0.703422 4.15488 0
M  V30 2480 H 234.741 -1.2257 3.02728 0
M  V30 2481 H 233.4 0.8368 3.56922 0
M  V30 2482 H 233.048 -1.27225 4.86644 0
M  V30 2483 H 232.748 0.166209 5.87365 0
M  V30 2484 H 234.272 -0.747389 6.06009 0
M  V30 2485 H 235.686 1.46437 5.54283 0
M  V30 2486 H 234.083 2.25534 5.56106 0
M  V30 2487 H 235.153 2.48176 4.16577 0
M  V30 2488 N 236.496 -1.42363 0.676048 0
M  V30 2489 C 237.459 -2.29199 0.00766941 0
M  V30 2490 C 238.459 -1.43389 -0.727745 0
M  V30 2491 O 239.649 -1.64764 -0.56556 0
M  V30 2492 C 236.781 -3.2591 -0.999785 0
M  V30 2493 H 237.974 -2.89794 0.771988 0
M  V30 2494 H 235.527 -1.50024 0.438468 0
M  V30 2495 H 236.262 -2.70256 -1.79255 0
M  V30 2496 H 236.047 -3.89202 -0.475829 0
M  V30 2497 H 237.537 -3.91028 -1.46583 0
M  V30 2498 N 237.974 -0.419461 -1.51915 0
M  V30 2499 C 238.937 0.389116 -2.25873 0
M  V30 2500 C 239.937 0.964924 -1.28631 0
M  V30 2501 O 241.127 0.842179 -1.52489 0
M  V30 2502 C 238.259 1.54874 -3.03689 0
M  V30 2503 H 239.452 -0.258799 -2.98781 0
M  V30 2504 H 237.005 -0.172209 -1.55348 0
M  V30 2505 H 237.74 2.23323 -2.35154 0
M  V30 2506 H 237.525 1.14223 -3.75094 0
M  V30 2507 H 239.015 2.12046 -3.59759 0
M  V30 2508 N 239.452 1.56882 -0.150215 0
M  V30 2509 C 240.677 2.01027 0.510184 0
M  V30 2510 C 241.102 1.02966 1.57415 0
M  V30 2511 O 240.46 0.00590158 1.81299 0
M  V30 2512 C 240.508 3.43899 1.08472 0
M  V30 2513 O 239.612 3.4885 2.19948 0
M  V30 2514 H 238.953 0.652233 0.124451 0
M  V30 2515 H 241.483 2.03093 -0.247894 0
M  V30 2516 H 241.493 3.82766 1.41259 0
M  V30 2517 H 240.168 4.14776 0.305582 0
M  V30 2518 H 238.745 3.21827 1.88366 0
M  V30 2519 N 240.93 -0.123565 1.57115 0
M  V30 2520 C 242.178 -0.83051 1.84247 0
M  V30 2521 C 242.499 -1.80629 0.73471 0
M  V30 2522 O 241.769 -1.94403 -0.241688 0
M  V30 2523 H 240.349 -0.309694 0.679778 0
M  V30 2524 H 243.011 -0.111976 1.94578 0
M  V30 2525 H 242.107 -1.37852 2.80006 0
M  V30 2526 N 242.408 -1.52605 -0.393616 0
M  V30 2527 C 243.633 -1.71592 -1.16495 0
M  V30 2528 C 244.058 -0.43133 -1.83088 0
M  V30 2529 O 243.416 0.612523 -1.7064 0
M  V30 2530 C 243.464 -2.86318 -2.19213 0
M  V30 2531 O 242.568 -2.52969 -3.257 0
M  V30 2532 H 241.909 -0.570734 -0.33935 0
M  V30 2533 H 244.439 -1.99377 -0.459324 0
M  V30 2534 H 244.449 -3.1168 -2.63286 0
M  V30 2535 H 243.124 -3.79511 -1.7013 0
M  V30 2536 H 241.701 -2.38332 -2.86797 0
M  V30 2537 N 243.887 0.651787 -1.4349 0
M  V30 2538 C 245.135 1.40888 -1.44897 0
M  V30 2539 C 245.456 1.94856 -0.0749086 0
M  V30 2540 O 244.726 1.74518 0.889956 0
M  V30 2541 H 243.306 0.522887 -0.533478 0
M  V30 2542 H 245.968 0.768609 -1.79104 0
M  V30 2543 H 245.064 2.25052 -2.16236 0
M  V30 2544 N 245.365 1.30045 0.890287 0
M  V30 2545 C 246.328 1.15963 1.977 0
M  V30 2546 C 247.328 0.0923777 1.60534 0
M  V30 2547 O 248.518 0.340071 1.70848 0
M  V30 2548 C 245.65 0.775451 3.31963 0
M  V30 2549 H 246.843 2.12502 2.11619 0
M  V30 2550 H 244.396 1.13366 1.07601 0
M  V30 2551 H 245.131 -0.189671 3.23745 0
M  V30 2552 H 244.916 1.54668 3.60306 0
M  V30 2553 H 246.406 0.700251 4.11687 0
M  V30 2554 N 246.843 -1.10192 1.12674 0
M  V30 2555 C 247.806 -2.14786 0.799979 0
M  V30 2556 C 248.806 -1.59711 -0.18685 0
M  V30 2557 O 249.996 -1.74156 0.0392558 0
M  V30 2558 C 247.128 -3.40374 0.189228 0
M  V30 2559 H 248.321 -2.45203 1.72671 0
M  V30 2560 H 245.874 -1.25597 0.930326 0
M  V30 2561 H 246.609 -3.15577 -0.747107 0
M  V30 2562 H 246.394 -3.81637 0.899766 0
M  V30 2563 H 247.884 -4.17594 -0.0228143 0
M  V30 2564 N 248.321 -0.919034 -1.28029 0
M  V30 2565 C 249.568 -0.554934 -1.94748 0
M  V30 2566 C 249.896 0.90231 -1.72304 0
M  V30 2567 O 249.151 1.65767 -1.04018 0
M  V30 2568 C 249.45 -0.816855 -3.4794 0
M  V30 2569 C 249.116 -2.25448 -3.90492 0
M  V30 2570 C 247.778 -2.64752 -4.01821 0
M  V30 2571 C 250.13 -3.18977 -4.12193 0
M  V30 2572 C 247.458 -3.96727 -4.32232 0
M  V30 2573 C 249.81 -4.50523 -4.44086 0
M  V30 2574 C 248.474 -4.89673 -4.53626 0
M  V30 2575 H 247.744 -0.203065 -0.712633 0
M  V30 2576 H 250.391 -1.16136 -1.52265 0
M  V30 2577 H 248.696 -0.127677 -3.91592 0
M  V30 2578 H 250.393 -0.514238 -3.97689 0
M  V30 2579 H 246.983 -1.93952 -3.82205 0
M  V30 2580 H 251.167 -2.89817 -4.02889 0
M  V30 2581 H 246.423 -4.26754 -4.37825 0
M  V30 2582 H 250.597 -5.23005 -4.59825 0
M  V30 2583 H 248.224 -5.91969 -4.76946 0
M  V30 2584 N 249.799 1.42003 -0.683588 0
M  V30 2585 C 251.024 2.06265 -0.216647 0
M  V30 2586 C 251.449 1.51059 1.12083 0
M  V30 2587 O 250.807 0.632638 1.69904 0
M  V30 2588 C 250.855 3.60191 -0.171759 0
M  V30 2589 O 249.959 4.03396 0.857069 0
M  V30 2590 H 249.3 0.65502 -0.108834 0
M  V30 2591 H 251.83 1.81982 -0.935077 0
M  V30 2592 H 251.84 4.08 0.0014303 0
M  V30 2593 H 250.515 3.99743 -1.14796 0
M  V30 2594 H 249.092 3.67117 0.654208 0
M  V30 2595 N 251.277 0.427512 1.51691 0
M  V30 2596 C 252.688 -0.0378867 1.86662 0
M  V30 2597 C 253.039 -1.42819 1.34525 0
M  V30 2598 O 252.164 -2.05037 0.692014 0
M  V30 2599 C 252.759 -0.0755266 3.38716 0
M  V30 2600 C 251.318 -0.485309 3.73258 0
M  V30 2601 C 250.465 0.328399 2.75349 0
M  V30 2602 H 253.416 0.64379 1.45055 0
M  V30 2603 H 253.437 -0.887056 3.70016 0
M  V30 2604 H 252.949 0.936487 3.76632 0
M  V30 2605 H 251.05 -1.50329 3.40928 0
M  V30 2606 H 251.163 -0.21693 4.78609 0
M  V30 2607 H 249.527 -0.211905 2.53817 0
M  V30 2608 H 250.31 1.3391 3.16106 0
M  V30 2609 N 252.755 -1.56801 0.158532 0
M  V30 2610 C 253.983 -2.00859 -0.496303 0
M  V30 2611 C 254.398 -1.03871 -1.57659 0
M  V30 2612 O 253.755 -0.0375165 -1.82461 0
M  V30 2613 C 253.806 -3.4479 -1.08638 0
M  V30 2614 O 253.527 -4.38072 -0.0492322 0
M  V30 2615 C 255.028 -4.04185 -1.8207 0
M  V30 2616 H 252.248 -0.65864 -0.128199 0
M  V30 2617 H 254.792 -2.02885 0.256506 0
M  V30 2618 H 252.947 -3.43579 -1.78975 0
M  V30 2619 H 253.361 -5.2227 -0.483102 0
M  V30 2620 H 254.835 -5.06857 -2.18633 0
M  V30 2621 H 255.312 -3.45549 -2.71095 0
M  V30 2622 H 255.918 -4.0906 -1.16405 0
M  V30 2623 N 254.233 0.115231 -1.57178 0
M  V30 2624 C 255.48 0.822351 -1.8505 0
M  V30 2625 C 255.808 1.79701 -0.744168 0
M  V30 2626 O 255.063 1.93909 0.26414 0
M  V30 2627 C 255.362 1.60324 -3.19423 0
M  V30 2628 C 255.028 0.772536 -4.44233 0
M  V30 2629 C 253.69 0.543468 -4.78121 0
M  V30 2630 C 256.042 0.193746 -5.2084 0
M  V30 2631 C 253.37 -0.274583 -5.86057 0
M  V30 2632 C 255.722 -0.611517 -6.29637 0
M  V30 2633 C 254.386 -0.850867 -6.62055 0
M  V30 2634 H 253.656 0.30092 -0.677147 0
M  V30 2635 H 256.303 0.0845802 -1.91313 0
M  V30 2636 H 254.608 2.41203 -3.08753 0
M  V30 2637 H 256.305 2.1544 -3.38211 0
M  V30 2638 H 252.895 0.96117 -4.17683 0
M  V30 2639 H 257.079 0.357926 -4.95008 0
M  V30 2640 H 252.335 -0.469206 -6.09597 0
M  V30 2641 H 256.509 -1.06697 -6.88178 0
M  V30 2642 H 254.136 -1.48657 -7.45523 0
M  V30 2643 N 255.711 1.52812 0.385517 0
M  V30 2644 C 257.122 1.5993 0.963293 0
M  V30 2645 C 257.473 0.454302 1.90868 0
M  V30 2646 O 256.598 -0.422132 2.12243 0
M  V30 2647 C 257.193 2.89871 1.75387 0
M  V30 2648 C 255.752 2.99389 2.28129 0
M  V30 2649 C 254.899 2.55071 1.08783 0
M  V30 2650 H 257.85 1.5784 0.164948 0
M  V30 2651 H 257.871 2.76553 2.61341 0
M  V30 2652 H 257.383 3.73186 1.06554 0
M  V30 2653 H 255.484 2.20619 3.00263 0
M  V30 2654 H 255.597 4.04096 2.57377 0
M  V30 2655 H 253.961 2.09473 1.4489 0
M  V30 2656 H 254.744 3.40785 0.414807 0
M  V30 2657 N 257.189 -0.644168 1.43834 0
M  V30 2658 C 258.438 -1.39985 1.45214 0
M  V30 2659 C 258.751 -1.95421 0.0835494 0
M  V30 2660 O 259.957 -2.71488 -0.0251748 0
M  V30 2661 C 258.413 -2.53384 2.55587 0
M  V30 2662 C 258.021 -2.04517 3.98594 0
M  V30 2663 C 259.765 -3.30685 2.66172 0
M  V30 2664 C 257.672 -3.1518 5.00416 0
M  V30 2665 H 256.602 -0.526005 0.540218 0
M  V30 2666 H 259.253 -0.694367 1.69855 0
M  V30 2667 H 257.635 -3.26446 2.24163 0
M  V30 2668 H 258.809 -1.38405 4.39523 0
M  V30 2669 H 257.124 -1.40068 3.92135 0
M  V30 2670 H 259.721 -4.13158 3.39418 0
M  V30 2671 H 260.064 -3.79312 1.71546 0
M  V30 2672 H 260.597 -2.64708 2.96942 0
M  V30 2673 H 257.336 -2.71511 5.96625 0
M  V30 2674 H 256.856 -3.79974 4.64091 0
M  V30 2675 H 258.535 -3.80166 5.23529 0
M  V30 2676 N 258.668 -1.30515 -0.883378 0
M  V30 2677 C 259.898 -1.22182 -1.66599 0
M  V30 2678 C 260.306 0.217507 -1.87946 0
M  V30 2679 O 259.649 1.1554 -1.42815 0
M  V30 2680 C 259.711 -1.88146 -3.06335 0
M  V30 2681 C 259.375 -3.37476 -3.08154 0
M  V30 2682 C 260.372 -4.33443 -2.87094 0
M  V30 2683 C 258.057 -3.7895 -3.29701 0
M  V30 2684 C 260.051 -5.68858 -2.8754 0
M  V30 2685 C 257.738 -5.14482 -3.29776 0
M  V30 2686 C 258.736 -6.09246 -3.0872 0
M  V30 2687 O 258.424 -7.42302 -3.08615 0
M  V30 2688 H 258.156 -0.423898 -0.52658 0
M  V30 2689 H 260.71 -1.72703 -1.11188 0
M  V30 2690 H 258.94 -1.32157 -3.63416 0
M  V30 2691 H 260.629 -1.7391 -3.66756 0
M  V30 2692 H 261.395 -4.02733 -2.70243 0
M  V30 2693 H 257.274 -3.05631 -3.45124 0
M  V30 2694 H 260.818 -6.428 -2.71024 0
M  V30 2695 H 256.715 -5.44832 -3.46163 0
M  V30 2696 H 257.483 -7.5131 -3.24769 0
M  V30 2697 N 260.146 1.09593 -1.13257 0
M  V30 2698 C 261.079 2.15451 -0.752061 0
M  V30 2699 C 262.057 1.60493 0.260913 0
M  V30 2700 O 263.241 1.8788 0.152819 0
M  V30 2701 C 260.368 3.38506 -0.114594 0
M  V30 2702 C 259.414 4.12183 -1.09579 0
M  V30 2703 S 260.247 4.6661 -2.62745 0
M  V30 2704 C 261.403 5.92966 -2.00354 0
M  V30 2705 H 261.636 2.47395 -1.64872 0
M  V30 2706 H 259.169 1.21515 -0.952545 0
M  V30 2707 H 261.127 4.09757 0.246808 0
M  V30 2708 H 259.788 3.04784 0.759309 0
M  V30 2709 H 258.981 5.00445 -0.597545 0
M  V30 2710 H 258.583 3.46785 -1.40057 0
M  V30 2711 H 260.875 6.63882 -1.35156 0
M  V30 2712 H 261.818 6.47467 -2.86691 0
M  V30 2713 H 262.226 5.45405 -1.4558 0
M  V30 2714 N 261.624 0.925811 1.2754 0
M  V30 2715 C 262.87 0.566092 1.94739 0
M  V30 2716 C 263.203 -0.890057 1.72603 0
M  V30 2717 O 262.478 -1.63467 1.05399 0
M  V30 2718 C 262.761 0.89054 3.48915 0
M  V30 2719 C 262.614 2.4003 3.80402 0
M  V30 2720 C 263.933 0.395101 4.38323 0
M  V30 2721 H 261.052 0.20714 0.707292 0
M  V30 2722 H 263.694 1.15725 1.50691 0
M  V30 2723 H 261.844 0.387452 3.86563 0
M  V30 2724 H 263.516 2.97494 3.52555 0
M  V30 2725 H 261.759 2.85028 3.2702 0
M  V30 2726 H 262.43 2.57785 4.8811 0
M  V30 2727 H 264.906 0.826241 4.07814 0
M  V30 2728 H 263.782 0.651086 5.45025 0
M  V30 2729 H 264.043 -0.704798 4.36446 0
M  V30 2730 N 263.102 -1.41638 0.69111 0
M  V30 2731 C 264.349 -2.01299 0.220193 0
M  V30 2732 C 264.677 -1.54715 -1.17871 0
M  V30 2733 O 263.932 -0.747193 -1.80874 0
M  V30 2734 C 264.231 -3.56714 0.221277 0
M  V30 2735 C 263.897 -4.22792 1.56709 0
M  V30 2736 C 262.559 -4.40557 1.93554 0
M  V30 2737 C 264.911 -4.59883 2.45268 0
M  V30 2738 C 262.239 -4.92688 3.18552 0
M  V30 2739 C 264.591 -5.13403 3.69595 0
M  V30 2740 C 263.255 -5.29379 4.06589 0
M  V30 2741 H 262.525 -0.736606 0.0805743 0
M  V30 2742 H 265.172 -1.69598 0.889319 0
M  V30 2743 H 263.477 -3.8818 -0.531391 0
M  V30 2744 H 265.174 -4.00678 -0.160547 0
M  V30 2745 H 261.764 -4.09336 1.2705 0
M  V30 2746 H 265.948 -4.45817 2.18084 0
M  V30 2747 H 261.204 -5.03242 3.47214 0
M  V30 2748 H 265.378 -5.41084 4.38407 0
M  V30 2749 H 263.005 -5.69537 5.03519 0
M  V30 2750 N 264.58 -0.43555 -1.51462 0
M  V30 2751 C 265.996 -0.0877501 -1.59359 0
M  V30 2752 C 266.196 1.4027 -1.4466 0
M  V30 2753 O 265.252 2.17243 -1.28693 0
M  V30 2754 C 266.565 -0.606264 -2.94525 0
M  V30 2755 C 268.113 -0.566548 -3.0783 0
M  V30 2756 C 268.588 -1.06201 -4.45517 0
M  V30 2757 N 270.079 -1.01992 -4.51832 0
M  V30 2758 C 270.814 -1.37417 -5.5669 0
M  V30 2759 N 270.31 -1.80119 -6.68976 0
M  V30 2760 N 272.103 -1.29245 -5.47039 0
M  V30 2761 H 264.254 -1.40533 -1.59261 0
M  V30 2762 H 266.517 -0.578992 -0.750648 0
M  V30 2763 H 266.223 -1.64901 -3.10645 0
M  V30 2764 H 266.097 -0.0302097 -3.77188 0
M  V30 2765 H 268.484 0.467208 -2.91378 0
M  V30 2766 H 268.565 -1.17898 -2.2701 0
M  V30 2767 H 268.209 -2.09422 -4.62715 0
M  V30 2768 H 268.139 -0.426127 -5.24873 0
M  V30 2769 H 270.63 -0.706308 -3.71241 0
M  V30 2770 H 270.943 -2.05392 -7.45006 0
M  V30 2771 H 269.288 -1.84044 -6.70189 0
M  V30 2772 H 272.479 -0.957522 -4.58202 0
M  V30 2773 H 272.652 -1.57182 -6.28648 0
M  V30 2774 N 266.058 1.56714 -0.166846 0
M  V30 2775 C 267.305 1.96747 0.479252 0
M  V30 2776 C 267.633 1.05263 1.63554 0
M  V30 2777 O 266.888 0.0858098 1.95512 0
M  V30 2778 C 267.187 3.42889 1.00806 0
M  V30 2779 C 266.853 4.50889 -0.0318574 0
M  V30 2780 C 265.515 4.8015 -0.317675 0
M  V30 2781 C 267.867 5.15949 -0.737956 0
M  V30 2782 C 265.195 5.71772 -1.31506 0
M  V30 2783 C 267.547 6.08647 -1.72429 0
M  V30 2784 C 266.211 6.36277 -2.0176 0
M  V30 2785 H 265.481 0.719949 0.175371 0
M  V30 2786 H 268.128 1.89756 -0.257864 0
M  V30 2787 H 266.433 3.4681 1.82291 0
M  V30 2788 H 268.13 3.71203 1.51689 0
M  V30 2789 H 264.72 4.28128 0.201088 0
M  V30 2790 H 268.904 4.93458 -0.530351 0
M  V30 2791 H 264.16 5.91465 -1.54853 0
M  V30 2792 H 268.334 6.58129 -2.27682 0
M  V30 2793 H 265.961 7.07075 -2.79194 0
M  V30 2794 N 267.536 -0.106894 1.57237 0
M  V30 2795 C 268.466 -1.13148 2.04254 0
M  V30 2796 C 269.447 -1.42476 0.929224 0
M  V30 2797 O 270.632 -1.52709 1.19973 0
M  V30 2798 C 267.762 -2.4545 2.45706 0
M  V30 2799 C 266.716 -2.30558 3.60592 0
M  V30 2800 C 266.042 -3.67931 3.87983 0
M  V30 2801 C 267.342 -1.75597 4.91897 0
M  V30 2802 H 269.036 -0.740374 2.90101 0
M  V30 2803 H 266.582 -0.354696 1.39563 0
M  V30 2804 H 268.535 -3.17389 2.77205 0
M  V30 2805 H 267.259 -2.86475 1.56843 0
M  V30 2806 H 265.918 -1.61067 3.29322 0
M  V30 2807 H 265.566 -4.06462 2.96306 0
M  V30 2808 H 265.266 -3.58817 4.65322 0
M  V30 2809 H 266.79 -4.41356 4.21945 0
M  V30 2810 H 268.204 -2.37364 5.21854 0
M  V30 2811 H 266.601 -1.77272 5.73319 0
M  V30 2812 H 267.671 -0.714451 4.79608 0
M  V30 2813 N 269.014 -1.53014 -0.377408 0
M  V30 2814 C 270.254 -1.70318 -1.1301 0
M  V30 2815 C 270.618 -0.439538 -1.86901 0
M  V30 2816 O 271.819 -0.489095 -2.64313 0
M  V30 2817 C 270.09 -2.91125 -2.07319 0
M  V30 2818 S 271.649 -3.29075 -2.90268 0
M  V30 2819 H 268.467 -0.599426 -0.382374 0
M  V30 2820 H 271.069 -1.91089 -0.412933 0
M  V30 2821 H 269.773 -3.81303 -1.51777 0
M  V30 2822 H 269.304 -2.7272 -2.83526 0
M  V30 2823 H 271.319 -2.80165 -4.09539 0
M  V30 2824 N 270.492 0.636531 -1.44174 0
M  V30 2825 C 271.74 1.39343 -1.46383 0
M  V30 2826 C 272.061 1.94766 -0.0955715 0
M  V30 2827 O 271.331 1.75452 0.871395 0
M  V30 2828 H 269.911 0.517199 -0.538994 0
M  V30 2829 H 272.573 0.74957 -1.7991 0
M  V30 2830 H 271.669 2.22746 -2.18611 0
M  V30 2831 N 271.97 1.30982 0.876444 0
M  V30 2832 C 273.217 1.20296 1.62896 0
M  V30 2833 C 273.545 -0.240395 1.93009 0
M  V30 2834 O 272.8 -1.18733 1.55567 0
M  V30 2835 C 273.099 1.98572 2.9716 0
M  V30 2836 C 272.765 3.48125 2.86566 0
M  V30 2837 C 271.427 3.88905 2.83383 0
M  V30 2838 C 273.779 4.43322 2.74071 0
M  V30 2839 C 271.107 5.2316 2.65556 0
M  V30 2840 C 273.459 5.77695 2.57781 0
M  V30 2841 C 272.123 6.17704 2.52979 0
M  V30 2842 H 271.393 0.440193 0.59608 0
M  V30 2843 H 274.04 1.62177 1.01837 0
M  V30 2844 H 272.345 1.49352 3.62217 0
M  V30 2845 H 274.042 1.8769 3.54364 0
M  V30 2846 H 270.632 3.15723 2.89856 0
M  V30 2847 H 274.816 4.12752 2.75589 0
M  V30 2848 H 270.072 5.53241 2.60259 0
M  V30 2849 H 274.246 6.51091 2.47089 0
M  V30 2850 H 271.873 7.21678 2.38924 0
M  V30 2851 N 273.449 -1.08991 1.13837 0
M  V30 2852 C 274.697 -1.80899 0.901098 0
M  V30 2853 C 275.018 -1.86356 -0.574134 0
M  V30 2854 O 274.288 -1.35235 -1.41733 0
M  V30 2855 H 272.868 -0.669966 0.330386 0
M  V30 2856 H 275.53 -1.318 1.43578 0
M  V30 2857 H 274.626 -2.83929 1.29578 0
M  V30 2858 N 274.927 -0.932562 -1.27047 0
M  V30 2859 C 276.176 -0.571351 -1.93439 0
M  V30 2860 C 276.489 0.892467 -1.74053 0
M  V30 2861 O 277.695 1.36267 -2.34826 0
M  V30 2862 C 276.151 -0.97106 -3.46552 0
M  V30 2863 C 275.759 -2.4559 -3.74686 0
M  V30 2864 C 277.503 -0.681333 -4.18997 0
M  V30 2865 C 275.41 -2.79475 -5.21198 0
M  V30 2866 H 274.34 -0.209966 -0.724176 0
M  V30 2867 H 276.991 -1.13403 -1.44263 0
M  V30 2868 H 275.373 -0.336983 -3.94564 0
M  V30 2869 H 276.547 -3.13829 -3.37414 0
M  V30 2870 H 274.862 -2.71802 -3.15456 0
M  V30 2871 H 277.459 -0.910939 -5.26883 0
M  V30 2872 H 277.802 0.381628 -4.14547 0
M  V30 2873 H 278.335 -1.27473 -3.76823 0
M  V30 2874 H 275.074 -3.847 -5.30741 0
M  V30 2875 H 274.594 -2.1589 -5.596 0
M  V30 2876 H 276.273 -2.67478 -5.89122 0
M  V30 2877 N 276.405 1.4127 -0.698611 0
M  V30 2878 C 277.63 2.06024 -0.238512 0
M  V30 2879 C 278.055 1.5224 1.10475 0
M  V30 2880 O 277.413 0.650623 1.69223 0
M  V30 2881 C 277.461 3.59988 -0.209952 0
M  V30 2882 O 276.565 4.04282 0.814235 0
M  V30 2883 H 275.906 0.653829 -0.115775 0
M  V30 2884 H 278.436 1.8098 -0.954326 0
M  V30 2885 H 278.446 4.07979 -0.0418436 0
M  V30 2886 H 277.121 3.98503 -1.1903 0
M  V30 2887 H 275.698 3.6779 0.615234 0
M  V30 2888 N 277.883 0.443576 1.51229 0
M  V30 2889 C 279.131 -0.120557 2.0174 0
M  V30 2890 C 279.452 -1.42665 1.32935 0
M  V30 2891 O 278.722 -1.9028 0.465866 0
M  V30 2892 H 277.302 -0.0475426 0.745486 0
M  V30 2893 H 279.964 0.587711 1.85828 0
M  V30 2894 H 279.06 -0.291972 3.10731 0
M  V30 2895 N 279.361 -1.56624 0.175154 0
M  V30 2896 C 280.61 -1.96173 -0.468921 0
M  V30 2897 C 280.923 -1.06401 -1.64128 0
M  V30 2898 O 282.129 -1.35648 -2.35185 0
M  V30 2899 C 280.585 -3.48833 -0.885633 0
M  V30 2900 C 280.193 -4.47237 0.261343 0
M  V30 2901 C 281.937 -3.97194 -1.49791 0
M  V30 2902 C 279.844 -5.9114 -0.175214 0
M  V30 2903 H 278.774 -0.732455 -0.178958 0
M  V30 2904 H 281.425 -1.81591 0.263997 0
M  V30 2905 H 279.807 -3.58848 -1.67464 0
M  V30 2906 H 280.981 -4.4894 1.03871 0
M  V30 2907 H 279.296 -4.08956 0.783827 0
M  V30 2908 H 281.893 -5.02167 -1.83665 0
M  V30 2909 H 282.236 -3.40351 -2.39722 0
M  V30 2910 H 282.769 -3.90212 -0.773267 0
M  V30 2911 H 279.508 -6.51865 0.689414 0
M  V30 2912 H 279.028 -5.92735 -0.91786 0
M  V30 2913 H 280.707 -6.44044 -0.617792 0
M  V30 2914 N 280.839 0.0985539 -1.57292 0
M  V30 2915 C 282.067 0.816318 -1.90115 0
M  V30 2916 C 282.482 1.72451 -0.768509 0
M  V30 2917 O 281.839 1.80643 0.259687 0
M  V30 2918 C 281.89 1.63259 -3.22535 0
M  V30 2919 O 281.611 0.760934 -4.31441 0
M  V30 2920 C 283.112 2.45372 -3.69199 0
M  V30 2921 H 280.332 0.233595 -0.629027 0
M  V30 2922 H 282.876 0.0768229 -2.04356 0
M  V30 2923 H 281.031 2.32463 -3.09903 0
M  V30 2924 H 281.445 1.32595 -5.07463 0
M  V30 2925 H 282.919 2.98144 -4.64558 0
M  V30 2926 H 283.396 3.23677 -2.96867 0
M  V30 2927 H 284.002 1.81373 -3.84687 0
M  V30 2928 N 282.317 1.53212 0.369288 0
M  V30 2929 C 283.247 1.82365 1.45826 0
M  V30 2930 C 284.228 0.676907 1.56051 0
M  V30 2931 O 285.413 0.926401 1.70679 0
M  V30 2932 C 282.543 2.01023 2.83208 0
M  V30 2933 C 281.497 3.1678 2.8781 0
M  V30 2934 C 280.823 3.20724 4.27832 0
M  V30 2935 C 282.123 4.55447 2.55667 0
M  V30 2936 H 283.817 2.73559 1.21678 0
M  V30 2937 H 281.363 1.3163 0.583911 0
M  V30 2938 H 283.316 2.20001 3.59413 0
M  V30 2939 H 282.04 1.06536 3.08736 0
M  V30 2940 H 280.699 2.97616 2.14056 0
M  V30 2941 H 280.347 2.23882 4.50429 0
M  V30 2942 H 280.047 3.98496 4.31827 0
M  V30 2943 H 281.571 3.41881 5.05915 0
M  V30 2944 H 282.985 4.74611 3.21586 0
M  V30 2945 H 281.382 5.35432 2.70984 0
M  V30 2946 H 282.452 4.60812 1.5093 0
M  V30 2947 N 283.795 -0.628877 1.44509 0
M  V30 2948 C 285.02 -1.42048 1.5112 0
M  V30 2949 C 285.445 -1.87594 0.137818 0
M  V30 2950 O 284.803 -1.58873 -0.873437 0
M  V30 2951 C 284.851 -2.61541 2.48251 0
M  V30 2952 O 283.955 -3.61453 1.98559 0
M  V30 2953 H 283.296 -0.424942 0.510216 0
M  V30 2954 H 285.826 -0.767374 1.89664 0
M  V30 2955 H 285.836 -3.09057 2.66361 0
M  V30 2956 H 284.511 -2.27736 3.48007 0
M  V30 2957 H 283.088 -3.20731 1.90227 0
M  V30 2958 N 285.273 -1.31445 -0.869486 0
M  V30 2959 C 286.501 -1.24122 -1.65534 0
M  V30 2960 C 286.916 0.193387 -1.87807 0
M  V30 2961 O 286.273 1.12557 -1.43656 0
M  V30 2962 C 286.324 -1.98229 -3.02304 0
M  V30 2963 O 286.045 -3.3609 -2.81026 0
M  V30 2964 C 287.546 -1.97751 -3.96749 0
M  V30 2965 H 284.766 -0.428868 -0.516055 0
M  V30 2966 H 287.31 -1.73328 -1.08525 0
M  V30 2967 H 285.465 -1.52782 -3.56001 0
M  V30 2968 H 285.879 -3.7383 -3.67902 0
M  V30 2969 H 287.353 -2.54114 -4.90031 0
M  V30 2970 H 287.83 -0.960137 -4.28577 0
M  V30 2971 H 288.436 -2.43079 -3.48988 0
M  V30 2972 N 286.751 1.08385 -1.14413 0
M  V30 2973 C 287.997 1.81044 -0.913834 0
M  V30 2974 C 288.33 1.86004 0.558209 0
M  V30 2975 O 287.605 1.33606 1.4135 0
M  V30 2976 C 287.888 3.26648 -1.51569 0
M  V30 2977 C 287.741 3.29895 -3.0576 0
M  V30 2978 C 289.06 4.23629 -1.19273 0
M  V30 2979 H 286.179 0.65727 -0.333414 0
M  V30 2980 H 288.821 1.26896 -1.41412 0
M  V30 2981 H 286.971 3.72889 -1.09023 0
M  V30 2982 H 288.643 2.91977 -3.57137 0
M  V30 2983 H 286.886 2.69163 -3.40197 0
M  V30 2984 H 287.557 4.32516 -3.42977 0
M  V30 2985 H 290.033 3.85727 -1.56057 0
M  V30 2986 H 288.909 5.23822 -1.64017 0
M  V30 2987 H 289.17 4.41968 -0.108068 0
M  V30 2988 N 288.23 0.939286 1.26551 0
M  V30 2989 C 289.479 0.581601 1.93133 0
M  V30 2990 C 289.792 -0.883224 1.74524 0
M  V30 2991 O 290.998 -1.3502 2.35546 0
M  V30 2992 C 289.454 0.989425 3.46032 0
M  V30 2993 C 289.062 2.47573 3.73379 0
M  V30 2994 C 290.806 0.703544 4.18629 0
M  V30 2995 C 288.713 2.82235 5.19709 0
M  V30 2996 H 287.643 0.213803 0.723052 0
M  V30 2997 H 290.294 1.14167 1.4366 0
M  V30 2998 H 288.676 0.357902 3.94379 0
M  V30 2999 H 289.85 3.15614 3.35744 0
M  V30 3000 H 288.165 2.73471 3.1401 0
M  V30 3001 H 290.762 0.938869 5.26393 0
M  V30 3002 H 291.105 -0.359639 4.14744 0
M  V30 3003 H 291.638 1.2947 3.76141 0
M  V30 3004 H 288.377 3.87509 5.28694 0
M  V30 3005 H 287.897 2.18854 5.58447 0
M  V30 3006 H 289.576 2.70599 5.87695 0
M  V30 3007 N 289.708 -1.40897 0.706093 0
M  V30 3008 C 290.638 -2.33418 0.0620085 0
M  V30 3009 C 291.619 -1.52385 -0.755827 0
M  V30 3010 O 292.804 -1.80886 -0.706674 0
M  V30 3011 C 289.934 -3.36293 -0.867445 0
M  V30 3012 C 288.888 -4.27716 -0.155932 0
M  V30 3013 C 288.214 -5.2105 -1.20046 0
M  V30 3014 C 289.514 -5.12944 0.984149 0
M  V30 3015 H 291.208 -2.87527 0.83477 0
M  V30 3016 H 288.754 -1.38249 0.402875 0
M  V30 3017 H 290.707 -3.99949 -1.32735 0
M  V30 3018 H 289.431 -2.80556 -1.67199 0
M  V30 3019 H 288.09 -3.65498 0.284047 0
M  V30 3020 H 287.738 -4.61624 -1.99781 0
M  V30 3021 H 287.438 -5.83056 -0.729328 0
M  V30 3022 H 288.962 -5.87584 -1.66066 0
M  V30 3023 H 290.376 -5.70109 0.604048 0
M  V30 3024 H 288.773 -5.83945 1.38304 0
M  V30 3025 H 289.843 -4.49485 1.81911 0
M  V30 3026 N 291.186 -0.45159 -1.50991 0
M  V30 3027 C 292.134 0.366864 -2.29689 0
M  V30 3028 C 293.128 1.00809 -1.36139 0
M  V30 3029 O 294.334 0.941427 -1.53418 0
M  V30 3030 H 290.709 0.137133 -0.739391 0
M  V30 3031 H 292.68 -0.317538 -2.96706 0
M  V30 3032 C 291.429 1.44751 -3.16137 0
M  V30 3033 H 290.752 0.963473 -3.88017 0
M  V30 3034 H 292.192 1.99315 -3.74232 0
M  V30 3035 C 290.651 2.43869 -2.32442 0
M  V30 3036 O 291.181 3.4872 -1.99392 0
M  V30 3037 N 289.387 2.15105 -1.95392 0
M  V30 3038 H 288.934 1.29866 -2.22469 0
M  V30 3039 H 288.892 2.81661 -1.39693 0
M  V30 3040 N 292.664 1.56529 -0.183458 0
M  V30 3041 C 293.91 1.97537 0.459036 0
M  V30 3042 C 294.243 1.06989 1.62071 0
M  V30 3043 O 293.518 0.11948 1.94133 0
M  V30 3044 C 293.801 3.47874 0.930368 0
M  V30 3045 C 293.654 4.492 -0.232317 0
M  V30 3046 C 294.973 4.01612 1.79989 0
M  V30 3047 H 292.092 0.718204 0.165383 0
M  V30 3048 H 294.734 1.88042 -0.272038 0
M  V30 3049 H 292.884 3.56095 1.55333 0
M  V30 3050 H 294.556 4.53027 -0.86972 0
M  V30 3051 H 292.799 4.24657 -0.885928 0
M  V30 3052 H 293.47 5.51823 0.139796 0
M  V30 3053 H 295.946 3.96097 1.27461 0
M  V30 3054 H 294.822 5.07195 2.09867 0
M  V30 3055 H 295.083 3.46163 2.74998 0
M  V30 3056 N 294.142 -0.090211 1.57342 0
M  V30 3057 C 295.052 -1.12735 2.05738 0
M  V30 3058 C 296.068 -1.43557 0.983231 0
M  V30 3059 O 297.244 -1.54101 1.29672 0
M  V30 3060 C 294.309 -2.42659 2.47624 0
M  V30 3061 C 293.37 -2.18975 3.69254 0
M  V30 3062 C 292.603 -3.42704 4.09133 0
M  V30 3063 O 292.826 -4.51127 3.49057 0
M  V30 3064 O 291.76 -3.32003 5.02053 0
M  V30 3065 H 295.586 -0.746279 2.94388 0
M  V30 3066 H 293.171 -0.303064 1.46294 0
M  V30 3067 H 295.053 -3.19155 2.7517 0
M  V30 3068 H 293.728 -2.80182 1.62109 0
M  V30 3069 H 292.635 -1.40244 3.46818 0
M  V30 3070 H 293.968 -1.86342 4.55563 0
M  V30 3071 N 295.62 -1.53406 -0.361157 0
M  V30 3072 C 296.866 -1.70999 -1.1014 0
M  V30 3073 C 297.221 -0.458425 -1.86859 0
M  V30 3074 O 296.514 0.548654 -1.83577 0
M  V30 3075 C 296.708 -2.90211 -2.08596 0
M  V30 3076 C 296.537 -4.26841 -1.41553 0
M  V30 3077 C 295.307 -4.91621 -1.16778 0
M  V30 3078 C 297.505 -5.07212 -0.850915 0
M  V30 3079 N 295.487 -6.12164 -0.461312 0
M  V30 3080 C 296.858 -6.19394 -0.274046 0
M  V30 3081 C 298.913 -4.92218 -0.750036 0
M  V30 3082 C 297.616 -7.18221 0.393868 0
M  V30 3083 C 299.642 -5.91322 -0.095894 0
M  V30 3084 C 299.004 -7.0283 0.470081 0
M  V30 3085 H 295.103 -0.678939 -0.388028 0
M  V30 3086 H 297.687 -1.90811 -0.38722 0
M  V30 3087 H 295.858 -2.71931 -2.77323 0
M  V30 3088 H 297.59 -2.96606 -2.7533 0
M  V30 3089 H 294.345 -4.50849 -1.45024 0
M  V30 3090 H 294.769 -6.76888 -0.123312 0
M  V30 3091 H 299.411 -4.06192 -1.17337 0
M  V30 3092 H 297.129 -8.03835 0.82914 0
M  V30 3093 H 300.715 -5.81797 -0.0187075 0
M  V30 3094 H 299.595 -7.782 0.968241 0
M  V30 3095 N 297.098 0.621204 -1.44841 0
M  V30 3096 C 298.344 1.3826 -1.48365 0
M  V30 3097 C 298.677 1.93831 -0.119624 0
M  V30 3098 O 297.952 1.74251 0.864111 0
M  V30 3099 C 298.235 2.54058 -2.55199 0
M  V30 3100 C 298.088 2.03772 -4.00995 0
M  V30 3101 C 299.407 3.56225 -2.58442 0
M  V30 3102 H 296.526 0.501374 -0.540179 0
M  V30 3103 H 299.168 0.7015 -1.76576 0
M  V30 3104 H 297.318 3.12162 -2.31274 0
M  V30 3105 H 298.99 1.50423 -4.36086 0
M  V30 3106 H 297.233 1.34876 -4.12299 0
M  V30 3107 H 297.904 2.87185 -4.71411 0
M  V30 3108 H 300.38 3.07939 -2.79844 0
M  V30 3109 H 299.256 4.34756 -3.3508 0
M  V30 3110 H 299.517 4.10949 -1.63013 0
M  V30 3111 N 298.576 1.31904 0.862503 0
M  V30 3112 C 299.987 1.19803 1.43193 0
M  V30 3113 C 300.338 -0.192567 1.95253 0
M  V30 3114 O 299.463 -1.09081 1.86896 0
M  V30 3115 C 300.058 2.16883 2.60283 0
M  V30 3116 C 298.617 2.08692 3.13248 0
M  V30 3117 C 297.764 2.05691 1.85975 0
M  V30 3118 H 300.715 1.43846 0.670365 0
M  V30 3119 H 300.736 1.76278 3.37204 0
M  V30 3120 H 300.248 3.18083 2.22363 0
M  V30 3121 H 298.349 1.10713 3.55771 0
M  V30 3122 H 298.462 2.9815 3.75025 0
M  V30 3123 H 296.826 1.50814 2.05249 0
M  V30 3124 H 297.609 3.08659 1.50282 0
M  V30 3125 N 300.054 -1.07777 1.14986 0
M  V30 3126 C 301.282 -1.84018 0.945773 0
M  V30 3127 C 301.697 -1.81897 -0.505863 0
M  V30 3128 O 301.054 -1.22726 -1.35072 0
M  V30 3129 C 301.105 -3.31287 1.44677 0
M  V30 3130 O 300.826 -3.33449 2.84154 0
M  V30 3131 C 302.327 -4.24311 1.28355 0
M  V30 3132 H 299.547 -0.580716 0.336169 0
M  V30 3133 H 302.091 -1.36077 1.52654 0
M  V30 3134 H 300.246 -3.76594 0.908625 0
M  V30 3135 H 300.66 -4.25427 3.06777 0
M  V30 3136 H 302.134 -5.2573 1.68261 0
M  V30 3137 H 302.611 -4.38612 0.227184 0
M  V30 3138 H 303.217 -3.84836 1.81056 0
M  V30 3139 N 301.532 -0.945985 -1.26051 0
M  V30 3140 C 302.948 -0.649045 -1.45807 0
M  V30 3141 C 303.148 0.796158 -1.85104 0
M  V30 3142 O 302.204 1.57233 -1.97571 0
M  V30 3143 C 303.517 -1.61458 -2.53677 0
M  V30 3144 C 305.065 -1.62481 -2.67524 0
M  V30 3145 C 305.54 -2.57776 -3.7857 0
M  V30 3146 N 307.031 -2.5609 -3.85969 0
M  V30 3147 C 307.766 -3.26508 -4.7136 0
M  V30 3148 N 307.262 -4.0637 -5.61102 0
M  V30 3149 N 309.055 -3.15437 -4.65248 0
M  V30 3150 H 301.206 -1.88005 -0.988328 0
M  V30 3151 H 303.469 -0.808198 -0.4955 0
M  V30 3152 H 303.175 -2.64644 -2.31638 0
M  V30 3153 H 303.049 -1.37036 -3.51427 0
M  V30 3154 H 305.436 -0.600167 -2.88933 0
M  V30 3155 H 305.517 -1.90958 -1.70202 0
M  V30 3156 H 305.161 -3.60361 -3.57913 0
M  V30 3157 H 305.091 -2.26587 -4.75359 0
M  V30 3158 H 307.582 -1.98105 -3.21812 0
M  V30 3159 H 307.895 -4.57042 -6.23164 0
M  V30 3160 H 306.24 -4.10469 -5.60839 0
M  V30 3161 H 309.431 -2.52525 -3.94143 0
M  V30 3162 H 309.604 -3.70584 -5.31575 0
M  V30 3163 N 303.011 1.40521 -0.713556 0
M  V30 3164 C 303.944 2.28198 -0.00881422 0
M  V30 3165 C 304.922 1.43227 0.769735 0
M  V30 3166 O 306.106 1.72641 0.756799 0
M  V30 3167 C 303.233 3.23758 0.994899 0
M  V30 3168 C 302.279 4.25391 0.3074 0
M  V30 3169 S 303.112 5.26765 -0.963247 0
M  V30 3170 C 304.268 6.25888 0.0384143 0
M  V30 3171 H 304.501 2.87622 -0.752407 0
M  V30 3172 H 302.034 1.45925 -0.504502 0
M  V30 3173 H 303.992 3.79341 1.56879 0
M  V30 3174 H 302.653 2.63396 1.71118 0
M  V30 3175 H 301.846 4.92596 1.0661 0
M  V30 3176 H 301.448 3.73497 -0.193879 0
M  V30 3177 H 303.74 6.71683 0.885912 0
M  V30 3178 H 304.683 7.05552 -0.60019 0
M  V30 3179 H 305.091 5.63072 0.401233 0
M  V30 3180 N 304.489 0.459591 1.5075 0
M  V30 3181 C 305.905 0.113092 1.59199 0
M  V30 3182 C 306.105 -1.37951 1.46874 0
M  V30 3183 O 305.161 -2.15168 1.32132 0
M  V30 3184 C 306.474 0.653043 2.93523 0
M  V30 3185 C 308.022 0.615449 3.0689 0
M  V30 3186 C 308.497 1.13275 4.43771 0
M  V30 3187 N 309.988 1.09167 4.50152 0
M  V30 3188 C 310.723 1.46256 5.54434 0
M  V30 3189 N 310.219 1.90739 6.66026 0
M  V30 3190 N 312.012 1.37932 5.44914 0
M  V30 3191 H 304.163 1.43049 1.57005 0
M  V30 3192 H 306.426 0.590861 0.741341 0
M  V30 3193 H 306.132 1.69822 3.07983 0
M  V30 3194 H 306.006 0.0902132 3.77092 0
M  V30 3195 H 308.393 -0.420793 2.92084 0
M  V30 3196 H 308.474 1.21495 2.25106 0
M  V30 3197 H 308.118 2.16757 4.59324 0
M  V30 3198 H 308.048 0.509576 5.24129 0
M  V30 3199 H 310.539 0.76528 3.7007 0
M  V30 3200 H 310.852 2.17218 7.41644 0
M  V30 3201 H 309.197 1.94683 6.67176 0
M  V30 3202 H 312.388 1.0303 4.56621 0
M  V30 3203 H 312.561 1.67164 6.26067 0
M  V30 3204 N 305.967 -1.56429 0.191757 0
M  V30 3205 C 306.93 -2.17707 -0.716688 0
M  V30 3206 C 307.93 -1.13061 -1.14341 0
M  V30 3207 O 309.12 -1.38464 -1.05704 0
M  V30 3208 C 306.252 -2.77644 -1.97804 0
M  V30 3209 H 307.445 -2.99342 -0.1829 0
M  V30 3210 H 304.998 -1.56193 -0.0578566 0
M  V30 3211 H 305.733 -1.99799 -2.55443 0
M  V30 3212 H 305.518 -3.54246 -1.68083 0
M  V30 3213 H 307.008 -3.24708 -2.62592 0
M  V30 3214 N 307.445 0.0818655 -1.57387 0
M  V30 3215 C 308.694 0.781681 -1.85937 0
M  V30 3216 C 309.007 1.79246 -0.782957 0
M  V30 3217 O 310.213 2.54112 -0.955987 0
M  V30 3218 C 308.669 1.44109 -3.29789 0
M  V30 3219 C 308.277 0.469396 -4.45534 0
M  V30 3220 C 310.021 2.12386 -3.67549 0
M  V30 3221 C 307.928 1.13415 -5.80423 0
M  V30 3222 H 306.858 0.295682 -0.693605 0
M  V30 3223 H 309.509 0.0348051 -1.83467 0
M  V30 3224 H 307.891 2.23588 -3.2684 0
M  V30 3225 H 309.065 -0.294856 -4.59856 0
M  V30 3226 H 307.38 -0.108383 -4.16259 0
M  V30 3227 H 309.977 2.62878 -4.65617 0
M  V30 3228 H 310.32 2.91877 -2.96839 0
M  V30 3229 H 310.853 1.39751 -3.72444 0
M  V30 3230 H 307.592 0.379771 -6.54399 0
M  V30 3231 H 307.112 1.8695 -5.69921 0
M  V30 3232 H 308.791 1.65686 -6.25426 0
M  V30 3233 N 308.923 1.53595 0.353017 0
M  V30 3234 C 309.856 1.7572 1.45594 0
M  V30 3235 C 310.834 0.605961 1.50887 0
M  V30 3236 O 312.018 0.840023 1.68748 0
M  V30 3237 C 309.145 1.84732 2.83887 0
M  V30 3238 C 308.191 3.06808 2.96262 0
M  V30 3239 S 309.024 4.66065 2.63711 0
M  V30 3240 C 310.18 4.77943 4.04131 0
M  V30 3241 H 310.413 2.68994 1.26608 0
M  V30 3242 H 307.946 1.44343 0.548117 0
M  V30 3243 H 309.904 1.9061 3.63563 0
M  V30 3244 H 308.565 0.92488 3.00175 0
M  V30 3245 H 307.758 3.09761 3.97573 0
M  V30 3246 H 307.36 2.99108 2.24523 0
M  V30 3247 H 309.652 4.5877 4.98534 0
M  V30 3248 H 310.595 5.80022 4.06177 0
M  V30 3249 H 311.003 4.06472 3.91715 0
M  V30 3250 N 310.401 -0.613514 1.45168 0
M  V30 3251 C 311.626 -1.40437 1.52618 0
M  V30 3252 C 312.051 -1.87438 0.157707 0
M  V30 3253 O 311.409 -1.59791 -0.856537 0
M  V30 3254 C 311.457 -2.58894 2.51011 0
M  V30 3255 O 310.561 -3.59326 2.02382 0
M  V30 3256 H 309.902 -0.419506 0.514695 0
M  V30 3257 H 312.432 -0.747215 1.90467 0
M  V30 3258 H 312.442 -3.06214 2.69624 0
M  V30 3259 H 311.117 -2.24032 3.50403 0
M  V30 3260 H 309.694 -3.18695 1.93618 0
M  V30 3261 N 311.879 -1.3236 -0.855495 0
M  V30 3262 C 313.107 -1.2587 -1.64208 0
M  V30 3263 C 313.522 0.173457 -1.88002 0
M  V30 3264 O 312.879 1.11027 -1.44842 0
M  V30 3265 C 312.93 -2.01424 -3.00184 0
M  V30 3266 O 312.651 -3.39051 -2.77445 0
M  V30 3267 C 314.152 -2.01948 -3.94629 0
M  V30 3268 H 311.372 -0.434318 -0.511477 0
M  V30 3269 H 313.916 -1.74469 -1.0668 0
M  V30 3270 H 312.071 -1.56549 -3.5436 0
M  V30 3271 H 312.485 -3.77711 -3.63916 0
M  V30 3272 H 313.959 -2.59297 -4.87308 0
M  V30 3273 H 314.436 -1.00554 -4.27534 0
M  V30 3274 H 315.042 -2.46767 -3.4639 0
M  V30 3275 N 313.357 1.07166 -1.15556 0
M  V30 3276 C 314.32 2.12589 -0.856644 0
M  V30 3277 C 315.32 1.6015 0.14444 0
M  V30 3278 O 316.51 1.7399 -0.0854163 0
M  V30 3279 C 313.642 3.39753 -0.279405 0
M  V30 3280 H 314.835 2.40539 -1.79112 0
M  V30 3281 H 312.388 1.23086 -0.963298 0
M  V30 3282 H 313.123 3.17447 0.663174 0
M  V30 3283 H 312.908 3.79117 -1.00063 0
M  V30 3284 H 314.398 4.17507 -0.0879113 0
M  V30 3285 N 314.835 0.952656 1.25548 0
M  V30 3286 C 315.765 0.489287 2.28316 0
M  V30 3287 C 316.746 -0.463359 1.63667 0
M  V30 3288 O 317.931 -0.36274 1.90782 0
M  V30 3289 C 315.061 -0.235603 3.465 0
M  V30 3290 C 314.015 0.631593 4.23314 0
M  V30 3291 C 313.341 -0.223923 5.34231 0
M  V30 3292 C 314.641 1.90871 4.86174 0
M  V30 3293 H 316.335 1.34822 2.67326 0
M  V30 3294 H 313.881 0.649728 1.28509 0
M  V30 3295 H 315.834 -0.570882 4.17515 0
M  V30 3296 H 314.558 -1.12877 3.06474 0
M  V30 3297 H 313.217 0.949929 3.54079 0
M  V30 3298 H 312.865 -1.11678 4.90446 0
M  V30 3299 H 312.565 0.35299 5.86539 0
M  V30 3300 H 314.089 -0.554214 6.0808 0
M  V30 3301 H 315.503 1.63997 5.49343 0
M  V30 3302 H 313.9 2.43112 5.4865 0
M  V30 3303 H 314.97 2.61304 4.08471 0
M  V30 3304 N 316.313 -1.40141 0.720998 0
M  V30 3305 C 317.561 -2.0039 0.262323 0
M  V30 3306 C 317.882 -1.57469 -1.15015 0
M  V30 3307 O 317.152 -0.816582 -1.78069 0
M  V30 3308 H 315.732 -0.741063 0.093996 0
M  V30 3309 H 318.394 -1.71398 0.927835 0
M  V30 3310 H 317.49 -3.10658 0.299671 0
M  V30 3311 N 317.792 -0.46758 -1.50504 0
M  V30 3312 C 319.022 0.086288 -2.0642 0
M  V30 3313 C 319.43 1.34369 -1.33197 0
M  V30 3314 O 318.773 1.79431 -0.393747 0
M  V30 3315 C 318.835 0.443846 -3.5675 0
M  V30 3316 C 318.499 -0.711035 -4.51435 0
M  V30 3317 C 319.496 -1.59205 -4.94924 0
M  V30 3318 C 317.181 -0.900363 -4.94165 0
M  V30 3319 C 319.175 -2.64683 -5.79846 0
M  V30 3320 C 316.862 -1.95837 -5.7887 0
M  V30 3321 C 317.86 -2.82997 -6.21612 0
M  V30 3322 O 317.548 -3.86977 -7.0463 0
M  V30 3323 H 317.28 -0.00217814 -0.675996 0
M  V30 3324 H 319.834 -0.654346 -1.94698 0
M  V30 3325 H 318.064 1.23762 -3.6636 0
M  V30 3326 H 319.753 0.932386 -3.95046 0
M  V30 3327 H 320.519 -1.45745 -4.62583 0
M  V30 3328 H 316.398 -0.231427 -4.60419 0
M  V30 3329 H 319.942 -3.32745 -6.13128 0
M  V30 3330 H 315.839 -2.09305 -6.10624 0
M  V30 3331 H 316.607 -3.83923 -7.22873 0
M  V30 3332 N 319.27 1.56325 -0.20005 0
M  V30 3333 C 320.51 1.99619 0.439519 0
M  V30 3334 C 320.874 1.08423 1.58456 0
M  V30 3335 O 322.075 1.40973 2.28867 0
M  V30 3336 C 320.346 3.46314 0.883258 0
M  V30 3337 S 321.905 4.11634 1.51997 0
M  V30 3338 H 318.723 0.697007 0.140363 0
M  V30 3339 H 321.325 1.93118 -0.304282 0
M  V30 3340 H 320.029 4.10381 0.0398967 0
M  V30 3341 H 319.56 3.56643 1.6604 0
M  V30 3342 H 321.575 4.09049 2.8088 0
M  V30 3343 N 320.748 -0.0735177 1.57428 0
M  V30 3344 C 321.978 -0.78483 1.91112 0
M  V30 3345 C 322.386 -1.71729 0.7941 0
M  V30 3346 O 321.729 -1.82105 -0.241542 0
M  V30 3347 C 321.791 -1.63346 3.20247 0
M  V30 3348 C 321.455 -0.870557 4.48632 0
M  V30 3349 C 322.452 -0.19058 5.19551 0
M  V30 3350 C 320.137 -0.838242 4.95256 0
M  V30 3351 C 322.131 0.511503 6.35344 0
M  V30 3352 C 319.818 -0.132386 6.10957 0
M  V30 3353 C 320.816 0.541288 6.80852 0
M  V30 3354 O 320.504 1.23578 7.94345 0
M  V30 3355 H 320.236 -0.228408 0.636244 0
M  V30 3356 H 322.79 -0.0486039 2.05342 0
M  V30 3357 H 321.02 -2.41245 3.02222 0
M  V30 3358 H 322.709 -2.22329 3.39595 0
M  V30 3359 H 323.475 -0.206864 4.84559 0
M  V30 3360 H 319.354 -1.35206 4.40727 0
M  V30 3361 H 322.898 1.03789 6.89836 0
M  V30 3362 H 318.795 -0.114023 6.45399 0
M  V30 3363 H 319.563 1.14487 8.10454 0
M  V30 3364 N 322.226 -1.5378 -0.344866 0
M  V30 3365 C 323.454 -1.74899 -1.10534 0
M  V30 3366 C 323.869 -0.487534 -1.82397 0
M  V30 3367 O 323.226 0.540741 -1.74305 0
M  V30 3368 C 323.277 -2.92822 -2.11984 0
M  V30 3369 O 322.998 -4.14089 -1.43044 0
M  V30 3370 C 324.499 -3.25982 -3.00417 0
M  V30 3371 H 321.719 -0.584426 -0.329678 0
M  V30 3372 H 324.263 -2.006 -0.397474 0
M  V30 3373 H 322.418 -2.69457 -2.78338 0
M  V30 3374 H 322.832 -4.80272 -2.10805 0
M  V30 3375 H 324.306 -4.11848 -3.67539 0
M  V30 3376 H 324.783 -2.42228 -3.66363 0
M  V30 3377 H 325.389 -3.51349 -2.39654 0
M  V30 3378 N 323.704 0.605807 -1.45491 0
M  V30 3379 C 324.951 1.36476 -1.49601 0
M  V30 3380 C 325.279 1.94007 -0.138452 0
M  V30 3381 O 324.534 1.75638 0.863114 0
M  V30 3382 C 324.833 2.53012 -2.52428 0
M  V30 3383 C 324.499 2.13617 -3.97087 0
M  V30 3384 C 323.161 2.02587 -4.36477 0
M  V30 3385 C 325.513 1.82899 -4.88055 0
M  V30 3386 C 322.841 1.59064 -5.64726 0
M  V30 3387 C 325.193 1.40861 -6.16718 0
M  V30 3388 C 323.857 1.28391 -6.55036 0
M  V30 3389 H 323.127 0.499402 -0.547429 0
M  V30 3390 H 325.774 0.684546 -1.78847 0
M  V30 3391 H 324.079 3.26379 -2.16758 0
M  V30 3392 H 325.776 3.1124 -2.52845 0
M  V30 3393 H 322.366 2.23129 -3.65939 0
M  V30 3394 H 326.55 1.90317 -4.58359 0
M  V30 3395 H 321.806 1.48034 -5.93208 0
M  V30 3396 H 325.98 1.16138 -6.86648 0
M  V30 3397 H 323.607 0.944403 -7.54311 0
M  V30 3398 N 325.182 1.32811 0.848464 0
M  V30 3399 C 326.43 1.23479 1.59991 0
M  V30 3400 C 326.751 -0.201853 1.93952 0
M  V30 3401 O 326.021 -1.12818 1.60153 0
M  V30 3402 H 324.601 0.454034 0.593179 0
M  V30 3403 H 327.263 1.66412 1.01455 0
M  V30 3404 H 326.359 1.82178 2.53412 0
M  V30 3405 N 326.66 -1.06551 1.16123 0
M  V30 3406 C 327.592 -2.13908 0.823171 0
M  V30 3407 C 328.605 -1.61926 -0.16843 0
M  V30 3408 O 329.794 -1.78412 0.055962 0
M  V30 3409 C 326.894 -3.38283 0.204424 0
M  V30 3410 C 326.067 -4.19589 1.23548 0
M  V30 3411 C 325.126 -5.2233 0.637011 0
M  V30 3412 O 324.152 -5.54034 1.30516 0
M  V30 3413 N 325.354 -5.77621 -0.577474 0
M  V30 3414 H 328.119 -2.43508 1.74711 0
M  V30 3415 H 325.68 -1.2253 1.05821 0
M  V30 3416 H 327.672 -4.0416 -0.208909 0
M  V30 3417 H 326.242 -3.06329 -0.623012 0
M  V30 3418 H 325.462 -3.49406 1.82507 0
M  V30 3419 H 326.75 -4.70718 1.93137 0
M  V30 3420 H 326.148 -5.54125 -1.13853 0
M  V30 3421 H 324.705 -6.45087 -0.933053 0
M  V30 3422 N 328.138 -0.959301 -1.25041 0
M  V30 3423 C 329.385 -0.616611 -1.92884 0
M  V30 3424 C 329.713 0.847036 -1.75087 0
M  V30 3425 O 328.968 1.62374 -1.09239 0
M  V30 3426 C 329.267 -0.927136 -3.45165 0
M  V30 3427 C 328.933 -2.37757 -3.83122 0
M  V30 3428 C 327.595 -2.77402 -3.93194 0
M  V30 3429 C 329.947 -3.31929 -4.01836 0
M  V30 3430 C 327.275 -4.10277 -4.19392 0
M  V30 3431 C 329.627 -4.64423 -4.29528 0
M  V30 3432 C 328.291 -5.03857 -4.37818 0
M  V30 3433 H 327.561 -0.225634 -0.705812 0
M  V30 3434 H 330.208 -1.20921 -1.48493 0
M  V30 3435 H 328.513 -0.252195 -3.90987 0
M  V30 3436 H 330.21 -0.6405 -3.95852 0
M  V30 3437 H 326.8 -2.06013 -3.75841 0
M  V30 3438 H 330.984 -3.02488 -3.93465 0
M  V30 3439 H 326.24 -4.40467 -4.24027 0
M  V30 3440 H 330.414 -5.37369 -4.42953 0
M  V30 3441 H 328.041 -6.06843 -4.57871 0
M  V30 3442 N 329.616 1.39756 -0.72842 0
M  V30 3443 C 330.865 1.99879 -0.270407 0
M  V30 3444 C 331.178 1.58449 1.14688 0
M  V30 3445 O 332.384 2.11362 1.70407 0
M  V30 3446 C 330.84 3.57292 -0.43252 0
M  V30 3447 C 330.448 4.07688 -1.85727 0
M  V30 3448 C 332.192 4.24485 -0.0359507 0
M  V30 3449 C 330.099 5.5765 -1.96928 0
M  V30 3450 H 329.029 0.747689 -0.0973472 0
M  V30 3451 H 331.68 1.59837 -0.901355 0
M  V30 3452 H 330.062 3.95097 0.267219 0
M  V30 3453 H 331.236 3.81231 -2.58843 0
M  V30 3454 H 329.551 3.53135 -2.20646 0
M  V30 3455 H 332.148 5.34609 -0.0987484 0
M  V30 3456 H 332.491 4.03915 1.00787 0
M  V30 3457 H 333.024 3.9183 -0.686604 0
M  V30 3458 H 329.763 5.8309 -2.99476 0
M  V30 3459 H 329.283 5.8593 -1.28241 0
M  V30 3460 H 330.962 6.22957 -1.74737 0
M  V30 3461 N 331.094 0.475555 1.50254 0
M  V30 3462 C 332.024 -0.30611 2.31485 0
M  V30 3463 C 333.005 -0.986228 1.38591 0
M  V30 3464 O 334.19 -0.982541 1.67511 0
M  V30 3465 C 331.32 -1.38588 3.1845 0
M  V30 3466 C 330.274 -0.827115 4.19932 0
M  V30 3467 C 329.6 -2.00551 4.95665 0
M  V30 3468 C 330.9 0.16463 5.2204 0
M  V30 3469 H 332.594 0.371866 2.97082 0
M  V30 3470 H 330.14 0.180282 1.42867 0
M  V30 3471 H 332.093 -1.94023 3.74076 0
M  V30 3472 H 330.817 -2.09269 2.50747 0
M  V30 3473 H 329.476 -0.294702 3.65414 0
M  V30 3474 H 329.124 -2.6994 4.2443 0
M  V30 3475 H 328.824 -1.63784 5.64313 0
M  V30 3476 H 330.348 -2.56468 5.54127 0
M  V30 3477 H 331.762 -0.300699 5.72511 0
M  V30 3478 H 330.159 0.446813 5.98434 0
M  V30 3479 H 331.229 1.08905 4.72512 0
M  V30 3480 N 332.573 -1.56217 0.208337 0
M  V30 3481 C 333.984 -1.84243 -0.301904 0
M  V30 3482 C 334.335 -1.12939 -1.60434 0
M  V30 3483 O 333.46 -0.39461 -2.12772 0
M  V30 3484 C 334.055 -3.34231 -0.554543 0
M  V30 3485 C 332.614 -3.62621 -1.00912 0
M  V30 3486 C 331.761 -2.77224 -0.064933 0
M  V30 3487 H 334.712 -1.52712 0.431833 0
M  V30 3488 H 334.733 -3.5372 -1.40223 0
M  V30 3489 H 334.245 -3.86099 0.393561 0
M  V30 3490 H 332.346 -3.16197 -1.97104 0
M  V30 3491 H 332.459 -4.7071 -0.892674 0
M  V30 3492 H 330.823 -2.48256 -0.56929 0
M  V30 3493 H 331.606 -3.31887 0.877851 0
M  V30 3494 N 334.051 0.0651679 -1.57465 0
M  V30 3495 C 335.299 0.761555 -1.87202 0
M  V30 3496 C 335.62 1.77778 -0.801243 0
M  V30 3497 O 334.89 1.95166 0.16937 0
M  V30 3498 H 333.47 0.284251 -0.690804 0
M  V30 3499 H 336.132 0.0396827 -1.9486 0
M  V30 3500 H 335.228 1.27365 -2.84929 0
M  V30 3501 N 335.529 1.53961 0.336706 0
M  V30 3502 C 336.459 1.85417 1.41925 0
M  V30 3503 C 337.44 0.709856 1.5458 0
M  V30 3504 O 338.625 0.962396 1.68676 0
M  V30 3505 C 335.755 2.06985 2.78881 0
M  V30 3506 C 334.709 3.22813 2.81026 0
M  V30 3507 C 334.035 3.29727 4.20932 0
M  V30 3508 C 335.335 4.60767 2.45949 0
M  V30 3509 H 337.029 2.76079 1.15848 0
M  V30 3510 H 334.575 1.32839 0.555859 0
M  V30 3511 H 336.528 2.27575 3.54665 0
M  V30 3512 H 335.252 1.13061 3.06406 0
M  V30 3513 H 333.911 3.0209 2.07695 0
M  V30 3514 H 333.559 2.33385 4.45579 0
M  V30 3515 H 333.259 4.07566 4.23277 0
M  V30 3516 H 334.783 3.52536 4.98549 0
M  V30 3517 H 336.197 4.81325 3.11446 0
M  V30 3518 H 334.594 5.4106 2.59566 0
M  V30 3519 H 335.664 4.6391 1.41122 0
M  V30 3520 N 337.007 -0.598083 1.45811 0
M  V30 3521 C 337.97 -1.69018 1.54808 0
M  V30 3522 C 338.97 -1.55037 0.426652 0
M  V30 3523 O 340.16 -1.59932 0.690456 0
M  V30 3524 C 337.292 -3.0835 1.45371 0
M  V30 3525 H 338.485 -1.62403 2.52121 0
M  V30 3526 H 336.038 -0.814626 1.33392 0
M  V30 3527 H 336.773 -3.20534 0.492793 0
M  V30 3528 H 336.558 -3.19907 2.26721 0
M  V30 3529 H 338.048 -3.8788 1.54721 0
M  V30 3530 N 338.485 -1.33259 -0.841409 0
M  V30 3531 C 339.715 -1.2742 -1.62628 0
M  V30 3532 C 340.123 0.157604 -1.88542 0
M  V30 3533 O 339.466 1.10938 -1.46419 0
M  V30 3534 C 339.528 -1.97797 -3.00194 0
M  V30 3535 C 339.192 -3.47109 -2.97261 0
M  V30 3536 C 340.189 -4.42358 -2.73159 0
M  V30 3537 C 337.874 -3.89247 -3.17478 0
M  V30 3538 C 339.868 -5.77718 -2.69296 0
M  V30 3539 C 337.555 -5.24713 -3.13241 0
M  V30 3540 C 338.553 -6.1876 -2.89181 0
M  V30 3541 O 338.241 -7.51745 -2.84843 0
M  V30 3542 H 337.973 -0.440436 -0.512827 0
M  V30 3543 H 340.527 -1.76153 -1.05638 0
M  V30 3544 H 338.757 -1.43652 -3.59028 0
M  V30 3545 H 340.446 -1.8549 -3.61038 0
M  V30 3546 H 341.212 -4.11127 -2.57294 0
M  V30 3547 H 337.091 -3.16456 -3.35226 0
M  V30 3548 H 340.635 -6.51097 -2.50436 0
M  V30 3549 H 336.532 -5.55569 -3.28654 0
M  V30 3550 H 337.3 -7.61262 -3.00702 0
M  V30 3551 N 339.963 1.05934 -1.16686 0
M  V30 3552 C 340.926 2.11669 -0.879144 0
M  V30 3553 C 341.926 1.60294 0.127445 0
M  V30 3554 O 343.116 1.7389 -0.103865 0
M  V30 3555 C 340.248 3.39438 -0.315425 0
M  V30 3556 H 341.441 2.38626 -1.81653 0
M  V30 3557 H 338.994 1.22058 -0.976299 0
M  V30 3558 H 339.729 3.18132 0.629468 0
M  V30 3559 H 339.514 3.78034 -1.04079 0
M  V30 3560 H 341.004 4.17391 -0.132189 0
M  V30 3561 N 341.441 0.965919 1.2453 0
M  V30 3562 C 342.69 0.622437 1.91856 0
M  V30 3563 C 343.003 -0.846006 1.76358 0
M  V30 3564 O 344.209 -1.29993 2.38357 0
M  V30 3565 C 342.665 1.0626 3.43856 0
M  V30 3566 C 342.273 2.55437 3.68043 0
M  V30 3567 C 344.017 0.792183 4.17043 0
M  V30 3568 C 341.924 2.93196 5.13605 0
M  V30 3569 H 340.854 0.229092 0.718354 0
M  V30 3570 H 343.505 1.17189 1.41206 0
M  V30 3571 H 341.887 0.441476 3.93531 0
M  V30 3572 H 343.061 3.22665 3.28974 0
M  V30 3573 H 341.376 2.8007 3.08139 0
M  V30 3574 H 343.973 1.05031 5.24283 0
M  V30 3575 H 344.316 -0.271584 4.15413 0
M  V30 3576 H 344.849 1.37419 3.73311 0
M  V30 3577 H 341.588 3.98636 5.20355 0
M  V30 3578 H 341.108 2.30651 5.53679 0
M  V30 3579 H 342.787 2.83004 5.81823 0
M  V30 3580 N 342.919 -1.39368 0.735821 0
M  V30 3581 C 344.33 -1.83313 0.354015 0
M  V30 3582 C 344.681 -1.61461 -1.11466 0
M  V30 3583 O 343.806 -1.10621 -1.85989 0
M  V30 3584 C 344.401 -3.32781 0.635769 0
M  V30 3585 C 342.96 -3.75142 0.307448 0
M  V30 3586 C 342.107 -2.62358 0.897974 0
M  V30 3587 H 345.058 -1.28349 0.933398 0
M  V30 3588 H 345.079 -3.80388 -0.0921773 0
M  V30 3589 H 344.591 -3.48654 1.70476 0
M  V30 3590 H 342.692 -3.64857 -0.755674 0
M  V30 3591 H 342.805 -4.72532 0.790583 0
M  V30 3592 H 341.169 -2.52624 0.324551 0
M  V30 3593 H 341.952 -2.81036 1.97164 0
M  V30 3594 N 344.397 -0.483516 -1.5 0
M  V30 3595 C 345.329 0.340634 -2.26655 0
M  V30 3596 C 346.342 0.946152 -1.32483 0
M  V30 3597 O 347.531 0.832453 -1.579 0
M  V30 3598 C 344.631 1.4929 -3.04246 0
M  V30 3599 C 343.804 0.997903 -4.25865 0
M  V30 3600 C 342.863 2.02569 -4.85646 0
M  V30 3601 O 341.889 1.60128 -5.46212 0
M  V30 3602 N 343.091 3.3548 -4.73744 0
M  V30 3603 H 345.856 -0.316577 -2.98023 0
M  V30 3604 H 343.417 -0.315024 -1.58806 0
M  V30 3605 H 345.409 2.17766 -3.41116 0
M  V30 3606 H 343.979 2.05458 -2.35597 0
M  V30 3607 H 343.199 0.138617 -3.93956 0
M  V30 3608 H 344.487 0.645305 -5.04691 0
M  V30 3609 H 343.885 3.72661 -4.25605 0
M  V30 3610 H 342.442 3.99718 -5.14848 0
M  V30 3611 N 345.875 1.56104 -0.216619 0
M  V30 3612 C 347.121 1.99219 0.410301 0
M  V30 3613 C 347.476 1.10169 1.57735 0
M  V30 3614 O 346.769 0.150598 1.91007 0
M  V30 3615 C 346.963 3.45923 0.898464 0
M  V30 3616 C 346.792 4.49163 -0.219748 0
M  V30 3617 C 345.562 5.00642 -0.684516 0
M  V30 3618 C 347.76 5.03751 -1.03629 0
M  V30 3619 N 345.742 5.87579 -1.7783 0
M  V30 3620 C 347.113 5.87566 -1.97904 0
M  V30 3621 C 349.168 4.86128 -1.07629 0
M  V30 3622 C 347.871 6.5564 -2.95851 0
M  V30 3623 C 349.897 5.54958 -2.04392 0
M  V30 3624 C 349.259 6.38536 -2.97407 0
M  V30 3625 H 345.358 0.773206 0.11695 0
M  V30 3626 H 347.942 1.9193 -0.327258 0
M  V30 3627 H 346.113 3.53669 1.6054 0
M  V30 3628 H 347.845 3.75963 1.49779 0
M  V30 3629 H 344.6 4.72807 -0.27399 0
M  V30 3630 H 345.024 6.3575 -2.32705 0
M  V30 3631 H 349.666 4.21168 -0.371099 0
M  V30 3632 H 347.384 7.19785 -3.67335 0
M  V30 3633 H 350.97 5.43289 -2.08154 0
M  V30 3634 H 349.85 6.90858 -3.71059 0
M  V30 3635 N 347.353 -0.0568162 1.57498 0
M  V30 3636 C 348.769 -0.411933 1.54192 0
M  V30 3637 C 348.969 -1.78287 0.938942 0
M  V30 3638 O 348.025 -2.46483 0.547919 0
M  V30 3639 C 349.338 -0.339244 2.9878 0
M  V30 3640 C 350.886 -0.418348 3.10192 0
M  V30 3641 C 351.361 -0.375407 4.56459 0
M  V30 3642 N 352.852 -0.435038 4.61153 0
M  V30 3643 C 353.587 -0.424265 5.71828 0
M  V30 3644 N 353.083 -0.367418 6.91825 0
M  V30 3645 N 354.876 -0.471938 5.60115 0
M  V30 3646 H 347.027 0.840684 1.95055 0
M  V30 3647 H 349.29 0.316987 0.893433 0
M  V30 3648 H 348.996 0.601742 3.46514 0
M  V30 3649 H 348.87 -1.14371 3.59443 0
M  V30 3650 H 351.257 -1.34976 2.62422 0
M  V30 3651 H 351.338 0.414962 2.52412 0
M  V30 3652 H 350.982 0.552219 5.04889 0
M  V30 3653 H 350.912 -1.22645 5.12119 0
M  V30 3654 H 353.403 -0.482612 3.74806 0
M  V30 3655 H 353.716 -0.363535 7.71944 0
M  V30 3656 H 352.061 -0.333879 6.94198 0
M  V30 3657 H 355.252 -0.514145 4.65268 0
M  V30 3658 H 355.425 -0.460073 6.46365 0
M  V30 3659 N 348.832 -1.54138 -0.328536 0
M  V30 3660 C 350.078 -1.73297 -1.06488 0
M  V30 3661 C 350.433 -0.497958 -1.85844 0
M  V30 3662 O 349.726 0.509591 -1.84699 0
M  V30 3663 C 349.92 -2.9457 -2.02393 0
M  V30 3664 C 349.749 -4.29747 -1.32467 0
M  V30 3665 C 348.519 -4.93987 -1.06324 0
M  V30 3666 C 350.717 -5.08903 -0.743137 0
M  V30 3667 N 348.699 -6.13005 -0.331359 0
M  V30 3668 C 350.07 -6.19836 -0.142602 0
M  V30 3669 C 352.125 -4.93699 -0.64546 0
M  V30 3670 C 350.828 -7.17224 0.546125 0
M  V30 3671 C 352.854 -5.91393 0.0295558 0
M  V30 3672 C 352.216 -7.01674 0.619056 0
M  V30 3673 H 348.315 -0.687017 -0.373539 0
M  V30 3674 H 350.899 -1.91589 -0.346659 0
M  V30 3675 H 349.07 -2.77752 -2.71493 0
M  V30 3676 H 350.802 -3.0238 -2.68977 0
M  V30 3677 H 347.557 -4.53824 -1.35428 0
M  V30 3678 H 347.981 -6.76997 0.0202939 0
M  V30 3679 H 352.623 -4.08589 -1.08695 0
M  V30 3680 H 350.341 -8.01896 0.999459 0
M  V30 3681 H 353.927 -5.81706 0.104705 0
M  V30 3682 H 352.807 -7.75971 1.13309 0
M  V30 3683 N 350.31 0.590341 -1.46126 0
M  V30 3684 C 351.24 1.71032 -1.58966 0
M  V30 3685 C 352.221 1.64302 -0.440335 0
M  V30 3686 O 353.406 1.82436 -0.665634 0
M  V30 3687 C 350.536 3.09665 -1.57241 0
M  V30 3688 C 349.49 3.31221 -2.71066 0
M  V30 3689 C 348.816 4.70303 -2.54399 0
M  V30 3690 C 350.116 3.19796 -4.1295 0
M  V30 3691 H 351.81 1.60543 -2.52718 0
M  V30 3692 H 349.356 0.770933 -1.21625 0
M  V30 3693 H 351.309 3.87831 -1.64819 0
M  V30 3694 H 350.033 3.21036 -0.600289 0
M  V30 3695 H 348.692 2.55452 -2.62944 0
M  V30 3696 H 348.34 4.78429 -1.55288 0
M  V30 3697 H 348.04 4.85679 -3.30741 0
M  V30 3698 H 349.564 5.50647 -2.63857 0
M  V30 3699 H 350.978 3.87815 -4.22223 0
M  V30 3700 H 349.375 3.46696 -4.89818 0
M  V30 3701 H 350.445 2.16983 -4.33643 0
M  V30 3702 N 351.788 1.33704 0.83433 0
M  V30 3703 C 352.72 1.20172 1.9517 0
M  V30 3704 C 353.733 0.131572 1.62267 0
M  V30 3705 O 354.922 0.382406 1.74356 0
M  V30 3706 C 352.022 0.821716 3.28787 0
M  V30 3707 C 351.195 1.98446 3.89792 0
M  V30 3708 C 350.254 1.58469 5.01771 0
M  V30 3709 O 349.28 2.29968 5.20676 0
M  V30 3710 N 350.482 0.492291 5.78409 0
M  V30 3711 H 353.247 2.16429 2.07313 0
M  V30 3712 H 350.808 1.26509 1.0103 0
M  V30 3713 H 352.8 0.536291 4.01131 0
M  V30 3714 H 351.37 -0.0503058 3.1256 0
M  V30 3715 H 350.59 2.43526 3.09982 0
M  V30 3716 H 351.878 2.76236 4.27283 0
M  V30 3717 H 351.276 -0.102349 5.65607 0
M  V30 3718 H 349.833 0.266555 6.51255 0
M  V30 3719 N 353.266 -1.05314 1.17247 0
M  V30 3720 C 354.196 -2.1498 0.911362 0
M  V30 3721 C 355.177 -1.69471 -0.146169 0
M  V30 3722 O 356.362 -1.942 0.003812 0
M  V30 3723 C 353.492 -3.4472 0.422528 0
M  V30 3724 C 352.446 -4.03789 1.4191 0
M  V30 3725 C 351.772 -5.28858 0.788274 0
M  V30 3726 C 353.072 -4.41418 2.7919 0
M  V30 3727 H 354.766 -2.3708 1.82848 0
M  V30 3728 H 352.312 -1.13938 0.880569 0
M  V30 3729 H 354.265 -4.20787 0.227289 0
M  V30 3730 H 352.989 -3.22269 -0.530123 0
M  V30 3731 H 351.648 -3.2979 1.60106 0
M  V30 3732 H 351.296 -5.02709 -0.171173 0
M  V30 3733 H 350.996 -5.69338 1.45353 0
M  V30 3734 H 352.52 -6.07612 0.603282 0
M  V30 3735 H 353.934 -5.08524 2.64719 0
M  V30 3736 H 352.331 -4.92913 3.42282 0
M  V30 3737 H 353.401 -3.51819 3.33693 0
M  V30 3738 N 354.744 -0.972509 -1.24016 0
M  V30 3739 C 355.972 -0.654803 -1.96265 0
M  V30 3740 C 356.387 0.776708 -1.72083 0
M  V30 3741 O 355.744 1.52171 -1.00748 0
M  V30 3742 C 355.795 -0.92592 -3.49441 0
M  V30 3743 O 355.516 -2.30116 -3.72798 0
M  V30 3744 C 357.017 -0.623068 -4.38899 0
M  V30 3745 H 354.237 -0.243907 -0.6251 0
M  V30 3746 H 356.781 -1.30175 -1.57717 0
M  V30 3747 H 354.936 -0.325108 -3.86033 0
M  V30 3748 H 355.35 -2.38483 -4.67147 0
M  V30 3749 H 356.824 -0.863189 -5.45209 0
M  V30 3750 H 357.301 0.442754 -4.36963 0
M  V30 3751 H 357.907 -1.204 -4.07902 0
M  V30 3752 N 356.222 1.38976 -0.743202 0
M  V30 3753 C 357.468 2.0064 -0.295189 0
M  V30 3754 C 357.801 1.5885 1.11716 0
M  V30 3755 O 357.076 0.821181 1.76315 0
M  V30 3756 C 357.359 3.578 -0.406318 0
M  V30 3757 C 357.212 4.09586 -1.85903 0
M  V30 3758 C 358.531 4.39616 0.206439 0
M  V30 3759 H 355.65 0.728935 -0.108733 0
M  V30 3760 H 358.292 1.65067 -0.940897 0
M  V30 3761 H 356.442 3.88235 0.143419 0
M  V30 3762 H 358.114 3.89837 -2.46627 0
M  V30 3763 H 356.357 3.6284 -2.3776 0
M  V30 3764 H 357.028 5.18708 -1.888 0
M  V30 3765 H 359.504 4.15273 -0.262283 0
M  V30 3766 H 358.38 5.48812 0.0983819 0
M  V30 3767 H 358.641 4.22754 1.2935 0
M  V30 3768 N 357.7 0.491464 1.49741 0
M  V30 3769 C 358.925 -0.0557177 2.07325 0
M  V30 3770 C 359.35 -1.30925 1.35056 0
M  V30 3771 O 358.708 -1.76733 0.404365 0
M  V30 3772 C 358.756 -0.302074 3.59333 0
M  V30 3773 O 357.86 -1.37868 3.88672 0
M  V30 3774 H 357.201 0.0219956 0.663636 0
M  V30 3775 H 359.731 0.688352 1.92673 0
M  V30 3776 H 359.741 -0.536464 4.04458 0
M  V30 3777 H 358.416 0.61383 4.11345 0
M  V30 3778 H 356.993 -1.12999 3.55367 0
M  V30 3779 N 359.178 -1.55987 0.224894 0
M  V30 3780 C 360.427 -1.97566 -0.406273 0
M  V30 3781 C 360.74 -1.11569 -1.6066 0
M  V30 3782 O 361.946 -1.43062 -2.3075 0
M  V30 3783 C 360.402 -3.51474 -0.774207 0
M  V30 3784 C 360.01 -4.46179 0.403496 0
M  V30 3785 C 361.754 -4.01758 -1.37079 0
M  V30 3786 C 359.661 -5.91399 0.0129412 0
M  V30 3787 H 358.591 -0.737777 -0.155565 0
M  V30 3788 H 361.242 -1.80659 0.321635 0
M  V30 3789 H 359.624 -3.63994 -1.55963 0
M  V30 3790 H 360.798 -4.45409 1.18101 0
M  V30 3791 H 359.113 -4.06255 0.913536 0
M  V30 3792 H 361.71 -5.07756 -1.67596 0
M  V30 3793 H 362.053 -3.47805 -2.28773 0
M  V30 3794 H 362.586 -3.92475 -0.648733 0
M  V30 3795 H 359.325 -6.49341 0.896451 0
M  V30 3796 H 358.845 -5.95356 -0.728821 0
M  V30 3797 H 360.524 -6.45683 -0.412582 0
M  V30 3798 N 360.656 0.0484629 -1.57525 0
M  V30 3799 C 362.067 0.597486 -1.76881 0
M  V30 3800 C 362.418 1.76664 -0.853475 0
M  V30 3801 O 361.543 2.16357 -0.0433656 0
M  V30 3802 C 362.138 1.09066 -3.20765 0
M  V30 3803 C 360.697 1.58535 -3.41385 0
M  V30 3804 C 359.844 0.514868 -2.72478 0
M  V30 3805 H 362.795 -0.177758 -1.57701 0
M  V30 3806 H 362.816 1.95875 -3.2621 0
M  V30 3807 H 362.328 0.239521 -3.8736 0
M  V30 3808 H 360.429 2.45898 -2.79937 0
M  V30 3809 H 360.542 1.64622 -4.49929 0
M  V30 3810 H 358.906 0.965407 -2.35695 0
M  V30 3811 H 359.689 -0.32648 -3.41744 0
M  V30 3812 N 362.134 1.5431 0.320358 0
M  V30 3813 C 363.381 1.72668 1.05792 0
M  V30 3814 C 363.709 0.502084 1.87908 0
M  V30 3815 O 362.964 -0.516149 1.88771 0
M  V30 3816 C 363.263 2.95639 2.00828 0
M  V30 3817 C 362.929 4.30265 1.34843 0
M  V30 3818 C 361.591 4.66865 1.16578 0
M  V30 3819 C 363.943 5.13801 0.875095 0
M  V30 3820 C 361.271 5.84597 0.496336 0
M  V30 3821 C 363.623 6.32219 0.219463 0
M  V30 3822 C 362.287 6.67495 0.0246915 0
M  V30 3823 H 361.557 0.631837 0.387121 0
M  V30 3824 H 364.204 1.88552 0.334735 0
M  V30 3825 H 362.509 2.74456 2.79609 0
M  V30 3826 H 364.206 3.07038 2.57932 0
M  V30 3827 H 360.796 4.01472 1.50061 0
M  V30 3828 H 364.98 4.86039 1.00398 0
M  V30 3829 H 360.236 6.10486 0.334264 0
M  V30 3830 H 364.41 6.96227 -0.155291 0
M  V30 3831 H 362.037 7.5858 -0.496065 0
M  V30 3832 N 363.613 -0.582584 1.46437 0
M  V30 3833 C 364.86 -1.34079 1.51753 0
M  V30 3834 C 365.188 -1.93762 0.169299 0
M  V30 3835 O 364.443 -1.76989 -0.835062 0
M  V30 3836 C 364.742 -2.48964 2.56421 0
M  V30 3837 C 364.408 -2.07273 4.00436 0
M  V30 3838 C 363.07 -1.95618 4.39644 0
M  V30 3839 C 365.422 -1.75111 4.90903 0
M  V30 3840 C 362.75 -1.5006 5.67185 0
M  V30 3841 C 365.102 -1.31032 6.18881 0
M  V30 3842 C 363.766 -1.17954 6.56996 0
M  V30 3843 H 363.036 -0.49063 0.555304 0
M  V30 3844 H 365.683 -0.656007 1.79913 0
M  V30 3845 H 363.988 -3.22889 2.21923 0
M  V30 3846 H 365.685 -3.07178 2.57765 0
M  V30 3847 H 362.275 -2.17279 3.69443 0
M  V30 3848 H 366.459 -1.83001 4.61329 0
M  V30 3849 H 361.715 -1.38577 5.95488 0
M  V30 3850 H 365.889 -1.052 6.88408 0
M  V30 3851 H 363.516 -0.824279 7.55718 0
M  V30 3852 N 365.091 -1.34144 -0.827227 0
M  V30 3853 C 366.337 -1.26446 -1.58554 0
M  V30 3854 C 366.67 0.1664 -1.93486 0
M  V30 3855 O 365.945 1.1107 -1.59667 0
M  V30 3856 C 366.228 -2.15111 -2.8879 0
M  V30 3857 C 366.081 -3.66712 -2.60465 0
M  V30 3858 C 367.4 -2.03311 -3.90324 0
M  V30 3859 H 364.519 -0.46067 -0.575284 0
M  V30 3860 H 367.161 -1.64356 -0.953269 0
M  V30 3861 H 365.311 -1.8291 -3.42748 0
M  V30 3862 H 366.983 -4.09259 -2.1285 0
M  V30 3863 H 365.226 -3.88014 -1.93978 0
M  V30 3864 H 365.897 -4.24112 -3.53317 0
M  V30 3865 H 368.373 -2.31574 -3.45706 0
M  V30 3866 H 367.249 -2.67582 -4.79261 0
M  V30 3867 H 367.51 -1.00879 -4.30437 0
M  V30 3868 N 366.569 1.04691 -1.17803 0
M  V30 3869 C 367.816 1.77782 -0.969532 0
M  V30 3870 C 368.144 1.87926 0.501401 0
M  V30 3871 O 367.399 1.37918 1.38842 0
M  V30 3872 C 367.698 3.21467 -1.56186 0
M  V30 3873 C 367.364 3.3137 -3.05786 0
M  V30 3874 C 366.026 3.3378 -3.46619 0
M  V30 3875 C 368.378 3.31976 -4.01797 0
M  V30 3876 C 365.706 3.34431 -4.82051 0
M  V30 3877 C 368.058 3.34167 -5.37136 0
M  V30 3878 C 366.722 3.34866 -5.77426 0
M  V30 3879 H 365.992 0.650549 -0.354777 0
M  V30 3880 H 368.639 1.23006 -1.46772 0
M  V30 3881 H 366.944 3.79203 -0.985515 0
M  V30 3882 H 368.641 3.76652 -1.37602 0
M  V30 3883 H 365.231 3.3021 -2.73238 0
M  V30 3884 H 369.415 3.29311 -3.71306 0
M  V30 3885 H 364.671 3.33285 -5.12573 0
M  V30 3886 H 368.845 3.33585 -6.11305 0
M  V30 3887 H 366.472 3.35124 -6.82346 0
M  V30 3888 N 368.047 0.979072 1.23499 0
M  V30 3889 C 369.294 0.647219 1.91878 0
M  V30 3890 C 369.622 -0.819074 1.76413 0
M  V30 3891 O 368.877 -1.60616 1.11808 0
M  V30 3892 C 369.176 0.981932 3.43646 0
M  V30 3893 C 368.842 2.43822 3.79291 0
M  V30 3894 C 367.504 2.83622 3.88731 0
M  V30 3895 C 369.856 3.3828 3.96505 0
M  V30 3896 C 367.184 4.16897 4.12812 0
M  V30 3897 C 369.536 4.71197 4.22085 0
M  V30 3898 C 368.2 5.10758 4.29747 0
M  V30 3899 H 367.47 0.236834 0.702133 0
M  V30 3900 H 370.117 1.23268 1.46551 0
M  V30 3901 H 368.422 0.314365 3.90537 0
M  V30 3902 H 370.119 0.703395 3.94783 0
M  V30 3903 H 366.709 2.11966 3.72516 0
M  V30 3904 H 370.893 3.0871 3.88603 0
M  V30 3905 H 366.149 4.47157 4.16966 0
M  V30 3906 H 370.323 5.44348 4.34348 0
M  V30 3907 H 367.95 6.1405 4.48159 0
M  V30 3908 N 369.525 -1.3858 0.750561 0
M  V30 3909 C 370.455 -2.33102 0.136237 0
M  V30 3910 C 371.436 -1.54713 -0.706965 0
M  V30 3911 O 372.621 -1.83043 -0.648769 0
M  V30 3912 C 369.751 -3.38882 -0.760017 0
M  V30 3913 C 368.705 -4.27995 -0.0197785 0
M  V30 3914 C 368.031 -5.24605 -1.03408 0
M  V30 3915 C 369.331 -5.09554 1.14684 0
M  V30 3916 H 371.025 -2.84726 0.925822 0
M  V30 3917 H 368.571 -1.36898 0.446654 0
M  V30 3918 H 370.524 -4.0397 -1.19943 0
M  V30 3919 H 369.248 -2.85734 -1.58189 0
M  V30 3920 H 367.907 -3.64409 0.400184 0
M  V30 3921 H 367.555 -4.67746 -1.84994 0
M  V30 3922 H 367.255 -5.85081 -0.543464 0
M  V30 3923 H 368.779 -5.9257 -1.47288 0
M  V30 3924 H 370.193 -5.67899 0.785118 0
M  V30 3925 H 368.59 -5.7925 1.56812 0
M  V30 3926 H 369.66 -4.4347 1.96118 0
M  V30 3927 N 371.003 -0.499398 -1.49478 0
M  V30 3928 C 372.228 0.044722 -2.07352 0
M  V30 3929 C 372.653 1.30207 -1.35749 0
M  V30 3930 O 372.011 1.76516 -0.413732 0
M  V30 3931 C 372.059 0.283013 -3.59488 0
M  V30 3932 O 371.163 1.35804 -3.89398 0
M  V30 3933 H 370.504 -0.0255147 -0.66351 0
M  V30 3934 H 373.034 -0.698561 -1.92305 0
M  V30 3935 H 373.044 0.515007 -4.04737 0
M  V30 3936 H 371.719 -0.635636 -4.11014 0
M  V30 3937 H 370.296 1.11113 -3.55961 0
M  V30 3938 N 372.481 1.55866 -0.233164 0
M  V30 3939 C 373.706 2.03449 0.402906 0
M  V30 3940 C 374.131 1.11166 1.51736 0
M  V30 3941 O 373.489 0.101996 1.81013 0
M  V30 3942 C 373.537 3.49165 0.9009 0
M  V30 3943 O 372.641 3.60019 2.01147 0
M  V30 3944 H 371.982 0.657913 0.0897025 0
M  V30 3945 H 374.512 2.01493 -0.355201 0
M  V30 3946 H 374.522 3.89716 1.2077 0
M  V30 3947 H 373.197 4.15813 0.0852889 0
M  V30 3948 H 371.774 3.3136 1.71042 0
M  V30 3949 N 373.959 -0.0401083 1.57549 0
M  V30 3950 C 375.205 -0.728793 1.89895 0
M  V30 3951 C 375.56 -1.73551 0.830535 0
M  V30 3952 O 374.853 -1.90914 -0.162007 0
M  V30 3953 C 375.047 -1.44902 3.26708 0
M  V30 3954 C 374.876 -0.513568 4.46758 0
M  V30 3955 C 373.646 -0.138698 5.0511 0
M  V30 3956 C 375.844 0.203341 5.13898 0
M  V30 3957 N 373.826 0.799159 6.08676 0
M  V30 3958 C 375.197 0.997246 6.11927 0
M  V30 3959 C 377.252 0.271459 4.97159 0
M  V30 3960 C 375.955 1.85299 6.95023 0
M  V30 3961 C 377.981 1.11429 5.80808 0
M  V30 3962 C 377.343 1.89615 6.78399 0
M  V30 3963 H 373.442 -0.241125 0.743897 0
M  V30 3964 H 376.026 0.0108016 1.94697 0
M  V30 3965 H 374.197 -2.15914 3.22856 0
M  V30 3966 H 375.929 -2.08921 3.46603 0
M  V30 3967 H 372.684 -0.498496 4.70969 0
M  V30 3968 H 373.108 1.26227 6.65128 0
M  V30 3969 H 377.75 -0.318709 4.21597 0
M  V30 3970 H 375.468 2.454 7.69938 0
M  V30 3971 H 379.054 1.17038 5.69906 0
M  V30 3972 H 377.934 2.53779 7.42001 0
M  V30 3973 N 375.437 -1.54477 -0.31217 0
M  V30 3974 C 376.683 -1.74417 -1.04644 0
M  V30 3975 C 377.038 -0.517641 -1.85306 0
M  V30 3976 O 376.331 0.489973 -1.85229 0
M  V30 3977 C 376.525 -2.967 -1.99258 0
M  V30 3978 C 376.354 -4.31128 -1.27901 0
M  V30 3979 C 375.124 -4.95087 -1.01079 0
M  V30 3980 C 377.322 -5.09662 -0.689119 0
M  V30 3981 N 375.304 -6.13322 -0.266323 0
M  V30 3982 C 376.675 -6.19952 -0.0768523 0
M  V30 3983 C 378.73 -4.94355 -0.593061 0
M  V30 3984 C 377.433 -7.16604 0.622165 0
M  V30 3985 C 379.459 -5.91328 0.0922792 0
M  V30 3986 C 378.821 -7.00978 0.693443 0
M  V30 3987 H 374.92 -0.69094 -0.366231 0
M  V30 3988 H 377.504 -1.91946 -0.326319 0
M  V30 3989 H 375.675 -2.80616 -2.68532 0
M  V30 3990 H 377.407 -3.05216 -2.65755 0
M  V30 3991 H 374.162 -4.55235 -1.30607 0
M  V30 3992 H 374.586 -6.76937 0.0920973 0
M  V30 3993 H 379.228 -4.09719 -1.04355 0
M  V30 3994 H 376.946 -8.0079 1.08445 0
M  V30 3995 H 380.532 -5.81562 0.166396 0
M  V30 3996 H 379.412 -7.74725 1.21533 0
M  V30 3997 N 376.915 0.57481 -1.46744 0
M  V30 3998 C 378.143 1.35856 -1.56047 0
M  V30 3999 C 378.558 1.87691 -0.204365 0
M  V30 4000 O 377.915 1.64049 0.79963 0
M  V30 4001 C 377.966 2.54066 -2.57163 0
M  V30 4002 O 377.687 2.04377 -3.87507 0
M  V30 4003 C 379.188 3.46514 -2.76483 0
M  V30 4004 H 376.408 0.414754 -0.527466 0
M  V30 4005 H 378.952 0.698035 -1.92218 0
M  V30 4006 H 377.107 3.16092 -2.23974 0
M  V30 4007 H 377.521 2.81419 -4.4261 0
M  V30 4008 H 378.995 4.25919 -3.51137 0
M  V30 4009 H 379.472 3.98951 -1.83671 0
M  V30 4010 H 380.078 2.90318 -3.10799 0
M  V30 4011 N 378.394 1.34581 0.820102 0
M  V30 4012 C 379.805 1.24298 1.39309 0
M  V30 4013 C 380.156 -0.130351 1.95767 0
M  V30 4014 O 379.281 -1.0308 1.90272 0
M  V30 4015 C 379.876 2.25054 2.53251 0
M  V30 4016 C 378.435 2.18552 3.0645 0
M  V30 4017 C 377.582 2.11503 1.79337 0
M  V30 4018 H 380.533 1.45906 0.624262 0
M  V30 4019 H 380.554 1.86917 3.31425 0
M  V30 4020 H 380.066 3.24996 2.1213 0
M  V30 4021 H 378.167 1.21976 3.52069 0
M  V30 4022 H 378.28 3.0993 3.65349 0
M  V30 4023 H 376.644 1.57268 2.00347 0
M  V30 4024 H 377.427 3.13284 1.40386 0
M  V30 4025 N 379.872 -1.04064 1.18357 0
M  V30 4026 C 380.782 -2.15569 0.925596 0
M  V30 4027 C 381.798 -1.7365 -0.110295 0
M  V30 4028 O 382.974 -2.01273 0.0716218 0
M  V30 4029 C 380.039 -3.43704 0.454836 0
M  V30 4030 C 379.1 -4.00004 1.55869 0
M  V30 4031 C 378.333 -5.22023 1.1103 0
M  V30 4032 O 378.556 -5.70392 -0.0309756 0
M  V30 4033 O 377.49 -5.70856 1.90805 0
M  V30 4034 H 381.316 -2.40187 1.8586 0
M  V30 4035 H 378.901 -1.1402 0.965394 0
M  V30 4036 H 380.783 -4.20923 0.200382 0
M  V30 4037 H 379.458 -3.20559 -0.449876 0
M  V30 4038 H 378.365 -3.24172 1.86716 0
M  V30 4039 H 379.698 -4.2749 2.43953 0
M  V30 4040 N 381.35 -0.985608 -1.22978 0
M  V30 4041 C 382.575 -0.675254 -1.961 0
M  V30 4042 C 383 0.752154 -1.72407 0
M  V30 4043 O 382.358 1.5131 -0.998751 0
M  V30 4044 C 382.406 -0.977899 -3.47087 0
M  V30 4045 O 381.51 -0.072685 -4.12336 0
M  V30 4046 H 380.851 -0.253443 -0.613728 0
M  V30 4047 H 383.381 -1.32061 -1.56272 0
M  V30 4048 H 383.391 -0.916739 -3.97567 0
M  V30 4049 H 382.066 -2.01807 -3.63657 0
M  V30 4050 H 380.643 -0.188703 -3.72422 0
M  V30 4051 N 382.828 1.3818 -0.7579 0
M  V30 4052 C 384.077 1.99261 -0.312744 0
M  V30 4053 C 384.39 1.60846 1.11301 0
M  V30 4054 O 385.596 2.14929 1.65885 0
M  V30 4055 C 384.052 3.56294 -0.50821 0
M  V30 4056 C 383.66 4.03657 -1.94333 0
M  V30 4057 C 385.404 4.24313 -0.125982 0
M  V30 4058 C 383.311 5.53347 -2.08712 0
M  V30 4059 H 382.241 0.745456 -0.113185 0
M  V30 4060 H 384.892 1.57889 -0.935056 0
M  V30 4061 H 383.274 3.95575 0.183353 0
M  V30 4062 H 384.448 3.75655 -2.66871 0
M  V30 4063 H 382.763 3.48376 -2.28086 0
M  V30 4064 H 385.36 5.34279 -0.212125 0
M  V30 4065 H 385.703 4.05962 0.921964 0
M  V30 4066 H 386.236 3.90285 -0.769563 0
M  V30 4067 H 382.975 5.76607 -3.11777 0
M  V30 4068 H 382.495 5.83078 -1.4064 0
M  V30 4069 H 384.174 6.19111 -1.87912 0
M  V30 4070 N 384.306 0.507319 1.49211 0
M  V30 4071 C 385.722 0.163682 1.58758 0
M  V30 4072 C 385.922 -1.33208 1.51188 0
M  V30 4073 O 384.978 -2.10855 1.38911 0
M  V30 4074 C 386.291 0.746095 2.91297 0
M  V30 4075 C 387.839 0.712773 3.04776 0
M  V30 4076 C 388.314 1.27336 4.39943 0
M  V30 4077 N 389.805 1.23433 4.46451 0
M  V30 4078 C 390.54 1.63821 5.495 0
M  V30 4079 N 390.036 2.11832 6.5962 0
M  V30 4080 N 391.829 1.55198 5.4025 0
M  V30 4081 H 383.98 1.47972 1.52375 0
M  V30 4082 H 386.243 0.614147 0.722168 0
M  V30 4083 H 385.949 1.79534 3.02424 0
M  V30 4084 H 385.823 0.210137 3.76614 0
M  V30 4085 H 388.21 -0.327656 2.93275 0
M  V30 4086 H 388.291 1.28595 2.21127 0
M  V30 4087 H 387.935 2.3126 4.52196 0
M  V30 4088 H 387.865 0.676066 5.22242 0
M  V30 4089 H 390.356 0.882627 3.67448 0
M  V30 4090 H 390.669 2.40703 7.34358 0
M  V30 4091 H 389.014 2.1581 6.60644 0
M  V30 4092 H 392.205 1.17505 4.53112 0
M  V30 4093 H 392.378 1.86997 6.20432 0
M  V30 4094 N 385.784 -1.5574 0.241426 0
M  V30 4095 C 387.03 -1.99846 -0.378555 0
M  V30 4096 C 387.385 -1.12665 -1.55963 0
M  V30 4097 O 386.678 -0.180966 -1.90743 0
M  V30 4098 C 386.872 -3.47308 -0.843317 0
M  V30 4099 C 386.701 -4.48756 0.291178 0
M  V30 4100 C 385.471 -4.9949 0.764077 0
M  V30 4101 C 387.669 -5.02039 1.11631 0
M  V30 4102 N 385.651 -5.84676 1.87156 0
M  V30 4103 C 387.022 -5.84343 2.07226 0
M  V30 4104 C 389.077 -4.84354 1.15349 0
M  V30 4105 C 387.78 -6.50851 3.06245 0
M  V30 4106 C 389.806 -5.51636 2.13195 0
M  V30 4107 C 389.168 -6.33724 3.07528 0
M  V30 4108 H 385.267 -0.774968 -0.104634 0
M  V30 4109 H 387.851 -1.91385 0.357751 0
M  V30 4110 H 386.022 -3.56178 -1.54893 0
M  V30 4111 H 387.754 -3.78299 -1.43779 0
M  V30 4112 H 384.509 -4.72311 0.349175 0
M  V30 4113 H 384.933 -6.31967 2.42789 0
M  V30 4114 H 389.575 -4.20525 0.438057 0
M  V30 4115 H 387.293 -7.1385 3.78739 0
M  V30 4116 H 390.879 -5.39909 2.16771 0
M  V30 4117 H 389.759 -6.84867 3.82003 0
M  V30 4118 N 387.262 0.0317525 -1.57568 0
M  V30 4119 C 388.192 1.03274 -2.0942 0
M  V30 4120 C 389.173 1.3788 -0.996143 0
M  V30 4121 O 390.358 1.46811 -1.27122 0
M  V30 4122 C 387.488 2.33448 -2.57137 0
M  V30 4123 C 386.442 2.13091 -3.71182 0
M  V30 4124 C 385.768 3.49001 -4.05095 0
M  V30 4125 C 387.068 1.51928 -4.99715 0
M  V30 4126 H 388.762 0.60112 -2.93303 0
M  V30 4127 H 386.308 0.287705 -1.41097 0
M  V30 4128 H 388.261 3.03802 -2.92032 0
M  V30 4129 H 386.985 2.78665 -1.70333 0
M  V30 4130 H 385.644 1.45171 -3.36632 0
M  V30 4131 H 385.292 3.91862 -3.15362 0
M  V30 4132 H 384.992 3.36207 -4.81911 0
M  V30 4133 H 386.516 4.20721 -4.42522 0
M  V30 4134 H 387.93 2.12196 -5.32584 0
M  V30 4135 H 386.327 1.49716 -5.81124 0
M  V30 4136 H 387.397 0.484811 -4.8247 0
M  V30 4137 N 388.74 1.54641 0.303973 0
M  V30 4138 C 389.986 1.74038 1.04109 0
M  V30 4139 C 390.319 0.523051 1.87024 0
M  V30 4140 O 389.594 -0.479874 1.88487 0
M  V30 4141 C 389.877 3.02761 1.94955 0
M  V30 4142 C 389.73 4.34787 1.1524 0
M  V30 4143 C 391.049 3.27336 2.94175 0
M  V30 4144 H 388.168 0.63323 0.377079 0
M  V30 4145 H 390.81 1.87354 0.316001 0
M  V30 4146 H 388.96 2.9154 2.56782 0
M  V30 4147 H 390.632 4.57922 0.557236 0
M  V30 4148 H 388.875 4.31407 0.455053 0
M  V30 4149 H 389.546 5.21116 1.8205 0
M  V30 4150 H 392.022 3.38148 2.42477 0
M  V30 4151 H 390.898 4.18726 3.54908 0
M  V30 4152 H 391.159 2.45491 3.67677 0
M  V30 4153 N 390.218 -0.567019 1.47046 0
M  V30 4154 C 391.148 -1.68482 1.61667 0
M  V30 4155 C 392.129 -1.6358 0.466418 0
M  V30 4156 O 393.314 -1.81354 0.694574 0
M  V30 4157 C 390.444 -3.07124 1.62148 0
M  V30 4158 C 389.398 -3.26867 2.76301 0
M  V30 4159 C 388.724 -4.66196 2.61849 0
M  V30 4160 C 390.024 -3.13186 4.17986 0
M  V30 4161 H 391.718 -1.56502 2.5524 0
M  V30 4162 H 389.264 -0.751486 1.22836 0
M  V30 4163 H 391.217 -3.8516 1.70968 0
M  V30 4164 H 389.941 -3.2004 0.651287 0
M  V30 4165 H 388.6 -2.51237 2.66975 0
M  V30 4166 H 388.248 -4.75898 1.62879 0
M  V30 4167 H 387.948 -4.80356 3.38425 0
M  V30 4168 H 389.472 -5.46379 2.72584 0
M  V30 4169 H 390.886 -3.81049 4.2834 0
M  V30 4170 H 389.283 -3.3886 4.95272 0
M  V30 4171 H 390.353 -2.10057 4.3704 0
M  V30 4172 N 391.696 -1.35014 -0.812953 0
M  V30 4173 C 392.921 -1.31187 -1.60639 0
M  V30 4174 C 393.346 0.109382 -1.87782 0
M  V30 4175 O 392.704 1.07424 -1.46047 0
M  V30 4176 C 392.752 -2.11809 -2.91838 0
M  V30 4177 O 391.856 -1.49444 -3.8437 0
M  V30 4178 H 391.197 -0.450084 -0.488181 0
M  V30 4179 H 393.727 -1.77963 -1.00947 0
M  V30 4180 H 393.737 -2.23531 -3.41318 0
M  V30 4181 H 392.412 -3.15137 -2.71407 0
M  V30 4182 H 390.989 -1.46524 -3.42907 0
M  V30 4183 N 393.175 1.03435 -1.18907 0
M  V30 4184 C 394.423 1.76394 -0.986382 0
M  V30 4185 C 394.744 1.88883 0.484567 0
M  V30 4186 O 394.014 1.41843 1.3512 0
M  V30 4187 H 392.594 0.65344 -0.361975 0
M  V30 4188 H 395.256 1.248 -1.49703 0
M  V30 4189 H 394.352 2.77424 -1.42978 0
M  V30 4190 N 394.653 0.992116 1.22453 0
M  V30 4191 C 395.6 0.541731 2.24352 0
M  V30 4192 C 396.57 -0.425519 1.60557 0
M  V30 4193 O 397.755 -0.330453 1.87917 0
M  V30 4194 C 394.895 -0.138248 3.44823 0
M  V30 4195 C 394.008 0.870649 4.23136 0
M  V30 4196 C 393.143 0.164269 5.30946 0
M  V30 4197 C 392.182 1.16159 6.00977 0
M  V30 4198 N 391.319 0.483568 7.00433 0
M  V30 4199 H 396.159 1.41541 2.62241 0
M  V30 4200 H 393.696 0.709013 1.28885 0
M  V30 4201 H 395.654 -0.5494 4.13567 0
M  V30 4202 H 394.284 -0.975721 3.077 0
M  V30 4203 H 393.336 1.40013 3.53696 0
M  V30 4204 H 394.648 1.63014 4.7141 0
M  V30 4205 H 393.802 -0.303653 6.0594 0
M  V30 4206 H 392.541 -0.627733 4.83643 0
M  V30 4207 H 391.546 1.64015 5.24766 0
M  V30 4208 H 392.771 1.95445 6.50368 0
M  V30 4209 H 390.717 -0.289012 6.55363 0
M  V30 4210 H 390.634 1.18152 7.4671 0
M  V30 4211 H 391.902 0.0384219 7.79491 0
M  V30 4212 N 396.131 -1.37776 0.765217 0
M  V30 4213 C 397.356 -2.04651 0.336537 0
M  V30 4214 C 397.781 -1.57337 -1.03086 0
M  V30 4215 O 397.139 -0.730621 -1.65927 0
M  V30 4216 C 397.187 -3.58577 0.381468 0
M  V30 4217 O 396.291 -4.07706 -0.62042 0
M  V30 4218 H 395.632 -0.64756 0.146838 0
M  V30 4219 H 398.162 -1.76221 1.03959 0
M  V30 4220 H 398.172 -4.07314 0.236448 0
M  V30 4221 H 396.847 -3.9237 1.37907 0
M  V30 4222 H 395.424 -3.70306 -0.439056 0
M  V30 4223 N 397.609 -0.515225 -1.4894 0
M  V30 4224 C 398.834 0.022727 -2.07388 0
M  V30 4225 C 399.259 1.2876 -1.37122 0
M  V30 4226 O 398.617 1.76067 -0.432431 0
M  V30 4227 C 398.665 0.244869 -3.59768 0
M  V30 4228 O 397.769 1.31667 -3.90817 0
M  V30 4229 H 397.11 -0.0325506 -0.663202 0
M  V30 4230 H 399.64 -0.718918 -1.91553 0
M  V30 4231 H 399.65 0.47205 -4.0526 0
M  V30 4232 H 398.325 -0.679194 -4.10317 0
M  V30 4233 H 396.902 1.07331 -3.5712 0
M  V30 4234 N 399.087 1.5561 -0.249682 0
M  V30 4235 C 400.034 2.21496 0.648694 0
M  V30 4236 C 401.004 1.17977 1.16921 0
M  V30 4237 O 402.189 1.46434 1.22318 0
M  V30 4238 C 399.329 2.92039 1.83868 0
M  V30 4239 C 398.442 4.10219 1.35442 0
M  V30 4240 C 397.577 4.6847 2.50419 0
M  V30 4241 C 396.616 5.78893 1.98869 0
M  V30 4242 N 395.753 6.31315 3.07223 0
M  V30 4243 H 400.593 2.97892 0.0801582 0
M  V30 4244 H 398.13 1.47074 0.0278031 0
M  V30 4245 H 400.088 3.31138 2.53778 0
M  V30 4246 H 398.718 2.18111 2.37965 0
M  V30 4247 H 397.77 3.76413 0.54928 0
M  V30 4248 H 399.082 4.89927 0.936649 0
M  V30 4249 H 398.236 5.10158 3.28366 0
M  V30 4250 H 396.975 3.87984 2.95499 0
M  V30 4251 H 395.98 5.3668 1.19393 0
M  V30 4252 H 397.205 6.61232 1.54755 0
M  V30 4253 H 395.151 5.53733 3.51732 0
M  V30 4254 H 395.068 7.06224 2.69784 0
M  V30 4255 H 396.336 6.77662 3.8522 0
M  V30 4256 N 400.565 -0.0233959 1.57583 0
M  V30 4257 C 401.528 -1.00693 2.05897 0
M  V30 4258 C 402.528 -1.28693 0.964092 0
M  V30 4259 O 403.718 -1.23602 1.22753 0
M  V30 4260 C 400.85 -2.33825 2.4807 0
M  V30 4261 H 402.043 -0.589476 2.9405 0
M  V30 4262 H 399.596 -0.270354 1.53944 0
M  V30 4263 H 400.331 -2.80307 1.6309 0
M  V30 4264 H 400.116 -2.1483 3.2801 0
M  V30 4265 H 401.606 -3.04426 2.85857 0
M  V30 4266 N 402.043 -1.548 -0.295768 0
M  V30 4267 C 402.973 -1.89115 -1.36959 0
M  V30 4268 C 403.954 -0.75059 -1.52644 0
M  V30 4269 O 405.139 -1.00678 -1.66065 0
M  V30 4270 C 402.269 -2.14307 -2.73295 0
M  V30 4271 C 401.223 -3.30151 -2.72368 0
M  V30 4272 C 400.549 -3.40772 -4.12042 0
M  V30 4273 C 401.849 -4.67126 -2.33646 0
M  V30 4274 H 403.543 -2.79053 -1.08488 0
M  V30 4275 H 401.089 -1.34266 -0.520443 0
M  V30 4276 H 403.042 -2.36898 -3.48507 0
M  V30 4277 H 401.766 -1.21145 -3.03301 0
M  V30 4278 H 400.425 -3.0749 -1.99613 0
M  V30 4279 H 400.073 -2.45117 -4.39234 0
M  V30 4280 H 399.773 -4.18645 -4.12322 0
M  V30 4281 H 401.297 -3.6563 -4.89027 0
M  V30 4282 H 402.711 -4.89414 -2.98575 0
M  V30 4283 H 401.108 -5.47751 -2.45129 0
M  V30 4284 H 402.178 -4.67489 -1.28772 0
M  V30 4285 N 403.521 0.559213 -1.47345 0
M  V30 4286 C 404.468 1.66645 -1.59682 0
M  V30 4287 C 405.438 1.60168 -0.43994 0
M  V30 4288 O 406.623 1.79031 -0.659736 0
M  V30 4289 C 403.763 3.04969 -1.61518 0
M  V30 4290 C 402.876 3.21897 -2.88108 0
M  V30 4291 C 402.011 4.50608 -2.81294 0
M  V30 4292 C 401.05 4.60961 -4.02717 0
M  V30 4293 N 400.187 5.81024 -3.94151 0
M  V30 4294 H 405.027 1.55439 -2.54249 0
M  V30 4295 H 402.564 0.757219 -1.26113 0
M  V30 4296 H 404.522 3.85064 -1.60566 0
M  V30 4297 H 403.152 3.15015 -0.704645 0
M  V30 4298 H 402.204 2.35248 -2.98936 0
M  V30 4299 H 403.516 3.25412 -3.78032 0
M  V30 4300 H 402.67 5.3896 -2.7858 0
M  V30 4301 H 401.409 4.49568 -1.89049 0
M  V30 4302 H 400.414 3.71021 -4.05738 0
M  V30 4303 H 401.639 4.63761 -4.96087 0
M  V30 4304 H 399.585 5.80938 -3.04708 0
M  V30 4305 H 399.502 5.85909 -4.77752 0
M  V30 4306 H 400.77 6.71744 -3.9545 0
M  V30 4307 N 404.999 1.35443 0.805782 0
M  V30 4308 C 406.248 1.28097 1.55801 0
M  V30 4309 C 406.561 -0.142428 1.95081 0
M  V30 4310 O 407.767 -0.33817 2.69386 0
M  V30 4311 C 406.223 2.24653 2.81174 0
M  V30 4312 C 405.831 3.72342 2.49129 0
M  V30 4313 C 407.575 2.2625 3.59181 0
M  V30 4314 C 405.482 4.60719 3.70799 0
M  V30 4315 H 404.412 0.475937 0.584808 0
M  V30 4316 H 407.063 1.60712 0.885661 0
M  V30 4317 H 405.445 1.85011 3.50124 0
M  V30 4318 H 406.619 4.20624 1.88181 0
M  V30 4319 H 404.934 3.73361 1.84366 0
M  V30 4320 H 407.531 2.89495 4.49552 0
M  V30 4321 H 407.874 1.26647 3.96568 0
M  V30 4322 H 408.407 2.64426 2.97193 0
M  V30 4323 H 405.146 5.61324 3.3852 0
M  V30 4324 H 404.666 4.17163 4.3097 0
M  V30 4325 H 406.345 4.76182 4.38018 0
M  V30 4326 N 406.477 -1.02803 1.19454 0
M  V30 4327 C 407.407 -2.12999 0.956758 0
M  V30 4328 C 408.388 -1.69743 -0.110188 0
M  V30 4329 O 409.573 -1.94148 0.0450038 0
M  V30 4330 C 406.703 -3.43746 0.495553 0
M  V30 4331 C 405.657 -4.00688 1.50443 0
M  V30 4332 C 404.983 -5.27067 0.900275 0
M  V30 4333 C 406.283 -4.35397 2.8849 0
M  V30 4334 H 407.977 -2.33148 1.87836 0
M  V30 4335 H 405.523 -1.12045 0.904539 0
M  V30 4336 H 407.476 -4.2021 0.316493 0
M  V30 4337 H 406.2 -3.23321 -0.461646 0
M  V30 4338 H 404.859 -3.2632 1.67065 0
M  V30 4339 H 404.507 -5.02959 -0.064503 0
M  V30 4340 H 404.207 -5.66127 1.57397 0
M  V30 4341 H 405.731 -6.06196 0.73203 0
M  V30 4342 H 407.145 -5.02795 2.75446 0
M  V30 4343 H 405.542 -4.85541 3.52661 0
M  V30 4344 H 406.612 -3.44662 3.41081 0
M  V30 4345 N 407.956 -0.998596 -1.21925 0
M  V30 4346 C 409.372 -0.710303 -1.42923 0
M  V30 4347 C 409.572 0.716933 -1.88314 0
M  V30 4348 O 408.628 1.48712 -2.04062 0
M  V30 4349 C 409.941 -1.72072 -2.466 0
M  V30 4350 C 411.489 -1.73681 -2.60392 0
M  V30 4351 C 411.964 -2.73601 -3.67296 0
M  V30 4352 N 413.455 -2.7223 -3.7476 0
M  V30 4353 C 414.19 -3.46206 -4.57087 0
M  V30 4354 N 413.686 -4.29802 -5.43362 0
M  V30 4355 N 415.479 -3.34886 -4.51451 0
M  V30 4356 H 407.63 -1.92028 -0.9077 0
M  V30 4357 H 409.893 -0.828487 -0.460775 0
M  V30 4358 H 409.599 -2.74231 -2.20206 0
M  V30 4359 H 409.473 -1.51818 -3.45299 0
M  V30 4360 H 411.86 -0.722173 -2.86127 0
M  V30 4361 H 411.941 -1.98005 -1.61949 0
M  V30 4362 H 411.585 -3.75217 -3.42307 0
M  V30 4363 H 411.515 -2.46545 -4.65321 0
M  V30 4364 H 414.006 -2.11576 -3.1312 0
M  V30 4365 H 414.319 -4.83061 -6.03218 0
M  V30 4366 H 412.664 -4.33887 -5.42925 0
M  V30 4367 H 415.855 -2.69015 -3.83078 0
M  V30 4368 H 416.028 -3.92796 -5.15379 0
M  V30 4369 N 409.434 1.37368 -0.772513 0
M  V30 4370 C 410.85 1.53059 -0.452231 0
M  V30 4371 C 411.05 1.73065 1.03203 0
M  V30 4372 O 410.106 1.75245 1.81784 0
M  V30 4373 C 411.419 2.72659 -1.26797 0
M  V30 4374 C 412.967 2.86521 -1.25995 0
M  V30 4375 C 413.442 4.09105 -2.05905 0
M  V30 4376 N 414.933 4.16219 -2.03263 0
M  V30 4377 C 415.668 5.10107 -2.61875 0
M  V30 4378 N 415.164 6.09547 -3.29278 0
M  V30 4379 N 416.957 5.02596 -2.51701 0
M  V30 4380 H 409.108 1.22634 -1.7342 0
M  V30 4381 H 411.371 0.597206 -0.736239 0
M  V30 4382 H 411.077 2.64343 -2.31982 0
M  V30 4383 H 410.951 3.66363 -0.897672 0
M  V30 4384 H 413.338 2.94308 -0.216081 0
M  V30 4385 H 413.419 1.93774 -1.66989 0
M  V30 4386 H 413.063 4.0208 -3.10313 0
M  V30 4387 H 412.993 5.00968 -1.62292 0
M  V30 4388 H 415.484 3.45012 -1.54192 0
M  V30 4389 H 415.797 6.77718 -3.71374 0
M  V30 4390 H 414.142 6.09824 -3.33377 0
M  V30 4391 H 417.333 4.23855 -1.98657 0
M  V30 4392 H 417.506 5.75582 -2.97673 0
M  V30 4393 N 410.912 0.523116 1.48665 0
M  V30 4394 C 412.158 -0.0134963 2.02796 0
M  V30 4395 C 412.491 -1.34582 1.40004 0
M  V30 4396 O 411.766 -1.86756 0.543381 0
M  V30 4397 C 412.049 -0.14276 3.59817 0
M  V30 4398 C 411.902 1.21425 4.331 0
M  V30 4399 C 413.221 -0.872856 4.31357 0
M  V30 4400 H 410.34 -0.00343074 0.736992 0
M  V30 4401 H 412.982 0.678816 1.7746 0
M  V30 4402 H 411.132 -0.732401 3.81534 0
M  V30 4403 H 412.804 1.84447 4.2282 0
M  V30 4404 H 411.047 1.79791 3.94788 0
M  V30 4405 H 411.718 1.07687 5.41394 0
M  V30 4406 H 414.194 -0.372555 4.14429 0
M  V30 4407 H 413.07 -0.932185 5.40927 0
M  V30 4408 H 413.331 -1.92161 3.98154 0
M  V30 4409 N 412.39 -1.55475 0.257931 0
M  V30 4410 C 413.353 -2.20551 -0.623706 0
M  V30 4411 C 414.353 -1.17809 -1.09443 0
M  V30 4412 O 415.543 -1.42823 -0.997362 0
M  V30 4413 C 412.675 -2.85784 -1.8585 0
M  V30 4414 H 413.868 -2.99848 -0.0557743 0
M  V30 4415 H 411.421 -1.56298 0.0084422 0
M  V30 4416 H 412.156 -2.10453 -2.46739 0
M  V30 4417 H 411.941 -3.61057 -1.52907 0
M  V30 4418 H 413.431 -3.35553 -2.48584 0
M  V30 4419 N 413.868 0.0150385 -1.57593 0
M  V30 4420 C 415.114 0.704043 -1.90187 0
M  V30 4421 C 415.447 1.74249 -0.857366 0
M  V30 4422 O 414.722 1.94092 0.125843 0
M  V30 4423 C 415.005 1.36087 -3.33395 0
M  V30 4424 C 414.858 0.334981 -4.48551 0
M  V30 4425 C 416.177 2.29112 -3.7576 0
M  V30 4426 H 413.296 0.254475 -0.691673 0
M  V30 4427 H 415.938 -0.0331678 -1.89971 0
M  V30 4428 H 414.088 1.98922 -3.3371 0
M  V30 4429 H 415.76 -0.292534 -4.60372 0
M  V30 4430 H 414.003 -0.344325 -4.32431 0
M  V30 4431 H 414.674 0.833316 -5.45674 0
M  V30 4432 H 417.15 1.76308 -3.76902 0
M  V30 4433 H 416.026 2.72043 -4.76743 0
M  V30 4434 H 416.287 3.16385 -3.08793 0
M  V30 4435 N 415.346 1.54954 0.287554 0
M  V30 4436 C 416.593 1.74873 1.02106 0
M  V30 4437 C 416.921 0.541829 1.86801 0
M  V30 4438 O 416.176 -0.475992 1.89823 0
M  V30 4439 C 416.475 2.99833 1.94512 0
M  V30 4440 C 416.141 4.33029 1.25686 0
M  V30 4441 C 414.803 4.69233 1.06649 0
M  V30 4442 C 417.155 5.15542 0.765913 0
M  V30 4443 C 414.483 5.85518 0.372222 0
M  V30 4444 C 416.835 6.32542 0.0853101 0
M  V30 4445 C 415.499 6.67398 -0.1169 0
M  V30 4446 H 414.769 0.639906 0.373632 0
M  V30 4447 H 417.416 1.89219 0.294665 0
M  V30 4448 H 415.721 2.80325 2.73725 0
M  V30 4449 H 417.418 3.1244 2.51361 0
M  V30 4450 H 414.008 4.04564 1.41512 0
M  V30 4451 H 418.192 4.88059 0.90066 0
M  V30 4452 H 413.448 6.11057 0.204695 0
M  V30 4453 H 417.622 6.95741 -0.302936 0
M  V30 4454 H 415.249 7.57357 -0.656859 0
M  V30 4455 N 416.824 -0.551391 1.4764 0
M  V30 4456 C 417.772 -1.67896 1.60978 0
M  V30 4457 C 418.766 -1.62549 0.476877 0
M  V30 4458 O 419.972 -1.67664 0.654878 0
M  V30 4459 H 416.347 -0.555649 0.506713 0
M  V30 4460 H 418.318 -1.53784 2.55721 0
M  V30 4461 C 417.067 -3.06234 1.64669 0
M  V30 4462 H 416.39 -3.11033 2.51194 0
M  V30 4463 H 417.83 -3.84804 1.7805 0
M  V30 4464 C 416.289 -3.34737 0.381115 0
M  V30 4465 O 416.819 -3.98381 -0.515297 0
M  V30 4466 N 415.025 -2.8944 0.259354 0
M  V30 4467 H 414.572 -2.37827 0.98976 0
M  V30 4468 H 414.53 -3.08882 -0.586464 0
M  V30 4469 N 418.302 -1.35869 -0.798587 0
M  V30 4470 C 419.55 -1.29332 -1.55298 0
M  V30 4471 C 419.871 0.129729 -1.94568 0
M  V30 4472 O 419.141 1.06796 -1.6423 0
M  V30 4473 H 417.721 -0.475737 -0.57592 0
M  V30 4474 H 420.383 -1.70062 -0.952093 0
M  V30 4475 H 419.479 -1.91458 -2.46476 0
M  V30 4476 N 419.78 1.02168 -1.19998 0
M  V30 4477 C 420.727 2.10601 -0.944228 0
M  V30 4478 C 421.697 1.65639 0.123664 0
M  V30 4479 O 422.882 1.9079 -0.0199941 0
M  V30 4480 C 420.022 3.41504 -0.496865 0
M  V30 4481 C 419.135 3.99973 -1.63234 0
M  V30 4482 C 418.27 5.18915 -1.13579 0
M  V30 4483 C 417.309 5.69456 -2.24468 0
M  V30 4484 N 416.446 6.79665 -1.76068 0
M  V30 4485 H 421.286 2.31814 -1.8726 0
M  V30 4486 H 418.823 1.13686 -0.933483 0
M  V30 4487 H 420.781 4.16626 -0.218843 0
M  V30 4488 H 419.411 3.2038 0.394508 0
M  V30 4489 H 418.463 3.21997 -2.0254 0
M  V30 4490 H 419.775 4.33492 -2.46752 0
M  V30 4491 H 418.929 6.01222 -0.813429 0
M  V30 4492 H 417.668 4.8695 -0.270434 0
M  V30 4493 H 416.673 4.85757 -2.57526 0
M  V30 4494 H 417.898 6.03459 -3.11472 0
M  V30 4495 H 415.844 6.49538 -0.918516 0
M  V30 4496 H 415.761 7.12349 -2.5317 0
M  V30 4497 H 417.029 7.65549 -1.46817 0
M  V30 4498 N 421.258 1.00505 1.21394 0
M  V30 4499 C 422.205 0.565496 2.23765 0
M  V30 4500 C 423.175 -0.408466 1.60999 0
M  V30 4501 O 424.36 -0.310503 1.88257 0
M  V30 4502 C 421.5 -0.101667 3.4495 0
M  V30 4503 C 420.613 0.915479 4.22188 0
M  V30 4504 C 419.748 0.220574 5.30742 0
M  V30 4505 C 418.787 1.22527 5.99711 0
M  V30 4506 N 417.924 0.557831 6.9988 0
M  V30 4507 H 422.764 1.44314 2.60725 0
M  V30 4508 H 420.301 0.722643 1.28126 0
M  V30 4509 H 422.259 -0.505504 4.14126 0
M  V30 4510 H 420.889 -0.94303 3.08718 0
M  V30 4511 H 419.941 1.43756 3.52191 0
M  V30 4512 H 421.253 1.68005 4.69655 0
M  V30 4513 H 420.407 -0.239368 6.06228 0
M  V30 4514 H 419.146 -0.576401 4.84282 0
M  V30 4515 H 418.151 1.69571 5.22997 0
M  V30 4516 H 419.376 2.02332 6.48258 0
M  V30 4517 H 417.322 -0.219486 6.55633 0
M  V30 4518 H 417.239 1.26065 7.45415 0
M  V30 4519 H 418.507 0.121095 7.79406 0
M  V30 4520 N 422.737 -1.36956 0.779787 0
M  V30 4521 C 423.647 -2.33965 0.172491 0
M  V30 4522 C 424.663 -1.60574 -0.670222 0
M  V30 4523 O 425.839 -1.92617 -0.588263 0
M  V30 4524 C 422.904 -3.39761 -0.690173 0
M  V30 4525 C 421.965 -4.28964 0.169924 0
M  V30 4526 C 421.198 -5.29707 -0.651662 0
M  V30 4527 O 421.421 -5.38238 -1.88827 0
M  V30 4528 O 420.355 -6.01873 -0.0566264 0
M  V30 4529 H 424.181 -2.87647 0.974321 0
M  V30 4530 H 421.766 -1.39258 0.541078 0
M  V30 4531 H 423.648 -4.04471 -1.1824 0
M  V30 4532 H 422.323 -2.88394 -1.47006 0
M  V30 4533 H 421.23 -3.67326 0.708696 0
M  V30 4534 H 422.563 -4.83656 0.913085 0
M  V30 4535 N 424.215 -0.530993 -1.48385 0
M  V30 4536 C 425.125 0.23503 -2.3342 0
M  V30 4537 C 426.141 0.93801 -1.46552 0
M  V30 4538 O 427.317 0.912745 -1.7953 0
M  V30 4539 C 424.382 1.26778 -3.22689 0
M  V30 4540 C 423.443 0.575038 -4.25431 0
M  V30 4541 C 422.676 1.55858 -5.10435 0
M  V30 4542 O 422.899 2.79129 -4.97437 0
M  V30 4543 O 421.833 1.09742 -5.91811 0
M  V30 4544 H 425.659 -0.461794 -3.00169 0
M  V30 4545 H 423.244 -0.291903 -1.46521 0
M  V30 4546 H 425.126 1.86457 -3.77904 0
M  V30 4547 H 423.801 1.94699 -2.586 0
M  V30 4548 H 422.708 -0.0622782 -3.74048 0
M  V30 4549 H 424.041 -0.062253 -4.92161 0
M  V30 4550 N 425.693 1.55336 -0.266172 0
M  V30 4551 C 426.941 1.99003 0.35246 0
M  V30 4552 C 427.262 1.15591 1.57047 0
M  V30 4553 O 426.532 0.243268 1.94384 0
M  V30 4554 H 425.112 0.735025 0.133217 0
M  V30 4555 H 427.774 1.91367 -0.369434 0
M  V30 4556 H 426.87 3.05289 0.648453 0
M  V30 4557 N 427.171 -0.0066808 1.57599 0
M  V30 4558 C 428.081 -1.01671 2.11424 0
M  V30 4559 C 429.097 -1.38143 1.05795 0
M  V30 4560 O 430.273 -1.47011 1.37658 0
M  V30 4561 C 427.338 -2.29192 2.60139 0
M  V30 4562 C 426.399 -1.99094 3.80342 0
M  V30 4563 C 425.632 -3.20535 4.26724 0
M  V30 4564 O 425.855 -4.3199 3.72479 0
M  V30 4565 O 424.789 -3.04924 5.18946 0
M  V30 4566 H 428.615 -0.589181 2.9793 0
M  V30 4567 H 426.2 -0.225091 1.47695 0
M  V30 4568 H 428.082 -3.0412 2.917 0
M  V30 4569 H 426.757 -2.71195 1.76733 0
M  V30 4570 H 425.664 -1.21663 3.53764 0
M  V30 4571 H 426.997 -1.61931 4.648 0
M  V30 4572 N 428.649 -1.55105 -0.279332 0
M  V30 4573 C 430.065 -1.46803 -0.626187 0
M  V30 4574 C 430.265 -0.676939 -1.89789 0
M  V30 4575 O 429.321 -0.19326 -2.51759 0
M  V30 4576 C 430.634 -2.90962 -0.759034 0
M  V30 4577 C 432.182 -3.01138 -0.853504 0
M  V30 4578 C 432.657 -4.46539 -1.01818 0
M  V30 4579 N 434.148 -4.50341 -1.08386 0
M  V30 4580 C 434.883 -5.60053 -1.22996 0
M  V30 4581 N 434.379 -6.79645 -1.34366 0
M  V30 4582 N 436.172 -5.47783 -1.26056 0
M  V30 4583 H 428.323 -2.04996 0.555921 0
M  V30 4584 H 430.586 -0.929325 0.187239 0
M  V30 4585 H 430.292 -3.51544 0.104852 0
M  V30 4586 H 430.166 -3.39619 -1.64131 0
M  V30 4587 H 432.553 -2.40658 -1.70786 0
M  V30 4588 H 432.634 -2.55745 0.0532466 0
M  V30 4589 H 432.278 -5.0762 -0.168504 0
M  V30 4590 H 432.208 -4.89583 -1.93948 0
M  V30 4591 H 434.699 -3.64191 -1.00864 0
M  V30 4592 H 435.012 -7.59012 -1.4533 0
M  V30 4593 H 433.357 -6.82469 -1.31382 0
M  V30 4594 H 436.548 -4.53294 -1.168 0
M  V30 4595 H 436.721 -6.33331 -1.37098 0
M  V30 4596 N 430.127 0.543554 -1.4793 0
M  V30 4597 C 431.057 1.65888 -1.64327 0
M  V30 4598 C 432.038 1.62818 -0.492383 0
M  V30 4599 O 433.223 1.80226 -0.723338 0
M  V30 4600 C 430.353 3.04506 -1.67013 0
M  V30 4601 C 429.307 3.2243 -2.81466 0
M  V30 4602 C 428.633 4.61972 -2.69233 0
M  V30 4603 C 429.933 3.06496 -4.22915 0
M  V30 4604 H 431.627 1.52421 -2.57698 0
M  V30 4605 H 429.173 0.731849 -1.24016 0
M  V30 4606 H 431.126 3.82391 -1.77074 0
M  V30 4607 H 429.85 3.18964 -0.70212 0
M  V30 4608 H 428.509 2.46957 -2.70938 0
M  V30 4609 H 428.157 4.73247 -1.7043 0
M  V30 4610 H 427.857 4.74911 -3.46025 0
M  V30 4611 H 429.381 5.41974 -2.81242 0
M  V30 4612 H 430.795 3.74186 -4.34348 0
M  V30 4613 H 429.192 3.30938 -5.006 0
M  V30 4614 H 430.262 2.03077 -4.40327 0
M  V30 4615 N 431.605 1.3629 0.791371 0
M  V30 4616 C 432.83 1.33726 1.58531 0
M  V30 4617 C 433.255 -0.0794933 1.87932 0
M  V30 4618 O 432.613 -1.05087 1.47738 0
M  V30 4619 C 432.661 2.16425 2.88431 0
M  V30 4620 O 431.765 1.5554 3.81944 0
M  V30 4621 H 431.106 0.457793 0.480959 0
M  V30 4622 H 433.636 1.79547 0.981031 0
M  V30 4623 H 433.646 2.28933 3.37718 0
M  V30 4624 H 432.321 3.19415 2.66359 0
M  V30 4625 H 430.898 1.51961 3.40532 0
M  V30 4626 N 433.083 -1.0153 1.20538 0
M  V30 4627 C 434.013 -2.11972 0.979295 0
M  V30 4628 C 434.994 -1.6985 -0.0921787 0
M  V30 4629 O 436.179 -1.94089 0.0655932 0
M  V30 4630 C 433.309 -3.43201 0.531984 0
M  V30 4631 C 432.263 -3.9907 1.54685 0
M  V30 4632 C 431.589 -5.26082 0.956127 0
M  V30 4633 C 432.889 -4.32313 2.93092 0
M  V30 4634 H 434.583 -2.31143 1.90298 0
M  V30 4635 H 432.129 -1.11079 0.916372 0
M  V30 4636 H 434.082 -4.1985 0.361044 0
M  V30 4637 H 432.806 -3.23792 -0.427327 0
M  V30 4638 H 431.465 -3.2453 1.70517 0
M  V30 4639 H 431.113 -5.02999 -0.0111538 0
M  V30 4640 H 430.813 -5.64426 1.63393 0
M  V30 4641 H 432.337 -6.05386 0.796284 0
M  V30 4642 H 433.751 -4.99845 2.80763 0
M  V30 4643 H 432.148 -4.81774 3.57791 0
M  V30 4644 H 433.218 -3.41025 3.44717 0
M  V30 4645 N 434.561 -1.01147 -1.20859 0
M  V30 4646 C 435.471 -0.58686 -2.27141 0
M  V30 4647 C 436.487 0.373198 -1.69951 0
M  V30 4648 O 437.663 0.235423 -2.00019 0
M  V30 4649 C 434.728 0.0733602 -3.46622 0
M  V30 4650 C 433.789 -0.931995 -4.19061 0
M  V30 4651 C 433.022 -0.303186 -5.32838 0
M  V30 4652 O 433.245 0.898395 -5.63281 0
M  V30 4653 O 432.179 -1.01735 -5.9324 0
M  V30 4654 H 436.005 -1.47155 -2.65667 0
M  V30 4655 H 433.59 -0.780689 -1.2738 0
M  V30 4656 H 435.472 0.442333 -4.19072 0
M  V30 4657 H 434.147 0.932329 -3.09983 0
M  V30 4658 H 433.054 -1.35224 -3.48805 0
M  V30 4659 H 434.387 -1.76076 -4.59628 0
M  V30 4660 N 436.039 1.36541 -0.78704 0
M  V30 4661 C 436.949 2.3387 -0.184896 0
M  V30 4662 C 437.965 1.60927 0.661697 0
M  V30 4663 O 439.141 1.92927 0.57804 0
M  V30 4664 C 436.206 3.40122 0.672145 0
M  V30 4665 C 435.267 4.28867 -0.19267 0
M  V30 4666 C 434.5 5.30045 0.623561 0
M  V30 4667 O 434.723 5.39232 1.8597 0
M  V30 4668 O 433.657 6.01895 0.0247068 0
M  V30 4669 H 437.483 2.87126 -0.989562 0
M  V30 4670 H 435.068 1.38969 -0.548455 0
M  V30 4671 H 436.95 4.05093 1.16094 0
M  V30 4672 H 435.625 2.89169 1.45474 0
M  V30 4673 H 434.532 3.66945 -0.728166 0
M  V30 4674 H 435.865 4.83165 -0.938722 0
M  V30 4675 N 437.518 0.538854 1.48102 0
M  V30 4676 C 438.448 -0.207654 2.32575 0
M  V30 4677 C 439.429 -0.926559 1.4265 0
M  V30 4678 O 440.614 -0.91061 1.71527 0
M  V30 4679 C 437.744 -1.24957 3.24042 0
M  V30 4680 C 436.698 -0.648263 4.23062 0
M  V30 4681 C 436.024 -1.79348 5.03725 0
M  V30 4682 C 437.324 0.385897 5.20872 0
M  V30 4683 H 439.018 0.497534 2.95237 0
M  V30 4684 H 436.564 0.240715 1.41974 0
M  V30 4685 H 438.517 -1.77983 3.81969 0
M  V30 4686 H 437.241 -1.98446 2.59397 0
M  V30 4687 H 435.9 -0.139452 3.66335 0
M  V30 4688 H 435.548 -2.51696 4.35498 0
M  V30 4689 H 435.248 -1.39702 5.70751 0
M  V30 4690 H 436.772 -2.32735 5.64506 0
M  V30 4691 H 438.186 -0.057607 5.73271 0
M  V30 4692 H 436.583 0.700227 5.96001 0
M  V30 4693 H 437.653 1.28848 4.67468 0
M  V30 4694 N 438.996 -1.55193 0.274407 0
M  V30 4695 C 439.943 -2.225 -0.613374 0
M  V30 4696 C 440.913 -1.19823 -1.15029 0
M  V30 4697 O 442.098 -1.48362 -1.19973 0
M  V30 4698 C 439.238 -2.94927 -1.79199 0
M  V30 4699 C 438.351 -4.12322 -1.28899 0
M  V30 4700 C 437.486 -4.72394 -2.42934 0
M  V30 4701 C 436.525 -5.81984 -1.89634 0
M  V30 4702 N 435.662 -6.36123 -2.9714 0
M  V30 4703 H 440.502 -2.97982 -0.032756 0
M  V30 4704 H 438.039 -1.47099 -0.00440146 0
M  V30 4705 H 439.997 -3.35134 -2.48478 0
M  V30 4706 H 438.627 -2.2187 -2.34465 0
M  V30 4707 H 437.679 -3.7724 -0.489327 0
M  V30 4708 H 438.991 -4.91355 -0.858587 0
M  V30 4709 H 438.145 -5.15317 -3.20208 0
M  V30 4710 H 436.884 -3.92636 -2.8929 0
M  V30 4711 H 435.889 -5.38511 -1.1084 0
M  V30 4712 H 437.114 -6.6361 -1.44215 0
M  V30 4713 H 435.06 -5.59259 -3.42878 0
M  V30 4714 H 434.977 -7.10427 -2.58515 0
M  V30 4715 H 436.245 -6.83704 -3.74391 0
M  V30 4716 N 440.474 -0.00167713 -1.576 0
M  V30 4717 C 441.404 0.988091 -2.11563 0
M  V30 4718 C 442.385 1.35736 -1.02517 0
M  V30 4719 O 443.57 1.44082 -1.30208 0
M  V30 4720 C 440.7 2.27941 -2.62031 0
M  V30 4721 C 439.654 2.0517 -3.75619 0
M  V30 4722 C 438.98 3.4033 -4.12407 0
M  V30 4723 C 440.28 1.41294 -5.02825 0
M  V30 4724 H 441.974 0.538771 -2.94513 0
M  V30 4725 H 439.52 0.257712 -1.41675 0
M  V30 4726 H 441.473 2.97539 -2.9841 0
M  V30 4727 H 440.197 2.74989 -1.76205 0
M  V30 4728 H 438.856 1.37998 -3.39635 0
M  V30 4729 H 438.504 3.85085 -3.23603 0
M  V30 4730 H 438.204 3.25909 -4.88935 0
M  V30 4731 H 439.728 4.1124 -4.51347 0
M  V30 4732 H 441.142 2.00851 -5.36965 0
M  V30 4733 H 439.539 1.37356 -5.84169 0
M  V30 4734 H 440.609 0.382362 -4.8339 0
M  V30 4735 N 441.952 1.55251 0.271103 0
M  V30 4736 C 442.9 1.89054 1.35504 0
M  V30 4737 C 443.894 0.767064 1.51038 0
M  V30 4738 O 445.1 0.951429 1.528 0
M  V30 4739 H 441.475 0.600072 0.45323 0
M  V30 4740 H 443.446 2.79598 1.04247 0
M  V30 4741 C 442.195 2.18068 2.70817 0
M  V30 4742 H 441.518 3.04005 2.59656 0
M  V30 4743 H 442.958 2.4564 3.45597 0
M  V30 4744 C 441.417 0.988901 3.2206 0
M  V30 4745 O 441.947 0.224501 4.01072 0
M  V30 4746 N 440.153 0.786085 2.79766 0
M  V30 4747 H 439.7 1.40937 2.15626 0
M  V30 4748 H 439.658 -0.00969349 3.14399 0
M  V30 4749 N 443.43 -0.535701 1.48216 0
M  V30 4750 C 444.36 -1.65014 1.65204 0
M  V30 4751 C 445.341 -1.62554 0.501011 0
M  V30 4752 O 446.526 -1.7984 0.732886 0
M  V30 4753 C 443.656 -3.03616 1.68626 0
M  V30 4754 C 442.61 -3.20932 2.83172 0
M  V30 4755 C 441.936 -4.60537 2.71679 0
M  V30 4756 C 443.236 -3.04249 4.24535 0
M  V30 4757 H 444.93 -1.51053 2.58502 0
M  V30 4758 H 442.476 -0.725262 1.24402 0
M  V30 4759 H 444.429 -3.81446 1.79099 0
M  V30 4760 H 443.153 -3.18587 0.719026 0
M  V30 4761 H 441.812 -2.45517 2.72244 0
M  V30 4762 H 441.46 -4.72336 1.72937 0
M  V30 4763 H 441.16 -4.73069 3.48538 0
M  V30 4764 H 442.684 -5.40475 2.84112 0
M  V30 4765 H 444.098 -3.71877 4.36326 0
M  V30 4766 H 442.495 -3.28278 5.02348 0
M  V30 4767 H 443.565 -2.00739 4.41397 0
M  V30 4768 N 444.908 -1.36708 -0.784132 0
M  V30 4769 C 445.84 -1.27333 -1.90575 0
M  V30 4770 C 446.853 -0.191706 -1.61667 0
M  V30 4771 O 448.042 -0.446854 -1.72816 0
M  V30 4772 C 445.142 -0.943177 -3.25511 0
M  V30 4773 C 444.315 -2.12776 -3.82158 0
M  V30 4774 C 443.374 -1.76983 -4.95544 0
M  V30 4775 O 442.4 -2.49134 -5.11782 0
M  V30 4776 N 443.602 -0.706624 -5.76183 0
M  V30 4777 H 446.367 -2.23974 -1.99138 0
M  V30 4778 H 443.928 -1.30171 -0.962656 0
M  V30 4779 H 445.92 -0.684799 -3.98864 0
M  V30 4780 H 444.49 -0.0657333 -3.12531 0
M  V30 4781 H 443.71 -2.54863 -3.0073 0
M  V30 4782 H 444.998 -2.91904 -4.16737 0
M  V30 4783 H 444.396 -0.107643 -5.65598 0
M  V30 4784 H 442.953 -0.50808 -6.49817 0
M  V30 4785 N 446.386 1.0089 -1.21074 0
M  V30 4786 C 447.333 2.09588 -0.966512 0
M  V30 4787 C 448.303 1.65761 0.106089 0
M  V30 4788 O 449.488 1.90758 -0.0402287 0
M  V30 4789 C 446.628 3.40958 -0.533058 0
M  V30 4790 C 445.741 3.9822 -1.67467 0
M  V30 4791 C 444.876 5.17682 -1.19076 0
M  V30 4792 C 443.915 5.67043 -2.30496 0
M  V30 4793 N 443.052 6.77759 -1.83267 0
M  V30 4794 H 447.892 2.29815 -1.89708 0
M  V30 4795 H 445.429 1.12689 -0.945489 0
M  V30 4796 H 447.387 4.1637 -0.263019 0
M  V30 4797 H 446.017 3.20781 0.360505 0
M  V30 4798 H 445.069 3.1983 -2.05944 0
M  V30 4799 H 446.381 4.3085 -2.51336 0
M  V30 4800 H 445.535 6.00326 -0.877151 0
M  V30 4801 H 444.274 4.86635 -0.322066 0
M  V30 4802 H 443.279 4.82999 -2.62664 0
M  V30 4803 H 444.504 6.00121 -3.17855 0
M  V30 4804 H 442.45 6.48527 -0.987356 0
M  V30 4805 H 442.367 7.09624 -2.60711 0
M  V30 4806 H 443.635 7.63949 -1.54928 0
M  V30 4807 N 447.864 1.01787 1.20321 0
M  V30 4808 C 448.774 0.598898 2.26827 0
M  V30 4809 C 449.79 -0.36418 1.70146 0
M  V30 4810 O 450.966 -0.224812 2.00141 0
M  V30 4811 C 448.031 -0.0549769 3.46656 0
M  V30 4812 C 447.092 0.954205 4.18561 0
M  V30 4813 C 446.325 0.331439 5.3267 0
M  V30 4814 O 446.548 -0.86851 5.63749 0
M  V30 4815 O 445.482 1.0488 5.92692 0
M  V30 4816 H 449.308 1.48562 2.64883 0
M  V30 4817 H 446.893 0.787434 1.26964 0
M  V30 4818 H 448.775 -0.420102 4.19301 0
M  V30 4819 H 447.45 -0.915876 3.10473 0
M  V30 4820 H 446.357 1.37072 3.48083 0
M  V30 4821 H 447.69 1.78511 4.58688 0
M  V30 4822 N 449.342 -1.36122 0.79427 0
M  V30 4823 C 450.591 -1.98361 0.365464 0
M  V30 4824 C 450.904 -1.6374 -1.06997 0
M  V30 4825 O 452.11 -2.19251 -1.60129 0
M  V30 4826 C 450.566 -3.54821 0.602496 0
M  V30 4827 C 450.174 -3.98362 2.04967 0
M  V30 4828 C 451.918 -4.2383 0.238437 0
M  V30 4829 C 449.825 -5.47619 2.2331 0
M  V30 4830 H 448.755 -0.742193 0.13291 0
M  V30 4831 H 451.406 -1.55354 0.976589 0
M  V30 4832 H 449.788 -3.95922 -0.078409 0
M  V30 4833 H 450.962 -3.68447 2.76737 0
M  V30 4834 H 449.277 -3.42206 2.37243 0
M  V30 4835 H 451.874 -5.33529 0.353705 0
M  V30 4836 H 452.217 -4.08264 -0.814006 0
M  V30 4837 H 452.75 -3.88108 0.872769 0
M  V30 4838 H 449.489 -5.68138 3.26955 0
M  V30 4839 H 449.009 -5.79145 1.5605 0
M  V30 4840 H 450.688 -6.13911 2.0426 0
M  V30 4841 N 450.82 -0.546701 -1.47814 0
M  V30 4842 C 452.045 -0.021268 -2.07389 0
M  V30 4843 C 452.47 1.25822 -1.39822 0
M  V30 4844 O 451.828 1.75111 -0.46968 0
M  V30 4845 C 451.876 0.168502 -3.60206 0
M  V30 4846 O 450.98 1.23347 -3.93522 0
M  V30 4847 H 450.321 -0.0466108 -0.662362 0
M  V30 4848 H 452.851 -0.759387 -1.89985 0
M  V30 4849 H 452.861 0.385982 -4.0617 0
M  V30 4850 H 451.536 -0.766075 -4.08784 0
M  V30 4851 H 450.113 0.997319 -3.59316 0
M  V30 4852 N 452.299 1.55045 -0.282633 0
M  V30 4853 C 453.229 2.2579 0.595066 0
M  V30 4854 C 454.21 1.25074 1.15284 0
M  V30 4855 O 455.395 1.5381 1.18559 0
M  V30 4856 C 452.525 2.98472 1.77572 0
M  V30 4857 C 451.479 4.0618 1.34914 0
M  V30 4858 C 450.805 4.66477 2.6135 0
M  V30 4859 C 452.105 5.1996 0.493821 0
M  V30 4860 H 453.799 2.994 0.00505653 0
M  V30 4861 H 451.345 1.44 0.000992001 0
M  V30 4862 H 453.298 3.46677 2.39568 0
M  V30 4863 H 452.022 2.2241 2.39168 0
M  V30 4864 H 450.681 3.58797 0.752338 0
M  V30 4865 H 450.329 3.87074 3.2122 0
M  V30 4866 H 450.029 5.39207 2.33516 0
M  V30 4867 H 451.553 5.17435 3.24181 0
M  V30 4868 H 452.967 5.64172 1.01898 0
M  V30 4869 H 451.364 5.99299 0.310047 0
M  V30 4870 H 452.434 4.82462 -0.485593 0
M  V30 4871 N 453.777 0.010035 1.57597 0
M  V30 4872 C 454.74 -0.963029 2.07986 0
M  V30 4873 C 455.74 -1.26619 0.991173 0
M  V30 4874 O 456.93 -1.2097 1.25347 0
M  V30 4875 C 454.062 -2.2851 2.52974 0
M  V30 4876 H 455.255 -0.526971 2.95234 0
M  V30 4877 H 452.808 -0.237639 1.54483 0
M  V30 4878 H 453.543 -2.76784 1.69 0
M  V30 4879 H 453.328 -2.07824 3.32493 0
M  V30 4880 H 454.818 -2.98294 2.9225 0
M  V30 4881 N 455.255 -1.55392 -0.262866 0
M  V30 4882 C 456.202 -1.88966 -1.32516 0
M  V30 4883 C 457.172 -0.742187 -1.48596 0
M  V30 4884 O 458.357 -0.99439 -1.62839 0
M  V30 4885 C 455.497 -2.17592 -2.67858 0
M  V30 4886 C 454.61 -3.45061 -2.59917 0
M  V30 4887 C 453.745 -3.63336 -3.87505 0
M  V30 4888 C 452.784 -4.84462 -3.74116 0
M  V30 4889 N 451.921 -4.99342 -4.93561 0
M  V30 4890 H 456.761 -2.79566 -1.03184 0
M  V30 4891 H 454.298 -1.38404 -0.498285 0
M  V30 4892 H 456.256 -2.3219 -3.46617 0
M  V30 4893 H 454.886 -1.30215 -2.95371 0
M  V30 4894 H 453.938 -3.38881 -1.72812 0
M  V30 4895 H 455.25 -4.3396 -2.45926 0
M  V30 4896 H 454.404 -3.77807 -4.74707 0
M  V30 4897 H 453.143 -2.72641 -4.04374 0
M  V30 4898 H 452.148 -4.69985 -2.85297 0
M  V30 4899 H 453.373 -5.76603 -3.58757 0
M  V30 4900 H 451.319 -4.1158 -5.10821 0
M  V30 4901 H 451.236 -5.82303 -4.82141 0
M  V30 4902 H 452.504 -5.18208 -5.82306 0
M  V30 4903 N 456.733 0.527833 -1.48498 0
M  V30 4904 C 457.696 1.61439 -1.62696 0
M  V30 4905 C 458.696 1.52824 -0.500136 0
M  V30 4906 O 459.886 1.56456 -0.765976 0
M  V30 4907 C 457.018 3.01063 -1.59918 0
M  V30 4908 H 458.211 1.50189 -2.59583 0
M  V30 4909 H 455.764 0.750055 -1.37127 0
M  V30 4910 H 456.499 3.17818 -0.645163 0
M  V30 4911 H 456.284 3.08725 -2.41726 0
M  V30 4912 H 457.774 3.80057 -1.73051 0
M  V30 4913 N 458.211 1.37122 0.776871 0
M  V30 4914 C 459.158 1.3247 1.88998 0
M  V30 4915 C 460.128 0.191143 1.64997 0
M  V30 4916 O 461.313 0.379683 1.86984 0
M  V30 4917 C 458.453 1.13241 3.25992 0
M  V30 4918 C 457.566 2.35782 3.61982 0
M  V30 4919 C 456.701 2.09465 4.88158 0
M  V30 4920 C 455.74 3.279 5.16864 0
M  V30 4921 N 454.877 3.01167 6.34226 0
M  V30 4922 H 459.717 2.27642 1.9231 0
M  V30 4923 H 457.254 1.13125 0.94027 0
M  V30 4924 H 459.212 1.00115 4.0501 0
M  V30 4925 H 457.842 0.217186 3.22069 0
M  V30 4926 H 456.894 2.59666 2.77989 0
M  V30 4927 H 458.206 3.24125 3.79137 0
M  V30 4928 H 457.36 1.93341 5.75069 0
M  V30 4929 H 456.099 1.18452 4.73097 0
M  V30 4930 H 455.104 3.44569 4.2843 0
M  V30 4931 H 456.329 4.19757 5.33836 0
M  V30 4932 H 454.275 2.12779 6.20533 0
M  V30 4933 H 454.192 3.83052 6.51772 0
M  V30 4934 H 455.46 2.88649 7.24087 0
M  V30 4935 N 459.689 -1.00246 1.21608 0
M  V30 4936 C 460.919 -1.77373 1.05935 0
M  V30 4937 C 461.327 -1.85059 -0.393686 0
M  V30 4938 O 460.67 -1.31289 -1.28487 0
M  V30 4939 C 460.732 -3.22705 1.58435 0
M  V30 4940 C 460.396 -3.38591 3.06929 0
M  V30 4941 C 461.393 -3.2667 4.04454 0
M  V30 4942 C 459.078 -3.6395 3.46187 0
M  V30 4943 C 461.072 -3.39877 5.39224 0
M  V30 4944 C 458.759 -3.768 4.81108 0
M  V30 4945 C 459.757 -3.6477 5.77436 0
M  V30 4946 O 459.445 -3.77206 7.09909 0
M  V30 4947 H 459.177 -0.56419 0.372378 0
M  V30 4948 H 461.731 -1.26971 1.61454 0
M  V30 4949 H 459.961 -3.74255 0.973147 0
M  V30 4950 H 461.65 -3.81515 1.38568 0
M  V30 4951 H 462.416 -3.06999 3.75468 0
M  V30 4952 H 458.295 -3.72395 2.71741 0
M  V30 4953 H 461.839 -3.30404 6.14393 0
M  V30 4954 H 457.736 -3.95975 5.09779 0
M  V30 4955 H 458.504 -3.94138 7.17355 0
M  V30 4956 N 461.167 -1.02423 -1.1978 0
M  V30 4957 C 462.395 -0.737456 -1.93311 0
M  V30 4958 C 462.81 0.703023 -1.75223 0
M  V30 4959 O 462.167 1.47761 -1.07112 0
M  V30 4960 C 462.218 -1.0733 -3.45199 0
M  V30 4961 O 461.939 -2.4572 -3.62702 0
M  V30 4962 C 463.44 -0.80866 -4.35862 0
M  V30 4963 H 460.66 -0.2702 -0.614193 0
M  V30 4964 H 463.204 -1.36747 -1.52054 0
M  V30 4965 H 461.359 -0.488545 -3.84307 0
M  V30 4966 H 461.773 -2.58081 -4.56612 0
M  V30 4967 H 463.247 -1.09365 -5.41057 0
M  V30 4968 H 463.724 0.257025 -4.38447 0
M  V30 4969 H 464.33 -1.37592 -4.02428 0
M  V30 4970 N 462.645 1.35699 -0.801477 0
M  V30 4971 C 463.608 2.28199 -0.213994 0
M  V30 4972 C 464.608 1.49359 0.595691 0
M  V30 4973 O 465.798 1.69186 0.414921 0
M  V30 4974 C 462.93 3.33587 0.702297 0
M  V30 4975 H 464.123 2.81666 -1.02976 0
M  V30 4976 H 461.676 1.45467 -0.571759 0
M  V30 4977 H 462.411 2.85297 1.54195 0
M  V30 4978 H 462.196 3.91906 0.123484 0
M  V30 4979 H 463.686 4.02638 1.10783 0
M  V30 4980 N 464.123 0.554532 1.47522 0
M  V30 4981 C 465.348 0.0322661 2.07375 0
M  V30 4982 C 465.773 -1.25079 1.40488 0
M  V30 4983 O 465.131 -1.74859 0.47896 0
M  V30 4984 C 465.179 -0.149397 3.6029 0
M  V30 4985 O 464.283 -1.21259 3.9417 0
M  V30 4986 H 463.624 0.0501228 0.662106 0
M  V30 4987 H 466.154 0.769452 1.8958 0
M  V30 4988 H 466.164 -0.364437 4.06369 0
M  V30 4989 H 464.839 0.787743 4.08372 0
M  V30 4990 H 463.416 -0.97825 3.5984 0
M  V30 4991 N 465.601 -1.54893 0.290851 0
M  V30 4992 C 466.878 -1.91991 -0.373989 0
M  V30 4993 C 467.258 -1.21694 -1.72493 0
M  V30 4994 O 466.606 -0.34917 -2.25816 0
M  V30 4995 C 466.816 -3.45419 -0.498703 0
M  V30 4996 C 468.164 -4.1748 -0.774298 0
M  V30 4997 O 469.188 -3.51398 -0.582908 0
M  V30 4998 O 468.047 -5.3445 -1.14129 0
M  V30 4999 H 465.141 -0.800593 -0.207315 0
M  V30 5000 H 467.687 -1.66297 0.338164 0
M  V30 5001 H 466.459 -3.88688 0.451392 0
M  V30 5002 H 466.082 -3.77117 -1.25972 0
M  V30 5003 N 467.08 -0.0183926 -1.57589 0
M  V30 5004 C 468.01 0.965596 -2.12599 0
M  V30 5005 C 468.991 1.34641 -1.0395 0
M  V30 5006 O 470.176 1.42693 -1.31729 0
M  V30 5007 C 467.306 2.25149 -2.64434 0
M  V30 5008 C 466.26 2.01175 -3.77773 0
M  V30 5009 C 465.586 3.35937 -4.15994 0
M  V30 5010 C 466.886 1.35953 -5.04296 0
M  V30 5011 H 468.58 0.507504 -2.95067 0
M  V30 5012 H 466.126 0.242671 -1.41941 0
M  V30 5013 H 468.079 2.94357 -3.01549 0
M  V30 5014 H 466.803 2.73105 -1.79112 0
M  V30 5015 H 465.462 1.34388 -3.4108 0
M  V30 5016 H 465.11 3.81631 -3.27669 0
M  V30 5017 H 464.81 3.20705 -4.92364 0
M  V30 5018 H 466.334 4.0643 -4.55683 0
M  V30 5019 H 467.748 1.95144 -5.39065 0
M  V30 5020 H 466.145 1.31152 -5.85593 0
M  V30 5021 H 467.215 0.331071 -4.83768 0
M  V30 5022 N 468.558 1.5553 0.254621 0
M  V30 5023 C 469.805 1.77 0.983736 0
M  V30 5024 C 470.133 0.58133 1.85609 0
M  V30 5025 O 469.388 -0.435621 1.9079 0
M  V30 5026 C 469.687 3.03891 1.88109 0
M  V30 5027 C 469.353 4.35597 1.16472 0
M  V30 5028 C 468.015 4.7139 0.966714 0
M  V30 5029 C 470.367 5.1705 0.656387 0
M  V30 5030 C 467.695 5.86176 0.247942 0
M  V30 5031 C 470.047 6.32581 -0.0488807 0
M  V30 5032 C 468.711 6.67 -0.258438 0
M  V30 5033 H 467.981 0.647688 0.359974 0
M  V30 5034 H 470.628 1.89802 0.254463 0
M  V30 5035 H 468.933 2.86068 2.67717 0
M  V30 5036 H 470.63 3.17701 2.44677 0
M  V30 5037 H 467.22 4.07475 1.32899 0
M  V30 5038 H 471.404 4.8986 0.796933 0
M  V30 5039 H 466.66 6.11354 0.075035 0
M  V30 5040 H 470.834 6.94942 -0.450444 0
M  V30 5041 H 468.461 7.55793 -0.817358 0
M  V30 5042 N 470.036 -0.519951 1.48776 0
M  V30 5043 C 471.452 -0.849418 1.35119 0
M  V30 5044 C 471.652 -1.98077 0.36982 0
M  V30 5045 O 470.708 -2.51664 -0.205359 0
M  V30 5046 C 472.021 -1.20748 2.75391 0
M  V30 5047 C 473.569 -1.31679 2.83954 0
M  V30 5048 C 474.044 -1.70824 4.24951 0
M  V30 5049 N 475.535 -1.77908 4.27672 0
M  V30 5050 C 476.27 -2.09603 5.33717 0
M  V30 5051 N 475.766 -2.39652 6.5003 0
M  V30 5052 N 477.559 -2.10694 5.21119 0
M  V30 5053 H 469.71 0.226377 2.1119 0
M  V30 5054 H 471.973 0.0386519 0.947212 0
M  V30 5055 H 471.679 -0.449703 3.48813 0
M  V30 5056 H 471.553 -2.15534 3.09556 0
M  V30 5057 H 473.94 -2.06532 2.10781 0
M  V30 5058 H 474.021 -0.3499 2.53396 0
M  V30 5059 H 473.665 -0.965282 4.98643 0
M  V30 5060 H 473.595 -2.6858 4.52959 0
M  V30 5061 H 476.086 -1.56923 3.43779 0
M  V30 5062 H 476.399 -2.6297 7.26682 0
M  V30 5063 H 474.744 -2.37149 6.53288 0
M  V30 5064 H 477.935 -1.86682 4.29264 0
M  V30 5065 H 478.108 -2.35062 6.03863 0
M  V30 5066 N 471.514 -1.37532 -0.769588 0
M  V30 5067 C 472.763 -1.32183 -1.5235 0
M  V30 5068 C 473.076 0.0906555 -1.9539 0
M  V30 5069 O 474.282 0.266628 -2.70188 0
M  V30 5070 C 472.738 -2.32029 -2.75119 0
M  V30 5071 C 472.346 -3.78816 -2.3917 0
M  V30 5072 C 474.09 -2.35694 -3.53056 0
M  V30 5073 C 471.997 -4.70388 -3.58453 0
M  V30 5074 H 470.927 -0.491275 -0.571984 0
M  V30 5075 H 473.578 -1.63004 -0.842739 0
M  V30 5076 H 471.96 -1.94229 -3.45096 0
M  V30 5077 H 473.134 -4.25466 -1.76962 0
M  V30 5078 H 471.449 -3.78117 -1.74402 0
M  V30 5079 H 474.046 -3.01312 -4.41718 0
M  V30 5080 H 474.389 -1.37117 -3.93071 0
M  V30 5081 H 474.922 -2.72212 -2.90078 0
M  V30 5082 H 471.661 -5.70102 -3.23518 0
M  V30 5083 H 471.181 -4.28442 -4.19758 0
M  V30 5084 H 472.86 -4.87628 -4.25239 0
M  V30 5085 N 472.992 0.995999 -1.22138 0
M  V30 5086 C 474.403 1.54961 -1.04135 0
M  V30 5087 C 474.754 1.92159 0.396147 0
M  V30 5088 O 473.879 1.74435 1.28069 0
M  V30 5089 C 474.474 2.81581 -1.88408 0
M  V30 5090 C 473.033 3.33396 -1.74712 0
M  V30 5091 C 472.18 2.06509 -1.85066 0
M  V30 5092 H 475.131 0.817436 -1.36028 0
M  V30 5093 H 475.152 3.53822 -1.39966 0
M  V30 5094 H 474.664 2.54476 -2.93025 0
M  V30 5095 H 472.765 3.65416 -0.728159 0
M  V30 5096 H 472.878 4.04208 -2.57202 0
M  V30 5097 H 471.242 2.19925 -1.28472 0
M  V30 5098 H 472.025 1.81804 -2.91208 0
M  V30 5099 N 474.47 1.03057 1.19235 0
M  V30 5100 C 475.403 0.557384 2.21288 0
M  V30 5101 C 476.381 -0.402675 1.57535 0
M  V30 5102 O 477.565 -0.319376 1.85775 0
M  V30 5103 C 474.692 -0.187041 3.38183 0
M  V30 5104 C 473.738 0.72471 4.20298 0
M  V30 5105 S 474.571 2.20187 4.88137 0
M  V30 5106 C 475.727 1.46801 6.08441 0
M  V30 5107 H 475.96 1.42207 2.61083 0
M  V30 5108 H 473.493 0.840651 1.29508 0
M  V30 5109 H 475.451 -0.610405 4.05936 0
M  V30 5110 H 474.112 -1.02748 2.96819 0
M  V30 5111 H 473.305 0.149911 5.03777 0
M  V30 5112 H 472.907 1.08647 3.57871 0
M  V30 5113 H 475.199 0.755522 6.73274 0
M  V30 5114 H 476.142 2.27946 6.70407 0
M  V30 5115 H 476.55 0.964762 5.56195 0
M  V30 5116 N 475.948 -1.35272 0.808662 0
M  V30 5117 C 476.878 -2.32315 0.234981 0
M  V30 5118 C 477.859 -1.57572 -0.64071 0
M  V30 5119 O 479.044 -1.8563 -0.570551 0
M  V30 5120 C 476.174 -3.41801 -0.615601 0
M  V30 5121 C 475.128 -4.27694 0.161767 0
M  V30 5122 C 474.454 -5.28519 -0.810649 0
M  V30 5123 C 475.754 -5.04231 1.36193 0
M  V30 5124 H 477.448 -2.80543 1.04575 0
M  V30 5125 H 474.994 -1.3488 0.504315 0
M  V30 5126 H 476.947 -4.08693 -1.02702 0
M  V30 5127 H 475.671 -2.92186 -1.45928 0
M  V30 5128 H 474.33 -3.62384 0.554382 0
M  V30 5129 H 473.978 -4.75171 -1.64988 0
M  V30 5130 H 473.678 -5.8686 -0.294822 0
M  V30 5131 H 475.202 -5.98283 -1.22023 0
M  V30 5132 H 476.616 -5.64058 1.02528 0
M  V30 5133 H 475.013 -5.72077 1.81239 0
M  V30 5134 H 476.083 -4.34753 2.14751 0
M  V30 5135 N 477.426 -0.562348 -1.47226 0
M  V30 5136 C 478.842 -0.222492 -1.58042 0
M  V30 5137 C 479.042 1.27505 -1.56028 0
M  V30 5138 O 478.098 2.05555 -1.46641 0
M  V30 5139 C 479.411 -0.853694 -2.88327 0
M  V30 5140 C 480.959 -0.825397 -3.01921 0
M  V30 5141 C 481.434 -1.43576 -4.34914 0
M  V30 5142 N 482.925 -1.39918 -4.41562 0
M  V30 5143 C 483.66 -1.84103 -5.43041 0
M  V30 5144 N 483.156 -2.36167 -6.51304 0
M  V30 5145 N 484.949 -1.75142 -5.34118 0
M  V30 5146 H 477.1 -1.53525 -1.46778 0
M  V30 5147 H 479.363 -0.640527 -0.698877 0
M  V30 5148 H 479.069 -1.90635 -2.95552 0
M  V30 5149 H 478.943 -0.34977 -3.75575 0
M  V30 5150 H 481.33 0.218583 -2.94289 0
M  V30 5151 H 481.411 -1.36713 -2.16202 0
M  V30 5152 H 481.055 -2.47884 -4.43301 0
M  V30 5153 H 480.985 -0.869427 -5.19373 0
M  V30 5154 H 483.476 -1.0184 -3.63919 0
M  V30 5155 H 483.789 -2.67793 -7.24919 0
M  V30 5156 H 482.134 -2.40181 -6.52179 0
M  V30 5157 H 485.325 -1.34241 -4.48439 0
M  V30 5158 H 485.498 -2.09895 -6.13065 0
M  V30 5159 N 478.904 1.54736 -0.299062 0
M  V30 5160 C 480.32 1.59507 0.0543849 0
M  V30 5161 C 480.52 1.31606 1.52585 0
M  V30 5162 O 479.576 1.08853 2.27832 0
M  V30 5163 C 480.889 2.98751 -0.34181 0
M  V30 5164 C 482.437 3.1165 -0.290414 0
M  V30 5165 C 482.912 4.53199 -0.661402 0
M  V30 5166 N 484.403 4.59114 -0.613863 0
M  V30 5167 C 485.138 5.66709 -0.873417 0
M  V30 5168 N 484.634 6.82349 -1.19884 0
M  V30 5169 N 486.427 5.56369 -0.800608 0
M  V30 5170 H 478.578 1.71133 -1.25806 0
M  V30 5171 H 480.841 0.799186 -0.509908 0
M  V30 5172 H 480.547 3.24085 -1.36608 0
M  V30 5173 H 480.421 3.75961 0.305508 0
M  V30 5174 H 482.808 2.86066 0.724605 0
M  V30 5175 H 482.889 2.366 -0.972327 0
M  V30 5176 H 482.533 4.79513 -1.67422 0
M  V30 5177 H 482.463 5.26583 0.0425612 0
M  V30 5178 H 484.954 3.76053 -0.3732 0
M  V30 5179 H 485.267 7.60326 -1.38291 0
M  V30 5180 H 483.612 6.83906 -1.23685 0
M  V30 5181 H 486.803 4.64904 -0.546045 0
M  V30 5182 H 486.976 6.40139 -1.00626 0
M  V30 5183 N 480.382 0.0267497 1.57577 0
M  V30 5184 C 481.315 -0.99059 2.05579 0
M  V30 5185 C 482.293 -1.31884 0.951065 0
M  V30 5186 O 483.477 -1.43592 1.22121 0
M  V30 5187 C 480.604 -2.31125 2.47586 0
M  V30 5188 C 479.65 -2.13777 3.69055 0
M  V30 5189 S 480.483 -1.4388 5.15809 0
M  V30 5190 C 481.639 -2.77321 5.6111 0
M  V30 5191 H 481.872 -0.581976 2.91548 0
M  V30 5192 H 479.405 -0.184876 1.53289 0
M  V30 5193 H 481.363 -3.07049 2.72454 0
M  V30 5194 H 480.024 -2.6912 1.61967 0
M  V30 5195 H 479.217 -3.11405 3.96287 0
M  V30 5196 H 478.819 -1.45996 3.44327 0
M  V30 5197 H 481.111 -3.73565 5.65204 0
M  V30 5198 H 482.054 -2.54756 6.60685 0
M  V30 5199 H 482.462 -2.82459 4.88751 0
M  V30 5200 N 481.861 -1.55662 -0.24637 0
M  V30 5201 C 483.089 -1.81575 -0.991876 0
M  V30 5202 C 483.504 -0.602545 -1.78927 0
M  V30 5203 O 482.861 0.428795 -1.77391 0
M  V30 5204 C 482.912 -3.05711 -1.92933 0
M  V30 5205 O 482.633 -4.22348 -1.1642 0
M  V30 5206 C 484.134 -3.44428 -2.79078 0
M  V30 5207 H 481.354 -0.604209 -0.291844 0
M  V30 5208 H 483.898 -2.02722 -0.269095 0
M  V30 5209 H 482.053 -2.86612 -2.60638 0
M  V30 5210 H 482.467 -4.92706 -1.79835 0
M  V30 5211 H 483.941 -4.34388 -3.40603 0
M  V30 5212 H 484.418 -2.65037 -3.50217 0
M  V30 5213 H 485.024 -3.65879 -2.16824 0
M  V30 5214 N 483.339 0.512053 -1.4905 0
M  V30 5215 C 484.586 1.26686 -1.57978 0
M  V30 5216 C 484.914 1.92733 -0.261553 0
M  V30 5217 O 484.169 1.80772 0.749667 0
M  V30 5218 C 484.468 2.36446 -2.68008 0
M  V30 5219 C 484.134 1.87932 -4.09869 0
M  V30 5220 C 482.796 1.74419 -4.48477 0
M  V30 5221 C 485.148 1.5149 -4.98698 0
M  V30 5222 C 482.476 1.22827 -5.73699 0
M  V30 5223 C 484.828 1.01355 -6.24428 0
M  V30 5224 C 483.492 0.864735 -6.61875 0
M  V30 5225 H 482.762 0.463577 -0.578081 0
M  V30 5226 H 485.409 0.569421 -1.82838 0
M  V30 5227 H 483.714 3.11933 -2.37076 0
M  V30 5228 H 485.411 2.9453 -2.72127 0
M  V30 5229 H 482.001 1.99405 -3.79389 0
M  V30 5230 H 486.185 1.60782 -4.69535 0
M  V30 5231 H 481.441 1.10008 -6.01422 0
M  V30 5232 H 485.615 0.722351 -6.92644 0
M  V30 5233 H 483.242 0.462777 -7.5879 0
M  V30 5234 N 484.817 1.37938 0.762283 0
M  V30 5235 C 486.057 1.35076 1.53407 0
M  V30 5236 C 486.421 -0.061546 1.91901 0
M  V30 5237 O 487.622 -0.214973 2.67939 0
M  V30 5238 C 485.893 2.27206 2.75884 0
M  V30 5239 S 487.452 2.42283 3.65848 0
M  V30 5240 H 484.27 0.479387 0.52508 0
M  V30 5241 H 486.872 1.7378 0.895586 0
M  V30 5242 H 485.576 3.28724 2.457 0
M  V30 5243 H 485.107 1.8962 3.44685 0
M  V30 5244 H 487.122 1.64044 4.68299 0
M  V30 5245 N 486.295 -0.989507 1.22664 0
M  V30 5246 C 487.225 -2.09847 1.02404 0
M  V30 5247 C 488.206 -1.70007 -0.0561303 0
M  V30 5248 O 489.391 -1.93906 0.106748 0
M  V30 5249 C 486.521 -3.41996 0.604663 0
M  V30 5250 C 485.475 -3.95699 1.63115 0
M  V30 5251 C 484.801 -5.23936 1.0675 0
M  V30 5252 C 486.101 -4.25999 3.02196 0
M  V30 5253 H 487.795 -2.27054 1.95158 0
M  V30 5254 H 485.341 -1.09111 0.939727 0
M  V30 5255 H 487.294 -4.1899 0.45002 0
M  V30 5256 H 486.018 -3.24626 -0.35855 0
M  V30 5257 H 484.677 -3.2084 1.77362 0
M  V30 5258 H 484.325 -5.02909 0.0955422 0
M  V30 5259 H 484.025 -5.60833 1.75328 0
M  V30 5260 H 485.549 -6.0356 0.924516 0
M  V30 5261 H 486.963 -4.93777 2.91303 0
M  V30 5262 H 485.36 -4.74076 3.67929 0
M  V30 5263 H 486.43 -3.33636 3.51873 0
M  V30 5264 N 487.773 -1.03688 -1.18687 0
M  V30 5265 C 488.998 -0.757819 -1.93059 0
M  V30 5266 C 489.423 0.678353 -1.75442 0
M  V30 5267 O 488.781 1.46938 -1.06203 0
M  V30 5268 C 488.829 -1.12423 -3.42627 0
M  V30 5269 O 487.933 -0.247505 -4.11657 0
M  V30 5270 H 487.274 -0.279245 -0.602427 0
M  V30 5271 H 489.804 -1.3857 -1.5053 0
M  V30 5272 H 489.814 -1.08454 -3.93322 0
M  V30 5273 H 488.489 -2.17049 -3.54771 0
M  V30 5274 H 487.066 -0.34649 -3.71287 0
M  V30 5275 N 489.251 1.34841 -0.815825 0
M  V30 5276 C 490.181 2.32187 -0.247298 0
M  V30 5277 C 491.162 1.5791 0.632344 0
M  V30 5278 O 492.347 1.8593 0.560698 0
M  V30 5279 C 489.477 3.42122 0.597466 0
M  V30 5280 C 488.431 4.27602 -0.184446 0
M  V30 5281 C 487.757 5.28942 0.782609 0
M  V30 5282 C 489.057 5.03502 -1.38865 0
M  V30 5283 H 490.751 2.79985 -1.06061 0
M  V30 5284 H 488.297 1.34611 -0.511461 0
M  V30 5285 H 490.25 4.09232 1.00533 0
M  V30 5286 H 488.974 2.92956 1.44376 0
M  V30 5287 H 487.633 3.62085 -0.573592 0
M  V30 5288 H 487.281 4.7604 1.62466 0
M  V30 5289 H 486.981 5.87008 0.263695 0
M  V30 5290 H 488.505 5.98922 1.18848 0
M  V30 5291 H 489.919 5.63506 -1.05518 0
M  V30 5292 H 488.316 5.71108 -1.8427 0
M  V30 5293 H 489.386 4.33608 -2.17054 0
M  V30 5294 N 490.729 0.570148 1.46925 0
M  V30 5295 C 491.692 -0.159933 2.28641 0
M  V30 5296 C 492.692 -0.830638 1.37685 0
M  V30 5297 O 493.882 -0.684516 1.60187 0
M  V30 5298 C 491.014 -1.2354 3.17727 0
M  V30 5299 H 492.207 0.558035 2.94662 0
M  V30 5300 H 489.76 0.327603 1.52828 0
M  V30 5301 H 490.495 -1.98535 2.56426 0
M  V30 5302 H 490.28 -0.759125 3.84681 0
M  V30 5303 H 491.77 -1.74782 3.79264 0
M  V30 5304 N 492.207 -1.54576 0.307264 0
M  V30 5305 C 493.453 -2.01272 -0.293453 0
M  V30 5306 C 493.808 -1.19178 -1.51044 0
M  V30 5307 O 493.101 -0.261704 -1.89804 0
M  V30 5308 C 493.295 -3.50572 -0.695253 0
M  V30 5309 C 493.124 -4.47118 0.481249 0
M  V30 5310 C 491.894 -4.958 0.97524 0
M  V30 5311 C 494.092 -4.96853 1.32823 0
M  V30 5312 N 492.074 -5.76212 2.11785 0
M  V30 5313 C 493.445 -5.75028 2.31824 0
M  V30 5314 C 495.5 -4.79026 1.35788 0
M  V30 5315 C 494.203 -6.37276 3.33574 0
M  V30 5316 C 496.229 -5.42097 2.364 0
M  V30 5317 C 495.591 -6.2011 3.34129 0
M  V30 5318 H 491.69 -0.778709 -0.0716705 0
M  V30 5319 H 494.274 -1.89695 0.438602 0
M  V30 5320 H 492.445 -3.62427 -1.39647 0
M  V30 5321 H 494.177 -3.84056 -1.27604 0
M  V30 5322 H 490.932 -4.70405 0.549184 0
M  V30 5323 H 491.356 -6.21101 2.69375 0
M  V30 5324 H 495.998 -4.18288 0.616021 0
M  V30 5325 H 493.716 -6.97144 4.08676 0
M  V30 5326 H 497.302 -5.30229 2.39475 0
M  V30 5327 H 496.182 -6.68049 4.10707 0
M  V30 5328 N 493.685 -0.035106 -1.57561 0
M  V30 5329 C 494.932 0.642229 -1.92046 0
M  V30 5330 C 495.26 1.7179 -0.91206 0
M  V30 5331 O 494.515 1.95544 0.0781153 0
M  V30 5332 C 494.814 1.29149 -3.3325 0
M  V30 5333 C 494.48 0.345604 -4.49574 0
M  V30 5334 C 493.142 0.0852775 -4.81124 0
M  V30 5335 C 495.494 -0.303569 -5.20315 0
M  V30 5336 C 492.822 -0.831927 -5.80772 0
M  V30 5337 C 495.174 -1.20886 -6.20942 0
M  V30 5338 C 493.838 -1.47802 -6.50931 0
M  V30 5339 H 493.108 0.235008 -0.702746 0
M  V30 5340 H 495.755 -0.0981529 -1.91248 0
M  V30 5341 H 494.06 2.10676 -3.30337 0
M  V30 5342 H 495.757 1.82223 -3.57205 0
M  V30 5343 H 492.347 0.558683 -4.24943 0
M  V30 5344 H 496.531 -0.115515 -4.96166 0
M  V30 5345 H 491.787 -1.0481 -6.02349 0
M  V30 5346 H 495.961 -1.71804 -6.74875 0
M  V30 5347 H 493.588 -2.19039 -7.2796 0
M  V30 5348 N 495.163 1.55791 0.238111 0
M  V30 5349 C 496.126 1.90239 1.27835 0
M  V30 5350 C 497.126 0.779552 1.4064 0
M  V30 5351 O 498.316 1.04747 1.3919 0
M  V30 5352 C 495.448 2.13859 2.65475 0
M  V30 5353 H 496.641 2.83262 0.985034 0
M  V30 5354 H 494.194 1.48818 0.477799 0
M  V30 5355 H 494.929 1.23334 2.99932 0
M  V30 5356 H 494.714 2.95643 2.57561 0
M  V30 5357 H 496.204 2.41664 3.40571 0
M  V30 5358 N 496.642 -0.504142 1.49319 0
M  V30 5359 C 497.87 -1.28256 1.62351 0
M  V30 5360 C 498.285 -1.86502 0.293682 0
M  V30 5361 O 497.642 -1.67678 -0.720449 0
M  V30 5362 C 497.693 -2.41507 2.68992 0
M  V30 5363 O 497.414 -1.85656 3.96817 0
M  V30 5364 C 498.915 -3.32929 2.927 0
M  V30 5365 H 496.135 -0.389115 0.546654 0
M  V30 5366 H 498.679 -0.605531 1.95329 0
M  V30 5367 H 496.834 -3.05046 2.38801 0
M  V30 5368 H 497.248 -2.59981 4.55533 0
M  V30 5369 H 498.722 -4.0868 3.71058 0
M  V30 5370 H 499.199 -3.89733 2.02496 0
M  V30 5371 H 499.805 -2.75158 3.24296 0
M  V30 5372 N 498.12 -1.38341 -0.754957 0
M  V30 5373 C 499.368 -1.34208 -1.51105 0
M  V30 5374 C 499.689 0.0677634 -1.94882 0
M  V30 5375 O 498.959 1.01517 -1.67544 0
M  V30 5376 H 497.539 -0.493819 -0.560493 0
M  V30 5377 H 500.201 -1.73005 -0.897507 0
M  V30 5378 H 499.297 -1.99203 -2.4026 0
M  V30 5379 N 499.598 0.982988 -1.23187 0
M  V30 5380 C 500.845 1.72392 -1.06241 0
M  V30 5381 C 501.173 1.9032 0.40108 0
M  V30 5382 O 500.428 1.45084 1.31336 0
M  V30 5383 C 500.727 3.12736 -1.73006 0
M  V30 5384 C 500.393 3.14695 -3.22921 0
M  V30 5385 C 499.055 3.14937 -3.63824 0
M  V30 5386 C 501.407 3.10211 -4.1883 0
M  V30 5387 C 498.735 3.08408 -4.99101 0
M  V30 5388 C 501.087 3.05224 -5.54095 0
M  V30 5389 C 499.751 3.03787 -5.94365 0
M  V30 5390 H 499.021 0.630829 -0.388762 0
M  V30 5391 H 501.668 1.15053 -1.53085 0
M  V30 5392 H 499.973 3.73446 -1.18514 0
M  V30 5393 H 501.67 3.68828 -1.57374 0
M  V30 5394 H 498.26 3.15262 -2.90358 0
M  V30 5395 H 502.444 3.09166 -3.8824 0
M  V30 5396 H 497.7 3.05646 -5.29519 0
M  V30 5397 H 501.874 3.00712 -6.28128 0
M  V30 5398 H 499.501 2.98483 -6.99151 0
M  V30 5399 N 501.076 1.04316 1.18135 0
M  V30 5400 C 502.039 0.640794 2.2006 0
M  V30 5401 C 503.039 -0.303124 1.57917 0
M  V30 5402 O 504.229 -0.0881855 1.73977 0
M  V30 5403 C 501.361 -0.060148 3.40847 0
M  V30 5404 H 502.554 1.54281 2.57172 0
M  V30 5405 H 500.107 0.836004 1.32063 0
M  V30 5406 H 500.842 -0.975845 3.0927 0
M  V30 5407 H 500.627 0.618319 3.87194 0
M  V30 5408 H 502.117 -0.328082 4.16309 0
M  V30 5409 N 502.554 -1.34406 0.822964 0
M  V30 5410 C 503.784 -2.02214 0.423424 0
M  V30 5411 C 504.192 -1.62124 -0.975322 0
M  V30 5412 O 503.535 -0.822452 -1.6426 0
M  V30 5413 C 503.597 -3.56721 0.446107 0
M  V30 5414 C 503.261 -4.20136 1.79819 0
M  V30 5415 C 504.258 -4.4065 2.75904 0
M  V30 5416 C 501.943 -4.56906 2.08669 0
M  V30 5417 C 503.937 -4.9706 3.99012 0
M  V30 5418 C 501.624 -5.13026 3.32036 0
M  V30 5419 C 502.622 -5.33047 4.27024 0
M  V30 5420 O 502.31 -5.87979 5.48211 0
M  V30 5421 H 502.042 -0.654748 0.168169 0
M  V30 5422 H 504.596 -1.72659 1.11257 0
M  V30 5423 H 502.826 -3.85537 -0.299734 0
M  V30 5424 H 504.515 -4.05845 0.0666114 0
M  V30 5425 H 505.281 -4.12607 2.54912 0
M  V30 5426 H 501.16 -4.40626 1.35535 0
M  V30 5427 H 504.704 -5.12603 4.73164 0
M  V30 5428 H 500.601 -5.40498 3.52891 0
M  V30 5429 H 501.369 -6.06413 5.49732 0
M  V30 5430 N 504.032 -0.577932 -1.46621 0
M  V30 5431 C 505.262 -0.0670668 -2.06491 0
M  V30 5432 C 505.67 1.24119 -1.42798 0
M  V30 5433 O 505.013 1.76016 -0.525759 0
M  V30 5434 C 505.075 0.177995 -3.59059 0
M  V30 5435 C 504.739 -1.04394 -4.44917 0
M  V30 5436 C 505.736 -1.95479 -4.81751 0
M  V30 5437 C 503.421 -1.26444 -4.86125 0
M  V30 5438 C 505.415 -3.06965 -5.58615 0
M  V30 5439 C 503.102 -2.38237 -5.62749 0
M  V30 5440 C 504.1 -3.28327 -5.98908 0
M  V30 5441 O 503.788 -4.38179 -6.73984 0
M  V30 5442 H 503.52 -0.0523159 -0.673973 0
M  V30 5443 H 506.074 -0.796966 -1.89308 0
M  V30 5444 H 504.304 0.962451 -3.74531 0
M  V30 5445 H 505.993 0.636782 -4.00874 0
M  V30 5446 H 506.759 -1.79657 -4.50498 0
M  V30 5447 H 502.638 -0.572316 -4.57434 0
M  V30 5448 H 506.182 -3.77309 -5.86757 0
M  V30 5449 H 502.079 -2.54023 -5.93416 0
M  V30 5450 H 502.847 -4.36486 -6.92403 0
M  V30 5451 N 505.51 1.54411 -0.315457 0
M  V30 5452 C 506.735 2.05299 0.294496 0
M  V30 5453 C 507.16 1.19052 1.4563 0
M  V30 5454 O 506.518 0.197804 1.80218 0
M  V30 5455 C 506.566 3.5345 0.714549 0
M  V30 5456 O 505.67 3.70175 1.81781 0
M  V30 5457 H 505.011 0.661743 0.0547019 0
M  V30 5458 H 507.541 1.99327 -0.461508 0
M  V30 5459 H 507.551 3.9557 0.999426 0
M  V30 5460 H 506.226 4.1568 -0.135244 0
M  V30 5461 H 504.803 3.3996 1.53236 0
M  V30 5462 N 506.988 0.0434614 1.5754 0
M  V30 5463 C 507.918 -0.931651 2.14109 0
M  V30 5464 C 508.899 -1.32971 1.06079 0
M  V30 5465 O 510.084 -1.40579 1.33982 0
M  V30 5466 C 507.214 -2.20914 2.67982 0
M  V30 5467 C 506.168 -1.95139 3.80926 0
M  V30 5468 C 505.494 -3.29276 4.21285 0
M  V30 5469 C 506.794 -1.27913 5.06395 0
M  V30 5470 H 508.488 -0.460497 2.95837 0
M  V30 5471 H 506.034 -0.220058 1.42309 0
M  V30 5472 H 507.987 -2.89522 3.06194 0
M  V30 5473 H 506.711 -2.70221 1.83434 0
M  V30 5474 H 505.37 -1.28945 3.43175 0
M  V30 5475 H 505.018 -3.76369 3.33699 0
M  V30 5476 H 504.718 -3.12831 4.97404 0
M  V30 5477 H 506.242 -3.99129 4.62091 0
M  V30 5478 H 507.656 -1.86544 5.42102 0
M  V30 5479 H 506.053 -1.2182 5.87605 0
M  V30 5480 H 507.123 -0.254066 4.84234 0
M  V30 5481 N 508.466 -1.55915 -0.229846 0
M  V30 5482 C 509.429 -1.90914 -1.26824 0
M  V30 5483 C 510.429 -0.786999 -1.40225 0
M  V30 5484 O 511.619 -1.05484 -1.38632 0
M  V30 5485 C 508.751 -2.15264 -2.64337 0
M  V30 5486 H 509.944 -2.8378 -0.969998 0
M  V30 5487 H 507.497 -1.49069 -0.4699 0
M  V30 5488 H 508.232 -1.24923 -2.99274 0
M  V30 5489 H 508.017 -2.97005 -2.55989 0
M  V30 5490 H 509.507 -2.43467 -3.39284 0
M  V30 5491 N 509.944 0.496216 -1.49584 0
M  V30 5492 C 510.877 1.61508 -1.61215 0
M  V30 5493 C 511.855 1.55927 -0.461045 0
M  V30 5494 O 513.039 1.75914 -0.677231 0
M  V30 5495 C 510.166 3.00035 -1.57152 0
M  V30 5496 C 509.212 3.23861 -2.77518 0
M  V30 5497 S 510.045 3.06466 -4.39134 0
M  V30 5498 C 511.201 4.4738 -4.37724 0
M  V30 5499 H 511.434 1.51398 -2.55863 0
M  V30 5500 H 508.967 0.681727 -1.38535 0
M  V30 5501 H 510.925 3.7991 -1.55494 0
M  V30 5502 H 509.586 3.07556 -0.637834 0
M  V30 5503 H 508.779 4.25 -2.70908 0
M  V30 5504 H 508.381 2.51716 -2.76614 0
M  V30 5505 H 510.673 5.39556 -4.09738 0
M  V30 5506 H 511.616 4.59038 -5.39156 0
M  V30 5507 H 512.024 4.28283 -3.67742 0
M  V30 5508 N 511.423 1.38739 0.74761 0
M  V30 5509 C 512.671 1.35007 1.50391 0
M  V30 5510 C 512.992 -0.0574274 1.94915 0
M  V30 5511 O 512.262 -1.00628 1.6808 0
M  V30 5512 H 510.842 0.496784 0.557866 0
M  V30 5513 H 513.504 1.73479 0.888319 0
M  V30 5514 H 512.6 2.00474 2.392 0
M  V30 5515 N 512.901 -0.976442 1.23707 0
M  V30 5516 C 514.147 -1.72081 1.07312 0
M  V30 5517 C 514.48 -1.90275 -0.388476 0
M  V30 5518 O 513.755 -1.4579 -1.28746 0
M  V30 5519 C 514.038 -3.11675 1.80363 0
M  V30 5520 C 513.891 -3.01027 3.3422 0
M  V30 5521 C 515.21 -4.1117 1.5693 0
M  V30 5522 H 512.329 -0.624583 0.391236 0
M  V30 5523 H 514.971 -1.13649 1.52263 0
M  V30 5524 H 513.121 -3.61559 1.42153 0
M  V30 5525 H 514.793 -2.58637 3.81975 0
M  V30 5526 H 513.036 -2.3744 3.63049 0
M  V30 5527 H 513.707 -3.9988 3.80525 0
M  V30 5528 H 516.183 -3.7011 1.90151 0
M  V30 5529 H 515.059 -5.06928 2.10513 0
M  V30 5530 H 515.32 -4.392 0.505548 0
M  V30 5531 N 514.379 -1.04941 -1.1758 0
M  V30 5532 C 515.289 -0.658826 -2.25159 0
M  V30 5533 C 516.305 0.318941 -1.71052 0
M  V30 5534 O 517.481 0.171669 -2.00667 0
M  V30 5535 C 514.546 -0.0369522 -3.4668 0
M  V30 5536 C 513.607 -1.06484 -4.15884 0
M  V30 5537 C 512.84 -0.472551 -5.31604 0
M  V30 5538 O 513.063 0.718736 -5.65854 0
M  V30 5539 O 511.997 -1.20557 -5.89703 0
M  V30 5540 H 515.823 -1.55533 -2.60851 0
M  V30 5541 H 513.408 -0.820819 -1.24832 0
M  V30 5542 H 515.29 0.308784 -4.20267 0
M  V30 5543 H 513.965 0.833238 -3.12792 0
M  V30 5544 H 512.872 -1.46253 -3.44327 0
M  V30 5545 H 514.205 -1.9061 -4.53794 0
M  V30 5546 N 515.857 1.33968 -0.830081 0
M  V30 5547 C 516.767 2.33164 -0.259207 0
M  V30 5548 C 517.783 1.62951 0.610164 0
M  V30 5549 O 518.959 1.94668 0.516369 0
M  V30 5550 C 516.024 3.42088 0.563598 0
M  V30 5551 C 515.085 4.28037 -0.329014 0
M  V30 5552 C 514.318 5.3176 0.454616 0
M  V30 5553 O 514.541 5.44876 1.6872 0
M  V30 5554 O 513.475 6.01669 -0.166794 0
M  V30 5555 H 517.301 2.83832 -1.08041 0
M  V30 5556 H 514.886 1.37154 -0.59239 0
M  V30 5557 H 516.768 4.08581 1.03147 0
M  V30 5558 H 515.443 2.93651 1.36201 0
M  V30 5559 H 514.35 3.64443 -0.844538 0
M  V30 5560 H 515.683 4.79934 -1.09196 0
M  V30 5561 N 517.335 0.585699 1.46312 0
M  V30 5562 C 518.582 0.0724211 2.0237 0
M  V30 5563 C 518.91 -1.28868 1.45683 0
M  V30 5564 O 518.165 -1.85853 0.612945 0
M  V30 5565 C 518.464 -0.0401312 3.57377 0
M  V30 5566 C 518.13 1.25376 4.33119 0
M  V30 5567 C 516.792 1.60824 4.5353 0
M  V30 5568 C 519.144 2.10987 4.76586 0
M  V30 5569 C 516.472 2.81676 5.14661 0
M  V30 5570 C 518.824 3.31068 5.39052 0
M  V30 5571 C 517.488 3.66794 5.5769 0
M  V30 5572 H 516.758 0.0265007 0.740526 0
M  V30 5573 H 519.405 0.762935 1.75646 0
M  V30 5574 H 517.71 -0.813791 3.83255 0
M  V30 5575 H 519.407 -0.453078 3.98432 0
M  V30 5576 H 515.997 0.967808 4.1753 0
M  V30 5577 H 520.181 1.84904 4.60569 0
M  V30 5578 H 515.437 3.0949 5.27282 0
M  V30 5579 H 519.611 3.97672 5.71691 0
M  V30 5580 H 517.238 4.60529 6.04828 0
M  V30 5581 N 518.813 -1.54241 0.323641 0
M  V30 5582 C 520.061 -2.00174 -0.278359 0
M  V30 5583 C 520.382 -1.2134 -1.52648 0
M  V30 5584 O 519.652 -0.315244 -1.93347 0
M  V30 5585 H 518.232 -0.739463 -0.105845 0
M  V30 5586 H 520.894 -1.89864 0.440204 0
M  V30 5587 H 519.99 -3.07486 -0.5347 0
M  V30 5588 N 520.291 -0.0518155 -1.57515 0
M  V30 5589 C 521.537 0.622745 -1.93002 0
M  V30 5590 C 521.87 1.70456 -0.930499 0
M  V30 5591 O 521.145 1.94452 0.0434086 0
M  V30 5592 C 521.428 1.21824 -3.38867 0
M  V30 5593 C 521.281 0.144434 -4.49568 0
M  V30 5594 C 522.6 2.12968 -3.8514 0
M  V30 5595 H 519.719 0.22491 -0.701844 0
M  V30 5596 H 522.361 -0.113711 -1.89659 0
M  V30 5597 H 520.511 1.8459 -3.41846 0
M  V30 5598 H 522.183 -0.48753 -4.58717 0
M  V30 5599 H 520.426 -0.527424 -4.30582 0
M  V30 5600 H 521.097 0.601127 -5.48717 0
M  V30 5601 H 523.573 1.60163 -3.8404 0
M  V30 5602 H 522.449 2.51578 -4.87852 0
M  V30 5603 H 522.71 3.03004 -3.21934 0
M  V30 5604 N 521.769 1.56035 0.221574 0
M  V30 5605 C 522.717 1.93269 1.29421 0
M  V30 5606 C 523.711 0.814727 1.48521 0
M  V30 5607 O 524.917 0.999559 1.49696 0
M  V30 5608 H 521.292 0.614188 0.43391 0
M  V30 5609 H 523.263 2.82773 0.952987 0
M  V30 5610 C 522.012 2.26573 2.63742 0
M  V30 5611 H 521.335 3.12112 2.49853 0
M  V30 5612 H 522.775 2.5651 3.37607 0
M  V30 5613 C 521.234 1.09086 3.1875 0
M  V30 5614 O 521.764 0.351985 4.00155 0
M  V30 5615 N 519.97 0.874693 2.77124 0
M  V30 5616 H 519.517 1.47726 2.11033 0
M  V30 5617 H 519.475 0.0903349 3.1427 0
M  V30 5618 N 523.247 -0.488276 1.49845 0
M  V30 5619 C 524.177 -1.59675 1.70371 0
M  V30 5620 C 525.158 -1.60878 0.552473 0
M  V30 5621 O 526.343 -1.77417 0.78973 0
M  V30 5622 C 523.473 -2.98098 1.782 0
M  V30 5623 C 522.427 -3.11761 2.93239 0
M  V30 5624 C 521.753 -4.51661 2.86193 0
M  V30 5625 C 523.053 -2.90589 4.33999 0
M  V30 5626 H 524.747 -1.42752 2.63177 0
M  V30 5627 H 522.293 -0.685317 1.26647 0
M  V30 5628 H 524.246 -3.75555 1.91144 0
M  V30 5629 H 522.97 -3.16138 0.820018 0
M  V30 5630 H 521.629 -2.36732 2.79917 0
M  V30 5631 H 521.277 -4.66595 1.87877 0
M  V30 5632 H 520.977 -4.61742 3.63412 0
M  V30 5633 H 522.501 -5.31162 3.01163 0
M  V30 5634 H 523.915 -3.57807 4.47936 0
M  V30 5635 H 522.312 -3.1213 5.12538 0
M  V30 5636 H 523.382 -1.86595 4.4756 0
M  V30 5637 N 524.725 -1.39134 -0.740242 0
M  V30 5638 C 525.955 -1.39132 -1.52728 0
M  V30 5639 C 526.363 0.0173133 -1.89192 0
M  V30 5640 O 525.706 0.997715 -1.54244 0
M  V30 5641 C 525.768 -2.1952 -2.84695 0
M  V30 5642 C 525.432 -3.68203 -2.70695 0
M  V30 5643 C 526.429 -4.61401 -2.39593 0
M  V30 5644 C 524.114 -4.11724 -2.8773 0
M  V30 5645 C 526.108 -5.96102 -2.25701 0
M  V30 5646 C 523.795 -5.46503 -2.73456 0
M  V30 5647 C 524.793 -6.38506 -2.42486 0
M  V30 5648 O 524.481 -7.70803 -2.28295 0
M  V30 5649 H 524.213 -0.477263 -0.478744 0
M  V30 5650 H 526.767 -1.83504 -0.922799 0
M  V30 5651 H 524.997 -1.69888 -3.47383 0
M  V30 5652 H 526.686 -2.1176 -3.46284 0
M  V30 5653 H 527.452 -4.29079 -2.26088 0
M  V30 5654 H 523.331 -3.4045 -3.10829 0
M  V30 5655 H 526.875 -6.6788 -2.0145 0
M  V30 5656 H 522.772 -5.78417 -2.86538 0
M  V30 5657 H 523.54 -7.8147 -2.43405 0
M  V30 5658 N 526.204 0.969867 -1.24223 0
M  V30 5659 C 527.453 1.70687 -1.07466 0
M  V30 5660 C 527.766 1.91736 0.386861 0
M  V30 5661 O 528.972 2.62986 0.674581 0
M  V30 5662 C 527.428 3.07217 -1.87472 0
M  V30 5663 C 527.036 2.94018 -3.3802 0
M  V30 5664 C 528.78 3.84804 -1.79237 0
M  V30 5665 C 526.687 4.25844 -4.10379 0
M  V30 5666 H 525.617 0.640067 -0.398536 0
M  V30 5667 H 528.268 1.08092 -1.48285 0
M  V30 5668 H 526.65 3.70628 -1.39466 0
M  V30 5669 H 527.824 2.39632 -3.9359 0
M  V30 5670 H 526.139 2.29898 -3.47183 0
M  V30 5671 H 528.736 4.82417 -2.30603 0
M  V30 5672 H 529.079 4.09356 -0.757197 0
M  V30 5673 H 529.612 3.28115 -2.24912 0
M  V30 5674 H 526.351 4.06486 -5.14246 0
M  V30 5675 H 525.871 4.80054 -3.59594 0
M  V30 5676 H 527.55 4.94475 -4.17257 0
M  V30 5677 N 527.682 1.05563 1.17022 0
M  V30 5678 C 528.612 0.681026 2.23348 0
M  V30 5679 C 529.593 -0.322983 1.67005 0
M  V30 5680 O 530.778 -0.199746 1.9317 0
M  V30 5681 C 527.908 0.0589053 3.4725 0
M  V30 5682 C 526.862 0.988082 4.16438 0
M  V30 5683 C 526.188 0.229646 5.34207 0
M  V30 5684 C 527.488 2.31388 4.68249 0
M  V30 5685 H 529.182 1.56993 2.54938 0
M  V30 5686 H 526.728 0.756302 1.2254 0
M  V30 5687 H 528.681 -0.214982 4.20851 0
M  V30 5688 H 527.405 -0.864968 3.14938 0
M  V30 5689 H 526.064 1.24659 3.44754 0
M  V30 5690 H 525.712 -0.697111 4.98146 0
M  V30 5691 H 525.412 0.848815 5.81437 0
M  V30 5692 H 526.936 -0.0368694 6.10589 0
M  V30 5693 H 528.35 2.09964 5.33468 0
M  V30 5694 H 526.747 2.88736 5.26072 0
M  V30 5695 H 527.817 2.94982 3.84855 0
M  V30 5696 N 529.16 -1.33526 0.837174 0
M  V30 5697 C 530.092 -2.28077 0.226579 0
M  V30 5698 C 531.105 -1.51666 -0.591717 0
M  V30 5699 O 532.294 -1.73511 -0.419064 0
M  V30 5700 C 529.394 -3.31597 -0.69978 0
M  V30 5701 C 528.567 -4.37329 0.0788067 0
M  V30 5702 C 527.626 -5.20526 -0.770637 0
M  V30 5703 O 526.652 -5.68811 -0.210453 0
M  V30 5704 N 527.854 -5.41639 -2.08825 0
M  V30 5705 H 530.619 -2.81115 1.03897 0
M  V30 5706 H 528.18 -1.46201 0.695476 0
M  V30 5707 H 530.172 -3.84158 -1.27298 0
M  V30 5708 H 528.742 -2.78848 -1.41288 0
M  V30 5709 H 527.962 -3.8529 0.833381 0
M  V30 5710 H 529.25 -5.05079 0.614238 0
M  V30 5711 H 528.648 -5.04108 -2.56693 0
M  V30 5712 H 527.205 -5.97263 -2.60998 0
M  V30 5713 N 530.638 -0.59345 -1.46 0
M  V30 5714 C 531.887 -0.0808084 -2.01538 0
M  V30 5715 C 532.2 1.29112 -1.46934 0
M  V30 5716 O 533.406 1.8957 -1.94359 0
M  V30 5717 C 531.862 -0.0938311 -3.59778 0
M  V30 5718 C 531.47 -1.46474 -4.23379 0
M  V30 5719 C 533.214 0.364306 -4.22934 0
M  V30 5720 C 531.121 -1.4349 -5.73729 0
M  V30 5721 H 530.051 -0.0264407 -0.753536 0
M  V30 5722 H 532.702 -0.746689 -1.67621 0
M  V30 5723 H 531.084 0.638427 -3.9082 0
M  V30 5724 H 532.258 -2.21758 -4.03931 0
M  V30 5725 H 530.573 -1.86379 -3.7236 0
M  V30 5726 H 533.17 0.405584 -5.3316 0
M  V30 5727 H 533.513 1.38409 -3.92618 0
M  V30 5728 H 534.046 -0.31423 -3.96557 0
M  V30 5729 H 530.785 -2.43184 -6.08722 0
M  V30 5730 H 530.305 -0.724431 -5.95409 0
M  V30 5731 H 531.984 -1.15243 -6.36654 0
M  V30 5732 N 532.116 1.54067 -0.331816 0
M  V30 5733 C 533.365 1.99895 0.269209 0
M  V30 5734 C 533.678 1.22371 1.52593 0
M  V30 5735 O 534.884 1.58618 2.20347 0
M  V30 5736 C 533.34 3.55972 0.530244 0
M  V30 5737 C 532.948 4.4234 -0.709901 0
M  V30 5738 C 534.692 4.10247 1.09077 0
M  V30 5739 C 532.599 5.89905 -0.420312 0
M  V30 5740 H 531.529 0.746741 0.104371 0
M  V30 5741 H 534.18 1.78014 -0.445324 0
M  V30 5742 H 532.562 3.73873 1.30518 0
M  V30 5743 H 533.736 4.36215 -1.48504 0
M  V30 5744 H 532.051 3.98997 -1.19123 0
M  V30 5745 H 534.648 5.18095 1.32219 0
M  V30 5746 H 534.991 3.62739 2.0427 0
M  V30 5747 H 535.524 3.96011 0.376824 0
M  V30 5748 H 532.263 6.41623 -1.34164 0
M  V30 5749 H 531.783 5.98962 0.316962 0
M  V30 5750 H 533.462 6.46991 -0.0331956 0
M  V30 5751 N 533.594 0.0601682 1.57485 0
M  V30 5752 C 534.841 -0.611594 1.93043 0
M  V30 5753 C 535.169 -1.70317 0.939274 0
M  V30 5754 O 534.424 -1.95644 -0.046996 0
M  V30 5755 C 534.723 -1.23831 3.35262 0
M  V30 5756 C 534.389 -0.274037 4.50066 0
M  V30 5757 C 533.051 -0.00872394 4.81199 0
M  V30 5758 C 535.403 0.386308 5.19766 0
M  V30 5759 C 532.731 0.924218 5.79375 0
M  V30 5760 C 535.083 1.3075 6.1894 0
M  V30 5761 C 533.747 1.58139 6.48497 0
M  V30 5762 H 533.017 -0.223798 0.706396 0
M  V30 5763 H 535.664 0.128566 1.91068 0
M  V30 5764 H 533.969 -2.05394 3.33647 0
M  V30 5765 H 535.666 -1.76517 3.60059 0
M  V30 5766 H 532.256 -0.491008 4.25778 0
M  V30 5767 H 536.44 0.194436 4.95919 0
M  V30 5768 H 531.696 1.1438 6.00606 0
M  V30 5769 H 535.87 1.82519 6.72056 0
M  V30 5770 H 533.497 2.30593 7.24383 0
M  V30 5771 N 535.072 -1.5615 -0.213296 0
M  V30 5772 C 536.32 -1.79191 -0.934612 0
M  V30 5773 C 536.641 -0.630112 -1.84539 0
M  V30 5774 O 535.911 0.35257 -1.92701 0
M  V30 5775 H 534.491 -0.660937 -0.348097 0
M  V30 5776 H 537.153 -1.93618 -0.22317 0
M  V30 5777 H 536.249 -2.71656 -1.53654 0
M  V30 5778 N 536.55 0.480323 -1.50102 0
M  V30 5779 C 537.798 1.23063 -1.60312 0
M  V30 5780 C 538.119 1.92659 -0.301226 0
M  V30 5781 O 537.389 1.83691 0.680753 0
M  V30 5782 H 535.969 0.457231 -0.590719 0
M  V30 5783 H 538.631 0.554893 -1.86834 0
M  V30 5784 H 537.727 1.9835 -2.40964 0
M  V30 5785 N 538.028 1.39524 0.732853 0
M  V30 5786 C 539.274 1.37068 1.49467 0
M  V30 5787 C 539.607 -0.0327166 1.94172 0
M  V30 5788 O 538.882 -0.998071 1.66939 0
M  V30 5789 C 539.165 2.34494 2.73285 0
M  V30 5790 C 539.018 3.83784 2.34585 0
M  V30 5791 C 540.337 2.29717 3.75391 0
M  V30 5792 H 537.456 0.499206 0.542183 0
M  V30 5793 H 540.098 1.70532 0.837783 0
M  V30 5794 H 538.248 2.06087 3.29333 0
M  V30 5795 H 539.92 4.22949 1.84151 0
M  V30 5796 H 538.163 4.00455 1.66787 0
M  V30 5797 H 538.834 4.47444 3.23262 0
M  V30 5798 H 541.31 2.54839 3.28932 0
M  V30 5799 H 540.186 2.99962 4.59689 0
M  V30 5800 H 540.447 1.30291 4.22465 0
M  V30 5801 N 539.506 -0.963266 1.24736 0
M  V30 5802 C 540.783 -1.68248 0.9976 0
M  V30 5803 C 541.163 -2.05599 -0.478776 0
M  V30 5804 O 540.511 -1.7626 -1.45412 0
M  V30 5805 C 540.721 -2.91118 1.92487 0
M  V30 5806 C 542.069 -3.63261 2.19833 0
M  V30 5807 O 543.093 -3.01184 1.90176 0
M  V30 5808 O 541.952 -4.75019 2.7022 0
M  V30 5809 H 539.046 -0.735744 0.377637 0
M  V30 5810 H 541.592 -1.01696 1.35853 0
M  V30 5811 H 540.364 -2.60242 2.92215 0
M  V30 5812 H 539.987 -3.65402 1.56738 0
M  V30 5813 N 540.985 -1.06182 -1.16461 0
M  V30 5814 C 542.231 -0.779015 -1.87241 0
M  V30 5815 C 542.564 0.692715 -1.81425 0
M  V30 5816 O 541.839 1.5074 -1.22913 0
M  V30 5817 C 542.122 -1.2728 -3.36856 0
M  V30 5818 C 541.975 -2.80821 -3.51368 0
M  V30 5819 C 543.294 -0.879799 -4.31216 0
M  V30 5820 H 540.413 -0.284464 -0.679889 0
M  V30 5821 H 543.055 -1.31755 -1.36896 0
M  V30 5822 H 541.205 -0.814673 -3.79862 0
M  V30 5823 H 542.877 -3.34833 -3.17308 0
M  V30 5824 H 541.12 -3.19606 -2.93316 0
M  V30 5825 H 541.791 -3.10435 -4.56436 0
M  V30 5826 H 544.267 -1.27436 -3.96105 0
M  V30 5827 H 543.143 -1.25278 -5.34412 0
M  V30 5828 H 543.404 0.215372 -4.41575 0
M  V30 5829 N 542.463 1.3308 -0.844243 0
M  V30 5830 C 543.874 1.7992 -0.498566 0
M  V30 5831 C 544.225 1.69808 0.982834 0
M  V30 5832 O 543.35 1.25051 1.7661 0
M  V30 5833 C 543.945 3.26677 -0.898204 0
M  V30 5834 C 542.504 3.71513 -0.604583 0
M  V30 5835 C 541.651 2.54393 -1.10362 0
M  V30 5836 H 544.602 1.20526 -1.03244 0
M  V30 5837 H 544.623 3.79918 -0.21039 0
M  V30 5838 H 544.135 3.34004 -1.97643 0
M  V30 5839 H 542.236 3.69708 0.46335 0
M  V30 5840 H 542.349 4.64755 -1.16358 0
M  V30 5841 H 540.713 2.49246 -0.524273 0
M  V30 5842 H 541.496 2.6448 -2.18873 0
M  V30 5843 N 543.941 0.601185 1.45683 0
M  V30 5844 C 544.904 -0.111398 2.28929 0
M  V30 5845 C 545.904 -0.801246 1.39416 0
M  V30 5846 O 547.094 -0.650383 1.61603 0
M  V30 5847 C 544.226 -1.16773 3.20276 0
M  V30 5848 H 545.419 0.620412 2.93413 0
M  V30 5849 H 542.972 0.359946 1.52099 0
M  V30 5850 H 543.707 -1.93051 2.60579 0
M  V30 5851 H 543.492 -0.677358 3.86205 0
M  V30 5852 H 544.982 -1.66698 3.82886 0
M  V30 5853 N 545.419 -1.53889 0.339982 0
M  V30 5854 C 546.366 -2.24902 -0.518452 0
M  V30 5855 C 547.336 -1.24593 -1.09844 0
M  V30 5856 O 548.521 -1.53317 -1.13572 0
M  V30 5857 C 545.661 -3.02262 -1.66529 0
M  V30 5858 C 544.774 -4.17418 -1.11295 0
M  V30 5859 C 543.909 -4.82273 -2.2268 0
M  V30 5860 C 542.948 -5.89503 -1.6478 0
M  V30 5861 N 542.085 -6.48153 -2.69893 0
M  V30 5862 H 546.925 -2.97853 0.0936579 0
M  V30 5863 H 544.462 -1.46986 0.0579924 0
M  V30 5864 H 546.42 -3.45371 -2.3404 0
M  V30 5865 H 545.05 -2.31614 -2.24844 0
M  V30 5866 H 544.102 -3.78976 -0.328886 0
M  V30 5867 H 545.414 -4.94554 -0.649414 0
M  V30 5868 H 544.568 -5.28435 -2.98063 0
M  V30 5869 H 543.307 -4.04552 -2.72376 0
M  V30 5870 H 542.312 -5.42728 -0.879004 0
M  V30 5871 H 543.537 -6.6913 -1.1594 0
M  V30 5872 H 541.483 -5.73298 -3.1885 0
M  V30 5873 H 541.4 -7.20752 -2.28151 0
M  V30 5874 H 542.668 -6.98968 -3.45056 0
M  V30 5875 N 546.897 -0.0685191 -1.57451 0
M  V30 5876 C 548.144 0.601348 -1.93365 0
M  V30 5877 C 548.472 1.69816 -0.948294 0
M  V30 5878 O 547.727 1.95666 0.0366199 0
M  V30 5879 C 548.026 1.22051 -3.35914 0
M  V30 5880 C 547.692 0.250165 -4.50205 0
M  V30 5881 C 546.354 -0.0167954 -4.81197 0
M  V30 5882 C 548.706 -0.413867 -5.19554 0
M  V30 5883 C 546.034 -0.95493 -5.78876 0
M  V30 5884 C 548.386 -1.3403 -6.18238 0
M  V30 5885 C 547.05 -1.61576 -6.47649 0
M  V30 5886 H 546.32 0.220049 -0.707573 0
M  V30 5887 H 548.967 -0.138697 -1.90997 0
M  V30 5888 H 547.272 2.03622 -3.34732 0
M  V30 5889 H 548.969 1.74605 -3.6099 0
M  V30 5890 H 545.559 0.468421 -4.26033 0
M  V30 5891 H 549.743 -0.220733 -4.95809 0
M  V30 5892 H 544.999 -1.17563 -5.99991 0
M  V30 5893 H 549.173 -1.86081 -6.71079 0
M  V30 5894 H 546.8 -2.34431 -7.2315 0
M  V30 5895 N 548.375 1.56261 0.205012 0
M  V30 5896 C 549.624 1.79236 0.925058 0
M  V30 5897 C 549.937 0.640011 1.84833 0
M  V30 5898 O 551.143 0.753809 2.60826 0
M  V30 5899 C 549.599 3.17475 1.69522 0
M  V30 5900 C 549.207 4.40482 0.817269 0
M  V30 5901 C 550.951 3.49766 2.4055 0
M  V30 5902 C 548.858 5.69744 1.58573 0
M  V30 5903 H 547.788 0.668287 0.349153 0
M  V30 5904 H 550.439 1.82629 0.178544 0
M  V30 5905 H 548.821 3.08304 2.48526 0
M  V30 5906 H 549.995 4.60752 0.0665988 0
M  V30 5907 H 548.31 4.15827 0.218316 0
M  V30 5908 H 550.907 4.43573 2.98575 0
M  V30 5909 H 551.25 2.73041 3.14252 0
M  V30 5910 H 551.783 3.60341 1.68522 0
M  V30 5911 H 548.522 6.49407 0.891679 0
M  V30 5912 H 548.042 5.53509 2.31059 0
M  V30 5913 H 549.721 6.1051 2.14212 0
M  V30 5914 N 549.853 -0.472356 1.50355 0
M  V30 5915 C 551.081 -1.24784 1.65035 0
M  V30 5916 C 551.496 -1.85837 0.333176 0
M  V30 5917 O 550.853 -1.69168 -0.68472 0
M  V30 5918 C 550.904 -2.35747 2.74054 0
M  V30 5919 O 550.625 -1.77197 4.00665 0
M  V30 5920 C 552.126 -3.26645 2.99696 0
M  V30 5921 H 549.346 -0.377432 0.554785 0
M  V30 5922 H 551.89 -0.563962 1.9657 0
M  V30 5923 H 550.045 -2.99912 2.45217 0
M  V30 5924 H 550.459 -2.5026 4.60945 0
M  V30 5925 H 551.933 -4.00718 3.79644 0
M  V30 5926 H 552.41 -3.8535 2.10718 0
M  V30 5927 H 553.016 -2.68218 3.3006 0
M  V30 5928 N 551.331 -1.39911 -0.725443 0
M  V30 5929 C 552.58 -1.36963 -1.48068 0
M  V30 5930 C 552.893 0.0284478 -1.95579 0
M  V30 5931 O 554.099 0.180535 -2.70899 0
M  V30 5932 C 552.555 -2.40664 -2.67598 0
M  V30 5933 C 552.163 -3.86234 -2.26997 0
M  V30 5934 C 553.907 -2.46807 -3.45379 0
M  V30 5935 C 551.814 -4.81554 -3.43307 0
M  V30 5936 H 550.744 -0.509223 -0.556065 0
M  V30 5937 H 553.395 -1.65602 -0.790454 0
M  V30 5938 H 551.777 -2.05109 -3.38742 0
M  V30 5939 H 552.951 -4.3088 -1.63337 0
M  V30 5940 H 551.266 -3.83475 -1.62284 0
M  V30 5941 H 553.863 -3.15213 -4.31909 0
M  V30 5942 H 554.206 -1.49552 -3.8851 0
M  V30 5943 H 554.739 -2.81303 -2.81271 0
M  V30 5944 H 551.478 -5.80106 -3.05217 0
M  V30 5945 H 550.998 -4.4158 -4.05915 0
M  V30 5946 H 552.677 -5.0091 -4.0951 0
M  V30 5947 N 552.809 0.956637 -1.25245 0
M  V30 5948 C 553.739 2.07058 -1.07931 0
M  V30 5949 C 554.72 1.70096 0.0110361 0
M  V30 5950 O 555.905 1.93555 -0.158121 0
M  V30 5951 C 553.035 3.40272 -0.695124 0
M  V30 5952 C 551.989 3.91235 -1.73549 0
M  V30 5953 C 551.315 5.20921 -1.20604 0
M  V30 5954 C 552.615 4.17837 -3.13385 0
M  V30 5955 H 554.309 2.218 -2.01109 0
M  V30 5956 H 551.855 1.06581 -0.968326 0
M  V30 5957 H 553.808 4.1765 -0.560949 0
M  V30 5958 H 552.532 3.25462 0.272355 0
M  V30 5959 H 551.191 3.16025 -1.85807 0
M  V30 5960 H 550.839 5.02479 -0.228846 0
M  V30 5961 H 550.539 5.55987 -1.90136 0
M  V30 5962 H 552.063 6.00897 -1.08421 0
M  V30 5963 H 553.477 4.8588 -3.04292 0
M  V30 5964 H 551.874 4.64154 -3.80369 0
M  V30 5965 H 552.944 3.2419 -3.60595 0
M  V30 5966 N 554.287 1.06798 1.15896 0
M  V30 5967 C 555.512 0.808739 1.90982 0
M  V30 5968 C 555.937 -0.6316 1.77179 0
M  V30 5969 O 555.295 -1.4407 1.10061 0
M  V30 5970 C 555.343 1.21468 3.39526 0
M  V30 5971 O 554.447 0.356562 4.10856 0
M  V30 5972 H 553.788 0.29512 0.594811 0
M  V30 5973 H 556.318 1.42513 1.46804 0
M  V30 5974 H 556.328 1.18844 3.90308 0
M  V30 5975 H 555.003 2.26379 3.48891 0
M  V30 5976 H 553.58 0.444808 3.70238 0
M  V30 5977 N 555.766 -1.3263 0.851289 0
M  V30 5978 C 556.696 -2.31449 0.308771 0
M  V30 5979 C 557.677 -1.59531 -0.590255 0
M  V30 5980 O 558.862 -1.87351 -0.511205 0
M  V30 5981 C 555.992 -3.43586 -0.506548 0
M  V30 5982 C 554.946 -4.26963 0.297753 0
M  V30 5983 C 554.272 -5.30831 -0.642094 0
M  V30 5984 C 555.572 -4.99643 1.52166 0
M  V30 5985 H 557.266 -2.77074 1.13447 0
M  V30 5986 H 554.812 -1.33207 0.546971 0
M  V30 5987 H 556.765 -4.11754 -0.896474 0
M  V30 5988 H 555.489 -2.96681 -1.36558 0
M  V30 5989 H 554.148 -3.60437 0.669391 0
M  V30 5990 H 553.796 -4.8018 -1.49788 0
M  V30 5991 H 553.496 -5.87501 -0.107968 0
M  V30 5992 H 555.02 -6.01862 -1.02927 0
M  V30 5993 H 556.434 -5.6051 1.20421 0
M  V30 5994 H 554.831 -5.66022 1.99347 0
M  V30 5995 H 555.901 -4.27701 2.28474 0
M  V30 5996 N 557.244 -0.608902 -1.45362 0
M  V30 5997 C 558.469 -0.10921 -2.07112 0
M  V30 5998 C 558.894 1.19779 -1.45033 0
M  V30 5999 O 558.252 1.72961 -0.543527 0
M  V30 6000 C 558.3 0.0155745 -3.60597 0
M  V30 6001 O 557.404 1.06546 -3.98399 0
M  V30 6002 H 556.745 -0.0746619 -0.659789 0
M  V30 6003 H 559.275 -0.839283 -1.86594 0
M  V30 6004 H 559.285 0.213364 -4.07442 0
M  V30 6005 H 557.96 -0.938765 -4.05167 0
M  V30 6006 H 556.537 0.844024 -3.63223 0
M  V30 6007 N 558.722 1.53707 -0.348139 0
M  V30 6008 C 559.952 2.05108 0.247864 0
M  V30 6009 C 560.36 1.22252 1.44399 0
M  V30 6010 O 559.703 0.251853 1.81965 0
M  V30 6011 C 559.765 3.52171 0.722187 0
M  V30 6012 C 559.429 4.5562 -0.354902 0
M  V30 6013 C 560.426 5.05883 -1.19911 0
M  V30 6014 C 558.111 4.99703 -0.510145 0
M  V30 6015 C 560.105 5.98814 -2.18406 0
M  V30 6016 C 557.792 5.92443 -1.49848 0
M  V30 6017 C 558.79 6.41887 -2.33389 0
M  V30 6018 O 558.478 7.32802 -3.3054 0
M  V30 6019 H 558.21 0.674086 0.0508296 0
M  V30 6020 H 560.764 1.99229 -0.49968 0
M  V30 6021 H 558.994 3.55529 1.52105 0
M  V30 6022 H 560.683 3.8652 1.23925 0
M  V30 6023 H 561.449 4.72586 -1.09028 0
M  V30 6024 H 557.328 4.60816 0.130274 0
M  V30 6025 H 560.872 6.3733 -2.83649 0
M  V30 6026 H 556.769 6.25155 -1.60786 0
M  V30 6027 H 557.537 7.50749 -3.26064 0
M  V30 6028 N 560.2 0.0768682 1.57412 0
M  V30 6029 C 561.13 -0.886026 2.16037 0
M  V30 6030 C 562.111 -1.30691 1.08876 0
M  V30 6031 O 563.296 -1.37705 1.36934 0
M  V30 6032 C 560.426 -2.1518 2.72608 0
M  V30 6033 C 559.38 -1.87015 3.8498 0
M  V30 6034 C 558.706 -3.20266 4.28175 0
M  V30 6035 C 560.006 -1.17143 5.08994 0
M  V30 6036 H 561.7 -0.397642 2.96748 0
M  V30 6037 H 559.246 -0.189823 1.42743 0
M  V30 6038 H 561.199 -2.82962 3.12266 0
M  V30 6039 H 559.923 -2.66269 1.89125 0
M  V30 6040 H 558.582 -1.21636 3.45833 0
M  V30 6041 H 558.23 -3.69207 3.41607 0
M  V30 6042 H 557.93 -3.0221 5.03927 0
M  V30 6043 H 559.454 -3.89237 4.70454 0
M  V30 6044 H 560.868 -1.75003 5.45937 0
M  V30 6045 H 559.265 -1.09328 5.90057 0
M  V30 6046 H 560.335 -0.151295 4.84664 0
M  V30 6047 N 561.678 -1.56367 -0.196722 0
M  V30 6048 C 562.926 -1.80172 -0.915554 0
M  V30 6049 C 563.247 -0.649649 -1.8386 0
M  V30 6050 O 562.517 0.332111 -1.93064 0
M  V30 6051 H 561.097 -0.664592 -0.341067 0
M  V30 6052 H 563.759 -1.93844 -0.202622 0
M  V30 6053 H 562.855 -2.7327 -1.50764 0
M  V30 6054 N 563.156 0.464375 -1.50603 0
M  V30 6055 C 564.572 0.798684 -1.38178 0
M  V30 6056 C 564.772 1.96568 -0.44308 0
M  V30 6057 O 563.828 2.52252 0.111814 0
M  V30 6058 C 565.141 1.10444 -2.79683 0
M  V30 6059 C 566.689 1.2105 -2.88645 0
M  V30 6060 C 567.164 1.54934 -4.30998 0
M  V30 6061 N 568.655 1.61913 -4.3398 0
M  V30 6062 C 569.39 1.8965 -5.41129 0
M  V30 6063 N 568.886 2.15361 -6.58477 0
M  V30 6064 N 570.679 1.91207 -5.28579 0
M  V30 6065 H 562.83 -0.304603 -2.10204 0
M  V30 6066 H 565.093 -0.0737804 -0.945125 0
M  V30 6067 H 564.799 0.319934 -3.50242 0
M  V30 6068 H 564.673 2.03896 -3.17342 0
M  V30 6069 H 567.06 1.98567 -2.18301 0
M  V30 6070 H 567.141 0.255613 -2.5452 0
M  V30 6071 H 566.785 0.779549 -5.01882 0
M  V30 6072 H 566.715 2.51584 -4.62615 0
M  V30 6073 H 569.206 1.44055 -3.49366 0
M  V30 6074 H 569.519 2.35818 -7.35941 0
M  V30 6075 H 567.864 2.1274 -6.6164 0
M  V30 6076 H 571.055 1.70622 -4.35897 0
M  V30 6077 H 571.228 2.12488 -6.12171 0
M  V30 6078 N 564.634 1.40294 0.718013 0
M  V30 6079 C 565.584 1.36847 1.82365 0
M  V30 6080 C 566.568 0.246424 1.59002 0
M  V30 6081 O 567.76 0.485336 1.70216 0
M  V30 6082 C 564.889 1.23105 3.20469 0
M  V30 6083 C 563.975 2.4008 3.49603 0
M  V30 6084 N 564.366 3.65562 3.49568 0
M  V30 6085 C 562.664 2.33407 3.80049 0
M  V30 6086 C 563.365 4.43015 3.76978 0
M  V30 6087 N 562.341 3.72823 3.95606 0
M  V30 6088 H 566.143 2.31811 1.80668 0
M  V30 6089 H 563.657 1.34031 0.91703 0
M  V30 6090 H 565.654 1.18718 3.9964 0
M  V30 6091 H 564.314 0.291056 3.23393 0
M  V30 6092 H 565.325 3.98756 3.30476 0
M  V30 6093 H 562.002 1.47762 3.90478 0
M  V30 6094 H 563.392 5.51859 3.83276 0
M  V30 6095 N 566.112 -0.949982 1.2575 0
M  V30 6096 C 567.34 -1.72972 1.13527 0
M  V30 6097 C 567.755 -1.8623 -0.310453 0
M  V30 6098 O 567.112 -1.36336 -1.2132 0
M  V30 6099 C 567.163 -3.14108 1.78936 0
M  V30 6100 O 566.884 -3.01493 3.17858 0
M  V30 6101 C 568.385 -4.08338 1.72554 0
M  V30 6102 H 565.605 -0.541864 0.395758 0
M  V30 6103 H 568.149 -1.19151 1.66202 0
M  V30 6104 H 566.304 -3.64858 1.30221 0
M  V30 6105 H 566.718 -3.90559 3.50092 0
M  V30 6106 H 568.192 -5.04963 2.22973 0
M  V30 6107 H 568.669 -4.33742 0.690251 0
M  V30 6108 H 569.275 -3.63506 2.2078 0
M  V30 6109 N 567.59 -1.07411 -1.15328 0
M  V30 6110 C 568.818 -0.818782 -1.90009 0
M  V30 6111 C 569.233 0.628072 -1.78047 0
M  V30 6112 O 568.59 1.43085 -1.13282 0
M  V30 6113 C 568.641 -1.21874 -3.40337 0
M  V30 6114 O 568.362 -2.60883 -3.51954 0
M  V30 6115 C 569.863 -0.992796 -4.3204 0
M  V30 6116 H 567.083 -0.296007 -0.60218 0
M  V30 6117 H 569.627 -1.43073 -1.46117 0
M  V30 6118 H 567.782 -0.651103 -3.81889 0
M  V30 6119 H 568.196 -2.77216 -4.45255 0
M  V30 6120 H 569.67 -1.32215 -5.35932 0
M  V30 6121 H 570.147 0.0708331 -4.39143 0
M  V30 6122 H 570.753 -1.54537 -3.9623 0
M  V30 6123 N 569.068 1.32177 -0.85831 0
M  V30 6124 C 570 2.27688 -0.262835 0
M  V30 6125 C 571.013 1.52588 0.567513 0
M  V30 6126 O 572.202 1.74156 0.391407 0
M  V30 6127 C 569.302 3.32668 0.646937 0
M  V30 6128 C 568.475 4.37148 -0.148372 0
M  V30 6129 C 567.534 5.21686 0.687728 0
M  V30 6130 O 566.56 5.69074 0.119934 0
M  V30 6131 N 567.762 5.44892 2.00182 0
M  V30 6132 H 570.527 2.79426 -1.08356 0
M  V30 6133 H 568.088 1.45076 -0.718647 0
M  V30 6134 H 570.08 3.86134 1.2117 0
M  V30 6135 H 568.65 2.81061 1.36834 0
M  V30 6136 H 567.87 3.83915 -0.894572 0
M  V30 6137 H 569.158 5.04038 -0.694514 0
M  V30 6138 H 568.556 5.08128 2.4864 0
M  V30 6139 H 567.113 6.0134 2.51463 0
M  V30 6140 N 570.547 0.616602 1.45037 0
M  V30 6141 C 571.51 -0.0871112 2.29034 0
M  V30 6142 C 572.51 -0.786414 1.40258 0
M  V30 6143 O 573.7 -0.633207 1.62284 0
M  V30 6144 C 570.832 -1.13369 3.21497 0
M  V30 6145 H 572.025 0.651497 2.92738 0
M  V30 6146 H 569.578 0.376058 1.51709 0
M  V30 6147 H 570.313 -1.90277 2.62612 0
M  V30 6148 H 570.098 -0.636358 3.86902 0
M  V30 6149 H 571.588 -1.62627 3.84633 0
M  V30 6150 N 572.025 -1.5352 0.356285 0
M  V30 6151 C 572.988 -2.24071 -0.482182 0
M  V30 6152 C 573.988 -1.24531 -1.01729 0
M  V30 6153 O 575.178 -1.48876 -0.904513 0
M  V30 6154 C 572.31 -2.97025 -1.67299 0
M  V30 6155 H 573.503 -2.99596 0.135031 0
M  V30 6156 H 571.056 -1.55928 0.107825 0
M  V30 6157 H 571.791 -2.25719 -2.32855 0
M  V30 6158 H 571.576 -3.7005 -1.29636 0
M  V30 6159 H 573.066 -3.50683 -2.26741 0
M  V30 6160 N 573.503 -0.0852151 -1.57369 0
M  V30 6161 C 574.466 0.8627 -2.12344 0
M  V30 6162 C 575.466 1.21746 -1.05046 0
M  V30 6163 O 576.656 1.14852 -1.30976 0
M  V30 6164 C 573.788 2.1618 -2.63589 0
M  V30 6165 H 574.981 0.385511 -2.97412 0
M  V30 6166 H 572.534 0.163663 -1.55441 0
M  V30 6167 H 573.269 2.68406 -1.82013 0
M  V30 6168 H 573.054 1.91723 -3.4203 0
M  V30 6169 H 574.544 2.84011 -3.06149 0
M  V30 6170 N 574.981 1.5647 0.188427 0
M  V30 6171 C 575.911 1.98101 1.23606 0
M  V30 6172 C 576.892 0.853961 1.47111 0
M  V30 6173 O 578.077 1.11879 1.58735 0
M  V30 6174 C 575.207 2.32624 2.57882 0
M  V30 6175 C 574.161 3.48129 2.48978 0
M  V30 6176 C 573.487 3.68347 3.87588 0
M  V30 6177 C 574.787 4.82112 2.00911 0
M  V30 6178 H 576.481 2.85864 0.890068 0
M  V30 6179 H 574.027 1.37532 0.426714 0
M  V30 6180 H 575.98 2.60343 3.3136 0
M  V30 6181 H 574.704 1.41751 2.94235 0
M  V30 6182 H 573.363 3.20511 1.77956 0
M  V30 6183 H 573.011 2.74793 4.21305 0
M  V30 6184 H 572.711 4.46055 3.82503 0
M  V30 6185 H 574.235 3.98449 4.62678 0
M  V30 6186 H 575.649 5.08819 2.64151 0
M  V30 6187 H 574.046 5.63337 2.06814 0
M  V30 6188 H 575.116 4.75249 0.96262 0
M  V30 6189 N 576.459 -0.456382 1.50847 0
M  V30 6190 C 577.389 -1.56025 1.73719 0
M  V30 6191 C 578.37 -1.5967 0.586473 0
M  V30 6192 O 579.555 -1.75702 0.827185 0
M  V30 6193 C 576.685 -2.94251 1.84483 0
M  V30 6194 C 575.639 -3.05471 2.99786 0
M  V30 6195 C 574.965 -4.45489 2.95709 0
M  V30 6196 C 576.265 -2.81318 4.40065 0
M  V30 6197 H 577.959 -1.37138 2.66146 0
M  V30 6198 H 575.505 -0.658299 1.28072 0
M  V30 6199 H 577.458 -3.71417 1.99067 0
M  V30 6200 H 576.182 -3.14328 0.886891 0
M  V30 6201 H 574.841 -2.30741 2.84876 0
M  V30 6202 H 574.489 -4.62505 1.97732 0
M  V30 6203 H 574.189 -4.53929 3.73125 0
M  V30 6204 H 575.713 -5.24655 3.12362 0
M  V30 6205 H 577.127 -3.48226 4.55425 0
M  V30 6206 H 575.524 -3.01188 5.19043 0
M  V30 6207 H 576.594 -1.7706 4.51418 0
M  V30 6208 N 577.937 -1.40673 -0.710563 0
M  V30 6209 C 578.867 -1.44095 -1.83736 0
M  V30 6210 C 579.848 -0.301286 -1.67411 0
M  V30 6211 O 581.033 -0.510618 -1.87367 0
M  V30 6212 C 578.163 -1.30773 -3.21738 0
M  V30 6213 C 577.117 -2.42395 -3.52745 0
M  V30 6214 C 576.443 -2.14147 -4.89944 0
M  V30 6215 C 577.743 -3.84738 -3.53234 0
M  V30 6216 H 579.437 -2.38396 -1.81129 0
M  V30 6217 H 576.983 -1.14746 -0.870017 0
M  V30 6218 H 578.936 -1.31783 -4.00264 0
M  V30 6219 H 577.66 -0.329507 -3.24934 0
M  V30 6220 H 576.319 -2.40643 -2.76562 0
M  V30 6221 H 575.967 -1.14703 -4.89747 0
M  V30 6222 H 575.667 -2.88934 -5.11655 0
M  V30 6223 H 577.191 -2.16848 -5.70797 0
M  V30 6224 H 578.605 -3.88286 -4.2179 0
M  V30 6225 H 577.002 -4.59085 -3.86473 0
M  V30 6226 H 578.072 -4.13962 -2.52514 0
M  V30 6227 N 579.415 0.9433 -1.26252 0
M  V30 6228 C 580.378 2.02326 -1.07689 0
M  V30 6229 C 581.378 1.60779 -0.0259174 0
M  V30 6230 O 582.568 1.72108 -0.269134 0
M  V30 6231 C 579.7 3.34886 -0.63752 0
M  V30 6232 H 580.893 2.20225 -2.0357 0
M  V30 6233 H 578.446 1.12197 -1.08819 0
M  V30 6234 H 579.181 3.22684 0.323377 0
M  V30 6235 H 578.966 3.66393 -1.39637 0
M  V30 6236 H 580.456 4.14231 -0.529418 0
M  V30 6237 N 580.893 1.08022 1.14757 0
M  V30 6238 C 582.141 0.805913 1.85336 0
M  V30 6239 C 582.462 -0.670162 1.83122 0
M  V30 6240 O 581.732 -1.48567 1.2769 0
M  V30 6241 H 580.312 0.295138 0.686223 0
M  V30 6242 H 582.974 1.36538 1.3908 0
M  V30 6243 H 582.07 1.14655 2.90277 0
M  V30 6244 N 582.371 -1.3172 0.865308 0
M  V30 6245 C 583.619 -1.96487 0.472995 0
M  V30 6246 C 583.94 -1.68761 -0.976975 0
M  V30 6247 O 583.21 -1.00051 -1.68424 0
M  V30 6248 H 581.79 -0.726947 0.171922 0
M  V30 6249 H 584.452 -1.60612 1.10407 0
M  V30 6250 H 583.548 -3.0574 0.62687 0
M  V30 6251 N 583.85 -0.624285 -1.44708 0
M  V30 6252 C 584.812 0.0749638 -2.29077 0
M  V30 6253 C 585.812 0.778965 -1.40673 0
M  V30 6254 O 587.003 0.624591 -1.62618 0
M  V30 6255 C 584.135 1.11663 -3.22094 0
M  V30 6256 H 585.327 -0.667013 -2.92388 0
M  V30 6257 H 582.88 -0.384098 -1.51507 0
M  V30 6258 H 583.615 1.88881 -2.63618 0
M  V30 6259 H 583.401 0.61583 -3.87234 0
M  V30 6260 H 584.891 1.60585 -3.8549 0
M  V30 6261 N 585.328 1.53329 -0.364422 0
M  V30 6262 C 586.577 2.00421 0.226747 0
M  V30 6263 C 586.89 1.25581 1.49963 0
M  V30 6264 O 588.096 1.63256 2.16933 0
M  V30 6265 C 586.552 3.57017 0.454618 0
M  V30 6266 C 586.16 4.40734 -0.803568 0
M  V30 6267 C 587.904 4.12468 1.00351 0
M  V30 6268 C 585.811 5.8888 -0.545345 0
M  V30 6269 H 584.741 0.748787 0.0885082 0
M  V30 6270 H 587.392 1.7703 -0.482983 0
M  V30 6271 H 585.774 3.76558 1.22558 0
M  V30 6272 H 586.948 4.32967 -1.57723 0
M  V30 6273 H 585.263 3.96381 -1.27559 0
M  V30 6274 H 587.86 5.20783 1.212 0
M  V30 6275 H 588.203 3.6699 1.9653 0
M  V30 6276 H 588.736 3.96721 0.29274 0
M  V30 6277 H 585.475 6.38633 -1.47743 0
M  V30 6278 H 584.995 5.99499 0.189842 0
M  V30 6279 H 586.674 6.46776 -0.170425 0
M  V30 6280 N 586.806 0.0935595 1.57322 0
M  V30 6281 C 587.736 -0.863062 2.16964 0
M  V30 6282 C 588.717 -1.29528 1.10256 0
M  V30 6283 O 589.902 -1.36245 1.38387 0
M  V30 6284 C 587.032 -2.12276 2.74875 0
M  V30 6285 C 585.986 -1.82921 3.86942 0
M  V30 6286 C 585.312 -3.15707 4.31548 0
M  V30 6287 C 586.612 -1.11737 5.10208 0
M  V30 6288 H 588.306 -0.366145 2.97153 0
M  V30 6289 H 585.852 -0.174673 1.42937 0
M  V30 6290 H 587.805 -2.79634 3.1525 0
M  V30 6291 H 586.529 -2.64248 1.91938 0
M  V30 6292 H 585.188 -1.17961 3.47103 0
M  V30 6293 H 584.836 -3.65563 3.45504 0
M  V30 6294 H 584.536 -2.96849 5.07104 0
M  V30 6295 H 586.06 -3.84226 4.74555 0
M  V30 6296 H 587.474 -1.69203 5.47762 0
M  V30 6297 H 585.871 -1.03064 5.91183 0
M  V30 6298 H 586.941 -0.0998818 4.84797 0
M  V30 6299 N 588.284 -1.56567 -0.180126 0
M  V30 6300 C 589.247 -1.94852 -1.20686 0
M  V30 6301 C 590.247 -0.831212 -1.3765 0
M  V30 6302 O 591.437 -1.09841 -1.35206 0
M  V30 6303 C 588.569 -2.23565 -2.57355 0
M  V30 6304 H 589.762 -2.86722 -0.879225 0
M  V30 6305 H 587.315 -1.50489 -0.422237 0
M  V30 6306 H 588.05 -1.34381 -2.95148 0
M  V30 6307 H 587.835 -3.04999 -2.46411 0
M  V30 6308 H 589.325 -2.54137 -3.31367 0
M  V30 6309 N 589.762 0.448376 -1.51087 0
M  V30 6310 C 590.692 1.55102 -1.74544 0
M  V30 6311 C 591.673 1.59357 -0.594932 0
M  V30 6312 O 592.858 1.75261 -0.836491 0
M  V30 6313 C 589.988 2.93268 -1.86041 0
M  V30 6314 C 588.942 3.03877 -3.01402 0
M  V30 6315 C 588.268 4.43914 -2.98068 0
M  V30 6316 C 589.568 2.7898 -4.41551 0
M  V30 6317 H 591.262 1.35724 -2.66869 0
M  V30 6318 H 588.808 0.651498 -1.28419 0
M  V30 6319 H 590.761 3.70356 -2.01034 0
M  V30 6320 H 589.485 3.13853 -0.903548 0
M  V30 6321 H 588.144 2.29227 -2.86096 0
M  V30 6322 H 587.792 4.6145 -2.00182 0
M  V30 6323 H 587.492 4.51944 -3.75527 0
M  V30 6324 H 589.016 5.22991 -3.1514 0
M  V30 6325 H 590.43 3.45805 -4.57265 0
M  V30 6326 H 588.827 2.98431 -5.20633 0
M  V30 6327 H 589.897 1.74663 -4.5235 0
M  V30 6328 N 591.24 1.41047 0.703093 0
M  V30 6329 C 592.468 1.4334 1.49202 0
M  V30 6330 C 592.883 0.0365596 1.88765 0
M  V30 6331 O 592.24 -0.942419 1.56284 0
M  V30 6332 C 592.291 2.33538 2.75939 0
M  V30 6333 O 592.012 3.67786 2.38045 0
M  V30 6334 C 593.513 2.44555 3.6974 0
M  V30 6335 H 590.733 0.488472 0.460039 0
M  V30 6336 H 593.277 1.85245 0.86629 0
M  V30 6337 H 591.432 1.94962 3.34766 0
M  V30 6338 H 591.846 4.15816 3.19683 0
M  V30 6339 H 593.32 3.11849 4.55471 0
M  V30 6340 H 593.797 1.47447 4.1371 0
M  V30 6341 H 594.403 2.83735 3.16819 0
M  V30 6342 N 592.718 -0.936591 1.26751 0
M  V30 6343 C 593.965 -1.68331 1.12566 0
M  V30 6344 C 594.293 -1.91677 -0.330168 0
M  V30 6345 O 593.548 -1.49859 -1.2586 0
M  V30 6346 C 593.847 -3.06099 1.84494 0
M  V30 6347 C 593.513 -3.02493 3.34378 0
M  V30 6348 C 592.175 -3.01217 3.75262 0
M  V30 6349 C 594.527 -2.94453 4.30055 0
M  V30 6350 C 591.855 -2.89672 5.10203 0
M  V30 6351 C 594.207 -2.84449 5.65041 0
M  V30 6352 C 592.871 -2.81518 6.0523 0
M  V30 6353 H 592.141 -0.615965 0.411907 0
M  V30 6354 H 594.788 -1.09292 1.5725 0
M  V30 6355 H 593.093 -3.6879 1.32292 0
M  V30 6356 H 594.79 -3.62733 1.70955 0
M  V30 6357 H 591.38 -3.04269 3.01858 0
M  V30 6358 H 595.564 -2.94544 3.99447 0
M  V30 6359 H 590.82 -2.85783 5.40498 0
M  V30 6360 H 594.994 -2.77192 6.38856 0
M  V30 6361 H 592.621 -2.72329 7.09747 0
M  V30 6362 N 594.196 -1.08629 -1.14182 0
M  V30 6363 C 595.442 -0.818556 -1.85546 0
M  V30 6364 C 595.775 0.654076 -1.82854 0
M  V30 6365 O 595.05 1.48099 -1.26083 0
M  V30 6366 C 595.333 -1.34397 -3.3408 0
M  V30 6367 C 595.186 -2.8821 -3.45333 0
M  V30 6368 C 596.505 -0.971069 -4.29253 0
M  V30 6369 H 593.624 -0.298821 -0.673702 0
M  V30 6370 H 596.266 -1.34629 -1.34071 0
M  V30 6371 H 594.416 -0.895064 -3.78049 0
M  V30 6372 H 596.088 -3.41488 -3.10134 0
M  V30 6373 H 594.331 -3.25756 -2.86471 0
M  V30 6374 H 595.002 -3.20047 -4.49749 0
M  V30 6375 H 597.478 -1.35809 -3.93313 0
M  V30 6376 H 596.354 -1.36586 -5.31635 0
M  V30 6377 H 596.615 0.121659 -4.41933 0
M  V30 6378 N 595.674 1.31259 -0.872281 0
M  V30 6379 C 597.085 1.78822 -0.536617 0
M  V30 6380 C 597.436 1.71855 0.946594 0
M  V30 6381 O 596.561 1.28769 1.73918 0
M  V30 6382 C 597.156 3.24698 -0.967294 0
M  V30 6383 C 595.715 3.70147 -0.683251 0
M  V30 6384 C 594.862 2.51994 -1.15733 0
M  V30 6385 H 597.813 1.18308 -1.05777 0
M  V30 6386 H 597.834 3.79386 -0.290929 0
M  V30 6387 H 597.346 3.29737 -2.04683 0
M  V30 6388 H 595.447 3.70607 0.384825 0
M  V30 6389 H 595.56 4.62183 -1.2619 0
M  V30 6390 H 593.924 2.48078 -0.577024 0
M  V30 6391 H 594.707 2.59778 -2.24434 0
M  V30 6392 N 597.152 0.631951 1.44375 0
M  V30 6393 C 598.082 -0.0593243 2.33425 0
M  V30 6394 C 599.063 -0.833964 1.48253 0
M  V30 6395 O 600.248 -0.799682 1.76971 0
M  V30 6396 C 597.378 -1.04096 3.31333 0
M  V30 6397 C 596.332 -0.377899 4.26328 0
M  V30 6398 C 595.658 -1.4695 5.14111 0
M  V30 6399 C 596.958 0.716371 5.17364 0
M  V30 6400 H 598.652 0.684287 2.91475 0
M  V30 6401 H 596.198 0.330518 1.40156 0
M  V30 6402 H 598.151 -1.53331 3.92514 0
M  V30 6403 H 596.875 -1.81547 2.71493 0
M  V30 6404 H 595.534 0.0938054 3.6648 0
M  V30 6405 H 595.182 -2.2349 4.50623 0
M  V30 6406 H 594.882 -1.03121 5.78481 0
M  V30 6407 H 596.406 -1.96363 5.78164 0
M  V30 6408 H 597.82 0.307089 5.72477 0
M  V30 6409 H 596.217 1.07784 5.90341 0
M  V30 6410 H 597.287 1.58316 4.58327 0
M  V30 6411 N 598.631 -1.53133 0.372548 0
M  V30 6412 C 599.908 -1.93704 -0.271693 0
M  V30 6413 C 600.288 -1.30667 -1.65799 0
M  V30 6414 O 599.636 -0.46838 -2.23648 0
M  V30 6415 C 599.846 -3.47576 -0.314903 0
M  V30 6416 C 601.194 -4.20998 -0.551912 0
M  V30 6417 O 602.218 -3.53994 -0.39582 0
M  V30 6418 O 601.077 -5.39748 -0.85639 0
M  V30 6419 H 598.171 -0.810457 -0.164586 0
M  V30 6420 H 600.717 -1.6427 0.425838 0
M  V30 6421 H 599.489 -3.85749 0.656792 0
M  V30 6422 H 599.112 -3.83264 -1.05804 0
M  V30 6423 N 600.109 -0.101901 -1.5727 0
M  V30 6424 C 601.039 0.851544 -2.17419 0
M  V30 6425 C 602.02 1.28942 -1.10941 0
M  V30 6426 O 603.205 1.35509 -1.39107 0
M  V30 6427 C 600.335 2.10816 -2.75996 0
M  V30 6428 C 599.289 1.80867 -3.87906 0
M  V30 6429 C 598.615 3.13413 -4.33216 0
M  V30 6430 C 599.915 1.0903 -5.10793 0
M  V30 6431 H 601.609 0.350381 -2.97343 0
M  V30 6432 H 599.155 0.16709 -1.43027 0
M  V30 6433 H 601.108 2.77959 -3.16729 0
M  V30 6434 H 599.832 2.63227 -1.93337 0
M  V30 6435 H 598.491 1.16119 -3.47724 0
M  V30 6436 H 598.139 3.63725 -3.47438 0
M  V30 6437 H 597.839 2.94155 -5.08671 0
M  V30 6438 H 599.363 3.81704 -4.76586 0
M  V30 6439 H 600.777 1.66295 -5.48652 0
M  V30 6440 H 599.174 0.99927 -5.91722 0
M  V30 6441 H 600.244 0.0741704 -4.84843 0
M  V30 6442 N 601.587 1.56661 0.17182 0
M  V30 6443 C 602.519 1.92934 1.2373 0
M  V30 6444 C 603.532 0.822385 1.40502 0
M  V30 6445 O 604.721 1.10083 1.40514 0
M  V30 6446 C 601.821 2.16651 2.60607 0
M  V30 6447 C 600.994 3.47878 2.6514 0
M  V30 6448 C 600.053 3.60429 3.83377 0
M  V30 6449 O 599.079 4.33051 3.69398 0
M  V30 6450 N 600.281 2.95241 4.99813 0
M  V30 6451 H 603.046 2.84931 0.929205 0
M  V30 6452 H 600.607 1.5781 0.361588 0
M  V30 6453 H 602.599 2.22312 3.38171 0
M  V30 6454 H 601.169 1.3104 2.83809 0
M  V30 6455 H 600.389 3.53879 1.73675 0
M  V30 6456 H 601.677 4.34232 2.6518 0
M  V30 6457 H 601.075 2.3611 5.14071 0
M  V30 6458 H 599.632 3.06499 5.75241 0
M  V30 6459 N 603.065 -0.440357 1.51323 0
M  V30 6460 C 604.293 -1.21255 1.67645 0
M  V30 6461 C 604.708 -1.85088 0.37252 0
M  V30 6462 O 604.065 -1.70582 -0.648683 0
M  V30 6463 C 604.116 -2.29881 2.78993 0
M  V30 6464 O 603.837 -1.68659 4.04334 0
M  V30 6465 C 605.338 -3.20214 3.06558 0
M  V30 6466 H 602.558 -0.36558 0.562666 0
M  V30 6467 H 605.102 -0.52214 1.97722 0
M  V30 6468 H 603.257 -2.94643 2.51524 0
M  V30 6469 H 603.671 -2.40426 4.6615 0
M  V30 6470 H 605.145 -3.92575 3.88058 0
M  V30 6471 H 605.622 -3.80794 2.18844 0
M  V30 6472 H 606.228 -2.61156 3.35675 0
M  V30 6473 N 604.543 -1.41418 -0.695603 0
M  V30 6474 C 605.789 -1.40982 -1.4578 0
M  V30 6475 C 606.122 -0.0187763 -1.94191 0
M  V30 6476 O 605.397 0.95346 -1.69527 0
M  V30 6477 C 605.68 -2.41657 -2.66972 0
M  V30 6478 C 605.533 -3.89869 -2.24327 0
M  V30 6479 C 606.852 -2.39589 -3.69168 0
M  V30 6480 H 603.971 -0.513405 -0.528757 0
M  V30 6481 H 606.613 -1.72693 -0.792275 0
M  V30 6482 H 604.763 -2.14746 -3.23754 0
M  V30 6483 H 606.435 -4.27683 -1.72872 0
M  V30 6484 H 604.678 -4.04737 -1.56111 0
M  V30 6485 H 605.349 -4.55857 -3.11285 0
M  V30 6486 H 607.825 -2.63471 -3.2206 0
M  V30 6487 H 606.701 -3.12044 -4.51575 0
M  V30 6488 H 606.962 -1.41447 -4.18862 0
M  V30 6489 N 606.021 0.929856 -1.27246 0
M  V30 6490 C 607.437 1.20542 -1.04603 0
M  V30 6491 C 607.637 2.00276 0.221754 0
M  V30 6492 O 606.693 2.34835 0.927833 0
M  V30 6493 C 608.006 1.95566 -2.28417 0
M  V30 6494 C 609.554 2.08513 -2.33433 0
M  V30 6495 C 610.029 2.86943 -3.5697 0
M  V30 6496 N 611.52 2.94512 -3.57515 0
M  V30 6497 C 612.255 3.55656 -4.49774 0
M  V30 6498 N 611.751 4.18209 -5.52334 0
M  V30 6499 N 613.544 3.53038 -4.37402 0
M  V30 6500 H 605.695 0.397113 -2.08655 0
M  V30 6501 H 607.958 0.238277 -0.917566 0
M  V30 6502 H 607.664 1.44395 -3.20691 0
M  V30 6503 H 607.538 2.9619 -2.33563 0
M  V30 6504 H 609.925 2.58872 -1.41666 0
M  V30 6505 H 610.006 1.07117 -2.32292 0
M  V30 6506 H 609.65 2.37268 -4.49072 0
M  V30 6507 H 609.58 3.8862 -3.55362 0
M  V30 6508 H 612.071 2.50053 -2.83341 0
M  V30 6509 H 612.384 4.62796 -6.18902 0
M  V30 6510 H 610.729 4.16761 -5.56179 0
M  V30 6511 H 613.92 3.0337 -3.56489 0
M  V30 6512 H 614.093 4.004 -5.09493 0
M  V30 6513 N 607.499 1.09233 1.13605 0
M  V30 6514 C 608.727 0.848908 1.88683 0
M  V30 6515 C 609.142 -0.599667 1.79024 0
M  V30 6516 O 608.499 -1.41265 1.15544 0
M  V30 6517 C 608.55 1.27273 3.38355 0
M  V30 6518 O 608.271 2.66449 3.47759 0
M  V30 6519 C 609.772 1.0614 4.30406 0
M  V30 6520 H 606.992 0.305549 0.597395 0
M  V30 6521 H 609.536 1.4538 1.43823 0
M  V30 6522 H 607.691 0.711776 3.80805 0
M  V30 6523 H 608.105 2.84264 4.40788 0
M  V30 6524 H 609.579 1.40725 5.33761 0
M  V30 6525 H 610.056 -0.000960332 4.392 0
M  V30 6526 H 610.662 1.60821 3.93722 0
M  V30 6527 N 608.977 -1.30795 0.87923 0
M  V30 6528 C 610.223 -1.96653 0.495519 0
M  V30 6529 C 610.556 -1.69282 -0.951703 0
M  V30 6530 O 609.831 -0.994374 -1.6716 0
M  V30 6531 C 610.114 -3.51898 0.764174 0
M  V30 6532 C 609.967 -3.88808 2.2616 0
M  V30 6533 C 611.286 -4.39462 0.236825 0
M  V30 6534 H 608.405 -0.7143 0.181507 0
M  V30 6535 H 611.047 -1.54765 1.10217 0
M  V30 6536 H 609.197 -3.87709 0.247841 0
M  V30 6537 H 610.869 -3.63051 2.8459 0
M  V30 6538 H 609.112 -3.37082 2.73053 0
M  V30 6539 H 609.783 -4.97086 2.4002 0
M  V30 6540 H 612.259 -4.10528 0.678683 0
M  V30 6541 H 611.135 -5.47018 0.454176 0
M  V30 6542 H 611.396 -4.33621 -0.861683 0
M  V30 6543 N 610.455 -0.639598 -1.44038 0
M  V30 6544 C 611.385 0.0469443 -2.33453 0
M  V30 6545 C 612.366 0.82609 -1.48694 0
M  V30 6546 O 613.551 0.790285 -1.77393 0
M  V30 6547 C 610.681 1.02338 -3.3188 0
M  V30 6548 C 609.635 0.355284 -4.26523 0
M  V30 6549 C 608.961 1.44221 -5.14883 0
M  V30 6550 C 610.261 -0.743798 -5.16977 0
M  V30 6551 H 611.955 -0.699735 -2.91108 0
M  V30 6552 H 609.501 -0.337946 -1.39978 0
M  V30 6553 H 611.454 1.51247 -3.93322 0
M  V30 6554 H 610.178 1.80105 -2.72451 0
M  V30 6555 H 608.837 -0.113239 -3.66425 0
M  V30 6556 H 608.485 2.21097 -4.51802 0
M  V30 6557 H 608.185 1.00052 -5.79019 0
M  V30 6558 H 609.709 1.93295 -5.79197 0
M  V30 6559 H 611.123 -0.337444 -5.72306 0
M  V30 6560 H 609.52 -1.10914 -5.89761 0
M  V30 6561 H 610.59 -1.60745 -4.57481 0
M  V30 6562 N 611.933 1.52934 -0.380664 0
M  V30 6563 C 612.896 2.24809 0.446473 0
M  V30 6564 C 613.896 1.26133 0.997347 0
M  V30 6565 O 615.086 1.50297 0.880714 0
M  V30 6566 C 612.218 2.99649 1.62553 0
M  V30 6567 H 613.411 2.99343 -0.182677 0
M  V30 6568 H 610.964 1.55736 -0.132618 0
M  V30 6569 H 611.699 2.29395 2.29235 0
M  V30 6570 H 611.484 3.72066 1.23732 0
M  V30 6571 H 612.974 3.54246 2.21133 0
M  V30 6572 N 613.412 0.11024 1.57214 0
M  V30 6573 C 614.658 -0.550684 1.9518 0
M  V30 6574 C 614.991 -1.66885 0.993122 0
M  V30 6575 O 614.266 -1.94479 0.0287907 0
M  V30 6576 C 614.549 -1.09163 3.43155 0
M  V30 6577 C 614.402 0.0225198 4.49794 0
M  V30 6578 C 615.721 -1.98527 3.92778 0
M  V30 6579 H 612.84 -0.198706 0.709708 0
M  V30 6580 H 615.482 0.184024 1.89107 0
M  V30 6581 H 613.632 -1.71775 3.48462 0
M  V30 6582 H 615.304 0.657443 4.56591 0
M  V30 6583 H 613.547 0.686868 4.28328 0
M  V30 6584 H 614.218 -0.39706 5.5057 0
M  V30 6585 H 616.694 -1.458 3.8972 0
M  V30 6586 H 615.57 -2.33298 4.96853 0
M  V30 6587 H 615.831 -2.90846 3.32958 0
M  V30 6588 N 614.89 -1.56749 -0.16351 0
M  V30 6589 C 616.137 -1.82434 -0.878866 0
M  V30 6590 C 616.465 -0.688557 -1.81904 0
M  V30 6591 O 615.72 0.323644 -1.93005 0
M  V30 6592 C 616.019 -3.14342 -1.70071 0
M  V30 6593 C 615.685 -4.41647 -0.908775 0
M  V30 6594 C 614.347 -4.76224 -0.690236 0
M  V30 6595 C 616.699 -5.19998 -0.353815 0
M  V30 6596 C 614.027 -5.86624 0.0942374 0
M  V30 6597 C 616.379 -6.3122 0.41761 0
M  V30 6598 C 615.043 -6.64358 0.646879 0
M  V30 6599 H 614.313 -0.667574 -0.3216 0
M  V30 6600 H 616.96 -1.90963 -0.14337 0
M  V30 6601 H 615.265 -3.0119 -2.50583 0
M  V30 6602 H 616.962 -3.31426 -2.25738 0
M  V30 6603 H 613.552 -4.1453 -1.08916 0
M  V30 6604 H 617.736 -4.93673 -0.509975 0
M  V30 6605 H 612.992 -6.10751 0.281529 0
M  V30 6606 H 617.166 -6.91133 0.854849 0
M  V30 6607 H 614.793 -7.49742 1.25662 0
M  V30 6608 N 616.368 0.432326 -1.51554 0
M  V30 6609 C 617.616 1.17901 -1.64146 0
M  V30 6610 C 617.937 1.91604 -0.362367 0
M  V30 6611 O 617.207 1.85764 0.621968 0
M  V30 6612 H 615.787 0.438206 -0.604966 0
M  V30 6613 H 618.449 0.495172 -1.88505 0
M  V30 6614 H 617.545 1.90584 -2.47152 0
M  V30 6615 N 617.846 1.41785 0.688094 0
M  V30 6616 C 618.793 1.44221 1.80191 0
M  V30 6617 C 619.763 0.295688 1.63447 0
M  V30 6618 O 620.948 0.49783 1.84191 0
M  V30 6619 C 618.088 1.33743 3.1813 0
M  V30 6620 C 617.201 2.58325 3.46254 0
M  V30 6621 C 616.336 2.40086 4.73848 0
M  V30 6622 C 615.375 3.60107 4.94964 0
M  V30 6623 N 614.512 3.40892 6.13789 0
M  V30 6624 H 619.352 2.39411 1.77444 0
M  V30 6625 H 616.889 1.18876 0.866423 0
M  V30 6626 H 618.847 1.25669 3.97823 0
M  V30 6627 H 617.477 0.42157 3.20035 0
M  V30 6628 H 616.529 2.7682 2.60912 0
M  V30 6629 H 617.841 3.4758 3.57756 0
M  V30 6630 H 616.995 2.29522 5.61609 0
M  V30 6631 H 615.734 1.483 4.64606 0
M  V30 6632 H 614.739 3.71118 4.05649 0
M  V30 6633 H 615.964 4.52857 5.06061 0
M  V30 6634 H 613.91 2.51812 6.05745 0
M  V30 6635 H 613.827 4.23727 6.26092 0
M  V30 6636 H 615.095 3.34114 7.04264 0
M  V30 6637 N 619.324 -0.923095 1.27737 0
M  V30 6638 C 620.572 -1.66797 1.14119 0
M  V30 6639 C 620.893 -1.92479 -0.312541 0
M  V30 6640 O 620.163 -1.53432 -1.218 0
M  V30 6641 H 618.743 -0.618196 0.419336 0
M  V30 6642 H 621.405 -1.10815 1.60331 0
M  V30 6643 H 620.501 -2.63424 1.67374 0
M  V30 6644 N 620.802 -1.09834 -1.13024 0
M  V30 6645 C 622.042 -0.846664 -1.8604 0
M  V30 6646 C 622.406 0.616557 -1.81831 0
M  V30 6647 O 623.607 0.984329 -2.50129 0
M  V30 6648 C 621.878 -1.37228 -3.30005 0
M  V30 6649 S 623.437 -1.25511 -4.20467 0
M  V30 6650 H 620.255 -0.30611 -0.64173 0
M  V30 6651 H 622.857 -1.40255 -1.36194 0
M  V30 6652 H 621.561 -2.43138 -3.30624 0
M  V30 6653 H 621.092 -0.81271 -3.84914 0
M  V30 6654 H 623.107 -0.208762 -4.95761 0
M  V30 6655 N 622.28 1.30327 -0.886154 0
M  V30 6656 C 623.21 2.30549 -0.370028 0
M  V30 6657 C 624.191 1.61039 0.547751 0
M  V30 6658 O 625.376 1.8864 0.461353 0
M  V30 6659 C 622.506 3.44808 0.415275 0
M  V30 6660 C 621.46 4.26024 -0.41085 0
M  V30 6661 C 620.786 5.32347 0.501128 0
M  V30 6662 C 622.086 4.95433 -1.65359 0
M  V30 6663 H 623.78 2.73969 -1.20754 0
M  V30 6664 H 621.326 1.3171 -0.582097 0
M  V30 6665 H 623.279 4.13986 0.78699 0
M  V30 6666 H 622.003 3.00197 1.28644 0
M  V30 6667 H 620.662 3.58535 -0.764719 0
M  V30 6668 H 620.31 4.83982 1.37004 0
M  V30 6669 H 620.01 5.87581 -0.0478356 0
M  V30 6670 H 621.534 6.0438 0.869333 0
M  V30 6671 H 622.948 5.5712 -1.35239 0
M  V30 6672 H 621.345 5.60537 -2.14284 0
M  V30 6673 H 622.415 4.21493 -2.39733 0
M  V30 6674 N 623.758 0.647228 1.43697 0
M  V30 6675 C 624.983 0.164083 2.0675 0
M  V30 6676 C 625.408 -1.15892 1.48158 0
M  V30 6677 O 624.766 -1.71459 0.589194 0
M  V30 6678 C 624.814 0.0800368 3.60511 0
M  V30 6679 O 623.918 -0.959453 4.01084 0
M  V30 6680 H 623.259 0.0921288 0.657578 0
M  V30 6681 H 625.789 0.88846 1.84303 0
M  V30 6682 H 625.799 -0.105263 4.07864 0
M  V30 6683 H 624.474 1.04586 4.02535 0
M  V30 6684 H 623.051 -0.747425 3.65333 0
M  V30 6685 N 625.236 -1.5273 0.388769 0
M  V30 6686 C 626.461 -2.0647 -0.19621 0
M  V30 6687 C 626.886 -1.25865 -1.39784 0
M  V30 6688 O 626.244 -0.283562 -1.79069 0
M  V30 6689 C 626.292 -3.56456 -0.5451 0
M  V30 6690 O 625.396 -3.78426 -1.63912 0
M  V30 6691 H 624.737 -0.663599 -0.023067 0
M  V30 6692 H 627.267 -1.96898 0.556084 0
M  V30 6693 H 627.277 -3.99888 -0.809557 0
M  V30 6694 H 625.952 -4.14561 0.333417 0
M  V30 6695 H 624.529 -3.46884 -1.36842 0
M  V30 6696 N 626.714 -0.118576 -1.57153 0
M  V30 6697 C 627.939 0.550582 -1.99958 0
M  V30 6698 C 628.364 1.59458 -0.997736 0
M  V30 6699 O 627.722 1.81274 0.0306269 0
M  V30 6700 C 627.77 1.15379 -3.41643 0
M  V30 6701 O 626.874 2.26932 -3.44348 0
M  V30 6702 H 626.215 0.137567 -0.649593 0
M  V30 6703 H 628.745 -0.206926 -2.03551 0
M  V30 6704 H 628.755 1.48942 -3.79843 0
M  V30 6705 H 627.43 0.389087 -4.14076 0
M  V30 6706 H 626.007 1.94812 -3.17967 0
M  V30 6707 N 628.193 1.56834 0.155195 0
M  V30 6708 C 629.44 1.82898 0.869179 0
M  V30 6709 C 629.768 0.698194 1.81537 0
M  V30 6710 O 629.023 -0.313404 1.93174 0
M  V30 6711 C 629.322 3.15239 1.68402 0
M  V30 6712 C 628.988 4.42123 0.885341 0
M  V30 6713 C 627.65 4.76583 0.664971 0
M  V30 6714 C 630.002 5.20178 0.326234 0
M  V30 6715 C 627.33 5.86566 -0.125346 0
M  V30 6716 C 629.682 6.3099 -0.45108 0
M  V30 6717 C 628.346 6.64006 -0.682102 0
M  V30 6718 H 627.616 0.66927 0.318055 0
M  V30 6719 H 630.263 1.91036 0.133241 0
M  V30 6720 H 628.568 3.02515 2.48982 0
M  V30 6721 H 630.265 3.32618 2.23978 0
M  V30 6722 H 626.855 4.15102 1.06716 0
M  V30 6723 H 631.039 4.93936 0.483787 0
M  V30 6724 H 626.295 6.10594 -0.313915 0
M  V30 6725 H 630.469 6.9067 -0.89149 0
M  V30 6726 H 628.096 7.49065 -1.29636 0
M  V30 6727 N 629.671 -0.424282 1.51781 0
M  V30 6728 C 630.896 -1.19928 1.6921 0
M  V30 6729 C 631.321 -1.8392 0.394355 0
M  V30 6730 O 630.679 -1.69371 -0.646778 0
M  V30 6731 C 630.727 -2.24937 2.81843 0
M  V30 6732 O 629.831 -3.3073 2.46356 0
M  V30 6733 H 629.172 -0.35078 0.563781 0
M  V30 6734 H 631.702 -0.499401 1.98412 0
M  V30 6735 H 631.712 -2.69512 3.06312 0
M  V30 6736 H 630.387 -1.77742 3.76006 0
M  V30 6737 H 628.964 -2.9154 2.32505 0
M  V30 6738 N 631.149 -1.42148 -0.680565 0
M  V30 6739 C 632.389 -1.4379 -1.45271 0
M  V30 6740 C 632.753 -0.0504426 -1.91934 0
M  V30 6741 O 633.954 0.0583916 -2.68737 0
M  V30 6742 C 632.225 -2.42904 -2.62168 0
M  V30 6743 S 633.784 -2.63201 -3.51099 0
M  V30 6744 H 630.602 -0.509185 -0.496237 0
M  V30 6745 H 633.204 -1.78706 -0.792744 0
M  V30 6746 H 631.908 -3.4249 -2.26116 0
M  V30 6747 H 631.439 -2.09394 -3.33043 0
M  V30 6748 H 633.454 -1.91068 -4.57938 0
M  V30 6749 N 632.627 0.916307 -1.28225 0
M  V30 6750 C 633.557 2.0352 -1.14464 0
M  V30 6751 C 634.538 1.70045 -0.0430844 0
M  V30 6752 O 635.723 1.92954 -0.219619 0
M  V30 6753 C 632.853 3.37889 -0.803027 0
M  V30 6754 C 631.807 3.85516 -1.85908 0
M  V30 6755 C 631.133 5.1682 -1.37116 0
M  V30 6756 C 632.433 4.07655 -3.26519 0
M  V30 6757 H 634.127 2.1529 -2.08064 0
M  V30 6758 H 631.673 1.03446 -1.00174 0
M  V30 6759 H 633.626 4.15654 -0.693537 0
M  V30 6760 H 632.35 3.26164 0.168674 0
M  V30 6761 H 631.009 3.09953 -1.95767 0
M  V30 6762 H 630.657 5.01497 -0.38859 0
M  V30 6763 H 630.357 5.49657 -2.07728 0
M  V30 6764 H 631.881 5.97143 -1.27484 0
M  V30 6765 H 633.295 4.75953 -3.19596 0
M  V30 6766 H 631.692 4.51818 -3.94943 0
M  V30 6767 H 632.762 3.12553 -3.70727 0
M  V30 6768 N 634.105 1.10431 1.1244 0
M  V30 6769 C 635.352 0.846717 1.83948 0
M  V30 6770 C 635.68 -0.627709 1.84093 0
M  V30 6771 O 634.935 -1.47876 1.28184 0
M  V30 6772 C 635.234 1.34022 3.3132 0
M  V30 6773 C 634.9 2.82606 3.51347 0
M  V30 6774 C 633.562 3.23182 3.56521 0
M  V30 6775 C 635.914 3.78356 3.58464 0
M  V30 6776 C 633.242 4.58258 3.66356 0
M  V30 6777 C 635.594 5.13234 3.69829 0
M  V30 6778 C 634.258 5.53384 3.73259 0
M  V30 6779 H 633.528 0.309836 0.673114 0
M  V30 6780 H 636.175 1.38091 1.32677 0
M  V30 6781 H 634.48 0.726047 3.85014 0
M  V30 6782 H 636.177 1.11739 3.85118 0
M  V30 6783 H 632.767 2.50212 3.47983 0
M  V30 6784 H 636.951 3.48115 3.53737 0
M  V30 6785 H 632.207 4.88787 3.67284 0
M  V30 6786 H 636.381 5.87272 3.74279 0
M  V30 6787 H 634.008 6.58045 3.80633 0
M  V30 6788 N 635.583 -1.29855 0.893053 0
M  V30 6789 C 636.513 -2.3035 0.382249 0
M  V30 6790 C 637.494 -1.61328 -0.539203 0
M  V30 6791 O 638.679 -1.88882 -0.451342 0
M  V30 6792 C 635.809 -3.45024 -0.396983 0
M  V30 6793 C 634.763 -4.258 0.433437 0
M  V30 6794 C 634.089 -5.32605 -0.472889 0
M  V30 6795 C 635.389 -4.94549 1.67984 0
M  V30 6796 H 637.083 -2.73325 1.22205 0
M  V30 6797 H 634.629 -1.314 0.589073 0
M  V30 6798 H 636.582 -4.14398 -0.765024 0
M  V30 6799 H 635.306 -3.00875 -1.2705 0
M  V30 6800 H 633.965 -3.58125 0.783723 0
M  V30 6801 H 633.613 -4.84702 -1.34435 0
M  V30 6802 H 633.313 -5.87547 0.0789958 0
M  V30 6803 H 634.837 -6.04832 -0.837269 0
M  V30 6804 H 636.251 -5.56395 1.38192 0
M  V30 6805 H 634.648 -5.59393 2.17254 0
M  V30 6806 H 635.718 -4.20215 2.41965 0
M  V30 6807 N 637.061 -0.65484 -1.43351 0
M  V30 6808 C 638.291 -0.176429 -2.05845 0
M  V30 6809 C 638.699 1.16375 -1.49176 0
M  V30 6810 O 638.042 1.72981 -0.618322 0
M  V30 6811 C 638.104 -0.0125844 -3.59498 0
M  V30 6812 C 637.768 -1.27831 -4.38758 0
M  V30 6813 C 638.765 -2.2074 -4.70712 0
M  V30 6814 C 636.45 -1.52035 -4.78739 0
M  V30 6815 C 638.444 -3.36145 -5.41558 0
M  V30 6816 C 636.131 -2.67732 -5.49329 0
M  V30 6817 C 637.129 -3.59612 -5.80662 0
M  V30 6818 O 636.817 -4.73289 -6.4981 0
M  V30 6819 H 636.549 -0.0879682 -0.670252 0
M  V30 6820 H 639.103 -0.896193 -1.84818 0
M  V30 6821 H 637.333 0.762567 -3.79107 0
M  V30 6822 H 639.022 0.423392 -4.03686 0
M  V30 6823 H 639.788 -2.03284 -4.40341 0
M  V30 6824 H 635.667 -0.813987 -4.53757 0
M  V30 6825 H 639.211 -4.07881 -5.65932 0
M  V30 6826 H 635.108 -2.85122 -5.79116 0
M  V30 6827 H 635.876 -4.72575 -6.68293 0
M  V30 6828 N 638.539 1.52521 -0.396863 0
M  V30 6829 C 639.767 2.06091 0.18275 0
M  V30 6830 C 640.182 1.26796 1.39886 0
M  V30 6831 O 639.539 0.316585 1.79733 0
M  V30 6832 C 639.59 3.57362 0.545377 0
M  V30 6833 O 639.311 4.33656 -0.622428 0
M  V30 6834 C 640.812 4.27305 1.18004 0
M  V30 6835 H 638.032 0.670504 0.025789 0
M  V30 6836 H 640.576 1.96561 -0.564276 0
M  V30 6837 H 638.731 3.66941 1.2423 0
M  V30 6838 H 639.145 5.23507 -0.322662 0
M  V30 6839 H 640.619 5.34366 1.38408 0
M  V30 6840 H 641.096 3.83 2.1496 0
M  V30 6841 H 641.702 4.22064 0.523671 0
M  V30 6842 N 640.017 0.126909 1.57088 0
M  V30 6843 C 641.242 -0.53997 2.00248 0
M  V30 6844 C 641.667 -1.58927 1.00618 0
M  V30 6845 O 641.025 -1.81288 -0.0210131 0
M  V30 6846 C 641.073 -1.13565 3.4225 0
M  V30 6847 O 640.177 -2.25103 3.45547 0
M  V30 6848 H 639.518 -0.13412 0.650314 0
M  V30 6849 H 642.048 0.217718 2.03438 0
M  V30 6850 H 642.058 -1.46925 3.80627 0
M  V30 6851 H 640.733 -0.367122 4.14277 0
M  V30 6852 H 639.31 -1.93123 3.18995 0
M  V30 6853 N 641.495 -1.56914 -0.146875 0
M  V30 6854 C 642.405 -2.0154 -1.20079 0
M  V30 6855 C 643.421 -0.930838 -1.47008 0
M  V30 6856 O 644.597 -1.24032 -1.58676 0
M  V30 6857 C 641.662 -2.38715 -2.51428 0
M  V30 6858 C 640.723 -3.6112 -2.32145 0
M  V30 6859 C 639.956 -3.96512 -3.57231 0
M  V30 6860 O 640.179 -3.32566 -4.63418 0
M  V30 6861 O 639.113 -4.89758 -3.49887 0
M  V30 6862 H 642.939 -2.91506 -0.851924 0
M  V30 6863 H 640.524 -1.45106 -0.355607 0
M  V30 6864 H 642.406 -2.63485 -3.28867 0
M  V30 6865 H 641.081 -1.51903 -2.85845 0
M  V30 6866 H 639.988 -3.41536 -1.52656 0
M  V30 6867 H 641.321 -4.48549 -2.02644 0
M  V30 6868 N 642.974 0.416227 -1.52004 0
M  V30 6869 C 643.904 1.51365 -1.77795 0
M  V30 6870 C 644.885 1.58059 -0.628601 0
M  V30 6871 O 646.07 1.73447 -0.873478 0
M  V30 6872 C 643.2 2.89256 -1.92219 0
M  V30 6873 C 642.154 2.97415 -3.0778 0
M  V30 6874 C 641.48 4.37492 -3.07417 0
M  V30 6875 C 642.78 2.69551 -4.47369 0
M  V30 6876 H 644.474 1.30033 -2.69688 0
M  V30 6877 H 642.02 0.624112 -1.29772 0
M  V30 6878 H 643.973 3.66008 -2.08845 0
M  V30 6879 H 642.697 3.11866 -0.969917 0
M  V30 6880 H 641.356 2.23107 -2.90893 0
M  V30 6881 H 641.004 4.571 -2.09925 0
M  V30 6882 H 640.704 4.43877 -3.85029 0
M  V30 6883 H 642.228 5.16188 -3.26162 0
M  V30 6884 H 643.642 3.36028 -4.64497 0
M  V30 6885 H 642.039 2.87321 -5.26846 0
M  V30 6886 H 643.109 1.65029 -4.55953 0
M  V30 6887 N 644.452 1.42507 0.673017 0
M  V30 6888 C 645.682 1.46261 1.45916 0
M  V30 6889 C 646.09 0.0729724 1.89059 0
M  V30 6890 O 645.433 -0.922987 1.58829 0
M  V30 6891 C 645.495 2.32853 2.73898 0
M  V30 6892 C 645.159 3.80699 2.52819 0
M  V30 6893 C 646.156 4.72307 2.17306 0
M  V30 6894 C 643.841 4.24983 2.67758 0
M  V30 6895 C 645.835 6.06192 1.97003 0
M  V30 6896 C 643.522 5.58927 2.4707 0
M  V30 6897 C 644.52 6.49348 2.11746 0
M  V30 6898 O 644.208 7.80817 1.91259 0
M  V30 6899 H 643.94 0.499561 0.455428 0
M  V30 6900 H 646.494 1.87697 0.834196 0
M  V30 6901 H 644.724 1.86268 3.38882 0
M  V30 6902 H 646.413 2.28041 3.35786 0
M  V30 6903 H 647.179 4.39378 2.05359 0
M  V30 6904 H 643.058 3.54893 2.94231 0
M  V30 6905 H 646.602 6.76731 1.69355 0
M  V30 6906 H 642.499 5.91429 2.58615 0
M  V30 6907 H 643.267 7.92194 2.05843 0
M  V30 6908 N 645.93 -0.909495 1.28709 0
M  V30 6909 C 647.341 -1.47419 1.14563 0
M  V30 6910 C 647.692 -1.94432 -0.262832 0
M  V30 6911 O 646.817 -1.82842 -1.15748 0
M  V30 6912 C 647.412 -2.67933 2.07358 0
M  V30 6913 C 645.971 -3.20568 1.97264 0
M  V30 6914 C 645.118 -1.93269 1.98852 0
M  V30 6915 H 648.069 -0.721787 1.41336 0
M  V30 6916 H 648.09 -3.43339 1.64007 0
M  V30 6917 H 647.602 -2.33685 3.09859 0
M  V30 6918 H 645.703 -3.59531 0.978157 0
M  V30 6919 H 645.816 -3.85529 2.84436 0
M  V30 6920 H 644.18 -2.10553 1.43317 0
M  V30 6921 H 644.963 -1.61312 3.0304 0
M  V30 6922 N 647.408 -1.11026 -1.11852 0
M  V30 6923 C 648.636 -0.878818 -1.87308 0
M  V30 6924 C 649.051 0.57111 -1.79955 0
M  V30 6925 O 648.408 1.39409 -1.17777 0
M  V30 6926 C 648.459 -1.3264 -3.36287 0
M  V30 6927 O 648.18 -2.71948 -3.43476 0
M  V30 6928 C 649.681 -1.12974 -4.28663 0
M  V30 6929 H 646.901 -0.315015 -0.592458 0
M  V30 6930 H 649.445 -1.47649 -1.41492 0
M  V30 6931 H 647.6 -0.772269 -3.79625 0
M  V30 6932 H 648.014 -2.91241 -4.3621 0
M  V30 6933 H 649.488 -1.49198 -5.31454 0
M  V30 6934 H 649.965 -0.0689127 -4.39146 0
M  V30 6935 H 650.571 -1.67064 -3.91113 0
M  V30 6936 N 648.886 1.2938 -0.899927 0
M  V30 6937 C 650.132 1.9584 -0.526742 0
M  V30 6938 C 650.465 1.70774 0.924651 0
M  V30 6939 O 649.74 1.02084 1.65557 0
M  V30 6940 C 650.023 3.50638 -0.820062 0
M  V30 6941 C 649.876 3.85161 -2.32317 0
M  V30 6942 C 651.195 4.3903 -0.30671 0
M  V30 6943 H 648.314 0.711322 -0.192848 0
M  V30 6944 H 650.956 1.52992 -1.12665 0
M  V30 6945 H 649.106 3.87265 -0.309491 0
M  V30 6946 H 650.778 3.58477 -2.9033 0
M  V30 6947 H 649.021 3.32696 -2.78381 0
M  V30 6948 H 649.692 4.93204 -2.47898 0
M  V30 6949 H 652.168 4.09396 -0.743908 0
M  V30 6950 H 651.044 5.46226 -0.541144 0
M  V30 6951 H 651.305 4.34937 0.792588 0
M  V30 6952 N 650.364 0.662433 1.43002 0
M  V30 6953 C 651.613 0.176873 2.00923 0
M  V30 6954 C 651.926 -1.21954 1.52927 0
M  V30 6955 O 653.132 -1.80081 2.03182 0
M  V30 6956 C 651.588 0.265379 3.5892 0
M  V30 6957 C 651.196 1.66507 4.15908 0
M  V30 6958 C 652.94 -0.162103 4.2419 0
M  V30 6959 C 650.847 1.707 5.66229 0
M  V30 6960 H 649.777 0.0623627 0.751417 0
M  V30 6961 H 652.428 0.825813 1.63868 0
M  V30 6962 H 650.81 -0.451235 3.93421 0
M  V30 6963 H 651.984 2.40777 3.92891 0
M  V30 6964 H 650.299 2.03932 3.63044 0
M  V30 6965 H 652.896 -0.150745 5.34487 0
M  V30 6966 H 653.239 -1.19519 3.98774 0
M  V30 6967 H 653.772 0.503075 3.94606 0
M  V30 6968 H 650.511 2.7195 5.96426 0
M  V30 6969 H 650.031 1.00768 5.91275 0
M  V30 6970 H 651.71 1.45487 6.3043 0
M  V30 6971 N 651.842 -1.52309 0.404946 0
M  V30 6972 C 653.258 -1.59503 0.0556255 0
M  V30 6973 C 653.458 -1.41805 -1.43156 0
M  V30 6974 O 652.514 -1.2429 -2.19792 0
M  V30 6975 C 653.827 -2.95687 0.546801 0
M  V30 6976 C 655.375 -3.08909 0.504413 0
M  V30 6977 C 655.85 -4.47566 0.97203 0
M  V30 6978 N 657.341 -4.53795 0.928679 0
M  V30 6979 C 658.076 -5.59346 1.26174 0
M  V30 6980 N 657.572 -6.72469 1.66604 0
M  V30 6981 N 659.365 -5.49532 1.18198 0
M  V30 6982 H 651.516 -1.6206 1.37296 0
M  V30 6983 H 653.779 -0.762161 0.563751 0
M  V30 6984 H 653.485 -3.13905 1.58609 0
M  V30 6985 H 653.359 -3.77172 -0.0457905 0
M  V30 6986 H 655.746 -2.90378 -0.525819 0
M  V30 6987 H 655.827 -2.2934 1.13301 0
M  V30 6988 H 655.471 -4.6684 2.00057 0
M  V30 6989 H 655.401 -5.25625 0.320292 0
M  V30 6990 H 657.892 -3.72588 0.631369 0
M  V30 6991 H 658.205 -7.48993 1.9034 0
M  V30 6992 H 656.55 -6.73761 1.70504 0
M  V30 6993 H 659.741 -4.60038 0.865011 0
M  V30 6994 H 659.914 -6.31687 1.44485 0
M  V30 6995 N 653.32 -0.135238 -1.57019 0
M  V30 6996 C 654.252 0.839675 -2.13265 0
M  V30 6997 C 655.265 1.21887 -1.07923 0
M  V30 6998 O 656.454 1.16499 -1.35241 0
M  V30 6999 C 653.554 2.13647 -2.63075 0
M  V30 7000 C 652.727 1.92646 -3.92691 0
M  V30 7001 C 651.786 3.06205 -4.27931 0
M  V30 7002 O 650.812 2.78409 -4.96465 0
M  V30 7003 N 652.014 4.33072 -3.86561 0
M  V30 7004 H 654.779 0.359026 -2.97542 0
M  V30 7005 H 652.34 0.0486979 -1.61827 0
M  V30 7006 H 654.332 2.88641 -2.8367 0
M  V30 7007 H 652.902 2.5301 -1.83588 0
M  V30 7008 H 652.122 1.01754 -3.80841 0
M  V30 7009 H 653.41 1.75939 -4.77413 0
M  V30 7010 H 652.808 4.58526 -3.31316 0
M  V30 7011 H 651.365 5.04885 -4.12231 0
M  V30 7012 N 654.798 1.5699 0.138552 0
M  V30 7013 C 656.026 1.87976 0.864437 0
M  V30 7014 C 656.441 0.724372 1.74351 0
M  V30 7015 O 655.798 -0.305575 1.79924 0
M  V30 7016 C 655.849 3.18276 1.71414 0
M  V30 7017 O 655.57 4.29365 0.870487 0
M  V30 7018 C 657.071 3.62834 2.54688 0
M  V30 7019 H 654.291 0.622878 0.249528 0
M  V30 7020 H 656.835 2.04094 0.128805 0
M  V30 7021 H 654.99 3.03886 2.40274 0
M  V30 7022 H 655.404 5.03924 1.45466 0
M  V30 7023 H 656.878 4.5682 3.0987 0
M  V30 7024 H 657.355 2.88533 3.31127 0
M  V30 7025 H 657.961 3.79946 1.91105 0
M  V30 7026 N 656.276 -0.40816 1.52223 0
M  V30 7027 C 657.524 -1.15274 1.66001 0
M  V30 7028 C 657.845 -1.91003 0.392803 0
M  V30 7029 O 657.115 -1.8673 -0.592336 0
M  V30 7030 H 655.695 -0.428526 0.611861 0
M  V30 7031 H 658.357 -0.46512 1.89269 0
M  V30 7032 H 657.453 -1.86628 2.50153 0
M  V30 7033 N 657.755 -1.42862 -0.66545 0
M  V30 7034 C 658.688 -1.41509 -1.79026 0
M  V30 7035 C 659.666 -0.278106 -1.60204 0
M  V30 7036 O 660.85 -0.469792 -1.82552 0
M  V30 7037 C 657.977 -1.21494 -3.1616 0
M  V30 7038 C 657.023 -2.38308 -3.53711 0
M  V30 7039 S 657.856 -4.00852 -3.55075 0
M  V30 7040 C 659.012 -3.83197 -4.94885 0
M  V30 7041 H 659.245 -2.36691 -1.79902 0
M  V30 7042 H 656.778 -1.29746 -0.836977 0
M  V30 7043 H 658.736 -1.10633 -3.95311 0
M  V30 7044 H 657.397 -0.27881 -3.1286 0
M  V30 7045 H 656.59 -2.20076 -4.53412 0
M  V30 7046 H 656.192 -2.45732 -2.81943 0
M  V30 7047 H 658.484 -3.44765 -5.83218 0
M  V30 7048 H 659.427 -4.82607 -5.18166 0
M  V30 7049 H 659.835 -3.15884 -4.67843 0
M  V30 7050 N 659.233 0.902656 -1.29189 0
M  V30 7051 C 660.481 1.6496 -1.16758 0
M  V30 7052 C 660.802 1.92952 0.28188 0
M  V30 7053 O 660.072 1.55351 1.19344 0
M  V30 7054 H 658.652 0.611447 -0.429118 0
M  V30 7055 H 661.314 1.0825 -1.62074 0
M  V30 7056 H 660.41 2.60728 -1.71544 0
M  V30 7057 N 660.711 1.11618 1.11262 0
M  V30 7058 C 661.957 0.867463 1.83311 0
M  V30 7059 C 662.29 -0.605366 1.84524 0
M  V30 7060 O 661.565 -1.44704 1.29965 0
M  V30 7061 C 661.848 1.43207 3.30399 0
M  V30 7062 C 661.701 2.97265 3.3757 0
M  V30 7063 C 663.02 1.08454 4.26528 0
M  V30 7064 H 660.139 0.316578 0.665543 0
M  V30 7065 H 662.781 1.38137 1.30454 0
M  V30 7066 H 660.931 0.994982 3.75543 0
M  V30 7067 H 662.603 3.49591 3.00971 0
M  V30 7068 H 660.846 3.33237 2.77733 0
M  V30 7069 H 661.517 3.31859 4.41105 0
M  V30 7070 H 663.993 1.4619 3.89574 0
M  V30 7071 H 662.869 1.50633 5.27826 0
M  V30 7072 H 663.13 -0.00444568 4.421 0
M  V30 7073 N 662.189 -1.289 0.906776 0
M  V30 7074 C 663.414 -1.99939 0.551303 0
M  V30 7075 C 663.839 -1.67366 -0.858496 0
M  V30 7076 O 663.197 -0.902176 -1.57259 0
M  V30 7077 C 663.245 -3.52523 0.758937 0
M  V30 7078 O 662.349 -4.11983 -0.185308 0
M  V30 7079 H 661.69 -0.628376 0.214568 0
M  V30 7080 H 664.22 -1.64225 1.2203 0
M  V30 7081 H 664.23 -4.02522 0.666329 0
M  V30 7082 H 662.905 -3.75566 1.78671 0
M  V30 7083 H 661.482 -3.72873 -0.0445577 0
M  V30 7084 N 663.667 -0.670007 -1.42649 0
M  V30 7085 C 664.615 0.0230106 -2.32589 0
M  V30 7086 C 665.609 0.795585 -1.49555 0
M  V30 7087 O 666.815 0.70409 -1.65658 0
M  V30 7088 H 663.19 0.0262342 -0.751542 0
M  V30 7089 H 665.161 -0.753009 -2.88743 0
M  V30 7090 C 663.91 0.963872 -3.34073 0
M  V30 7091 H 663.233 0.378813 -3.98001 0
M  V30 7092 H 664.673 1.41755 -3.99602 0
M  V30 7093 C 663.132 2.06797 -2.65964 0
M  V30 7094 O 663.662 3.15383 -2.48789 0
M  V30 7095 N 661.868 1.83831 -2.25066 0
M  V30 7096 H 661.415 0.955235 -2.39234 0
M  V30 7097 H 661.373 2.57895 -1.79827 0
M  V30 7098 N 665.145 1.52092 -0.413018 0
M  V30 7099 C 666.075 2.30021 0.401567 0
M  V30 7100 C 667.056 1.34395 1.04269 0
M  V30 7101 O 668.241 1.63304 1.05097 0
M  V30 7102 C 665.371 3.12447 1.51638 0
M  V30 7103 C 664.325 4.16153 1.00005 0
M  V30 7104 C 663.651 4.86948 2.20875 0
M  V30 7105 C 664.951 5.22275 0.0513757 0
M  V30 7106 H 666.645 2.98365 -0.248704 0
M  V30 7107 H 664.191 1.4349 -0.121052 0
M  V30 7108 H 666.144 3.65733 2.09326 0
M  V30 7109 H 664.868 2.41879 2.19458 0
M  V30 7110 H 663.527 3.63882 0.445549 0
M  V30 7111 H 663.175 4.12905 2.8726 0
M  V30 7112 H 662.875 5.57057 1.86978 0
M  V30 7113 H 664.399 5.43048 2.79162 0
M  V30 7114 H 665.813 5.70778 0.537176 0
M  V30 7115 H 664.21 5.9977 -0.198977 0
M  V30 7116 H 665.28 4.76611 -0.892736 0
M  V30 7117 N 666.623 0.143563 1.56945 0
M  V30 7118 C 667.869 -0.502787 1.97088 0
M  V30 7119 C 668.224 -1.62703 1.02691 0
M  V30 7120 O 667.517 -1.91502 0.0613323 0
M  V30 7121 C 667.711 -1.05885 3.41355 0
M  V30 7122 C 667.54 0.00998209 4.49699 0
M  V30 7123 C 666.31 0.450229 5.0329 0
M  V30 7124 C 668.508 0.800174 5.08037 0
M  V30 7125 N 666.49 1.50227 5.95235 0
M  V30 7126 C 667.861 1.70279 5.96158 0
M  V30 7127 C 669.916 0.848344 4.9062 0
M  V30 7128 C 668.619 2.64945 6.68728 0
M  V30 7129 C 670.645 1.78281 5.63888 0
M  V30 7130 C 670.007 2.67296 6.51715 0
M  V30 7131 H 666.106 -0.152891 0.766908 0
M  V30 7132 H 668.69 0.23737 1.93248 0
M  V30 7133 H 666.861 -1.76863 3.45795 0
M  V30 7134 H 668.593 -1.67154 3.68567 0
M  V30 7135 H 665.348 0.0531355 4.7357 0
M  V30 7136 H 665.772 2.02795 6.45913 0
M  V30 7137 H 670.414 0.174228 4.22441 0
M  V30 7138 H 668.132 3.33358 7.36137 0
M  V30 7139 H 671.718 1.82584 5.52408 0
M  V30 7140 H 670.598 3.38428 7.07415 0
M  V30 7141 N 668.101 -1.57061 -0.130224 0
M  V30 7142 C 669.329 -1.88432 -0.854456 0
M  V30 7143 C 669.744 -0.733608 -1.73964 0
M  V30 7144 O 669.101 0.296029 -1.80083 0
M  V30 7145 C 669.152 -3.1918 -1.69724 0
M  V30 7146 O 668.873 -4.2982 -0.847705 0
M  V30 7147 C 670.374 -3.6418 -2.5276 0
M  V30 7148 H 667.594 -0.624193 -0.246221 0
M  V30 7149 H 670.138 -2.04159 -0.11798 0
M  V30 7150 H 668.293 -3.05156 -2.3866 0
M  V30 7151 H 668.707 -5.04689 -1.42792 0
M  V30 7152 H 670.181 -4.58457 -3.07443 0
M  V30 7153 H 670.658 -2.90285 -3.29592 0
M  V30 7154 H 671.264 -3.80954 -1.89087 0
M  V30 7155 N 669.579 0.400081 -1.52437 0
M  V30 7156 C 670.995 0.739359 -1.41441 0
M  V30 7157 C 671.195 1.94512 -0.526053 0
M  V30 7158 O 670.251 2.525 0.00472502 0
M  V30 7159 C 671.564 0.984824 -2.84116 0
M  V30 7160 C 673.112 1.08698 -2.93519 0
M  V30 7161 C 673.587 1.36515 -4.37181 0
M  V30 7162 N 675.078 1.43361 -4.40457 0
M  V30 7163 C 675.813 1.66528 -5.48686 0
M  V30 7164 N 675.309 1.87239 -6.67018 0
M  V30 7165 N 677.102 1.68617 -5.36213 0
M  V30 7166 H 669.253 -0.393484 -2.08723 0
M  V30 7167 H 671.516 -0.1138 -0.941145 0
M  V30 7168 H 671.222 0.171096 -3.51284 0
M  V30 7169 H 671.096 1.90253 -3.25705 0
M  V30 7170 H 673.483 1.89129 -2.26526 0
M  V30 7171 H 673.564 0.147432 -2.55375 0
M  V30 7172 H 673.208 0.565982 -5.04737 0
M  V30 7173 H 673.138 2.31737 -4.7287 0
M  V30 7174 H 675.629 1.29108 -3.55161 0
M  V30 7175 H 675.942 2.04392 -7.45281 0
M  V30 7176 H 674.287 1.84486 -6.70067 0
M  V30 7177 H 677.478 1.5198 -4.42741 0
M  V30 7178 H 677.651 1.86332 -6.20632 0
M  V30 7179 N 671.057 1.43213 0.657864 0
M  V30 7180 C 672.303 1.44798 1.41991 0
M  V30 7181 C 672.636 0.070256 1.94073 0
M  V30 7182 O 671.911 -0.908177 1.71995 0
M  V30 7183 C 672.194 2.4865 2.60471 0
M  V30 7184 C 672.047 3.95679 2.13911 0
M  V30 7185 C 673.366 2.49292 3.62686 0
M  V30 7186 H 670.485 0.527244 0.514959 0
M  V30 7187 H 673.127 1.74733 0.74621 0
M  V30 7188 H 671.277 2.23254 3.17946 0
M  V30 7189 H 672.949 4.32116 1.61472 0
M  V30 7190 H 671.192 4.08733 1.45325 0
M  V30 7191 H 671.863 4.6395 2.99089 0
M  V30 7192 H 674.339 2.71917 3.14961 0
M  V30 7193 H 673.215 3.23907 4.43143 0
M  V30 7194 H 673.476 1.52502 4.14964 0
M  V30 7195 N 672.536 -0.895792 1.29666 0
M  V30 7196 C 673.784 -1.64339 1.17631 0
M  V30 7197 C 674.105 -1.93099 -0.271643 0
M  V30 7198 O 673.375 -1.55981 -1.18518 0
M  V30 7199 H 671.955 -0.609162 0.432354 0
M  V30 7200 H 674.617 -1.07389 1.62646 0
M  V30 7201 H 673.713 -2.59815 1.72924 0
M  V30 7202 N 674.014 -1.12206 -1.10668 0
M  V30 7203 C 675.239 -0.898938 -1.86906 0
M  V30 7204 C 675.664 0.546346 -1.79991 0
M  V30 7205 O 675.022 1.38655 -1.1681 0
M  V30 7206 C 675.07 -1.37529 -3.33344 0
M  V30 7207 O 674.174 -0.55218 -4.08687 0
M  V30 7208 H 673.515 -0.323163 -0.580053 0
M  V30 7209 H 676.045 -1.49355 -1.39837 0
M  V30 7210 H 676.055 -1.3733 -3.84193 0
M  V30 7211 H 674.73 -2.42767 -3.37693 0
M  V30 7212 H 673.307 -0.620947 -3.67694 0
M  V30 7213 N 675.492 1.28418 -0.913599 0
M  V30 7214 C 676.425 2.25557 -0.346328 0
M  V30 7215 C 677.403 1.53038 0.549366 0
M  V30 7216 O 678.587 1.81937 0.493055 0
M  V30 7217 C 675.714 3.34915 0.504961 0
M  V30 7218 C 674.76 4.25257 -0.325334 0
M  V30 7219 S 675.593 5.06718 -1.73198 0
M  V30 7220 C 676.749 6.19569 -0.887988 0
M  V30 7221 H 676.982 2.73325 -1.16965 0
M  V30 7222 H 674.515 1.36855 -0.714841 0
M  V30 7223 H 676.473 3.98376 0.990301 0
M  V30 7224 H 675.134 2.85814 1.30267 0
M  V30 7225 H 674.327 5.02947 0.325589 0
M  V30 7226 H 673.929 3.66519 -0.744321 0
M  V30 7227 H 676.221 6.77398 -0.117568 0
M  V30 7228 H 677.164 6.88908 -1.63742 0
M  V30 7229 H 677.572 5.62812 -0.436228 0
M  V30 7230 N 676.97 0.677563 1.42291 0
M  V30 7231 C 678.216 0.201272 2.01799 0
M  V30 7232 C 678.549 -1.19004 1.53465 0
M  V30 7233 O 677.824 -1.79953 0.738039 0
M  V30 7234 C 678.107 0.238968 3.59306 0
M  V30 7235 C 677.96 1.66594 4.17812 0
M  V30 7236 C 679.279 -0.411287 4.38174 0
M  V30 7237 H 676.398 0.0746114 0.733214 0
M  V30 7238 H 679.04 0.862872 1.69276 0
M  V30 7239 H 677.19 -0.324368 3.87144 0
M  V30 7240 H 678.862 2.28173 4.00917 0
M  V30 7241 H 677.105 2.20576 3.73536 0
M  V30 7242 H 677.776 1.64398 5.26951 0
M  V30 7243 H 680.252 0.0682804 4.16044 0
M  V30 7244 H 679.128 -0.354286 5.47755 0
M  V30 7245 H 679.389 -1.4893 4.1626 0
M  V30 7246 N 678.448 -1.51871 0.421078 0
M  V30 7247 C 679.673 -2.0684 -0.152371 0
M  V30 7248 C 680.098 -1.28802 -1.37083 0
M  V30 7249 O 679.456 -0.321482 -1.78427 0
M  V30 7250 C 679.504 -3.57532 -0.469368 0
M  V30 7251 O 678.608 -3.81818 -1.55848 0
M  V30 7252 H 677.949 -0.663939 -0.00898586 0
M  V30 7253 H 680.479 -1.95674 0.597724 0
M  V30 7254 H 680.489 -4.01515 -0.724553 0
M  V30 7255 H 679.164 -4.13761 0.421276 0
M  V30 7256 H 677.741 -3.49709 -1.29453 0
M  V30 7257 N 679.926 -0.151884 -1.56866 0
M  V30 7258 C 681.337 0.368128 -1.83035 0
M  V30 7259 C 681.688 1.64402 -1.07082 0
M  V30 7260 O 680.813 2.14056 -0.317647 0
M  V30 7261 C 681.408 0.674676 -3.32014 0
M  V30 7262 C 679.967 1.13919 -3.58747 0
M  V30 7263 C 679.114 0.164833 -2.7681 0
M  V30 7264 H 682.065 -0.376499 -1.54169 0
M  V30 7265 H 682.086 1.52883 -3.48435 0
M  V30 7266 H 681.598 -0.254113 -3.87267 0
M  V30 7267 H 679.699 2.08375 -3.08886 0
M  V30 7268 H 679.812 1.06179 -4.67186 0
M  V30 7269 H 678.176 0.658419 -2.46043 0
M  V30 7270 H 678.959 -0.757633 -3.34836 0
M  V30 7271 N 681.404 1.57128 0.121893 0
M  V30 7272 C 682.334 2.03165 1.15092 0
M  V30 7273 C 683.315 0.915587 1.43356 0
M  V30 7274 O 684.5 1.1851 1.53847 0
M  V30 7275 C 681.63 2.43352 2.47784 0
M  V30 7276 C 680.584 3.58376 2.33989 0
M  V30 7277 C 679.91 3.84454 3.71617 0
M  V30 7278 C 681.21 4.90199 1.80283 0
M  V30 7279 H 682.904 2.89382 0.768023 0
M  V30 7280 H 680.45 1.39218 0.367998 0
M  V30 7281 H 682.403 2.74163 3.20019 0
M  V30 7282 H 681.127 1.54103 2.87958 0
M  V30 7283 H 679.786 3.2777 1.64202 0
M  V30 7284 H 679.434 2.92414 4.09271 0
M  V30 7285 H 679.134 4.61877 3.6324 0
M  V30 7286 H 680.658 4.17714 4.45362 0
M  V30 7287 H 682.072 5.19565 2.42333 0
M  V30 7288 H 680.469 5.71601 1.82735 0
M  V30 7289 H 681.539 4.78904 0.760184 0
M  V30 7290 N 682.882 -0.391992 1.52647 0
M  V30 7291 C 684.128 -1.139 1.67793 0
M  V30 7292 C 684.461 -1.89711 0.41514 0
M  V30 7293 O 683.736 -1.85431 -0.586979 0
M  V30 7294 C 684.019 -2.11966 2.91105 0
M  V30 7295 C 683.872 -1.39939 4.27478 0
M  V30 7296 C 685.191 -3.1243 3.09961 0
M  V30 7297 H 682.31 -0.412707 0.610608 0
M  V30 7298 H 684.952 -0.422725 1.85238 0
M  V30 7299 H 683.102 -2.73048 2.76364 0
M  V30 7300 H 684.774 -0.818439 4.53982 0
M  V30 7301 H 683.017 -0.701246 4.28095 0
M  V30 7302 H 683.688 -2.1158 5.09841 0
M  V30 7303 H 686.164 -2.61435 3.23714 0
M  V30 7304 H 685.04 -3.78294 3.97725 0
M  V30 7305 H 685.301 -3.81127 2.24042 0
M  V30 7306 N 684.36 -1.4356 -0.65026 0
M  V30 7307 C 685.307 -1.48948 -1.76304 0
M  V30 7308 C 686.277 -0.338919 -1.62605 0
M  V30 7309 O 687.462 -0.54649 -1.82806 0
M  V30 7310 C 684.602 -1.42131 -3.14472 0
M  V30 7311 C 683.715 -2.67415 -3.39284 0
M  V30 7312 C 682.85 -2.52565 -4.67316 0
M  V30 7313 C 681.889 -3.73103 -4.85243 0
M  V30 7314 N 681.026 -3.57046 -6.04535 0
M  V30 7315 H 685.866 -2.44032 -1.71034 0
M  V30 7316 H 683.403 -1.21131 -0.834601 0
M  V30 7317 H 685.361 -1.36172 -3.94351 0
M  V30 7318 H 683.991 -0.506273 -3.18805 0
M  V30 7319 H 683.043 -2.8364 -2.53481 0
M  V30 7320 H 684.355 -3.56943 -3.48415 0
M  V30 7321 H 683.509 -2.44331 -5.55326 0
M  V30 7322 H 682.248 -1.60566 -4.60511 0
M  V30 7323 H 681.253 -3.81743 -3.95667 0
M  V30 7324 H 682.478 -4.66115 -4.93876 0
M  V30 7325 H 680.424 -2.67783 -5.98856 0
M  V30 7326 H 680.341 -4.40178 -6.14638 0
M  V30 7327 H 681.609 -3.52669 -6.95158 0
M  V30 7328 N 685.838 0.888903 -1.30139 0
M  V30 7329 C 687.087 1.63507 -1.18103 0
M  V30 7330 C 687.4 1.93808 0.264141 0
M  V30 7331 O 688.606 2.66744 0.505966 0
M  V30 7332 C 687.062 2.94673 -2.0663 0
M  V30 7333 C 686.67 2.71926 -3.56034 0
M  V30 7334 C 688.414 3.72626 -2.03346 0
M  V30 7335 C 686.321 3.98884 -4.3663 0
M  V30 7336 H 685.251 0.613426 -0.438435 0
M  V30 7337 H 687.902 0.984427 -1.54859 0
M  V30 7338 H 686.284 3.61009 -1.62754 0
M  V30 7339 H 687.458 2.14116 -4.08033 0
M  V30 7340 H 685.773 2.07353 -3.61101 0
M  V30 7341 H 688.37 4.66775 -2.60816 0
M  V30 7342 H 688.713 4.03712 -1.016 0
M  V30 7343 H 689.246 3.13147 -2.45324 0
M  V30 7344 H 685.985 3.72959 -5.39056 0
M  V30 7345 H 685.505 4.56214 -3.89396 0
M  V30 7346 H 687.184 4.66938 -4.47859 0
M  V30 7347 N 687.317 1.12792 1.10072 0
M  V30 7348 C 688.545 0.908506 1.85886 0
M  V30 7349 C 688.96 -0.542408 1.80841 0
M  V30 7350 O 688.317 -1.37517 1.1998 0
M  V30 7351 C 688.368 1.37973 3.34134 0
M  V30 7352 O 688.089 2.77378 3.39106 0
M  V30 7353 C 689.59 1.1978 4.26811 0
M  V30 7354 H 686.81 0.3244 0.587372 0
M  V30 7355 H 689.354 1.49882 1.39125 0
M  V30 7356 H 687.509 0.832566 3.78348 0
M  V30 7357 H 687.923 2.98144 4.31521 0
M  V30 7358 H 689.397 1.57635 5.29014 0
M  V30 7359 H 689.874 0.138768 4.38981 0
M  V30 7360 H 690.48 1.73266 3.88406 0
M  V30 7361 N 688.795 -1.27931 0.920396 0
M  V30 7362 C 690.043 -1.94304 0.555906 0
M  V30 7363 C 690.364 -1.72753 -0.904519 0
M  V30 7364 O 689.634 -1.07104 -1.64029 0
M  V30 7365 H 688.214 -0.719001 0.202599 0
M  V30 7366 H 690.876 -1.55785 1.1712 0
M  V30 7367 H 689.972 -3.02806 0.755981 0
M  V30 7368 N 690.273 -0.685099 -1.4193 0
M  V30 7369 C 691.183 -0.013404 -2.34596 0
M  V30 7370 C 692.199 0.777589 -1.55658 0
M  V30 7371 O 693.375 0.717553 -1.88184 0
M  V30 7372 C 690.44 0.919031 -3.34297 0
M  V30 7373 C 689.501 0.121417 -4.29128 0
M  V30 7374 C 688.734 1.00944 -5.24067 0
M  V30 7375 O 688.957 2.24898 -5.24192 0
M  V30 7376 O 687.891 0.464724 -6.00103 0
M  V30 7377 H 691.717 -0.776978 -2.93593 0
M  V30 7378 H 689.302 -0.445379 -1.42607 0
M  V30 7379 H 691.184 1.45402 -3.9552 0
M  V30 7380 H 689.859 1.66228 -2.77759 0
M  V30 7381 H 688.766 -0.45792 -3.71287 0
M  V30 7382 H 690.099 -0.582937 -4.88736 0
M  V30 7383 N 691.751 1.51645 -0.429126 0
M  V30 7384 C 692.997 2.02314 0.140286 0
M  V30 7385 C 693.33 1.31314 1.43074 0
M  V30 7386 O 692.605 0.425531 1.89788 0
M  V30 7387 C 692.888 3.5822 0.36749 0
M  V30 7388 C 692.741 4.39846 -0.941039 0
M  V30 7389 C 694.06 4.25055 1.14089 0
M  V30 7390 H 691.179 0.735335 0.0495112 0
M  V30 7391 H 693.821 1.81358 -0.566514 0
M  V30 7392 H 691.971 3.76207 0.969556 0
M  V30 7393 H 693.643 4.33527 -1.57646 0
M  V30 7394 H 691.886 4.05259 -1.54751 0
M  V30 7395 H 692.557 5.47069 -0.73621 0
M  V30 7396 H 695.033 4.11288 0.630986 0
M  V30 7397 H 693.909 5.34038 1.26863 0
M  V30 7398 H 694.17 3.85358 2.16683 0
M  V30 7399 N 693.229 0.160201 1.56784 0
M  V30 7400 C 694.161 -0.80564 2.14574 0
M  V30 7401 C 695.174 -1.20154 1.09849 0
M  V30 7402 O 696.363 -1.14333 1.37078 0
M  V30 7403 C 693.463 -2.09434 2.6644 0
M  V30 7404 C 692.636 -1.86375 3.95706 0
M  V30 7405 C 691.695 -2.99358 4.32749 0
M  V30 7406 O 690.721 -2.70475 5.00831 0
M  V30 7407 N 691.923 -4.26867 3.93402 0
M  V30 7408 H 694.688 -0.311644 2.98075 0
M  V30 7409 H 692.249 -0.0229465 1.61884 0
M  V30 7410 H 694.241 -2.84091 2.88226 0
M  V30 7411 H 692.811 -2.50057 1.8759 0
M  V30 7412 H 692.031 -0.956821 3.82412 0
M  V30 7413 H 693.319 -1.68322 4.80151 0
M  V30 7414 H 692.717 -4.53197 3.38569 0
M  V30 7415 H 691.274 -4.98263 4.20211 0
M  V30 7416 N 694.707 -1.5719 -0.113559 0
M  V30 7417 C 696.118 -1.74259 -0.670116 0
M  V30 7418 C 696.469 -0.779694 -1.80042 0
M  V30 7419 O 695.594 0.0461353 -2.16351 0
M  V30 7420 C 696.189 -3.15981 -1.22236 0
M  V30 7421 C 694.748 -3.34537 -1.72516 0
M  V30 7422 C 693.895 -2.70116 -0.627098 0
M  V30 7423 H 696.846 -1.58301 0.112396 0
M  V30 7424 H 696.867 -3.17832 -2.09197 0
M  V30 7425 H 696.379 -3.86038 -0.39949 0
M  V30 7426 H 694.48 -2.6953 -2.57263 0
M  V30 7427 H 694.593 -4.42737 -1.83086 0
M  V30 7428 H 692.957 -2.31501 -1.06204 0
M  V30 7429 H 693.74 -3.42802 0.184889 0
M  V30 7430 N 696.185 0.383891 -1.52853 0
M  V30 7431 C 697.432 1.12842 -1.68146 0
M  V30 7432 C 697.76 1.89823 -0.423954 0
M  V30 7433 O 697.015 1.86475 0.593765 0
M  V30 7434 C 697.314 2.12881 -2.87082 0
M  V30 7435 C 696.98 1.52519 -4.24322 0
M  V30 7436 C 695.642 1.35783 -4.61645 0
M  V30 7437 C 697.994 1.0868 -5.09743 0
M  V30 7438 C 695.322 0.737643 -5.82044 0
M  V30 7439 C 697.674 0.480699 -6.30771 0
M  V30 7440 C 696.338 0.300681 -6.66822 0
M  V30 7441 H 695.608 0.412917 -0.615289 0
M  V30 7442 H 698.255 0.412416 -1.87006 0
M  V30 7443 H 696.56 2.90719 -2.62659 0
M  V30 7444 H 698.257 2.70408 -2.96109 0
M  V30 7445 H 694.847 1.66534 -3.94923 0
M  V30 7446 H 699.031 1.2041 -4.81472 0
M  V30 7447 H 694.287 0.586415 -6.08581 0
M  V30 7448 H 698.461 0.132733 -6.96273 0
M  V30 7449 H 696.088 -0.181966 -7.59982 0
M  V30 7450 N 697.663 1.43903 0.642637 0
M  V30 7451 C 698.912 1.45362 1.39831 0
M  V30 7452 C 699.225 0.0856289 1.95412 0
M  V30 7453 O 700.431 -0.0222856 2.71491 0
M  V30 7454 C 698.887 2.55857 2.53111 0
M  V30 7455 C 698.495 3.98811 2.04092 0
M  V30 7456 C 700.239 2.66524 3.30402 0
M  V30 7457 C 698.146 5.00751 3.14647 0
M  V30 7458 H 697.076 0.540777 0.52543 0
M  V30 7459 H 699.727 1.69929 0.692559 0
M  V30 7460 H 698.109 2.2451 3.26207 0
M  V30 7461 H 699.283 4.3967 1.37938 0
M  V30 7462 H 697.598 3.92284 1.39651 0
M  V30 7463 H 700.195 3.39858 4.12796 0
M  V30 7464 H 700.538 1.71949 3.79129 0
M  V30 7465 H 701.071 2.97224 2.64392 0
M  V30 7466 H 697.81 5.96914 2.70876 0
M  V30 7467 H 697.33 4.64495 3.79479 0
M  V30 7468 H 699.009 5.23933 3.79609 0
M  V30 7469 N 699.141 -0.881989 1.30609 0
M  V30 7470 C 700.552 -1.44956 1.17664 0
M  V30 7471 C 700.903 -1.94945 -0.221531 0
M  V30 7472 O 700.028 -1.85257 -1.11844 0
M  V30 7473 C 700.623 -2.63474 2.12995 0
M  V30 7474 C 699.182 -3.16312 2.04019 0
M  V30 7475 C 698.329 -1.89008 2.02907 0
M  V30 7476 H 701.28 -0.691645 1.42835 0
M  V30 7477 H 701.301 -3.39783 1.71253 0
M  V30 7478 H 700.813 -2.2706 3.14746 0
M  V30 7479 H 698.914 -3.57376 1.0542 0
M  V30 7480 H 699.027 -3.79409 2.9255 0
M  V30 7481 H 697.391 -2.07465 1.47751 0
M  V30 7482 H 698.174 -1.54848 3.06394 0
M  V30 7483 N 700.619 -1.13374 -1.09472 0
M  V30 7484 C 701.567 -0.806105 -2.18185 0
M  V30 7485 C 702.561 0.21136 -1.68076 0
M  V30 7486 O 703.767 0.0685558 -1.79869 0
M  V30 7487 H 700.142 -0.242901 -0.71169 0
M  V30 7488 H 702.113 -1.73115 -2.43051 0
M  V30 7489 C 700.862 -0.287928 -3.46506 0
M  V30 7490 H 700.185 -1.06217 -3.85432 0
M  V30 7491 H 701.625 -0.0971054 -4.23889 0
M  V30 7492 C 700.084 0.986256 -3.22141 0
M  V30 7493 O 700.614 2.06217 -3.44728 0
M  V30 7494 N 698.82 0.917153 -2.75747 0
M  V30 7495 H 698.367 0.0414609 -2.57567 0
M  V30 7496 H 698.325 1.77029 -2.59823 0
M  V30 7497 N 702.098 1.27442 -0.927168 0
M  V30 7498 C 703.347 1.93679 -0.563146 0
M  V30 7499 C 703.66 1.73673 0.899837 0
M  V30 7500 O 704.866 2.34247 1.37262 0
M  V30 7501 C 703.322 3.46961 -0.95636 0
M  V30 7502 C 702.93 3.75724 -2.43999 0
M  V30 7503 C 704.674 4.19282 -0.663565 0
M  V30 7504 C 702.581 5.22378 -2.77263 0
M  V30 7505 H 701.511 0.725059 -0.206894 0
M  V30 7506 H 704.162 1.44743 -1.12791 0
M  V30 7507 H 702.544 3.94703 -0.320254 0
M  V30 7508 H 703.718 3.38741 -3.12396 0
M  V30 7509 H 702.033 3.16605 -2.70463 0
M  V30 7510 H 704.63 5.27265 -0.888596 0
M  V30 7511 H 704.973 4.14382 0.399198 0
M  V30 7512 H 705.506 3.7736 -1.25875 0
M  V30 7513 H 702.245 5.32367 -3.82446 0
M  V30 7514 H 701.765 5.6051 -2.13516 0
M  V30 7515 H 703.444 5.9025 -2.64979 0
M  V30 7516 N 703.576 0.692616 1.41565 0
M  V30 7517 C 704.825 0.219452 2.00503 0
M  V30 7518 C 705.138 -1.18683 1.55479 0
M  V30 7519 O 706.344 -1.75731 2.06956 0
M  V30 7520 C 704.8 0.341451 3.58277 0
M  V30 7521 C 704.408 1.75291 4.12283 0
M  V30 7522 C 706.152 -0.0720899 4.24439 0
M  V30 7523 C 704.059 1.82673 5.62481 0
M  V30 7524 H 702.989 0.0782874 0.749925 0
M  V30 7525 H 705.64 0.860386 1.62079 0
M  V30 7526 H 704.022 -0.367683 3.94289 0
M  V30 7527 H 705.196 2.49057 3.87695 0
M  V30 7528 H 703.511 2.11587 3.58636 0
M  V30 7529 H 706.108 -0.0373385 5.34687 0
M  V30 7530 H 706.451 -1.11034 4.0122 0
M  V30 7531 H 706.984 0.586663 3.9345 0
M  V30 7532 H 703.723 2.84539 5.90523 0
M  V30 7533 H 703.243 1.13288 5.89004 0
M  V30 7534 H 704.922 1.58827 6.27203 0
M  V30 7535 N 705.054 -1.51416 0.437162 0
M  V30 7536 C 706.284 -2.06204 -0.127859 0
M  V30 7537 C 706.692 -1.30463 -1.37026 0
M  V30 7538 O 706.035 -0.357516 -1.80187 0
M  V30 7539 C 706.097 -3.55783 -0.515632 0
M  V30 7540 C 705.761 -4.52776 0.619937 0
M  V30 7541 C 706.758 -4.98031 1.49201 0
M  V30 7542 C 704.443 -4.95878 0.800618 0
M  V30 7543 C 706.437 -5.85061 2.52947 0
M  V30 7544 C 704.124 -5.82699 1.84135 0
M  V30 7545 C 705.122 -6.27188 2.70416 0
M  V30 7546 O 704.81 -7.12284 3.72702 0
M  V30 7547 H 704.542 -0.675903 -0.011442 0
M  V30 7548 H 707.096 -1.95977 0.614986 0
M  V30 7549 H 705.326 -3.63793 -1.31118 0
M  V30 7550 H 707.015 -3.93087 -1.01179 0
M  V30 7551 H 707.781 -4.65426 1.36395 0
M  V30 7552 H 703.66 -4.60792 0.138617 0
M  V30 7553 H 707.204 -6.19708 3.20325 0
M  V30 7554 H 703.101 -6.14717 1.9696 0
M  V30 7555 H 703.869 -7.30462 3.69281 0
M  V30 7556 N 706.532 -0.168513 -1.56696 0
M  V30 7557 C 707.78 0.476216 -1.96409 0
M  V30 7558 C 708.101 1.63968 -1.05544 0
M  V30 7559 O 707.371 1.95525 -0.121235 0
M  V30 7560 H 705.951 0.178921 -0.725256 0
M  V30 7561 H 708.613 -0.249042 -1.93302 0
M  V30 7562 H 707.709 0.838094 -3.00637 0
M  V30 7563 N 708.01 1.57248 0.105221 0
M  V30 7564 C 709.259 1.84756 0.809198 0
M  V30 7565 C 709.572 0.756262 1.80389 0
M  V30 7566 O 710.778 0.918158 2.55504 0
M  V30 7567 C 709.234 3.27613 1.48989 0
M  V30 7568 C 708.842 4.44788 0.535484 0
M  V30 7569 C 710.586 3.64356 2.17819 0
M  V30 7570 C 708.493 5.78676 1.22019 0
M  V30 7571 H 707.423 0.689139 0.305946 0
M  V30 7572 H 710.074 1.83395 0.0620371 0
M  V30 7573 H 708.456 3.23485 2.28415 0
M  V30 7574 H 709.63 4.60243 -0.226557 0
M  V30 7575 H 707.945 4.16374 -0.0465769 0
M  V30 7576 H 710.542 4.61663 2.69761 0
M  V30 7577 H 710.885 2.92474 2.96251 0
M  V30 7578 H 711.418 3.70328 1.45264 0
M  V30 7579 H 708.157 6.53763 0.476875 0
M  V30 7580 H 707.677 5.67083 1.9539 0
M  V30 7581 H 709.356 6.22897 1.74952 0
M  V30 7582 N 709.488 -0.375779 1.53054 0
M  V30 7583 C 710.716 -1.14036 1.72637 0
M  V30 7584 C 711.131 -1.83342 0.450687 0
M  V30 7585 O 710.488 -1.7318 -0.575749 0
M  V30 7586 C 710.539 -2.17841 2.88492 0
M  V30 7587 O 710.26 -1.51358 4.11123 0
M  V30 7588 C 711.761 -3.06924 3.19863 0
M  V30 7589 H 708.981 -0.341386 0.577665 0
M  V30 7590 H 711.525 -0.437809 1.99759 0
M  V30 7591 H 709.68 -2.8371 2.63794 0
M  V30 7592 H 710.094 -2.20439 4.75928 0
M  V30 7593 H 711.568 -3.75763 4.04359 0
M  V30 7594 H 712.045 -3.71169 2.34798 0
M  V30 7595 H 712.651 -2.46684 3.46449 0
M  V30 7596 N 710.966 -1.44241 -0.634997 0
M  V30 7597 C 711.929 -1.50457 -1.72903 0
M  V30 7598 C 712.929 -0.387058 -1.56072 0
M  V30 7599 O 714.119 -0.649531 -1.61638 0
M  V30 7600 C 711.251 -1.37477 -3.1195 0
M  V30 7601 H 712.444 -2.47907 -1.68767 0
M  V30 7602 H 709.997 -1.31276 -0.84831 0
M  V30 7603 H 710.732 -0.41106 -3.21684 0
M  V30 7604 H 710.517 -2.18506 -3.25573 0
M  V30 7605 H 712.007 -1.44799 -3.91692 0
M  V30 7606 N 712.444 0.87505 -1.31075 0
M  V30 7607 C 713.374 1.99775 -1.20881 0
M  V30 7608 C 714.355 1.69822 -0.0971612 0
M  V30 7609 O 715.54 1.92158 -0.280895 0
M  V30 7610 C 712.67 3.35163 -0.910118 0
M  V30 7611 C 711.624 3.79406 -1.98078 0
M  V30 7612 C 710.95 5.12197 -1.53488 0
M  V30 7613 C 712.25 3.97061 -3.39323 0
M  V30 7614 H 713.944 2.08562 -2.14808 0
M  V30 7615 H 711.49 1.00207 -1.03415 0
M  V30 7616 H 713.443 4.13237 -0.825423 0
M  V30 7617 H 712.167 3.26536 0.064822 0
M  V30 7618 H 710.826 3.03568 -2.05528 0
M  V30 7619 H 710.474 5.00007 -0.547941 0
M  V30 7620 H 710.174 5.4277 -2.2511 0
M  V30 7621 H 711.698 5.92785 -1.46417 0
M  V30 7622 H 713.112 4.65545 -3.34576 0
M  V30 7623 H 711.509 4.39025 -4.09118 0
M  V30 7624 H 712.579 3.00601 -3.80483 0
M  V30 7625 N 713.922 1.13953 1.08869 0
M  V30 7626 C 714.852 0.844824 2.17681 0
M  V30 7627 C 715.833 -0.198213 1.68941 0
M  V30 7628 O 717.018 -0.0559073 1.9412 0
M  V30 7629 C 714.148 0.316325 3.45856 0
M  V30 7630 C 713.102 1.29426 4.07962 0
M  V30 7631 C 712.428 0.625275 5.31031 0
M  V30 7632 C 713.728 2.65484 4.49795 0
M  V30 7633 H 715.422 1.75471 2.42591 0
M  V30 7634 H 712.968 0.845116 1.16592 0
M  V30 7635 H 714.921 0.0977876 4.21287 0
M  V30 7636 H 713.645 -0.628972 3.20486 0
M  V30 7637 H 712.304 1.49889 3.34558 0
M  V30 7638 H 711.952 -0.325678 5.01945 0
M  V30 7639 H 711.652 1.27777 5.73539 0
M  V30 7640 H 713.176 0.416152 6.0918 0
M  V30 7641 H 714.59 2.48957 5.16424 0
M  V30 7642 H 712.987 3.26963 5.03205 0
M  V30 7643 H 714.057 3.22717 3.61914 0
M  V30 7644 N 715.4 -1.26948 0.933913 0
M  V30 7645 C 716.648 -1.93704 0.576484 0
M  V30 7646 C 716.969 -1.73702 -0.886145 0
M  V30 7647 O 716.239 -1.08838 -1.62884 0
M  V30 7648 H 714.819 -0.716812 0.210214 0
M  V30 7649 H 717.481 -1.54534 1.18766 0
M  V30 7650 H 716.577 -3.01987 0.788055 0
M  V30 7651 N 716.879 -0.700114 -1.41195 0
M  V30 7652 C 718.127 -0.232546 -2.00758 0
M  V30 7653 C 718.448 1.1734 -1.55745 0
M  V30 7654 O 717.718 1.79262 -0.790058 0
M  V30 7655 H 716.298 -0.0829845 -0.742376 0
M  V30 7656 H 718.96 -0.902289 -1.72756 0
M  V30 7657 H 718.056 -0.253521 -3.11069 0
M  V30 7658 N 718.357 1.51182 -0.445186 0
M  V30 7659 C 719.582 2.07056 0.119445 0
M  V30 7660 C 720.007 1.30966 1.35016 0
M  V30 7661 O 719.365 0.349827 1.77893 0
M  V30 7662 C 719.413 3.58234 0.412428 0
M  V30 7663 O 718.517 3.84249 1.49754 0
M  V30 7664 H 717.858 0.663998 -0.00157797 0
M  V30 7665 H 720.388 1.94699 -0.628779 0
M  V30 7666 H 720.398 4.02617 0.660583 0
M  V30 7667 H 719.073 4.13038 -0.487049 0
M  V30 7668 H 717.65 3.51724 1.23873 0
M  V30 7669 N 719.835 0.176821 1.56605 0
M  V30 7670 C 720.798 -0.737429 2.17013 0
M  V30 7671 C 721.798 -1.15414 1.11965 0
M  V30 7672 O 722.988 -1.0702 1.37449 0
M  V30 7673 C 720.12 -2.00445 2.75744 0
M  V30 7674 H 721.313 -0.211455 2.99154 0
M  V30 7675 H 718.866 -0.0727582 1.56131 0
M  V30 7676 H 719.601 -2.57338 1.97352 0
M  V30 7677 H 719.386 -1.71456 3.52626 0
M  V30 7678 H 720.876 -2.65679 3.22187 0
M  V30 7679 N 721.313 -1.57302 -0.09688 0
M  V30 7680 C 722.276 -2.00976 -1.10188 0
M  V30 7681 C 723.276 -0.903009 -1.3305 0
M  V30 7682 O 724.466 -1.16853 -1.29194 0
M  V30 7683 C 721.598 -2.36893 -2.45142 0
M  V30 7684 H 722.791 -2.9098 -0.726003 0
M  V30 7685 H 720.344 -1.52515 -0.341872 0
M  V30 7686 H 721.079 -1.49837 -2.8761 0
M  V30 7687 H 720.864 -3.17632 -2.29897 0
M  V30 7688 H 722.354 -2.71345 -3.1743 0
M  V30 7689 N 722.791 0.367657 -1.53252 0
M  V30 7690 C 723.721 1.45632 -1.8252 0
M  V30 7691 C 724.702 1.55979 -0.678568 0
M  V30 7692 O 725.887 1.70581 -0.928217 0
M  V30 7693 C 723.017 2.82994 -2.01325 0
M  V30 7694 C 721.971 2.87473 -3.17086 0
M  V30 7695 C 721.297 4.2749 -3.21179 0
M  V30 7696 C 722.597 2.55182 -4.55719 0
M  V30 7697 H 724.291 1.21387 -2.73689 0
M  V30 7698 H 721.837 0.58251 -1.31692 0
M  V30 7699 H 723.79 3.59179 -2.20383 0
M  V30 7700 H 722.514 3.08622 -1.06864 0
M  V30 7701 H 721.173 2.13739 -2.97844 0
M  V30 7702 H 720.821 4.5019 -2.24361 0
M  V30 7703 H 720.521 4.31403 -3.98955 0
M  V30 7704 H 722.045 5.0555 -3.42419 0
M  V30 7705 H 723.459 3.21081 -4.74953 0
M  V30 7706 H 721.856 2.70414 -5.3572 0
M  V30 7707 H 722.926 1.5044 -4.60973 0
M  V30 7708 N 724.269 1.44576 0.627338 0
M  V30 7709 C 725.516 1.47558 1.38682 0
M  V30 7710 C 725.844 0.109636 1.94191 0
M  V30 7711 O 725.099 -0.889092 1.74338 0
M  V30 7712 C 725.398 2.48644 2.56731 0
M  V30 7713 C 725.064 3.93873 2.19489 0
M  V30 7714 C 723.726 4.33421 2.09045 0
M  V30 7715 C 726.078 4.85286 1.90124 0
M  V30 7716 C 723.406 5.62303 1.6743 0
M  V30 7717 C 725.758 6.14559 1.50001 0
M  V30 7718 C 724.422 6.53058 1.38101 0
M  V30 7719 H 723.692 0.539955 0.507474 0
M  V30 7720 H 726.339 1.77811 0.711021 0
M  V30 7721 H 724.644 2.11889 3.29561 0
M  V30 7722 H 726.341 2.48197 3.14959 0
M  V30 7723 H 722.931 3.62587 2.28537 0
M  V30 7724 H 727.115 4.55483 1.971 0
M  V30 7725 H 722.371 5.90945 1.56823 0
M  V30 7726 H 726.545 6.84848 1.26319 0
M  V30 7727 H 724.172 7.52826 1.05628 0
M  V30 7728 N 725.747 -0.868086 1.31537 0
M  V30 7729 C 726.677 -1.99131 1.21939 0
M  V30 7730 C 727.658 -1.69768 0.106166 0
M  V30 7731 O 728.843 -1.92006 0.291081 0
M  V30 7732 C 725.973 -3.34676 0.927879 0
M  V30 7733 C 724.927 -3.7835 2.00088 0
M  V30 7734 C 724.253 -5.11375 1.56203 0
M  V30 7735 C 725.553 -3.95256 3.41424 0
M  V30 7736 H 727.247 -2.07419 2.15911 0
M  V30 7737 H 724.793 -0.996569 1.03945 0
M  V30 7738 H 726.746 -4.12793 0.847327 0
M  V30 7739 H 725.47 -3.26565 -0.0475042 0
M  V30 7740 H 724.129 -3.02474 2.07135 0
M  V30 7741 H 723.777 -4.99709 0.57445 0
M  V30 7742 H 723.477 -5.41568 2.27985 0
M  V30 7743 H 725.001 -5.92001 1.49558 0
M  V30 7744 H 726.415 -4.63764 3.3704 0
M  V30 7745 H 724.812 -4.36849 4.1144 0
M  V30 7746 H 725.882 -2.98579 3.82072 0
M  V30 7747 N 727.225 -1.14528 -1.08264 0
M  V30 7748 C 728.636 -0.925261 -1.6216 0
M  V30 7749 C 728.987 0.535587 -1.88748 0
M  V30 7750 O 728.112 1.4048 -1.64604 0
M  V30 7751 C 728.707 -1.67316 -2.94603 0
M  V30 7752 C 727.266 -1.49868 -3.45278 0
M  V30 7753 C 726.413 -1.69471 -2.19487 0
M  V30 7754 H 729.364 -1.29687 -0.914707 0
M  V30 7755 H 729.385 -1.13721 -3.63109 0
M  V30 7756 H 728.897 -2.73635 -2.75219 0
M  V30 7757 H 726.998 -0.459032 -3.69762 0
M  V30 7758 H 727.111 -2.2696 -4.21931 0
M  V30 7759 H 725.475 -1.12048 -2.2873 0
M  V30 7760 H 726.258 -2.77136 -2.0261 0
M  V30 7761 N 728.703 1.26451 -0.940633 0
M  V30 7762 C 729.613 2.30128 -0.455881 0
M  V30 7763 C 730.629 1.67536 0.469867 0
M  V30 7764 O 731.805 1.98344 0.349529 0
M  V30 7765 C 728.87 3.45634 0.271648 0
M  V30 7766 C 727.931 4.23709 -0.690594 0
M  V30 7767 C 727.164 5.337 0.00231047 0
M  V30 7768 O 727.387 5.57215 1.21935 0
M  V30 7769 O 726.321 5.98091 -0.676111 0
M  V30 7770 H 730.147 2.73655 -1.31707 0
M  V30 7771 H 727.732 1.3164 -0.706497 0
M  V30 7772 H 729.614 4.15853 0.681486 0
M  V30 7773 H 728.289 3.04138 1.10824 0
M  V30 7774 H 727.196 3.55974 -1.15037 0
M  V30 7775 H 728.529 4.68953 -1.49478 0
M  V30 7776 N 730.181 0.707592 1.40822 0
M  V30 7777 C 731.409 0.253073 2.05346 0
M  V30 7778 C 731.824 -1.10218 1.53289 0
M  V30 7779 O 731.181 -1.69112 0.686105 0
M  V30 7780 C 731.232 0.215411 3.60858 0
M  V30 7781 O 730.953 1.51714 4.10992 0
M  V30 7782 C 732.454 -0.258636 4.42545 0
M  V30 7783 H 729.674 0.115256 0.661027 0
M  V30 7784 H 732.218 0.963555 1.80377 0
M  V30 7785 H 730.373 -0.445978 3.84824 0
M  V30 7786 H 730.787 1.41226 5.05129 0
M  V30 7787 H 732.261 -0.233849 5.51504 0
M  V30 7788 H 732.738 -1.2995 4.19535 0
M  V30 7789 H 733.344 0.372186 4.23668 0
M  V30 7790 N 731.66 -1.50943 0.453197 0
M  V30 7791 C 732.59 -2.31005 -0.34044 0
M  V30 7792 C 733.571 -1.37112 -1.00669 0
M  V30 7793 O 734.756 -1.66033 -1.0073 0
M  V30 7794 C 731.886 -3.16358 -1.433 0
M  V30 7795 C 730.84 -4.18658 -0.889363 0
M  V30 7796 C 730.166 -4.92633 -2.07887 0
M  V30 7797 C 731.466 -5.22227 0.0871142 0
M  V30 7798 H 733.16 -2.97601 0.327723 0
M  V30 7799 H 730.706 -1.43119 0.159054 0
M  V30 7800 H 732.659 -3.71155 -1.99555 0
M  V30 7801 H 731.383 -2.47613 -2.12968 0
M  V30 7802 H 730.042 -3.64936 -0.348915 0
M  V30 7803 H 729.69 -4.20376 -2.76211 0
M  V30 7804 H 729.39 -5.61819 -1.72143 0
M  V30 7805 H 730.914 -5.50258 -2.64666 0
M  V30 7806 H 732.328 -5.72001 -0.385656 0
M  V30 7807 H 730.725 -5.99032 0.357926 0
M  V30 7808 H 731.795 -4.74077 1.01879 0
M  V30 7809 N 733.138 -0.185124 -1.56509 0
M  V30 7810 C 734.086 0.756505 -2.19954 0
M  V30 7811 C 735.08 1.22725 -1.16769 0
M  V30 7812 O 736.286 1.1913 -1.34937 0
M  V30 7813 H 732.661 0.262279 -0.704779 0
M  V30 7814 H 734.632 0.197587 -2.97745 0
M  V30 7815 C 733.381 1.96975 -2.86524 0
M  V30 7816 H 732.704 1.61658 -3.65659 0
M  V30 7817 H 734.144 2.60719 -3.34367 0
M  V30 7818 C 732.603 2.80219 -1.87027 0
M  V30 7819 O 733.133 3.77821 -1.36433 0
M  V30 7820 N 731.339 2.4551 -1.55477 0
M  V30 7821 H 730.886 1.66199 -1.96813 0
M  V30 7822 H 730.844 3.01493 -0.891597 0
M  V30 7823 N 734.616 1.57351 0.0885366 0
M  V30 7824 C 735.548 1.99221 1.13329 0
M  V30 7825 C 736.561 0.895705 1.35945 0
M  V30 7826 O 737.75 1.17376 1.34481 0
M  V30 7827 C 734.85 2.3016 2.48756 0
M  V30 7828 C 734.023 3.61444 2.46327 0
M  V30 7829 C 733.082 3.80244 3.63732 0
M  V30 7830 O 732.108 4.52024 3.45924 0
M  V30 7831 N 733.31 3.2132 4.8346 0
M  V30 7832 H 736.075 2.89456 0.776862 0
M  V30 7833 H 733.636 1.59505 0.277428 0
M  V30 7834 H 735.628 2.39925 3.25911 0
M  V30 7835 H 734.198 1.459 2.76464 0
M  V30 7836 H 733.418 3.62588 1.54673 0
M  V30 7837 H 734.706 4.47678 2.41789 0
M  V30 7838 H 734.104 2.63028 5.00832 0
M  V30 7839 H 732.661 3.3656 5.58185 0
M  V30 7840 N 736.094 -0.359525 1.53444 0
M  V30 7841 C 737.505 -0.936009 1.61542 0
M  V30 7842 C 737.856 -1.90069 0.486633 0
M  V30 7843 O 736.981 -2.12929 -0.386047 0
M  V30 7844 C 737.576 -1.70441 2.92806 0
M  V30 7845 C 736.135 -2.23015 3.03218 0
M  V30 7846 C 735.282 -1.04438 2.56881 0
M  V30 7847 H 738.233 -0.138134 1.58098 0
M  V30 7848 H 738.254 -2.56609 2.80948 0
M  V30 7849 H 737.766 -1.00205 3.74941 0
M  V30 7850 H 735.867 -2.96475 2.25684 0
M  V30 7851 H 735.98 -2.50481 4.08407 0
M  V30 7852 H 734.344 -1.41314 2.11902 0
M  V30 7853 H 735.127 -0.356905 3.4144 0
M  V30 7854 N 737.572 -1.44907 -0.619662 0
M  V30 7855 C 738.502 -1.55488 -1.742 0
M  V30 7856 C 739.483 -0.407143 -1.65156 0
M  V30 7857 O 740.668 -0.628743 -1.8374 0
M  V30 7858 C 737.798 -1.5097 -3.1277 0
M  V30 7859 C 736.752 -2.64337 -3.36615 0
M  V30 7860 C 736.078 -2.44872 -4.75333 0
M  V30 7861 C 737.378 -4.06423 -3.28051 0
M  V30 7862 H 739.072 -2.49432 -1.65602 0
M  V30 7863 H 736.618 -1.20047 -0.795281 0
M  V30 7864 H 738.571 -1.56971 -3.91073 0
M  V30 7865 H 737.295 -0.535486 -3.2218 0
M  V30 7866 H 735.954 -2.57744 -2.60698 0
M  V30 7867 H 735.602 -1.45617 -4.81461 0
M  V30 7868 H 735.302 -3.20888 -4.92244 0
M  V30 7869 H 736.826 -2.52709 -5.55851 0
M  V30 7870 H 738.24 -4.14324 -3.96243 0
M  V30 7871 H 736.637 -4.82733 -3.56495 0
M  V30 7872 H 737.707 -4.29183 -2.25676 0
M  V30 7873 N 739.05 0.861098 -1.31996 0
M  V30 7874 C 740.461 1.43065 -1.19955 0
M  V30 7875 C 740.812 1.95273 0.190489 0
M  V30 7876 O 739.937 1.87012 1.08882 0
M  V30 7877 C 740.532 2.60052 -2.1716 0
M  V30 7878 C 739.091 3.13026 -2.09026 0
M  V30 7879 C 738.238 1.85756 -2.05888 0
M  V30 7880 H 741.189 0.668834 -1.43918 0
M  V30 7881 H 741.21 3.37016 -1.76637 0
M  V30 7882 H 740.722 2.22024 -3.18319 0
M  V30 7883 H 738.823 3.55653 -1.11092 0
M  V30 7884 H 738.936 3.74707 -2.98549 0
M  V30 7885 H 737.3 2.05088 -1.51033 0
M  V30 7886 H 738.083 1.49954 -3.08818 0
M  V30 7887 N 740.528 1.15101 1.07655 0
M  V30 7888 C 741.438 0.858869 2.18313 0
M  V30 7889 C 742.454 -0.163641 1.73229 0
M  V30 7890 O 743.63 0.00969541 2.01398 0
M  V30 7891 C 740.695 0.34893 3.4494 0
M  V30 7892 C 739.756 1.43495 4.04608 0
M  V30 7893 C 738.989 0.949253 5.2519 0
M  V30 7894 O 739.212 -0.20636 5.70027 0
M  V30 7895 O 738.146 1.73161 5.76454 0
M  V30 7896 H 741.972 1.78386 2.45788 0
M  V30 7897 H 739.557 0.929876 1.16934 0
M  V30 7898 H 741.439 0.070851 4.2134 0
M  V30 7899 H 740.114 -0.548237 3.19024 0
M  V30 7900 H 739.021 1.7666 3.29761 0
M  V30 7901 H 740.354 2.30692 4.3479 0
M  V30 7902 N 742.006 -1.2595 0.947325 0
M  V30 7903 C 743.234 -1.97544 0.615127 0
M  V30 7904 C 743.649 -1.70484 -0.811221 0
M  V30 7905 O 743.006 -0.97662 -1.5417 0
M  V30 7906 C 743.057 -3.51236 0.855328 0
M  V30 7907 O 742.778 -3.77359 2.22558 0
M  V30 7908 C 744.279 -4.40066 0.534515 0
M  V30 7909 H 741.499 -0.629888 0.231263 0
M  V30 7910 H 744.043 -1.60308 1.26971 0
M  V30 7911 H 742.198 -3.8661 0.247266 0
M  V30 7912 H 742.612 -4.71857 2.29022 0
M  V30 7913 H 744.086 -5.46838 0.753168 0
M  V30 7914 H 744.563 -4.35982 -0.530701 0
M  V30 7915 H 745.169 -4.10245 1.12158 0
M  V30 7916 N 743.484 -0.715051 -1.40445 0
M  V30 7917 C 744.733 -0.251322 -2.00128 0
M  V30 7918 C 745.046 1.16194 -1.57347 0
M  V30 7919 O 746.252 1.72416 -2.09726 0
M  V30 7920 C 744.708 -0.398407 -3.57688 0
M  V30 7921 C 744.316 -1.81828 -4.09442 0
M  V30 7922 C 746.06 0.00455625 -4.245 0
M  V30 7923 C 743.967 -1.91598 -5.59503 0
M  V30 7924 H 742.897 -0.0902081 -0.748584 0
M  V30 7925 H 745.548 -0.886062 -1.6069 0
M  V30 7926 H 743.93 0.304908 -3.94824 0
M  V30 7927 H 745.104 -2.55193 -3.83684 0
M  V30 7928 H 743.419 -2.17266 -3.55225 0
M  V30 7929 H 746.016 -0.0477303 -5.34679 0
M  V30 7930 H 746.359 1.04636 -4.02935 0
M  V30 7931 H 746.892 -0.649184 -3.92467 0
M  V30 7932 H 743.631 -2.93898 -5.85922 0
M  V30 7933 H 743.151 -1.22644 -5.87127 0
M  V30 7934 H 744.83 -1.68785 -6.24596 0
M  V30 7935 N 744.962 1.50701 -0.461195 0
M  V30 7936 C 745.872 2.32069 0.343661 0
M  V30 7937 C 746.888 1.42016 1.00535 0
M  V30 7938 O 748.064 1.75077 0.995498 0
M  V30 7939 C 745.129 3.16424 1.41692 0
M  V30 7940 C 744.19 4.22286 0.772869 0
M  V30 7941 C 743.423 5.02609 1.79499 0
M  V30 7942 O 743.646 4.83874 3.0203 0
M  V30 7943 O 742.58 5.86047 1.3723 0
M  V30 7944 H 746.406 3.01996 -0.321268 0
M  V30 7945 H 743.991 1.47723 -0.223235 0
M  V30 7946 H 745.873 3.68795 2.03883 0
M  V30 7947 H 744.548 2.49236 2.0655 0
M  V30 7948 H 743.455 3.73931 0.112277 0
M  V30 7949 H 744.788 4.91915 0.167399 0
M  V30 7950 N 746.441 0.193421 1.56409 0
M  V30 7951 C 747.718 -0.493318 1.89277 0
M  V30 7952 C 748.098 -1.79765 1.10669 0
M  V30 7953 O 747.446 -2.27558 0.207274 0
M  V30 7954 C 747.656 -0.713732 3.41624 0
M  V30 7955 C 749.004 -1.03385 4.11821 0
M  V30 7956 O 750.028 -0.801511 3.47065 0
M  V30 7957 O 748.887 -1.47327 5.26267 0
M  V30 7958 H 745.981 -0.256973 0.786062 0
M  V30 7959 H 748.527 0.23351 1.68086 0
M  V30 7960 H 747.299 0.207446 3.9075 0
M  V30 7961 H 746.922 -1.49308 3.68501 0
M  V30 7962 N 747.919 -1.57396 -0.0801906 0
M  V30 7963 C 748.849 -2.06145 -1.09665 0
M  V30 7964 C 749.83 -0.953273 -1.40878 0
M  V30 7965 O 751.015 -1.22548 -1.50651 0
M  V30 7966 C 748.145 -2.49836 -2.41245 0
M  V30 7967 C 747.099 -3.64454 -2.24405 0
M  V30 7968 C 746.425 -3.94172 -3.61293 0
M  V30 7969 C 747.725 -4.94807 -1.67223 0
M  V30 7970 H 749.419 -2.91316 -0.691028 0
M  V30 7971 H 746.965 -1.40145 -0.330957 0
M  V30 7972 H 748.918 -2.82552 -3.12638 0
M  V30 7973 H 747.642 -1.61683 -2.83771 0
M  V30 7974 H 746.301 -3.32008 -1.55454 0
M  V30 7975 H 745.949 -3.03163 -4.01374 0
M  V30 7976 H 745.649 -4.71345 -3.50867 0
M  V30 7977 H 747.173 -4.29376 -4.3413 0
M  V30 7978 H 748.587 -5.25807 -2.28472 0
M  V30 7979 H 746.984 -5.76245 -1.67515 0
M  V30 7980 H 748.054 -4.80751 -0.632944 0
M  V30 7981 N 749.397 0.351382 -1.53633 0
M  V30 7982 C 750.307 1.45471 -1.84052 0
M  V30 7983 C 751.323 1.57945 -0.730015 0
M  V30 7984 O 752.499 1.73571 -1.02153 0
M  V30 7985 C 749.564 2.80562 -2.03681 0
M  V30 7986 C 748.625 2.77497 -3.27558 0
M  V30 7987 C 747.858 4.06144 -3.46241 0
M  V30 7988 O 748.081 5.03028 -2.68922 0
M  V30 7989 O 747.015 4.11092 -4.39645 0
M  V30 7990 H 750.841 1.22684 -2.77817 0
M  V30 7991 H 748.426 0.542827 -1.3919 0
M  V30 7992 H 750.308 3.6058 -2.18082 0
M  V30 7993 H 748.983 3.03296 -1.13106 0
M  V30 7994 H 747.89 1.96126 -3.18568 0
M  V30 7995 H 749.223 2.59716 -4.18101 0
M  V30 7996 N 750.875 1.45233 0.611969 0
M  V30 7997 C 751.823 1.53898 1.74408 0
M  V30 7998 C 752.817 0.409254 1.64382 0
M  V30 7999 O 754.023 0.584988 1.70229 0
M  V30 8000 H 750.398 0.483303 0.576127 0
M  V30 8001 H 752.369 2.49143 1.64227 0
M  V30 8002 C 751.118 1.51865 3.12782 0
M  V30 8003 H 750.441 2.38118 3.21154 0
M  V30 8004 H 751.881 1.61986 3.91838 0
M  V30 8005 C 750.34 0.242374 3.36027 0
M  V30 8006 O 750.87 -0.679587 3.9591 0
M  V30 8007 N 749.076 0.139448 2.90265 0
M  V30 8008 H 748.623 0.890571 2.41716 0
M  V30 8009 H 748.581 -0.713686 3.06193 0
M  V30 8010 N 752.353 -0.854086 1.3245 0
M  V30 8011 C 753.599 -1.6105 1.24235 0
M  V30 8012 C 753.954 -1.91421 -0.193877 0
M  V30 8013 O 753.247 -1.54599 -1.1318 0
M  V30 8014 C 753.441 -2.93746 2.03587 0
M  V30 8015 C 753.27 -2.76335 3.54781 0
M  V30 8016 C 752.04 -2.74687 4.24117 0
M  V30 8017 C 754.238 -2.50052 4.4942 0
M  V30 8018 N 752.22 -2.48493 5.6136 0
M  V30 8019 C 753.591 -2.33269 5.74444 0
M  V30 8020 C 755.646 -2.35525 4.38671 0
M  V30 8021 C 754.349 -2.03434 6.89933 0
M  V30 8022 C 756.375 -2.07081 5.5396 0
M  V30 8023 C 755.737 -1.91098 6.77983 0
M  V30 8024 H 751.836 -0.593008 0.50977 0
M  V30 8025 H 754.42 -1.00392 1.66822 0
M  V30 8026 H 752.591 -3.52382 1.63345 0
M  V30 8027 H 754.323 -3.58768 1.87263 0
M  V30 8028 H 751.078 -2.87647 3.7624 0
M  V30 8029 H 751.502 -2.38322 6.33665 0
M  V30 8030 H 756.144 -2.46602 3.43435 0
M  V30 8031 H 753.862 -1.91095 7.85181 0
M  V30 8032 H 757.448 -1.96618 5.4757 0
M  V30 8033 H 756.328 -1.69402 7.65684 0
M  V30 8034 N 753.831 -1.1567 -1.07043 0
M  V30 8035 C 755.056 -0.957946 -1.83952 0
M  V30 8036 C 755.481 0.488807 -1.81638 0
M  V30 8037 O 754.839 1.34869 -1.21162 0
M  V30 8038 C 754.887 -1.48064 -3.288 0
M  V30 8039 O 753.991 -0.681921 -4.06723 0
M  V30 8040 H 753.332 -0.341453 -0.569479 0
M  V30 8041 H 755.862 -1.53728 -1.35015 0
M  V30 8042 H 755.872 -1.49484 -3.7963 0
M  V30 8043 H 754.547 -2.53388 -3.29799 0
M  V30 8044 H 753.124 -0.737612 -3.65532 0
M  V30 8045 N 755.309 1.25446 -0.953992 0
M  V30 8046 C 756.239 2.28264 -0.491717 0
M  V30 8047 C 757.22 1.63717 0.461617 0
M  V30 8048 O 758.405 1.90821 0.36071 0
M  V30 8049 C 755.535 3.46525 0.231915 0
M  V30 8050 C 754.489 4.23247 -0.636098 0
M  V30 8051 C 753.815 5.34254 0.218238 0
M  V30 8052 C 755.115 4.85971 -1.91389 0
M  V30 8053 H 756.809 2.67183 -1.35106 0
M  V30 8054 H 754.355 1.2844 -0.651095 0
M  V30 8055 H 756.308 4.17576 0.566439 0
M  V30 8056 H 755.032 3.06594 1.12551 0
M  V30 8057 H 753.691 3.53978 -0.953696 0
M  V30 8058 H 753.339 4.90564 1.11156 0
M  V30 8059 H 753.039 5.86501 -0.359232 0
M  V30 8060 H 754.563 6.08138 0.547743 0
M  V30 8061 H 755.977 5.49168 -1.64581 0
M  V30 8062 H 754.374 5.48391 -2.43696 0
M  V30 8063 H 755.444 4.08192 -2.61738 0
M  V30 8064 N 756.787 0.722489 1.40064 0
M  V30 8065 C 758.203 0.396758 1.5459 0
M  V30 8066 C 758.403 -1.09375 1.69232 0
M  V30 8067 O 757.459 -1.87984 1.68578 0
M  V30 8068 C 758.772 1.16885 2.77053 0
M  V30 8069 C 760.32 1.15583 2.90877 0
M  V30 8070 C 760.795 1.91023 4.16262 0
M  V30 8071 N 762.286 1.88126 4.23276 0
M  V30 8072 C 763.021 2.43315 5.19216 0
M  V30 8073 N 762.517 3.07089 6.21022 0
M  V30 8074 N 764.31 2.33418 5.11344 0
M  V30 8075 H 756.461 1.68887 1.28806 0
M  V30 8076 H 758.724 0.714231 0.62336 0
M  V30 8077 H 758.43 2.22301 2.72534 0
M  V30 8078 H 758.304 0.765011 3.69361 0
M  V30 8079 H 760.691 0.10984 2.94896 0
M  V30 8080 H 760.772 1.59895 1.99668 0
M  V30 8081 H 760.416 2.95616 4.13006 0
M  V30 8082 H 760.346 1.44126 5.06493 0
M  V30 8083 H 762.837 1.41654 3.50346 0
M  V30 8084 H 763.15 3.467 6.90666 0
M  V30 8085 H 761.495 3.11175 6.21446 0
M  V30 8086 H 764.686 1.83248 4.30741 0
M  V30 8087 H 764.859 2.7673 5.85939 0
M  V30 8088 N 758.265 -1.50454 0.469181 0
M  V30 8089 C 759.228 -2.2703 -0.314643 0
M  V30 8090 C 760.228 -1.31734 -0.922111 0
M  V30 8091 O 761.418 -1.55176 -0.791588 0
M  V30 8092 C 758.55 -3.08616 -1.44806 0
M  V30 8093 H 759.743 -2.97769 0.356892 0
M  V30 8094 H 757.296 -1.54698 0.223191 0
M  V30 8095 H 758.031 -2.42369 -2.1547 0
M  V30 8096 H 757.816 -3.78647 -1.01829 0
M  V30 8097 H 759.306 -3.66536 -2.00103 0
M  V30 8098 N 759.743 -0.201713 -1.56304 0
M  V30 8099 C 760.69 0.716499 -2.19397 0
M  V30 8100 C 761.66 1.20494 -1.14326 0
M  V30 8101 O 762.845 1.26763 -1.42604 0
M  V30 8102 C 759.985 1.92762 -2.86246 0
M  V30 8103 C 759.098 1.47993 -4.0586 0
M  V30 8104 C 758.233 2.64706 -4.60547 0
M  V30 8105 C 757.272 2.16576 -5.72504 0
M  V30 8106 N 756.409 3.26491 -6.21569 0
M  V30 8107 H 761.249 0.171724 -2.97505 0
M  V30 8108 H 758.786 0.073016 -1.46919 0
M  V30 8109 H 760.744 2.6384 -3.23178 0
M  V30 8110 H 759.374 2.44559 -2.10691 0
M  V30 8111 H 758.426 0.66477 -3.74546 0
M  V30 8112 H 759.738 1.08686 -4.86815 0
M  V30 8113 H 758.892 3.43898 -4.99819 0
M  V30 8114 H 757.631 3.0729 -3.78713 0
M  V30 8115 H 756.636 1.3584 -5.32755 0
M  V30 8116 H 757.861 1.75015 -6.56161 0
M  V30 8117 H 755.807 3.68594 -5.42655 0
M  V30 8118 H 755.724 2.91374 -6.97594 0
M  V30 8119 H 756.992 4.05877 -6.65495 0
M  V30 8120 N 761.222 1.57436 0.0718424 0
M  V30 8121 C 762.169 2.03686 1.08539 0
M  V30 8122 C 763.139 0.917474 1.38462 0
M  V30 8123 O 764.324 1.18513 1.4953 0
M  V30 8124 C 761.464 2.48566 2.39393 0
M  V30 8125 C 760.577 3.74122 2.16001 0
M  V30 8126 C 759.712 4.07786 3.40418 0
M  V30 8127 C 758.751 5.26383 3.1239 0
M  V30 8128 N 757.888 5.55685 4.29138 0
M  V30 8129 H 762.728 2.90043 0.684018 0
M  V30 8130 H 760.265 1.43438 0.326183 0
M  V30 8131 H 762.223 2.72639 3.15791 0
M  V30 8132 H 760.853 1.65186 2.77333 0
M  V30 8133 H 759.905 3.57389 1.30296 0
M  V30 8134 H 761.217 4.60659 1.91298 0
M  V30 8135 H 760.371 4.32759 4.25211 0
M  V30 8136 H 759.11 3.19817 3.68197 0
M  V30 8137 H 758.115 5.01206 2.25993 0
M  V30 8138 H 759.34 6.1597 2.85934 0
M  V30 8139 H 757.286 4.70675 4.56948 0
M  V30 8140 H 757.203 6.3664 4.07708 0
M  V30 8141 H 758.471 5.85209 5.14928 0
M  V30 8142 N 762.7 -0.34323 1.53817 0
M  V30 8143 C 764.111 -0.918823 1.62525 0
M  V30 8144 C 764.462 -1.89542 0.506765 0
M  V30 8145 O 763.587 -2.13326 -0.363441 0
M  V30 8146 C 764.182 -1.67326 2.94597 0
M  V30 8147 C 762.741 -2.19786 3.05567 0
M  V30 8148 C 761.888 -1.01708 2.57974 0
M  V30 8149 H 764.839 -0.121358 1.58235 0
M  V30 8150 H 764.86 -2.53615 2.83654 0
M  V30 8151 H 764.372 -0.962223 3.75983 0
M  V30 8152 H 762.473 -2.94065 2.28816 0
M  V30 8153 H 762.586 -2.46135 4.1104 0
M  V30 8154 H 760.95 -1.39058 2.13389 0
M  V30 8155 H 761.733 -0.320671 3.41799 0
M  V30 8156 N 764.178 -1.45556 -0.604258 0
M  V30 8157 C 765.125 -1.54482 -1.71476 0
M  V30 8158 C 766.095 -0.390479 -1.61445 0
M  V30 8159 O 767.28 -0.604371 -1.80975 0
M  V30 8160 C 764.42 -1.52064 -3.09791 0
M  V30 8161 C 763.533 -2.78073 -3.30604 0
M  V30 8162 C 762.668 -2.67304 -4.59044 0
M  V30 8163 C 761.707 -3.88352 -4.73127 0
M  V30 8164 N 760.844 -3.76098 -5.9287 0
M  V30 8165 H 765.684 -2.49349 -1.63184 0
M  V30 8166 H 763.221 -1.23725 -0.795641 0
M  V30 8167 H 765.179 -1.48649 -3.89819 0
M  V30 8168 H 763.809 -0.607442 -3.17033 0
M  V30 8169 H 762.861 -2.91561 -2.44329 0
M  V30 8170 H 764.173 -3.67847 -3.36883 0
M  V30 8171 H 763.327 -2.61875 -5.47272 0
M  V30 8172 H 762.066 -1.75135 -4.55169 0
M  V30 8173 H 761.071 -3.94137 -3.83322 0
M  V30 8174 H 762.296 -4.81591 -4.78797 0
M  V30 8175 H 760.242 -2.867 -5.90033 0
M  V30 8176 H 760.159 -4.59509 -6.00323 0
M  V30 8177 H 761.427 -3.74607 -6.83586 0
M  V30 8178 N 765.656 0.84705 -1.32902 0
M  V30 8179 C 766.588 1.96308 -1.18304 0
M  V30 8180 C 767.601 1.62386 -0.116082 0
M  V30 8181 O 768.79 1.74713 -0.365751 0
M  V30 8182 C 765.89 3.29556 -0.790305 0
M  V30 8183 C 765.063 3.91668 -1.94717 0
M  V30 8184 C 764.122 5.0326 -1.53674 0
M  V30 8185 O 763.148 5.22847 -2.24989 0
M  V30 8186 N 764.35 5.78852 -0.437075 0
M  V30 8187 H 767.115 2.09369 -2.14441 0
M  V30 8188 H 764.676 1.02233 -1.25539 0
M  V30 8189 H 766.668 4.01624 -0.49799 0
M  V30 8190 H 765.238 3.12497 0.0801286 0
M  V30 8191 H 764.458 3.12292 -2.40557 0
M  V30 8192 H 765.746 4.299 -2.72146 0
M  V30 8193 H 765.144 5.65484 0.156316 0
M  V30 8194 H 763.701 6.51479 -0.204399 0
M  V30 8195 N 767.134 1.16236 1.06428 0
M  V30 8196 C 768.044 0.881976 2.1739 0
M  V30 8197 C 769.06 -0.145259 1.73393 0
M  V30 8198 O 770.236 0.0310558 2.01376 0
M  V30 8199 C 767.301 0.385496 3.4455 0
M  V30 8200 C 766.362 1.47779 4.03063 0
M  V30 8201 C 765.595 1.0049 5.24154 0
M  V30 8202 O 765.818 -0.145889 5.70213 0
M  V30 8203 O 764.752 1.79265 5.74585 0
M  V30 8204 H 768.578 1.80983 2.43883 0
M  V30 8205 H 766.163 0.942226 1.15942 0
M  V30 8206 H 768.045 0.115536 4.21242 0
M  V30 8207 H 766.72 -0.514369 3.19587 0
M  V30 8208 H 765.627 1.80147 3.27869 0
M  V30 8209 H 766.96 2.35291 4.32318 0
M  V30 8210 N 768.612 -1.24939 0.960631 0
M  V30 8211 C 770.023 -1.74701 0.658529 0
M  V30 8212 C 770.374 -1.77967 -0.825959 0
M  V30 8213 O 769.499 -1.40444 -1.64634 0
M  V30 8214 C 770.094 -3.17263 1.18867 0
M  V30 8215 C 768.653 -3.64561 0.936614 0
M  V30 8216 C 767.8 -2.43423 1.32817 0
M  V30 8217 H 770.751 -1.10741 1.13676 0
M  V30 8218 H 770.772 -3.76481 0.551589 0
M  V30 8219 H 770.284 -3.14854 2.26912 0
M  V30 8220 H 768.385 -3.72378 -0.128608 0
M  V30 8221 H 768.498 -4.52392 1.57729 0
M  V30 8222 H 766.862 -2.43513 0.746548 0
M  V30 8223 H 767.645 -2.437 2.41796 0
M  V30 8224 N 770.09 -0.729906 -1.39679 0
M  V30 8225 C 771 -0.0880322 -2.34435 0
M  V30 8226 C 772.016 0.727674 -1.58053 0
M  V30 8227 O 773.192 0.657321 -1.90371 0
M  V30 8228 C 770.257 0.812211 -3.37052 0
M  V30 8229 C 769.318 -0.0151681 -4.29297 0
M  V30 8230 C 768.551 0.842202 -5.27013 0
M  V30 8231 O 768.774 2.08108 -5.31081 0
M  V30 8232 O 767.708 0.27357 -6.01278 0
M  V30 8233 H 771.534 -0.869989 -2.90972 0
M  V30 8234 H 769.119 -0.490522 -1.41118 0
M  V30 8235 H 771.001 1.32745 -3.99946 0
M  V30 8236 H 769.676 1.57307 -2.82907 0
M  V30 8237 H 768.583 -0.575811 -3.69642 0
M  V30 8238 H 769.916 -0.738129 -4.86634 0
M  V30 8239 N 771.568 1.50203 -0.477153 0
M  V30 8240 C 772.814 2.02658 0.0758507 0
M  V30 8241 C 773.147 1.358 1.38824 0
M  V30 8242 O 772.422 0.485696 1.88338 0
M  V30 8243 C 772.705 3.59208 0.253339 0
M  V30 8244 C 772.558 4.36629 -1.0805 0
M  V30 8245 C 773.877 4.28469 1.00509 0
M  V30 8246 H 770.996 0.736538 0.0260921 0
M  V30 8247 H 773.638 1.79464 -0.623925 0
M  V30 8248 H 771.788 3.79101 0.849378 0
M  V30 8249 H 773.46 4.28292 -1.71358 0
M  V30 8250 H 771.703 4.0013 -1.67566 0
M  V30 8251 H 772.374 5.44449 -0.909883 0
M  V30 8252 H 774.85 4.13087 0.499818 0
M  V30 8253 H 773.726 5.37804 1.09808 0
M  V30 8254 H 773.987 3.92057 2.04314 0
M  V30 8255 N 773.046 0.209999 1.56195 0
M  V30 8256 C 773.956 -0.716459 2.23392 0
M  V30 8257 C 774.972 -1.22291 1.23778 0
M  V30 8258 O 776.148 -1.26694 1.56558 0
M  V30 8259 C 773.213 -1.91261 2.89172 0
M  V30 8260 C 772.274 -1.44927 4.04097 0
M  V30 8261 C 771.507 -2.5884 4.66731 0
M  V30 8262 O 771.73 -3.76693 4.2832 0
M  V30 8263 O 770.664 -2.30701 5.55932 0
M  V30 8264 H 774.49 -0.174089 3.03201 0
M  V30 8265 H 772.075 -0.0199505 1.49387 0
M  V30 8266 H 773.957 -2.6114 3.30733 0
M  V30 8267 H 772.632 -2.4433 2.12331 0
M  V30 8268 H 771.539 -0.718839 3.67129 0
M  V30 8269 H 772.872 -0.965084 4.82646 0
M  V30 8270 N 774.524 -1.57472 -0.0634922 0
M  V30 8271 C 775.471 -2.04258 -1.07457 0
M  V30 8272 C 776.441 -0.924804 -1.37973 0
M  V30 8273 O 777.626 -1.19305 -1.48899 0
M  V30 8274 C 774.766 -2.49832 -2.38071 0
M  V30 8275 C 773.879 -3.75263 -2.14014 0
M  V30 8276 C 773.014 -4.09585 -3.38251 0
M  V30 8277 C 772.053 -5.28032 -3.09594 0
M  V30 8278 N 771.19 -5.57953 -4.26185 0
M  V30 8279 H 776.03 -2.90402 -0.668626 0
M  V30 8280 H 773.567 -1.43609 -0.318572 0
M  V30 8281 H 775.525 -2.7431 -3.14341 0
M  V30 8282 H 774.155 -1.66654 -2.76453 0
M  V30 8283 H 773.207 -3.58075 -1.28399 0
M  V30 8284 H 774.519 -4.61667 -1.88852 0
M  V30 8285 H 773.673 -4.35008 -4.2291 0
M  V30 8286 H 772.412 -3.21765 -3.66495 0
M  V30 8287 H 771.417 -5.02397 -2.23332 0
M  V30 8288 H 772.642 -6.17477 -2.82663 0
M  V30 8289 H 770.588 -4.73092 -4.54445 0
M  V30 8290 H 770.505 -6.38793 -4.04326 0
M  V30 8291 H 771.773 -5.87931 -5.11817 0
M  V30 8292 N 776.003 0.335068 -1.53997 0
M  V30 8293 C 776.966 1.39481 -1.81872 0
M  V30 8294 C 777.966 1.4524 -0.690078 0
M  V30 8295 O 779.156 1.45467 -0.958377 0
M  V30 8296 C 776.288 2.78329 -1.9684 0
M  V30 8297 H 777.481 1.16024 -2.76547 0
M  V30 8298 H 775.034 0.569926 -1.45539 0
M  V30 8299 H 775.769 3.07058 -1.04337 0
M  V30 8300 H 775.554 2.75544 -2.78958 0
M  V30 8301 H 777.044 3.55016 -2.19894 0
M  V30 8302 N 777.481 1.45874 0.596531 0
M  V30 8303 C 778.706 1.54247 1.38646 0
M  V30 8304 C 779.131 0.179571 1.87241 0
M  V30 8305 O 778.489 -0.837831 1.6078 0
M  V30 8306 C 778.537 2.54015 2.55946 0
M  V30 8307 O 777.641 2.06561 3.5694 0
M  V30 8308 H 776.982 0.519555 0.413471 0
M  V30 8309 H 779.512 1.91327 0.724936 0
M  V30 8310 H 779.522 2.73179 3.03047 0
M  V30 8311 H 778.197 3.52994 2.19928 0
M  V30 8312 H 776.774 1.97324 3.16414 0
M  V30 8313 N 778.959 -0.83999 1.33349 0
M  V30 8314 C 779.891 -1.95678 1.19344 0
M  V30 8315 C 780.904 -1.62322 0.124692 0
M  V30 8316 O 782.093 -1.74516 0.375012 0
M  V30 8317 C 779.193 -3.29133 0.807771 0
M  V30 8318 C 778.366 -3.9063 1.96792 0
M  V30 8319 C 777.425 -5.02438 1.56341 0
M  V30 8320 O 776.451 -5.21646 2.27759 0
M  V30 8321 N 777.653 -5.78612 0.467767 0
M  V30 8322 H 780.418 -2.08229 2.15548 0
M  V30 8323 H 777.979 -1.01566 1.26079 0
M  V30 8324 H 779.971 -4.01355 0.519282 0
M  V30 8325 H 778.541 -3.12535 -0.063555 0
M  V30 8326 H 777.761 -3.11011 2.4221 0
M  V30 8327 H 779.049 -4.2845 2.74422 0
M  V30 8328 H 778.447 -5.65559 -0.126324 0
M  V30 8329 H 777.004 -6.51362 0.238945 0
M  V30 8330 N 780.437 -1.16799 -1.0581 0
M  V30 8331 C 781.853 -0.913935 -1.30841 0
M  V30 8332 C 782.053 0.430439 -1.96849 0
M  V30 8333 O 781.109 1.16885 -2.23817 0
M  V30 8334 C 782.422 -2.06662 -2.18429 0
M  V30 8335 C 783.97 -2.10294 -2.31831 0
M  V30 8336 C 784.445 -3.2493 -3.22776 0
M  V30 8337 N 785.936 -3.24678 -3.30361 0
M  V30 8338 C 786.671 -4.10021 -4.00837 0
M  V30 8339 N 786.167 -5.05461 -4.73795 0
M  V30 8340 N 787.96 -3.97991 -3.96937 0
M  V30 8341 H 780.111 -2.03343 -0.613613 0
M  V30 8342 H 782.374 -0.88754 -0.333133 0
M  V30 8343 H 782.08 -3.03791 -1.77211 0
M  V30 8344 H 781.954 -2.01233 -3.19038 0
M  V30 8345 H 784.341 -1.13754 -2.72294 0
M  V30 8346 H 784.422 -2.19786 -1.30873 0
M  V30 8347 H 784.066 -4.21731 -2.83028 0
M  V30 8348 H 783.996 -3.12674 -4.23725 0
M  V30 8349 H 786.487 -2.55573 -2.78372 0
M  V30 8350 H 786.8 -5.66989 -5.25113 0
M  V30 8351 H 785.145 -5.09436 -4.72758 0
M  V30 8352 H 788.336 -3.2273 -3.39062 0
M  V30 8353 H 788.509 -4.64722 -4.51594 0
M  V30 8354 N 781.915 1.24427 -0.967243 0
M  V30 8355 C 783.164 1.91789 -0.624478 0
M  V30 8356 C 783.477 1.76448 0.844129 0
M  V30 8357 O 784.683 2.38495 1.2974 0
M  V30 8358 C 783.139 3.43743 -1.06626 0
M  V30 8359 C 782.747 3.67771 -2.55829 0
M  V30 8360 C 784.491 4.16958 -0.79662 0
M  V30 8361 C 782.398 5.13293 -2.93742 0
M  V30 8362 H 781.328 0.71811 -0.229856 0
M  V30 8363 H 783.979 1.41081 -1.17339 0
M  V30 8364 H 782.361 3.93484 -0.445663 0
M  V30 8365 H 783.535 3.28631 -3.23015 0
M  V30 8366 H 781.85 3.07841 -2.80398 0
M  V30 8367 H 784.447 5.24171 -1.05589 0
M  V30 8368 H 784.79 4.15442 0.267163 0
M  V30 8369 H 785.323 3.73164 -1.37816 0
M  V30 8370 H 782.062 5.19931 -3.9919 0
M  V30 8371 H 781.582 5.53433 -2.3124 0
M  V30 8372 H 783.261 5.81521 -2.83623 0
M  V30 8373 N 783.393 0.737304 1.3929 0
M  V30 8374 C 784.804 0.355966 1.83275 0
M  V30 8375 C 785.155 -1.11295 1.6158 0
M  V30 8376 O 784.28 -1.85871 1.10819 0
M  V30 8377 C 784.875 0.63931 3.32713 0
M  V30 8378 C 783.434 0.31144 3.75109 0
M  V30 8379 C 782.581 0.900765 2.62262 0
M  V30 8380 H 785.532 0.934763 1.28249 0
M  V30 8381 H 785.553 -0.0881293 3.80398 0
M  V30 8382 H 785.065 1.70847 3.48472 0
M  V30 8383 H 783.166 -0.751791 3.64937 0
M  V30 8384 H 783.279 0.795611 4.72448 0
M  V30 8385 H 781.643 0.327239 2.52589 0
M  V30 8386 H 782.426 1.97463 2.80826 0
M  V30 8387 N 784.871 -1.49948 0.485112 0
M  V30 8388 C 785.801 -2.31675 -0.291364 0
M  V30 8389 C 786.782 -1.39216 -0.977383 0
M  V30 8390 O 787.967 -1.68133 -0.971855 0
M  V30 8391 C 785.097 -3.19326 -1.36558 0
M  V30 8392 C 784.051 -4.2045 -0.800359 0
M  V30 8393 C 783.377 -4.96931 -1.97391 0
M  V30 8394 C 784.677 -5.21925 0.197867 0
M  V30 8395 H 786.371 -2.96839 0.390775 0
M  V30 8396 H 783.917 -1.42749 0.189375 0
M  V30 8397 H 785.87 -3.75304 -1.91638 0
M  V30 8398 H 784.594 -2.52074 -2.07668 0
M  V30 8399 H 783.253 -3.65594 -0.271428 0
M  V30 8400 H 782.901 -4.26141 -2.67232 0
M  V30 8401 H 782.601 -5.65344 -1.60187 0
M  V30 8402 H 784.125 -5.55749 -2.52935 0
M  V30 8403 H 785.539 -5.72691 -0.264239 0
M  V30 8404 H 783.936 -5.98138 0.484908 0
M  V30 8405 H 785.006 -4.71809 1.11912 0
M  V30 8406 N 786.349 -0.21828 -1.56081 0
M  V30 8407 C 787.281 0.725447 -2.17416 0
M  V30 8408 C 788.294 1.15995 -1.14233 0
M  V30 8409 O 789.483 1.09166 -1.41227 0
M  V30 8410 C 786.583 1.99401 -2.7403 0
M  V30 8411 C 785.756 1.7156 -4.02351 0
M  V30 8412 C 784.815 2.8309 -4.43561 0
M  V30 8413 O 783.841 2.51701 -5.10525 0
M  V30 8414 N 785.043 4.11972 -4.08973 0
M  V30 8415 H 787.808 0.200801 -2.99027 0
M  V30 8416 H 785.369 -0.0371514 -1.61857 0
M  V30 8417 H 787.361 2.73198 -2.98571 0
M  V30 8418 H 785.931 2.42923 -1.96742 0
M  V30 8419 H 785.151 0.814233 -3.85699 0
M  V30 8420 H 786.439 1.50385 -4.86068 0
M  V30 8421 H 785.837 4.40319 -3.55156 0
M  V30 8422 H 784.394 4.82323 -4.38415 0
M  V30 8423 N 787.827 1.57504 0.0551401 0
M  V30 8424 C 789.238 1.76626 0.604979 0
M  V30 8425 C 789.589 0.845978 1.77024 0
M  V30 8426 O 788.714 0.0341936 2.16373 0
M  V30 8427 C 789.309 3.203 1.10425 0
M  V30 8428 C 787.868 3.4071 1.59981 0
M  V30 8429 C 787.015 2.72258 0.526414 0
M  V30 8430 H 789.966 1.57775 -0.171072 0
M  V30 8431 H 789.987 3.25377 1.97256 0
M  V30 8432 H 789.499 3.87255 0.255939 0
M  V30 8433 H 787.6 2.78892 2.47083 0
M  V30 8434 H 787.713 4.49227 1.66528 0
M  V30 8435 H 786.077 2.35283 0.97539 0
M  V30 8436 H 786.86 3.41879 -0.311991 0
M  V30 8437 N 789.305 -0.326896 1.54172 0
M  V30 8438 C 790.255 -1.40319 1.79707 0
M  V30 8439 C 791.239 -1.47056 0.652938 0
M  V30 8440 O 792.431 -1.51645 0.91284 0
M  V30 8441 C 789.56 -2.77222 2.02491 0
M  V30 8442 C 788.646 -2.74811 3.23016 0
M  V30 8443 N 789.037 -2.42022 4.44138 0
M  V30 8444 C 787.335 -3.05943 3.24522 0
M  V30 8445 C 788.036 -2.48263 5.26061 0
M  V30 8446 N 787.012 -2.84567 4.63166 0
M  V30 8447 H 790.814 -1.13892 2.70935 0
M  V30 8448 H 788.328 -0.53536 1.53322 0
M  V30 8449 H 790.325 -3.54793 2.18923 0
M  V30 8450 H 788.985 -3.04582 1.12515 0
M  V30 8451 H 789.996 -2.14926 4.71197 0
M  V30 8452 H 786.673 -3.38367 2.44569 0
M  V30 8453 H 788.063 -2.2593 6.32776 0
M  V30 8454 N 790.784 -1.46188 -0.588786 0
M  V30 8455 C 792.032 -1.50885 -1.34455 0
M  V30 8456 C 792.353 -0.159555 -1.94346 0
M  V30 8457 O 791.623 0.813239 -1.78222 0
M  V30 8458 H 790.203 -0.555707 -0.499198 0
M  V30 8459 H 792.865 -1.82277 -0.690014 0
M  V30 8460 H 791.961 -2.25816 -2.15438 0
M  V30 8461 N 792.262 0.832906 -1.33792 0
M  V30 8462 C 793.673 1.40489 -1.22963 0
M  V30 8463 C 794.024 1.95633 0.149026 0
M  V30 8464 O 793.149 1.8928 1.04891 0
M  V30 8465 C 793.744 2.55387 -2.22627 0
M  V30 8466 C 792.303 3.08522 -2.15618 0
M  V30 8467 C 791.45 1.81347 -2.09782 0
M  V30 8468 H 794.401 0.638156 -1.45304 0
M  V30 8469 H 794.422 3.33193 -1.83746 0
M  V30 8470 H 793.934 2.15222 -3.22957 0
M  V30 8471 H 792.035 3.53217 -1.18611 0
M  V30 8472 H 792.148 3.6829 -3.0643 0
M  V30 8473 H 790.512 2.01839 -1.55349 0
M  V30 8474 H 791.295 1.43369 -3.1193 0
M  V30 8475 N 793.74 1.17359 1.05189 0
M  V30 8476 C 794.988 0.960087 1.77839 0
M  V30 8477 C 795.309 -0.512554 1.88143 0
M  V30 8478 O 794.579 -1.3721 1.39822 0
M  V30 8479 H 793.159 0.352234 0.658741 0
M  V30 8480 H 795.821 1.47834 1.27008 0
M  V30 8481 H 794.917 1.38843 2.79516 0
M  V30 8482 N 795.218 -1.23913 0.973828 0
M  V30 8483 C 796.148 -2.27453 0.527969 0
M  V30 8484 C 797.129 -1.6443 -0.435513 0
M  V30 8485 O 798.314 -1.9137 -0.330306 0
M  V30 8486 C 795.444 -3.4685 -0.176757 0
M  V30 8487 C 794.398 -4.22181 0.703352 0
M  V30 8488 C 793.724 -5.34534 -0.133215 0
M  V30 8489 C 795.024 -4.82865 1.99096 0
M  V30 8490 H 796.718 -2.65 1.3934 0
M  V30 8491 H 794.264 -1.27388 0.671446 0
M  V30 8492 H 796.217 -4.18424 -0.499934 0
M  V30 8493 H 794.941 -3.08346 -1.07659 0
M  V30 8494 H 793.6 -3.52416 1.00989 0
M  V30 8495 H 793.248 -4.92271 -1.03338 0
M  V30 8496 H 792.948 -5.85855 0.452494 0
M  V30 8497 H 794.472 -6.08933 -0.450924 0
M  V30 8498 H 795.886 -5.46481 1.73297 0
M  V30 8499 H 794.283 -5.44444 2.52389 0
M  V30 8500 H 795.353 -4.03977 2.68199 0
M  V30 8501 N 796.696 -0.74468 -1.38897 0
M  V30 8502 C 797.944 -0.296298 -1.99916 0
M  V30 8503 C 798.265 1.12325 -1.59399 0
M  V30 8504 O 797.535 1.76658 -0.846689 0
M  V30 8505 H 796.115 -0.106561 -0.73936 0
M  V30 8506 H 798.777 -0.956793 -1.69798 0
M  V30 8507 H 797.873 -0.352356 -3.10105 0
M  V30 8508 N 798.174 1.49689 -0.493057 0
M  V30 8509 C 799.399 2.07331 0.0535114 0
M  V30 8510 C 799.824 1.35196 1.30781 0
M  V30 8511 O 799.182 0.406246 1.7669 0
M  V30 8512 C 799.23 3.59364 0.29825 0
M  V30 8513 O 798.334 3.88819 1.37454 0
M  V30 8514 H 797.675 0.663612 -0.0227018 0
M  V30 8515 H 800.205 1.926 -0.690402 0
M  V30 8516 H 800.215 4.04515 0.532159 0
M  V30 8517 H 798.89 4.1128 -0.618207 0
M  V30 8518 H 797.467 3.55487 1.12621 0
M  V30 8519 N 799.652 0.226554 1.55963 0
M  V30 8520 C 800.877 -0.411527 2.03276 0
M  V30 8521 C 801.302 -1.52206 1.10521 0
M  V30 8522 O 800.66 -1.81054 0.0943217 0
M  V30 8523 C 800.708 -0.915694 3.4878 0
M  V30 8524 O 799.812 -2.02672 3.59163 0
M  V30 8525 H 799.153 -0.0924907 0.657527 0
M  V30 8526 H 801.683 0.346656 2.01642 0
M  V30 8527 H 801.693 -1.22421 3.892 0
M  V30 8528 H 800.368 -0.102915 4.15773 0
M  V30 8529 H 798.945 -1.72445 3.30632 0
M  V30 8530 O 801.169 -1.61246 0.0904713 0
M  V30 8531 H 801.86 -1.86788 -0.512833 0
M  V30 END ATOM
M  V30 BEGIN BOND
M  V30 END BOND
M  V30 END CTAB
M  END
$$$$
