drugbank_target|Q13224 Glutamate receptor ionotropic, NMDA 2B (DB00193; DB00289; DB00312; DB00333; DB00418; DB00843; DB00874; DB01174; DB01708; DB04896; DB06738; DB11823)
 OpenBabel12092119313D

  0  0  0     0  0            999 V3000
M  V30 BEGIN CTAB
M  V30 COUNTS 23107 23384 0 0 0
M  V30 BEGIN ATOM
M  V30 1 H -0.908 1.98254 -0.117106 0
M  V30 2 N 0 1.576 0 0
M  V30 3 C 0.933 2.03868 1.02534 0
M  V30 4 C 1.911 0.928543 1.3348 0
M  V30 5 O 3.095 1.19667 1.45644 0
M  V30 6 C 0.222 2.43627 2.35294 0
M  V30 7 C -0.732 3.65373 2.2001 0
M  V30 8 S 0.101 5.13292 1.52614 0
M  V30 9 C 1.257 5.56322 2.86805 0
M  V30 10 H 1.49 2.90518 0.631377 0
M  V30 11 H -0.977 1.52953 0.210867 0
M  V30 12 H 0.981 2.67203 3.11629 0
M  V30 13 H -0.358 1.57376 2.7183 0
M  V30 14 H -1.165 3.90944 3.18086 0
M  V30 15 H -1.563 3.418 1.51819 0
M  V30 16 H 0.729 5.58782 3.83104 0
M  V30 17 H 1.672 6.56266 2.65933 0
M  V30 18 H 2.08 4.83886 2.90714 0
M  V30 19 N 1.4781 -0.272755 1.55222 0
M  V30 20 C 2.4251 -1.33716 1.88119 0
M  V30 21 C 3.3951 -1.49066 0.73271 0
M  V30 22 O 4.5801 -1.63469 0.984002 0
M  V30 23 C 1.7201 -2.69238 2.15882 0
M  V30 24 C 0.8331 -2.62108 3.43399 0
M  V30 25 C -0.0319 -3.89811 3.60861 0
M  V30 26 C -0.9929 -3.77193 4.8207 0
M  V30 27 N -1.8559 -4.9673 4.96189 0
M  V30 28 H 2.9841 -1.04962 2.78903 0
M  V30 29 H 0.5211 -0.507088 1.38083 0
M  V30 30 H 2.4791 -3.48089 2.29978 0
M  V30 31 H 1.1091 -2.96194 1.28331 0
M  V30 32 H 0.1611 -1.74967 3.37773 0
M  V30 33 H 1.4731 -2.48685 4.32386 0
M  V30 34 H 0.6271 -4.77103 3.74777 0
M  V30 35 H -0.6339 -4.06102 2.7006 0
M  V30 36 H -1.6289 -2.88284 4.68159 0
M  V30 37 H -0.4039 -3.62421 5.74307 0
M  V30 38 H -2.4579 -5.13431 4.08319 0
M  V30 39 H -2.5409 -4.85839 5.79221 0
M  V30 40 H -1.2729 -5.85594 5.1449 0
M  V30 41 N 2.9562 -1.48159 -0.537278 0
M  V30 42 C 4.3672 -1.49429 -1.11928 0
M  V30 43 C 4.7182 -0.26 -1.9447 0
M  V30 44 O 3.8432 0.633489 -2.0692 0
M  V30 45 C 4.4382 -2.70758 -2.03656 0
M  V30 46 C 2.9972 -2.74923 -2.57088 0
M  V30 47 C 2.1442 -2.42835 -1.3389 0
M  V30 48 H 5.0952 -1.55381 -0.322886 0
M  V30 49 H 5.1162 -2.48861 -2.87834 0
M  V30 50 H 4.6282 -3.60575 -1.43553 0
M  V30 51 H 2.7292 -1.89296 -3.20933 0
M  V30 52 H 2.8422 -3.76157 -2.9672 0
M  V30 53 H 1.2062 -1.93836 -1.65226 0
M  V30 54 H 1.9892 -3.34884 -0.755504 0
M  V30 55 N 4.4343 0.785586 -1.36625 0
M  V30 56 C 5.8503 1.08419 -1.17122 0
M  V30 57 C 6.0503 2.015 0.00208491 0
M  V30 58 O 5.1063 2.43551 0.666278 0
M  V30 59 C 6.4193 1.69498 -2.48377 0
M  V30 60 C 7.9673 1.81821 -2.54775 0
M  V30 61 C 8.4423 2.46315 -3.86126 0
M  V30 62 N 9.9333 2.53779 -3.87492 0
M  V30 63 C 10.6683 3.045 -4.85868 0
M  V30 64 N 10.1643 3.55499 -5.94637 0
M  V30 65 N 11.9573 3.03247 -4.73284 0
M  V30 66 H 4.1083 0.167264 -2.1174 0
M  V30 67 H 6.3713 0.13682 -0.938075 0
M  V30 68 H 6.0773 1.08571 -3.34522 0
M  V30 69 H 5.9513 2.6896 -2.64462 0
M  V30 70 H 8.3383 2.41884 -1.69045 0
M  V30 71 H 8.4193 0.811532 -2.42586 0
M  V30 72 H 8.0633 1.86895 -4.72263 0
M  V30 73 H 7.9933 3.47561 -3.95612 0
M  V30 74 H 10.4843 2.17672 -3.08913 0
M  V30 75 H 10.7973 3.92562 -6.65669 0
M  V30 76 H 9.1423 3.5364 -5.98301 0
M  V30 77 H 12.3333 2.62696 -3.87438 0
M  V30 78 H 12.5063 3.42467 -5.50109 0
M  V30 79 N 5.9124 1.20967 1.01018 0
M  V30 80 C 6.8754 0.965918 2.07853 0
M  V30 81 C 7.8754 -0.0610545 1.60684 0
M  V30 82 O 9.0654 0.175681 1.73312 0
M  V30 83 C 6.1974 0.455513 3.37843 0
M  V30 84 H 7.3904 1.91365 2.3091 0
M  V30 85 H 4.9434 1.02594 1.17916 0
M  V30 86 H 5.6784 -0.497381 3.20463 0
M  V30 87 H 5.4634 1.19622 3.73407 0
M  V30 88 H 6.9534 0.304667 4.16487 0
M  V30 89 N 7.3905 -1.2043 1.01659 0
M  V30 90 C 8.3005 -2.2689 0.596484 0
M  V30 91 C 9.3165 -1.70107 -0.36599 0
M  V30 92 O 10.4925 -2.00117 -0.226942 0
M  V30 93 C 7.5575 -3.4665 -0.0586659 0
M  V30 94 C 6.6185 -4.18662 0.949751 0
M  V30 95 C 5.8515 -5.32705 0.32577 0
M  V30 96 O 6.0745 -5.63656 -0.874509 0
M  V30 97 O 5.0085 -5.92803 1.04249 0
M  V30 98 H 8.8345 -2.65041 1.4828 0
M  V30 99 H 6.4195 -1.27048 0.786082 0
M  V30 100 H 8.3015 -4.19256 -0.424564 0
M  V30 101 H 6.9765 -3.10375 -0.91918 0
M  V30 102 H 5.8835 -3.48229 1.36702 0
M  V30 103 H 7.2165 -4.58878 1.78023 0
M  V30 104 N 8.8686 -0.792821 -1.36206 0
M  V30 105 C 10.1086 -0.372238 -2.00982 0
M  V30 106 C 10.4726 1.03749 -1.61555 0
M  V30 107 O 11.6736 1.55934 -2.18948 0
M  V30 108 C 9.9446 -0.534566 -3.5338 0
M  V30 109 S 11.5036 -0.202365 -4.38333 0
M  V30 110 H 8.3216 -0.142044 -0.696667 0
M  V30 111 H 10.9236 -1.03206 -1.66039 0
M  V30 112 H 9.6276 -1.5608 -3.79562 0
M  V30 113 H 9.1586 0.141065 -3.93147 0
M  V30 114 H 11.1736 0.994869 -4.86124 0
M  V30 115 N 10.3467 1.47872 -0.545128 0
M  V30 116 C 11.5867 2.04391 -0.0187854 0
M  V30 117 C 11.9507 1.41162 1.30144 0
M  V30 118 O 13.1517 1.88656 1.91474 0
M  V30 119 C 11.4227 3.57299 0.0850867 0
M  V30 120 S 12.9817 4.35221 0.559302 0
M  V30 121 H 9.7997 0.710737 -0.0193301 0
M  V30 122 H 12.4017 1.81395 -0.729125 0
M  V30 123 H 11.1057 4.00847 -0.880351 0
M  V30 124 H 10.6367 3.84773 0.819348 0
M  V30 125 H 12.6517 4.61571 1.82118 0
M  V30 126 N 11.8248 0.280983 1.55075 0
M  V30 127 C 13.0498 -0.340154 2.04592 0
M  V30 128 C 13.4748 -1.48246 1.15779 0
M  V30 129 O 12.8328 -1.80614 0.15761 0
M  V30 130 C 12.8808 -0.793104 3.5177 0
M  V30 131 O 11.9848 -1.89981 3.66034 0
M  V30 132 H 11.3258 -0.0694289 0.66036 0
M  V30 133 H 13.8558 0.416993 2.00306 0
M  V30 134 H 13.8658 -1.08729 3.93245 0
M  V30 135 H 12.5408 0.0426163 4.15878 0
M  V30 136 H 11.1178 -1.60771 3.36463 0
M  V30 137 N 13.3029 -1.57598 0.00835791 0
M  V30 138 C 14.7139 -1.7892 -0.53333 0
M  V30 139 C 15.0649 -0.916609 -1.73473 0
M  V30 140 O 14.1899 -0.121336 -2.1606 0
M  V30 141 C 14.7849 -3.24488 -0.974313 0
M  V30 142 C 13.3439 -3.46878 -1.46125 0
M  V30 143 C 12.4909 -2.74157 -0.416302 0
M  V30 144 H 15.4419 -1.56958 0.234495 0
M  V30 145 H 15.4629 -3.3306 -1.83988 0
M  V30 146 H 14.9749 -3.87972 -0.099718 0
M  V30 147 H 13.0759 -2.8862 -2.35646 0
M  V30 148 H 13.1889 -4.55572 -1.48295 0
M  V30 149 H 11.5529 -2.39022 -0.87981 0
M  V30 150 H 12.3359 -3.40345 0.44947 0
M  V30 151 N 14.781 0.264519 -1.55364 0
M  V30 152 C 15.728 1.32717 -1.88825 0
M  V30 153 C 16.698 1.48675 -0.740605 0
M  V30 154 O 17.883 1.62945 -0.992657 0
M  V30 155 C 15.023 2.68089 -2.17307 0
M  V30 156 C 14.136 2.60284 -3.44785 0
M  V30 157 C 13.271 3.87892 -3.62924 0
M  V30 158 C 12.31 3.74631 -4.84064 0
M  V30 159 N 11.447 4.94092 -4.98816 0
M  V30 160 H 16.287 1.03481 -2.79456 0
M  V30 161 H 13.824 0.499757 -1.3835 0
M  V30 162 H 15.782 3.46864 -2.31821 0
M  V30 163 H 14.412 2.95509 -1.299 0
M  V30 164 H 13.464 1.73173 -3.38697 0
M  V30 165 H 14.776 2.46388 -4.33698 0
M  V30 166 H 13.93 4.75109 -3.77302 0
M  V30 167 H 12.669 4.04664 -2.7221 0
M  V30 168 H 11.674 2.85797 -4.69681 0
M  V30 169 H 12.899 3.5937 -5.76221 0
M  V30 170 H 10.845 5.11259 -4.11036 0
M  V30 171 H 10.762 4.8276 -5.81789 0
M  V30 172 H 12.03 5.82857 -5.17588 0
M  V30 173 N 16.2591 1.48442 0.529413 0
M  V30 174 C 17.5061 1.56488 1.28521 0
M  V30 175 C 17.8341 0.239042 1.93025 0
M  V30 176 O 17.0891 -0.770713 1.79885 0
M  V30 177 C 17.3881 2.6523 2.39558 0
M  V30 178 C 17.0541 4.07648 1.92702 0
M  V30 179 C 15.7161 4.46411 1.79641 0
M  V30 180 C 18.0681 4.96896 1.573 0
M  V30 181 C 15.3961 5.72226 1.29514 0
M  V30 182 C 17.7481 6.23202 1.08636 0
M  V30 183 C 16.4121 6.60821 0.941919 0
M  V30 184 H 15.6821 0.572631 0.470292 0
M  V30 185 H 18.3291 1.82161 0.59072 0
M  V30 186 H 16.6341 2.33419 3.14679 0
M  V30 187 H 18.3311 2.68671 2.97686 0
M  V30 188 H 14.9211 3.77036 2.03819 0
M  V30 189 H 19.1051 4.67626 1.66251 0
M  V30 190 H 14.3611 6.00097 1.17019 0
M  V30 191 H 18.5351 6.91753 0.803136 0
M  V30 192 H 16.1621 7.58198 0.5513 0
M  V30 193 N 17.7372 -0.778329 1.37039 0
M  V30 194 C 18.9832 -1.53817 1.33086 0
M  V30 195 C 19.3382 -1.92208 -0.0860346 0
M  V30 196 O 18.6312 -1.60713 -1.04316 0
M  V30 197 C 18.8252 -2.81845 2.19768 0
M  V30 198 C 18.6542 -2.55967 3.69744 0
M  V30 199 C 17.4242 -2.50428 4.38878 0
M  V30 200 C 19.6222 -2.2441 4.62758 0
M  V30 201 N 17.6042 -2.16564 5.74433 0
M  V30 202 C 18.9752 -2.0063 5.86641 0
M  V30 203 C 21.0302 -2.1051 4.5121 0
M  V30 204 C 19.7332 -1.64354 7.00272 0
M  V30 205 C 21.7592 -1.75634 5.64718 0
M  V30 206 C 21.1212 -1.52709 6.87648 0
M  V30 207 H 17.2202 -0.563434 0.542279 0
M  V30 208 H 19.8042 -0.908617 1.72198 0
M  V30 209 H 17.9752 -3.42649 1.82883 0
M  V30 210 H 19.7072 -3.47682 2.07122 0
M  V30 211 H 16.4622 -2.66056 3.91805 0
M  V30 212 H 16.8862 -2.02348 6.46053 0
M  V30 213 H 21.5282 -2.26919 3.56746 0
M  V30 214 H 19.2462 -1.46683 7.94676 0
M  V30 215 H 22.8322 -1.65546 5.57751 0
M  V30 216 H 21.7122 -1.2612 7.73992 0
M  V30 217 N 19.2153 -1.21501 -1.00376 0
M  V30 218 C 20.1453 -0.999478 -2.11028 0
M  V30 219 C 21.1263 0.0759671 -1.6993 0
M  V30 220 O 22.3113 -0.0841106 -1.94018 0
M  V30 221 C 19.4413 -0.564709 -3.42678 0
M  V30 222 C 18.3953 -1.58486 -3.97576 0
M  V30 223 C 17.7213 -1.00628 -5.25146 0
M  V30 224 C 19.0213 -2.97204 -4.29496 0
M  V30 225 H 20.7153 -1.92495 -2.29317 0
M  V30 226 H 18.2613 -0.92693 -1.102 0
M  V30 227 H 20.2143 -0.401091 -4.19487 0
M  V30 228 H 18.9383 0.396411 -3.24185 0
M  V30 229 H 17.5973 -1.73606 -3.22888 0
M  V30 230 H 17.2453 -0.0368439 -5.02987 0
M  V30 231 H 16.9453 -1.68771 -5.62841 0
M  V30 232 H 18.4693 -0.854015 -6.04598 0
M  V30 233 H 19.8833 -2.8552 -4.97143 0
M  V30 234 H 18.2803 -3.62372 -4.78338 0
M  V30 235 H 19.3503 -3.47956 -3.3772 0
M  V30 236 N 20.6934 1.19889 -1.02296 0
M  V30 237 C 21.9394 1.89701 -0.717033 0
M  V30 238 C 22.2724 1.7905 0.751989 0
M  V30 239 O 21.5474 1.17891 1.547 0
M  V30 240 C 21.8304 3.40858 -1.16136 0
M  V30 241 C 21.6834 3.60411 -2.69117 0
M  V30 242 C 23.0024 4.33876 -0.737549 0
M  V30 243 H 20.1214 0.688874 -0.261957 0
M  V30 244 H 22.7634 1.41154 -1.27183 0
M  V30 245 H 20.9134 3.82335 -0.689342 0
M  V30 246 H 22.5854 3.28145 -3.2422 0
M  V30 247 H 20.8284 3.03665 -3.0979 0
M  V30 248 H 21.4994 4.66396 -2.95261 0
M  V30 249 H 23.9754 4.00081 -1.14344 0
M  V30 250 H 22.8514 5.38242 -1.0764 0
M  V30 251 H 23.1124 4.40628 0.360436 0
M  V30 252 N 22.1715 0.800033 1.35784 0
M  V30 253 C 23.1015 0.220184 2.3246 0
M  V30 254 C 24.0825 -0.65073 1.57161 0
M  V30 255 O 25.2675 -0.582359 1.85263 0
M  V30 256 C 22.3975 -0.637353 3.41402 0
M  V30 257 C 21.3515 0.134531 4.27789 0
M  V30 258 C 20.6775 -0.844285 5.27992 0
M  V30 259 C 21.9775 1.32979 5.05088 0
M  V30 260 H 23.6715 1.02787 2.81203 0
M  V30 261 H 21.2175 0.495717 1.35199 0
M  V30 262 H 23.1705 -1.05302 4.08031 0
M  V30 263 H 21.8945 -1.47785 2.91251 0
M  V30 264 H 20.5535 0.531296 3.6273 0
M  V30 265 H 20.2015 -1.68011 4.74111 0
M  V30 266 H 19.9015 -0.332184 5.8666 0
M  V30 267 H 21.4255 -1.2583 5.97494 0
M  V30 268 H 22.8395 0.98934 5.64699 0
M  V30 269 H 21.2365 1.77593 5.7322 0
M  V30 270 H 22.3065 2.11978 4.36111 0
M  V30 271 N 23.6496 -1.47581 0.552962 0
M  V30 272 C 24.6126 -2.28439 -0.186605 0
M  V30 273 C 25.6126 -1.36706 -0.84665 0
M  V30 274 O 26.8026 -1.59378 -0.703164 0
M  V30 275 C 23.9346 -3.16264 -1.2724 0
M  V30 276 H 25.1276 -2.95294 0.523609 0
M  V30 277 H 22.6806 -1.532 0.309745 0
M  V30 278 H 23.4156 -2.54091 -2.01514 0
M  V30 279 H 23.2006 -3.83769 -0.803968 0
M  V30 280 H 24.6906 -3.77198 -1.79196 0
M  V30 281 N 25.1277 -0.289203 -1.54924 0
M  V30 282 C 26.3737 0.323998 -2.00195 0
M  V30 283 C 26.7067 1.54441 -1.17735 0
M  V30 284 O 25.9817 1.92875 -0.250878 0
M  V30 285 C 26.2647 0.692276 -3.53383 0
M  V30 286 C 26.1177 -0.536457 -4.46589 0
M  V30 287 C 27.4367 1.52335 -4.12895 0
M  V30 288 H 24.5557 0.116289 -0.727768 0
M  V30 289 H 27.1977 -0.398954 -1.85764 0
M  V30 290 H 25.3477 1.30822 -3.65811 0
M  V30 291 H 27.0197 -1.17499 -4.46085 0
M  V30 292 H 25.2627 -1.17192 -4.1767 0
M  V30 293 H 25.9337 -0.234806 -5.515 0
M  V30 294 H 28.4097 1.00302 -4.0383 0
M  V30 295 H 27.2857 1.74982 -5.20262 0
M  V30 296 H 27.5467 2.50886 -3.64018 0
M  V30 297 N 26.6058 1.57591 -0.0167156 0
M  V30 298 C 27.5358 2.12496 0.967858 0
M  V30 299 C 28.5168 1.03807 1.34752 0
M  V30 300 O 29.7018 1.31577 1.42833 0
M  V30 301 C 26.8318 2.64194 2.25431 0
M  V30 302 C 25.7858 3.77559 2.01576 0
M  V30 303 C 25.1118 4.15636 3.36379 0
M  V30 304 C 26.4118 5.04151 1.36489 0
M  V30 305 H 28.1058 2.95013 0.510643 0
M  V30 306 H 25.6518 1.41915 0.244181 0
M  V30 307 H 27.6048 3.01236 2.94678 0
M  V30 308 H 26.3288 1.78821 2.73296 0
M  V30 309 H 24.9878 3.40937 1.34751 0
M  V30 310 H 24.6358 3.27263 3.81979 0
M  V30 311 H 24.3358 4.92022 3.21229 0
M  V30 312 H 25.8598 4.5525 4.06915 0
M  V30 313 H 27.2738 5.38857 1.95718 0
M  V30 314 H 25.6708 5.85453 1.31776 0
M  V30 315 H 26.7408 4.83733 0.336219 0
M  V30 316 N 28.0839 -0.256276 1.55502 0
M  V30 317 C 29.0469 -1.30047 1.88734 0
M  V30 318 C 30.0469 -1.4154 0.763086 0
M  V30 319 O 31.2369 -1.40403 1.03115 0
M  V30 320 C 28.3689 -2.67953 2.10747 0
M  V30 321 H 29.5619 -1.01802 2.82093 0
M  V30 322 H 27.1149 -0.495134 1.4825 0
M  V30 323 H 27.8499 -3.01351 1.19825 0
M  V30 324 H 27.6349 -2.60993 2.92617 0
M  V30 325 H 29.1249 -3.43368 2.37673 0
M  V30 326 N 29.562 -1.4872 -0.521534 0
M  V30 327 C 30.808 -1.574 -1.27879 0
M  V30 328 C 31.141 -0.250817 -1.92573 0
M  V30 329 O 30.416 0.743934 -1.79711 0
M  V30 330 C 30.699 -2.71843 -2.36164 0
M  V30 331 C 30.552 -4.13893 -1.76105 0
M  V30 332 C 31.871 -2.82008 -3.37875 0
M  V30 333 H 28.99 -0.572941 -0.463581 0
M  V30 334 H 31.632 -1.80927 -0.580119 0
M  V30 335 H 29.782 -2.51914 -2.95756 0
M  V30 336 H 31.454 -4.45284 -1.20499 0
M  V30 337 H 29.697 -4.20498 -1.06601 0
M  V30 338 H 30.368 -4.89804 -2.5455 0
M  V30 339 H 32.844 -3.00086 -2.88249 0
M  V30 340 H 31.72 -3.63796 -4.11028 0
M  V30 341 H 31.981 -1.90511 -3.98946 0
M  V30 342 N 31.0401 0.771051 -1.3745 0
M  V30 343 C 32.2651 1.56529 -1.36065 0
M  V30 344 C 32.6901 1.88029 0.0515859 0
M  V30 345 O 32.0481 1.49282 1.02882 0
M  V30 346 C 32.0961 2.85187 -2.20683 0
M  V30 347 O 31.2001 3.79593 -1.61193 0
M  V30 348 H 30.5411 0.47411 -0.464883 0
M  V30 349 H 33.0711 0.954269 -1.80983 0
M  V30 350 H 33.0811 3.34283 -2.33921 0
M  V30 351 H 31.7561 2.61588 -3.23334 0
M  V30 352 H 30.3331 3.38239 -1.56999 0
M  V30 353 N 32.5182 1.22032 0.997298 0
M  V30 354 C 33.7662 1.04016 1.73278 0
M  V30 355 C 34.0872 -0.426255 1.90284 0
M  V30 356 O 33.3572 -1.30694 1.45931 0
M  V30 357 H 31.9372 0.381897 0.642 0
M  V30 358 H 34.5992 1.5347 1.20137 0
M  V30 359 H 33.6952 1.51441 2.72896 0
M  V30 360 N 33.9963 -1.19345 1.0293 0
M  V30 361 C 35.2213 -1.93538 0.745511 0
M  V30 362 C 35.6463 -1.75007 -0.689511 0
M  V30 363 O 35.0043 -1.05265 -1.47611 0
M  V30 364 C 35.0523 -3.43336 1.10239 0
M  V30 365 O 34.1563 -4.11806 0.221289 0
M  V30 366 H 33.4973 -0.604193 0.275404 0
M  V30 367 H 36.0273 -1.5141 1.37609 0
M  V30 368 H 36.0373 -3.94004 1.05947 0
M  V30 369 H 34.7123 -3.56146 2.14786 0
M  V30 370 H 33.2893 -3.715 0.322842 0
M  V30 371 N 35.4744 -0.807222 -1.35358 0
M  V30 372 C 36.8904 -0.491038 -1.51858 0
M  V30 373 C 37.0904 0.987648 -1.75635 0
M  V30 374 O 36.1464 1.77265 -1.79815 0
M  V30 375 C 37.4594 -1.33695 -2.69344 0
M  V30 376 C 39.0074 -1.33246 -2.83222 0
M  V30 377 C 39.4824 -2.1625 -4.03733 0
M  V30 378 N 40.9734 -2.1379 -4.10911 0
M  V30 379 C 41.7084 -2.74772 -5.03277 0
M  V30 380 N 41.2044 -3.44684 -6.0097 0
M  V30 381 N 42.9974 -2.6441 -4.96028 0
M  V30 382 H 35.1484 -1.76485 -1.18181 0
M  V30 383 H 37.4114 -0.751199 -0.578276 0
M  V30 384 H 37.1174 -2.38634 -2.58354 0
M  V30 385 H 36.9914 -0.990618 -3.6396 0
M  V30 386 H 39.3784 -0.290911 -2.93663 0
M  V30 387 H 39.4594 -1.71866 -1.89461 0
M  V30 388 H 39.1034 -3.20445 -3.94052 0
M  V30 389 H 39.0334 -1.74989 -4.96675 0
M  V30 390 H 41.5244 -1.62923 -3.40976 0
M  V30 391 H 41.8374 -3.88501 -6.68047 0
M  V30 392 H 40.1824 -3.48788 -6.01142 0
M  V30 393 H 43.3734 -2.0938 -4.18662 0
M  V30 394 H 43.5464 -3.12225 -5.6782 0
M  V30 395 N 36.9525 1.47285 -0.560781 0
M  V30 396 C 37.9155 2.28535 0.174488 0
M  V30 397 C 38.9155 1.37153 0.839388 0
M  V30 398 O 40.1055 1.59748 0.694702 0
M  V30 399 C 37.2375 3.16934 1.25561 0
M  V30 400 H 38.4305 2.95012 -0.539262 0
M  V30 401 H 35.9835 1.53034 -0.317865 0
M  V30 402 H 36.7185 2.55157 2.00164 0
M  V30 403 H 36.5035 3.8419 0.783604 0
M  V30 404 H 37.9935 3.78143 1.77193 0
M  V30 405 N 38.4306 0.297415 1.54768 0
M  V30 406 C 39.8466 -0.0560823 1.59501 0
M  V30 407 C 40.0466 -1.52725 1.31444 0
M  V30 408 O 39.1026 -2.27947 1.08611 0
M  V30 409 C 40.4156 0.338631 2.98787 0
M  V30 410 C 41.9636 0.287097 3.11681 0
M  V30 411 C 42.4386 0.656579 4.53269 0
M  V30 412 N 43.9296 0.608977 4.59179 0
M  V30 413 C 44.6646 0.867385 5.66802 0
M  V30 414 N 44.1606 1.19157 6.82476 0
M  V30 415 N 45.9536 0.794687 5.56454 0
M  V30 416 H 38.1046 1.25624 1.71267 0
M  V30 417 H 40.3676 0.509057 0.799728 0
M  V30 418 H 40.0736 1.36263 3.2423 0
M  V30 419 H 39.9476 -0.309508 3.75928 0
M  V30 420 H 42.3346 -0.727649 2.85988 0
M  V30 421 H 42.4156 0.969809 2.36703 0
M  V30 422 H 42.0596 1.66912 4.7969 0
M  V30 423 H 41.9896 -0.0481649 5.26578 0
M  V30 424 H 44.4806 0.369198 3.76092 0
M  V30 425 H 44.7936 1.37482 7.60473 0
M  V30 426 H 43.1386 1.22958 6.84037 0
M  V30 427 H 46.3296 0.541098 4.64962 0
M  V30 428 H 46.5026 0.999445 6.40246 0
M  V30 429 N 39.9087 -1.5758 0.0250728 0
M  V30 430 C 41.1337 -1.96337 -0.668317 0
M  V30 431 C 41.5587 -0.901314 -1.651 0
M  V30 432 O 40.9167 0.138187 -1.80773 0
M  V30 433 C 40.9647 -3.34191 -1.35457 0
M  V30 434 O 40.0687 -3.30269 -2.46974 0
M  V30 435 H 39.4097 -0.640281 -0.175887 0
M  V30 436 H 41.9397 -2.0442 0.0857224 0
M  V30 437 H 41.9497 -3.70331 -1.71228 0
M  V30 438 H 40.6247 -4.11036 -0.634218 0
M  V30 439 H 39.2017 -3.05841 -2.13344 0
M  V30 440 N 41.3868 0.248026 -1.55636 0
M  V30 441 C 42.3188 1.32993 -1.8667 0
M  V30 442 C 43.3318 1.44345 -0.752877 0
M  V30 443 O 44.5208 1.45715 -1.03098 0
M  V30 444 C 41.6208 2.70863 -2.03682 0
M  V30 445 C 40.7938 2.81792 -3.34532 0
M  V30 446 C 39.8528 4.005 -3.41301 0
M  V30 447 O 38.8788 3.9008 -4.14519 0
M  V30 448 N 40.0808 5.13618 -2.70512 0
M  V30 449 H 42.8458 1.06707 -2.8006 0
M  V30 450 H 40.4068 0.438129 -1.55859 0
M  V30 451 H 42.3988 3.48612 -2.05553 0
M  V30 452 H 40.9688 2.89862 -1.17041 0
M  V30 453 H 40.1888 1.90729 -3.44987 0
M  V30 454 H 41.4768 2.86043 -4.20781 0
M  V30 455 H 40.8748 5.24975 -2.10755 0
M  V30 456 H 39.4318 5.89505 -2.78077 0
M  V30 457 N 42.8649 1.48995 0.513639 0
M  V30 458 C 43.8119 1.6473 1.61656 0
M  V30 459 C 44.7819 0.488984 1.58739 0
M  V30 460 O 45.9669 0.714478 1.76918 0
M  V30 461 C 43.1069 1.7082 2.99858 0
M  V30 462 C 42.2199 2.9787 3.12885 0
M  V30 463 C 41.3549 2.95017 4.41744 0
M  V30 464 C 40.3939 4.16702 4.48359 0
M  V30 465 N 39.5309 4.11832 5.68629 0
M  V30 466 H 44.3709 2.58909 1.47547 0
M  V30 467 H 41.9079 1.28382 0.71808 0
M  V30 468 H 43.8659 1.72331 3.79944 0
M  V30 469 H 42.4959 0.801181 3.12699 0
M  V30 470 H 41.5479 3.06029 2.25944 0
M  V30 471 H 42.8599 3.8786 3.13633 0
M  V30 472 H 42.0139 2.95021 5.30139 0
M  V30 473 H 40.7529 2.02784 4.43542 0
M  V30 474 H 39.7579 4.16955 3.58369 0
M  V30 475 H 40.9829 5.10113 4.48287 0
M  V30 476 H 38.9289 3.22428 5.71293 0
M  V30 477 H 38.8459 4.95543 5.7094 0
M  V30 478 H 40.1139 4.1592 6.59266 0
M  V30 479 N 44.343 -0.763751 1.37857 0
M  V30 480 C 45.568 -1.55805 1.36893 0
M  V30 481 C 45.993 -1.88054 -0.0416135 0
M  V30 482 O 45.351 -1.49825 -1.02089 0
M  V30 483 C 45.399 -2.84012 2.22192 0
M  V30 484 O 44.503 -3.78732 1.63204 0
M  V30 485 H 43.844 -0.471638 0.46739 0
M  V30 486 H 46.374 -0.944657 1.81487 0
M  V30 487 H 46.384 -3.33037 2.35691 0
M  V30 488 H 45.059 -2.59869 3.24716 0
M  V30 489 H 43.636 -3.37402 1.58791 0
M  V30 490 N 45.8211 -1.22559 -0.990812 0
M  V30 491 C 47.2321 -1.04791 -1.54518 0
M  V30 492 C 47.5831 0.387998 -1.92325 0
M  V30 493 O 46.7081 1.27328 -1.74976 0
M  V30 494 C 47.3031 -1.896 -2.80779 0
M  V30 495 C 45.8621 -1.76124 -3.32652 0
M  V30 496 C 45.0091 -1.8594 -2.05722 0
M  V30 497 H 47.9601 -1.36374 -0.811662 0
M  V30 498 H 47.9811 -1.41464 -3.53225 0
M  V30 499 H 47.4931 -2.94101 -2.53231 0
M  V30 500 H 45.5941 -0.743643 -3.65104 0
M  V30 501 H 45.7071 -2.58913 -4.03114 0
M  V30 502 H 44.0711 -1.29403 -2.19379 0
M  V30 503 H 44.8541 -2.91976 -1.80568 0
M  V30 504 N 47.2992 1.18797 -1.03562 0
M  V30 505 C 48.7102 1.70322 -0.764676 0
M  V30 506 C 49.0612 1.82708 0.714996 0
M  V30 507 O 48.1862 1.50299 1.55689 0
M  V30 508 C 48.7812 3.09356 -1.38145 0
M  V30 509 C 47.3402 3.58114 -1.15895 0
M  V30 510 C 46.4872 2.34798 -1.4753 0
M  V30 511 H 49.4382 1.03543 -1.20268 0
M  V30 512 H 49.4592 3.72378 -0.781977 0
M  V30 513 H 48.9712 3.00309 -2.45837 0
M  V30 514 H 47.0722 3.72464 -0.100544 0
M  V30 515 H 47.1852 4.4184 -1.8524 0
M  V30 516 H 45.5492 2.38464 -0.894829 0
M  V30 517 H 46.3322 2.28375 -2.56319 0
M  V30 518 N 48.7773 0.814389 1.34928 0
M  V30 519 C 50.0023 0.410097 2.03305 0
M  V30 520 C 50.4273 -0.973464 1.60951 0
M  V30 521 O 49.7853 -1.63185 0.789964 0
M  V30 522 C 49.8333 0.51049 3.56968 0
M  V30 523 O 48.9373 -0.473035 4.09678 0
M  V30 524 H 48.2783 0.170088 0.641846 0
M  V30 525 H 50.8083 1.10244 1.72358 0
M  V30 526 H 50.8183 0.383135 4.06197 0
M  V30 527 H 49.4933 1.51963 3.87144 0
M  V30 528 H 48.0703 -0.305272 3.71648 0
M  V30 529 N 50.2554 -1.46986 0.568584 0
M  V30 530 C 51.5044 -2.01646 0.0465894 0
M  V30 531 C 51.8174 -1.44721 -1.31587 0
M  V30 532 O 53.0234 -1.91113 -1.92842 0
M  V30 533 C 51.4794 -3.59885 0.032752 0
M  V30 534 C 51.0874 -4.25804 1.39266 0
M  V30 535 C 52.8314 -4.22255 -0.436038 0
M  V30 536 C 50.7384 -5.76081 1.33732 0
M  V30 537 H 49.6684 -0.753876 0.013647 0
M  V30 538 H 52.3194 -1.68864 0.718131 0
M  V30 539 H 50.7014 -3.8968 -0.704669 0
M  V30 540 H 51.8754 -4.07637 2.1487 0
M  V30 541 H 50.1904 -3.7547 1.80032 0
M  V30 542 H 52.7874 -5.32394 -0.49602 0
M  V30 543 H 53.1304 -3.90212 -1.45053 0
M  V30 544 H 53.6634 -3.97033 0.246877 0
M  V30 545 H 50.4024 -6.12761 2.32817 0
M  V30 546 H 49.9224 -5.96553 0.623267 0
M  V30 547 H 51.6014 -6.38518 1.0442 0
M  V30 548 N 51.7335 -0.305618 -1.54608 0
M  V30 549 C 52.9815 0.301701 -1.99835 0
M  V30 550 C 53.3025 1.54054 -1.19551 0
M  V30 551 O 52.5725 1.93702 -0.292658 0
M  V30 552 H 51.1525 0.114468 -0.738178 0
M  V30 553 H 53.8145 -0.418016 -1.90364 0
M  V30 554 H 52.9105 0.570548 -3.06841 0
M  V30 555 N 53.2116 1.57565 -0.0334293 0
M  V30 556 C 54.4606 1.91155 0.643639 0
M  V30 557 C 54.7736 0.91192 1.73042 0
M  V30 558 O 55.9796 1.13923 2.46442 0
M  V30 559 C 54.4356 3.39443 1.1961 0
M  V30 560 C 54.0436 4.47774 0.142381 0
M  V30 561 C 55.7876 3.82094 1.84944 0
M  V30 562 C 53.6946 5.87162 0.706727 0
M  V30 563 H 52.6246 0.713368 0.244176 0
M  V30 564 H 55.2756 1.8323 -0.0994323 0
M  V30 565 H 53.6576 3.42313 1.99092 0
M  V30 566 H 54.8316 4.56469 -0.630296 0
M  V30 567 H 53.1466 4.14352 -0.412446 0
M  V30 568 H 55.7436 4.83591 2.2813 0
M  V30 569 H 56.0866 3.17386 2.69392 0
M  V30 570 H 56.6196 3.81665 1.12145 0
M  V30 571 H 53.3586 6.55424 -0.0997178 0
M  V30 572 H 52.8786 5.82064 1.44779 0
M  V30 573 H 54.5576 6.35866 1.19514 0
M  V30 574 N 54.6897 -0.239769 1.55765 0
M  V30 575 C 55.6527 -1.28038 1.90103 0
M  V30 576 C 56.6527 -1.40723 0.778055 0
M  V30 577 O 57.8427 -1.39301 1.04599 0
M  V30 578 C 54.9747 -2.65702 2.13577 0
M  V30 579 H 56.1677 -0.988048 2.83157 0
M  V30 580 H 53.7207 -0.479382 1.48767 0
M  V30 581 H 54.4557 -3.00063 1.23015 0
M  V30 582 H 54.2407 -2.57875 2.95369 0
M  V30 583 H 55.7307 -3.40828 2.41301 0
M  V30 584 N 56.1678 -1.49265 -0.50573 0
M  V30 585 C 57.4138 -1.58748 -1.26202 0
M  V30 586 C 57.7468 -0.271227 -1.92297 0
M  V30 587 O 57.0218 0.724831 -1.80489 0
M  V30 588 C 57.3048 -2.74332 -2.33268 0
M  V30 589 C 57.1578 -4.15737 -1.71705 0
M  V30 590 C 58.4768 -2.85576 -3.34865 0
M  V30 591 H 55.5958 -0.577826 -0.457478 0
M  V30 592 H 58.2378 -1.81532 -0.560897 0
M  V30 593 H 56.3878 -2.55036 -2.93068 0
M  V30 594 H 58.0598 -4.46537 -1.15769 0
M  V30 595 H 56.3028 -4.21605 -1.02135 0
M  V30 596 H 56.9738 -4.92477 -2.49341 0
M  V30 597 H 59.4498 -3.03127 -2.8505 0
M  V30 598 H 58.3258 -3.68135 -4.07146 0
M  V30 599 H 58.5868 -1.94732 -3.96903 0
M  V30 600 N 57.6459 0.756429 -1.3826 0
M  V30 601 C 58.8949 1.51082 -1.3363 0
M  V30 602 C 59.2079 1.95467 0.0720068 0
M  V30 603 O 60.4139 2.7043 0.240834 0
M  V30 604 C 58.8699 2.72893 -2.34644 0
M  V30 605 C 58.4779 2.35544 -3.81081 0
M  V30 606 C 60.2219 3.50791 -2.39052 0
M  V30 607 C 58.1289 3.53948 -4.73787 0
M  V30 608 H 57.0589 0.56727 -0.49671 0
M  V30 609 H 59.7099 0.827147 -1.638 0
M  V30 610 H 58.0919 3.43227 -1.97513 0
M  V30 611 H 59.2659 1.72894 -4.27135 0
M  V30 612 H 57.5809 1.70786 -3.79764 0
M  V30 613 H 60.1779 4.38823 -3.05513 0
M  V30 614 H 60.5209 3.91745 -1.40861 0
M  V30 615 H 61.0539 2.87467 -2.74968 0
M  V30 616 H 57.7929 3.18064 -5.73163 0
M  V30 617 H 57.3129 4.15651 -4.32428 0
M  V30 618 H 58.9919 4.20566 -4.91663 0
M  V30 619 N 59.124 1.23083 0.984299 0
M  V30 620 C 60.054 1.03292 2.09411 0
M  V30 621 C 61.035 -0.048923 1.7003 0
M  V30 622 O 62.22 0.114967 1.93859 0
M  V30 623 C 59.35 0.619155 3.41736 0
M  V30 624 C 58.304 1.64791 3.95004 0
M  V30 625 C 57.63 1.0897 5.23478 0
M  V30 626 C 58.93 3.03999 4.24714 0
M  V30 627 H 60.624 1.96119 2.26225 0
M  V30 628 H 58.17 0.944344 1.08711 0
M  V30 629 H 60.123 0.467777 4.18796 0
M  V30 630 H 58.847 -0.344786 3.24775 0
M  V30 631 H 57.506 1.78721 3.20085 0
M  V30 632 H 57.154 0.11686 5.02864 0
M  V30 633 H 56.854 1.77704 5.60085 0
M  V30 634 H 58.378 0.950093 6.03163 0
M  V30 635 H 59.792 2.93393 4.92538 0
M  V30 636 H 58.189 3.69936 4.72512 0
M  V30 637 H 59.259 3.53285 3.32142 0
M  V30 638 N 60.6021 -1.18246 1.0419 0
M  V30 639 C 61.8481 -1.88536 0.747122 0
M  V30 640 C 62.1811 -1.80223 -0.723409 0
M  V30 641 O 61.4561 -1.20337 -1.52804 0
M  V30 642 C 61.7391 -3.38968 1.21544 0
M  V30 643 C 61.5921 -3.56084 2.74816 0
M  V30 644 C 62.9111 -4.32648 0.806482 0
M  V30 645 H 60.0301 -0.684619 0.272883 0
M  V30 646 H 62.6721 -1.39113 1.29413 0
M  V30 647 H 60.8221 -3.8119 0.750081 0
M  V30 648 H 62.4941 -3.22946 3.29399 0
M  V30 649 H 60.7371 -2.98699 3.14582 0
M  V30 650 H 61.4081 -4.61639 3.02644 0
M  V30 651 H 63.8841 -3.98211 1.20695 0
M  V30 652 H 62.7601 -5.36462 1.1619 0
M  V30 653 H 63.0211 -4.41146 -0.29029 0
M  V30 654 N 62.0802 -0.821533 -1.34494 0
M  V30 655 C 63.3282 -0.408139 -1.97936 0
M  V30 656 C 63.6492 1.03193 -1.65457 0
M  V30 657 O 62.9192 1.71622 -0.944595 0
M  V30 658 H 61.4992 -0.147928 -0.732206 0
M  V30 659 H 64.1612 -1.05067 -1.64155 0
M  V30 660 H 63.2572 -0.52601 -3.07635 0
M  V30 661 N 63.5583 1.46682 -0.576371 0
M  V30 662 C 64.7863 2.06798 -0.0649635 0
M  V30 663 C 65.2013 1.42612 1.23723 0
M  V30 664 O 64.5583 0.529203 1.74659 0
M  V30 665 C 64.6093 3.6132 0.114202 0
M  V30 666 O 64.3303 4.23104 -1.13644 0
M  V30 667 C 65.8313 4.38349 0.66069 0
M  V30 668 H 63.0513 0.668778 -0.0545616 0
M  V30 669 H 65.5953 1.88404 -0.795237 0
M  V30 670 H 63.7503 3.79162 0.794673 0
M  V30 671 H 64.1643 5.15894 -0.946253 0
M  V30 672 H 65.6383 5.47081 0.73526 0
M  V30 673 H 66.1153 4.05953 1.67627 0
M  V30 674 H 66.7213 4.25297 0.0152951 0
M  V30 675 N 65.0364 0.313813 1.54444 0
M  V30 676 C 66.2614 -0.296681 2.05267 0
M  V30 677 C 66.6864 -1.45757 1.18897 0
M  V30 678 O 66.0444 -1.80239 0.195886 0
M  V30 679 C 66.0924 -0.71831 3.53373 0
M  V30 680 O 65.1964 -1.82175 3.69981 0
M  V30 681 H 64.5374 -0.0554061 0.661684 0
M  V30 682 H 67.0674 0.459387 1.99376 0
M  V30 683 H 67.0774 -1.00364 3.95463 0
M  V30 684 H 65.7524 0.130821 4.15694 0
M  V30 685 H 64.3294 -1.53598 3.39797 0
M  V30 686 N 66.5145 -1.57545 0.0417849 0
M  V30 687 C 67.7915 -1.83642 -0.673433 0
M  V30 688 C 68.1715 -0.928298 -1.89594 0
M  V30 689 O 67.5195 0.0129955 -2.28496 0
M  V30 690 C 67.7295 -3.33155 -1.03964 0
M  V30 691 C 69.0775 -3.99941 -1.42592 0
M  V30 692 O 70.1015 -3.37725 -1.13226 0
M  V30 693 O 68.9605 -5.09619 -1.9736 0
M  V30 694 H 66.0545 -0.757638 -0.331533 0
M  V30 695 H 68.6005 -1.69554 0.070433 0
M  V30 696 H 67.3725 -3.9093 -0.170098 0
M  V30 697 H 66.9955 -3.52396 -1.84126 0
M  V30 698 N 67.9926 0.231505 -1.5589 0
M  V30 699 C 68.9026 1.308 -1.94752 0
M  V30 700 C 69.9186 1.51826 -0.849989 0
M  V30 701 O 71.0946 1.6515 -1.15271 0
M  V30 702 C 68.1596 2.63968 -2.24771 0
M  V30 703 C 67.2206 2.51331 -3.48039 0
M  V30 704 C 66.4536 3.78148 -3.76616 0
M  V30 705 O 66.6766 4.80722 -3.07022 0
M  V30 706 O 65.6106 3.75857 -4.70123 0
M  V30 707 H 69.4366 1.0083 -2.86474 0
M  V30 708 H 67.0216 0.433547 -1.42971 0
M  V30 709 H 68.9036 3.42633 -2.45318 0
M  V30 710 H 67.5786 2.9364 -1.36225 0
M  V30 711 H 66.4856 1.709 -3.32782 0
M  V30 712 H 67.8186 2.26601 -4.36936 0
M  V30 713 N 69.4707 1.49531 0.497807 0
M  V30 714 C 70.7167 1.59415 1.25358 0
M  V30 715 C 71.0497 0.281422 1.9215 0
M  V30 716 O 70.3247 -0.715249 1.80871 0
M  V30 717 C 70.6077 2.75566 2.3181 0
M  V30 718 C 70.4607 4.16642 1.69498 0
M  V30 719 C 71.7797 2.87347 3.33346 0
M  V30 720 H 68.8987 0.580244 0.454408 0
M  V30 721 H 71.5407 1.81827 0.551262 0
M  V30 722 H 69.6907 2.56587 2.91711 0
M  V30 723 H 71.3627 4.47145 1.13399 0
M  V30 724 H 69.6057 4.22141 0.998978 0
M  V30 725 H 70.2767 4.93792 2.46725 0
M  V30 726 H 72.7527 3.04634 2.83438 0
M  V30 727 H 71.6287 3.70289 4.05188 0
M  V30 728 H 71.8897 1.96834 3.95865 0
M  V30 729 N 70.9488 -0.749086 1.3866 0
M  V30 730 C 71.9118 -1.84457 1.36045 0
M  V30 731 C 72.9118 -1.58682 0.260122 0
M  V30 732 O 74.1018 -1.66343 0.517261 0
M  V30 733 C 71.2338 -3.22008 1.11911 0
M  V30 734 H 72.4268 -1.88182 2.33512 0
M  V30 735 H 69.9798 -0.951266 1.24019 0
M  V30 736 H 70.7148 -3.2395 0.150686 0
M  V30 737 H 70.4998 -3.42111 1.91579 0
M  V30 738 H 71.9898 -4.0208 1.12788 0
M  V30 739 N 72.4269 -1.23603 -0.977757 0
M  V30 740 C 73.6759 -1.06377 -1.71368 0
M  V30 741 C 73.9889 0.399062 -1.91486 0
M  V30 742 O 75.1949 0.691312 -2.62551 0
M  V30 743 C 73.6509 -1.85512 -3.08404 0
M  V30 744 C 73.2589 -3.36141 -2.96164 0
M  V30 745 C 75.0029 -1.76783 -3.85938 0
M  V30 746 C 72.9099 -4.07659 -4.28449 0
M  V30 747 H 71.8399 -0.394452 -0.642591 0
M  V30 748 H 74.4909 -1.47594 -1.09034 0
M  V30 749 H 72.8729 -1.37103 -3.71509 0
M  V30 750 H 74.0469 -3.92056 -2.42133 0
M  V30 751 H 72.3619 -3.45712 -2.32104 0
M  V30 752 H 74.9589 -2.27526 -4.83876 0
M  V30 753 H 75.3019 -0.731116 -4.0983 0
M  V30 754 H 75.8349 -2.22818 -3.2954 0
M  V30 755 H 72.5739 -5.11648 -4.09752 0
M  V30 756 H 72.0939 -3.5653 -4.82334 0
M  V30 757 H 73.7729 -4.141 -4.97122 0
M  V30 758 N 73.905 1.17692 -1.04816 0
M  V30 759 C 74.852 2.21581 -0.645797 0
M  V30 760 C 75.822 1.62367 0.350159 0
M  V30 761 O 77.007 1.89254 0.242433 0
M  V30 762 C 74.147 3.45092 -0.0227568 0
M  V30 763 C 73.26 4.18613 -1.06709 0
M  V30 764 C 72.395 5.29602 -0.411767 0
M  V30 765 C 71.434 5.94904 -1.44067 0
M  V30 766 N 70.571 6.97414 -0.809781 0
M  V30 767 H 75.411 2.55353 -1.5362 0
M  V30 768 H 72.948 1.25438 -0.768364 0
M  V30 769 H 74.906 4.15679 0.35588 0
M  V30 770 H 73.536 3.11917 0.831122 0
M  V30 771 H 72.588 3.46779 -1.5636 0
M  V30 772 H 73.9 4.63293 -1.84827 0
M  V30 773 H 73.054 6.06696 0.0206623 0
M  V30 774 H 71.793 4.86045 0.401438 0
M  V30 775 H 70.798 5.16544 -1.88316 0
M  V30 776 H 72.023 6.40542 -2.25571 0
M  V30 777 H 69.969 6.55998 -0.0170186 0
M  V30 778 H 69.886 7.40386 -1.52856 0
M  V30 779 H 71.154 7.78463 -0.401999 0
M  V30 780 N 75.3831 0.828654 1.34056 0
M  V30 781 C 76.6601 0.341809 1.9259 0
M  V30 782 C 77.0401 -1.17158 1.75605 0
M  V30 783 O 76.3881 -1.98132 1.13824 0
M  V30 784 C 76.5981 0.777453 3.4023 0
M  V30 785 C 77.9461 0.779579 4.17382 0
M  V30 786 O 78.9701 0.7204 3.48839 0
M  V30 787 O 77.8291 0.857996 5.39723 0
M  V30 788 H 74.9231 0.0946085 0.821571 0
M  V30 789 H 77.4691 0.913827 1.42994 0
M  V30 790 H 76.2411 1.8196 3.46419 0
M  V30 791 H 75.8641 0.181444 3.97186 0
M  V30 792 N 76.8612 -1.46375 0.584142 0
M  V30 793 C 77.8242 -2.28784 -0.138108 0
M  V30 794 C 78.8242 -1.38471 -0.817462 0
M  V30 795 O 80.0142 -1.60833 -0.669199 0
M  V30 796 C 77.1462 -3.18892 -1.20503 0
M  V30 797 H 78.3392 -2.94117 0.586127 0
M  V30 798 H 75.8922 -1.52509 0.342171 0
M  V30 799 H 76.6272 -2.58309 -1.96079 0
M  V30 800 H 76.4122 -3.85388 -0.722384 0
M  V30 801 H 77.9022 -3.80914 -1.71155 0
M  V30 802 N 78.3393 -0.321999 -1.54275 0
M  V30 803 C 79.2893 0.560185 -2.21011 0
M  V30 804 C 80.2733 1.08283 -1.19011 0
M  V30 805 O 81.4653 1.02011 -1.44647 0
M  V30 806 C 78.5943 1.72137 -2.97025 0
M  V30 807 C 77.6803 1.21369 -4.06363 0
M  V30 808 N 78.0713 0.425566 -5.04007 0
M  V30 809 C 76.3693 1.49255 -4.20284 0
M  V30 810 C 77.0703 0.152601 -5.815 0
M  V30 811 N 76.0463 0.738294 -5.38563 0
M  V30 812 H 79.8483 -0.049265 -2.93859 0
M  V30 813 H 77.3623 -0.127779 -1.61897 0
M  V30 814 H 79.3593 2.36512 -3.43319 0
M  V30 815 H 78.0193 2.33431 -2.25699 0
M  V30 816 H 79.0303 0.068551 -5.17855 0
M  V30 817 H 75.7073 2.11145 -3.60172 0
M  V30 818 H 77.0973 -0.481764 -6.70171 0
M  V30 819 N 79.8174 1.5752 -0.0501392 0
M  V30 820 C 80.7274 2.14952 0.939827 0
M  V30 821 C 81.7434 1.10706 1.34239 0
M  V30 822 O 82.9194 1.42869 1.41952 0
M  V30 823 C 79.9844 2.68232 2.19665 0
M  V30 824 C 79.0454 3.87272 1.85253 0
M  V30 825 C 78.2784 4.38002 3.04943 0
M  V30 826 O 78.5014 3.87811 4.18281 0
M  V30 827 O 77.4354 5.29602 2.86017 0
M  V30 828 H 81.2614 2.9986 0.481392 0
M  V30 829 H 78.8464 1.4841 0.171699 0
M  V30 830 H 80.7284 3.02475 2.93406 0
M  V30 831 H 79.4034 1.86395 2.64648 0
M  V30 832 H 78.3104 3.5792 1.0883 0
M  V30 833 H 79.6434 4.70336 1.4507 0
M  V30 834 N 81.2955 -0.223234 1.56011 0
M  V30 835 C 82.2425 -1.27664 1.92277 0
M  V30 836 C 83.2125 -1.46659 0.779763 0
M  V30 837 O 84.3975 -1.60256 1.03551 0
M  V30 838 C 81.5375 -2.62234 2.24338 0
M  V30 839 C 80.6505 -2.51051 3.51564 0
M  V30 840 C 79.7855 -3.78133 3.7308 0
M  V30 841 C 78.8245 -3.61665 4.93827 0
M  V30 842 N 77.9615 -4.80693 5.11741 0
M  V30 843 H 82.8015 -0.960358 2.82101 0
M  V30 844 H 80.3385 -0.462901 1.39627 0
M  V30 845 H 82.2965 -3.40596 2.40936 0
M  V30 846 H 80.9265 -2.91961 1.3769 0
M  V30 847 H 79.9785 -1.64132 3.43169 0
M  V30 848 H 81.2905 -2.34803 4.40079 0
M  V30 849 H 80.4445 -4.64938 3.89766 0
M  V30 850 H 79.1835 -3.97304 2.82844 0
M  V30 851 H 78.1885 -2.73244 4.77093 0
M  V30 852 H 79.4135 -3.43966 5.85546 0
M  V30 853 H 77.3595 -5.00181 4.24446 0
M  V30 854 H 77.2765 -4.67165 5.94384 0
M  V30 855 H 78.5445 -5.6893 5.3286 0
M  V30 856 N 82.7736 -1.49793 -0.48987 0
M  V30 857 C 84.0506 -1.50348 -1.25119 0
M  V30 858 C 84.4306 -0.237466 -2.0976 0
M  V30 859 O 83.7786 0.77981 -2.14782 0
M  V30 860 C 83.9886 -2.78872 -2.09837 0
M  V30 861 C 85.3366 -3.288 -2.68655 0
M  V30 862 O 86.3606 -2.80065 -2.20096 0
M  V30 863 O 85.2196 -4.13707 -3.57083 0
M  V30 864 H 82.3136 -0.602242 -0.566775 0
M  V30 865 H 84.8596 -1.62067 -0.503229 0
M  V30 866 H 83.6316 -3.62499 -1.47343 0
M  V30 867 H 83.2546 -2.70066 -2.91805 0
M  V30 868 N 84.2517 0.741722 -1.39055 0
M  V30 869 C 85.5287 1.49252 -1.26425 0
M  V30 870 C 85.9087 2.10705 0.129144 0
M  V30 871 O 85.2567 1.98045 1.13976 0
M  V30 872 C 85.4667 2.54934 -2.38347 0
M  V30 873 C 86.8147 3.21506 -2.77343 0
M  V30 874 O 87.8387 2.65245 -2.37747 0
M  V30 875 O 86.6977 4.23294 -3.45665 0
M  V30 876 H 83.7917 0.662451 -0.495064 0
M  V30 877 H 86.3377 0.776121 -1.50912 0
M  V30 878 H 85.1097 2.07857 -3.31529 0
M  V30 879 H 84.7327 3.34141 -2.15489 0
M  V30 880 N 85.7298 1.2412 0.971189 0
M  V30 881 C 86.9768 1.07881 1.71371 0
M  V30 882 C 87.3048 -0.382901 1.90694 0
M  V30 883 O 86.5598 -1.29945 1.46331 0
M  V30 884 C 86.8588 1.75983 3.11071 0
M  V30 885 C 86.5248 3.25909 3.11599 0
M  V30 886 C 85.1868 3.66813 3.11451 0
M  V30 887 C 87.5388 4.21771 3.062 0
M  V30 888 C 84.8668 5.02021 3.03631 0
M  V30 889 C 87.2188 5.56982 2.99923 0
M  V30 890 C 85.8828 5.97237 2.98102 0
M  V30 891 H 85.1528 0.394764 0.62709 0
M  V30 892 H 87.7998 1.54176 1.13587 0
M  V30 893 H 86.1048 1.22072 3.72298 0
M  V30 894 H 87.8018 1.60887 3.6731 0
M  V30 895 H 84.3918 2.93353 3.12477 0
M  V30 896 H 88.5758 3.91172 3.05447 0
M  V30 897 H 83.8318 5.32411 3.0058 0
M  V30 898 H 88.0058 6.30969 2.94704 0
M  V30 899 H 85.6328 7.01967 2.91798 0
M  V30 900 N 87.2079 -1.17134 1.05439 0
M  V30 901 C 88.1579 -2.1919 0.627675 0
M  V30 902 C 89.1419 -1.57328 -0.337147 0
M  V30 903 O 90.3339 -1.76329 -0.153976 0
M  V30 904 C 87.4629 -3.43299 0.00651435 0
M  V30 905 C 86.5489 -4.12255 0.995312 0
M  V30 906 N 86.9399 -4.56997 2.16765 0
M  V30 907 C 85.2379 -4.38316 0.824336 0
M  V30 908 C 85.9389 -5.10239 2.7934 0
M  V30 909 N 84.9149 -5.02595 2.07122 0
M  V30 910 H 88.7169 -2.5149 1.52086 0
M  V30 911 H 86.2309 -1.33491 0.924868 0
M  V30 912 H 88.2279 -4.15693 -0.316965 0
M  V30 913 H 86.8879 -3.1249 -0.882033 0
M  V30 914 H 87.8989 -4.51006 2.54587 0
M  V30 915 H 84.5759 -4.17498 -0.0129526 0
M  V30 916 H 85.9659 -5.54961 3.78772 0
M  V30 917 N 88.686 -0.835752 -1.33615 0
M  V30 918 C 89.636 -0.238856 -2.26745 0
M  V30 919 C 90.62 0.604343 -1.49119 0
M  V30 920 O 91.812 0.456822 -1.71003 0
M  V30 921 C 88.941 0.587725 -3.38232 0
M  V30 922 C 88.027 -0.266811 -4.2326 0
M  V30 923 N 88.418 -1.34403 -4.87616 0
M  V30 924 C 86.716 -0.0533131 -4.45968 0
M  V30 925 C 87.417 -1.86819 -5.50884 0
M  V30 926 N 86.393 -1.17013 -5.30857 0
M  V30 927 H 90.195 -1.06266 -2.74016 0
M  V30 928 H 87.709 -0.679881 -1.47483 0
M  V30 929 H 89.706 1.03161 -4.03935 0
M  V30 930 H 88.366 1.40954 -2.9251 0
M  V30 931 H 89.377 -1.7269 -4.88261 0
M  V30 932 H 86.054 0.735312 -4.10974 0
M  V30 933 H 87.444 -2.7701 -6.1214 0
M  V30 934 N 90.1641 1.46063 -0.591896 0
M  V30 935 C 91.0941 2.33172 0.123673 0
M  V30 936 C 92.0751 1.45897 0.87453 0
M  V30 937 O 93.2601 1.74698 0.848181 0
M  V30 938 C 90.3901 3.28336 1.13194 0
M  V30 939 C 89.3441 4.25124 0.495324 0
M  V30 940 C 88.6701 5.09863 1.61071 0
M  V30 941 C 89.9701 5.19143 -0.573425 0
M  V30 942 H 91.6641 2.93252 -0.603646 0
M  V30 943 H 89.2101 1.41014 -0.291741 0
M  V30 944 H 91.1631 3.88137 1.64097 0
M  V30 945 H 89.8871 2.66383 1.88965 0
M  V30 946 H 88.5461 3.66599 0.00729452 0
M  V30 947 H 88.1941 4.44288 2.35832 0
M  V30 948 H 87.8941 5.75417 1.19035 0
M  V30 949 H 89.4181 5.72529 2.12233 0
M  V30 950 H 90.8321 5.73106 -0.1491 0
M  V30 951 H 89.2291 5.93089 -0.914636 0
M  V30 952 H 90.2991 4.62519 -1.45617 0
M  V30 953 N 91.6422 0.330177 1.54103 0
M  V30 954 C 92.8672 -0.274893 2.0557 0
M  V30 955 C 93.2922 -1.44487 1.20437 0
M  V30 956 O 92.6502 -1.80021 0.214991 0
M  V30 957 C 92.6982 -0.68079 3.54115 0
M  V30 958 O 91.8022 -1.7824 3.71893 0
M  V30 959 H 91.1432 -0.0483849 0.662235 0
M  V30 960 H 93.6732 0.480508 1.98878 0
M  V30 961 H 93.6832 -0.961635 3.96505 0
M  V30 962 H 92.3582 0.174903 4.15532 0
M  V30 963 H 90.9352 -1.49985 3.41407 0
M  V30 964 N 93.1203 -1.57491 0.0584922 0
M  V30 965 C 94.3663 -1.93264 -0.614558 0
M  V30 966 C 94.6993 -0.937717 -1.7006 0
M  V30 967 O 93.9743 0.0351652 -1.94468 0
M  V30 968 C 94.2573 -3.3938 -1.20386 0
M  V30 969 C 94.1103 -4.49625 -0.125375 0
M  V30 970 C 95.4293 -3.86039 -2.11334 0
M  V30 971 H 92.5483 -0.702791 -0.221933 0
M  V30 972 H 95.1903 -1.8961 0.12175 0
M  V30 973 H 93.3403 -3.42626 -1.83139 0
M  V30 974 H 95.0123 -4.58506 0.506971 0
M  V30 975 H 93.2553 -4.30354 0.545672 0
M  V30 976 H 93.9263 -5.48967 -0.577861 0
M  V30 977 H 96.4023 -3.84716 -1.58534 0
M  V30 978 H 95.2783 -4.88914 -2.49507 0
M  V30 979 H 95.5393 -3.23215 -3.01636 0
M  V30 980 N 94.5984 0.214957 -1.56127 0
M  V30 981 C 95.8444 0.939762 -1.79712 0
M  V30 982 C 96.1774 1.83723 -0.629247 0
M  V30 983 O 95.4524 1.90925 0.371197 0
M  V30 984 C 95.7354 1.77306 -3.13424 0
M  V30 985 C 95.5884 0.90164 -4.40671 0
M  V30 986 C 96.9074 2.74956 -3.43638 0
M  V30 987 H 94.0264 0.340214 -0.653776 0
M  V30 988 H 96.6684 0.20824 -1.88855 0
M  V30 989 H 94.8184 2.39673 -3.0576 0
M  V30 990 H 96.4904 0.294206 -4.60361 0
M  V30 991 H 94.7334 0.207368 -4.33304 0
M  V30 992 H 95.4044 1.51923 -5.30682 0
M  V30 993 H 97.8804 2.22724 -3.51473 0
M  V30 994 H 96.7564 3.30358 -4.38355 0
M  V30 995 H 97.0174 3.53023 -2.66134 0
M  V30 996 N 96.0765 1.50051 0.48192 0
M  V30 997 C 97.4875 1.5348 1.06305 0
M  V30 998 C 97.8385 0.331997 1.93371 0
M  V30 999 O 96.9635 -0.556256 2.09129 0
M  V30 1000 C 97.5585 2.7813 1.93466 0
M  V30 1001 C 96.1175 2.84275 2.46707 0
M  V30 1002 C 95.2645 2.47637 1.24785 0
M  V30 1003 H 98.2155 1.56472 0.264995 0
M  V30 1004 H 98.2365 2.59372 2.78399 0
M  V30 1005 H 97.7485 3.65654 1.30072 0
M  V30 1006 H 95.8495 2.01077 3.13686 0
M  V30 1007 H 95.9625 3.8691 2.82555 0
M  V30 1008 H 94.3265 1.99835 1.57918 0
M  V30 1009 H 95.1095 3.37457 0.630694 0
M  V30 1010 N 97.5546 -0.734337 1.39446 0
M  V30 1011 C 98.9706 -1.03997 1.21065 0
M  V30 1012 C 99.1706 -2.01369 0.0727019 0
M  V30 1013 O 98.2266 -2.45856 -0.575426 0
M  V30 1014 C 99.5396 -1.60163 2.54496 0
M  V30 1015 C 101.088 -1.7224 2.61347 0
M  V30 1016 C 101.563 -2.31814 3.95002 0
M  V30 1017 N 103.054 -2.39223 3.96644 0
M  V30 1018 C 103.789 -2.86258 4.96834 0
M  V30 1019 N 103.285 -3.33184 6.07421 0
M  V30 1020 N 105.078 -2.85473 4.84213 0
M  V30 1021 H 97.2286 -0.0885624 2.12215 0
M  V30 1022 H 99.4916 -0.10191 0.942506 0
M  V30 1023 H 99.1976 -0.960811 3.38321 0
M  V30 1024 H 99.0716 -2.5896 2.74262 0
M  V30 1025 H 101.459 -2.35443 1.77906 0
M  V30 1026 H 101.54 -0.720939 2.4543 0
M  V30 1027 H 101.184 -1.69238 4.78875 0
M  V30 1028 H 101.114 -3.32638 4.08239 0
M  V30 1029 H 103.605 -2.06057 3.16779 0
M  V30 1030 H 103.918 -3.67586 6.7978 0
M  V30 1031 H 102.263 -3.31191 6.11013 0
M  V30 1032 H 105.454 -2.48136 3.96921 0
M  V30 1033 H 105.627 -3.21814 5.62441 0
M  V30 1034 N 99.0327 -1.24633 -0.964593 0
M  V30 1035 C 100.279 -1.08949 -1.71049 0
M  V30 1036 C 100.612 0.370302 -1.90637 0
M  V30 1037 O 99.8867 1.27349 -1.47011 0
M  V30 1038 C 100.17 -1.83329 -3.0994 0
M  V30 1039 C 100.023 -3.37077 -2.97824 0
M  V30 1040 C 101.342 -1.60846 -4.09654 0
M  V30 1041 H 98.4607 -0.397178 -0.620821 0
M  V30 1042 H 101.103 -1.5334 -1.12191 0
M  V30 1043 H 99.2527 -1.45597 -3.60186 0
M  V30 1044 H 100.925 -3.84425 -2.5498 0
M  V30 1045 H 99.1677 -3.65298 -2.33965 0
M  V30 1046 H 99.8387 -3.84324 -3.96231 0
M  V30 1047 H 102.315 -1.93674 -3.68279 0
M  V30 1048 H 101.191 -2.1534 -5.04896 0
M  V30 1049 H 101.452 -0.547434 -4.38698 0
M  V30 1050 N 100.511 1.16574 -1.06058 0
M  V30 1051 C 101.421 2.2452 -0.680282 0
M  V30 1052 C 102.437 1.71348 0.302604 0
M  V30 1053 O 103.613 2.00822 0.152513 0
M  V30 1054 C 100.678 3.46629 -0.0700315 0
M  V30 1055 C 99.7388 4.14849 -1.10448 0
M  V30 1056 C 98.9718 5.31129 -0.523256 0
M  V30 1057 O 99.1948 5.66514 0.664709 0
M  V30 1058 O 98.1288 5.88526 -1.26179 0
M  V30 1059 H 101.955 2.59355 -1.58015 0
M  V30 1060 H 99.5398 1.24043 -0.832694 0
M  V30 1061 H 101.422 4.20543 0.268667 0
M  V30 1062 H 100.097 3.13573 0.803353 0
M  V30 1063 H 99.0038 3.42916 -1.49532 0
M  V30 1064 H 100.337 4.51954 -1.94931 0
M  V30 1065 N 101.989 0.842826 1.3317 0
M  V30 1066 C 102.919 0.294028 2.31641 0
M  V30 1067 C 103.9 -0.600401 1.59151 0
M  V30 1068 O 105.085 -0.523124 1.87022 0
M  V30 1069 C 102.215 -0.528416 3.43257 0
M  V30 1070 C 101.169 0.27056 4.27144 0
M  V30 1071 C 100.495 -0.675881 5.30411 0
M  V30 1072 C 101.795 1.48981 5.00602 0
M  V30 1073 H 103.489 1.11681 2.77791 0
M  V30 1074 H 101.035 0.538478 1.33553 0
M  V30 1075 H 102.988 -0.922674 4.11175 0
M  V30 1076 H 101.712 -1.38445 2.95805 0
M  V30 1077 H 100.371 0.646427 3.60856 0
M  V30 1078 H 100.019 -1.52842 4.79216 0
M  V30 1079 H 99.7189 -0.145374 5.8742 0
M  V30 1080 H 101.243 -1.06757 6.01195 0
M  V30 1081 H 102.657 1.16849 5.61266 0
M  V30 1082 H 101.054 1.95739 5.6728 0
M  V30 1083 H 102.124 2.25746 4.29147 0
M  V30 1084 N 103.467 -1.45747 0.599634 0
M  V30 1085 C 104.713 -2.02592 0.0918643 0
M  V30 1086 C 105.046 -1.46806 -1.27128 0
M  V30 1087 O 104.321 -0.639658 -1.83681 0
M  V30 1088 C 104.604 -3.60073 0.0443398 0
M  V30 1089 C 104.457 -4.26208 1.43759 0
M  V30 1090 C 105.776 -4.35309 -0.647608 0
M  V30 1091 H 102.895 -0.736175 0.034857 0
M  V30 1092 H 105.537 -1.73694 0.770081 0
M  V30 1093 H 103.687 -3.84823 -0.533224 0
M  V30 1094 H 105.359 -4.12668 2.06162 0
M  V30 1095 H 103.602 -3.84916 2.00056 0
M  V30 1096 H 104.273 -5.35069 1.35665 0
M  V30 1097 H 106.749 -4.15805 -0.156776 0
M  V30 1098 H 105.625 -5.45038 -0.649942 0
M  V30 1099 H 105.886 -4.07598 -1.71219 0
M  V30 1100 N 104.945 -0.338344 -1.53925 0
M  V30 1101 C 105.908 0.508299 -2.23493 0
M  V30 1102 C 106.908 1.03175 -1.23335 0
M  V30 1103 O 108.098 0.921826 -1.47811 0
M  V30 1104 C 105.23 1.70754 -2.95052 0
M  V30 1105 H 106.423 -0.100058 -2.99733 0
M  V30 1106 H 103.976 -0.0896198 -1.56043 0
M  V30 1107 H 104.711 2.35474 -2.22986 0
M  V30 1108 H 104.496 1.33946 -3.68512 0
M  V30 1109 H 105.986 2.30818 -3.48013 0
M  V30 1110 N 106.423 1.57458 -0.0668435 0
M  V30 1111 C 107.356 2.08033 0.93795 0
M  V30 1112 C 108.334 0.984321 1.29421 0
M  V30 1113 O 109.518 1.25736 1.40437 0
M  V30 1114 C 106.645 2.53388 2.24749 0
M  V30 1115 C 105.691 3.74376 2.04315 0
M  V30 1116 S 106.524 5.19303 1.30706 0
M  V30 1117 C 107.68 5.67986 2.62951 0
M  V30 1118 H 107.913 2.92935 0.50759 0
M  V30 1119 H 105.446 1.5371 0.145804 0
M  V30 1120 H 107.404 2.8018 3.00016 0
M  V30 1121 H 106.065 1.68763 2.64911 0
M  V30 1122 H 105.258 4.04083 3.01218 0
M  V30 1123 H 104.86 3.47931 1.37186 0
M  V30 1124 H 107.152 5.74528 3.5906 0
M  V30 1125 H 108.095 6.66955 2.3786 0
M  V30 1126 H 108.503 4.95781 2.69929 0
M  V30 1127 N 107.901 -0.206675 1.56239 0
M  V30 1128 C 108.849 -1.27571 1.94495 0
M  V30 1129 C 109.843 -1.47737 0.828862 0
M  V30 1130 O 111.049 -1.48735 1.0138 0
M  V30 1131 H 107.424 -0.428029 0.6183 0
M  V30 1132 H 109.395 -0.925961 2.8367 0
M  V30 1133 C 108.144 -2.61568 2.29079 0
M  V30 1134 H 107.467 -2.46863 3.14482 0
M  V30 1135 H 108.907 -3.35144 2.5972 0
M  V30 1136 C 107.366 -3.17695 1.12123 0
M  V30 1137 O 107.896 -3.99801 0.390153 0
M  V30 1138 N 106.102 -2.76276 0.901097 0
M  V30 1139 H 105.649 -2.09613 1.49733 0
M  V30 1140 H 105.607 -3.1417 0.120319 0
M  V30 1141 N 109.379 -1.50304 -0.473955 0
M  V30 1142 C 110.289 -1.7174 -1.5982 0
M  V30 1143 C 111.305 -0.600457 -1.63311 0
M  V30 1144 O 112.481 -0.878441 -1.81233 0
M  V30 1145 C 109.546 -1.80427 -2.96052 0
M  V30 1146 C 108.607 -3.04148 -3.02972 0
M  V30 1147 C 107.84 -3.12411 -4.32706 0
M  V30 1148 O 108.063 -2.27542 -5.23049 0
M  V30 1149 O 106.997 -4.05113 -4.45159 0
M  V30 1150 H 110.823 -2.67035 -1.44657 0
M  V30 1151 H 108.408 -1.34366 -0.653148 0
M  V30 1152 H 110.29 -1.88338 -3.7697 0
M  V30 1153 H 108.965 -0.883156 -3.11419 0
M  V30 1154 H 107.872 -3.0174 -2.21142 0
M  V30 1155 H 109.205 -3.95829 -2.92541 0
M  V30 1156 N 110.857 0.726932 -1.39834 0
M  V30 1157 C 112.085 1.51613 -1.40787 0
M  V30 1158 C 112.5 1.88799 -0.00451505 0
M  V30 1159 O 111.857 1.54662 0.968809 0
M  V30 1160 C 111.908 2.79863 -2.28821 0
M  V30 1161 O 111.629 2.44253 -3.63692 0
M  V30 1162 C 113.13 3.73837 -2.38245 0
M  V30 1163 H 110.35 0.468264 -0.480593 0
M  V30 1164 H 112.894 0.897607 -1.83748 0
M  V30 1165 H 111.049 3.38027 -1.89252 0
M  V30 1166 H 111.463 3.26695 -4.1033 0
M  V30 1167 H 112.937 4.60699 -3.04073 0
M  V30 1168 H 113.414 4.16153 -1.40403 0
M  V30 1169 H 114.02 3.21589 -2.78317 0
M  V30 1170 N 112.336 1.25143 0.95797 0
M  V30 1171 C 113.613 1.00472 1.67823 0
M  V30 1172 C 113.993 -0.470056 2.058 0
M  V30 1173 O 113.341 -1.44663 1.76875 0
M  V30 1174 C 113.551 1.9372 2.90299 0
M  V30 1175 C 114.899 2.21371 3.62326 0
M  V30 1176 O 115.923 1.91451 3.00375 0
M  V30 1177 O 114.782 2.72231 4.7387 0
M  V30 1178 H 111.876 0.380752 0.734137 0
M  V30 1179 H 114.422 1.36283 1.01119 0
M  V30 1180 H 113.194 2.93316 2.59001 0
M  V30 1181 H 112.817 1.58286 3.64735 0
M  V30 1182 N 113.814 -1.1601 1.06675 0
M  V30 1183 C 115.225 -1.68235 0.809565 0
M  V30 1184 C 115.576 -1.8454 -0.666303 0
M  V30 1185 O 114.701 -1.54374 -1.5165 0
M  V30 1186 C 115.296 -3.05585 1.46299 0
M  V30 1187 C 113.855 -3.54915 1.25349 0
M  V30 1188 C 113.002 -2.30804 1.53703 0
M  V30 1189 H 115.953 -1.00318 1.22971 0
M  V30 1190 H 115.974 -3.70174 0.880431 0
M  V30 1191 H 115.486 -2.93686 2.53713 0
M  V30 1192 H 113.587 -3.72067 0.199261 0
M  V30 1193 H 113.7 -4.36774 1.9689 0
M  V30 1194 H 112.064 -2.36007 0.957739 0
M  V30 1195 H 112.847 -2.21499 2.62284 0
M  V30 1196 N 115.292 -0.849877 -1.32721 0
M  V30 1197 C 116.239 -0.289033 -2.28983 0
M  V30 1198 C 117.209 0.601324 -1.54833 0
M  V30 1199 O 118.394 0.537253 -1.8308 0
M  V30 1200 C 115.534 0.520623 -3.4115 0
M  V30 1201 C 114.647 -0.394989 -4.3019 0
M  V30 1202 C 113.782 0.426834 -5.29482 0
M  V30 1203 C 112.821 -0.486476 -6.10164 0
M  V30 1204 N 111.958 0.297879 -7.01468 0
M  V30 1205 H 116.798 -1.11519 -2.76347 0
M  V30 1206 H 114.335 -0.56138 -1.35967 0
M  V30 1207 H 116.293 1.00563 -4.04899 0
M  V30 1208 H 114.923 1.31165 -2.9495 0
M  V30 1209 H 113.975 -0.99836 -3.67065 0
M  V30 1210 H 115.287 -1.09612 -4.86607 0
M  V30 1211 H 114.441 0.975205 -5.98811 0
M  V30 1212 H 113.18 1.16136 -4.73671 0
M  V30 1213 H 112.185 -1.04677 -5.39743 0
M  V30 1214 H 113.41 -1.21953 -6.6806 0
M  V30 1215 H 111.356 1.01558 -6.48091 0
M  V30 1216 H 111.273 -0.344318 -7.55216 0
M  V30 1217 H 112.541 0.828131 -7.75089 0
M  V30 1218 N 116.77 1.45427 -0.607355 0
M  V30 1219 C 117.995 2.07124 -0.107006 0
M  V30 1220 C 118.42 1.44906 1.19933 0
M  V30 1221 O 117.778 0.541687 1.73019 0
M  V30 1222 C 117.826 3.60595 0.0194119 0
M  V30 1223 O 116.93 3.98285 1.0697 0
M  V30 1224 H 116.271 0.659868 -0.0739597 0
M  V30 1225 H 118.801 1.86683 -0.837297 0
M  V30 1226 H 118.811 4.07419 0.2177 0
M  V30 1227 H 117.486 4.05266 -0.934453 0
M  V30 1228 H 116.063 3.63133 0.847889 0
M  V30 1229 N 118.248 0.346503 1.53744 0
M  V30 1230 C 119.497 -0.250122 2.00143 0
M  V30 1231 C 119.81 -1.51418 1.23822 0
M  V30 1232 O 121.016 -2.18823 1.60713 0
M  V30 1233 C 119.472 -0.496252 3.56462 0
M  V30 1234 C 119.08 0.752077 4.41642 0
M  V30 1235 C 120.824 -1.05157 4.11269 0
M  V30 1236 C 118.731 0.476583 5.89477 0
M  V30 1237 H 117.661 -0.0972409 0.747703 0
M  V30 1238 H 120.312 0.46229 1.77581 0
M  V30 1239 H 118.694 -1.26944 3.75102 0
M  V30 1240 H 119.868 1.5266 4.34778 0
M  V30 1241 H 118.183 1.22925 3.97842 0
M  V30 1242 H 120.78 -1.27269 5.19333 0
M  V30 1243 H 121.123 -2.00799 3.64672 0
M  V30 1244 H 121.656 -0.339019 3.96353 0
M  V30 1245 H 118.395 1.4028 6.40314 0
M  V30 1246 H 117.915 -0.259794 5.99237 0
M  V30 1247 H 119.594 0.0949315 6.4693 0
M  V30 1248 N 119.726 -1.57421 0.075193 0
M  V30 1249 C 120.975 -1.92794 -0.592731 0
M  V30 1250 C 121.288 -0.957478 -1.70563 0
M  V30 1251 O 122.494 -1.20417 -2.43335 0
M  V30 1252 C 120.95 -3.42495 -1.10569 0
M  V30 1253 C 120.558 -4.47994 -0.0236121 0
M  V30 1254 C 122.302 -3.86864 -1.74748 0
M  V30 1255 C 120.209 -5.88829 -0.550803 0
M  V30 1256 H 119.139 -0.719591 -0.225177 0
M  V30 1257 H 121.79 -1.82902 0.147978 0
M  V30 1258 H 120.172 -3.47471 -1.89947 0
M  V30 1259 H 121.346 -4.54637 0.751099 0
M  V30 1260 H 119.661 -4.13113 0.522159 0
M  V30 1261 H 122.258 -4.8947 -2.15229 0
M  V30 1262 H 122.601 -3.24417 -2.60882 0
M  V30 1263 H 123.134 -3.84504 -1.01986 0
M  V30 1264 H 119.873 -6.54929 0.273457 0
M  V30 1265 H 119.393 -5.85698 -1.29296 0
M  V30 1266 H 121.072 -6.38811 -1.02613 0
M  V30 1267 N 121.204 0.198386 -1.56346 0
M  V30 1268 C 122.432 0.935572 -1.84539 0
M  V30 1269 C 122.847 1.76989 -0.657281 0
M  V30 1270 O 122.204 1.78626 0.374043 0
M  V30 1271 C 122.255 1.8344 -3.11499 0
M  V30 1272 O 121.976 1.03377 -4.25728 0
M  V30 1273 C 123.477 2.68355 -3.52846 0
M  V30 1274 H 120.697 0.273126 -0.612897 0
M  V30 1275 H 123.241 0.20663 -2.03453 0
M  V30 1276 H 121.396 2.51701 -2.94492 0
M  V30 1277 H 121.81 1.64599 -4.98003 0
M  V30 1278 H 123.284 3.27085 -4.44657 0
M  V30 1279 H 123.761 3.41901 -2.75681 0
M  V30 1280 H 124.367 2.05471 -3.72373 0
M  V30 1281 N 122.682 1.50554 0.465978 0
M  V30 1282 C 124.098 1.38093 0.800154 0
M  V30 1283 C 124.298 0.440988 1.96615 0
M  V30 1284 O 123.354 -0.114499 2.5224 0
M  V30 1285 C 124.667 2.79565 1.10742 0
M  V30 1286 C 126.215 2.88516 1.21357 0
M  V30 1287 C 126.69 4.30833 1.55393 0
M  V30 1288 N 128.181 4.33807 1.62375 0
M  V30 1289 C 128.916 5.40927 1.90225 0
M  V30 1290 N 128.412 6.58247 2.16062 0
M  V30 1291 N 130.205 5.28376 1.9177 0
M  V30 1292 H 122.356 2.10237 -0.302366 0
M  V30 1293 H 124.619 0.945203 -0.0727746 0
M  V30 1294 H 124.325 3.50208 0.323661 0
M  V30 1295 H 124.199 3.17125 2.04234 0
M  V30 1296 H 126.586 2.1809 1.98799 0
M  V30 1297 H 126.667 2.54492 0.258321 0
M  V30 1298 H 126.311 5.01799 0.784889 0
M  V30 1299 H 126.241 4.62347 2.52076 0
M  V30 1300 H 128.732 3.49212 1.44427 0
M  V30 1301 H 129.045 7.3569 2.36601 0
M  V30 1302 H 127.39 6.61413 2.13444 0
M  V30 1303 H 130.581 4.35715 1.71085 0
M  V30 1304 H 130.754 6.11944 2.13139 0
M  V30 1305 N 124.16 -0.719506 1.40217 0
M  V30 1306 C 125.409 -1.47486 1.37589 0
M  V30 1307 C 125.722 -1.9559 -0.0201568 0
M  V30 1308 O 126.928 -2.70973 -0.169049 0
M  V30 1309 C 125.384 -2.66575 2.41796 0
M  V30 1310 C 124.992 -2.25358 3.87192 0
M  V30 1311 C 126.736 -3.4433 2.48269 0
M  V30 1312 C 124.643 -3.41262 4.83005 0
M  V30 1313 H 123.573 -0.553901 0.511576 0
M  V30 1314 H 126.224 -0.783427 1.65936 0
M  V30 1315 H 124.606 -3.3787 2.06543 0
M  V30 1316 H 125.78 -1.61509 4.31569 0
M  V30 1317 H 124.095 -1.60657 3.84159 0
M  V30 1318 H 126.692 -4.30569 3.17041 0
M  V30 1319 H 127.035 -3.87872 1.51198 0
M  V30 1320 H 127.568 -2.80076 2.82493 0
M  V30 1321 H 124.307 -3.02755 5.81394 0
M  V30 1322 H 123.827 -4.0404 4.43297 0
M  V30 1323 H 125.506 -4.07383 5.02641 0
M  V30 1324 N 125.638 -1.25649 -0.95132 0
M  V30 1325 C 126.878 -1.11802 -1.71113 0
M  V30 1326 C 127.242 0.334758 -1.89059 0
M  V30 1327 O 128.443 0.595121 -2.62129 0
M  V30 1328 C 126.714 -1.85512 -3.05483 0
M  V30 1329 S 128.273 -1.87597 -3.96677 0
M  V30 1330 H 125.091 -0.399552 -0.588115 0
M  V30 1331 H 127.693 -1.59222 -1.1344 0
M  V30 1332 H 126.397 -2.90299 -2.90094 0
M  V30 1333 H 125.928 -1.38493 -3.68216 0
M  V30 1334 H 127.943 -0.955389 -4.86916 0
M  V30 1335 N 127.117 1.15442 -1.07289 0
M  V30 1336 C 128.394 1.82306 -0.708792 0
M  V30 1337 C 128.774 1.94991 0.808807 0
M  V30 1338 O 128.122 1.50085 1.72298 0
M  V30 1339 C 128.332 3.18695 -1.42247 0
M  V30 1340 C 129.68 3.94341 -1.57417 0
M  V30 1341 O 130.704 3.28247 -1.38319 0
M  V30 1342 O 129.563 5.12839 -1.88834 0
M  V30 1343 H 126.657 0.787628 -0.252132 0
M  V30 1344 H 129.203 1.22559 -1.17377 0
M  V30 1345 H 127.975 3.04557 -2.45684 0
M  V30 1346 H 127.598 3.86128 -0.948223 0
M  V30 1347 N 128.595 0.856903 1.32268 0
M  V30 1348 C 129.525 0.31858 2.31316 0
M  V30 1349 C 130.506 -0.583487 1.59779 0
M  V30 1350 O 131.691 -0.503259 1.87566 0
M  V30 1351 C 128.821 -0.491979 3.43798 0
M  V30 1352 C 127.775 0.315849 4.26833 0
M  V30 1353 C 127.101 -0.619586 5.31098 0
M  V30 1354 C 128.401 1.54282 4.98993 0
M  V30 1355 H 130.095 1.14621 2.76591 0
M  V30 1356 H 127.641 0.552613 1.32974 0
M  V30 1357 H 129.594 -0.879012 4.1213 0
M  V30 1358 H 128.318 -1.35299 2.97257 0
M  V30 1359 H 126.977 0.684664 3.6015 0
M  V30 1360 H 126.625 -1.47751 4.8081 0
M  V30 1361 H 126.325 -0.0830621 5.87541 0
M  V30 1362 H 127.849 -1.00375 6.02293 0
M  V30 1363 H 129.263 1.22796 5.59995 0
M  V30 1364 H 127.66 2.01745 5.65172 0
M  V30 1365 H 128.73 2.30285 4.26728 0
M  V30 1366 N 130.073 -1.45103 0.615059 0
M  V30 1367 C 131.006 -2.27717 -0.148408 0
M  V30 1368 C 131.984 -1.37584 -0.866572 0
M  V30 1369 O 133.168 -1.67017 -0.87393 0
M  V30 1370 C 130.295 -3.16136 -1.21557 0
M  V30 1371 C 129.341 -4.22263 -0.599712 0
M  V30 1372 S 130.174 -5.3215 0.598081 0
M  V30 1373 C 131.33 -6.24137 -0.469484 0
M  V30 1374 H 131.563 -2.92121 0.552483 0
M  V30 1375 H 129.096 -1.49054 0.402778 0
M  V30 1376 H 131.054 -3.67633 -1.82638 0
M  V30 1377 H 129.715 -2.50982 -1.88857 0
M  V30 1378 H 128.908 -4.84081 -1.4029 0
M  V30 1379 H 128.51 -3.73945 -0.063876 0
M  V30 1380 H 130.802 -6.63984 -1.34652 0
M  V30 1381 H 131.745 -7.0801 0.112725 0
M  V30 1382 H 132.153 -5.58971 -0.788168 0
M  V30 1383 N 131.551 -0.354651 -1.53558 0
M  V30 1384 C 132.776 0.242153 -2.05981 0
M  V30 1385 C 133.201 1.42553 -1.2272 0
M  V30 1386 O 132.559 1.79656 -0.243604 0
M  V30 1387 C 132.607 0.624367 -3.55154 0
M  V30 1388 O 131.711 1.72301 -3.74681 0
M  V30 1389 H 131.052 0.0378432 -0.662921 0
M  V30 1390 H 133.582 -0.512087 -1.98088 0
M  V30 1391 H 133.592 0.898433 -3.97985 0
M  V30 1392 H 132.267 -0.240989 -4.15201 0
M  V30 1393 H 130.844 1.44535 -3.4375 0
M  V30 1394 N 133.029 1.57378 -0.0835403 0
M  V30 1395 C 134.306 1.85363 0.624507 0
M  V30 1396 C 134.686 0.978239 1.87066 0
M  V30 1397 O 134.034 0.0475908 2.2845 0
M  V30 1398 C 134.244 3.35795 0.950947 0
M  V30 1399 C 135.592 4.03581 1.31939 0
M  V30 1400 O 136.616 3.40609 1.04232 0
M  V30 1401 O 135.475 5.14672 1.83779 0
M  V30 1402 H 132.569 0.766162 0.311329 0
M  V30 1403 H 135.115 1.69307 -0.115362 0
M  V30 1404 H 133.887 3.91244 0.0663899 0
M  V30 1405 H 133.51 3.57154 1.74719 0
M  V30 1406 N 134.507 -0.190092 1.56449 0
M  V30 1407 C 135.923 -0.54113 1.50146 0
M  V30 1408 C 136.123 -1.85603 0.784465 0
M  V30 1409 O 135.179 -2.5024 0.337051 0
M  V30 1410 C 136.492 -0.591241 2.9483 0
M  V30 1411 C 138.04 -0.679732 3.0553 0
M  V30 1412 C 138.515 -0.760908 4.51635 0
M  V30 1413 N 140.006 -0.824302 4.55806 0
M  V30 1414 C 140.741 -0.907365 5.66175 0
M  V30 1415 N 140.237 -0.952422 6.86222 0
M  V30 1416 N 142.03 -0.94494 5.541 0
M  V30 1417 H 134.181 0.67235 2.01478 0
M  V30 1418 H 136.444 0.240127 0.917084 0
M  V30 1419 H 136.15 0.305905 3.50367 0
M  V30 1420 H 136.024 -1.44422 3.48457 0
M  V30 1421 H 138.411 -1.56731 2.50039 0
M  V30 1422 H 138.492 0.199549 2.5502 0
M  V30 1423 H 138.136 0.122336 5.07753 0
M  V30 1424 H 138.066 -1.65606 4.99882 0
M  V30 1425 H 140.557 -0.798526 3.69367 0
M  V30 1426 H 140.87 -1.01645 7.66086 0
M  V30 1427 H 139.215 -0.921014 6.8887 0
M  V30 1428 H 142.406 -0.906612 4.59236 0
M  V30 1429 H 142.579 -1.00622 6.4014 0
M  V30 1430 N 135.985 -1.50799 -0.457987 0
M  V30 1431 C 136.932 -1.70617 -1.5543 0
M  V30 1432 C 137.902 -0.547562 -1.56815 0
M  V30 1433 O 139.087 -0.779647 -1.74144 0
M  V30 1434 C 136.227 -1.81831 -2.93311 0
M  V30 1435 C 135.34 -3.09278 -3.01615 0
M  V30 1436 C 134.475 -3.11209 -4.30491 0
M  V30 1437 C 133.514 -4.33055 -4.32585 0
M  V30 1438 N 132.651 -4.32652 -5.52952 0
M  V30 1439 H 137.491 -2.64207 -1.37836 0
M  V30 1440 H 135.028 -1.30959 -0.669937 0
M  V30 1441 H 136.986 -1.86314 -3.73287 0
M  V30 1442 H 135.616 -0.916685 -3.0951 0
M  V30 1443 H 134.668 -3.14203 -2.1443 0
M  V30 1444 H 135.98 -3.99233 -2.99022 0
M  V30 1445 H 135.134 -3.14494 -5.18824 0
M  V30 1446 H 133.873 -2.19106 -4.35711 0
M  V30 1447 H 132.878 -4.29969 -3.42647 0
M  V30 1448 H 134.103 -5.264 -4.29046 0
M  V30 1449 H 132.049 -3.43409 -5.58933 0
M  V30 1450 H 131.966 -5.16392 -5.52155 0
M  V30 1451 H 133.234 -4.40101 -6.43375 0
M  V30 1452 N 137.463 0.71206 -1.40597 0
M  V30 1453 C 138.712 1.46754 -1.38369 0
M  V30 1454 C 139.025 1.95598 0.0097839 0
M  V30 1455 O 140.231 2.71059 0.154677 0
M  V30 1456 C 138.687 2.65289 -2.43207 0
M  V30 1457 C 138.295 2.23301 -3.88382 0
M  V30 1458 C 140.039 3.43008 -2.50091 0
M  V30 1459 C 137.946 3.38696 -4.84808 0
M  V30 1460 H 136.876 0.55118 -0.514506 0
M  V30 1461 H 139.527 0.774616 -1.66349 0
M  V30 1462 H 137.909 3.36769 -2.08332 0
M  V30 1463 H 139.083 1.59218 -4.32419 0
M  V30 1464 H 137.398 1.58618 -3.85006 0
M  V30 1465 H 139.995 4.28881 -3.1932 0
M  V30 1466 H 140.338 3.87065 -1.53253 0
M  V30 1467 H 140.871 2.78574 -2.83974 0
M  V30 1468 H 137.61 2.99668 -5.82992 0
M  V30 1469 H 137.13 4.01683 -4.45433 0
M  V30 1470 H 138.809 4.04712 -5.04794 0
M  V30 1471 N 138.941 1.26152 0.944643 0
M  V30 1472 C 139.873 1.03199 2.04652 0
M  V30 1473 C 140.886 -0.00642356 1.62799 0
M  V30 1474 O 142.075 0.233263 1.76969 0
M  V30 1475 C 139.175 0.540111 3.34568 0
M  V30 1476 C 138.348 1.64697 4.05208 0
M  V30 1477 C 137.407 1.15374 5.13396 0
M  V30 1478 O 136.433 1.85013 5.38293 0
M  V30 1479 N 137.635 0.00031529 5.805 0
M  V30 1480 H 140.4 1.9808 2.2491 0
M  V30 1481 H 137.961 1.17491 1.11389 0
M  V30 1482 H 139.953 0.194401 4.04233 0
M  V30 1483 H 138.523 -0.315021 3.11009 0
M  V30 1484 H 137.743 2.16379 3.29506 0
M  V30 1485 H 139.031 2.3903 4.49157 0
M  V30 1486 H 138.429 -0.581336 5.62705 0
M  V30 1487 H 136.986 -0.286346 6.51171 0
M  V30 1488 N 140.419 -1.14872 1.07899 0
M  V30 1489 C 141.667 -1.85422 0.803941 0
M  V30 1490 C 141.988 -1.83051 -0.67211 0
M  V30 1491 O 141.258 -1.27532 -1.48703 0
M  V30 1492 H 139.838 -0.686537 0.294408 0
M  V30 1493 H 142.5 -1.39226 1.3639 0
M  V30 1494 H 141.596 -2.90399 1.14346 0
M  V30 1495 N 141.898 -0.863906 -1.31812 0
M  V30 1496 C 143.144 -0.472535 -1.97218 0
M  V30 1497 C 143.477 0.971394 -1.68159 0
M  V30 1498 O 142.752 1.68309 -0.974798 0
M  V30 1499 C 143.035 -0.723054 -3.52766 0
M  V30 1500 C 142.888 -2.21608 -3.91421 0
M  V30 1501 C 144.207 -0.185522 -4.39709 0
M  V30 1502 H 141.326 -0.173158 -0.71637 0
M  V30 1503 H 143.968 -1.08403 -1.56041 0
M  V30 1504 H 142.118 -0.202577 -3.87971 0
M  V30 1505 H 143.79 -2.80334 -3.66347 0
M  V30 1506 H 142.033 -2.691 -3.40246 0
M  V30 1507 H 142.704 -2.34203 -4.99853 0
M  V30 1508 H 145.18 -0.630726 -4.11292 0
M  V30 1509 H 144.056 -0.390306 -5.47511 0
M  V30 1510 H 144.317 0.912229 -4.32586 0
M  V30 1511 N 143.376 1.44774 -0.622745 0
M  V30 1512 C 144.622 2.0242 -0.124083 0
M  V30 1513 C 144.955 1.4881 1.24777 0
M  V30 1514 O 144.23 0.668799 1.8264 0
M  V30 1515 C 144.513 3.59957 -0.101619 0
M  V30 1516 C 144.366 4.23867 -1.50521 0
M  V30 1517 C 145.685 4.36284 0.578272 0
M  V30 1518 H 142.804 0.735528 -0.0465645 0
M  V30 1519 H 145.446 1.72447 -0.797617 0
M  V30 1520 H 143.596 3.85623 0.471934 0
M  V30 1521 H 145.268 4.09336 -2.12701 0
M  V30 1522 H 143.511 3.81684 -2.06154 0
M  V30 1523 H 144.182 5.32843 -1.4416 0
M  V30 1524 H 146.658 4.16001 0.0906057 0
M  V30 1525 H 145.534 5.46004 0.563149 0
M  V30 1526 H 145.795 4.10271 1.64713 0
M  V30 1527 N 144.854 0.36279 1.53368 0
M  V30 1528 C 146.101 -0.227776 2.01215 0
M  V30 1529 C 146.429 -1.49003 1.25014 0
M  V30 1530 O 145.684 -1.92876 0.331236 0
M  V30 1531 C 145.983 -0.568417 3.52851 0
M  V30 1532 C 145.649 0.59918 4.46901 0
M  V30 1533 C 144.311 0.919559 4.72332 0
M  V30 1534 C 146.663 1.38156 5.02556 0
M  V30 1535 C 143.991 2.02434 5.5067 0
M  V30 1536 C 146.343 2.47674 5.821 0
M  V30 1537 C 145.007 2.8025 6.05819 0
M  V30 1538 H 144.277 -0.083349 0.736297 0
M  V30 1539 H 146.924 0.494677 1.85001 0
M  V30 1540 H 145.229 -1.37185 3.66998 0
M  V30 1541 H 146.926 -1.03756 3.87344 0
M  V30 1542 H 143.516 0.339437 4.27254 0
M  V30 1543 H 147.7 1.14729 4.82857 0
M  V30 1544 H 142.956 2.28075 5.67267 0
M  V30 1545 H 147.13 3.08716 6.24234 0
M  V30 1546 H 144.757 3.65979 6.66306 0
M  V30 1547 N 146.332 -1.57332 0.0918853 0
M  V30 1548 C 147.295 -2.12708 -0.85369 0
M  V30 1549 C 148.295 -1.05561 -1.213 0
M  V30 1550 O 149.485 -1.31461 -1.14296 0
M  V30 1551 C 146.617 -2.64503 -2.15061 0
M  V30 1552 H 147.81 -2.97573 -0.3729 0
M  V30 1553 H 145.363 -1.55509 -0.157072 0
M  V30 1554 H 146.098 -1.83149 -2.67632 0
M  V30 1555 H 145.883 -3.4284 -1.90272 0
M  V30 1556 H 147.373 -3.07351 -2.82711 0
M  V30 1557 N 147.81 0.181792 -1.56548 0
M  V30 1558 C 149.087 0.926765 -1.72251 0
M  V30 1559 C 149.467 2.00831 -0.650386 0
M  V30 1560 O 148.815 2.26008 0.336521 0
M  V30 1561 C 149.025 1.50106 -3.1507 0
M  V30 1562 C 150.373 1.97805 -3.75711 0
M  V30 1563 O 151.397 1.59922 -3.18282 0
M  V30 1564 O 150.256 2.67555 -4.76525 0
M  V30 1565 H 147.35 0.435506 -0.703039 0
M  V30 1566 H 149.896 0.170443 -1.68842 0
M  V30 1567 H 148.668 0.72212 -3.84579 0
M  V30 1568 H 148.291 2.32186 -3.22763 0
M  V30 1569 N 149.288 1.51039 0.449983 0
M  V30 1570 C 150.565 1.53612 1.21089 0
M  V30 1571 C 150.945 0.292997 2.09057 0
M  V30 1572 O 150.293 -0.72259 2.16774 0
M  V30 1573 C 150.503 2.84337 2.0237 0
M  V30 1574 C 151.851 3.35807 2.59843 0
M  V30 1575 O 152.875 2.85802 2.12593 0
M  V30 1576 O 151.734 4.23029 3.45989 0
M  V30 1577 H 148.828 0.617057 0.550608 0
M  V30 1578 H 151.374 1.63344 0.460082 0
M  V30 1579 H 150.146 3.66278 1.37681 0
M  V30 1580 H 149.769 2.77708 2.84542 0
M  V30 1581 N 150.766 -0.704594 1.40972 0
M  V30 1582 C 151.994 -1.49354 1.43182 0
M  V30 1583 C 152.409 -1.88768 0.0345508 0
M  V30 1584 O 151.766 -1.56184 -0.944081 0
M  V30 1585 C 151.817 -2.76187 2.33244 0
M  V30 1586 O 151.538 -2.38436 3.67532 0
M  V30 1587 C 153.039 -3.7 2.44162 0
M  V30 1588 H 150.259 -0.460559 0.487982 0
M  V30 1589 H 152.803 -0.868261 1.85153 0
M  V30 1590 H 150.958 -3.34974 1.94606 0
M  V30 1591 H 151.372 -3.20126 4.15475 0
M  V30 1592 H 152.846 -4.55803 3.11364 0
M  V30 1593 H 153.323 -4.13867 1.47006 0
M  V30 1594 H 153.929 -3.17121 2.83398 0
M  V30 1595 N 152.244 -1.26651 -0.937939 0
M  V30 1596 C 153.521 -1.0313 -1.66204 0
M  V30 1597 C 153.901 0.437256 -2.06522 0
M  V30 1598 O 153.249 1.41831 -1.79154 0
M  V30 1599 C 153.459 -1.98314 -2.87181 0
M  V30 1600 C 154.807 -2.27107 -3.58758 0
M  V30 1601 O 155.831 -1.96205 -2.97291 0
M  V30 1602 O 154.69 -2.79736 -4.69479 0
M  V30 1603 H 151.784 -0.392384 -0.727986 0
M  V30 1604 H 154.33 -1.37874 -0.989382 0
M  V30 1605 H 153.102 -2.97399 -2.54302 0
M  V30 1606 H 152.725 -1.64068 -3.6217 0
M  V30 1607 N 153.722 1.14298 -1.08507 0
M  V30 1608 C 154.654 2.1907 -0.673859 0
M  V30 1609 C 155.667 1.60381 0.279577 0
M  V30 1610 O 156.856 1.78374 0.0670754 0
M  V30 1611 C 153.956 3.38888 0.0290979 0
M  V30 1612 C 153.129 4.27103 -0.943494 0
M  V30 1613 C 152.188 5.25477 -0.275676 0
M  V30 1614 O 151.214 5.61709 -0.920401 0
M  V30 1615 N 152.416 5.7227 0.974013 0
M  V30 1616 H 155.181 2.54965 -1.57521 0
M  V30 1617 H 152.742 1.29528 -0.971287 0
M  V30 1618 H 154.734 4.01761 0.48683 0
M  V30 1619 H 153.304 3.01309 0.832555 0
M  V30 1620 H 152.524 3.61149 -1.58004 0
M  V30 1621 H 153.812 4.82905 -1.60251 0
M  V30 1622 H 153.21 5.44965 1.51755 0
M  V30 1623 H 151.767 6.37127 1.37522 0
M  V30 1624 N 155.201 0.870884 1.31352 0
M  V30 1625 C 156.111 0.330783 2.32256 0
M  V30 1626 C 157.127 -0.559767 1.6475 0
M  V30 1627 O 158.303 -0.456263 1.96164 0
M  V30 1628 C 155.368 -0.458137 3.4366 0
M  V30 1629 C 154.429 0.460482 4.26823 0
M  V30 1630 C 153.662 -0.290881 5.32907 0
M  V30 1631 O 153.885 -1.51885 5.49806 0
M  V30 1632 O 152.819 0.351732 6.00871 0
M  V30 1633 H 156.645 1.16718 2.80376 0
M  V30 1634 H 154.23 0.634285 1.35267 0
M  V30 1635 H 156.112 -0.905343 4.1156 0
M  V30 1636 H 154.787 -1.27106 2.97701 0
M  V30 1637 H 153.694 0.956207 3.61673 0
M  V30 1638 H 155.027 1.23903 4.7635 0
M  V30 1639 N 156.679 -1.44442 0.630414 0
M  V30 1640 C 157.642 -2.29107 -0.0652523 0
M  V30 1641 C 158.642 -1.41002 -0.772995 0
M  V30 1642 O 159.832 -1.62881 -0.617692 0
M  V30 1643 C 156.964 -3.22564 -1.10296 0
M  V30 1644 H 158.157 -2.92103 0.679401 0
M  V30 1645 H 155.71 -1.51343 0.390517 0
M  V30 1646 H 156.445 -2.64416 -1.87762 0
M  V30 1647 H 156.23 -3.87491 -0.59941 0
M  V30 1648 H 157.72 -3.86167 -1.5895 0
M  V30 1649 N 158.157 -0.370918 -1.53173 0
M  V30 1650 C 159.406 0.218249 -2.00516 0
M  V30 1651 C 159.719 1.49429 -1.26215 0
M  V30 1652 O 160.925 2.16239 -1.64174 0
M  V30 1653 C 159.381 0.43948 -3.57207 0
M  V30 1654 C 158.989 -0.822244 -4.4039 0
M  V30 1655 C 160.733 0.986012 -4.1289 0
M  V30 1656 C 158.64 -0.570304 -5.88644 0
M  V30 1657 H 157.57 0.0853333 -0.749156 0
M  V30 1658 H 160.221 -0.490483 -1.76823 0
M  V30 1659 H 158.603 1.20961 -3.77074 0
M  V30 1660 H 159.777 -1.59557 -4.32294 0
M  V30 1661 H 158.092 -1.29238 -3.95836 0
M  V30 1662 H 160.689 1.18991 -5.21292 0
M  V30 1663 H 161.032 1.94972 -3.6782 0
M  V30 1664 H 161.565 0.27592 -3.96842 0
M  V30 1665 H 158.304 -1.50449 -6.38001 0
M  V30 1666 H 157.824 0.164427 -5.99575 0
M  V30 1667 H 159.503 -0.19784 -6.46697 0
M  V30 1668 N 159.635 1.57281 -0.100228 0
M  V30 1669 C 160.598 2.13158 0.842398 0
M  V30 1670 C 161.598 1.06202 1.20738 0
M  V30 1671 O 162.788 1.32066 1.13597 0
M  V30 1672 C 159.92 2.65639 2.13655 0
M  V30 1673 H 161.113 2.97766 0.357114 0
M  V30 1674 H 158.666 1.5559 0.148823 0
M  V30 1675 H 159.401 1.84566 2.66657 0
M  V30 1676 H 159.186 3.43844 1.88451 0
M  V30 1677 H 160.676 3.08846 2.81077 0
M  V30 1678 N 161.113 -0.173488 1.56642 0
M  V30 1679 C 162.045 -1.23935 1.92802 0
M  V30 1680 C 163.058 -1.40589 0.820889 0
M  V30 1681 O 164.247 -1.40631 1.09933 0
M  V30 1682 C 161.347 -2.60837 2.16373 0
M  V30 1683 C 160.52 -2.6551 3.47596 0
M  V30 1684 C 159.579 -3.8376 3.60021 0
M  V30 1685 O 158.605 -3.69859 4.32658 0
M  V30 1686 N 159.807 -5.00127 2.94709 0
M  V30 1687 H 162.572 -0.932236 2.84832 0
M  V30 1688 H 160.133 -0.363268 1.57772 0
M  V30 1689 H 162.125 -3.38407 2.21952 0
M  V30 1690 H 160.695 -2.83948 1.30738 0
M  V30 1691 H 159.915 -1.74052 3.53694 0
M  V30 1692 H 161.203 -2.65641 4.33949 0
M  V30 1693 H 160.601 -5.14322 2.35563 0
M  V30 1694 H 159.158 -5.75567 3.05886 0
M  V30 1695 N 162.591 -1.51276 -0.441967 0
M  V30 1696 C 163.84 -1.6295 -1.18871 0
M  V30 1697 C 164.153 -0.349312 -1.92456 0
M  V30 1698 O 165.359 -0.345355 -2.69295 0
M  V30 1699 C 163.815 -2.87759 -2.16155 0
M  V30 1700 C 163.423 -4.22764 -1.48239 0
M  V30 1701 C 165.167 -3.08788 -2.91291 0
M  V30 1702 C 163.074 -5.38728 -2.4398 0
M  V30 1703 H 162.004 -0.606913 -0.447406 0
M  V30 1704 H 164.655 -1.77739 -0.456205 0
M  V30 1705 H 163.037 -2.66593 -2.92821 0
M  V30 1706 H 164.211 -4.54293 -0.771635 0
M  V30 1707 H 162.526 -4.07575 -0.852741 0
M  V30 1708 H 165.123 -3.92599 -3.63002 0
M  V30 1709 H 165.466 -2.21679 -3.5237 0
M  V30 1710 H 165.999 -3.30272 -2.21733 0
M  V30 1711 H 162.738 -6.28082 -1.87598 0
M  V30 1712 H 162.258 -5.1158 -3.13123 0
M  V30 1713 H 163.937 -5.70489 -3.05207 0
M  V30 1714 N 164.069 0.697108 -1.41344 0
M  V30 1715 C 164.999 1.82353 -1.45841 0
M  V30 1716 C 165.98 1.67115 -0.317247 0
M  V30 1717 O 167.165 1.86871 -0.528474 0
M  V30 1718 C 164.295 3.20476 -1.33838 0
M  V30 1719 C 163.249 3.50415 -2.4575 0
M  V30 1720 C 162.575 4.87878 -2.18813 0
M  V30 1721 C 163.875 3.49546 -3.88091 0
M  V30 1722 H 165.569 1.78846 -2.40113 0
M  V30 1723 H 163.115 0.859028 -1.15571 0
M  V30 1724 H 165.068 3.98988 -1.35596 0
M  V30 1725 H 163.792 3.24604 -0.360498 0
M  V30 1726 H 162.451 2.74253 -2.43271 0
M  V30 1727 H 162.099 4.8863 -1.19371 0
M  V30 1728 H 161.799 5.08875 -2.93803 0
M  V30 1729 H 163.323 5.68702 -2.22284 0
M  V30 1730 H 164.737 4.18066 -3.92293 0
M  V30 1731 H 163.134 3.82075 -4.62751 0
M  V30 1732 H 164.204 2.48552 -4.16353 0
M  V30 1733 N 165.547 1.27147 0.931209 0
M  V30 1734 C 166.824 1.0401 1.65654 0
M  V30 1735 C 167.204 -0.426297 2.06751 0
M  V30 1736 O 166.552 -1.40879 1.79904 0
M  V30 1737 C 166.762 1.99834 2.86125 0
M  V30 1738 C 168.11 2.29007 3.57549 0
M  V30 1739 O 169.134 1.97779 2.96246 0
M  V30 1740 O 167.993 2.82222 4.67989 0
M  V30 1741 H 165.087 0.396239 0.725895 0
M  V30 1742 H 167.633 1.38397 0.982056 0
M  V30 1743 H 166.405 2.98744 2.52721 0
M  V30 1744 H 166.028 1.65987 3.61295 0
M  V30 1745 N 167.025 -1.13721 1.09112 0
M  V30 1746 C 168.272 -1.84924 0.825192 0
M  V30 1747 C 168.6 -1.83347 -0.649151 0
M  V30 1748 O 167.855 -1.26449 -1.49362 0
M  V30 1749 C 168.154 -3.32861 1.30146 0
M  V30 1750 C 167.82 -3.54621 2.78486 0
M  V30 1751 C 166.482 -3.60268 3.18999 0
M  V30 1752 C 168.834 -3.62855 3.74146 0
M  V30 1753 C 166.162 -3.71679 4.53951 0
M  V30 1754 C 168.514 -3.75793 5.08883 0
M  V30 1755 C 167.178 -3.79692 5.4899 0
M  V30 1756 H 166.448 -0.676684 0.301959 0
M  V30 1757 H 169.095 -1.3428 1.36533 0
M  V30 1758 H 167.4 -3.85835 0.681064 0
M  V30 1759 H 169.097 -3.86395 1.07236 0
M  V30 1760 H 165.687 -3.50879 2.46134 0
M  V30 1761 H 169.871 -3.57775 3.43963 0
M  V30 1762 H 165.127 -3.72963 4.84467 0
M  V30 1763 H 169.301 -3.81107 5.82864 0
M  V30 1764 H 166.928 -3.88287 6.53558 0
M  V30 1765 N 168.503 -0.877838 -1.30888 0
M  V30 1766 C 169.752 -0.488793 -1.95688 0
M  V30 1767 C 170.065 0.965485 -1.70111 0
M  V30 1768 O 171.271 1.46104 -2.28836 0
M  V30 1769 C 169.727 -0.823201 -3.50359 0
M  V30 1770 C 169.335 -2.29477 -3.84765 0
M  V30 1771 C 171.079 -0.503009 -4.21509 0
M  V30 1772 C 168.986 -2.57118 -5.32583 0
M  V30 1773 H 167.916 -0.179062 -0.732429 0
M  V30 1774 H 170.567 -1.07183 -1.48943 0
M  V30 1775 H 168.949 -0.169331 -3.95638 0
M  V30 1776 H 170.123 -2.99236 -3.5042 0
M  V30 1777 H 168.438 -2.58178 -3.267 0
M  V30 1778 H 171.035 -0.68665 -5.30273 0
M  V30 1779 H 171.378 0.557109 -4.12555 0
M  V30 1780 H 171.911 -1.11376 -3.8189 0
M  V30 1781 H 168.65 -3.61843 -5.4658 0
M  V30 1782 H 168.17 -1.91961 -5.68253 0
M  V30 1783 H 169.849 -2.42251 -5.99936 0
M  V30 1784 N 169.982 1.44106 -0.638065 0
M  V30 1785 C 171.207 2.0685 -0.150916 0
M  V30 1786 C 171.632 1.47417 1.16833 0
M  V30 1787 O 170.99 0.578264 1.71831 0
M  V30 1788 C 171.038 3.60555 -0.05708 0
M  V30 1789 O 170.142 4.00465 0.984972 0
M  V30 1790 H 169.483 0.658151 -0.0879399 0
M  V30 1791 H 172.013 1.84865 -0.876707 0
M  V30 1792 H 172.023 4.07789 0.131232 0
M  V30 1793 H 170.698 4.03193 -1.02021 0
M  V30 1794 H 169.275 3.64849 0.770672 0
M  V30 1795 N 171.46 0.379036 1.52974 0
M  V30 1796 C 172.423 -0.448865 2.24762 0
M  V30 1797 C 173.423 -0.998689 1.26027 0
M  V30 1798 O 174.613 -0.882313 1.50203 0
M  V30 1799 C 171.745 -1.62872 2.99476 0
M  V30 1800 H 172.938 0.179491 2.99362 0
M  V30 1801 H 170.491 0.13096 1.5575 0
M  V30 1802 H 171.226 -2.29479 2.29151 0
M  V30 1803 H 171.011 -1.24128 3.71934 0
M  V30 1804 H 172.501 -2.2151 3.5401 0
M  V30 1805 N 172.938 -1.57226 0.108567 0
M  V30 1806 C 173.87 -2.11809 -0.875752 0
M  V30 1807 C 174.883 -1.05839 -1.23701 0
M  V30 1808 O 176.072 -1.33245 -1.18778 0
M  V30 1809 C 173.172 -2.59411 -2.18081 0
M  V30 1810 C 172.345 -3.89364 -1.99284 0
M  V30 1811 C 171.404 -4.22672 -3.13424 0
M  V30 1812 O 170.43 -4.91668 -2.86795 0
M  V30 1813 N 171.632 -3.79154 -4.3957 0
M  V30 1814 H 174.397 -2.9689 -0.409477 0
M  V30 1815 H 171.958 -1.61721 -0.076158 0
M  V30 1816 H 173.95 -2.7873 -2.93414 0
M  V30 1817 H 172.52 -1.79268 -2.5609 0
M  V30 1818 H 171.74 -3.79059 -1.08203 0
M  V30 1819 H 173.028 -4.74358 -1.84017 0
M  V30 1820 H 172.426 -3.23486 -4.64083 0
M  V30 1821 H 170.983 -4.03602 -5.11809 0
M  V30 1822 N 174.416 0.165178 -1.56732 0
M  V30 1823 C 175.644 0.896218 -1.86482 0
M  V30 1824 C 176.059 1.75555 -0.694675 0
M  V30 1825 O 175.416 1.79379 0.33607 0
M  V30 1826 C 175.467 1.76792 -3.1532 0
M  V30 1827 O 175.188 0.943239 -4.27825 0
M  V30 1828 C 176.689 2.6081 -3.58459 0
M  V30 1829 H 173.909 0.260064 -0.618553 0
M  V30 1830 H 176.453 0.163428 -2.03846 0
M  V30 1831 H 174.608 2.45398 -2.99764 0
M  V30 1832 H 175.022 1.53998 -5.01383 0
M  V30 1833 H 176.496 3.17579 -4.51495 0
M  V30 1834 H 176.973 3.35977 -2.82872 0
M  V30 1835 H 177.579 1.97526 -3.76648 0
M  V30 1836 N 175.894 1.51508 0.433938 0
M  V30 1837 C 176.824 1.76016 1.53429 0
M  V30 1838 C 177.805 0.610112 1.58782 0
M  V30 1839 O 178.99 0.853177 1.74455 0
M  V30 1840 C 176.12 1.88831 2.9148 0
M  V30 1841 C 175.074 3.04288 3.00987 0
M  V30 1842 C 174.4 3.0229 4.4105 0
M  V30 1843 C 175.7 4.44193 2.74754 0
M  V30 1844 H 177.394 2.68152 1.33171 0
M  V30 1845 H 174.94 1.29035 0.639214 0
M  V30 1846 H 176.893 2.04559 3.6842 0
M  V30 1847 H 175.617 0.933455 3.12976 0
M  V30 1848 H 174.276 2.8827 2.26486 0
M  V30 1849 H 173.924 2.04576 4.59519 0
M  V30 1850 H 173.624 3.79822 4.4834 0
M  V30 1851 H 175.148 3.20116 5.1996 0
M  V30 1852 H 176.562 4.60544 3.41426 0
M  V30 1853 H 174.959 5.23457 2.9345 0
M  V30 1854 H 176.029 4.53996 1.70339 0
M  V30 1855 N 177.372 -0.689602 1.41712 0
M  V30 1856 C 178.6 -1.47827 1.44758 0
M  V30 1857 C 179.015 -1.88721 0.0545703 0
M  V30 1858 O 178.372 -1.57176 -0.927463 0
M  V30 1859 C 178.423 -2.73698 2.3616 0
M  V30 1860 O 178.144 -2.34524 3.7004 0
M  V30 1861 C 179.645 -3.67389 2.48072 0
M  V30 1862 H 176.865 -0.455357 0.49284 0
M  V30 1863 H 179.409 -0.848574 1.86063 0
M  V30 1864 H 177.564 -3.32891 1.98148 0
M  V30 1865 H 177.978 -3.15701 4.18847 0
M  V30 1866 H 179.452 -4.52475 3.16181 0
M  V30 1867 H 179.929 -4.12284 1.51388 0
M  V30 1868 H 180.535 -3.14097 2.86746 0
M  V30 1869 N 178.85 -1.27639 -0.924453 0
M  V30 1870 C 180.261 -1.12834 -1.48746 0
M  V30 1871 C 180.612 0.285505 -1.94112 0
M  V30 1872 O 179.737 1.17874 -1.81479 0
M  V30 1873 C 180.332 -2.04217 -2.70334 0
M  V30 1874 C 178.891 -1.93509 -3.22848 0
M  V30 1875 C 178.038 -1.96583 -1.95577 0
M  V30 1876 H 180.989 -1.40484 -0.738233 0
M  V30 1877 H 181.01 -1.59989 -3.4523 0
M  V30 1878 H 180.522 -3.07111 -2.37285 0
M  V30 1879 H 178.623 -0.936131 -3.60649 0
M  V30 1880 H 178.736 -2.79917 -3.88823 0
M  V30 1881 H 177.1 -1.4085 -2.12211 0
M  V30 1882 H 177.883 -3.01137 -1.64837 0
M  V30 1883 N 180.328 1.1314 -1.09713 0
M  V30 1884 C 181.577 1.83838 -0.829851 0
M  V30 1885 C 181.89 1.84599 0.646728 0
M  V30 1886 O 183.096 2.51218 1.02965 0
M  V30 1887 C 181.552 3.30069 -1.43466 0
M  V30 1888 C 181.16 3.37688 -2.94399 0
M  V30 1889 C 182.904 4.05788 -1.24645 0
M  V30 1890 C 180.811 4.78209 -3.47952 0
M  V30 1891 H 179.741 0.68877 -0.306777 0
M  V30 1892 H 182.392 1.27448 -1.3202 0
M  V30 1893 H 180.774 3.8628 -0.871996 0
M  V30 1894 H 181.948 2.91456 -3.56918 0
M  V30 1895 H 180.263 2.75436 -3.12289 0
M  V30 1896 H 182.86 5.09535 -1.62107 0
M  V30 1897 H 183.203 4.15878 -0.187357 0
M  V30 1898 H 183.736 3.55915 -1.77678 0
M  V30 1899 H 180.475 4.73311 -4.53495 0
M  V30 1900 H 179.995 5.24924 -2.90198 0
M  V30 1901 H 181.674 5.47133 -3.45332 0
M  V30 1902 N 181.806 0.884767 1.30421 0
M  V30 1903 C 182.736 0.367574 2.30589 0
M  V30 1904 C 183.717 -0.549464 1.60981 0
M  V30 1905 O 184.902 -0.46336 1.88591 0
M  V30 1906 C 182.032 -0.418944 3.44764 0
M  V30 1907 C 180.986 0.406316 4.26067 0
M  V30 1908 C 180.312 -0.506793 5.32293 0
M  V30 1909 C 181.612 1.64832 4.95608 0
M  V30 1910 H 183.306 1.20462 2.74097 0
M  V30 1911 H 180.852 0.580695 1.31772 0
M  V30 1912 H 182.805 -0.791395 4.13902 0
M  V30 1913 H 181.529 -1.28964 3.0006 0
M  V30 1914 H 180.188 0.760903 3.58617 0
M  V30 1915 H 179.836 -1.37519 4.83836 0
M  V30 1916 H 179.536 0.0415828 5.87585 0
M  V30 1917 H 181.06 -0.875764 6.04287 0
M  V30 1918 H 182.474 1.34646 5.57264 0
M  V30 1919 H 180.871 2.13688 5.60765 0
M  V30 1920 H 181.941 2.39284 4.21748 0
M  V30 1921 N 183.284 -1.43765 0.645699 0
M  V30 1922 C 184.532 -2.01499 0.155731 0
M  V30 1923 C 184.853 -1.51151 -1.232 0
M  V30 1924 O 184.123 -0.721044 -1.82148 0
M  V30 1925 H 182.703 -0.745003 0.0545817 0
M  V30 1926 H 185.365 -1.76075 0.835677 0
M  V30 1927 H 184.461 -3.1181 0.134577 0
M  V30 1928 N 184.763 -0.387143 -1.52771 0
M  V30 1929 C 186.012 0.19697 -2.00736 0
M  V30 1930 C 186.325 1.48082 -1.27793 0
M  V30 1931 O 187.531 2.14485 -1.66458 0
M  V30 1932 C 185.987 0.401568 -3.57653 0
M  V30 1933 C 185.595 -0.868907 -4.39493 0
M  V30 1934 C 187.339 0.942164 -4.13912 0
M  V30 1935 C 185.246 -0.632705 -5.88006 0
M  V30 1936 H 184.176 0.0773827 -0.750019 0
M  V30 1937 H 186.827 -0.50921 -1.76293 0
M  V30 1938 H 185.209 1.16954 -3.78335 0
M  V30 1939 H 186.383 -1.64133 -4.30577 0
M  V30 1940 H 184.698 -1.33429 -3.94443 0
M  V30 1941 H 187.295 1.13455 -5.22525 0
M  V30 1942 H 187.638 1.9106 -3.69867 0
M  V30 1943 H 188.171 0.233814 -3.97112 0
M  V30 1944 H 184.91 -1.57208 -6.36369 0
M  V30 1945 H 184.43 0.100825 -5.99715 0
M  V30 1946 H 186.109 -0.26642 -6.46451 0
M  V30 1947 N 186.241 1.57166 -0.116904 0
M  V30 1948 C 187.191 2.11756 0.845178 0
M  V30 1949 C 188.175 1.03783 1.22955 0
M  V30 1950 O 189.367 1.3002 1.20099 0
M  V30 1951 C 186.496 2.71886 2.09602 0
M  V30 1952 C 185.582 3.86937 1.7361 0
M  V30 1953 N 185.973 4.94073 1.08284 0
M  V30 1954 C 184.271 3.97082 2.03082 0
M  V30 1955 C 184.972 5.74477 0.913855 0
M  V30 1956 N 183.948 5.2423 1.43818 0
M  V30 1957 H 187.75 2.91967 0.336523 0
M  V30 1958 H 185.264 1.62174 0.0856332 0
M  V30 1959 H 187.261 3.09338 2.79492 0
M  V30 1960 H 185.921 1.93138 2.61013 0
M  V30 1961 H 186.932 5.12483 0.747067 0
M  V30 1962 H 183.609 3.29372 2.56554 0
M  V30 1963 H 184.999 6.70701 0.40125 0
M  V30 1964 N 187.719 -0.156864 1.56817 0
M  V30 1965 C 188.967 -0.869404 1.82444 0
M  V30 1966 C 189.288 -1.82147 0.69623 0
M  V30 1967 O 188.558 -1.93847 -0.28287 0
M  V30 1968 H 187.138 -0.324043 0.673056 0
M  V30 1969 H 189.8 -0.153224 1.94297 0
M  V30 1970 H 188.896 -1.43761 2.77019 0
M  V30 1971 N 189.197 -1.51736 -0.425897 0
M  V30 1972 C 190.445 -1.64644 -1.17204 0
M  V30 1973 C 190.766 -0.370486 -1.91448 0
M  V30 1974 O 190.036 0.614088 -1.86026 0
M  V30 1975 H 188.616 -0.606819 -0.435638 0
M  V30 1976 H 191.278 -1.88713 -0.487177 0
M  V30 1977 H 190.374 -2.47958 -1.89534 0
M  V30 1978 N 190.675 0.682077 -1.42076 0
M  V30 1979 C 191.9 1.47558 -1.45744 0
M  V30 1980 C 192.325 1.87977 -0.0680981 0
M  V30 1981 O 191.683 1.55522 0.9318 0
M  V30 1982 C 191.731 2.70575 -2.38373 0
M  V30 1983 O 190.835 3.68573 -1.85007 0
M  V30 1984 H 190.176 0.443585 -0.494093 0
M  V30 1985 H 192.706 0.837238 -1.86686 0
M  V30 1986 H 192.716 3.18729 -2.54707 0
M  V30 1987 H 191.391 2.40495 -3.39315 0
M  V30 1988 H 189.968 3.2757 -1.78192 0
M  V30 1989 N 192.153 1.28127 0.917671 0
M  V30 1990 C 193.378 1.18007 1.70555 0
M  V30 1991 C 193.803 -0.258257 1.86319 0
M  V30 1992 O 193.161 -1.1869 1.37049 0
M  V30 1993 C 193.209 1.87948 3.07746 0
M  V30 1994 O 192.313 1.18427 3.9503 0
M  V30 1995 H 191.654 0.409867 0.522403 0
M  V30 1996 H 194.184 1.69379 1.1477 0
M  V30 1997 H 194.194 1.95701 3.58001 0
M  V30 1998 H 192.869 2.92573 2.95591 0
M  V30 1999 H 191.446 1.18811 3.53466 0
M  V30 2000 N 193.631 -1.12557 1.10312 0
M  V30 2001 C 194.564 -2.1737 0.694674 0
M  V30 2002 C 195.542 -1.59745 -0.303373 0
M  V30 2003 O 196.726 -1.87408 -0.202578 0
M  V30 2004 C 193.853 -3.38691 0.0248052 0
M  V30 2005 C 192.899 -4.14943 0.986121 0
M  V30 2006 S 193.732 -4.73413 2.50281 0
M  V30 2007 C 194.888 -5.9807 1.84562 0
M  V30 2008 H 195.121 -2.5168 1.58255 0
M  V30 2009 H 192.654 -1.23998 0.919992 0
M  V30 2010 H 194.612 -4.08959 -0.355361 0
M  V30 2011 H 193.273 -3.02664 -0.839851 0
M  V30 2012 H 192.466 -5.01854 0.464651 0
M  V30 2013 H 192.068 -3.50377 1.30813 0
M  V30 2014 H 194.36 -6.67232 1.17507 0
M  V30 2015 H 195.303 -6.54841 2.69423 0
M  V30 2016 H 195.711 -5.49073 1.31069 0
M  V30 2017 N 195.109 -0.891671 -1.2995 0
M  V30 2018 C 196.358 -0.509521 -1.95158 0
M  V30 2019 C 196.671 0.947388 -1.71125 0
M  V30 2020 O 197.877 1.43669 -2.30372 0
M  V30 2021 C 196.333 -0.860315 -3.49466 0
M  V30 2022 C 195.941 -2.33545 -3.8231 0
M  V30 2023 C 197.685 -0.547687 -4.20952 0
M  V30 2024 C 195.592 -2.62752 -5.29826 0
M  V30 2025 H 194.522 -0.18682 -0.730489 0
M  V30 2026 H 197.173 -1.08756 -1.47798 0
M  V30 2027 H 195.555 -0.211285 -3.95436 0
M  V30 2028 H 196.729 -3.02936 -3.47227 0
M  V30 2029 H 195.044 -2.61629 -3.23944 0
M  V30 2030 H 197.641 -0.742854 -5.29515 0
M  V30 2031 H 197.984 0.51332 -4.13123 0
M  V30 2032 H 198.517 -1.1542 -3.80688 0
M  V30 2033 H 195.256 -3.6762 -5.42712 0
M  V30 2034 H 194.776 -1.97977 -5.66185 0
M  V30 2035 H 196.455 -2.48601 -5.97333 0
M  V30 2036 N 196.587 1.43421 -0.653314 0
M  V30 2037 C 197.52 2.2803 0.0879804 0
M  V30 2038 C 198.498 1.39833 0.82979 0
M  V30 2039 O 199.682 1.69275 0.829341 0
M  V30 2040 C 196.809 3.19247 1.13132 0
M  V30 2041 C 195.855 4.23704 0.487546 0
M  V30 2042 S 196.688 5.30377 -0.738961 0
M  V30 2043 C 197.844 6.25162 0.30384 0
M  V30 2044 H 198.077 2.90554 -0.629739 0
M  V30 2045 H 195.61 1.47934 -0.442156 0
M  V30 2046 H 197.568 3.72346 1.72827 0
M  V30 2047 H 196.229 2.55901 1.82136 0
M  V30 2048 H 195.422 4.87631 1.27407 0
M  V30 2049 H 195.024 3.73983 -0.0352915 0
M  V30 2050 H 197.316 6.67321 1.17 0
M  V30 2051 H 198.259 7.07463 -0.300402 0
M  V30 2052 H 198.667 5.60864 0.63969 0
M  V30 2053 N 198.065 0.39524 1.52563 0
M  V30 2054 C 199.028 -0.425001 2.25225 0
M  V30 2055 C 200.028 -0.985266 1.27079 0
M  V30 2056 O 201.218 -0.866332 1.5113 0
M  V30 2057 C 198.35 -1.59686 3.01186 0
M  V30 2058 H 199.543 0.211233 2.99155 0
M  V30 2059 H 197.096 0.147472 1.55603 0
M  V30 2060 H 197.831 -2.27035 2.31572 0
M  V30 2061 H 197.616 -1.20176 3.73229 0
M  V30 2062 H 199.106 -2.17743 3.5634 0
M  V30 2063 N 199.544 -1.57102 0.125237 0
M  V30 2064 C 200.821 -1.86953 -0.575142 0
M  V30 2065 C 201.201 -1.02749 -1.84407 0
M  V30 2066 O 200.549 -0.108144 -2.28244 0
M  V30 2067 C 200.759 -3.38198 -0.861583 0
M  V30 2068 C 202.107 -4.06937 -1.21192 0
M  V30 2069 O 203.131 -3.43252 -0.951645 0
M  V30 2070 O 201.99 -5.19364 -1.70068 0
M  V30 2071 H 199.084 -0.774147 -0.290906 0
M  V30 2072 H 201.63 -1.68942 0.160211 0
M  V30 2073 H 200.402 -3.91282 0.0373647 0
M  V30 2074 H 200.025 -3.61661 -1.65188 0
M  V30 2075 N 201.022 0.148545 -1.56898 0
M  V30 2076 C 201.969 1.18345 -1.98149 0
M  V30 2077 C 202.939 1.42772 -0.848848 0
M  V30 2078 O 204.124 1.55132 -1.11079 0
M  V30 2079 C 201.264 2.51231 -2.36594 0
M  V30 2080 C 200.377 2.33991 -3.63142 0
M  V30 2081 C 199.512 3.59902 -3.90697 0
M  V30 2082 C 198.551 3.37692 -5.1052 0
M  V30 2083 N 197.688 4.5573 -5.34092 0
M  V30 2084 H 202.528 0.82467 -2.86362 0
M  V30 2085 H 200.065 0.395756 -1.41676 0
M  V30 2086 H 202.023 3.28713 -2.56912 0
M  V30 2087 H 200.653 2.85059 -1.51463 0
M  V30 2088 H 199.705 1.47572 -3.50609 0
M  V30 2089 H 201.017 2.13539 -4.5078 0
M  V30 2090 H 200.171 4.45813 -4.11505 0
M  V30 2091 H 198.91 3.83357 -3.01477 0
M  V30 2092 H 197.915 2.5017 -4.89587 0
M  V30 2093 H 199.14 3.15637 -6.0129 0
M  V30 2094 H 197.086 4.79361 -4.47827 0
M  V30 2095 H 197.003 4.38274 -6.15996 0
M  V30 2096 H 198.271 5.42858 -5.59397 0
M  V30 2097 N 202.5 1.5196 0.417844 0
M  V30 2098 C 203.777 1.56146 1.17803 0
M  V30 2099 C 204.157 0.337275 2.08388 0
M  V30 2100 O 203.505 -0.676447 2.18258 0
M  V30 2101 C 203.715 2.88566 1.96293 0
M  V30 2102 C 205.063 3.41244 2.52662 0
M  V30 2103 O 206.087 2.90247 2.06483 0
M  V30 2104 O 204.946 4.30273 3.36938 0
M  V30 2105 H 202.04 0.628598 0.537395 0
M  V30 2106 H 204.586 1.64283 0.425331 0
M  V30 2107 H 203.358 3.69116 1.2988 0
M  V30 2108 H 202.981 2.83681 2.78587 0
M  V30 2109 N 203.978 -0.674533 1.42435 0
M  V30 2110 C 204.888 -1.81751 1.48337 0
M  V30 2111 C 205.904 -1.69975 0.372099 0
M  V30 2112 O 207.08 -1.91521 0.62304 0
M  V30 2113 C 204.145 -3.17895 1.38361 0
M  V30 2114 C 203.206 -3.41625 2.59982 0
M  V30 2115 C 202.439 -4.71274 2.50473 0
M  V30 2116 O 202.662 -5.49197 1.54075 0
M  V30 2117 O 201.596 -4.96254 3.4061 0
M  V30 2118 H 205.422 -1.79728 2.44809 0
M  V30 2119 H 203.007 -0.830312 1.24202 0
M  V30 2120 H 204.889 -3.99136 1.35161 0
M  V30 2121 H 203.564 -3.20555 0.450144 0
M  V30 2122 H 202.471 -2.60231 2.68757 0
M  V30 2123 H 203.804 -3.43796 3.52229 0
M  V30 2124 N 205.456 -1.28612 -0.910864 0
M  V30 2125 C 206.681 -1.1891 -1.69927 0
M  V30 2126 C 207.106 0.248372 -1.86453 0
M  V30 2127 O 206.464 1.17961 -1.37676 0
M  V30 2128 C 206.512 -1.89578 -3.06745 0
M  V30 2129 O 205.616 -1.20521 -3.94396 0
M  V30 2130 H 204.957 -0.412632 -0.520222 0
M  V30 2131 H 207.487 -1.69985 -1.1387 0
M  V30 2132 H 207.497 -1.97597 -3.56958 0
M  V30 2133 H 206.172 -2.94136 -2.94035 0
M  V30 2134 H 204.749 -1.20684 -3.52831 0
M  V30 2135 N 206.934 1.1197 -1.10907 0
M  V30 2136 C 208.159 1.87942 -0.877064 0
M  V30 2137 C 208.584 1.79341 0.567314 0
M  V30 2138 O 207.942 1.15184 1.40009 0
M  V30 2139 C 207.99 3.34926 -1.33629 0
M  V30 2140 O 207.094 4.09303 -0.504447 0
M  V30 2141 H 206.435 0.583785 -0.316371 0
M  V30 2142 H 208.965 1.4157 -1.47712 0
M  V30 2143 H 208.975 3.8577 -1.32837 0
M  V30 2144 H 207.65 3.40504 -2.3881 0
M  V30 2145 H 206.227 3.68393 -0.577993 0
M  V30 2146 N 208.412 0.89855 1.29475 0
M  V30 2147 C 209.345 0.319981 2.25945 0
M  V30 2148 C 210.323 -0.567189 1.52387 0
M  V30 2149 O 211.507 -0.514254 1.8135 0
M  V30 2150 C 208.634 -0.544013 3.34303 0
M  V30 2151 C 207.68 0.275682 4.25608 0
M  V30 2152 S 208.513 1.67272 5.08704 0
M  V30 2153 C 209.669 0.815621 6.20563 0
M  V30 2154 H 209.902 1.13767 2.74671 0
M  V30 2155 H 207.435 0.69882 1.3768 0
M  V30 2156 H 209.393 -1.03673 3.97193 0
M  V30 2157 H 208.054 -1.33593 2.84274 0
M  V30 2158 H 207.247 -0.384263 5.02533 0
M  V30 2159 H 206.849 0.701496 3.67362 0
M  V30 2160 H 209.141 0.0385042 6.77489 0
M  V30 2161 H 210.084 1.55691 6.90772 0
M  V30 2162 H 210.492 0.370516 5.63283 0
M  V30 2163 N 209.89 -1.43072 0.660911 0
M  V30 2164 C 211.137 -2.01721 0.177445 0
M  V30 2165 C 211.465 -1.5218 -1.21126 0
M  V30 2166 O 210.72 -0.708659 -1.82419 0
M  V30 2167 C 211.019 -3.57103 0.145563 0
M  V30 2168 C 210.685 -4.26021 1.47705 0
M  V30 2169 C 209.347 -4.44563 1.84165 0
M  V30 2170 C 211.699 -4.64983 2.35458 0
M  V30 2171 C 209.027 -4.99334 3.0803 0
M  V30 2172 C 211.379 -5.21127 3.58622 0
M  V30 2173 C 210.043 -5.37884 3.95268 0
M  V30 2174 H 209.313 -0.73815 0.0649317 0
M  V30 2175 H 211.96 -1.71446 0.853144 0
M  V30 2176 H 210.265 -3.86965 -0.61361 0
M  V30 2177 H 211.962 -4.00248 -0.2455 0
M  V30 2178 H 208.552 -4.11939 1.18339 0
M  V30 2179 H 212.736 -4.50343 2.08579 0
M  V30 2180 H 207.992 -5.10493 3.36462 0
M  V30 2181 H 212.166 -5.50262 4.26831 0
M  V30 2182 H 209.793 -5.80089 4.91325 0
M  V30 2183 N 211.368 -0.403325 -1.52352 0
M  V30 2184 C 212.615 0.174347 -2.01748 0
M  V30 2185 C 212.943 1.45636 -1.2892 0
M  V30 2186 O 212.198 1.9193 -0.382258 0
M  V30 2187 C 212.497 0.474665 -3.54234 0
M  V30 2188 C 212.163 -0.717458 -4.45155 0
M  V30 2189 C 210.825 -1.04447 -4.69728 0
M  V30 2190 C 213.177 -1.51432 -4.98716 0
M  V30 2191 C 210.505 -2.16963 -5.45109 0
M  V30 2192 C 212.857 -2.6302 -5.75329 0
M  V30 2193 C 211.521 -2.96213 -5.98175 0
M  V30 2194 H 210.791 0.0637981 -0.738248 0
M  V30 2195 H 213.438 -0.543553 -1.83624 0
M  V30 2196 H 211.743 1.27406 -3.70506 0
M  V30 2197 H 213.44 0.934496 -3.89959 0
M  V30 2198 H 210.03 -0.452596 -4.26204 0
M  V30 2199 H 214.214 -1.27491 -4.79645 0
M  V30 2200 H 209.47 -2.43034 -5.61021 0
M  V30 2201 H 213.644 -3.25158 -6.15829 0
M  V30 2202 H 211.271 -3.83516 -6.56368 0
M  V30 2203 N 212.846 1.57033 -0.133567 0
M  V30 2204 C 213.778 2.13176 0.841944 0
M  V30 2205 C 214.791 1.07794 1.22001 0
M  V30 2206 O 215.98 1.35117 1.16643 0
M  V30 2207 C 213.08 2.62847 2.13926 0
M  V30 2208 C 212.253 3.92486 1.93064 0
M  V30 2209 C 211.312 4.27605 3.0666 0
M  V30 2210 O 210.338 4.96168 2.78937 0
M  V30 2211 N 211.54 3.861 4.33483 0
M  V30 2212 H 214.305 2.97503 0.362192 0
M  V30 2213 H 211.866 1.61821 0.05042 0
M  V30 2214 H 213.858 2.83363 2.88942 0
M  V30 2215 H 212.428 1.83319 2.53205 0
M  V30 2216 H 211.648 3.80732 1.02159 0
M  V30 2217 H 212.936 4.77225 1.76447 0
M  V30 2218 H 212.334 3.30828 4.58878 0
M  V30 2219 H 210.891 4.11694 5.05323 0
M  V30 2220 N 214.325 -0.140222 1.56975 0
M  V30 2221 C 215.572 -0.851687 1.83719 0
M  V30 2222 C 215.9 -1.80862 0.715485 0
M  V30 2223 O 215.155 -1.93464 -0.294956 0
M  V30 2224 C 215.454 -1.65386 3.16832 0
M  V30 2225 C 215.12 -0.843112 4.42947 0
M  V30 2226 C 213.782 -0.619464 4.77196 0
M  V30 2227 C 216.134 -0.276582 5.20466 0
M  V30 2228 C 213.462 0.181312 5.8642 0
M  V30 2229 C 215.814 0.51127 6.30531 0
M  V30 2230 C 214.478 0.745432 6.63325 0
M  V30 2231 H 213.748 -0.311654 0.672274 0
M  V30 2232 H 216.395 -0.115006 1.91154 0
M  V30 2233 H 214.7 -2.46084 3.04877 0
M  V30 2234 H 216.397 -2.20793 3.34741 0
M  V30 2235 H 212.987 -1.0275 4.16101 0
M  V30 2236 H 217.171 -0.436632 4.94376 0
M  V30 2237 H 212.427 0.372165 6.10266 0
M  V30 2238 H 216.601 0.957354 6.89788 0
M  V30 2239 H 214.228 1.36778 7.47794 0
M  V30 2240 N 215.803 -1.52179 -0.40978 0
M  V30 2241 C 217.051 -1.65878 -1.15451 0
M  V30 2242 C 217.372 -0.390771 -1.91044 0
M  V30 2243 O 216.642 0.594323 -1.86667 0
M  V30 2244 H 215.222 -0.611405 -0.429177 0
M  V30 2245 H 217.884 -1.89219 -0.467134 0
M  V30 2246 H 216.98 -2.49954 -1.86894 0
M  V30 2247 N 217.281 0.66697 -1.42791 0
M  V30 2248 C 218.692 1.2478 -1.38877 0
M  V30 2249 C 219.043 1.96012 -0.0859426 0
M  V30 2250 O 218.168 2.00463 0.815081 0
M  V30 2251 C 218.763 2.26938 -2.51564 0
M  V30 2252 C 217.322 2.80529 -2.50959 0
M  V30 2253 C 216.469 1.54965 -2.29959 0
M  V30 2254 H 219.42 0.459853 -1.51892 0
M  V30 2255 H 219.441 3.08834 -2.22265 0
M  V30 2256 H 218.953 1.75065 -3.46372 0
M  V30 2257 H 217.054 3.36502 -1.59991 0
M  V30 2258 H 217.167 3.29012 -3.48265 0
M  V30 2259 H 215.531 1.81817 -1.78366 0
M  V30 2260 H 216.314 1.05047 -3.26833 0
M  V30 2261 N 218.759 1.29093 0.90403 0
M  V30 2262 C 219.984 1.19809 1.69294 0
M  V30 2263 C 220.409 -0.238481 1.86582 0
M  V30 2264 O 219.767 -1.1723 1.383 0
M  V30 2265 C 219.815 1.91202 3.05736 0
M  V30 2266 O 218.919 1.22611 3.93752 0
M  V30 2267 H 218.26 0.415385 0.518027 0
M  V30 2268 H 220.79 1.70586 1.12967 0
M  V30 2269 H 220.8 1.99487 3.55906 0
M  V30 2270 H 219.475 2.95692 2.92471 0
M  V30 2271 H 218.052 1.22554 3.52186 0
M  V30 2272 N 220.237 -1.11381 1.11499 0
M  V30 2273 C 221.486 -1.82494 0.858993 0
M  V30 2274 C 221.799 -1.85605 -0.617278 0
M  V30 2275 O 223.005 -2.52824 -0.989552 0
M  V30 2276 C 221.461 -3.27745 1.48699 0
M  V30 2277 C 221.069 -3.32961 2.99735 0
M  V30 2278 C 222.813 -4.03754 1.31085 0
M  V30 2279 C 220.72 -4.72612 3.55516 0
M  V30 2280 H 219.65 -0.683802 0.317696 0
M  V30 2281 H 222.301 -1.25331 1.34031 0
M  V30 2282 H 220.683 -3.84844 0.933339 0
M  V30 2283 H 221.857 -2.85741 3.61509 0
M  V30 2284 H 220.172 -2.70433 3.16631 0
M  V30 2285 H 222.769 -5.06891 1.70192 0
M  V30 2286 H 223.112 -4.15527 0.253496 0
M  V30 2287 H 223.645 -3.53043 1.83318 0
M  V30 2288 H 220.384 -4.66036 4.60967 0
M  V30 2289 H 219.904 -5.2024 2.98513 0
M  V30 2290 H 221.583 -5.4157 3.53992 0
M  V30 2291 N 221.715 -0.905404 -1.28997 0
M  V30 2292 C 222.625 -0.392246 -2.31298 0
M  V30 2293 C 223.641 0.515889 -1.66176 0
M  V30 2294 O 224.817 0.404093 -1.97304 0
M  V30 2295 C 221.882 0.36686 -3.44754 0
M  V30 2296 C 220.943 -0.573485 -4.25452 0
M  V30 2297 C 220.176 0.149488 -5.33491 0
M  V30 2298 O 220.399 1.37255 -5.5364 0
M  V30 2299 O 219.333 -0.510919 -5.99728 0
M  V30 2300 H 223.159 -1.2411 -2.77183 0
M  V30 2301 H 220.744 -0.669926 -1.33538 0
M  V30 2302 H 222.626 0.795907 -4.13816 0
M  V30 2303 H 221.301 1.19169 -3.00966 0
M  V30 2304 H 220.208 -1.05176 -3.59011 0
M  V30 2305 H 221.541 -1.36489 -4.72897 0
M  V30 2306 N 223.193 1.4272 -0.668489 0
M  V30 2307 C 224.125 2.2914 0.052613 0
M  V30 2308 C 225.138 1.43339 0.771857 0
M  V30 2309 O 226.327 1.67123 0.627067 0
M  V30 2310 C 223.427 3.20618 1.09804 0
M  V30 2311 C 222.6 4.35039 0.45389 0
M  V30 2312 C 221.659 5.07282 1.39825 0
M  V30 2313 O 220.685 5.62024 0.900978 0
M  V30 2314 N 221.887 5.12206 2.73176 0
M  V30 2315 H 224.652 2.91668 -0.689209 0
M  V30 2316 H 222.213 1.53577 -0.512422 0
M  V30 2317 H 224.205 3.65815 1.73094 0
M  V30 2318 H 222.775 2.59585 1.74167 0
M  V30 2319 H 221.995 3.92567 -0.358396 0
M  V30 2320 H 223.283 5.088 0.00486972 0
M  V30 2321 H 222.681 4.6913 3.16122 0
M  V30 2322 H 221.238 5.61069 3.31729 0
M  V30 2323 N 224.671 0.411399 1.52136 0
M  V30 2324 C 225.603 -0.448386 2.24771 0
M  V30 2325 C 226.616 -1.00828 1.27818 0
M  V30 2326 O 227.805 -0.906841 1.53749 0
M  V30 2327 C 224.905 -1.63636 2.96777 0
M  V30 2328 C 224.078 -1.19995 4.20618 0
M  V30 2329 C 223.137 -2.25509 4.75428 0
M  V30 2330 O 222.163 -1.86007 5.3795 0
M  V30 2331 N 223.365 -3.577 4.57199 0
M  V30 2332 H 226.13 0.174025 2.99194 0
M  V30 2333 H 223.691 0.238897 1.60128 0
M  V30 2334 H 225.683 -2.33793 3.30338 0
M  V30 2335 H 224.253 -2.16465 2.25526 0
M  V30 2336 H 223.473 -0.326421 3.92846 0
M  V30 2337 H 224.761 -0.885365 5.01038 0
M  V30 2338 H 224.159 -3.92543 4.07341 0
M  V30 2339 H 222.716 -4.23827 4.95191 0
M  V30 2340 N 226.149 -1.5696 0.141893 0
M  V30 2341 C 227.112 -2.15316 -0.785587 0
M  V30 2342 C 228.112 -1.09366 -1.1788 0
M  V30 2343 O 229.302 -1.35031 -1.10056 0
M  V30 2344 C 226.434 -2.71211 -2.06537 0
M  V30 2345 H 227.627 -2.98608 -0.278041 0
M  V30 2346 H 225.18 -1.5593 -0.107519 0
M  V30 2347 H 225.915 -1.91571 -2.6167 0
M  V30 2348 H 225.7 -3.4872 -1.79268 0
M  V30 2349 H 227.19 -3.16189 -2.72789 0
M  V30 2350 N 227.627 0.131896 -1.57047 0
M  V30 2351 C 228.852 0.860418 -1.8871 0
M  V30 2352 C 229.277 1.73251 -0.73251 0
M  V30 2353 O 228.635 1.785 0.317429 0
M  V30 2354 C 228.683 1.68047 -3.19049 0
M  V30 2355 O 227.787 2.7862 -3.04047 0
M  V30 2356 H 227.128 0.238743 -0.619595 0
M  V30 2357 H 229.658 0.118169 -2.04258 0
M  V30 2358 H 229.668 2.07238 -3.51449 0
M  V30 2359 H 228.343 1.04018 -4.02682 0
M  V30 2360 H 226.92 2.42726 -2.83088 0
M  V30 2361 N 229.106 1.52395 0.401703 0
M  V30 2362 C 230.352 1.67065 1.14966 0
M  V30 2363 C 230.685 0.403052 1.89971 0
M  V30 2364 O 229.96 -0.598774 1.85054 0
M  V30 2365 C 230.243 2.8975 2.13815 0
M  V30 2366 C 230.096 4.26578 1.42658 0
M  V30 2367 C 231.415 3.07965 3.14397 0
M  V30 2368 H 228.534 0.607968 0.416587 0
M  V30 2369 H 231.176 1.84965 0.434511 0
M  V30 2370 H 229.326 2.74619 2.74803 0
M  V30 2371 H 230.998 4.53451 0.847329 0
M  V30 2372 H 229.241 4.27639 0.72849 0
M  V30 2373 H 229.912 5.08483 2.14823 0
M  V30 2374 H 232.388 3.22043 2.63491 0
M  V30 2375 H 231.264 3.95308 3.80819 0
M  V30 2376 H 231.525 2.21611 3.82545 0
M  V30 2377 N 230.584 -0.659388 1.43143 0
M  V30 2378 C 231.517 -1.78425 1.42267 0
M  V30 2379 C 232.495 -1.60085 0.284894 0
M  V30 2380 O 233.679 -1.82351 0.477527 0
M  V30 2381 C 230.806 -3.15642 1.22833 0
M  V30 2382 C 229.852 -3.52698 2.39806 0
M  V30 2383 S 230.685 -3.53372 4.02353 0
M  V30 2384 C 231.841 -4.93256 3.85291 0
M  V30 2385 H 232.074 -1.78897 2.37452 0
M  V30 2386 H 229.607 -0.831469 1.301 0
M  V30 2387 H 231.565 -3.94838 1.12308 0
M  V30 2388 H 230.226 -3.12739 0.29207 0
M  V30 2389 H 229.419 -4.52475 2.21996 0
M  V30 2390 H 229.021 -2.80899 2.46925 0
M  V30 2391 H 231.313 -5.81751 3.47235 0
M  V30 2392 H 232.256 -5.16115 4.84799 0
M  V30 2393 H 232.664 -4.665 3.17865 0
M  V30 2394 N 232.062 -1.29571 -0.897171 0
M  V30 2395 C 232.992 -1.17473 -2.01798 0
M  V30 2396 C 233.973 -0.068323 -1.69963 0
M  V30 2397 O 235.158 -0.248239 -1.92607 0
M  V30 2398 C 232.288 -0.853099 -3.36659 0
M  V30 2399 C 231.242 -1.9161 -3.82713 0
M  V30 2400 C 230.568 -1.44773 -5.14728 0
M  V30 2401 C 231.868 -3.32535 -4.02763 0
M  V30 2402 H 233.562 -2.11237 -2.12177 0
M  V30 2403 H 231.108 -1.01699 -1.01948 0
M  V30 2404 H 233.061 -0.755165 -4.14578 0
M  V30 2405 H 231.785 0.120236 -3.26379 0
M  V30 2406 H 230.444 -2.00346 -3.07013 0
M  V30 2407 H 230.092 -0.462995 -5.00865 0
M  V30 2408 H 229.792 -2.15865 -5.46513 0
M  V30 2409 H 231.316 -1.36334 -5.95185 0
M  V30 2410 H 232.73 -3.26626 -4.71156 0
M  V30 2411 H 231.127 -4.01607 -4.45905 0
M  V30 2412 H 232.197 -3.75326 -3.07016 0
M  V30 2413 N 233.54 1.10788 -1.12088 0
M  V30 2414 C 234.488 2.19111 -0.780587 0
M  V30 2415 C 235.482 1.67818 0.230961 0
M  V30 2416 O 236.688 1.79777 0.0895427 0
M  V30 2417 H 233.063 0.714477 -0.234578 0
M  V30 2418 H 235.034 2.45055 -1.70266 0
M  V30 2419 C 233.783 3.46818 -0.24747 0
M  V30 2420 H 233.106 3.86646 -1.01712 0
M  V30 2421 H 234.546 4.23973 -0.0476291 0
M  V30 2422 C 233.005 3.20968 1.02378 0
M  V30 2423 O 233.535 3.42298 2.10226 0
M  V30 2424 N 231.741 2.74658 0.949271 0
M  V30 2425 H 231.288 2.57501 0.0715173 0
M  V30 2426 H 231.246 2.57739 1.80049 0
M  V30 2427 N 235.018 0.912232 1.28515 0
M  V30 2428 C 236.267 0.540504 1.94323 0
M  V30 2429 C 236.58 -0.920044 1.72611 0
M  V30 2430 O 237.786 -1.39986 2.32629 0
M  V30 2431 C 236.242 0.915803 3.48053 0
M  V30 2432 C 235.85 2.39598 3.78546 0
M  V30 2433 C 237.594 0.614588 4.20027 0
M  V30 2434 C 235.501 2.71148 5.25578 0
M  V30 2435 H 234.431 0.198418 0.727424 0
M  V30 2436 H 237.082 1.11094 1.46049 0
M  V30 2437 H 235.464 0.274168 3.9505 0
M  V30 2438 H 236.638 3.08422 3.42364 0
M  V30 2439 H 234.953 2.66749 3.1974 0
M  V30 2440 H 237.55 0.827002 5.28266 0
M  V30 2441 H 237.893 -0.447531 4.13887 0
M  V30 2442 H 238.426 1.21462 3.78803 0
M  V30 2443 H 235.165 3.76207 5.36794 0
M  V30 2444 H 234.685 2.0696 5.62963 0
M  V30 2445 H 236.364 2.58072 5.93302 0
M  V30 2446 N 236.496 -1.42363 0.676048 0
M  V30 2447 C 237.429 -2.28141 -0.0516916 0
M  V30 2448 C 238.407 -1.41135 -0.807439 0
M  V30 2449 O 239.591 -1.70573 -0.802305 0
M  V30 2450 C 236.718 -3.21007 -1.08039 0
M  V30 2451 C 235.764 -4.24426 -0.420076 0
M  V30 2452 S 236.597 -5.29134 0.823246 0
M  V30 2453 C 237.753 -6.25566 -0.204344 0
M  V30 2454 H 237.986 -2.89515 0.675884 0
M  V30 2455 H 235.519 -1.47211 0.465635 0
M  V30 2456 H 237.477 -3.75048 -1.66881 0
M  V30 2457 H 236.138 -2.58766 -1.78042 0
M  V30 2458 H 235.331 -4.89596 -1.19633 0
M  V30 2459 H 234.933 -3.7388 0.0947845 0
M  V30 2460 H 237.225 -6.69098 -1.06369 0
M  V30 2461 H 238.168 -7.06895 0.412915 0
M  V30 2462 H 238.576 -5.61811 -0.55038 0
M  V30 2463 N 237.974 -0.419461 -1.51915 0
M  V30 2464 C 238.884 0.407528 -2.31033 0
M  V30 2465 C 239.9 1.04413 -1.3919 0
M  V30 2466 O 241.076 1.0434 -1.72265 0
M  V30 2467 C 238.141 1.50365 -3.12396 0
M  V30 2468 C 237.202 0.889029 -4.19994 0
M  V30 2469 C 236.435 1.93291 -4.97468 0
M  V30 2470 O 236.658 3.15259 -4.75361 0
M  V30 2471 O 235.592 1.53339 -5.8204 0
M  V30 2472 H 239.418 -0.237865 -3.02767 0
M  V30 2473 H 237.003 -0.182413 -1.48282 0
M  V30 2474 H 238.885 2.13975 -3.63032 0
M  V30 2475 H 237.56 2.13345 -2.43445 0
M  V30 2476 H 236.467 0.215353 -3.7348 0
M  V30 2477 H 237.8 0.302991 -4.91267 0
M  V30 2478 N 239.452 1.56882 -0.150215 0
M  V30 2479 C 240.362 2.20494 0.801222 0
M  V30 2480 C 241.378 1.19019 1.26927 0
M  V30 2481 O 242.554 1.51607 1.32579 0
M  V30 2482 C 239.619 2.81659 2.02161 0
M  V30 2483 C 238.68 3.9827 1.60249 0
M  V30 2484 C 237.913 4.56508 2.7647 0
M  V30 2485 O 238.136 4.13627 3.92771 0
M  V30 2486 O 237.07 5.46719 2.51757 0
M  V30 2487 H 240.896 3.02315 0.289717 0
M  V30 2488 H 238.481 1.49202 0.0769684 0
M  V30 2489 H 240.363 3.20522 2.73576 0
M  V30 2490 H 239.038 2.02849 2.52258 0
M  V30 2491 H 237.945 3.64117 0.858477 0
M  V30 2492 H 239.278 4.78609 1.14864 0
M  V30 2493 N 240.93 -0.123565 1.57115 0
M  V30 2494 C 242.16 -0.845233 1.88519 0
M  V30 2495 C 242.568 -1.74168 0.739064 0
M  V30 2496 O 241.911 -1.81244 -0.299355 0
M  V30 2497 C 241.973 -1.73452 3.14888 0
M  V30 2498 C 241.637 -1.01285 4.45635 0
M  V30 2499 C 242.634 -0.355774 5.18681 0
M  V30 2500 C 240.319 -0.99538 4.92339 0
M  V30 2501 C 242.313 0.309114 6.3665 0
M  V30 2502 C 240 -0.32669 6.10226 0
M  V30 2503 C 240.998 0.324406 6.82229 0
M  V30 2504 O 240.686 0.982437 7.97874 0
M  V30 2505 H 240.418 -0.248534 0.628655 0
M  V30 2506 H 242.972 -0.113907 2.05084 0
M  V30 2507 H 241.202 -2.50737 2.94394 0
M  V30 2508 H 242.891 -2.33021 3.32349 0
M  V30 2509 H 243.657 -0.360918 4.83655 0
M  V30 2510 H 239.536 -1.49159 4.36202 0
M  V30 2511 H 243.08 0.8179 6.92789 0
M  V30 2512 H 238.977 -0.319294 6.4471 0
M  V30 2513 H 239.745 0.886454 8.13686 0
M  V30 2514 N 242.408 -1.52605 -0.393616 0
M  V30 2515 C 243.685 -1.58001 -1.15304 0
M  V30 2516 C 244.065 -0.370385 -2.07825 0
M  V30 2517 O 243.413 0.641638 -2.19306 0
M  V30 2518 C 243.623 -2.91652 -1.91677 0
M  V30 2519 C 244.971 -3.4522 -2.47201 0
M  V30 2520 O 245.995 -2.93495 -2.01839 0
M  V30 2521 O 244.854 -4.35579 -3.3005 0
M  V30 2522 H 241.948 -0.637068 -0.527327 0
M  V30 2523 H 244.494 -1.64939 -0.399141 0
M  V30 2524 H 243.266 -3.71136 -1.23992 0
M  V30 2525 H 242.889 -2.88077 -2.74039 0
M  V30 2526 N 243.887 0.651787 -1.4349 0
M  V30 2527 C 245.133 1.4121 -1.46395 0
M  V30 2528 C 245.488 1.92202 -0.087366 0
M  V30 2529 O 244.781 1.69452 0.894231 0
M  V30 2530 C 244.975 2.60914 -2.44251 0
M  V30 2531 C 244.804 2.21639 -3.91288 0
M  V30 2532 C 243.574 2.09897 -4.59643 0
M  V30 2533 C 245.772 1.81835 -4.81083 0
M  V30 2534 N 243.754 1.63967 -5.91598 0
M  V30 2535 C 245.125 1.46998 -6.02322 0
M  V30 2536 C 247.18 1.69031 -4.6833 0
M  V30 2537 C 245.883 1.00638 -7.12225 0
M  V30 2538 C 247.909 1.24077 -5.78238 0
M  V30 2539 C 247.271 0.901772 -6.98604 0
M  V30 2540 H 243.37 0.512322 -0.590805 0
M  V30 2541 H 245.954 0.74989 -1.7968 0
M  V30 2542 H 244.125 3.24792 -2.1299 0
M  V30 2543 H 245.857 3.27622 -2.37584 0
M  V30 2544 H 242.612 2.297 -4.14168 0
M  V30 2545 H 243.036 1.43359 -6.61647 0
M  V30 2546 H 247.678 1.93878 -3.75727 0
M  V30 2547 H 245.396 0.745399 -8.04655 0
M  V30 2548 H 248.982 1.14657 -5.7039 0
M  V30 2549 H 247.862 0.559226 -7.82203 0
M  V30 2550 N 245.365 1.30045 0.890287 0
M  V30 2551 C 246.595 1.21296 1.67245 0
M  V30 2552 C 247.003 -0.227471 1.87828 0
M  V30 2553 O 246.346 -1.16296 1.422 0
M  V30 2554 C 246.408 1.86519 3.07329 0
M  V30 2555 C 246.072 3.35837 3.09939 0
M  V30 2556 C 247.069 4.31915 2.89389 0
M  V30 2557 C 244.754 3.77196 3.31706 0
M  V30 2558 C 246.748 5.67325 2.90552 0
M  V30 2559 C 244.435 5.12725 3.32499 0
M  V30 2560 C 245.433 6.076 3.11947 0
M  V30 2561 O 245.121 7.40655 3.12547 0
M  V30 2562 H 244.853 0.4211 0.528821 0
M  V30 2563 H 247.407 1.72111 1.12103 0
M  V30 2564 H 245.637 1.30228 3.64112 0
M  V30 2565 H 247.326 1.71963 3.67673 0
M  V30 2566 H 248.092 4.01294 2.72375 0
M  V30 2567 H 243.971 3.03796 3.4674 0
M  V30 2568 H 247.515 6.41354 2.74429 0
M  V30 2569 H 243.412 5.42988 3.49047 0
M  V30 2570 H 244.18 7.49577 3.28749 0
M  V30 2571 N 246.843 -1.10192 1.12674 0
M  V30 2572 C 248.092 -1.81573 0.8783 0
M  V30 2573 C 248.405 -1.86249 -0.597557 0
M  V30 2574 O 249.611 -2.5386 -0.962681 0
M  V30 2575 C 248.067 -3.26149 1.52167 0
M  V30 2576 C 247.675 -3.29763 3.03249 0
M  V30 2577 C 249.419 -4.0234 1.3536 0
M  V30 2578 C 247.326 -4.68815 3.60508 0
M  V30 2579 H 246.256 -0.680394 0.324931 0
M  V30 2580 H 248.907 -1.23902 1.35353 0
M  V30 2581 H 247.289 -3.83832 0.974104 0
M  V30 2582 H 248.463 -2.8189 3.6452 0
M  V30 2583 H 246.778 -2.67059 3.19481 0
M  V30 2584 H 249.375 -5.05058 1.75559 0
M  V30 2585 H 249.718 -4.15235 0.297554 0
M  V30 2586 H 250.251 -3.51079 1.87052 0
M  V30 2587 H 246.99 -4.61121 4.65884 0
M  V30 2588 H 246.51 -5.17045 3.04014 0
M  V30 2589 H 248.189 -5.37785 3.59717 0
M  V30 2590 N 248.321 -0.919034 -1.28029 0
M  V30 2591 C 249.568 -0.554934 -1.94748 0
M  V30 2592 C 249.896 0.90231 -1.72304 0
M  V30 2593 O 249.151 1.65767 -1.04018 0
M  V30 2594 C 249.45 -0.816855 -3.4794 0
M  V30 2595 C 249.116 -2.25448 -3.90492 0
M  V30 2596 C 247.778 -2.64752 -4.01821 0
M  V30 2597 C 250.13 -3.18977 -4.12193 0
M  V30 2598 C 247.458 -3.96727 -4.32232 0
M  V30 2599 C 249.81 -4.50523 -4.44086 0
M  V30 2600 C 248.474 -4.89673 -4.53626 0
M  V30 2601 H 247.744 -0.203065 -0.712633 0
M  V30 2602 H 250.391 -1.16136 -1.52265 0
M  V30 2603 H 248.696 -0.127677 -3.91592 0
M  V30 2604 H 250.393 -0.514238 -3.97689 0
M  V30 2605 H 246.983 -1.93952 -3.82205 0
M  V30 2606 H 251.167 -2.89817 -4.02889 0
M  V30 2607 H 246.423 -4.26754 -4.37825 0
M  V30 2608 H 250.597 -5.23005 -4.59825 0
M  V30 2609 H 248.224 -5.91969 -4.76946 0
M  V30 2610 N 249.799 1.42003 -0.683588 0
M  V30 2611 C 251.024 2.06265 -0.216647 0
M  V30 2612 C 251.449 1.51059 1.12083 0
M  V30 2613 O 250.807 0.632638 1.69904 0
M  V30 2614 C 250.855 3.60191 -0.171759 0
M  V30 2615 O 249.959 4.03396 0.857069 0
M  V30 2616 H 249.3 0.65502 -0.108834 0
M  V30 2617 H 251.83 1.81982 -0.935077 0
M  V30 2618 H 251.84 4.08 0.0014303 0
M  V30 2619 H 250.515 3.99743 -1.14796 0
M  V30 2620 H 249.092 3.67117 0.654208 0
M  V30 2621 N 251.277 0.427512 1.51691 0
M  V30 2622 C 252.526 -0.143679 2.01188 0
M  V30 2623 C 252.839 -1.44642 1.31674 0
M  V30 2624 O 254.045 -2.09997 1.72086 0
M  V30 2625 C 252.501 -0.306602 3.58592 0
M  V30 2626 C 252.109 0.985125 4.37035 0
M  V30 2627 C 253.853 -0.832091 4.16265 0
M  V30 2628 C 251.76 0.788382 5.86122 0
M  V30 2629 H 250.69 -0.0574701 0.751807 0
M  V30 2630 H 253.341 0.555772 1.74881 0
M  V30 2631 H 251.723 -1.06882 3.81303 0
M  V30 2632 H 252.897 1.75492 4.26074 0
M  V30 2633 H 251.212 1.4384 3.90767 0
M  V30 2634 H 253.809 -0.995617 5.25349 0
M  V30 2635 H 254.152 -1.81186 3.74803 0
M  V30 2636 H 254.685 -0.128444 3.97593 0
M  V30 2637 H 251.424 1.74025 6.31978 0
M  V30 2638 H 250.944 0.0582143 5.99772 0
M  V30 2639 H 252.623 0.437722 6.45518 0
M  V30 2640 N 252.755 -1.56801 0.158532 0
M  V30 2641 C 254.001 -1.96781 -0.490405 0
M  V30 2642 C 254.334 -1.04397 -1.63753 0
M  V30 2643 O 253.609 -0.0885805 -1.94298 0
M  V30 2644 C 253.892 -3.4635 -0.985594 0
M  V30 2645 C 253.745 -4.49512 0.160824 0
M  V30 2646 C 255.064 -3.98697 -1.86355 0
M  V30 2647 H 252.183 -0.715482 -0.176788 0
M  V30 2648 H 254.825 -1.88451 0.242088 0
M  V30 2649 H 252.975 -3.53579 -1.60978 0
M  V30 2650 H 254.647 -4.54353 0.797537 0
M  V30 2651 H 252.89 -4.26013 0.818256 0
M  V30 2652 H 253.561 -5.51531 -0.227569 0
M  V30 2653 H 256.037 -3.94019 -1.33746 0
M  V30 2654 H 254.913 -5.03792 -2.17909 0
M  V30 2655 H 255.174 -3.41744 -2.8047 0
M  V30 2656 N 254.233 0.115231 -1.57178 0
M  V30 2657 C 255.461 0.836437 -1.89239 0
M  V30 2658 C 255.876 1.73256 -0.750175 0
M  V30 2659 O 255.233 1.80357 0.278832 0
M  V30 2660 C 255.284 1.66671 -3.20785 0
M  V30 2661 O 255.005 0.806652 -4.3061 0
M  V30 2662 C 256.506 2.49274 -3.66575 0
M  V30 2663 H 253.726 0.240253 -0.626514 0
M  V30 2664 H 256.27 0.0984932 -2.04263 0
M  V30 2665 H 254.425 2.35737 -3.0742 0
M  V30 2666 H 254.839 1.37969 -5.06028 0
M  V30 2667 H 256.313 3.03055 -4.6137 0
M  V30 2668 H 256.79 3.26807 -2.93417 0
M  V30 2669 H 257.396 1.85443 -3.82741 0
M  V30 2670 N 255.711 1.52812 0.385517 0
M  V30 2671 C 256.939 1.71907 1.15133 0
M  V30 2672 C 257.354 0.439004 1.83625 0
M  V30 2673 O 256.711 -0.586765 1.7281 0
M  V30 2674 C 256.762 2.87099 2.19673 0
M  V30 2675 O 256.483 4.10151 1.53973 0
M  V30 2676 C 257.984 3.17902 3.08955 0
M  V30 2677 H 255.204 0.575479 0.345057 0
M  V30 2678 H 257.748 1.99476 0.45052 0
M  V30 2679 H 255.903 2.61982 2.85384 0
M  V30 2680 H 256.317 4.74514 2.23465 0
M  V30 2681 H 257.791 4.01959 3.7833 0
M  V30 2682 H 258.268 2.3243 3.72657 0
M  V30 2683 H 258.874 3.44871 2.48885 0
M  V30 2684 N 257.189 -0.644168 1.43834 0
M  V30 2685 C 258.419 -1.42939 1.49171 0
M  V30 2686 C 258.827 -1.88874 0.111048 0
M  V30 2687 O 258.17 -1.60656 -0.8908 0
M  V30 2688 C 258.232 -2.69151 2.38324 0
M  V30 2689 C 257.896 -2.45097 3.85715 0
M  V30 2690 C 258.893 -2.07747 4.76589 0
M  V30 2691 C 256.578 -2.59141 4.30292 0
M  V30 2692 C 258.572 -1.8475 6.10038 0
M  V30 2693 C 256.259 -2.35759 5.63792 0
M  V30 2694 C 257.257 -1.9862 6.53482 0
M  V30 2695 O 256.945 -1.75489 7.84512 0
M  V30 2696 H 256.677 -0.445271 0.508635 0
M  V30 2697 H 259.231 -0.79621 1.8934 0
M  V30 2698 H 257.461 -3.3506 1.93058 0
M  V30 2699 H 259.15 -3.31123 2.3476 0
M  V30 2700 H 259.916 -1.96465 4.43426 0
M  V30 2701 H 255.795 -2.87022 3.60749 0
M  V30 2702 H 259.339 -1.55686 6.80006 0
M  V30 2703 H 255.236 -2.46646 5.9652 0
M  V30 2704 H 256.004 -1.89841 7.9618 0
M  V30 2705 N 258.668 -1.30515 -0.883378 0
M  V30 2706 C 259.915 -1.1943 -1.63532 0
M  V30 2707 C 260.243 0.250627 -1.92878 0
M  V30 2708 O 259.498 1.19556 -1.54935 0
M  V30 2709 C 259.797 -1.96994 -2.98209 0
M  V30 2710 C 259.463 -3.466 -2.88408 0
M  V30 2711 C 258.125 -3.87397 -2.85442 0
M  V30 2712 C 260.477 -4.41863 -2.76418 0
M  V30 2713 C 257.805 -5.21745 -2.68327 0
M  V30 2714 C 260.157 -5.7632 -2.60841 0
M  V30 2715 C 258.821 -6.16354 -2.56251 0
M  V30 2716 H 258.091 -0.437025 -0.598406 0
M  V30 2717 H 260.738 -1.61635 -1.02696 0
M  V30 2718 H 259.043 -1.47429 -3.63004 0
M  V30 2719 H 260.74 -1.85808 -3.55354 0
M  V30 2720 H 257.33 -3.14182 -2.91527 0
M  V30 2721 H 261.514 -4.11285 -2.77775 0
M  V30 2722 H 256.77 -5.51853 -2.63189 0
M  V30 2723 H 260.944 -6.49772 -2.50538 0
M  V30 2724 H 258.571 -7.20401 -2.42748 0
M  V30 2725 N 260.146 1.09593 -1.13257 0
M  V30 2726 C 261.557 1.63229 -0.906274 0
M  V30 2727 C 261.908 1.8811 0.557578 0
M  V30 2728 O 261.033 1.62953 1.42391 0
M  V30 2729 C 261.628 2.96535 -1.63867 0
M  V30 2730 C 260.187 3.47003 -1.45828 0
M  V30 2731 C 259.334 2.2145 -1.66898 0
M  V30 2732 H 262.285 0.92978 -1.28611 0
M  V30 2733 H 262.306 3.64411 -1.09476 0
M  V30 2734 H 261.818 2.78394 -2.70404 0
M  V30 2735 H 259.919 3.70272 -0.415848 0
M  V30 2736 H 260.032 4.24551 -2.2202 0
M  V30 2737 H 258.396 2.30022 -1.09371 0
M  V30 2738 H 259.179 2.0583 -2.74752 0
M  V30 2739 N 261.624 0.925811 1.2754 0
M  V30 2740 C 262.872 0.564138 1.94067 0
M  V30 2741 C 263.193 -0.897188 1.73134 0
M  V30 2742 O 262.463 -1.63573 1.07799 0
M  V30 2743 H 261.043 0.205645 0.718136 0
M  V30 2744 H 263.705 1.1778 1.55287 0
M  V30 2745 H 262.801 0.76881 3.02483 0
M  V30 2746 N 263.102 -1.41638 0.69111 0
M  V30 2747 C 264.332 -2.0533 0.228758 0
M  V30 2748 C 264.74 -1.52089 -1.12541 0
M  V30 2749 O 264.083 -0.662145 -1.71351 0
M  V30 2750 C 264.145 -3.59349 0.10407 0
M  V30 2751 C 263.809 -4.35362 1.38956 0
M  V30 2752 C 264.806 -4.64942 2.32648 0
M  V30 2753 C 262.491 -4.74714 1.64169 0
M  V30 2754 C 264.485 -5.32828 3.49818 0
M  V30 2755 C 262.172 -5.42338 2.81625 0
M  V30 2756 C 263.17 -5.71322 3.74273 0
M  V30 2757 O 262.858 -6.37554 4.89673 0
M  V30 2758 H 262.59 -0.667796 0.104997 0
M  V30 2759 H 265.144 -1.82477 0.942938 0
M  V30 2760 H 263.374 -3.80924 -0.665839 0
M  V30 2761 H 265.063 -4.04633 -0.320519 0
M  V30 2762 H 265.829 -4.35025 2.14425 0
M  V30 2763 H 261.708 -4.51538 0.929202 0
M  V30 2764 H 265.252 -5.55368 4.22152 0
M  V30 2765 H 261.149 -5.71673 2.99768 0
M  V30 2766 H 261.917 -6.56049 4.8943 0
M  V30 2767 N 264.58 -0.43555 -1.51462 0
M  V30 2768 C 265.512 0.41257 -2.25456 0
M  V30 2769 C 266.525 0.987822 -1.29406 0
M  V30 2770 O 267.714 0.882266 -1.55172 0
M  V30 2771 C 264.814 1.58894 -2.99342 0
M  V30 2772 C 263.987 1.13288 -4.22474 0
M  V30 2773 C 263.046 2.17917 -4.78956 0
M  V30 2774 O 262.072 1.77425 -5.40841 0
M  V30 2775 N 263.274 3.50382 -4.62832 0
M  V30 2776 H 266.039 -0.221603 -2.9888 0
M  V30 2777 H 263.6 -0.264342 -1.59727 0
M  V30 2778 H 265.592 2.28508 -3.34015 0
M  V30 2779 H 264.162 2.12849 -2.28941 0
M  V30 2780 H 263.382 0.263881 -3.93316 0
M  V30 2781 H 264.67 0.805542 -5.02383 0
M  V30 2782 H 264.068 3.86013 -4.13534 0
M  V30 2783 H 262.625 4.15895 -5.01871 0
M  V30 2784 N 266.058 1.56714 -0.166846 0
M  V30 2785 C 267.335 1.88412 0.525373 0
M  V30 2786 C 267.715 1.07602 1.81618 0
M  V30 2787 O 267.063 0.168621 2.27877 0
M  V30 2788 C 267.273 3.40363 0.771613 0
M  V30 2789 C 268.621 4.10007 1.1036 0
M  V30 2790 O 269.645 3.45655 0.860304 0
M  V30 2791 O 268.504 5.2369 1.56239 0
M  V30 2792 H 265.598 0.781587 0.270278 0
M  V30 2793 H 268.144 1.68458 -0.204946 0
M  V30 2794 H 266.916 3.91046 -0.141093 0
M  V30 2795 H 266.539 3.65914 1.55541 0
M  V30 2796 N 267.536 -0.106894 1.57237 0
M  V30 2797 C 268.783 -0.812526 1.85484 0
M  V30 2798 C 269.111 -1.79304 0.753687 0
M  V30 2799 O 268.366 -1.94047 -0.253853 0
M  V30 2800 C 268.665 -1.58628 3.20268 0
M  V30 2801 C 268.331 -0.748967 4.44636 0
M  V30 2802 C 266.993 -0.518104 4.78403 0
M  V30 2803 C 269.345 -0.166122 5.20935 0
M  V30 2804 C 266.673 0.305659 5.85903 0
M  V30 2805 C 269.025 0.644899 6.29304 0
M  V30 2806 C 267.689 0.885965 6.61594 0
M  V30 2807 H 266.959 -0.297324 0.678734 0
M  V30 2808 H 269.606 -0.0744332 1.91355 0
M  V30 2809 H 267.911 -2.39562 3.10028 0
M  V30 2810 H 269.608 -2.13643 3.39349 0
M  V30 2811 H 266.198 -0.939006 4.18187 0
M  V30 2812 H 270.382 -0.33167 4.95191 0
M  V30 2813 H 265.638 0.501528 6.0934 0
M  V30 2814 H 269.812 1.10345 6.87602 0
M  V30 2815 H 267.439 1.52609 7.44725 0
M  V30 2816 N 269.014 -1.53014 -0.377408 0
M  V30 2817 C 270.26 -1.68872 -1.12294 0
M  V30 2818 C 270.593 -0.433224 -1.89306 0
M  V30 2819 O 269.868 0.569258 -1.85983 0
M  V30 2820 C 270.151 -2.93115 -2.09179 0
M  V30 2821 C 270.004 -4.28794 -1.35853 0
M  V30 2822 C 271.323 -3.12928 -3.09458 0
M  V30 2823 H 268.442 -0.614518 -0.406862 0
M  V30 2824 H 271.084 -1.85633 -0.40503 0
M  V30 2825 H 269.234 -2.78956 -2.70399 0
M  V30 2826 H 270.906 -4.54742 -0.775082 0
M  V30 2827 H 269.149 -4.28744 -0.660364 0
M  V30 2828 H 269.82 -5.11837 -2.06706 0
M  V30 2829 H 272.296 -3.26194 -2.58334 0
M  V30 2830 H 271.172 -4.01316 -3.74482 0
M  V30 2831 H 271.433 -2.27669 -3.78971 0
M  V30 2832 N 270.492 0.636531 -1.44174 0
M  V30 2833 C 271.44 1.76995 -1.50915 0
M  V30 2834 C 272.434 1.65053 -0.381295 0
M  V30 2835 O 273.64 1.71197 -0.55601 0
M  V30 2836 H 270.015 0.584247 -0.473455 0
M  V30 2837 H 271.986 1.68432 -2.4632 0
M  V30 2838 C 270.735 3.15314 -1.46534 0
M  V30 2839 H 270.058 3.25149 -2.32633 0
M  V30 2840 H 271.498 3.9453 -1.55312 0
M  V30 2841 C 269.957 3.3639 -0.185305 0
M  V30 2842 O 270.487 3.94699 0.746688 0
M  V30 2843 N 268.693 2.9046 -0.0901606 0
M  V30 2844 H 268.24 2.43193 -0.849416 0
M  V30 2845 H 268.198 3.04937 0.765553 0
M  V30 2846 N 271.97 1.30982 0.876444 0
M  V30 2847 C 272.917 1.18085 1.98304 0
M  V30 2848 C 273.887 0.0682263 1.6596 0
M  V30 2849 O 275.072 0.239937 1.89285 0
M  V30 2850 C 272.212 0.887475 3.33493 0
M  V30 2851 C 271.325 2.08281 3.78475 0
M  V30 2852 C 270.46 1.72678 5.0235 0
M  V30 2853 C 269.499 2.88657 5.39762 0
M  V30 2854 N 268.636 2.53292 6.54819 0
M  V30 2855 H 273.476 2.1275 2.08666 0
M  V30 2856 H 271.013 1.05839 1.02159 0
M  V30 2857 H 272.971 0.697961 4.1132 0
M  V30 2858 H 271.601 -0.022315 3.22792 0
M  V30 2859 H 270.653 2.3833 2.96484 0
M  V30 2860 H 271.965 2.95108 4.02135 0
M  V30 2861 H 271.119 1.50151 5.87826 0
M  V30 2862 H 269.858 0.830327 4.8058 0
M  V30 2863 H 268.863 3.1184 4.52809 0
M  V30 2864 H 270.088 3.79002 5.63502 0
M  V30 2865 H 268.034 1.66163 6.34607 0
M  V30 2866 H 267.951 3.3365 6.7839 0
M  V30 2867 H 269.219 2.34143 7.43503 0
M  V30 2868 N 273.449 -1.08991 1.13837 0
M  V30 2869 C 274.698 -1.80631 0.897509 0
M  V30 2870 C 275.011 -1.86872 -0.57777 0
M  V30 2871 O 276.217 -2.54866 -0.935701 0
M  V30 2872 C 274.673 -3.24517 1.55618 0
M  V30 2873 C 274.281 -3.26529 3.0673 0
M  V30 2874 C 276.025 -4.00882 1.3962 0
M  V30 2875 C 273.932 -4.64965 3.65461 0
M  V30 2876 H 272.862 -0.67691 0.332129 0
M  V30 2877 H 275.513 -1.2246 1.3666 0
M  V30 2878 H 273.895 -3.82778 1.01476 0
M  V30 2879 H 275.069 -2.78008 3.67489 0
M  V30 2880 H 273.384 -2.63656 3.22296 0
M  V30 2881 H 275.981 -5.03167 1.80906 0
M  V30 2882 H 276.324 -4.14896 0.341578 0
M  V30 2883 H 276.857 -3.49075 1.90766 0
M  V30 2884 H 273.596 -4.56153 4.70749 0
M  V30 2885 H 273.116 -5.13792 3.09481 0
M  V30 2886 H 274.795 -5.3394 3.654 0
M  V30 2887 N 274.927 -0.932562 -1.27047 0
M  V30 2888 C 276.343 -0.633544 -1.46487 0
M  V30 2889 C 276.543 0.815746 -1.84249 0
M  V30 2890 O 275.599 1.59319 -1.95892 0
M  V30 2891 C 276.912 -1.58758 -2.55375 0
M  V30 2892 C 278.46 -1.59634 -2.69232 0
M  V30 2893 C 278.935 -2.53747 -3.81283 0
M  V30 2894 N 280.426 -2.51982 -3.88664 0
M  V30 2895 C 281.161 -3.21491 -4.74796 0
M  V30 2896 N 280.657 -4.00395 -5.65381 0
M  V30 2897 N 282.45 -3.10485 -4.68568 0
M  V30 2898 H 274.601 -1.86946 -1.00821 0
M  V30 2899 H 276.864 -0.802897 -0.504044 0
M  V30 2900 H 276.57 -2.62172 -2.34432 0
M  V30 2901 H 276.444 -1.33301 -3.52861 0
M  V30 2902 H 278.831 -0.569488 -2.89553 0
M  V30 2903 H 278.912 -1.89142 -1.72218 0
M  V30 2904 H 278.556 -3.56545 -3.61715 0
M  V30 2905 H 278.486 -2.21532 -4.77735 0
M  V30 2906 H 280.977 -1.94681 -3.23895 0
M  V30 2907 H 281.29 -4.50406 -6.27976 0
M  V30 2908 H 279.635 -4.04498 -5.65161 0
M  V30 2909 H 282.826 -2.48331 -3.96799 0
M  V30 2910 H 282.999 -3.64925 -5.35475 0
M  V30 2911 N 276.405 1.4127 -0.698611 0
M  V30 2912 C 277.63 2.06024 -0.238512 0
M  V30 2913 C 278.055 1.5224 1.10475 0
M  V30 2914 O 277.413 0.650623 1.69223 0
M  V30 2915 C 277.461 3.59988 -0.209952 0
M  V30 2916 O 276.565 4.04282 0.814235 0
M  V30 2917 H 275.906 0.653829 -0.115775 0
M  V30 2918 H 278.436 1.8098 -0.954326 0
M  V30 2919 H 278.446 4.07979 -0.0418436 0
M  V30 2920 H 277.121 3.98503 -1.1903 0
M  V30 2921 H 275.698 3.6779 0.615234 0
M  V30 2922 N 277.883 0.443576 1.51229 0
M  V30 2923 C 279.111 -0.11929 2.06556 0
M  V30 2924 C 279.526 -1.35921 1.31038 0
M  V30 2925 O 278.883 -1.78675 0.371704 0
M  V30 2926 C 278.934 -0.435228 3.5887 0
M  V30 2927 O 278.655 0.755486 4.31537 0
M  V30 2928 C 280.156 -1.04808 4.30732 0
M  V30 2929 H 277.376 -0.0051584 0.67098 0
M  V30 2930 H 279.92 0.624453 1.94733 0
M  V30 2931 H 278.075 -1.12887 3.70588 0
M  V30 2932 H 278.489 0.483491 5.22267 0
M  V30 2933 H 279.963 -1.2191 5.3837 0
M  V30 2934 H 280.44 -2.03081 3.89429 0
M  V30 2935 H 281.046 -0.393637 4.23474 0
M  V30 2936 N 279.361 -1.56624 0.175154 0
M  V30 2937 C 280.61 -1.96173 -0.468921 0
M  V30 2938 C 280.923 -1.06401 -1.64128 0
M  V30 2939 O 282.129 -1.35648 -2.35185 0
M  V30 2940 C 280.585 -3.48833 -0.885633 0
M  V30 2941 C 280.193 -4.47237 0.261343 0
M  V30 2942 C 281.937 -3.97194 -1.49791 0
M  V30 2943 C 279.844 -5.9114 -0.175214 0
M  V30 2944 H 278.774 -0.732455 -0.178958 0
M  V30 2945 H 281.425 -1.81591 0.263997 0
M  V30 2946 H 279.807 -3.58848 -1.67464 0
M  V30 2947 H 280.981 -4.4894 1.03871 0
M  V30 2948 H 279.296 -4.08956 0.783827 0
M  V30 2949 H 281.893 -5.02167 -1.83665 0
M  V30 2950 H 282.236 -3.40351 -2.39722 0
M  V30 2951 H 282.769 -3.90212 -0.773267 0
M  V30 2952 H 279.508 -6.51865 0.689414 0
M  V30 2953 H 279.028 -5.92735 -0.91786 0
M  V30 2954 H 280.707 -6.44044 -0.617792 0
M  V30 2955 N 280.839 0.0985539 -1.57292 0
M  V30 2956 C 281.749 1.13824 -2.05137 0
M  V30 2957 C 282.765 1.44076 -0.975604 0
M  V30 2958 O 283.941 1.54786 -1.28853 0
M  V30 2959 C 281.006 2.43969 -2.46333 0
M  V30 2960 C 280.067 2.2093 -3.68087 0
M  V30 2961 C 279.3 3.44869 -4.0731 0
M  V30 2962 O 279.523 4.52972 -3.46659 0
M  V30 2963 O 278.457 3.34661 -5.00285 0
M  V30 2964 H 282.283 0.761881 -2.93988 0
M  V30 2965 H 279.868 0.310818 -1.46131 0
M  V30 2966 H 281.75 3.20609 -2.73473 0
M  V30 2967 H 280.425 2.81038 -1.60621 0
M  V30 2968 H 279.332 1.42081 -3.46069 0
M  V30 2969 H 280.665 1.88755 -4.54568 0
M  V30 2970 N 282.317 1.53212 0.369288 0
M  V30 2971 C 283.265 1.80054 1.47253 0
M  V30 2972 C 284.259 0.669456 1.55611 0
M  V30 2973 O 285.465 0.852328 1.58541 0
M  V30 2974 H 281.84 0.570034 0.490475 0
M  V30 2975 H 283.811 2.72403 1.21817 0
M  V30 2976 C 282.56 2.00403 2.84137 0
M  V30 2977 H 281.883 2.86876 2.78464 0
M  V30 2978 H 283.323 2.23164 3.60519 0
M  V30 2979 C 281.782 0.782081 3.27697 0
M  V30 2980 O 282.312 -0.0310205 4.01688 0
M  V30 2981 N 280.518 0.606573 2.84199 0
M  V30 2982 H 280.065 1.26939 2.24152 0
M  V30 2983 H 280.023 -0.20962 3.137 0
M  V30 2984 N 283.795 -0.628877 1.44509 0
M  V30 2985 C 285.02 -1.42048 1.5112 0
M  V30 2986 C 285.445 -1.87594 0.137818 0
M  V30 2987 O 284.803 -1.58873 -0.873437 0
M  V30 2988 C 284.851 -2.61541 2.48251 0
M  V30 2989 O 283.955 -3.61453 1.98559 0
M  V30 2990 H 283.296 -0.424942 0.510216 0
M  V30 2991 H 285.826 -0.767374 1.89664 0
M  V30 2992 H 285.836 -3.09057 2.66361 0
M  V30 2993 H 284.511 -2.27736 3.48007 0
M  V30 2994 H 283.088 -3.20731 1.90227 0
M  V30 2995 N 285.273 -1.31445 -0.869486 0
M  V30 2996 C 286.52 -1.21158 -1.62256 0
M  V30 2997 C 286.848 0.230155 -1.93133 0
M  V30 2998 O 286.103 1.17906 -1.56194 0
M  V30 2999 C 286.402 -2.00145 -2.96102 0
M  V30 3000 C 286.068 -3.4964 -2.84715 0
M  V30 3001 C 284.73 -3.90403 -2.81317 0
M  V30 3002 C 287.082 -4.44769 -2.71716 0
M  V30 3003 C 284.41 -5.24561 -2.62778 0
M  V30 3004 C 286.762 -5.79054 -2.54714 0
M  V30 3005 C 285.426 -6.19037 -2.49699 0
M  V30 3006 H 284.696 -0.443348 -0.593737 0
M  V30 3007 H 287.343 -1.62715 -1.00976 0
M  V30 3008 H 285.648 -1.5127 -3.6142 0
M  V30 3009 H 287.345 -1.89566 -3.53363 0
M  V30 3010 H 283.935 -3.17256 -2.88178 0
M  V30 3011 H 288.119 -4.14208 -2.73397 0
M  V30 3012 H 283.375 -5.54613 -2.57321 0
M  V30 3013 H 287.549 -6.52393 -2.43632 0
M  V30 3014 H 285.176 -7.22935 -2.35093 0
M  V30 3015 N 286.751 1.08385 -1.14413 0
M  V30 3016 C 287.997 1.81044 -0.913834 0
M  V30 3017 C 288.33 1.86004 0.558209 0
M  V30 3018 O 287.605 1.33606 1.4135 0
M  V30 3019 C 287.888 3.26648 -1.51569 0
M  V30 3020 C 287.741 3.29895 -3.0576 0
M  V30 3021 C 289.06 4.23629 -1.19273 0
M  V30 3022 H 286.179 0.65727 -0.333414 0
M  V30 3023 H 288.821 1.26896 -1.41412 0
M  V30 3024 H 286.971 3.72889 -1.09023 0
M  V30 3025 H 288.643 2.91977 -3.57137 0
M  V30 3026 H 286.886 2.69163 -3.40197 0
M  V30 3027 H 287.557 4.32516 -3.42977 0
M  V30 3028 H 290.033 3.85727 -1.56057 0
M  V30 3029 H 288.909 5.23822 -1.64017 0
M  V30 3030 H 289.17 4.41968 -0.108068 0
M  V30 3031 N 288.23 0.939286 1.26551 0
M  V30 3032 C 289.478 0.58469 1.93457 0
M  V30 3033 C 289.799 -0.878774 1.74076 0
M  V30 3034 O 289.069 -1.62421 1.09528 0
M  V30 3035 H 287.649 0.21325 0.715914 0
M  V30 3036 H 290.311 1.1942 1.54029 0
M  V30 3037 H 289.407 0.800849 3.0165 0
M  V30 3038 N 289.708 -1.40897 0.706093 0
M  V30 3039 C 290.954 -2.01849 0.250681 0
M  V30 3040 C 291.309 -1.5496 -1.14041 0
M  V30 3041 O 290.602 -0.755566 -1.76073 0
M  V30 3042 C 290.796 -3.5646 0.259099 0
M  V30 3043 C 290.625 -4.18357 1.64947 0
M  V30 3044 C 289.395 -4.522 2.25485 0
M  V30 3045 C 291.593 -4.43856 2.598 0
M  V30 3046 N 289.575 -4.9944 3.56977 0
M  V30 3047 C 290.946 -4.92986 3.75985 0
M  V30 3048 C 293.001 -4.25882 2.57933 0
M  V30 3049 C 291.704 -5.2603 4.90597 0
M  V30 3050 C 293.73 -4.6002 3.71665 0
M  V30 3051 C 293.092 -5.09331 4.86581 0
M  V30 3052 H 289.191 -0.769843 0.137353 0
M  V30 3053 H 291.775 -1.71278 0.925845 0
M  V30 3054 H 289.946 -3.86481 -0.385592 0
M  V30 3055 H 291.678 -4.04144 -0.21213 0
M  V30 3056 H 288.433 -4.3901 1.77671 0
M  V30 3057 H 288.857 -5.27454 4.24407 0
M  V30 3058 H 293.499 -3.86986 1.70298 0
M  V30 3059 H 291.217 -5.63843 5.78884 0
M  V30 3060 H 294.803 -4.47762 3.71484 0
M  V30 3061 H 293.683 -5.35251 5.73129 0
M  V30 3062 N 291.186 -0.45159 -1.50991 0
M  V30 3063 C 292.096 0.358431 -2.31846 0
M  V30 3064 C 293.112 1.01438 -1.41373 0
M  V30 3065 O 294.288 1.00663 -1.74439 0
M  V30 3066 C 291.353 1.43704 -3.15515 0
M  V30 3067 C 290.414 0.799742 -4.21785 0
M  V30 3068 C 289.647 1.82696 -5.01456 0
M  V30 3069 O 289.87 3.05105 -4.81941 0
M  V30 3070 O 288.804 1.40958 -5.85162 0
M  V30 3071 H 292.63 -0.302032 -3.02194 0
M  V30 3072 H 290.215 -0.213825 -1.47862 0
M  V30 3073 H 292.097 2.06227 -3.67489 0
M  V30 3074 H 290.772 2.08133 -2.47916 0
M  V30 3075 H 289.679 0.136084 -3.73852 0
M  V30 3076 H 291.012 0.198718 -4.91799 0
M  V30 3077 N 292.664 1.56529 -0.183458 0
M  V30 3078 C 293.594 2.21549 0.737456 0
M  V30 3079 C 294.575 1.17489 1.23005 0
M  V30 3080 O 295.76 1.45959 1.281 0
M  V30 3081 C 292.89 2.86575 1.96194 0
M  V30 3082 C 291.844 3.96778 1.60473 0
M  V30 3083 C 291.17 4.48911 2.90487 0
M  V30 3084 C 292.47 5.15767 0.823497 0
M  V30 3085 H 294.164 2.98761 0.195453 0
M  V30 3086 H 291.71 1.43702 0.0925686 0
M  V30 3087 H 293.663 3.30739 2.61131 0
M  V30 3088 H 292.387 2.06749 2.52828 0
M  V30 3089 H 291.046 3.53286 0.978997 0
M  V30 3090 H 290.694 3.65862 3.45186 0
M  V30 3091 H 290.394 5.23265 2.67335 0
M  V30 3092 H 291.918 4.95771 3.56432 0
M  V30 3093 H 293.332 5.56549 1.37571 0
M  V30 3094 H 291.729 5.96114 0.690551 0
M  V30 3095 H 292.799 4.84574 -0.177782 0
M  V30 3096 N 294.142 -0.090211 1.57342 0
M  V30 3097 C 295.052 -1.12735 2.05738 0
M  V30 3098 C 296.068 -1.43557 0.983231 0
M  V30 3099 O 297.244 -1.54101 1.29672 0
M  V30 3100 C 294.309 -2.42659 2.47624 0
M  V30 3101 C 293.37 -2.18975 3.69254 0
M  V30 3102 C 292.603 -3.42704 4.09133 0
M  V30 3103 O 292.826 -4.51127 3.49057 0
M  V30 3104 O 291.76 -3.32003 5.02053 0
M  V30 3105 H 295.586 -0.746279 2.94388 0
M  V30 3106 H 293.171 -0.303064 1.46294 0
M  V30 3107 H 295.053 -3.19155 2.7517 0
M  V30 3108 H 293.728 -2.80182 1.62109 0
M  V30 3109 H 292.635 -1.40244 3.46818 0
M  V30 3110 H 293.968 -1.86342 4.55563 0
M  V30 3111 N 295.62 -1.53406 -0.361157 0
M  V30 3112 C 296.53 -1.83122 -1.4664 0
M  V30 3113 C 297.546 -0.719943 -1.58407 0
M  V30 3114 O 298.722 -1.01046 -1.74218 0
M  V30 3115 C 295.787 -2.01891 -2.81853 0
M  V30 3116 C 294.848 -3.25784 -2.79577 0
M  V30 3117 C 294.081 -3.43648 -4.0834 0
M  V30 3118 O 294.304 -2.65714 -5.0473 0
M  V30 3119 O 293.238 -4.37018 -4.13883 0
M  V30 3120 H 297.064 -2.7703 -1.24451 0
M  V30 3121 H 294.649 -1.38841 -0.551678 0
M  V30 3122 H 296.531 -2.15782 -3.61962 0
M  V30 3123 H 295.206 -1.11173 -3.0401 0
M  V30 3124 H 294.113 -3.17312 -1.98151 0
M  V30 3125 H 295.446 -4.16439 -2.62373 0
M  V30 3126 N 297.098 0.621204 -1.44841 0
M  V30 3127 C 298.344 1.3826 -1.48365 0
M  V30 3128 C 298.677 1.93831 -0.119624 0
M  V30 3129 O 297.952 1.74251 0.864111 0
M  V30 3130 C 298.235 2.54058 -2.55199 0
M  V30 3131 C 298.088 2.03772 -4.00995 0
M  V30 3132 C 299.407 3.56225 -2.58442 0
M  V30 3133 H 296.526 0.501374 -0.540179 0
M  V30 3134 H 299.168 0.7015 -1.76576 0
M  V30 3135 H 297.318 3.12162 -2.31274 0
M  V30 3136 H 298.99 1.50423 -4.36086 0
M  V30 3137 H 297.233 1.34876 -4.12299 0
M  V30 3138 H 297.904 2.87185 -4.71411 0
M  V30 3139 H 300.38 3.07939 -2.79844 0
M  V30 3140 H 299.256 4.34756 -3.3508 0
M  V30 3141 H 299.517 4.10949 -1.63013 0
M  V30 3142 N 298.576 1.31904 0.862503 0
M  V30 3143 C 299.506 1.22782 1.98612 0
M  V30 3144 C 300.487 0.113362 1.69722 0
M  V30 3145 O 301.672 0.299218 1.91881 0
M  V30 3146 C 298.802 0.942058 3.34279 0
M  V30 3147 C 297.756 2.0169 3.77499 0
M  V30 3148 C 297.082 1.58369 5.10709 0
M  V30 3149 C 298.382 3.43096 3.93805 0
M  V30 3150 H 300.076 2.16788 2.06502 0
M  V30 3151 H 297.622 1.04366 0.992154 0
M  V30 3152 H 299.575 0.864818 4.1243 0
M  V30 3153 H 298.299 -0.0336603 3.26583 0
M  V30 3154 H 296.958 2.08416 3.01593 0
M  V30 3155 H 296.606 0.595628 4.99461 0
M  V30 3156 H 296.306 2.30279 5.40597 0
M  V30 3157 H 297.83 1.52067 5.91361 0
M  V30 3158 H 299.244 3.39003 4.62331 0
M  V30 3159 H 297.641 4.13288 4.35101 0
M  V30 3160 H 298.711 3.83334 2.96957 0
M  V30 3161 N 300.054 -1.07777 1.14986 0
M  V30 3162 C 300.984 -2.16865 0.865557 0
M  V30 3163 C 301.965 -1.69123 -0.182083 0
M  V30 3164 O 303.15 -1.94164 -0.0373815 0
M  V30 3165 C 300.28 -3.45539 0.349313 0
M  V30 3166 C 299.234 -4.06708 1.33313 0
M  V30 3167 C 298.56 -5.30411 0.675918 0
M  V30 3168 C 299.86 -4.47241 2.69764 0
M  V30 3169 H 301.554 -2.40905 1.77778 0
M  V30 3170 H 299.1 -1.15781 0.856203 0
M  V30 3171 H 301.053 -4.21174 0.137983 0
M  V30 3172 H 299.777 -3.21072 -0.598362 0
M  V30 3173 H 298.436 -3.33112 1.53075 0
M  V30 3174 H 298.084 -5.02232 -0.277767 0
M  V30 3175 H 297.784 -5.72293 1.33244 0
M  V30 3176 H 299.308 -6.08755 0.474262 0
M  V30 3177 H 300.722 -5.14025 2.53873 0
M  V30 3178 H 299.119 -5.00062 3.3175 0
M  V30 3179 H 300.189 -3.58818 3.26156 0
M  V30 3180 N 301.532 -0.945985 -1.26051 0
M  V30 3181 C 302.462 -0.477172 -2.28572 0
M  V30 3182 C 303.443 0.472032 -1.63419 0
M  V30 3183 O 304.628 0.372853 -1.90587 0
M  V30 3184 C 301.758 0.253975 -3.4637 0
M  V30 3185 C 300.712 -0.609135 -4.23643 0
M  V30 3186 C 300.038 0.252252 -5.34105 0
M  V30 3187 C 301.338 -1.8829 -4.8718 0
M  V30 3188 H 303.032 -1.33402 -2.68038 0
M  V30 3189 H 300.578 -0.642904 -1.28852 0
M  V30 3190 H 302.531 0.593016 -4.17207 0
M  V30 3191 H 301.255 1.145 -3.05871 0
M  V30 3192 H 299.914 -0.931138 -3.54578 0
M  V30 3193 H 299.562 1.14278 -4.89846 0
M  V30 3194 H 299.262 -0.32188 -5.86718 0
M  V30 3195 H 300.786 0.586454 -6.07777 0
M  V30 3196 H 302.2 -1.61081 -5.50205 0
M  V30 3197 H 300.597 -2.40199 -5.49931 0
M  V30 3198 H 301.667 -2.59134 -4.09851 0
M  V30 3199 N 303.011 1.40521 -0.713556 0
M  V30 3200 C 304.288 1.94775 -0.17943 0
M  V30 3201 C 304.668 1.65184 1.31444 0
M  V30 3202 O 304.016 0.968429 2.06963 0
M  V30 3203 C 304.226 3.45543 -0.489986 0
M  V30 3204 C 305.574 4.22442 -0.427536 0
M  V30 3205 O 306.598 3.53644 -0.425929 0
M  V30 3206 O 305.457 5.4501 -0.403292 0
M  V30 3207 H 302.551 0.826606 -0.0255192 0
M  V30 3208 H 305.097 1.5014 -0.790949 0
M  V30 3209 H 303.869 3.60432 -1.5233 0
M  V30 3210 H 303.492 3.97311 0.151598 0
M  V30 3211 N 304.489 0.459591 1.5075 0
M  V30 3212 C 305.422 -0.386257 2.24907 0
M  V30 3213 C 306.4 -1.006 1.27744 0
M  V30 3214 O 307.584 -1.04416 1.56938 0
M  V30 3215 C 304.711 -1.54021 3.01654 0
M  V30 3216 C 303.757 -1.03898 4.13651 0
M  V30 3217 S 304.59 0.0370501 5.35487 0
M  V30 3218 C 305.746 -1.12105 6.15779 0
M  V30 3219 H 305.979 0.243272 2.96303 0
M  V30 3220 H 303.512 0.244339 1.52454 0
M  V30 3221 H 305.47 -2.20163 3.46466 0
M  V30 3222 H 304.131 -2.14121 2.29806 0
M  V30 3223 H 303.324 -1.90254 4.66711 0
M  V30 3224 H 302.926 -0.45545 3.71216 0
M  V30 3225 H 305.218 -2.03501 6.46215 0
M  V30 3226 H 306.161 -0.62995 7.05292 0
M  V30 3227 H 306.569 -1.36967 5.47631 0
M  V30 3228 N 305.967 -1.56429 0.191757 0
M  V30 3229 C 307.192 -2.02309 -0.456706 0
M  V30 3230 C 307.617 -1.07103 -1.5463 0
M  V30 3231 O 306.975 -0.0539677 -1.8122 0
M  V30 3232 C 307.023 -3.46654 -0.993159 0
M  V30 3233 O 306.127 -3.54559 -2.10622 0
M  V30 3234 H 305.468 -0.655303 -0.107114 0
M  V30 3235 H 307.998 -2.02364 0.301653 0
M  V30 3236 H 308.008 -3.86377 -1.31061 0
M  V30 3237 H 306.683 -4.1544 -0.195504 0
M  V30 3238 H 305.26 -3.26708 -1.79767 0
M  V30 3239 N 307.445 0.0818655 -1.57387 0
M  V30 3240 C 308.375 1.09885 -2.06028 0
M  V30 3241 C 309.356 1.4098 -0.951774 0
M  V30 3242 O 310.541 1.50781 -1.22387 0
M  V30 3243 C 307.671 2.4151 -2.4958 0
M  V30 3244 C 306.625 2.24792 -3.64215 0
M  V30 3245 C 305.951 3.61712 -3.93787 0
M  V30 3246 C 307.251 1.67749 -4.94629 0
M  V30 3247 H 308.945 0.694128 -2.91243 0
M  V30 3248 H 306.491 0.332448 -1.4011 0
M  V30 3249 H 308.444 3.12939 -2.82219 0
M  V30 3250 H 307.168 2.83943 -1.61381 0
M  V30 3251 H 305.827 1.55807 -3.31843 0
M  V30 3252 H 305.475 4.01697 -3.02735 0
M  V30 3253 H 305.175 3.51368 -4.70971 0
M  V30 3254 H 306.699 4.34587 -4.28913 0
M  V30 3255 H 308.113 2.29032 -5.25564 0
M  V30 3256 H 306.51 1.68128 -5.76067 0
M  V30 3257 H 307.58 0.638059 -4.80684 0
M  V30 3258 N 308.923 1.53595 0.353017 0
M  V30 3259 C 310.2 1.61002 1.11075 0
M  V30 3260 C 310.58 0.425356 2.0677 0
M  V30 3261 O 309.928 -0.583267 2.2093 0
M  V30 3262 C 310.138 2.96631 1.83877 0
M  V30 3263 C 311.486 3.51653 2.37961 0
M  V30 3264 O 312.51 2.98743 1.93987 0
M  V30 3265 O 311.369 4.44177 3.18386 0
M  V30 3266 H 308.463 0.650825 0.510251 0
M  V30 3267 H 311.009 1.6594 0.35527 0
M  V30 3268 H 309.781 3.74293 1.14108 0
M  V30 3269 H 309.404 2.95242 2.66304 0
M  V30 3270 N 310.401 -0.613514 1.45168 0
M  V30 3271 C 311.678 -1.37263 1.39349 0
M  V30 3272 C 312.058 -2.11012 0.0610848 0
M  V30 3273 O 311.406 -2.07502 -0.956825 0
M  V30 3274 C 311.616 -2.3244 2.60332 0
M  V30 3275 C 312.964 -2.9523 3.05163 0
M  V30 3276 O 313.988 -2.42762 2.60663 0
M  V30 3277 O 312.847 -3.90454 3.82372 0
M  V30 3278 H 309.941 -0.615188 0.552696 0
M  V30 3279 H 312.487 -0.637097 1.57287 0
M  V30 3280 H 311.259 -1.77164 3.48896 0
M  V30 3281 H 310.882 -3.13383 2.44698 0
M  V30 3282 N 311.879 -1.3236 -0.855495 0
M  V30 3283 C 313.127 -1.22629 -1.60644 0
M  V30 3284 C 313.448 0.212136 -1.93843 0
M  V30 3285 O 312.718 1.13666 -1.59552 0
M  V30 3286 H 311.298 -0.450882 -0.595579 0
M  V30 3287 H 313.96 -1.65871 -1.02337 0
M  V30 3288 H 313.056 -1.80832 -2.54374 0
M  V30 3289 N 313.357 1.07166 -1.15556 0
M  V30 3290 C 314.634 1.76546 -0.842069 0
M  V30 3291 C 315.014 2.00453 0.661939 0
M  V30 3292 O 314.362 1.62452 1.60691 0
M  V30 3293 C 314.572 3.07266 -1.65495 0
M  V30 3294 C 315.92 3.81578 -1.86234 0
M  V30 3295 O 316.944 3.17083 -1.62287 0
M  V30 3296 O 315.803 4.97419 -2.26355 0
M  V30 3297 H 312.897 0.766756 -0.309862 0
M  V30 3298 H 315.443 1.13514 -1.26145 0
M  V30 3299 H 314.215 2.85494 -2.67598 0
M  V30 3300 H 313.838 3.7803 -1.23203 0
M  V30 3301 N 314.835 0.952656 1.25548 0
M  V30 3302 C 316.06 0.623025 1.97821 0
M  V30 3303 C 316.485 -0.7976 1.70352 0
M  V30 3304 O 315.843 -1.53905 0.958283 0
M  V30 3305 C 315.891 0.885532 3.49558 0
M  V30 3306 O 314.995 -0.0366641 4.12384 0
M  V30 3307 H 314.336 0.237082 0.620232 0
M  V30 3308 H 316.866 1.27871 1.59719 0
M  V30 3309 H 316.876 0.811009 3.99858 0
M  V30 3310 H 315.551 1.92094 3.6888 0
M  V30 3311 H 314.128 0.0898954 3.72792 0
M  V30 3312 N 316.313 -1.40141 0.720998 0
M  V30 3313 C 317.26 -2.30688 0.071919 0
M  V30 3314 C 318.23 -1.48476 -0.744584 0
M  V30 3315 O 319.415 -1.77201 -0.707423 0
M  V30 3316 C 316.555 -3.34724 -0.839855 0
M  V30 3317 C 315.668 -4.31998 -0.0122438 0
M  V30 3318 C 314.803 -5.23102 -0.923995 0
M  V30 3319 C 313.842 -6.12033 -0.0907969 0
M  V30 3320 N 312.979 -6.95537 -0.957718 0
M  V30 3321 H 317.819 -2.85628 0.849755 0
M  V30 3322 H 315.356 -1.40653 0.430726 0
M  V30 3323 H 317.314 -3.93618 -1.38279 0
M  V30 3324 H 315.944 -2.81274 -1.58381 0
M  V30 3325 H 314.996 -3.74841 0.64794 0
M  V30 3326 H 316.308 -4.94772 0.632595 0
M  V30 3327 H 315.462 -5.86953 -1.53527 0
M  V30 3328 H 314.201 -4.60615 -1.60264 0
M  V30 3329 H 313.206 -5.47207 0.533377 0
M  V30 3330 H 314.431 -6.76581 0.584428 0
M  V30 3331 H 312.377 -6.35633 -1.62192 0
M  V30 3332 H 312.294 -7.55099 -0.36904 0
M  V30 3333 H 313.562 -7.63832 -1.555 0
M  V30 3334 N 317.792 -0.46758 -1.50504 0
M  V30 3335 C 319.041 0.0902868 -2.01498 0
M  V30 3336 C 319.354 1.411 -1.35463 0
M  V30 3337 O 320.56 2.0536 -1.77594 0
M  V30 3338 C 319.016 0.21142 -3.59278 0
M  V30 3339 C 318.624 -1.10065 -4.34269 0
M  V30 3340 C 320.368 0.721433 -4.18325 0
M  V30 3341 C 318.275 -0.943505 -5.83825 0
M  V30 3342 H 317.205 0.037517 -0.753066 0
M  V30 3343 H 319.856 -0.601943 -1.73346 0
M  V30 3344 H 318.238 0.967352 -3.84003 0
M  V30 3345 H 319.412 -1.86726 -4.21272 0
M  V30 3346 H 317.727 -1.5415 -3.86816 0
M  V30 3347 H 320.324 0.85598 -5.27804 0
M  V30 3348 H 320.667 1.71186 -3.79475 0
M  V30 3349 H 321.2 0.0229843 -3.97793 0
M  V30 3350 H 317.939 -1.90719 -6.27141 0
M  V30 3351 H 317.459 -0.217213 -5.99407 0
M  V30 3352 H 319.138 -0.608715 -6.4413 0
M  V30 3353 N 319.27 1.56325 -0.20005 0
M  V30 3354 C 320.202 2.16555 0.750771 0
M  V30 3355 C 321.215 1.12871 1.1732 0
M  V30 3356 O 322.404 1.39943 1.10807 0
M  V30 3357 C 319.504 2.71684 2.02586 0
M  V30 3358 C 318.677 4.00321 1.76244 0
M  V30 3359 C 317.736 4.40227 2.88248 0
M  V30 3360 O 316.762 5.07552 2.57642 0
M  V30 3361 N 317.964 4.04138 4.16717 0
M  V30 3362 H 320.729 2.98772 0.235685 0
M  V30 3363 H 318.29 1.6189 -0.0182594 0
M  V30 3364 H 320.282 2.95363 2.76664 0
M  V30 3365 H 318.852 1.93893 2.45202 0
M  V30 3366 H 318.072 3.84723 0.85919 0
M  V30 3367 H 319.36 4.84279 1.56048 0
M  V30 3368 H 318.758 3.49993 4.44434 0
M  V30 3369 H 317.315 4.32756 4.87407 0
M  V30 3370 N 320.748 -0.0735177 1.57428 0
M  V30 3371 C 321.696 -1.10628 2.04607 0
M  V30 3372 C 322.69 -1.40181 0.951088 0
M  V30 3373 O 323.896 -1.39608 1.1362 0
M  V30 3374 H 320.271 -0.374088 0.652351 0
M  V30 3375 H 322.242 -0.682218 2.90497 0
M  V30 3376 C 320.991 -2.41212 2.50423 0
M  V30 3377 H 320.314 -2.19322 3.34272 0
M  V30 3378 H 321.754 -3.11927 2.87189 0
M  V30 3379 C 320.213 -3.0705 1.38644 0
M  V30 3380 O 320.743 -3.95056 0.727582 0
M  V30 3381 N 318.949 -2.67645 1.132 0
M  V30 3382 H 318.496 -1.96169 1.66959 0
M  V30 3383 H 318.454 -3.1202 0.386147 0
M  V30 3384 N 322.226 -1.5378 -0.344866 0
M  V30 3385 C 323.158 -1.77988 -1.44406 0
M  V30 3386 C 324.171 -0.661138 -1.48771 0
M  V30 3387 O 325.36 -0.937842 -1.51877 0
M  V30 3388 C 322.46 -1.86345 -2.8307 0
M  V30 3389 C 321.633 -3.16256 -3.0216 0
M  V30 3390 C 320.692 -3.15588 -4.21059 0
M  V30 3391 O 319.718 -3.89314 -4.15239 0
M  V30 3392 N 320.92 -2.37864 -5.29529 0
M  V30 3393 H 323.685 -2.72839 -1.24012 0
M  V30 3394 H 321.246 -1.52814 -0.534737 0
M  V30 3395 H 323.238 -1.83351 -3.60783 0
M  V30 3396 H 321.808 -0.986858 -2.96614 0
M  V30 3397 H 321.028 -3.32385 -2.11929 0
M  V30 3398 H 322.316 -4.0207 -3.11797 0
M  V30 3399 H 321.714 -1.77514 -5.37127 0
M  V30 3400 H 320.271 -2.40668 -6.05741 0
M  V30 3401 N 323.704 0.605807 -1.45491 0
M  V30 3402 C 324.634 1.72709 -1.57143 0
M  V30 3403 C 325.615 1.6476 -0.422884 0
M  V30 3404 O 326.8 1.83132 -0.646247 0
M  V30 3405 C 323.93 3.11316 -1.53948 0
M  V30 3406 C 322.884 3.34077 -2.67537 0
M  V30 3407 C 322.21 4.72975 -2.49397 0
M  V30 3408 C 323.51 3.24158 -4.09535 0
M  V30 3409 H 325.204 1.63214 -2.51001 0
M  V30 3410 H 322.75 0.78379 -1.208 0
M  V30 3411 H 324.703 3.89557 -1.60696 0
M  V30 3412 H 323.427 3.21655 -0.566205 0
M  V30 3413 H 322.086 2.58227 -2.6022 0
M  V30 3414 H 321.734 4.8005 -1.50205 0
M  V30 3415 H 321.434 4.8916 -3.25571 0
M  V30 3416 H 322.958 5.53414 -2.58002 0
M  V30 3417 H 324.372 3.92271 -4.18086 0
M  V30 3418 H 322.769 3.51872 -4.86113 0
M  V30 3419 H 323.839 2.2157 -4.31317 0
M  V30 3420 N 325.182 1.32811 0.848464 0
M  V30 3421 C 326.129 1.22265 1.95755 0
M  V30 3422 C 327.099 0.103413 1.65778 0
M  V30 3423 O 328.284 0.280033 1.88734 0
M  V30 3424 C 325.424 0.958014 3.31536 0
M  V30 3425 C 324.537 2.16262 3.73971 0
M  V30 3426 C 323.672 1.83295 4.98575 0
M  V30 3427 C 322.711 3.00041 5.33518 0
M  V30 3428 N 321.848 2.67125 6.49299 0
M  V30 3429 H 326.688 2.17128 2.04107 0
M  V30 3430 H 324.225 1.07982 0.998913 0
M  V30 3431 H 326.183 0.785052 4.09747 0
M  V30 3432 H 324.813 0.046159 3.22767 0
M  V30 3433 H 323.865 2.44565 2.91362 0
M  V30 3434 H 325.177 3.03572 3.95785 0
M  V30 3435 H 324.331 1.62586 5.84509 0
M  V30 3436 H 323.07 0.932078 4.7871 0
M  V30 3437 H 322.075 3.21374 4.46093 0
M  V30 3438 H 323.3 3.90869 5.55336 0
M  V30 3439 H 321.246 1.79586 6.3094 0
M  V30 3440 H 321.163 3.47965 6.71161 0
M  V30 3441 H 322.431 2.49861 7.3837 0
M  V30 3442 N 326.66 -1.06551 1.16123 0
M  V30 3443 C 327.607 -2.13961 0.865414 0
M  V30 3444 C 328.577 -1.65066 -0.185055 0
M  V30 3445 O 329.762 -1.90732 -0.05083 0
M  V30 3446 C 326.902 -3.43113 0.369776 0
M  V30 3447 C 326.015 -4.05756 1.48276 0
M  V30 3448 C 325.15 -5.22773 0.942414 0
M  V30 3449 C 324.189 -5.77395 2.03179 0
M  V30 3450 N 323.326 -6.85731 1.50721 0
M  V30 3451 H 328.166 -2.38605 1.78527 0
M  V30 3452 H 325.703 -1.17072 0.890646 0
M  V30 3453 H 327.661 -4.17151 0.0640643 0
M  V30 3454 H 326.291 -3.18695 -0.513143 0
M  V30 3455 H 325.343 -3.29292 1.9045 0
M  V30 3456 H 326.655 -4.42351 2.30493 0
M  V30 3457 H 325.809 -6.03827 0.589729 0
M  V30 3458 H 324.548 -4.87618 0.0895191 0
M  V30 3459 H 323.553 -4.94981 2.3932 0
M  V30 3460 H 324.778 -6.14603 2.8886 0
M  V30 3461 H 322.724 -6.52499 0.676811 0
M  V30 3462 H 322.641 -7.21254 2.26557 0
M  V30 3463 H 323.909 -7.7047 1.18303 0
M  V30 3464 N 328.138 -0.959301 -1.25041 0
M  V30 3465 C 329.068 -0.501388 -2.28053 0
M  V30 3466 C 330.049 0.454673 -1.63911 0
M  V30 3467 O 331.234 0.352618 -1.90972 0
M  V30 3468 C 328.364 0.217224 -3.4662 0
M  V30 3469 C 327.318 -0.654034 -4.22973 0
M  V30 3470 C 326.644 0.195589 -5.34342 0
M  V30 3471 C 327.944 -1.93447 -4.85155 0
M  V30 3472 H 329.638 -1.36238 -2.66608 0
M  V30 3473 H 327.184 -0.656534 -1.28163 0
M  V30 3474 H 329.137 0.548732 -4.17812 0
M  V30 3475 H 327.861 1.1125 -3.07068 0
M  V30 3476 H 326.52 -0.968693 -3.5357 0
M  V30 3477 H 326.168 1.09076 -4.91031 0
M  V30 3478 H 325.868 -0.384091 -5.86343 0
M  V30 3479 H 327.392 0.521958 -6.08365 0
M  V30 3480 H 328.806 -1.66908 -5.48466 0
M  V30 3481 H 327.203 -2.46018 -5.47353 0
M  V30 3482 H 328.273 -2.63466 -4.07079 0
M  V30 3483 N 329.616 1.39756 -0.72842 0
M  V30 3484 C 330.548 2.29157 -0.0446202 0
M  V30 3485 C 331.561 1.46484 0.710367 0
M  V30 3486 O 332.75 1.69632 0.55562 0
M  V30 3487 C 329.85 3.24987 0.961071 0
M  V30 3488 C 329.023 4.36572 0.268967 0
M  V30 3489 C 328.082 5.12756 1.18184 0
M  V30 3490 O 327.108 5.6534 0.661794 0
M  V30 3491 N 328.31 5.23331 2.51206 0
M  V30 3492 H 331.075 2.88482 -0.812295 0
M  V30 3493 H 328.636 1.51265 -0.577098 0
M  V30 3494 H 330.628 3.72827 1.57423 0
M  V30 3495 H 329.198 2.66739 1.63 0
M  V30 3496 H 328.418 3.90694 -0.524574 0
M  V30 3497 H 329.706 5.08363 -0.210934 0
M  V30 3498 H 329.104 4.82116 2.9594 0
M  V30 3499 H 327.661 5.74634 3.07634 0
M  V30 3500 N 331.094 0.475555 1.50254 0
M  V30 3501 C 332.319 -0.0777042 2.07254 0
M  V30 3502 C 332.744 -1.3235 1.3366 0
M  V30 3503 O 332.102 -1.77152 0.385597 0
M  V30 3504 C 332.15 -0.340169 3.58992 0
M  V30 3505 O 331.254 -1.41982 3.87188 0
M  V30 3506 H 330.595 0.0149556 0.663832 0
M  V30 3507 H 333.125 0.667878 1.93392 0
M  V30 3508 H 333.135 -0.579332 4.03866 0
M  V30 3509 H 331.81 0.570167 4.11973 0
M  V30 3510 H 330.387 -1.16762 3.54148 0
M  V30 3511 N 332.573 -1.56217 0.208337 0
M  V30 3512 C 333.984 -1.84243 -0.301904 0
M  V30 3513 C 334.335 -1.12939 -1.60434 0
M  V30 3514 O 333.46 -0.39461 -2.12772 0
M  V30 3515 C 334.055 -3.34231 -0.554543 0
M  V30 3516 C 332.614 -3.62621 -1.00912 0
M  V30 3517 C 331.761 -2.77224 -0.064933 0
M  V30 3518 H 334.712 -1.52712 0.431833 0
M  V30 3519 H 334.733 -3.5372 -1.40223 0
M  V30 3520 H 334.245 -3.86099 0.393561 0
M  V30 3521 H 332.346 -3.16197 -1.97104 0
M  V30 3522 H 332.459 -4.7071 -0.892674 0
M  V30 3523 H 330.823 -2.48256 -0.56929 0
M  V30 3524 H 331.606 -3.31887 0.877851 0
M  V30 3525 N 334.051 0.0651679 -1.57465 0
M  V30 3526 C 335.3 0.761916 -1.86756 0
M  V30 3527 C 335.613 1.78406 -0.801925 0
M  V30 3528 O 336.819 2.53084 -0.982885 0
M  V30 3529 C 335.275 1.40603 -3.31299 0
M  V30 3530 C 334.883 0.422115 -4.46007 0
M  V30 3531 C 336.627 2.08476 -3.69781 0
M  V30 3532 C 334.534 1.07252 -5.81593 0
M  V30 3533 H 333.464 0.288308 -0.696702 0
M  V30 3534 H 336.115 0.015344 -1.83494 0
M  V30 3535 H 334.497 2.20109 -3.29193 0
M  V30 3536 H 335.671 -0.343613 -4.59517 0
M  V30 3537 H 333.986 -0.152527 -4.16121 0
M  V30 3538 H 336.583 2.57925 -4.68379 0
M  V30 3539 H 336.926 2.88712 -2.99919 0
M  V30 3540 H 337.459 1.35792 -3.73905 0
M  V30 3541 H 334.198 0.310342 -6.54765 0
M  V30 3542 H 333.718 1.80895 -5.71872 0
M  V30 3543 H 335.397 1.59043 -6.27148 0
M  V30 3544 N 335.529 1.53961 0.336706 0
M  V30 3545 C 336.778 1.70751 1.07363 0
M  V30 3546 C 337.091 0.481061 1.89592 0
M  V30 3547 O 338.297 0.530046 2.66276 0
M  V30 3548 C 336.753 3.01965 1.95818 0
M  V30 3549 C 336.361 4.31971 1.18764 0
M  V30 3550 C 338.105 3.28121 2.69327 0
M  V30 3551 C 336.012 5.54255 2.06289 0
M  V30 3552 H 334.942 0.636292 0.404535 0
M  V30 3553 H 337.593 1.80459 0.332681 0
M  V30 3554 H 335.975 2.86132 2.7376 0
M  V30 3555 H 337.149 4.5853 0.456849 0
M  V30 3556 H 335.464 4.12481 0.569946 0
M  V30 3557 H 338.061 4.16673 3.35094 0
M  V30 3558 H 338.404 2.45426 3.36261 0
M  V30 3559 H 338.937 3.44762 1.98454 0
M  V30 3560 H 335.676 6.39513 1.43885 0
M  V30 3561 H 335.196 5.31935 2.77138 0
M  V30 3562 H 336.875 5.90159 2.65182 0
M  V30 3563 N 337.007 -0.598083 1.45811 0
M  V30 3564 C 337.937 -1.71873 1.58057 0
M  V30 3565 C 338.918 -1.64533 0.431615 0
M  V30 3566 O 340.103 -1.82787 0.65595 0
M  V30 3567 C 337.233 -3.10495 1.55597 0
M  V30 3568 C 336.187 -3.32654 2.69305 0
M  V30 3569 C 335.513 -4.71646 2.51902 0
M  V30 3570 C 336.813 -3.21981 4.11248 0
M  V30 3571 H 338.507 -1.61881 2.51863 0
M  V30 3572 H 336.053 -0.777372 1.21214 0
M  V30 3573 H 338.006 -3.88699 1.6276 0
M  V30 3574 H 336.73 -3.2135 0.583255 0
M  V30 3575 H 335.389 -2.56843 2.61586 0
M  V30 3576 H 335.037 -4.79246 1.52748 0
M  V30 3577 H 334.737 -4.87426 3.2816 0
M  V30 3578 H 336.261 -5.52038 2.60933 0
M  V30 3579 H 337.675 -3.90049 4.20161 0
M  V30 3580 H 336.072 -3.49289 4.87972 0
M  V30 3581 H 337.142 -2.1928 4.32486 0
M  V30 3582 N 338.485 -1.33259 -0.841409 0
M  V30 3583 C 339.415 -1.25926 -1.96634 0
M  V30 3584 C 340.396 -0.140349 -1.6952 0
M  V30 3585 O 341.581 -0.329707 -1.91381 0
M  V30 3586 C 338.711 -0.99512 -3.32738 0
M  V30 3587 C 337.665 -2.0767 -3.74242 0
M  V30 3588 C 336.991 -1.66474 -5.08125 0
M  V30 3589 C 338.291 -3.49318 -3.88297 0
M  V30 3590 H 339.985 -2.20046 -2.03027 0
M  V30 3591 H 337.531 -1.05931 -0.975425 0
M  V30 3592 H 339.484 -0.930323 -4.11002 0
M  V30 3593 H 338.208 -0.0183004 -3.26595 0
M  V30 3594 H 336.867 -2.13187 -2.98239 0
M  V30 3595 H 336.515 -0.675012 -4.9845 0
M  V30 3596 H 336.215 -2.3885 -5.36865 0
M  V30 3597 H 337.739 -1.61455 -5.88867 0
M  V30 3598 H 339.153 -3.46316 -4.56879 0
M  V30 3599 H 337.55 -4.20158 -4.28471 0
M  V30 3600 H 338.62 -3.8801 -2.9082 0
M  V30 3601 N 339.963 1.05934 -1.16686 0
M  V30 3602 C 341.193 1.82226 -0.973515 0
M  V30 3603 C 341.601 1.8297 0.481532 0
M  V30 3604 O 340.944 1.25009 1.34604 0
M  V30 3605 C 341.006 3.29897 -1.42858 0
M  V30 3606 C 340.67 3.52849 -2.90425 0
M  V30 3607 C 341.667 3.45595 -3.88407 0
M  V30 3608 C 339.352 3.80053 -3.28428 0
M  V30 3609 C 341.346 3.65217 -5.22394 0
M  V30 3610 C 339.033 3.99325 -4.62583 0
M  V30 3611 C 340.031 3.91905 -5.59374 0
M  V30 3612 O 339.719 4.10647 -6.91104 0
M  V30 3613 H 339.451 0.581314 -0.345036 0
M  V30 3614 H 342.005 1.3453 -1.55212 0
M  V30 3615 H 340.235 3.78472 -0.793477 0
M  V30 3616 H 341.924 3.87692 -1.20207 0
M  V30 3617 H 342.69 3.24564 -3.60393 0
M  V30 3618 H 338.569 3.84936 -2.53664 0
M  V30 3619 H 342.113 3.59341 -5.9793 0
M  V30 3620 H 338.01 4.19846 -4.90306 0
M  V30 3621 H 338.778 4.27915 -6.97733 0
M  V30 3622 N 341.441 0.965919 1.2453 0
M  V30 3623 C 342.681 0.634656 1.94297 0
M  V30 3624 C 343.045 -0.814822 1.73852 0
M  V30 3625 O 344.246 -1.25622 2.3764 0
M  V30 3626 C 342.517 0.99702 3.43212 0
M  V30 3627 S 344.076 0.780038 4.31811 0
M  V30 3628 H 340.894 0.232893 0.671775 0
M  V30 3629 H 343.496 1.24249 1.50938 0
M  V30 3630 H 342.2 2.04886 3.55598 0
M  V30 3631 H 341.731 0.379888 3.91562 0
M  V30 3632 H 343.746 -0.343512 4.9501 0
M  V30 3633 N 342.919 -1.39368 0.735821 0
M  V30 3634 C 344.147 -2.04795 0.294393 0
M  V30 3635 C 344.562 -1.55478 -1.07107 0
M  V30 3636 O 343.919 -0.720038 -1.67695 0
M  V30 3637 C 343.97 -3.6035 0.288071 0
M  V30 3638 O 343.691 -4.07852 1.59963 0
M  V30 3639 C 345.192 -4.42976 -0.169422 0
M  V30 3640 H 342.412 -0.658571 0.128551 0
M  V30 3641 H 344.956 -1.78399 0.999701 0
M  V30 3642 H 343.111 -3.85645 -0.368355 0
M  V30 3643 H 343.525 -5.02181 1.51375 0
M  V30 3644 H 344.999 -5.51864 -0.122687 0
M  V30 3645 H 345.476 -4.22068 -1.21472 0
M  V30 3646 H 346.082 -4.22832 0.457469 0
M  V30 3647 N 344.397 -0.483516 -1.5 0
M  V30 3648 C 345.344 0.304164 -2.28787 0
M  V30 3649 C 346.314 0.976114 -1.34392 0
M  V30 3650 O 347.499 0.986156 -1.63339 0
M  V30 3651 C 344.639 1.37298 -3.16612 0
M  V30 3652 C 343.752 0.714561 -4.26049 0
M  V30 3653 C 342.887 1.76232 -5.01114 0
M  V30 3654 C 341.926 1.08483 -6.0241 0
M  V30 3655 N 341.063 2.076 -6.70706 0
M  V30 3656 H 345.903 -0.373981 -2.95644 0
M  V30 3657 H 343.44 -0.196275 -1.45785 0
M  V30 3658 H 345.398 2.00445 -3.65893 0
M  V30 3659 H 344.028 2.02012 -2.51776 0
M  V30 3660 H 343.08 -0.0297798 -3.80388 0
M  V30 3661 H 344.392 0.180383 -4.98474 0
M  V30 3662 H 343.546 2.46929 -5.54176 0
M  V30 3663 H 342.285 2.33033 -4.28424 0
M  V30 3664 H 341.29 0.363545 -5.48597 0
M  V30 3665 H 342.515 0.523551 -6.77079 0
M  V30 3666 H 340.461 2.63394 -6.00799 0
M  V30 3667 H 340.378 1.59201 -7.39047 0
M  V30 3668 H 341.646 2.77639 -7.2838 0
M  V30 3669 N 345.875 1.56104 -0.216619 0
M  V30 3670 C 346.785 2.23694 0.706982 0
M  V30 3671 C 347.801 1.24295 1.21765 0
M  V30 3672 O 348.977 1.57094 1.2603 0
M  V30 3673 C 346.042 2.8998 1.90033 0
M  V30 3674 C 345.103 4.04708 1.43213 0
M  V30 3675 C 344.336 4.67824 2.56859 0
M  V30 3676 O 344.559 4.29913 3.74874 0
M  V30 3677 O 343.493 5.56905 2.28343 0
M  V30 3678 H 347.319 3.03272 0.161235 0
M  V30 3679 H 344.904 1.49394 0.0136177 0
M  V30 3680 H 346.786 3.31837 2.59735 0
M  V30 3681 H 345.461 2.13365 2.43428 0
M  V30 3682 H 344.368 3.6743 0.70327 0
M  V30 3683 H 345.701 4.83051 0.944615 0
M  V30 3684 N 347.353 -0.0568162 1.57498 0
M  V30 3685 C 348.263 -1.08346 2.08083 0
M  V30 3686 C 349.279 -1.41439 1.01346 0
M  V30 3687 O 350.455 -1.51316 1.32912 0
M  V30 3688 C 347.52 -2.37352 2.52715 0
M  V30 3689 C 346.581 -2.11093 3.73816 0
M  V30 3690 C 345.814 -3.33949 4.1631 0
M  V30 3691 O 346.037 -4.43622 3.58547 0
M  V30 3692 O 344.971 -3.21279 5.08983 0
M  V30 3693 H 348.797 -0.683667 2.95905 0
M  V30 3694 H 346.382 -0.271965 1.46904 0
M  V30 3695 H 348.264 -3.13246 2.81877 0
M  V30 3696 H 346.939 -2.76681 1.68016 0
M  V30 3697 H 345.846 -1.32856 3.49714 0
M  V30 3698 H 347.179 -1.76637 4.59413 0
M  V30 3699 N 348.832 -1.54138 -0.328536 0
M  V30 3700 C 349.795 -1.82462 -1.38709 0
M  V30 3701 C 350.795 -0.696229 -1.44946 0
M  V30 3702 O 351.985 -0.964535 -1.4506 0
M  V30 3703 C 349.117 -1.98018 -2.77492 0
M  V30 3704 H 350.31 -2.77037 -1.14851 0
M  V30 3705 H 347.863 -1.45779 -0.563751 0
M  V30 3706 H 348.598 -1.05637 -3.06613 0
M  V30 3707 H 348.383 -2.80124 -2.74359 0
M  V30 3708 H 349.873 -2.21396 -3.54081 0
M  V30 3709 N 350.31 0.590341 -1.46126 0
M  V30 3710 C 351.538 1.37504 -1.54597 0
M  V30 3711 C 351.953 1.87897 -0.184447 0
M  V30 3712 O 351.31 1.63192 0.816984 0
M  V30 3713 C 351.361 2.56779 -2.54454 0
M  V30 3714 O 351.082 2.08476 -3.85317 0
M  V30 3715 C 352.583 3.49427 -2.72792 0
M  V30 3716 H 349.803 0.420325 -0.523037 0
M  V30 3717 H 352.347 0.718383 -1.91467 0
M  V30 3718 H 350.502 3.1845 -2.20609 0
M  V30 3719 H 350.916 2.86097 -4.396 0
M  V30 3720 H 352.39 4.29619 -3.466 0
M  V30 3721 H 352.867 4.00876 -1.79429 0
M  V30 3722 H 353.473 2.93598 -3.07702 0
M  V30 3723 N 351.788 1.33704 0.83433 0
M  V30 3724 C 353.018 1.28281 1.6195 0
M  V30 3725 C 353.426 -0.147603 1.88623 0
M  V30 3726 O 352.769 -1.1016 1.47005 0
M  V30 3727 C 352.831 1.99386 2.99141 0
M  V30 3728 C 352.495 3.48681 2.95416 0
M  V30 3729 C 353.492 4.438 2.70809 0
M  V30 3730 C 351.177 3.90925 3.15409 0
M  V30 3731 C 353.171 5.79138 2.66229 0
M  V30 3732 C 350.858 5.26366 3.10454 0
M  V30 3733 C 351.856 6.20284 2.85895 0
M  V30 3734 O 351.544 7.53245 2.80852 0
M  V30 3735 H 351.276 0.44315 0.510484 0
M  V30 3736 H 353.83 1.76711 1.04702 0
M  V30 3737 H 352.06 1.45554 3.58261 0
M  V30 3738 H 353.749 1.87403 3.60049 0
M  V30 3739 H 354.515 4.12485 2.5511 0
M  V30 3740 H 350.394 3.18229 3.33543 0
M  V30 3741 H 353.938 6.52416 2.4698 0
M  V30 3742 H 349.835 5.57304 3.25703 0
M  V30 3743 H 350.603 7.62846 2.96661 0
M  V30 3744 N 353.266 -1.05314 1.17247 0
M  V30 3745 C 354.515 -1.77685 0.954521 0
M  V30 3746 C 354.828 -1.88616 -0.518025 0
M  V30 3747 O 356.034 -2.57714 -0.854144 0
M  V30 3748 C 354.49 -3.19402 1.65863 0
M  V30 3749 C 354.098 -3.16605 3.16963 0
M  V30 3750 C 355.842 -3.96237 1.52303 0
M  V30 3751 C 353.749 -4.53103 3.80068 0
M  V30 3752 H 352.679 -0.666 0.353496 0
M  V30 3753 H 355.33 -1.1805 1.40486 0
M  V30 3754 H 353.712 -3.79355 1.13602 0
M  V30 3755 H 354.886 -2.66176 3.76148 0
M  V30 3756 H 353.201 -2.53268 3.30521 0
M  V30 3757 H 355.798 -4.97157 1.96822 0
M  V30 3758 H 356.141 -4.136 0.473401 0
M  V30 3759 H 356.674 -3.42829 2.01775 0
M  V30 3760 H 353.413 -4.40946 4.85023 0
M  V30 3761 H 352.933 -5.03686 3.2567 0
M  V30 3762 H 354.612 -5.22045 3.82202 0
M  V30 3763 N 354.744 -0.972509 -1.24016 0
M  V30 3764 C 355.991 -0.637034 -1.92219 0
M  V30 3765 C 356.319 0.828418 -1.75976 0
M  V30 3766 O 355.574 1.61206 -1.10955 0
M  V30 3767 C 355.873 -0.963694 -3.44162 0
M  V30 3768 C 355.539 -2.41807 -3.80579 0
M  V30 3769 C 354.201 -2.81556 -3.9023 0
M  V30 3770 C 356.553 -3.36172 -3.98293 0
M  V30 3771 C 353.881 -4.14702 -4.15017 0
M  V30 3772 C 356.233 -4.68952 -4.24578 0
M  V30 3773 C 354.897 -5.08472 -4.32449 0
M  V30 3774 H 354.167 -0.233107 -0.703379 0
M  V30 3775 H 356.814 -1.2249 -1.47202 0
M  V30 3776 H 355.119 -0.29365 -3.90698 0
M  V30 3777 H 356.816 -0.682449 -3.9515 0
M  V30 3778 H 353.406 -2.09988 -3.73635 0
M  V30 3779 H 357.59 -3.06644 -3.90234 0
M  V30 3780 H 352.846 -4.4494 -4.19331 0
M  V30 3781 H 357.02 -5.42037 -4.37229 0
M  V30 3782 H 354.647 -6.11665 -4.51409 0
M  V30 3783 N 356.222 1.38976 -0.743202 0
M  V30 3784 C 357.132 2.3434 -0.110399 0
M  V30 3785 C 358.148 1.58741 0.712559 0
M  V30 3786 O 359.324 1.9099 0.639125 0
M  V30 3787 C 356.389 3.37812 0.780012 0
M  V30 3788 C 355.45 4.29263 -0.0561319 0
M  V30 3789 C 354.683 5.27793 0.791875 0
M  V30 3790 O 354.906 5.33043 2.03031 0
M  V30 3791 O 353.84 6.01512 0.216183 0
M  V30 3792 H 357.666 2.90129 -0.897714 0
M  V30 3793 H 355.251 1.40643 -0.503966 0
M  V30 3794 H 357.133 4.01194 1.28923 0
M  V30 3795 H 355.808 2.84395 1.546 0
M  V30 3796 H 354.715 3.69076 -0.611056 0
M  V30 3797 H 356.048 4.85907 -0.784531 0
M  V30 3798 N 357.7 0.491464 1.49741 0
M  V30 3799 C 358.946 -0.0565092 2.02721 0
M  V30 3800 C 359.279 -1.37522 1.37118 0
M  V30 3801 O 358.554 -1.87866 0.503645 0
M  V30 3802 C 358.837 -0.219051 3.59433 0
M  V30 3803 C 358.69 1.12211 4.35579 0
M  V30 3804 C 360.009 -0.964157 4.29409 0
M  V30 3805 H 357.128 -0.0190627 0.736753 0
M  V30 3806 H 359.77 0.641021 1.7886 0
M  V30 3807 H 357.92 -0.813165 3.79895 0
M  V30 3808 H 359.592 1.75437 4.26637 0
M  V30 3809 H 357.835 1.71377 3.98513 0
M  V30 3810 H 358.506 0.961794 5.43556 0
M  V30 3811 H 360.982 -0.460378 4.13545 0
M  V30 3812 H 359.858 -1.04671 5.38828 0
M  V30 3813 H 360.119 -2.00563 3.93988 0
M  V30 3814 N 359.178 -1.55987 0.224894 0
M  V30 3815 C 360.141 -2.19178 -0.670348 0
M  V30 3816 C 361.141 -1.15461 -1.11917 0
M  V30 3817 O 362.331 -1.40675 -1.02743 0
M  V30 3818 C 359.463 -2.81777 -1.9187 0
M  V30 3819 H 360.656 -2.99662 -0.119364 0
M  V30 3820 H 358.209 -1.5628 -0.0247128 0
M  V30 3821 H 358.944 -2.05172 -2.51147 0
M  V30 3822 H 358.729 -3.57732 -1.60531 0
M  V30 3823 H 360.219 -3.30205 -2.55645 0
M  V30 3824 N 360.656 0.0484629 -1.57525 0
M  V30 3825 C 361.604 1.07359 -2.06341 0
M  V30 3826 C 362.598 1.3865 -0.973269 0
M  V30 3827 O 363.804 1.37783 -1.15827 0
M  V30 3828 H 360.179 0.363662 -0.65822 0
M  V30 3829 H 362.15 0.635916 -2.91545 0
M  V30 3830 C 360.899 2.37198 -2.54229 0
M  V30 3831 H 360.222 2.13977 -3.37719 0
M  V30 3832 H 361.662 3.07319 -2.92115 0
M  V30 3833 C 360.121 3.04805 -1.43511 0
M  V30 3834 O 360.651 3.93848 -0.79034 0
M  V30 3835 N 358.857 2.65811 -1.17444 0
M  V30 3836 H 358.404 1.93488 -1.70059 0
M  V30 3837 H 358.362 3.11366 -0.435737 0
M  V30 3838 N 362.134 1.5431 0.320358 0
M  V30 3839 C 363.359 1.76954 1.08175 0
M  V30 3840 C 363.784 0.518193 1.80821 0
M  V30 3841 O 363.142 -0.530411 1.73368 0
M  V30 3842 C 363.19 2.96451 2.05303 0
M  V30 3843 O 362.294 2.68221 3.13259 0
M  V30 3844 H 361.635 0.586275 0.311733 0
M  V30 3845 H 364.165 2.01342 0.363676 0
M  V30 3846 H 364.175 3.23887 2.48116 0
M  V30 3847 H 362.85 3.87196 1.51829 0
M  V30 3848 H 361.427 2.51744 2.75099 0
M  V30 3849 N 363.613 -0.582584 1.46437 0
M  V30 3850 C 364.859 -1.34278 1.51978 0
M  V30 3851 C 365.192 -1.93446 0.170973 0
M  V30 3852 O 364.467 -1.76481 -0.817608 0
M  V30 3853 C 364.75 -2.47203 2.61845 0
M  V30 3854 C 364.603 -1.93069 4.06257 0
M  V30 3855 C 365.922 -3.49247 2.67795 0
M  V30 3856 H 363.041 -0.486876 0.553282 0
M  V30 3857 H 365.683 -0.654437 1.78374 0
M  V30 3858 H 363.833 -3.0592 2.39469 0
M  V30 3859 H 365.505 -1.38808 4.3992 0
M  V30 3860 H 363.748 -1.23898 4.1573 0
M  V30 3861 H 364.419 -2.74586 4.7886 0
M  V30 3862 H 366.895 -3.00411 2.8791 0
M  V30 3863 H 365.771 -4.25719 3.46489 0
M  V30 3864 H 366.032 -4.06482 1.73852 0
M  V30 3865 N 365.091 -1.34144 -0.827227 0
M  V30 3866 C 366.339 -1.26009 -1.58007 0
M  V30 3867 C 366.66 0.170971 -1.94249 0
M  V30 3868 O 365.93 1.10256 -1.61927 0
M  V30 3869 H 364.51 -0.463414 -0.585881 0
M  V30 3870 H 367.172 -1.68005 -0.987951 0
M  V30 3871 H 366.268 -1.86187 -2.50481 0
M  V30 3872 N 366.569 1.04691 -1.17803 0
M  V30 3873 C 367.499 2.14494 -0.92275 0
M  V30 3874 C 368.48 1.69546 0.137179 0
M  V30 3875 O 369.665 1.94195 -0.0141108 0
M  V30 3876 C 366.795 3.44491 -0.440803 0
M  V30 3877 C 365.749 4.03031 -1.4405 0
M  V30 3878 C 365.075 5.28432 -0.81631 0
M  V30 3879 C 366.375 4.39932 -2.81527 0
M  V30 3880 H 368.069 2.36107 -1.84103 0
M  V30 3881 H 365.615 1.1347 -0.886599 0
M  V30 3882 H 367.568 4.2066 -0.249602 0
M  V30 3883 H 366.292 3.22546 0.513025 0
M  V30 3884 H 364.951 3.28937 -1.61853 0
M  V30 3885 H 364.599 5.02792 0.144511 0
M  V30 3886 H 364.299 5.68559 -1.48371 0
M  V30 3887 H 365.823 6.07284 -0.635496 0
M  V30 3888 H 367.237 5.07113 -2.67412 0
M  V30 3889 H 365.634 4.9109 -3.44892 0
M  V30 3890 H 366.704 3.50045 -3.35554 0
M  V30 3891 N 368.047 0.979072 1.23499 0
M  V30 3892 C 369.275 0.665202 1.95915 0
M  V30 3893 C 369.69 -0.767571 1.72493 0
M  V30 3894 O 369.047 -1.51635 1.01554 0
M  V30 3895 C 369.098 0.944438 3.48945 0
M  V30 3896 O 368.819 2.3209 3.71572 0
M  V30 3897 C 370.32 0.646336 4.38563 0
M  V30 3898 H 367.54 0.247218 0.623798 0
M  V30 3899 H 370.084 1.31009 1.57025 0
M  V30 3900 H 368.239 0.345575 3.85856 0
M  V30 3901 H 368.653 2.40957 4.65876 0
M  V30 3902 H 370.127 0.892091 5.44744 0
M  V30 3903 H 370.604 -0.419575 4.37191 0
M  V30 3904 H 371.21 1.22562 4.07258 0
M  V30 3905 N 369.525 -1.3858 0.750561 0
M  V30 3906 C 370.773 -1.99789 0.30477 0
M  V30 3907 C 371.094 -1.59874 -1.11649 0
M  V30 3908 O 370.364 -0.85417 -1.76297 0
M  V30 3909 H 368.944 -0.738902 0.109694 0
M  V30 3910 H 371.606 -1.69391 0.963983 0
M  V30 3911 H 370.702 -3.09952 0.365499 0
M  V30 3912 N 371.003 -0.499398 -1.49478 0
M  V30 3913 C 372.233 0.0424839 -2.06556 0
M  V30 3914 C 372.641 1.31514 -1.36018 0
M  V30 3915 O 371.984 1.78555 -0.431718 0
M  V30 3916 C 372.046 0.368074 -3.57611 0
M  V30 3917 C 371.71 -0.806631 -4.49825 0
M  V30 3918 C 372.707 -1.69667 -4.91436 0
M  V30 3919 C 370.392 -1.00498 -4.92144 0
M  V30 3920 C 372.386 -2.76923 -5.74101 0
M  V30 3921 C 370.073 -2.08072 -5.74586 0
M  V30 3922 C 371.071 -2.96119 -6.15469 0
M  V30 3923 O 370.759 -4.01836 -6.96264 0
M  V30 3924 H 370.491 -0.0165165 -0.675798 0
M  V30 3925 H 373.045 -0.695497 -1.93267 0
M  V30 3926 H 371.275 1.15963 -3.68903 0
M  V30 3927 H 372.964 0.848381 -3.96935 0
M  V30 3928 H 373.73 -1.55524 -4.59388 0
M  V30 3929 H 369.609 -0.329036 -4.59824 0
M  V30 3930 H 373.153 -3.45676 -6.05932 0
M  V30 3931 H 369.05 -2.22211 -6.06047 0
M  V30 3932 H 369.818 -3.9917 -7.14567 0
M  V30 3933 N 372.481 1.55866 -0.233164 0
M  V30 3934 C 373.729 1.9821 0.394593 0
M  V30 3935 C 374.05 1.12234 1.59463 0
M  V30 3936 O 373.32 0.201981 1.94856 0
M  V30 3937 H 371.9 0.732034 0.148778 0
M  V30 3938 H 374.562 1.92107 -0.32876 0
M  V30 3939 H 373.658 3.03845 0.713063 0
M  V30 3940 N 373.959 -0.0401083 1.57549 0
M  V30 3941 C 375.189 -0.744115 1.92734 0
M  V30 3942 C 375.597 -1.70005 0.830348 0
M  V30 3943 O 374.94 -1.82576 -0.20286 0
M  V30 3944 C 375.002 -1.56516 3.2364 0
M  V30 3945 C 374.666 -0.7752 4.50377 0
M  V30 3946 C 375.663 -0.0803326 5.19838 0
M  V30 3947 C 373.348 -0.733002 4.96923 0
M  V30 3948 C 375.342 0.646154 6.34116 0
M  V30 3949 C 373.029 -0.00276321 6.111 0
M  V30 3950 C 374.027 0.685585 6.7955 0
M  V30 3951 O 373.715 1.40399 7.91545 0
M  V30 3952 H 373.447 -0.214861 0.640945 0
M  V30 3953 H 376.001 -0.00503675 2.05399 0
M  V30 3954 H 374.231 -2.3478 3.07271 0
M  V30 3955 H 375.92 -2.15076 3.44234 0
M  V30 3956 H 376.686 -0.104035 4.84888 0
M  V30 3957 H 372.565 -1.25827 4.43496 0
M  V30 3958 H 376.109 1.18398 6.87479 0
M  V30 3959 H 372.006 0.0229012 6.45496 0
M  V30 3960 H 372.774 1.31653 8.07843 0
M  V30 3961 N 375.437 -1.54477 -0.31217 0
M  V30 3962 C 376.665 -1.77205 -1.068 0
M  V30 3963 C 377.08 -0.526114 -1.81321 0
M  V30 3964 O 376.437 0.503647 -1.75413 0
M  V30 3965 C 376.488 -2.97253 -2.05725 0
M  V30 3966 O 376.209 -4.1703 -1.34228 0
M  V30 3967 C 377.71 -3.32281 -2.93435 0
M  V30 3968 H 374.93 -0.591287 -0.317208 0
M  V30 3969 H 377.474 -2.01398 -0.354834 0
M  V30 3970 H 375.629 -2.753 -2.72559 0
M  V30 3971 H 376.043 -4.84636 -2.00571 0
M  V30 3972 H 377.517 -4.19551 -3.58721 0
M  V30 3973 H 377.994 -2.49945 -3.61143 0
M  V30 3974 H 378.6 -3.56353 -2.32147 0
M  V30 3975 N 376.915 0.57481 -1.46744 0
M  V30 3976 C 378.161 1.33251 -1.53674 0
M  V30 3977 C 378.516 1.91468 -0.189125 0
M  V30 3978 O 377.809 1.73954 0.803151 0
M  V30 3979 C 378.003 2.476 -2.57738 0
M  V30 3980 C 377.832 2.00586 -4.02487 0
M  V30 3981 C 376.602 1.85237 -4.70123 0
M  V30 3982 C 378.8 1.56078 -4.90045 0
M  V30 3983 N 376.782 1.32377 -5.99458 0
M  V30 3984 C 378.153 1.14863 -6.09267 0
M  V30 3985 C 380.208 1.43968 -4.76632 0
M  V30 3986 C 378.911 0.627435 -7.16558 0
M  V30 3987 C 380.937 0.932512 -5.84002 0
M  V30 3988 C 380.299 0.53019 -7.02402 0
M  V30 3989 H 376.398 0.480284 -0.617131 0
M  V30 3990 H 378.982 0.653592 -1.83402 0
M  V30 3991 H 377.153 3.13045 -2.29907 0
M  V30 3992 H 378.885 3.14567 -2.54616 0
M  V30 3993 H 375.64 2.07423 -4.25761 0
M  V30 3994 H 376.064 1.08085 -6.68316 0
M  V30 3995 H 380.706 1.73689 -3.85476 0
M  V30 3996 H 378.424 0.317821 -8.07475 0
M  V30 3997 H 382.01 0.842611 -5.75666 0
M  V30 3998 H 380.89 0.14381 -7.84068 0
M  V30 3999 N 378.394 1.34581 0.820102 0
M  V30 4000 C 379.643 1.26437 1.57151 0
M  V30 4001 C 379.956 -0.163111 1.94919 0
M  V30 4002 O 381.162 -0.366722 2.69012 0
M  V30 4003 C 379.618 2.21658 2.83541 0
M  V30 4004 C 379.226 3.69679 2.53065 0
M  V30 4005 C 380.97 2.22428 3.61561 0
M  V30 4006 C 378.877 4.56761 3.75664 0
M  V30 4007 H 377.807 0.469707 0.589823 0
M  V30 4008 H 380.458 1.59763 0.902656 0
M  V30 4009 H 378.84 1.81287 3.52067 0
M  V30 4010 H 380.014 4.18605 1.92631 0
M  V30 4011 H 378.329 3.71384 1.88316 0
M  V30 4012 H 380.926 2.8471 4.52597 0
M  V30 4013 H 381.269 1.22434 3.97889 0
M  V30 4014 H 381.802 2.61259 2.99981 0
M  V30 4015 H 378.541 5.57702 3.44454 0
M  V30 4016 H 378.061 4.12568 4.35371 0
M  V30 4017 H 379.74 4.71509 4.43044 0
M  V30 4018 N 379.872 -1.04064 1.18357 0
M  V30 4019 C 381.118 -1.77528 0.980397 0
M  V30 4020 C 381.451 -1.87948 -0.48879 0
M  V30 4021 O 380.726 -1.3876 -1.36293 0
M  V30 4022 C 381.009 -3.20797 1.63588 0
M  V30 4023 C 380.862 -3.1832 3.17793 0
M  V30 4024 C 382.181 -4.18911 1.34914 0
M  V30 4025 H 379.3 -0.644443 0.357578 0
M  V30 4026 H 381.942 -1.2156 1.46024 0
M  V30 4027 H 380.092 -3.68586 1.22788 0
M  V30 4028 H 381.764 -2.78521 3.67728 0
M  V30 4029 H 380.007 -2.56351 3.49952 0
M  V30 4030 H 380.678 -4.19489 3.58794 0
M  V30 4031 H 383.154 -3.7967 1.70265 0
M  V30 4032 H 382.03 -5.17374 1.83346 0
M  V30 4033 H 382.291 -4.41262 0.272027 0
M  V30 4034 N 381.35 -0.985608 -1.22978 0
M  V30 4035 C 382.761 -0.693593 -1.73338 0
M  V30 4036 C 383.112 0.789935 -1.79595 0
M  V30 4037 O 382.237 1.61771 -1.43733 0
M  V30 4038 C 382.832 -1.25235 -3.14804 0
M  V30 4039 C 381.391 -1.00987 -3.626 0
M  V30 4040 C 380.538 -1.37695 -2.40698 0
M  V30 4041 H 383.489 -1.15884 -1.08428 0
M  V30 4042 H 383.51 -0.627329 -3.75293 0
M  V30 4043 H 383.022 -2.33209 -3.10218 0
M  V30 4044 H 381.123 0.0535565 -3.72562 0
M  V30 4045 H 381.236 -1.66812 -4.49122 0
M  V30 4046 H 379.6 -0.795459 -2.4196 0
M  V30 4047 H 380.383 -2.46657 -2.38779 0
M  V30 4048 N 382.828 1.3818 -0.7579 0
M  V30 4049 C 384.053 2.04827 -0.325679 0
M  V30 4050 C 384.478 1.56788 1.03919 0
M  V30 4051 O 383.836 0.721811 1.66312 0
M  V30 4052 C 383.884 3.58774 -0.362447 0
M  V30 4053 O 382.988 4.07372 0.642033 0
M  V30 4054 H 382.329 0.64833 -0.143402 0
M  V30 4055 H 384.859 1.7677 -1.03023 0
M  V30 4056 H 384.869 4.07434 -0.214844 0
M  V30 4057 H 383.544 3.93096 -1.35824 0
M  V30 4058 H 382.121 3.70068 0.458688 0
M  V30 4059 N 384.306 0.507319 1.49211 0
M  V30 4060 C 385.236 -0.256939 2.32082 0
M  V30 4061 C 386.217 -0.956609 1.40652 0
M  V30 4062 O 387.402 -0.946788 1.69557 0
M  V30 4063 C 384.532 -1.31802 3.21318 0
M  V30 4064 C 383.486 -0.737855 4.21592 0
M  V30 4065 C 382.812 -1.89992 4.99807 0
M  V30 4066 C 384.112 0.275325 5.21574 0
M  V30 4067 H 385.806 0.434798 2.96226 0
M  V30 4068 H 383.352 0.210546 1.42452 0
M  V30 4069 H 385.305 -1.86045 3.78107 0
M  V30 4070 H 384.029 -2.03903 2.5513 0
M  V30 4071 H 382.688 -0.217126 3.65956 0
M  V30 4072 H 382.336 -2.60877 4.30061 0
M  V30 4073 H 382.036 -1.51777 5.6766 0
M  V30 4074 H 383.56 -2.44657 5.59442 0
M  V30 4075 H 384.974 -0.179193 5.7302 0
M  V30 4076 H 383.371 0.573649 5.97352 0
M  V30 4077 H 384.441 1.18903 4.70096 0
M  V30 4078 N 385.784 -1.5574 0.241426 0
M  V30 4079 C 387.03 -1.99104 -0.385406 0
M  V30 4080 C 387.363 -1.1293 -1.57988 0
M  V30 4081 O 386.638 -0.191449 -1.93555 0
M  V30 4082 C 386.921 -3.51087 -0.800616 0
M  V30 4083 C 386.774 -4.48028 0.398874 0
M  V30 4084 C 388.093 -4.08015 -1.64959 0
M  V30 4085 H 385.212 -0.723848 -0.138614 0
M  V30 4086 H 387.854 -1.86903 0.341642 0
M  V30 4087 H 386.004 -3.61615 -1.4201 0
M  V30 4088 H 387.676 -4.49487 1.03726 0
M  V30 4089 H 385.919 -4.21077 1.04293 0
M  V30 4090 H 386.59 -5.51962 0.0651056 0
M  V30 4091 H 389.066 -4.00555 -1.12672 0
M  V30 4092 H 387.942 -5.14635 -1.90898 0
M  V30 4093 H 388.203 -3.56131 -2.61961 0
M  V30 4094 N 387.262 0.0317525 -1.57568 0
M  V30 4095 C 388.225 1.01783 -2.0536 0
M  V30 4096 C 389.225 1.29203 -0.957253 0
M  V30 4097 O 390.415 1.24251 -1.22095 0
M  V30 4098 C 387.547 2.35137 -2.46827 0
M  V30 4099 H 388.74 0.605062 -2.93733 0
M  V30 4100 H 386.293 0.278514 -1.53799 0
M  V30 4101 H 387.028 2.81168 -1.61602 0
M  V30 4102 H 386.813 2.16566 -3.26866 0
M  V30 4103 H 388.303 3.05938 -2.84239 0
M  V30 4104 N 388.74 1.54641 0.303973 0
M  V30 4105 C 389.988 1.73437 1.0375 0
M  V30 4106 C 390.309 0.521449 1.87899 0
M  V30 4107 O 389.579 -0.46432 1.90318 0
M  V30 4108 H 388.159 0.639518 0.386039 0
M  V30 4109 H 390.821 1.91988 0.335675 0
M  V30 4110 H 389.917 2.62235 1.69231 0
M  V30 4111 N 390.218 -0.567019 1.47046 0
M  V30 4112 C 391.495 -1.3276 1.43646 0
M  V30 4113 C 391.875 -2.1071 0.128186 0
M  V30 4114 O 391.223 -2.10441 -0.890326 0
M  V30 4115 C 391.433 -2.2404 2.67595 0
M  V30 4116 C 392.781 -2.85372 3.14401 0
M  V30 4117 O 393.805 -2.34346 2.68254 0
M  V30 4118 O 392.664 -3.78091 3.946 0
M  V30 4119 H 389.758 -0.597293 0.571988 0
M  V30 4120 H 392.304 -0.586735 1.59234 0
M  V30 4121 H 391.076 -1.65975 3.54356 0
M  V30 4122 H 390.699 -3.05439 2.54544 0
M  V30 4123 N 391.696 -1.35014 -0.812953 0
M  V30 4124 C 392.924 -1.31031 -1.6012 0
M  V30 4125 C 393.339 0.113558 -1.88458 0
M  V30 4126 O 392.696 1.06363 -1.48301 0
M  V30 4127 C 392.747 -2.10872 -2.93624 0
M  V30 4128 O 392.468 -3.47706 -2.66518 0
M  V30 4129 C 393.969 -2.14401 -3.88004 0
M  V30 4130 H 391.189 -0.45037 -0.497401 0
M  V30 4131 H 393.733 -1.77775 -1.01076 0
M  V30 4132 H 391.888 -1.67744 -3.492 0
M  V30 4133 H 392.302 -3.89097 -3.51715 0
M  V30 4134 H 393.776 -2.74669 -4.78812 0
M  V30 4135 H 394.253 -1.14105 -4.24119 0
M  V30 4136 H 394.859 -2.57662 -3.38364 0
M  V30 4137 N 393.175 1.03435 -1.18907 0
M  V30 4138 C 394.452 1.73778 -0.89781 0
M  V30 4139 C 394.832 2.02458 0.597832 0
M  V30 4140 O 394.18 1.67482 1.55441 0
M  V30 4141 C 394.39 3.01845 -1.75187 0
M  V30 4142 C 395.738 3.7546 -1.9828 0
M  V30 4143 O 396.762 3.11759 -1.72293 0
M  V30 4144 O 395.621 4.89966 -2.42065 0
M  V30 4145 H 392.715 0.75651 -0.334098 0
M  V30 4146 H 395.261 1.09444 -1.29693 0
M  V30 4147 H 394.033 2.76836 -2.76545 0
M  V30 4148 H 393.656 3.73919 -1.35167 0
M  V30 4149 N 394.653 0.992116 1.22453 0
M  V30 4150 C 395.881 0.685944 1.95198 0
M  V30 4151 C 396.296 -0.749233 1.73297 0
M  V30 4152 O 395.653 -1.50549 1.03156 0
M  V30 4153 C 395.704 0.981395 3.47924 0
M  V30 4154 O 395.425 2.36018 3.6909 0
M  V30 4155 C 396.926 0.692815 4.37853 0
M  V30 4156 H 394.146 0.253821 0.621141 0
M  V30 4157 H 396.69 1.32668 1.55626 0
M  V30 4158 H 394.845 0.386481 3.85467 0
M  V30 4159 H 395.259 2.45884 4.63294 0
M  V30 4160 H 396.733 0.949818 5.43767 0
M  V30 4161 H 397.21 -0.373181 4.37612 0
M  V30 4162 H 397.816 1.26874 4.05935 0
M  V30 4163 N 396.131 -1.37776 0.765217 0
M  V30 4164 C 397.377 -2.00145 0.327072 0
M  V30 4165 C 397.71 -1.60607 -1.09175 0
M  V30 4166 O 396.985 -0.849127 -1.74986 0
M  V30 4167 C 397.268 -3.57109 0.46319 0
M  V30 4168 C 397.121 -4.06576 1.92395 0
M  V30 4169 C 398.44 -4.39888 -0.136473 0
M  V30 4170 H 395.559 -0.727113 0.120316 0
M  V30 4171 H 398.201 -1.63549 0.967039 0
M  V30 4172 H 396.351 -3.88414 -0.0816358 0
M  V30 4173 H 398.023 -3.85864 2.52798 0
M  V30 4174 H 396.266 -3.59011 2.43503 0
M  V30 4175 H 396.937 -5.15639 1.97028 0
M  V30 4176 H 399.413 -4.14803 0.328317 0
M  V30 4177 H 398.289 -5.48899 -0.0110582 0
M  V30 4178 H 398.55 -4.24758 -1.22608 0
M  V30 4179 N 397.609 -0.515225 -1.4894 0
M  V30 4180 C 399.02 -0.0710067 -1.86565 0
M  V30 4181 C 399.371 1.34733 -1.42623 0
M  V30 4182 O 398.496 2.00653 -0.810379 0
M  V30 4183 C 399.091 -0.122083 -3.3858 0
M  V30 4184 C 397.65 0.266863 -3.75453 0
M  V30 4185 C 396.797 -0.488376 -2.72966 0
M  V30 4186 H 399.748 -0.727266 -1.41055 0
M  V30 4187 H 399.769 0.669818 -3.74558 0
M  V30 4188 H 399.281 -1.15448 -3.70531 0
M  V30 4189 H 397.382 1.30196 -3.49113 0
M  V30 4190 H 397.495 -0.0624811 -4.79059 0
M  V30 4191 H 395.859 0.0635622 -2.54621 0
M  V30 4192 H 396.642 -1.52113 -3.07761 0
M  V30 4193 N 399.087 1.5561 -0.249682 0
M  V30 4194 C 400.05 2.20217 0.635394 0
M  V30 4195 C 401.05 1.17227 1.10066 0
M  V30 4196 O 402.24 1.42292 1.00492 0
M  V30 4197 C 399.372 2.84794 1.87363 0
M  V30 4198 H 400.565 2.99814 0.0716752 0
M  V30 4199 H 398.118 1.563 -0.000153234 0
M  V30 4200 H 398.853 2.09142 2.47851 0
M  V30 4201 H 398.638 3.60241 1.5482 0
M  V30 4202 H 400.128 3.3423 2.5036 0
M  V30 4203 N 400.565 -0.0233959 1.57583 0
M  V30 4204 C 401.475 -1.03907 2.10334 0
M  V30 4205 C 402.491 -1.39257 1.04323 0
M  V30 4206 O 403.667 -1.48462 1.36091 0
M  V30 4207 C 400.732 -2.31938 2.57693 0
M  V30 4208 C 399.793 -2.03117 3.78209 0
M  V30 4209 C 399.026 -3.25043 4.233 0
M  V30 4210 O 399.249 -4.35916 3.67876 0
M  V30 4211 O 398.183 -3.10411 5.15683 0
M  V30 4212 H 402.009 -0.620748 2.97288 0
M  V30 4213 H 399.594 -0.240743 1.47448 0
M  V30 4214 H 401.476 -3.07196 2.88458 0
M  V30 4215 H 400.151 -2.73055 1.73847 0
M  V30 4216 H 399.058 -1.25408 3.52454 0
M  V30 4217 H 400.391 -1.66852 4.63056 0
M  V30 4218 N 402.043 -1.548 -0.295768 0
M  V30 4219 C 403.29 -1.74329 -1.03032 0
M  V30 4220 C 403.618 -0.531915 -1.87085 0
M  V30 4221 O 402.873 0.486052 -1.89568 0
M  V30 4222 C 403.172 -2.98797 -1.961 0
M  V30 4223 C 402.838 -4.32356 -1.2798 0
M  V30 4224 C 401.5 -4.68661 -1.09135 0
M  V30 4225 C 403.852 -5.15128 -0.793243 0
M  V30 4226 C 401.18 -5.85312 -0.403269 0
M  V30 4227 C 403.532 -6.32488 -0.118854 0
M  V30 4228 C 402.196 -6.6745 0.0815043 0
M  V30 4229 H 401.466 -0.637916 -0.37702 0
M  V30 4230 H 404.113 -1.8906 -0.304696 0
M  V30 4231 H 402.418 -2.78869 -2.75207 0
M  V30 4232 H 404.115 -3.11102 -2.53015 0
M  V30 4233 H 400.705 -4.03808 -1.43655 0
M  V30 4234 H 404.889 -4.87575 -0.92653 0
M  V30 4235 H 400.145 -6.1094 -0.237098 0
M  V30 4236 H 404.319 -6.95892 0.266035 0
M  V30 4237 H 401.946 -7.57695 0.616685 0
M  V30 4238 N 403.521 0.559213 -1.47345 0
M  V30 4239 C 404.932 1.14134 -1.47751 0
M  V30 4240 C 405.283 1.94834 -0.231103 0
M  V30 4241 O 404.408 2.05957 0.664137 0
M  V30 4242 C 405.003 2.07653 -2.67705 0
M  V30 4243 C 403.562 2.61141 -2.71076 0
M  V30 4244 C 402.709 1.3748 -2.40821 0
M  V30 4245 H 405.66 0.345917 -1.54884 0
M  V30 4246 H 405.681 2.91497 -2.44561 0
M  V30 4247 H 405.193 1.4889 -3.58404 0
M  V30 4248 H 403.294 3.23707 -1.84511 0
M  V30 4249 H 403.407 3.02272 -3.7171 0
M  V30 4250 H 401.771 1.68086 -1.91362 0
M  V30 4251 H 402.554 0.805135 -3.33725 0
M  V30 4252 N 404.999 1.35443 0.805782 0
M  V30 4253 C 406.227 1.31878 1.59423 0
M  V30 4254 C 406.642 -0.103562 1.88516 0
M  V30 4255 O 405.999 -1.05575 1.48863 0
M  V30 4256 C 406.05 2.12426 2.92502 0
M  V30 4257 O 405.771 3.49115 2.6467 0
M  V30 4258 C 407.272 2.16455 3.86862 0
M  V30 4259 H 404.492 0.453002 0.495005 0
M  V30 4260 H 407.036 1.78309 1.00131 0
M  V30 4261 H 405.191 1.69593 3.48306 0
M  V30 4262 H 405.605 3.90957 3.49647 0
M  V30 4263 H 407.079 2.77204 4.77349 0
M  V30 4264 H 407.556 1.16352 4.23508 0
M  V30 4265 H 408.162 2.59453 3.36993 0
M  V30 4266 N 406.477 -1.02803 1.19454 0
M  V30 4267 C 407.725 -1.75869 0.995722 0
M  V30 4268 C 408.046 -1.89138 -0.474543 0
M  V30 4269 O 407.316 -1.42558 -1.34366 0
M  V30 4270 H 405.896 -0.651511 0.365435 0
M  V30 4271 H 408.558 -1.24004 1.50363 0
M  V30 4272 H 407.654 -2.76661 1.44447 0
M  V30 4273 N 407.956 -0.998596 -1.21925 0
M  V30 4274 C 408.886 -0.573688 -2.26343 0
M  V30 4275 C 409.867 0.402296 -1.65274 0
M  V30 4276 O 411.052 0.291683 -1.91997 0
M  V30 4277 C 408.182 0.106839 -3.47136 0
M  V30 4278 C 407.136 -0.788269 -4.20678 0
M  V30 4279 C 406.462 0.0254927 -5.34694 0
M  V30 4280 C 407.762 -2.08784 -4.78755 0
M  V30 4281 H 409.456 -1.44651 -2.62138 0
M  V30 4282 H 407.002 -0.696975 -1.26009 0
M  V30 4283 H 408.955 0.415531 -4.19346 0
M  V30 4284 H 407.679 1.01424 -3.10452 0
M  V30 4285 H 406.338 -1.08069 -3.50309 0
M  V30 4286 H 405.986 0.933989 -4.94253 0
M  V30 4287 H 405.686 -0.570437 -5.84825 0
M  V30 4288 H 407.21 0.328147 -6.09718 0
M  V30 4289 H 408.624 -1.84272 -5.42878 0
M  V30 4290 H 407.021 -2.63307 -5.39249 0
M  V30 4291 H 408.091 -2.76284 -3.98491 0
M  V30 4292 N 409.434 1.37368 -0.772513 0
M  V30 4293 C 410.683 1.98918 -0.333861 0
M  V30 4294 C 410.996 1.62017 1.09589 0
M  V30 4295 O 412.202 2.16676 1.63596 0
M  V30 4296 C 410.658 3.55735 -0.545971 0
M  V30 4297 C 410.266 4.01573 -1.98603 0
M  V30 4298 C 412.01 4.24156 -0.170979 0
M  V30 4299 C 409.917 5.51102 -2.1457 0
M  V30 4300 H 408.847 0.744214 -0.121085 0
M  V30 4301 H 411.498 1.56888 -0.95175 0
M  V30 4302 H 409.88 3.95748 0.141387 0
M  V30 4303 H 411.054 3.72803 -2.7084 0
M  V30 4304 H 409.369 3.45937 -2.31769 0
M  V30 4305 H 411.966 5.34024 -0.26878 0
M  V30 4306 H 412.309 4.06917 0.878855 0
M  V30 4307 H 412.842 3.89447 -0.810914 0
M  V30 4308 H 409.581 5.73268 -3.17875 0
M  V30 4309 H 409.101 5.81554 -1.46817 0
M  V30 4310 H 410.78 6.17083 -1.94468 0
M  V30 4311 N 410.912 0.523116 1.48665 0
M  V30 4312 C 412.137 -0.0117284 2.07397 0
M  V30 4313 C 412.562 -1.28031 1.37803 0
M  V30 4314 O 411.92 -1.75836 0.441762 0
M  V30 4315 C 411.968 -0.225786 3.59892 0
M  V30 4316 O 411.072 -1.29592 3.91509 0
M  V30 4317 H 410.413 0.0360673 0.66302 0
M  V30 4318 H 412.943 0.729066 1.9117 0
M  V30 4319 H 412.953 -0.450552 4.05505 0
M  V30 4320 H 411.628 0.700944 4.09951 0
M  V30 4321 H 410.205 -1.05436 3.57684 0
M  V30 4322 N 412.39 -1.55475 0.257931 0
M  V30 4323 C 413.636 -1.99502 -0.364266 0
M  V30 4324 C 413.969 -1.146 -1.56782 0
M  V30 4325 O 413.244 -0.211968 -1.93342 0
M  V30 4326 C 413.527 -3.51917 -0.763333 0
M  V30 4327 C 413.38 -4.4758 0.446371 0
M  V30 4328 C 414.699 -4.09742 -1.60623 0
M  V30 4329 H 411.818 -0.725277 -0.130929 0
M  V30 4330 H 414.46 -1.8653 0.361446 0
M  V30 4331 H 412.61 -3.63101 -1.38166 0
M  V30 4332 H 414.282 -4.48362 1.08487 0
M  V30 4333 H 412.525 -4.19947 1.08753 0
M  V30 4334 H 413.196 -5.51862 0.123645 0
M  V30 4335 H 415.672 -4.01727 -1.08418 0
M  V30 4336 H 414.548 -5.16631 -1.85429 0
M  V30 4337 H 414.809 -3.58889 -2.58169 0
M  V30 4338 N 413.868 0.0150385 -1.57593 0
M  V30 4339 C 415.093 0.718067 -1.94573 0
M  V30 4340 C 415.518 1.6734 -0.859005 0
M  V30 4341 O 414.876 1.80362 0.184147 0
M  V30 4342 C 414.924 1.43918 -3.30636 0
M  V30 4343 O 414.028 2.55299 -3.23876 0
M  V30 4344 H 413.369 0.192125 -0.635597 0
M  V30 4345 H 415.899 -0.0336708 -2.04572 0
M  V30 4346 H 415.909 1.80598 -3.65853 0
M  V30 4347 H 414.584 0.738619 -4.09289 0
M  V30 4348 H 413.161 2.21058 -3.00312 0
M  V30 4349 N 415.346 1.54954 0.287554 0
M  V30 4350 C 416.576 1.78622 1.03816 0
M  V30 4351 C 416.984 0.552451 1.80955 0
M  V30 4352 O 416.327 -0.487665 1.77109 0
M  V30 4353 C 416.389 2.94975 2.055 0
M  V30 4354 C 416.053 4.32565 1.47433 0
M  V30 4355 C 417.05 5.12096 0.897436 0
M  V30 4356 C 414.735 4.79195 1.50591 0
M  V30 4357 C 416.729 6.36383 0.359851 0
M  V30 4358 C 414.416 6.03441 0.964459 0
M  V30 4359 C 415.414 6.81872 0.392413 0
M  V30 4360 O 415.102 8.03777 -0.140788 0
M  V30 4361 H 414.834 0.599144 0.313053 0
M  V30 4362 H 417.388 2.02761 0.328225 0
M  V30 4363 H 415.618 2.66493 2.80211 0
M  V30 4364 H 417.307 3.06097 2.6657 0
M  V30 4365 H 418.073 4.77209 0.865841 0
M  V30 4366 H 413.952 4.18167 1.94055 0
M  V30 4367 H 417.496 6.97545 -0.0872951 0
M  V30 4368 H 413.393 6.37813 0.993246 0
M  V30 4369 H 414.161 8.18495 -0.0287617 0
M  V30 4370 N 416.824 -0.551391 1.4764 0
M  V30 4371 C 418.101 -1.31229 1.45046 0
M  V30 4372 C 418.481 -2.10563 0.150527 0
M  V30 4373 O 417.829 -2.11374 -0.867956 0
M  V30 4374 C 418.039 -2.21189 2.69956 0
M  V30 4375 C 419.387 -2.82021 3.1741 0
M  V30 4376 O 420.411 -2.31488 2.70724 0
M  V30 4377 O 419.27 -3.73885 3.98588 0
M  V30 4378 H 416.364 -0.591193 0.578291 0
M  V30 4379 H 418.91 -0.569813 1.59847 0
M  V30 4380 H 417.682 -1.62207 3.56096 0
M  V30 4381 H 417.305 -3.02722 2.57769 0
M  V30 4382 N 418.302 -1.35869 -0.798587 0
M  V30 4383 C 419.212 -1.31578 -1.94228 0
M  V30 4384 C 420.228 -0.21939 -1.72611 0
M  V30 4385 O 421.404 -0.450167 -1.96305 0
M  V30 4386 C 418.469 -1.09528 -3.28944 0
M  V30 4387 C 417.53 -2.28556 -3.63402 0
M  V30 4388 C 416.763 -2.07549 -4.9169 0
M  V30 4389 O 416.986 -1.046 -5.60727 0
M  V30 4390 O 415.92 -2.95106 -5.24591 0
M  V30 4391 H 419.746 -2.27847 -2.00796 0
M  V30 4392 H 417.331 -1.16322 -0.937526 0
M  V30 4393 H 419.213 -0.991127 -4.09579 0
M  V30 4394 H 417.888 -0.16315 -3.23289 0
M  V30 4395 H 416.795 -2.44538 -2.83112 0
M  V30 4396 H 418.128 -3.20244 -3.73771 0
M  V30 4397 N 419.78 1.02168 -1.19998 0
M  V30 4398 C 421.026 1.7606 -1.01855 0
M  V30 4399 C 421.381 1.87178 0.445222 0
M  V30 4400 O 420.674 1.3828 1.32624 0
M  V30 4401 C 420.868 3.18081 -1.62969 0
M  V30 4402 C 420.697 3.20809 -3.15137 0
M  V30 4403 C 419.467 3.28342 -3.84083 0
M  V30 4404 C 421.665 3.07268 -4.1242 0
M  V30 4405 N 419.647 3.2052 -5.23584 0
M  V30 4406 C 421.018 3.0716 -5.38566 0
M  V30 4407 C 423.073 2.91448 -4.03686 0
M  V30 4408 C 421.776 2.92853 -6.56985 0
M  V30 4409 C 423.802 2.78494 -5.21723 0
M  V30 4410 C 423.164 2.79046 -6.46771 0
M  V30 4411 H 419.263 0.655192 -0.426905 0
M  V30 4412 H 421.847 1.21564 -1.52087 0
M  V30 4413 H 420.018 3.70882 -1.15329 0
M  V30 4414 H 421.75 3.80375 -1.38192 0
M  V30 4415 H 418.505 3.34859 -3.34913 0
M  V30 4416 H 418.929 3.19997 -5.96599 0
M  V30 4417 H 423.571 2.89838 -3.07821 0
M  V30 4418 H 421.289 2.93213 -7.53028 0
M  V30 4419 H 424.875 2.67278 -5.16773 0
M  V30 4420 H 423.755 2.69134 -7.36571 0
M  V30 4421 N 421.258 1.00505 1.21394 0
M  V30 4422 C 422.535 0.603277 1.86064 0
M  V30 4423 C 422.915 -0.919095 1.90042 0
M  V30 4424 O 422.263 -1.80607 1.39977 0
M  V30 4425 C 422.473 1.23772 3.26315 0
M  V30 4426 C 423.821 1.34586 4.02705 0
M  V30 4427 O 424.845 1.19304 3.35626 0
M  V30 4428 O 423.704 1.59169 5.22807 0
M  V30 4429 H 420.798 0.206634 0.800769 0
M  V30 4430 H 423.344 1.1017 1.29076 0
M  V30 4431 H 422.116 2.27848 3.18121 0
M  V30 4432 H 421.739 0.725648 3.90922 0
M  V30 4433 N 422.737 -1.36956 0.779787 0
M  V30 4434 C 423.967 -2.03459 0.358877 0
M  V30 4435 C 424.375 -1.58939 -1.02641 0
M  V30 4436 O 423.718 -0.769777 -1.66794 0
M  V30 4437 C 423.78 -3.5796 0.332393 0
M  V30 4438 C 423.444 -4.25644 1.66362 0
M  V30 4439 C 424.441 -4.49205 2.61746 0
M  V30 4440 C 422.126 -4.63313 1.94027 0
M  V30 4441 C 424.12 -5.09503 3.82996 0
M  V30 4442 C 421.807 -5.2333 3.15546 0
M  V30 4443 C 422.805 -5.46363 4.0985 0
M  V30 4444 O 422.493 -6.05122 5.29228 0
M  V30 4445 H 422.225 -0.659767 0.147254 0
M  V30 4446 H 424.779 -1.76111 1.05708 0
M  V30 4447 H 423.009 -3.84388 -0.422237 0
M  V30 4448 H 424.698 -4.05852 -0.0625389 0
M  V30 4449 H 425.464 -4.20508 2.41657 0
M  V30 4450 H 421.343 -4.44715 1.21448 0
M  V30 4451 H 424.887 -5.27397 4.56617 0
M  V30 4452 H 420.784 -5.51451 3.35517 0
M  V30 4453 H 421.552 -6.23595 5.30161 0
M  V30 4454 N 424.215 -0.530993 -1.48385 0
M  V30 4455 C 425.463 0.00273189 -2.021 0
M  V30 4456 C 425.784 1.34672 -1.41027 0
M  V30 4457 O 425.054 1.8724 -0.576012 0
M  V30 4458 H 423.634 0.00399774 -0.746989 0
M  V30 4459 H 426.296 -0.695054 -1.82085 0
M  V30 4460 H 425.392 0.11031 -3.11905 0
M  V30 4461 N 425.693 1.55336 -0.266172 0
M  V30 4462 C 426.623 2.25146 0.618981 0
M  V30 4463 C 427.604 1.23845 1.16604 0
M  V30 4464 O 428.789 1.52544 1.20183 0
M  V30 4465 C 425.919 2.96572 1.80728 0
M  V30 4466 C 424.873 4.04726 1.39215 0
M  V30 4467 C 424.199 4.63678 2.66283 0
M  V30 4468 C 425.499 5.19407 0.548942 0
M  V30 4469 H 427.193 2.99377 0.0368116 0
M  V30 4470 H 424.739 1.43991 0.0162651 0
M  V30 4471 H 426.692 3.44116 2.43232 0
M  V30 4472 H 425.416 2.19861 2.41514 0
M  V30 4473 H 424.075 3.57979 0.790351 0
M  V30 4474 H 423.723 3.83646 3.25308 0
M  V30 4475 H 423.423 5.367 2.39222 0
M  V30 4476 H 424.947 5.13967 3.29651 0
M  V30 4477 H 426.361 5.63059 1.07876 0
M  V30 4478 H 424.758 5.98936 0.373593 0
M  V30 4479 H 425.828 4.8295 -0.434394 0
M  V30 4480 N 427.171 -0.0066808 1.57599 0
M  V30 4481 C 428.582 -0.550379 1.78403 0
M  V30 4482 C 428.933 -1.74339 0.900014 0
M  V30 4483 O 428.058 -2.16166 0.100713 0
M  V30 4484 C 428.653 -1.00523 3.23544 0
M  V30 4485 C 427.212 -1.49428 3.45468 0
M  V30 4486 C 426.359 -0.442444 2.73748 0
M  V30 4487 H 429.31 0.219508 1.57175 0
M  V30 4488 H 429.331 -1.87157 3.31289 0
M  V30 4489 H 428.843 -0.136735 3.87859 0
M  V30 4490 H 426.944 -2.3839 2.86358 0
M  V30 4491 H 427.057 -1.52635 4.54136 0
M  V30 4492 H 425.421 -0.902578 2.38171 0
M  V30 4493 H 426.204 0.416973 3.40758 0
M  V30 4494 N 428.649 -1.55105 -0.279332 0
M  V30 4495 C 429.612 -1.86783 -1.32834 0
M  V30 4496 C 430.612 -0.74199 -1.42657 0
M  V30 4497 O 431.802 -1.0102 -1.41918 0
M  V30 4498 C 428.934 -2.06746 -2.71052 0
M  V30 4499 H 430.127 -2.8055 -1.05979 0
M  V30 4500 H 427.68 -1.47499 -0.517087 0
M  V30 4501 H 428.415 -1.15339 -3.03097 0
M  V30 4502 H 428.2 -2.88711 -2.65309 0
M  V30 4503 H 429.69 -2.32549 -3.46858 0
M  V30 4504 N 430.127 0.543554 -1.4793 0
M  V30 4505 C 431.543 0.870806 -1.3375 0
M  V30 4506 C 431.743 1.9864 -0.338261 0
M  V30 4507 O 430.799 2.51305 0.245371 0
M  V30 4508 C 432.112 1.25114 -2.73435 0
M  V30 4509 C 433.66 1.3618 -2.81823 0
M  V30 4510 C 434.135 1.77563 -4.22179 0
M  V30 4511 N 435.626 1.8469 -4.24787 0
M  V30 4512 C 436.361 2.18067 -5.30315 0
M  V30 4513 N 435.857 2.49963 -6.46135 0
M  V30 4514 N 437.65 2.18958 -5.17701 0
M  V30 4515 H 429.801 -0.19275 -2.11524 0
M  V30 4516 H 432.064 -0.0235777 -0.947707 0
M  V30 4517 H 431.77 0.50514 -3.48053 0
M  V30 4518 H 431.644 2.20431 -3.06088 0
M  V30 4519 H 434.031 2.09859 -2.07468 0
M  V30 4520 H 434.112 0.390169 -2.52807 0
M  V30 4521 H 433.756 1.04449 -4.97044 0
M  V30 4522 H 433.686 2.75753 -4.48629 0
M  V30 4523 H 436.177 1.62372 -3.41239 0
M  V30 4524 H 436.49 2.74497 -7.22406 0
M  V30 4525 H 434.835 2.47513 -6.49432 0
M  V30 4526 H 438.026 1.93488 -4.2624 0
M  V30 4527 H 438.199 2.44639 -6.00047 0
M  V30 4528 N 431.605 1.3629 0.791371 0
M  V30 4529 C 432.851 1.30605 1.55146 0
M  V30 4530 C 433.184 -0.115042 1.93859 0
M  V30 4531 O 432.459 -1.06798 1.62556 0
M  V30 4532 C 432.742 2.22692 2.82985 0
M  V30 4533 C 432.595 3.73489 2.50651 0
M  V30 4534 C 433.914 2.13588 3.84796 0
M  V30 4535 H 431.033 0.475761 0.562868 0
M  V30 4536 H 433.675 1.66825 0.909358 0
M  V30 4537 H 431.825 1.91933 3.37778 0
M  V30 4538 H 433.497 4.14758 2.01924 0
M  V30 4539 H 431.74 3.93021 1.83622 0
M  V30 4540 H 432.411 4.3333 3.41949 0
M  V30 4541 H 434.887 2.40659 3.39445 0
M  V30 4542 H 433.763 2.80195 4.71998 0
M  V30 4543 H 434.024 1.12256 4.27611 0
M  V30 4544 N 433.083 -1.0153 1.20538 0
M  V30 4545 C 434.499 -1.27461 0.96051 0
M  V30 4546 C 434.699 -1.98273 -0.359193 0
M  V30 4547 O 433.755 -2.27886 -1.0874 0
M  V30 4548 C 435.068 -2.10837 2.14402 0
M  V30 4549 C 436.616 -2.24099 2.18515 0
M  V30 4550 C 437.091 -3.10852 3.36355 0
M  V30 4551 N 438.582 -3.18441 3.36377 0
M  V30 4552 C 439.317 -3.85795 4.24205 0
M  V30 4553 N 438.813 -4.55264 5.22213 0
M  V30 4554 N 440.606 -3.82331 4.12043 0
M  V30 4555 H 432.757 -0.539907 2.05423 0
M  V30 4556 H 435.02 -0.30092 0.898972 0
M  V30 4557 H 434.726 -1.66144 3.09983 0
M  V30 4558 H 434.6 -3.11576 2.12604 0
M  V30 4559 H 436.987 -2.68016 1.23497 0
M  V30 4560 H 437.068 -1.22865 2.24361 0
M  V30 4561 H 436.712 -2.6764 4.31661 0
M  V30 4562 H 436.642 -4.12177 3.27746 0
M  V30 4563 H 439.133 -2.68978 2.65442 0
M  V30 4564 H 439.446 -5.04331 5.85551 0
M  V30 4565 H 437.791 -4.54085 5.26148 0
M  V30 4566 H 440.982 -3.27207 3.34743 0
M  V30 4567 H 441.155 -4.34547 4.807 0
M  V30 4568 N 434.561 -1.01147 -1.20859 0
M  V30 4569 C 435.838 -0.613136 -1.85742 0
M  V30 4570 C 436.218 0.909004 -1.90526 0
M  V30 4571 O 435.566 1.79862 -1.40932 0
M  V30 4572 C 435.776 -1.255 -3.25654 0
M  V30 4573 C 437.124 -1.3672 -4.01986 0
M  V30 4574 O 438.148 -1.21082 -3.34989 0
M  V30 4575 O 437.007 -1.6194 -5.21956 0
M  V30 4576 H 434.101 -0.210878 -0.799662 0
M  V30 4577 H 436.647 -1.10853 -1.2849 0
M  V30 4578 H 435.419 -2.29532 -3.16908 0
M  V30 4579 H 435.042 -0.746369 -3.90532 0
M  V30 4580 N 436.039 1.36541 -0.78704 0
M  V30 4581 C 437.287 1.98911 -0.357633 0
M  V30 4582 C 437.608 1.62778 1.07371 0
M  V30 4583 O 436.878 0.900612 1.73971 0
M  V30 4584 H 435.458 0.735734 -0.129246 0
M  V30 4585 H 438.12 1.66776 -1.00855 0
M  V30 4586 H 437.216 3.08874 -0.447549 0
M  V30 4587 N 437.518 0.538854 1.48102 0
M  V30 4588 C 438.767 0.0059532 2.01699 0
M  V30 4589 C 439.08 -1.34476 1.42041 0
M  V30 4590 O 440.286 -1.96653 1.87189 0
M  V30 4591 C 438.742 -0.0397627 3.59878 0
M  V30 4592 C 438.35 1.30659 4.28523 0
M  V30 4593 C 440.094 -0.521024 4.2129 0
M  V30 4594 C 438.001 1.22098 5.78659 0
M  V30 4595 H 436.931 -0.00154456 0.753998 0
M  V30 4596 H 439.582 0.683963 1.70277 0
M  V30 4597 H 437.964 -0.783037 3.88181 0
M  V30 4598 H 439.138 2.06613 4.11883 0
M  V30 4599 H 437.453 1.7243 3.79021 0
M  V30 4600 H 440.05 -0.603184 5.31287 0
M  V30 4601 H 440.393 -1.52885 3.8721 0
M  V30 4602 H 440.926 0.166834 3.9745 0
M  V30 4603 H 437.665 2.20424 6.17328 0
M  V30 4604 H 437.185 0.50295 5.97688 0
M  V30 4605 H 438.864 0.915345 6.40492 0
M  V30 4606 N 438.996 -1.55193 0.274407 0
M  V30 4607 C 439.959 -2.212 -0.600279 0
M  V30 4608 C 440.959 -1.18963 -1.08187 0
M  V30 4609 O 442.149 -1.43873 -0.982158 0
M  V30 4610 C 439.281 -2.87739 -1.82809 0
M  V30 4611 H 440.474 -2.9989 -0.0239682 0
M  V30 4612 H 438.027 -1.5628 0.0250192 0
M  V30 4613 H 438.762 -2.13058 -2.44493 0
M  V30 4614 H 438.547 -3.62658 -1.49069 0
M  V30 4615 H 440.037 -3.38171 -2.45011 0
M  V30 4616 N 440.474 -0.00167713 -1.576 0
M  V30 4617 C 441.723 0.682021 -1.89819 0
M  V30 4618 C 442.036 1.74844 -0.876871 0
M  V30 4619 O 443.242 2.48688 -1.08934 0
M  V30 4620 C 441.698 1.26425 -3.36964 0
M  V30 4621 C 441.306 0.232568 -4.47396 0
M  V30 4622 C 443.05 1.92604 -3.78291 0
M  V30 4623 C 440.957 0.824882 -5.85619 0
M  V30 4624 H 439.887 0.258499 -0.708304 0
M  V30 4625 H 442.538 -0.0624957 -1.83394 0
M  V30 4626 H 440.92 2.05949 -3.38232 0
M  V30 4627 H 442.094 -0.5382 -4.57646 0
M  V30 4628 H 440.409 -0.32888 -4.15099 0
M  V30 4629 H 443.006 2.37827 -4.78897 0
M  V30 4630 H 443.349 2.75732 -3.11894 0
M  V30 4631 H 443.882 1.19812 -3.79328 0
M  V30 4632 H 440.621 0.0323542 -6.55492 0
M  V30 4633 H 440.141 1.56477 -5.79029 0
M  V30 4634 H 441.82 1.32301 -6.33329 0
M  V30 4635 N 441.952 1.55251 0.271103 0
M  V30 4636 C 443.201 1.75151 1.00025 0
M  V30 4637 C 443.514 0.561041 1.87381 0
M  V30 4638 O 444.72 0.642506 2.63788 0
M  V30 4639 C 443.176 3.09999 1.82835 0
M  V30 4640 C 442.784 4.3662 1.00336 0
M  V30 4641 C 444.528 3.39249 2.55168 0
M  V30 4642 C 442.435 5.62506 1.82595 0
M  V30 4643 H 441.365 0.652877 0.377183 0
M  V30 4644 H 444.016 1.81708 0.255843 0
M  V30 4645 H 442.398 2.97485 2.61378 0
M  V30 4646 H 443.572 4.60055 0.261959 0
M  V30 4647 H 441.887 4.14527 0.394486 0
M  V30 4648 H 444.484 4.3051 3.1712 0
M  V30 4649 H 444.827 2.59467 3.2555 0
M  V30 4650 H 445.36 3.52869 1.83653 0
M  V30 4651 H 442.099 6.45041 1.16631 0
M  V30 4652 H 441.619 5.43211 2.54327 0
M  V30 4653 H 443.298 6.00875 2.39913 0
M  V30 4654 N 443.43 -0.535701 1.48216 0
M  V30 4655 C 444.658 -1.31671 1.59594 0
M  V30 4656 C 445.073 -1.87083 0.254056 0
M  V30 4657 O 444.43 -1.66112 -0.755854 0
M  V30 4658 C 444.481 -2.47158 2.63809 0
M  V30 4659 O 444.202 -1.94032 3.92789 0
M  V30 4660 C 445.703 -3.39062 2.85573 0
M  V30 4661 H 442.923 -0.400623 0.538277 0
M  V30 4662 H 445.467 -0.646827 1.94001 0
M  V30 4663 H 443.622 -3.10043 2.32276 0
M  V30 4664 H 444.036 -2.69585 4.49916 0
M  V30 4665 H 445.51 -4.16459 3.62306 0
M  V30 4666 H 445.987 -3.93941 1.94184 0
M  V30 4667 H 446.593 -2.81975 3.18387 0
M  V30 4668 N 444.908 -1.36708 -0.784132 0
M  V30 4669 C 446.136 -1.34398 -1.57305 0
M  V30 4670 C 446.551 0.0735577 -1.88657 0
M  V30 4671 O 445.908 1.03193 -1.50524 0
M  V30 4672 C 445.959 -2.17053 -2.89085 0
M  V30 4673 O 445.68 -3.53281 -2.59083 0
M  V30 4674 C 447.181 -2.22583 -3.83369 0
M  V30 4675 H 444.401 -0.460819 -0.487736 0
M  V30 4676 H 446.945 -1.79879 -0.972819 0
M  V30 4677 H 445.1 -1.75113 -3.45564 0
M  V30 4678 H 445.514 -3.9647 -3.43383 0
M  V30 4679 H 446.988 -2.84763 -4.72878 0
M  V30 4680 H 447.465 -1.23075 -4.21603 0
M  V30 4681 H 448.071 -2.64781 -3.32823 0
M  V30 4682 N 446.386 1.0089 -1.21074 0
M  V30 4683 C 447.349 2.0775 -0.968129 0
M  V30 4684 C 448.349 1.6069 0.0593445 0
M  V30 4685 O 449.539 1.73293 -0.177525 0
M  V30 4686 C 446.671 3.37794 -0.459108 0
M  V30 4687 H 447.864 2.30707 -1.9161 0
M  V30 4688 H 445.417 1.17807 -1.02719 0
M  V30 4689 H 446.152 3.20516 0.49397 0
M  V30 4690 H 445.937 3.7328 -1.20019 0
M  V30 4691 H 447.427 4.16454 -0.309099 0
M  V30 4692 N 447.864 1.01787 1.20321 0
M  V30 4693 C 448.827 0.593972 2.2137 0
M  V30 4694 C 449.827 -0.336553 1.57239 0
M  V30 4695 O 451.017 -0.125069 1.7375 0
M  V30 4696 C 448.149 -0.132433 3.40643 0
M  V30 4697 H 449.342 1.48791 2.60387 0
M  V30 4698 H 446.895 0.807803 1.33807 0
M  V30 4699 H 447.63 -1.04123 3.0713 0
M  V30 4700 H 447.415 0.53605 3.88418 0
M  V30 4701 H 448.905 -0.416314 4.1552 0
M  V30 4702 N 449.342 -1.36122 0.79427 0
M  V30 4703 C 450.567 -2.03891 0.379871 0
M  V30 4704 C 450.992 -1.59488 -0.997251 0
M  V30 4705 O 450.35 -0.765652 -1.64339 0
M  V30 4706 C 450.398 -3.57687 0.457442 0
M  V30 4707 O 449.502 -4.08931 -0.5338 0
M  V30 4708 H 448.843 -0.6443 0.160541 0
M  V30 4709 H 451.373 -1.73976 1.07673 0
M  V30 4710 H 451.383 -4.06721 0.322792 0
M  V30 4711 H 450.058 -3.89357 1.46199 0
M  V30 4712 H 448.635 -3.71154 -0.360409 0
M  V30 4713 N 450.82 -0.546701 -1.47814 0
M  V30 4714 C 452.097 0.0464413 -1.95545 0
M  V30 4715 C 452.477 1.4962 -1.48919 0
M  V30 4716 O 451.825 2.16752 -0.723232 0
M  V30 4717 C 452.035 -0.0881298 -3.48889 0
M  V30 4718 C 453.383 0.0626059 -4.24554 0
M  V30 4719 O 454.407 -0.0151555 -3.56197 0
M  V30 4720 O 453.266 0.228071 -5.46024 0
M  V30 4721 H 450.36 0.0700004 -0.824032 0
M  V30 4722 H 452.906 -0.612482 -1.58262 0
M  V30 4723 H 451.678 -1.09737 -3.75597 0
M  V30 4724 H 451.301 0.608886 -3.9291 0
M  V30 4725 N 452.299 1.55045 -0.282633 0
M  V30 4726 C 453.232 2.18951 0.64311 0
M  V30 4727 C 454.21 1.15287 1.14664 0
M  V30 4728 O 455.394 1.43846 1.21822 0
M  V30 4729 C 452.521 2.81874 1.87789 0
M  V30 4730 C 451.567 3.98906 1.50919 0
M  V30 4731 S 452.4 5.3234 0.580884 0
M  V30 4732 C 453.556 5.98737 1.82387 0
M  V30 4733 H 453.789 2.97131 0.100138 0
M  V30 4734 H 451.322 1.54255 -0.0668514 0
M  V30 4735 H 453.28 3.18757 2.58658 0
M  V30 4736 H 451.941 2.03573 2.392 0
M  V30 4737 H 451.134 4.4165 2.42819 0
M  V30 4738 H 450.736 3.63485 0.88061 0
M  V30 4739 H 453.028 6.18427 2.76684 0
M  V30 4740 H 453.971 6.93318 1.4393 0
M  V30 4741 H 454.379 5.28177 1.99223 0
M  V30 4742 N 453.777 0.010035 1.57597 0
M  V30 4743 C 454.707 -0.976857 2.12084 0
M  V30 4744 C 455.688 -1.35191 1.03235 0
M  V30 4745 O 456.873 -1.43389 1.3097 0
M  V30 4746 C 454.003 -2.26548 2.63236 0
M  V30 4747 C 452.957 -2.03175 3.76701 0
M  V30 4748 C 452.283 -3.38138 4.14206 0
M  V30 4749 C 453.583 -1.38625 5.03568 0
M  V30 4750 H 455.277 -0.523145 2.94794 0
M  V30 4751 H 452.823 -0.250195 1.4181 0
M  V30 4752 H 454.776 -2.95952 2.99984 0
M  V30 4753 H 453.5 -2.74051 1.77661 0
M  V30 4754 H 452.159 -1.36195 3.40362 0
M  V30 4755 H 451.807 -3.83363 3.25641 0
M  V30 4756 H 451.507 -3.23312 4.90656 0
M  V30 4757 H 453.031 -4.08841 4.53521 0
M  V30 4758 H 454.445 -1.98 5.38023 0
M  V30 4759 H 452.842 -1.34256 5.84889 0
M  V30 4760 H 453.912 -0.356722 4.83586 0
M  V30 4761 N 455.255 -1.55392 -0.262866 0
M  V30 4762 C 456.48 -1.80847 -1.01533 0
M  V30 4763 C 456.905 -0.584946 -1.78774 0
M  V30 4764 O 456.263 0.465701 -1.75217 0
M  V30 4765 C 456.311 -3.03866 -1.94159 0
M  V30 4766 O 455.415 -2.79662 -3.03089 0
M  V30 4767 H 454.756 -0.597441 -0.289759 0
M  V30 4768 H 457.286 -2.02553 -0.288698 0
M  V30 4769 H 457.296 -3.32872 -2.35924 0
M  V30 4770 H 455.971 -3.92564 -1.37354 0
M  V30 4771 H 454.548 -2.61781 -2.65566 0
M  V30 4772 N 456.733 0.527833 -1.48498 0
M  V30 4773 C 457.643 1.65907 -1.65867 0
M  V30 4774 C 458.659 1.6537 -0.541192 0
M  V30 4775 O 459.835 1.84282 -0.812534 0
M  V30 4776 C 456.9 3.02364 -1.69637 0
M  V30 4777 C 455.961 3.1374 -2.93028 0
M  V30 4778 C 455.194 4.43688 -2.96609 0
M  V30 4779 O 455.417 5.30913 -2.08538 0
M  V30 4780 O 454.351 4.59475 -3.88802 0
M  V30 4781 H 458.177 1.5419 -2.61647 0
M  V30 4782 H 455.762 0.701163 -1.31924 0
M  V30 4783 H 457.644 3.83515 -1.74625 0
M  V30 4784 H 456.319 3.14401 -0.770312 0
M  V30 4785 H 455.226 2.31877 -2.93571 0
M  V30 4786 H 456.559 3.06621 -3.85026 0
M  V30 4787 N 458.211 1.37122 0.776871 0
M  V30 4788 C 459.161 1.28989 1.88005 0
M  V30 4789 C 460.145 0.178765 1.59904 0
M  V30 4790 O 461.337 0.412705 1.72121 0
M  V30 4791 C 458.466 1.09402 3.25402 0
M  V30 4792 C 457.552 2.25036 3.59471 0
M  V30 4793 N 457.943 3.50407 3.64759 0
M  V30 4794 C 456.241 2.17078 3.89607 0
M  V30 4795 C 456.942 4.26628 3.95428 0
M  V30 4796 N 455.918 3.55709 4.11062 0
M  V30 4797 H 459.72 2.2394 1.90337 0
M  V30 4798 H 457.234 1.30021 0.973052 0
M  V30 4799 H 459.231 1.01661 4.04315 0
M  V30 4800 H 457.891 0.153632 3.24336 0
M  V30 4801 H 458.902 3.8438 3.47091 0
M  V30 4802 H 455.579 1.31067 3.96393 0
M  V30 4803 H 456.969 5.35107 4.06338 0
M  V30 4804 N 459.689 -1.00246 1.21608 0
M  V30 4805 C 460.914 -1.78167 1.06167 0
M  V30 4806 C 461.339 -1.84138 -0.384035 0
M  V30 4807 O 460.697 -1.28683 -1.27712 0
M  V30 4808 C 460.745 -3.19786 1.66642 0
M  V30 4809 O 459.849 -4.02153 0.913613 0
M  V30 4810 H 459.19 -0.549 0.37349 0
M  V30 4811 H 461.72 -1.25994 1.61204 0
M  V30 4812 H 461.73 -3.70451 1.70969 0
M  V30 4813 H 460.405 -3.14754 2.7185 0
M  V30 4814 H 458.982 -3.60711 0.945635 0
M  V30 4815 N 461.167 -1.02423 -1.1978 0
M  V30 4816 C 462.414 -0.717988 -1.89344 0
M  V30 4817 C 462.742 0.753036 -1.79331 0
M  V30 4818 O 461.997 1.56355 -1.17692 0
M  V30 4819 C 462.296 -1.1088 -3.39765 0
M  V30 4820 C 461.962 -2.57731 -3.6998 0
M  V30 4821 C 460.624 -2.97854 -3.77937 0
M  V30 4822 C 462.976 -3.52763 -3.83677 0
M  V30 4823 C 460.304 -4.31931 -3.97054 0
M  V30 4824 C 462.656 -4.86538 -4.04306 0
M  V30 4825 C 461.32 -5.26356 -4.10494 0
M  V30 4826 H 460.59 -0.26273 -0.692859 0
M  V30 4827 H 463.237 -1.28623 -1.41875 0
M  V30 4828 H 461.542 -0.459094 -3.89101 0
M  V30 4829 H 463.239 -0.849432 -3.919 0
M  V30 4830 H 459.829 -2.25646 -3.64393 0
M  V30 4831 H 464.013 -3.2292 -3.76877 0
M  V30 4832 H 459.269 -4.62324 -4.00083 0
M  V30 4833 H 463.443 -5.60093 -4.13846 0
M  V30 4834 H 461.07 -6.3026 -4.2506 0
M  V30 4835 N 462.645 1.35699 -0.801477 0
M  V30 4836 C 463.894 1.98165 -0.375979 0
M  V30 4837 C 464.207 1.64306 1.06127 0
M  V30 4838 O 465.413 2.20097 1.58964 0
M  V30 4839 C 463.869 3.54497 -0.621305 0
M  V30 4840 C 463.477 3.9727 -2.07076 0
M  V30 4841 C 465.221 4.23697 -0.26091 0
M  V30 4842 C 463.128 5.46427 -2.26211 0
M  V30 4843 H 462.058 0.741478 -0.136844 0
M  V30 4844 H 464.709 1.54834 -0.984814 0
M  V30 4845 H 463.091 3.95958 0.0574112 0
M  V30 4846 H 464.265 3.66974 -2.78687 0
M  V30 4847 H 462.58 3.40943 -2.39054 0
M  V30 4848 H 465.177 5.33334 -0.381994 0
M  V30 4849 H 465.52 4.0869 0.792344 0
M  V30 4850 H 466.053 3.87639 -0.893339 0
M  V30 4851 H 462.792 5.66396 -3.29963 0
M  V30 4852 H 462.312 5.78309 -1.59119 0
M  V30 4853 H 463.991 6.12819 -2.07513 0
M  V30 4854 N 464.123 0.554532 1.47522 0
M  V30 4855 C 465.534 0.120446 1.86311 0
M  V30 4856 C 465.885 -1.30904 1.46145 0
M  V30 4857 O 465.01 -1.98434 0.863294 0
M  V30 4858 C 465.605 0.211808 3.38137 0
M  V30 4859 C 464.164 -0.167224 3.76028 0
M  V30 4860 C 463.311 0.560576 2.71575 0
M  V30 4861 H 466.262 0.764408 1.39077 0
M  V30 4862 H 466.283 -0.570275 3.76202 0
M  V30 4863 H 465.795 1.25232 3.6734 0
M  V30 4864 H 463.896 -1.20894 3.52442 0
M  V30 4865 H 464.009 0.189473 4.78725 0
M  V30 4866 H 462.373 0.00396836 2.547 0
M  V30 4867 H 463.156 1.60219 3.0362 0
M  V30 4868 N 465.601 -1.54893 0.290851 0
M  V30 4869 C 466.511 -2.26812 -0.59945 0
M  V30 4870 C 467.527 -1.29963 -1.15696 0
M  V30 4871 O 468.703 -1.62928 -1.18391 0
M  V30 4872 C 465.768 -2.98716 -1.75982 0
M  V30 4873 C 464.829 -4.1108 -1.2374 0
M  V30 4874 C 464.062 -4.79546 -2.34246 0
M  V30 4875 O 464.285 -4.47309 -3.53936 0
M  V30 4876 O 463.219 -5.67165 -2.01512 0
M  V30 4877 H 467.045 -3.03696 -0.0163561 0
M  V30 4878 H 464.63 -1.49289 0.0576755 0
M  V30 4879 H 466.512 -3.43851 -2.43607 0
M  V30 4880 H 465.187 -2.24737 -2.3297 0
M  V30 4881 H 464.094 -3.70367 -0.527163 0
M  V30 4882 H 465.427 -4.87007 -0.71307 0
M  V30 4883 N 467.08 -0.0183926 -1.57589 0
M  V30 4884 C 468.491 0.521927 -1.79256 0
M  V30 4885 C 468.842 1.72885 -0.927636 0
M  V30 4886 O 467.967 2.15978 -0.135091 0
M  V30 4887 C 468.562 0.953632 -3.25102 0
M  V30 4888 C 467.121 1.43913 -3.47801 0
M  V30 4889 C 466.268 0.398837 -2.74417 0
M  V30 4890 H 469.219 -0.244485 -1.56805 0
M  V30 4891 H 469.24 1.81863 -3.34224 0
M  V30 4892 H 468.752 0.0750123 -3.88028 0
M  V30 4893 H 466.853 2.33804 -2.90115 0
M  V30 4894 H 466.966 1.45391 -4.56507 0
M  V30 4895 H 465.33 0.864572 -2.39577 0
M  V30 4896 H 466.113 -0.471132 -3.40052 0
M  V30 4897 N 468.558 1.5553 0.254621 0
M  V30 4898 C 469.505 1.89666 1.31512 0
M  V30 4899 C 470.475 0.750057 1.482 0
M  V30 4900 O 471.66 1.00301 1.62309 0
M  V30 4901 C 468.8 2.19009 2.667 0
M  V30 4902 C 467.913 3.46435 2.58083 0
M  V30 4903 C 467.048 3.65386 3.85573 0
M  V30 4904 C 466.087 4.8644 3.71541 0
M  V30 4905 N 465.224 5.01952 4.90906 0
M  V30 4906 H 470.064 2.80109 1.017 0
M  V30 4907 H 467.601 1.38666 0.490938 0
M  V30 4908 H 469.559 2.34025 3.45381 0
M  V30 4909 H 468.189 1.31779 2.94676 0
M  V30 4910 H 467.241 3.39792 1.71013 0
M  V30 4911 H 468.553 4.35258 2.43622 0
M  V30 4912 H 467.707 3.80319 4.72697 0
M  V30 4913 H 466.446 2.74781 4.02922 0
M  V30 4914 H 465.451 4.71491 2.82801 0
M  V30 4915 H 466.676 5.78497 3.55694 0
M  V30 4916 H 464.622 4.14283 5.08631 0
M  V30 4917 H 464.539 5.84851 4.79046 0
M  V30 4918 H 465.807 5.21289 5.7955 0
M  V30 4919 N 470.036 -0.519951 1.48776 0
M  V30 4920 C 471.261 -1.30447 1.6124 0
M  V30 4921 C 471.686 -1.86055 0.276591 0
M  V30 4922 O 471.044 -1.64915 -0.753183 0
M  V30 4923 C 471.092 -2.42406 2.66967 0
M  V30 4924 O 470.196 -3.45728 2.24824 0
M  V30 4925 H 469.537 -0.385924 0.540332 0
M  V30 4926 H 472.067 -0.624572 1.94834 0
M  V30 4927 H 472.077 -2.88447 2.88552 0
M  V30 4928 H 470.752 -2.01294 3.63941 0
M  V30 4929 H 469.329 -3.05737 2.13494 0
M  V30 4930 N 471.514 -1.37532 -0.769588 0
M  V30 4931 C 472.739 -1.36231 -1.56384 0
M  V30 4932 C 473.164 0.0495849 -1.88035 0
M  V30 4933 O 472.522 1.02723 -1.49391 0
M  V30 4934 C 472.57 -2.20986 -2.84952 0
M  V30 4935 O 471.674 -1.61597 -3.79421 0
M  V30 4936 H 471.015 -0.465387 -0.473615 0
M  V30 4937 H 473.545 -1.81085 -0.952342 0
M  V30 4938 H 473.555 -2.34277 -3.34034 0
M  V30 4939 H 472.23 -3.23612 -2.61243 0
M  V30 4940 H 470.807 -1.57359 -3.38072 0
M  V30 4941 N 472.992 0.995999 -1.22138 0
M  V30 4942 C 474.232 1.75032 -1.05561 0
M  V30 4943 C 474.596 1.87729 0.402698 0
M  V30 4944 O 475.797 2.59813 0.689234 0
M  V30 4945 C 474.068 3.11973 -1.74379 0
M  V30 4946 S 475.627 4.03182 -1.73175 0
M  V30 4947 H 472.445 0.602137 -0.37809 0
M  V30 4948 H 475.047 1.19107 -1.55028 0
M  V30 4949 H 473.751 3.00371 -2.79652 0
M  V30 4950 H 473.282 3.7297 -1.25128 0
M  V30 4951 H 475.297 4.90043 -0.77923 0
M  V30 4952 N 474.47 1.03057 1.19235 0
M  V30 4953 C 475.7 0.746613 1.92638 0
M  V30 4954 C 476.108 -0.698708 1.75826 0
M  V30 4955 O 475.451 -1.487 1.07861 0
M  V30 4956 C 475.513 1.02024 3.44719 0
M  V30 4957 C 475.177 2.45745 3.85303 0
M  V30 4958 C 476.174 3.43887 3.8992 0
M  V30 4959 C 473.859 2.8019 4.16892 0
M  V30 4960 C 475.853 4.74529 4.2556 0
M  V30 4961 C 473.54 4.1104 4.52205 0
M  V30 4962 C 474.538 5.0802 4.56513 0
M  V30 4963 O 474.226 6.36527 4.91008 0
M  V30 4964 H 473.958 0.272401 0.618687 0
M  V30 4965 H 476.512 1.37853 1.52269 0
M  V30 4966 H 474.742 0.331184 3.85279 0
M  V30 4967 H 476.431 0.725677 3.9936 0
M  V30 4968 H 477.197 3.18614 3.65664 0
M  V30 4969 H 473.076 2.05382 4.12722 0
M  V30 4970 H 476.62 5.50222 4.28838 0
M  V30 4971 H 472.517 4.36086 4.7592 0
M  V30 4972 H 473.285 6.41025 5.08949 0
M  V30 4973 N 475.948 -1.35272 0.808662 0
M  V30 4974 C 476.896 -2.31663 0.208606 0
M  V30 4975 C 477.89 -1.56731 -0.642778 0
M  V30 4976 O 479.096 -1.71843 -0.53571 0
M  V30 4977 H 475.471 -0.750421 0.0486993 0
M  V30 4978 H 477.442 -2.79814 1.03666 0
M  V30 4979 C 476.191 -3.42008 -0.626573 0
M  V30 4980 H 475.514 -3.99795 0.0192103 0
M  V30 4981 H 476.954 -4.11727 -1.01278 0
M  V30 4982 C 475.413 -2.85226 -1.79298 0
M  V30 4983 O 475.943 -2.78945 -2.89055 0
M  V30 4984 N 474.149 -2.42245 -1.60516 0
M  V30 4985 H 473.696 -2.47554 -0.712375 0
M  V30 4986 H 473.654 -2.04603 -2.38715 0
M  V30 4987 N 477.426 -0.562348 -1.47226 0
M  V30 4988 C 478.654 -0.0452275 -2.06851 0
M  V30 4989 C 479.069 1.25078 -1.41424 0
M  V30 4990 O 478.426 1.75156 -0.512513 0
M  V30 4991 C 478.477 0.148674 -3.61194 0
M  V30 4992 O 478.198 -1.09602 -4.24169 0
M  V30 4993 C 479.699 0.702488 -4.37699 0
M  V30 4994 H 476.919 -0.0481775 -0.669268 0
M  V30 4995 H 479.463 -0.777223 -1.89155 0
M  V30 4996 H 477.618 0.830817 -3.78386 0
M  V30 4997 H 478.032 -0.896982 -5.16773 0
M  V30 4998 H 479.506 0.78743 -5.46355 0
M  V30 4999 H 479.983 1.71493 -4.04335 0
M  V30 5000 H 480.589 0.0558772 -4.25263 0
M  V30 5001 N 478.904 1.54736 -0.299062 0
M  V30 5002 C 479.854 2.20155 0.592932 0
M  V30 5003 C 480.838 1.1739 1.10038 0
M  V30 5004 O 482.03 1.43116 1.04147 0
M  V30 5005 C 479.159 2.94437 1.76527 0
M  V30 5006 C 478.245 4.04516 1.27388 0
M  V30 5007 N 478.636 5.03319 0.500339 0
M  V30 5008 C 476.934 4.18022 1.55478 0
M  V30 5009 C 477.635 5.81209 0.238909 0
M  V30 5010 N 476.611 5.37408 0.818163 0
M  V30 5011 H 480.413 2.93899 -0.00563596 0
M  V30 5012 H 477.927 1.62068 -0.103732 0
M  V30 5013 H 479.924 3.3977 2.41582 0
M  V30 5014 H 478.584 2.22209 2.36756 0
M  V30 5015 H 479.595 5.17696 0.145419 0
M  V30 5016 H 476.272 3.56998 2.16469 0
M  V30 5017 H 477.662 6.70812 -0.382223 0
M  V30 5018 N 480.382 0.0267497 1.57577 0
M  V30 5019 C 481.292 -0.971633 2.13533 0
M  V30 5020 C 482.308 -1.35868 1.08701 0
M  V30 5021 O 483.484 -1.44058 1.40746 0
M  V30 5022 C 480.549 -2.23622 2.64941 0
M  V30 5023 C 479.61 -1.90982 3.8448 0
M  V30 5024 C 478.843 -3.11411 4.33427 0
M  V30 5025 O 479.066 -4.23992 3.81558 0
M  V30 5026 O 478 -2.93848 5.25297 0
M  V30 5027 H 481.826 -0.525853 2.99113 0
M  V30 5028 H 479.411 -0.193712 1.48139 0
M  V30 5029 H 481.293 -2.97864 2.98086 0
M  V30 5030 H 479.968 -2.67386 1.82446 0
M  V30 5031 H 478.875 -1.14132 3.56265 0
M  V30 5032 H 480.208 -1.52036 4.6813 0
M  V30 5033 N 481.861 -1.55662 -0.24637 0
M  V30 5034 C 482.808 -1.90361 -1.30504 0
M  V30 5035 C 483.778 -0.757905 -1.47801 0
M  V30 5036 O 484.963 -1.01161 -1.61775 0
M  V30 5037 C 482.103 -2.2042 -2.65535 0
M  V30 5038 C 481.216 -3.47799 -2.56242 0
M  V30 5039 C 480.351 -3.67426 -3.8363 0
M  V30 5040 C 479.39 -4.88403 -3.68956 0
M  V30 5041 N 478.527 -5.04548 -4.88237 0
M  V30 5042 H 483.367 -2.80645 -1.00213 0
M  V30 5043 H 480.904 -1.38924 -0.483577 0
M  V30 5044 H 482.862 -2.35853 -3.44135 0
M  V30 5045 H 481.492 -1.3334 -2.93973 0
M  V30 5046 H 480.544 -3.40694 -1.69208 0
M  V30 5047 H 481.856 -4.36544 -2.4131 0
M  V30 5048 H 481.01 -3.82821 -4.70673 0
M  V30 5049 H 479.749 -2.76914 -4.01459 0
M  V30 5050 H 478.754 -4.72984 -2.80296 0
M  V30 5051 H 479.979 -5.80375 -3.52621 0
M  V30 5052 H 477.925 -4.16974 -5.06427 0
M  V30 5053 H 477.842 -5.87384 -4.75937 0
M  V30 5054 H 479.11 -5.24355 -5.76777 0
M  V30 5055 N 483.339 0.512053 -1.4905 0
M  V30 5056 C 484.755 0.84224 -1.35567 0
M  V30 5057 C 484.955 1.97878 -0.380319 0
M  V30 5058 O 484.011 2.51769 0.19201 0
M  V30 5059 C 485.324 1.19286 -2.76028 0
M  V30 5060 C 486.872 1.30171 -2.84648 0
M  V30 5061 C 487.347 1.68568 -4.25851 0
M  V30 5062 N 488.838 1.75638 -4.28609 0
M  V30 5063 C 489.573 2.06769 -5.34821 0
M  V30 5064 N 489.069 2.36201 -6.51292 0
M  V30 5065 N 490.862 2.07927 -5.22229 0
M  V30 5066 H 483.013 -0.237574 -2.11067 0
M  V30 5067 H 485.276 -0.0436747 -0.946993 0
M  V30 5068 H 484.982 0.431199 -3.49047 0
M  V30 5069 H 484.856 2.13889 -3.10695 0
M  V30 5070 H 487.243 2.05411 -2.11873 0
M  V30 5071 H 487.324 0.336457 -2.53578 0
M  V30 5072 H 486.968 0.938824 -4.99148 0
M  V30 5073 H 486.898 2.66174 -4.54377 0
M  V30 5074 H 489.389 1.55097 -3.44606 0
M  V30 5075 H 489.702 2.59112 -7.28066 0
M  V30 5076 H 488.047 2.33681 -6.54536 0
M  V30 5077 H 491.238 1.84403 -4.30248 0
M  V30 5078 H 491.411 2.31856 -6.05101 0
M  V30 5079 N 484.817 1.37938 0.762283 0
M  V30 5080 C 486.066 1.32989 1.51647 0
M  V30 5081 C 486.379 -0.0802922 1.95435 0
M  V30 5082 O 487.585 -0.252295 2.70325 0
M  V30 5083 C 486.041 2.33485 2.73885 0
M  V30 5084 C 485.649 3.80079 2.37157 0
M  V30 5085 C 487.393 2.37563 3.51801 0
M  V30 5086 C 485.3 4.72283 3.55954 0
M  V30 5087 H 484.23 0.494301 0.56937 0
M  V30 5088 H 486.881 1.63448 0.834083 0
M  V30 5089 H 485.263 1.96056 3.44061 0
M  V30 5090 H 486.437 4.26398 1.74704 0
M  V30 5091 H 484.752 3.79037 1.72395 0
M  V30 5092 H 487.349 3.0365 4.40114 0
M  V30 5093 H 487.692 1.39199 3.92338 0
M  V30 5094 H 488.225 2.73747 2.8863 0
M  V30 5095 H 484.964 5.7181 3.2049 0
M  V30 5096 H 484.484 4.30663 4.1748 0
M  V30 5097 H 486.163 4.89876 4.22647 0
M  V30 5098 N 486.295 -0.989507 1.22664 0
M  V30 5099 C 487.525 -1.7624 1.0781 0
M  V30 5100 C 487.933 -1.85466 -0.374036 0
M  V30 5101 O 487.276 -1.32645 -1.27087 0
M  V30 5102 C 487.338 -3.21007 1.61849 0
M  V30 5103 C 487.002 -3.35316 3.10503 0
M  V30 5104 C 487.999 -3.22362 4.07896 0
M  V30 5105 C 485.684 -3.60258 3.50028 0
M  V30 5106 C 487.678 -3.34139 5.42798 0
M  V30 5107 C 485.365 -3.71676 4.85078 0
M  V30 5108 C 486.363 -3.58625 5.81272 0
M  V30 5109 O 486.051 -3.69655 7.1387 0
M  V30 5110 H 485.783 -0.560209 0.378341 0
M  V30 5111 H 488.337 -1.25252 1.62792 0
M  V30 5112 H 486.567 -3.73202 1.01279 0
M  V30 5113 H 488.256 -3.80024 1.42606 0
M  V30 5114 H 489.022 -3.03 3.78703 0
M  V30 5115 H 484.901 -3.69492 2.75675 0
M  V30 5116 H 488.445 -3.23869 6.17863 0
M  V30 5117 H 484.342 -3.90545 5.1395 0
M  V30 5118 H 485.11 -3.86507 7.21495 0
M  V30 5119 N 487.773 -1.03688 -1.18687 0
M  V30 5120 C 488.705 -0.582696 -2.21669 0
M  V30 5121 C 489.718 0.345656 -1.59088 0
M  V30 5122 O 490.907 0.140776 -1.77944 0
M  V30 5123 C 488.007 0.169204 -3.38477 0
M  V30 5124 C 487.18 -0.766079 -4.30639 0
M  V30 5125 C 486.239 -0.0581541 -5.26168 0
M  V30 5126 O 485.265 -0.687346 -5.65035 0
M  V30 5127 N 486.467 1.20981 -5.67753 0
M  V30 5128 H 489.232 -1.46843 -2.61261 0
M  V30 5129 H 486.793 -0.916896 -1.33434 0
M  V30 5130 H 488.785 0.652543 -3.99405 0
M  V30 5131 H 487.355 0.956435 -2.97609 0
M  V30 5132 H 486.575 -1.42935 -3.67373 0
M  V30 5133 H 487.863 -1.40146 -4.89118 0
M  V30 5134 H 487.261 1.74159 -5.38224 0
M  V30 5135 H 485.818 1.6375 -6.30896 0
M  V30 5136 N 489.251 1.34841 -0.815825 0
M  V30 5137 C 490.476 2.03261 -0.41226 0
M  V30 5138 C 490.901 1.61055 0.971751 0
M  V30 5139 O 490.259 0.7917 1.63101 0
M  V30 5140 C 490.307 3.56914 -0.514289 0
M  V30 5141 O 489.411 4.09728 0.468675 0
M  V30 5142 H 488.752 0.641664 -0.170771 0
M  V30 5143 H 491.282 1.72241 -1.10427 0
M  V30 5144 H 491.292 4.06156 -0.387457 0
M  V30 5145 H 489.967 3.86982 -1.52375 0
M  V30 5146 H 488.544 3.71681 0.301316 0
M  V30 5147 N 490.729 0.570148 1.46925 0
M  V30 5148 C 491.677 -0.183181 2.31878 0
M  V30 5149 C 492.671 -0.896721 1.43719 0
M  V30 5150 O 493.877 -0.816536 1.60414 0
M  V30 5151 H 490.252 -0.077944 0.74795 0
M  V30 5152 H 492.223 0.552312 2.93244 0
M  V30 5153 C 490.972 -1.19172 3.2664 0
M  V30 5154 H 490.295 -0.652088 3.94446 0
M  V30 5155 H 491.735 -1.68946 3.88887 0
M  V30 5156 C 490.194 -2.24627 2.51086 0
M  V30 5157 O 490.724 -3.31773 2.26472 0
M  V30 5158 N 488.93 -1.98898 2.11867 0
M  V30 5159 H 488.477 -1.11777 2.32086 0
M  V30 5160 H 488.435 -2.6967 1.61634 0
M  V30 5161 N 492.207 -1.54576 0.307264 0
M  V30 5162 C 493.14 -2.19946 -0.608195 0
M  V30 5163 C 494.118 -1.17096 -1.12815 0
M  V30 5164 O 495.302 -1.45766 -1.19518 0
M  V30 5165 C 492.429 -2.84826 -1.8328 0
M  V30 5166 C 491.475 -4.01256 -1.44554 0
M  V30 5167 S 492.308 -5.33197 -0.49612 0
M  V30 5168 C 493.464 -6.01563 -1.72838 0
M  V30 5169 H 493.697 -2.97253 -0.0528544 0
M  V30 5170 H 491.23 -1.54129 0.0913837 0
M  V30 5171 H 493.188 -3.22832 -2.53554 0
M  V30 5172 H 491.849 -2.07353 -2.35931 0
M  V30 5173 H 491.042 -4.45457 -2.35762 0
M  V30 5174 H 490.644 -3.6484 -0.822671 0
M  V30 5175 H 492.936 -6.22751 -2.6681 0
M  V30 5176 H 493.879 -6.9552 -1.32882 0
M  V30 5177 H 494.287 -5.31279 -1.90795 0
M  V30 5178 N 493.685 -0.035106 -1.57561 0
M  V30 5179 C 494.615 0.942993 -2.13612 0
M  V30 5180 C 495.596 1.33531 -1.05373 0
M  V30 5181 O 496.781 1.41287 -1.33235 0
M  V30 5182 C 493.911 2.22332 -2.66807 0
M  V30 5183 C 492.865 1.97156 -3.79886 0
M  V30 5184 C 492.191 3.31506 -4.19533 0
M  V30 5185 C 493.491 1.30596 -5.05709 0
M  V30 5186 H 495.185 0.476179 -2.95589 0
M  V30 5187 H 492.731 0.227602 -1.4219 0
M  V30 5188 H 494.684 2.91142 -3.04654 0
M  V30 5189 H 493.408 2.7119 -1.81999 0
M  V30 5190 H 492.067 1.30763 -3.42486 0
M  V30 5191 H 491.715 3.78134 -3.31698 0
M  V30 5192 H 491.415 3.15465 -4.95738 0
M  V30 5193 H 492.939 4.01574 -4.59968 0
M  V30 5194 H 494.353 1.89416 -5.41105 0
M  V30 5195 H 492.75 1.24934 -5.86951 0
M  V30 5196 H 493.82 0.279742 -4.84092 0
M  V30 5197 N 495.163 1.55791 0.238111 0
M  V30 5198 C 496.111 1.91885 1.31464 0
M  V30 5199 C 497.105 0.798929 1.49377 0
M  V30 5200 O 498.311 0.983626 1.50747 0
M  V30 5201 H 494.686 0.609551 0.440399 0
M  V30 5202 H 496.657 2.81747 0.982925 0
M  V30 5203 C 495.406 2.23763 2.6613 0
M  V30 5204 H 494.729 3.09444 2.53149 0
M  V30 5205 H 496.169 2.52915 3.40309 0
M  V30 5206 C 494.628 1.05699 3.1989 0
M  V30 5207 O 495.158 0.309524 4.00506 0
M  V30 5208 N 493.364 0.845251 2.78036 0
M  V30 5209 H 492.911 1.4548 2.12588 0
M  V30 5210 H 492.869 0.0569973 3.14348 0
M  V30 5211 N 496.642 -0.504142 1.49319 0
M  V30 5212 C 498.058 -0.835039 1.36012 0
M  V30 5213 C 498.258 -1.97674 0.390808 0
M  V30 5214 O 497.314 -2.51867 -0.178655 0
M  V30 5215 C 498.627 -1.17821 2.76656 0
M  V30 5216 C 500.175 -1.2866 2.85334 0
M  V30 5217 C 500.65 -1.66307 4.26739 0
M  V30 5218 N 502.141 -1.73362 4.29534 0
M  V30 5219 C 502.876 -2.0393 5.35911 0
M  V30 5220 N 502.372 -2.32744 6.52535 0
M  V30 5221 N 504.165 -2.05155 5.23324 0
M  V30 5222 H 496.316 0.248764 2.10938 0
M  V30 5223 H 498.579 0.0486962 0.946748 0
M  V30 5224 H 498.285 -0.412682 3.4927 0
M  V30 5225 H 498.159 -2.12239 3.11825 0
M  V30 5226 H 500.546 -2.04285 2.1296 0
M  V30 5227 H 500.627 -0.323004 2.53752 0
M  V30 5228 H 500.271 -0.91234 4.99639 0
M  V30 5229 H 500.201 -2.63761 4.55782 0
M  V30 5230 H 502.692 -1.53268 3.45424 0
M  V30 5231 H 503.005 -2.55248 7.2943 0
M  V30 5232 H 501.35 -2.30207 6.55767 0
M  V30 5233 H 504.541 -1.82119 4.3122 0
M  V30 5234 H 504.714 -2.28644 6.06322 0
M  V30 5235 N 498.12 -1.38341 -0.754957 0
M  V30 5236 C 499.35 -1.37504 -1.54195 0
M  V30 5237 C 499.758 0.0373787 -1.89163 0
M  V30 5238 O 499.101 1.01402 -1.53178 0
M  V30 5239 C 499.163 -2.16488 -2.87008 0
M  V30 5240 C 498.827 -3.65311 -2.74585 0
M  V30 5241 C 499.824 -4.58834 -2.44474 0
M  V30 5242 C 497.509 -4.08649 -2.9208 0
M  V30 5243 C 499.503 -5.93675 -2.32011 0
M  V30 5244 C 497.19 -5.43571 -2.79237 0
M  V30 5245 C 498.188 -6.35898 -2.49245 0
M  V30 5246 O 497.876 -7.68338 -2.36458 0
M  V30 5247 H 497.608 -0.472159 -0.483779 0
M  V30 5248 H 500.162 -1.82515 -0.94221 0
M  V30 5249 H 498.392 -1.66194 -3.49166 0
M  V30 5250 H 500.081 -2.08076 -3.4851 0
M  V30 5251 H 500.847 -4.26657 -2.30627 0
M  V30 5252 H 496.726 -3.37134 -3.14422 0
M  V30 5253 H 500.27 -6.65706 -2.08522 0
M  V30 5254 H 496.167 -5.75345 -2.92657 0
M  V30 5255 H 496.935 -7.78845 -2.5168 0
M  V30 5256 N 499.598 0.982988 -1.23187 0
M  V30 5257 C 500.528 2.09301 -1.03515 0
M  V30 5258 C 501.509 1.70035 0.0471136 0
M  V30 5259 O 502.694 1.93847 -0.117029 0
M  V30 5260 C 499.824 3.4167 -0.622791 0
M  V30 5261 C 498.778 3.94828 -1.65211 0
M  V30 5262 C 498.104 5.23362 -1.09527 0
M  V30 5263 C 499.404 4.2439 -3.04451 0
M  V30 5264 H 501.098 2.26016 -1.96359 0
M  V30 5265 H 498.644 1.08611 -0.945501 0
M  V30 5266 H 500.597 4.18746 -0.472233 0
M  V30 5267 H 499.321 3.24811 0.341329 0
M  V30 5268 H 497.98 3.19895 -1.79061 0
M  V30 5269 H 497.628 5.02852 -0.122211 0
M  V30 5270 H 497.328 5.59895 -1.783 0
M  V30 5271 H 498.852 6.03062 -0.956511 0
M  V30 5272 H 500.266 4.92225 -2.93917 0
M  V30 5273 H 498.663 4.72118 -3.70438 0
M  V30 5274 H 499.733 3.31765 -3.53638 0
M  V30 5275 N 501.076 1.04316 1.18135 0
M  V30 5276 C 502.325 0.74319 1.87509 0
M  V30 5277 C 502.638 -0.732136 1.81381 0
M  V30 5278 O 503.844 -1.14572 2.46141 0
M  V30 5279 C 502.3 1.27913 3.36402 0
M  V30 5280 C 501.908 2.78326 3.51053 0
M  V30 5281 C 503.652 1.0558 4.11161 0
M  V30 5282 C 501.559 3.25266 4.93919 0
M  V30 5283 H 500.489 0.274313 0.702331 0
M  V30 5284 H 503.14 1.25931 1.33467 0
M  V30 5285 H 501.522 0.690853 3.89927 0
M  V30 5286 H 502.696 3.42933 3.07788 0
M  V30 5287 H 501.011 2.991 2.89704 0
M  V30 5288 H 503.608 1.38161 5.16542 0
M  V30 5289 H 503.951 -0.00684729 4.16299 0
M  V30 5290 H 504.484 1.60882 3.63816 0
M  V30 5291 H 501.223 4.30922 4.9395 0
M  V30 5292 H 500.743 2.65396 5.3789 0
M  V30 5293 H 502.422 3.19433 5.62647 0
M  V30 5294 N 502.554 -1.34406 0.822964 0
M  V30 5295 C 503.502 -2.31428 0.233165 0
M  V30 5296 C 504.496 -1.57404 -0.626118 0
M  V30 5297 O 505.702 -1.72402 -0.517453 0
M  V30 5298 H 502.077 -0.749863 0.0566557 0
M  V30 5299 H 504.048 -2.78699 1.06628 0
M  V30 5300 C 502.797 -3.42653 -0.590264 0
M  V30 5301 H 502.12 -3.99753 0.0616129 0
M  V30 5302 H 503.56 -4.12778 -0.969054 0
M  V30 5303 C 502.019 -2.87112 -1.76262 0
M  V30 5304 O 502.549 -2.81995 -2.8608 0
M  V30 5305 N 500.755 -2.43934 -1.57938 0
M  V30 5306 H 500.302 -2.48296 -0.686078 0
M  V30 5307 H 500.26 -2.07123 -2.36532 0
M  V30 5308 N 504.032 -0.577932 -1.46621 0
M  V30 5309 C 505.278 -0.0617793 -2.02706 0
M  V30 5310 C 505.611 1.29294 -1.44903 0
M  V30 5311 O 504.886 1.8461 -0.61232 0
M  V30 5312 C 505.169 0.00911824 -3.60099 0
M  V30 5313 C 505.022 -1.37416 -4.28295 0
M  V30 5314 C 506.341 0.712159 -4.343 0
M  V30 5315 H 503.46 -0.0239246 -0.736612 0
M  V30 5316 H 506.102 -0.744211 -1.74818 0
M  V30 5317 H 504.252 0.590292 -3.83989 0
M  V30 5318 H 505.924 -2.00013 -4.15683 0
M  V30 5319 H 504.167 -1.94319 -3.87843 0
M  V30 5320 H 504.838 -1.27707 -5.37024 0
M  V30 5321 H 507.314 0.218486 -4.15526 0
M  V30 5322 H 506.19 0.730782 -5.44014 0
M  V30 5323 H 506.451 1.77251 -4.05012 0
M  V30 5324 N 505.51 1.54411 -0.315457 0
M  V30 5325 C 506.738 2.04833 0.291738 0
M  V30 5326 C 507.153 1.19203 1.46411 0
M  V30 5327 O 506.51 0.220867 1.81159 0
M  V30 5328 C 506.561 3.53969 0.73404 0
M  V30 5329 O 506.282 4.36346 -0.391682 0
M  V30 5330 C 507.783 4.2045 1.40489 0
M  V30 5331 H 505.003 0.668195 0.0612947 0
M  V30 5332 H 507.547 1.99276 -0.45929 0
M  V30 5333 H 505.702 3.5984 1.43506 0
M  V30 5334 H 506.116 5.24481 -0.0447088 0
M  V30 5335 H 507.59 5.26278 1.66539 0
M  V30 5336 H 508.067 3.71067 2.3496 0
M  V30 5337 H 508.673 4.18694 0.746662 0
M  V30 5338 N 506.988 0.0434614 1.5754 0
M  V30 5339 C 508.235 -0.632035 1.92384 0
M  V30 5340 C 508.563 -1.71304 0.921157 0
M  V30 5341 O 507.818 -1.95583 -0.067744 0
M  V30 5342 C 508.117 -1.2738 3.3393 0
M  V30 5343 C 507.783 -0.321757 4.49751 0
M  V30 5344 C 506.445 -0.0597611 4.81163 0
M  V30 5345 C 508.797 0.331158 5.20147 0
M  V30 5346 C 506.125 0.862715 5.80322 0
M  V30 5347 C 508.477 1.24178 6.20292 0
M  V30 5348 C 507.141 1.51252 6.50138 0
M  V30 5349 H 506.411 -0.231278 0.703983 0
M  V30 5350 H 509.058 0.108294 1.91194 0
M  V30 5351 H 507.363 -2.08921 3.3145 0
M  V30 5352 H 509.06 -1.80326 3.58167 0
M  V30 5353 H 505.65 -0.53614 4.25233 0
M  V30 5354 H 509.834 0.141826 4.96097 0
M  V30 5355 H 505.09 1.08003 6.01785 0
M  V30 5356 H 509.264 1.75381 6.73954 0
M  V30 5357 H 506.891 2.22897 7.26788 0
M  V30 5358 N 508.466 -1.55915 -0.229846 0
M  V30 5359 C 509.376 -1.94891 -1.30593 0
M  V30 5360 C 510.392 -0.851604 -1.51736 0
M  V30 5361 O 511.568 -1.15447 -1.65027 0
M  V30 5362 C 508.633 -2.25052 -2.63728 0
M  V30 5363 C 507.694 -3.48306 -2.5096 0
M  V30 5364 C 506.927 -3.77019 -3.77747 0
M  V30 5365 O 507.15 -3.07534 -4.80395 0
M  V30 5366 O 506.084 -4.70523 -3.75356 0
M  V30 5367 H 509.91 -2.86581 -1.00525 0
M  V30 5368 H 507.495 -1.43017 -0.432025 0
M  V30 5369 H 509.377 -2.45682 -3.42372 0
M  V30 5370 H 508.052 -1.36538 -2.93495 0
M  V30 5371 H 506.959 -3.32964 -1.70546 0
M  V30 5372 H 508.292 -4.37177 -2.26136 0
M  V30 5373 N 509.944 0.496216 -1.49584 0
M  V30 5374 C 511.192 1.24756 -1.58998 0
M  V30 5375 C 511.513 1.92968 -0.280775 0
M  V30 5376 O 510.783 1.82959 0.700198 0
M  V30 5377 H 509.363 0.463471 -0.585836 0
M  V30 5378 H 512.025 0.574678 -1.86235 0
M  V30 5379 H 511.121 2.00895 -2.38847 0
M  V30 5380 N 511.423 1.38739 0.74761 0
M  V30 5381 C 512.839 1.20067 1.05148 0
M  V30 5382 C 513.039 0.0534835 2.01429 0
M  V30 5383 O 512.095 -0.59886 2.45296 0
M  V30 5384 C 513.408 2.52957 1.62584 0
M  V30 5385 C 514.956 2.59692 1.74726 0
M  V30 5386 C 515.431 3.92772 2.35573 0
M  V30 5387 N 516.922 3.94343 2.42997 0
M  V30 5388 C 517.657 4.9408 2.90985 0
M  V30 5389 N 517.153 6.04214 3.38965 0
M  V30 5390 N 518.946 4.81466 2.9008 0
M  V30 5391 H 511.097 2.12121 0.108808 0
M  V30 5392 H 513.36 0.941491 0.110899 0
M  V30 5393 H 513.066 3.37389 0.993051 0
M  V30 5394 H 512.94 2.71779 2.61565 0
M  V30 5395 H 515.327 1.75651 2.3713 0
M  V30 5396 H 515.408 2.44731 0.744326 0
M  V30 5397 H 515.052 4.77238 1.738 0
M  V30 5398 H 514.982 4.05046 3.36519 0
M  V30 5399 H 517.473 3.14799 2.0907 0
M  V30 5400 H 517.786 6.76241 3.74056 0
M  V30 5401 H 516.131 6.07825 3.37007 0
M  V30 5402 H 519.322 3.94535 2.51912 0
M  V30 5403 H 519.495 5.59344 3.27166 0
M  V30 5404 N 512.901 -0.976442 1.23707 0
M  V30 5405 C 513.849 -2.09078 1.01927 0
M  V30 5406 C 514.843 -1.69345 -0.0430193 0
M  V30 5407 O 516.049 -1.79659 0.110814 0
M  V30 5408 H 512.424 -0.68398 0.312531 0
M  V30 5409 H 514.395 -2.24614 1.96447 0
M  V30 5410 C 513.144 -3.41919 0.631385 0
M  V30 5411 H 512.467 -3.72946 1.44053 0
M  V30 5412 H 513.907 -4.20817 0.518532 0
M  V30 5413 C 512.366 -3.30357 -0.660723 0
M  V30 5414 O 512.896 -3.63542 -1.70881 0
M  V30 5415 N 511.102 -2.83507 -0.638139 0
M  V30 5416 H 510.649 -2.567 0.215108 0
M  V30 5417 H 510.607 -2.76153 -1.50289 0
M  V30 5418 N 514.379 -1.04941 -1.1758 0
M  V30 5419 C 515.309 -0.669172 -2.23706 0
M  V30 5420 C 516.29 0.331835 -1.66832 0
M  V30 5421 O 517.475 0.209988 -1.93061 0
M  V30 5422 C 514.605 -0.0404889 -3.47276 0
M  V30 5423 C 513.559 -0.965983 -4.16957 0
M  V30 5424 C 512.885 -0.201312 -5.34321 0
M  V30 5425 C 514.185 -2.28902 -4.69469 0
M  V30 5426 H 515.879 -1.55639 -2.55767 0
M  V30 5427 H 513.425 -0.749793 -1.22939 0
M  V30 5428 H 515.378 0.237298 -4.20731 0
M  V30 5429 H 514.102 0.881658 -3.14475 0
M  V30 5430 H 512.761 -1.22829 -3.45411 0
M  V30 5431 H 512.409 0.723519 -4.97769 0
M  V30 5432 H 512.109 -0.817968 -5.81879 0
M  V30 5433 H 513.633 0.0692499 -6.10561 0
M  V30 5434 H 515.047 -2.07132 -5.34574 0
M  V30 5435 H 513.444 -2.85942 -5.27596 0
M  V30 5436 H 514.514 -2.92937 -3.86414 0
M  V30 5437 N 515.857 1.33968 -0.830081 0
M  V30 5438 C 517.082 2.02813 -0.433796 0
M  V30 5439 C 517.507 1.62076 0.954614 0
M  V30 5440 O 516.865 0.808955 1.62252 0
M  V30 5441 C 516.913 3.56348 -0.552115 0
M  V30 5442 O 516.017 4.10202 0.425191 0
M  V30 5443 H 515.358 0.639817 -0.177567 0
M  V30 5444 H 517.888 1.7106 -1.12248 0
M  V30 5445 H 517.898 4.05722 -0.430513 0
M  V30 5446 H 516.573 3.85344 -1.56471 0
M  V30 5447 H 515.15 3.71979 0.261878 0
M  V30 5448 N 517.335 0.585699 1.46312 0
M  V30 5449 C 518.582 0.0724211 2.0237 0
M  V30 5450 C 518.91 -1.28868 1.45683 0
M  V30 5451 O 518.165 -1.85853 0.612945 0
M  V30 5452 C 518.464 -0.0401312 3.57377 0
M  V30 5453 C 518.13 1.25376 4.33119 0
M  V30 5454 C 516.792 1.60824 4.5353 0
M  V30 5455 C 519.144 2.10987 4.76586 0
M  V30 5456 C 516.472 2.81676 5.14661 0
M  V30 5457 C 518.824 3.31068 5.39052 0
M  V30 5458 C 517.488 3.66794 5.5769 0
M  V30 5459 H 516.758 0.0265007 0.740526 0
M  V30 5460 H 519.405 0.762935 1.75646 0
M  V30 5461 H 517.71 -0.813791 3.83255 0
M  V30 5462 H 519.407 -0.453078 3.98432 0
M  V30 5463 H 515.997 0.967808 4.1753 0
M  V30 5464 H 520.181 1.84904 4.60569 0
M  V30 5465 H 515.437 3.0949 5.27282 0
M  V30 5466 H 519.611 3.97672 5.71691 0
M  V30 5467 H 517.238 4.60529 6.04828 0
M  V30 5468 N 518.813 -1.54241 0.323641 0
M  V30 5469 C 520.038 -2.05452 -0.283605 0
M  V30 5470 C 520.463 -1.19823 -1.44997 0
M  V30 5471 O 519.821 -0.207358 -1.8011 0
M  V30 5472 C 519.869 -3.53823 -0.695795 0
M  V30 5473 O 518.973 -3.71134 -1.79815 0
M  V30 5474 H 518.314 -0.662024 -0.0511917 0
M  V30 5475 H 520.844 -1.99079 0.472073 0
M  V30 5476 H 520.854 -3.96094 -0.978434 0
M  V30 5477 H 519.529 -4.15602 0.157287 0
M  V30 5478 H 518.106 -3.40768 -1.51431 0
M  V30 5479 N 520.291 -0.0518155 -1.57515 0
M  V30 5480 C 521.201 0.937539 -2.15052 0
M  V30 5481 C 522.217 1.34121 -1.10849 0
M  V30 5482 O 523.393 1.418 -1.4302 0
M  V30 5483 C 520.458 2.19379 -2.68466 0
M  V30 5484 C 519.519 1.84841 -3.87469 0
M  V30 5485 C 518.752 3.04477 -4.38326 0
M  V30 5486 O 518.975 4.17868 -3.88256 0
M  V30 5487 O 517.909 2.85453 -5.29906 0
M  V30 5488 H 521.735 0.478201 -2.99912 0
M  V30 5489 H 519.32 0.17012 -1.48428 0
M  V30 5490 H 521.202 2.93084 -3.02787 0
M  V30 5491 H 519.877 2.64449 -1.86677 0
M  V30 5492 H 518.784 1.08449 -3.58036 0
M  V30 5493 H 520.117 1.44569 -4.7049 0
M  V30 5494 N 521.769 1.56035 0.221574 0
M  V30 5495 C 523.046 1.69837 0.970301 0
M  V30 5496 C 523.426 0.599065 2.02421 0
M  V30 5497 O 522.774 -0.393929 2.25079 0
M  V30 5498 C 522.984 3.11148 1.58076 0
M  V30 5499 C 524.332 3.70555 2.07302 0
M  V30 5500 O 525.356 3.14109 1.6797 0
M  V30 5501 O 524.215 4.69562 2.79596 0
M  V30 5502 H 521.309 0.691727 0.453257 0
M  V30 5503 H 523.855 1.68353 0.213358 0
M  V30 5504 H 522.627 3.82617 0.819759 0
M  V30 5505 H 522.25 3.16749 2.40324 0
M  V30 5506 N 523.247 -0.488276 1.49845 0
M  V30 5507 C 524.495 -1.23911 1.59657 0
M  V30 5508 C 524.816 -1.92816 0.291005 0
M  V30 5509 O 524.086 -1.83328 -0.690485 0
M  V30 5510 H 522.666 -0.460357 0.588286 0
M  V30 5511 H 525.328 -0.564794 1.86537 0
M  V30 5512 H 524.424 -1.99625 2.39909 0
M  V30 5513 N 524.725 -1.39134 -0.740242 0
M  V30 5514 C 525.955 -1.39132 -1.52728 0
M  V30 5515 C 526.363 0.0173133 -1.89192 0
M  V30 5516 O 525.706 0.997715 -1.54244 0
M  V30 5517 C 525.768 -2.1952 -2.84695 0
M  V30 5518 C 525.432 -3.68203 -2.70695 0
M  V30 5519 C 526.429 -4.61401 -2.39593 0
M  V30 5520 C 524.114 -4.11724 -2.8773 0
M  V30 5521 C 526.108 -5.96102 -2.25701 0
M  V30 5522 C 523.795 -5.46503 -2.73456 0
M  V30 5523 C 524.793 -6.38506 -2.42486 0
M  V30 5524 O 524.481 -7.70803 -2.28295 0
M  V30 5525 H 524.213 -0.477263 -0.478744 0
M  V30 5526 H 526.767 -1.83504 -0.922799 0
M  V30 5527 H 524.997 -1.69888 -3.47383 0
M  V30 5528 H 526.686 -2.1176 -3.46284 0
M  V30 5529 H 527.452 -4.29079 -2.26088 0
M  V30 5530 H 523.331 -3.4045 -3.10829 0
M  V30 5531 H 526.875 -6.6788 -2.0145 0
M  V30 5532 H 522.772 -5.78417 -2.86538 0
M  V30 5533 H 523.54 -7.8147 -2.43405 0
M  V30 5534 N 526.204 0.969867 -1.24223 0
M  V30 5535 C 527.136 2.0669 -0.99055 0
M  V30 5536 C 528.149 1.62753 0.0392222 0
M  V30 5537 O 529.338 1.77403 -0.197561 0
M  V30 5538 C 526.438 3.35589 -0.472594 0
M  V30 5539 C 525.611 4.08444 -1.56499 0
M  V30 5540 C 524.67 5.15616 -1.05007 0
M  V30 5541 O 523.696 5.41911 -1.7413 0
M  V30 5542 N 524.898 5.80383 0.116641 0
M  V30 5543 H 527.663 2.28855 -1.93508 0
M  V30 5544 H 525.224 1.13733 -1.15223 0
M  V30 5545 H 527.216 4.04542 -0.112919 0
M  V30 5546 H 525.786 3.10311 0.377617 0
M  V30 5547 H 525.006 3.33798 -2.09696 0
M  V30 5548 H 526.294 4.53882 -2.29932 0
M  V30 5549 H 525.692 5.6142 0.694589 0
M  V30 5550 H 524.249 6.50462 0.417483 0
M  V30 5551 N 527.682 1.05563 1.17022 0
M  V30 5552 C 528.615 0.604197 2.20056 0
M  V30 5553 C 529.593 -0.369169 1.58354 0
M  V30 5554 O 530.777 -0.279898 1.8641 0
M  V30 5555 C 527.904 -0.115265 3.38504 0
M  V30 5556 C 526.95 0.813698 4.18666 0
M  V30 5557 S 527.783 2.30492 4.83357 0
M  V30 5558 C 528.939 1.59674 6.0519 0
M  V30 5559 H 529.172 1.47713 2.58008 0
M  V30 5560 H 526.705 0.867932 1.27696 0
M  V30 5561 H 528.663 -0.524162 4.0714 0
M  V30 5562 H 527.324 -0.964284 2.98932 0
M  V30 5563 H 526.517 0.256736 5.03346 0
M  V30 5564 H 526.119 1.16213 3.55486 0
M  V30 5565 H 528.411 0.898164 6.7152 0
M  V30 5566 H 529.354 2.42115 6.65422 0
M  V30 5567 H 529.762 1.08252 5.54023 0
M  V30 5568 N 529.16 -1.33526 0.837174 0
M  V30 5569 C 530.11 -2.2672 0.241269 0
M  V30 5570 C 531.094 -1.49183 -0.602756 0
M  V30 5571 O 532.286 -1.71052 -0.455002 0
M  V30 5572 C 529.415 -3.38294 -0.584125 0
M  V30 5573 C 528.501 -4.23231 0.271315 0
M  V30 5574 N 528.892 -4.87473 1.34922 0
M  V30 5575 C 527.19 -4.45962 0.0580589 0
M  V30 5576 C 527.891 -5.50685 1.87405 0
M  V30 5577 N 526.867 -5.30732 1.17578 0
M  V30 5578 H 530.669 -2.73903 1.06558 0
M  V30 5579 H 528.183 -1.47411 0.68145 0
M  V30 5580 H 530.18 -4.04044 -1.02731 0
M  V30 5581 H 528.84 -2.9266 -1.40643 0
M  V30 5582 H 529.851 -4.88077 1.7321 0
M  V30 5583 H 526.528 -4.11052 -0.730938 0
M  V30 5584 H 527.918 -6.11845 2.77661 0
M  V30 5585 N 530.638 -0.59345 -1.46 0
M  V30 5586 C 532.049 -0.169801 -1.85926 0
M  V30 5587 C 532.4 1.26984 -1.49565 0
M  V30 5588 O 531.525 1.96076 -0.915602 0
M  V30 5589 C 532.12 -0.301385 -3.37457 0
M  V30 5590 C 530.679 0.0674684 -3.7634 0
M  V30 5591 C 529.826 -0.632383 -2.69993 0
M  V30 5592 H 532.777 -0.801014 -1.37002 0
M  V30 5593 H 532.798 0.470331 -3.77582 0
M  V30 5594 H 532.31 -1.34927 -3.63891 0
M  V30 5595 H 530.411 1.11507 -3.55523 0
M  V30 5596 H 530.524 -0.316332 -4.78055 0
M  V30 5597 H 528.888 -0.0714961 -2.546 0
M  V30 5598 H 529.671 -1.68212 -2.99265 0
M  V30 5599 N 532.116 1.54067 -0.331816 0
M  V30 5600 C 533.063 2.24623 0.530372 0
M  V30 5601 C 534.033 1.24009 1.10503 0
M  V30 5602 O 535.218 1.52712 1.14384 0
M  V30 5603 C 532.358 3.01374 1.68129 0
M  V30 5604 C 531.471 4.16821 1.13507 0
M  V30 5605 C 530.606 4.81085 2.25234 0
M  V30 5606 C 529.645 5.88621 1.67903 0
M  V30 5607 N 528.782 6.46713 2.73326 0
M  V30 5608 H 533.622 2.97898 -0.0778607 0
M  V30 5609 H 531.159 1.47014 -0.0501965 0
M  V30 5610 H 533.117 3.44125 2.35868 0
M  V30 5611 H 531.747 2.30419 2.26069 0
M  V30 5612 H 530.799 3.78796 0.348979 0
M  V30 5613 H 532.111 4.94203 0.675633 0
M  V30 5614 H 531.265 5.26846 3.00862 0
M  V30 5615 H 530.004 4.03102 2.74518 0
M  V30 5616 H 529.009 5.42254 0.907773 0
M  V30 5617 H 530.234 6.68506 1.19487 0
M  V30 5618 H 528.18 5.71599 3.21886 0
M  V30 5619 H 528.097 7.19532 2.3197 0
M  V30 5620 H 529.365 6.97129 3.48758 0
M  V30 5621 N 533.594 0.0601682 1.57485 0
M  V30 5622 C 534.524 -0.90889 2.15085 0
M  V30 5623 C 535.505 -1.31838 1.07484 0
M  V30 5624 O 536.69 -1.3915 1.35466 0
M  V30 5625 C 533.82 -2.18059 2.7031 0
M  V30 5626 C 532.774 -1.91088 3.82974 0
M  V30 5627 C 532.1 -3.24789 4.24754 0
M  V30 5628 C 533.4 -1.22535 5.07723 0
M  V30 5629 H 535.094 -0.429093 2.96309 0
M  V30 5630 H 532.64 -0.204952 1.42534 0
M  V30 5631 H 534.593 -2.86258 3.09248 0
M  V30 5632 H 533.317 -2.6826 1.8629 0
M  V30 5633 H 531.976 -1.25297 3.44523 0
M  V30 5634 H 531.624 -3.72809 3.37672 0
M  V30 5635 H 531.324 -3.07538 5.00694 0
M  V30 5636 H 532.848 -3.94205 4.66299 0
M  V30 5637 H 534.262 -1.80783 5.4405 0
M  V30 5638 H 532.659 -1.1558 5.88864 0
M  V30 5639 H 533.729 -0.202692 4.84476 0
M  V30 5640 N 535.072 -1.5615 -0.213296 0
M  V30 5641 C 536.318 -1.79812 -0.937849 0
M  V30 5642 C 536.651 -0.631201 -1.83656 0
M  V30 5643 O 535.926 0.369165 -1.90964 0
M  V30 5644 C 536.209 -3.13613 -1.76972 0
M  V30 5645 C 536.062 -4.40766 -0.89695 0
M  V30 5646 C 537.381 -3.43931 -2.7459 0
M  V30 5647 H 534.5 -0.654138 -0.339518 0
M  V30 5648 H 537.142 -1.88877 -0.20623 0
M  V30 5649 H 535.292 -3.06015 -2.39347 0
M  V30 5650 H 536.964 -4.60392 -0.289306 0
M  V30 5651 H 535.207 -4.33326 -0.202756 0
M  V30 5652 H 535.878 -5.30843 -1.51358 0
M  V30 5653 H 538.354 -3.5171 -2.22349 0
M  V30 5654 H 537.23 -4.38706 -3.29891 0
M  V30 5655 H 537.491 -2.6651 -3.52739 0
M  V30 5656 N 536.55 0.480323 -1.50102 0
M  V30 5657 C 537.799 1.22979 -1.59872 0
M  V30 5658 C 538.112 1.93282 -0.30022 0
M  V30 5659 O 539.318 2.70086 -0.276709 0
M  V30 5660 C 537.774 2.23408 -2.82164 0
M  V30 5661 C 537.382 1.5895 -4.18854 0
M  V30 5662 C 539.126 2.99055 -3.01275 0
M  V30 5663 C 537.033 2.57611 -5.32344 0
M  V30 5664 H 535.963 0.462707 -0.59533 0
M  V30 5665 H 538.614 0.501291 -1.7652 0
M  V30 5666 H 536.996 2.99511 -2.59055 0
M  V30 5667 H 538.17 0.887 -4.52182 0
M  V30 5668 H 536.485 0.956191 -4.05273 0
M  V30 5669 H 539.082 3.72876 -3.83233 0
M  V30 5670 H 539.425 3.57897 -2.12639 0
M  V30 5671 H 539.958 2.30066 -3.24522 0
M  V30 5672 H 536.697 2.03521 -6.23105 0
M  V30 5673 H 536.217 3.26041 -5.03445 0
M  V30 5674 H 537.896 3.19627 -5.62537 0
M  V30 5675 N 538.028 1.39524 0.732853 0
M  V30 5676 C 539.277 1.36175 1.48792 0
M  V30 5677 C 539.59 -0.0388195 1.95561 0
M  V30 5678 O 540.796 -0.194899 2.708 0
M  V30 5679 C 539.252 2.39242 2.68871 0
M  V30 5680 C 538.86 3.85024 2.29042 0
M  V30 5681 C 540.604 2.44972 3.46683 0
M  V30 5682 C 538.511 4.79727 3.45856 0
M  V30 5683 H 537.441 0.506267 0.558757 0
M  V30 5684 H 540.092 1.65181 0.799226 0
M  V30 5685 H 538.474 2.0331 3.39825 0
M  V30 5686 H 539.648 4.30008 1.6562 0
M  V30 5687 H 537.963 3.82609 1.64316 0
M  V30 5688 H 540.56 3.12918 4.33574 0
M  V30 5689 H 540.903 1.4749 3.89297 0
M  V30 5690 H 541.436 2.79808 2.82759 0
M  V30 5691 H 538.175 5.78479 3.08289 0
M  V30 5692 H 537.695 4.39421 4.08251 0
M  V30 5693 H 539.374 4.98731 4.12161 0
M  V30 5694 N 539.506 -0.963266 1.24736 0
M  V30 5695 C 540.436 -2.07628 1.06832 0
M  V30 5696 C 541.417 -1.70088 -0.0200566 0
M  V30 5697 O 542.602 -1.93636 0.147854 0
M  V30 5698 C 539.732 -3.40636 0.677069 0
M  V30 5699 C 538.686 -3.9215 1.71471 0
M  V30 5700 C 538.012 -5.21553 1.1784 0
M  V30 5701 C 539.312 -4.19493 3.11164 0
M  V30 5702 H 541.006 -2.22864 1.9993 0
M  V30 5703 H 538.552 -1.07093 0.96266 0
M  V30 5704 H 540.505 -4.17941 0.538792 0
M  V30 5705 H 539.229 -3.25313 -0.289612 0
M  V30 5706 H 537.888 -3.17005 1.84128 0
M  V30 5707 H 537.536 -5.02593 0.202195 0
M  V30 5708 H 537.236 -5.56988 1.87185 0
M  V30 5709 H 538.76 -6.01463 1.05233 0
M  V30 5710 H 540.174 -4.87487 3.01711 0
M  V30 5711 H 538.571 -4.66165 3.77902 0
M  V30 5712 H 539.641 -3.26097 3.58871 0
M  V30 5713 N 540.985 -1.06182 -1.16461 0
M  V30 5714 C 541.915 -0.692861 -2.22984 0
M  V30 5715 C 542.896 0.314122 -1.67174 0
M  V30 5716 O 544.081 0.189499 -1.93273 0
M  V30 5717 C 541.211 -0.07732 -3.47214 0
M  V30 5718 C 540.165 -1.01015 -4.15909 0
M  V30 5719 C 539.491 -0.257973 -5.34077 0
M  V30 5720 C 540.791 -2.33868 -4.67015 0
M  V30 5721 H 542.485 -1.58343 -2.54102 0
M  V30 5722 H 540.031 -0.76279 -1.22137 0
M  V30 5723 H 541.984 0.19266 -4.20959 0
M  V30 5724 H 540.708 0.848254 -3.15392 0
M  V30 5725 H 539.367 -1.26486 -3.44088 0
M  V30 5726 H 539.015 0.670684 -4.98509 0
M  V30 5727 H 538.715 -0.879638 -5.80979 0
M  V30 5728 H 540.239 0.00448788 -6.106 0
M  V30 5729 H 541.653 -2.1279 -5.32347 0
M  V30 5730 H 540.05 -2.91522 -5.24533 0
M  V30 5731 H 541.12 -2.97019 -3.83286 0
M  V30 5732 N 542.463 1.3308 -0.844243 0
M  V30 5733 C 543.411 2.31028 -0.269954 0
M  V30 5734 C 544.405 1.58381 0.600997 0
M  V30 5735 O 545.611 1.73203 0.48996 0
M  V30 5736 H 541.986 0.748866 -0.0685782 0
M  V30 5737 H 543.957 2.76967 -1.11049 0
M  V30 5738 C 542.706 3.43549 0.535676 0
M  V30 5739 H 542.029 3.99604 -0.125202 0
M  V30 5740 H 543.469 4.14267 0.903262 0
M  V30 5741 C 541.928 2.8988 1.71672 0
M  V30 5742 O 542.458 2.86511 2.81557 0
M  V30 5743 N 540.664 2.46416 1.54037 0
M  V30 5744 H 540.211 2.49356 0.64649 0
M  V30 5745 H 540.169 2.1086 2.33207 0
M  V30 5746 N 543.941 0.601185 1.45683 0
M  V30 5747 C 544.888 -0.121396 2.30481 0
M  V30 5748 C 545.858 -0.866232 1.41724 0
M  V30 5749 O 547.043 -0.85324 1.70659 0
M  V30 5750 C 544.183 -1.11704 3.26521 0
M  V30 5751 C 543.296 -0.373741 4.3038 0
M  V30 5752 C 542.431 -1.35854 5.13534 0
M  V30 5753 C 541.47 -0.602689 6.09126 0
M  V30 5754 N 540.607 -1.53645 6.85082 0
M  V30 5755 H 545.447 0.607732 2.91737 0
M  V30 5756 H 542.984 0.311502 1.43764 0
M  V30 5757 H 544.942 -1.70735 3.80664 0
M  V30 5758 H 543.572 -1.81366 2.67032 0
M  V30 5759 H 542.624 0.331962 3.78949 0
M  V30 5760 H 543.936 0.2163 4.98331 0
M  V30 5761 H 543.09 -2.02111 5.72046 0
M  V30 5762 H 541.829 -1.98251 4.45587 0
M  V30 5763 H 540.834 0.0735482 5.49751 0
M  V30 5764 H 542.059 0.0161467 6.79098 0
M  V30 5765 H 540.005 -2.14819 6.1983 0
M  V30 5766 H 539.922 -0.999688 7.49361 0
M  V30 5767 H 541.19 -2.1888 7.48139 0
M  V30 5768 N 545.419 -1.53889 0.339982 0
M  V30 5769 C 546.329 -2.28604 -0.526988 0
M  V30 5770 C 547.345 -1.33578 -1.11503 0
M  V30 5771 O 548.521 -1.66612 -1.13148 0
M  V30 5772 C 545.586 -3.04164 -1.66389 0
M  V30 5773 C 544.647 -4.14809 -1.10599 0
M  V30 5774 C 543.88 -4.86756 -2.18871 0
M  V30 5775 O 544.103 -4.58343 -3.39526 0
M  V30 5776 O 543.037 -5.73289 -1.83366 0
M  V30 5777 H 546.863 -3.03594 0.0802707 0
M  V30 5778 H 544.448 -1.4903 0.105141 0
M  V30 5779 H 546.33 -3.51427 -2.32544 0
M  V30 5780 H 545.005 -2.32035 -2.25703 0
M  V30 5781 H 543.912 -3.71857 -0.409067 0
M  V30 5782 H 545.245 -4.89029 -0.557771 0
M  V30 5783 N 546.897 -0.0685191 -1.57451 0
M  V30 5784 C 548.313 0.288101 -1.56978 0
M  V30 5785 C 548.513 1.70262 -1.07765 0
M  V30 5786 O 547.569 2.4135 -0.742054 0
M  V30 5787 C 548.882 0.100745 -3.00531 0
M  V30 5788 C 550.43 0.170531 -3.12535 0
M  V30 5789 C 550.905 0.0114944 -4.57999 0
M  V30 5790 N 552.396 0.0672065 -4.63151 0
M  V30 5791 C 553.131 -0.0314813 -5.73391 0
M  V30 5792 N 552.627 -0.183503 -6.92557 0
M  V30 5793 N 554.42 0.0253489 -5.62094 0
M  V30 5794 H 546.571 -0.993026 -1.87757 0
M  V30 5795 H 548.834 -0.386981 -0.865419 0
M  V30 5796 H 548.54 -0.875197 -3.40636 0
M  V30 5797 H 548.414 0.854457 -3.67395 0
M  V30 5798 H 550.801 1.13696 -2.72318 0
M  V30 5799 H 550.882 -0.614229 -2.48316 0
M  V30 5800 H 550.526 -0.951684 -4.98904 0
M  V30 5801 H 550.456 0.815617 -5.20245 0
M  V30 5802 H 552.947 0.183246 -3.77455 0
M  V30 5803 H 553.26 -0.251041 -7.72392 0
M  V30 5804 H 551.605 -0.218822 -6.94655 0
M  V30 5805 H 554.796 0.142794 -4.67882 0
M  V30 5806 H 554.969 -0.0550166 -6.47977 0
M  V30 5807 N 548.375 1.56261 0.205012 0
M  V30 5808 C 549.322 1.93754 1.25411 0
M  V30 5809 C 550.292 0.796826 1.45739 0
M  V30 5810 O 551.477 1.05414 1.59036 0
M  V30 5811 C 548.617 2.27383 2.59598 0
M  V30 5812 C 547.73 3.5447 2.46931 0
M  V30 5813 C 546.865 3.77468 3.73753 0
M  V30 5814 C 545.904 4.98014 3.55877 0
M  V30 5815 N 545.041 5.17316 4.74688 0
M  V30 5816 H 549.881 2.83203 0.92737 0
M  V30 5817 H 547.418 1.40158 0.446574 0
M  V30 5818 H 549.376 2.44895 3.37761 0
M  V30 5819 H 548.006 1.41088 2.90335 0
M  V30 5820 H 547.058 3.45061 1.60116 0
M  V30 5821 H 548.37 4.42789 2.29651 0
M  V30 5822 H 547.524 3.95165 4.60358 0
M  V30 5823 H 546.263 2.87461 3.93976 0
M  V30 5824 H 545.268 4.80249 2.67657 0
M  V30 5825 H 546.493 5.8952 3.37109 0
M  V30 5826 H 544.439 4.30255 4.95194 0
M  V30 5827 H 544.356 5.99796 4.60197 0
M  V30 5828 H 545.624 5.39463 5.62672 0
M  V30 5829 N 549.853 -0.472356 1.50355 0
M  V30 5830 C 551.099 -1.22348 1.62488 0
M  V30 5831 C 551.454 -1.89711 0.320574 0
M  V30 5832 O 550.747 -1.79074 -0.68141 0
M  V30 5833 C 550.941 -2.29257 2.74182 0
M  V30 5834 C 550.77 -1.72383 4.15348 0
M  V30 5835 C 549.54 -1.52411 4.81766 0
M  V30 5836 C 551.738 -1.21949 4.99633 0
M  V30 5837 N 549.72 -0.907669 6.07153 0
M  V30 5838 C 551.091 -0.726191 6.15732 0
M  V30 5839 C 553.146 -1.10792 4.85417 0
M  V30 5840 C 551.849 -0.132322 7.19178 0
M  V30 5841 C 553.875 -0.52799 5.89038 0
M  V30 5842 C 553.237 -0.0450604 7.04386 0
M  V30 5843 H 549.336 -0.436631 0.648751 0
M  V30 5844 H 551.92 -0.525698 1.87469 0
M  V30 5845 H 550.091 -2.96464 2.50926 0
M  V30 5846 H 551.823 -2.9628 2.75681 0
M  V30 5847 H 548.578 -1.776 4.39039 0
M  V30 5848 H 549.002 -0.617897 6.74174 0
M  V30 5849 H 553.644 -1.46722 3.96525 0
M  V30 5850 H 551.362 0.239187 8.07746 0
M  V30 5851 H 554.948 -0.444046 5.80103 0
M  V30 5852 H 553.828 0.396659 7.83196 0
M  V30 5853 N 551.331 -1.39911 -0.725443 0
M  V30 5854 C 552.241 -1.41688 -1.8698 0
M  V30 5855 C 553.257 -0.310579 -1.71206 0
M  V30 5856 O 554.433 -0.55359 -1.93642 0
M  V30 5857 C 551.498 -1.26811 -3.22676 0
M  V30 5858 C 550.559 -2.47497 -3.50776 0
M  V30 5859 C 549.792 -2.3332 -4.79997 0
M  V30 5860 O 550.015 -1.34175 -5.54394 0
M  V30 5861 O 548.949 -3.22498 -5.08211 0
M  V30 5862 H 552.775 -2.38171 -1.88436 0
M  V30 5863 H 550.36 -1.21128 -0.874548 0
M  V30 5864 H 552.242 -1.20684 -4.03749 0
M  V30 5865 H 550.917 -0.334289 -3.21969 0
M  V30 5866 H 549.824 -2.59201 -2.69751 0
M  V30 5867 H 551.157 -3.39606 -3.5627 0
M  V30 5868 N 552.809 0.956637 -1.25245 0
M  V30 5869 C 554.225 1.22733 -1.02023 0
M  V30 5870 C 554.425 1.99761 0.264186 0
M  V30 5871 O 553.481 2.32814 0.977436 0
M  V30 5872 C 554.794 2.00367 -2.24217 0
M  V30 5873 C 556.342 2.13418 -2.28958 0
M  V30 5874 C 556.817 2.9445 -3.50803 0
M  V30 5875 N 558.308 3.02029 -3.51187 0
M  V30 5876 C 559.043 3.65116 -4.42129 0
M  V30 5877 N 558.539 4.2983 -5.43339 0
M  V30 5878 N 560.332 3.62237 -4.29815 0
M  V30 5879 H 552.483 0.441282 -2.07765 0
M  V30 5880 H 554.746 0.257686 -0.912306 0
M  V30 5881 H 554.452 1.51165 -3.17556 0
M  V30 5882 H 554.326 3.01077 -2.27228 0
M  V30 5883 H 556.713 2.61819 -1.36143 0
M  V30 5884 H 556.794 1.1202 -2.29968 0
M  V30 5885 H 556.438 2.46741 -4.43939 0
M  V30 5886 H 556.368 3.9607 -3.47039 0
M  V30 5887 H 558.859 2.56007 -2.77973 0
M  V30 5888 H 559.172 4.75819 -6.08947 0
M  V30 5889 H 557.517 4.28465 -5.47214 0
M  V30 5890 H 560.708 3.10863 -3.49974 0
M  V30 5891 H 560.881 4.11117 -5.00886 0
M  V30 5892 N 554.287 1.06798 1.15896 0
M  V30 5893 C 555.533 0.788934 1.86825 0
M  V30 5894 C 555.866 -0.683084 1.8179 0
M  V30 5895 O 555.141 -1.50086 1.23711 0
M  V30 5896 C 555.424 1.29065 3.36176 0
M  V30 5897 C 555.277 2.8268 3.49874 0
M  V30 5898 C 556.596 0.902655 4.30744 0
M  V30 5899 H 553.715 0.288066 0.678371 0
M  V30 5900 H 556.357 1.32479 1.36195 0
M  V30 5901 H 554.507 0.834806 3.79425 0
M  V30 5902 H 556.179 3.36511 3.15528 0
M  V30 5903 H 554.422 3.21157 2.91617 0
M  V30 5904 H 555.093 3.12852 4.54783 0
M  V30 5905 H 557.569 1.29535 3.95424 0
M  V30 5906 H 556.445 1.28111 5.3374 0
M  V30 5907 H 556.706 -0.191951 4.41683 0
M  V30 5908 N 555.766 -1.3263 0.851289 0
M  V30 5909 C 557.014 -1.96978 0.452128 0
M  V30 5910 C 557.335 -1.67715 -0.99482 0
M  V30 5911 O 556.605 -0.98259 -1.69476 0
M  V30 5912 H 555.185 -0.72873 0.164202 0
M  V30 5913 H 557.847 -1.61774 1.08698 0
M  V30 5914 H 556.943 -3.06387 0.594407 0
M  V30 5915 N 557.244 -0.608902 -1.45362 0
M  V30 5916 C 558.191 0.109172 -2.30542 0
M  V30 5917 C 559.161 0.858704 -1.42181 0
M  V30 5918 O 560.346 0.844178 -1.71109 0
M  V30 5919 C 557.486 1.09971 -3.27109 0
M  V30 5920 C 556.599 0.350911 -4.30572 0
M  V30 5921 C 555.734 1.33129 -5.14247 0
M  V30 5922 C 554.773 0.570377 -6.09437 0
M  V30 5923 N 553.91 1.5001 -6.85887 0
M  V30 5924 H 558.75 -0.623195 -2.91411 0
M  V30 5925 H 556.287 -0.319122 -1.43597 0
M  V30 5926 H 558.245 1.68714 -3.81564 0
M  V30 5927 H 556.875 1.79947 -2.67991 0
M  V30 5928 H 555.927 -0.352054 -3.78767 0
M  V30 5929 H 557.239 -0.242725 -4.98209 0
M  V30 5930 H 556.393 1.99074 -5.73109 0
M  V30 5931 H 555.132 1.95885 -4.46632 0
M  V30 5932 H 554.137 -0.102702 -5.49704 0
M  V30 5933 H 555.362 -0.0521607 -6.7908 0
M  V30 5934 H 553.308 2.11529 -6.2096 0
M  V30 5935 H 553.225 0.959934 -7.49881 0
M  V30 5936 H 554.493 2.14909 -7.49289 0
M  V30 5937 N 558.722 1.53707 -0.348139 0
M  V30 5938 C 559.968 2.01979 0.239986 0
M  V30 5939 C 560.323 1.23141 1.47831 0
M  V30 5940 O 559.616 0.311936 1.89044 0
M  V30 5941 C 559.81 3.52292 0.602061 0
M  V30 5942 C 559.639 4.45684 -0.599625 0
M  V30 5943 C 558.409 4.9304 -1.10635 0
M  V30 5944 C 560.607 4.93156 -1.4595 0
M  V30 5945 N 558.589 5.70394 -2.26988 0
M  V30 5946 C 559.96 5.6868 -2.46988 0
M  V30 5947 C 562.015 4.75257 -1.48441 0
M  V30 5948 C 560.718 6.28208 -3.50353 0
M  V30 5949 C 562.744 5.35639 -2.50689 0
M  V30 5950 C 562.106 6.11034 -3.50453 0
M  V30 5951 H 558.205 0.780335 0.0509992 0
M  V30 5952 H 560.789 1.88466 -0.488742 0
M  V30 5953 H 558.96 3.66002 1.29989 0
M  V30 5954 H 560.692 3.87304 1.17377 0
M  V30 5955 H 557.447 4.68784 -0.67371 0
M  V30 5956 H 557.871 6.13741 -2.85747 0
M  V30 5957 H 562.513 4.16508 -0.726707 0
M  V30 5958 H 560.231 6.86064 -4.27015 0
M  V30 5959 H 563.817 5.23693 -2.53449 0
M  V30 5960 H 562.697 6.56925 -4.28275 0
M  V30 5961 N 560.2 0.0768682 1.57412 0
M  V30 5962 C 561.147 -0.888577 2.13009 0
M  V30 5963 C 562.117 -1.29198 1.0439 0
M  V30 5964 O 563.302 -1.37694 1.3208 0
M  V30 5965 C 560.442 -2.14899 2.70023 0
M  V30 5966 C 559.555 -1.79777 3.92816 0
M  V30 5967 C 558.69 -3.00467 4.38056 0
M  V30 5968 C 557.729 -2.61385 5.53484 0
M  V30 5969 N 556.866 -3.74851 5.93659 0
M  V30 5970 H 561.706 -0.407593 2.95199 0
M  V30 5971 H 559.243 -0.189534 1.45874 0
M  V30 5972 H 561.201 -2.88688 3.0119 0
M  V30 5973 H 559.831 -2.60529 1.9059 0
M  V30 5974 H 558.883 -0.960301 3.68079 0
M  V30 5975 H 560.195 -1.47027 4.76639 0
M  V30 5976 H 559.349 -3.82529 4.7091 0
M  V30 5977 H 558.088 -3.36413 3.53097 0
M  V30 5978 H 557.093 -1.77746 5.20275 0
M  V30 5979 H 558.318 -2.26603 6.40178 0
M  V30 5980 H 556.264 -4.1055 5.11649 0
M  V30 5981 H 556.181 -3.45887 6.72234 0
M  V30 5982 H 557.449 -4.57477 6.31138 0
M  V30 5983 N 561.678 -1.56367 -0.196722 0
M  V30 5984 C 562.955 -1.71359 -0.943159 0
M  V30 5985 C 563.335 -0.631192 -2.01443 0
M  V30 5986 O 562.683 0.358071 -2.25677 0
M  V30 5987 C 562.893 -3.13623 -1.53106 0
M  V30 5988 C 564.241 -3.73806 -2.01381 0
M  V30 5989 O 565.265 -3.16742 -1.62951 0
M  V30 5990 O 564.124 -4.73951 -2.7209 0
M  V30 5991 H 561.218 -0.698851 -0.442195 0
M  V30 5992 H 563.764 -1.68672 -0.186547 0
M  V30 5993 H 562.536 -3.83873 -0.758785 0
M  V30 5994 H 562.159 -3.20532 -2.35255 0
M  V30 5995 N 563.156 0.464375 -1.50603 0
M  V30 5996 C 564.103 1.56152 -1.69956 0
M  V30 5997 C 565.073 1.57046 -0.54091 0
M  V30 5998 O 566.258 1.74473 -0.772258 0
M  V30 5999 C 563.398 2.94079 -1.80586 0
M  V30 6000 C 562.511 3.02923 -3.07996 0
M  V30 6001 C 561.646 4.31806 -3.09382 0
M  V30 6002 C 560.685 4.34417 -4.31218 0
M  V30 6003 N 559.822 5.54782 -4.30304 0
M  V30 6004 H 564.662 1.38955 -2.6362 0
M  V30 6005 H 562.199 0.675482 -1.30674 0
M  V30 6006 H 564.157 3.74073 -1.8473 0
M  V30 6007 H 562.787 3.09896 -0.903556 0
M  V30 6008 H 561.839 2.1576 -3.13292 0
M  V30 6009 H 563.151 3.00712 -3.97962 0
M  V30 6010 H 562.305 5.20153 -3.12292 0
M  V30 6011 H 561.044 4.36636 -2.17257 0
M  V30 6012 H 560.049 3.44467 -4.28512 0
M  V30 6013 H 561.274 4.31273 -5.24576 0
M  V30 6014 H 559.22 5.60384 -3.41037 0
M  V30 6015 H 559.137 5.54339 -5.14047 0
M  V30 6016 H 560.405 6.45235 -4.3737 0
M  V30 6017 N 564.634 1.40294 0.718013 0
M  V30 6018 C 565.859 1.41941 1.5122 0
M  V30 6019 C 566.284 0.0202371 1.88089 0
M  V30 6020 O 565.642 -0.971078 1.53101 0
M  V30 6021 C 565.69 2.3141 2.76554 0
M  V30 6022 O 564.794 1.75567 3.73162 0
M  V30 6023 H 564.135 0.482644 0.456016 0
M  V30 6024 H 566.665 1.84494 0.884478 0
M  V30 6025 H 566.675 2.46513 3.25108 0
M  V30 6026 H 565.35 3.33085 2.49053 0
M  V30 6027 H 563.927 1.69798 3.31999 0
M  V30 6028 N 566.112 -0.949982 1.2575 0
M  V30 6029 C 567.042 -2.06483 1.09028 0
M  V30 6030 C 568.023 -1.701 -0.00201532 0
M  V30 6031 O 569.208 -1.93469 0.168383 0
M  V30 6032 C 566.338 -3.39899 0.71316 0
M  V30 6033 C 565.292 -3.90309 1.75621 0
M  V30 6034 C 564.618 -5.20274 1.23365 0
M  V30 6035 C 565.918 -4.16169 3.15596 0
M  V30 6036 H 567.612 -2.20731 2.02283 0
M  V30 6037 H 565.158 -1.06066 0.973964 0
M  V30 6038 H 567.111 -4.17346 0.58309 0
M  V30 6039 H 565.835 -3.25602 -0.255091 0
M  V30 6040 H 564.494 -3.15035 1.8748 0
M  V30 6041 H 564.142 -5.02351 0.255491 0
M  V30 6042 H 563.842 -5.54971 1.93082 0
M  V30 6043 H 565.366 -6.00314 1.11607 0
M  V30 6044 H 566.78 -4.84259 3.06864 0
M  V30 6045 H 565.177 -4.62131 3.82825 0
M  V30 6046 H 566.247 -3.22273 3.6231 0
M  V30 6047 N 567.59 -1.07411 -1.15328 0
M  V30 6048 C 568.522 -0.652924 -2.19703 0
M  V30 6049 C 569.535 0.294869 -1.60107 0
M  V30 6050 O 570.724 0.0840932 -1.78302 0
M  V30 6051 C 567.824 0.061434 -3.38844 0
M  V30 6052 C 566.997 -0.902696 -4.27984 0
M  V30 6053 C 566.056 -0.225521 -5.25717 0
M  V30 6054 O 565.082 -0.86676 -5.62562 0
M  V30 6055 N 566.284 1.02858 -5.71315 0
M  V30 6056 H 569.049 -1.55081 -2.56457 0
M  V30 6057 H 566.61 -0.958883 -1.30449 0
M  V30 6058 H 568.602 0.525145 -4.01278 0
M  V30 6059 H 567.172 0.861269 -3.00501 0
M  V30 6060 H 566.392 -1.54551 -3.6264 0
M  V30 6061 H 567.68 -1.55636 -4.84412 0
M  V30 6062 H 567.078 1.56948 -5.43492 0
M  V30 6063 H 565.635 1.43596 -6.35786 0
M  V30 6064 N 569.068 1.32177 -0.85831 0
M  V30 6065 C 570.001 2.26823 -0.25035 0
M  V30 6066 C 570.979 1.50571 0.61378 0
M  V30 6067 O 572.163 1.79682 0.569777 0
M  V30 6068 C 569.29 3.32472 0.646556 0
M  V30 6069 C 568.336 4.26255 -0.144675 0
M  V30 6070 S 569.169 5.13608 -1.5155 0
M  V30 6071 C 570.325 6.22778 -0.624408 0
M  V30 6072 H 570.558 2.7804 -1.05267 0
M  V30 6073 H 568.091 1.39764 -0.656152 0
M  V30 6074 H 570.049 3.93817 1.15837 0
M  V30 6075 H 568.71 2.80031 1.42272 0
M  V30 6076 H 567.903 5.01114 0.538613 0
M  V30 6077 H 567.505 3.69346 -0.588198 0
M  V30 6078 H 569.797 6.77287 0.169846 0
M  V30 6079 H 570.74 6.95233 -1.34376 0
M  V30 6080 H 571.148 5.64156 -0.197128 0
M  V30 6081 N 570.547 0.616602 1.45037 0
M  V30 6082 C 571.494 -0.0969439 2.30596 0
M  V30 6083 C 572.464 -0.851151 1.42635 0
M  V30 6084 O 573.649 -0.835092 1.71554 0
M  V30 6085 C 570.789 -1.08234 3.27688 0
M  V30 6086 C 569.902 -0.328072 4.30752 0
M  V30 6087 C 569.037 -1.30399 5.14946 0
M  V30 6088 C 568.076 -0.538049 6.09731 0
M  V30 6089 N 567.213 -1.46371 6.86673 0
M  V30 6090 H 572.053 0.63864 2.91076 0
M  V30 6091 H 569.59 0.326733 1.43425 0
M  V30 6092 H 571.548 -1.66688 3.82454 0
M  V30 6093 H 570.178 -1.78523 2.68941 0
M  V30 6094 H 569.23 0.372136 3.78575 0
M  V30 6095 H 570.542 0.269142 4.98073 0
M  V30 6096 H 569.696 -1.96032 5.74157 0
M  V30 6097 H 568.435 -1.93514 4.47665 0
M  V30 6098 H 567.44 0.131852 5.49642 0
M  V30 6099 H 568.665 0.0881732 6.79043 0
M  V30 6100 H 566.611 -2.08233 6.22073 0
M  V30 6101 H 566.528 -0.920152 7.50379 0
M  V30 6102 H 567.796 -2.10932 7.50418 0
M  V30 6103 N 572.025 -1.5352 0.356285 0
M  V30 6104 C 573.255 -2.05236 -0.236983 0
M  V30 6105 C 573.663 -1.23016 -1.43749 0
M  V30 6106 O 573.006 -0.2615 -1.81829 0
M  V30 6107 C 573.068 -3.52549 -0.7035 0
M  V30 6108 C 572.732 -4.55425 0.379059 0
M  V30 6109 C 573.729 -5.0524 1.22592 0
M  V30 6110 C 571.414 -4.99425 0.536638 0
M  V30 6111 C 573.408 -5.97647 2.21578 0
M  V30 6112 C 571.095 -5.9164 1.52988 0
M  V30 6113 C 572.093 -6.4064 2.3679 0
M  V30 6114 O 571.781 -7.31039 3.34421 0
M  V30 6115 H 571.513 -0.674346 -0.047254 0
M  V30 6116 H 574.067 -1.98962 0.510238 0
M  V30 6117 H 572.297 -3.56331 -1.50217 0
M  V30 6118 H 573.986 -3.87171 -1.21873 0
M  V30 6119 H 574.752 -4.72002 1.11532 0
M  V30 6120 H 570.631 -4.60879 -0.105834 0
M  V30 6121 H 574.175 -6.35816 2.87025 0
M  V30 6122 H 570.072 -6.24293 1.64099 0
M  V30 6123 H 570.84 -7.49009 3.30041 0
M  V30 6124 N 573.503 -0.0852151 -1.57369 0
M  V30 6125 C 574.733 0.588605 -1.98038 0
M  V30 6126 C 575.141 1.62869 -0.962817 0
M  V30 6127 O 574.484 1.83611 0.057134 0
M  V30 6128 C 574.546 1.30303 -3.35054 0
M  V30 6129 C 574.21 0.414855 -4.55113 0
M  V30 6130 C 575.207 -0.333011 -5.18832 0
M  V30 6131 C 572.892 0.335804 -5.01176 0
M  V30 6132 C 574.886 -1.14801 -6.26976 0
M  V30 6133 C 572.573 -0.482857 -6.09189 0
M  V30 6134 C 573.571 -1.22342 -6.71953 0
M  V30 6135 O 573.259 -2.02855 -7.77885 0
M  V30 6136 H 572.991 0.163249 -0.655992 0
M  V30 6137 H 575.545 -0.1582 -2.0479 0
M  V30 6138 H 573.775 2.0962 -3.24956 0
M  V30 6139 H 575.464 1.87041 -3.60237 0
M  V30 6140 H 576.23 -0.281611 -4.84182 0
M  V30 6141 H 572.109 0.901869 -4.52092 0
M  V30 6142 H 575.653 -1.72654 -6.75897 0
M  V30 6143 H 571.55 -0.535773 -6.43273 0
M  V30 6144 H 572.318 -1.95432 -7.94826 0
M  V30 6145 N 574.981 1.5647 0.188427 0
M  V30 6146 C 576.227 1.81281 0.909124 0
M  V30 6147 C 576.56 0.66034 1.82628 0
M  V30 6148 O 575.835 -0.338737 1.91528 0
M  V30 6149 C 576.118 3.16388 1.7196 0
M  V30 6150 C 575.971 4.42137 0.826714 0
M  V30 6151 C 577.29 3.48256 2.69083 0
M  V30 6152 H 574.409 0.659457 0.329068 0
M  V30 6153 H 577.051 1.89182 0.176156 0
M  V30 6154 H 575.201 3.09784 2.34448 0
M  V30 6155 H 576.873 4.60794 0.216025 0
M  V30 6156 H 575.116 4.33594 0.133792 0
M  V30 6157 H 575.787 5.33184 1.42893 0
M  V30 6158 H 578.263 3.55203 2.16726 0
M  V30 6159 H 577.139 4.43899 3.2287 0
M  V30 6160 H 577.4 2.72088 3.48455 0
M  V30 6161 N 576.459 -0.456382 1.50847 0
M  V30 6162 C 577.705 -1.20618 1.63777 0
M  V30 6163 C 578.06 -1.8936 0.340677 0
M  V30 6164 O 577.353 -1.79786 -0.662378 0
M  V30 6165 C 577.547 -2.26336 2.76599 0
M  V30 6166 C 577.376 -1.67968 4.17153 0
M  V30 6167 C 576.146 -1.47293 4.83356 0
M  V30 6168 C 578.344 -1.16643 5.00898 0
M  V30 6169 N 576.326 -0.843222 6.08081 0
M  V30 6170 C 577.697 -0.660843 6.16468 0
M  V30 6171 C 579.752 -1.05637 4.86565 0
M  V30 6172 C 578.455 -0.0560365 7.19278 0
M  V30 6173 C 580.481 -0.465485 5.89565 0
M  V30 6174 C 579.843 0.0296516 7.04394 0
M  V30 6175 H 575.942 -0.429725 0.653345 0
M  V30 6176 H 578.526 -0.505784 1.88016 0
M  V30 6177 H 576.697 -2.93785 2.54056 0
M  V30 6178 H 578.429 -2.9334 2.78808 0
M  V30 6179 H 575.184 -1.72934 4.40898 0
M  V30 6180 H 575.608 -0.546357 6.74792 0
M  V30 6181 H 580.25 -1.42508 3.98059 0
M  V30 6182 H 577.968 0.324845 8.07447 0
M  V30 6183 H 581.554 -0.382493 5.80541 0
M  V30 6184 H 580.434 0.479705 7.82731 0
M  V30 6185 N 577.937 -1.40673 -0.710563 0
M  V30 6186 C 579.348 -1.34975 -1.28991 0
M  V30 6187 C 579.699 -0.0256272 -1.96183 0
M  V30 6188 O 578.824 0.876339 -1.97862 0
M  V30 6189 C 579.419 -2.44467 -2.34567 0
M  V30 6190 C 577.978 -2.42213 -2.88114 0
M  V30 6191 C 577.125 -2.25085 -1.61963 0
M  V30 6192 H 580.076 -1.50406 -0.506343 0
M  V30 6193 H 580.097 -2.12663 -3.15523 0
M  V30 6194 H 579.609 -3.40825 -1.85634 0
M  V30 6195 H 577.71 -1.49568 -3.41263 0
M  V30 6196 H 577.823 -3.37983 -3.39565 0
M  V30 6197 H 576.187 -1.72691 -1.87216 0
M  V30 6198 H 576.97 -3.23449 -1.15047 0
M  V30 6199 N 579.415 0.9433 -1.26252 0
M  V30 6200 C 580.831 1.21644 -1.03319 0
M  V30 6201 C 581.031 2.0003 0.242983 0
M  V30 6202 O 580.087 2.33838 0.952688 0
M  V30 6203 C 581.4 1.97978 -2.2633 0
M  V30 6204 C 582.948 2.10978 -2.31209 0
M  V30 6205 C 583.423 2.90713 -3.53907 0
M  V30 6206 N 584.914 2.98287 -3.54371 0
M  V30 6207 C 585.649 3.60406 -4.45976 0
M  V30 6208 N 585.145 4.24043 -5.47868 0
M  V30 6209 N 586.938 3.57658 -4.33633 0
M  V30 6210 H 579.089 0.419221 -2.08222 0
M  V30 6211 H 581.352 0.247995 -0.914988 0
M  V30 6212 H 581.058 1.47788 -3.19142 0
M  V30 6213 H 580.932 2.9865 -2.30408 0
M  V30 6214 H 583.319 2.6036 -1.38913 0
M  V30 6215 H 583.4 1.09575 -2.31143 0
M  V30 6216 H 583.044 2.42018 -4.46531 0
M  V30 6217 H 582.974 3.92367 -3.5122 0
M  V30 6218 H 585.465 2.53044 -2.80673 0
M  V30 6219 H 585.778 4.69334 -6.13959 0
M  V30 6220 H 584.123 4.22637 -5.51728 0
M  V30 6221 H 587.314 3.07134 -3.53251 0
M  V30 6222 H 587.487 4.05782 -5.05218 0
M  V30 6223 N 580.893 1.08022 1.14757 0
M  V30 6224 C 581.826 0.650738 2.18725 0
M  V30 6225 C 582.804 -0.335496 1.59101 0
M  V30 6226 O 583.988 -0.240295 1.86962 0
M  V30 6227 C 581.115 -0.0434377 3.38672 0
M  V30 6228 C 580.161 0.90232 4.16846 0
M  V30 6229 S 580.994 2.40693 4.78359 0
M  V30 6230 C 582.15 1.72475 6.01667 0
M  V30 6231 H 582.383 1.53152 2.54817 0
M  V30 6232 H 579.916 0.894823 1.25826 0
M  V30 6233 H 581.874 -0.437684 4.0816 0
M  V30 6234 H 580.535 -0.900659 3.0091 0
M  V30 6235 H 579.728 0.363445 5.02688 0
M  V30 6236 H 579.33 1.23728 3.52941 0
M  V30 6237 H 581.622 1.0404 6.69464 0
M  V30 6238 H 582.565 2.56175 6.60136 0
M  V30 6239 H 582.973 1.19979 5.51602 0
M  V30 6240 N 582.371 -1.3172 0.865308 0
M  V30 6241 C 583.611 -1.98675 0.480365 0
M  V30 6242 C 583.975 -1.66929 -0.948621 0
M  V30 6243 O 585.176 -2.27059 -1.43867 0
M  V30 6244 C 583.447 -3.49972 0.724858 0
M  V30 6245 S 585.006 -4.36598 0.439078 0
M  V30 6246 H 581.824 -0.687967 0.179506 0
M  V30 6247 H 584.426 -1.60215 1.12033 0
M  V30 6248 H 583.13 -3.70567 1.76375 0
M  V30 6249 H 582.661 -3.93335 0.0717173 0
M  V30 6250 H 584.676 -4.90792 -0.730564 0
M  V30 6251 N 583.85 -0.624285 -1.44708 0
M  V30 6252 C 585.26 -0.2092 -1.85524 0
M  V30 6253 C 585.611 1.23783 -1.52225 0
M  V30 6254 O 584.736 1.94089 -0.956986 0
M  V30 6255 C 585.332 -0.372897 -3.36742 0
M  V30 6256 C 583.891 -0.012374 -3.76398 0
M  V30 6257 C 583.038 -0.68951 -2.68591 0
M  V30 6258 H 585.989 -0.829894 -1.35272 0
M  V30 6259 H 586.01 0.390134 -3.78495 0
M  V30 6260 H 585.522 -1.42615 -3.60947 0
M  V30 6261 H 583.623 1.03941 -3.57809 0
M  V30 6262 H 583.736 -0.417663 -4.77276 0
M  V30 6263 H 582.1 -0.125484 -2.54391 0
M  V30 6264 H 582.883 -1.74522 -2.9563 0
M  V30 6265 N 585.328 1.53329 -0.364422 0
M  V30 6266 C 586.238 2.29414 0.490552 0
M  V30 6267 C 587.254 1.35335 1.09363 0
M  V30 6268 O 588.43 1.68391 1.10483 0
M  V30 6269 C 585.495 3.06772 1.61529 0
M  V30 6270 C 584.556 4.16516 1.03986 0
M  V30 6271 C 583.789 4.90176 2.111 0
M  V30 6272 O 584.012 4.63687 3.32191 0
M  V30 6273 O 582.946 5.76134 1.74222 0
M  V30 6274 H 586.772 3.03428 -0.12856 0
M  V30 6275 H 584.357 1.48843 -0.128837 0
M  V30 6276 H 586.239 3.55082 2.26924 0
M  V30 6277 H 584.914 2.35596 2.21983 0
M  V30 6278 H 583.821 3.7246 0.349856 0
M  V30 6279 H 585.154 4.89855 0.4799 0
M  V30 6280 N 586.806 0.0935595 1.57322 0
M  V30 6281 C 588.034 -0.578934 1.98635 0
M  V30 6282 C 588.449 -1.61819 0.972626 0
M  V30 6283 O 587.806 -1.82461 -0.0379638 0
M  V30 6284 C 587.857 -1.22802 3.40003 0
M  V30 6285 O 587.578 -0.230334 4.37494 0
M  V30 6286 C 589.079 -1.98627 3.96311 0
M  V30 6287 H 586.299 -0.155324 0.652775 0
M  V30 6288 H 588.843 0.172393 2.03772 0
M  V30 6289 H 586.998 -1.93029 3.35885 0
M  V30 6290 H 587.412 -0.698649 5.19826 0
M  V30 6291 H 588.886 -2.39405 4.97382 0
M  V30 6292 H 589.363 -2.85151 3.34044 0
M  V30 6293 H 589.969 -1.3322 4.03897 0
M  V30 6294 N 588.284 -1.56567 -0.180126 0
M  V30 6295 C 589.194 -1.98947 -1.24327 0
M  V30 6296 C 590.21 -0.899446 -1.4895 0
M  V30 6297 O 591.386 -1.20639 -1.61271 0
M  V30 6298 C 588.451 -2.33328 -2.56435 0
M  V30 6299 C 587.512 -3.56114 -2.39752 0
M  V30 6300 C 586.745 -3.88845 -3.65561 0
M  V30 6301 O 586.968 -3.22662 -4.70368 0
M  V30 6302 O 585.902 -4.82226 -3.60197 0
M  V30 6303 H 589.728 -2.89634 -0.913565 0
M  V30 6304 H 587.313 -1.44319 -0.386306 0
M  V30 6305 H 589.195 -2.5645 -3.34382 0
M  V30 6306 H 587.87 -1.45806 -2.89002 0
M  V30 6307 H 586.777 -3.38221 -1.59866 0
M  V30 6308 H 588.11 -4.4415 -2.12113 0
M  V30 6309 N 589.762 0.448376 -1.51087 0
M  V30 6310 C 590.672 1.56882 -1.74428 0
M  V30 6311 C 591.688 1.62268 -0.62809 0
M  V30 6312 O 592.864 1.79716 -0.909075 0
M  V30 6313 C 589.929 2.92947 -1.85426 0
M  V30 6314 C 588.99 2.97766 -3.09247 0
M  V30 6315 C 588.223 4.27341 -3.19711 0
M  V30 6316 O 588.446 5.19112 -2.36387 0
M  V30 6317 O 587.38 4.38219 -4.12611 0
M  V30 6318 H 591.206 1.40104 -2.69452 0
M  V30 6319 H 588.791 0.630247 -1.35456 0
M  V30 6320 H 590.673 3.73719 -1.94709 0
M  V30 6321 H 589.348 3.09876 -0.935887 0
M  V30 6322 H 588.255 2.15989 -3.0545 0
M  V30 6323 H 589.588 2.8578 -4.00738 0
M  V30 6324 N 591.24 1.41047 0.703093 0
M  V30 6325 C 592.172 1.38228 1.82827 0
M  V30 6326 C 593.185 0.285637 1.60275 0
M  V30 6327 O 594.374 0.54685 1.69917 0
M  V30 6328 C 591.474 1.13136 3.19458 0
M  V30 6329 C 590.647 2.34695 3.69103 0
M  V30 6330 C 589.706 2.05574 4.84382 0
M  V30 6331 O 588.732 2.78549 4.96386 0
M  V30 6332 N 589.934 1.04135 5.71083 0
M  V30 6333 H 592.699 2.35203 1.85741 0
M  V30 6334 H 590.26 1.35562 0.885125 0
M  V30 6335 H 592.252 0.916183 3.94193 0
M  V30 6336 H 590.822 0.247836 3.11616 0
M  V30 6337 H 590.042 2.71963 2.85359 0
M  V30 6338 H 591.33 3.15705 3.99009 0
M  V30 6339 H 590.728 0.43722 5.64008 0
M  V30 6340 H 589.285 0.886078 6.45749 0
M  V30 6341 N 592.718 -0.936591 1.26751 0
M  V30 6342 C 593.628 -2.06949 1.10496 0
M  V30 6343 C 594.644 -1.7396 0.037271 0
M  V30 6344 O 595.82 -1.99941 0.241944 0
M  V30 6345 C 592.885 -3.38612 0.744491 0
M  V30 6346 C 591.946 -3.85355 1.89209 0
M  V30 6347 C 591.179 -5.10735 1.54873 0
M  V30 6348 O 591.402 -5.68602 0.452546 0
M  V30 6349 O 590.336 -5.52632 2.38499 0
M  V30 6350 H 594.162 -2.23571 2.05547 0
M  V30 6351 H 591.747 -1.05428 1.05855 0
M  V30 6352 H 593.629 -4.17711 0.556396 0
M  V30 6353 H 592.304 -3.23218 -0.176582 0
M  V30 6354 H 591.211 -3.07182 2.13518 0
M  V30 6355 H 592.544 -4.05277 2.79305 0
M  V30 6356 N 594.196 -1.08629 -1.14182 0
M  V30 6357 C 595.473 -0.73002 -1.81466 0
M  V30 6358 C 595.853 0.785996 -1.95922 0
M  V30 6359 O 595.201 1.70535 -1.52086 0
M  V30 6360 C 595.411 -1.45957 -3.17014 0
M  V30 6361 C 596.759 -1.62008 -3.92477 0
M  V30 6362 O 597.783 -1.42141 -3.26611 0
M  V30 6363 O 596.642 -1.94806 -5.106 0
M  V30 6364 H 593.736 -0.261307 -0.784632 0
M  V30 6365 H 596.282 -1.188 -1.2118 0
M  V30 6366 H 595.054 -2.49221 -3.01669 0
M  V30 6367 H 594.677 -0.993222 -3.84995 0
M  V30 6368 N 595.674 1.31259 -0.872281 0
M  V30 6369 C 596.951 1.91362 -0.404943 0
M  V30 6370 C 597.331 1.79362 1.11321 0
M  V30 6371 O 596.679 1.20277 1.94283 0
M  V30 6372 C 596.889 3.3749 -0.888893 0
M  V30 6373 C 598.237 4.14593 -0.916384 0
M  V30 6374 O 599.261 3.46282 -0.834701 0
M  V30 6375 O 598.12 5.3661 -1.03498 0
M  V30 6376 H 595.214 0.818016 -0.121569 0
M  V30 6377 H 597.76 1.39912 -0.960346 0
M  V30 6378 H 596.532 3.40249 -1.93251 0
M  V30 6379 H 596.155 3.96375 -0.311932 0
M  V30 6380 N 597.152 0.631951 1.44375 0
M  V30 6381 C 598.102 -0.0943862 2.27805 0
M  V30 6382 C 599.086 -0.815359 1.38711 0
M  V30 6383 O 600.278 -0.701331 1.62513 0
M  V30 6384 C 597.407 -1.07472 3.26044 0
M  V30 6385 C 596.493 -0.353329 4.22626 0
M  V30 6386 N 596.884 0.618512 5.02004 0
M  V30 6387 C 595.182 -0.597662 4.41977 0
M  V30 6388 C 595.883 1.0448 5.7224 0
M  V30 6389 N 594.859 0.383413 5.42246 0
M  V30 6390 H 598.661 0.651672 2.86584 0
M  V30 6391 H 596.175 0.45752 1.55822 0
M  V30 6392 H 598.172 -1.60969 3.84571 0
M  V30 6393 H 596.832 -1.82107 2.68825 0
M  V30 6394 H 597.843 0.996356 5.08226 0
M  V30 6395 H 594.52 -1.32682 3.95856 0
M  V30 6396 H 595.91 1.84773 6.45994 0
M  V30 6397 N 598.631 -1.53133 0.372548 0
M  V30 6398 C 599.561 -2.28876 -0.462412 0
M  V30 6399 C 600.542 -1.31583 -1.07796 0
M  V30 6400 O 601.727 -1.60461 -1.09389 0
M  V30 6401 C 598.857 -3.08317 -1.59868 0
M  V30 6402 C 597.811 -4.13355 -1.11003 0
M  V30 6403 C 597.137 -4.8092 -2.33708 0
M  V30 6404 C 598.437 -5.21955 -0.18983 0
M  V30 6405 H 600.131 -2.9892 0.169511 0
M  V30 6406 H 597.677 -1.43761 0.0829658 0
M  V30 6407 H 599.63 -3.60055 -2.18949 0
M  V30 6408 H 598.354 -2.35976 -2.25794 0
M  V30 6409 H 597.013 -3.62573 -0.541869 0
M  V30 6410 H 596.661 -4.05144 -2.98106 0
M  V30 6411 H 596.361 -5.51904 -2.01682 0
M  V30 6412 H 597.885 -5.35455 -2.93462 0
M  V30 6413 H 599.299 -5.69153 -0.688319 0
M  V30 6414 H 597.696 -6.00087 0.0398887 0
M  V30 6415 H 598.766 -4.78811 0.766057 0
M  V30 6416 N 600.109 -0.101901 -1.5727 0
M  V30 6417 C 601.334 0.571759 -1.99363 0
M  V30 6418 C 601.759 1.60507 -0.980768 0
M  V30 6419 O 601.117 1.81231 0.0498517 0
M  V30 6420 C 601.165 1.18996 -3.404 0
M  V30 6421 O 600.269 2.30572 -3.41922 0
M  V30 6422 H 599.61 0.144449 -0.648098 0
M  V30 6423 H 602.14 -0.185325 -2.03759 0
M  V30 6424 H 602.15 1.52962 -3.78241 0
M  V30 6425 H 600.825 0.432984 -4.1364 0
M  V30 6426 H 599.402 1.98173 -3.15883 0
M  V30 6427 N 601.587 1.56661 0.17182 0
M  V30 6428 C 602.836 1.81158 0.886831 0
M  V30 6429 C 603.149 0.679072 1.83434 0
M  V30 6430 O 604.355 0.808964 2.59168 0
M  V30 6431 C 602.811 3.20999 1.6275 0
M  V30 6432 C 602.419 4.42117 0.723652 0
M  V30 6433 C 604.163 3.5479 2.33076 0
M  V30 6434 C 602.07 5.7298 1.46452 0
M  V30 6435 H 601 0.675543 0.334899 0
M  V30 6436 H 603.651 1.82967 0.139765 0
M  V30 6437 H 602.033 3.13506 2.4193 0
M  V30 6438 H 603.207 4.60789 -0.0311485 0
M  V30 6439 H 601.522 4.16197 0.130063 0
M  V30 6440 H 604.119 4.49806 2.89099 0
M  V30 6441 H 604.462 2.79646 3.08389 0
M  V30 6442 H 604.995 3.63834 1.6084 0
M  V30 6443 H 601.734 6.51152 0.753729 0
M  V30 6444 H 601.254 5.58285 2.19266 0
M  V30 6445 H 602.933 6.14916 2.01214 0
M  V30 6446 N 603.065 -0.440357 1.51323 0
M  V30 6447 C 604.311 -1.19181 1.64085 0
M  V30 6448 C 604.644 -1.90936 0.354575 0
M  V30 6449 O 603.919 -1.8347 -0.645675 0
M  V30 6450 C 604.202 -2.2112 2.84215 0
M  V30 6451 C 604.055 -1.53468 4.22809 0
M  V30 6452 C 605.374 -3.22133 2.99864 0
M  V30 6453 H 602.493 -0.431924 0.597169 0
M  V30 6454 H 605.135 -0.481443 1.83799 0
M  V30 6455 H 603.285 -2.81703 2.67537 0
M  V30 6456 H 604.957 -0.962455 4.51148 0
M  V30 6457 H 603.2 -0.837086 4.25647 0
M  V30 6458 H 603.871 -2.27694 5.02852 0
M  V30 6459 H 606.347 -2.71601 3.15233 0
M  V30 6460 H 605.223 -3.90756 3.85488 0
M  V30 6461 H 605.484 -3.88061 2.11804 0
M  V30 6462 N 604.543 -1.41418 -0.695603 0
M  V30 6463 C 605.771 -1.4413 -1.48439 0
M  V30 6464 C 606.186 -0.0465698 -1.88743 0
M  V30 6465 O 605.543 0.934117 -1.56782 0
M  V30 6466 C 605.594 -2.34998 -2.74696 0
M  V30 6467 O 605.315 -3.69043 -2.36091 0
M  V30 6468 C 606.816 -2.46513 -3.68438 0
M  V30 6469 H 604.036 -0.490905 -0.457442 0
M  V30 6470 H 606.58 -1.85702 -0.856454 0
M  V30 6471 H 604.735 -1.96735 -3.33728 0
M  V30 6472 H 605.149 -4.17505 -3.17474 0
M  V30 6473 H 606.623 -3.1426 -4.53811 0
M  V30 6474 H 607.1 -1.49638 -4.12922 0
M  V30 6475 H 607.706 -2.85412 -3.1531 0
M  V30 6476 N 606.021 0.929856 -1.27246 0
M  V30 6477 C 606.951 2.04722 -1.12299 0
M  V30 6478 C 607.932 1.70082 -0.0250464 0
M  V30 6479 O 609.117 1.93176 -0.199141 0
M  V30 6480 C 606.247 3.38721 -0.767145 0
M  V30 6481 C 605.201 3.87466 -1.81808 0
M  V30 6482 C 604.527 5.18246 -1.31626 0
M  V30 6483 C 605.827 4.11095 -3.22177 0
M  V30 6484 H 607.521 2.17485 -2.05769 0
M  V30 6485 H 605.067 1.04503 -0.990715 0
M  V30 6486 H 607.02 4.16366 -0.649413 0
M  V30 6487 H 605.744 3.25967 0.203259 0
M  V30 6488 H 604.403 3.12012 -1.92468 0
M  V30 6489 H 604.051 5.01881 -0.335378 0
M  V30 6490 H 603.751 5.51829 -2.01887 0
M  V30 6491 H 605.275 5.98462 -1.21143 0
M  V30 6492 H 606.689 4.79316 -3.1453 0
M  V30 6493 H 605.086 4.55982 -3.90129 0
M  V30 6494 H 606.156 3.16468 -3.67391 0
M  V30 6495 N 607.499 1.09233 1.13605 0
M  V30 6496 C 608.409 0.741939 2.22559 0
M  V30 6497 C 609.425 -0.255236 1.72118 0
M  V30 6498 O 610.601 -0.0970747 2.01166 0
M  V30 6499 C 607.666 0.165595 3.46304 0
M  V30 6500 C 606.727 1.21846 4.11645 0
M  V30 6501 C 605.96 0.669526 5.29484 0
M  V30 6502 O 606.183 -0.508228 5.68131 0
M  V30 6503 O 605.117 1.42361 5.84822 0
M  V30 6504 H 608.943 1.65107 2.54899 0
M  V30 6505 H 606.528 0.866584 1.21699 0
M  V30 6506 H 608.41 -0.152592 4.21124 0
M  V30 6507 H 607.085 -0.716573 3.15669 0
M  V30 6508 H 605.992 1.58931 3.38662 0
M  V30 6509 H 607.325 2.07321 4.46407 0
M  V30 6510 N 608.977 -1.30795 0.87923 0
M  V30 6511 C 609.887 -2.32041 0.345565 0
M  V30 6512 C 610.903 -1.65103 -0.549265 0
M  V30 6513 O 612.079 -1.9645 -0.443763 0
M  V30 6514 C 609.144 -3.43944 -0.436245 0
M  V30 6515 C 608.205 -4.26521 0.48765 0
M  V30 6516 C 607.438 -5.33081 -0.256943 0
M  V30 6517 O 607.661 -5.50762 -1.48381 0
M  V30 6518 O 606.595 -6.00635 0.389985 0
M  V30 6519 H 610.421 -2.79627 1.18501 0
M  V30 6520 H 608.006 -1.3486 0.642885 0
M  V30 6521 H 609.888 -4.12128 -0.879119 0
M  V30 6522 H 608.563 -2.98504 -1.25208 0
M  V30 6523 H 607.47 -3.61057 0.979216 0
M  V30 6524 H 608.803 -4.75551 1.26933 0
M  V30 6525 N 610.455 -0.639598 -1.44038 0
M  V30 6526 C 611.418 0.0506628 -2.29144 0
M  V30 6527 C 612.418 0.764001 -1.41491 0
M  V30 6528 O 613.608 0.607309 -1.63271 0
M  V30 6529 C 610.74 1.0824 -3.2326 0
M  V30 6530 H 611.933 -0.697987 -2.91664 0
M  V30 6531 H 609.486 -0.400146 -1.51091 0
M  V30 6532 H 610.221 1.86075 -2.65606 0
M  V30 6533 H 610.006 0.574725 -3.87865 0
M  V30 6534 H 611.496 1.56487 -3.87171 0
M  V30 6535 N 611.933 1.52934 -0.380664 0
M  V30 6536 C 613.344 1.86457 0.0952684 0
M  V30 6537 C 613.695 1.3007 1.46889 0
M  V30 6538 O 612.82 0.628636 2.07068 0
M  V30 6539 C 613.415 3.38323 0.179648 0
M  V30 6540 C 611.974 3.71589 0.599858 0
M  V30 6541 C 611.121 2.76228 -0.243572 0
M  V30 6542 H 614.072 1.46966 -0.59888 0
M  V30 6543 H 614.093 3.67113 1.00042 0
M  V30 6544 H 613.605 3.79333 -0.820228 0
M  V30 6545 H 611.706 3.36144 1.60742 0
M  V30 6546 H 611.819 4.77715 0.364003 0
M  V30 6547 H 610.183 2.53045 0.289855 0
M  V30 6548 H 610.966 3.20074 -1.24127 0
M  V30 6549 N 613.412 0.11024 1.57214 0
M  V30 6550 C 614.659 -0.54987 1.94891 0
M  V30 6551 C 614.987 -1.67243 0.992984 0
M  V30 6552 O 614.242 -1.95694 0.0152703 0
M  V30 6553 C 614.541 -1.13102 3.39032 0
M  V30 6554 C 614.207 -0.130713 4.5071 0
M  V30 6555 C 612.869 0.14437 4.80983 0
M  V30 6556 C 615.221 0.551472 5.18274 0
M  V30 6557 C 612.549 1.10807 5.76141 0
M  V30 6558 C 614.901 1.50375 6.14467 0
M  V30 6559 C 613.565 1.78691 6.43138 0
M  V30 6560 H 612.835 -0.201212 0.713158 0
M  V30 6561 H 615.482 0.189288 1.90562 0
M  V30 6562 H 613.787 -1.94675 3.40013 0
M  V30 6563 H 615.484 -1.64973 3.65493 0
M  V30 6564 H 612.074 -0.355301 4.27125 0
M  V30 6565 H 616.258 0.35211 4.95049 0
M  V30 6566 H 611.514 1.3343 5.96663 0
M  V30 6567 H 615.688 2.03808 6.65909 0
M  V30 6568 H 613.315 2.53522 7.1668 0
M  V30 6569 N 614.89 -1.56749 -0.16351 0
M  V30 6570 C 616.136 -1.82704 -0.880168 0
M  V30 6571 C 616.469 -0.689311 -1.81555 0
M  V30 6572 O 615.744 0.308224 -1.92042 0
M  V30 6573 C 616.027 -3.19084 -1.66905 0
M  V30 6574 C 615.88 -4.43397 -0.756269 0
M  V30 6575 C 617.199 -3.52493 -2.63509 0
M  V30 6576 H 614.318 -0.664608 -0.318535 0
M  V30 6577 H 616.96 -1.89438 -0.146036 0
M  V30 6578 H 615.11 -3.13475 -2.2949 0
M  V30 6579 H 616.782 -4.61079 -0.14269 0
M  V30 6580 H 615.025 -4.33752 -0.0647944 0
M  V30 6581 H 615.696 -5.3539 -1.34393 0
M  V30 6582 H 618.172 -3.58606 -2.11047 0
M  V30 6583 H 617.048 -4.48979 -3.15767 0
M  V30 6584 H 617.309 -2.77597 -3.44082 0
M  V30 6585 N 616.368 0.432326 -1.51554 0
M  V30 6586 C 617.617 1.17831 -1.63703 0
M  V30 6587 C 617.93 1.92229 -0.36156 0
M  V30 6588 O 619.136 2.69069 -0.362495 0
M  V30 6589 C 617.592 2.14318 -2.89129 0
M  V30 6590 C 617.2 1.45544 -4.23699 0
M  V30 6591 C 618.944 2.89319 -3.10636 0
M  V30 6592 C 616.851 2.40545 -5.4027 0
M  V30 6593 H 615.781 0.443533 -0.60975 0
M  V30 6594 H 618.432 0.444878 -1.78026 0
M  V30 6595 H 616.814 2.91117 -2.68452 0
M  V30 6596 H 617.988 0.742693 -4.54775 0
M  V30 6597 H 616.303 0.826772 -4.0811 0
M  V30 6598 H 618.9 3.60495 -3.94902 0
M  V30 6599 H 619.243 3.50951 -2.23918 0
M  V30 6600 H 619.776 2.19625 -3.31677 0
M  V30 6601 H 616.515 1.83594 -6.29264 0
M  V30 6602 H 616.035 3.09859 -5.13563 0
M  V30 6603 H 617.714 3.01569 -5.72421 0
M  V30 6604 N 617.846 1.41785 0.688094 0
M  V30 6605 C 619.092 1.41753 1.4503 0
M  V30 6606 C 619.425 0.0290745 1.94178 0
M  V30 6607 O 618.7 -0.944456 1.7003 0
M  V30 6608 C 618.983 2.43069 2.65686 0
M  V30 6609 C 618.836 3.91053 2.22256 0
M  V30 6610 C 620.155 2.41543 3.67893 0
M  V30 6611 H 617.274 0.516202 0.526027 0
M  V30 6612 H 619.916 1.73111 0.783105 0
M  V30 6613 H 618.066 2.1646 3.2261 0
M  V30 6614 H 619.738 4.28594 1.70602 0
M  V30 6615 H 617.981 4.05559 1.53963 0
M  V30 6616 H 618.652 4.57501 3.08863 0
M  V30 6617 H 621.128 2.65175 3.20658 0
M  V30 6618 H 620.004 3.14434 4.49914 0
M  V30 6619 H 620.265 1.43666 4.18106 0
M  V30 6620 N 619.324 -0.923095 1.27737 0
M  V30 6621 C 620.234 -2.05765 1.12685 0
M  V30 6622 C 621.25 -1.73911 0.0557197 0
M  V30 6623 O 622.426 -1.99674 0.263137 0
M  V30 6624 C 619.491 -3.37804 0.780363 0
M  V30 6625 C 618.552 -3.83326 1.93286 0
M  V30 6626 C 617.785 -5.09064 1.60281 0
M  V30 6627 O 618.008 -5.6809 0.512828 0
M  V30 6628 O 616.942 -5.50071 2.44347 0
M  V30 6629 H 620.768 -2.21378 2.07907 0
M  V30 6630 H 618.353 -1.04299 1.06968 0
M  V30 6631 H 620.235 -4.17097 0.600668 0
M  V30 6632 H 618.91 -3.23387 -0.142291 0
M  V30 6633 H 617.817 -3.049 2.16764 0
M  V30 6634 H 619.15 -4.02292 2.83588 0
M  V30 6635 N 620.802 -1.09834 -1.13024 0
M  V30 6636 C 622.027 -0.85909 -1.88771 0
M  V30 6637 C 622.452 0.584402 -1.78791 0
M  V30 6638 O 621.81 1.41101 -1.13842 0
M  V30 6639 C 621.858 -1.30427 -3.36186 0
M  V30 6640 O 620.962 -0.465368 -4.09766 0
M  V30 6641 H 620.303 -0.310786 -0.586778 0
M  V30 6642 H 622.833 -1.46355 -1.42973 0
M  V30 6643 H 622.843 -1.2915 -3.8702 0
M  V30 6644 H 621.518 -2.3555 -3.42767 0
M  V30 6645 H 620.095 -0.542814 -3.68928 0
M  V30 6646 N 622.28 1.30327 -0.886154 0
M  V30 6647 C 623.526 1.96388 -0.505941 0
M  V30 6648 C 623.859 1.69784 0.942712 0
M  V30 6649 O 623.134 1.00322 1.6663 0
M  V30 6650 C 623.417 3.51488 -0.782826 0
M  V30 6651 C 623.27 3.87603 -2.28219 0
M  V30 6652 C 624.589 4.39331 -0.260128 0
M  V30 6653 H 621.708 0.713327 -0.185292 0
M  V30 6654 H 624.35 1.54178 -1.11036 0
M  V30 6655 H 622.5 3.87572 -0.268399 0
M  V30 6656 H 624.172 3.61537 -2.86512 0
M  V30 6657 H 622.415 3.3563 -2.74837 0
M  V30 6658 H 623.086 4.95806 -2.42653 0
M  V30 6659 H 625.562 4.10162 -0.700444 0
M  V30 6660 H 624.438 5.46769 -0.483179 0
M  V30 6661 H 624.699 4.34072 0.838674 0
M  V30 6662 N 623.758 0.647228 1.43697 0
M  V30 6663 C 625.035 0.0883758 1.954 0
M  V30 6664 C 625.415 -1.39006 1.58873 0
M  V30 6665 O 624.763 -2.11255 0.87083 0
M  V30 6666 C 624.973 0.328263 3.47453 0
M  V30 6667 C 626.321 0.230009 4.23977 0
M  V30 6668 O 627.345 0.260496 3.55246 0
M  V30 6669 O 626.204 0.148615 5.46298 0
M  V30 6670 H 623.298 -0.0130683 0.826897 0
M  V30 6671 H 625.844 0.72005 1.53666 0
M  V30 6672 H 624.616 1.3535 3.67146 0
M  V30 6673 H 624.239 -0.336772 3.96171 0
M  V30 6674 N 625.236 -1.5273 0.388769 0
M  V30 6675 C 626.647 -1.86505 -0.0853788 0
M  V30 6676 C 626.998 -1.30847 -1.46197 0
M  V30 6677 O 626.123 -0.639609 -2.06732 0
M  V30 6678 C 626.718 -3.38414 -0.161703 0
M  V30 6679 C 625.277 -3.71902 -0.580144 0
M  V30 6680 C 624.424 -2.76095 0.258218 0
M  V30 6681 H 627.375 -1.46647 0.606665 0
M  V30 6682 H 627.396 -3.67638 -0.980936 0
M  V30 6683 H 626.908 -3.78893 0.840333 0
M  V30 6684 H 625.009 -3.36992 -1.58957 0
M  V30 6685 H 625.122 -4.77902 -0.338663 0
M  V30 6686 H 623.486 -2.53195 -0.276432 0
M  V30 6687 H 624.269 -3.19411 1.25822 0
M  V30 6688 N 626.714 -0.118576 -1.57153 0
M  V30 6689 C 627.644 0.828436 -2.1831 0
M  V30 6690 C 628.625 1.27758 -1.12303 0
M  V30 6691 O 629.81 1.34026 -1.40537 0
M  V30 6692 C 626.94 2.07876 -2.78217 0
M  V30 6693 C 625.894 1.76742 -3.89803 0
M  V30 6694 C 625.22 3.08801 -4.36516 0
M  V30 6695 C 626.52 1.03606 -5.11921 0
M  V30 6696 H 628.214 0.318824 -2.97698 0
M  V30 6697 H 625.76 0.151911 -1.43196 0
M  V30 6698 H 627.713 2.74584 -3.19659 0
M  V30 6699 H 626.437 2.61161 -1.96118 0
M  V30 6700 H 625.096 1.12424 -3.48936 0
M  V30 6701 H 624.744 3.6002 -3.51276 0
M  V30 6702 H 624.444 2.88743 -5.11763 0
M  V30 6703 H 625.968 3.76627 -4.80608 0
M  V30 6704 H 627.382 1.60467 -5.50385 0
M  V30 6705 H 625.779 0.936454 -5.92748 0
M  V30 6706 H 626.849 0.0227421 -4.84895 0
M  V30 6707 N 628.193 1.56834 0.155195 0
M  V30 6708 C 629.418 1.87412 0.888337 0
M  V30 6709 C 629.843 0.70671 1.74319 0
M  V30 6710 O 629.201 -0.343892 1.78009 0
M  V30 6711 C 629.249 3.1652 1.72765 0
M  V30 6712 O 628.353 2.99877 2.83103 0
M  V30 6713 H 627.694 0.615983 0.247914 0
M  V30 6714 H 630.224 2.04061 0.148478 0
M  V30 6715 H 630.234 3.48334 2.12433 0
M  V30 6716 H 628.909 4.01094 1.09985 0
M  V30 6717 H 627.486 2.79453 2.46902 0
M  V30 6718 N 629.671 -0.424282 1.51781 0
M  V30 6719 C 630.919 -1.17028 1.64769 0
M  V30 6720 C 631.24 -1.91409 0.372523 0
M  V30 6721 O 630.51 -1.86091 -0.612108 0
M  V30 6722 H 629.09 -0.434992 0.607282 0
M  V30 6723 H 631.752 -0.485169 1.88765 0
M  V30 6724 H 630.848 -1.8927 2.4816 0
M  V30 6725 N 631.149 -1.42148 -0.680565 0
M  V30 6726 C 632.377 -1.45696 -1.46902 0
M  V30 6727 C 632.792 -0.0665858 -1.88683 0
M  V30 6728 O 632.149 0.917436 -1.57764 0
M  V30 6729 C 632.2 -2.37898 -2.72188 0
M  V30 6730 O 631.921 -3.71526 -2.32163 0
M  V30 6731 C 633.422 -2.50407 -3.65802 0
M  V30 6732 H 630.642 -0.495729 -0.45221 0
M  V30 6733 H 633.186 -1.866 -0.836709 0
M  V30 6734 H 631.341 -2.00263 -3.31622 0
M  V30 6735 H 631.755 -4.20849 -3.13027 0
M  V30 6736 H 633.229 -3.19056 -4.50452 0
M  V30 6737 H 633.706 -1.5401 -4.11312 0
M  V30 6738 H 634.312 -2.8874 -3.12265 0
M  V30 6739 N 632.627 0.916307 -1.28225 0
M  V30 6740 C 633.867 1.67964 -1.16479 0
M  V30 6741 C 634.231 1.8991 0.282494 0
M  V30 6742 O 635.432 2.63671 0.522607 0
M  V30 6743 C 633.703 3.00251 -1.93866 0
M  V30 6744 S 635.262 3.91353 -1.98465 0
M  V30 6745 H 632.08 0.576873 -0.415619 0
M  V30 6746 H 634.682 1.09006 -1.62289 0
M  V30 6747 H 633.386 2.81978 -2.98189 0
M  V30 6748 H 632.917 3.64257 -1.48595 0
M  V30 6749 H 634.932 4.84096 -1.0893 0
M  V30 6750 N 634.105 1.10431 1.1244 0
M  V30 6751 C 635.038 0.696987 2.17296 0
M  V30 6752 C 636.016 -0.301673 1.59777 0
M  V30 6753 O 637.2 -0.200583 1.8743 0
M  V30 6754 C 634.327 0.0284094 3.38688 0
M  V30 6755 C 633.373 0.990536 4.14838 0
M  V30 6756 S 634.206 2.50785 4.73146 0
M  V30 6757 C 635.362 1.85198 5.97873 0
M  V30 6758 H 635.595 1.58523 2.51511 0
M  V30 6759 H 633.128 0.921312 1.239 0
M  V30 6760 H 635.086 -0.351009 4.08997 0
M  V30 6761 H 633.747 -0.836629 3.02753 0
M  V30 6762 H 632.94 0.469991 5.01804 0
M  V30 6763 H 632.542 1.31186 3.50237 0
M  V30 6764 H 634.834 1.18217 6.67106 0
M  V30 6765 H 635.777 2.7012 6.54554 0
M  V30 6766 H 636.185 1.31653 5.48933 0
M  V30 6767 N 635.583 -1.29855 0.893053 0
M  V30 6768 C 636.999 -1.48366 0.588199 0
M  V30 6769 C 637.199 -1.81654 -0.872018 0
M  V30 6770 O 636.255 -1.909 -1.65268 0
M  V30 6771 C 637.568 -2.60136 1.5083 0
M  V30 6772 C 639.116 -2.74014 1.51279 0
M  V30 6773 C 639.591 -3.88905 2.41902 0
M  V30 6774 N 641.082 -3.96228 2.39911 0
M  V30 6775 C 641.817 -4.84458 3.06738 0
M  V30 6776 N 641.313 -5.77426 3.8282 0
M  V30 6777 N 643.106 -4.77894 2.95929 0
M  V30 6778 H 635.257 -1.06522 1.83757 0
M  V30 6779 H 637.52 -0.528495 0.787018 0
M  V30 6780 H 637.226 -2.42383 2.54839 0
M  V30 6781 H 637.1 -3.56793 1.22388 0
M  V30 6782 H 639.487 -2.91167 0.480179 0
M  V30 6783 H 639.568 -1.77952 1.83757 0
M  V30 6784 H 639.212 -3.72508 3.45253 0
M  V30 6785 H 639.142 -4.84322 2.06737 0
M  V30 6786 H 641.633 -3.29728 1.84629 0
M  V30 6787 H 641.946 -6.41529 4.30883 0
M  V30 6788 H 640.291 -5.77332 3.86927 0
M  V30 6789 H 643.482 -4.04248 2.36012 0
M  V30 6790 H 643.655 -5.46444 3.48286 0
M  V30 6791 N 637.061 -0.65484 -1.43351 0
M  V30 6792 C 638.009 0.0476784 -2.32551 0
M  V30 6793 C 639.003 0.811403 -1.48703 0
M  V30 6794 O 640.209 0.721621 -1.64902 0
M  V30 6795 H 636.584 0.0342038 -0.751222 0
M  V30 6796 H 638.555 -0.722342 -2.89525 0
M  V30 6797 C 637.304 0.999251 -3.33032 0
M  V30 6798 H 636.627 0.421005 -3.97577 0
M  V30 6799 H 638.067 1.45986 -3.98076 0
M  V30 6800 C 636.526 2.09606 -2.63756 0
M  V30 6801 O 637.056 3.18004 -2.4543 0
M  V30 6802 N 635.262 1.86207 -2.23103 0
M  V30 6803 H 634.809 0.980555 -2.38208 0
M  V30 6804 H 634.767 2.59787 -1.77081 0
M  V30 6805 N 638.539 1.52521 -0.396863 0
M  V30 6806 C 639.767 2.06091 0.18275 0
M  V30 6807 C 640.182 1.26796 1.39886 0
M  V30 6808 O 639.539 0.316585 1.79733 0
M  V30 6809 C 639.59 3.57362 0.545377 0
M  V30 6810 O 639.311 4.33656 -0.622428 0
M  V30 6811 C 640.812 4.27305 1.18004 0
M  V30 6812 H 638.032 0.670504 0.025789 0
M  V30 6813 H 640.576 1.96561 -0.564276 0
M  V30 6814 H 638.731 3.66941 1.2423 0
M  V30 6815 H 639.145 5.23507 -0.322662 0
M  V30 6816 H 640.619 5.34366 1.38408 0
M  V30 6817 H 641.096 3.83 2.1496 0
M  V30 6818 H 641.702 4.22064 0.523671 0
M  V30 6819 N 640.017 0.126909 1.57088 0
M  V30 6820 C 641.263 -0.529952 1.95753 0
M  V30 6821 C 641.596 -1.65823 1.01077 0
M  V30 6822 O 640.871 -1.94437 0.0494162 0
M  V30 6823 C 641.154 -1.05517 3.44294 0
M  V30 6824 C 641.007 0.0702253 4.49745 0
M  V30 6825 C 642.326 -1.9435 3.94862 0
M  V30 6826 H 639.445 -0.191168 0.711775 0
M  V30 6827 H 642.087 0.204071 1.88901 0
M  V30 6828 H 640.237 -1.68069 3.50264 0
M  V30 6829 H 641.909 0.705834 4.55868 0
M  V30 6830 H 640.152 0.732259 4.27575 0
M  V30 6831 H 640.823 -0.338642 5.5096 0
M  V30 6832 H 643.299 -1.41658 3.91244 0
M  V30 6833 H 642.175 -2.28015 4.993 0
M  V30 6834 H 642.436 -2.87299 3.36024 0
M  V30 6835 N 641.495 -1.56914 -0.146875 0
M  V30 6836 C 642.906 -1.72799 -0.706928 0
M  V30 6837 C 643.257 -0.741329 -1.81656 0
M  V30 6838 O 642.382 0.0920162 -2.16204 0
M  V30 6839 C 642.977 -3.13317 -1.28911 0
M  V30 6840 C 641.536 -3.30803 -1.79573 0
M  V30 6841 C 640.683 -2.68725 -0.684252 0
M  V30 6842 H 643.634 -1.58504 0.0787931 0
M  V30 6843 H 643.655 -3.13323 -2.15891 0
M  V30 6844 H 643.167 -3.85104 -0.481284 0
M  V30 6845 H 641.268 -2.64012 -2.62923 0
M  V30 6846 H 641.381 -4.38754 -1.92436 0
M  V30 6847 H 639.745 -2.29196 -1.11091 0
M  V30 6848 H 640.528 -3.43117 0.112134 0
M  V30 6849 N 642.974 0.416227 -1.52004 0
M  V30 6850 C 644.214 1.17307 -1.67387 0
M  V30 6851 C 644.578 1.87959 -0.39183 0
M  V30 6852 O 645.779 2.65472 -0.421671 0
M  V30 6853 C 644.05 2.14661 -2.85754 0
M  V30 6854 S 645.609 2.98549 -3.21581 0
M  V30 6855 H 642.427 0.397505 -0.5895 0
M  V30 6856 H 645.029 0.461431 -1.89976 0
M  V30 6857 H 643.733 1.61431 -3.77317 0
M  V30 6858 H 643.264 2.90375 -2.65417 0
M  V30 6859 H 645.279 4.16536 -2.69652 0
M  V30 6860 N 644.452 1.42507 0.673017 0
M  V30 6861 C 645.384 1.42074 1.79854 0
M  V30 6862 C 646.397 0.319569 1.59633 0
M  V30 6863 O 647.586 0.582769 1.68719 0
M  V30 6864 C 644.686 1.19886 3.16987 0
M  V30 6865 C 643.859 2.42471 3.64042 0
M  V30 6866 C 642.918 2.15802 4.79913 0
M  V30 6867 O 641.944 2.89015 4.90366 0
M  V30 6868 N 643.146 1.16225 5.68746 0
M  V30 6869 H 645.911 2.3909 1.8071 0
M  V30 6870 H 643.472 1.37409 0.856171 0
M  V30 6871 H 645.464 0.999591 3.92161 0
M  V30 6872 H 644.034 0.313879 3.1102 0
M  V30 6873 H 643.254 2.77954 2.79526 0
M  V30 6874 H 644.542 3.24097 3.92223 0
M  V30 6875 H 643.94 0.556756 5.62954 0
M  V30 6876 H 642.497 1.02285 6.43724 0
M  V30 6877 N 645.93 -0.909495 1.28709 0
M  V30 6878 C 646.877 -2.01245 1.13 0
M  V30 6879 C 647.847 -1.6608 0.0259684 0
M  V30 6880 O 649.032 -1.89835 0.191687 0
M  V30 6881 C 646.172 -3.35644 0.802315 0
M  V30 6882 C 645.285 -3.83653 1.98582 0
M  V30 6883 C 644.42 -5.06582 1.59837 0
M  V30 6884 C 643.459 -5.46934 2.74827 0
M  V30 6885 N 642.596 -6.61053 2.36546 0
M  V30 6886 H 647.436 -2.14013 2.0737 0
M  V30 6887 H 644.973 -1.0482 1.03205 0
M  V30 6888 H 646.931 -4.12963 0.593057 0
M  V30 6889 H 645.561 -3.22631 -0.104457 0
M  V30 6890 H 644.613 -3.02454 2.30708 0
M  V30 6891 H 645.925 -4.09515 2.84779 0
M  V30 6892 H 645.079 -5.91457 1.35143 0
M  V30 6893 H 643.818 -4.82537 0.707753 0
M  V30 6894 H 642.823 -4.60599 3.00215 0
M  V30 6895 H 644.048 -5.72965 3.64538 0
M  V30 6896 H 641.994 -6.3863 1.49959 0
M  V30 6897 H 641.911 -6.86662 3.16277 0
M  V30 6898 H 643.179 -7.49221 2.15146 0
M  V30 6899 N 647.408 -1.11026 -1.11852 0
M  V30 6900 C 648.824 -0.843294 -1.35502 0
M  V30 6901 C 649.024 0.534179 -1.9429 0
M  V30 6902 O 648.08 1.28585 -2.17307 0
M  V30 6903 C 649.393 -1.94793 -2.29077 0
M  V30 6904 C 650.941 -1.97709 -2.42652 0
M  V30 6905 C 651.416 -3.07364 -3.39546 0
M  V30 6906 N 652.907 -3.0671 -3.47107 0
M  V30 6907 C 653.642 -3.88197 -4.22008 0
M  V30 6908 N 653.138 -4.79635 -4.99922 0
M  V30 6909 N 654.931 -3.76391 -4.17476 0
M  V30 6910 H 647.082 -1.99805 -0.720538 0
M  V30 6911 H 649.345 -0.868633 -0.379711 0
M  V30 6912 H 649.051 -2.93971 -1.93065 0
M  V30 6913 H 648.925 -1.84039 -3.29256 0
M  V30 6914 H 651.312 -0.991604 -2.77941 0
M  V30 6915 H 651.393 -2.1254 -1.4234 0
M  V30 6916 H 651.037 -4.06136 -3.04985 0
M  V30 6917 H 650.967 -2.89774 -4.39703 0
M  V30 6918 H 653.458 -2.40457 -2.91528 0
M  V30 6919 H 653.771 -5.38357 -5.54429 0
M  V30 6920 H 652.116 -4.8366 -4.99097 0
M  V30 6921 H 655.307 -3.04303 -3.55693 0
M  V30 6922 H 655.48 -4.40131 -4.75593 0
M  V30 6923 N 648.886 1.2938 -0.899927 0
M  V30 6924 C 650.135 1.9483 -0.521937 0
M  V30 6925 C 650.448 1.71725 0.936473 0
M  V30 6926 O 651.654 2.31282 1.42199 0
M  V30 6927 C 650.11 3.48911 -0.88255 0
M  V30 6928 C 649.718 3.80815 -2.35974 0
M  V30 6929 C 651.462 4.20595 -0.57448 0
M  V30 6930 C 649.369 5.28142 -2.66121 0
M  V30 6931 H 648.299 0.729285 -0.191468 0
M  V30 6932 H 650.95 1.47103 -1.09695 0
M  V30 6933 H 649.332 3.95293 -0.236459 0
M  V30 6934 H 650.506 3.45291 -3.05141 0
M  V30 6935 H 648.821 3.22271 -2.63686 0
M  V30 6936 H 651.418 5.29031 -0.776556 0
M  V30 6937 H 651.761 4.13442 0.487005 0
M  V30 6938 H 652.294 3.79945 -1.17842 0
M  V30 6939 H 649.033 5.4036 -3.71068 0
M  V30 6940 H 648.553 5.64913 -2.01578 0
M  V30 6941 H 650.232 5.95738 -2.52399 0
M  V30 6942 N 650.364 0.662433 1.43002 0
M  V30 6943 C 651.61 0.179857 2.02001 0
M  V30 6944 C 651.943 -1.20625 1.52195 0
M  V30 6945 O 651.218 -1.80726 0.718911 0
M  V30 6946 C 651.501 0.200845 3.59539 0
M  V30 6947 C 651.354 1.62153 4.19555 0
M  V30 6948 C 652.673 -0.457738 4.37713 0
M  V30 6949 H 649.792 0.0668305 0.733964 0
M  V30 6950 H 652.434 0.84487 1.70182 0
M  V30 6951 H 650.584 -0.365411 3.86778 0
M  V30 6952 H 652.256 2.23908 4.03315 0
M  V30 6953 H 650.499 2.16601 3.75854 0
M  V30 6954 H 651.17 1.58799 5.28665 0
M  V30 6955 H 653.646 0.0241495 4.16093 0
M  V30 6956 H 652.522 -0.412363 5.47349 0
M  V30 6957 H 652.783 -1.53336 4.14657 0
M  V30 6958 N 651.842 -1.52309 0.404946 0
M  V30 6959 C 653.07 -2.06185 -0.171818 0
M  V30 6960 C 653.485 -1.27536 -1.39212 0
M  V30 6961 O 652.842 -0.326112 -1.79563 0
M  V30 6962 C 652.893 -3.57647 -0.526417 0
M  V30 6963 O 652.614 -4.3332 0.645417 0
M  V30 6964 C 654.115 -4.27925 -1.15736 0
M  V30 6965 H 651.335 -0.670632 -0.0222328 0
M  V30 6966 H 653.879 -1.96259 0.574692 0
M  V30 6967 H 652.034 -3.67595 -1.22282 0
M  V30 6968 H 652.448 -5.23328 0.35042 0
M  V30 6969 H 653.922 -5.35093 -1.35572 0
M  V30 6970 H 654.399 -3.84134 -2.12926 0
M  V30 6971 H 655.005 -4.22335 -0.501281 0
M  V30 6972 N 653.32 -0.135238 -1.57019 0
M  V30 6973 C 654.23 0.822226 -2.19719 0
M  V30 6974 C 655.246 1.28057 -1.17802 0
M  V30 6975 O 656.422 1.3402 -1.50335 0
M  V30 6976 C 653.487 2.0484 -2.79717 0
M  V30 6977 C 652.548 1.64042 -3.96723 0
M  V30 6978 C 651.781 2.80814 -4.53849 0
M  V30 6979 O 652.004 3.967 -4.0986 0
M  V30 6980 O 650.938 2.56963 -5.44292 0
M  V30 6981 H 654.764 0.318552 -3.02025 0
M  V30 6982 H 652.349 0.0912021 -1.49121 0
M  V30 6983 H 654.231 2.76622 -3.17897 0
M  V30 6984 H 652.906 2.54182 -2.00432 0
M  V30 6985 H 651.813 0.893182 -3.63281 0
M  V30 6986 H 653.146 1.19426 -4.77492 0
M  V30 6987 N 654.798 1.5699 0.138552 0
M  V30 6988 C 655.746 1.99858 1.18994 0
M  V30 6989 C 656.74 0.89231 1.43994 0
M  V30 6990 O 657.946 1.0775 1.44187 0
M  V30 6991 H 654.321 0.636325 0.400743 0
M  V30 6992 H 656.292 2.87427 0.801755 0
M  V30 6993 C 655.041 2.40235 2.51361 0
M  V30 6994 H 654.364 3.24917 2.32957 0
M  V30 6995 H 655.804 2.74045 3.23535 0
M  V30 6996 C 654.263 1.25829 3.1252 0
M  V30 6997 O 654.793 0.563604 3.97727 0
M  V30 6998 N 652.999 1.02036 2.72097 0
M  V30 6999 H 652.546 1.58705 2.02905 0
M  V30 7000 H 652.504 0.256796 3.1335 0
M  V30 7001 N 656.276 -0.40816 1.52223 0
M  V30 7002 C 657.223 -1.49737 1.75635 0
M  V30 7003 C 658.193 -1.5493 0.598824 0
M  V30 7004 O 659.378 -1.71487 0.83648 0
M  V30 7005 C 656.518 -2.87174 1.91376 0
M  V30 7006 C 655.631 -2.91283 3.19027 0
M  V30 7007 C 654.766 -4.20026 3.25195 0
M  V30 7008 C 653.805 -4.18113 4.47044 0
M  V30 7009 N 652.942 -5.38429 4.50598 0
M  V30 7010 H 657.782 -1.29075 2.68596 0
M  V30 7011 H 655.319 -0.626518 1.33091 0
M  V30 7012 H 657.277 -3.66959 1.98486 0
M  V30 7013 H 655.907 -3.06329 1.01795 0
M  V30 7014 H 654.959 -2.03984 3.21084 0
M  V30 7015 H 656.271 -2.85734 4.08849 0
M  V30 7016 H 655.425 -5.08204 3.31382 0
M  V30 7017 H 654.164 -4.28271 2.33313 0
M  V30 7018 H 653.169 -3.28325 4.41002 0
M  V30 7019 H 654.394 -4.11507 5.40221 0
M  V30 7020 H 652.34 -5.4734 3.616 0
M  V30 7021 H 652.257 -5.34879 5.34266 0
M  V30 7022 H 653.525 -6.28557 4.61016 0
M  V30 7023 N 657.755 -1.42862 -0.66545 0
M  V30 7024 C 658.983 -1.47246 -1.45349 0
M  V30 7025 C 659.398 -0.0865944 -1.88601 0
M  V30 7026 O 658.755 0.900652 -1.58728 0
M  V30 7027 C 658.806 -2.40772 -2.6965 0
M  V30 7028 O 658.527 -3.73968 -2.2821 0
M  V30 7029 C 660.028 -2.54272 -3.63126 0
M  V30 7030 H 657.248 -0.500497 -0.446927 0
M  V30 7031 H 659.792 -1.87477 -0.816871 0
M  V30 7032 H 657.947 -2.0377 -3.29479 0
M  V30 7033 H 658.361 -4.24146 -3.08546 0
M  V30 7034 H 659.835 -3.23815 -4.47043 0
M  V30 7035 H 660.312 -1.58364 -4.09656 0
M  V30 7036 H 660.918 -2.92036 -3.09185 0
M  V30 7037 N 659.233 0.902656 -1.29189 0
M  V30 7038 C 660.51 1.63296 -1.07674 0
M  V30 7039 C 660.89 2.07649 0.380137 0
M  V30 7040 O 660.238 1.82997 1.36837 0
M  V30 7041 C 660.448 2.81603 -2.06158 0
M  V30 7042 C 661.796 3.52359 -2.36914 0
M  V30 7043 O 662.82 2.91767 -2.04329 0
M  V30 7044 O 661.679 4.61586 -2.92576 0
M  V30 7045 H 658.773 0.716889 -0.41231 0
M  V30 7046 H 661.319 0.950984 -1.4055 0
M  V30 7047 H 660.091 2.46004 -3.04299 0
M  V30 7048 H 659.714 3.57508 -1.73993 0
M  V30 7049 N 660.711 1.11618 1.11262 0
M  V30 7050 C 661.621 0.78898 2.20935 0
M  V30 7051 C 662.637 -0.21867 1.7262 0
M  V30 7052 O 663.813 -0.0543826 2.01327 0
M  V30 7053 C 660.878 0.239014 3.45875 0
M  V30 7054 C 659.939 1.3055 4.08968 0
M  V30 7055 C 659.172 0.781687 5.27944 0
M  V30 7056 O 659.395 -0.387605 5.69082 0
M  V30 7057 O 658.329 1.54734 5.81671 0
M  V30 7058 H 662.155 1.70477 2.51339 0
M  V30 7059 H 659.74 0.892203 1.19834 0
M  V30 7060 H 661.622 -0.0632312 4.21353 0
M  V30 7061 H 660.297 -0.649454 3.17118 0
M  V30 7062 H 659.204 1.66079 3.35214 0
M  V30 7063 H 660.537 2.16743 4.41909 0
M  V30 7064 N 662.189 -1.289 0.906776 0
M  V30 7065 C 663.099 -2.31256 0.394707 0
M  V30 7066 C 664.115 -1.66231 -0.514121 0
M  V30 7067 O 665.291 -1.97347 -0.401994 0
M  V30 7068 C 662.356 -3.44792 -0.363191 0
M  V30 7069 C 661.417 -4.25391 0.578012 0
M  V30 7070 C 660.65 -5.33506 -0.143811 0
M  V30 7071 O 660.873 -5.53786 -1.36665 0
M  V30 7072 O 659.807 -5.99673 0.5173 0
M  V30 7073 H 663.633 -2.77051 1.24405 0
M  V30 7074 H 661.218 -1.33466 0.671346 0
M  V30 7075 H 663.1 -4.139 -0.791503 0
M  V30 7076 H 661.775 -3.01093 -1.18848 0
M  V30 7077 H 660.682 -3.58899 1.05558 0
M  V30 7078 H 662.015 -4.72752 1.36992 0
M  V30 7079 N 663.667 -0.670007 -1.42649 0
M  V30 7080 C 665.078 -0.268118 -1.84765 0
M  V30 7081 C 665.429 1.18877 -1.56086 0
M  V30 7082 O 664.554 1.90947 -1.01825 0
M  V30 7083 C 665.149 -0.47984 -3.35385 0
M  V30 7084 C 663.708 -0.132116 -3.76168 0
M  V30 7085 C 662.855 -0.774611 -2.66261 0
M  V30 7086 H 665.806 -0.872509 -1.32563 0
M  V30 7087 H 665.827 0.269522 -3.79544 0
M  V30 7088 H 665.339 -1.54026 -3.56227 0
M  V30 7089 H 663.44 0.92505 -3.60934 0
M  V30 7090 H 663.553 -0.569294 -4.75706 0
M  V30 7091 H 661.917 -0.206353 -2.53863 0
M  V30 7092 H 662.7 -1.83839 -2.89928 0
M  V30 7093 N 665.145 1.52092 -0.413018 0
M  V30 7094 C 666.393 2.01456 0.161178 0
M  V30 7095 C 666.714 1.30034 1.45314 0
M  V30 7096 O 665.984 0.427435 1.9118 0
M  V30 7097 H 664.564 0.744376 0.0625526 0
M  V30 7098 H 667.226 1.86974 -0.550151 0
M  V30 7099 H 666.322 3.1008 0.354517 0
M  V30 7100 N 666.623 0.143563 1.56945 0
M  V30 7101 C 667.853 -0.514699 2.00086 0
M  V30 7102 C 668.261 -1.59184 1.0226 0
M  V30 7103 O 667.604 -1.83697 0.0110514 0
M  V30 7104 C 667.666 -1.17778 3.39659 0
M  V30 7105 C 667.33 -0.245657 4.56339 0
M  V30 7106 C 668.327 0.525343 5.17239 0
M  V30 7107 C 666.012 -0.149564 5.02077 0
M  V30 7108 C 668.006 1.37992 6.22284 0
M  V30 7109 C 665.693 0.708621 6.06978 0
M  V30 7110 C 666.691 1.47197 6.6695 0
M  V30 7111 O 666.379 2.31586 7.6982 0
M  V30 7112 H 666.111 -0.138789 0.661599 0
M  V30 7113 H 668.665 0.234098 2.04062 0
M  V30 7114 H 666.895 -1.97415 3.32512 0
M  V30 7115 H 668.584 -1.73542 3.6693 0
M  V30 7116 H 669.35 0.461118 4.82803 0
M  V30 7117 H 665.229 -0.733457 4.55128 0
M  V30 7118 H 668.773 1.97621 6.69023 0
M  V30 7119 H 664.67 0.77415 6.40841 0
M  V30 7120 H 665.438 2.24796 7.87025 0
M  V30 7121 N 668.101 -1.57061 -0.130224 0
M  V30 7122 C 669.35 -1.83446 -0.838488 0
M  V30 7123 C 669.663 -0.727468 -1.81569 0
M  V30 7124 O 670.869 -0.877394 -2.56932 0
M  V30 7125 C 669.325 -3.25201 -1.54182 0
M  V30 7126 C 668.933 -4.4388 -0.606178 0
M  V30 7127 C 670.677 -3.60844 -2.23588 0
M  V30 7128 C 668.584 -5.76661 -1.31209 0
M  V30 7129 H 667.514 -0.684185 -0.316871 0
M  V30 7130 H 670.165 -1.83273 -0.0912059 0
M  V30 7131 H 668.547 -3.1981 -2.33533 0
M  V30 7132 H 669.721 -4.60545 0.153308 0
M  V30 7133 H 668.036 -4.16395 -0.0196705 0
M  V30 7134 H 670.633 -4.57313 -2.77072 0
M  V30 7135 H 670.976 -2.87724 -3.00867 0
M  V30 7136 H 671.509 -3.67971 -1.51137 0
M  V30 7137 H 668.248 -6.52922 -0.580823 0
M  V30 7138 H 667.768 -5.63902 -2.04387 0
M  V30 7139 H 669.447 -6.20035 -1.8484 0
M  V30 7140 N 669.579 0.400081 -1.52437 0
M  V30 7141 C 670.526 1.48803 -1.76426 0
M  V30 7142 C 671.496 1.5461 -0.607032 0
M  V30 7143 O 672.681 1.71041 -0.845563 0
M  V30 7144 C 669.821 2.86156 -1.92896 0
M  V30 7145 C 668.934 2.89587 -3.20567 0
M  V30 7146 C 668.069 4.18296 -3.27417 0
M  V30 7147 C 667.108 4.15736 -4.49255 0
M  V30 7148 N 666.245 5.36032 -4.53447 0
M  V30 7149 H 671.085 1.27649 -2.69276 0
M  V30 7150 H 668.622 0.619451 -1.33421 0
M  V30 7151 H 670.58 3.65901 -2.00429 0
M  V30 7152 H 669.21 3.05785 -1.03418 0
M  V30 7153 H 668.262 2.02278 -3.22161 0
M  V30 7154 H 669.574 2.83562 -4.10358 0
M  V30 7155 H 668.728 5.06439 -3.34072 0
M  V30 7156 H 667.467 4.27028 -2.35581 0
M  V30 7157 H 666.472 3.25982 -4.42737 0
M  V30 7158 H 667.697 4.08636 -5.42396 0
M  V30 7159 H 665.643 5.45415 -3.64498 0
M  V30 7160 H 665.56 5.32038 -5.37096 0
M  V30 7161 H 666.828 6.26104 -4.64343 0
M  V30 7162 N 671.057 1.43213 0.657864 0
M  V30 7163 C 672.004 1.48011 1.77092 0
M  V30 7164 C 672.974 0.330291 1.62783 0
M  V30 7165 O 674.159 0.536787 1.83094 0
M  V30 7166 C 671.299 1.40461 3.15222 0
M  V30 7167 C 670.412 2.65612 3.40697 0
M  V30 7168 C 669.547 2.50083 4.68649 0
M  V30 7169 C 668.586 3.70525 4.87214 0
M  V30 7170 N 667.723 3.53835 6.0642 0
M  V30 7171 H 672.563 2.43121 1.72326 0
M  V30 7172 H 670.1 1.20687 0.841013 0
M  V30 7173 H 672.058 1.34079 3.95068 0
M  V30 7174 H 670.688 0.489359 3.19069 0
M  V30 7175 H 669.74 2.82292 2.54982 0
M  V30 7176 H 671.052 3.5509 3.50303 0
M  V30 7177 H 670.206 2.41383 5.56614 0
M  V30 7178 H 668.945 1.58121 4.61356 0
M  V30 7179 H 667.95 3.79639 3.97686 0
M  V30 7180 H 669.175 4.63489 4.96341 0
M  V30 7181 H 667.121 2.64604 6.00267 0
M  V30 7182 H 667.038 4.36912 6.16963 0
M  V30 7183 H 668.306 3.48978 6.97019 0
M  V30 7184 N 672.536 -0.895792 1.29666 0
M  V30 7185 C 673.776 -1.6609 1.19136 0
M  V30 7186 C 674.14 -1.90336 -0.252245 0
M  V30 7187 O 675.341 -2.64469 -0.480593 0
M  V30 7188 C 673.612 -2.97129 1.98618 0
M  V30 7189 S 675.171 -3.88146 2.04666 0
M  V30 7190 H 671.989 -0.570188 0.424744 0
M  V30 7191 H 674.591 -1.06411 1.64003 0
M  V30 7192 H 673.295 -2.77199 3.02637 0
M  V30 7193 H 672.826 -3.61847 1.54371 0
M  V30 7194 H 674.841 -4.82301 1.16618 0
M  V30 7195 N 674.014 -1.12206 -1.10668 0
M  V30 7196 C 675.254 -0.885935 -1.84202 0
M  V30 7197 C 675.618 0.577849 -1.83098 0
M  V30 7198 O 676.819 0.931051 -2.5216 0
M  V30 7199 C 675.09 -1.44197 -3.2702 0
M  V30 7200 S 676.649 -1.34402 -4.1771 0
M  V30 7201 H 673.467 -0.319653 -0.635093 0
M  V30 7202 H 676.069 -1.43112 -1.33189 0
M  V30 7203 H 674.773 -2.50096 -3.25392 0
M  V30 7204 H 674.304 -0.894173 -3.83103 0
M  V30 7205 H 676.319 -0.313873 -4.95206 0
M  V30 7206 N 675.492 1.28418 -0.913599 0
M  V30 7207 C 676.439 2.27301 -0.400373 0
M  V30 7208 C 677.409 1.57582 0.52509 0
M  V30 7209 O 678.594 1.85482 0.447318 0
M  V30 7210 C 675.734 3.43284 0.35361 0
M  V30 7211 C 674.847 4.27752 -0.604341 0
M  V30 7212 C 673.982 5.30934 0.168075 0
M  V30 7213 C 673.021 6.07065 -0.783499 0
M  V30 7214 N 672.158 7.02086 -0.0446112 0
M  V30 7215 H 676.998 2.70579 -1.24865 0
M  V30 7216 H 674.535 1.33067 -0.627028 0
M  V30 7217 H 676.493 4.09322 0.806945 0
M  V30 7218 H 675.123 3.00997 1.16623 0
M  V30 7219 H 674.175 3.61759 -1.17621 0
M  V30 7220 H 675.487 4.80682 -1.33216 0
M  V30 7221 H 674.641 6.02855 0.681979 0
M  V30 7222 H 673.38 4.78771 0.928947 0
M  V30 7223 H 672.385 5.33995 -1.30878 0
M  V30 7224 H 673.61 6.61317 -1.54392 0
M  V30 7225 H 671.556 6.52273 0.698272 0
M  V30 7226 H 671.473 7.52637 -0.712258 0
M  V30 7227 H 672.741 7.78205 0.449102 0
M  V30 7228 N 676.97 0.677563 1.42291 0
M  V30 7229 C 678.218 0.200578 2.01102 0
M  V30 7230 C 678.539 -1.19803 1.53858 0
M  V30 7231 O 677.809 -1.80496 0.761439 0
M  V30 7232 H 676.389 0.0711634 0.743603 0
M  V30 7233 H 679.051 0.874691 1.7417 0
M  V30 7234 H 678.147 0.204 3.11433 0
M  V30 7235 N 678.448 -1.51871 0.421078 0
M  V30 7236 C 679.695 -2.01938 -0.15079 0
M  V30 7237 C 680.023 -1.30611 -1.44121 0
M  V30 7238 O 679.278 -0.404631 -1.91471 0
M  V30 7239 C 679.577 -3.54764 -0.433292 0
M  V30 7240 C 679.243 -4.44288 0.76936 0
M  V30 7241 C 677.905 -4.68477 1.09921 0
M  V30 7242 C 680.257 -4.96915 1.57242 0
M  V30 7243 C 677.585 -5.4254 2.2331 0
M  V30 7244 C 679.937 -5.7222 2.69716 0
M  V30 7245 C 678.601 -5.94678 3.03174 0
M  V30 7246 H 677.871 -0.738943 -0.0551781 0
M  V30 7247 H 680.518 -1.82977 0.564945 0
M  V30 7248 H 678.823 -3.71968 -1.23074 0
M  V30 7249 H 680.52 -3.91023 -0.888922 0
M  V30 7250 H 677.11 -4.25646 0.502305 0
M  V30 7251 H 681.294 -4.78125 1.3308 0
M  V30 7252 H 676.55 -5.58146 2.49565 0
M  V30 7253 H 680.724 -6.11992 3.32323 0
M  V30 7254 H 678.351 -6.51848 3.9115 0
M  V30 7255 N 679.926 -0.151884 -1.56866 0
M  V30 7256 C 681.166 0.500695 -1.98173 0
M  V30 7257 C 681.53 1.61715 -1.03499 0
M  V30 7258 O 682.731 2.33093 -1.33869 0
M  V30 7259 C 681.002 0.989333 -3.43434 0
M  V30 7260 S 682.561 1.64583 -4.06765 0
M  V30 7261 H 679.379 0.16173 -0.692361 0
M  V30 7262 H 681.981 -0.244754 -1.93962 0
M  V30 7263 H 680.685 0.166072 -4.10064 0
M  V30 7264 H 680.216 1.76929 -3.51368 0
M  V30 7265 H 682.231 2.93326 -4.00218 0
M  V30 7266 N 681.404 1.57128 0.121893 0
M  V30 7267 C 682.653 1.83888 0.828748 0
M  V30 7268 C 682.966 0.737087 1.81181 0
M  V30 7269 O 684.172 0.891007 2.56463 0
M  V30 7270 C 682.628 3.26014 1.52455 0
M  V30 7271 C 682.236 4.44195 0.58263 0
M  V30 7272 C 683.98 3.62025 2.21671 0
M  V30 7273 C 681.887 5.77349 1.28149 0
M  V30 7274 H 680.817 0.685856 0.313238 0
M  V30 7275 H 683.468 1.83319 0.0814851 0
M  V30 7276 H 681.85 3.21044 2.31834 0
M  V30 7277 H 683.024 4.60457 -0.177729 0
M  V30 7278 H 681.339 4.164 -0.00241228 0
M  V30 7279 H 683.936 4.58776 2.74643 0
M  V30 7280 H 684.279 2.89315 2.99337 0
M  V30 7281 H 684.812 3.68767 1.49184 0
M  V30 7282 H 681.551 6.53221 0.546189 0
M  V30 7283 H 681.071 5.64978 2.01394 0
M  V30 7284 H 682.75 6.21006 1.81549 0
M  V30 7285 N 682.882 -0.391992 1.52647 0
M  V30 7286 C 684.159 -1.15136 1.58123 0
M  V30 7287 C 684.539 -2.07786 0.372597 0
M  V30 7288 O 683.887 -2.19374 -0.639304 0
M  V30 7289 C 684.097 -1.91367 2.91856 0
M  V30 7290 C 685.445 -2.46833 3.45483 0
M  V30 7291 O 686.469 -2.01527 2.9371 0
M  V30 7292 O 685.328 -3.29587 4.3593 0
M  V30 7293 H 682.422 -0.526649 0.637629 0
M  V30 7294 H 684.968 -0.397386 1.64982 0
M  V30 7295 H 683.74 -1.23597 3.71268 0
M  V30 7296 H 683.363 -2.73732 2.88369 0
M  V30 7297 N 684.36 -1.4356 -0.65026 0
M  V30 7298 C 685.609 -1.44619 -1.406 0
M  V30 7299 C 685.922 -0.0752645 -1.95455 0
M  V30 7300 O 687.128 0.0366832 -2.71475 0
M  V30 7301 C 685.584 -2.54511 -2.54465 0
M  V30 7302 C 685.192 -3.97723 -2.06204 0
M  V30 7303 C 686.936 -2.64768 -3.31811 0
M  V30 7304 C 684.843 -4.99075 -3.17298 0
M  V30 7305 H 683.773 -0.537983 -0.52829 0
M  V30 7306 H 686.424 -1.69559 -0.701561 0
M  V30 7307 H 684.806 -2.22777 -3.27393 0
M  V30 7308 H 685.98 -4.38932 -1.40267 0
M  V30 7309 H 684.295 -3.91538 -1.41729 0
M  V30 7310 H 686.892 -3.37664 -4.14593 0
M  V30 7311 H 687.235 -1.69936 -3.80036 0
M  V30 7312 H 687.768 -2.95817 -2.65964 0
M  V30 7313 H 684.507 -5.95469 -2.74038 0
M  V30 7314 H 684.027 -4.62476 -3.81937 0
M  V30 7315 H 685.706 -5.21913 -3.82382 0
M  V30 7316 N 685.838 0.888903 -1.30139 0
M  V30 7317 C 686.768 2.01046 -1.18755 0
M  V30 7318 C 687.749 1.69916 -0.0791438 0
M  V30 7319 O 688.934 1.92445 -0.260498 0
M  V30 7320 C 686.064 3.36109 -0.874518 0
M  V30 7321 C 685.018 3.81486 -1.94043 0
M  V30 7322 C 684.344 5.13796 -1.48047 0
M  V30 7323 C 685.644 4.00637 -3.35093 0
M  V30 7324 H 687.338 2.10828 -2.12584 0
M  V30 7325 H 684.884 1.01298 -1.02346 0
M  V30 7326 H 686.837 4.14089 -0.781548 0
M  V30 7327 H 685.561 3.26449 0.0994519 0
M  V30 7328 H 684.22 3.05731 -2.02297 0
M  V30 7329 H 683.868 5.0056 -0.494878 0
M  V30 7330 H 683.568 5.45127 -2.19341 0
M  V30 7331 H 685.092 5.94305 -1.40121 0
M  V30 7332 H 686.506 4.69067 -3.2962 0
M  V30 7333 H 684.903 4.43339 -4.04438 0
M  V30 7334 H 685.973 3.0462 -3.77273 0
M  V30 7335 N 687.317 1.12792 1.10072 0
M  V30 7336 C 688.264 0.79921 2.16521 0
M  V30 7337 C 689.234 -0.235726 1.64419 0
M  V30 7338 O 690.419 -0.109457 1.90486 0
M  V30 7339 C 687.559 0.264091 3.44088 0
M  V30 7340 C 686.672 1.35729 4.10124 0
M  V30 7341 C 685.807 0.781212 5.25424 0
M  V30 7342 C 684.846 1.85327 5.8337 0
M  V30 7343 N 683.983 1.29564 6.90042 0
M  V30 7344 H 688.823 1.71105 2.43981 0
M  V30 7345 H 686.36 0.854225 1.19756 0
M  V30 7346 H 688.318 -0.0642423 4.17151 0
M  V30 7347 H 686.948 -0.610901 3.16967 0
M  V30 7348 H 686 1.80234 3.34993 0
M  V30 7349 H 687.312 2.16782 4.4923 0
M  V30 7350 H 686.466 0.403769 6.05355 0
M  V30 7351 H 685.205 -0.0604686 4.87663 0
M  V30 7352 H 684.21 2.23986 5.02106 0
M  V30 7353 H 685.435 2.69824 6.23195 0
M  V30 7354 H 683.381 0.475844 6.54272 0
M  V30 7355 H 683.298 2.04271 7.2788 0
M  V30 7356 H 684.566 0.945545 7.73744 0
M  V30 7357 N 688.795 -1.27931 0.920396 0
M  V30 7358 C 689.742 -2.27085 0.412422 0
M  V30 7359 C 690.712 -1.57858 -0.516725 0
M  V30 7360 O 691.897 -1.85717 -0.437475 0
M  V30 7361 C 689.037 -3.43466 -0.335399 0
M  V30 7362 C 688.15 -4.27425 0.627017 0
M  V30 7363 C 687.285 -5.31016 -0.139916 0
M  V30 7364 C 686.324 -6.06641 0.815683 0
M  V30 7365 N 685.461 -7.02052 0.0818439 0
M  V30 7366 H 690.301 -2.69913 1.26298 0
M  V30 7367 H 687.838 -1.32732 0.634076 0
M  V30 7368 H 689.796 -4.09744 -0.785226 0
M  V30 7369 H 688.426 -3.01611 -1.15025 0
M  V30 7370 H 687.478 -3.6113 1.19537 0
M  V30 7371 H 688.79 -4.79969 1.35763 0
M  V30 7372 H 687.944 -6.03208 -0.649998 0
M  V30 7373 H 686.683 -4.79257 -0.903543 0
M  V30 7374 H 685.688 -5.33294 1.33708 0
M  V30 7375 H 686.913 -6.60489 1.57897 0
M  V30 7376 H 684.859 -6.52634 -0.663671 0
M  V30 7377 H 684.776 -7.52249 0.752163 0
M  V30 7378 H 686.044 -7.78432 -0.407825 0
M  V30 7379 N 690.273 -0.685099 -1.4193 0
M  V30 7380 C 691.522 -0.208816 -2.00616 0
M  V30 7381 C 691.835 1.19506 -1.54847 0
M  V30 7382 O 693.041 1.76826 -2.06021 0
M  V30 7383 C 691.497 -0.322446 -3.58453 0
M  V30 7384 C 691.105 -1.73102 -4.13206 0
M  V30 7385 C 692.849 0.0945979 -4.24395 0
M  V30 7386 C 690.756 -1.79687 -5.63442 0
M  V30 7387 H 689.686 -0.0743092 -0.750329 0
M  V30 7388 H 692.337 -0.851778 -1.62533 0
M  V30 7389 H 690.719 0.388588 -3.94089 0
M  V30 7390 H 691.893 -2.46997 -3.8901 0
M  V30 7391 H 690.208 -2.09682 -3.59753 0
M  V30 7392 H 692.805 0.0656937 -5.3466 0
M  V30 7393 H 693.148 1.1316 -4.00625 0
M  V30 7394 H 693.681 -0.56579 -3.93756 0
M  V30 7395 H 690.42 -2.81404 -5.92024 0
M  V30 7396 H 689.94 -1.10162 -5.89597 0
M  V30 7397 H 691.619 -1.55498 -6.28036 0
M  V30 7398 N 691.751 1.51645 -0.429126 0
M  V30 7399 C 692.976 2.06917 0.141399 0
M  V30 7400 C 693.401 1.29527 1.36398 0
M  V30 7401 O 692.759 0.33094 1.78254 0
M  V30 7402 C 692.807 3.57776 0.4504 0
M  V30 7403 O 691.911 3.82639 1.53821 0
M  V30 7404 H 691.252 0.663978 0.0054647 0
M  V30 7405 H 693.782 1.95355 -0.608093 0
M  V30 7406 H 693.792 4.01894 0.703249 0
M  V30 7407 H 692.467 4.13532 -0.443213 0
M  V30 7408 H 691.044 3.5039 1.27597 0
M  V30 7409 N 693.229 0.160201 1.56784 0
M  V30 7410 C 694.176 -0.774416 2.1742 0
M  V30 7411 C 695.146 -1.23483 1.11091 0
M  V30 7412 O 696.331 -1.30499 1.39193 0
M  V30 7413 C 693.471 -2.00283 2.81035 0
M  V30 7414 C 692.584 -1.58701 4.01793 0
M  V30 7415 C 691.719 -2.76824 4.53367 0
M  V30 7416 C 690.758 -2.31679 5.66561 0
M  V30 7417 N 689.895 -3.42856 6.12694 0
M  V30 7418 H 694.735 -0.250542 2.96945 0
M  V30 7419 H 692.272 -0.111943 1.46673 0
M  V30 7420 H 694.23 -2.72316 3.16069 0
M  V30 7421 H 692.86 -2.5006 2.04132 0
M  V30 7422 H 691.912 -0.76384 3.72652 0
M  V30 7423 H 693.224 -1.21555 4.83762 0
M  V30 7424 H 692.378 -3.57029 4.90525 0
M  V30 7425 H 691.117 -3.17223 3.70433 0
M  V30 7426 H 690.122 -1.49917 5.28966 0
M  V30 7427 H 691.347 -1.9235 6.5129 0
M  V30 7428 H 689.293 -3.82852 5.32692 0
M  V30 7429 H 689.21 -3.09767 6.89624 0
M  V30 7430 H 690.478 -4.23379 6.545 0
M  V30 7431 N 694.707 -1.5719 -0.113559 0
M  V30 7432 C 695.932 -1.89702 -0.838336 0
M  V30 7433 C 696.357 -0.752679 -1.72384 0
M  V30 7434 O 695.715 0.296575 -1.78858 0
M  V30 7435 C 695.763 -3.20989 -1.64312 0
M  V30 7436 O 694.867 -3.07278 -2.75053 0
M  V30 7437 H 694.208 -0.622339 -0.231496 0
M  V30 7438 H 696.738 -2.04382 -0.0943228 0
M  V30 7439 H 696.748 -3.53843 -2.03123 0
M  V30 7440 H 695.423 -4.03869 -0.993119 0
M  V30 7441 H 694 -2.85901 -2.39406 0
M  V30 7442 N 696.185 0.383891 -1.52853 0
M  V30 7443 C 697.431 1.13009 -1.68395 0
M  V30 7444 C 697.764 1.89488 -0.425195 0
M  V30 7445 O 697.039 1.8574 0.577136 0
M  V30 7446 C 697.322 2.10419 -2.92226 0
M  V30 7447 C 697.175 1.3767 -4.28214 0
M  V30 7448 C 698.494 3.10781 -3.11614 0
M  V30 7449 H 695.613 0.409463 -0.612788 0
M  V30 7450 H 698.255 0.412895 -1.85459 0
M  V30 7451 H 696.405 2.71579 -2.77808 0
M  V30 7452 H 698.077 0.794352 -4.54409 0
M  V30 7453 H 696.32 0.678533 -4.2846 0
M  V30 7454 H 696.991 2.08874 -5.10956 0
M  V30 7455 H 699.467 2.59715 -3.25096 0
M  V30 7456 H 698.343 3.76179 -3.99725 0
M  V30 7457 H 698.604 3.79933 -2.2606 0
M  V30 7458 N 697.663 1.43903 0.642637 0
M  V30 7459 C 698.61 1.49881 1.75512 0
M  V30 7460 C 699.58 0.347538 1.62423 0
M  V30 7461 O 700.765 0.556177 1.82514 0
M  V30 7462 C 697.905 1.43797 3.13714 0
M  V30 7463 C 697.018 2.6921 3.37861 0
M  V30 7464 C 696.153 2.5504 4.6597 0
M  V30 7465 C 695.192 3.75671 4.83257 0
M  V30 7466 N 694.329 3.60247 6.02633 0
M  V30 7467 H 699.169 2.44935 1.69737 0
M  V30 7468 H 696.706 1.21572 0.828165 0
M  V30 7469 H 698.664 1.38262 3.93624 0
M  V30 7470 H 697.294 0.523173 3.18532 0
M  V30 7471 H 696.346 2.8498 2.51973 0
M  V30 7472 H 697.658 3.58786 3.46517 0
M  V30 7473 H 696.812 2.47273 5.54023 0
M  V30 7474 H 695.551 1.63006 4.59653 0
M  V30 7475 H 694.556 3.83836 3.93637 0
M  V30 7476 H 695.781 4.68728 4.91397 0
M  V30 7477 H 693.727 2.70955 5.97427 0
M  V30 7478 H 693.644 4.43431 6.12295 0
M  V30 7479 H 694.912 3.56351 6.93278 0
M  V30 7480 N 699.141 -0.881989 1.30609 0
M  V30 7481 C 700.388 -1.63405 1.19604 0
M  V30 7482 C 700.716 -1.92905 -0.248574 0
M  V30 7483 O 699.971 -1.55062 -1.19391 0
M  V30 7484 C 700.27 -2.97999 1.97311 0
M  V30 7485 C 699.936 -2.88039 3.46907 0
M  V30 7486 C 698.598 -2.85029 3.877 0
M  V30 7487 C 700.95 -2.75948 4.42156 0
M  V30 7488 C 698.278 -2.67772 5.2203 0
M  V30 7489 C 700.63 -2.60228 5.76597 0
M  V30 7490 C 699.294 -2.55595 6.16626 0
M  V30 7491 H 698.564 -0.597941 0.437662 0
M  V30 7492 H 701.211 -1.02524 1.61744 0
M  V30 7493 H 699.516 -3.62847 1.47815 0
M  V30 7494 H 701.213 -3.55156 1.86186 0
M  V30 7495 H 697.803 -2.91192 3.14492 0
M  V30 7496 H 701.987 -2.77337 4.1158 0
M  V30 7497 H 697.243 -2.62601 5.52133 0
M  V30 7498 H 701.417 -2.49847 6.50038 0
M  V30 7499 H 699.044 -2.41981 7.20659 0
M  V30 7500 N 700.619 -1.13374 -1.09472 0
M  V30 7501 C 701.847 -0.918351 -1.85402 0
M  V30 7502 C 702.262 0.53281 -1.81126 0
M  V30 7503 O 701.619 1.36879 -1.20708 0
M  V30 7504 C 701.67 -1.39743 -3.33398 0
M  V30 7505 O 701.391 -2.79172 -3.37631 0
M  V30 7506 C 702.892 -1.22042 -4.2617 0
M  V30 7507 H 700.112 -0.327511 -0.585643 0
M  V30 7508 H 702.656 -1.50617 -1.38328 0
M  V30 7509 H 700.811 -0.852619 -3.77901 0
M  V30 7510 H 701.225 -3.00428 -4.29934 0
M  V30 7511 H 702.699 -1.60438 -5.2817 0
M  V30 7512 H 703.176 -0.162047 -4.38901 0
M  V30 7513 H 703.782 -1.75323 -3.87482 0
M  V30 7514 N 702.098 1.27442 -0.927168 0
M  V30 7515 C 703.328 1.9821 -0.582775 0
M  V30 7516 C 703.736 1.69361 0.843406 0
M  V30 7517 O 703.079 0.950381 1.57205 0
M  V30 7518 C 703.141 3.52048 -0.728165 0
M  V30 7519 C 702.805 4.04518 -2.12637 0
M  V30 7520 C 703.802 4.17332 -3.10048 0
M  V30 7521 C 701.487 4.38879 -2.44317 0
M  V30 7522 C 703.481 4.6378 -4.37249 0
M  V30 7523 C 701.168 4.85018 -3.71753 0
M  V30 7524 C 702.166 4.97428 -4.68033 0
M  V30 7525 O 701.854 5.42556 -5.93202 0
M  V30 7526 H 701.586 0.639314 -0.219667 0
M  V30 7527 H 704.14 1.63272 -1.24626 0
M  V30 7528 H 702.37 3.86699 -0.00758143 0
M  V30 7529 H 704.059 4.04033 -0.388906 0
M  V30 7530 H 704.825 3.91046 -2.86894 0
M  V30 7531 H 700.704 4.28462 -1.70121 0
M  V30 7532 H 704.248 4.73382 -5.12402 0
M  V30 7533 H 700.145 5.10746 -3.94726 0
M  V30 7534 H 700.913 5.60811 -5.96182 0
M  V30 7535 N 703.576 0.692616 1.41565 0
M  V30 7536 C 704.853 0.150496 1.9502 0
M  V30 7537 C 705.233 -1.33881 1.63215 0
M  V30 7538 O 704.581 -2.08378 0.937598 0
M  V30 7539 C 704.791 0.438636 3.46233 0
M  V30 7540 C 706.139 0.364777 4.2303 0
M  V30 7541 O 707.163 0.373383 3.54238 0
M  V30 7542 O 706.022 0.32234 5.45549 0
M  V30 7543 H 703.116 0.0132454 0.826894 0
M  V30 7544 H 705.662 0.768574 1.51298 0
M  V30 7545 H 704.434 1.46962 3.62654 0
M  V30 7546 H 704.057 -0.210562 3.97042 0
M  V30 7547 N 705.054 -1.51416 0.437162 0
M  V30 7548 C 705.984 -2.30631 -0.364922 0
M  V30 7549 C 706.965 -1.36037 -1.02118 0
M  V30 7550 O 708.15 -1.64956 -1.02485 0
M  V30 7551 C 705.28 -3.1482 -1.46648 0
M  V30 7552 C 704.234 -4.17691 -0.933717 0
M  V30 7553 C 703.56 -4.904 -2.13101 0
M  V30 7554 C 704.86 -5.2229 0.0317201 0
M  V30 7555 H 706.554 -2.97932 0.29614 0
M  V30 7556 H 704.1 -1.4328 0.143865 0
M  V30 7557 H 706.053 -3.69017 -2.03481 0
M  V30 7558 H 704.777 -2.4534 -2.15583 0
M  V30 7559 H 703.436 -3.64545 -0.387602 0
M  V30 7560 H 703.084 -4.17423 -2.80654 0
M  V30 7561 H 702.784 -5.59962 -1.78092 0
M  V30 7562 H 704.308 -5.4742 -2.70487 0
M  V30 7563 H 705.722 -5.7156 -0.446302 0
M  V30 7564 H 704.119 -5.99378 0.29437 0
M  V30 7565 H 705.189 -4.75131 0.968447 0
M  V30 7566 N 706.532 -0.168513 -1.56696 0
M  V30 7567 C 707.762 0.482802 -2.0088 0
M  V30 7568 C 708.17 1.57537 -1.0478 0
M  V30 7569 O 707.513 1.83656 -0.0402746 0
M  V30 7570 C 707.575 1.1236 -3.4149 0
M  V30 7571 C 707.239 0.173027 -4.56672 0
M  V30 7572 C 708.236 -0.607565 -5.16338 0
M  V30 7573 C 705.921 0.0696691 -5.02252 0
M  V30 7574 C 707.915 -1.47874 -6.2001 0
M  V30 7575 C 705.602 -0.805096 -6.05773 0
M  V30 7576 C 706.6 -1.57789 -6.64524 0
M  V30 7577 O 706.288 -2.43804 -7.66038 0
M  V30 7578 H 706.02 0.128246 -0.663723 0
M  V30 7579 H 708.574 -0.266532 -2.03663 0
M  V30 7580 H 706.804 1.921 -3.35611 0
M  V30 7581 H 708.493 1.67683 -3.69645 0
M  V30 7582 H 709.259 -0.53787 -4.82008 0
M  V30 7583 H 705.138 0.660957 -4.56237 0
M  V30 7584 H 708.682 -2.0824 -6.65794 0
M  V30 7585 H 704.579 -0.876005 -6.39528 0
M  V30 7586 H 705.347 -2.37289 -7.83349 0
M  V30 7587 N 708.01 1.57248 0.105221 0
M  V30 7588 C 708.94 2.04374 1.12931 0
M  V30 7589 C 709.921 0.93074 1.42377 0
M  V30 7590 O 711.106 1.20136 1.52581 0
M  V30 7591 C 708.236 2.45967 2.45189 0
M  V30 7592 C 707.19 3.60838 2.30174 0
M  V30 7593 C 706.516 3.88374 3.67518 0
M  V30 7594 C 707.816 4.92084 1.75073 0
M  V30 7595 H 709.51 2.9018 0.737287 0
M  V30 7596 H 707.056 1.39601 0.353211 0
M  V30 7597 H 709.009 2.77542 3.17094 0
M  V30 7598 H 707.733 1.57148 2.86308 0
M  V30 7599 H 706.392 3.29493 1.60716 0
M  V30 7600 H 706.04 2.96739 4.06147 0
M  V30 7601 H 705.74 4.65703 3.58321 0
M  V30 7602 H 707.264 4.22415 4.40906 0
M  V30 7603 H 708.678 5.22106 2.36809 0
M  V30 7604 H 707.075 5.73507 1.76662 0
M  V30 7605 H 708.145 4.79684 0.709347 0
M  V30 7606 N 709.488 -0.375779 1.53054 0
M  V30 7607 C 710.734 -1.12114 1.68992 0
M  V30 7608 C 711.067 -1.8926 0.435238 0
M  V30 7609 O 710.342 -1.86044 -0.567278 0
M  V30 7610 C 710.625 -2.08867 2.93337 0
M  V30 7611 C 710.478 -1.35397 4.28938 0
M  V30 7612 C 711.797 -3.09124 3.13257 0
M  V30 7613 H 708.916 -0.406207 0.614951 0
M  V30 7614 H 711.558 -0.403054 1.85676 0
M  V30 7615 H 709.708 -2.70102 2.79244 0
M  V30 7616 H 711.38 -0.770242 4.54824 0
M  V30 7617 H 709.623 -0.655801 4.28814 0
M  V30 7618 H 710.294 -2.06161 5.12056 0
M  V30 7619 H 712.77 -2.57987 3.26469 0
M  V30 7620 H 711.646 -3.74054 4.01715 0
M  V30 7621 H 711.907 -3.78729 2.28072 0
M  V30 7622 N 710.966 -1.44241 -0.634997 0
M  V30 7623 C 712.194 -1.50296 -1.42193 0
M  V30 7624 C 712.609 -0.12658 -1.88375 0
M  V30 7625 O 711.966 0.86678 -1.60603 0
M  V30 7626 C 712.017 -2.46437 -2.64482 0
M  V30 7627 O 711.738 -3.78724 -2.20226 0
M  V30 7628 C 713.239 -2.61918 -3.57651 0
M  V30 7629 H 710.459 -0.509865 -0.43621 0
M  V30 7630 H 713.003 -1.89167 -0.776921 0
M  V30 7631 H 711.158 -2.10712 -3.25083 0
M  V30 7632 H 711.572 -4.30595 -2.9948 0
M  V30 7633 H 713.046 -3.33225 -4.40074 0
M  V30 7634 H 713.523 -1.67017 -4.06204 0
M  V30 7635 H 714.129 -2.98528 -3.02921 0
M  V30 7636 N 712.444 0.87505 -1.31075 0
M  V30 7637 C 713.392 2.00317 -1.18219 0
M  V30 7638 C 714.386 1.69152 -0.0916872 0
M  V30 7639 O 715.592 1.7821 -0.253229 0
M  V30 7640 H 711.967 0.656981 -0.365895 0
M  V30 7641 H 713.938 2.08293 -2.13674 0
M  V30 7642 C 712.687 3.35821 -0.901095 0
M  V30 7643 H 712.01 3.6032 -1.73233 0
M  V30 7644 H 713.45 4.15366 -0.851295 0
M  V30 7645 C 711.909 3.34563 0.396114 0
M  V30 7646 O 712.439 3.75971 1.41452 0
M  V30 7647 N 710.645 2.87681 0.410832 0
M  V30 7648 H 710.192 2.54179 -0.418415 0
M  V30 7649 H 710.15 2.87223 1.27869 0
M  V30 7650 N 713.922 1.13953 1.08869 0
M  V30 7651 C 715.17 0.903023 1.80803 0
M  V30 7652 C 715.491 -0.572151 1.86417 0
M  V30 7653 O 714.761 -1.41589 1.35386 0
M  V30 7654 H 713.341 0.331099 0.669614 0
M  V30 7655 H 716.003 1.43719 1.31647 0
M  V30 7656 H 715.099 1.29881 2.83791 0
M  V30 7657 N 715.4 -1.26948 0.933913 0
M  V30 7658 C 716.347 -2.26635 0.436484 0
M  V30 7659 C 717.317 -1.58397 -0.499953 0
M  V30 7660 O 718.502 -1.86171 -0.417753 0
M  V30 7661 C 715.642 -3.43803 -0.298951 0
M  V30 7662 C 714.755 -4.26736 0.672316 0
M  V30 7663 C 713.89 -5.31134 -0.0835872 0
M  V30 7664 C 712.929 -6.05742 0.879979 0
M  V30 7665 N 712.066 -7.01926 0.156301 0
M  V30 7666 H 716.906 -2.68558 1.29154 0
M  V30 7667 H 714.443 -1.32052 0.648118 0
M  V30 7668 H 716.401 -4.10554 -0.741723 0
M  V30 7669 H 715.031 -3.02814 -1.1182 0
M  V30 7670 H 714.083 -3.59842 1.23361 0
M  V30 7671 H 715.395 -4.78502 1.40846 0
M  V30 7672 H 714.549 -6.03863 -0.585984 0
M  V30 7673 H 713.288 -4.80188 -0.852661 0
M  V30 7674 H 712.293 -5.31846 1.39357 0
M  V30 7675 H 713.518 -6.58777 1.64894 0
M  V30 7676 H 711.464 -6.53301 -0.594413 0
M  V30 7677 H 711.381 -7.51409 0.831906 0
M  V30 7678 H 712.649 -7.78821 -0.325239 0
M  V30 7679 N 716.879 -0.700114 -1.41195 0
M  V30 7680 C 717.829 -0.0144098 -2.27995 0
M  V30 7681 C 718.813 0.748249 -1.42443 0
M  V30 7682 O 720.005 0.622995 -1.65674 0
M  V30 7683 C 717.134 0.917938 -3.308 0
M  V30 7684 C 716.22 0.151286 -4.2383 0
M  V30 7685 N 716.611 -0.85732 -4.98481 0
M  V30 7686 C 714.909 0.386108 -4.44326 0
M  V30 7687 C 715.61 -1.31663 -5.66604 0
M  V30 7688 N 714.586 -0.641689 -5.39799 0
M  V30 7689 H 718.388 -0.787662 -2.83149 0
M  V30 7690 H 715.902 -0.531344 -1.53462 0
M  V30 7691 H 717.899 1.42437 -3.91813 0
M  V30 7692 H 716.559 1.69074 -2.77208 0
M  V30 7693 H 717.57 -1.2377 -5.02893 0
M  V30 7694 H 714.247 1.13644 -4.01735 0
M  V30 7695 H 715.637 -2.15384 -6.36443 0
M  V30 7696 N 718.357 1.51182 -0.445186 0
M  V30 7697 C 719.605 2.01753 0.11841 0
M  V30 7698 C 719.926 1.33087 1.42523 0
M  V30 7699 O 719.196 0.467891 1.9023 0
M  V30 7700 H 717.776 0.745536 0.0467492 0
M  V30 7701 H 720.438 1.85765 -0.589688 0
M  V30 7702 H 719.534 3.10762 0.288665 0
M  V30 7703 N 719.835 0.176821 1.56605 0
M  V30 7704 C 720.782 -0.751312 2.18229 0
M  V30 7705 C 721.752 -1.22297 1.12395 0
M  V30 7706 O 722.937 -1.29015 1.40569 0
M  V30 7707 C 720.077 -1.97291 2.83143 0
M  V30 7708 C 719.19 -1.54431 4.03454 0
M  V30 7709 C 718.325 -2.72 4.56278 0
M  V30 7710 C 717.364 -2.25657 5.68986 0
M  V30 7711 N 716.501 -3.36338 6.16296 0
M  V30 7712 H 721.341 -0.219033 2.97194 0
M  V30 7713 H 718.878 -0.0963803 1.46784 0
M  V30 7714 H 720.836 -2.68949 3.1894 0
M  V30 7715 H 719.466 -2.4788 2.06773 0
M  V30 7716 H 718.518 -0.724273 3.73441 0
M  V30 7717 H 719.83 -1.16417 4.85024 0
M  V30 7718 H 718.984 -3.51806 4.94285 0
M  V30 7719 H 717.723 -3.13277 3.73777 0
M  V30 7720 H 716.728 -1.44299 5.30526 0
M  V30 7721 H 717.953 -1.85432 6.53293 0
M  V30 7722 H 715.899 -3.7718 5.36723 0
M  V30 7723 H 715.816 -3.02435 6.9287 0
M  V30 7724 H 717.084 -4.16413 6.58954 0
M  V30 7725 N 721.313 -1.57302 -0.09688 0
M  V30 7726 C 722.26 -2.01933 -1.11766 0
M  V30 7727 C 723.23 -0.895329 -1.39904 0
M  V30 7728 O 724.415 -1.16119 -1.51397 0
M  V30 7729 C 721.555 -2.44726 -2.43317 0
M  V30 7730 C 720.668 -3.70639 -2.21925 0
M  V30 7731 C 719.803 -4.02318 -3.46862 0
M  V30 7732 C 718.842 -5.21346 -3.20725 0
M  V30 7733 N 717.979 -5.48787 -4.37924 0
M  V30 7734 H 722.819 -2.88919 -0.730075 0
M  V30 7735 H 720.356 -1.42901 -0.348962 0
M  V30 7736 H 722.314 -2.6758 -3.20088 0
M  V30 7737 H 720.944 -1.60753 -2.79926 0
M  V30 7738 H 719.996 -3.55271 -1.35965 0
M  V30 7739 H 721.308 -4.57557 -1.98603 0
M  V30 7740 H 720.462 -4.25939 -4.32042 0
M  V30 7741 H 719.201 -3.13918 -3.73238 0
M  V30 7742 H 718.206 -4.97547 -2.33938 0
M  V30 7743 H 719.431 -6.11343 -2.95697 0
M  V30 7744 H 717.377 -4.63346 -4.64378 0
M  V30 7745 H 717.294 -6.30073 -4.17785 0
M  V30 7746 H 718.562 -5.76943 -5.24173 0
M  V30 7747 N 722.791 0.367657 -1.53252 0
M  V30 7748 C 724.04 1.10782 -1.68554 0
M  V30 7749 C 724.353 1.90523 -0.442765 0
M  V30 7750 O 725.559 2.6729 -0.47629 0
M  V30 7751 C 724.015 2.01863 -2.97959 0
M  V30 7752 C 723.623 1.27443 -4.29491 0
M  V30 7753 C 725.367 2.75883 -3.22628 0
M  V30 7754 C 723.274 2.17414 -5.49987 0
M  V30 7755 H 722.204 0.417272 -0.628013 0
M  V30 7756 H 724.855 0.368971 -1.79752 0
M  V30 7757 H 723.237 2.7947 -2.80558 0
M  V30 7758 H 724.411 0.549138 -4.57516 0
M  V30 7759 H 722.726 0.652935 -4.11249 0
M  V30 7760 H 725.323 3.43421 -4.09837 0
M  V30 7761 H 725.666 3.41138 -2.38601 0
M  V30 7762 H 726.199 2.0536 -3.40693 0
M  V30 7763 H 722.938 1.5674 -6.36485 0
M  V30 7764 H 722.458 2.87799 -5.26243 0
M  V30 7765 H 724.137 2.77019 -5.84696 0
M  V30 7766 N 724.269 1.44576 0.627338 0
M  V30 7767 C 725.217 1.52039 1.76031 0
M  V30 7768 C 726.211 0.391796 1.64807 0
M  V30 7769 O 727.417 0.5669 1.7084 0
M  V30 7770 H 723.792 0.477165 0.581221 0
M  V30 7771 H 725.763 2.47387 1.6686 0
M  V30 7772 C 724.512 1.48539 3.14375 0
M  V30 7773 H 723.835 2.34699 3.23661 0
M  V30 7774 H 725.275 1.57821 3.93534 0
M  V30 7775 C 723.734 0.20672 3.36265 0
M  V30 7776 O 724.264 -0.72154 3.95167 0
M  V30 7777 N 722.47 0.108654 2.90397 0
M  V30 7778 H 722.017 0.864884 2.42647 0
M  V30 7779 H 721.975 -0.746121 3.05418 0
M  V30 7780 N 725.747 -0.868086 1.31537 0
M  V30 7781 C 726.995 -1.61807 1.21091 0
M  V30 7782 C 727.316 -1.93631 -0.230623 0
M  V30 7783 O 726.586 -1.5846 -1.15183 0
M  V30 7784 H 725.166 -0.599854 0.445178 0
M  V30 7785 H 727.828 -1.03915 1.64887 0
M  V30 7786 H 726.924 -2.56088 1.78396 0
M  V30 7787 N 727.225 -1.14528 -1.08264 0
M  V30 7788 C 728.453 -0.937964 -1.84418 0
M  V30 7789 C 728.868 0.51357 -1.81681 0
M  V30 7790 O 728.225 1.35591 -1.22153 0
M  V30 7791 C 728.276 -1.43272 -3.31897 0
M  V30 7792 O 727.997 -2.82738 -3.34651 0
M  V30 7793 C 729.498 -1.26555 -4.24851 0
M  V30 7794 H 726.718 -0.333704 -0.582136 0
M  V30 7795 H 729.262 -1.52076 -1.36723 0
M  V30 7796 H 727.417 -0.892653 -3.76975 0
M  V30 7797 H 727.831 -3.04971 -4.26724 0
M  V30 7798 H 729.305 -1.66031 -5.26439 0
M  V30 7799 H 729.782 -0.208589 -4.38704 0
M  V30 7800 H 730.388 -1.79423 -3.856 0
M  V30 7801 N 728.703 1.26451 -0.940633 0
M  V30 7802 C 729.949 1.94401 -0.598303 0
M  V30 7803 C 730.304 1.72449 0.853178 0
M  V30 7804 O 729.597 1.0506 1.60228 0
M  V30 7805 C 729.791 3.46503 -0.875794 0
M  V30 7806 C 729.62 3.83247 -2.3527 0
M  V30 7807 C 728.39 4.06032 -3.00776 0
M  V30 7808 C 730.588 3.91841 -3.33114 0
M  V30 7809 N 728.57 4.29656 -4.38485 0
M  V30 7810 C 729.941 4.19991 -4.56078 0
M  V30 7811 C 731.996 3.74466 -3.28146 0
M  V30 7812 C 730.699 4.32574 -5.74693 0
M  V30 7813 C 732.725 3.88281 -4.46085 0
M  V30 7814 C 732.087 4.16829 -5.67831 0
M  V30 7815 H 728.186 0.734168 -0.269297 0
M  V30 7816 H 730.77 1.52541 -1.20992 0
M  V30 7817 H 728.941 3.87292 -0.293223 0
M  V30 7818 H 730.673 4.01664 -0.494788 0
M  V30 7819 H 727.428 4.01369 -2.51396 0
M  V30 7820 H 727.852 4.45501 -5.09762 0
M  V30 7821 H 732.494 3.51424 -2.35077 0
M  V30 7822 H 730.212 4.54438 -6.68215 0
M  V30 7823 H 733.798 3.76241 -4.43773 0
M  V30 7824 H 732.678 4.27284 -6.5757 0
M  V30 7825 N 730.181 0.707592 1.40822 0
M  V30 7826 C 731.129 0.0386643 2.32568 0
M  V30 7827 C 732.123 -0.755653 1.51612 0
M  V30 7828 O 733.329 -0.659921 1.67467 0
M  V30 7829 H 729.704 -0.00629912 0.751974 0
M  V30 7830 H 731.675 0.8293 2.86645 0
M  V30 7831 C 730.424 -0.87496 3.36511 0
M  V30 7832 H 729.747 -0.273157 3.98866 0
M  V30 7833 H 731.187 -1.31111 4.03219 0
M  V30 7834 C 729.646 -1.99672 2.71353 0
M  V30 7835 O 730.176 -3.08676 2.57064 0
M  V30 7836 N 728.382 -1.77799 2.29861 0
M  V30 7837 H 727.929 -0.89147 2.41683 0
M  V30 7838 H 727.887 -2.53036 1.86601 0
M  V30 7839 N 731.66 -1.50943 0.453197 0
M  V30 7840 C 732.908 -2.01813 -0.107709 0
M  V30 7841 C 733.229 -1.33841 -1.41816 0
M  V30 7842 O 732.499 -0.477973 -1.8998 0
M  V30 7843 H 731.079 -0.745773 -0.0427948 0
M  V30 7844 H 733.741 -1.8545 0.599531 0
M  V30 7845 H 732.837 -3.10911 -0.27218 0
M  V30 7846 N 733.138 -0.185124 -1.56509 0
M  V30 7847 C 734.071 0.77877 -2.145 0
M  V30 7848 C 735.049 1.21649 -1.07891 0
M  V30 7849 O 736.233 1.30579 -1.35946 0
M  V30 7850 C 733.36 2.05048 -2.69579 0
M  V30 7851 C 732.406 1.75569 -3.88687 0
M  V30 7852 S 733.239 0.912642 -5.27666 0
M  V30 7853 C 734.395 2.19471 -5.8616 0
M  V30 7854 H 734.628 0.285751 -2.95924 0
M  V30 7855 H 732.161 0.0297417 -1.54371 0
M  V30 7856 H 734.119 2.78085 -3.01958 0
M  V30 7857 H 732.78 2.51462 -1.88216 0
M  V30 7858 H 731.973 2.69962 -4.25601 0
M  V30 7859 H 731.575 1.10619 -3.57267 0
M  V30 7860 H 733.867 3.14815 -5.99915 0
M  V30 7861 H 734.81 1.87005 -6.8296 0
M  V30 7862 H 735.218 2.31862 -5.14685 0
M  V30 7863 N 734.616 1.57351 0.0885366 0
M  V30 7864 C 735.865 1.85604 0.789556 0
M  V30 7865 C 736.178 0.775352 1.79576 0
M  V30 7866 O 737.384 0.945206 2.54515 0
M  V30 7867 C 735.84 3.29175 1.45506 0
M  V30 7868 C 735.448 4.45331 0.488278 0
M  V30 7869 C 737.192 3.66646 2.13942 0
M  V30 7870 C 735.099 5.79937 1.15874 0
M  V30 7871 H 734.029 0.692346 0.298619 0
M  V30 7872 H 736.68 1.83451 0.0425821 0
M  V30 7873 H 735.062 3.25889 2.24972 0
M  V30 7874 H 736.236 4.59977 -0.275359 0
M  V30 7875 H 734.551 4.16301 -0.0907363 0
M  V30 7876 H 737.148 4.64498 2.6485 0
M  V30 7877 H 737.491 2.956 2.93132 0
M  V30 7878 H 738.024 3.71848 1.41328 0
M  V30 7879 H 734.763 6.54232 0.407508 0
M  V30 7880 H 734.283 5.69123 1.89364 0
M  V30 7881 H 735.962 6.24718 1.68336 0
M  V30 7882 N 736.094 -0.359525 1.53444 0
M  V30 7883 C 737.342 -1.09935 1.69584 0
M  V30 7884 C 737.663 -1.89656 0.453371 0
M  V30 7885 O 736.933 -1.8852 -0.53263 0
M  V30 7886 H 735.513 -0.408843 0.625185 0
M  V30 7887 H 738.175 -0.40467 1.90653 0
M  V30 7888 H 737.271 -1.78575 2.55964 0
M  V30 7889 N 737.572 -1.44907 -0.619662 0
M  V30 7890 C 738.482 -1.55168 -1.75955 0
M  V30 7891 C 739.498 -0.43672 -1.6843 0
M  V30 7892 O 740.674 -0.695704 -1.89002 0
M  V30 7893 C 737.739 -1.50397 -3.12381 0
M  V30 7894 C 736.8 -2.72835 -3.31451 0
M  V30 7895 C 736.033 -2.68283 -4.61368 0
M  V30 7896 O 736.256 -1.74929 -5.42914 0
M  V30 7897 O 735.19 -3.59308 -4.82889 0
M  V30 7898 H 739.016 -2.51493 -1.7025 0
M  V30 7899 H 736.601 -1.27282 -0.782289 0
M  V30 7900 H 738.483 -1.50301 -3.93685 0
M  V30 7901 H 737.158 -0.572197 -3.18603 0
M  V30 7902 H 736.065 -2.78496 -2.49781 0
M  V30 7903 H 737.398 -3.65098 -3.30098 0
M  V30 7904 N 739.05 0.861098 -1.31996 0
M  V30 7905 C 740.296 1.61721 -1.22369 0
M  V30 7906 C 740.629 1.93 0.215587 0
M  V30 7907 O 739.904 1.56789 1.15098 0
M  V30 7908 C 740.187 2.9417 -2.07691 0
M  V30 7909 C 740.04 2.69714 -3.59965 0
M  V30 7910 C 741.359 3.95372 -1.93312 0
M  V30 7911 H 738.478 0.586822 -0.44588 0
M  V30 7912 H 741.12 0.994788 -1.61876 0
M  V30 7913 H 739.27 3.47292 -1.74128 0
M  V30 7914 H 740.942 2.23196 -4.03709 0
M  V30 7915 H 739.185 2.03789 -3.82952 0
M  V30 7916 H 739.856 3.63996 -4.14983 0
M  V30 7917 H 742.332 3.51487 -2.22701 0
M  V30 7918 H 741.208 4.85916 -2.55298 0
M  V30 7919 H 741.469 4.32865 -0.898922 0
M  V30 7920 N 740.528 1.15101 1.07655 0
M  V30 7921 C 741.774 0.925343 1.80458 0
M  V30 7922 C 742.107 -0.546354 1.86356 0
M  V30 7923 O 741.382 -1.40496 1.34503 0
M  V30 7924 C 741.665 1.53646 3.25676 0
M  V30 7925 C 741.518 3.07854 3.27942 0
M  V30 7926 C 742.837 1.21968 4.22861 0
M  V30 7927 H 739.956 0.337592 0.655134 0
M  V30 7928 H 742.598 1.42217 1.25993 0
M  V30 7929 H 740.748 1.11395 3.72187 0
M  V30 7930 H 742.42 3.58989 2.89697 0
M  V30 7931 H 740.663 3.41904 2.66991 0
M  V30 7932 H 741.334 3.45725 4.30324 0
M  V30 7933 H 743.81 1.5851 3.84726 0
M  V30 7934 H 742.686 1.67349 5.22767 0
M  V30 7935 H 742.947 0.136207 4.4189 0
M  V30 7936 N 742.006 -1.2595 0.947325 0
M  V30 7937 C 742.939 -2.24559 0.406009 0
M  V30 7938 C 743.917 -1.54441 -0.508598 0
M  V30 7939 O 745.101 -1.83181 -0.444644 0
M  V30 7940 C 742.228 -3.36136 -0.415987 0
M  V30 7941 C 741.274 -4.24245 0.437969 0
M  V30 7942 S 742.107 -5.01948 1.86572 0
M  V30 7943 C 743.263 -6.16997 1.05194 0
M  V30 7944 H 743.496 -2.70128 1.24171 0
M  V30 7945 H 741.029 -1.34912 0.750874 0
M  V30 7946 H 742.987 -4.00861 -0.88433 0
M  V30 7947 H 741.648 -2.89167 -1.22643 0
M  V30 7948 H 740.841 -5.03634 -0.192127 0
M  V30 7949 H 740.443 -3.64416 0.841235 0
M  V30 7950 H 742.735 -6.76848 0.297126 0
M  V30 7951 H 743.678 -6.84324 1.8195 0
M  V30 7952 H 744.086 -5.61458 0.585294 0
M  V30 7953 N 743.484 -0.715051 -1.40445 0
M  V30 7954 C 744.431 -0.0621393 -2.30716 0
M  V30 7955 C 745.401 0.750871 -1.48159 0
M  V30 7956 O 746.586 0.714928 -1.76899 0
M  V30 7957 C 743.726 0.854036 -3.34365 0
M  V30 7958 C 742.839 0.0305565 -4.31989 0
M  V30 7959 C 741.974 0.946162 -5.22706 0
M  V30 7960 C 741.013 0.116741 -6.11989 0
M  V30 7961 N 740.15 0.987194 -6.95125 0
M  V30 7962 H 744.99 -0.83764 -2.85985 0
M  V30 7963 H 742.527 -0.424759 -1.40834 0
M  V30 7964 H 744.485 1.39946 -3.93028 0
M  V30 7965 H 743.115 1.59572 -2.806 0
M  V30 7966 H 742.167 -0.632044 -3.75112 0
M  V30 7967 H 743.479 -0.611615 -4.95036 0
M  V30 7968 H 742.633 1.56014 -5.86297 0
M  V30 7969 H 741.372 1.62216 -4.59932 0
M  V30 7970 H 740.377 -0.510176 -5.47428 0
M  V30 7971 H 741.602 -0.555742 -6.76822 0
M  V30 7972 H 739.548 1.64885 -6.3494 0
M  V30 7973 H 739.465 0.401046 -7.54936 0
M  V30 7974 H 740.733 1.58737 -7.63166 0
M  V30 7975 N 744.962 1.50701 -0.461195 0
M  V30 7976 C 746.378 1.59187 -0.114786 0
M  V30 7977 C 746.578 1.4702 1.37794 0
M  V30 7978 O 745.634 1.32361 2.15027 0
M  V30 7979 C 746.947 2.93453 -0.656167 0
M  V30 7980 C 748.495 3.06824 -0.618715 0
M  V30 7981 C 748.97 4.4365 -1.13747 0
M  V30 7982 N 750.461 4.50035 -1.09646 0
M  V30 7983 C 751.196 5.54278 -1.46846 0
M  V30 7984 N 750.692 6.65822 -1.91448 0
M  V30 7985 N 752.485 5.44767 -1.38512 0
M  V30 7986 H 744.636 1.56853 -1.43216 0
M  V30 7987 H 746.899 0.740712 -0.59165 0
M  V30 7988 H 746.605 3.07802 -1.7015 0
M  V30 7989 H 746.479 3.77082 -0.0942261 0
M  V30 7990 H 748.866 2.92129 0.417685 0
M  V30 7991 H 748.947 2.24976 -1.21734 0
M  V30 7992 H 748.591 4.59093 -2.17245 0
M  V30 7993 H 748.521 5.24074 -0.515153 0
M  V30 7994 H 751.012 3.69988 -0.769217 0
M  V30 7995 H 751.325 7.41413 -2.18007 0
M  V30 7996 H 749.67 6.66968 -1.95393 0
M  V30 7997 H 752.861 4.56511 -1.03516 0
M  V30 7998 H 753.034 6.25889 -1.6783 0
M  V30 7999 N 746.441 0.193421 1.56409 0
M  V30 8000 C 747.404 -0.714371 2.17783 0
M  V30 8001 C 748.404 -1.1422 1.13183 0
M  V30 8002 O 749.594 -1.05557 1.38576 0
M  V30 8003 C 746.726 -1.97509 2.77855 0
M  V30 8004 H 747.919 -0.179714 2.99361 0
M  V30 8005 H 745.472 -0.0561944 1.56199 0
M  V30 8006 H 746.207 -2.5523 2.0007 0
M  V30 8007 H 745.992 -1.67706 3.54425 0
M  V30 8008 H 747.482 -2.62246 3.24987 0
M  V30 8009 N 747.919 -1.57396 -0.0801906 0
M  V30 8010 C 749.149 -1.90778 -0.792924 0
M  V30 8011 C 749.557 -0.786814 -1.72064 0
M  V30 8012 O 748.9 0.249259 -1.82001 0
M  V30 8013 C 748.962 -3.19552 -1.64702 0
M  V30 8014 C 748.626 -4.48259 -0.889567 0
M  V30 8015 C 749.623 -5.19465 -0.212602 0
M  V30 8016 C 747.308 -4.94896 -0.859229 0
M  V30 8017 C 749.302 -6.35555 0.484566 0
M  V30 8018 C 746.989 -6.10895 -0.158284 0
M  V30 8019 C 747.987 -6.81075 0.512421 0
M  V30 8020 O 747.675 -7.94862 1.20209 0
M  V30 8021 H 747.407 -0.63527 -0.231103 0
M  V30 8022 H 749.961 -2.0532 -0.0573081 0
M  V30 8023 H 748.191 -3.01196 -2.42524 0
M  V30 8024 H 749.88 -3.38649 -2.23767 0
M  V30 8025 H 750.646 -4.84467 -0.227403 0
M  V30 8026 H 746.525 -4.4015 -1.37073 0
M  V30 8027 H 750.069 -6.9027 1.00864 0
M  V30 8028 H 745.966 -6.45345 -0.141381 0
M  V30 8029 H 746.734 -8.10932 1.11051 0
M  V30 8030 N 749.397 0.351382 -1.53633 0
M  V30 8031 C 750.33 1.45407 -1.75875 0
M  V30 8032 C 751.308 1.50822 -0.607566 0
M  V30 8033 O 752.492 1.68658 -0.841818 0
M  V30 8034 C 749.619 2.8369 -1.85034 0
M  V30 8035 C 748.665 2.95935 -3.07123 0
M  V30 8036 S 749.498 2.63215 -4.66345 0
M  V30 8037 C 750.654 4.03622 -4.78373 0
M  V30 8038 H 750.887 1.26322 -2.69128 0
M  V30 8039 H 748.42 0.546581 -1.44402 0
M  V30 8040 H 750.378 3.6336 -1.90996 0
M  V30 8041 H 749.039 3.00076 -0.928074 0
M  V30 8042 H 748.232 3.97243 -3.10183 0
M  V30 8043 H 747.834 2.24205 -2.99346 0
M  V30 8044 H 750.126 4.98046 -4.593 0
M  V30 8045 H 751.069 4.05559 -5.80454 0
M  V30 8046 H 751.477 3.91282 -4.06889 0
M  V30 8047 N 750.875 1.45233 0.611969 0
M  V30 8048 C 751.838 1.53189 1.70487 0
M  V30 8049 C 752.838 0.411839 1.55437 0
M  V30 8050 O 754.028 0.675164 1.60584 0
M  V30 8051 C 751.16 1.42422 3.09723 0
M  V30 8052 H 752.353 2.5056 1.64802 0
M  V30 8053 H 749.906 1.32609 0.827318 0
M  V30 8054 H 750.641 0.462185 3.2099 0
M  V30 8055 H 750.426 2.23658 3.22055 0
M  V30 8056 H 751.916 1.51012 3.89339 0
M  V30 8057 N 752.353 -0.854086 1.3245 0
M  V30 8058 C 753.599 -1.61069 1.23225 0
M  V30 8059 C 753.932 -1.93111 -0.205349 0
M  V30 8060 O 753.207 -1.57397 -1.14265 0
M  V30 8061 C 753.49 -2.93065 2.09249 0
M  V30 8062 C 753.343 -2.67801 3.6139 0
M  V30 8063 C 754.662 -3.94341 1.95406 0
M  V30 8064 H 751.781 -0.584449 0.448986 0
M  V30 8065 H 754.423 -0.986189 1.62402 0
M  V30 8066 H 752.573 -3.46364 1.75967 0
M  V30 8067 H 754.245 -2.21052 4.04887 0
M  V30 8068 H 752.488 -2.01756 3.84027 0
M  V30 8069 H 753.159 -3.6179 4.16907 0
M  V30 8070 H 755.635 -3.50301 2.24562 0
M  V30 8071 H 754.511 -4.84555 2.57872 0
M  V30 8072 H 754.772 -4.32382 0.921865 0
M  V30 8073 N 753.831 -1.1567 -1.07043 0
M  V30 8074 C 755.079 -0.931673 -1.79344 0
M  V30 8075 C 755.4 0.542421 -1.87304 0
M  V30 8076 O 754.67 1.39418 -1.37621 0
M  V30 8077 H 753.25 -0.34171 -0.664262 0
M  V30 8078 H 755.912 -1.45795 -1.29344 0
M  V30 8079 H 755.008 -1.34379 -2.81689 0
M  V30 8080 N 755.309 1.25446 -0.953992 0
M  V30 8081 C 756.534 1.97755 -0.625129 0
M  V30 8082 C 756.959 1.70437 0.795787 0
M  V30 8083 O 756.317 0.95992 1.53803 0
M  V30 8084 C 756.365 3.49463 -0.889251 0
M  V30 8085 O 755.469 4.12387 0.0322757 0
M  V30 8086 H 754.81 0.61998 -0.237742 0
M  V30 8087 H 757.34 1.59582 -1.28041 0
M  V30 8088 H 757.35 3.99772 -0.815263 0
M  V30 8089 H 756.025 3.68676 -1.92487 0
M  V30 8090 H 754.602 3.72782 -0.0938625 0
M  V30 8091 N 756.787 0.722489 1.40064 0
M  V30 8092 C 757.717 0.0892452 2.33329 0
M  V30 8093 C 758.698 -0.737992 1.53257 0
M  V30 8094 O 759.883 -0.685516 1.81698 0
M  V30 8095 C 757.013 -0.828139 3.37282 0
M  V30 8096 C 755.967 -0.106005 4.27869 0
M  V30 8097 C 755.293 -1.13957 5.22415 0
M  V30 8098 C 756.593 1.04395 5.11761 0
M  V30 8099 H 758.287 0.868269 2.86534 0
M  V30 8100 H 755.833 0.418982 1.3777 0
M  V30 8101 H 757.786 -1.28058 4.01471 0
M  V30 8102 H 756.51 -1.63914 2.82489 0
M  V30 8103 H 755.169 0.326683 3.65142 0
M  V30 8104 H 754.817 -1.9438 4.63924 0
M  V30 8105 H 754.517 -0.661233 5.83868 0
M  V30 8106 H 756.041 -1.59197 5.89482 0
M  V30 8107 H 757.455 0.670541 5.69365 0
M  V30 8108 H 755.852 1.4511 5.82291 0
M  V30 8109 H 756.922 1.87144 4.47331 0
M  V30 8110 N 758.265 -1.50454 0.469181 0
M  V30 8111 C 759.493 -2.06729 -0.0842134 0
M  V30 8112 C 759.908 -1.33326 -1.33677 0
M  V30 8113 O 759.265 -0.401977 -1.78018 0
M  V30 8114 C 759.316 -3.59557 -0.374253 0
M  V30 8115 O 759.037 -4.30192 0.828622 0
M  V30 8116 C 760.538 -4.32449 -0.974824 0
M  V30 8117 H 757.758 -0.670971 0.006231 0
M  V30 8118 H 760.302 -1.93645 0.657415 0
M  V30 8119 H 758.457 -3.7245 -1.06581 0
M  V30 8120 H 758.871 -5.21371 0.572066 0
M  V30 8121 H 760.345 -5.40361 -1.12755 0
M  V30 8122 H 760.822 -3.92819 -1.96442 0
M  V30 8123 H 761.428 -4.24082 -0.321703 0
M  V30 8124 N 759.743 -0.201713 -1.56304 0
M  V30 8125 C 760.992 0.435557 -1.96941 0
M  V30 8126 C 761.305 1.62299 -1.09172 0
M  V30 8127 O 762.511 2.32849 -1.3962 0
M  V30 8128 C 760.967 0.826298 -3.50286 0
M  V30 8129 C 760.575 -0.337216 -4.46729 0
M  V30 8130 C 762.319 1.43028 -3.99679 0
M  V30 8131 C 760.226 0.0748539 -5.91353 0
M  V30 8132 H 759.156 0.1665 -0.735387 0
M  V30 8133 H 761.807 -0.294781 -1.81117 0
M  V30 8134 H 760.189 1.61349 -3.61639 0
M  V30 8135 H 761.363 -1.11476 -4.47113 0
M  V30 8136 H 759.678 -0.853126 -4.07567 0
M  V30 8137 H 762.275 1.75115 -5.05212 0
M  V30 8138 H 762.618 2.33911 -3.44371 0
M  V30 8139 H 763.151 0.706924 -3.91468 0
M  V30 8140 H 759.89 -0.799957 -6.506 0
M  V30 8141 H 759.41 0.817122 -5.94208 0
M  V30 8142 H 761.089 0.508389 -6.45 0
M  V30 8143 N 761.222 1.57436 0.0718424 0
M  V30 8144 C 762.17 2.04725 1.10411 0
M  V30 8145 C 763.164 0.952579 1.4008 0
M  V30 8146 O 764.37 1.13769 1.39487 0
M  V30 8147 H 760.745 0.652749 0.373393 0
M  V30 8148 H 762.716 2.90569 0.679126 0
M  V30 8149 C 761.465 2.5068 2.40946 0
M  V30 8150 H 760.788 3.34505 2.18967 0
M  V30 8151 H 762.228 2.87521 3.11621 0
M  V30 8152 C 760.687 1.38971 3.06902 0
M  V30 8153 O 761.217 0.731786 3.94978 0
M  V30 8154 N 759.423 1.13485 2.67525 0
M  V30 8155 H 758.97 1.67168 1.95991 0
M  V30 8156 H 758.928 0.389467 3.11978 0
M  V30 8157 N 762.7 -0.34323 1.53817 0
M  V30 8158 C 763.61 -1.44493 1.84821 0
M  V30 8159 C 764.626 -1.57556 0.738381 0
M  V30 8160 O 765.802 -1.73026 1.03072 0
M  V30 8161 C 762.867 -2.79478 2.05166 0
M  V30 8162 C 761.928 -2.75756 3.29025 0
M  V30 8163 C 761.161 -4.04302 3.4839 0
M  V30 8164 O 761.384 -5.01595 2.71586 0
M  V30 8165 O 760.318 -4.08754 4.41819 0
M  V30 8166 H 764.144 -1.21209 2.78464 0
M  V30 8167 H 761.729 -0.535437 1.39476 0
M  V30 8168 H 763.611 -3.59419 2.19991 0
M  V30 8169 H 762.286 -3.02692 1.14713 0
M  V30 8170 H 761.193 -1.94434 3.19603 0
M  V30 8171 H 762.526 -2.57495 4.19472 0
M  V30 8172 N 764.178 -1.45556 -0.604258 0
M  V30 8173 C 765.088 -1.57025 -1.74299 0
M  V30 8174 C 766.104 -0.45456 -1.67958 0
M  V30 8175 O 767.28 -0.715711 -1.88254 0
M  V30 8176 C 764.345 -1.53702 -3.10768 0
M  V30 8177 C 763.406 -2.76335 -3.28538 0
M  V30 8178 C 762.639 -2.73161 -4.58496 0
M  V30 8179 O 762.862 -1.80678 -5.41028 0
M  V30 8180 O 761.796 -3.64409 -4.79051 0
M  V30 8181 H 765.622 -2.53284 -1.67573 0
M  V30 8182 H 763.207 -1.28104 -0.768745 0
M  V30 8183 H 765.089 -1.54468 -3.92068 0
M  V30 8184 H 763.764 -0.605957 -3.17978 0
M  V30 8185 H 762.671 -2.8113 -2.46813 0
M  V30 8186 H 764.004 -3.68578 -3.26207 0
M  V30 8187 N 765.656 0.84705 -1.32902 0
M  V30 8188 C 767.072 1.13645 -1.12058 0
M  V30 8189 C 767.272 2.01281 0.093937 0
M  V30 8190 O 766.328 2.4026 0.776608 0
M  V30 8191 C 767.641 1.80644 -2.40392 0
M  V30 8192 C 769.189 1.93246 -2.46221 0
M  V30 8193 C 769.664 2.6366 -3.74496 0
M  V30 8194 N 771.155 2.71179 -3.75521 0
M  V30 8195 C 771.89 3.26332 -4.71482 0
M  V30 8196 N 771.386 3.82236 -5.77813 0
M  V30 8197 N 773.179 3.24507 -4.58968 0
M  V30 8198 H 765.33 0.263612 -2.10758 0
M  V30 8199 H 767.593 0.17944 -0.930863 0
M  V30 8200 H 767.299 1.23708 -3.29225 0
M  V30 8201 H 767.173 2.80736 -2.51926 0
M  V30 8202 H 769.56 2.49338 -1.57843 0
M  V30 8203 H 769.641 0.921272 -2.38634 0
M  V30 8204 H 769.285 2.08229 -4.63253 0
M  V30 8205 H 769.215 3.65234 -3.79357 0
M  V30 8206 H 771.706 2.31527 -2.9867 0
M  V30 8207 H 772.019 4.22499 -6.47082 0
M  V30 8208 H 770.364 3.80546 -5.81558 0
M  V30 8209 H 773.555 2.80085 -3.7506 0
M  V30 8210 H 773.728 3.67188 -5.33926 0
M  V30 8211 N 767.134 1.16236 1.06428 0
M  V30 8212 C 768.359 0.967688 1.83441 0
M  V30 8213 C 768.784 -0.479167 1.81894 0
M  V30 8214 O 768.142 -1.34224 1.21875 0
M  V30 8215 C 768.19 1.49806 3.2801 0
M  V30 8216 O 767.294 0.703481 4.06356 0
M  V30 8217 H 766.635 0.344468 0.56766 0
M  V30 8218 H 769.165 1.54442 1.34197 0
M  V30 8219 H 769.175 1.51495 3.78831 0
M  V30 8220 H 767.85 2.55133 3.2845 0
M  V30 8221 H 766.427 0.756986 3.65136 0
M  V30 8222 N 768.612 -1.24939 0.960631 0
M  V30 8223 C 769.522 -2.29374 0.492435 0
M  V30 8224 C 770.538 -1.68262 -0.443154 0
M  V30 8225 O 771.714 -1.98875 -0.31793 0
M  V30 8226 C 768.779 -3.46023 -0.216626 0
M  V30 8227 C 767.84 -4.22557 0.757915 0
M  V30 8228 C 767.073 -5.33636 0.0825969 0
M  V30 8229 O 767.296 -5.59084 -1.13054 0
M  V30 8230 O 766.23 -5.96939 0.771177 0
M  V30 8231 H 770.056 -2.71525 1.36044 0
M  V30 8232 H 767.641 -1.30499 0.72735 0
M  V30 8233 H 769.523 -4.16885 -0.615241 0
M  V30 8234 H 768.198 -3.05862 -1.05971 0
M  V30 8235 H 767.105 -3.54099 1.20685 0
M  V30 8236 H 768.438 -4.66516 1.5692 0
M  V30 8237 N 770.09 -0.729906 -1.39679 0
M  V30 8238 C 771.336 -0.27603 -2.00913 0
M  V30 8239 C 771.669 1.13227 -1.57776 0
M  V30 8240 O 770.944 1.7709 -0.804319 0
M  V30 8241 C 771.227 -0.372157 -3.58172 0
M  V30 8242 C 771.08 -1.81986 -4.11341 0
M  V30 8243 C 772.399 0.248378 -4.39399 0
M  V30 8244 H 769.518 -0.101773 -0.729939 0
M  V30 8245 H 772.16 -0.925104 -1.65957 0
M  V30 8246 H 770.31 0.180459 -3.88081 0
M  V30 8247 H 771.982 -2.42896 -3.92172 0
M  V30 8248 H 770.225 -2.34287 -3.65092 0
M  V30 8249 H 770.896 -1.83842 -5.20486 0
M  V30 8250 H 773.372 -0.222645 -4.15504 0
M  V30 8251 H 772.248 0.150746 -5.48693 0
M  V30 8252 H 772.509 1.33378 -4.21501 0
M  V30 8253 N 771.568 1.50203 -0.477153 0
M  V30 8254 C 772.814 2.02658 0.0758507 0
M  V30 8255 C 773.147 1.358 1.38824 0
M  V30 8256 O 772.422 0.485696 1.88338 0
M  V30 8257 C 772.705 3.59208 0.253339 0
M  V30 8258 C 772.558 4.36629 -1.0805 0
M  V30 8259 C 773.877 4.28469 1.00509 0
M  V30 8260 H 770.996 0.736538 0.0260921 0
M  V30 8261 H 773.638 1.79464 -0.623925 0
M  V30 8262 H 771.788 3.79101 0.849378 0
M  V30 8263 H 773.46 4.28292 -1.71358 0
M  V30 8264 H 771.703 4.0013 -1.67566 0
M  V30 8265 H 772.374 5.44449 -0.909883 0
M  V30 8266 H 774.85 4.13087 0.499818 0
M  V30 8267 H 773.726 5.37804 1.09808 0
M  V30 8268 H 773.987 3.92057 2.04314 0
M  V30 8269 N 773.046 0.209999 1.56195 0
M  V30 8270 C 774.323 -0.473214 1.89789 0
M  V30 8271 C 774.703 -1.78581 1.1257 0
M  V30 8272 O 774.051 -2.27325 0.231398 0
M  V30 8273 C 774.261 -0.677458 3.42362 0
M  V30 8274 C 775.609 -0.990114 4.12895 0
M  V30 8275 O 776.633 -0.764655 3.47896 0
M  V30 8276 O 775.492 -1.41737 5.278 0
M  V30 8277 H 772.586 -0.248622 0.788743 0
M  V30 8278 H 775.132 0.251324 1.67829 0
M  V30 8279 H 773.904 0.248878 3.90508 0
M  V30 8280 H 773.527 -1.45391 3.70064 0
M  V30 8281 N 774.524 -1.57472 -0.0634922 0
M  V30 8282 C 775.771 -1.87654 -0.761066 0
M  V30 8283 C 776.099 -0.802847 -1.77157 0
M  V30 8284 O 775.354 0.200244 -1.94673 0
M  V30 8285 C 775.653 -3.24521 -1.49736 0
M  V30 8286 C 775.319 -4.46532 -0.626065 0
M  V30 8287 C 773.981 -4.7965 -0.385978 0
M  V30 8288 C 776.333 -5.21195 -0.0224001 0
M  V30 8289 C 773.661 -5.84837 0.467118 0
M  V30 8290 C 776.013 -6.27286 0.818198 0
M  V30 8291 C 774.677 -6.58899 1.06808 0
M  V30 8292 H 773.947 -0.686675 -0.278494 0
M  V30 8293 H 776.594 -1.91488 -0.0216348 0
M  V30 8294 H 774.899 -3.16516 -2.30921 0
M  V30 8295 H 776.596 -3.45111 -2.04204 0
M  V30 8296 H 773.186 -4.20618 -0.823325 0
M  V30 8297 H 777.37 -4.95917 -0.194985 0
M  V30 8298 H 772.626 -6.07725 0.669375 0
M  V30 8299 H 776.8 -6.84298 1.29265 0
M  V30 8300 H 774.427 -7.40233 1.73088 0
M  V30 8301 N 776.003 0.335068 -1.53997 0
M  V30 8302 C 777.228 1.09859 -1.75914 0
M  V30 8303 C 777.653 1.81308 -0.500915 0
M  V30 8304 O 777.011 1.72854 0.54693 0
M  V30 8305 C 777.059 2.08122 -2.94478 0
M  V30 8306 O 776.163 3.15805 -2.65219 0
M  V30 8307 H 775.504 0.317313 -0.583274 0
M  V30 8308 H 778.034 0.382872 -2.00986 0
M  V30 8309 H 778.044 2.51195 -3.21504 0
M  V30 8310 H 776.719 1.55517 -3.8573 0
M  V30 8311 H 775.296 2.77489 -2.49107 0
M  V30 8312 N 777.481 1.45874 0.596531 0
M  V30 8313 C 778.727 1.5069 1.35722 0
M  V30 8314 C 779.06 0.152506 1.936 0
M  V30 8315 O 778.335 -0.834411 1.75692 0
M  V30 8316 C 778.618 2.59474 2.4969 0
M  V30 8317 C 778.471 4.04396 1.96937 0
M  V30 8318 C 779.79 2.64451 3.51787 0
M  V30 8319 H 776.909 0.548611 0.492133 0
M  V30 8320 H 779.551 1.77741 0.671428 0
M  V30 8321 H 777.701 2.36539 3.08191 0
M  V30 8322 H 779.373 4.38576 1.43 0
M  V30 8323 H 777.616 4.14529 1.27859 0
M  V30 8324 H 778.287 4.76218 2.79143 0
M  V30 8325 H 780.763 2.85031 3.03145 0
M  V30 8326 H 779.639 3.42411 4.29006 0
M  V30 8327 H 779.9 1.69965 4.08123 0
M  V30 8328 N 778.959 -0.83999 1.33349 0
M  V30 8329 C 780.37 -1.41139 1.22216 0
M  V30 8330 C 780.721 -1.95551 -0.159398 0
M  V30 8331 O 779.846 -1.88721 -1.05893 0
M  V30 8332 C 780.441 -2.56564 2.21269 0
M  V30 8333 C 779 -3.09661 2.13979 0
M  V30 8334 C 778.147 -1.82457 2.08818 0
M  V30 8335 H 781.098 -0.645853 1.44964 0
M  V30 8336 H 781.119 -3.34163 1.81976 0
M  V30 8337 H 780.631 -2.16932 3.21811 0
M  V30 8338 H 778.732 -3.53841 1.16736 0
M  V30 8339 H 778.845 -3.6991 3.04472 0
M  V30 8340 H 777.209 -2.0266 1.54276 0
M  V30 8341 H 777.992 -1.45022 3.11165 0
M  V30 8342 N 780.437 -1.16799 -1.0581 0
M  V30 8343 C 781.684 -0.952524 -1.78699 0
M  V30 8344 C 782.012 0.51931 -1.87439 0
M  V30 8345 O 781.267 1.40151 -1.36587 0
M  V30 8346 C 781.566 -1.53111 -3.22942 0
M  V30 8347 C 781.232 -3.0261 -3.34273 0
M  V30 8348 C 779.894 -3.43418 -3.37072 0
M  V30 8349 C 782.246 -3.98611 -3.35795 0
M  V30 8350 C 779.574 -4.78838 -3.39015 0
M  V30 8351 C 781.926 -5.33923 -3.39277 0
M  V30 8352 C 780.59 -5.74205 -3.40361 0
M  V30 8353 H 779.86 -0.348553 -0.653905 0
M  V30 8354 H 782.507 -1.45591 -1.244 0
M  V30 8355 H 780.812 -0.949286 -3.80126 0
M  V30 8356 H 782.509 -1.34002 -3.77948 0
M  V30 8357 H 779.099 -2.70075 -3.32803 0
M  V30 8358 H 783.283 -3.68146 -3.32839 0
M  V30 8359 H 778.539 -5.09369 -3.38161 0
M  V30 8360 H 782.713 -6.08094 -3.39403 0
M  V30 8361 H 780.34 -6.79117 -3.4162 0
M  V30 8362 N 781.915 1.24427 -0.967243 0
M  V30 8363 C 783.164 1.91789 -0.624478 0
M  V30 8364 C 783.477 1.76448 0.844129 0
M  V30 8365 O 784.683 2.38495 1.2974 0
M  V30 8366 C 783.139 3.43743 -1.06626 0
M  V30 8367 C 782.747 3.67771 -2.55829 0
M  V30 8368 C 784.491 4.16958 -0.79662 0
M  V30 8369 C 782.398 5.13293 -2.93742 0
M  V30 8370 H 781.328 0.71811 -0.229856 0
M  V30 8371 H 783.979 1.41081 -1.17339 0
M  V30 8372 H 782.361 3.93484 -0.445663 0
M  V30 8373 H 783.535 3.28631 -3.23015 0
M  V30 8374 H 781.85 3.07841 -2.80398 0
M  V30 8375 H 784.447 5.24171 -1.05589 0
M  V30 8376 H 784.79 4.15442 0.267163 0
M  V30 8377 H 785.323 3.73164 -1.37816 0
M  V30 8378 H 782.062 5.19931 -3.9919 0
M  V30 8379 H 781.582 5.53433 -2.3124 0
M  V30 8380 H 783.261 5.81521 -2.83623 0
M  V30 8381 N 783.393 0.737304 1.3929 0
M  V30 8382 C 784.303 0.100464 2.34385 0
M  V30 8383 C 785.319 -0.719282 1.58437 0
M  V30 8384 O 786.495 -0.647216 1.90717 0
M  V30 8385 C 783.56 -0.794325 3.37478 0
M  V30 8386 C 782.621 0.0379345 4.29283 0
M  V30 8387 C 781.854 -0.814241 5.27452 0
M  V30 8388 O 782.077 -2.05288 5.32177 0
M  V30 8389 O 781.011 -0.241679 6.01415 0
M  V30 8390 H 784.837 0.885407 2.90507 0
M  V30 8391 H 782.422 0.497999 1.40856 0
M  V30 8392 H 784.304 -1.30622 4.00644 0
M  V30 8393 H 782.979 -1.55804 2.83737 0
M  V30 8394 H 781.886 0.595405 3.69331 0
M  V30 8395 H 783.219 0.763926 4.86236 0
M  V30 8396 N 784.871 -1.49948 0.485112 0
M  V30 8397 C 786.099 -2.06806 -0.0622824 0
M  V30 8398 C 786.514 -1.34736 -1.32256 0
M  V30 8399 O 785.871 -0.420836 -1.77582 0
M  V30 8400 C 785.922 -3.59934 -0.336096 0
M  V30 8401 O 785.643 -4.29289 0.874203 0
M  V30 8402 C 787.144 -4.33459 -0.928903 0
M  V30 8403 H 784.364 -0.670867 0.0133472 0
M  V30 8404 H 786.908 -1.92937 0.677917 0
M  V30 8405 H 785.063 -3.7356 -1.02625 0
M  V30 8406 H 785.477 -5.20735 0.627332 0
M  V30 8407 H 786.951 -5.41527 -1.07017 0
M  V30 8408 H 787.428 -3.94881 -1.92265 0
M  V30 8409 H 788.034 -4.24399 -0.276705 0
M  V30 8410 N 786.349 -0.21828 -1.56081 0
M  V30 8411 C 787.597 0.413488 -1.97825 0
M  V30 8412 C 787.918 1.60527 -1.10707 0
M  V30 8413 O 787.188 1.9504 -0.183378 0
M  V30 8414 H 785.768 0.155757 -0.730581 0
M  V30 8415 H 788.43 -0.310413 -1.92412 0
M  V30 8416 H 787.526 0.742024 -3.03151 0
M  V30 8417 N 787.827 1.57504 0.0551401 0
M  V30 8418 C 789.076 1.87237 0.750009 0
M  V30 8419 C 789.389 0.813268 1.77891 0
M  V30 8420 O 790.595 0.99898 2.52453 0
M  V30 8421 C 789.051 3.32187 1.38491 0
M  V30 8422 C 788.659 4.46267 0.393707 0
M  V30 8423 C 790.403 3.71101 2.06117 0
M  V30 8424 C 788.31 5.82265 1.03547 0
M  V30 8425 H 787.24 0.698524 0.283866 0
M  V30 8426 H 789.891 1.835 0.00365997 0
M  V30 8427 H 788.273 3.30588 2.18008 0
M  V30 8428 H 789.447 4.59289 -0.372865 0
M  V30 8429 H 787.762 4.16015 -0.17902 0
M  V30 8430 H 790.359 4.70012 2.54937 0
M  V30 8431 H 790.702 3.01751 2.86796 0
M  V30 8432 H 791.235 3.74762 1.33409 0
M  V30 8433 H 787.974 6.54949 0.268644 0
M  V30 8434 H 787.494 5.73012 1.7725 0
M  V30 8435 H 789.173 6.28148 1.55047 0
M  V30 8436 N 789.305 -0.326896 1.54172 0
M  V30 8437 C 790.53 -1.08924 1.76494 0
M  V30 8438 C 790.955 -1.81039 0.510523 0
M  V30 8439 O 790.313 -1.73141 -0.537756 0
M  V30 8440 C 790.361 -2.06558 2.95578 0
M  V30 8441 O 789.465 -3.14394 2.6689 0
M  V30 8442 H 788.806 -0.314216 0.584948 0
M  V30 8443 H 791.336 -0.372207 2.01186 0
M  V30 8444 H 791.346 -2.49487 3.22832 0
M  V30 8445 H 790.021 -1.53469 3.86549 0
M  V30 8446 H 788.598 -2.76164 2.50576 0
M  V30 8447 N 790.784 -1.46188 -0.588786 0
M  V30 8448 C 792.03 -1.51407 -1.34921 0
M  V30 8449 C 792.363 -0.162771 -1.93517 0
M  V30 8450 O 791.638 0.825082 -1.76132 0
M  V30 8451 C 791.921 -2.60795 -2.48311 0
M  V30 8452 C 791.774 -4.05435 -1.94789 0
M  V30 8453 C 793.093 -2.66313 -3.50379 0
M  V30 8454 H 790.212 -0.551213 -0.489217 0
M  V30 8455 H 792.854 -1.78095 -0.661993 0
M  V30 8456 H 791.004 -2.3817 -3.06932 0
M  V30 8457 H 792.676 -4.39328 -1.40672 0
M  V30 8458 H 790.919 -4.15202 -1.25659 0
M  V30 8459 H 791.59 -4.77691 -2.76613 0
M  V30 8460 H 794.066 -2.86634 -3.01629 0
M  V30 8461 H 792.942 -3.44681 -4.27184 0
M  V30 8462 H 793.203 -1.72127 -4.07216 0
M  V30 8463 N 792.262 0.832906 -1.33792 0
M  V30 8464 C 793.195 1.94788 -1.18882 0
M  V30 8465 C 794.173 1.62389 -0.0828426 0
M  V30 8466 O 795.357 1.86886 -0.246175 0
M  V30 8467 C 792.484 3.28506 -0.824728 0
M  V30 8468 C 791.53 3.79872 -1.93905 0
M  V30 8469 S 792.363 4.00832 -3.55097 0
M  V30 8470 C 793.519 5.37492 -3.20708 0
M  V30 8471 H 793.752 2.07137 -2.13264 0
M  V30 8472 H 791.285 0.987362 -1.18704 0
M  V30 8473 H 793.243 4.05769 -0.621442 0
M  V30 8474 H 791.904 3.13939 0.100587 0
M  V30 8475 H 791.097 4.76647 -1.6378 0
M  V30 8476 H 790.699 3.09524 -2.09931 0
M  V30 8477 H 792.991 6.20544 -2.71903 0
M  V30 8478 H 793.934 5.72593 -4.16584 0
M  V30 8479 H 794.342 5.02529 -2.57148 0
M  V30 8480 N 793.74 1.17359 1.05189 0
M  V30 8481 C 794.986 0.963413 1.78455 0
M  V30 8482 C 795.319 -0.506703 1.87473 0
M  V30 8483 O 794.594 -1.37611 1.37453 0
M  V30 8484 C 794.877 1.60519 3.22344 0
M  V30 8485 C 794.73 3.14741 3.21338 0
M  V30 8486 C 796.049 1.3091 4.20179 0
M  V30 8487 H 793.168 0.351412 0.647826 0
M  V30 8488 H 795.81 1.44858 1.22948 0
M  V30 8489 H 793.96 1.19265 3.69741 0
M  V30 8490 H 795.632 3.65053 2.82017 0
M  V30 8491 H 793.875 3.4749 2.59679 0
M  V30 8492 H 794.546 3.54775 4.22894 0
M  V30 8493 H 797.022 1.66635 3.81277 0
M  V30 8494 H 795.898 1.784 5.191 0
M  V30 8495 H 796.159 0.229908 4.41502 0
M  V30 8496 N 795.218 -1.23913 0.973828 0
M  V30 8497 C 796.443 -1.96735 0.656511 0
M  V30 8498 C 796.868 -1.71682 -0.768571 0
M  V30 8499 O 796.226 -0.984267 -1.52256 0
M  V30 8500 C 796.274 -3.48004 0.944735 0
M  V30 8501 O 795.378 -4.12387 0.0333357 0
M  V30 8502 H 794.719 -0.616119 0.247575 0
M  V30 8503 H 797.249 -1.57525 1.30564 0
M  V30 8504 H 797.259 -3.98424 0.87876 0
M  V30 8505 H 795.934 -3.65567 1.98328 0
M  V30 8506 H 794.511 -3.72585 0.153157 0
M  V30 8507 N 796.696 -0.74468 -1.38897 0
M  V30 8508 C 798.112 -0.421302 -1.53939 0
M  V30 8509 C 798.312 1.06668 -1.70951 0
M  V30 8510 O 797.368 1.85278 -1.71547 0
M  V30 8511 C 798.681 -1.21278 -2.75159 0
M  V30 8512 C 800.229 -1.20196 -2.89001 0
M  V30 8513 C 800.704 -1.97621 -4.13171 0
M  V30 8514 N 802.195 -1.94836 -4.2023 0
M  V30 8515 C 802.93 -2.51545 -5.15279 0
M  V30 8516 N 802.426 -3.1693 -6.16058 0
M  V30 8517 N 804.219 -2.41524 -5.07565 0
M  V30 8518 H 796.37 -1.70914 -1.26103 0
M  V30 8519 H 798.633 -0.724058 -0.611919 0
M  V30 8520 H 798.339 -2.26609 -2.68963 0
M  V30 8521 H 798.213 -0.823677 -3.68097 0
M  V30 8522 H 800.6 -0.156742 -2.94683 0
M  V30 8523 H 800.681 -1.63051 -1.97099 0
M  V30 8524 H 800.325 -3.02149 -4.0825 0
M  V30 8525 H 800.255 -1.52166 -5.04136 0
M  V30 8526 H 802.746 -1.4721 -3.48048 0
M  V30 8527 H 803.059 -3.57644 -6.85062 0
M  V30 8528 H 801.404 -3.21023 -6.16417 0
M  V30 8529 H 804.595 -1.90077 -4.27771 0
M  V30 8530 H 804.768 -2.86016 -5.81462 0
M  V30 8531 N 798.174 1.49689 -0.493057 0
M  V30 8532 C 799.399 2.07331 0.0535114 0
M  V30 8533 C 799.824 1.35196 1.30781 0
M  V30 8534 O 799.182 0.406246 1.7669 0
M  V30 8535 C 799.23 3.59364 0.29825 0
M  V30 8536 O 798.334 3.88819 1.37454 0
M  V30 8537 H 797.675 0.663612 -0.0227018 0
M  V30 8538 H 800.205 1.926 -0.690402 0
M  V30 8539 H 800.215 4.04515 0.532159 0
M  V30 8540 H 798.89 4.1128 -0.618207 0
M  V30 8541 H 797.467 3.55487 1.12621 0
M  V30 8542 N 799.652 0.226554 1.55963 0
M  V30 8543 C 800.6 -0.697922 2.21882 0
M  V30 8544 C 801.594 -1.19586 1.19981 0
M  V30 8545 O 802.8 -1.15511 1.38048 0
M  V30 8546 H 799.175 -0.243501 0.711485 0
M  V30 8547 H 801.146 -0.118576 2.98164 0
M  V30 8548 C 799.895 -1.89309 2.91646 0
M  V30 8549 H 799.218 -1.51906 3.69817 0
M  V30 8550 H 800.658 -2.51762 3.41162 0
M  V30 8551 C 799.117 -2.75162 1.94391 0
M  V30 8552 O 799.647 -3.74071 1.46402 0
M  V30 8553 N 797.853 -2.41302 1.61932 0
M  V30 8554 H 797.4 -1.60923 2.01151 0
M  V30 8555 H 797.358 -2.99023 0.971219 0
M  V30 8556 N 801.13 -1.57531 -0.0467866 0
M  V30 8557 C 802.378 -1.88078 -0.739656 0
M  V30 8558 C 802.699 -0.821936 -1.76831 0
M  V30 8559 O 801.969 0.146582 -1.95351 0
M  V30 8560 H 800.549 -0.694075 -0.276169 0
M  V30 8561 H 803.211 -1.94893 -0.0169391 0
M  V30 8562 H 802.307 -2.86396 -1.24031 0
M  V30 8563 N 802.608 0.318715 -1.54344 0
M  V30 8564 C 803.836 1.0755 -1.7675 0
M  V30 8565 C 804.251 1.81543 -0.518422 0
M  V30 8566 O 803.608 1.75198 0.511078 0
M  V30 8567 C 803.659 2.06983 -2.96378 0
M  V30 8568 O 803.38 1.35995 -4.16458 0
M  V30 8569 C 804.881 2.94841 -3.31034 0
M  V30 8570 H 802.101 0.319711 -0.589937 0
M  V30 8571 H 804.645 0.363369 -2.01246 0
M  V30 8572 H 802.8 2.73724 -2.74142 0
M  V30 8573 H 803.214 2.02623 -4.83781 0
M  V30 8574 H 804.688 3.60496 -4.18027 0
M  V30 8575 H 805.165 3.62199 -2.48412 0
M  V30 8576 H 805.771 2.33656 -3.55366 0
M  V30 8577 N 804.086 1.46499 0.581025 0
M  V30 8578 C 805.332 1.52121 1.34116 0
M  V30 8579 C 805.665 0.173031 1.93428 0
M  V30 8580 O 804.94 -0.815729 1.76568 0
M  V30 8581 C 805.223 2.62108 2.46924 0
M  V30 8582 C 805.076 4.06462 1.92636 0
M  V30 8583 C 806.395 2.68167 3.48962 0
M  V30 8584 H 803.514 0.5538 0.486287 0
M  V30 8585 H 806.156 1.78443 0.652538 0
M  V30 8586 H 804.306 2.39794 3.05665 0
M  V30 8587 H 805.978 4.40068 1.3834 0
M  V30 8588 H 804.221 4.15862 1.23455 0
M  V30 8589 H 804.892 4.79152 2.74076 0
M  V30 8590 H 807.368 2.8823 3.00104 0
M  V30 8591 H 806.244 3.46942 4.2535 0
M  V30 8592 H 806.505 1.74284 4.06297 0
M  V30 8593 N 805.565 -0.825799 1.34232 0
M  V30 8594 C 806.79 -1.61883 1.29648 0
M  V30 8595 C 807.215 -1.87669 -0.127295 0
M  V30 8596 O 806.573 -1.45016 -1.08813 0
M  V30 8597 C 806.621 -2.93846 2.09014 0
M  V30 8598 O 805.725 -3.85778 1.4577 0
M  V30 8599 H 805.066 -0.492454 0.445405 0
M  V30 8600 H 807.596 -1.02641 1.76992 0
M  V30 8601 H 807.606 -3.43435 2.20264 0
M  V30 8602 H 806.281 -2.74401 3.12533 0
M  V30 8603 H 804.858 -3.4429 1.43245 0
M  V30 8604 N 807.043 -1.17915 -1.04565 0
M  V30 8605 C 808.454 -0.976383 -1.59134 0
M  V30 8606 C 808.805 0.475267 -1.90357 0
M  V30 8607 O 807.93 1.35172 -1.6899 0
M  V30 8608 C 808.525 -1.76604 -2.89131 0
M  V30 8609 C 807.084 -1.60777 -3.40335 0
M  V30 8610 C 806.231 -1.76369 -2.13985 0
M  V30 8611 H 809.182 -1.32532 -0.872985 0
M  V30 8612 H 809.203 -1.25215 -3.59307 0
M  V30 8613 H 808.715 -2.82252 -2.66375 0
M  V30 8614 H 806.816 -0.576436 -3.68114 0
M  V30 8615 H 806.929 -2.40268 -4.14497 0
M  V30 8616 H 805.293 -1.19268 -2.25049 0
M  V30 8617 H 806.076 -2.83441 -1.9369 0
M  V30 8618 N 808.521 1.23394 -0.980386 0
M  V30 8619 C 809.746 1.96384 -0.666935 0
M  V30 8620 C 810.171 1.72087 0.759456 0
M  V30 8621 O 809.529 0.992328 1.51732 0
M  V30 8622 C 809.577 3.47499 -0.963177 0
M  V30 8623 O 808.681 4.12363 -0.0552051 0
M  V30 8624 H 808.022 0.614797 -0.250839 0
M  V30 8625 H 810.552 1.56831 -1.31398 0
M  V30 8626 H 810.562 3.97953 -0.899877 0
M  V30 8627 H 809.237 3.6451 -2.00264 0
M  V30 8628 H 807.814 3.72499 -0.172914 0
M  V30 8629 N 809.999 0.752036 1.385 0
M  V30 8630 C 810.962 0.131587 2.28822 0
M  V30 8631 C 811.962 -0.649149 1.47115 0
M  V30 8632 O 813.152 -0.475645 1.67581 0
M  V30 8633 C 810.284 -0.822101 3.30839 0
M  V30 8634 H 811.477 0.927551 2.85196 0
M  V30 8635 H 809.03 0.518945 1.47434 0
M  V30 8636 H 809.765 -1.6438 2.79553 0
M  V30 8637 H 809.55 -0.264689 3.91206 0
M  V30 8638 H 811.04 -1.25226 3.98382 0
M  V30 8639 N 811.477 -1.49425 0.500989 0
M  V30 8640 C 812.724 -2.02453 -0.0435355 0
M  V30 8641 C 813.052 -1.38067 -1.36995 0
M  V30 8642 O 812.307 -0.505557 -1.89057 0
M  V30 8643 C 812.606 -3.56562 -0.24463 0
M  V30 8644 C 812.272 -4.39585 1.00379 0
M  V30 8645 C 810.934 -4.61992 1.346 0
M  V30 8646 C 813.286 -4.87881 1.83361 0
M  V30 8647 C 810.614 -5.2994 2.51755 0
M  V30 8648 C 812.966 -5.57119 2.99669 0
M  V30 8649 C 811.63 -5.77771 3.3427 0
M  V30 8650 H 810.9 -0.740829 -0.0159308 0
M  V30 8651 H 813.547 -1.79725 0.661143 0
M  V30 8652 H 811.852 -3.77969 -1.03183 0
M  V30 8653 H 813.549 -3.95185 -0.6804 0
M  V30 8654 H 810.139 -4.22385 0.727225 0
M  V30 8655 H 814.323 -4.70398 1.58237 0
M  V30 8656 H 809.579 -5.44133 2.788 0
M  V30 8657 H 813.753 -5.93516 3.64296 0
M  V30 8658 H 811.38 -6.30197 4.25154 0
M  V30 8659 N 812.955 -0.234822 -1.55841 0
M  V30 8660 C 813.885 0.664217 -2.23854 0
M  V30 8661 C 814.866 1.19076 -1.2147 0
M  V30 8662 O 816.051 1.23232 -1.50091 0
M  V30 8663 C 813.181 1.86666 -2.9287 0
M  V30 8664 C 812.135 1.47341 -4.01839 0
M  V30 8665 C 811.461 2.75571 -4.58219 0
M  V30 8666 C 812.761 0.653479 -5.18196 0
M  V30 8667 H 814.455 0.0971213 -2.99242 0
M  V30 8668 H 812.001 0.0452724 -1.43929 0
M  V30 8669 H 813.954 2.50116 -3.39146 0
M  V30 8670 H 812.678 2.45894 -2.1495 0
M  V30 8671 H 811.337 0.862314 -3.56314 0
M  V30 8672 H 810.985 3.32971 -3.77014 0
M  V30 8673 H 810.685 2.49987 -5.31771 0
M  V30 8674 H 812.209 3.39939 -5.07221 0
M  V30 8675 H 813.623 1.19198 -5.60771 0
M  V30 8676 H 812.02 0.494188 -5.98062 0
M  V30 8677 H 813.09 -0.337004 -4.83728 0
M  V30 8678 N 814.433 1.57553 0.0384317 0
M  V30 8679 C 815.343 2.09333 1.0591 0
M  V30 8680 C 816.359 1.0299 1.40247 0
M  V30 8681 O 817.535 1.34669 1.49754 0
M  V30 8682 C 814.6 2.55468 2.34386 0
M  V30 8683 C 813.661 3.76254 2.06716 0
M  V30 8684 C 812.894 4.20179 3.29067 0
M  V30 8685 O 813.117 3.637 4.39407 0
M  V30 8686 O 812.051 5.12697 3.15317 0
M  V30 8687 H 815.877 2.96683 0.649087 0
M  V30 8688 H 813.462 1.47211 0.254802 0
M  V30 8689 H 815.344 2.85514 3.09935 0
M  V30 8690 H 814.019 1.71234 2.74701 0
M  V30 8691 H 812.926 3.51241 1.28766 0
M  V30 8692 H 814.259 4.61443 1.71263 0
M  V30 8693 N 815.911 -0.310526 1.54511 0
M  V30 8694 C 817.322 -0.884142 1.64438 0
M  V30 8695 C 817.673 -1.88425 0.546855 0
M  V30 8696 O 816.798 -2.14049 -0.31811 0
M  V30 8697 C 817.393 -1.6104 2.9808 0
M  V30 8698 C 815.952 -2.13255 3.1016 0
M  V30 8699 C 815.099 -0.96213 2.60074 0
M  V30 8700 H 818.05 -0.0877666 1.58457 0
M  V30 8701 H 818.071 -2.47541 2.8897 0
M  V30 8702 H 817.583 -0.882255 3.77939 0
M  V30 8703 H 815.684 -2.89145 2.35002 0
M  V30 8704 H 815.797 -2.37361 4.16169 0
M  V30 8705 H 814.161 -1.34501 2.16291 0
M  V30 8706 H 814.944 -0.248098 3.42402 0
M  V30 8707 N 817.389 -1.46805 -0.573248 0
M  V30 8708 C 818.636 -1.52604 -1.3311 0
M  V30 8709 C 818.964 -0.181633 -1.9365 0
M  V30 8710 O 818.219 0.823775 -1.77517 0
M  V30 8711 C 818.518 -2.58001 -2.47326 0
M  V30 8712 C 818.184 -4.01747 -2.04719 0
M  V30 8713 C 816.846 -4.40881 -1.92814 0
M  V30 8714 C 819.198 -4.92008 -1.71982 0
M  V30 8715 C 816.526 -5.68129 -1.46445 0
M  V30 8716 C 818.878 -6.19703 -1.27089 0
M  V30 8717 C 817.542 -6.57733 -1.13768 0
M  V30 8718 H 816.812 -0.558417 -0.487084 0
M  V30 8719 H 819.459 -1.80327 -0.644538 0
M  V30 8720 H 817.764 -2.23974 -3.2147 0
M  V30 8721 H 819.461 -2.59715 -3.05531 0
M  V30 8722 H 816.051 -3.70819 -2.14922 0
M  V30 8723 H 820.235 -4.62485 -1.8006 0
M  V30 8724 H 815.491 -5.96359 -1.34783 0
M  V30 8725 H 819.665 -6.89064 -1.00814 0
M  V30 8726 H 817.292 -7.56228 -0.776142 0
M  V30 8727 N 818.867 0.818669 -1.34668 0
M  V30 8728 C 820.092 1.61193 -1.30505 0
M  V30 8729 C 820.517 1.87734 0.117341 0
M  V30 8730 O 819.875 1.45591 1.08042 0
M  V30 8731 C 819.923 2.92733 -2.1057 0
M  V30 8732 O 819.027 3.85 -1.47813 0
M  V30 8733 H 818.368 0.490085 -0.44801 0
M  V30 8734 H 820.898 1.01701 -1.77534 0
M  V30 8735 H 820.908 3.42262 -2.22082 0
M  V30 8736 H 819.583 2.7274 -3.13984 0
M  V30 8737 H 818.16 3.43525 -1.45069 0
M  V30 8738 N 820.346 1.18468 1.03938 0
M  V30 8739 C 821.309 0.914944 2.10146 0
M  V30 8740 C 822.309 -0.10022 1.60487 0
M  V30 8741 O 823.499 0.133365 1.73689 0
M  V30 8742 C 820.631 0.372993 3.38853 0
M  V30 8743 H 821.824 1.85677 2.35508 0
M  V30 8744 H 819.377 0.996876 1.20383 0
M  V30 8745 H 820.112 -0.57538 3.19155 0
M  V30 8746 H 819.897 1.1048 3.76213 0
M  V30 8747 H 821.387 0.203014 4.17106 0
M  V30 8748 N 821.824 -1.22873 0.986916 0
M  V30 8749 C 823.101 -1.86939 0.575589 0
M  V30 8750 C 823.481 -1.88656 -0.947205 0
M  V30 8751 O 822.829 -1.3728 -1.82665 0
M  V30 8752 C 823.039 -3.28117 1.18914 0
M  V30 8753 C 824.387 -4.04659 1.28593 0
M  V30 8754 O 825.411 -3.3736 1.14308 0
M  V30 8755 O 824.27 -5.25112 1.51391 0
M  V30 8756 H 821.364 -0.803748 0.194724 0
M  V30 8757 H 823.91 -1.30698 1.08241 0
M  V30 8758 H 822.682 -3.21468 2.231 0
M  V30 8759 H 822.305 -3.91956 0.667535 0
M  V30 8760 N 823.302 -0.75937 -1.38099 0
M  V30 8761 C 824.548 -0.318584 -2.00282 0
M  V30 8762 C 824.881 1.09854 -1.60143 0
M  V30 8763 O 824.156 1.75344 -0.841702 0
M  V30 8764 C 824.439 -0.448047 -3.57302 0
M  V30 8765 C 824.292 -1.9067 -4.07388 0
M  V30 8766 C 825.611 0.155119 -4.39827 0
M  V30 8767 H 822.73 -0.117233 -0.727616 0
M  V30 8768 H 825.372 -0.960097 -1.63958 0
M  V30 8769 H 823.522 0.0981003 -3.88376 0
M  V30 8770 H 825.194 -2.5116 -3.86932 0
M  V30 8771 H 823.437 -2.41979 -3.6004 0
M  V30 8772 H 824.108 -1.94841 -5.1647 0
M  V30 8773 H 826.584 -0.31073 -4.14938 0
M  V30 8774 H 825.46 0.0343264 -5.48889 0
M  V30 8775 H 825.721 1.24407 -4.24235 0
M  V30 8776 N 824.78 1.49157 -0.508906 0
M  V30 8777 C 826.026 2.03385 0.0248089 0
M  V30 8778 C 826.381 1.381 1.33964 0
M  V30 8779 O 825.674 0.510317 1.84679 0
M  V30 8780 C 825.868 3.56687 0.225717 0
M  V30 8781 C 825.697 4.36832 -1.06809 0
M  V30 8782 C 824.467 4.78556 -1.6221 0
M  V30 8783 C 826.665 4.74934 -1.97338 0
M  V30 8784 N 824.647 5.43158 -2.86098 0
M  V30 8785 C 826.018 5.39336 -3.05805 0
M  V30 8786 C 828.073 4.56872 -1.97921 0
M  V30 8787 C 826.776 5.87587 -4.1489 0
M  V30 8788 C 828.802 5.06089 -3.05987 0
M  V30 8789 C 828.164 5.70499 -4.13172 0
M  V30 8790 H 824.263 0.781349 -0.0318988 0
M  V30 8791 H 826.847 1.82233 -0.685518 0
M  V30 8792 H 825.018 3.77707 0.905108 0
M  V30 8793 H 826.75 3.97554 0.757147 0
M  V30 8794 H 823.505 4.59017 -1.16621 0
M  V30 8795 H 823.929 5.8004 -3.49116 0
M  V30 8796 H 828.571 4.06474 -1.16357 0
M  V30 8797 H 826.289 6.37002 -4.97247 0
M  V30 8798 H 829.875 4.93919 -3.07466 0
M  V30 8799 H 828.755 6.07893 -4.95415 0
M  V30 8800 N 826.258 0.243083 1.55714 0
M  V30 8801 C 827.504 -0.383287 1.99145 0
M  V30 8802 C 827.837 -1.57868 1.13098 0
M  V30 8803 O 827.112 -1.93535 0.193509 0
M  V30 8804 C 827.395 -0.796879 3.51172 0
M  V30 8805 C 827.248 0.403642 4.47985 0
M  V30 8806 C 828.567 -1.64525 4.08191 0
M  V30 8807 H 825.686 -0.137843 0.723995 0
M  V30 8808 H 828.328 0.343631 1.86867 0
M  V30 8809 H 826.478 -1.41625 3.61766 0
M  V30 8810 H 828.15 1.04204 4.49376 0
M  V30 8811 H 826.393 1.04741 4.20965 0
M  V30 8812 H 827.064 0.0709794 5.51954 0
M  V30 8813 H 829.54 -1.12246 4.00674 0
M  V30 8814 H 828.416 -1.9035 5.14838 0
M  V30 8815 H 828.677 -2.61582 3.56409 0
M  V30 8816 N 827.736 -1.57571 -0.0300757 0
M  V30 8817 C 828.669 -2.01874 -1.06406 0
M  V30 8818 C 829.647 -0.902901 -1.35227 0
M  V30 8819 O 830.831 -1.16865 -1.47901 0
M  V30 8820 C 827.958 -2.39093 -2.39901 0
M  V30 8821 C 827.004 -3.61108 -2.26943 0
M  V30 8822 S 827.837 -5.10287 -1.62382 0
M  V30 8823 C 828.993 -5.50747 -2.97369 0
M  V30 8824 H 829.226 -2.89261 -0.686703 0
M  V30 8825 H 826.759 -1.52523 -0.240017 0
M  V30 8826 H 828.717 -2.61207 -3.16672 0
M  V30 8827 H 827.378 -1.52159 -2.74784 0
M  V30 8828 H 826.571 -3.84803 -3.25489 0
M  V30 8829 H 826.173 -3.3884 -1.58314 0
M  V30 8830 H 828.465 -5.51369 -3.93698 0
M  V30 8831 H 829.408 -6.51071 -2.78409 0
M  V30 8832 H 829.816 -4.7825 -2.99895 0
M  V30 8833 N 829.214 0.302327 -1.54673 0
M  V30 8834 C 830.147 1.39738 -1.80412 0
M  V30 8835 C 831.125 1.48813 -0.655241 0
M  V30 8836 O 832.309 1.65895 -0.89505 0
M  V30 8837 C 829.436 2.7766 -1.93966 0
M  V30 8838 C 828.482 2.86014 -3.16383 0
M  V30 8839 S 829.315 2.48246 -4.74483 0
M  V30 8840 C 830.471 3.88198 -4.90971 0
M  V30 8841 H 830.704 1.17696 -2.73011 0
M  V30 8842 H 828.237 0.500364 -1.46068 0
M  V30 8843 H 830.195 3.571 -2.0246 0
M  V30 8844 H 828.856 2.96971 -1.02307 0
M  V30 8845 H 828.049 3.87174 -3.22664 0
M  V30 8846 H 827.651 2.14568 -3.06328 0
M  V30 8847 H 829.943 4.83181 -4.74913 0
M  V30 8848 H 830.886 3.86887 -5.93063 0
M  V30 8849 H 831.294 3.78139 -4.19131 0
M  V30 8850 N 830.692 1.47107 0.565454 0
M  V30 8851 C 831.939 1.53308 1.32299 0
M  V30 8852 C 832.267 0.1919 1.93551 0
M  V30 8853 O 831.522 -0.81435 1.77952 0
M  V30 8854 C 831.821 2.59309 2.45954 0
M  V30 8855 C 831.487 4.02827 2.02586 0
M  V30 8856 C 830.149 4.41897 1.90474 0
M  V30 8857 C 832.501 4.92913 1.6937 0
M  V30 8858 C 829.829 5.68898 1.4343 0
M  V30 8859 C 832.181 6.20368 1.238 0
M  V30 8860 C 830.845 6.58327 1.10278 0
M  V30 8861 H 830.115 0.560993 0.484116 0
M  V30 8862 H 832.762 1.80667 0.634965 0
M  V30 8863 H 831.067 2.25676 3.20277 0
M  V30 8864 H 832.764 2.61332 3.04149 0
M  V30 8865 H 829.354 3.71953 2.12952 0
M  V30 8866 H 833.538 4.63433 1.77605 0
M  V30 8867 H 828.794 5.97065 1.31618 0
M  V30 8868 H 832.968 6.89589 0.971586 0
M  V30 8869 H 830.595 7.56628 0.736027 0
M  V30 8870 N 832.17 -0.811516 1.35101 0
M  V30 8871 C 833.416 -1.57068 1.28287 0
M  V30 8872 C 833.749 -1.93667 -0.143808 0
M  V30 8873 O 833.024 -1.60953 -1.09199 0
M  V30 8874 C 833.307 -2.86259 2.18466 0
M  V30 8875 C 833.16 -2.56168 3.69727 0
M  V30 8876 C 834.479 -3.87924 2.07852 0
M  V30 8877 H 831.598 -0.569869 0.467353 0
M  V30 8878 H 834.24 -0.934023 1.65457 0
M  V30 8879 H 832.39 -3.4059 1.86898 0
M  V30 8880 H 834.062 -2.08059 4.11715 0
M  V30 8881 H 832.305 -1.89436 3.90252 0
M  V30 8882 H 832.976 -3.48344 4.28206 0
M  V30 8883 H 835.452 -3.4298 2.35593 0
M  V30 8884 H 834.328 -4.76106 2.73157 0
M  V30 8885 H 834.589 -4.2923 1.05896 0
M  V30 8886 N 833.648 -1.19017 -1.03309 0
M  V30 8887 C 834.581 -0.867457 -2.1107 0
M  V30 8888 C 835.559 0.173752 -1.61669 0
M  V30 8889 O 836.743 0.0510077 -1.88431 0
M  V30 8890 C 833.87 -0.297459 -3.37391 0
M  V30 8891 C 832.916 -1.31706 -4.05655 0
M  V30 8892 S 833.749 -2.87591 -4.51721 0
M  V30 8893 C 834.905 -2.32122 -5.81266 0
M  V30 8894 H 835.138 -1.78008 -2.38119 0
M  V30 8895 H 832.671 -1.01686 -1.16187 0
M  V30 8896 H 834.629 0.0248889 -4.10492 0
M  V30 8897 H 833.29 0.5934 -3.08444 0
M  V30 8898 H 832.483 -0.867264 -4.96482 0
M  V30 8899 H 832.085 -1.58603 -3.38705 0
M  V30 8900 H 834.377 -1.70855 -6.55603 0
M  V30 8901 H 835.32 -3.2128 -6.31019 0
M  V30 8902 H 835.728 -1.74858 -5.36736 0
M  V30 8903 N 835.127 1.22348 -0.993418 0
M  V30 8904 C 836.057 2.26584 -0.564088 0
M  V30 8905 C 837.038 1.65102 0.409298 0
M  V30 8906 O 838.223 1.91872 0.299819 0
M  V30 8907 C 835.353 3.47087 0.121554 0
M  V30 8908 C 834.307 4.21009 -0.770429 0
M  V30 8909 C 833.633 5.34678 0.0481586 0
M  V30 8910 C 834.933 4.79636 -2.06752 0
M  V30 8911 H 836.627 2.62749 -1.43538 0
M  V30 8912 H 834.173 1.26303 -0.691628 0
M  V30 8913 H 836.126 4.19166 0.433303 0
M  V30 8914 H 834.85 3.1002 1.0274 0
M  V30 8915 H 833.509 3.50764 -1.06583 0
M  V30 8916 H 833.157 4.93852 0.954933 0
M  V30 8917 H 832.857 5.85061 -0.545641 0
M  V30 8918 H 834.381 6.09573 0.353991 0
M  V30 8919 H 835.795 5.43654 -1.81969 0
M  V30 8920 H 834.192 5.4036 -2.61019 0
M  V30 8921 H 835.262 3.99659 -2.74592 0
M  V30 8922 N 836.605 0.766683 1.37694 0
M  V30 8923 C 837.535 0.163432 2.32927 0
M  V30 8924 C 838.516 -0.688861 1.55527 0
M  V30 8925 O 839.701 -0.627363 1.83787 0
M  V30 8926 C 836.831 -0.720416 3.39746 0
M  V30 8927 C 835.785 0.0301718 4.27989 0
M  V30 8928 C 835.111 -0.972788 5.25776 0
M  V30 8929 C 836.411 1.20623 5.0818 0
M  V30 8930 H 838.105 0.958988 2.83626 0
M  V30 8931 H 835.651 0.462601 1.36367 0
M  V30 8932 H 837.604 -1.15221 4.05342 0
M  V30 8933 H 836.328 -1.54844 2.8756 0
M  V30 8934 H 834.987 0.442685 3.63917 0
M  V30 8935 H 834.635 -1.79522 4.69873 0
M  V30 8936 H 834.335 -0.475145 5.85676 0
M  V30 8937 H 835.859 -1.40362 5.94248 0
M  V30 8938 H 837.273 0.851341 5.66944 0
M  V30 8939 H 835.67 1.63561 5.7738 0
M  V30 8940 H 836.74 2.01281 4.41151 0
M  V30 8941 N 838.083 -1.48885 0.516809 0
M  V30 8942 C 839.332 -2.01686 -0.0239899 0
M  V30 8943 C 839.645 -1.40029 -1.3657 0
M  V30 8944 O 840.851 -1.84249 -1.9941 0
M  V30 8945 C 839.307 -3.59779 -0.0931825 0
M  V30 8946 C 838.915 -4.30416 1.24283 0
M  V30 8947 C 840.659 -4.20471 -0.583507 0
M  V30 8948 C 838.566 -5.80408 1.13494 0
M  V30 8949 H 837.496 -0.753892 -0.0127376 0
M  V30 8950 H 840.147 -1.71273 0.65861 0
M  V30 8951 H 838.529 -3.86976 -0.840577 0
M  V30 8952 H 839.703 -4.14905 2.00476 0
M  V30 8953 H 838.018 -3.81539 1.66785 0
M  V30 8954 H 840.615 -5.30333 -0.681987 0
M  V30 8955 H 840.958 -3.84898 -1.58617 0
M  V30 8956 H 841.491 -3.97654 0.107814 0
M  V30 8957 H 838.23 -6.20532 2.11235 0
M  V30 8958 H 837.75 -5.98368 0.414167 0
M  V30 8959 H 839.429 -6.41781 0.820162 0
M  V30 8960 N 839.561 -0.251338 -1.55583 0
M  V30 8961 C 840.807 0.37272 -1.99346 0
M  V30 8962 C 841.14 1.57266 -1.13934 0
M  V30 8963 O 840.415 1.9343 -0.20377 0
M  V30 8964 C 840.698 0.778245 -3.5159 0
M  V30 8965 C 840.551 -0.427394 -4.47765 0
M  V30 8966 C 841.87 1.62358 -4.09057 0
M  V30 8967 H 838.989 0.134002 -0.724715 0
M  V30 8968 H 841.631 -0.353536 -1.86682 0
M  V30 8969 H 839.781 1.39704 -3.62512 0
M  V30 8970 H 841.453 -1.06586 -4.48818 0
M  V30 8971 H 839.696 -1.06972 -4.20404 0
M  V30 8972 H 840.367 -0.10025 -5.51909 0
M  V30 8973 H 842.843 1.1012 -4.01264 0
M  V30 8974 H 841.719 1.87617 -5.1584 0
M  V30 8975 H 841.98 2.59688 -3.57791 0
M  V30 8976 N 841.039 1.57585 0.0217189 0
M  V30 8977 C 842.264 1.94267 0.726309 0
M  V30 8978 C 842.689 0.851904 1.67703 0
M  V30 8979 O 842.047 -0.191792 1.80283 0
M  V30 8980 C 842.095 3.30023 1.45318 0
M  V30 8981 O 841.199 3.22791 2.5667 0
M  V30 8982 H 840.54 0.634777 0.194818 0
M  V30 8983 H 843.07 2.04585 -0.0249985 0
M  V30 8984 H 843.08 3.65084 1.82147 0
M  V30 8985 H 841.755 4.08972 0.755962 0
M  V30 8986 H 840.332 2.99373 2.2233 0
M  V30 8987 N 842.517 -0.29412 1.54831 0
M  V30 8988 C 843.48 -1.3461 1.85507 0
M  V30 8989 C 844.48 -1.43359 0.728343 0
M  V30 8990 O 845.67 -1.42875 0.996609 0
M  V30 8991 C 842.802 -2.73012 2.0415 0
M  V30 8992 H 843.995 -1.08651 2.79526 0
M  V30 8993 H 841.548 -0.531138 1.46999 0
M  V30 8994 H 842.283 -3.04183 1.12441 0
M  V30 8995 H 842.068 -2.68051 2.86166 0
M  V30 8996 H 843.558 -3.49061 2.29229 0
M  V30 8997 N 843.995 -1.47404 -0.557645 0
M  V30 8998 C 845.241 -1.54235 -1.31679 0
M  V30 8999 C 845.574 -0.203782 -1.93128 0
M  V30 9000 O 844.849 0.787536 -1.77843 0
M  V30 9001 C 845.132 -2.66003 -2.42723 0
M  V30 9002 C 844.985 -4.09475 -1.86145 0
M  V30 9003 C 846.304 -2.73685 -3.44652 0
M  V30 9004 H 843.423 -0.561466 -0.477415 0
M  V30 9005 H 846.065 -1.79459 -0.624067 0
M  V30 9006 H 844.215 -2.44627 -3.01811 0
M  V30 9007 H 845.887 -4.42213 -1.31321 0
M  V30 9008 H 844.13 -4.17774 -1.16823 0
M  V30 9009 H 844.801 -4.83451 -2.66418 0
M  V30 9010 H 847.277 -2.92968 -2.95481 0
M  V30 9011 H 846.153 -3.53665 -4.19777 0
M  V30 9012 H 846.414 -1.80726 -4.03473 0
M  V30 9013 N 845.473 0.80434 -1.35529 0
M  V30 9014 C 846.436 1.89788 -1.28503 0
M  V30 9015 C 847.436 1.59601 -0.195983 0
M  V30 9016 O 848.626 1.68292 -0.449827 0
M  V30 9017 C 845.758 3.26255 -0.98847 0
M  V30 9018 H 846.951 1.97436 -2.25741 0
M  V30 9019 H 844.504 1.00046 -1.20086 0
M  V30 9020 H 845.239 3.24294 -0.0200541 0
M  V30 9021 H 845.024 3.49551 -1.77641 0
M  V30 9022 H 846.514 4.06298 -0.964975 0
M  V30 9023 N 846.951 1.19563 1.02676 0
M  V30 9024 C 848.197 1.00105 1.76371 0
M  V30 9025 C 848.53 -0.466823 1.88506 0
M  V30 9026 O 847.805 -1.34665 1.40341 0
M  V30 9027 C 848.088 1.67321 3.18866 0
M  V30 9028 C 847.941 3.21486 3.1459 0
M  V30 9029 C 849.26 1.39794 4.17308 0
M  V30 9030 H 846.379 0.365075 0.640226 0
M  V30 9031 H 849.021 1.47433 1.19848 0
M  V30 9032 H 847.171 1.27081 3.67128 0
M  V30 9033 H 848.843 3.70953 2.7421 0
M  V30 9034 H 847.086 3.5292 2.52249 0
M  V30 9035 H 847.757 3.63665 4.15273 0
M  V30 9036 H 850.233 1.74685 3.77657 0
M  V30 9037 H 849.109 1.89371 5.15199 0
M  V30 9038 H 849.37 0.323505 4.40915 0
M  V30 9039 N 848.429 -1.21819 0.999893 0
M  V30 9040 C 849.676 -1.90752 0.679694 0
M  V30 9041 C 850.004 -1.77777 -0.789014 0
M  V30 9042 O 849.259 -1.14518 -1.58695 0
M  V30 9043 C 849.558 -3.4193 1.04012 0
M  V30 9044 C 849.224 -3.75098 2.50225 0
M  V30 9045 C 847.886 -3.83861 2.90179 0
M  V30 9046 C 850.238 -3.90706 3.44961 0
M  V30 9047 C 847.566 -4.05676 4.23844 0
M  V30 9048 C 849.918 -4.14027 4.78294 0
M  V30 9049 C 848.582 -4.21016 5.17979 0
M  V30 9050 H 847.852 -0.698012 0.248718 0
M  V30 9051 H 850.499 -1.44437 1.25738 0
M  V30 9052 H 848.804 -3.89947 0.380606 0
M  V30 9053 H 850.501 -3.93532 0.770301 0
M  V30 9054 H 847.091 -3.68865 2.18258 0
M  V30 9055 H 851.275 -3.83307 3.15261 0
M  V30 9056 H 846.531 -4.09316 4.5417 0
M  V30 9057 H 850.705 -4.25046 5.51642 0
M  V30 9058 H 848.332 -4.37672 6.21568 0
M  V30 9059 N 849.908 -0.773975 -1.37286 0
M  V30 9060 C 851.154 -0.339809 -1.99933 0
M  V30 9061 C 851.487 1.0815 -1.61299 0
M  V30 9062 O 850.762 1.74442 -0.860252 0
M  V30 9063 C 851.045 -0.485919 -3.56806 0
M  V30 9064 C 850.898 -1.9498 -4.05343 0
M  V30 9065 C 852.217 0.108461 -4.39966 0
M  V30 9066 H 849.336 -0.124944 -0.726332 0
M  V30 9067 H 851.978 -0.977433 -1.6293 0
M  V30 9068 H 850.128 0.0569023 -3.88458 0
M  V30 9069 H 851.8 -2.5525 -3.84246 0
M  V30 9070 H 850.043 -2.45784 -3.57453 0
M  V30 9071 H 850.714 -2.00308 -5.14374 0
M  V30 9072 H 853.19 -0.354722 -4.14585 0
M  V30 9073 H 852.066 -0.0238926 -5.48895 0
M  V30 9074 H 852.327 1.19901 -4.25531 0
M  V30 9075 N 851.386 1.48609 -0.524698 0
M  V30 9076 C 852.633 2.02497 0.0113214 0
M  V30 9077 C 852.961 1.40229 1.34781 0
M  V30 9078 O 852.216 0.53557 1.88229 0
M  V30 9079 C 852.515 3.56906 0.187873 0
M  V30 9080 C 852.181 4.37932 -1.07359 0
M  V30 9081 C 850.843 4.59792 -1.41933 0
M  V30 9082 C 853.195 4.84902 -1.911 0
M  V30 9083 C 850.523 5.25868 -2.60154 0
M  V30 9084 C 852.875 5.52281 -3.08495 0
M  V30 9085 C 851.539 5.7238 -3.4342 0
M  V30 9086 H 850.809 0.740988 0.0041428 0
M  V30 9087 H 853.456 1.78651 -0.689652 0
M  V30 9088 H 851.761 3.79563 0.971572 0
M  V30 9089 H 853.458 3.96218 0.617443 0
M  V30 9090 H 850.048 4.21175 -0.794331 0
M  V30 9091 H 854.232 4.67821 -1.65701 0
M  V30 9092 H 849.488 5.39628 -2.87422 0
M  V30 9093 H 853.662 5.87645 -3.73692 0
M  V30 9094 H 851.289 6.23354 -4.35126 0
M  V30 9095 N 852.864 0.259585 1.55447 0
M  V30 9096 C 853.774 -0.645026 2.25558 0
M  V30 9097 C 854.79 -1.18291 1.27606 0
M  V30 9098 O 855.966 -1.21649 1.6051 0
M  V30 9099 C 853.031 -1.81964 2.9511 0
M  V30 9100 C 852.092 -1.31997 4.08504 0
M  V30 9101 C 851.325 -2.43861 4.74729 0
M  V30 9102 O 851.548 -3.62876 4.40088 0
M  V30 9103 O 850.482 -2.12898 5.6299 0
M  V30 9104 H 854.308 -0.0775399 3.03601 0
M  V30 9105 H 851.893 0.0275859 1.49375 0
M  V30 9106 H 853.775 -2.50485 3.38873 0
M  V30 9107 H 852.45 -2.37451 2.19997 0
M  V30 9108 H 851.357 -0.601676 3.6923 0
M  V30 9109 H 852.69 -0.811045 4.85472 0
M  V30 9110 N 854.342 -1.57594 -0.0133615 0
M  V30 9111 C 855.572 -1.93969 -0.711295 0
M  V30 9112 C 855.98 -0.859084 -1.68572 0
M  V30 9113 O 855.323 0.171842 -1.82894 0
M  V30 9114 C 855.385 -3.2625 -1.51001 0
M  V30 9115 C 855.049 -4.51628 -0.698645 0
M  V30 9116 C 856.046 -5.19899 0.00791185 0
M  V30 9117 C 853.731 -4.98095 -0.648553 0
M  V30 9118 C 855.725 -6.32928 0.753691 0
M  V30 9119 C 853.412 -6.11017 0.10096 0
M  V30 9120 C 854.41 -6.78289 0.800828 0
M  V30 9121 O 854.098 -7.89048 1.53814 0
M  V30 9122 H 853.83 -0.6445 -0.203951 0
M  V30 9123 H 856.384 -2.05378 0.0298267 0
M  V30 9124 H 854.614 -3.11211 -2.29531 0
M  V30 9125 H 856.303 -3.47835 -2.09202 0
M  V30 9126 H 857.069 -4.84995 -0.0217192 0
M  V30 9127 H 852.948 -4.45568 -1.18282 0
M  V30 9128 H 856.492 -6.85371 1.3005 0
M  V30 9129 H 852.389 -6.45364 0.132459 0
M  V30 9130 H 853.157 -8.05492 1.45345 0
M  V30 9131 N 855.82 0.285905 -1.54985 0
M  V30 9132 C 857.067 1.0192 -1.74982 0
M  V30 9133 C 857.395 1.86743 -0.543816 0
M  V30 9134 O 856.65 1.89874 0.473972 0
M  V30 9135 C 856.949 1.94193 -3.0004 0
M  V30 9136 C 856.615 1.25225 -4.33162 0
M  V30 9137 C 855.277 1.06149 -4.69346 0
M  V30 9138 C 857.629 0.760427 -5.15623 0
M  V30 9139 C 854.957 0.365991 -5.85557 0
M  V30 9140 C 857.309 0.0785787 -6.32551 0
M  V30 9141 C 855.973 -0.124002 -6.67385 0
M  V30 9142 H 855.243 0.372951 -0.640304 0
M  V30 9143 H 857.89 0.292652 -1.89251 0
M  V30 9144 H 856.195 2.73426 -2.80616 0
M  V30 9145 H 857.892 2.51029 -3.12707 0
M  V30 9146 H 854.482 1.41081 -4.04715 0
M  V30 9147 H 858.666 0.895466 -4.88155 0
M  V30 9148 H 853.922 0.198193 -6.11079 0
M  V30 9149 H 858.096 -0.310339 -6.95708 0
M  V30 9150 H 855.723 -0.664918 -7.57287 0
M  V30 9151 N 857.298 1.47698 0.54982 0
M  V30 9152 C 858.523 1.58579 1.33669 0
M  V30 9153 C 858.948 0.239049 1.86575 0
M  V30 9154 O 858.306 -0.786256 1.63364 0
M  V30 9155 C 858.354 2.62029 2.47736 0
M  V30 9156 O 857.458 2.17813 3.50188 0
M  V30 9157 H 856.799 0.532447 0.396732 0
M  V30 9158 H 859.329 1.93536 0.6637 0
M  V30 9159 H 859.339 2.82682 2.94202 0
M  V30 9160 H 858.014 3.59812 2.08586 0
M  V30 9161 H 856.591 2.07291 3.09976 0
M  V30 9162 N 858.776 -0.797141 1.35954 0
M  V30 9163 C 860.187 -1.37179 1.26644 0
M  V30 9164 C 860.538 -1.9596 -0.0971046 0
M  V30 9165 O 859.663 -1.91994 -0.998355 0
M  V30 9166 C 860.258 -2.49395 2.2932 0
M  V30 9167 C 858.817 -3.02697 2.23722 0
M  V30 9168 C 857.964 -1.75721 2.14517 0
M  V30 9169 H 860.915 -0.599407 1.46945 0
M  V30 9170 H 860.936 -3.28204 1.92515 0
M  V30 9171 H 860.448 -2.06584 3.2855 0
M  V30 9172 H 858.549 -3.49948 1.27934 0
M  V30 9173 H 858.662 -3.60036 3.16087 0
M  V30 9174 H 857.026 -1.97649 1.60646 0
M  V30 9175 H 857.809 -1.35049 3.15621 0
M  V30 9176 N 860.254 -1.20106 -1.0204 0
M  V30 9177 C 861.5 -1.01039 -1.75838 0
M  V30 9178 C 861.833 0.456819 -1.88751 0
M  V30 9179 O 861.108 1.33919 -1.41053 0
M  V30 9180 C 861.391 -1.69009 -3.17975 0
M  V30 9181 C 861.244 -3.2315 -3.1288 0
M  V30 9182 C 862.563 -1.42005 -4.16561 0
M  V30 9183 H 859.682 -0.368465 -0.638281 0
M  V30 9184 H 862.324 -1.48066 -1.19064 0
M  V30 9185 H 860.474 -1.29026 -3.66449 0
M  V30 9186 H 862.146 -3.72402 -2.72239 0
M  V30 9187 H 860.389 -3.54253 -2.50374 0
M  V30 9188 H 861.06 -3.65862 -4.13339 0
M  V30 9189 H 863.536 -1.76685 -3.76725 0
M  V30 9190 H 862.412 -1.92101 -5.14187 0
M  V30 9191 H 862.673 -0.346884 -4.40737 0
M  V30 9192 N 861.732 1.21287 -1.00634 0
M  V30 9193 C 862.98 1.90013 -0.688438 0
M  V30 9194 C 863.301 1.78573 0.783365 0
M  V30 9195 O 862.571 1.1815 1.56261 0
M  V30 9196 H 861.151 0.703336 -0.251648 0
M  V30 9197 H 863.813 1.47346 -1.27574 0
M  V30 9198 H 862.909 2.96879 -0.962781 0
M  V30 9199 N 863.21 0.781244 1.36873 0
M  V30 9200 C 864.44 0.361042 2.03421 0
M  V30 9201 C 864.848 -1.02471 1.59048 0
M  V30 9202 O 864.191 -1.66712 0.771552 0
M  V30 9203 C 864.253 0.336202 3.57924 0
M  V30 9204 C 863.917 1.66815 4.25467 0
M  V30 9205 C 864.914 2.62224 4.48926 0
M  V30 9206 C 862.599 1.9452 4.63106 0
M  V30 9207 C 864.593 3.83538 5.09095 0
M  V30 9208 C 862.28 3.16103 5.22994 0
M  V30 9209 C 863.278 4.10431 5.45926 0
M  V30 9210 O 862.966 5.29871 6.04559 0
M  V30 9211 H 862.698 0.147956 0.65961 0
M  V30 9212 H 865.252 1.05895 1.75998 0
M  V30 9213 H 863.482 -0.418147 3.84433 0
M  V30 9214 H 865.171 -0.0582199 4.05858 0
M  V30 9215 H 865.937 2.42104 4.20251 0
M  V30 9216 H 861.816 1.21921 4.44585 0
M  V30 9217 H 865.36 4.57178 5.2691 0
M  V30 9218 H 861.257 3.36104 5.51094 0
M  V30 9219 H 862.025 5.30825 6.23031 0
M  V30 9220 N 864.689 -1.48329 0.532571 0
M  V30 9221 C 865.637 -2.31336 -0.242133 0
M  V30 9222 C 866.631 -1.41391 -0.933006 0
M  V30 9223 O 867.837 -1.58284 -0.857096 0
M  V30 9224 H 864.212 -0.745724 -0.0969536 0
M  V30 9225 H 866.183 -2.94555 0.477504 0
M  V30 9226 C 864.932 -3.23501 -1.27446 0
M  V30 9227 H 864.255 -3.92659 -0.752261 0
M  V30 9228 H 865.695 -3.84461 -1.78789 0
M  V30 9229 C 864.154 -2.45288 -2.30944 0
M  V30 9230 O 864.684 -2.17955 -3.37429 0
M  V30 9231 N 862.89 -2.06737 -2.04226 0
M  V30 9232 H 862.437 -2.29166 -1.17647 0
M  V30 9233 H 862.395 -1.54719 -2.73696 0
M  V30 9234 N 866.167 -0.267825 -1.55308 0
M  V30 9235 C 867.583 0.0865107 -1.59365 0
M  V30 9236 C 867.783 1.55205 -1.28505 0
M  V30 9237 O 866.839 2.29978 -1.04241 0
M  V30 9238 C 868.152 -0.28155 -2.99379 0
M  V30 9239 C 869.7 -0.227565 -3.12172 0
M  V30 9240 C 870.175 -0.569959 -4.5444 0
M  V30 9241 N 871.666 -0.521238 -4.60258 0
M  V30 9242 C 872.401 -0.759061 -5.68354 0
M  V30 9243 N 871.897 -1.06112 -6.84626 0
M  V30 9244 N 873.69 -0.688351 -5.57869 0
M  V30 9245 H 865.841 -1.22332 -1.73633 0
M  V30 9246 H 868.104 -0.493703 -0.809297 0
M  V30 9247 H 867.81 -1.3005 -3.26772 0
M  V30 9248 H 867.684 0.381192 -3.75269 0
M  V30 9249 H 870.071 0.782093 -2.84548 0
M  V30 9250 H 870.152 -0.924461 -2.38511 0
M  V30 9251 H 869.796 -1.57727 -4.82788 0
M  V30 9252 H 869.726 0.148646 -5.2639 0
M  V30 9253 H 872.217 -0.297359 -3.76728 0
M  V30 9254 H 872.53 -1.22945 -7.62958 0
M  V30 9255 H 870.875 -1.09881 -6.86259 0
M  V30 9256 H 874.066 -0.452268 -4.6591 0
M  V30 9257 H 874.239 -0.877081 -6.42037 0
M  V30 9258 N 867.645 1.57599 0.00500368 0
M  V30 9259 C 868.885 1.92205 0.695456 0
M  V30 9260 C 869.249 0.868894 1.71214 0
M  V30 9261 O 870.45 1.10004 2.4526 0
M  V30 9262 C 868.721 3.31882 1.32625 0
M  V30 9263 S 870.28 3.88364 2.04252 0
M  V30 9264 H 867.098 0.672826 0.22984 0
M  V30 9265 H 869.7 1.95435 -0.0504824 0
M  V30 9266 H 868.404 4.06375 0.573396 0
M  V30 9267 H 867.935 3.32013 2.11023 0
M  V30 9268 H 869.95 3.69035 3.31704 0
M  V30 9269 N 869.123 -0.277682 1.55134 0
M  V30 9270 C 870.053 -1.34742 1.90701 0
M  V30 9271 C 871.034 -1.51757 0.768354 0
M  V30 9272 O 872.219 -1.64879 1.02609 0
M  V30 9273 C 869.349 -2.70775 2.17481 0
M  V30 9274 C 868.303 -2.68497 3.33307 0
M  V30 9275 C 867.629 -4.08037 3.45557 0
M  V30 9276 C 868.929 -2.28178 4.69821 0
M  V30 9277 H 870.623 -1.05224 2.803 0
M  V30 9278 H 868.169 -0.504738 1.34864 0
M  V30 9279 H 870.122 -3.45719 2.40949 0
M  V30 9280 H 868.846 -3.01867 1.24676 0
M  V30 9281 H 867.505 -1.9601 3.09799 0
M  V30 9282 H 867.153 -4.36344 2.50226 0
M  V30 9283 H 866.853 -4.07409 4.23429 0
M  V30 9284 H 868.377 -4.84726 3.71312 0
M  V30 9285 H 869.791 -2.92843 4.92865 0
M  V30 9286 H 868.188 -2.3872 5.50575 0
M  V30 9287 H 869.258 -1.23308 4.6896 0
M  V30 9288 N 870.601 -1.47988 -0.541979 0
M  V30 9289 C 871.564 -1.61148 -1.62984 0
M  V30 9290 C 872.564 -0.48553 -1.53295 0
M  V30 9291 O 873.754 -0.751012 -1.5718 0
M  V30 9292 C 870.886 -1.57038 -3.02576 0
M  V30 9293 H 872.079 -2.58138 -1.52659 0
M  V30 9294 H 869.632 -1.36405 -0.763106 0
M  V30 9295 H 870.367 -0.614807 -3.18419 0
M  V30 9296 H 870.152 -2.38769 -3.11018 0
M  V30 9297 H 871.642 -1.69416 -3.81691 0
M  V30 9298 N 872.079 0.78992 -1.36375 0
M  V30 9299 C 873.356 1.53584 -1.21126 0
M  V30 9300 C 873.736 2.10124 0.202785 0
M  V30 9301 O 873.084 1.93936 1.20835 0
M  V30 9302 C 873.294 2.63117 -2.29282 0
M  V30 9303 C 874.642 3.31013 -2.65924 0
M  V30 9304 O 875.666 2.734 -2.28321 0
M  V30 9305 O 874.525 4.35129 -3.30643 0
M  V30 9306 H 871.619 0.679366 -0.471583 0
M  V30 9307 H 874.165 0.828446 -1.48104 0
M  V30 9308 H 872.937 2.19329 -3.24053 0
M  V30 9309 H 872.56 3.41476 -2.03666 0
M  V30 9310 N 873.557 1.20646 1.01402 0
M  V30 9311 C 874.805 1.01618 1.74695 0
M  V30 9312 C 875.126 -0.452438 1.89679 0
M  V30 9313 O 874.396 -1.32693 1.44116 0
M  V30 9314 H 872.976 0.373013 0.647202 0
M  V30 9315 H 875.638 1.518 1.22241 0
M  V30 9316 H 874.734 1.47666 2.74957 0
M  V30 9317 N 875.035 -1.20752 1.01276 0
M  V30 9318 C 876.451 -1.42084 0.726934 0
M  V30 9319 C 876.651 -1.89138 -0.694907 0
M  V30 9320 O 875.707 -2.05783 -1.4632 0
M  V30 9321 C 877.02 -2.44575 1.74938 0
M  V30 9322 C 878.568 -2.58347 1.76708 0
M  V30 9323 C 879.043 -3.64078 2.77869 0
M  V30 9324 N 880.534 -3.71558 2.76585 0
M  V30 9325 C 881.269 -4.53016 3.51517 0
M  V30 9326 N 880.765 -5.38309 4.36114 0
M  V30 9327 N 882.558 -4.47512 3.40132 0
M  V30 9328 H 874.709 -0.885228 1.93074 0
M  V30 9329 H 876.972 -0.451075 0.833808 0
M  V30 9330 H 876.678 -2.1699 2.76782 0
M  V30 9331 H 876.552 -3.43503 1.55838 0
M  V30 9332 H 878.939 -2.85265 0.755516 0
M  V30 9333 H 879.02 -1.59628 1.99882 0
M  V30 9334 H 878.664 -3.37905 3.79187 0
M  V30 9335 H 878.594 -4.62412 2.51958 0
M  V30 9336 H 881.085 -3.10629 2.15216 0
M  V30 9337 H 881.398 -5.9754 4.90068 0
M  V30 9338 H 879.743 -5.37824 4.40194 0
M  V30 9339 H 882.934 -3.79912 2.73467 0
M  V30 9340 H 883.107 -5.10759 3.98784 0
M  V30 9341 N 876.513 -0.788492 -1.36457 0
M  V30 9342 C 877.423 -0.187385 -2.3385 0
M  V30 9343 C 878.439 0.659984 -1.60998 0
M  V30 9344 O 879.615 0.575986 -1.92988 0
M  V30 9345 C 876.68 0.668525 -3.40194 0
M  V30 9346 C 875.741 -0.197234 -4.28847 0
M  V30 9347 C 874.974 0.61792 -5.30111 0
M  V30 9348 O 875.197 1.85396 -5.3943 0
M  V30 9349 O 874.131 0.0183016 -6.01897 0
M  V30 9350 H 877.957 -0.992617 -2.87021 0
M  V30 9351 H 875.542 -0.549934 -1.3891 0
M  V30 9352 H 877.424 1.15663 -4.05216 0
M  V30 9353 H 876.099 1.45166 -2.89324 0
M  V30 9354 H 875.006 -0.73207 -3.66867 0
M  V30 9355 H 876.339 -0.943863 -4.83065 0
M  V30 9356 N 877.991 1.48044 -0.54043 0
M  V30 9357 C 879.402 1.86418 -0.102662 0
M  V30 9358 C 879.753 1.4489 1.32293 0
M  V30 9359 O 878.878 0.844319 1.99249 0
M  V30 9360 C 879.473 3.38324 -0.179533 0
M  V30 9361 C 878.032 3.75852 0.203098 0
M  V30 9362 C 877.179 2.72097 -0.534637 0
M  V30 9363 H 880.13 1.398 -0.751103 0
M  V30 9364 H 880.151 3.75641 0.606147 0
M  V30 9365 H 879.663 3.68518 -1.21721 0
M  V30 9366 H 877.764 3.51272 1.24252 0
M  V30 9367 H 877.877 4.78884 -0.143784 0
M  V30 9368 H 876.241 2.54692 0.0203358 0
M  V30 9369 H 877.024 3.05135 -1.57314 0
M  V30 9370 N 879.47 0.276058 1.55163 0
M  V30 9371 C 880.718 -0.339782 1.99223 0
M  V30 9372 C 881.039 -1.56307 1.16589 0
M  V30 9373 O 880.309 -1.94225 0.25564 0
M  V30 9374 H 878.889 -0.128534 0.735859 0
M  V30 9375 H 881.551 0.381612 1.91128 0
M  V30 9376 H 880.647 -0.629 3.05696 0
M  V30 9377 N 880.948 -1.576 0.00335426 0
M  V30 9378 C 882.196 -1.90336 -0.679446 0
M  V30 9379 C 882.517 -0.877777 -1.74127 0
M  V30 9380 O 881.787 0.0843585 -1.95718 0
M  V30 9381 H 880.367 -0.702509 -0.253948 0
M  V30 9382 H 883.029 -1.94848 0.0450731 0
M  V30 9383 H 882.125 -2.90197 -1.14857 0
M  V30 9384 N 882.426 0.269451 -1.5528 0
M  V30 9385 C 883.837 0.840233 -1.66724 0
M  V30 9386 C 884.188 1.86909 -0.596621 0
M  V30 9387 O 883.313 2.14817 0.261246 0
M  V30 9388 C 883.908 1.5308 -3.02245 0
M  V30 9389 C 882.467 2.04957 -3.15705 0
M  V30 9390 C 881.614 0.892838 -2.62533 0
M  V30 9391 H 884.565 0.0457236 -1.58634 0
M  V30 9392 H 884.586 2.39792 -2.95432 0
M  V30 9393 H 884.098 0.781741 -3.80145 0
M  V30 9394 H 882.199 2.82813 -2.42585 0
M  V30 9395 H 882.312 2.26244 -4.22316 0
M  V30 9396 H 880.676 1.28719 -2.19781 0
M  V30 9397 H 881.459 0.157229 -3.4294 0
M  V30 9398 N 883.904 1.48273 0.534124 0
M  V30 9399 C 885.129 1.59988 1.31979 0
M  V30 9400 C 885.554 0.258824 1.86311 0
M  V30 9401 O 884.912 -0.768885 1.64188 0
M  V30 9402 C 884.96 2.64642 2.44943 0
M  V30 9403 O 884.064 2.21515 3.47858 0
M  V30 9404 H 883.405 0.536625 0.391063 0
M  V30 9405 H 885.935 1.94229 0.643135 0
M  V30 9406 H 885.945 2.85786 2.91187 0
M  V30 9407 H 884.62 3.62004 2.04758 0
M  V30 9408 H 883.197 2.10567 3.0776 0
M  V30 9409 N 885.382 -0.782676 1.36792 0
M  V30 9410 C 886.629 -1.54083 1.31395 0
M  V30 9411 C 886.957 -1.94217 -0.104797 0
M  V30 9412 O 886.212 -1.63491 -1.0756 0
M  V30 9413 C 886.511 -2.82542 2.18872 0
M  V30 9414 C 886.177 -2.61512 3.67317 0
M  V30 9415 C 884.839 -2.55486 4.07775 0
M  V30 9416 C 887.191 -2.42389 4.61407 0
M  V30 9417 C 884.519 -2.28311 5.40454 0
M  V30 9418 C 886.871 -2.1674 5.94312 0
M  V30 9419 C 885.535 -2.09151 6.33887 0
M  V30 9420 H 884.805 -0.563829 0.48081 0
M  V30 9421 H 887.452 -0.902436 1.68903 0
M  V30 9422 H 885.757 -3.50883 1.74323 0
M  V30 9423 H 887.454 -3.40367 2.12017 0
M  V30 9424 H 884.044 -2.67062 3.35225 0
M  V30 9425 H 888.228 -2.46043 4.31018 0
M  V30 9426 H 883.484 -2.20922 5.70091 0
M  V30 9427 H 887.658 -2.0094 6.6678 0
M  V30 9428 H 885.285 -1.87857 7.36623 0
M  V30 9429 N 886.86 -1.21182 -1.00761 0
M  V30 9430 C 888.088 -1.05335 -1.78079 0
M  V30 9431 C 888.503 0.396988 -1.84579 0
M  V30 9432 O 887.86 1.27548 -1.30529 0
M  V30 9433 C 887.911 -1.64089 -3.22113 0
M  V30 9434 O 887.632 -3.03448 -3.15992 0
M  V30 9435 C 889.133 -1.53318 -4.15943 0
M  V30 9436 H 886.353 -0.37005 -0.559736 0
M  V30 9437 H 888.897 -1.60463 -1.26775 0
M  V30 9438 H 887.052 -1.13059 -3.70535 0
M  V30 9439 H 887.466 -3.31492 -4.06465 0
M  V30 9440 H 888.94 -1.99174 -5.14814 0
M  V30 9441 H 889.417 -0.487166 -4.3649 0
M  V30 9442 H 890.023 -2.03582 -3.73409 0
M  V30 9443 N 888.338 1.20213 -1.01915 0
M  V30 9444 C 889.587 1.88968 -0.705261 0
M  V30 9445 C 889.9 1.79869 0.768531 0
M  V30 9446 O 891.106 2.43783 1.19508 0
M  V30 9447 C 889.562 3.38911 -1.21109 0
M  V30 9448 C 889.17 3.5659 -2.71197 0
M  V30 9449 C 890.914 4.13204 -0.97275 0
M  V30 9450 C 888.821 5.00372 -3.15248 0
M  V30 9451 H 887.751 0.707715 -0.260107 0
M  V30 9452 H 890.402 1.35977 -1.23217 0
M  V30 9453 H 888.784 3.9124 -0.612152 0
M  V30 9454 H 889.958 3.14635 -3.36662 0
M  V30 9455 H 888.273 2.95671 -2.93202 0
M  V30 9456 H 890.87 5.19221 -1.27726 0
M  V30 9457 H 891.213 4.16201 0.09072 0
M  V30 9458 H 891.746 3.66983 -1.5352 0
M  V30 9459 H 888.485 5.02532 -4.20882 0
M  V30 9460 H 888.005 5.43127 -2.54505 0
M  V30 9461 H 889.684 5.68969 -3.08032 0
M  V30 9462 N 889.816 0.795718 1.36037 0
M  V30 9463 C 891.064 0.370291 1.98679 0
M  V30 9464 C 891.385 -1.06332 1.63458 0
M  V30 9465 O 890.655 -1.73394 0.911671 0
M  V30 9466 H 889.235 0.133928 0.734896 0
M  V30 9467 H 891.897 1.01915 1.6613 0
M  V30 9468 H 890.993 0.467207 3.08583 0
M  V30 9469 N 891.294 -1.47756 0.548274 0
M  V30 9470 C 892.241 -2.29893 -0.204408 0
M  V30 9471 C 893.211 -1.38509 -0.916761 0
M  V30 9472 O 894.396 -1.67472 -0.91421 0
M  V30 9473 C 891.536 -3.22282 -1.23403 0
M  V30 9474 C 890.649 -4.28753 -0.528654 0
M  V30 9475 C 889.784 -5.08303 -1.54279 0
M  V30 9476 C 888.823 -6.06557 -0.821893 0
M  V30 9477 N 887.96 -6.79098 -1.78243 0
M  V30 9478 H 892.8 -2.93739 0.502163 0
M  V30 9479 H 890.337 -1.44793 0.259471 0
M  V30 9480 H 892.295 -3.74262 -1.84348 0
M  V30 9481 H 890.925 -2.6032 -1.90875 0
M  V30 9482 H 889.977 -3.79899 0.195132 0
M  V30 9483 H 891.289 -4.98787 0.0365066 0
M  V30 9484 H 890.443 -5.64388 -2.22602 0
M  V30 9485 H 889.182 -4.3815 -2.14186 0
M  V30 9486 H 888.187 -5.49659 -0.12469 0
M  V30 9487 H 889.412 -6.78715 -0.228685 0
M  V30 9488 H 887.358 -6.11682 -2.37025 0
M  V30 9489 H 887.275 -7.4527 -1.26919 0
M  V30 9490 H 888.543 -7.39762 -2.45709 0
M  V30 9491 N 892.772 -0.284283 -1.55015 0
M  V30 9492 C 893.735 0.586182 -2.21577 0
M  V30 9493 C 894.735 1.07427 -1.1965 0
M  V30 9494 O 895.925 0.972977 -1.44495 0
M  V30 9495 C 893.057 1.80973 -2.88897 0
M  V30 9496 H 894.25 0.00487253 -2.999 0
M  V30 9497 H 891.803 -0.0349696 -1.56261 0
M  V30 9498 H 892.538 2.43131 -2.14611 0
M  V30 9499 H 892.323 1.46757 -3.636 0
M  V30 9500 H 893.813 2.42853 -3.39724 0
M  V30 9501 N 894.251 1.57596 -0.0117121 0
M  V30 9502 C 895.5 1.9025 0.669921 0
M  V30 9503 C 895.813 0.887986 1.74282 0
M  V30 9504 O 897.019 1.10516 2.47989 0
M  V30 9505 C 895.475 3.37762 1.24277 0
M  V30 9506 C 895.083 4.47535 0.204076 0
M  V30 9507 C 896.827 3.79509 1.90192 0
M  V30 9508 C 894.734 5.86132 0.787577 0
M  V30 9509 H 893.664 0.709935 0.253984 0
M  V30 9510 H 896.315 1.8335 -0.0741718 0
M  V30 9511 H 894.697 3.39537 2.03791 0
M  V30 9512 H 895.871 4.57294 -0.56733 0
M  V30 9513 H 894.186 4.14881 -0.355305 0
M  V30 9514 H 896.783 4.80402 2.34773 0
M  V30 9515 H 897.126 3.13643 2.7374 0
M  V30 9516 H 897.659 3.80084 1.17394 0
M  V30 9517 H 894.398 6.55499 -0.00938418 0
M  V30 9518 H 893.918 5.80014 1.52787 0
M  V30 9519 H 895.597 6.34158 1.28265 0
M  V30 9520 N 895.729 -0.261212 1.5542 0
M  V30 9521 C 896.975 -0.988533 1.77763 0
M  V30 9522 C 897.33 -1.83504 0.578286 0
M  V30 9523 O 896.623 -1.8674 -0.428808 0
M  V30 9524 C 896.817 -1.89395 3.03091 0
M  V30 9525 C 896.646 -1.13658 4.351 0
M  V30 9526 C 895.416 -0.847467 4.98143 0
M  V30 9527 C 897.614 -0.52118 5.11652 0
M  V30 9528 N 895.596 -0.0645324 6.13866 0
M  V30 9529 C 896.967 0.127016 6.1987 0
M  V30 9530 C 899.022 -0.430206 4.96038 0
M  V30 9531 C 897.725 0.857433 7.14171 0
M  V30 9532 C 899.751 0.286645 5.90705 0
M  V30 9533 C 899.113 0.923534 6.9832 0
M  V30 9534 H 895.212 -0.343317 0.702608 0
M  V30 9535 H 897.796 -0.263035 1.92915 0
M  V30 9536 H 895.967 -2.5916 2.89293 0
M  V30 9537 H 897.699 -2.55576 3.13788 0
M  V30 9538 H 894.454 -1.15569 4.59283 0
M  V30 9539 H 894.878 0.31461 6.76269 0
M  V30 9540 H 899.52 -0.908278 4.12929 0
M  V30 9541 H 897.238 1.34715 7.96792 0
M  V30 9542 H 900.824 0.357511 5.80701 0
M  V30 9543 H 899.704 1.46939 7.70311 0
M  V30 9544 N 897.207 -1.48554 -0.526253 0
M  V30 9545 C 898.137 -1.66252 -1.63959 0
M  V30 9546 C 899.118 -0.511351 -1.62232 0
M  V30 9547 O 900.303 -0.744322 -1.7937 0
M  V30 9548 C 897.433 -1.70556 -3.02536 0
M  V30 9549 C 896.387 -2.8521 -3.19123 0
M  V30 9550 C 895.713 -2.74606 -4.58798 0
M  V30 9551 C 897.013 -4.26463 -3.0154 0
M  V30 9552 H 898.707 -2.59459 -1.49404 0
M  V30 9553 H 896.253 -1.24862 -0.717326 0
M  V30 9554 H 898.206 -1.81524 -3.80298 0
M  V30 9555 H 896.93 -0.739297 -3.18123 0
M  V30 9556 H 895.589 -2.73802 -2.43779 0
M  V30 9557 H 895.237 -1.75941 -4.71226 0
M  V30 9558 H 894.937 -3.51544 -4.70841 0
M  V30 9559 H 896.461 -2.87548 -5.38655 0
M  V30 9560 H 897.875 -4.38685 -3.69091 0
M  V30 9561 H 896.272 -5.04428 -3.25073 0
M  V30 9562 H 897.342 -4.42667 -1.97925 0
M  V30 9563 N 898.685 0.775411 -1.37205 0
M  V30 9564 C 899.615 1.90258 -1.35367 0
M  V30 9565 C 900.596 1.68634 -0.222864 0
M  V30 9566 O 901.781 1.89545 -0.422659 0
M  V30 9567 C 898.911 3.27488 -1.15623 0
M  V30 9568 C 897.865 3.63668 -2.25676 0
M  V30 9569 C 897.191 4.994 -1.91059 0
M  V30 9570 C 898.491 3.70797 -3.67841 0
M  V30 9571 H 900.185 1.92053 -2.29687 0
M  V30 9572 H 897.731 0.922597 -1.10563 0
M  V30 9573 H 899.684 4.05976 -1.12968 0
M  V30 9574 H 898.408 3.26117 -0.177573 0
M  V30 9575 H 897.067 2.87486 -2.2748 0
M  V30 9576 H 896.715 4.94565 -0.917324 0
M  V30 9577 H 896.415 5.24576 -2.64751 0
M  V30 9578 H 897.939 5.80291 -1.89985 0
M  V30 9579 H 899.353 4.39444 -3.68187 0
M  V30 9580 H 897.75 4.07468 -4.40556 0
M  V30 9581 H 898.82 2.71549 -4.01732 0
M  V30 9582 N 900.163 1.21714 1.00117 0
M  V30 9583 C 901.409 1.04829 1.74306 0
M  V30 9584 C 901.764 -0.413387 1.87907 0
M  V30 9585 O 901.057 -1.30258 1.40512 0
M  V30 9586 C 901.251 1.68345 3.15269 0
M  V30 9587 C 901.08 3.20537 3.15414 0
M  V30 9588 C 899.85 3.896 3.21776 0
M  V30 9589 C 902.048 4.17576 3.00224 0
M  V30 9590 N 900.03 5.28949 3.11587 0
M  V30 9591 C 901.401 5.43701 2.97974 0
M  V30 9592 C 903.456 4.08575 2.84554 0
M  V30 9593 C 902.159 6.61861 2.8166 0
M  V30 9594 C 904.185 5.26375 2.69598 0
M  V30 9595 C 903.547 6.51414 2.68028 0
M  V30 9596 H 899.646 0.437964 0.647852 0
M  V30 9597 H 902.23 1.54128 1.18965 0
M  V30 9598 H 900.401 1.21607 3.68872 0
M  V30 9599 H 902.133 1.44629 3.77974 0
M  V30 9600 H 898.888 3.40548 3.29126 0
M  V30 9601 H 899.312 6.01945 3.09825 0
M  V30 9602 H 903.954 3.12696 2.84571 0
M  V30 9603 H 901.672 7.57896 2.8039 0
M  V30 9604 H 905.258 5.21235 2.58468 0
M  V30 9605 H 904.138 7.41033 2.56593 0
M  V30 9606 N 901.641 -1.19671 1.02551 0
M  V30 9607 C 902.889 -1.88894 0.71858 0
M  V30 9608 C 903.21 -1.79797 -0.754856 0
M  V30 9609 O 902.48 -1.20621 -1.54362 0
M  V30 9610 H 901.06 -0.699244 0.262806 0
M  V30 9611 H 903.722 -1.45298 1.29902 0
M  V30 9612 H 902.818 -2.95309 1.00989 0
M  V30 9613 N 903.119 -0.802921 -1.35613 0
M  V30 9614 C 904.049 -0.225131 -2.32412 0
M  V30 9615 C 905.03 0.647383 -1.57299 0
M  V30 9616 O 906.215 0.578414 -1.85386 0
M  V30 9617 C 903.345 0.630085 -3.41537 0
M  V30 9618 C 902.299 -0.143635 -4.27759 0
M  V30 9619 C 901.625 0.833046 -5.28171 0
M  V30 9620 C 902.925 -1.34054 -5.04804 0
M  V30 9621 H 904.619 -1.03385 -2.80984 0
M  V30 9622 H 902.165 -0.498593 -1.35093 0
M  V30 9623 H 904.118 1.04433 -4.08254 0
M  V30 9624 H 902.842 1.47165 -2.91565 0
M  V30 9625 H 901.501 -0.539015 -3.62616 0
M  V30 9626 H 901.149 1.67001 -4.74468 0
M  V30 9627 H 900.849 0.319697 -5.8673 0
M  V30 9628 H 902.373 1.24558 -5.97761 0
M  V30 9629 H 903.787 -1.00136 -5.64487 0
M  V30 9630 H 902.184 -1.78812 -5.72841 0
M  V30 9631 H 903.254 -2.12906 -4.35659 0
M  V30 9632 N 904.597 1.47463 -0.556102 0
M  V30 9633 C 905.843 2.02775 -0.0316806 0
M  V30 9634 C 906.176 1.42967 1.3143 0
M  V30 9635 O 905.451 0.584847 1.85499 0
M  V30 9636 C 905.734 3.60046 0.0625742 0
M  V30 9637 C 905.587 4.30288 -1.31043 0
M  V30 9638 C 906.906 4.33195 0.776553 0
M  V30 9639 H 904.025 0.736886 -0.0129869 0
M  V30 9640 H 906.667 1.75904 -0.718177 0
M  V30 9641 H 904.817 3.83071 0.647231 0
M  V30 9642 H 906.489 4.18607 -1.9382 0
M  V30 9643 H 904.732 3.90685 -1.8854 0
M  V30 9644 H 905.403 5.38861 -1.1972 0
M  V30 9645 H 907.879 4.15156 0.280147 0
M  V30 9646 H 906.755 5.42869 0.81146 0
M  V30 9647 H 907.016 4.02336 1.83244 0
M  V30 9648 N 906.075 0.2925 1.54862 0
M  V30 9649 C 907.322 -0.319263 1.99967 0
M  V30 9650 C 907.65 -1.54547 1.18092 0
M  V30 9651 O 906.905 -1.94186 0.242969 0
M  V30 9652 C 907.204 -0.728674 3.49893 0
M  V30 9653 C 906.87 0.394836 4.49168 0
M  V30 9654 C 905.532 0.703289 4.76033 0
M  V30 9655 C 907.884 1.15103 5.08331 0
M  V30 9656 C 905.212 1.77121 5.59325 0
M  V30 9657 C 907.564 2.20881 5.92785 0
M  V30 9658 C 906.228 2.52342 6.17964 0
M  V30 9659 H 905.498 -0.116827 0.731733 0
M  V30 9660 H 908.145 0.40983 1.87063 0
M  V30 9661 H 906.45 -1.53772 3.60363 0
M  V30 9662 H 908.147 -1.21305 3.82212 0
M  V30 9663 H 904.737 0.144319 4.28357 0
M  V30 9664 H 908.921 0.92599 4.87585 0
M  V30 9665 H 904.177 2.01978 5.77074 0
M  V30 9666 H 908.351 2.79939 6.37657 0
M  V30 9667 H 905.978 3.35225 6.82296 0
M  V30 9668 N 907.553 -1.57587 0.0200696 0
M  V30 9669 C 908.501 -2.10814 -0.982868 0
M  V30 9670 C 909.495 -1.03263 -1.34287 0
M  V30 9671 O 910.701 -1.21708 -1.32617 0
M  V30 9672 H 907.076 -0.673409 -0.334701 0
M  V30 9673 H 909.047 -2.94034 -0.50856 0
M  V30 9674 C 907.796 -2.64301 -2.25921 0
M  V30 9675 H 907.119 -3.46703 -1.99091 0
M  V30 9676 H 908.559 -3.052 -2.94328 0
M  V30 9677 C 907.018 -1.56628 -2.98277 0
M  V30 9678 O 907.548 -0.960825 -3.9004 0
M  V30 9679 N 905.754 -1.28889 -2.60453 0
M  V30 9680 H 905.301 -1.7831 -1.85912 0
M  V30 9681 H 905.259 -0.570697 -3.09177 0
M  V30 9682 N 909.032 0.252966 -1.55557 0
M  V30 9683 C 909.98 1.33289 -1.90622 0
M  V30 9684 C 910.974 1.50133 -0.784638 0
M  V30 9685 O 912.18 1.51679 -0.969196 0
M  V30 9686 H 908.555 0.446196 -0.605321 0
M  V30 9687 H 910.526 1.00977 -2.80796 0
M  V30 9688 C 909.275 2.68254 -2.21213 0
M  V30 9689 H 908.598 2.5609 -3.07014 0
M  V30 9690 H 910.038 3.42707 -2.49656 0
M  V30 9691 C 908.497 3.20884 -1.02642 0
M  V30 9692 O 909.027 4.00783 -0.271292 0
M  V30 9693 N 907.233 2.7883 -0.818682 0
M  V30 9694 H 906.78 2.13966 -1.43444 0
M  V30 9695 H 906.738 3.14388 -0.0269989 0
M  V30 9696 N 910.51 1.48831 0.518367 0
M  V30 9697 C 911.735 1.61379 1.30275 0
M  V30 9698 C 912.16 0.278571 1.86026 0
M  V30 9699 O 911.518 -0.751427 1.64995 0
M  V30 9700 C 911.566 2.67225 2.42122 0
M  V30 9701 O 910.67 2.25192 3.45489 0
M  V30 9702 H 910.011 0.540742 0.385349 0
M  V30 9703 H 912.541 1.949 0.622498 0
M  V30 9704 H 912.551 2.88859 2.8814 0
M  V30 9705 H 911.226 3.64155 2.00907 0
M  V30 9706 H 909.803 2.13819 3.05509 0
M  V30 9707 N 911.988 -0.768124 1.37614 0
M  V30 9708 C 913.234 -1.52907 1.33219 0
M  V30 9709 C 913.567 -1.94026 -0.0821218 0
M  V30 9710 O 912.842 -1.64345 -1.04023 0
M  V30 9711 C 913.125 -2.79164 2.27463 0
M  V30 9712 C 912.978 -2.44276 3.7769 0
M  V30 9713 C 914.297 -3.81115 2.20089 0
M  V30 9714 H 911.416 -0.554712 0.485246 0
M  V30 9715 H 914.058 -0.880911 1.68345 0
M  V30 9716 H 912.208 -3.34472 1.97639 0
M  V30 9717 H 913.88 -1.94855 4.18126 0
M  V30 9718 H 912.123 -1.76925 3.96081 0
M  V30 9719 H 912.794 -3.34544 4.39072 0
M  V30 9720 H 915.27 -3.35311 2.46386 0
M  V30 9721 H 914.146 -4.67174 2.88166 0
M  V30 9722 H 914.407 -4.25644 1.19498 0
M  V30 9723 N 913.466 -1.22244 -0.994698 0
M  V30 9724 C 914.877 -1.043 -1.5485 0
M  V30 9725 C 915.228 0.394102 -1.92201 0
M  V30 9726 O 914.353 1.27883 -1.74571 0
M  V30 9727 C 914.948 -1.88708 -2.8138 0
M  V30 9728 C 913.507 -1.75067 -3.3321 0
M  V30 9729 C 912.654 -1.85286 -2.06312 0
M  V30 9730 H 915.605 -1.36115 -0.815988 0
M  V30 9731 H 915.626 -1.40342 -3.53673 0
M  V30 9732 H 915.138 -2.93296 -2.54164 0
M  V30 9733 H 913.239 -0.732047 -3.65338 0
M  V30 9734 H 913.352 -2.57632 -4.03934 0
M  V30 9735 H 911.716 -1.28706 -2.19788 0
M  V30 9736 H 912.499 -2.91401 -1.81494 0
M  V30 9737 N 914.944 1.19125 -1.03184 0
M  V30 9738 C 916.19 1.89163 -0.731111 0
M  V30 9739 C 916.523 1.79604 0.738662 0
M  V30 9740 O 915.798 1.19037 1.53819 0
M  V30 9741 C 916.081 3.39986 -1.18666 0
M  V30 9742 C 915.934 3.58401 -2.71788 0
M  V30 9743 C 917.253 4.33316 -0.769772 0
M  V30 9744 H 914.372 0.686908 -0.267069 0
M  V30 9745 H 917.014 1.40205 -1.28229 0
M  V30 9746 H 915.164 3.81813 -0.717736 0
M  V30 9747 H 916.836 3.25727 -3.26649 0
M  V30 9748 H 915.079 3.01355 -3.12038 0
M  V30 9749 H 915.75 4.64189 -2.98719 0
M  V30 9750 H 918.226 3.9922 -1.17314 0
M  V30 9751 H 917.102 5.37427 -1.11637 0
M  V30 9752 H 917.363 4.40884 0.327681 0
M  V30 9753 N 916.422 0.810101 1.35185 0
M  V30 9754 C 917.354 0.180581 2.28488 0
M  V30 9755 C 918.367 -0.622154 1.50443 0
M  V30 9756 O 919.556 -0.453938 1.72632 0
M  V30 9757 C 916.656 -0.766447 3.30119 0
M  V30 9758 C 915.829 -0.00932028 4.37399 0
M  V30 9759 C 914.888 -0.875354 5.18868 0
M  V30 9760 O 913.914 -0.325012 5.68271 0
M  V30 9761 N 915.116 -2.19695 5.37321 0
M  V30 9762 H 917.881 0.98212 2.83151 0
M  V30 9763 H 915.442 0.665879 1.47573 0
M  V30 9764 H 917.434 -1.35012 3.81515 0
M  V30 9765 H 916.004 -1.46878 2.75945 0
M  V30 9766 H 915.224 0.755585 3.86891 0
M  V30 9767 H 916.512 0.512352 5.06214 0
M  V30 9768 H 915.91 -2.66797 4.98834 0
M  V30 9769 H 914.467 -2.72978 5.91884 0
M  V30 9770 N 917.9 -1.47166 0.563914 0
M  V30 9771 C 918.848 -2.31798 -0.193009 0
M  V30 9772 C 919.842 -1.43338 -0.902805 0
M  V30 9773 O 921.048 -1.60067 -0.823328 0
M  V30 9774 H 917.423 -0.747613 -0.0811139 0
M  V30 9775 H 919.394 -2.93476 0.539876 0
M  V30 9776 C 918.143 -3.26131 -1.20555 0
M  V30 9777 H 917.466 -3.94166 -0.668803 0
M  V30 9778 H 918.906 -3.88167 -1.70593 0
M  V30 9779 C 917.365 -2.50132 -2.25689 0
M  V30 9780 O 917.895 -2.25064 -3.3273 0
M  V30 9781 N 916.101 -2.11022 -1.99795 0
M  V30 9782 H 915.648 -2.3161 -1.1276 0
M  V30 9783 H 915.606 -1.60489 -2.70353 0
M  V30 9784 N 919.378 -0.300708 -1.54705 0
M  V30 9785 C 920.789 0.191995 -1.8571 0
M  V30 9786 C 921.14 1.53447 -1.22264 0
M  V30 9787 O 920.265 2.10054 -0.520226 0
M  V30 9788 C 920.86 0.355148 -3.36933 0
M  V30 9789 C 919.419 0.792071 -3.67972 0
M  V30 9790 C 918.566 -0.099756 -2.77121 0
M  V30 9791 H 921.517 -0.521729 -1.49879 0
M  V30 9792 H 921.538 1.18977 -3.61421 0
M  V30 9793 H 921.05 -0.622075 -3.83082 0
M  V30 9794 H 919.151 1.77986 -3.27341 0
M  V30 9795 H 919.264 0.611661 -4.75179 0
M  V30 9796 H 917.628 0.420909 -2.51198 0
M  V30 9797 H 918.411 -1.07333 -3.2609 0
M  V30 9798 N 920.856 1.57574 -0.0284266 0
M  V30 9799 C 921.803 2.10176 0.953658 0
M  V30 9800 C 922.773 1.00367 1.32347 0
M  V30 9801 O 923.958 1.27783 1.4169 0
M  V30 9802 C 921.098 2.63287 2.231 0
M  V30 9803 C 920.211 3.87102 1.91771 0
M  V30 9804 C 919.346 4.28609 3.13795 0
M  V30 9805 C 918.385 5.45184 2.78282 0
M  V30 9806 N 917.522 5.81851 3.92929 0
M  V30 9807 H 922.362 2.93806 0.498176 0
M  V30 9808 H 919.899 1.45222 0.234302 0
M  V30 9809 H 921.857 2.9217 2.97813 0
M  V30 9810 H 920.487 1.82489 2.66266 0
M  V30 9811 H 919.539 3.64952 1.07303 0
M  V30 9812 H 920.851 4.71892 1.61615 0
M  V30 9813 H 920.005 4.58925 3.96829 0
M  V30 9814 H 918.744 3.42585 3.47112 0
M  V30 9815 H 917.749 5.14563 1.93661 0
M  V30 9816 H 918.974 6.32907 2.46182 0
M  V30 9817 H 916.92 4.98782 4.2609 0
M  V30 9818 H 916.837 6.6128 3.66395 0
M  V30 9819 H 918.105 6.16772 4.76669 0
M  V30 9820 N 922.334 -0.244713 1.55689 0
M  V30 9821 C 923.582 -0.970525 1.77272 0
M  V30 9822 C 923.903 -1.85771 0.592804 0
M  V30 9823 O 923.173 -1.91952 -0.391323 0
M  V30 9824 H 921.753 -0.361342 0.653789 0
M  V30 9825 H 924.415 -0.262134 1.93129 0
M  V30 9826 H 923.511 -1.59096 2.68505 0
M  V30 9827 N 923.813 -1.49104 -0.510467 0
M  V30 9828 C 925.041 -1.61806 -1.28944 0
M  V30 9829 C 925.456 -0.285774 -1.86625 0
M  V30 9830 O 924.813 0.727551 -1.67371 0
M  V30 9831 C 924.864 -2.67966 -2.42645 0
M  V30 9832 O 924.585 -3.96026 -1.87337 0
M  V30 9833 C 926.086 -2.91286 -3.34166 0
M  V30 9834 H 923.306 -0.544999 -0.391429 0
M  V30 9835 H 925.85 -1.95071 -0.613805 0
M  V30 9836 H 924.005 -2.37505 -3.06056 0
M  V30 9837 H 924.419 -4.54427 -2.61909 0
M  V30 9838 H 925.893 -3.69323 -4.1025 0
M  V30 9839 H 926.37 -2.00842 -3.90588 0
M  V30 9840 H 926.976 -3.23127 -2.76531 0
M  V30 9841 N 925.291 0.760815 -1.38019 0
M  V30 9842 C 926.519 1.55001 -1.37048 0
M  V30 9843 C 926.934 1.88754 0.0415261 0
M  V30 9844 O 926.291 1.52254 1.00624 0
M  V30 9845 C 926.342 2.8536 -2.21928 0
M  V30 9846 O 926.063 2.53049 -3.57628 0
M  V30 9847 C 927.564 3.79536 -2.29057 0
M  V30 9848 H 924.784 0.479844 -0.469032 0
M  V30 9849 H 927.328 0.942148 -1.81504 0
M  V30 9850 H 925.483 3.42542 -1.80953 0
M  V30 9851 H 925.897 3.36604 -4.02241 0
M  V30 9852 H 927.371 4.67977 -2.92749 0
M  V30 9853 H 927.848 4.19453 -1.30213 0
M  V30 9854 H 928.454 3.28281 -2.70392 0
M  V30 9855 N 926.769 1.22769 0.988202 0
M  V30 9856 C 927.994 1.08239 1.76915 0
M  V30 9857 C 928.419 -0.362519 1.84574 0
M  V30 9858 O 927.777 -1.26202 1.30165 0
M  V30 9859 C 927.825 1.70363 3.17819 0
M  V30 9860 O 926.929 0.960484 4.01059 0
M  V30 9861 H 926.27 0.379872 0.544604 0
M  V30 9862 H 928.8 1.62663 1.24104 0
M  V30 9863 H 928.81 1.7528 3.6843 0
M  V30 9864 H 927.485 2.75505 3.1156 0
M  V30 9865 H 926.062 0.987667 3.59582 0
M  V30 9866 N 928.247 -1.18576 1.03814 0
M  V30 9867 C 929.194 -2.2212 0.626988 0
M  V30 9868 C 930.164 -1.62064 -0.363912 0
M  V30 9869 O 931.349 -1.89041 -0.258469 0
M  V30 9870 C 928.489 -3.45099 -0.00650133 0
M  V30 9871 C 927.602 -4.19503 1.03156 0
M  V30 9872 C 926.737 -5.29932 0.366852 0
M  V30 9873 C 925.776 -5.96104 1.39018 0
M  V30 9874 N 924.913 -6.98076 0.750625 0
M  V30 9875 H 929.753 -2.56646 1.51449 0
M  V30 9876 H 927.29 -1.26084 0.757702 0
M  V30 9877 H 929.248 -4.15363 -0.391108 0
M  V30 9878 H 927.878 -3.11201 -0.857536 0
M  V30 9879 H 926.93 -3.48092 1.53414 0
M  V30 9880 H 928.242 -4.64843 1.80893 0
M  V30 9881 H 927.396 -6.06657 -0.0720979 0
M  V30 9882 H 926.135 -4.85687 -0.442631 0
M  V30 9883 H 925.14 -5.18122 1.8393 0
M  V30 9884 H 926.365 -6.42432 2.20132 0
M  V30 9885 H 924.311 -6.55989 -0.0385981 0
M  V30 9886 H 924.228 -7.41655 1.46574 0
M  V30 9887 H 925.496 -7.78776 0.335986 0
M  V30 9888 N 929.725 -0.817259 -1.34754 0
M  V30 9889 C 930.974 -0.39908 -1.97713 0
M  V30 9890 C 931.287 1.04203 -1.65533 0
M  V30 9891 O 932.493 1.56384 -2.21937 0
M  V30 9892 C 930.949 -0.662634 -3.53747 0
M  V30 9893 C 930.557 -2.11699 -3.94826 0
M  V30 9894 C 932.301 -0.31034 -4.23364 0
M  V30 9895 C 930.208 -2.32573 -5.4375 0
M  V30 9896 H 929.138 -0.145488 -0.739831 0
M  V30 9897 H 931.789 -1.00282 -1.53674 0
M  V30 9898 H 930.171 0.0111972 -3.95998 0
M  V30 9899 H 931.345 -2.82951 -3.63697 0
M  V30 9900 H 929.66 -2.43017 -3.3813 0
M  V30 9901 H 932.257 -0.44421 -5.32852 0
M  V30 9902 H 932.6 0.744594 -4.09587 0
M  V30 9903 H 933.133 -0.938518 -3.8657 0
M  V30 9904 H 929.872 -3.36551 -5.62507 0
M  V30 9905 H 929.392 -1.65858 -5.76412 0
M  V30 9906 H 931.071 -2.14651 -6.10356 0
M  V30 9907 N 931.203 1.46865 -0.571711 0
M  V30 9908 C 932.136 2.27176 0.215944 0
M  V30 9909 C 933.114 1.34951 0.907035 0
M  V30 9910 O 934.298 1.64349 0.923127 0
M  V30 9911 C 931.425 3.12388 1.30888 0
M  V30 9912 C 930.471 4.20296 0.724804 0
M  V30 9913 S 931.304 5.33691 -0.439839 0
M  V30 9914 C 932.46 6.22468 0.654564 0
M  V30 9915 H 932.693 2.93633 -0.465518 0
M  V30 9916 H 930.226 1.50184 -0.358351 0
M  V30 9917 H 932.184 3.62049 1.93471 0
M  V30 9918 H 930.845 2.45265 1.96224 0
M  V30 9919 H 930.038 4.79703 1.54599 0
M  V30 9920 H 929.64 3.73591 0.174861 0
M  V30 9921 H 931.932 6.59694 1.54304 0
M  V30 9922 H 932.875 7.08033 0.0975111 0
M  V30 9923 H 933.283 5.56384 0.953762 0
M  V30 9924 N 932.681 0.308908 1.54543 0
M  V30 9925 C 933.927 -0.298478 2.00592 0
M  V30 9926 C 934.26 -1.52929 1.19692 0
M  V30 9927 O 933.535 -1.9254 0.27542 0
M  V30 9928 C 933.818 -0.647218 3.54236 0
M  V30 9929 C 933.671 0.593284 4.4587 0
M  V30 9930 C 934.99 -1.47064 4.14801 0
M  V30 9931 H 932.109 -0.107012 0.72919 0
M  V30 9932 H 934.751 0.422578 1.85241 0
M  V30 9933 H 932.901 -1.26153 3.67447 0
M  V30 9934 H 934.573 1.2317 4.44552 0
M  V30 9935 H 932.816 1.22501 4.16144 0
M  V30 9936 H 933.487 0.305018 5.51157 0
M  V30 9937 H 935.963 -0.951511 4.05075 0
M  V30 9938 H 934.839 -1.68343 5.22448 0
M  V30 9939 H 935.1 -2.4623 3.67183 0
M  V30 9940 N 934.159 -1.57557 0.0367827 0
M  V30 9941 C 935.384 -1.96828 -0.653707 0
M  V30 9942 C 935.809 -0.913559 -1.64425 0
M  V30 9943 O 935.167 0.124749 -1.8087 0
M  V30 9944 C 935.215 -3.35189 -1.32969 0
M  V30 9945 O 934.319 -3.32095 -2.44513 0
M  V30 9946 H 933.66 -0.64157 -0.171124 0
M  V30 9947 H 936.19 -2.04351 0.100912 0
M  V30 9948 H 936.2 -3.71593 -1.68472 0
M  V30 9949 H 934.875 -4.11496 -0.603654 0
M  V30 9950 H 933.452 -3.07418 -2.11065 0
M  V30 9951 N 935.637 0.236453 -1.55816 0
M  V30 9952 C 936.883 0.964439 -1.784 0
M  V30 9953 C 937.216 1.84573 -0.603868 0
M  V30 9954 O 936.491 1.90395 0.397473 0
M  V30 9955 C 936.774 1.81608 -3.10951 0
M  V30 9956 C 936.627 0.962283 -4.39386 0
M  V30 9957 C 937.946 2.79665 -3.39817 0
M  V30 9958 H 935.065 0.349192 -0.649026 0
M  V30 9959 H 937.707 0.234247 -1.8855 0
M  V30 9960 H 935.857 2.43864 -3.02428 0
M  V30 9961 H 937.529 0.35762 -4.59912 0
M  V30 9962 H 935.772 0.267062 -4.32977 0
M  V30 9963 H 936.443 1.59222 -5.28538 0
M  V30 9964 H 938.919 2.27546 -3.4837 0
M  V30 9965 H 937.795 3.36367 -4.33761 0
M  V30 9966 H 938.056 3.56657 -2.61244 0
M  V30 9967 N 937.115 1.49373 0.502552 0
M  V30 9968 C 938.361 1.5999 1.25597 0
M  V30 9969 C 938.716 0.282287 1.90318 0
M  V30 9970 O 938.009 -0.71735 1.77664 0
M  V30 9971 C 938.203 2.69508 2.34735 0
M  V30 9972 C 938.032 4.11791 1.80716 0
M  V30 9973 C 936.802 4.78598 1.62087 0
M  V30 9974 C 939 4.97074 1.31991 0
M  V30 9975 N 936.982 6.05201 1.02981 0
M  V30 9976 C 938.353 6.14144 0.850098 0
M  V30 9977 C 940.408 4.83086 1.20549 0
M  V30 9978 C 939.111 7.18766 0.277192 0
M  V30 9979 C 941.137 5.87855 0.64656 0
M  V30 9980 C 940.499 7.04152 0.186968 0
M  V30 9981 H 936.598 0.639822 0.449613 0
M  V30 9982 H 939.182 1.86371 0.563361 0
M  V30 9983 H 937.353 2.44902 3.01459 0
M  V30 9984 H 939.085 2.69656 3.01774 0
M  V30 9985 H 935.84 4.35372 1.8641 0
M  V30 9986 H 936.264 6.72793 0.753601 0
M  V30 9987 H 940.906 3.93489 1.54681 0
M  V30 9988 H 938.624 8.08064 -0.0763971 0
M  V30 9989 H 942.21 5.79091 0.560832 0
M  V30 9990 H 941.09 7.83836 -0.238784 0
M  V30 9991 N 938.594 -0.753485 1.38421 0
M  V30 9992 C 939.557 -1.84888 1.35459 0
M  V30 9993 C 940.557 -1.58764 0.255083 0
M  V30 9994 O 941.747 -1.66507 0.511978 0
M  V30 9995 C 938.879 -3.22361 1.10888 0
M  V30 9996 H 940.072 -1.88922 2.32913 0
M  V30 9997 H 937.625 -0.955199 1.23716 0
M  V30 9998 H 938.36 -3.23996 0.1404 0
M  V30 9999 H 938.145 -3.42717 1.90492 0
M  V30 10000 H 939.635 -4.02437 1.1151 0
M  V30 10001 N 940.072 -1.23292 -0.981677 0
M  V30 10002 C 941.319 -1.06424 -1.72279 0
M  V30 10003 C 941.647 0.399055 -1.90362 0
M  V30 10004 O 940.902 1.31181 -1.45224 0
M  V30 10005 C 941.201 -1.73339 -3.12551 0
M  V30 10006 C 940.867 -3.23256 -3.14351 0
M  V30 10007 C 939.529 -3.64159 -3.14549 0
M  V30 10008 C 941.881 -4.1916 -3.09765 0
M  V30 10009 C 939.209 -4.99428 -3.07877 0
M  V30 10010 C 941.561 -5.54419 -3.04635 0
M  V30 10011 C 940.225 -5.94688 -3.03154 0
M  V30 10012 H 939.495 -0.389434 -0.630415 0
M  V30 10013 H 942.142 -1.53208 -1.1489 0
M  V30 10014 H 940.447 -1.18911 -3.73319 0
M  V30 10015 H 942.144 -1.57767 -3.68661 0
M  V30 10016 H 938.734 -2.90693 -3.14953 0
M  V30 10017 H 942.918 -3.88569 -3.08753 0
M  V30 10018 H 938.174 -5.29844 -3.05083 0
M  V30 10019 H 942.348 -6.28448 -3.00043 0
M  V30 10020 H 939.975 -6.99468 -2.97739 0
M  V30 10021 N 941.55 1.18024 -1.04442 0
M  V30 10022 C 942.797 1.88098 -0.750022 0
M  V30 10023 C 943.125 1.80583 0.722489 0
M  V30 10024 O 942.38 1.20329 1.54335 0
M  V30 10025 C 942.679 3.37834 -1.16631 0
M  V30 10026 C 942.345 3.65553 -2.63974 0
M  V30 10027 C 941.007 3.72827 -3.04226 0
M  V30 10028 C 943.359 3.77634 -3.59224 0
M  V30 10029 C 940.687 3.89666 -4.38608 0
M  V30 10030 C 943.039 3.9599 -4.9333 0
M  V30 10031 C 941.703 4.01501 -5.33248 0
M  V30 10032 H 940.973 0.6883 -0.274452 0
M  V30 10033 H 943.62 1.39671 -1.31012 0
M  V30 10034 H 941.925 3.88266 -0.525071 0
M  V30 10035 H 943.622 3.90402 -0.915827 0
M  V30 10036 H 940.212 3.6051 -2.31798 0
M  V30 10037 H 944.396 3.71342 -3.2927 0
M  V30 10038 H 939.652 3.92178 -4.69048 0
M  V30 10039 H 943.826 4.0428 -5.67037 0
M  V30 10040 H 941.453 4.14301 -6.37384 0
M  V30 10041 N 943.028 0.824394 1.34319 0
M  V30 10042 C 943.991 0.252696 2.27803 0
M  V30 10043 C 944.991 -0.570254 1.50349 0
M  V30 10044 O 946.181 -0.386145 1.69866 0
M  V30 10045 C 943.313 -0.645575 3.34731 0
M  V30 10046 H 944.506 1.07742 2.79878 0
M  V30 10047 H 942.059 0.596367 1.44475 0
M  V30 10048 H 942.794 -1.4933 2.87873 0
M  V30 10049 H 942.579 -0.0569478 3.92059 0
M  V30 10050 H 944.069 -1.03933 4.0446 0
M  V30 10051 N 944.506 -1.46559 0.579492 0
M  V30 10052 C 945.752 -2.02699 0.0639363 0
M  V30 10053 C 946.085 -1.4504 -1.29139 0
M  V30 10054 O 945.36 -0.614284 -1.84545 0
M  V30 10055 C 945.643 -3.601 -0.00528618 0
M  V30 10056 C 945.496 -4.28149 1.37871 0
M  V30 10057 C 946.815 -4.34375 -0.707537 0
M  V30 10058 H 943.934 -0.736586 0.0247085 0
M  V30 10059 H 946.576 -1.74739 0.746071 0
M  V30 10060 H 944.726 -3.84052 -0.586206 0
M  V30 10061 H 946.398 -4.1547 2.00455 0
M  V30 10062 H 944.641 -3.87636 1.94732 0
M  V30 10063 H 945.312 -5.36888 1.28278 0
M  V30 10064 H 947.788 -4.15549 -0.214064 0
M  V30 10065 H 946.664 -5.44091 -0.724992 0
M  V30 10066 H 946.925 -4.052 -1.7682 0
M  V30 10067 N 945.984 -0.3171 -1.54377 0
M  V30 10068 C 947.233 0.288271 -1.99629 0
M  V30 10069 C 947.546 1.53754 -1.2091 0
M  V30 10070 O 948.752 2.2185 -1.56508 0
M  V30 10071 C 947.208 0.564188 -3.5545 0
M  V30 10072 C 946.816 -0.667659 -4.42997 0
M  V30 10073 C 948.56 1.12987 -4.09187 0
M  V30 10074 C 946.467 -0.364003 -5.90279 0
M  V30 10075 H 945.397 0.111492 -0.745711 0
M  V30 10076 H 948.048 -0.428317 -1.78431 0
M  V30 10077 H 946.43 1.34079 -3.72611 0
M  V30 10078 H 947.604 -1.44335 -4.37612 0
M  V30 10079 H 945.919 -1.1531 -4.00116 0
M  V30 10080 H 948.516 1.37157 -5.1681 0
M  V30 10081 H 948.859 2.07722 -3.60773 0
M  V30 10082 H 949.392 0.414595 -3.95634 0
M  V30 10083 H 946.131 -1.28035 -6.42874 0
M  V30 10084 H 945.651 0.374102 -5.98632 0
M  V30 10085 H 947.33 0.0285433 -6.46994 0
M  V30 10086 N 947.462 1.57535 -0.0451378 0
M  V30 10087 C 948.709 1.92451 0.629987 0
M  V30 10088 C 949.037 0.92298 1.71206 0
M  V30 10089 O 948.292 -0.0656626 1.9559 0
M  V30 10090 C 948.591 3.34065 1.27024 0
M  V30 10091 C 948.257 4.49785 0.316971 0
M  V30 10092 C 946.919 4.81169 0.0546406 0
M  V30 10093 C 949.271 5.20111 -0.336693 0
M  V30 10094 C 946.599 5.8023 -0.86889 0
M  V30 10095 C 948.951 6.2016 -1.24838 0
M  V30 10096 C 947.615 6.49976 -1.51944 0
M  V30 10097 H 946.885 0.704228 0.230529 0
M  V30 10098 H 949.532 1.91182 -0.110328 0
M  V30 10099 H 947.837 3.31672 2.08568 0
M  V30 10100 H 949.534 3.58359 1.79945 0
M  V30 10101 H 946.124 4.2529 0.531614 0
M  V30 10102 H 950.308 4.96082 -0.147105 0
M  V30 10103 H 945.564 6.0167 -1.08643 0
M  V30 10104 H 949.738 6.73767 -1.76098 0
M  V30 10105 H 947.365 7.26551 -2.2367 0
M  V30 10106 N 948.94 -0.228186 1.55939 0
M  V30 10107 C 949.87 -1.28607 1.94891 0
M  V30 10108 C 950.851 -1.49236 0.816245 0
M  V30 10109 O 952.036 -1.61531 1.07803 0
M  V30 10110 C 949.166 -2.63719 2.25986 0
M  V30 10111 C 948.12 -2.57757 3.4168 0
M  V30 10112 C 947.446 -3.96837 3.58364 0
M  V30 10113 C 948.746 -2.13116 4.76843 0
M  V30 10114 H 950.44 -0.962531 2.83506 0
M  V30 10115 H 947.986 -0.461577 1.36402 0
M  V30 10116 H 949.939 -3.37878 2.51826 0
M  V30 10117 H 948.663 -2.97747 1.34217 0
M  V30 10118 H 947.322 -1.86055 3.15878 0
M  V30 10119 H 946.97 -4.28162 2.63982 0
M  V30 10120 H 946.67 -3.93731 4.36176 0
M  V30 10121 H 948.194 -4.72668 3.86545 0
M  V30 10122 H 949.608 -2.77015 5.01932 0
M  V30 10123 H 948.005 -2.21083 5.57891 0
M  V30 10124 H 949.075 -1.08326 4.72645 0
M  V30 10125 N 950.418 -1.49637 -0.494624 0
M  V30 10126 C 951.381 -1.66252 -1.57775 0
M  V30 10127 C 952.381 -0.534054 -1.51672 0
M  V30 10128 O 953.571 -0.800637 -1.54711 0
M  V30 10129 C 950.703 -1.66584 -2.97426 0
M  V30 10130 H 951.896 -2.62864 -1.4437 0
M  V30 10131 H 949.449 -1.38764 -0.719323 0
M  V30 10132 H 950.184 -0.715798 -3.16302 0
M  V30 10133 H 949.969 -2.48543 -3.03264 0
M  V30 10134 H 951.459 -1.81474 -3.76108 0
M  V30 10135 N 951.896 0.746133 -1.38819 0
M  V30 10136 C 953.121 1.54049 -1.38866 0
M  V30 10137 C 953.546 1.88092 0.0176624 0
M  V30 10138 O 952.904 1.51113 1.00173 0
M  V30 10139 C 952.952 2.8116 -2.25791 0
M  V30 10140 O 952.056 3.76623 -1.68014 0
M  V30 10141 H 951.397 0.465648 -0.473359 0
M  V30 10142 H 953.927 0.921469 -1.82675 0
M  V30 10143 H 953.937 3.30009 -2.39913 0
M  V30 10144 H 952.612 2.55713 -3.27999 0
M  V30 10145 H 951.189 3.35352 -1.63074 0
M  V30 10146 N 953.375 1.23811 0.975125 0
M  V30 10147 C 954.605 1.0986 1.7497 0
M  V30 10148 C 955.013 -0.352366 1.8589 0
M  V30 10149 O 954.356 -1.2553 1.34119 0
M  V30 10150 C 954.418 1.65584 3.19096 0
M  V30 10151 C 954.082 3.14395 3.3167 0
M  V30 10152 C 955.079 4.1163 3.17579 0
M  V30 10153 C 952.764 3.54208 3.56149 0
M  V30 10154 C 954.758 5.46661 3.27781 0
M  V30 10155 C 952.445 4.89382 3.65989 0
M  V30 10156 C 953.443 5.85418 3.51817 0
M  V30 10157 O 953.131 7.18135 3.61299 0
M  V30 10158 H 952.863 0.384854 0.555755 0
M  V30 10159 H 955.417 1.64242 1.23343 0
M  V30 10160 H 953.647 1.05627 3.71994 0
M  V30 10161 H 955.336 1.47032 3.78334 0
M  V30 10162 H 956.102 3.82214 2.98559 0
M  V30 10163 H 951.981 2.79968 3.66249 0
M  V30 10164 H 955.525 6.21601 3.16636 0
M  V30 10165 H 951.422 5.18473 3.84521 0
M  V30 10166 H 952.19 7.25956 3.78061 0
M  V30 10167 N 954.853 -1.17469 1.05066 0
M  V30 10168 C 956.081 -1.9162 0.780334 0
M  V30 10169 C 956.496 -1.76745 -0.663817 0
M  V30 10170 O 955.853 -1.10377 -1.45338 0
M  V30 10171 C 955.904 -3.42723 1.14992 0
M  V30 10172 O 955.625 -3.57139 2.53739 0
M  V30 10173 C 957.126 -4.33952 0.905549 0
M  V30 10174 H 954.346 -0.608022 0.283814 0
M  V30 10175 H 956.89 -1.4897 1.401 0
M  V30 10176 H 955.045 -3.83124 0.57403 0
M  V30 10177 H 955.459 -4.5075 2.68189 0
M  V30 10178 H 956.933 -5.38487 1.21391 0
M  V30 10179 H 957.41 -4.38911 -0.159295 0
M  V30 10180 H 958.016 -3.99263 1.46522 0
M  V30 10181 N 956.331 -0.831506 -1.3388 0
M  V30 10182 C 957.294 -0.264773 -2.27666 0
M  V30 10183 C 958.294 0.562273 -1.50649 0
M  V30 10184 O 959.484 0.377131 -1.70069 0
M  V30 10185 C 956.616 0.627814 -3.35069 0
M  V30 10186 H 957.809 -1.09225 -2.79303 0
M  V30 10187 H 955.362 -0.604021 -1.44157 0
M  V30 10188 H 956.097 1.47802 -2.88661 0
M  V30 10189 H 955.882 0.0361552 -3.92083 0
M  V30 10190 H 957.372 1.01786 -4.05005 0
M  V30 10191 N 957.809 1.4625 -0.587256 0
M  V30 10192 C 958.757 2.32076 0.156108 0
M  V30 10193 C 959.751 1.44756 0.879887 0
M  V30 10194 O 960.957 1.61356 0.797759 0
M  V30 10195 H 957.332 0.748808 0.0692098 0
M  V30 10196 H 959.303 2.9258 -0.586497 0
M  V30 10197 C 958.052 3.28008 1.15352 0
M  V30 10198 H 957.375 3.9518 0.60601 0
M  V30 10199 H 958.815 3.90832 1.64396 0
M  V30 10200 C 957.274 2.53691 2.21681 0
M  V30 10201 O 957.804 2.30329 3.29107 0
M  V30 10202 N 956.01 2.14174 1.96412 0
M  V30 10203 H 955.557 2.33374 1.09061 0
M  V30 10204 H 955.515 1.6477 2.67765 0
M  V30 10205 N 959.287 0.325282 1.54207 0
M  V30 10206 C 960.217 -0.532574 2.27345 0
M  V30 10207 C 961.198 -1.11791 1.28206 0
M  V30 10208 O 962.383 -1.14272 1.57021 0
M  V30 10209 C 959.513 -1.69274 3.03255 0
M  V30 10210 C 958.467 -1.23662 4.09746 0
M  V30 10211 C 957.793 -2.48386 4.73506 0
M  V30 10212 C 959.093 -0.350244 5.21124 0
M  V30 10213 H 960.787 0.0775108 2.993 0
M  V30 10214 H 958.333 0.0387193 1.43948 0
M  V30 10215 H 960.286 -2.29917 3.53152 0
M  V30 10216 H 959.01 -2.32944 2.28921 0
M  V30 10217 H 957.669 -0.653106 3.60735 0
M  V30 10218 H 957.317 -3.10424 3.95786 0
M  V30 10219 H 957.017 -2.18558 5.45441 0
M  V30 10220 H 958.541 -3.09789 5.26178 0
M  V30 10221 H 959.955 -0.863011 5.66767 0
M  V30 10222 H 958.352 -0.14466 5.99926 0
M  V30 10223 H 959.422 0.618457 4.8094 0
M  V30 10224 N 960.765 -1.57509 0.0534917 0
M  V30 10225 C 961.728 -2.10563 -0.905307 0
M  V30 10226 C 962.728 -1.02571 -1.23838 0
M  V30 10227 O 963.918 -1.28635 -1.17468 0
M  V30 10228 C 961.05 -2.5918 -2.21447 0
M  V30 10229 H 962.243 -2.96575 -0.445354 0
M  V30 10230 H 959.796 -1.55079 -0.194947 0
M  V30 10231 H 960.531 -1.76568 -2.72019 0
M  V30 10232 H 960.316 -3.38098 -1.98575 0
M  V30 10233 H 961.806 -3.00365 -2.90122 0
M  V30 10234 N 962.243 0.219913 -1.56058 0
M  V30 10235 C 963.206 1.25606 -1.91718 0
M  V30 10236 C 964.206 1.39721 -0.795912 0
M  V30 10237 O 965.396 1.37958 -1.06364 0
M  V30 10238 C 962.528 2.62961 -2.16943 0
M  V30 10239 H 963.721 0.951909 -2.84392 0
M  V30 10240 H 961.274 0.460398 -1.49365 0
M  V30 10241 H 962.009 2.98472 -1.26826 0
M  V30 10242 H 961.794 2.54093 -2.98629 0
M  V30 10243 H 963.284 3.37727 -2.45622 0
M  V30 10244 N 963.721 1.49897 0.486681 0
M  V30 10245 C 964.968 1.60105 1.23986 0
M  V30 10246 C 965.296 0.294228 1.92262 0
M  V30 10247 O 964.551 -0.718876 1.82018 0
M  V30 10248 C 964.85 2.71982 2.31863 0
M  V30 10249 C 964.516 4.13 1.80948 0
M  V30 10250 C 963.178 4.51373 1.66782 0
M  V30 10251 C 965.53 5.01198 1.43004 0
M  V30 10252 C 962.858 5.75701 1.13072 0
M  V30 10253 C 965.21 6.26058 0.90742 0
M  V30 10254 C 963.874 6.63247 0.752269 0
M  V30 10255 H 963.144 0.585866 0.453698 0
M  V30 10256 H 965.791 1.83778 0.538305 0
M  V30 10257 H 964.096 2.42336 3.07865 0
M  V30 10258 H 965.793 2.77087 2.89869 0
M  V30 10259 H 962.383 3.82718 1.92937 0
M  V30 10260 H 966.567 4.72196 1.52789 0
M  V30 10261 H 961.823 6.03202 0.997842 0
M  V30 10262 H 965.997 6.9377 0.604684 0
M  V30 10263 H 963.624 7.59466 0.33392 0
M  V30 10264 N 965.199 -0.738761 1.39212 0
M  V30 10265 C 966.132 -1.86135 1.32018 0
M  V30 10266 C 967.11 -1.61432 0.194512 0
M  V30 10267 O 968.294 -1.84746 0.374331 0
M  V30 10268 C 965.421 -3.22044 1.04907 0
M  V30 10269 C 964.467 -3.65612 2.19613 0
M  V30 10270 S 965.3 -3.75418 3.81866 0
M  V30 10271 C 966.456 -5.14122 3.56972 0
M  V30 10272 H 966.689 -1.91954 2.27027 0
M  V30 10273 H 964.222 -0.903244 1.25223 0
M  V30 10274 H 966.18 -4.00524 0.899491 0
M  V30 10275 H 964.841 -3.13886 0.115918 0
M  V30 10276 H 964.034 -4.64232 1.96227 0
M  V30 10277 H 963.636 -2.94327 2.30755 0
M  V30 10278 H 965.928 -6.00339 3.14005 0
M  V30 10279 H 966.871 -5.42535 4.55039 0
M  V30 10280 H 967.279 -4.8362 2.91156 0
M  V30 10281 N 966.677 -1.24326 -0.968545 0
M  V30 10282 C 967.926 -1.07647 -1.70572 0
M  V30 10283 C 968.239 0.384821 -1.91777 0
M  V30 10284 O 969.445 0.671782 -2.63058 0
M  V30 10285 C 967.901 -1.87799 -3.07017 0
M  V30 10286 C 967.509 -3.38333 -2.93658 0
M  V30 10287 C 969.253 -1.79647 -3.84613 0
M  V30 10288 C 967.16 -4.10831 -4.25407 0
M  V30 10289 H 966.09 -0.399216 -0.639642 0
M  V30 10290 H 968.741 -1.484 -1.07934 0
M  V30 10291 H 967.123 -1.3986 -3.7048 0
M  V30 10292 H 968.297 -3.93845 -2.39213 0
M  V30 10293 H 966.612 -3.47427 -2.29528 0
M  V30 10294 H 969.209 -2.31116 -4.82172 0
M  V30 10295 H 969.552 -0.761553 -4.09275 0
M  V30 10296 H 970.085 -2.25261 -3.27875 0
M  V30 10297 H 966.824 -5.14679 -4.05939 0
M  V30 10298 H 966.344 -3.60105 -4.79671 0
M  V30 10299 H 968.023 -4.17783 -4.94031 0
M  V30 10300 N 968.156 1.1691 -1.05688 0
M  V30 10301 C 969.088 2.20648 -0.620237 0
M  V30 10302 C 970.101 1.59652 0.318604 0
M  V30 10303 O 971.29 1.78157 0.110553 0
M  V30 10304 C 968.39 3.38716 0.111729 0
M  V30 10305 C 967.563 4.29277 -0.839062 0
M  V30 10306 C 966.622 5.25993 -0.147453 0
M  V30 10307 O 965.648 5.63787 -0.783151 0
M  V30 10308 N 966.85 5.69725 1.11327 0
M  V30 10309 H 969.615 2.58731 -1.51256 0
M  V30 10310 H 967.176 1.31858 -0.939412 0
M  V30 10311 H 969.168 4.00455 0.584657 0
M  V30 10312 H 967.738 2.99189 0.905784 0
M  V30 10313 H 966.958 3.64894 -1.4915 0
M  V30 10314 H 968.246 4.86669 -1.48428 0
M  V30 10315 H 967.644 5.41103 1.64999 0
M  V30 10316 H 966.201 6.33584 1.53018 0
M  V30 10317 N 969.634 0.838594 1.33437 0
M  V30 10318 C 970.544 0.274048 2.32994 0
M  V30 10319 C 971.56 -0.599776 1.63336 0
M  V30 10320 O 972.736 -0.503963 1.94993 0
M  V30 10321 C 969.801 -0.541804 3.4244 0
M  V30 10322 C 968.862 0.356262 4.27819 0
M  V30 10323 C 968.095 -0.420747 5.32039 0
M  V30 10324 O 968.318 -1.65247 5.45939 0
M  V30 10325 O 967.252 0.205101 6.0155 0
M  V30 10326 H 971.078 1.09846 2.83139 0
M  V30 10327 H 968.663 0.601111 1.36774 0
M  V30 10328 H 970.545 -1.00544 4.0923 0
M  V30 10329 H 969.22 -1.34328 2.94513 0
M  V30 10330 H 968.127 0.867726 3.63897 0
M  V30 10331 H 969.46 1.1225 4.79229 0
M  V30 10332 N 971.112 -1.45937 0.595003 0
M  V30 10333 C 972.022 -2.34221 -0.133325 0
M  V30 10334 C 973.038 -1.50491 -0.873407 0
M  V30 10335 O 974.214 -1.83328 -0.833828 0
M  V30 10336 C 971.279 -3.27896 -1.12628 0
M  V30 10337 C 970.34 -4.27529 -0.389532 0
M  V30 10338 C 969.573 -5.16729 -1.33519 0
M  V30 10339 O 969.796 -5.09102 -2.57238 0
M  V30 10340 O 968.73 -5.96023 -0.839084 0
M  V30 10341 H 972.556 -2.97877 0.591861 0
M  V30 10342 H 970.141 -1.45113 0.355329 0
M  V30 10343 H 972.023 -3.85654 -1.69851 0
M  V30 10344 H 970.698 -2.6682 -1.83272 0
M  V30 10345 H 969.605 -3.73424 0.224843 0
M  V30 10346 H 970.938 -4.91425 0.276169 0
M  V30 10347 N 972.59 -0.333456 -1.54032 0
M  V30 10348 C 973.82 0.267425 -2.04862 0
M  V30 10349 C 974.228 1.45559 -1.20869 0
M  V30 10350 O 973.571 1.82197 -0.234478 0
M  V30 10351 C 973.633 0.755759 -3.51466 0
M  V30 10352 C 973.297 -0.311409 -4.55938 0
M  V30 10353 C 974.294 -1.15078 -5.07004 0
M  V30 10354 C 971.979 -0.462439 -5.00167 0
M  V30 10355 C 973.973 -2.12682 -6.0087 0
M  V30 10356 C 971.66 -1.44188 -5.93846 0
M  V30 10357 C 972.658 -2.27253 -6.44085 0
M  V30 10358 O 972.346 -3.23532 -7.35923 0
M  V30 10359 H 972.078 0.0572596 -0.673571 0
M  V30 10360 H 974.632 -0.480646 -1.99697 0
M  V30 10361 H 972.862 1.55491 -3.54062 0
M  V30 10362 H 974.551 1.27607 -3.8532 0
M  V30 10363 H 975.317 -1.04513 -4.73605 0
M  V30 10364 H 971.196 0.17424 -4.60671 0
M  V30 10365 H 974.74 -2.77555 -6.40007 0
M  V30 10366 H 970.637 -1.54813 -6.2666 0
M  V30 10367 H 971.405 -3.18886 -7.53826 0
M  V30 10368 N 974.068 1.57479 -0.061844 0
M  V30 10369 C 975.314 1.93395 0.610443 0
M  V30 10370 C 975.647 0.941334 1.6986 0
M  V30 10371 O 974.922 -0.0310262 1.94475 0
M  V30 10372 C 975.205 3.39636 1.19664 0
M  V30 10373 C 975.058 4.49651 0.115805 0
M  V30 10374 C 976.377 3.86488 2.10512 0
M  V30 10375 H 973.496 0.703262 0.220436 0
M  V30 10376 H 976.138 1.89583 -0.125785 0
M  V30 10377 H 974.288 3.43015 1.82409 0
M  V30 10378 H 975.96 4.58397 -0.516728 0
M  V30 10379 H 974.203 4.30237 -0.55483 0
M  V30 10380 H 974.874 5.49089 0.566176 0
M  V30 10381 H 977.35 3.85052 1.57715 0
M  V30 10382 H 976.226 4.89444 2.48466 0
M  V30 10383 H 976.487 3.23856 3.00948 0
M  V30 10384 N 975.546 -0.211634 1.56173 0
M  V30 10385 C 976.823 -0.959467 1.70451 0
M  V30 10386 C 977.203 -2.02036 0.611942 0
M  V30 10387 O 976.551 -2.25325 -0.37959 0
M  V30 10388 C 976.761 -1.56092 3.12148 0
M  V30 10389 C 978.109 -2.04939 3.71867 0
M  V30 10390 O 979.133 -1.65966 3.15172 0
M  V30 10391 O 977.992 -2.766 4.71333 0
M  V30 10392 H 975.086 -0.448844 0.6946 0
M  V30 10393 H 977.632 -0.202633 1.68486 0
M  V30 10394 H 976.404 -0.79538 3.83131 0
M  V30 10395 H 976.027 -2.38303 3.18273 0
M  V30 10396 N 977.024 -1.50153 -0.478725 0
M  V30 10397 C 977.956 -1.64603 -1.59494 0
M  V30 10398 C 978.969 -0.527789 -1.54007 0
M  V30 10399 O 980.158 -0.80069 -1.59534 0
M  V30 10400 C 977.258 -1.60738 -2.98356 0
M  V30 10401 C 976.431 -2.88468 -3.28794 0
M  V30 10402 C 975.49 -2.77349 -4.47173 0
M  V30 10403 O 974.516 -3.51302 -4.47857 0
M  V30 10404 N 975.718 -1.9039 -5.4839 0
M  V30 10405 H 978.483 -2.6088 -1.47518 0
M  V30 10406 H 976.044 -1.47521 -0.667011 0
M  V30 10407 H 978.036 -1.50923 -3.75505 0
M  V30 10408 H 976.606 -0.722273 -3.04141 0
M  V30 10409 H 975.826 -3.12467 -2.40329 0
M  V30 10410 H 977.114 -3.73102 -3.45937 0
M  V30 10411 H 976.512 -1.29606 -5.50653 0
M  V30 10412 H 975.069 -1.86484 -6.24553 0
M  V30 10413 N 978.502 0.731368 -1.39602 0
M  V30 10414 C 979.748 1.49321 -1.37227 0
M  V30 10415 C 980.081 1.94176 0.0306502 0
M  V30 10416 O 979.356 1.67046 0.996294 0
M  V30 10417 C 979.639 2.73035 -2.34784 0
M  V30 10418 C 979.492 2.34176 -3.84033 0
M  V30 10419 C 980.811 3.75146 -2.30116 0
M  V30 10420 H 977.93 0.541652 -0.499783 0
M  V30 10421 H 980.572 0.835968 -1.70621 0
M  V30 10422 H 978.722 3.29114 -2.06437 0
M  V30 10423 H 980.394 1.83701 -4.23145 0
M  V30 10424 H 978.637 1.66361 -4.00633 0
M  V30 10425 H 979.308 3.22786 -4.47787 0
M  V30 10426 H 981.784 3.28661 -2.55189 0
M  V30 10427 H 980.66 4.5937 -3.00451 0
M  V30 10428 H 980.921 4.22326 -1.30741 0
M  V30 10429 N 979.98 1.24838 0.961938 0
M  V30 10430 C 981.205 1.11967 1.7458 0
M  V30 10431 C 981.63 -0.323287 1.85301 0
M  V30 10432 O 980.988 -1.23412 1.32812 0
M  V30 10433 C 981.036 1.77066 3.14134 0
M  V30 10434 O 980.14 1.04534 3.98932 0
M  V30 10435 H 979.481 0.391338 0.536424 0
M  V30 10436 H 982.011 1.65259 1.20626 0
M  V30 10437 H 982.021 1.83056 3.64629 0
M  V30 10438 H 980.696 2.82052 3.05646 0
M  V30 10439 H 979.273 1.06372 3.57407 0
M  V30 10440 N 981.458 -1.16348 1.06306 0
M  V30 10441 C 982.706 -1.86512 0.778311 0
M  V30 10442 C 983.027 -1.82107 -0.697273 0
M  V30 10443 O 982.297 -1.2547 -1.50446 0
M  V30 10444 H 980.877 -0.690529 0.284919 0
M  V30 10445 H 983.539 -1.41092 1.34458 0
M  V30 10446 H 982.635 -2.91947 1.10333 0
M  V30 10447 N 982.937 -0.845659 -1.3299 0
M  V30 10448 C 983.867 -0.298957 -2.31578 0
M  V30 10449 C 984.848 0.597012 -1.59279 0
M  V30 10450 O 986.033 0.519142 -1.87132 0
M  V30 10451 C 983.163 0.521109 -3.43368 0
M  V30 10452 C 982.117 -0.279651 -4.27085 0
M  V30 10453 C 981.443 0.664591 -5.30554 0
M  V30 10454 C 982.743 -1.50046 -5.00283 0
M  V30 10455 H 984.437 -1.12272 -2.77552 0
M  V30 10456 H 981.983 -0.54132 -1.33438 0
M  V30 10457 H 983.936 0.913921 -4.1137 0
M  V30 10458 H 982.66 1.37815 -2.96099 0
M  V30 10459 H 981.319 -0.654106 -3.60717 0
M  V30 10460 H 980.967 1.51822 -4.79541 0
M  V30 10461 H 980.667 0.132871 -5.8745 0
M  V30 10462 H 982.191 1.05477 -6.01421 0
M  V30 10463 H 983.605 -1.18044 -5.61016 0
M  V30 10464 H 982.002 -1.96946 -5.66862 0
M  V30 10465 H 983.072 -2.26659 -4.28665 0
M  V30 10466 N 984.415 1.45619 -0.602734 0
M  V30 10467 C 985.64 2.07157 -0.100429 0
M  V30 10468 C 986.065 1.44524 1.20393 0
M  V30 10469 O 985.423 0.536191 1.7319 0
M  V30 10470 C 985.471 3.60587 0.0308604 0
M  V30 10471 O 984.575 3.97944 1.08234 0
M  V30 10472 H 983.916 0.6601 -0.0718643 0
M  V30 10473 H 986.446 1.86948 -0.831366 0
M  V30 10474 H 986.456 4.07348 0.230634 0
M  V30 10475 H 985.131 4.05561 -0.921581 0
M  V30 10476 H 983.708 3.62862 0.859414 0
M  V30 10477 N 985.893 0.34162 1.53853 0
M  V30 10478 C 987.17 -0.310664 1.93117 0
M  V30 10479 C 987.55 -1.68398 1.273 0
M  V30 10480 O 986.898 -2.24546 0.423225 0
M  V30 10481 C 987.108 -0.384867 3.46871 0
M  V30 10482 C 988.456 -0.636621 4.198 0
M  V30 10483 O 989.48 -0.467061 3.53125 0
M  V30 10484 O 988.339 -0.964962 5.37913 0
M  V30 10485 H 985.433 -0.180881 0.806977 0
M  V30 10486 H 987.979 0.392656 1.65095 0
M  V30 10487 H 986.751 0.57894 3.86994 0
M  V30 10488 H 986.374 -1.13505 3.81054 0
M  V30 10489 N 987.371 -1.57444 0.0701946 0
M  V30 10490 C 988.318 -2.12631 -0.897599 0
M  V30 10491 C 989.288 -1.03841 -1.29639 0
M  V30 10492 O 990.473 -1.31495 -1.38253 0
M  V30 10493 C 987.613 -2.6911 -2.16041 0
M  V30 10494 C 986.726 -3.9205 -1.8144 0
M  V30 10495 C 985.861 -4.36778 -3.02321 0
M  V30 10496 C 984.9 -5.52371 -2.63729 0
M  V30 10497 N 984.037 -5.92065 -3.77364 0
M  V30 10498 H 988.877 -2.95024 -0.420104 0
M  V30 10499 H 986.414 -1.45792 -0.195716 0
M  V30 10500 H 988.372 -2.99963 -2.89962 0
M  V30 10501 H 987.002 -1.89484 -2.61334 0
M  V30 10502 H 986.054 -3.67669 -0.975896 0
M  V30 10503 H 987.366 -4.76011 -1.49046 0
M  V30 10504 H 986.52 -4.69285 -3.84521 0
M  V30 10505 H 985.259 -3.51668 -3.37907 0
M  V30 10506 H 984.264 -5.19517 -1.7995 0
M  V30 10507 H 985.489 -6.39212 -2.29315 0
M  V30 10508 H 983.435 -5.09904 -4.12715 0
M  V30 10509 H 983.352 -6.70762 -3.48733 0
M  V30 10510 H 984.62 -6.29193 -4.60148 0
M  V30 10511 N 988.849 0.203349 -1.56283 0
M  V30 10512 C 989.796 1.25205 -1.93888 0
M  V30 10513 C 990.766 1.45654 -0.798376 0
M  V30 10514 O 991.951 1.58924 -1.05583 0
M  V30 10515 C 989.091 2.59355 -2.27659 0
M  V30 10516 C 988.204 2.46553 -3.54733 0
M  V30 10517 C 987.339 3.73351 -3.77865 0
M  V30 10518 C 986.378 3.55347 -4.98392 0
M  V30 10519 N 985.515 4.74137 -5.17821 0
M  V30 10520 H 990.355 0.924356 -2.83301 0
M  V30 10521 H 987.892 0.445082 -1.40205 0
M  V30 10522 H 989.85 3.375 -2.45254 0
M  V30 10523 H 988.48 2.90184 -1.41396 0
M  V30 10524 H 987.532 1.59749 -3.45231 0
M  V30 10525 H 988.844 2.2918 -4.43033 0
M  V30 10526 H 987.998 4.59937 -3.95655 0
M  V30 10527 H 986.737 3.9367 -2.8788 0
M  V30 10528 H 985.742 2.67146 -4.80534 0
M  V30 10529 H 986.967 3.36482 -5.89879 0
M  V30 10530 H 984.913 4.94735 -4.30782 0
M  V30 10531 H 984.83 4.59558 -6.00285 0
M  V30 10532 H 986.098 5.62098 -5.40061 0
M  V30 10533 N 990.327 1.50405 0.470755 0
M  V30 10534 C 991.574 1.61411 1.22281 0
M  V30 10535 C 991.902 0.314603 1.91939 0
M  V30 10536 O 991.157 -0.699531 1.82771 0
M  V30 10537 C 991.456 2.74426 2.28965 0
M  V30 10538 C 991.122 4.14896 1.76557 0
M  V30 10539 C 989.784 4.53116 1.61985 0
M  V30 10540 C 992.136 5.02686 1.3768 0
M  V30 10541 C 989.464 5.76868 1.0696 0
M  V30 10542 C 991.816 6.26985 0.840967 0
M  V30 10543 C 990.48 6.64008 0.68188 0
M  V30 10544 H 989.75 0.590645 0.447459 0
M  V30 10545 H 992.397 1.84339 0.518783 0
M  V30 10546 H 990.702 2.45588 3.05277 0
M  V30 10547 H 992.399 2.80146 2.86914 0
M  V30 10548 H 988.989 3.84743 1.88867 0
M  V30 10549 H 993.173 4.7379 1.47772 0
M  V30 10550 H 988.429 6.04227 0.933808 0
M  V30 10551 H 992.603 6.94372 0.531066 0
M  V30 10552 H 990.23 7.59778 0.25335 0
M  V30 10553 N 991.805 -0.723954 1.39988 0
M  V30 10554 C 992.737 -1.84859 1.35498 0
M  V30 10555 C 993.75 -1.60681 0.261812 0
M  V30 10556 O 994.939 -1.7071 0.521566 0
M  V30 10557 C 992.039 -3.21103 1.08381 0
M  V30 10558 C 991.212 -3.72546 2.2919 0
M  V30 10559 C 990.271 -4.8738 1.9836 0
M  V30 10560 O 989.297 -5.00467 2.71149 0
M  V30 10561 N 990.499 -5.72566 0.956461 0
M  V30 10562 H 993.264 -1.89212 2.3242 0
M  V30 10563 H 990.825 -0.905152 1.34233 0
M  V30 10564 H 992.817 -3.9551 0.857564 0
M  V30 10565 H 991.387 -3.1195 0.201549 0
M  V30 10566 H 990.607 -2.89365 2.67697 0
M  V30 10567 H 991.895 -4.03652 3.09746 0
M  V30 10568 H 991.293 -5.64595 0.353444 0
M  V30 10569 H 989.85 -6.46993 0.790118 0
M  V30 10570 N 993.283 -1.25346 -0.955304 0
M  V30 10571 C 994.699 -1.02154 -1.22625 0
M  V30 10572 C 994.899 0.26206 -1.99789 0
M  V30 10573 O 993.955 0.974958 -2.32918 0
M  V30 10574 C 995.268 -2.2443 -2.00129 0
M  V30 10575 C 996.816 -2.29185 -2.13174 0
M  V30 10576 C 997.291 -3.51117 -2.94077 0
M  V30 10577 N 998.782 -3.51509 -3.01655 0
M  V30 10578 C 999.517 -4.42517 -3.64645 0
M  V30 10579 N 999.013 -5.43796 -4.29252 0
M  V30 10580 N 1000.81 -4.302 -3.61779 0
M  V30 10581 H 992.957 -2.07812 -0.439071 0
M  V30 10582 H 995.22 -0.91258 -0.256715 0
M  V30 10583 H 994.926 -3.17717 -1.50827 0
M  V30 10584 H 994.8 -2.27548 -3.00835 0
M  V30 10585 H 997.187 -1.36422 -2.61674 0
M  V30 10586 H 997.268 -2.30087 -1.11775 0
M  V30 10587 H 996.912 -4.44201 -2.46268 0
M  V30 10588 H 996.842 -3.4746 -3.95701 0
M  V30 10589 H 999.333 -2.78245 -2.55711 0
M  V30 10590 H 999.646 -6.09453 -4.75171 0
M  V30 10591 H 997.991 -5.4767 -4.27882 0
M  V30 10592 H 1001.18 -3.50304 -3.10491 0
M  V30 10593 H 1001.36 -5.01323 -4.10584 0
M  V30 10594 N 994.761 1.15782 -1.06922 0
M  V30 10595 C 996.172 1.68062 -0.813144 0
M  V30 10596 C 996.523 1.84681 0.662374 0
M  V30 10597 O 995.648 1.54696 1.51321 0
M  V30 10598 C 996.243 3.05273 -1.46949 0
M  V30 10599 C 994.802 3.54647 -1.26104 0
M  V30 10600 C 993.949 2.30477 -1.54194 0
M  V30 10601 H 996.9 1.00056 -1.23185 0
M  V30 10602 H 996.921 3.69986 -0.888308 0
M  V30 10603 H 996.433 2.93145 -2.54337 0
M  V30 10604 H 994.534 3.72024 -0.20718 0
M  V30 10605 H 994.647 4.36354 -1.97819 0
M  V30 10606 H 993.011 2.35803 -0.96276 0
M  V30 10607 H 993.794 2.2094 -2.62755 0
M  V30 10608 N 996.239 0.8527 1.3254 0
M  V30 10609 C 997.187 0.284659 2.30852 0
M  V30 10610 C 998.181 -0.5909 1.5876 0
M  V30 10611 O 999.387 -0.478922 1.73512 0
M  V30 10612 H 995.762 0.0733452 0.748415 0
M  V30 10613 H 997.733 1.1281 2.76254 0
M  V30 10614 C 996.482 -0.51379 3.43883 0
M  V30 10615 H 995.805 0.150644 3.99516 0
M  V30 10616 H 997.245 -0.876866 4.14834 0
M  V30 10617 C 995.704 -1.69823 2.90967 0
M  V30 10618 O 996.234 -2.79727 2.88298 0
M  V30 10619 N 994.44 -1.52465 2.47392 0
M  V30 10620 H 993.987 -0.630599 2.49762 0
M  V30 10621 H 993.945 -2.31859 2.12341 0
M  V30 10622 N 997.718 -1.45297 0.610449 0
M  V30 10623 C 998.995 -1.95562 0.0386189 0
M  V30 10624 C 999.375 -1.55284 -1.43004 0
M  V30 10625 O 998.723 -0.816785 -2.13403 0
M  V30 10626 C 998.933 -3.48176 0.239731 0
M  V30 10627 C 1000.28 -4.24425 0.122035 0
M  V30 10628 O 1001.3 -3.55794 0.170003 0
M  V30 10629 O 1000.16 -5.46499 0.00953695 0
M  V30 10630 H 997.258 -0.826296 -0.0341081 0
M  V30 10631 H 999.804 -1.55449 0.68071 0
M  V30 10632 H 998.576 -3.70471 1.25963 0
M  V30 10633 H 998.199 -3.95186 -0.437486 0
M  V30 10634 N 999.196 -0.349774 -1.5367 0
M  V30 10635 C 1000.44 0.244827 -2.01015 0
M  V30 10636 C 1000.77 1.50057 -1.23746 0
M  V30 10637 O 1000.03 1.9315 -0.314872 0
M  V30 10638 C 1000.32 0.598311 -3.52356 0
M  V30 10639 C 999.991 -0.56127 -4.47393 0
M  V30 10640 C 998.653 -0.879481 -4.73095 0
M  V30 10641 C 1001 -1.3389 -5.03709 0
M  V30 10642 C 998.333 -1.97758 -5.52366 0
M  V30 10643 C 1000.68 -2.4273 -5.84179 0
M  V30 10644 C 999.349 -2.75103 -6.08173 0
M  V30 10645 H 998.619 0.0895884 -0.735564 0
M  V30 10646 H 1001.27 -0.478975 -1.85413 0
M  V30 10647 H 999.571 1.40291 -3.65822 0
M  V30 10648 H 1001.27 1.07036 -3.86451 0
M  V30 10649 H 997.858 -0.303201 -4.27526 0
M  V30 10650 H 1002.04 -1.10632 -4.83812 0
M  V30 10651 H 997.298 -2.23257 -5.6918 0
M  V30 10652 H 1001.47 -3.03412 -6.26828 0
M  V30 10653 H 999.099 -3.60317 -6.69385 0
M  V30 10654 N 1000.67 1.57404 -0.0785433 0
M  V30 10655 C 1001.9 1.98492 0.601292 0
M  V30 10656 C 1002.32 0.956832 1.61945 0
M  V30 10657 O 1001.68 -0.0767502 1.81137 0
M  V30 10658 C 1001.73 3.38596 1.24036 0
M  V30 10659 O 1000.83 3.38461 2.35622 0
M  V30 10660 H 1000.17 0.645882 0.154054 0
M  V30 10661 H 1002.7 2.04012 -0.155056 0
M  V30 10662 H 1002.71 3.75929 1.5856 0
M  V30 10663 H 1001.39 4.12952 0.494341 0
M  V30 10664 H 999.967 3.12906 2.02841 0
M  V30 10665 N 1002.15 -0.195058 1.56388 0
M  V30 10666 C 1003.56 -0.75973 1.70543 0
M  V30 10667 C 1003.91 -1.83849 0.685118 0
M  V30 10668 O 1003.04 -2.15819 -0.158457 0
M  V30 10669 C 1003.63 -1.38485 3.09204 0
M  V30 10670 C 1002.19 -1.89661 3.25124 0
M  V30 10671 C 1001.34 -0.766563 2.66494 0
M  V30 10672 H 1004.29 0.0300148 1.58672 0
M  V30 10673 H 1004.31 -2.25424 3.06536 0
M  V30 10674 H 1003.82 -0.599479 3.83442 0
M  V30 10675 H 1001.92 -2.70917 2.55802 0
M  V30 10676 H 1002.04 -2.05837 4.32629 0
M  V30 10677 H 1000.4 -1.18086 2.25672 0
M  V30 10678 H 1001.18 0.00657102 3.43299 0
M  V30 10679 N 1003.63 -1.50653 -0.462772 0
M  V30 10680 C 1005.04 -1.54821 -1.04342 0
M  V30 10681 C 1005.39 -0.356595 -1.92932 0
M  V30 10682 O 1004.52 0.529579 -2.0982 0
M  V30 10683 C 1005.11 -2.80571 -1.89909 0
M  V30 10684 C 1003.67 -2.87394 -2.43067 0
M  V30 10685 C 1002.82 -2.49206 -1.21621 0
M  V30 10686 H 1005.77 -1.56797 -0.245048 0
M  V30 10687 H 1005.79 -2.62897 -2.75074 0
M  V30 10688 H 1005.3 -3.67281 -1.25405 0
M  V30 10689 H 1003.4 -2.05055 -3.111 0
M  V30 10690 H 1003.52 -3.90477 -2.77605 0
M  V30 10691 H 1001.88 -2.01829 -1.55361 0
M  V30 10692 H 1002.66 -3.38233 -0.587669 0
M  V30 10693 N 1005.11 0.71652 -1.4037 0
M  V30 10694 C 1006.36 1.47638 -1.38597 0
M  V30 10695 C 1006.68 1.94496 0.0120141 0
M  V30 10696 O 1005.94 1.68437 0.996373 0
M  V30 10697 C 1006.24 2.71777 -2.32103 0
M  V30 10698 C 1005.9 2.43689 -3.79376 0
M  V30 10699 C 1004.57 2.35739 -4.195 0
M  V30 10700 C 1006.92 2.20099 -4.72447 0
M  V30 10701 C 1004.25 2.02265 -5.50732 0
M  V30 10702 C 1006.6 1.88138 -6.03976 0
M  V30 10703 C 1005.26 1.78669 -6.43143 0
M  V30 10704 H 1004.53 0.540246 -0.507163 0
M  V30 10705 H 1007.18 0.820822 -1.73017 0
M  V30 10706 H 1005.48 3.42166 -1.90865 0
M  V30 10707 H 1007.18 3.29864 -2.28015 0
M  V30 10708 H 1003.77 2.50763 -3.47585 0
M  V30 10709 H 1007.95 2.25198 -4.42266 0
M  V30 10710 H 1003.21 1.93471 -5.79982 0
M  V30 10711 H 1007.38 1.68898 -6.75608 0
M  V30 10712 H 1005.01 1.52498 -7.44747 0
M  V30 10713 N 1006.59 1.25851 0.948643 0
M  V30 10714 C 1008 1.02802 1.22081 0
M  V30 10715 C 1008.2 -0.251461 1.99925 0
M  V30 10716 O 1007.26 -0.962592 2.33432 0
M  V30 10717 C 1008.57 2.25489 1.98936 0
M  V30 10718 C 1010.12 2.30312 2.11956 0
M  V30 10719 C 1010.59 3.52671 2.92211 0
M  V30 10720 N 1012.09 3.53103 2.99787 0
M  V30 10721 C 1012.82 4.44445 3.62294 0
M  V30 10722 N 1012.32 5.46065 4.26362 0
M  V30 10723 N 1014.11 4.32113 3.59493 0
M  V30 10724 H 1006.26 2.08042 0.428044 0
M  V30 10725 H 1008.52 0.913928 0.251872 0
M  V30 10726 H 1008.23 3.18513 1.4914 0
M  V30 10727 H 1008.1 2.2914 2.99624 0
M  V30 10728 H 1010.49 1.37808 2.60946 0
M  V30 10729 H 1010.57 2.30676 1.10554 0
M  V30 10730 H 1010.22 4.45501 2.43909 0
M  V30 10731 H 1010.15 3.49554 3.93853 0
M  V30 10732 H 1012.64 2.79597 2.54232 0
M  V30 10733 H 1012.95 6.11964 4.71932 0
M  V30 10734 H 1011.29 5.49931 4.24972 0
M  V30 10735 H 1014.49 3.51946 3.08629 0
M  V30 10736 H 1014.66 5.03493 4.0792 0
M  V30 10737 N 1008.06 -1.15214 1.07534 0
M  V30 10738 C 1009.31 -1.86043 0.799629 0
M  V30 10739 C 1009.64 -1.82435 -0.674356 0
M  V30 10740 O 1008.89 -1.24379 -1.51091 0
M  V30 10741 C 1009.19 -3.34623 1.25547 0
M  V30 10742 C 1008.86 -3.58425 2.73573 0
M  V30 10743 C 1007.52 -3.6463 3.14004 0
M  V30 10744 C 1009.87 -3.67977 3.6911 0
M  V30 10745 C 1007.2 -3.779 4.48786 0
M  V30 10746 C 1009.55 -3.82771 5.03656 0
M  V30 10747 C 1008.22 -3.87222 5.43705 0
M  V30 10748 H 1007.49 -0.680781 0.292605 0
M  V30 10749 H 1010.13 -1.36149 1.34669 0
M  V30 10750 H 1008.44 -3.86737 0.627828 0
M  V30 10751 H 1010.14 -3.87836 1.01901 0
M  V30 10752 H 1006.73 -3.54238 2.41275 0
M  V30 10753 H 1010.91 -3.62482 3.39 0
M  V30 10754 H 1006.17 -3.79604 4.79281 0
M  V30 10755 H 1010.34 -3.89104 5.77556 0
M  V30 10756 H 1007.97 -3.97256 6.48145 0
M  V30 10757 N 1009.54 -0.859717 -1.32086 0
M  V30 10758 C 1010.79 -0.464662 -1.96686 0
M  V30 10759 C 1011.11 0.98412 -1.68345 0
M  V30 10760 O 1010.38 1.68847 -0.993361 0
M  V30 10761 H 1008.96 -0.168838 -0.727669 0
M  V30 10762 H 1011.62 -1.09726 -1.61079 0
M  V30 10763 H 1010.72 -0.613904 -3.06003 0
M  V30 10764 N 1011.02 1.44971 -0.618145 0
M  V30 10765 C 1012.25 2.06527 -0.124165 0
M  V30 10766 C 1012.66 1.46097 1.19588 0
M  V30 10767 O 1012.02 0.57901 1.73071 0
M  V30 10768 C 1012.07 3.61498 0.0106701 0
M  V30 10769 O 1011.79 4.19675 -1.25716 0
M  V30 10770 C 1013.29 4.40061 0.534872 0
M  V30 10771 H 1010.51 0.666941 -0.0736935 0
M  V30 10772 H 1013.06 1.8605 -0.848871 0
M  V30 10773 H 1011.21 3.81282 0.685752 0
M  V30 10774 H 1011.63 5.12972 -1.09362 0
M  V30 10775 H 1013.1 5.48963 0.57827 0
M  V30 10776 H 1013.58 4.10587 1.55931 0
M  V30 10777 H 1014.18 4.25167 -0.10652 0
M  V30 10778 N 1012.5 0.357919 1.53482 0
M  V30 10779 C 1013.74 -0.23451 2.0144 0
M  V30 10780 C 1014.08 -1.49044 1.24497 0
M  V30 10781 O 1013.35 -1.91566 0.336535 0
M  V30 10782 C 1013.64 -0.534193 3.56116 0
M  V30 10783 C 1013.49 0.734834 4.43757 0
M  V30 10784 C 1014.81 -1.33793 4.1927 0
M  V30 10785 H 1011.93 -0.0837595 0.732225 0
M  V30 10786 H 1014.57 0.481297 1.83803 0
M  V30 10787 H 1012.72 -1.144 3.71275 0
M  V30 10788 H 1014.39 1.37251 4.40409 0
M  V30 10789 H 1012.63 1.35678 4.12036 0
M  V30 10790 H 1013.3 0.48021 5.49907 0
M  V30 10791 H 1015.78 -0.822158 4.07897 0
M  V30 10792 H 1014.66 -1.51636 5.27539 0
M  V30 10793 H 1014.92 -2.34423 3.74831 0
M  V30 10794 N 1013.98 -1.5736 0.0868897 0
M  V30 10795 C 1015.39 -1.81356 -0.443499 0
M  V30 10796 C 1015.74 -1.00192 -1.68689 0
M  V30 10797 O 1014.86 -0.228863 -2.15186 0
M  V30 10798 C 1015.46 -3.28941 -0.811387 0
M  V30 10799 C 1014.02 -3.53729 -1.28656 0
M  V30 10800 C 1013.16 -2.75891 -0.279153 0
M  V30 10801 H 1016.12 -1.55594 0.312427 0
M  V30 10802 H 1016.14 -3.41815 -1.6716 0
M  V30 10803 H 1015.65 -3.87987 0.0937598 0
M  V30 10804 H 1013.75 -3.00005 -2.2097 0
M  V30 10805 H 1013.86 -4.62396 -1.25406 0
M  V30 10806 H 1012.23 -2.4311 -0.759595 0
M  V30 10807 H 1013.01 -3.37682 0.618529 0
M  V30 10808 N 1015.45 0.186762 -1.56489 0
M  V30 10809 C 1016.4 1.25084 -1.96104 0
M  V30 10810 C 1017.4 1.4667 -0.847609 0
M  V30 10811 O 1018.6 1.47432 -1.03266 0
M  V30 10812 H 1014.98 0.420121 -0.623701 0
M  V30 10813 H 1016.95 0.889761 -2.84826 0
M  V30 10814 C 1015.7 2.5863 -2.32392 0
M  V30 10815 H 1015.02 2.42838 -3.176 0
M  V30 10816 H 1016.46 3.3181 -2.63967 0
M  V30 10817 C 1014.92 3.16241 -1.16159 0
M  V30 10818 O 1015.45 3.99272 -0.441034 0
M  V30 10819 N 1013.66 2.75106 -0.936206 0
M  V30 10820 H 1013.2 2.0769 -1.5239 0
M  V30 10821 H 1013.16 3.13991 -0.160317 0
M  V30 10822 N 1016.93 1.50896 0.454776 0
M  V30 10823 C 1018.18 1.62378 1.20324 0
M  V30 10824 C 1018.5 0.333883 1.9212 0
M  V30 10825 O 1017.77 -0.649477 1.8482 0
M  V30 10826 H 1016.35 0.598395 0.447139 0
M  V30 10827 H 1019.01 1.87749 0.523102 0
M  V30 10828 H 1018.11 2.44296 1.94232 0
M  V30 10829 N 1018.41 -0.709066 1.40748 0
M  V30 10830 C 1019.64 -1.50313 1.42901 0
M  V30 10831 C 1020.06 -1.88072 0.032213 0
M  V30 10832 O 1019.42 -1.53716 -0.96131 0
M  V30 10833 C 1019.47 -2.75074 2.33166 0
M  V30 10834 O 1018.57 -3.72036 1.7794 0
M  V30 10835 H 1017.91 -0.452934 0.485538 0
M  V30 10836 H 1020.44 -0.872712 1.85054 0
M  V30 10837 H 1020.45 -3.23532 2.48578 0
M  V30 10838 H 1019.13 -2.46927 3.34664 0
M  V30 10839 H 1017.7 -3.30911 1.71908 0
M  V30 10840 N 1019.89 -1.26353 -0.941956 0
M  V30 10841 C 1021.12 -1.14626 -1.72245 0
M  V30 10842 C 1021.53 0.298588 -1.86424 0
M  V30 10843 O 1020.89 1.2045 -1.37106 0
M  V30 10844 C 1020.94 -1.80933 -3.12963 0
M  V30 10845 O 1020.66 -3.19771 -2.99463 0
M  V30 10846 C 1022.16 -1.7515 -4.07231 0
M  V30 10847 H 1019.38 -0.3992 -0.539333 0
M  V30 10848 H 1021.93 -1.66958 -1.1809 0
M  V30 10849 H 1020.08 -1.32541 -3.64021 0
M  V30 10850 H 1020.5 -3.52571 -3.88322 0
M  V30 10851 H 1021.97 -2.26183 -5.03533 0
M  V30 10852 H 1022.45 -0.717855 -4.33294 0
M  V30 10853 H 1023.05 -2.2309 -3.62093 0
M  V30 10854 N 1021.37 1.14642 -1.08144 0
M  V30 10855 C 1022.28 2.23257 -0.720668 0
M  V30 10856 C 1023.29 1.71866 0.271648 0
M  V30 10857 O 1024.47 2.01064 0.116266 0
M  V30 10858 C 1021.53 3.46447 -0.132542 0
M  V30 10859 C 1020.6 4.12789 -1.17913 0
M  V30 10860 C 1019.83 5.30099 -0.618971 0
M  V30 10861 O 1020.05 5.6762 0.562418 0
M  V30 10862 O 1018.99 5.86154 -1.36774 0
M  V30 10863 H 1022.81 2.56463 -1.62667 0
M  V30 10864 H 1020.4 1.22521 -0.854932 0
M  V30 10865 H 1022.28 4.20959 0.19277 0
M  V30 10866 H 1020.95 3.14971 0.746662 0
M  V30 10867 H 1019.86 3.40163 -1.55693 0
M  V30 10868 H 1021.19 4.48365 -2.03051 0
M  V30 10869 N 1022.85 0.866709 1.31628 0
M  V30 10870 C 1024.26 0.558188 1.49521 0
M  V30 10871 C 1024.46 -0.90844 1.7986 0
M  V30 10872 O 1023.52 -1.6908 1.87531 0
M  V30 10873 C 1024.83 1.45559 2.63122 0
M  V30 10874 C 1026.38 1.45728 2.77006 0
M  V30 10875 C 1026.85 2.34017 3.937 0
M  V30 10876 N 1028.34 2.31879 4.00982 0
M  V30 10877 C 1029.08 2.96915 4.90539 0
M  V30 10878 N 1028.58 3.71109 5.85021 0
M  V30 10879 N 1030.37 2.86241 4.83759 0
M  V30 10880 H 1022.52 1.81574 1.10203 0
M  V30 10881 H 1024.78 0.77621 0.544244 0
M  V30 10882 H 1024.49 2.49904 2.47469 0
M  V30 10883 H 1024.36 1.15174 3.59186 0
M  V30 10884 H 1026.75 0.421419 2.92075 0
M  V30 10885 H 1026.83 1.80134 1.81619 0
M  V30 10886 H 1026.47 3.37678 3.79389 0
M  V30 10887 H 1026.4 1.96937 4.88388 0
M  V30 10888 H 1028.9 1.77948 3.33381 0
M  V30 10889 H 1029.21 4.1787 6.5008 0
M  V30 10890 H 1027.55 3.75217 5.8501 0
M  V30 10891 H 1030.74 2.27819 4.08921 0
M  V30 10892 H 1030.92 3.37206 5.5335 0
M  V30 10893 N 1024.32 -1.44642 0.625825 0
M  V30 10894 C 1025.27 -2.32408 -0.0945221 0
M  V30 10895 C 1026.27 -1.47038 -0.841198 0
M  V30 10896 O 1027.47 -1.63415 -0.754698 0
M  V30 10897 H 1023.85 -0.75038 -0.0493321 0
M  V30 10898 H 1025.82 -2.90922 0.663863 0
M  V30 10899 C 1024.57 -3.30951 -1.06615 0
M  V30 10900 H 1023.89 -3.96648 -0.501021 0
M  V30 10901 H 1025.33 -3.95054 -1.53976 0
M  V30 10902 C 1023.79 -2.59479 -2.14877 0
M  V30 10903 O 1024.32 -2.38974 -3.22885 0
M  V30 10904 N 1022.52 -2.19307 -1.90665 0
M  V30 10905 H 1022.07 -2.36184 -1.02835 0
M  V30 10906 H 1022.03 -1.71811 -2.63303 0
M  V30 10907 N 1025.8 -0.366053 -1.5329 0
M  V30 10908 C 1027.05 0.224614 -2.00445 0
M  V30 10909 C 1027.36 1.49829 -1.2574 0
M  V30 10910 O 1028.57 2.16759 -1.63487 0
M  V30 10911 C 1027.03 0.450818 -3.57065 0
M  V30 10912 C 1026.63 -0.808257 -4.40649 0
M  V30 10913 C 1028.38 0.999116 -4.12575 0
M  V30 10914 C 1026.28 -0.551612 -5.88822 0
M  V30 10915 H 1025.21 0.0877114 -0.748881 0
M  V30 10916 H 1027.87 -0.484866 -1.76978 0
M  V30 10917 H 1026.25 1.22157 -3.76688 0
M  V30 10918 H 1027.42 -1.58184 -4.32798 0
M  V30 10919 H 1025.74 -1.27981 -3.96245 0
M  V30 10920 H 1028.33 1.20646 -5.20911 0
M  V30 10921 H 1028.68 1.96139 -3.67199 0
M  V30 10922 H 1029.21 0.288518 -3.96752 0
M  V30 10923 H 1025.95 -1.48423 -6.38475 0
M  V30 10924 H 1025.47 0.183462 -5.99519 0
M  V30 10925 H 1027.15 -0.177307 -6.46757 0
M  V30 10926 N 1027.28 1.57312 -0.0952337 0
M  V30 10927 C 1028.7 1.57445 0.261416 0
M  V30 10928 C 1028.9 1.10639 1.68408 0
M  V30 10929 O 1027.95 0.782912 2.40056 0
M  V30 10930 C 1029.26 3.00659 0.0497206 0
M  V30 10931 C 1030.81 3.1278 0.117459 0
M  V30 10932 C 1031.29 4.57952 -0.0662441 0
M  V30 10933 N 1032.78 4.63199 -0.0114146 0
M  V30 10934 C 1033.51 5.73255 -0.128799 0
M  V30 10935 N 1033.01 6.92146 -0.301026 0
M  V30 10936 N 1034.8 5.62056 -0.0700599 0
M  V30 10937 H 1026.95 1.86045 -1.02475 0
M  V30 10938 H 1029.22 0.858726 -0.401614 0
M  V30 10939 H 1028.92 3.39102 -0.932888 0
M  V30 10940 H 1028.8 3.68792 0.791975 0
M  V30 10941 H 1031.18 2.74209 1.09057 0
M  V30 10942 H 1031.26 2.47238 -0.656288 0
M  V30 10943 H 1030.91 4.97217 -1.03623 0
M  V30 10944 H 1030.84 5.21555 0.727198 0
M  V30 10945 H 1033.33 3.77712 0.119154 0
M  V30 10946 H 1033.64 7.71855 -0.382104 0
M  V30 10947 H 1031.99 6.94184 -0.336695 0
M  V30 10948 H 1035.18 4.68057 0.0633587 0
M  V30 10949 H 1035.35 6.4779 -0.164991 0
M  V30 10950 N 1028.76 -0.17846 1.56586 0
M  V30 10951 C 1029.71 -1.24042 1.96765 0
M  V30 10952 C 1030.7 -1.46218 0.855375 0
M  V30 10953 O 1031.91 -1.46882 1.04046 0
M  V30 10954 H 1028.28 -0.416807 0.62592 0
M  V30 10955 H 1030.25 -0.874644 2.85294 0
M  V30 10956 C 1029 -2.57394 2.3376 0
M  V30 10957 H 1028.32 -2.41151 3.18883 0
M  V30 10958 H 1029.76 -3.30405 2.65723 0
M  V30 10959 C 1028.22 -3.15621 1.17835 0
M  V30 10960 O 1028.75 -3.99032 0.462202 0
M  V30 10961 N 1026.96 -2.74606 0.950783 0
M  V30 10962 H 1026.51 -2.06878 1.5349 0
M  V30 10963 H 1026.46 -3.13902 0.176967 0
M  V30 10964 N 1030.24 -1.51135 -0.446768 0
M  V30 10965 C 1031.18 -1.72328 -1.56224 0
M  V30 10966 C 1032.18 -0.589411 -1.58815 0
M  V30 10967 O 1033.38 -0.770554 -1.62673 0
M  V30 10968 H 1029.76 -0.544339 -0.518844 0
M  V30 10969 H 1031.73 -2.65851 -1.3552 0
M  V30 10970 C 1030.48 -1.85686 -2.93966 0
M  V30 10971 H 1029.8 -2.72336 -2.927 0
M  V30 10972 H 1031.24 -2.0453 -3.71407 0
M  V30 10973 C 1029.7 -0.614328 -3.31252 0
M  V30 10974 O 1030.23 0.235369 -4.0101 0
M  V30 10975 N 1028.44 -0.461181 -2.86917 0
M  V30 10976 H 1027.98 -1.15369 -2.30321 0
M  V30 10977 H 1027.94 0.368966 -3.12227 0
M  V30 10978 N 1031.71 0.701592 -1.41122 0
M  V30 10979 C 1032.94 1.48833 -1.43291 0
M  V30 10980 C 1033.35 1.89168 -0.0348668 0
M  V30 10981 O 1032.69 1.56937 0.9548 0
M  V30 10982 C 1032.76 2.78533 -2.27287 0
M  V30 10983 C 1032.42 2.60438 -3.75528 0
M  V30 10984 C 1033.42 2.26778 -4.67833 0
M  V30 10985 C 1031.1 2.76266 -4.19503 0
M  V30 10986 C 1033.1 2.09176 -6.021 0
M  V30 10987 C 1030.78 2.58281 -5.53836 0
M  V30 10988 C 1031.78 2.24786 -6.4495 0
M  V30 10989 O 1031.47 2.06952 -7.76805 0
M  V30 10990 H 1031.2 0.465401 -0.490284 0
M  V30 10991 H 1033.76 0.871843 -1.85979 0
M  V30 10992 H 1031.99 3.42566 -1.79403 0
M  V30 10993 H 1033.67 3.40312 -2.21229 0
M  V30 10994 H 1034.44 2.1417 -4.35151 0
M  V30 10995 H 1030.32 3.01322 -3.48893 0
M  V30 10996 H 1033.86 1.82955 -6.73181 0
M  V30 10997 H 1029.76 2.70478 -5.86099 0
M  V30 10998 H 1030.53 2.21762 -7.87886 0
M  V30 10999 N 1033.19 1.2685 0.935242 0
M  V30 11000 C 1034.15 1.08975 2.01636 0
M  V30 11001 C 1035.15 0.0361543 1.60759 0
M  V30 11002 O 1036.34 0.280087 1.71934 0
M  V30 11003 C 1033.48 0.658831 3.34473 0
M  V30 11004 H 1034.67 2.04968 2.18925 0
M  V30 11005 H 1032.22 1.09531 1.11501 0
M  V30 11006 H 1032.96 -0.302824 3.22883 0
M  V30 11007 H 1032.74 1.41967 3.65497 0
M  V30 11008 H 1034.23 0.555783 4.13885 0
M  V30 11009 N 1034.67 -1.14067 1.0875 0
M  V30 11010 C 1035.58 -2.22871 0.732498 0
M  V30 11011 C 1036.6 -1.72008 -0.26253 0
M  V30 11012 O 1037.77 -2.01123 -0.105601 0
M  V30 11013 C 1034.84 -3.46371 0.150913 0
M  V30 11014 C 1033.9 -4.12158 1.201 0
M  V30 11015 C 1033.13 -5.29763 0.647075 0
M  V30 11016 O 1033.35 -5.67911 -0.532307 0
M  V30 11017 O 1032.29 -5.8542 1.3988 0
M  V30 11018 H 1036.11 -2.55596 1.64025 0
M  V30 11019 H 1033.7 -1.22065 0.861417 0
M  V30 11020 H 1035.58 -4.21055 -0.170442 0
M  V30 11021 H 1034.26 -3.15362 -0.729948 0
M  V30 11022 H 1033.16 -3.39332 1.57494 0
M  V30 11023 H 1034.5 -4.47282 2.05426 0
M  V30 11024 N 1036.15 -0.873678 -1.31166 0
M  V30 11025 C 1037.08 -0.276805 -2.26515 0
M  V30 11026 C 1038.06 0.596166 -1.51277 0
M  V30 11027 O 1039.24 0.548769 -1.80335 0
M  V30 11028 C 1036.37 0.607711 -3.33203 0
M  V30 11029 C 1035.42 -0.194411 -4.26057 0
M  V30 11030 S 1036.25 -1.57534 -5.11804 0
M  V30 11031 C 1037.41 -0.697047 -6.22006 0
M  V30 11032 H 1037.64 -1.08505 -2.76792 0
M  V30 11033 H 1035.17 -0.672419 -1.38989 0
M  V30 11034 H 1037.13 1.11234 -3.95142 0
M  V30 11035 H 1035.79 1.38994 -2.81673 0
M  V30 11036 H 1034.98 0.480094 -5.01708 0
M  V30 11037 H 1034.59 -0.631262 -3.68634 0
M  V30 11038 H 1036.88 0.0907919 -6.77439 0
M  V30 11039 H 1037.82 -1.42481 -6.93617 0
M  V30 11040 H 1038.23 -0.262954 -5.63887 0
M  V30 11041 N 1037.63 1.44308 -0.633487 0
M  V30 11042 C 1038.58 2.27814 0.0919619 0
M  V30 11043 C 1039.56 1.38798 0.813882 0
M  V30 11044 O 1040.75 1.62587 0.699601 0
M  V30 11045 C 1037.88 3.26158 1.07125 0
M  V30 11046 C 1036.97 4.22663 0.348831 0
M  V30 11047 N 1037.36 5.01938 -0.623854 0
M  V30 11048 C 1035.66 4.42041 0.592958 0
M  V30 11049 C 1036.36 5.72129 -1.05088 0
M  V30 11050 N 1035.33 5.42205 -0.389183 0
M  V30 11051 H 1039.14 2.86515 -0.654721 0
M  V30 11052 H 1036.65 1.55773 -0.459178 0
M  V30 11053 H 1038.65 3.84742 1.60559 0
M  V30 11054 H 1037.31 2.69019 1.81821 0
M  V30 11055 H 1038.32 5.08119 -1.00176 0
M  V30 11056 H 1034.99 3.95997 1.32261 0
M  V30 11057 H 1036.38 6.45797 -1.85461 0
M  V30 11058 N 1039.1 0.374177 1.53094 0
M  V30 11059 C 1040.07 -0.455999 2.24618 0
M  V30 11060 C 1041.07 -1.00269 1.25709 0
M  V30 11061 O 1042.26 -0.887077 1.49922 0
M  V30 11062 C 1039.39 -1.63822 2.98957 0
M  V30 11063 H 1040.58 0.169986 2.99418 0
M  V30 11064 H 1038.14 0.126015 1.55791 0
M  V30 11065 H 1038.87 -2.30205 2.28421 0
M  V30 11066 H 1038.66 -1.25308 3.71538 0
M  V30 11067 H 1040.15 -2.22633 3.53305 0
M  V30 11068 N 1040.58 -1.57259 0.103575 0
M  V30 11069 C 1041.81 -1.98711 -0.565454 0
M  V30 11070 C 1042.22 -0.981759 -1.61735 0
M  V30 11071 O 1041.56 0.0357019 -1.83665 0
M  V30 11072 C 1041.63 -3.36552 -1.26384 0
M  V30 11073 C 1041.29 -4.55566 -0.361714 0
M  V30 11074 C 1042.29 -5.18408 0.393539 0
M  V30 11075 C 1039.97 -5.01534 -0.277292 0
M  V30 11076 C 1041.97 -6.25594 1.2211 0
M  V30 11077 C 1039.65 -6.08584 0.553919 0
M  V30 11078 C 1040.65 -6.7048 1.30176 0
M  V30 11079 O 1040.34 -7.75464 2.1192 0
M  V30 11080 H 1040.07 -0.657853 -0.155582 0
M  V30 11081 H 1042.62 -2.04591 0.182089 0
M  V30 11082 H 1040.85 -3.2738 -2.05813 0
M  V30 11083 H 1042.54 -3.62395 -1.82824 0
M  V30 11084 H 1043.31 -4.8382 0.338098 0
M  V30 11085 H 1039.19 -4.53114 -0.849047 0
M  V30 11086 H 1042.73 -6.73836 1.80531 0
M  V30 11087 H 1038.63 -6.42604 0.610809 0
M  V30 11088 H 1039.4 -7.92491 2.04694 0
M  V30 11089 N 1042.06 0.170153 -1.56679 0
M  V30 11090 C 1042.99 1.23945 -1.91606 0
M  V30 11091 C 1043.97 1.42725 -0.779004 0
M  V30 11092 O 1045.16 1.57712 -1.03243 0
M  V30 11093 C 1042.28 2.60222 -2.168 0
M  V30 11094 C 1041.33 2.58172 -3.39484 0
M  V30 11095 S 1042.16 2.0714 -4.93815 0
M  V30 11096 C 1043.32 3.45192 -5.22105 0
M  V30 11097 H 1043.55 0.941345 -2.82004 0
M  V30 11098 H 1041.08 0.374771 -1.49783 0
M  V30 11099 H 1043.04 3.38656 -2.31996 0
M  V30 11100 H 1041.7 2.87232 -1.27107 0
M  V30 11101 H 1040.9 3.58435 -3.54317 0
M  V30 11102 H 1040.5 1.87834 -3.2341 0
M  V30 11103 H 1042.79 4.41194 -5.14154 0
M  V30 11104 H 1043.73 3.35233 -6.23718 0
M  V30 11105 H 1044.14 3.41257 -4.49671 0
M  V30 11106 N 1043.54 1.5137 0.438746 0
M  V30 11107 C 1044.79 1.63645 1.18595 0
M  V30 11108 C 1045.11 0.354241 1.91755 0
M  V30 11109 O 1044.38 -0.629838 1.85499 0
M  V30 11110 H 1042.96 0.603103 0.440767 0
M  V30 11111 H 1045.62 1.88293 0.503159 0
M  V30 11112 H 1044.72 2.46342 1.9163 0
M  V30 11113 N 1045.02 -0.694098 1.41492 0
M  V30 11114 C 1045.96 -1.80801 1.43456 0
M  V30 11115 C 1046.93 -1.63571 0.288757 0
M  V30 11116 O 1048.12 -1.844 0.490017 0
M  V30 11117 C 1045.26 -3.18694 1.32394 0
M  V30 11118 C 1044.37 -3.47346 2.56855 0
M  V30 11119 C 1043.51 -4.74862 2.38075 0
M  V30 11120 C 1042.55 -4.96486 3.58005 0
M  V30 11121 N 1041.68 -6.15229 3.38287 0
M  V30 11122 H 1046.52 -1.78457 2.38657 0
M  V30 11123 H 1044.06 -0.871455 1.18508 0
M  V30 11124 H 1046.02 -3.98352 1.23982 0
M  V30 11125 H 1044.65 -3.20211 0.407999 0
M  V30 11126 H 1043.7 -2.62083 2.75711 0
M  V30 11127 H 1045.01 -3.59226 3.4606 0
M  V30 11128 H 1044.17 -5.62577 2.27139 0
M  V30 11129 H 1042.9 -4.6523 1.46329 0
M  V30 11130 H 1041.91 -4.07219 3.69395 0
M  V30 11131 H 1043.13 -5.07976 4.50708 0
M  V30 11132 H 1041.08 -6.06807 2.49242 0
M  V30 11133 H 1041 -6.27883 4.21069 0
M  V30 11134 H 1042.27 -7.05674 3.31126 0
M  V30 11135 N 1046.49 -1.27344 -0.928501 0
M  V30 11136 C 1047.74 -1.13635 -1.6761 0
M  V30 11137 C 1048.07 0.317957 -1.91884 0
M  V30 11138 O 1047.32 1.24904 -1.50657 0
M  V30 11139 C 1047.62 -1.86439 -3.04918 0
M  V30 11140 C 1047.29 -3.36298 -3.00358 0
M  V30 11141 C 1045.95 -3.77173 -2.98821 0
M  V30 11142 C 1048.3 -4.31921 -2.91708 0
M  V30 11143 C 1045.63 -5.12037 -2.86417 0
M  V30 11144 C 1047.98 -5.66841 -2.80846 0
M  V30 11145 C 1046.65 -6.07011 -2.77659 0
M  V30 11146 H 1045.92 -0.415821 -0.61333 0
M  V30 11147 H 1048.56 -1.57943 -1.08288 0
M  V30 11148 H 1046.87 -1.34638 -3.6794 0
M  V30 11149 H 1048.57 -1.73261 -3.61637 0
M  V30 11150 H 1045.16 -3.0379 -3.0234 0
M  V30 11151 H 1049.34 -4.01314 -2.91994 0
M  V30 11152 H 1044.6 -5.42307 -2.82336 0
M  V30 11153 H 1048.77 -6.40608 -2.73119 0
M  V30 11154 H 1046.4 -7.11467 -2.67804 0
M  V30 11155 N 1047.97 1.13488 -1.09353 0
M  V30 11156 C 1048.92 2.20949 -0.726923 0
M  V30 11157 C 1049.91 1.67205 0.271816 0
M  V30 11158 O 1051.12 1.79505 0.133356 0
M  V30 11159 H 1047.5 0.719985 -0.217086 0
M  V30 11160 H 1049.47 2.49134 -1.6424 0
M  V30 11161 C 1048.22 3.47319 -0.162822 0
M  V30 11162 H 1047.54 3.89011 -0.922527 0
M  V30 11163 H 1048.98 4.23963 0.0557734 0
M  V30 11164 C 1047.44 3.18376 1.10175 0
M  V30 11165 O 1047.97 3.3707 2.18511 0
M  V30 11166 N 1046.17 2.72262 1.01597 0
M  V30 11167 H 1045.72 2.5725 0.134289 0
M  V30 11168 H 1045.68 2.53272 1.86281 0
M  V30 11169 N 1049.45 0.880621 1.30701 0
M  V30 11170 C 1050.38 0.301443 2.27209 0
M  V30 11171 C 1051.4 -0.541533 1.53529 0
M  V30 11172 O 1052.59 -0.361791 1.74795 0
M  V30 11173 C 1049.69 -0.59038 3.33718 0
M  V30 11174 C 1048.86 0.222549 4.36833 0
M  V30 11175 C 1047.92 -0.599083 5.22779 0
M  V30 11176 O 1046.94 -0.0233267 5.69195 0
M  V30 11177 N 1048.15 -1.90904 5.48211 0
M  V30 11178 H 1050.91 1.13083 2.77547 0
M  V30 11179 H 1048.47 0.743168 1.43835 0
M  V30 11180 H 1050.46 -1.14599 3.88135 0
M  V30 11181 H 1049.03 -1.32044 2.83343 0
M  V30 11182 H 1048.25 0.959606 3.82342 0
M  V30 11183 H 1049.54 0.779965 5.02786 0
M  V30 11184 H 1048.94 -2.3998 5.12275 0
M  V30 11185 H 1047.5 -2.4122 6.05521 0
M  V30 11186 N 1050.93 -1.4397 0.641131 0
M  V30 11187 C 1052.35 -1.56607 0.30762 0
M  V30 11188 C 1052.55 -1.62694 -1.18882 0
M  V30 11189 O 1051.6 -1.57541 -1.97325 0
M  V30 11190 C 1052.91 -2.83289 1.00834 0
M  V30 11191 C 1054.46 -2.97016 0.98744 0
M  V30 11192 C 1054.94 -4.26514 1.66882 0
M  V30 11193 N 1056.43 -4.33351 1.63589 0
M  V30 11194 C 1057.16 -5.32292 2.13196 0
M  V30 11195 N 1056.66 -6.37582 2.71038 0
M  V30 11196 N 1058.45 -5.23866 2.03766 0
M  V30 11197 H 1050.6 -1.38262 1.61237 0
M  V30 11198 H 1052.87 -0.663221 0.677378 0
M  V30 11199 H 1052.57 -2.84812 2.06337 0
M  V30 11200 H 1052.45 -3.73134 0.552333 0
M  V30 11201 H 1054.83 -2.95041 -0.0591395 0
M  V30 11202 H 1054.91 -2.08493 1.48203 0
M  V30 11203 H 1054.56 -4.2925 2.71491 0
M  V30 11204 H 1054.49 -5.13912 1.14898 0
M  V30 11205 H 1056.98 -3.5788 1.21368 0
M  V30 11206 H 1057.29 -7.09378 3.06597 0
M  V30 11207 H 1055.64 -6.38239 2.75093 0
M  V30 11208 H 1058.83 -4.40524 1.58291 0
M  V30 11209 H 1059 -6.00819 2.42737 0
M  V30 11210 N 1052.41 -0.382291 -1.52893 0
M  V30 11211 C 1053.66 0.201734 -2.01091 0
M  V30 11212 C 1053.98 1.47905 -1.2708 0
M  V30 11213 O 1053.25 1.92002 -0.38883 0
M  V30 11214 H 1051.83 0.0775373 -0.742965 0
M  V30 11215 H 1054.49 -0.512369 -1.88045 0
M  V30 11216 H 1053.58 0.416919 -3.09303 0
M  V30 11217 N 1053.89 1.57202 -0.111913 0
M  V30 11218 C 1055.13 1.95239 0.548607 0
M  V30 11219 C 1055.46 0.994897 1.6678 0
M  V30 11220 O 1054.74 0.0308603 1.94476 0
M  V30 11221 C 1055.02 3.43271 1.08798 0
M  V30 11222 C 1054.88 4.49792 -0.0273064 0
M  V30 11223 C 1056.19 3.92989 1.98109 0
M  V30 11224 H 1053.31 0.709919 0.197951 0
M  V30 11225 H 1055.96 1.89087 -0.186036 0
M  V30 11226 H 1054.11 3.48644 1.71404 0
M  V30 11227 H 1055.78 4.56521 -0.662302 0
M  V30 11228 H 1054.02 4.28254 -0.691426 0
M  V30 11229 H 1054.69 5.50612 0.391201 0
M  V30 11230 H 1057.17 3.89875 1.45385 0
M  V30 11231 H 1056.04 4.97101 2.32769 0
M  V30 11232 H 1056.3 3.33267 2.90492 0
M  V30 11233 N 1055.36 -0.161842 1.56767 0
M  V30 11234 C 1056.64 -0.904754 1.73417 0
M  V30 11235 C 1057.02 -1.99987 0.675908 0
M  V30 11236 O 1056.37 -2.26419 -0.307712 0
M  V30 11237 C 1056.58 -1.46082 3.16956 0
M  V30 11238 C 1057.93 -1.93004 3.78199 0
M  V30 11239 O 1058.95 -1.55856 3.20293 0
M  V30 11240 O 1057.81 -2.61465 4.79894 0
M  V30 11241 H 1054.9 -0.426518 0.708528 0
M  V30 11242 H 1057.45 -0.148928 1.69045 0
M  V30 11243 H 1056.22 -0.673087 3.85468 0
M  V30 11244 H 1055.84 -2.28056 3.25693 0
M  V30 11245 N 1056.84 -1.516 -0.430713 0
M  V30 11246 C 1058.12 -1.55142 -1.19123 0
M  V30 11247 C 1058.5 -0.319596 -2.08667 0
M  V30 11248 O 1057.85 0.694927 -2.17676 0
M  V30 11249 C 1058.06 -2.86891 -1.98732 0
M  V30 11250 C 1059.4 -3.39089 -2.55546 0
M  V30 11251 O 1060.43 -2.88486 -2.08936 0
M  V30 11252 O 1059.29 -4.27401 -3.40574 0
M  V30 11253 H 1056.38 -0.624019 -0.542705 0
M  V30 11254 H 1058.93 -1.63917 -0.439244 0
M  V30 11255 H 1057.7 -3.68002 -1.33005 0
M  V30 11256 H 1057.32 -2.81309 -2.80982 0
M  V30 11257 N 1058.32 0.686584 -1.41858 0
M  V30 11258 C 1059.28 1.78214 -1.44126 0
M  V30 11259 C 1060.28 1.57366 -0.330541 0
M  V30 11260 O 1061.47 1.63874 -0.590837 0
M  V30 11261 C 1058.6 3.16704 -1.26142 0
M  V30 11262 H 1059.8 1.77594 -2.41661 0
M  V30 11263 H 1057.35 0.895085 -1.28132 0
M  V30 11264 H 1058.09 3.22957 -0.294823 0
M  V30 11265 H 1057.87 3.33238 -2.06627 0
M  V30 11266 H 1059.36 3.96658 -1.30584 0
M  V30 11267 N 1059.8 1.27835 0.921735 0
M  V30 11268 C 1060.73 1.136 2.04003 0
M  V30 11269 C 1061.71 0.0358756 1.70062 0
M  V30 11270 O 1062.89 0.211438 1.93046 0
M  V30 11271 C 1060.02 0.788697 3.38226 0
M  V30 11272 C 1058.98 1.84272 3.863 0
M  V30 11273 C 1058.3 1.34923 5.17397 0
M  V30 11274 C 1059.6 3.24788 4.09035 0
M  V30 11275 H 1061.3 2.07149 2.1617 0
M  V30 11276 H 1058.84 0.997349 1.0387 0
M  V30 11277 H 1060.8 0.675911 4.15944 0
M  V30 11278 H 1059.52 -0.182499 3.2609 0
M  V30 11279 H 1058.18 1.94451 3.1078 0
M  V30 11280 H 1057.83 0.367328 5.01657 0
M  V30 11281 H 1057.53 2.05397 5.50532 0
M  V30 11282 H 1059.05 1.24951 5.97678 0
M  V30 11283 H 1060.47 3.17575 4.77304 0
M  V30 11284 H 1058.86 3.93025 4.53488 0
M  V30 11285 H 1059.93 3.69398 3.14122 0
M  V30 11286 N 1061.28 -1.12907 1.09954 0
M  V30 11287 C 1062.21 -2.20585 0.765799 0
M  V30 11288 C 1063.19 -1.68117 -0.258989 0
M  V30 11289 O 1064.37 -1.93792 -0.125853 0
M  V30 11290 C 1061.5 -3.46772 0.191435 0
M  V30 11291 C 1060.46 -4.12363 1.14635 0
M  V30 11292 C 1059.78 -5.3294 0.433426 0
M  V30 11293 C 1061.08 -4.59073 2.49096 0
M  V30 11294 H 1062.78 -2.48759 1.66612 0
M  V30 11295 H 1060.32 -1.19563 0.802534 0
M  V30 11296 H 1062.27 -4.21365 -0.0541535 0
M  V30 11297 H 1061 -3.18011 -0.744101 0
M  V30 11298 H 1059.66 -3.39744 1.37731 0
M  V30 11299 H 1059.31 -5.00444 -0.506422 0
M  V30 11300 H 1059.01 -5.77772 1.07018 0
M  V30 11301 H 1060.53 -6.10284 0.196267 0
M  V30 11302 H 1061.94 -5.25063 2.30177 0
M  V30 11303 H 1060.34 -5.14665 3.0861 0
M  V30 11304 H 1061.41 -3.73313 3.0946 0
M  V30 11305 N 1062.75 -0.88754 -1.30232 0
M  V30 11306 C 1063.98 -0.521562 -2.00735 0
M  V30 11307 C 1064.4 0.883247 -1.66073 0
M  V30 11308 O 1063.76 1.58581 -0.878731 0
M  V30 11309 C 1063.81 -0.706521 -3.53611 0
M  V30 11310 O 1062.91 0.246447 -4.11663 0
M  V30 11311 H 1062.25 -0.205216 -0.631492 0
M  V30 11312 H 1064.78 -1.19579 -1.66018 0
M  V30 11313 H 1064.79 -0.606501 -4.03467 0
M  V30 11314 H 1063.47 -1.73076 -3.78177 0
M  V30 11315 H 1062.05 0.0999062 -3.72766 0
M  V30 11316 N 1064.23 1.43628 -0.648757 0
M  V30 11317 C 1065.16 2.33478 0.0320785 0
M  V30 11318 C 1066.14 1.49217 0.816605 0
M  V30 11319 O 1067.33 1.77892 0.778974 0
M  V30 11320 C 1064.46 3.32525 1.00222 0
M  V30 11321 C 1063.41 4.2674 0.328119 0
M  V30 11322 C 1062.74 5.15791 1.4094 0
M  V30 11323 C 1064.04 5.16493 -0.776701 0
M  V30 11324 H 1065.73 2.90657 -0.718257 0
M  V30 11325 H 1063.28 1.3976 -0.346852 0
M  V30 11326 H 1065.23 3.94277 1.4874 0
M  V30 11327 H 1063.96 2.73593 1.78366 0
M  V30 11328 H 1062.61 3.66346 -0.136569 0
M  V30 11329 H 1062.26 4.53201 2.18216 0
M  V30 11330 H 1061.96 5.79645 0.963631 0
M  V30 11331 H 1063.49 5.80416 1.89603 0
M  V30 11332 H 1064.9 5.7208 -0.373878 0
M  V30 11333 H 1063.3 5.89043 -1.14667 0
M  V30 11334 H 1064.37 4.56448 -1.63654 0
M  V30 11335 N 1065.71 0.390394 1.52688 0
M  V30 11336 C 1066.66 -0.444229 2.26485 0
M  V30 11337 C 1067.63 -1.05688 1.28138 0
M  V30 11338 O 1068.81 -1.0847 1.56968 0
M  V30 11339 C 1065.95 -1.56501 3.07574 0
M  V30 11340 C 1065.07 -0.975111 4.20851 0
M  V30 11341 C 1064.2 -2.06704 4.89333 0
M  V30 11342 C 1063.24 -1.45309 5.94602 0
M  V30 11343 N 1062.38 -2.48437 6.56676 0
M  V30 11344 H 1067.22 0.191535 2.97384 0
M  V30 11345 H 1064.75 0.106287 1.46716 0
M  V30 11346 H 1066.71 -2.22558 3.52879 0
M  V30 11347 H 1065.34 -2.17107 2.38881 0
M  V30 11348 H 1064.39 -0.204109 3.79852 0
M  V30 11349 H 1065.71 -0.486465 4.96422 0
M  V30 11350 H 1064.86 -2.80528 5.37949 0
M  V30 11351 H 1063.6 -2.58928 4.13289 0
M  V30 11352 H 1062.6 -0.700091 5.45324 0
M  V30 11353 H 1063.83 -0.938775 6.7258 0
M  V30 11354 H 1061.77 -2.99829 5.83471 0
M  V30 11355 H 1061.69 -2.04331 7.27863 0
M  V30 11356 H 1062.96 -3.21888 7.09935 0
M  V30 11357 N 1067.19 -1.57141 0.120249 0
M  V30 11358 C 1068.42 -1.99589 -0.545136 0
M  V30 11359 C 1068.83 -0.999951 -1.60145 0
M  V30 11360 O 1068.19 0.00698897 -1.82499 0
M  V30 11361 C 1068.24 -3.42038 -1.17014 0
M  V30 11362 O 1067.96 -4.37822 -0.156044 0
M  V30 11363 C 1069.46 -3.99625 -1.91872 0
M  V30 11364 H 1066.68 -0.655318 -0.144222 0
M  V30 11365 H 1069.23 -2.0345 0.206955 0
M  V30 11366 H 1067.38 -3.39113 -1.873 0
M  V30 11367 H 1067.79 -5.20937 -0.610317 0
M  V30 11368 H 1069.27 -5.01374 -2.30928 0
M  V30 11369 H 1069.75 -3.38836 -2.7944 0
M  V30 11370 H 1070.35 -4.061 -1.26345 0
M  V30 11371 N 1068.67 0.153526 -1.5685 0
M  V30 11372 C 1069.91 0.865519 -1.82629 0
M  V30 11373 C 1070.24 1.81999 -0.700105 0
M  V30 11374 O 1069.51 1.93907 0.278744 0
M  V30 11375 H 1068.09 0.32261 -0.673745 0
M  V30 11376 H 1070.75 0.149088 -1.94329 0
M  V30 11377 H 1069.84 1.43171 -2.77324 0
M  V30 11378 N 1070.14 1.51827 0.422667 0
M  V30 11379 C 1071.09 1.74198 1.51406 0
M  V30 11380 C 1072.06 0.584013 1.55494 0
M  V30 11381 O 1073.25 0.820079 1.72277 0
M  V30 11382 C 1070.39 1.88627 2.88988 0
M  V30 11383 C 1069.5 3.16233 2.94314 0
M  V30 11384 C 1068.63 3.21172 4.2311 0
M  V30 11385 C 1067.67 4.43033 4.2236 0
M  V30 11386 N 1066.81 4.4544 5.42704 0
M  V30 11387 H 1071.65 2.67352 1.31632 0
M  V30 11388 H 1069.19 1.32487 0.63919 0
M  V30 11389 H 1071.15 1.94976 3.68837 0
M  V30 11390 H 1069.78 0.988673 3.07287 0
M  V30 11391 H 1068.83 3.19123 2.07039 0
M  V30 11392 H 1070.14 4.06104 2.89623 0
M  V30 11393 H 1069.29 3.26517 5.11343 0
M  V30 11394 H 1068.03 2.29216 4.30478 0
M  V30 11395 H 1067.04 4.37849 3.32518 0
M  V30 11396 H 1068.26 5.3627 4.16643 0
M  V30 11397 H 1066.21 3.56361 5.50766 0
M  V30 11398 H 1066.13 5.29138 5.39953 0
M  V30 11399 H 1067.39 4.54997 6.32928 0
M  V30 11400 N 1071.62 -0.679052 1.4222 0
M  V30 11401 C 1072.55 -1.80481 1.48152 0
M  V30 11402 C 1073.53 -1.66698 0.338502 0
M  V30 11403 O 1074.72 -1.86183 0.552228 0
M  V30 11404 C 1071.85 -3.18746 1.37908 0
M  V30 11405 C 1070.8 -3.47258 2.50192 0
M  V30 11406 C 1070.13 -4.85052 2.25008 0
M  V30 11407 C 1071.43 -3.44576 3.92511 0
M  V30 11408 H 1073.12 -1.75774 2.42371 0
M  V30 11409 H 1070.67 -0.844241 1.16656 0
M  V30 11410 H 1072.62 -3.97229 1.40666 0
M  V30 11411 H 1071.35 -3.24119 0.401806 0
M  V30 11412 H 1070 -2.71133 2.46744 0
M  V30 11413 H 1069.65 -4.8707 1.25584 0
M  V30 11414 H 1069.35 -5.05092 3.00259 0
M  V30 11415 H 1070.88 -5.65825 2.29508 0
M  V30 11416 H 1072.29 -4.13036 3.97585 0
M  V30 11417 H 1070.69 -3.76151 4.67579 0
M  V30 11418 H 1071.76 -2.4323 4.19484 0
M  V30 11419 N 1073.1 -1.28322 -0.914942 0
M  V30 11420 C 1074.38 -1.06111 -1.64316 0
M  V30 11421 C 1074.76 0.399934 -2.07277 0
M  V30 11422 O 1074.11 1.38577 -1.81683 0
M  V30 11423 C 1074.32 -2.03461 -2.83557 0
M  V30 11424 C 1075.66 -2.33541 -3.54604 0
M  V30 11425 O 1076.69 -2.01536 -2.93704 0
M  V30 11426 O 1075.55 -2.88158 -4.64357 0
M  V30 11427 H 1072.64 -0.405451 -0.72079 0
M  V30 11428 H 1075.19 -1.39636 -0.964352 0
M  V30 11429 H 1073.96 -3.01938 -2.48896 0
M  V30 11430 H 1073.58 -1.70574 -3.59152 0
M  V30 11431 N 1074.58 1.12322 -1.10551 0
M  V30 11432 C 1075.54 2.16273 -0.758844 0
M  V30 11433 C 1076.54 1.59325 0.217294 0
M  V30 11434 O 1077.73 1.74199 -0.00601346 0
M  V30 11435 C 1074.86 3.40674 -0.124238 0
M  V30 11436 H 1076.06 2.48454 -1.6796 0
M  V30 11437 H 1073.61 1.2735 -0.906188 0
M  V30 11438 H 1074.34 3.14094 0.807194 0
M  V30 11439 H 1074.13 3.83284 -0.826772 0
M  V30 11440 H 1075.62 4.17474 0.102502 0
M  V30 11441 N 1076.06 0.894434 1.2976 0
M  V30 11442 C 1077.3 0.517669 1.95771 0
M  V30 11443 C 1077.63 -0.935028 1.70551 0
M  V30 11444 O 1076.89 -1.67722 1.00835 0
M  V30 11445 C 1077.19 0.750307 3.49435 0
M  V30 11446 C 1076.85 2.17955 3.94723 0
M  V30 11447 C 1075.51 2.57036 4.068 0
M  V30 11448 C 1077.87 3.11053 4.18205 0
M  V30 11449 C 1075.19 3.88406 4.39724 0
M  V30 11450 C 1077.55 4.41966 4.52602 0
M  V30 11451 C 1076.21 4.80927 4.62888 0
M  V30 11452 H 1075.48 0.189428 0.716378 0
M  V30 11453 H 1078.13 1.13209 1.54454 0
M  V30 11454 H 1076.43 0.0529242 3.91764 0
M  V30 11455 H 1078.13 0.438251 3.98598 0
M  V30 11456 H 1074.72 1.86622 3.85837 0
M  V30 11457 H 1078.9 2.82076 4.08347 0
M  V30 11458 H 1074.16 4.18321 4.4589 0
M  V30 11459 H 1078.33 5.14134 4.69722 0
M  V30 11460 H 1075.96 5.82759 4.88156 0
M  V30 11461 N 1077.53 -1.43282 0.656365 0
M  V30 11462 C 1078.78 -2.00996 0.168354 0
M  V30 11463 C 1079.1 -1.52408 -1.22601 0
M  V30 11464 O 1080.3 -2.02417 -1.80941 0
M  V30 11465 C 1078.76 -3.5903 0.250161 0
M  V30 11466 C 1078.37 -4.1661 1.64742 0
M  V30 11467 C 1080.11 -4.24118 -0.180084 0
M  V30 11468 C 1078.02 -5.66948 1.68299 0
M  V30 11469 H 1076.95 -0.751674 0.0591769 0
M  V30 11470 H 1079.6 -1.64216 0.818859 0
M  V30 11471 H 1077.98 -3.93226 -0.467908 0
M  V30 11472 H 1079.15 -3.93908 2.3911 0
M  V30 11473 H 1077.47 -3.63905 2.02391 0
M  V30 11474 H 1080.07 -5.34419 -0.173401 0
M  V30 11475 H 1080.41 -3.98264 -1.21208 0
M  V30 11476 H 1080.94 -3.94816 0.486343 0
M  V30 11477 H 1077.68 -5.97573 2.69419 0
M  V30 11478 H 1077.2 -5.91697 0.98261 0
M  V30 11479 H 1078.88 -6.31041 1.42813 0
M  V30 11480 N 1079.01 -0.398486 -1.52479 0
M  V30 11481 C 1080.24 0.180295 -2.05812 0
M  V30 11482 C 1080.65 1.40301 -1.26934 0
M  V30 11483 O 1079.99 1.81039 -0.311544 0
M  V30 11484 C 1080.06 0.60601 -3.54355 0
M  V30 11485 C 1079.72 -0.504508 -4.54207 0
M  V30 11486 C 1080.72 -1.36478 -5.01667 0
M  V30 11487 C 1078.4 -0.674161 -4.97755 0
M  V30 11488 C 1080.4 -2.37975 -5.91309 0
M  V30 11489 C 1078.08 -1.69246 -5.87196 0
M  V30 11490 C 1079.08 -2.54367 -6.33866 0
M  V30 11491 O 1078.77 -3.54454 -7.21538 0
M  V30 11492 H 1078.5 0.0286396 -0.675393 0
M  V30 11493 H 1081.06 -0.564912 -1.97479 0
M  V30 11494 H 1079.29 1.40334 -3.60338 0
M  V30 11495 H 1080.97 1.1115 -3.90385 0
M  V30 11496 H 1081.74 -1.24506 -4.68746 0
M  V30 11497 H 1077.62 -0.0213029 -4.60995 0
M  V30 11498 H 1081.16 -3.0445 -6.27659 0
M  V30 11499 H 1077.06 -1.81252 -6.1953 0
M  V30 11500 H 1077.83 -3.50571 -7.39623 0
M  V30 11501 N 1080.49 1.57075 -0.12858 0
M  V30 11502 C 1081.77 1.87075 0.571162 0
M  V30 11503 C 1082.15 1.03141 1.84188 0
M  V30 11504 O 1081.5 0.113001 2.2822 0
M  V30 11505 C 1081.71 3.3838 0.854383 0
M  V30 11506 C 1083.05 4.07194 1.20326 0
M  V30 11507 O 1084.08 3.43454 0.944338 0
M  V30 11508 O 1082.94 5.19725 1.68963 0
M  V30 11509 H 1080.03 0.774764 0.289258 0
M  V30 11510 H 1082.58 1.68908 -0.163806 0
M  V30 11511 H 1081.35 3.91273 -0.0456925 0
M  V30 11512 H 1080.97 3.62012 1.64418 0
M  V30 11513 N 1081.97 -0.145205 1.5693 0
M  V30 11514 C 1082.93 -1.16316 1.97492 0
M  V30 11515 C 1083.93 -1.35764 0.861668 0
M  V30 11516 O 1085.12 -1.32726 1.12825 0
M  V30 11517 C 1082.25 -2.52311 2.29242 0
M  V30 11518 H 1083.45 -0.815138 2.8861 0
M  V30 11519 H 1081 -0.38861 1.51392 0
M  V30 11520 H 1081.74 -2.92081 1.40922 0
M  V30 11521 H 1081.52 -2.39555 3.10412 0
M  V30 11522 H 1083.01 -3.25624 2.61456 0
M  V30 11523 N 1083.45 -1.52049 -0.414609 0
M  V30 11524 C 1084.41 -1.74382 -1.4874 0
M  V30 11525 C 1085.41 -0.613701 -1.48628 0
M  V30 11526 O 1086.6 -0.88152 -1.50249 0
M  V30 11527 C 1083.73 -1.82116 -2.88178 0
M  V30 11528 H 1084.93 -2.70147 -1.30233 0
M  V30 11529 H 1082.48 -1.42382 -0.644756 0
M  V30 11530 H 1083.21 -0.882457 -3.12063 0
M  V30 11531 H 1083 -2.64268 -2.89663 0
M  V30 11532 H 1084.49 -2.01155 -3.65959 0
M  V30 11533 N 1084.93 0.6715 -1.42579 0
M  V30 11534 C 1086.17 1.43366 -1.43436 0
M  V30 11535 C 1086.5 1.94131 -0.0517339 0
M  V30 11536 O 1085.78 1.71121 0.924548 0
M  V30 11537 C 1086.06 2.62832 -2.46154 0
M  V30 11538 C 1085.92 2.17677 -3.9362 0
M  V30 11539 C 1087.23 3.65049 -2.4582 0
M  V30 11540 H 1084.35 0.519967 -0.522306 0
M  V30 11541 H 1087 0.762849 -1.74013 0
M  V30 11542 H 1085.15 3.20062 -2.2021 0
M  V30 11543 H 1086.82 1.65588 -4.30556 0
M  V30 11544 H 1085.06 1.49219 -4.07328 0
M  V30 11545 H 1085.73 3.03503 -4.61075 0
M  V30 11546 H 1088.21 3.17541 -2.68899 0
M  V30 11547 H 1087.08 4.46213 -3.19664 0
M  V30 11548 H 1087.34 4.16401 -1.48536 0
M  V30 11549 N 1086.4 1.28806 0.908124 0
M  V30 11550 C 1087.33 1.15758 2.02787 0
M  V30 11551 C 1088.31 0.053911 1.70015 0
M  V30 11552 O 1089.5 0.231901 1.9281 0
M  V30 11553 C 1086.63 0.824526 3.37371 0
M  V30 11554 C 1085.58 1.88359 3.84324 0
M  V30 11555 C 1084.91 1.40404 5.15937 0
M  V30 11556 C 1086.21 3.29108 4.05568 0
M  V30 11557 H 1087.9 2.09431 2.13961 0
M  V30 11558 H 1085.45 1.00831 1.02806 0
M  V30 11559 H 1087.4 0.71999 4.15204 0
M  V30 11560 H 1086.13 -0.147902 3.26265 0
M  V30 11561 H 1084.79 1.97736 3.087 0
M  V30 11562 H 1084.43 0.420515 5.01239 0
M  V30 11563 H 1084.13 2.11224 5.48323 0
M  V30 11564 H 1085.66 1.31283 5.9632 0
M  V30 11565 H 1087.07 3.2262 4.73909 0
M  V30 11566 H 1085.47 3.97812 4.49294 0
M  V30 11567 H 1086.54 3.72709 3.10187 0
M  V30 11568 N 1087.88 -1.11734 1.11145 0
M  V30 11569 C 1088.83 -2.19765 0.761982 0
M  V30 11570 C 1089.82 -1.67616 -0.24518 0
M  V30 11571 O 1091.03 -1.79695 -0.104781 0
M  V30 11572 H 1087.4 -0.71644 0.228513 0
M  V30 11573 H 1089.38 -2.4649 1.68183 0
M  V30 11574 C 1088.12 -3.47016 0.218057 0
M  V30 11575 H 1087.45 -3.87494 0.984299 0
M  V30 11576 H 1088.89 -4.23998 0.0116825 0
M  V30 11577 C 1087.35 -3.20088 -1.05096 0
M  V30 11578 O 1087.88 -3.40503 -2.1312 0
M  V30 11579 N 1086.08 -2.73844 -0.972523 0
M  V30 11580 H 1085.63 -2.57431 -0.0933459 0
M  V30 11581 H 1085.59 -2.56204 -1.82228 0
M  V30 11582 N 1089.36 -0.901303 -1.29284 0
M  V30 11583 C 1090.59 -0.542723 -1.99344 0
M  V30 11584 C 1091 0.877357 -1.67628 0
M  V30 11585 O 1090.34 1.59088 -0.918515 0
M  V30 11586 C 1090.4 -0.657088 -3.53444 0
M  V30 11587 C 1090.07 -2.04444 -4.0872 0
M  V30 11588 C 1091.06 -3.01577 -4.23494 0
M  V30 11589 C 1088.75 -2.35425 -4.43712 0
M  V30 11590 C 1090.74 -4.27816 -4.72496 0
M  V30 11591 C 1088.43 -3.61906 -4.9241 0
M  V30 11592 C 1089.43 -4.57916 -5.06757 0
M  V30 11593 O 1089.12 -5.8215 -5.54397 0
M  V30 11594 H 1088.85 -0.206742 -0.64361 0
M  V30 11595 H 1091.4 -1.21311 -1.65749 0
M  V30 11596 H 1089.63 0.0703305 -3.86636 0
M  V30 11597 H 1091.32 -0.307425 -4.04734 0
M  V30 11598 H 1092.09 -2.78957 -3.96747 0
M  V30 11599 H 1087.97 -1.61454 -4.31803 0
M  V30 11600 H 1091.51 -5.0276 -4.83609 0
M  V30 11601 H 1087.41 -3.84356 -5.18595 0
M  V30 11602 H 1088.17 -5.84762 -5.72709 0
M  V30 11603 N 1090.84 1.42931 -0.663954 0
M  V30 11604 C 1091.77 2.28089 0.0710318 0
M  V30 11605 C 1092.75 1.40446 0.819375 0
M  V30 11606 O 1093.93 1.69887 0.816738 0
M  V30 11607 C 1091.06 3.20079 1.10756 0
M  V30 11608 C 1090.11 4.24055 0.456045 0
M  V30 11609 S 1090.94 5.29813 -0.778356 0
M  V30 11610 C 1092.09 6.25371 0.257373 0
M  V30 11611 H 1092.33 2.90078 -0.651315 0
M  V30 11612 H 1089.86 1.47601 -0.453137 0
M  V30 11613 H 1091.82 3.7362 1.70055 0
M  V30 11614 H 1090.48 2.57248 1.80229 0
M  V30 11615 H 1089.67 4.88564 1.23779 0
M  V30 11616 H 1089.27 3.73947 -0.0630832 0
M  V30 11617 H 1091.57 6.68172 1.12037 0
M  V30 11618 H 1092.51 7.0722 -0.352969 0
M  V30 11619 H 1092.92 5.61324 0.597991 0
M  V30 11620 N 1092.32 0.406567 1.52266 0
M  V30 11621 C 1093.28 -0.408251 2.25535 0
M  V30 11622 C 1094.28 -0.975795 1.27808 0
M  V30 11623 O 1095.47 -0.855077 1.5177 0
M  V30 11624 C 1092.6 -1.57443 3.02365 0
M  V30 11625 H 1093.79 0.233459 2.9899 0
M  V30 11626 H 1091.35 0.159032 1.55489 0
M  V30 11627 H 1092.08 -2.25308 2.33252 0
M  V30 11628 H 1091.87 -1.17399 3.74112 0
M  V30 11629 H 1093.36 -2.15088 3.57948 0
M  V30 11630 N 1093.79 -1.57004 0.136909 0
M  V30 11631 C 1095.04 -1.9541 -0.51569 0
M  V30 11632 C 1095.36 -1.02219 -1.66061 0
M  V30 11633 O 1094.63 -0.0818172 -1.95729 0
M  V30 11634 H 1093.21 -0.721504 -0.193497 0
M  V30 11635 H 1095.88 -1.93765 0.210046 0
M  V30 11636 H 1094.97 -2.98887 -0.898494 0
M  V30 11637 N 1095.27 0.136881 -1.57004 0
M  V30 11638 C 1096.69 0.489856 -1.51897 0
M  V30 11639 C 1096.89 1.82833 -0.847009 0
M  V30 11640 O 1095.94 2.48952 -0.421792 0
M  V30 11641 C 1097.26 0.490831 -2.96667 0
M  V30 11642 C 1098.81 0.575639 -3.07661 0
M  V30 11643 C 1099.28 0.607178 -4.53957 0
M  V30 11644 N 1100.77 0.66912 -4.58342 0
M  V30 11645 C 1101.51 0.714675 -5.68929 0
M  V30 11646 N 1101 0.718959 -6.89059 0
M  V30 11647 N 1102.8 0.756326 -5.56988 0
M  V30 11648 H 1094.95 -0.740347 -1.99079 0
M  V30 11649 H 1097.21 -0.271116 -0.908405 0
M  V30 11650 H 1096.92 -0.424648 -3.49127 0
M  V30 11651 H 1096.79 1.32512 -3.53158 0
M  V30 11652 H 1099.18 1.48154 -2.55215 0
M  V30 11653 H 1099.26 -0.285991 -2.54196 0
M  V30 11654 H 1098.9 -0.294604 -5.07045 0
M  V30 11655 H 1098.83 1.48544 -5.05215 0
M  V30 11656 H 1101.32 0.672697 -3.71864 0
M  V30 11657 H 1101.64 0.755848 -7.69095 0
M  V30 11658 H 1099.98 0.686671 -6.91599 0
M  V30 11659 H 1103.17 0.750219 -4.62049 0
M  V30 11660 H 1103.34 0.788363 -6.43186 0
M  V30 11661 N 1096.75 1.52266 0.40654 0
M  V30 11662 C 1098.03 1.57018 1.1664 0
M  V30 11663 C 1098.41 0.352752 2.08132 0
M  V30 11664 O 1097.76 -0.660208 2.18754 0
M  V30 11665 C 1097.97 2.90016 1.94143 0
M  V30 11666 C 1099.31 3.43112 2.50119 0
M  V30 11667 O 1100.34 2.91773 2.0432 0
M  V30 11668 O 1099.2 4.32765 3.33731 0
M  V30 11669 H 1096.29 0.632574 0.532709 0
M  V30 11670 H 1098.84 1.64595 0.413111 0
M  V30 11671 H 1097.61 3.70071 1.27134 0
M  V30 11672 H 1097.23 2.85744 2.76471 0
M  V30 11673 N 1098.23 -0.663929 1.42933 0
M  V30 11674 C 1099.14 -1.80643 1.49683 0
M  V30 11675 C 1100.15 -1.69694 0.38472 0
M  V30 11676 O 1101.33 -1.91052 0.637256 0
M  V30 11677 C 1098.4 -3.16858 1.4072 0
M  V30 11678 C 1097.46 -3.39684 2.62514 0
M  V30 11679 C 1096.69 -4.69399 2.53969 0
M  V30 11680 O 1096.91 -5.48037 1.58152 0
M  V30 11681 O 1095.85 -4.93709 3.44289 0
M  V30 11682 H 1099.67 -1.77903 2.46138 0
M  V30 11683 H 1097.26 -0.821059 1.24816 0
M  V30 11684 H 1099.14 -3.9812 1.38124 0
M  V30 11685 H 1097.81 -3.20211 0.473954 0
M  V30 11686 H 1096.72 -2.58227 2.70684 0
M  V30 11687 H 1098.05 -3.41169 3.54774 0
M  V30 11688 N 1099.71 -1.29285 -0.901281 0
M  V30 11689 C 1100.95 -1.16934 -1.64836 0
M  V30 11690 C 1101.28 0.279826 -1.92982 0
M  V30 11691 O 1100.55 1.19179 -1.55478 0
M  V30 11692 H 1099.13 -0.429768 -0.61099 0
M  V30 11693 H 1101.79 -1.62189 -1.08077 0
M  V30 11694 H 1100.88 -1.71821 -2.60545 0
M  V30 11695 N 1101.18 1.11143 -1.11736 0
M  V30 11696 C 1102.42 1.84576 -0.878119 0
M  V30 11697 C 1102.79 1.82851 0.585605 0
M  V30 11698 O 1103.99 2.51763 0.941732 0
M  V30 11699 C 1102.26 3.27628 -1.4281 0
M  V30 11700 S 1103.82 4.18276 -1.3263 0
M  V30 11701 H 1100.64 0.636442 -0.316958 0
M  V30 11702 H 1103.24 1.33794 -1.42546 0
M  V30 11703 H 1101.94 3.2645 -2.48714 0
M  V30 11704 H 1101.47 3.83479 -0.877925 0
M  V30 11705 H 1103.49 4.95335 -0.292878 0
M  V30 11706 N 1102.66 0.908147 1.28804 0
M  V30 11707 C 1103.61 0.390734 2.27468 0
M  V30 11708 C 1104.58 -0.531765 1.57358 0
M  V30 11709 O 1105.76 -0.455177 1.85291 0
M  V30 11710 C 1102.9 -0.368159 3.43131 0
M  V30 11711 C 1102.02 0.586202 4.28004 0
M  V30 11712 C 1101.15 -0.190581 5.30858 0
M  V30 11713 C 1100.19 0.757758 6.07391 0
M  V30 11714 N 1099.33 0.0148488 7.02098 0
M  V30 11715 H 1104.17 1.23717 2.71105 0
M  V30 11716 H 1101.71 0.621382 1.33331 0
M  V30 11717 H 1103.66 -0.824289 4.08976 0
M  V30 11718 H 1102.29 -1.17898 3.00499 0
M  V30 11719 H 1101.35 1.16086 3.62254 0
M  V30 11720 H 1102.66 1.31177 4.81242 0
M  V30 11721 H 1101.81 -0.707528 6.0256 0
M  V30 11722 H 1100.55 -0.949234 4.78373 0
M  V30 11723 H 1099.56 1.28613 5.34545 0
M  V30 11724 H 1100.78 1.51588 6.61965 0
M  V30 11725 H 1098.73 -0.725916 6.51971 0
M  V30 11726 H 1098.64 0.680347 7.52932 0
M  V30 11727 H 1099.91 -0.482086 7.78008 0
M  V30 11728 N 1104.14 -1.42577 0.671525 0
M  V30 11729 C 1105.07 -2.33499 0.00506984 0
M  V30 11730 C 1106.05 -1.50497 -0.792763 0
M  V30 11731 O 1107.24 -1.79109 -0.750574 0
M  V30 11732 C 1104.37 -3.34077 -0.949194 0
M  V30 11733 C 1103.32 -4.27208 -0.260187 0
M  V30 11734 C 1102.65 -5.17968 -1.32716 0
M  V30 11735 C 1103.95 -5.15192 0.858772 0
M  V30 11736 H 1105.64 -2.89477 0.764407 0
M  V30 11737 H 1103.19 -1.39191 0.369043 0
M  V30 11738 H 1105.14 -3.96594 -1.42448 0
M  V30 11739 H 1103.86 -2.76396 -1.73991 0
M  V30 11740 H 1102.52 -3.66082 0.194834 0
M  V30 11741 H 1102.17 -4.56615 -2.10979 0
M  V30 11742 H 1101.87 -5.81104 -0.871293 0
M  V30 11743 H 1103.39 -5.83359 -1.80345 0
M  V30 11744 H 1104.81 -5.71412 0.464844 0
M  V30 11745 H 1103.21 -5.87144 1.24023 0
M  V30 11746 H 1104.28 -4.53787 1.70895 0
M  V30 11747 N 1105.62 -0.414636 -1.52048 0
M  V30 11748 C 1106.86 0.159585 -2.02171 0
M  V30 11749 C 1107.2 1.44321 -1.29943 0
M  V30 11750 O 1106.47 1.90185 -0.407402 0
M  V30 11751 C 1106.76 0.401655 -3.57853 0
M  V30 11752 C 1106.61 -0.899026 -4.40724 0
M  V30 11753 C 1107.93 1.1814 -4.23947 0
M  V30 11754 H 1105.05 0.0565257 -0.734829 0
M  V30 11755 H 1107.69 -0.549183 -1.8189 0
M  V30 11756 H 1105.84 1.00541 -3.75265 0
M  V30 11757 H 1107.51 -1.53502 -4.35011 0
M  V30 11758 H 1105.75 -1.50877 -4.06717 0
M  V30 11759 H 1106.42 -0.683974 -5.47746 0
M  V30 11760 H 1108.9 0.670203 -4.10667 0
M  V30 11761 H 1107.78 1.31953 -5.32804 0
M  V30 11762 H 1108.04 2.2035 -3.83273 0
M  V30 11763 N 1107.1 1.56929 -0.145233 0
M  V30 11764 C 1108.32 2.00431 0.513314 0
M  V30 11765 C 1108.74 1.0253 1.58534 0
M  V30 11766 O 1108.1 0.0220459 1.82487 0
M  V30 11767 C 1108.15 3.43856 1.11557 0
M  V30 11768 O 1107.87 4.38015 0.0863707 0
M  V30 11769 C 1109.37 4.02627 1.8549 0
M  V30 11770 H 1106.59 0.657529 0.133778 0
M  V30 11771 H 1109.13 2.03095 -0.239296 0
M  V30 11772 H 1107.29 3.4205 1.81881 0
M  V30 11773 H 1107.7 5.21842 0.527363 0
M  V30 11774 H 1109.18 5.04985 2.22923 0
M  V30 11775 H 1109.65 3.43239 2.74014 0
M  V30 11776 H 1110.26 4.08058 1.19869 0
M  V30 11777 N 1108.58 -0.128553 1.57075 0
M  V30 11778 C 1109.82 -0.836536 1.83535 0
M  V30 11779 C 1110.14 -1.81491 0.7294 0
M  V30 11780 O 1111.34 -2.56838 0.880128 0
M  V30 11781 C 1109.8 -1.53836 3.25365 0
M  V30 11782 C 1109.41 -0.601454 4.43944 0
M  V30 11783 C 1111.15 -2.23204 3.61082 0
M  V30 11784 C 1109.06 -1.30596 5.768 0
M  V30 11785 H 1107.99 -0.316142 0.684522 0
M  V30 11786 H 1110.64 -0.0892555 1.83283 0
M  V30 11787 H 1109.02 -2.33192 3.20058 0
M  V30 11788 H 1110.2 0.158209 4.60528 0
M  V30 11789 H 1108.51 -0.0152393 4.16397 0
M  V30 11790 H 1111.11 -2.76585 4.57608 0
M  V30 11791 H 1111.45 -3.0056 2.88044 0
M  V30 11792 H 1111.98 -1.50746 3.68131 0
M  V30 11793 H 1108.72 -0.573874 6.52983 0
M  V30 11794 H 1108.24 -2.03787 5.6412 0
M  V30 11795 H 1109.92 -1.8418 6.20231 0
M  V30 11796 N 1110.05 -1.5248 -0.398459 0
M  V30 11797 C 1111.3 -1.66731 -1.14215 0
M  V30 11798 C 1111.62 -0.404957 -1.90749 0
M  V30 11799 O 1110.89 0.580434 -1.87104 0
M  V30 11800 H 1109.47 -0.614577 -0.424622 0
M  V30 11801 H 1112.13 -1.89561 -0.453059 0
M  V30 11802 H 1111.23 -2.51336 -1.85031 0
M  V30 11803 N 1111.53 0.65634 -1.43283 0
M  V30 11804 C 1112.76 1.44906 -1.48382 0
M  V30 11805 C 1113.18 1.87823 -0.101993 0
M  V30 11806 O 1112.54 1.57178 0.903597 0
M  V30 11807 C 1112.59 2.66231 -2.43215 0
M  V30 11808 O 1111.69 3.65176 -1.91625 0
M  V30 11809 H 1111.03 0.434601 -0.502014 0
M  V30 11810 H 1113.56 0.803429 -1.88165 0
M  V30 11811 H 1113.57 3.14083 -2.60414 0
M  V30 11812 H 1112.25 2.34336 -3.43598 0
M  V30 11813 H 1110.82 3.24302 -1.84072 0
M  V30 11814 N 1113.01 1.29761 0.894412 0
M  V30 11815 C 1114.26 1.17806 1.64214 0
M  V30 11816 C 1114.58 -0.269588 1.93127 0
M  V30 11817 O 1113.85 -1.18352 1.56107 0
M  V30 11818 H 1112.43 0.433002 0.608702 0
M  V30 11819 H 1115.09 1.6276 1.07216 0
M  V30 11820 H 1114.19 1.73201 2.5963 0
M  V30 11821 N 1114.49 -1.10549 1.12324 0
M  V30 11822 C 1115.43 -2.16858 0.790024 0
M  V30 11823 C 1116.4 -1.64317 -0.242694 0
M  V30 11824 O 1117.59 -1.90438 -0.117531 0
M  V30 11825 C 1114.73 -3.44197 0.249503 0
M  V30 11826 C 1113.84 -4.10696 1.33989 0
M  V30 11827 C 1112.98 -5.25751 0.758932 0
M  V30 11828 C 1112.02 -5.8415 1.82853 0
M  V30 11829 N 1111.15 -6.90585 1.26637 0
M  V30 11830 H 1115.99 -2.44705 1.7007 0
M  V30 11831 H 1113.53 -1.20117 0.849141 0
M  V30 11832 H 1115.49 -4.1712 -0.0819251 0
M  V30 11833 H 1114.12 -3.16705 -0.624332 0
M  V30 11834 H 1113.17 -3.35754 1.78812 0
M  V30 11835 H 1114.48 -4.50144 2.14875 0
M  V30 11836 H 1113.64 -6.05521 0.378104 0
M  V30 11837 H 1112.38 -4.87632 -0.0811405 0
M  V30 11838 H 1111.38 -5.03051 2.21856 0
M  V30 11839 H 1112.61 -6.24333 2.6718 0
M  V30 11840 H 1110.55 -6.54468 0.448105 0
M  V30 11841 H 1110.47 -7.28739 2.01184 0
M  V30 11842 H 1111.74 -7.74138 0.912737 0
M  V30 11843 N 1115.97 -0.914965 -1.28321 0
M  V30 11844 C 1117.21 -0.549562 -1.95212 0
M  V30 11845 C 1117.54 0.904658 -1.71842 0
M  V30 11846 O 1116.82 1.64354 -1.04009 0
M  V30 11847 C 1117.1 -0.860927 -3.49657 0
M  V30 11848 C 1116.96 -2.36797 -3.82423 0
M  V30 11849 C 1118.27 -0.357926 -4.38642 0
M  V30 11850 H 1115.39 -0.201136 -0.709023 0
M  V30 11851 H 1118.04 -1.14443 -1.51667 0
M  V30 11852 H 1116.19 -0.354665 -3.86878 0
M  V30 11853 H 1117.86 -2.94494 -3.55065 0
M  V30 11854 H 1116.1 -2.82245 -3.29424 0
M  V30 11855 H 1116.77 -2.53637 -4.90278 0
M  V30 11856 H 1119.25 -0.791636 -4.085 0
M  V30 11857 H 1118.12 -0.604855 -5.45557 0
M  V30 11858 H 1118.38 0.741775 -4.35833 0
M  V30 11859 N 1117.44 1.42219 -0.679077 0
M  V30 11860 C 1118.69 2.01479 -0.203119 0
M  V30 11861 C 1119.02 1.5371 1.19178 0
M  V30 11862 O 1118.27 0.731832 1.81501 0
M  V30 11863 C 1118.57 3.56889 -0.191027 0
M  V30 11864 C 1118.24 4.24106 -1.53118 0
M  V30 11865 C 1116.9 4.42182 -1.89812 0
M  V30 11866 C 1119.25 4.61946 -2.41361 0
M  V30 11867 C 1116.58 4.95371 -3.14364 0
M  V30 11868 C 1118.93 5.16518 -3.65229 0
M  V30 11869 C 1117.6 5.32807 -4.02086 0
M  V30 11870 H 1116.87 0.737263 -0.0743264 0
M  V30 11871 H 1119.51 1.70346 -0.874908 0
M  V30 11872 H 1117.82 3.87715 0.564282 0
M  V30 11873 H 1119.52 4.00528 0.194511 0
M  V30 11874 H 1116.11 4.10399 -1.23575 0
M  V30 11875 H 1120.29 4.4765 -2.14297 0
M  V30 11876 H 1115.55 5.06167 -3.42935 0
M  V30 11877 H 1119.72 5.44782 -4.33804 0
M  V30 11878 H 1117.35 5.73785 -4.98673 0
M  V30 11879 N 1118.92 0.422693 1.51826 0
M  V30 11880 C 1119.88 -0.384307 2.25955 0
M  V30 11881 C 1120.88 -0.962184 1.28836 0
M  V30 11882 O 1122.07 -0.838931 1.52668 0
M  V30 11883 C 1119.21 -1.54228 3.04018 0
M  V30 11884 H 1120.4 0.265157 2.98726 0
M  V30 11885 H 1117.95 0.175515 1.55311 0
M  V30 11886 H 1118.69 -2.22822 2.35629 0
M  V30 11887 H 1118.47 -1.13425 3.75336 0
M  V30 11888 H 1119.96 -2.1128 3.60209 0
M  V30 11889 N 1120.4 -1.5685 0.153553 0
M  V30 11890 C 1121.62 -2.01135 -0.505904 0
M  V30 11891 C 1122.05 -1.03301 -1.57196 0
M  V30 11892 O 1121.41 -0.00976022 -1.81297 0
M  V30 11893 C 1121.46 -3.44129 -1.0774 0
M  V30 11894 O 1120.56 -3.49318 -2.19205 0
M  V30 11895 H 1119.9 -0.652496 -0.123062 0
M  V30 11896 H 1122.43 -2.03039 0.252216 0
M  V30 11897 H 1122.44 -3.83066 -1.40444 0
M  V30 11898 H 1121.12 -4.1484 -0.296754 0
M  V30 11899 H 1119.69 -3.22227 -1.8768 0
M  V30 11900 N 1121.88 0.120221 -1.57141 0
M  V30 11901 C 1123.11 0.842441 -1.88972 0
M  V30 11902 C 1123.52 1.73494 -0.744671 0
M  V30 11903 O 1122.88 1.80268 0.284557 0
M  V30 11904 C 1122.93 1.67688 -3.20254 0
M  V30 11905 O 1122.65 0.820319 -4.30351 0
M  V30 11906 C 1124.15 2.50436 -3.65782 0
M  V30 11907 H 1121.37 0.242241 -0.625748 0
M  V30 11908 H 1123.91 0.104978 -2.0423 0
M  V30 11909 H 1122.07 2.36712 -3.0667 0
M  V30 11910 H 1122.48 1.39575 -5.05588 0
M  V30 11911 H 1123.96 3.04518 -4.60405 0
M  V30 11912 H 1124.43 3.27737 -2.92378 0
M  V30 11913 H 1125.04 1.86657 -3.82151 0
M  V30 11914 N 1123.36 1.52689 0.390367 0
M  V30 11915 C 1124.6 1.67335 1.13329 0
M  V30 11916 C 1124.93 0.415068 1.90531 0
M  V30 11917 O 1124.2 -0.570504 1.87409 0
M  V30 11918 H 1122.78 0.616821 0.421356 0
M  V30 11919 H 1125.44 1.89799 0.443 0
M  V30 11920 H 1124.53 2.52314 1.83696 0
M  V30 11921 N 1124.83 -0.648732 1.43629 0
M  V30 11922 C 1126.06 -1.43412 1.48716 0
M  V30 11923 C 1126.47 -1.88908 0.105051 0
M  V30 11924 O 1125.82 -1.60373 -0.895896 0
M  V30 11925 C 1125.88 -2.69906 2.37468 0
M  V30 11926 C 1125.54 -2.46321 3.84935 0
M  V30 11927 C 1126.54 -2.09259 4.75927 0
M  V30 11928 C 1124.22 -2.60506 4.29467 0
M  V30 11929 C 1126.22 -1.86686 6.09448 0
M  V30 11930 C 1123.9 -2.37548 5.6304 0
M  V30 11931 C 1124.9 -2.00694 6.52848 0
M  V30 11932 O 1124.59 -1.77979 7.83951 0
M  V30 11933 H 1124.32 -0.446883 0.507219 0
M  V30 11934 H 1126.88 -0.802218 1.89086 0
M  V30 11935 H 1125.11 -3.35672 1.91993 0
M  V30 11936 H 1126.8 -3.31867 2.33707 0
M  V30 11937 H 1127.56 -1.97872 4.428 0
M  V30 11938 H 1123.44 -2.88165 3.59836 0
M  V30 11939 H 1126.98 -1.57844 6.79508 0
M  V30 11940 H 1122.88 -2.48539 5.95734 0
M  V30 11941 H 1123.65 -1.92368 7.95573 0
M  V30 11942 N 1126.31 -1.30234 -0.887518 0
M  V30 11943 C 1127.56 -1.18675 -1.63587 0
M  V30 11944 C 1127.88 0.259342 -1.93268 0
M  V30 11945 O 1127.15 1.17523 -1.56733 0
M  V30 11946 H 1125.73 -0.436224 -0.606397 0
M  V30 11947 H 1128.39 -1.63326 -1.06351 0
M  V30 11948 H 1127.49 -1.74575 -2.58708 0
M  V30 11949 N 1127.79 1.09952 -1.12909 0
M  V30 11950 C 1129.04 1.81386 -0.882163 0
M  V30 11951 C 1129.35 1.86376 0.593592 0
M  V30 11952 O 1130.56 2.54064 0.957275 0
M  V30 11953 C 1129.01 3.25824 -1.52861 0
M  V30 11954 C 1128.62 3.29117 -3.0395 0
M  V30 11955 C 1130.37 4.02051 -1.36216 0
M  V30 11956 C 1128.27 4.68047 -3.61505 0
M  V30 11957 H 1127.2 0.679701 -0.326378 0
M  V30 11958 H 1129.85 1.23614 -1.35616 0
M  V30 11959 H 1128.24 3.83624 -0.982271 0
M  V30 11960 H 1129.41 2.81114 -3.65119 0
M  V30 11961 H 1127.73 2.66379 -3.20049 0
M  V30 11962 H 1130.32 5.04683 -1.76633 0
M  V30 11963 H 1130.67 4.15171 -0.306391 0
M  V30 11964 H 1131.2 3.5068 -1.87799 0
M  V30 11965 H 1127.94 4.60128 -4.66865 0
M  V30 11966 H 1127.46 5.16397 -3.05114 0
M  V30 11967 H 1129.14 5.37018 -3.6086 0
M  V30 11968 N 1129.27 0.921757 1.27833 0
M  V30 11969 C 1130.23 0.420978 2.25301 0
M  V30 11970 C 1131.23 -0.457158 1.54165 0
M  V30 11971 O 1132.42 -0.259079 1.72263 0
M  V30 11972 C 1129.55 -0.395501 3.38598 0
M  V30 11973 H 1130.75 1.28206 2.71115 0
M  V30 11974 H 1128.3 0.701893 1.39654 0
M  V30 11975 H 1129.03 -1.27565 2.98157 0
M  V30 11976 H 1128.82 0.234029 3.91401 0
M  V30 11977 H 1130.31 -0.736444 4.11055 0
M  V30 11978 N 1130.75 -1.41857 0.686609 0
M  V30 11979 C 1132 -2.00594 0.21095 0
M  V30 11980 C 1132.31 -1.54974 -1.19341 0
M  V30 11981 O 1133.51 -2.0621 -1.76607 0
M  V30 11982 C 1131.97 -3.58418 0.326261 0
M  V30 11983 C 1131.58 -4.13022 1.73542 0
M  V30 11984 C 1133.32 -4.24404 -0.0900816 0
M  V30 11985 C 1131.23 -5.6325 1.80287 0
M  V30 11986 H 1130.16 -0.75025 0.0751077 0
M  V30 11987 H 1132.81 -1.62442 0.853508 0
M  V30 11988 H 1131.19 -3.9413 -0.384394 0
M  V30 11989 H 1132.37 -3.88747 2.47411 0
M  V30 11990 H 1130.68 -3.5953 2.10065 0
M  V30 11991 H 1133.28 -5.34666 -0.060004 0
M  V30 11992 H 1133.62 -4.00745 -1.12733 0
M  V30 11993 H 1134.15 -3.93695 0.569979 0
M  V30 11994 H 1130.89 -5.91724 2.82034 0
M  V30 11995 H 1130.41 -5.89479 1.1079 0
M  V30 11996 H 1132.09 -6.2787 1.56167 0
M  V30 11997 N 1132.22 -0.430739 -1.51599 0
M  V30 11998 C 1133.16 0.419726 -2.25324 0
M  V30 11999 C 1134.17 0.991925 -1.29092 0
M  V30 12000 O 1135.36 0.887188 -1.54891 0
M  V30 12001 C 1132.46 1.59844 -2.98836 0
M  V30 12002 C 1131.63 1.14629 -4.22112 0
M  V30 12003 C 1130.69 2.19437 -4.78261 0
M  V30 12004 O 1129.72 1.79141 -5.40275 0
M  V30 12005 N 1130.92 3.51849 -4.61717 0
M  V30 12006 H 1133.68 -0.212112 -2.98948 0
M  V30 12007 H 1131.24 -0.259269 -1.59811 0
M  V30 12008 H 1133.24 2.29567 -3.33288 0
M  V30 12009 H 1131.81 2.13575 -2.28264 0
M  V30 12010 H 1131.03 0.276367 -3.9323 0
M  V30 12011 H 1132.31 0.821488 -5.02124 0
M  V30 12012 H 1131.71 3.87324 -4.12306 0
M  V30 12013 H 1130.27 4.17486 -5.00548 0
M  V30 12014 N 1133.7 1.56767 -0.161869 0
M  V30 12015 C 1134.65 2.17502 0.772102 0
M  V30 12016 C 1135.62 1.11223 1.23364 0
M  V30 12017 O 1136.8 1.39332 1.30351 0
M  V30 12018 C 1133.94 2.81248 1.99984 0
M  V30 12019 C 1133.06 4.01962 1.58274 0
M  V30 12020 C 1132.19 4.53662 2.76341 0
M  V30 12021 C 1131.23 5.66807 2.31076 0
M  V30 12022 N 1130.37 6.13059 3.42203 0
M  V30 12023 H 1135.21 2.96971 0.247382 0
M  V30 12024 H 1132.75 1.46685 0.110382 0
M  V30 12025 H 1134.7 3.16359 2.7198 0
M  V30 12026 H 1133.33 2.04398 2.49842 0
M  V30 12027 H 1132.39 3.72733 0.759874 0
M  V30 12028 H 1133.7 4.83891 1.2104 0
M  V30 12029 H 1132.85 4.90905 3.56507 0
M  V30 12030 H 1131.59 3.7077 3.16829 0
M  V30 12031 H 1130.6 5.29125 1.49354 0
M  V30 12032 H 1131.82 6.51494 1.91657 0
M  V30 12033 H 1129.77 5.33099 3.82285 0
M  V30 12034 H 1129.68 6.89953 3.09033 0
M  V30 12035 H 1130.95 6.54951 4.22682 0
M  V30 12036 N 1135.18 -0.111886 1.57202 0
M  V30 12037 C 1136.46 -0.849125 1.76208 0
M  V30 12038 C 1136.84 -1.97735 0.73919 0
M  V30 12039 O 1136.19 -2.27283 -0.235523 0
M  V30 12040 C 1136.4 -1.35924 3.21443 0
M  V30 12041 C 1137.74 -1.80874 3.84148 0
M  V30 12042 O 1138.77 -1.45587 3.25089 0
M  V30 12043 O 1137.63 -2.46065 4.87969 0
M  V30 12044 H 1134.72 -0.403761 0.721738 0
M  V30 12045 H 1137.27 -0.0950726 1.69433 0
M  V30 12046 H 1136.04 -0.550113 3.87414 0
M  V30 12047 H 1135.66 -2.17579 3.32784 0
M  V30 12048 N 1136.66 -1.52894 -0.382264 0
M  V30 12049 C 1137.88 -1.72453 -1.15216 0
M  V30 12050 C 1138.31 -0.444925 -1.82762 0
M  V30 12051 O 1137.67 0.599825 -1.7109 0
M  V30 12052 C 1137.71 -2.87939 -2.17079 0
M  V30 12053 O 1136.82 -2.55383 -3.23811 0
M  V30 12054 H 1136.16 -0.57324 -0.335099 0
M  V30 12055 H 1138.69 -1.99713 -0.444495 0
M  V30 12056 H 1138.7 -3.13628 -2.60963 0
M  V30 12057 H 1137.37 -3.80765 -1.67305 0
M  V30 12058 H 1135.95 -2.40457 -2.85018 0
M  V30 12059 N 1138.14 0.641106 -1.43971 0
M  V30 12060 C 1139.39 1.39807 -1.4594 0
M  V30 12061 C 1139.71 1.94795 -0.0893874 0
M  V30 12062 O 1138.98 1.75175 0.876962 0
M  V30 12063 H 1137.56 0.518908 -0.537349 0
M  V30 12064 H 1140.22 0.755278 -1.79671 0
M  V30 12065 H 1139.31 2.23439 -2.17903 0
M  V30 12066 N 1139.62 1.30703 0.880598 0
M  V30 12067 C 1140.86 1.20965 1.63521 0
M  V30 12068 C 1141.22 -0.232404 1.90991 0
M  V30 12069 O 1140.51 -1.16272 1.52287 0
M  V30 12070 C 1140.7 1.97628 2.97789 0
M  V30 12071 C 1140.53 3.49141 2.83427 0
M  V30 12072 C 1139.3 4.18496 2.83177 0
M  V30 12073 C 1141.5 4.44291 2.59056 0
M  V30 12074 N 1139.48 5.56239 2.59752 0
M  V30 12075 C 1140.85 5.69627 2.44795 0
M  V30 12076 C 1142.91 4.33837 2.44316 0
M  V30 12077 C 1141.61 6.85694 2.17293 0
M  V30 12078 C 1143.64 5.49675 2.182 0
M  V30 12079 C 1143 6.73995 2.04719 0
M  V30 12080 H 1139.1 0.497719 0.603158 0
M  V30 12081 H 1141.68 1.64765 1.03733 0
M  V30 12082 H 1139.85 1.56212 3.55601 0
M  V30 12083 H 1141.59 1.79996 3.62468 0
M  V30 12084 H 1138.34 3.70368 2.95168 0
M  V30 12085 H 1138.76 6.28735 2.5104 0
M  V30 12086 H 1143.41 3.38396 2.53471 0
M  V30 12087 H 1141.12 7.81171 2.06875 0
M  V30 12088 H 1144.71 5.43497 2.0761 0
M  V30 12089 H 1143.59 7.62116 1.84794 0
M  V30 12090 N 1141.09 -1.09351 1.1349 0
M  V30 12091 C 1142.04 -2.16008 0.812981 0
M  V30 12092 C 1143.01 -1.64566 -0.225252 0
M  V30 12093 O 1144.2 -1.90552 -0.0973261 0
M  V30 12094 C 1141.34 -3.43913 0.285996 0
M  V30 12095 C 1140.45 -4.09251 1.38338 0
M  V30 12096 C 1139.58 -5.24916 0.814652 0
M  V30 12097 C 1138.62 -5.82178 1.89038 0
M  V30 12098 N 1137.76 -6.89203 1.33955 0
M  V30 12099 H 1142.6 -2.42887 1.72655 0
M  V30 12100 H 1140.14 -1.19209 0.861833 0
M  V30 12101 H 1142.09 -4.17183 -0.0376794 0
M  V30 12102 H 1140.72 -3.17349 -0.590707 0
M  V30 12103 H 1139.78 -3.33838 1.82363 0
M  V30 12104 H 1141.09 -4.4784 2.19638 0
M  V30 12105 H 1140.24 -6.05086 0.442306 0
M  V30 12106 H 1138.98 -4.87691 -0.029416 0
M  V30 12107 H 1137.99 -5.00669 2.27179 0
M  V30 12108 H 1139.21 -6.21464 2.73787 0
M  V30 12109 H 1137.16 -6.53956 0.517494 0
M  V30 12110 H 1137.07 -7.26565 2.08902 0
M  V30 12111 H 1138.34 -7.73126 0.994793 0
M  V30 12112 N 1142.57 -0.928524 -1.27343 0
M  V30 12113 C 1143.99 -0.62889 -1.46687 0
M  V30 12114 C 1144.19 0.821592 -1.83989 0
M  V30 12115 O 1143.24 1.59941 -1.95385 0
M  V30 12116 C 1144.56 -1.57947 -2.55878 0
M  V30 12117 C 1146.1 -1.58778 -2.69738 0
M  V30 12118 C 1146.58 -2.52535 -3.82087 0
M  V30 12119 N 1148.07 -2.50747 -3.89462 0
M  V30 12120 C 1148.81 -3.19981 -4.75814 0
M  V30 12121 N 1148.3 -3.98598 -5.66649 0
M  V30 12122 N 1150.09 -3.08996 -4.69551 0
M  V30 12123 H 1142.25 -1.86625 -1.01414 0
M  V30 12124 H 1144.51 -0.801293 -0.50659 0
M  V30 12125 H 1144.21 -2.61427 -2.35264 0
M  V30 12126 H 1144.09 -1.3218 -3.53282 0
M  V30 12127 H 1146.48 -0.560292 -2.89732 0
M  V30 12128 H 1146.56 -1.88594 -1.72817 0
M  V30 12129 H 1146.2 -3.55395 -3.62846 0
M  V30 12130 H 1146.13 -2.20015 -4.78436 0
M  V30 12131 H 1148.62 -1.93651 -3.24511 0
M  V30 12132 H 1148.93 -4.4841 -6.29403 0
M  V30 12133 H 1147.28 -4.02701 -5.66442 0
M  V30 12134 H 1150.47 -2.4707 -3.97585 0
M  V30 12135 H 1150.64 -3.63223 -5.36631 0
M  V30 12136 N 1144.05 1.41491 -0.694123 0
M  V30 12137 C 1144.98 2.29197 0.0112742 0
M  V30 12138 C 1145.99 1.44708 0.745877 0
M  V30 12139 O 1147.18 1.68227 0.596821 0
M  V30 12140 C 1144.28 3.22547 1.04004 0
M  V30 12141 C 1143.46 4.35787 0.375347 0
M  V30 12142 C 1142.52 5.09722 1.30652 0
M  V30 12143 O 1141.54 5.63558 0.799459 0
M  V30 12144 N 1142.74 5.1705 2.63893 0
M  V30 12145 H 1145.51 2.90377 -0.741705 0
M  V30 12146 H 1143.07 1.52628 -0.540039 0
M  V30 12147 H 1145.06 3.68878 1.66468 0
M  V30 12148 H 1143.63 2.62685 1.69456 0
M  V30 12149 H 1142.85 3.91857 -0.429145 0
M  V30 12150 H 1144.14 5.08726 -0.0869041 0
M  V30 12151 H 1143.54 4.74756 3.07609 0
M  V30 12152 H 1142.09 5.66962 3.21555 0
M  V30 12153 N 1145.53 0.438773 1.51369 0
M  V30 12154 C 1146.77 -0.127401 2.02399 0
M  V30 12155 C 1147.11 -1.42235 1.32223 0
M  V30 12156 O 1146.38 -1.89513 0.437607 0
M  V30 12157 C 1146.66 -0.344673 3.58447 0
M  V30 12158 C 1146.52 0.969027 4.39238 0
M  V30 12159 C 1147.84 -1.11381 4.25773 0
M  V30 12160 H 1144.96 -0.0448281 0.735635 0
M  V30 12161 H 1147.6 0.57805 1.80993 0
M  V30 12162 H 1145.75 -0.945582 3.76817 0
M  V30 12163 H 1147.42 1.60403 4.32514 0
M  V30 12164 H 1145.66 1.57329 4.04265 0
M  V30 12165 H 1146.33 0.771029 5.46589 0
M  V30 12166 H 1148.81 -0.604785 4.11681 0
M  V30 12167 H 1147.69 -1.23459 5.34835 0
M  V30 12168 H 1147.95 -2.14225 3.8673 0
M  V30 12169 N 1147.01 -1.56678 0.170181 0
M  V30 12170 C 1148.28 -1.88524 -0.521362 0
M  V30 12171 C 1148.66 -1.07989 -1.81388 0
M  V30 12172 O 1148.01 -0.17347 -2.27841 0
M  V30 12173 C 1148.22 -3.40527 -0.764367 0
M  V30 12174 C 1149.57 -4.10241 -1.09487 0
M  V30 12175 O 1150.59 -3.45837 -0.852945 0
M  V30 12176 O 1149.45 -5.24022 -1.55124 0
M  V30 12177 H 1146.55 -0.782161 -0.268614 0
M  V30 12178 H 1149.09 -1.68414 0.208531 0
M  V30 12179 H 1147.86 -3.91015 0.149416 0
M  V30 12180 H 1147.49 -3.66244 -1.54762 0
M  V30 12181 N 1148.48 0.103547 -1.57259 0
M  V30 12182 C 1149.41 1.12714 -2.04494 0
M  V30 12183 C 1150.39 1.42278 -0.932255 0
M  V30 12184 O 1151.58 1.52453 -1.20298 0
M  V30 12185 C 1148.71 2.44927 -2.46228 0
M  V30 12186 C 1147.66 2.2979 -3.61082 0
M  V30 12187 C 1146.99 3.67105 -3.88765 0
M  V30 12188 C 1148.29 1.7455 -4.9227 0
M  V30 12189 H 1149.98 0.734198 -2.90258 0
M  V30 12190 H 1147.53 0.351725 -1.39638 0
M  V30 12191 H 1149.48 3.16798 -2.77879 0
M  V30 12192 H 1148.21 2.8614 -1.57453 0
M  V30 12193 H 1146.87 1.60366 -3.29664 0
M  V30 12194 H 1146.51 4.05831 -2.97171 0
M  V30 12195 H 1146.21 3.57825 -4.66084 0
M  V30 12196 H 1147.74 4.40456 -4.22884 0
M  V30 12197 H 1149.15 2.36253 -5.22358 0
M  V30 12198 H 1147.55 1.76051 -5.73695 0
M  V30 12199 H 1148.62 0.704242 -4.79759 0
M  V30 12200 N 1149.96 1.53094 0.37415 0
M  V30 12201 C 1150.92 1.78264 1.44065 0
M  V30 12202 C 1151.92 0.652892 1.46949 0
M  V30 12203 O 1153.11 0.921046 1.47859 0
M  V30 12204 C 1150.25 1.89693 2.83248 0
M  V30 12205 H 1151.44 2.73505 1.23025 0
M  V30 12206 H 1148.99 1.44041 0.60678 0
M  V30 12207 H 1149.73 0.964884 3.09613 0
M  V30 12208 H 1149.51 2.71855 2.82554 0
M  V30 12209 H 1151 2.10787 3.60498 0
M  V30 12210 N 1151.44 -0.633461 1.44309 0
M  V30 12211 C 1152.69 -1.38902 1.4625 0
M  V30 12212 C 1153 -1.95354 0.0980699 0
M  V30 12213 O 1154.21 -2.715 -0.0049983 0
M  V30 12214 C 1152.66 -2.51477 2.57463 0
M  V30 12215 C 1152.27 -2.01549 4.00103 0
M  V30 12216 C 1154.02 -3.28698 2.68622 0
M  V30 12217 C 1151.92 -3.11452 5.02744 0
M  V30 12218 H 1150.85 -0.521976 0.544112 0
M  V30 12219 H 1153.5 -0.681725 1.70367 0
M  V30 12220 H 1151.89 -3.24771 2.26582 0
M  V30 12221 H 1153.06 -1.35135 4.4054 0
M  V30 12222 H 1151.37 -1.3715 3.93165 0
M  V30 12223 H 1153.97 -4.10624 3.42479 0
M  V30 12224 H 1154.31 -3.78027 1.7436 0
M  V30 12225 H 1154.85 -2.62494 2.98901 0
M  V30 12226 H 1151.59 -2.6707 5.98627 0
M  V30 12227 H 1151.11 -3.76514 4.66902 0
M  V30 12228 H 1152.79 -3.76265 5.2634 0
M  V30 12229 N 1152.92 -1.31168 -0.873655 0
M  V30 12230 C 1153.85 -1.21094 -1.99646 0
M  V30 12231 C 1154.83 -0.0989684 -1.69812 0
M  V30 12232 O 1156.01 -0.282939 -1.92128 0
M  V30 12233 C 1153.14 -0.913684 -3.35066 0
M  V30 12234 C 1152.1 -1.98482 -3.79195 0
M  V30 12235 C 1151.42 -1.54033 -5.12033 0
M  V30 12236 C 1152.72 -3.39745 -3.96699 0
M  V30 12237 H 1154.42 -2.1503 -2.08333 0
M  V30 12238 H 1151.96 -1.03521 -1.00097 0
M  V30 12239 H 1153.92 -0.829821 -4.13149 0
M  V30 12240 H 1152.64 0.0613471 -3.26542 0
M  V30 12241 H 1151.3 -2.05851 -3.03349 0
M  V30 12242 H 1150.95 -0.553261 -4.99948 0
M  V30 12243 H 1150.65 -2.25688 -5.4253 0
M  V30 12244 H 1152.17 -1.47047 -5.92629 0
M  V30 12245 H 1153.59 -3.35071 -4.65188 0
M  V30 12246 H 1151.98 -4.09585 -4.38589 0
M  V30 12247 H 1153.05 -3.80802 -3.00196 0
M  V30 12248 N 1154.4 1.08748 -1.14068 0
M  V30 12249 C 1155.33 2.1544 -0.782199 0
M  V30 12250 C 1156.34 1.61575 0.199301 0
M  V30 12251 O 1157.53 1.78487 -0.0219044 0
M  V30 12252 C 1154.63 3.38611 -0.13983 0
M  V30 12253 C 1153.8 4.2187 -1.15518 0
M  V30 12254 C 1152.86 5.23451 -0.537216 0
M  V30 12255 O 1151.89 5.56424 -1.1992 0
M  V30 12256 N 1153.09 5.76413 0.6876 0
M  V30 12257 H 1155.86 2.46798 -1.70032 0
M  V30 12258 H 1153.42 1.24527 -1.03463 0
M  V30 12259 H 1155.41 4.03688 0.285999 0
M  V30 12260 H 1153.98 3.05084 0.681357 0
M  V30 12261 H 1153.2 3.52825 -1.75806 0
M  V30 12262 H 1154.49 4.74318 -1.84119 0
M  V30 12263 H 1153.88 5.51851 1.24406 0
M  V30 12264 H 1152.44 6.43189 1.05599 0
M  V30 12265 N 1155.87 0.935264 1.26849 0
M  V30 12266 C 1156.8 0.457776 2.28969 0
M  V30 12267 C 1157.79 -0.48587 1.63013 0
M  V30 12268 O 1158.97 -0.388998 1.90264 0
M  V30 12269 C 1156.1 -0.283332 3.46142 0
M  V30 12270 C 1155.05 0.573196 4.24144 0
M  V30 12271 C 1154.38 -0.297525 5.33872 0
M  V30 12272 C 1155.68 1.84153 4.88759 0
M  V30 12273 H 1157.37 1.31125 2.69159 0
M  V30 12274 H 1154.92 0.631956 1.29392 0
M  V30 12275 H 1156.87 -0.628366 4.16689 0
M  V30 12276 H 1155.6 -1.1709 3.04889 0
M  V30 12277 H 1154.26 0.901043 3.55354 0
M  V30 12278 H 1153.9 -1.18427 4.8886 0
M  V30 12279 H 1153.6 0.272126 5.8697 0
M  V30 12280 H 1155.13 -0.637961 6.07258 0
M  V30 12281 H 1156.54 1.5641 5.51551 0
M  V30 12282 H 1154.94 2.35528 5.51948 0
M  V30 12283 H 1156.01 2.5565 4.12033 0
M  V30 12284 N 1157.35 -1.41121 0.701616 0
M  V30 12285 C 1158.6 -2.0113 0.235147 0
M  V30 12286 C 1158.93 -1.55587 -1.16718 0
M  V30 12287 O 1158.18 -0.760615 -1.80314 0
M  V30 12288 C 1158.48 -3.5654 0.247781 0
M  V30 12289 C 1158.15 -4.21616 1.59846 0
M  V30 12290 C 1156.81 -4.39106 1.96822 0
M  V30 12291 C 1159.16 -4.58048 2.48679 0
M  V30 12292 C 1156.49 -4.90307 3.22205 0
M  V30 12293 C 1158.84 -5.10642 3.734 0
M  V30 12294 C 1157.51 -5.26343 4.10512 0
M  V30 12295 H 1156.78 -0.735987 0.0860462 0
M  V30 12296 H 1159.42 -1.68932 0.901898 0
M  V30 12297 H 1157.73 -3.88564 -0.502528 0
M  V30 12298 H 1159.42 -4.00787 -0.130766 0
M  V30 12299 H 1156.01 -4.08381 1.30088 0
M  V30 12300 H 1160.2 -4.44184 2.21391 0
M  V30 12301 H 1155.45 -5.00647 3.50945 0
M  V30 12302 H 1159.63 -5.37811 4.42416 0
M  V30 12303 H 1157.26 -5.65779 5.07738 0
M  V30 12304 N 1158.83 -0.446794 -1.51134 0
M  V30 12305 C 1160.08 0.116263 -2.01765 0
M  V30 12306 C 1160.4 1.42382 -1.33238 0
M  V30 12307 O 1159.67 1.9018 -0.469915 0
M  V30 12308 H 1158.25 0.0459558 -0.745585 0
M  V30 12309 H 1160.91 -0.591664 -1.85702 0
M  V30 12310 H 1160.01 0.285358 -3.10793 0
M  V30 12311 N 1160.31 1.56586 -0.178487 0
M  V30 12312 C 1161.59 1.88798 0.511356 0
M  V30 12313 C 1161.97 1.08949 1.80813 0
M  V30 12314 O 1161.31 0.185551 2.27745 0
M  V30 12315 C 1161.52 3.40927 0.746298 0
M  V30 12316 C 1162.87 4.10816 1.0731 0
M  V30 12317 O 1163.9 3.46285 0.834592 0
M  V30 12318 O 1162.75 5.24837 1.52343 0
M  V30 12319 H 1159.85 0.783574 0.264463 0
M  V30 12320 H 1162.39 1.68301 -0.21746 0
M  V30 12321 H 1161.17 3.9093 -0.17015 0
M  V30 12322 H 1160.79 3.67059 1.52817 0
M  V30 12323 N 1161.79 -0.095206 1.57312 0
M  V30 12324 C 1163.03 -0.797142 1.85715 0
M  V30 12325 C 1163.36 -1.79275 0.767171 0
M  V30 12326 O 1162.63 -1.94808 -0.206584 0
M  V30 12327 H 1161.21 -0.297382 0.685254 0
M  V30 12328 H 1163.87 -0.0768617 1.94748 0
M  V30 12329 H 1162.96 -1.32779 2.82447 0
M  V30 12330 N 1163.26 -1.53291 -0.366026 0
M  V30 12331 C 1164.17 -1.82656 -1.47221 0
M  V30 12332 C 1165.19 -0.71491 -1.58635 0
M  V30 12333 O 1166.37 -1.00492 -1.74538 0
M  V30 12334 C 1163.43 -2.00995 -2.82492 0
M  V30 12335 C 1162.49 -3.24895 -2.8061 0
M  V30 12336 C 1161.73 -3.4235 -4.09429 0
M  V30 12337 O 1161.95 -2.6411 -5.05571 0
M  V30 12338 O 1160.88 -4.35702 -4.15268 0
M  V30 12339 H 1164.71 -2.76634 -1.2533 0
M  V30 12340 H 1162.29 -1.38665 -0.556084 0
M  V30 12341 H 1164.18 -2.14632 -3.62645 0
M  V30 12342 H 1162.85 -1.10207 -3.04362 0
M  V30 12343 H 1161.76 -3.16682 -1.99157 0
M  V30 12344 H 1163.09 -4.15604 -2.63694 0
M  V30 12345 N 1164.74 0.6258 -1.44643 0
M  V30 12346 C 1165.68 1.75056 -1.46392 0
M  V30 12347 C 1166.65 1.59376 -0.322179 0
M  V30 12348 O 1167.84 1.81187 -0.519956 0
M  V30 12349 C 1164.96 3.12689 -1.30166 0
M  V30 12350 C 1164.01 3.47005 -2.47972 0
M  V30 12351 S 1164.84 3.43885 -4.10491 0
M  V30 12352 C 1166 4.84129 -3.96698 0
M  V30 12353 H 1166.23 1.73306 -2.41562 0
M  V30 12354 H 1163.77 0.800879 -1.32005 0
M  V30 12355 H 1165.72 3.9211 -1.21492 0
M  V30 12356 H 1164.38 3.11972 -0.364982 0
M  V30 12357 H 1163.58 4.47171 -2.32496 0
M  V30 12358 H 1163.18 2.75059 -2.53414 0
M  V30 12359 H 1165.47 5.73488 -3.60718 0
M  V30 12360 H 1166.41 5.0466 -4.96713 0
M  V30 12361 H 1166.82 4.58954 -3.28666 0
M  V30 12362 N 1166.22 1.31629 0.866686 0
M  V30 12363 C 1167.13 1.21524 2.00671 0
M  V30 12364 C 1168.15 0.131277 1.73504 0
M  V30 12365 O 1169.32 0.349699 1.98341 0
M  V30 12366 C 1166.39 0.926491 3.34091 0
M  V30 12367 C 1165.45 2.09769 3.7456 0
M  V30 12368 C 1164.68 1.82262 5.01614 0
M  V30 12369 O 1164.9 0.759329 5.65323 0
M  V30 12370 O 1163.84 2.68031 5.38928 0
M  V30 12371 H 1167.66 2.17335 2.1213 0
M  V30 12372 H 1165.25 1.11401 0.995499 0
M  V30 12373 H 1167.13 0.78144 4.14091 0
M  V30 12374 H 1165.81 -0.00155829 3.237 0
M  V30 12375 H 1164.71 2.29816 2.95187 0
M  V30 12376 H 1166.05 3.0081 3.89582 0
M  V30 12377 N 1167.7 -1.08142 1.14644 0
M  V30 12378 C 1168.61 -2.18675 0.849607 0
M  V30 12379 C 1169.63 -1.73158 -0.170983 0
M  V30 12380 O 1170.8 -2.014 0.0011579 0
M  V30 12381 C 1167.87 -3.45084 0.334305 0
M  V30 12382 C 1166.93 -4.05213 1.41779 0
M  V30 12383 C 1166.16 -5.25588 0.926981 0
M  V30 12384 O 1166.38 -5.69934 -0.230522 0
M  V30 12385 O 1165.32 -5.77183 1.70715 0
M  V30 12386 H 1169.14 -2.46542 1.77343 0
M  V30 12387 H 1166.73 -1.17328 0.924911 0
M  V30 12388 H 1168.61 -4.21367 0.0529893 0
M  V30 12389 H 1167.29 -3.18788 -0.561755 0
M  V30 12390 H 1166.19 -3.30507 1.7526 0
M  V30 12391 H 1167.53 -4.35764 2.28847 0
M  V30 12392 N 1169.18 -0.941978 -1.26351 0
M  V30 12393 C 1170.11 -0.469913 -2.28723 0
M  V30 12394 C 1171.09 0.477218 -1.63269 0
M  V30 12395 O 1172.27 0.378902 -1.90468 0
M  V30 12396 C 1169.4 0.264971 -3.46288 0
M  V30 12397 C 1168.36 -0.595682 -4.23834 0
M  V30 12398 C 1167.68 0.269208 -5.34022 0
M  V30 12399 C 1168.98 -1.86743 -4.87775 0
M  V30 12400 H 1170.68 -1.32551 -2.6846 0
M  V30 12401 H 1168.22 -0.638809 -1.29055 0
M  V30 12402 H 1170.18 0.606259 -4.17016 0
M  V30 12403 H 1168.9 1.15471 -3.05506 0
M  V30 12404 H 1167.56 -0.919875 -3.54872 0
M  V30 12405 H 1167.21 1.15832 -4.89481 0
M  V30 12406 H 1166.91 -0.30325 -5.86817 0
M  V30 12407 H 1168.43 0.605748 -6.07588 0
M  V30 12408 H 1169.85 -1.59333 -5.50714 0
M  V30 12409 H 1168.24 -2.38452 -5.50691 0
M  V30 12410 H 1169.31 -2.57831 -4.10671 0
M  V30 12411 N 1170.66 1.40747 -0.709091 0
M  V30 12412 C 1171.57 2.3454 -0.0532205 0
M  V30 12413 C 1172.58 1.56956 0.751057 0
M  V30 12414 O 1173.76 1.89375 0.685509 0
M  V30 12415 C 1170.82 3.35809 0.862157 0
M  V30 12416 C 1169.88 4.29273 0.0485632 0
M  V30 12417 C 1169.12 5.25705 0.920345 0
M  V30 12418 O 1169.34 5.27933 2.15969 0
M  V30 12419 O 1168.27 6.00806 0.3628 0
M  V30 12420 H 1172.1 2.92232 -0.826698 0
M  V30 12421 H 1169.68 1.4183 -0.469519 0
M  V30 12422 H 1171.57 3.97931 1.38668 0
M  V30 12423 H 1170.24 2.8054 1.61489 0
M  V30 12424 H 1169.15 3.70456 -0.520873 0
M  V30 12425 H 1170.48 4.87676 -0.665807 0
M  V30 12426 N 1172.13 0.454803 1.50895 0
M  V30 12427 C 1173.1 -0.336293 2.26719 0
M  V30 12428 C 1174.1 -0.93464 1.30848 0
M  V30 12429 O 1175.29 -0.80636 1.54413 0
M  V30 12430 C 1172.42 -1.47744 3.07221 0
M  V30 12431 H 1173.61 0.328462 2.98096 0
M  V30 12432 H 1171.16 0.208419 1.54904 0
M  V30 12433 H 1171.9 -2.17773 2.40302 0
M  V30 12434 H 1171.68 -1.05438 3.77658 0
M  V30 12435 H 1173.17 -2.03592 3.6461 0
M  V30 12436 N 1173.61 -1.56489 0.186789 0
M  V30 12437 C 1174.54 -2.21705 -0.732739 0
M  V30 12438 C 1175.52 -1.17751 -1.22755 0
M  V30 12439 O 1176.71 -1.46231 -1.27789 0
M  V30 12440 C 1173.84 -2.86992 -1.95584 0
M  V30 12441 C 1172.79 -3.97118 -1.59628 0
M  V30 12442 C 1172.12 -4.49529 -2.89531 0
M  V30 12443 C 1173.42 -5.15941 -0.812518 0
M  V30 12444 H 1175.11 -2.98802 -0.189094 0
M  V30 12445 H 1172.66 -1.43722 -0.0895099 0
M  V30 12446 H 1174.61 -3.31295 -2.60426 0
M  V30 12447 H 1173.33 -2.07287 -2.52388 0
M  V30 12448 H 1171.99 -3.53494 -0.971475 0
M  V30 12449 H 1171.64 -3.66596 -3.44407 0
M  V30 12450 H 1171.34 -5.23832 -2.66221 0
M  V30 12451 H 1172.87 -4.96528 -3.55376 0
M  V30 12452 H 1174.28 -5.56841 -1.36386 0
M  V30 12453 H 1172.68 -5.96259 -0.677862 0
M  V30 12454 H 1173.75 -4.84535 0.188095 0
M  V30 12455 N 1175.09 0.086862 -1.5736 0
M  V30 12456 C 1176.34 0.784846 -1.87648 0
M  V30 12457 C 1176.69 1.7594 -0.778647 0
M  V30 12458 O 1175.98 1.90349 0.218612 0
M  V30 12459 C 1176.18 1.54537 -3.22263 0
M  V30 12460 C 1176.01 0.645971 -4.45036 0
M  V30 12461 C 1174.78 0.288589 -5.04475 0
M  V30 12462 C 1176.97 -0.0506915 -5.14275 0
M  V30 12463 N 1174.96 -0.618109 -6.1078 0
M  V30 12464 C 1176.33 -0.815144 -6.14618 0
M  V30 12465 C 1178.38 -0.123748 -4.97746 0
M  V30 12466 C 1177.09 -1.64584 -7.00218 0
M  V30 12467 C 1179.11 -0.94137 -5.8386 0
M  V30 12468 C 1178.47 -1.69392 -6.83729 0
M  V30 12469 H 1174.57 0.263103 -0.736411 0
M  V30 12470 H 1177.16 0.0470027 -1.94643 0
M  V30 12471 H 1175.33 2.25403 -3.16304 0
M  V30 12472 H 1177.06 2.19119 -3.40248 0
M  V30 12473 H 1173.81 0.638093 -4.69282 0
M  V30 12474 H 1174.24 -1.06426 -6.68583 0
M  V30 12475 H 1178.88 0.443728 -4.20465 0
M  V30 12476 H 1176.6 -2.22435 -7.76884 0
M  V30 12477 H 1180.18 -1.00068 -5.7313 0
M  V30 12478 H 1179.06 -2.31639 -7.49208 0
M  V30 12479 N 1176.57 1.53483 0.357892 0
M  V30 12480 C 1177.5 1.83444 1.44466 0
M  V30 12481 C 1178.48 0.688486 1.55544 0
M  V30 12482 O 1179.66 0.93906 1.69986 0
M  V30 12483 C 1176.79 2.03122 2.81707 0
M  V30 12484 C 1175.75 3.1891 2.85448 0
M  V30 12485 C 1175.07 3.23895 4.25436 0
M  V30 12486 C 1176.37 4.57334 2.52275 0
M  V30 12487 H 1178.07 2.74456 1.19642 0
M  V30 12488 H 1175.61 1.3206 0.574112 0
M  V30 12489 H 1177.57 2.22666 3.57768 0
M  V30 12490 H 1176.29 1.08827 3.07935 0
M  V30 12491 H 1174.95 2.99199 2.11838 0
M  V30 12492 H 1174.6 2.27223 4.48753 0
M  V30 12493 H 1174.3 4.01694 4.28854 0
M  V30 12494 H 1175.82 3.45632 5.0336 0
M  V30 12495 H 1177.24 4.76988 3.1805 0
M  V30 12496 H 1175.63 5.37431 2.66998 0
M  V30 12497 H 1176.7 4.61921 1.47501 0
M  V30 12498 N 1178.05 -0.61812 1.44973 0
M  V30 12499 C 1179.27 -1.40429 1.51945 0
M  V30 12500 C 1179.69 -1.88215 0.148556 0
M  V30 12501 O 1179.05 -1.61603 -0.847978 0
M  V30 12502 C 1179.1 -2.61588 2.49507 0
M  V30 12503 O 1178.82 -2.15791 3.81269 0
M  V30 12504 C 1180.32 -3.5457 2.66074 0
M  V30 12505 H 1177.54 -0.43023 0.514921 0
M  V30 12506 H 1180.08 -0.754791 1.90061 0
M  V30 12507 H 1178.24 -3.22602 2.14492 0
M  V30 12508 H 1178.65 -2.94434 4.34061 0
M  V30 12509 H 1180.13 -4.36155 3.38338 0
M  V30 12510 H 1180.6 -4.04227 1.71746 0
M  V30 12511 H 1181.21 -2.99416 3.02043 0
M  V30 12512 N 1179.52 -1.32087 -0.859693 0
M  V30 12513 C 1180.77 -1.22119 -1.61033 0
M  V30 12514 C 1181.09 0.218289 -1.93774 0
M  V30 12515 O 1180.36 1.14172 -1.5919 0
M  V30 12516 H 1178.94 -0.448989 -0.597008 0
M  V30 12517 H 1181.6 -1.65545 -1.02863 0
M  V30 12518 H 1180.7 -1.80023 -2.54947 0
M  V30 12519 N 1181 1.07532 -1.15215 0
M  V30 12520 C 1182.25 1.79474 -0.920439 0
M  V30 12521 C 1182.56 1.87593 0.553926 0
M  V30 12522 O 1183.77 2.56037 0.903169 0
M  V30 12523 C 1182.23 3.22509 -1.59738 0
M  V30 12524 C 1181.83 3.22596 -3.10863 0
M  V30 12525 C 1183.58 3.99072 -1.44714 0
M  V30 12526 C 1181.48 4.60273 -3.71352 0
M  V30 12527 H 1180.41 0.672625 -0.340722 0
M  V30 12528 H 1183.07 1.2071 -1.38208 0
M  V30 12529 H 1181.45 3.81454 -1.06342 0
M  V30 12530 H 1182.62 2.73306 -3.70999 0
M  V30 12531 H 1180.94 2.5953 -3.25627 0
M  V30 12532 H 1183.53 5.00823 -1.87299 0
M  V30 12533 H 1183.88 4.14428 -0.394386 0
M  V30 12534 H 1184.41 3.46617 -1.95195 0
M  V30 12535 H 1181.15 4.50122 -4.76519 0
M  V30 12536 H 1180.67 5.09809 -3.15998 0
M  V30 12537 H 1182.35 5.29243 -3.7217 0
M  V30 12538 N 1182.48 0.948665 1.2585 0
M  V30 12539 C 1183.72 0.60782 1.95154 0
M  V30 12540 C 1184.08 -0.838703 1.72713 0
M  V30 12541 O 1185.29 -1.28885 2.35886 0
M  V30 12542 C 1183.56 0.949628 3.44553 0
M  V30 12543 S 1185.12 0.720456 4.32845 0
M  V30 12544 H 1181.93 0.223613 0.674921 0
M  V30 12545 H 1184.54 1.22157 1.52636 0
M  V30 12546 H 1183.24 1.99966 3.58388 0
M  V30 12547 H 1182.77 0.325891 3.92048 0
M  V30 12548 H 1184.79 -0.411697 4.94489 0
M  V30 12549 N 1183.96 -1.40369 0.716545 0
M  V30 12550 C 1184.91 -2.27963 0.0410169 0
M  V30 12551 C 1185.89 -1.43307 -0.731575 0
M  V30 12552 O 1187.08 -1.66389 -0.603618 0
M  V30 12553 C 1184.21 -3.31849 -0.87927 0
M  V30 12554 C 1183.3 -4.23978 -0.101813 0
M  V30 12555 N 1183.69 -4.97447 0.915437 0
M  V30 12556 C 1181.99 -4.44746 -0.334227 0
M  V30 12557 C 1182.69 -5.65029 1.38266 0
M  V30 12558 N 1181.67 -5.39014 0.704642 0
M  V30 12559 H 1185.47 -2.8221 0.820653 0
M  V30 12560 H 1182.98 -1.52831 0.549217 0
M  V30 12561 H 1184.98 -3.93448 -1.37855 0
M  V30 12562 H 1183.64 -2.79162 -1.65827 0
M  V30 12563 H 1184.65 -5.01414 1.29631 0
M  V30 12564 H 1181.33 -4.03034 -1.08948 0
M  V30 12565 H 1182.72 -6.33886 2.22797 0
M  V30 12566 N 1185.44 -0.462799 -1.50652 0
M  V30 12567 C 1186.38 0.349784 -2.29955 0
M  V30 12568 C 1187.38 0.997947 -1.36885 0
M  V30 12569 O 1188.58 0.93 -1.54114 0
M  V30 12570 H 1184.96 0.131635 -0.740389 0
M  V30 12571 H 1186.93 -0.33958 -2.96461 0
M  V30 12572 C 1185.68 1.42398 -3.17204 0
M  V30 12573 H 1185 0.934611 -3.88722 0
M  V30 12574 H 1186.44 1.96528 -3.75703 0
M  V30 12575 C 1184.9 2.42135 -2.34248 0
M  V30 12576 O 1185.43 3.47229 -2.01978 0
M  V30 12577 N 1183.64 2.13647 -1.96985 0
M  V30 12578 H 1183.18 1.28209 -2.23428 0
M  V30 12579 H 1183.14 2.80615 -1.41783 0
M  V30 12580 N 1186.91 1.56388 -0.195085 0
M  V30 12581 C 1187.82 2.22698 0.737743 0
M  V30 12582 C 1188.84 1.22605 1.23466 0
M  V30 12583 O 1190.02 1.55342 1.28183 0
M  V30 12584 C 1187.08 2.87333 1.94011 0
M  V30 12585 C 1186.14 4.02696 1.48776 0
M  V30 12586 C 1185.38 4.64239 2.63282 0
M  V30 12587 O 1185.6 4.24706 3.80763 0
M  V30 12588 O 1184.53 5.53705 2.35996 0
M  V30 12589 H 1188.36 3.03021 0.203013 0
M  V30 12590 H 1185.94 1.49361 0.0342044 0
M  V30 12591 H 1187.83 3.28226 2.64284 0
M  V30 12592 H 1186.5 2.0999 2.46345 0
M  V30 12593 H 1185.41 3.66426 0.753839 0
M  V30 12594 H 1186.74 4.81703 1.01109 0
M  V30 12595 N 1188.39 -0.0785156 1.57404 0
M  V30 12596 C 1189.34 -1.09402 2.03224 0
M  V30 12597 C 1190.31 -1.38849 0.911596 0
M  V30 12598 O 1191.49 -1.50031 1.17878 0
M  V30 12599 C 1188.63 -2.40444 2.47549 0
M  V30 12600 C 1187.75 -2.17585 3.73203 0
M  V30 12601 C 1186.88 -3.42143 4.06339 0
M  V30 12602 C 1185.92 -3.14619 5.25054 0
M  V30 12603 N 1185.06 -4.31489 5.5386 0
M  V30 12604 H 1189.9 -0.696307 2.89751 0
M  V30 12605 H 1187.44 -0.332261 1.43298 0
M  V30 12606 H 1189.39 -3.16944 2.71298 0
M  V30 12607 H 1188.02 -2.78031 1.64009 0
M  V30 12608 H 1187.08 -1.3181 3.56834 0
M  V30 12609 H 1188.39 -1.93249 4.59844 0
M  V30 12610 H 1187.54 -4.27042 4.30953 0
M  V30 12611 H 1186.28 -3.69549 3.18253 0
M  V30 12612 H 1185.29 -2.28116 5.00243 0
M  V30 12613 H 1186.51 -2.88543 6.14752 0
M  V30 12614 H 1184.46 -4.58939 4.68734 0
M  V30 12615 H 1184.37 -4.10403 6.34906 0
M  V30 12616 H 1185.64 -5.17404 5.83021 0
M  V30 12617 N 1189.87 -1.5367 -0.349747 0
M  V30 12618 C 1190.82 -1.81914 -1.44948 0
M  V30 12619 C 1191.81 -0.689218 -1.54745 0
M  V30 12620 O 1193.02 -0.872448 -1.57443 0
M  V30 12621 H 1189.39 -0.576234 -0.483176 0
M  V30 12622 H 1191.36 -2.73932 -1.18338 0
M  V30 12623 C 1190.11 -2.04005 -2.81562 0
M  V30 12624 H 1189.44 -2.90399 -2.74788 0
M  V30 12625 H 1190.88 -2.27737 -3.57648 0
M  V30 12626 C 1189.34 -0.823748 -3.26674 0
M  V30 12627 O 1189.87 -0.0201351 -4.01695 0
M  V30 12628 N 1188.07 -0.642716 -2.83403 0
M  V30 12629 H 1187.62 -1.29783 -2.22517 0
M  V30 12630 H 1187.58 0.169654 -3.13942 0
M  V30 12631 N 1191.35 0.610423 -1.45298 0
M  V30 12632 C 1192.26 1.74964 -1.56285 0
M  V30 12633 C 1193.27 1.68149 -0.447436 0
M  V30 12634 O 1194.45 1.88556 -0.707725 0
M  V30 12635 C 1191.52 3.11417 -1.52383 0
M  V30 12636 C 1190.58 3.29707 -2.7494 0
M  V30 12637 C 1189.81 4.5965 -2.71215 0
M  V30 12638 O 1190.03 5.41789 -1.78383 0
M  V30 12639 O 1188.97 4.80591 -3.62375 0
M  V30 12640 H 1192.79 1.68646 -2.52571 0
M  V30 12641 H 1190.38 0.774168 -1.27777 0
M  V30 12642 H 1192.26 3.9272 -1.52805 0
M  V30 12643 H 1190.93 3.18232 -0.592472 0
M  V30 12644 H 1189.84 2.48003 -2.80081 0
M  V30 12645 H 1191.17 3.27766 -3.67192 0
M  V30 12646 N 1192.83 1.32541 0.852676 0
M  V30 12647 C 1194.07 1.23397 1.60938 0
M  V30 12648 C 1194.41 -0.203294 1.93133 0
M  V30 12649 O 1193.68 -1.14097 1.57519 0
M  V30 12650 C 1193.96 2.0956 2.92842 0
M  V30 12651 C 1193.82 3.61675 2.67416 0
M  V30 12652 C 1195.14 1.95825 3.94133 0
M  V30 12653 H 1192.25 0.449608 0.583971 0
M  V30 12654 H 1194.9 1.62507 0.98446 0
M  V30 12655 H 1193.05 1.76336 3.46176 0
M  V30 12656 H 1194.72 4.05122 2.20621 0
M  V30 12657 H 1192.96 3.84242 2.01347 0
M  V30 12658 H 1193.63 4.17292 3.61347 0
M  V30 12659 H 1196.11 2.24935 3.50062 0
M  V30 12660 H 1194.98 2.58387 4.8428 0
M  V30 12661 H 1195.25 0.926466 4.32284 0
M  V30 12662 N 1194.3 -1.0692 1.15784 0
M  V30 12663 C 1195.24 -2.13637 0.802141 0
M  V30 12664 C 1196.22 -1.61058 -0.223384 0
M  V30 12665 O 1197.4 -1.88185 -0.108927 0
M  V30 12666 C 1194.53 -3.38146 0.193568 0
M  V30 12667 C 1193.57 -4.09513 1.19169 0
M  V30 12668 S 1194.41 -4.60351 2.73564 0
M  V30 12669 C 1195.56 -5.88129 2.14138 0
M  V30 12670 H 1195.79 -2.4348 1.70601 0
M  V30 12671 H 1193.33 -1.19259 0.980646 0
M  V30 12672 H 1195.29 -4.10222 -0.151106 0
M  V30 12673 H 1193.95 -3.06473 -0.687968 0
M  V30 12674 H 1193.14 -4.98914 0.714183 0
M  V30 12675 H 1192.74 -3.43422 1.48113 0
M  V30 12676 H 1195.03 -6.60547 1.50614 0
M  V30 12677 H 1195.98 -6.406 3.01724 0
M  V30 12678 H 1196.38 -5.41859 1.5827 0
M  V30 12679 N 1195.78 -0.955326 -1.25345 0
M  V30 12680 C 1197.01 -0.627233 -1.97688 0
M  V30 12681 C 1197.43 0.793973 -1.70522 0
M  V30 12682 O 1196.79 1.537 -0.961556 0
M  V30 12683 C 1196.84 -0.892969 -3.49369 0
M  V30 12684 O 1195.94 0.0278871 -4.12391 0
M  V30 12685 H 1195.28 -0.238402 -0.619726 0
M  V30 12686 H 1197.81 -1.28211 -1.59446 0
M  V30 12687 H 1197.82 -0.819517 -3.99685 0
M  V30 12688 H 1196.5 -1.92879 -3.6847 0
M  V30 12689 H 1195.08 -0.0978295 -3.72772 0
M  V30 12690 N 1197.26 1.39987 -0.723979 0
M  V30 12691 C 1198.49 2.0556 -0.275634 0
M  V30 12692 C 1198.91 1.54207 1.07711 0
M  V30 12693 O 1198.27 0.681041 1.68022 0
M  V30 12694 C 1198.32 3.59551 -0.27485 0
M  V30 12695 O 1197.42 4.05685 0.741182 0
M  V30 12696 H 1196.76 0.651634 -0.12755 0
M  V30 12697 H 1199.29 1.79229 -0.986814 0
M  V30 12698 H 1199.3 4.07837 -0.115425 0
M  V30 12699 H 1197.98 3.96291 -1.26198 0
M  V30 12700 H 1196.55 3.6884 0.548795 0
M  V30 12701 N 1198.74 0.470782 1.50404 0
M  V30 12702 C 1199.67 -0.359838 2.26358 0
M  V30 12703 C 1200.68 -0.95735 1.31676 0
M  V30 12704 O 1201.87 -0.84581 1.57189 0
M  V30 12705 C 1198.97 -1.51864 3.02969 0
M  V30 12706 C 1198.15 -1.03397 4.25003 0
M  V30 12707 C 1197.21 -2.06679 4.83911 0
M  V30 12708 O 1196.23 -1.64754 5.44835 0
M  V30 12709 N 1197.43 -3.39484 4.70883 0
M  V30 12710 H 1200.2 0.291299 2.98281 0
M  V30 12711 H 1197.76 0.301549 1.59067 0
M  V30 12712 H 1199.75 -2.2065 3.39258 0
M  V30 12713 H 1198.32 -2.07448 2.33846 0
M  V30 12714 H 1197.54 -0.172012 3.93825 0
M  V30 12715 H 1198.83 -0.68807 5.04126 0
M  V30 12716 H 1198.23 -3.76256 4.22431 0
M  V30 12717 H 1196.78 -4.04068 5.11441 0
M  V30 12718 N 1200.22 -1.56282 0.203376 0
M  V30 12719 C 1201.15 -2.2247 -0.709183 0
M  V30 12720 C 1202.13 -1.19046 -1.21499 0
M  V30 12721 O 1203.31 -1.47578 -1.26231 0
M  V30 12722 C 1200.44 -2.8905 -1.92529 0
M  V30 12723 C 1199.4 -3.98789 -1.55407 0
M  V30 12724 C 1198.72 -4.52574 -2.84747 0
M  V30 12725 C 1200.02 -5.16774 -0.75775 0
M  V30 12726 H 1201.72 -2.98986 -0.157392 0
M  V30 12727 H 1199.26 -1.43808 -0.0742613 0
M  V30 12728 H 1201.22 -3.34038 -2.56898 0
M  V30 12729 H 1199.94 -2.09952 -2.50175 0
M  V30 12730 H 1198.6 -3.54504 -0.933928 0
M  V30 12731 H 1198.25 -3.70229 -3.40499 0
M  V30 12732 H 1197.95 -5.26627 -2.6065 0
M  V30 12733 H 1199.47 -5.00269 -3.5009 0
M  V30 12734 H 1200.89 -5.58256 -1.30472 0
M  V30 12735 H 1199.28 -5.96945 -0.614583 0
M  V30 12736 H 1200.35 -4.84308 0.239476 0
M  V30 12737 N 1201.7 0.070167 -1.57444 0
M  V30 12738 C 1202.97 0.802108 -1.78397 0
M  V30 12739 C 1203.35 1.95706 -0.791356 0
M  V30 12740 O 1202.7 2.27827 0.17518 0
M  V30 12741 C 1202.91 1.27354 -3.24934 0
M  V30 12742 C 1204.26 1.70626 -3.88808 0
M  V30 12743 O 1205.28 1.36916 -3.28835 0
M  V30 12744 O 1204.14 2.33041 -4.94322 0
M  V30 12745 H 1201.24 0.384483 -0.73219 0
M  V30 12746 H 1203.78 0.0501168 -1.69626 0
M  V30 12747 H 1202.55 0.447204 -3.88736 0
M  V30 12748 H 1202.18 2.0868 -3.38435 0
M  V30 12749 N 1203.17 1.53854 0.341593 0
M  V30 12750 C 1204.42 1.7041 1.07905 0
M  V30 12751 C 1204.74 0.475039 1.89744 0
M  V30 12752 O 1205.94 0.521589 2.66443 0
M  V30 12753 C 1204.4 3.01342 1.96776 0
M  V30 12754 C 1204.01 4.31592 1.20135 0
M  V30 12755 C 1205.75 3.27264 2.70367 0
M  V30 12756 C 1203.66 5.53598 2.08047 0
M  V30 12757 H 1202.59 0.635005 0.406553 0
M  V30 12758 H 1205.24 1.80353 0.338409 0
M  V30 12759 H 1203.62 2.85261 2.74667 0
M  V30 12760 H 1204.79 4.58382 0.471404 0
M  V30 12761 H 1203.11 4.12298 0.583039 0
M  V30 12762 H 1205.71 4.15607 3.36415 0
M  V30 12763 H 1206.05 2.44357 3.37039 0
M  V30 12764 H 1206.58 3.4413 1.99548 0
M  V30 12765 H 1203.32 6.39053 1.45914 0
M  V30 12766 H 1202.84 5.31052 2.78825 0
M  V30 12767 H 1204.52 5.89314 2.67055 0
M  V30 12768 N 1204.65 -0.602709 1.4562 0
M  V30 12769 C 1205.93 -1.36224 1.40366 0
M  V30 12770 C 1206.31 -2.1096 0.0767645 0
M  V30 12771 O 1205.66 -2.08207 -0.941378 0
M  V30 12772 C 1205.87 -2.30499 2.62052 0
M  V30 12773 C 1207.21 -2.92954 3.07348 0
M  V30 12774 O 1208.24 -2.40818 2.62459 0
M  V30 12775 O 1207.1 -3.87601 3.85263 0
M  V30 12776 H 1204.19 -0.611064 0.557253 0
M  V30 12777 H 1206.74 -0.625391 1.57756 0
M  V30 12778 H 1205.51 -1.74566 3.50203 0
M  V30 12779 H 1205.13 -3.11556 2.4702 0
M  V30 12780 N 1206.13 -1.32992 -0.845635 0
M  V30 12781 C 1207.08 -1.22652 -1.97634 0
M  V30 12782 C 1208.07 -0.129344 -1.68905 0
M  V30 12783 O 1209.28 -0.292863 -1.77602 0
M  V30 12784 H 1205.65 -0.380439 -0.648668 0
M  V30 12785 H 1207.62 -2.18261 -2.03481 0
M  V30 12786 C 1206.37 -0.975677 -3.3373 0
M  V30 12787 H 1205.7 -1.81217 -3.56371 0
M  V30 12788 H 1207.14 -0.943608 -4.13367 0
M  V30 12789 C 1205.59 0.321491 -3.35363 0
M  V30 12790 O 1206.12 1.33042 -3.79029 0
M  V30 12791 N 1204.33 0.346648 -2.88525 0
M  V30 12792 H 1203.88 -0.474931 -2.53184 0
M  V30 12793 H 1203.84 1.2144 -2.9 0
M  V30 12794 N 1207.61 1.06304 -1.1635 0
M  V30 12795 C 1208.54 2.13209 -0.81346 0
M  V30 12796 C 1209.52 1.61174 0.21484 0
M  V30 12797 O 1210.7 1.8824 0.0989458 0
M  V30 12798 C 1207.83 3.38039 -0.211498 0
M  V30 12799 C 1206.88 4.08875 -1.21339 0
M  V30 12800 S 1207.71 4.58894 -2.76001 0
M  V30 12801 C 1208.86 5.86985 -2.17254 0
M  V30 12802 H 1209.1 2.42572 -1.7189 0
M  V30 12803 H 1206.63 1.18737 -0.986957 0
M  V30 12804 H 1208.59 4.10296 0.129349 0
M  V30 12805 H 1207.25 3.06834 0.671705 0
M  V30 12806 H 1206.44 4.98528 -0.740631 0
M  V30 12807 H 1206.04 3.42632 -1.49932 0
M  V30 12808 H 1208.34 6.59738 -1.54115 0
M  V30 12809 H 1209.28 6.38991 -3.05117 0
M  V30 12810 H 1209.69 5.41012 -1.61141 0
M  V30 12811 N 1209.09 0.96196 1.24836 0
M  V30 12812 C 1210.05 0.492443 2.23847 0
M  V30 12813 C 1211.05 -0.40788 1.55541 0
M  V30 12814 O 1212.24 -0.204143 1.73 0
M  V30 12815 C 1209.37 -0.287578 3.39685 0
M  V30 12816 H 1210.56 1.36767 2.66899 0
M  V30 12817 H 1208.12 0.745967 1.3735 0
M  V30 12818 H 1208.85 -1.18015 3.02064 0
M  V30 12819 H 1208.64 0.358431 3.90458 0
M  V30 12820 H 1210.13 -0.605297 4.1319 0
M  V30 12821 N 1210.56 -1.39601 0.731392 0
M  V30 12822 C 1211.81 -2.0019 0.277208 0
M  V30 12823 C 1212.13 -1.5832 -1.13841 0
M  V30 12824 O 1211.4 -0.829793 -1.77458 0
M  V30 12825 H 1209.98 -0.740344 0.0995006 0
M  V30 12826 H 1212.64 -1.70704 0.940547 0
M  V30 12827 H 1211.74 -3.10427 0.322749 0
M  V30 12828 N 1212.04 -0.478751 -1.50152 0
M  V30 12829 C 1213.29 0.073694 -2.02666 0
M  V30 12830 C 1213.62 1.38679 -1.35947 0
M  V30 12831 O 1212.9 1.88286 -0.4877 0
M  V30 12832 C 1213.18 0.249516 -3.59235 0
M  V30 12833 C 1213.03 -1.08514 -4.36514 0
M  V30 12834 C 1214.35 1.00053 -4.28576 0
M  V30 12835 H 1211.47 0.0253082 -0.736565 0
M  V30 12836 H 1214.11 -0.625834 -1.79397 0
M  V30 12837 H 1212.26 0.845343 -3.79192 0
M  V30 12838 H 1213.93 -1.71814 -4.28109 0
M  V30 12839 H 1212.18 -1.67992 -3.99952 0
M  V30 12840 H 1212.85 -0.915676 -5.44352 0
M  V30 12841 H 1215.32 0.495422 -4.1314 0
M  V30 12842 H 1214.2 1.09236 -5.37921 0
M  V30 12843 H 1214.46 2.03896 -3.92274 0
M  V30 12844 N 1213.52 1.56172 -0.211661 0
M  V30 12845 C 1214.77 1.98039 0.422706 0
M  V30 12846 C 1215.1 1.09904 1.60472 0
M  V30 12847 O 1214.35 0.141771 1.95186 0
M  V30 12848 C 1214.65 3.45636 0.909442 0
M  V30 12849 C 1214.32 4.50613 -0.160982 0
M  V30 12850 C 1212.98 4.79043 -0.455064 0
M  V30 12851 C 1215.33 5.13624 -0.885426 0
M  V30 12852 C 1212.66 5.67771 -1.47828 0
M  V30 12853 C 1215.01 6.03459 -1.8979 0
M  V30 12854 C 1213.67 6.30238 -2.19901 0
M  V30 12855 H 1212.94 0.724676 0.154679 0
M  V30 12856 H 1215.59 1.8894 -0.312106 0
M  V30 12857 H 1213.9 3.51889 1.72283 0
M  V30 12858 H 1215.59 3.75395 1.40995 0
M  V30 12859 H 1212.18 4.28528 0.0783864 0
M  V30 12860 H 1216.37 4.91737 -0.671463 0
M  V30 12861 H 1211.62 5.86787 -1.7173 0
M  V30 12862 H 1215.8 6.51338 -2.46438 0
M  V30 12863 H 1213.42 6.98788 -2.9933 0
M  V30 12864 N 1215 -0.0618163 1.57479 0
M  V30 12865 C 1216.23 -0.770605 1.9169 0
M  V30 12866 C 1216.64 -1.71134 0.806841 0
M  V30 12867 O 1215.98 -1.8228 -0.228002 0
M  V30 12868 C 1216.04 -1.60962 3.21452 0
M  V30 12869 C 1215.71 -0.837193 4.49266 0
M  V30 12870 C 1216.7 -0.151964 5.19678 0
M  V30 12871 C 1214.39 -0.801414 4.95866 0
M  V30 12872 C 1216.38 0.558705 6.34947 0
M  V30 12873 C 1214.07 -0.0869788 6.11038 0
M  V30 12874 C 1215.07 0.591871 6.80431 0
M  V30 12875 O 1214.75 1.29478 7.93405 0
M  V30 12876 H 1214.49 -0.223673 0.637923 0
M  V30 12877 H 1217.04 -0.0333424 2.05373 0
M  V30 12878 H 1215.27 -2.38992 3.04006 0
M  V30 12879 H 1216.96 -2.19799 3.41238 0
M  V30 12880 H 1217.73 -0.170848 4.84699 0
M  V30 12881 H 1213.6 -1.31927 4.4172 0
M  V30 12882 H 1217.15 1.08913 6.89046 0
M  V30 12883 H 1213.05 -0.066057 6.45466 0
M  V30 12884 H 1213.81 1.20507 8.0958 0
M  V30 12885 N 1216.48 -1.54033 -0.333429 0
M  V30 12886 C 1217.41 -1.7756 -1.43345 0
M  V30 12887 C 1218.39 -0.625126 -1.50103 0
M  V30 12888 O 1219.57 -0.861444 -1.67665 0
M  V30 12889 C 1216.7 -1.88332 -2.81511 0
M  V30 12890 C 1215.74 -3.10556 -2.92331 0
M  V30 12891 S 1216.58 -4.69385 -2.57755 0
M  V30 12892 C 1217.73 -4.8305 -3.98011 0
M  V30 12893 H 1217.97 -2.70584 -1.23172 0
M  V30 12894 H 1215.5 -1.4503 -0.529691 0
M  V30 12895 H 1217.46 -1.95224 -3.61106 0
M  V30 12896 H 1216.12 -0.963031 -2.98972 0
M  V30 12897 H 1215.31 -3.14798 -3.93596 0
M  V30 12898 H 1214.91 -3.01943 -2.20696 0
M  V30 12899 H 1217.21 -4.65081 -4.92652 0
M  V30 12900 H 1218.15 -5.85148 -3.98757 0
M  V30 12901 H 1218.56 -4.11427 -3.86507 0
M  V30 12902 N 1217.95 0.594978 -1.45938 0
M  V30 12903 C 1218.88 1.71536 -1.58422 0
M  V30 12904 C 1219.87 1.64441 -0.435116 0
M  V30 12905 O 1221.05 1.82647 -0.659839 0
M  V30 12906 C 1218.18 3.10163 -1.56257 0
M  V30 12907 C 1217.13 3.3208 -2.70013 0
M  V30 12908 C 1216.46 4.71108 -2.52905 0
M  V30 12909 C 1217.76 3.21105 -4.11933 0
M  V30 12910 H 1219.45 1.61344 -2.52207 0
M  V30 12911 H 1217 0.774791 -1.2138 0
M  V30 12912 H 1218.95 3.88352 -1.63587 0
M  V30 12913 H 1217.68 3.21225 -0.590093 0
M  V30 12914 H 1216.34 2.56286 -2.62132 0
M  V30 12915 H 1215.98 4.7892 -1.53768 0
M  V30 12916 H 1215.68 4.86727 -3.29197 0
M  V30 12917 H 1217.21 5.51482 -2.62107 0
M  V30 12918 H 1218.62 3.89153 -4.2099 0
M  V30 12919 H 1217.02 3.4825 -4.88715 0
M  V30 12920 H 1218.09 2.18359 -4.32952 0
M  V30 12921 N 1219.43 1.33438 0.838571 0
M  V30 12922 C 1220.68 1.24665 1.59069 0
M  V30 12923 C 1221 -0.187433 1.94097 0
M  V30 12924 O 1220.27 -1.11625 1.60987 0
M  V30 12925 H 1218.85 0.45843 0.589789 0
M  V30 12926 H 1221.51 1.67161 1.00216 0
M  V30 12927 H 1220.61 1.84057 2.52051 0
M  V30 12928 N 1220.91 -1.05686 1.16912 0
M  V30 12929 C 1221.87 -2.11481 0.883647 0
M  V30 12930 C 1222.87 -1.60321 -0.124034 0
M  V30 12931 O 1224.06 -1.73868 0.107566 0
M  V30 12932 C 1221.2 -3.3937 0.322649 0
M  V30 12933 H 1222.39 -2.38239 1.8216 0
M  V30 12934 H 1219.94 -1.2185 0.978895 0
M  V30 12935 H 1220.68 -3.18266 -0.622695 0
M  V30 12936 H 1220.46 -3.77812 1.04883 0
M  V30 12937 H 1221.95 -4.17362 0.141072 0
M  V30 12938 N 1222.39 -0.968567 -1.24324 0
M  V30 12939 C 1223.35 -0.504307 -2.23583 0
M  V30 12940 C 1224.35 0.399626 -1.55755 0
M  V30 12941 O 1225.54 0.194966 -1.73106 0
M  V30 12942 C 1222.67 0.26956 -3.39833 0
M  V30 12943 H 1223.87 -1.3818 -2.6617 0
M  V30 12944 H 1221.42 -0.753241 -1.36952 0
M  V30 12945 H 1222.15 1.16411 -3.02686 0
M  V30 12946 H 1221.94 -0.379133 -3.90263 0
M  V30 12947 H 1223.43 0.583376 -4.13505 0
M  V30 12948 N 1223.87 1.39211 -0.738786 0
M  V30 12949 C 1224.8 2.28145 -0.0499733 0
M  V30 12950 C 1225.78 1.44592 0.743776 0
M  V30 12951 O 1226.96 1.73978 0.725536 0
M  V30 12952 C 1224.09 3.255 0.93634 0
M  V30 12953 C 1223.13 4.25876 0.230621 0
M  V30 12954 S 1223.97 5.24942 -1.0581 0
M  V30 12955 C 1225.12 6.25856 -0.0744844 0
M  V30 12956 H 1225.36 2.86218 -0.804163 0
M  V30 12957 H 1222.89 1.44991 -0.53074 0
M  V30 12958 H 1224.85 3.82109 1.50011 0
M  V30 12959 H 1223.51 2.66439 1.66339 0
M  V30 12960 H 1222.7 4.94438 0.977075 0
M  V30 12961 H 1222.3 3.73087 -0.261216 0
M  V30 12962 H 1224.6 6.73172 0.764616 0
M  V30 12963 H 1225.54 7.04354 -0.727354 0
M  V30 12964 H 1225.95 5.63704 0.299605 0
M  V30 12965 N 1225.34 0.486708 1.49896 0
M  V30 12966 C 1226.31 -0.288126 2.27382 0
M  V30 12967 C 1227.31 -0.906675 1.32801 0
M  V30 12968 O 1228.5 -0.773425 1.56089 0
M  V30 12969 C 1225.63 -1.41194 3.10285 0
M  V30 12970 H 1226.82 0.391618 2.97332 0
M  V30 12971 H 1224.38 0.24123 1.54427 0
M  V30 12972 H 1225.11 -2.12627 2.44868 0
M  V30 12973 H 1224.9 -0.974033 3.79809 0
M  V30 12974 H 1226.39 -1.95812 3.68846 0
M  V30 12975 N 1226.82 -1.56058 0.219941 0
M  V30 12976 C 1227.75 -2.2321 -0.685547 0
M  V30 12977 C 1228.73 -1.20328 -1.20229 0
M  V30 12978 O 1229.92 -1.48909 -1.24659 0
M  V30 12979 C 1227.05 -2.91076 -1.89452 0
M  V30 12980 C 1226 -4.00415 -1.51169 0
M  V30 12981 C 1225.33 -4.55569 -2.79931 0
M  V30 12982 C 1226.63 -5.17549 -0.702896 0
M  V30 12983 H 1228.32 -2.99136 -0.125671 0
M  V30 12984 H 1225.87 -1.43879 -0.0590043 0
M  V30 12985 H 1227.82 -3.36744 -2.53341 0
M  V30 12986 H 1226.55 -2.12594 -2.47934 0
M  V30 12987 H 1225.21 -3.55475 -0.896275 0
M  V30 12988 H 1224.85 -3.73819 -3.36553 0
M  V30 12989 H 1224.55 -5.29361 -2.55049 0
M  V30 12990 H 1226.08 -5.03955 -3.44764 0
M  V30 12991 H 1227.49 -5.59608 -1.24544 0
M  V30 12992 H 1225.89 -5.97563 -0.551234 0
M  V30 12993 H 1226.96 -4.84027 0.29083 0
M  V30 12994 N 1228.3 0.053464 -1.57509 0
M  V30 12995 C 1229.53 0.765301 -1.92764 0
M  V30 12996 C 1229.95 1.69385 -0.817943 0
M  V30 12997 O 1229.31 1.7986 0.228075 0
M  V30 12998 C 1229.36 1.51938 -3.27028 0
M  V30 12999 O 1228.46 2.63121 -3.17555 0
M  V30 13000 H 1227.8 0.207567 -0.630723 0
M  V30 13001 H 1230.33 0.0162254 -2.04594 0
M  V30 13002 H 1230.34 1.89466 -3.6134 0
M  V30 13003 H 1229.02 0.838207 -4.07366 0
M  V30 13004 H 1227.59 2.28316 -2.94832 0
M  V30 13005 N 1229.78 1.54207 0.325255 0
M  V30 13006 C 1230.71 1.86467 1.40543 0
M  V30 13007 C 1231.69 0.721324 1.54048 0
M  V30 13008 O 1232.88 0.974905 1.67956 0
M  V30 13009 C 1230.01 2.09052 2.77335 0
M  V30 13010 C 1228.96 3.24893 2.78619 0
M  V30 13011 C 1228.29 3.32846 4.1847 0
M  V30 13012 C 1229.59 4.62582 2.42518 0
M  V30 13013 H 1231.28 2.76932 1.13794 0
M  V30 13014 H 1228.83 1.33248 0.545971 0
M  V30 13015 H 1230.78 2.30204 3.52964 0
M  V30 13016 H 1229.5 1.15335 3.05558 0
M  V30 13017 H 1228.16 3.03625 2.05444 0
M  V30 13018 H 1227.81 2.3669 4.43832 0
M  V30 13019 H 1227.51 4.10701 4.20237 0
M  V30 13020 H 1229.03 3.56231 4.95915 0
M  V30 13021 H 1230.45 4.83627 3.07861 0
M  V30 13022 H 1228.84 5.42974 2.55538 0
M  V30 13023 H 1229.91 4.64946 1.3767 0
M  V30 13024 N 1231.26 -0.58723 1.46251 0
M  V30 13025 C 1232.51 -1.34179 1.50595 0
M  V30 13026 C 1232.82 -1.94943 0.160171 0
M  V30 13027 O 1234.03 -2.71378 0.0813797 0
M  V30 13028 C 1232.48 -2.43159 2.65333 0
M  V30 13029 C 1232.09 -1.88718 4.06312 0
M  V30 13030 C 1233.83 -3.19986 2.78943 0
M  V30 13031 C 1231.74 -2.953 5.12398 0
M  V30 13032 H 1230.67 -0.504401 0.560442 0
M  V30 13033 H 1233.32 -0.627179 1.72449 0
M  V30 13034 H 1231.7 -3.17398 2.368 0
M  V30 13035 H 1232.88 -1.21051 4.44616 0
M  V30 13036 H 1231.19 -1.24572 3.97329 0
M  V30 13037 H 1233.79 -3.9952 3.5537 0
M  V30 13038 H 1234.13 -3.72288 1.86298 0
M  V30 13039 H 1234.67 -2.52852 3.07101 0
M  V30 13040 H 1231.4 -2.4789 6.0682 0
M  V30 13041 H 1230.92 -3.61469 4.78644 0
M  V30 13042 H 1232.6 -3.5933 5.38044 0
M  V30 13043 N 1232.74 -1.33881 -0.831482 0
M  V30 13044 C 1233.96 -1.28812 -1.61911 0
M  V30 13045 C 1234.38 0.139519 -1.88284 0
M  V30 13046 O 1233.74 1.08397 -1.46821 0
M  V30 13047 C 1233.79 -2.06806 -2.96502 0
M  V30 13048 O 1233.51 -3.44 -2.71285 0
M  V30 13049 C 1235.01 -2.09033 -3.90922 0
M  V30 13050 H 1232.23 -0.443473 -0.50356 0
M  V30 13051 H 1234.77 -1.76365 -1.03516 0
M  V30 13052 H 1232.93 -1.62915 -3.51479 0
M  V30 13053 H 1233.34 -3.84213 -3.57044 0
M  V30 13054 H 1234.82 -2.68044 -4.82552 0
M  V30 13055 H 1235.29 -1.08249 -4.25651 0
M  V30 13056 H 1235.9 -2.52975 -3.41883 0
M  V30 13057 N 1234.21 1.05064 -1.1747 0
M  V30 13058 C 1235.46 1.78089 -0.963883 0
M  V30 13059 C 1235.79 1.87766 0.507365 0
M  V30 13060 O 1235.04 1.37477 1.39279 0
M  V30 13061 C 1235.34 3.21961 -1.55164 0
M  V30 13062 C 1235.01 3.32339 -3.04732 0
M  V30 13063 C 1233.67 3.34878 -3.45557 0
M  V30 13064 C 1236.02 3.3325 -4.00741 0
M  V30 13065 C 1233.35 3.35959 -4.80987 0
M  V30 13066 C 1235.7 3.3587 -5.36073 0
M  V30 13067 C 1234.37 3.36697 -5.7636 0
M  V30 13068 H 1233.64 0.651672 -0.35271 0
M  V30 13069 H 1236.28 1.23471 -1.4638 0
M  V30 13070 H 1234.59 3.79514 -0.973471 0
M  V30 13071 H 1236.29 3.77087 -1.36406 0
M  V30 13072 H 1232.88 3.31076 -2.72188 0
M  V30 13073 H 1237.06 3.30488 -3.70258 0
M  V30 13074 H 1232.32 3.34911 -5.11512 0
M  V30 13075 H 1236.49 3.35524 -6.10243 0
M  V30 13076 H 1234.12 3.37288 -6.81279 0
M  V30 13077 N 1235.69 0.975146 1.23809 0
M  V30 13078 C 1236.94 0.636678 1.91388 0
M  V30 13079 C 1237.25 -0.832876 1.76982 0
M  V30 13080 O 1238.46 -1.28218 2.39316 0
M  V30 13081 C 1236.92 1.08813 3.43057 0
M  V30 13082 C 1236.52 2.58165 3.66135 0
M  V30 13083 C 1238.27 0.823154 4.16443 0
M  V30 13084 C 1236.17 2.97004 5.11412 0
M  V30 13085 H 1235.1 0.234424 0.716632 0
M  V30 13086 H 1237.76 1.18235 1.40331 0
M  V30 13087 H 1236.14 0.470709 3.93192 0
M  V30 13088 H 1237.31 3.25101 3.26567 0
M  V30 13089 H 1235.63 2.82353 3.06049 0
M  V30 13090 H 1238.22 1.08925 5.23488 0
M  V30 13091 H 1238.57 -0.240705 4.15604 0
M  V30 13092 H 1239.1 1.4019 3.72279 0
M  V30 13093 H 1235.84 4.02492 5.17378 0
M  V30 13094 H 1235.36 2.34759 5.51949 0
M  V30 13095 H 1237.04 2.8732 5.79704 0
M  V30 13096 N 1237.17 -1.38817 0.746158 0
M  V30 13097 C 1238.41 -2.02129 0.303843 0
M  V30 13098 C 1238.77 -1.57943 -1.0917 0
M  V30 13099 O 1239.97 -2.13532 -1.63272 0
M  V30 13100 C 1238.25 -3.5499 0.414379 0
M  V30 13101 S 1239.8 -4.38767 0.0535495 0
M  V30 13102 H 1236.62 -0.701084 0.118329 0
M  V30 13103 H 1239.22 -1.69444 0.975137 0
M  V30 13104 H 1237.93 -3.84638 1.43114 0
M  V30 13105 H 1237.46 -3.92442 -0.274355 0
M  V30 13106 H 1239.47 -4.82469 -1.15921 0
M  V30 13107 N 1238.65 -0.49465 -1.49636 0
M  V30 13108 C 1239.56 0.291881 -2.32777 0
M  V30 13109 C 1240.57 0.973468 -1.44221 0
M  V30 13110 O 1241.75 0.956252 -1.77251 0
M  V30 13111 C 1238.81 1.34609 -3.19502 0
M  V30 13112 C 1237.88 0.678611 -4.23903 0
M  V30 13113 C 1237.11 1.68259 -5.06483 0
M  V30 13114 O 1237.33 2.91176 -4.90482 0
M  V30 13115 O 1236.27 1.24141 -5.88959 0
M  V30 13116 H 1240.09 -0.388459 -3.01205 0
M  V30 13117 H 1237.68 -0.256086 -1.47189 0
M  V30 13118 H 1239.56 1.95617 -3.73245 0
M  V30 13119 H 1238.23 2.00947 -2.53775 0
M  V30 13120 H 1237.14 0.0289541 -3.74089 0
M  V30 13121 H 1238.47 0.0577817 -4.92166 0
M  V30 13122 N 1240.13 1.55939 -0.228214 0
M  V30 13123 C 1241.08 2.17223 0.692674 0
M  V30 13124 C 1242.06 1.12252 1.15275 0
M  V30 13125 O 1243.25 1.3822 1.10563 0
M  V30 13126 C 1240.38 2.86084 1.89766 0
M  V30 13127 C 1239.47 3.98288 1.45695 0
M  V30 13128 N 1239.86 5.00515 0.729258 0
M  V30 13129 C 1238.16 4.105 1.74372 0
M  V30 13130 C 1238.86 5.79516 0.503606 0
M  V30 13131 N 1237.83 5.33119 1.06229 0
M  V30 13132 H 1241.63 2.9362 0.128345 0
M  V30 13133 H 1239.15 1.62373 -0.0297445 0
M  V30 13134 H 1241.15 3.28404 2.5682 0
M  V30 13135 H 1239.81 2.11185 2.46639 0
M  V30 13136 H 1240.82 5.16495 0.381261 0
M  V30 13137 H 1237.49 3.46759 2.32518 0
M  V30 13138 H 1238.88 6.71857 -0.0760344 0
M  V30 13139 N 1241.6 -0.0451101 1.57535 0
M  V30 13140 C 1242.53 -1.05046 2.08537 0
M  V30 13141 C 1243.52 -1.3872 0.984418 0
M  V30 13142 O 1244.7 -1.47884 1.25873 0
M  V30 13143 C 1241.83 -2.3562 2.55148 0
M  V30 13144 C 1240.78 -2.16231 3.69362 0
M  V30 13145 C 1240.11 -3.52423 4.02122 0
M  V30 13146 C 1241.41 -1.56159 4.98409 0
M  V30 13147 H 1243.1 -0.625965 2.92783 0
M  V30 13148 H 1240.65 -0.299657 1.40848 0
M  V30 13149 H 1242.6 -3.06266 2.89446 0
M  V30 13150 H 1241.33 -2.80099 1.67964 0
M  V30 13151 H 1239.99 -1.4802 3.35389 0
M  V30 13152 H 1239.63 -3.94522 3.12028 0
M  V30 13153 H 1239.33 -3.4028 4.79044 0
M  V30 13154 H 1240.86 -4.24458 4.38939 0
M  V30 13155 H 1242.27 -2.16703 5.30766 0
M  V30 13156 H 1240.67 -1.54638 5.79834 0
M  V30 13157 H 1241.74 -0.525698 4.82042 0
M  V30 13158 N 1243.08 -1.54377 -0.317073 0
M  V30 13159 C 1244.33 -1.72893 -1.05424 0
M  V30 13160 C 1244.66 -0.506082 -1.87801 0
M  V30 13161 O 1243.91 0.51213 -1.8888 0
M  V30 13162 C 1244.21 -2.96066 -2.00199 0
M  V30 13163 C 1243.88 -4.30551 -1.33927 0
M  V30 13164 C 1242.54 -4.67112 -1.15584 0
M  V30 13165 C 1244.89 -5.13986 -0.864158 0
M  V30 13166 C 1242.22 -5.84701 -0.483892 0
M  V30 13167 C 1244.57 -6.32264 -0.206006 0
M  V30 13168 C 1243.24 -6.67499 -0.0104849 0
M  V30 13169 H 1242.51 -0.63266 -0.385776 0
M  V30 13170 H 1245.15 -1.88623 -0.330722 0
M  V30 13171 H 1243.46 -2.7505 -2.79024 0
M  V30 13172 H 1245.15 -3.07586 -2.57278 0
M  V30 13173 H 1241.74 -4.0179 -1.49207 0
M  V30 13174 H 1245.93 -4.86252 -0.993635 0
M  V30 13175 H 1241.18 -6.10555 -0.32127 0
M  V30 13176 H 1245.36 -6.96192 0.170108 0
M  V30 13177 H 1242.99 -7.58472 0.512209 0
M  V30 13178 N 1244.56 0.579466 -1.4656 0
M  V30 13179 C 1245.79 1.36153 -1.55389 0
M  V30 13180 C 1246.2 1.88192 -0.195062 0
M  V30 13181 O 1245.54 1.64464 0.81836 0
M  V30 13182 C 1245.6 2.58269 -2.50075 0
M  V30 13183 C 1245.27 2.27675 -3.96249 0
M  V30 13184 C 1246.26 1.86313 -4.85369 0
M  V30 13185 C 1243.95 2.39719 -4.41407 0
M  V30 13186 C 1245.94 1.57395 -6.17661 0
M  V30 13187 C 1243.63 2.10414 -5.73733 0
M  V30 13188 C 1244.63 1.69317 -6.6168 0
M  V30 13189 O 1244.32 1.40373 -7.9155 0
M  V30 13190 H 1244.05 0.422174 -0.527963 0
M  V30 13191 H 1246.6 0.711089 -1.92698 0
M  V30 13192 H 1244.83 3.26129 -2.0779 0
M  V30 13193 H 1246.52 3.20339 -2.49275 0
M  V30 13194 H 1247.29 1.7652 -4.51736 0
M  V30 13195 H 1243.17 2.70669 -3.73175 0
M  V30 13196 H 1246.71 1.25244 -6.86265 0
M  V30 13197 H 1242.61 2.19833 -6.06913 0
M  V30 13198 H 1243.38 1.54191 -8.03845 0
M  V30 13199 N 1246.04 1.3432 0.824371 0
M  V30 13200 C 1247.28 1.27792 1.58243 0
M  V30 13201 C 1247.64 -0.151189 1.91805 0
M  V30 13202 O 1246.93 -1.09708 1.57082 0
M  V30 13203 C 1247.13 2.1008 2.89139 0
M  V30 13204 C 1246.96 3.60848 2.68363 0
M  V30 13205 C 1245.73 4.3013 2.65172 0
M  V30 13206 C 1247.92 4.54878 2.39979 0
M  V30 13207 N 1245.91 5.66756 2.35927 0
M  V30 13208 C 1247.28 5.79497 2.20415 0
M  V30 13209 C 1249.33 4.43809 2.25695 0
M  V30 13210 C 1248.03 6.94293 1.88015 0
M  V30 13211 C 1250.06 5.58435 1.9469 0
M  V30 13212 C 1249.42 6.82071 1.75948 0
M  V30 13213 H 1245.52 0.522853 0.581505 0
M  V30 13214 H 1248.11 1.69017 0.96651 0
M  V30 13215 H 1246.28 1.71154 3.48656 0
M  V30 13216 H 1248.01 1.95208 3.54508 0
M  V30 13217 H 1244.76 3.82554 2.79194 0
M  V30 13218 H 1245.19 6.38817 2.24148 0
M  V30 13219 H 1249.83 3.48842 2.38891 0
M  V30 13220 H 1247.55 7.89242 1.73557 0
M  V30 13221 H 1251.13 5.51814 1.84372 0
M  V30 13222 H 1250.01 7.69268 1.52304 0
M  V30 13223 N 1247.52 -1.0444 1.18026 0
M  V30 13224 C 1248.45 -2.12388 0.86162 0
M  V30 13225 C 1249.46 -1.62204 -0.139196 0
M  V30 13226 O 1250.65 -1.78282 0.0881334 0
M  V30 13227 C 1247.75 -3.37859 0.265407 0
M  V30 13228 C 1246.92 -4.17292 1.31096 0
M  V30 13229 C 1245.98 -5.21096 0.731121 0
M  V30 13230 O 1245.01 -5.5159 1.40488 0
M  V30 13231 N 1246.21 -5.78568 -0.473194 0
M  V30 13232 H 1248.98 -2.40317 1.79074 0
M  V30 13233 H 1246.54 -1.20601 1.08014 0
M  V30 13234 H 1248.53 -4.04472 -0.135976 0
M  V30 13235 H 1247.1 -3.07403 -0.567658 0
M  V30 13236 H 1246.32 -3.46057 1.8878 0
M  V30 13237 H 1247.61 -4.67158 2.01596 0
M  V30 13238 H 1247 -5.56088 -1.03839 0
M  V30 13239 H 1245.56 -6.46665 -0.816545 0
M  V30 13240 N 1248.99 -0.981699 -1.2329 0
M  V30 13241 C 1250.24 -0.651302 -1.9174 0
M  V30 13242 C 1250.57 0.815318 -1.76587 0
M  V30 13243 O 1249.82 1.60377 -1.1215 0
M  V30 13244 C 1250.12 -0.989244 -3.43437 0
M  V30 13245 C 1249.79 -2.44629 -3.78771 0
M  V30 13246 C 1248.45 -2.84449 -3.88127 0
M  V30 13247 C 1250.8 -3.39123 -3.95784 0
M  V30 13248 C 1248.13 -4.17775 -4.11923 0
M  V30 13249 C 1250.48 -4.72095 -4.21081 0
M  V30 13250 C 1249.15 -5.11672 -4.28659 0
M  V30 13251 H 1248.42 -0.238328 -0.701627 0
M  V30 13252 H 1251.06 -1.2358 -1.46288 0
M  V30 13253 H 1249.37 -0.322677 -3.90469 0
M  V30 13254 H 1251.07 -0.711796 -3.94632 0
M  V30 13255 H 1247.66 -2.12759 -3.72064 0
M  V30 13256 H 1251.84 -3.09536 -3.87945 0
M  V30 13257 H 1247.1 -4.48043 -4.16013 0
M  V30 13258 H 1251.27 -5.45271 -4.33189 0
M  V30 13259 H 1248.9 -6.15003 -4.46851 0
M  V30 13260 N 1250.47 1.3842 -0.753509 0
M  V30 13261 C 1251.89 1.53668 -0.431095 0
M  V30 13262 C 1252.09 1.71626 1.05578 0
M  V30 13263 O 1251.14 1.72723 1.84182 0
M  V30 13264 C 1252.46 2.74381 -1.23027 0
M  V30 13265 C 1254.01 2.8823 -1.22034 0
M  V30 13266 C 1254.48 4.11904 -2.00248 0
M  V30 13267 N 1255.97 4.18981 -1.97508 0
M  V30 13268 C 1256.71 5.13667 -2.5482 0
M  V30 13269 N 1256.2 6.14027 -3.20846 0
M  V30 13270 N 1258 5.06017 -2.44751 0
M  V30 13271 H 1250.15 1.25012 -1.71714 0
M  V30 13272 H 1252.41 0.607296 -0.727939 0
M  V30 13273 H 1252.12 2.67515 -2.28317 0
M  V30 13274 H 1251.99 3.67565 -0.847098 0
M  V30 13275 H 1254.38 2.94578 -0.175502 0
M  V30 13276 H 1254.46 1.96057 -1.64303 0
M  V30 13277 H 1254.1 4.06318 -3.04742 0
M  V30 13278 H 1254.03 5.03157 -1.55373 0
M  V30 13279 H 1256.52 3.47104 -1.49423 0
M  V30 13280 H 1256.84 6.82771 -3.61999 0
M  V30 13281 H 1255.18 6.1436 -3.24941 0
M  V30 13282 H 1258.37 4.26552 -1.92797 0
M  V30 13283 H 1258.54 5.7963 -2.89713 0
M  V30 13284 N 1251.95 0.502579 1.49372 0
M  V30 13285 C 1252.9 -0.294292 2.26093 0
M  V30 13286 C 1253.88 -0.934147 1.31006 0
M  V30 13287 O 1255.08 -0.841486 1.55718 0
M  V30 13288 C 1252.21 -1.3572 3.15333 0
M  V30 13289 C 1251.29 -0.723506 4.17883 0
M  V30 13290 N 1251.68 0.174787 5.05498 0
M  V30 13291 C 1249.98 -0.983906 4.35012 0
M  V30 13292 C 1250.68 0.537673 5.7921 0
M  V30 13293 N 1249.66 -0.0947799 5.43517 0
M  V30 13294 H 1253.46 0.397202 2.91204 0
M  V30 13295 H 1250.97 0.31876 1.59241 0
M  V30 13296 H 1252.97 -1.94154 3.6893 0
M  V30 13297 H 1251.63 -2.05036 2.51775 0
M  V30 13298 H 1252.64 0.545699 5.15017 0
M  V30 13299 H 1249.32 -1.66969 3.82658 0
M  V30 13300 H 1250.71 1.27266 6.59737 0
M  V30 13301 N 1253.43 -1.55816 0.23648 0
M  V30 13302 C 1254.67 -2.0059 -0.39281 0
M  V30 13303 C 1255.03 -1.12092 -1.55883 0
M  V30 13304 O 1256.23 -1.46277 -2.25514 0
M  V30 13305 C 1254.5 -3.48281 -0.80219 0
M  V30 13306 S 1256.06 -4.15069 -1.42348 0
M  V30 13307 H 1252.88 -0.700093 -0.124057 0
M  V30 13308 H 1255.48 -1.92355 0.349272 0
M  V30 13309 H 1254.19 -4.10362 0.0558941 0
M  V30 13310 H 1253.72 -3.60421 -1.57671 0
M  V30 13311 H 1255.73 -4.15493 -2.71257 0
M  V30 13312 N 1254.91 0.036755 -1.57557 0
M  V30 13313 C 1256.15 0.729106 -1.88919 0
M  V30 13314 C 1256.48 1.75769 -0.832801 0
M  V30 13315 O 1255.74 1.94985 0.167173 0
M  V30 13316 C 1256.04 1.44206 -3.27016 0
M  V30 13317 C 1255.7 0.550184 -4.47531 0
M  V30 13318 C 1254.36 0.304511 -4.80236 0
M  V30 13319 C 1256.72 -0.0660664 -5.21158 0
M  V30 13320 C 1254.04 -0.566316 -5.8396 0
M  V30 13321 C 1256.4 -0.92455 -6.25807 0
M  V30 13322 C 1255.06 -1.17976 -6.56992 0
M  V30 13323 H 1254.33 0.266799 -0.691303 0
M  V30 13324 H 1256.98 -0.0108698 -1.91497 0
M  V30 13325 H 1255.28 2.25516 -3.2039 0
M  V30 13326 H 1256.98 1.98317 -3.48527 0
M  V30 13327 H 1253.57 0.751814 -4.21955 0
M  V30 13328 H 1257.75 0.110784 -4.96176 0
M  V30 13329 H 1253.01 -0.772428 -6.06501 0
M  V30 13330 H 1257.18 -1.40861 -6.82005 0
M  V30 13331 H 1254.81 -1.85627 -7.37188 0
M  V30 13332 N 1256.39 1.54543 0.308881 0
M  V30 13333 C 1257.32 1.79818 1.40502 0
M  V30 13334 C 1258.3 0.648927 1.4909 0
M  V30 13335 O 1259.48 0.888009 1.66273 0
M  V30 13336 C 1256.61 1.92787 2.7848 0
M  V30 13337 C 1255.65 3.15167 2.87353 0
M  V30 13338 S 1256.49 4.73427 2.50255 0
M  V30 13339 C 1257.64 4.89321 3.90276 0
M  V30 13340 H 1257.88 2.7251 1.18852 0
M  V30 13341 H 1255.41 1.45854 0.506551 0
M  V30 13342 H 1257.37 2.00944 3.57955 0
M  V30 13343 H 1256.03 1.01047 2.97403 0
M  V30 13344 H 1255.22 3.2102 3.88538 0
M  V30 13345 H 1254.82 3.05416 2.15864 0
M  V30 13346 H 1257.11 4.7286 4.8519 0
M  V30 13347 H 1258.06 5.91418 3.89398 0
M  V30 13348 H 1258.47 4.17524 3.79913 0
M  V30 13349 N 1257.86 -0.571685 1.46866 0
M  V30 13350 C 1259.11 -1.32685 1.52444 0
M  V30 13351 C 1259.43 -1.94147 0.182225 0
M  V30 13352 O 1258.7 -1.79159 -0.792385 0
M  V30 13353 H 1257.28 -0.492679 0.561495 0
M  V30 13354 H 1259.94 -0.668694 1.8307 0
M  V30 13355 H 1259.04 -2.12788 2.28315 0
M  V30 13356 N 1259.34 -1.34755 -0.817236 0
M  V30 13357 C 1260.59 -1.2762 -1.5761 0
M  V30 13358 C 1260.92 0.152017 -1.93604 0
M  V30 13359 O 1260.2 1.09881 -1.60488 0
M  V30 13360 C 1260.48 -2.17251 -2.87183 0
M  V30 13361 C 1260.33 -3.68638 -2.57733 0
M  V30 13362 C 1261.65 -2.06206 -3.88802 0
M  V30 13363 H 1258.77 -0.464933 -0.571845 0
M  V30 13364 H 1261.41 -1.6506 -0.941028 0
M  V30 13365 H 1259.56 -1.85452 -3.41379 0
M  V30 13366 H 1261.23 -4.10829 -2.09802 0
M  V30 13367 H 1259.48 -3.89445 -1.91089 0
M  V30 13368 H 1260.15 -4.26726 -3.50156 0
M  V30 13369 H 1262.62 -2.34137 -3.43975 0
M  V30 13370 H 1261.5 -2.71136 -4.77259 0
M  V30 13371 H 1261.76 -1.04075 -4.29675 0
M  V30 13372 N 1260.82 1.03812 -1.18578 0
M  V30 13373 C 1262.06 1.78618 -0.993725 0
M  V30 13374 C 1262.42 1.86206 0.468133 0
M  V30 13375 O 1263.62 2.57243 0.779714 0
M  V30 13376 C 1261.9 3.17883 -1.63357 0
M  V30 13377 S 1263.45 4.08994 -1.58962 0
M  V30 13378 H 1260.27 0.614997 -0.356792 0
M  V30 13379 H 1262.87 1.24458 -1.50766 0
M  V30 13380 H 1261.58 3.09972 -2.68972 0
M  V30 13381 H 1261.11 3.77119 -1.12003 0
M  V30 13382 H 1263.12 4.9247 -0.6073 0
M  V30 13383 N 1262.3 0.988223 1.22768 0
M  V30 13384 C 1263.52 0.679426 1.95955 0
M  V30 13385 C 1263.95 -0.748483 1.72567 0
M  V30 13386 O 1263.31 -1.51097 1.00197 0
M  V30 13387 C 1263.35 0.985284 3.46878 0
M  V30 13388 O 1262.46 0.0814607 4.1232 0
M  V30 13389 H 1261.8 0.254749 0.613188 0
M  V30 13390 H 1264.33 1.32393 1.55991 0
M  V30 13391 H 1264.34 0.925198 3.97371 0
M  V30 13392 H 1263.01 2.02581 3.63227 0
M  V30 13393 H 1261.59 0.196629 3.72381 0
M  V30 13394 N 1263.78 -1.38018 0.760839 0
M  V30 13395 C 1265.02 -1.99557 0.319609 0
M  V30 13396 C 1265.34 -1.60699 -1.10457 0
M  V30 13397 O 1264.61 -0.867248 -1.75658 0
M  V30 13398 H 1263.19 -0.738066 0.115182 0
M  V30 13399 H 1265.86 -1.6867 0.976544 0
M  V30 13400 H 1264.95 -3.09672 0.388523 0
M  V30 13401 N 1265.25 -0.510493 -1.49103 0
M  V30 13402 C 1266.2 0.262848 -2.29298 0
M  V30 13403 C 1267.17 0.951714 -1.36131 0
M  V30 13404 O 1268.36 0.956534 -1.65091 0
M  V30 13405 C 1265.5 1.31565 -3.19037 0
M  V30 13406 C 1264.61 0.637598 -4.27269 0
M  V30 13407 C 1263.74 1.67165 -5.04212 0
M  V30 13408 C 1262.78 0.975992 -6.04269 0
M  V30 13409 N 1261.92 1.95468 -6.74342 0
M  V30 13410 H 1266.76 -0.427246 -2.94921 0
M  V30 13411 H 1264.3 -0.222538 -1.45407 0
M  V30 13412 H 1266.25 1.93813 -3.69449 0
M  V30 13413 H 1264.88 1.97438 -2.55379 0
M  V30 13414 H 1263.94 -0.0983863 -3.80273 0
M  V30 13415 H 1265.25 0.0904435 -4.98718 0
M  V30 13416 H 1264.4 2.36893 -5.5854 0
M  V30 13417 H 1263.14 2.25267 -4.32557 0
M  V30 13418 H 1262.15 0.264534 -5.49163 0
M  V30 13419 H 1263.37 0.40134 -6.77913 0
M  V30 13420 H 1261.32 2.52515 -6.05452 0
M  V30 13421 H 1261.23 1.45845 -7.41799 0
M  V30 13422 H 1262.5 2.64455 -7.33269 0
M  V30 13423 N 1266.73 1.55688 -0.24474 0
M  V30 13424 C 1268.14 1.84897 0.25882 0
M  V30 13425 C 1268.49 1.16653 1.57755 0
M  V30 13426 O 1267.62 0.444162 2.11793 0
M  V30 13427 C 1268.21 3.35434 0.476385 0
M  V30 13428 C 1266.77 3.64877 0.924213 0
M  V30 13429 C 1265.92 2.773 0.00021322 0
M  V30 13430 H 1268.87 1.51662 -0.467358 0
M  V30 13431 H 1268.89 3.56896 1.31929 0
M  V30 13432 H 1268.4 3.85076 -0.483567 0
M  V30 13433 H 1266.5 3.20711 1.89671 0
M  V30 13434 H 1266.62 4.72665 0.78257 0
M  V30 13435 H 1264.98 2.49517 0.511194 0
M  V30 13436 H 1265.76 3.29747 -0.955072 0
M  V30 13437 N 1268.21 -0.0283989 1.57574 0
M  V30 13438 C 1269.46 -0.717656 1.88929 0
M  V30 13439 C 1269.78 -1.7586 0.842517 0
M  V30 13440 O 1269.05 -1.95509 -0.123774 0
M  V30 13441 H 1267.63 -0.268051 0.69725 0
M  V30 13442 H 1270.29 0.00580691 1.94899 0
M  V30 13443 H 1269.39 -1.2068 2.87824 0
M  V30 13444 N 1269.69 -1.54705 -0.300681 0
M  V30 13445 C 1270.62 -1.80561 -1.39546 0
M  V30 13446 C 1271.6 -0.656825 -1.48743 0
M  V30 13447 O 1272.78 -0.896815 -1.658 0
M  V30 13448 C 1269.91 -1.94261 -2.77453 0
M  V30 13449 C 1268.96 -3.16687 -2.85678 0
M  V30 13450 S 1269.79 -4.74747 -2.47741 0
M  V30 13451 C 1270.94 -4.91384 -3.87676 0
M  V30 13452 H 1271.18 -2.73136 -1.17405 0
M  V30 13453 H 1268.71 -1.46121 -0.498809 0
M  V30 13454 H 1270.67 -2.0284 -3.56884 0
M  V30 13455 H 1269.33 -1.02623 -2.96862 0
M  V30 13456 H 1268.52 -3.23076 -3.8683 0
M  V30 13457 H 1268.12 -3.06556 -2.14241 0
M  V30 13458 H 1270.42 -4.75427 -4.82676 0
M  V30 13459 H 1271.36 -5.93475 -3.86256 0
M  V30 13460 H 1271.77 -4.19533 -3.77693 0
M  V30 13461 N 1271.17 0.563888 -1.47167 0
M  V30 13462 C 1272.41 1.32331 -1.53676 0
M  V30 13463 C 1272.75 1.93213 -0.195593 0
M  V30 13464 O 1272.02 1.77508 0.795068 0
M  V30 13465 C 1272.3 2.43848 -2.64972 0
M  V30 13466 C 1272.16 1.8788 -4.08682 0
M  V30 13467 C 1273.48 3.45809 -2.72221 0
M  V30 13468 H 1270.59 0.479791 -0.559437 0
M  V30 13469 H 1273.24 0.631669 -1.79192 0
M  V30 13470 H 1271.39 3.02846 -2.43345 0
M  V30 13471 H 1273.06 1.33195 -4.41652 0
M  V30 13472 H 1271.3 1.18593 -4.17275 0
M  V30 13473 H 1271.97 2.68465 -4.82318 0
M  V30 13474 H 1274.45 2.9672 -2.91713 0
M  V30 13475 H 1273.32 4.21272 -3.51882 0
M  V30 13476 H 1273.59 4.04236 -1.79014 0
M  V30 13477 N 1272.64 1.35187 0.810078 0
M  V30 13478 C 1273.89 1.28264 1.56699 0
M  V30 13479 C 1274.22 -0.143906 1.93967 0
M  V30 13480 O 1273.47 -1.10832 1.61291 0
M  V30 13481 C 1273.77 2.13135 2.86894 0
M  V30 13482 C 1273.44 3.61974 2.6886 0
M  V30 13483 C 1272.1 4.02545 2.63649 0
M  V30 13484 C 1274.45 4.5643 2.51636 0
M  V30 13485 C 1271.78 5.35745 2.39154 0
M  V30 13486 C 1274.13 5.89824 2.2867 0
M  V30 13487 C 1272.8 6.29544 2.2188 0
M  V30 13488 H 1272.07 0.469353 0.573401 0
M  V30 13489 H 1274.71 1.67051 0.936282 0
M  V30 13490 H 1273.02 1.67218 3.54324 0
M  V30 13491 H 1274.72 2.05117 3.44569 0
M  V30 13492 H 1271.31 3.29777 2.73761 0
M  V30 13493 H 1275.49 4.25974 2.54677 0
M  V30 13494 H 1270.75 5.65524 2.32363 0
M  V30 13495 H 1274.92 6.62597 2.14333 0
M  V30 13496 H 1272.55 7.32689 2.0266 0
M  V30 13497 N 1274.12 -1.03182 1.19127 0
M  V30 13498 C 1275.35 -1.80703 1.01791 0
M  V30 13499 C 1275.77 -1.83147 -0.428824 0
M  V30 13500 O 1275.13 -1.2553 -1.30812 0
M  V30 13501 C 1275.18 -3.23754 1.58794 0
M  V30 13502 O 1274.28 -4.04261 0.815274 0
M  V30 13503 H 1273.62 -0.557944 0.359992 0
M  V30 13504 H 1276.15 -1.29887 1.58084 0
M  V30 13505 H 1276.16 -3.7451 1.61884 0
M  V30 13506 H 1274.84 -3.2129 2.64094 0
M  V30 13507 H 1273.42 -3.62909 0.857392 0
M  V30 13508 N 1275.6 -0.99472 -1.22242 0
M  V30 13509 C 1276.85 -0.667045 -1.90351 0
M  V30 13510 C 1277.16 0.804615 -1.78284 0
M  V30 13511 O 1278.37 1.24395 -2.41326 0
M  V30 13512 C 1276.82 -1.14256 -3.41282 0
M  V30 13513 C 1276.43 -2.63958 -3.61981 0
M  V30 13514 C 1278.18 -0.889302 -4.1508 0
M  V30 13515 C 1276.08 -3.05103 -5.06622 0
M  V30 13516 H 1275.01 -0.245795 -0.712812 0
M  V30 13517 H 1277.66 -1.20452 -1.38432 0
M  V30 13518 H 1276.05 -0.533203 -3.92394 0
M  V30 13519 H 1277.22 -3.30255 -3.21354 0
M  V30 13520 H 1275.54 -2.87186 -3.01518 0
M  V30 13521 H 1278.13 -1.17239 -5.21689 0
M  V30 13522 H 1278.48 0.174556 -4.15934 0
M  V30 13523 H 1279.01 -1.46095 -3.70002 0
M  V30 13524 H 1275.75 -4.10672 -5.1091 0
M  V30 13525 H 1275.27 -2.4351 -5.48145 0
M  V30 13526 H 1276.95 -2.96506 -5.75059 0
M  V30 13527 N 1277.08 1.37613 -0.768148 0
M  V30 13528 C 1278.3 2.04579 -0.340892 0
M  V30 13529 C 1278.73 1.57556 1.02751 0
M  V30 13530 O 1278.09 0.734151 1.65771 0
M  V30 13531 C 1278.13 3.58495 -0.389099 0
M  V30 13532 O 1277.24 4.07838 0.611741 0
M  V30 13533 H 1276.58 0.647246 -0.148216 0
M  V30 13534 H 1279.11 1.75999 -1.04333 0
M  V30 13535 H 1279.12 4.07263 -0.245116 0
M  V30 13536 H 1277.79 3.92076 -1.38742 0
M  V30 13537 H 1276.37 3.70399 0.431173 0
M  V30 13538 N 1278.56 0.518393 1.4883 0
M  V30 13539 C 1279.97 0.175476 1.58632 0
M  V30 13540 C 1280.17 -1.32081 1.52174 0
M  V30 13541 O 1279.23 -2.09817 1.40474 0
M  V30 13542 C 1280.54 0.767722 2.90734 0
M  V30 13543 C 1282.09 0.735402 3.04238 0
M  V30 13544 C 1282.56 1.30602 4.38984 0
M  V30 13545 N 1284.06 1.26748 4.45521 0
M  V30 13546 C 1284.79 1.679 5.48267 0
M  V30 13547 N 1284.29 2.16728 6.58028 0
M  V30 13548 N 1286.08 1.59209 5.39082 0
M  V30 13549 H 1278.23 1.491 1.51271 0
M  V30 13550 H 1280.49 0.619497 0.717584 0
M  V30 13551 H 1280.2 1.81777 3.01081 0
M  V30 13552 H 1280.07 0.238119 3.76448 0
M  V30 13553 H 1282.46 -0.305852 2.93511 0
M  V30 13554 H 1282.54 1.30235 2.20165 0
M  V30 13555 H 1282.19 2.34614 4.50465 0
M  V30 13556 H 1282.12 0.714858 5.21725 0
M  V30 13557 H 1284.61 0.90991 3.66782 0
M  V30 13558 H 1284.92 2.46154 7.32549 0
M  V30 13559 H 1283.26 2.20714 6.59022 0
M  V30 13560 H 1286.46 1.20869 4.52226 0
M  V30 13561 H 1286.63 1.91602 6.19025 0
M  V30 13562 N 1280.03 -1.55556 0.252993 0
M  V30 13563 C 1281.28 -1.98697 -0.369319 0
M  V30 13564 C 1281.6 -1.14256 -1.58021 0
M  V30 13565 O 1280.87 -0.226779 -1.94583 0
M  V30 13566 H 1279.45 -0.733869 -0.139444 0
M  V30 13567 H 1282.12 -1.91673 0.353197 0
M  V30 13568 H 1281.21 -3.04728 -0.674312 0
M  V30 13569 N 1281.51 0.0200419 -1.57587 0
M  V30 13570 C 1282.76 0.708115 -1.88861 0
M  V30 13571 C 1283.07 1.76036 -0.852693 0
M  V30 13572 O 1284.28 2.50165 -1.05497 0
M  V30 13573 C 1282.74 1.31057 -3.3519 0
M  V30 13574 C 1282.34 0.294202 -4.47033 0
M  V30 13575 C 1284.09 1.97799 -3.756 0
M  V30 13576 C 1282 0.905508 -5.84427 0
M  V30 13577 H 1280.93 0.268236 -0.704674 0
M  V30 13578 H 1283.58 -0.0372162 -1.83462 0
M  V30 13579 H 1281.96 2.1059 -3.35362 0
M  V30 13580 H 1283.13 -0.475081 -4.58344 0
M  V30 13581 H 1281.45 -0.271644 -4.15513 0
M  V30 13582 H 1284.04 2.44404 -4.75574 0
M  V30 13583 H 1284.39 2.80004 -3.08064 0
M  V30 13584 H 1284.92 1.25028 -3.77641 0
M  V30 13585 H 1281.66 0.122685 -6.55385 0
M  V30 13586 H 1281.18 1.64442 -5.76818 0
M  V30 13587 H 1282.86 1.41016 -6.31446 0
M  V30 13588 N 1282.99 1.54862 0.292472 0
M  V30 13589 C 1284.22 1.78291 1.04383 0
M  V30 13590 C 1284.63 0.546703 1.81129 0
M  V30 13591 O 1283.97 -0.493286 1.76953 0
M  V30 13592 C 1284.03 2.94321 2.06435 0
M  V30 13593 C 1283.7 4.32095 1.48806 0
M  V30 13594 C 1284.69 5.11808 0.91369 0
M  V30 13595 C 1282.38 4.78714 1.52112 0
M  V30 13596 C 1284.37 6.36266 0.380053 0
M  V30 13597 C 1282.06 6.03132 0.983613 0
M  V30 13598 C 1283.06 6.81744 0.41406 0
M  V30 13599 O 1282.75 8.03817 -0.115268 0
M  V30 13600 H 1282.48 0.598147 0.314954 0
M  V30 13601 H 1285.03 2.02655 0.334661 0
M  V30 13602 H 1283.26 2.65602 2.81056 0
M  V30 13603 H 1284.95 3.05249 2.67541 0
M  V30 13604 H 1285.72 4.76931 0.880988 0
M  V30 13605 H 1281.6 4.17549 1.95382 0
M  V30 13606 H 1285.14 6.9757 -0.0651481 0
M  V30 13607 H 1281.04 6.37494 1.01349 0
M  V30 13608 H 1281.81 8.185 -0.00277496 0
M  V30 13609 N 1284.47 -0.556076 1.47464 0
M  V30 13610 C 1285.69 -1.3434 1.58011 0
M  V30 13611 C 1286.12 -1.86674 0.231138 0
M  V30 13612 O 1285.48 -1.63029 -0.793174 0
M  V30 13613 C 1285.52 -2.48844 2.60977 0
M  V30 13614 O 1284.63 -3.51108 2.16326 0
M  V30 13615 H 1283.97 -0.398986 0.53076 0
M  V30 13616 H 1286.5 -0.671898 1.93253 0
M  V30 13617 H 1286.51 -2.95398 2.81432 0
M  V30 13618 H 1285.18 -2.10109 3.58925 0
M  V30 13619 H 1283.76 -3.10852 2.05975 0
M  V30 13620 N 1285.95 -1.35615 -0.802897 0
M  V30 13621 C 1287.19 -1.30462 -1.5735 0
M  V30 13622 C 1287.55 0.118488 -1.91634 0
M  V30 13623 O 1288.75 0.294421 -2.67183 0
M  V30 13624 C 1287.02 -2.18916 -2.82508 0
M  V30 13625 S 1288.58 -2.31315 -3.72879 0
M  V30 13626 H 1285.4 -0.463588 -0.53908 0
M  V30 13627 H 1288 -1.71045 -0.946782 0
M  V30 13628 H 1286.71 -3.21285 -2.5535 0
M  V30 13629 H 1286.24 -1.79304 -3.50162 0
M  V30 13630 H 1288.25 -1.50069 -4.72963 0
M  V30 13631 N 1287.43 1.02549 -1.19673 0
M  V30 13632 C 1288.67 1.75408 -0.995732 0
M  V30 13633 C 1288.99 1.89773 0.473863 0
M  V30 13634 O 1290.19 2.59638 0.793762 0
M  V30 13635 C 1288.65 3.15444 -1.73273 0
M  V30 13636 C 1288.26 3.09121 -3.24266 0
M  V30 13637 C 1290 3.92575 -1.61509 0
M  V30 13638 C 1287.91 4.44109 -3.9054 0
M  V30 13639 H 1286.84 0.657569 -0.368944 0
M  V30 13640 H 1289.49 1.14739 -1.43203 0
M  V30 13641 H 1287.87 3.76601 -1.22425 0
M  V30 13642 H 1289.05 2.57325 -3.82257 0
M  V30 13643 H 1287.36 2.45485 -3.36342 0
M  V30 13644 H 1289.96 4.92428 -2.08372 0
M  V30 13645 H 1290.3 4.12382 -0.569804 0
M  V30 13646 H 1290.83 3.38027 -2.09721 0
M  V30 13647 H 1287.57 4.29506 -4.95182 0
M  V30 13648 H 1287.09 4.95947 -3.37337 0
M  V30 13649 H 1288.77 5.12982 -3.94282 0
M  V30 13650 N 1288.9 1.00119 1.21713 0
M  V30 13651 C 1289.85 0.529464 2.21767 0
M  V30 13652 C 1290.84 -0.406858 1.55671 0
M  V30 13653 O 1292.03 -0.232329 1.75469 0
M  V30 13654 C 1289.16 -0.146336 3.42988 0
M  V30 13655 C 1288.24 0.81078 4.16278 0
M  V30 13656 N 1288.64 1.96204 4.66195 0
M  V30 13657 C 1286.93 0.628371 4.41551 0
M  V30 13658 C 1287.63 2.56346 5.2217 0
M  V30 13659 N 1286.61 1.8454 5.11318 0
M  V30 13660 H 1290.41 1.40738 2.58012 0
M  V30 13661 H 1287.93 0.864518 1.37477 0
M  V30 13662 H 1289.92 -0.501726 4.1387 0
M  V30 13663 H 1288.58 -1.02029 3.08254 0
M  V30 13664 H 1289.59 2.34255 4.61893 0
M  V30 13665 H 1286.27 -0.198819 4.17026 0
M  V30 13666 H 1287.66 3.53688 5.71274 0
M  V30 13667 N 1290.38 -1.37203 0.775435 0
M  V30 13668 C 1291.63 -1.99207 0.340756 0
M  V30 13669 C 1291.95 -1.61861 -1.08747 0
M  V30 13670 O 1291.22 -0.88583 -1.74728 0
M  V30 13671 H 1289.8 -0.736803 0.123004 0
M  V30 13672 H 1292.46 -1.67625 0.994379 0
M  V30 13673 H 1291.56 -3.09243 0.421346 0
M  V30 13674 N 1291.86 -0.526279 -1.48553 0
M  V30 13675 C 1293.11 0.00918008 -2.02798 0
M  V30 13676 C 1293.44 1.34284 -1.4029 0
M  V30 13677 O 1292.71 1.86639 -0.547355 0
M  V30 13678 C 1293 0.135102 -3.59846 0
M  V30 13679 C 1292.85 -1.22347 -4.32841 0
M  V30 13680 C 1294.17 0.863673 -4.31542 0
M  V30 13681 H 1291.29 0.00186216 -0.736998 0
M  V30 13682 H 1293.93 -0.682591 -1.77315 0
M  V30 13683 H 1292.08 0.724279 -3.81689 0
M  V30 13684 H 1293.75 -1.85347 -4.22427 0
M  V30 13685 H 1291.99 -1.80631 -3.94405 0
M  V30 13686 H 1292.67 -1.08839 -5.41164 0
M  V30 13687 H 1295.14 0.363734 -4.14507 0
M  V30 13688 H 1294.02 0.92067 -5.41124 0
M  V30 13689 H 1294.28 1.91313 -3.98562 0
M  V30 13690 N 1293.34 1.5542 -0.261239 0
M  V30 13691 C 1294.3 2.20683 0.619011 0
M  V30 13692 C 1295.3 1.18042 1.09192 0
M  V30 13693 O 1296.49 1.43035 0.99432 0
M  V30 13694 C 1293.62 2.86179 1.85242 0
M  V30 13695 H 1294.82 2.99859 0.0493924 0
M  V30 13696 H 1292.37 1.56296 -0.0117687 0
M  V30 13697 H 1293.1 2.10978 2.4629 0
M  V30 13698 H 1292.89 3.61381 1.52138 0
M  V30 13699 H 1294.38 3.36081 2.47869 0
M  V30 13700 N 1294.82 -0.0116844 1.57596 0
M  V30 13701 C 1296.06 -0.698089 1.89234 0
M  V30 13702 C 1296.38 -1.75581 0.862016 0
M  V30 13703 O 1297.58 -2.49602 1.06822 0
M  V30 13704 C 1296.04 -1.29277 3.3588 0
M  V30 13705 C 1295.65 -0.27049 4.47183 0
M  V30 13706 C 1297.39 -1.95805 3.76644 0
M  V30 13707 C 1295.3 -0.874502 5.84899 0
M  V30 13708 H 1294.23 -0.264495 0.706087 0
M  V30 13709 H 1296.88 0.0469451 1.8344 0
M  V30 13710 H 1295.26 -2.08809 3.36474 0
M  V30 13711 H 1296.44 0.499381 4.58086 0
M  V30 13712 H 1294.75 0.293676 4.15363 0
M  V30 13713 H 1297.35 -2.41879 4.76863 0
M  V30 13714 H 1297.69 -2.78366 3.09545 0
M  V30 13715 H 1298.22 -1.23023 3.78299 0
M  V30 13716 H 1294.96 -0.0879263 6.55441 0
M  V30 13717 H 1294.48 -1.61381 5.77682 0
M  V30 13718 H 1296.16 -1.37665 6.32185 0
M  V30 13719 N 1296.29 -1.55015 -0.284256 0
M  V30 13720 C 1297.2 -1.90203 -1.37332 0
M  V30 13721 C 1298.22 -0.797994 -1.54622 0
M  V30 13722 O 1299.4 -1.09602 -1.68965 0
M  V30 13723 C 1296.46 -2.15687 -2.71441 0
M  V30 13724 C 1295.52 -3.39313 -2.62993 0
M  V30 13725 C 1294.75 -3.63571 -3.90707 0
M  V30 13726 O 1294.98 -2.90538 -4.9086 0
M  V30 13727 O 1293.91 -4.57102 -3.91589 0
M  V30 13728 H 1297.74 -2.82888 -1.1049 0
M  V30 13729 H 1295.32 -1.41418 -0.481798 0
M  V30 13730 H 1297.2 -2.33553 -3.50758 0
M  V30 13731 H 1295.88 -1.26185 -2.98092 0
M  V30 13732 H 1294.79 -3.26793 -1.82091 0
M  V30 13733 H 1296.12 -4.28997 -2.41293 0
M  V30 13734 N 1297.77 0.548248 -1.47757 0
M  V30 13735 C 1298.68 1.68178 -1.63565 0
M  V30 13736 C 1299.7 1.661 -0.518351 0
M  V30 13737 O 1300.87 1.85384 -0.787061 0
M  V30 13738 C 1297.94 3.04673 -1.65454 0
M  V30 13739 C 1297 3.17749 -2.88677 0
M  V30 13740 C 1296.23 4.47733 -2.90466 0
M  V30 13741 O 1296.46 5.33736 -2.01201 0
M  V30 13742 O 1295.39 4.64789 -3.82433 0
M  V30 13743 H 1299.22 1.57781 -2.59497 0
M  V30 13744 H 1296.8 0.719277 -1.30946 0
M  V30 13745 H 1298.68 3.85885 -1.69324 0
M  V30 13746 H 1297.36 3.15433 -0.726912 0
M  V30 13747 H 1296.26 2.359 -2.90348 0
M  V30 13748 H 1297.6 3.11897 -3.80763 0
M  V30 13749 N 1299.25 1.36039 0.795694 0
M  V30 13750 C 1300.67 1.16315 1.09284 0
M  V30 13751 C 1300.87 -0.017024 2.01493 0
M  V30 13752 O 1299.92 -0.684316 2.4305 0
M  V30 13753 C 1301.23 2.47113 1.71335 0
M  V30 13754 C 1302.78 2.5342 1.83705 0
M  V30 13755 C 1303.26 3.84289 2.49171 0
M  V30 13756 N 1304.75 3.856 2.56645 0
M  V30 13757 C 1305.48 4.83597 3.08094 0
M  V30 13758 N 1304.98 5.91985 3.59897 0
M  V30 13759 N 1306.77 4.71023 3.06748 0
M  V30 13760 H 1298.92 2.11611 0.182957 0
M  V30 13761 H 1301.19 0.937035 0.143771 0
M  V30 13762 H 1300.89 3.33708 1.11049 0
M  V30 13763 H 1300.77 2.62461 2.70914 0
M  V30 13764 H 1303.15 1.67247 2.43131 0
M  V30 13765 H 1303.23 2.41977 0.829495 0
M  V30 13766 H 1302.88 4.70865 1.90391 0
M  V30 13767 H 1302.81 3.93025 3.50484 0
M  V30 13768 H 1305.3 3.07291 2.19956 0
M  V30 13769 H 1305.61 6.6274 3.97487 0
M  V30 13770 H 1303.96 5.95662 3.58066 0
M  V30 13771 H 1307.15 3.8548 2.65561 0
M  V30 13772 H 1307.32 5.47555 3.46536 0
M  V30 13773 N 1300.73 -1.01913 1.20215 0
M  V30 13774 C 1301.66 -2.10513 0.906476 0
M  V30 13775 C 1302.67 -1.62463 -0.104758 0
M  V30 13776 O 1303.86 -1.78055 0.12593 0
M  V30 13777 C 1300.96 -3.3722 0.337012 0
M  V30 13778 C 1300.14 -4.14417 1.39917 0
M  V30 13779 C 1299.19 -5.19428 0.841489 0
M  V30 13780 O 1298.22 -5.48486 1.52157 0
M  V30 13781 N 1299.42 -5.79442 -0.350365 0
M  V30 13782 H 1302.19 -2.36465 1.84132 0
M  V30 13783 H 1299.75 -1.18283 1.10548 0
M  V30 13784 H 1301.74 -4.04669 -0.0501507 0
M  V30 13785 H 1300.31 -3.08538 -0.502325 0
M  V30 13786 H 1299.53 -3.41975 1.96078 0
M  V30 13787 H 1300.82 -4.62777 2.1146 0
M  V30 13788 H 1300.22 -5.58166 -0.920204 0
M  V30 13789 H 1298.77 -6.48252 -0.679194 0
M  V30 13790 N 1302.21 -1.00763 -1.2118 0
M  V30 13791 C 1303.43 -0.710515 -1.9485 0
M  V30 13792 C 1303.86 0.720934 -1.73736 0
M  V30 13793 O 1303.21 1.49484 -1.02588 0
M  V30 13794 C 1303.26 -1.04035 -3.45267 0
M  V30 13795 O 1302.37 -0.147047 -4.12138 0
M  V30 13796 H 1301.71 -0.264472 -0.609057 0
M  V30 13797 H 1304.24 -1.34858 -1.53865 0
M  V30 13798 H 1304.25 -0.9883 -3.95849 0
M  V30 13799 H 1302.92 -2.08334 -3.59958 0
M  V30 13800 H 1301.5 -0.255847 -3.72021 0
M  V30 13801 N 1303.68 1.3679 -0.7827 0
M  V30 13802 C 1304.93 1.99712 -0.352533 0
M  V30 13803 C 1305.26 1.61984 1.0712 0
M  V30 13804 O 1304.54 0.871342 1.7389 0
M  V30 13805 C 1304.82 3.5649 -0.508628 0
M  V30 13806 C 1304.67 4.04093 -1.97557 0
M  V30 13807 C 1305.99 4.40026 0.0804447 0
M  V30 13808 H 1303.11 0.725522 -0.129566 0
M  V30 13809 H 1305.75 1.62305 -0.987788 0
M  V30 13810 H 1303.9 3.88487 0.0321664 0
M  V30 13811 H 1305.58 3.82613 -2.57691 0
M  V30 13812 H 1303.82 3.55881 -2.48055 0
M  V30 13813 H 1304.49 5.13088 -2.03579 0
M  V30 13814 H 1306.97 4.14351 -0.381113 0
M  V30 13815 H 1305.84 5.48868 -0.0588424 0
M  V30 13816 H 1306.1 4.26285 1.17189 0
M  V30 13817 N 1305.16 0.53415 1.48272 0
M  V30 13818 C 1306.1 -0.273689 2.26553 0
M  V30 13819 C 1307.07 -0.941085 1.32598 0
M  V30 13820 O 1308.26 -0.964653 1.61947 0
M  V30 13821 C 1305.38 -1.38796 3.08955 0
M  V30 13822 C 1304.43 -0.831533 4.18315 0
M  V30 13823 S 1305.26 0.303875 5.34637 0
M  V30 13824 C 1306.42 -0.812767 6.206 0
M  V30 13825 H 1306.65 0.390639 2.94722 0
M  V30 13826 H 1304.19 0.320014 1.51047 0
M  V30 13827 H 1306.14 -2.02622 3.57008 0
M  V30 13828 H 1304.8 -2.02402 2.40192 0
M  V30 13829 H 1304 -1.66758 4.75613 0
M  V30 13830 H 1303.6 -0.269881 3.73025 0
M  V30 13831 H 1305.89 -1.71043 6.55554 0
M  V30 13832 H 1306.83 -0.27767 7.07555 0
M  V30 13833 H 1307.24 -1.09505 5.53777 0
M  V30 13834 N 1306.64 -1.55279 0.269478 0
M  V30 13835 C 1307.59 -2.23723 -0.636468 0
M  V30 13836 C 1308.58 -1.23234 -1.16232 0
M  V30 13837 O 1309.79 -1.41181 -1.1166 0
M  V30 13838 H 1306.16 -0.71793 -0.223788 0
M  V30 13839 H 1308.13 -2.98378 -0.0363057 0
M  V30 13840 C 1306.88 -2.96755 -1.81195 0
M  V30 13841 H 1306.21 -3.73865 -1.4165 0
M  V30 13842 H 1307.65 -3.47975 -2.42258 0
M  V30 13843 C 1306.11 -2.01905 -2.69696 0
M  V30 13844 O 1306.64 -1.56662 -3.69892 0
M  V30 13845 N 1304.84 -1.68524 -2.36744 0
M  V30 13846 H 1304.39 -2.05512 -1.55314 0
M  V30 13847 H 1304.35 -1.05331 -2.96231 0
M  V30 13848 N 1308.12 0.00332656 -1.576 0
M  V30 13849 C 1309.34 0.703587 -1.95101 0
M  V30 13850 C 1309.77 1.66697 -0.871418 0
M  V30 13851 O 1309.13 1.80494 0.170739 0
M  V30 13852 C 1309.17 1.41457 -3.31696 0
M  V30 13853 O 1308.28 2.52885 -3.25765 0
M  V30 13854 H 1307.62 0.187396 -0.637008 0
M  V30 13855 H 1310.15 -0.0488727 -2.04542 0
M  V30 13856 H 1310.16 1.77874 -3.67185 0
M  V30 13857 H 1308.83 0.708182 -4.09826 0
M  V30 13858 H 1307.41 2.18821 -3.01947 0
M  V30 13859 N 1309.6 1.55164 0.276031 0
M  V30 13860 C 1311.01 1.66367 0.847293 0
M  V30 13861 C 1311.36 0.588692 1.8716 0
M  V30 13862 O 1310.48 -0.27035 2.14705 0
M  V30 13863 C 1311.08 3.01593 1.5436 0
M  V30 13864 C 1309.64 3.14833 2.06293 0
M  V30 13865 C 1308.78 2.62152 0.903959 0
M  V30 13866 H 1311.74 1.58613 0.0524478 0
M  V30 13867 H 1311.76 2.94412 2.41043 0
M  V30 13868 H 1311.27 3.7981 0.797849 0
M  V30 13869 H 1309.37 2.41384 2.83839 0
M  V30 13870 H 1309.48 4.21353 2.28032 0
M  V30 13871 H 1307.85 2.19233 1.29649 0
M  V30 13872 H 1308.63 3.4287 0.171765 0
M  V30 13873 N 1311.07 -0.540404 1.48045 0
M  V30 13874 C 1312.3 -1.32177 1.59175 0
M  V30 13875 C 1312.72 -1.87163 0.248115 0
M  V30 13876 O 1312.07 -1.65871 -0.761124 0
M  V30 13877 C 1312.13 -2.47995 2.63023 0
M  V30 13878 O 1311.85 -1.95278 3.92171 0
M  V30 13879 C 1313.35 -3.39967 2.84495 0
M  V30 13880 H 1310.57 -0.40233 0.537002 0
M  V30 13881 H 1313.11 -0.652983 1.93795 0
M  V30 13882 H 1311.27 -3.10779 2.31291 0
M  V30 13883 H 1311.68 -2.71012 4.49058 0
M  V30 13884 H 1313.15 -4.17607 3.60982 0
M  V30 13885 H 1313.63 -3.94555 1.92932 0
M  V30 13886 H 1314.24 -2.82985 3.1749 0
M  V30 13887 N 1312.55 -1.36459 -0.788468 0
M  V30 13888 C 1313.52 -1.3071 -1.88275 0
M  V30 13889 C 1314.52 -0.214596 -1.59362 0
M  V30 13890 O 1315.71 -0.469437 -1.67756 0
M  V30 13891 C 1312.84 -1.02648 -3.25079 0
M  V30 13892 H 1314.03 -2.28029 -1.94788 0
M  V30 13893 H 1311.58 -1.21245 -0.986375 0
M  V30 13894 H 1312.32 -0.0578992 -3.24248 0
M  V30 13895 H 1312.1 -1.81708 -3.47454 0
M  V30 13896 H 1313.59 -1.01233 -4.05144 0
M  V30 13897 N 1314.03 1.01274 -1.20754 0
M  V30 13898 C 1315.26 1.78524 -1.04579 0
M  V30 13899 C 1315.67 1.84409 0.404809 0
M  V30 13900 O 1315.03 1.29987 1.281 0
M  V30 13901 C 1315.08 3.22806 -1.62722 0
M  V30 13902 O 1314.8 3.17276 -3.02106 0
M  V30 13903 C 1316.3 4.16589 -1.51553 0
M  V30 13904 H 1313.52 0.561299 -0.367674 0
M  V30 13905 H 1316.07 1.27454 -1.59924 0
M  V30 13906 H 1314.22 3.71011 -1.11487 0
M  V30 13907 H 1314.64 4.07866 -3.29766 0
M  V30 13908 H 1316.11 5.15654 -1.9699 0
M  V30 13909 H 1316.59 4.36692 -0.468659 0
M  V30 13910 H 1317.19 3.74269 -2.01998 0
M  V30 13911 N 1315.51 1.01404 1.20644 0
M  V30 13912 C 1316.44 0.526835 2.22035 0
M  V30 13913 C 1317.42 -0.424347 1.56965 0
M  V30 13914 O 1318.6 -0.344947 1.85317 0
M  V30 13915 C 1315.73 -0.233628 3.37893 0
M  V30 13916 C 1314.78 0.666719 4.21257 0
M  V30 13917 S 1315.61 2.13439 4.91125 0
M  V30 13918 C 1316.77 1.38402 6.10406 0
M  V30 13919 H 1317 1.38595 2.63018 0
M  V30 13920 H 1314.53 0.822723 1.30655 0
M  V30 13921 H 1316.49 -0.666289 4.05057 0
M  V30 13922 H 1315.15 -1.06828 2.95375 0
M  V30 13923 H 1314.34 0.0804713 5.03936 0
M  V30 13924 H 1313.95 1.03705 3.59335 0
M  V30 13925 H 1316.24 0.662667 6.74251 0
M  V30 13926 H 1317.18 2.18686 6.73485 0
M  V30 13927 H 1317.59 0.888021 5.57471 0
M  V30 13928 N 1316.99 -1.36373 0.789944 0
M  V30 13929 C 1317.94 -2.31928 0.17666 0
M  V30 13930 C 1318.93 -1.55831 -0.664316 0
M  V30 13931 O 1320.14 -1.71089 -0.559341 0
M  V30 13932 H 1316.51 -0.751021 0.038353 0
M  V30 13933 H 1318.48 -2.81216 0.998004 0
M  V30 13934 C 1317.23 -3.41112 -0.673646 0
M  V30 13935 H 1316.55 -3.99784 -0.0358875 0
M  V30 13936 H 1317.99 -4.10292 -1.06942 0
M  V30 13937 C 1316.45 -2.82728 -1.83211 0
M  V30 13938 O 1316.98 -2.74935 -2.92871 0
M  V30 13939 N 1315.19 -2.4001 -1.6384 0
M  V30 13940 H 1314.74 -2.46549 -0.746423 0
M  V30 13941 H 1314.69 -2.01294 -2.41512 0
M  V30 13942 N 1318.47 -0.542005 -1.47987 0
M  V30 13943 C 1319.41 0.227398 -2.31486 0
M  V30 13944 C 1320.41 0.923984 -1.41982 0
M  V30 13945 O 1321.61 0.847 -1.58827 0
M  V30 13946 H 1317.99 0.0922034 -0.746326 0
M  V30 13947 H 1319.96 -0.49625 -2.94245 0
M  V30 13948 C 1318.71 1.25384 -3.24306 0
M  V30 13949 H 1318.03 0.727243 -3.9313 0
M  V30 13950 H 1319.47 1.76337 -3.85592 0
M  V30 13951 C 1317.93 2.29378 -2.46754 0
M  V30 13952 O 1318.46 3.36034 -2.201 0
M  V30 13953 N 1316.67 2.02905 -2.08033 0
M  V30 13954 H 1316.21 1.16186 -2.2991 0
M  V30 13955 H 1316.17 2.72705 -1.56458 0
M  V30 13956 N 1319.94 1.55134 -0.277709 0
M  V30 13957 C 1321.17 2.04061 0.341601 0
M  V30 13958 C 1321.59 1.15597 1.49274 0
M  V30 13959 O 1320.94 0.176625 1.81643 0
M  V30 13960 C 1320.99 3.52074 0.820139 0
M  V30 13961 O 1320.72 4.37171 -0.28516 0
M  V30 13962 C 1322.22 4.16899 1.507 0
M  V30 13963 H 1319.44 0.666501 0.0775708 0
M  V30 13964 H 1321.98 2.00336 -0.410559 0
M  V30 13965 H 1320.14 3.56233 1.52238 0
M  V30 13966 H 1320.55 5.24434 0.0832022 0
M  V30 13967 H 1322.02 5.22061 1.79323 0
M  V30 13968 H 1322.5 3.65227 2.43939 0
M  V30 13969 H 1323.11 4.16749 0.848541 0
M  V30 13970 N 1321.42 0.00503138 1.57599 0
M  V30 13971 C 1322.37 -0.993379 2.05222 0
M  V30 13972 C 1323.36 -1.30013 0.947919 0
M  V30 13973 O 1324.55 -1.29027 1.21166 0
M  V30 13974 C 1321.68 -2.28375 2.5632 0
M  V30 13975 C 1320.76 -2.00642 3.73636 0
M  V30 13976 N 1321.15 -1.43087 4.85139 0
M  V30 13977 C 1319.45 -2.30759 3.81662 0
M  V30 13978 C 1320.15 -1.31939 5.66539 0
M  V30 13979 N 1319.13 -1.80672 5.12697 0
M  V30 13980 H 1322.93 -0.542951 2.88841 0
M  V30 13981 H 1320.44 -0.20055 1.61157 0
M  V30 13982 H 1322.44 -3.00748 2.88715 0
M  V30 13983 H 1321.1 -2.74066 1.74121 0
M  V30 13984 H 1322.11 -1.10901 5.05887 0
M  V30 13985 H 1318.79 -2.7929 3.10327 0
M  V30 13986 H 1320.18 -0.876391 6.6616 0
M  V30 13987 N 1322.9 -1.55308 -0.267798 0
M  V30 13988 C 1324.12 -1.80524 -1.02107 0
M  V30 13989 C 1324.55 -0.579268 -1.78958 0
M  V30 13990 O 1323.91 0.471262 -1.75068 0
M  V30 13991 C 1323.96 -3.03248 -1.95123 0
M  V30 13992 O 1323.06 -2.78699 -3.03975 0
M  V30 13993 H 1322.4 -0.596518 -0.291655 0
M  V30 13994 H 1324.93 -2.0246 -0.295128 0
M  V30 13995 H 1324.94 -3.32121 -2.3698 0
M  V30 13996 H 1323.62 -3.92126 -1.386 0
M  V30 13997 H 1322.19 -2.60936 -2.66396 0
M  V30 13998 N 1324.38 0.532545 -1.4833 0
M  V30 13999 C 1325.33 1.65832 -1.63103 0
M  V30 14000 C 1326.32 1.61929 -0.497538 0
M  V30 14001 O 1327.53 1.66817 -0.676176 0
M  V30 14002 H 1323.9 0.549152 -0.513748 0
M  V30 14003 H 1325.87 1.50515 -2.57658 0
M  V30 14004 C 1324.62 3.04113 -1.68555 0
M  V30 14005 H 1323.94 3.07809 -2.55135 0
M  V30 14006 H 1325.38 3.82506 -1.82936 0
M  V30 14007 C 1323.84 3.34225 -0.423711 0
M  V30 14008 O 1324.37 3.99005 0.464523 0
M  V30 14009 N 1322.58 2.89087 -0.296192 0
M  V30 14010 H 1322.13 2.36547 -1.01997 0
M  V30 14011 H 1322.08 3.09604 0.547082 0
M  V30 14012 N 1325.86 1.36875 0.78122 0
M  V30 14013 C 1327.1 1.30886 1.53466 0
M  V30 14014 C 1327.42 -0.107218 1.95306 0
M  V30 14015 O 1328.62 -0.289525 2.69952 0
M  V30 14016 C 1327.08 2.29688 2.77076 0
M  V30 14017 C 1326.69 3.76775 2.42373 0
M  V30 14018 C 1328.43 2.32692 3.55042 0
M  V30 14019 C 1326.34 4.67332 3.62428 0
M  V30 14020 H 1325.27 0.486408 0.576128 0
M  V30 14021 H 1327.92 1.62283 0.856529 0
M  V30 14022 H 1326.3 1.91296 3.4673 0
M  V30 14023 H 1327.48 4.2395 1.80563 0
M  V30 14024 H 1325.79 3.76625 1.77602 0
M  V30 14025 H 1328.39 2.97556 4.44257 0
M  V30 14026 H 1328.73 1.33779 3.94219 0
M  V30 14027 H 1329.26 2.69743 2.92375 0
M  V30 14028 H 1326 5.67339 3.2834 0
M  V30 14029 H 1325.52 4.24868 4.23376 0
M  V30 14030 H 1327.2 4.84005 4.29358 0
M  V30 14031 N 1327.33 -1.00632 1.21289 0
M  V30 14032 C 1328.26 -2.11238 0.995021 0
M  V30 14033 C 1329.24 -1.69914 -0.0795537 0
M  V30 14034 O 1330.43 -1.94035 0.0800152 0
M  V30 14035 C 1327.56 -3.42797 0.557475 0
M  V30 14036 C 1326.51 -3.97909 1.57646 0
M  V30 14037 C 1325.84 -5.25357 0.995197 0
M  V30 14038 C 1327.14 -4.30123 2.96297 0
M  V30 14039 H 1328.83 -2.29722 1.9201 0
M  V30 14040 H 1326.38 -1.10395 0.924602 0
M  V30 14041 H 1328.33 -4.19571 0.392236 0
M  V30 14042 H 1327.06 -3.24101 -0.403253 0
M  V30 14043 H 1325.72 -3.23254 1.72924 0
M  V30 14044 H 1325.36 -5.02993 0.026227 0
M  V30 14045 H 1325.06 -5.63196 1.67583 0
M  V30 14046 H 1326.59 -6.04777 0.841251 0
M  V30 14047 H 1328 -4.97744 2.8447 0
M  V30 14048 H 1326.4 -4.79101 3.61361 0
M  V30 14049 H 1327.47 -3.38454 3.47242 0
M  V30 14050 N 1328.81 -1.02043 -1.20104 0
M  V30 14051 C 1330.23 -0.735967 -1.41618 0
M  V30 14052 C 1330.43 0.68285 -1.89577 0
M  V30 14053 O 1329.48 1.45007 -2.06711 0
M  V30 14054 C 1330.8 -1.76492 -2.43457 0
M  V30 14055 C 1332.34 -1.78349 -2.57217 0
M  V30 14056 C 1332.82 -2.80181 -3.62302 0
M  V30 14057 N 1334.31 -2.78945 -3.69789 0
M  V30 14058 C 1335.05 -3.54395 -4.50768 0
M  V30 14059 N 1334.54 -4.39533 -5.35521 0
M  V30 14060 N 1336.33 -3.42974 -4.45337 0
M  V30 14061 H 1328.49 -1.93634 -0.872916 0
M  V30 14062 H 1330.75 -0.836663 -0.445757 0
M  V30 14063 H 1330.45 -2.78158 -2.15223 0
M  V30 14064 H 1330.33 -1.58022 -3.42504 0
M  V30 14065 H 1332.72 -0.773665 -2.84778 0
M  V30 14066 H 1332.8 -2.00894 -1.58352 0
M  V30 14067 H 1332.44 -3.81331 -3.35484 0
M  V30 14068 H 1332.37 -2.54898 -4.60798 0
M  V30 14069 H 1334.86 -2.17189 -3.09253 0
M  V30 14070 H 1335.17 -4.93863 -5.94407 0
M  V30 14071 H 1333.52 -4.43609 -5.3501 0
M  V30 14072 H 1336.71 -2.75881 -3.78163 0
M  V30 14073 H 1336.88 -4.02028 -5.0821 0
M  V30 14074 N 1330.29 1.35952 -0.797165 0
M  V30 14075 C 1331.22 2.32506 -0.215277 0
M  V30 14076 C 1332.2 1.57023 0.654046 0
M  V30 14077 O 1333.39 1.85139 0.586268 0
M  V30 14078 C 1330.52 3.41266 0.644557 0
M  V30 14079 C 1329.47 4.27816 -0.125501 0
M  V30 14080 C 1328.8 5.27813 0.855428 0
M  V30 14081 C 1330.1 5.05367 -1.31913 0
M  V30 14082 H 1331.79 2.8142 -1.02193 0
M  V30 14083 H 1329.34 1.35303 -0.492862 0
M  V30 14084 H 1331.29 4.07808 1.06163 0
M  V30 14085 H 1330.01 2.90938 1.484 0
M  V30 14086 H 1328.67 3.62841 -0.523639 0
M  V30 14087 H 1328.32 4.73755 1.69011 0
M  V30 14088 H 1328.02 5.86589 0.344566 0
M  V30 14089 H 1329.54 5.97227 1.2709 0
M  V30 14090 H 1330.96 5.64907 -0.977418 0
M  V30 14091 H 1329.36 5.73593 -1.76382 0
M  V30 14092 H 1330.43 4.36558 -2.11057 0
M  V30 14093 N 1331.77 0.549846 1.47697 0
M  V30 14094 C 1332.7 -0.190364 2.32723 0
M  V30 14095 C 1333.68 -0.915933 1.43334 0
M  V30 14096 O 1334.86 -0.897838 1.72199 0
M  V30 14097 C 1331.99 -1.22545 3.24961 0
M  V30 14098 C 1330.95 -0.616805 4.23532 0
M  V30 14099 C 1330.27 -1.75599 5.05044 0
M  V30 14100 C 1331.57 0.424595 5.20571 0
M  V30 14101 H 1333.27 0.519461 2.94859 0
M  V30 14102 H 1330.81 0.251259 1.41791 0
M  V30 14103 H 1332.77 -1.75139 3.83281 0
M  V30 14104 H 1331.49 -1.96512 2.60865 0
M  V30 14105 H 1330.15 -0.112224 3.66428 0
M  V30 14106 H 1329.8 -2.48453 4.37356 0
M  V30 14107 H 1329.5 -1.35456 5.71774 0
M  V30 14108 H 1331.02 -2.28533 5.6622 0
M  V30 14109 H 1332.44 -0.0150025 5.73298 0
M  V30 14110 H 1330.83 0.7445 5.95464 0
M  V30 14111 H 1331.9 1.32318 4.66497 0
M  V30 14112 N 1333.25 -1.54984 0.285932 0
M  V30 14113 C 1334.66 -1.59455 -0.0679061 0
M  V30 14114 C 1334.86 -1.30308 -1.53695 0
M  V30 14115 O 1333.92 -1.06918 -2.28746 0
M  V30 14116 C 1335.23 -2.9903 0.316469 0
M  V30 14117 C 1336.78 -3.11885 0.263982 0
M  V30 14118 C 1337.25 -4.53744 0.622956 0
M  V30 14119 N 1338.75 -4.59618 0.574917 0
M  V30 14120 C 1339.48 -5.67429 0.825339 0
M  V30 14121 N 1338.98 -6.83341 1.14094 0
M  V30 14122 N 1340.77 -5.57028 0.75341 0
M  V30 14123 H 1332.92 -1.72194 1.2435 0
M  V30 14124 H 1335.18 -0.80348 0.503114 0
M  V30 14125 H 1334.89 -3.25232 1.33855 0
M  V30 14126 H 1334.76 -3.75688 -0.337371 0
M  V30 14127 H 1337.15 -2.85441 -0.748832 0
M  V30 14128 H 1337.23 -2.37416 0.952233 0
M  V30 14129 H 1336.88 -4.80915 1.63351 0
M  V30 14130 H 1336.81 -5.26528 -0.0872039 0
M  V30 14131 H 1339.3 -3.76356 0.341305 0
M  V30 14132 H 1339.61 -7.61471 1.3184 0
M  V30 14133 H 1337.95 -6.8493 1.17883 0
M  V30 14134 H 1341.15 -4.6535 0.506611 0
M  V30 14135 H 1341.32 -6.4097 0.95195 0
M  V30 14136 N 1334.72 -0.0133892 -1.57594 0
M  V30 14137 C 1335.95 0.679255 -1.95432 0
M  V30 14138 C 1336.37 1.66558 -0.889028 0
M  V30 14139 O 1335.72 1.82031 0.130755 0
M  V30 14140 C 1335.78 1.39943 -3.33314 0
M  V30 14141 O 1335.5 0.452643 -4.35755 0
M  V30 14142 C 1337 2.18535 -3.85691 0
M  V30 14143 H 1334.22 0.188337 -0.644026 0
M  V30 14144 H 1336.76 -0.0684861 -2.04385 0
M  V30 14145 H 1334.92 2.0987 -3.25628 0
M  V30 14146 H 1335.33 0.962243 -5.15598 0
M  V30 14147 H 1336.8 2.64403 -4.84557 0
M  V30 14148 H 1337.28 3.01779 -3.19102 0
M  V30 14149 H 1337.89 1.53598 -3.96595 0
M  V30 14150 N 1336.2 1.55448 0.259558 0
M  V30 14151 C 1337.17 1.88459 1.30445 0
M  V30 14152 C 1338.17 0.760096 1.41701 0
M  V30 14153 O 1339.36 1.02819 1.4062 0
M  V30 14154 C 1336.49 2.10181 2.68397 0
M  V30 14155 H 1337.68 2.81877 1.02398 0
M  V30 14156 H 1335.23 1.48145 0.498262 0
M  V30 14157 H 1335.97 1.19189 3.01603 0
M  V30 14158 H 1335.75 2.92066 2.6161 0
M  V30 14159 H 1337.24 2.36947 3.43869 0
M  V30 14160 N 1337.68 -0.524672 1.4861 0
M  V30 14161 C 1338.63 -1.62872 1.63527 0
M  V30 14162 C 1339.6 -1.59097 0.477202 0
M  V30 14163 O 1340.78 -1.77443 0.701341 0
M  V30 14164 C 1337.92 -3.01116 1.68592 0
M  V30 14165 C 1337.04 -3.15085 2.95542 0
M  V30 14166 C 1336.17 -4.4392 2.91734 0
M  V30 14167 C 1335.21 -4.51436 4.13366 0
M  V30 14168 N 1334.35 -5.71667 4.07605 0
M  V30 14169 H 1339.19 -1.49462 2.57808 0
M  V30 14170 H 1336.72 -0.727578 1.27846 0
M  V30 14171 H 1338.68 -3.81212 1.6951 0
M  V30 14172 H 1337.31 -3.13285 0.777975 0
M  V30 14173 H 1336.36 -2.28207 3.04345 0
M  V30 14174 H 1337.68 -3.165 3.85524 0
M  V30 14175 H 1336.83 -5.32312 2.91083 0
M  V30 14176 H 1335.57 -4.45034 1.9949 0
M  V30 14177 H 1334.57 -3.6145 4.14287 0
M  V30 14178 H 1335.8 -4.52057 5.06776 0
M  V30 14179 H 1333.74 -5.73668 3.18184 0
M  V30 14180 H 1333.66 -5.74599 4.91297 0
M  V30 14181 H 1334.93 -6.62331 4.1102 0
M  V30 14182 N 1339.16 -1.37287 -0.77395 0
M  V30 14183 C 1340.11 -1.32955 -1.90855 0
M  V30 14184 C 1341.1 -0.218695 -1.67982 0
M  V30 14185 O 1342.31 -0.386594 -1.75799 0
M  V30 14186 H 1338.68 -0.414289 -0.62759 0
M  V30 14187 H 1340.65 -2.2874 -1.91626 0
M  V30 14188 C 1339.4 -1.15121 -3.28089 0
M  V30 14189 H 1338.72 -1.99852 -3.46264 0
M  V30 14190 H 1340.16 -1.1614 -4.07784 0
M  V30 14191 C 1338.62 0.14327 -3.36595 0
M  V30 14192 O 1339.15 1.12763 -3.85548 0
M  V30 14193 N 1337.36 0.193219 -2.89957 0
M  V30 14194 H 1336.91 -0.608471 -2.50311 0
M  V30 14195 H 1336.86 1.05897 -2.96029 0
M  V30 14196 N 1340.64 0.999871 -1.21821 0
M  V30 14197 C 1341.57 2.08597 -0.925334 0
M  V30 14198 C 1342.55 1.62087 0.129103 0
M  V30 14199 O 1343.73 1.885 -0.000975316 0
M  V30 14200 C 1340.86 3.36443 -0.390388 0
M  V30 14201 C 1339.9 4.01869 -1.42842 0
M  V30 14202 S 1340.74 4.43618 -2.99938 0
M  V30 14203 C 1341.89 5.74644 -2.48064 0
M  V30 14204 H 1342.13 2.33119 -1.84507 0
M  V30 14205 H 1339.66 1.13339 -1.04851 0
M  V30 14206 H 1341.62 4.10405 -0.0883221 0
M  V30 14207 H 1340.28 3.09963 0.508115 0
M  V30 14208 H 1339.47 4.93902 -1.00385 0
M  V30 14209 H 1339.07 3.34202 -1.67883 0
M  V30 14210 H 1341.37 6.50642 -1.88869 0
M  V30 14211 H 1342.31 6.21919 -3.3856 0
M  V30 14212 H 1342.72 5.31709 -1.89593 0
M  V30 14213 N 1342.11 1.02678 1.19562 0
M  V30 14214 C 1343.08 0.610407 2.20922 0
M  V30 14215 C 1344.08 -0.324858 1.57484 0
M  V30 14216 O 1345.27 -0.112153 1.73839 0
M  V30 14217 C 1342.4 -0.107115 3.40732 0
M  V30 14218 H 1343.59 1.50722 2.59274 0
M  V30 14219 H 1341.15 0.817725 1.33203 0
M  V30 14220 H 1341.88 -1.01837 3.07896 0
M  V30 14221 H 1341.67 0.564901 3.88009 0
M  V30 14222 H 1343.16 -0.385423 4.15818 0
M  V30 14223 N 1343.59 -1.35528 0.804364 0
M  V30 14224 C 1344.54 -2.31728 0.20125 0
M  V30 14225 C 1345.53 -1.56527 -0.647751 0
M  V30 14226 O 1346.74 -1.71672 -0.541163 0
M  V30 14227 H 1343.12 -0.750572 0.0463165 0
M  V30 14228 H 1345.09 -2.80142 1.02777 0
M  V30 14229 C 1343.84 -3.41807 -0.637429 0
M  V30 14230 H 1343.16 -3.99799 0.00651699 0
M  V30 14231 H 1344.6 -4.11403 -1.02585 0
M  V30 14232 C 1343.06 -2.84655 -1.80202 0
M  V30 14233 O 1343.59 -2.78026 -2.89939 0
M  V30 14234 N 1341.79 -2.41735 -1.61285 0
M  V30 14235 H 1341.34 -2.47327 -0.720231 0
M  V30 14236 H 1341.3 -2.03844 -2.39364 0
M  V30 14237 N 1345.07 -0.557671 -1.47404 0
M  V30 14238 C 1346 0.178019 -2.3282 0
M  V30 14239 C 1346.98 0.908318 -1.43818 0
M  V30 14240 O 1348.17 0.888693 -1.72673 0
M  V30 14241 C 1345.3 1.2082 -3.25607 0
M  V30 14242 C 1344.25 0.594335 -4.23853 0
M  V30 14243 C 1343.58 1.72919 -5.05968 0
M  V30 14244 C 1344.88 -0.452196 -5.20339 0
M  V30 14245 H 1346.57 -0.535091 -2.9458 0
M  V30 14246 H 1344.12 -0.258775 -1.41656 0
M  V30 14247 H 1346.07 1.73104 -3.84204 0
M  V30 14248 H 1344.79 1.95126 -2.61903 0
M  V30 14249 H 1343.45 0.0927898 -3.66483 0
M  V30 14250 H 1343.1 2.4613 -4.38668 0
M  V30 14251 H 1342.8 1.32422 -5.72484 0
M  V30 14252 H 1344.33 2.25527 -5.67424 0
M  V30 14253 H 1345.74 -0.0154011 -5.73298 0
M  V30 14254 H 1344.14 -0.776068 -5.95061 0
M  V30 14255 H 1345.21 -1.34791 -4.65789 0
M  V30 14256 N 1346.55 1.54831 -0.294147 0
M  V30 14257 C 1347.77 2.04873 0.32276 0
M  V30 14258 C 1348.2 1.17034 1.47257 0
M  V30 14259 O 1347.56 0.172949 1.80473 0
M  V30 14260 C 1347.61 3.52431 0.76319 0
M  V30 14261 O 1346.71 3.67635 1.86865 0
M  V30 14262 H 1346.05 0.660926 0.0638162 0
M  V30 14263 H 1348.58 1.99944 -0.433995 0
M  V30 14264 H 1348.59 3.94155 1.05385 0
M  V30 14265 H 1347.27 4.15827 -0.0779464 0
M  V30 14266 H 1345.84 3.37816 1.57907 0
M  V30 14267 N 1348.03 0.0217466 1.57585 0
M  V30 14268 C 1349.28 -0.657187 1.91116 0
M  V30 14269 C 1349.6 -1.7309 0.898039 0
M  V30 14270 O 1348.87 -1.95803 -0.0615116 0
M  V30 14271 H 1347.45 -0.245732 0.705425 0
M  V30 14272 H 1350.11 0.0678096 1.94782 0
M  V30 14273 H 1349.2 -1.11462 2.91518 0
M  V30 14274 N 1349.51 -1.55583 -0.251311 0
M  V30 14275 C 1350.75 -1.77471 -0.981418 0
M  V30 14276 C 1351.08 -0.586228 -1.85141 0
M  V30 14277 O 1350.36 0.415623 -1.90007 0
M  V30 14278 C 1350.64 -3.09204 -1.84567 0
M  V30 14279 C 1350.5 -4.38448 -1.00417 0
M  V30 14280 C 1351.81 -3.37133 -2.82895 0
M  V30 14281 H 1348.93 -0.645664 -0.355369 0
M  V30 14282 H 1351.58 -1.88318 -0.252228 0
M  V30 14283 H 1349.73 -3.00087 -2.46738 0
M  V30 14284 H 1351.4 -4.5955 -0.40149 0
M  V30 14285 H 1349.64 -4.32703 -0.308365 0
M  V30 14286 H 1350.31 -5.26995 -1.64258 0
M  V30 14287 H 1352.79 -3.46183 -2.3086 0
M  V30 14288 H 1351.66 -4.30531 -3.40491 0
M  V30 14289 H 1351.92 -2.57829 -3.59133 0
M  V30 14290 N 1350.98 0.516783 -1.48886 0
M  V30 14291 C 1351.93 1.64093 -1.64853 0
M  V30 14292 C 1352.93 1.61392 -0.514685 0
M  V30 14293 O 1354.13 1.6609 -0.693831 0
M  V30 14294 H 1350.51 0.543672 -0.519543 0
M  V30 14295 H 1352.48 1.47774 -2.5924 0
M  V30 14296 C 1351.23 3.02308 -1.71771 0
M  V30 14297 H 1350.55 3.05085 -2.58385 0
M  V30 14298 H 1351.99 3.80544 -1.86982 0
M  V30 14299 C 1350.45 3.33757 -0.459136 0
M  V30 14300 O 1350.98 3.99475 0.422177 0
M  V30 14301 N 1349.18 2.88756 -0.326837 0
M  V30 14302 H 1348.73 2.35452 -1.045 0
M  V30 14303 H 1348.69 3.10166 0.514213 0
M  V30 14304 N 1352.46 1.37696 0.766659 0
M  V30 14305 C 1353.71 1.32922 1.52237 0
M  V30 14306 C 1354.03 -0.0842833 1.94818 0
M  V30 14307 O 1353.3 -1.02934 1.66677 0
M  V30 14308 H 1351.88 0.489049 0.564659 0
M  V30 14309 H 1354.54 1.72238 0.912142 0
M  V30 14310 H 1353.64 1.97158 2.4194 0
M  V30 14311 N 1353.94 -0.993397 1.22349 0
M  V30 14312 C 1355.16 -1.77373 1.07488 0
M  V30 14313 C 1355.59 -1.84418 -0.37034 0
M  V30 14314 O 1354.95 -1.29629 -1.26752 0
M  V30 14315 C 1355 -3.18538 1.69014 0
M  V30 14316 O 1354.1 -4.01463 0.943474 0
M  V30 14317 H 1353.44 -0.546209 0.37756 0
M  V30 14318 H 1355.97 -1.24792 1.62136 0
M  V30 14319 H 1355.98 -3.6917 1.73717 0
M  V30 14320 H 1354.66 -3.12725 2.74182 0
M  V30 14321 H 1353.23 -3.59998 0.972415 0
M  V30 14322 N 1355.42 -1.03311 -1.19015 0
M  V30 14323 C 1356.83 -0.761079 -1.70483 0
M  V30 14324 C 1357.18 0.718851 -1.82557 0
M  V30 14325 O 1356.3 1.56006 -1.4997 0
M  V30 14326 C 1356.9 -1.37492 -3.09647 0
M  V30 14327 C 1355.46 -1.15138 -3.58358 0
M  V30 14328 C 1354.61 -1.47034 -2.35109 0
M  V30 14329 H 1357.56 -1.2005 -1.03797 0
M  V30 14330 H 1357.58 -0.774115 -3.72542 0
M  V30 14331 H 1357.09 -2.45203 -3.00828 0
M  V30 14332 H 1355.19 -0.0926822 -3.72485 0
M  V30 14333 H 1355.3 -1.84307 -4.4223 0
M  V30 14334 H 1353.67 -0.889794 -2.38652 0
M  V30 14335 H 1354.45 -2.55837 -2.28916 0
M  V30 14336 N 1356.9 1.35099 -0.81154 0
M  V30 14337 C 1357.83 2.28468 -0.183012 0
M  V30 14338 C 1358.84 1.50509 0.620553 0
M  V30 14339 O 1360.03 1.7268 0.4521 0
M  V30 14340 C 1357.13 3.30201 0.762933 0
M  V30 14341 C 1356.3 4.374 0.00466561 0
M  V30 14342 C 1355.36 5.18961 0.869832 0
M  V30 14343 O 1354.39 5.68306 0.318964 0
M  V30 14344 N 1355.59 5.37555 2.19123 0
M  V30 14345 H 1358.35 2.83046 -0.985132 0
M  V30 14346 H 1355.92 1.47502 -0.667449 0
M  V30 14347 H 1357.91 3.81659 1.34606 0
M  V30 14348 H 1356.48 2.76101 1.46584 0
M  V30 14349 H 1355.7 3.8681 -0.759702 0
M  V30 14350 H 1356.99 5.06159 -0.517739 0
M  V30 14351 H 1356.38 4.99118 2.66266 0
M  V30 14352 H 1354.94 5.92174 2.72348 0
M  V30 14353 N 1358.37 0.56548 1.47106 0
M  V30 14354 C 1359.6 0.0476763 2.07345 0
M  V30 14355 C 1360.02 -1.24032 1.41413 0
M  V30 14356 O 1359.38 -1.74498 0.491941 0
M  V30 14357 C 1359.43 -0.122618 3.60391 0
M  V30 14358 O 1358.53 -1.18326 3.9506 0
M  V30 14359 H 1357.87 0.0550419 0.661715 0
M  V30 14360 H 1360.4 0.78352 1.89003 0
M  V30 14361 H 1360.41 -0.334227 4.06629 0
M  V30 14362 H 1359.09 0.81807 4.07775 0
M  V30 14363 H 1357.67 -0.951481 3.60557 0
M  V30 14364 N 1359.85 -1.54672 0.302354 0
M  V30 14365 C 1360.82 -2.22246 -0.560283 0
M  V30 14366 C 1361.82 -1.20895 -1.06023 0
M  V30 14367 O 1363.01 -1.45621 -0.956047 0
M  V30 14368 C 1360.14 -2.9099 -1.77589 0
M  V30 14369 H 1361.33 -2.99885 0.0301274 0
M  V30 14370 H 1358.88 -1.56209 0.0532036 0
M  V30 14371 H 1359.62 -2.17433 -2.4061 0
M  V30 14372 H 1359.4 -3.65288 -1.42503 0
M  V30 14373 H 1360.89 -3.42535 -2.38871 0
M  V30 14374 N 1361.33 -0.0301034 -1.57571 0
M  V30 14375 C 1362.26 0.94977 -2.13311 0
M  V30 14376 C 1363.24 1.33865 -1.04948 0
M  V30 14377 O 1364.43 1.4171 -1.32786 0
M  V30 14378 C 1361.56 2.23178 -2.66099 0
M  V30 14379 C 1360.51 1.98362 -3.79258 0
M  V30 14380 C 1359.84 3.32836 -4.18479 0
M  V30 14381 C 1361.14 1.32201 -5.05292 0
M  V30 14382 H 1362.83 0.485562 -2.95436 0
M  V30 14383 H 1360.38 0.232116 -1.42117 0
M  V30 14384 H 1362.33 2.92108 -3.03728 0
M  V30 14385 H 1361.05 2.71766 -1.81137 0
M  V30 14386 H 1359.71 1.31849 -3.42069 0
M  V30 14387 H 1359.36 3.79185 -3.30496 0
M  V30 14388 H 1359.06 3.17037 -4.94733 0
M  V30 14389 H 1360.58 4.03032 -4.58691 0
M  V30 14390 H 1362 1.91133 -5.40501 0
M  V30 14391 H 1360.4 1.26797 -5.86551 0
M  V30 14392 H 1361.47 0.29511 -4.84001 0
M  V30 14393 N 1362.81 1.55714 0.243056 0
M  V30 14394 C 1364.09 1.68483 0.993614 0
M  V30 14395 C 1364.47 0.571112 2.03228 0
M  V30 14396 O 1363.81 -0.42491 2.24515 0
M  V30 14397 C 1364.02 3.0894 1.62349 0
M  V30 14398 C 1365.37 3.67663 2.12389 0
M  V30 14399 O 1366.4 3.11764 1.72283 0
M  V30 14400 O 1365.25 4.65664 2.8604 0
M  V30 14401 H 1362.35 0.685415 0.462747 0
M  V30 14402 H 1364.89 1.68043 0.236538 0
M  V30 14403 H 1363.67 3.81451 0.87241 0
M  V30 14404 H 1363.29 3.13407 2.44667 0
M  V30 14405 N 1364.29 -0.50888 1.49158 0
M  V30 14406 C 1365.53 -1.2635 1.58247 0
M  V30 14407 C 1365.86 -1.92677 0.265654 0
M  V30 14408 O 1365.12 -1.80931 -0.745818 0
M  V30 14409 C 1365.42 -2.35875 2.6851 0
M  V30 14410 C 1365.08 -1.87059 4.10268 0
M  V30 14411 C 1363.74 -1.73464 4.48847 0
M  V30 14412 C 1366.1 -1.50429 4.9902 0
M  V30 14413 C 1363.42 -1.21606 5.73959 0
M  V30 14414 C 1365.78 -1.00026 6.24642 0
M  V30 14415 C 1364.44 -0.850646 6.62058 0
M  V30 14416 H 1363.71 -0.462346 0.579066 0
M  V30 14417 H 1366.36 -0.565528 1.82959 0
M  V30 14418 H 1364.66 -3.11428 2.37739 0
M  V30 14419 H 1366.36 -2.9395 2.72753 0
M  V30 14420 H 1362.95 -1.98597 3.79812 0
M  V30 14421 H 1367.13 -1.59782 4.69876 0
M  V30 14422 H 1362.39 -1.08728 6.01655 0
M  V30 14423 H 1366.56 -0.707608 6.92796 0
M  V30 14424 H 1364.19 -0.446627 7.58887 0
M  V30 14425 N 1365.76 -1.381 -0.759346 0
M  V30 14426 C 1367.01 -1.33311 -1.51364 0
M  V30 14427 C 1367.33 0.0761325 -1.95452 0
M  V30 14428 O 1368.53 0.246541 -2.70378 0
M  V30 14429 C 1366.99 -2.34067 -2.73387 0
M  V30 14430 C 1366.6 -3.80583 -2.36348 0
M  V30 14431 C 1368.34 -2.38311 -3.51295 0
M  V30 14432 C 1366.25 -4.73039 -3.54948 0
M  V30 14433 H 1365.18 -0.495512 -0.568317 0
M  V30 14434 H 1367.83 -1.63625 -0.830602 0
M  V30 14435 H 1366.21 -1.96788 -3.43643 0
M  V30 14436 H 1367.38 -4.26769 -1.73796 0
M  V30 14437 H 1365.7 -3.79403 -1.71587 0
M  V30 14438 H 1368.3 -3.04586 -4.39467 0
M  V30 14439 H 1368.64 -1.40034 -3.92041 0
M  V30 14440 H 1369.17 -2.74361 -2.88047 0
M  V30 14441 H 1365.91 -5.7249 -3.19273 0
M  V30 14442 H 1365.43 -4.3155 -4.16563 0
M  V30 14443 H 1367.11 -4.90775 -4.21603 0
M  V30 14444 N 1367.24 0.986894 -1.22875 0
M  V30 14445 C 1368.66 1.25185 -0.989997 0
M  V30 14446 C 1368.86 1.99057 0.31282 0
M  V30 14447 O 1367.91 2.30361 1.03392 0
M  V30 14448 C 1369.23 2.05775 -2.19265 0
M  V30 14449 C 1370.78 2.18938 -2.23686 0
M  V30 14450 C 1371.25 3.02917 -3.43519 0
M  V30 14451 N 1372.74 3.10503 -3.43718 0
M  V30 14452 C 1373.48 3.75789 -4.33094 0
M  V30 14453 N 1372.97 4.42952 -5.32696 0
M  V30 14454 N 1374.77 3.72611 -4.20854 0
M  V30 14455 H 1366.92 0.491816 -2.06628 0
M  V30 14456 H 1369.18 0.279856 -0.905751 0
M  V30 14457 H 1368.89 1.58864 -3.13776 0
M  V30 14458 H 1368.76 3.06529 -2.19818 0
M  V30 14459 H 1371.15 2.65061 -1.29718 0
M  V30 14460 H 1371.23 1.17595 -2.27168 0
M  V30 14461 H 1370.87 2.57493 -4.3779 0
M  V30 14462 H 1370.8 4.04415 -3.37277 0
M  V30 14463 H 1373.29 2.62709 -2.71647 0
M  V30 14464 H 1373.61 4.90527 -5.97162 0
M  V30 14465 H 1371.95 4.41681 -5.36603 0
M  V30 14466 H 1375.14 3.19305 -3.42289 0
M  V30 14467 H 1375.31 4.2321 -4.90711 0
M  V30 14468 N 1368.72 1.0394 1.18466 0
M  V30 14469 C 1370.14 0.758404 1.40429 0
M  V30 14470 C 1370.34 -0.652603 1.90639 0
M  V30 14471 O 1369.39 -1.417 2.08991 0
M  V30 14472 C 1370.71 1.80343 2.40618 0
M  V30 14473 C 1372.25 1.82419 2.54347 0
M  V30 14474 C 1372.73 2.8591 3.57798 0
M  V30 14475 N 1374.22 2.84793 3.65304 0
M  V30 14476 C 1374.95 3.61521 4.45073 0
M  V30 14477 N 1374.45 4.47997 5.28461 0
M  V30 14478 N 1376.24 3.50016 4.39824 0
M  V30 14479 H 1368.39 1.94998 0.842 0
M  V30 14480 H 1370.66 0.843649 0.43239 0
M  V30 14481 H 1370.36 2.81547 2.10771 0
M  V30 14482 H 1370.24 1.63451 3.39947 0
M  V30 14483 H 1372.62 0.818872 2.83511 0
M  V30 14484 H 1372.71 2.03388 1.55136 0
M  V30 14485 H 1372.35 3.8662 3.29375 0
M  V30 14486 H 1372.28 2.62196 4.56684 0
M  V30 14487 H 1374.77 2.22082 3.05758 0
M  V30 14488 H 1375.08 5.03257 5.86475 0
M  V30 14489 H 1373.43 4.52065 5.27885 0
M  V30 14490 H 1376.62 2.81862 3.73726 0
M  V30 14491 H 1376.79 4.10063 5.0175 0
M  V30 14492 N 1370.2 -1.34667 0.818693 0
M  V30 14493 C 1371.11 -2.33375 0.239429 0
M  V30 14494 C 1372.12 -1.62428 -0.623957 0
M  V30 14495 O 1373.3 -1.94223 -0.532854 0
M  V30 14496 C 1370.37 -3.41598 -0.59258 0
M  V30 14497 C 1369.43 -4.28301 0.292712 0
M  V30 14498 C 1368.66 -5.31356 -0.499682 0
M  V30 14499 O 1368.88 -5.43426 -1.73334 0
M  V30 14500 O 1367.82 -6.01789 0.115778 0
M  V30 14501 H 1371.64 -2.84738 1.05631 0
M  V30 14502 H 1369.23 -1.37651 0.58074 0
M  V30 14503 H 1371.11 -4.07692 -1.06607 0
M  V30 14504 H 1369.78 -2.92486 -1.38685 0
M  V30 14505 H 1368.69 -3.65145 0.81361 0
M  V30 14506 H 1370.02 -4.80843 1.05123 0
M  V30 14507 N 1371.68 -0.573274 -1.46804 0
M  V30 14508 C 1372.9 -0.0586717 -2.07317 0
M  V30 14509 C 1373.33 1.2328 -1.42069 0
M  V30 14510 O 1372.68 1.74235 -0.501188 0
M  V30 14511 C 1372.73 0.103503 -3.60451 0
M  V30 14512 O 1371.84 1.16229 -3.95682 0
M  V30 14513 H 1371.18 -0.0585504 -0.661414 0
M  V30 14514 H 1373.71 -0.793532 -1.88585 0
M  V30 14515 H 1373.72 0.312658 -4.068 0
M  V30 14516 H 1372.39 -0.839684 -4.07335 0
M  V30 14517 H 1370.97 0.932347 -3.61056 0
M  V30 14518 N 1373.15 1.5451 -0.310553 0
M  V30 14519 C 1374.38 2.05204 0.301013 0
M  V30 14520 C 1374.8 1.1859 1.46007 0
M  V30 14521 O 1374.16 0.192081 1.8028 0
M  V30 14522 C 1374.21 3.53221 0.725767 0
M  V30 14523 O 1373.31 3.69596 1.82955 0
M  V30 14524 H 1372.66 0.661566 0.0568026 0
M  V30 14525 H 1375.19 1.99473 -0.455178 0
M  V30 14526 H 1375.2 3.9525 1.01198 0
M  V30 14527 H 1373.87 4.15721 -0.122046 0
M  V30 14528 H 1372.45 3.39472 1.54315 0
M  V30 14529 N 1374.63 0.0384594 1.57553 0
M  V30 14530 C 1375.88 -0.639085 1.92467 0
M  V30 14531 C 1376.21 -1.71239 0.916014 0
M  V30 14532 O 1375.49 -1.94408 -0.0598928 0
M  V30 14533 C 1375.77 -1.24693 3.37822 0
M  V30 14534 C 1375.62 -0.182544 4.49429 0
M  V30 14535 C 1376.94 -2.16226 3.8332 0
M  V30 14536 H 1374.06 -0.230852 0.699912 0
M  V30 14537 H 1376.7 0.0976276 1.89749 0
M  V30 14538 H 1374.85 -1.87481 3.40269 0
M  V30 14539 H 1376.53 0.448622 4.59113 0
M  V30 14540 H 1374.77 0.4909 4.31013 0
M  V30 14541 H 1375.44 -0.647626 5.48188 0
M  V30 14542 H 1377.92 -1.63413 3.82669 0
M  V30 14543 H 1376.79 -2.55705 4.85702 0
M  V30 14544 H 1377.05 -3.05722 3.19353 0
M  V30 14545 N 1376.11 -1.55841 -0.234795 0
M  V30 14546 C 1377.34 -1.82043 -0.976937 0
M  V30 14547 C 1377.75 -0.613552 -1.78975 0
M  V30 14548 O 1377.09 0.427271 -1.78662 0
M  V30 14549 C 1377.15 -3.0178 -1.95369 0
M  V30 14550 C 1376.82 -4.3732 -1.32666 0
M  V30 14551 C 1377.82 -5.14847 -0.723107 0
M  V30 14552 C 1375.5 -4.8403 -1.3424 0
M  V30 14553 C 1377.49 -6.37238 -0.143646 0
M  V30 14554 C 1375.18 -6.06367 -0.759087 0
M  V30 14555 C 1376.18 -6.82811 -0.16075 0
M  V30 14556 O 1375.87 -8.02836 0.41352 0
M  V30 14557 H 1375.6 -0.609424 -0.292537 0
M  V30 14558 H 1378.15 -2.03758 -0.259216 0
M  V30 14559 H 1376.38 -2.7585 -2.71005 0
M  V30 14560 H 1378.07 -3.14968 -2.56027 0
M  V30 14561 H 1378.84 -4.79873 -0.703371 0
M  V30 14562 H 1374.72 -4.24512 -1.7975 0
M  V30 14563 H 1378.26 -6.96847 0.324002 0
M  V30 14564 H 1374.16 -6.40816 -0.776191 0
M  V30 14565 H 1374.93 -8.17926 0.306554 0
M  V30 14566 N 1377.59 0.500963 -1.49426 0
M  V30 14567 C 1378.87 1.26231 -1.49416 0
M  V30 14568 C 1379.25 2.0993 -0.221908 0
M  V30 14569 O 1378.59 2.14198 0.795712 0
M  V30 14570 C 1378.8 2.11899 -2.77308 0
M  V30 14571 C 1380.15 2.71086 -3.26799 0
M  V30 14572 O 1381.18 2.22166 -2.78425 0
M  V30 14573 O 1380.04 3.60141 -4.11049 0
M  V30 14574 H 1377.13 0.571224 -0.598024 0
M  V30 14575 H 1379.68 0.51523 -1.61689 0
M  V30 14576 H 1378.45 1.50027 -3.61397 0
M  V30 14577 H 1378.07 2.93799 -2.67896 0
M  V30 14578 N 1379.07 1.38501 0.752011 0
M  V30 14579 C 1380.32 1.34112 1.50655 0
M  V30 14580 C 1380.63 -0.0657661 1.95489 0
M  V30 14581 O 1381.84 -0.232199 2.70505 0
M  V30 14582 C 1380.29 2.35514 2.72142 0
M  V30 14583 C 1379.9 3.81831 2.34326 0
M  V30 14584 C 1381.64 2.40171 3.50026 0
M  V30 14585 C 1379.55 4.74915 3.52434 0
M  V30 14586 H 1378.48 0.498519 0.565681 0
M  V30 14587 H 1381.13 1.64064 0.821913 0
M  V30 14588 H 1379.51 1.98607 3.42595 0
M  V30 14589 H 1380.69 4.27685 1.7153 0
M  V30 14590 H 1379 3.80308 1.69573 0
M  V30 14591 H 1381.6 3.06913 4.37845 0
M  V30 14592 H 1381.94 1.42111 3.91293 0
M  V30 14593 H 1382.48 2.75884 2.86588 0
M  V30 14594 H 1379.21 5.74176 3.16232 0
M  V30 14595 H 1378.73 4.33753 4.14268 0
M  V30 14596 H 1380.41 4.93003 4.18995 0
M  V30 14597 N 1380.55 -0.980364 1.23396 0
M  V30 14598 C 1381.77 -1.76223 1.09363 0
M  V30 14599 C 1382.2 -1.84801 -0.350759 0
M  V30 14600 O 1381.55 -1.30966 -1.2537 0
M  V30 14601 C 1381.6 -3.16728 1.72383 0
M  V30 14602 O 1380.71 -4.00439 0.986002 0
M  V30 14603 H 1380.05 -0.542174 0.383332 0
M  V30 14604 H 1382.58 -1.23066 1.6345 0
M  V30 14605 H 1382.59 -3.67307 1.77623 0
M  V30 14606 H 1381.26 -3.098 2.77483 0
M  V30 14607 H 1379.84 -3.58946 1.01054 0
M  V30 14608 N 1382.02 -1.04567 -1.17913 0
M  V30 14609 C 1382.93 -0.651674 -2.25367 0
M  V30 14610 C 1383.95 0.32437 -1.7095 0
M  V30 14611 O 1385.13 0.178039 -2.00612 0
M  V30 14612 C 1382.19 -0.0259452 -3.4669 0
M  V30 14613 C 1381.25 -1.05163 -4.1622 0
M  V30 14614 C 1380.48 -0.45567 -5.31751 0
M  V30 14615 O 1380.71 0.736698 -5.65623 0
M  V30 14616 O 1379.64 -1.18684 -5.90083 0
M  V30 14617 H 1383.47 -1.54704 -2.61344 0
M  V30 14618 H 1381.05 -0.816852 -1.25092 0
M  V30 14619 H 1382.93 0.322126 -4.20167 0
M  V30 14620 H 1381.61 0.843165 -3.12526 0
M  V30 14621 H 1380.52 -1.45159 -3.44789 0
M  V30 14622 H 1381.85 -1.89168 -4.54397 0
M  V30 14623 N 1383.5 1.34231 -0.825823 0
M  V30 14624 C 1384.45 2.26916 -0.222038 0
M  V30 14625 C 1385.44 1.48667 0.615382 0
M  V30 14626 O 1386.63 1.7066 0.469487 0
M  V30 14627 C 1383.76 3.37787 0.612785 0
M  V30 14628 C 1382.84 4.23446 -0.235423 0
M  V30 14629 N 1383.23 4.88599 -1.30784 0
M  V30 14630 C 1381.53 4.45995 -0.0202477 0
M  V30 14631 C 1382.23 5.52254 -1.82729 0
M  V30 14632 N 1381.21 5.3171 -1.13074 0
M  V30 14633 H 1385.01 2.74796 -1.04232 0
M  V30 14634 H 1382.52 1.47983 -0.668928 0
M  V30 14635 H 1384.52 4.03159 1.06153 0
M  V30 14636 H 1383.18 2.91457 1.43119 0
M  V30 14637 H 1384.19 4.89528 -1.69066 0
M  V30 14638 H 1380.87 4.10417 0.765761 0
M  V30 14639 H 1382.26 6.14177 -2.72464 0
M  V30 14640 N 1384.98 0.581051 1.46498 0
M  V30 14641 C 1386.4 0.242599 1.57745 0
M  V30 14642 C 1386.6 -1.25508 1.57639 0
M  V30 14643 O 1385.65 -2.0367 1.49247 0
M  V30 14644 C 1386.96 0.890342 2.87217 0
M  V30 14645 C 1388.51 0.863778 3.00845 0
M  V30 14646 C 1388.99 1.49103 4.3305 0
M  V30 14647 N 1390.48 1.4553 4.39745 0
M  V30 14648 C 1391.21 1.91003 5.40653 0
M  V30 14649 N 1390.71 2.44442 6.48244 0
M  V30 14650 N 1392.5 1.8193 5.31844 0
M  V30 14651 H 1384.65 1.55382 1.44811 0
M  V30 14652 H 1386.92 0.649375 0.690664 0
M  V30 14653 H 1386.62 1.94383 2.93101 0
M  V30 14654 H 1386.5 0.397569 3.75099 0
M  V30 14655 H 1388.88 -0.181089 2.94544 0
M  V30 14656 H 1388.96 1.39455 2.14443 0
M  V30 14657 H 1388.61 2.53509 4.40109 0
M  V30 14658 H 1388.54 0.935496 5.18224 0
M  V30 14659 H 1391.03 1.06466 3.62593 0
M  V30 14660 H 1391.34 2.77002 7.2145 0
M  V30 14661 H 1389.69 2.48467 6.49068 0
M  V30 14662 H 1392.88 1.3994 4.46693 0
M  V30 14663 H 1393.05 2.17685 6.10342 0
M  V30 14664 N 1386.46 -1.54343 0.318742 0
M  V30 14665 C 1387.87 -1.59564 -0.034068 0
M  V30 14666 C 1388.07 -1.33539 -1.50896 0
M  V30 14667 O 1387.13 -1.11746 -2.26427 0
M  V30 14668 C 1388.44 -2.98291 0.379827 0
M  V30 14669 C 1389.99 -3.11255 0.330078 0
M  V30 14670 C 1390.47 -4.5232 0.719061 0
M  V30 14671 N 1391.96 -4.58295 0.67228 0
M  V30 14672 C 1392.69 -5.65551 0.945513 0
M  V30 14673 N 1392.19 -6.80767 1.28563 0
M  V30 14674 N 1393.98 -5.55305 0.871394 0
M  V30 14675 H 1386.13 -1.69518 1.27975 0
M  V30 14676 H 1388.39 -0.792627 0.520044 0
M  V30 14677 H 1388.1 -3.22319 1.40724 0
M  V30 14678 H 1387.97 -3.76319 -0.257606 0
M  V30 14679 H 1390.36 -2.86965 -0.688117 0
M  V30 14680 H 1390.44 -2.35342 1.00238 0
M  V30 14681 H 1390.09 -4.77342 1.73515 0
M  V30 14682 H 1390.02 -5.26594 0.0245001 0
M  V30 14683 H 1392.51 -3.75547 0.421059 0
M  V30 14684 H 1392.82 -7.58503 1.47963 0
M  V30 14685 H 1391.17 -6.82275 1.32385 0
M  V30 14686 H 1394.36 -4.64171 0.605205 0
M  V30 14687 H 1394.53 -6.38806 1.08769 0
M  V30 14688 N 1387.94 -0.0468143 -1.5753 0
M  V30 14689 C 1389.16 0.641161 -1.97241 0
M  V30 14690 C 1389.59 1.6384 -0.92401 0
M  V30 14691 O 1388.94 1.80946 0.113229 0
M  V30 14692 C 1388.99 1.30832 -3.36029 0
M  V30 14693 O 1388.1 2.42394 -3.33645 0
M  V30 14694 H 1387.44 0.167035 -0.642647 0
M  V30 14695 H 1389.97 -0.113921 -2.04283 0
M  V30 14696 H 1389.98 1.66102 -3.72658 0
M  V30 14697 H 1388.65 0.57744 -4.11872 0
M  V30 14698 H 1387.23 2.09104 -3.08756 0
M  V30 14699 N 1389.41 1.55964 0.226527 0
M  V30 14700 C 1390.66 1.78745 0.95165 0
M  V30 14701 C 1390.99 0.614714 1.84531 0
M  V30 14702 O 1390.24 -0.401137 1.91545 0
M  V30 14703 C 1390.54 3.07235 1.82597 0
M  V30 14704 C 1390.21 4.37627 1.08596 0
M  V30 14705 C 1388.87 4.73057 0.881531 0
M  V30 14706 C 1391.22 5.1815 0.563019 0
M  V30 14707 C 1388.55 5.86528 0.142172 0
M  V30 14708 C 1390.9 6.3239 -0.162972 0
M  V30 14709 C 1389.57 6.66425 -0.378704 0
M  V30 14710 H 1388.84 0.654075 0.348233 0
M  V30 14711 H 1391.48 1.9023 0.220187 0
M  V30 14712 H 1389.79 2.9085 2.62514 0
M  V30 14713 H 1391.49 3.22063 2.38907 0
M  V30 14714 H 1388.08 4.09806 1.25527 0
M  V30 14715 H 1392.26 4.91218 0.708446 0
M  V30 14716 H 1387.52 6.1139 -0.0352481 0
M  V30 14717 H 1391.69 6.94016 -0.575719 0
M  V30 14718 H 1389.32 7.54196 -0.953549 0
M  V30 14719 N 1390.89 -0.493031 1.4969 0
M  V30 14720 C 1392.12 -1.27046 1.633 0
M  V30 14721 C 1392.54 -1.86278 0.307534 0
M  V30 14722 O 1391.89 -1.68208 -0.707968 0
M  V30 14723 C 1391.94 -2.39501 2.70779 0
M  V30 14724 O 1391.66 -1.82702 3.98185 0
M  V30 14725 C 1393.17 -3.30744 2.95166 0
M  V30 14726 H 1390.39 -0.385042 0.54953 0
M  V30 14727 H 1392.93 -0.590998 1.95774 0
M  V30 14728 H 1391.08 -3.03263 2.41061 0
M  V30 14729 H 1391.5 -2.56588 4.57452 0
M  V30 14730 H 1392.97 -4.05912 3.74085 0
M  V30 14731 H 1393.45 -3.88217 2.05387 0
M  V30 14732 H 1394.06 -2.72741 3.26332 0
M  V30 14733 N 1392.37 -1.38898 -0.744656 0
M  V30 14734 C 1393.32 -1.33342 -1.84943 0
M  V30 14735 C 1394.3 -0.216036 -1.59443 0
M  V30 14736 O 1395.5 -0.452764 -1.71111 0
M  V30 14737 C 1392.63 -1.16966 -3.2276 0
M  V30 14738 C 1391.71 -2.33365 -3.54121 0
M  V30 14739 N 1392.1 -3.58824 -3.56481 0
M  V30 14740 C 1390.4 -2.26112 -3.84434 0
M  V30 14741 C 1391.1 -4.35741 -3.85364 0
M  V30 14742 N 1390.08 -3.65206 -4.02648 0
M  V30 14743 H 1393.88 -2.28321 -1.85059 0
M  V30 14744 H 1391.39 -1.32257 -0.94244 0
M  V30 14745 H 1393.39 -1.11069 -4.01832 0
M  V30 14746 H 1392.05 -0.229288 -3.23889 0
M  V30 14747 H 1393.06 -3.92377 -3.38025 0
M  V30 14748 H 1389.74 -1.40283 -3.93226 0
M  V30 14749 H 1391.13 -5.44445 -3.93738 0
M  V30 14750 N 1393.85 0.973806 -1.23914 0
M  V30 14751 C 1395.07 1.7564 -1.10296 0
M  V30 14752 C 1395.5 1.84984 0.340954 0
M  V30 14753 O 1394.86 1.31629 1.24674 0
M  V30 14754 C 1394.9 3.15809 -1.7406 0
M  V30 14755 O 1394.01 3.99911 -1.00722 0
M  V30 14756 H 1393.35 0.540133 -0.386202 0
M  V30 14757 H 1395.88 1.22197 -1.64101 0
M  V30 14758 H 1395.89 3.66359 -1.79568 0
M  V30 14759 H 1394.56 3.08324 -2.79122 0
M  V30 14760 H 1393.14 3.58405 -1.02956 0
M  V30 14761 N 1395.33 1.05191 1.17357 0
M  V30 14762 C 1396.6 0.675826 1.83554 0
M  V30 14763 C 1396.98 -0.843812 1.93502 0
M  V30 14764 O 1396.33 -1.74975 1.46956 0
M  V30 14765 C 1396.54 1.36481 3.21207 0
M  V30 14766 C 1397.89 1.50285 3.97114 0
M  V30 14767 O 1398.91 1.32382 3.30686 0
M  V30 14768 O 1397.77 1.79562 5.16159 0
M  V30 14769 H 1394.87 0.237898 0.792044 0
M  V30 14770 H 1397.41 1.1515 1.24654 0
M  V30 14771 H 1396.18 2.40156 3.08935 0
M  V30 14772 H 1395.81 0.878491 3.87774 0
M  V30 14773 N 1396.8 -1.33791 0.83293 0
M  V30 14774 C 1398.04 -1.99788 0.431774 0
M  V30 14775 C 1398.41 -1.64566 -0.989046 0
M  V30 14776 O 1399.61 -2.23483 -1.49361 0
M  V30 14777 C 1397.88 -3.51636 0.6393 0
M  V30 14778 S 1399.44 -4.37539 0.332481 0
M  V30 14779 H 1396.26 -0.69214 0.162676 0
M  V30 14780 H 1398.86 -1.629 1.08092 0
M  V30 14781 H 1397.56 -3.74758 1.67286 0
M  V30 14782 H 1397.09 -3.93393 -0.024221 0
M  V30 14783 H 1399.11 -4.88865 -0.850029 0
M  V30 14784 N 1398.28 -0.588812 -1.46187 0
M  V30 14785 C 1399.23 0.140932 -2.30369 0
M  V30 14786 C 1400.2 0.878216 -1.40984 0
M  V30 14787 O 1401.38 0.867678 -1.69929 0
M  V30 14788 C 1398.52 1.14468 -3.25563 0
M  V30 14789 C 1397.64 0.410215 -4.30048 0
M  V30 14790 C 1396.77 1.40203 -5.12364 0
M  V30 14791 C 1395.81 0.65431 -6.08593 0
M  V30 14792 N 1394.95 1.59448 -6.83755 0
M  V30 14793 H 1399.79 -0.582976 -2.92242 0
M  V30 14794 H 1397.33 -0.299302 -1.44023 0
M  V30 14795 H 1399.28 1.73957 -3.79203 0
M  V30 14796 H 1397.91 1.83623 -2.65485 0
M  V30 14797 H 1396.97 -0.299822 -3.79217 0
M  V30 14798 H 1398.28 -0.174043 -4.98496 0
M  V30 14799 H 1397.43 2.06953 -5.70312 0
M  V30 14800 H 1396.17 2.02022 -4.4389 0
M  V30 14801 H 1395.18 -0.0269371 -5.49793 0
M  V30 14802 H 1396.4 0.0414285 -6.79087 0
M  V30 14803 H 1394.35 2.20066 -6.17986 0
M  V30 14804 H 1394.26 1.06318 -7.48487 0
M  V30 14805 H 1395.53 2.25215 -7.46256 0
M  V30 14806 N 1399.76 1.54172 -0.326923 0
M  V30 14807 C 1400.99 2.05512 0.279231 0
M  V30 14808 C 1401.41 1.20131 1.44741 0
M  V30 14809 O 1400.77 0.211191 1.80066 0
M  V30 14810 C 1400.82 3.53971 0.688263 0
M  V30 14811 O 1399.92 3.71516 1.79025 0
M  V30 14812 H 1399.26 0.662131 0.0497826 0
M  V30 14813 H 1401.79 1.98979 -0.476309 0
M  V30 14814 H 1401.8 3.96302 0.970002 0
M  V30 14815 H 1400.48 4.15568 -0.166132 0
M  V30 14816 H 1399.05 3.4109 1.50706 0
M  V30 14817 N 1401.24 0.0551678 1.57503 0
M  V30 14818 C 1402.47 -0.626291 1.96879 0
M  V30 14819 C 1402.88 -1.64677 0.93156 0
M  V30 14820 O 1402.22 -1.83469 -0.0921632 0
M  V30 14821 C 1402.28 -1.36674 3.32506 0
M  V30 14822 C 1401.95 -0.501632 4.54239 0
M  V30 14823 C 1402.94 0.233939 5.19373 0
M  V30 14824 C 1400.63 -0.431385 5.00444 0
M  V30 14825 C 1402.62 1.02815 6.29053 0
M  V30 14826 C 1400.31 0.366514 6.1 0
M  V30 14827 C 1401.31 1.09497 6.74166 0
M  V30 14828 O 1400.99 1.87974 7.81614 0
M  V30 14829 H 1400.73 -0.175738 0.652757 0
M  V30 14830 H 1403.28 0.11909 2.05054 0
M  V30 14831 H 1401.51 -2.15783 3.20896 0
M  V30 14832 H 1403.2 -1.93882 3.56602 0
M  V30 14833 H 1403.97 0.189161 4.84631 0
M  V30 14834 H 1399.84 -0.98798 4.50289 0
M  V30 14835 H 1403.39 1.59724 6.79068 0
M  V30 14836 H 1399.29 0.412916 6.44178 0
M  V30 14837 H 1400.05 1.80228 7.98411 0
M  V30 14838 N 1402.72 -1.56081 -0.218252 0
M  V30 14839 C 1403.66 -1.93544 -1.2901 0
M  V30 14840 C 1404.66 -0.817886 -1.48348 0
M  V30 14841 O 1405.86 -1.00274 -1.49483 0
M  V30 14842 H 1402.24 -0.61511 -0.432601 0
M  V30 14843 H 1404.21 -2.82975 -0.946966 0
M  V30 14844 C 1402.96 -2.27134 -2.63259 0
M  V30 14845 H 1402.28 -3.12643 -2.49188 0
M  V30 14846 H 1403.72 -2.57228 -3.3706 0
M  V30 14847 C 1402.18 -1.09764 -3.18518 0
M  V30 14848 O 1402.71 -0.360501 -4.00079 0
M  V30 14849 N 1400.92 -0.880589 -2.76937 0
M  V30 14850 H 1400.46 -1.48175 -2.10718 0
M  V30 14851 H 1400.42 -0.0970234 -3.1425 0
M  V30 14852 N 1404.2 0.485086 -1.49949 0
M  V30 14853 C 1405.14 1.60559 -1.68296 0
M  V30 14854 C 1406.14 1.60264 -0.548802 0
M  V30 14855 O 1407.34 1.64581 -0.728905 0
M  V30 14856 H 1403.72 0.532529 -0.530958 0
M  V30 14857 H 1405.69 1.42242 -2.62316 0
M  V30 14858 C 1404.44 2.98596 -1.78145 0
M  V30 14859 H 1403.76 2.99536 -2.64799 0
M  V30 14860 H 1405.2 3.76492 -1.95012 0
M  V30 14861 C 1403.66 3.32708 -0.529828 0
M  V30 14862 O 1404.19 4.00281 0.337347 0
M  V30 14863 N 1402.4 2.87998 -0.388012 0
M  V30 14864 H 1401.94 2.33182 -1.0947 0
M  V30 14865 H 1401.9 3.11187 0.448307 0
M  V30 14866 N 1405.67 1.39291 0.737279 0
M  V30 14867 C 1407.08 1.32489 1.31543 0
M  V30 14868 C 1407.44 -0.0118162 1.96196 0
M  V30 14869 O 1406.56 -0.913938 1.96153 0
M  V30 14870 C 1407.16 2.39946 2.39189 0
M  V30 14871 C 1405.71 2.36671 2.92684 0
M  V30 14872 C 1404.86 2.21953 1.66229 0
M  V30 14873 H 1407.81 1.49412 0.534954 0
M  V30 14874 H 1407.83 2.06603 3.19524 0
M  V30 14875 H 1407.35 3.3722 1.92104 0
M  V30 14876 H 1405.45 1.43028 3.44055 0
M  V30 14877 H 1405.56 3.31441 3.45953 0
M  V30 14878 H 1403.92 1.69087 1.90478 0
M  V30 14879 H 1404.71 3.21194 1.21199 0
M  V30 14880 N 1407.15 -0.967221 1.24429 0
M  V30 14881 C 1408.56 -1.52488 1.07723 0
M  V30 14882 C 1408.91 -1.93031 -0.351191 0
M  V30 14883 O 1408.04 -1.77376 -1.23963 0
M  V30 14884 C 1408.63 -2.77107 1.94929 0
M  V30 14885 C 1407.19 -3.29227 1.82446 0
M  V30 14886 C 1406.34 -2.02133 1.89835 0
M  V30 14887 H 1409.29 -0.785465 1.37899 0
M  V30 14888 H 1409.31 -3.50459 1.48186 0
M  V30 14889 H 1408.82 -2.47567 2.98885 0
M  V30 14890 H 1406.92 -3.63617 0.813246 0
M  V30 14891 H 1407.04 -3.98095 2.66566 0
M  V30 14892 H 1405.4 -2.16867 1.3357 0
M  V30 14893 H 1406.18 -1.74958 2.95372 0
M  V30 14894 N 1408.63 -1.05812 -1.16797 0
M  V30 14895 C 1409.87 -0.781055 -1.88889 0
M  V30 14896 C 1410.23 0.679797 -1.79563 0
M  V30 14897 O 1411.43 1.07124 -2.46532 0
M  V30 14898 C 1409.71 -1.25598 -3.34604 0
M  V30 14899 S 1411.26 -1.10724 -4.24601 0
M  V30 14900 H 1408.08 -0.28347 -0.652047 0
M  V30 14901 H 1410.68 -1.35404 -1.41018 0
M  V30 14902 H 1409.39 -2.31421 -3.38928 0
M  V30 14903 H 1408.92 -0.677541 -3.87522 0
M  V30 14904 H 1410.93 -0.0351807 -4.96188 0
M  V30 14905 N 1410.11 1.33347 -0.840014 0
M  V30 14906 C 1411.02 2.32965 -0.276527 0
M  V30 14907 C 1412.03 1.634 0.598037 0
M  V30 14908 O 1413.21 1.95046 0.501888 0
M  V30 14909 C 1410.27 3.42498 0.53816 0
M  V30 14910 C 1409.34 4.27781 -0.360814 0
M  V30 14911 C 1408.57 5.32083 0.415085 0
M  V30 14912 O 1408.79 5.46115 1.64666 0
M  V30 14913 O 1407.73 6.01528 -0.211503 0
M  V30 14914 H 1411.55 2.83022 -1.10147 0
M  V30 14915 H 1409.14 1.3671 -0.602566 0
M  V30 14916 H 1411.02 4.09336 1.00108 0
M  V30 14917 H 1409.69 2.94655 1.34015 0
M  V30 14918 H 1408.6 3.63805 -0.871598 0
M  V30 14919 H 1409.93 4.7911 -1.1276 0
M  V30 14920 N 1411.59 0.596556 1.45873 0
M  V30 14921 C 1412.5 -0.130832 2.34235 0
M  V30 14922 C 1413.51 -0.871805 1.50584 0
M  V30 14923 O 1414.69 -0.831877 1.83417 0
M  V30 14924 C 1411.75 -1.12279 3.28016 0
M  V30 14925 C 1410.81 -0.384982 4.2757 0
M  V30 14926 C 1410.05 -1.32969 5.1687 0
M  V30 14927 O 1410.27 -2.56696 5.09375 0
M  V30 14928 O 1409.2 -0.832741 5.96112 0
M  V30 14929 H 1413.03 0.59503 2.97814 0
M  V30 14930 H 1410.61 0.356873 1.45075 0
M  V30 14931 H 1412.5 -1.6944 3.85834 0
M  V30 14932 H 1411.17 -1.82988 2.67015 0
M  V30 14933 H 1410.08 0.228816 3.734 0
M  V30 14934 H 1411.41 0.281398 4.91395 0
M  V30 14935 N 1413.06 -1.53996 0.335095 0
M  V30 14936 C 1414.01 -2.26221 -0.541007 0
M  V30 14937 C 1415.01 -1.28053 -1.109 0
M  V30 14938 O 1416.21 -1.4579 -1.05571 0
M  V30 14939 H 1412.59 -0.726775 -0.193136 0
M  V30 14940 H 1414.56 -2.98263 0.0902792 0
M  V30 14941 C 1413.31 -3.04173 -1.68445 0
M  V30 14942 H 1412.63 -3.79537 -1.25665 0
M  V30 14943 H 1414.07 -3.57937 -2.27282 0
M  V30 14944 C 1412.53 -2.13162 -2.6089 0
M  V30 14945 O 1413.06 -1.7221 -3.62914 0
M  V30 14946 N 1411.26 -1.78414 -2.29384 0
M  V30 14947 H 1410.81 -2.11914 -1.46458 0
M  V30 14948 H 1410.77 -1.178 -2.91497 0
M  V30 14949 N 1414.54 -0.0635198 -1.57472 0
M  V30 14950 C 1415.47 0.90431 -2.15278 0
M  V30 14951 C 1416.45 1.31609 -1.07764 0
M  V30 14952 O 1417.64 1.38861 -1.35762 0
M  V30 14953 C 1414.77 2.17483 -2.70774 0
M  V30 14954 C 1413.72 1.90272 -3.8338 0
M  V30 14955 C 1413.05 3.23885 -4.25444 0
M  V30 14956 C 1414.35 1.21454 -5.07983 0
M  V30 14957 H 1416.04 0.422786 -2.964 0
M  V30 14958 H 1413.59 0.201918 -1.42577 0
M  V30 14959 H 1415.54 2.856 -3.09856 0
M  V30 14960 H 1414.26 2.67863 -1.86861 0
M  V30 14961 H 1412.92 1.24564 -3.44789 0
M  V30 14962 H 1412.57 3.72089 -3.38465 0
M  V30 14963 H 1412.27 3.06472 -5.01347 0
M  V30 14964 H 1413.8 3.93212 -4.67137 0
M  V30 14965 H 1415.21 1.79625 -5.44433 0
M  V30 14966 H 1413.61 1.14327 -5.89109 0
M  V30 14967 H 1414.68 0.19238 -4.84518 0
M  V30 14968 N 1416.02 1.56195 0.209972 0
M  V30 14969 C 1417.27 1.79745 0.932638 0
M  V30 14970 C 1417.59 0.634252 1.83868 0
M  V30 14971 O 1416.85 -0.380798 1.91959 0
M  V30 14972 C 1417.15 3.09154 1.79328 0
M  V30 14973 C 1416.81 4.38754 1.03949 0
M  V30 14974 C 1415.48 4.73965 0.831308 0
M  V30 14975 C 1417.83 5.18718 0.508031 0
M  V30 14976 C 1415.16 5.86646 0.0799547 0
M  V30 14977 C 1417.51 6.32182 -0.230037 0
M  V30 14978 C 1416.17 6.65986 -0.449366 0
M  V30 14979 H 1415.44 0.657732 0.341276 0
M  V30 14980 H 1418.09 1.90453 0.199998 0
M  V30 14981 H 1416.39 2.93618 2.59414 0
M  V30 14982 H 1418.09 3.24578 2.35478 0
M  V30 14983 H 1414.68 4.11114 1.21174 0
M  V30 14984 H 1418.87 4.91941 0.656306 0
M  V30 14985 H 1414.12 6.11318 -0.100092 0
M  V30 14986 H 1418.3 6.93367 -0.649296 0
M  V30 14987 H 1415.92 7.53142 -1.03349 0
M  V30 14988 N 1417.5 -0.477127 1.50204 0
M  V30 14989 C 1418.72 -1.25775 1.6491 0
M  V30 14990 C 1419.15 -1.85187 0.329765 0
M  V30 14991 O 1418.51 -1.67004 -0.705641 0
M  V30 14992 C 1418.55 -2.3466 2.73801 0
M  V30 14993 O 1417.66 -3.39147 2.34634 0
M  V30 14994 H 1417 -0.370291 0.551163 0
M  V30 14995 H 1419.53 -0.568514 1.96543 0
M  V30 14996 H 1419.54 -2.80065 2.96695 0
M  V30 14997 H 1418.21 -1.90788 3.69557 0
M  V30 14998 H 1416.79 -2.99496 2.22163 0
M  V30 14999 N 1418.98 -1.3968 -0.729882 0
M  V30 15000 C 1420.25 -1.27689 -1.48172 0
M  V30 15001 C 1420.63 0.111239 -2.10807 0
M  V30 15002 O 1419.98 1.12289 -1.99006 0
M  V30 15003 C 1420.19 -2.40505 -2.529 0
M  V30 15004 C 1421.54 -2.80064 -3.19138 0
M  V30 15005 O 1422.56 -2.39992 -2.63215 0
M  V30 15006 O 1421.42 -3.49248 -4.20342 0
M  V30 15007 H 1418.52 -0.500674 -0.658221 0
M  V30 15008 H 1421.06 -1.51566 -0.763272 0
M  V30 15009 H 1419.83 -3.33282 -2.05033 0
M  V30 15010 H 1419.46 -2.1832 -3.32298 0
M  V30 15011 N 1420.45 0.960609 -1.2494 0
M  V30 15012 C 1421.68 1.73676 -1.11894 0
M  V30 15013 C 1422.09 1.86288 0.330648 0
M  V30 15014 O 1421.44 1.35575 1.23957 0
M  V30 15015 C 1421.5 3.17142 -1.69297 0
M  V30 15016 C 1421.16 3.27978 -3.18244 0
M  V30 15017 C 1422.16 3.12754 -4.15308 0
M  V30 15018 C 1419.84 3.51991 -3.5834 0
M  V30 15019 C 1421.84 3.21379 -5.50449 0
M  V30 15020 C 1419.52 3.60253 -4.9362 0
M  V30 15021 C 1420.52 3.44961 -5.89484 0
M  V30 15022 O 1420.21 3.52893 -7.22303 0
M  V30 15023 H 1419.94 0.551226 -0.391313 0
M  V30 15024 H 1422.5 1.21418 -1.65671 0
M  V30 15025 H 1420.73 3.70736 -1.09961 0
M  V30 15026 H 1422.42 3.76592 -1.51437 0
M  V30 15027 H 1423.18 2.94079 -3.85672 0
M  V30 15028 H 1419.06 3.62957 -2.84224 0
M  V30 15029 H 1422.6 3.0936 -6.25254 0
M  V30 15030 H 1418.5 3.78444 -5.22925 0
M  V30 15031 H 1419.27 3.69563 -7.30319 0
M  V30 15032 N 1421.93 1.0643 1.16234 0
M  V30 15033 C 1423.18 0.77689 1.86138 0
M  V30 15034 C 1423.49 -0.699301 1.82672 0
M  V30 15035 O 1424.7 -1.10113 2.48168 0
M  V30 15036 C 1423.16 1.3396 3.3404 0
M  V30 15037 C 1422.76 2.84613 3.45976 0
M  V30 15038 C 1424.51 1.12979 4.09189 0
M  V30 15039 C 1422.42 3.34122 4.87972 0
M  V30 15040 H 1421.35 0.286936 0.697269 0
M  V30 15041 H 1424 1.28318 1.31174 0
M  V30 15042 H 1422.38 0.761073 3.88618 0
M  V30 15043 H 1423.55 3.48429 3.01552 0
M  V30 15044 H 1421.87 3.04277 2.84262 0
M  V30 15045 H 1424.46 1.47456 5.13966 0
M  V30 15046 H 1424.81 0.0682424 4.16244 0
M  V30 15047 H 1425.34 1.67418 3.60855 0
M  V30 15048 H 1422.08 4.39761 4.86097 0
M  V30 15049 H 1421.6 2.75055 5.33015 0
M  V30 15050 H 1423.28 3.29529 5.56794 0
M  V30 15051 N 1423.41 -1.329 0.847073 0
M  V30 15052 C 1424.64 -2.02244 0.459588 0
M  V30 15053 C 1425.06 -1.63279 -0.933897 0
M  V30 15054 O 1424.42 -0.829551 -1.61208 0
M  V30 15055 C 1424.47 -3.55616 0.59745 0
M  V30 15056 O 1423.57 -4.1071 -0.372919 0
M  V30 15057 H 1422.91 -0.637504 0.1857 0
M  V30 15058 H 1425.44 -1.69617 1.14417 0
M  V30 15059 H 1425.45 -4.05141 0.482145 0
M  V30 15060 H 1424.13 -3.8332 1.61365 0
M  V30 15061 H 1422.7 -3.72283 -0.214487 0
M  V30 15062 N 1424.89 -0.604284 -1.45555 0
M  V30 15063 C 1425.8 0.118409 -2.34301 0
M  V30 15064 C 1426.81 0.863807 -1.51044 0
M  V30 15065 O 1427.99 0.822138 -1.83856 0
M  V30 15066 C 1425.06 1.10538 -3.28606 0
M  V30 15067 C 1424.12 0.362301 -4.27768 0
M  V30 15068 C 1423.35 1.30226 -5.17568 0
M  V30 15069 O 1423.57 2.53991 -5.10729 0
M  V30 15070 O 1422.51 0.801116 -5.96545 0
M  V30 15071 H 1426.33 -0.610816 -2.97494 0
M  V30 15072 H 1423.92 -0.364562 -1.44884 0
M  V30 15073 H 1425.8 1.67392 -3.86727 0
M  V30 15074 H 1424.47 1.81569 -2.67982 0
M  V30 15075 H 1423.38 -0.248616 -3.73273 0
M  V30 15076 H 1424.71 -0.307454 -4.91239 0
M  V30 15077 N 1426.37 1.53816 -0.343257 0
M  V30 15078 C 1427.61 2.01207 0.253721 0
M  V30 15079 C 1427.95 1.23069 1.50225 0
M  V30 15080 O 1427.22 0.31824 1.91879 0
M  V30 15081 C 1427.5 3.5559 0.56815 0
M  V30 15082 C 1427.36 4.44438 -0.692457 0
M  V30 15083 C 1428.68 4.17974 1.37788 0
M  V30 15084 H 1425.79 0.731392 0.0907427 0
M  V30 15085 H 1428.44 1.84254 -0.463736 0
M  V30 15086 H 1426.59 3.70166 1.17937 0
M  V30 15087 H 1428.26 4.41698 -1.33042 0
M  V30 15088 H 1426.5 4.13312 -1.3174 0
M  V30 15089 H 1427.17 5.5034 -0.427715 0
M  V30 15090 H 1429.65 4.07094 0.861043 0
M  V30 15091 H 1428.52 5.26068 1.56663 0
M  V30 15092 H 1428.79 3.72577 2.3799 0
M  V30 15093 N 1427.84 0.0718701 1.57436 0
M  V30 15094 C 1428.75 -0.910077 2.16229 0
M  V30 15095 C 1429.77 -1.32699 1.12548 0
M  V30 15096 O 1430.95 -1.39967 1.44814 0
M  V30 15097 C 1428.01 -2.15942 2.71238 0
M  V30 15098 C 1427.07 -1.79891 3.89792 0
M  V30 15099 C 1426.31 -2.9887 4.42168 0
M  V30 15100 O 1426.53 -4.1289 3.93545 0
M  V30 15101 O 1425.46 -2.78682 5.33498 0
M  V30 15102 H 1429.29 -0.439969 3.00496 0
M  V30 15103 H 1426.87 -0.151204 1.48633 0
M  V30 15104 H 1428.76 -2.89204 3.06494 0
M  V30 15105 H 1427.43 -2.62051 1.90029 0
M  V30 15106 H 1426.34 -1.03881 3.59388 0
M  V30 15107 H 1427.67 -1.38566 4.72293 0
M  V30 15108 N 1429.32 -1.56304 -0.201686 0
M  V30 15109 C 1430.74 -1.49741 -0.552247 0
M  V30 15110 C 1430.94 -0.770683 -1.86179 0
M  V30 15111 O 1429.99 -0.318489 -2.50483 0
M  V30 15112 C 1431.31 -2.94384 -0.613083 0
M  V30 15113 C 1432.86 -3.05018 -0.702365 0
M  V30 15114 C 1433.33 -4.51058 -0.794371 0
M  V30 15115 N 1434.82 -4.55183 -0.858072 0
M  V30 15116 C 1435.56 -5.65487 -0.949317 0
M  V30 15117 N 1435.05 -6.85497 -1.00327 0
M  V30 15118 N 1436.85 -5.53385 -0.985995 0
M  V30 15119 H 1429 -2.01971 0.657394 0
M  V30 15120 H 1431.26 -0.918839 0.233322 0
M  V30 15121 H 1430.97 -3.50584 0.279921 0
M  V30 15122 H 1430.84 -3.47376 -1.47002 0
M  V30 15123 H 1433.23 -2.4887 -1.5858 0
M  V30 15124 H 1433.31 -2.55161 0.180636 0
M  V30 15125 H 1432.95 -5.07829 0.0846883 0
M  V30 15126 H 1432.88 -4.98641 -1.69308 0
M  V30 15127 H 1435.37 -3.68765 -0.825888 0
M  V30 15128 H 1435.69 -7.65312 -1.07322 0
M  V30 15129 H 1434.03 -6.88169 -0.972061 0
M  V30 15130 H 1437.22 -4.58552 -0.940635 0
M  V30 15131 H 1437.39 -6.39376 -1.05365 0
M  V30 15132 N 1430.8 0.469154 -1.50455 0
M  V30 15133 C 1432.03 1.24432 -1.653 0
M  V30 15134 C 1432.44 1.85766 -0.33713 0
M  V30 15135 O 1431.8 1.69313 0.681118 0
M  V30 15136 C 1431.85 2.35163 -2.74555 0
M  V30 15137 O 1431.57 1.76344 -4.01042 0
M  V30 15138 C 1433.07 3.26006 -3.00391 0
M  V30 15139 H 1430.29 0.376251 -0.555587 0
M  V30 15140 H 1432.84 0.559777 -1.96689 0
M  V30 15141 H 1430.99 2.99389 -2.45855 0
M  V30 15142 H 1431.41 2.49278 -4.61477 0
M  V30 15143 H 1432.88 3.99909 -3.80496 0
M  V30 15144 H 1433.36 3.84901 -2.11537 0
M  V30 15145 H 1433.96 2.67515 -3.3063 0
M  V30 15146 N 1432.28 1.40065 0.722464 0
M  V30 15147 C 1433.53 1.3797 1.48224 0
M  V30 15148 C 1433.85 -0.0202588 1.94489 0
M  V30 15149 O 1433.11 -1.0035 1.68013 0
M  V30 15150 C 1433.41 2.30949 2.72759 0
M  V30 15151 C 1433.07 3.7834 2.45295 0
M  V30 15152 C 1431.74 4.18497 2.37515 0
M  V30 15153 C 1434.09 4.71509 2.221 0
M  V30 15154 C 1431.42 5.4987 2.04598 0
M  V30 15155 C 1433.77 6.03173 1.90697 0
M  V30 15156 C 1432.43 6.4238 1.81394 0
M  V30 15157 H 1431.7 0.504869 0.542392 0
M  V30 15158 H 1434.35 1.72667 0.828149 0
M  V30 15159 H 1432.65 1.89413 3.42972 0
M  V30 15160 H 1434.35 2.26615 3.30827 0
M  V30 15161 H 1430.94 3.46519 2.52235 0
M  V30 15162 H 1435.12 4.41308 2.27071 0
M  V30 15163 H 1430.38 5.79157 1.95928 0
M  V30 15164 H 1434.55 6.74886 1.71761 0
M  V30 15165 H 1432.18 7.44094 1.55654 0
M  V30 15166 N 1433.76 -0.95397 1.25448 0
M  V30 15167 C 1435.01 -1.6953 1.10018 0
M  V30 15168 C 1435.33 -1.9166 -0.359385 0
M  V30 15169 O 1434.6 -1.50417 -1.25506 0
M  V30 15170 H 1433.18 -0.628238 0.404136 0
M  V30 15171 H 1435.84 -1.14691 1.57581 0
M  V30 15172 H 1434.93 -2.67427 1.60901 0
M  V30 15173 N 1435.24 -1.07045 -1.15668 0
M  V30 15174 C 1436.18 -0.68226 -2.22369 0
M  V30 15175 C 1437.18 0.305448 -1.66623 0
M  V30 15176 O 1438.38 0.169495 -1.792 0
M  V30 15177 H 1434.76 -0.202536 -0.724212 0
M  V30 15178 H 1436.73 -1.59187 -2.52393 0
M  V30 15179 C 1435.48 -0.0928131 -3.47576 0
M  V30 15180 H 1434.8 -0.843964 -3.90791 0
M  V30 15181 H 1436.24 0.14118 -4.23765 0
M  V30 15182 C 1434.7 1.16567 -3.16091 0
M  V30 15183 O 1435.23 2.25257 -3.32599 0
M  V30 15184 N 1433.44 1.07061 -2.7016 0
M  V30 15185 H 1432.98 0.186091 -2.56927 0
M  V30 15186 H 1432.94 1.91346 -2.49468 0
M  V30 15187 N 1436.71 1.32449 -0.85411 0
M  V30 15188 C 1437.64 2.31383 -0.313697 0
M  V30 15189 C 1438.62 1.59656 0.586858 0
M  V30 15190 O 1439.81 1.87459 0.507216 0
M  V30 15191 C 1436.94 3.43693 0.499235 0
M  V30 15192 C 1435.89 4.26899 -0.306839 0
M  V30 15193 C 1435.22 5.30966 0.630795 0
M  V30 15194 C 1436.52 4.99318 -1.53229 0
M  V30 15195 H 1438.21 2.76832 -1.14037 0
M  V30 15196 H 1435.76 1.33091 -0.549805 0
M  V30 15197 H 1437.71 4.11944 0.887709 0
M  V30 15198 H 1436.44 2.96971 1.35926 0
M  V30 15199 H 1435.1 3.60294 -0.677061 0
M  V30 15200 H 1434.74 4.80498 1.48765 0
M  V30 15201 H 1434.44 5.87522 0.0954635 0
M  V30 15202 H 1435.97 6.0208 1.01646 0
M  V30 15203 H 1437.38 5.60253 -1.21614 0
M  V30 15204 H 1435.78 5.65596 -2.00552 0
M  V30 15205 H 1436.85 4.27213 -2.29383 0
M  V30 15206 N 1438.19 0.611994 1.45232 0
M  V30 15207 C 1439.12 -0.142449 2.28757 0
M  V30 15208 C 1440.14 -0.827486 1.40202 0
M  V30 15209 O 1441.33 -0.692136 1.64535 0
M  V30 15210 C 1438.43 -1.22296 3.16065 0
M  V30 15211 C 1437.6 -0.624178 4.32924 0
M  V30 15212 C 1436.66 -1.59615 5.01408 0
M  V30 15213 O 1435.68 -1.12073 5.58058 0
M  V30 15214 N 1436.89 -2.93057 5.01097 0
M  V30 15215 H 1439.65 0.574276 2.94147 0
M  V30 15216 H 1437.21 0.451789 1.55469 0
M  V30 15217 H 1439.2 -1.87309 3.58744 0
M  V30 15218 H 1437.77 -1.84215 2.52554 0
M  V30 15219 H 1436.99 0.204141 3.93671 0
M  V30 15220 H 1438.28 -0.204435 5.08389 0
M  V30 15221 H 1437.68 -3.3428 4.5637 0
M  V30 15222 H 1436.24 -3.53481 5.47626 0
M  V30 15223 N 1439.67 -1.53632 0.351409 0
M  V30 15224 C 1440.6 -2.28217 -0.49391 0
M  V30 15225 C 1441.58 -1.30085 -1.09599 0
M  V30 15226 O 1442.77 -1.58938 -1.1159 0
M  V30 15227 C 1439.9 -3.06085 -1.64102 0
M  V30 15228 C 1438.85 -4.11786 -1.16689 0
M  V30 15229 C 1438.18 -4.77654 -2.40314 0
M  V30 15230 C 1439.48 -5.21644 -0.261742 0
M  V30 15231 H 1441.17 -2.99125 0.1283 0
M  V30 15232 H 1438.72 -1.43861 0.0631462 0
M  V30 15233 H 1440.67 -3.57003 -2.2389 0
M  V30 15234 H 1439.39 -2.32842 -2.29025 0
M  V30 15235 H 1438.05 -3.61792 -0.591784 0
M  V30 15236 H 1437.7 -4.00997 -3.03661 0
M  V30 15237 H 1437.4 -5.49072 -2.09268 0
M  V30 15238 H 1438.92 -5.3136 -3.00813 0
M  V30 15239 H 1440.34 -5.6815 -0.766689 0
M  V30 15240 H 1438.73 -6.00085 -0.0428132 0
M  V30 15241 H 1439.8 -4.79821 0.699999 0
M  V30 15242 N 1441.15 -0.0802183 -1.57396 0
M  V30 15243 C 1442.09 0.884041 -2.13198 0
M  V30 15244 C 1443.06 1.28975 -1.04664 0
M  V30 15245 O 1444.25 1.37413 -1.32372 0
M  V30 15246 C 1441.39 2.14323 -2.7048 0
M  V30 15247 C 1440.5 1.7894 -3.93198 0
M  V30 15248 C 1439.64 2.99534 -4.38695 0
M  V30 15249 C 1438.68 2.60207 -5.54039 0
M  V30 15250 N 1437.81 3.73587 -5.94455 0
M  V30 15251 H 1442.65 0.40131 -2.95285 0
M  V30 15252 H 1440.19 0.186429 -1.45914 0
M  V30 15253 H 1442.15 2.88046 -3.01804 0
M  V30 15254 H 1440.78 2.60122 -1.91144 0
M  V30 15255 H 1439.83 0.952465 -3.68283 0
M  V30 15256 H 1441.14 1.46012 -4.76951 0
M  V30 15257 H 1440.3 3.81526 -4.71724 0
M  V30 15258 H 1439.04 3.35661 -3.53812 0
M  V30 15259 H 1438.04 1.76638 -5.20652 0
M  V30 15260 H 1439.27 2.2524 -6.40659 0
M  V30 15261 H 1437.21 4.0946 -5.12521 0
M  V30 15262 H 1437.13 3.44455 -6.72969 0
M  V30 15263 H 1438.4 4.56133 -6.3211 0
M  V30 15264 N 1442.63 1.56409 0.193394 0
M  V30 15265 C 1443.9 1.71559 0.93951 0
M  V30 15266 C 1444.28 0.635478 2.01308 0
M  V30 15267 O 1443.63 -0.353267 2.25753 0
M  V30 15268 C 1443.84 3.13948 1.52438 0
M  V30 15269 C 1445.19 3.74234 2.00585 0
M  V30 15270 O 1446.21 3.17088 1.62277 0
M  V30 15271 O 1445.07 4.74529 2.71081 0
M  V30 15272 H 1442.17 0.69979 0.440707 0
M  V30 15273 H 1444.71 1.68711 0.182957 0
M  V30 15274 H 1443.48 3.84033 0.750613 0
M  V30 15275 H 1443.11 3.21032 2.34572 0
M  V30 15276 N 1444.1 -0.461169 1.50702 0
M  V30 15277 C 1445.33 -1.24019 1.66235 0
M  V30 15278 C 1445.75 -1.84827 0.349388 0
M  V30 15279 O 1445.11 -1.67743 -0.687888 0
M  V30 15280 C 1445.16 -2.31743 2.76274 0
M  V30 15281 O 1444.26 -3.3664 2.38217 0
M  V30 15282 H 1443.6 -0.364424 0.55506 0
M  V30 15283 H 1446.13 -0.547636 1.97135 0
M  V30 15284 H 1446.14 -2.76902 2.99649 0
M  V30 15285 H 1444.82 -1.86858 3.7156 0
M  V30 15286 H 1443.4 -2.97123 2.25327 0
M  V30 15287 N 1445.58 -1.40446 -0.715026 0
M  V30 15288 C 1446.53 -1.40931 -1.85044 0
M  V30 15289 C 1447.52 -0.289745 -1.66904 0
M  V30 15290 O 1448.73 -0.460809 -1.74002 0
M  V30 15291 H 1445.1 -0.440534 -0.609454 0
M  V30 15292 H 1447.08 -2.36662 -1.81752 0
M  V30 15293 C 1445.82 -1.28933 -3.22911 0
M  V30 15294 H 1445.15 -2.14359 -3.37476 0
M  V30 15295 H 1446.59 -1.33331 -4.02491 0
M  V30 15296 C 1445.05 0.000379936 -3.369 0
M  V30 15297 O 1445.58 0.963093 -3.89984 0
M  V30 15298 N 1443.78 0.0700649 -2.90516 0
M  V30 15299 H 1443.33 -0.714088 -2.47505 0
M  V30 15300 H 1443.29 0.932457 -3.00254 0
M  V30 15301 N 1447.06 0.947303 -1.25952 0
M  V30 15302 C 1448.31 1.6953 -1.11299 0
M  V30 15303 C 1448.64 1.9113 0.343961 0
M  V30 15304 O 1447.91 1.48755 1.25309 0
M  V30 15305 C 1448.2 3.0738 -1.87588 0
M  V30 15306 C 1448.05 2.93145 -3.41154 0
M  V30 15307 C 1449.37 4.07396 -1.66483 0
M  V30 15308 H 1446.49 0.615281 -0.405707 0
M  V30 15309 H 1449.13 1.10064 -1.54874 0
M  V30 15310 H 1447.28 3.58143 -1.50553 0
M  V30 15311 H 1448.95 2.49651 -3.87907 0
M  V30 15312 H 1447.19 2.28902 -3.68492 0
M  V30 15313 H 1447.87 3.9089 -3.89755 0
M  V30 15314 H 1450.34 3.65572 -1.98738 0
M  V30 15315 H 1449.22 5.01876 -2.22287 0
M  V30 15316 H 1449.48 4.379 -0.607916 0
M  V30 15317 N 1448.54 1.07657 1.15099 0
M  V30 15318 C 1449.77 0.821631 1.89559 0
M  V30 15319 C 1450.18 -0.629174 1.78432 0
M  V30 15320 O 1449.52 -1.44353 1.13613 0
M  V30 15321 C 1449.58 1.15473 3.4045 0
M  V30 15322 C 1449.25 2.60675 3.75363 0
M  V30 15323 C 1450.24 3.58923 3.76125 0
M  V30 15324 C 1447.93 2.96333 4.05576 0
M  V30 15325 C 1449.92 4.90863 4.06611 0
M  V30 15326 C 1447.61 4.28469 4.35727 0
M  V30 15327 C 1448.61 5.25543 4.36226 0
M  V30 15328 O 1448.29 6.55305 4.65651 0
M  V30 15329 H 1448.03 0.296469 0.607521 0
M  V30 15330 H 1450.58 1.43722 1.46742 0
M  V30 15331 H 1448.81 0.482117 3.83683 0
M  V30 15332 H 1450.5 0.881832 3.96205 0
M  V30 15333 H 1451.27 3.32718 3.52879 0
M  V30 15334 H 1447.14 2.2142 4.04344 0
M  V30 15335 H 1450.69 5.66626 4.06916 0
M  V30 15336 H 1446.59 4.54425 4.58441 0
M  V30 15337 H 1447.35 6.60503 4.83402 0
M  V30 15338 N 1450.02 -1.31994 0.861122 0
M  V30 15339 C 1450.95 -2.27632 0.267681 0
M  V30 15340 C 1451.96 -1.52709 -0.564265 0
M  V30 15341 O 1453.15 -1.74239 -0.3877 0
M  V30 15342 C 1450.25 -3.32805 -0.639856 0
M  V30 15343 C 1449.42 -4.37116 0.157676 0
M  V30 15344 C 1448.48 -5.21832 -0.676624 0
M  V30 15345 O 1447.51 -5.69098 -0.107822 0
M  V30 15346 N 1448.71 -5.45317 -1.99022 0
M  V30 15347 H 1451.48 -2.79195 1.0895 0
M  V30 15348 H 1449.04 -1.44923 0.721733 0
M  V30 15349 H 1451.03 -3.86391 -1.20348 0
M  V30 15350 H 1449.6 -2.81351 -1.36236 0
M  V30 15351 H 1448.82 -3.83724 0.902741 0
M  V30 15352 H 1450.11 -5.03889 0.70524 0
M  V30 15353 H 1449.5 -5.08656 -2.47558 0
M  V30 15354 H 1448.06 -6.01874 -2.50182 0
M  V30 15355 N 1451.49 -0.619688 -1.44906 0
M  V30 15356 C 1452.77 -0.0510703 -1.95533 0
M  V30 15357 C 1453.15 1.42013 -1.56191 0
M  V30 15358 O 1452.5 2.12879 -0.830356 0
M  V30 15359 C 1452.71 -0.261896 -3.48016 0
M  V30 15360 C 1454.06 -0.149057 -4.24338 0
M  V30 15361 O 1455.08 -0.192655 -3.55679 0
M  V30 15362 O 1453.94 -0.0443345 -5.46482 0
M  V30 15363 H 1451.03 0.0288461 -0.826497 0
M  V30 15364 H 1453.58 -0.690594 -1.55013 0
M  V30 15365 H 1452.35 -1.28319 -3.69662 0
M  V30 15366 H 1451.98 0.412314 -3.95456 0
M  V30 15367 N 1452.97 1.53444 -0.359552 0
M  V30 15368 C 1453.92 2.22312 0.506084 0
M  V30 15369 C 1454.91 1.21618 1.05347 0
M  V30 15370 O 1456.1 1.47093 0.984511 0
M  V30 15371 C 1453.23 3.01137 1.64837 0
M  V30 15372 C 1452.31 4.09203 1.11416 0
M  V30 15373 N 1452.7 5.04895 0.302445 0
M  V30 15374 C 1451 4.23801 1.38954 0
M  V30 15375 C 1451.7 5.81699 0.0106517 0
M  V30 15376 N 1450.68 5.40204 0.606648 0
M  V30 15377 H 1454.48 2.93651 -0.120961 0
M  V30 15378 H 1452 1.61536 -0.167249 0
M  V30 15379 H 1453.99 3.48988 2.28063 0
M  V30 15380 H 1452.65 2.31328 2.27854 0
M  V30 15381 H 1453.66 5.17868 -0.0578423 0
M  V30 15382 H 1450.34 3.65217 2.02293 0
M  V30 15383 H 1451.73 6.68795 -0.645163 0
M  V30 15384 N 1454.45 0.0885642 1.57351 0
M  V30 15385 C 1455.68 -0.584389 1.98163 0
M  V30 15386 C 1456.09 -1.62664 0.966281 0
M  V30 15387 O 1455.43 -1.83623 -0.053226 0
M  V30 15388 C 1455.49 -1.2959 3.35331 0
M  V30 15389 C 1455.16 -0.405168 4.552 0
M  V30 15390 C 1456.15 0.344053 5.1876 0
M  V30 15391 C 1453.84 -0.325136 5.01247 0
M  V30 15392 C 1455.83 1.16135 6.26731 0
M  V30 15393 C 1453.52 0.495821 6.09085 0
M  V30 15394 C 1454.52 1.23772 6.71691 0
M  V30 15395 O 1454.21 2.04511 7.77451 0
M  V30 15396 H 1453.94 -0.161852 0.656338 0
M  V30 15397 H 1456.49 0.162558 2.04756 0
M  V30 15398 H 1454.72 -2.08928 3.25401 0
M  V30 15399 H 1456.41 -1.86274 3.60634 0
M  V30 15400 H 1457.18 0.291916 4.84121 0
M  V30 15401 H 1453.06 -0.892245 4.52283 0
M  V30 15402 H 1456.6 1.74093 6.75528 0
M  V30 15403 H 1452.5 0.549463 6.43157 0
M  V30 15404 H 1453.27 1.97123 7.94409 0
M  V30 15405 N 1455.93 -1.56509 -0.185096 0
M  V30 15406 C 1456.88 -1.91742 -1.23366 0
M  V30 15407 C 1457.86 -0.784182 -1.40497 0
M  V30 15408 O 1459.05 -1.04718 -1.42699 0
M  V30 15409 C 1456.18 -2.26903 -2.57624 0
M  V30 15410 C 1455.27 -3.46707 -2.44244 0
M  V30 15411 N 1455.66 -4.64338 -2.00558 0
M  V30 15412 C 1453.96 -3.51042 -2.7511 0
M  V30 15413 C 1454.66 -5.46489 -1.9931 0
M  V30 15414 N 1453.64 -4.87162 -2.41193 0
M  V30 15415 H 1457.44 -2.80184 -0.887378 0
M  V30 15416 H 1454.95 -1.57561 -0.393468 0
M  V30 15417 H 1456.95 -2.50332 -3.33376 0
M  V30 15418 H 1455.61 -1.39792 -2.93067 0
M  V30 15419 H 1456.62 -4.88817 -1.7111 0
M  V30 15420 H 1453.3 -2.74375 -3.14682 0
M  V30 15421 H 1454.69 -6.50726 -1.67349 0
M  V30 15422 N 1457.41 0.45317 -1.50944 0
M  V30 15423 C 1458.36 1.54689 -1.67498 0
M  V30 15424 C 1459.34 1.51949 -0.529193 0
M  V30 15425 O 1460.53 1.58669 -0.784415 0
M  V30 15426 C 1457.66 2.93006 -1.78892 0
M  V30 15427 C 1456.75 3.00562 -2.99204 0
M  V30 15428 N 1457.14 2.77893 -4.22621 0
M  V30 15429 C 1455.44 3.31712 -2.98132 0
M  V30 15430 C 1456.14 2.90882 -5.03749 0
M  V30 15431 N 1455.11 3.21866 -4.38068 0
M  V30 15432 H 1458.92 1.35889 -2.60598 0
M  V30 15433 H 1456.43 0.660219 -1.48374 0
M  V30 15434 H 1458.43 3.71669 -1.88858 0
M  V30 15435 H 1457.09 3.12838 -0.869626 0
M  V30 15436 H 1458.1 2.53126 -4.51827 0
M  V30 15437 H 1454.77 3.57419 -2.15773 0
M  V30 15438 H 1456.16 2.77444 -6.11943 0
M  V30 15439 N 1458.88 1.40823 0.707568 0
M  V30 15440 C 1459.83 1.38198 1.81343 0
M  V30 15441 C 1460.82 0.258234 1.58814 0
M  V30 15442 O 1462.01 0.497972 1.69851 0
M  V30 15443 C 1459.14 1.25483 3.19545 0
M  V30 15444 C 1458.23 2.42672 3.47809 0
M  V30 15445 N 1458.62 3.6815 3.46842 0
M  V30 15446 C 1456.91 2.36225 3.78304 0
M  V30 15447 C 1457.62 4.45805 3.73675 0
M  V30 15448 N 1456.59 3.75753 3.92824 0
M  V30 15449 H 1460.39 2.33147 1.7894 0
M  V30 15450 H 1457.91 1.34709 0.907044 0
M  V30 15451 H 1459.9 1.21684 3.98746 0
M  V30 15452 H 1458.56 0.315081 3.23168 0
M  V30 15453 H 1459.58 4.01201 3.27503 0
M  V30 15454 H 1456.25 1.50659 3.89369 0
M  V30 15455 H 1457.64 5.54692 3.79165 0
M  V30 15456 N 1460.36 -0.94061 1.26453 0
M  V30 15457 C 1461.31 -2.02524 1.04728 0
M  V30 15458 C 1462.3 -1.60887 -0.0205193 0
M  V30 15459 O 1463.49 -1.75906 0.196501 0
M  V30 15460 C 1460.62 -3.3644 0.682862 0
M  V30 15461 C 1459.7 -3.84559 1.78815 0
M  V30 15462 N 1460.09 -4.05323 3.02567 0
M  V30 15463 C 1458.39 -4.13478 1.67188 0
M  V30 15464 C 1459.09 -4.45191 3.74406 0
M  V30 15465 N 1458.07 -4.51927 3.02098 0
M  V30 15466 H 1461.87 -2.1659 1.9866 0
M  V30 15467 H 1459.39 -1.12649 1.16978 0
M  V30 15468 H 1461.38 -4.13789 0.508379 0
M  V30 15469 H 1460.04 -3.23744 -0.248973 0
M  V30 15470 H 1461.05 -3.91996 3.38466 0
M  V30 15471 H 1457.73 -4.09567 0.809986 0
M  V30 15472 H 1459.12 -4.69442 4.80701 0
M  V30 15473 N 1461.84 -1.08266 -1.14527 0
M  V30 15474 C 1463.26 -0.810001 -1.37518 0
M  V30 15475 C 1463.46 0.581399 -1.9293 0
M  V30 15476 O 1462.51 1.33846 -2.14107 0
M  V30 15477 C 1463.83 -1.89149 -2.33759 0
M  V30 15478 C 1465.37 -1.91733 -2.47401 0
M  V30 15479 C 1465.85 -2.98992 -3.4694 0
M  V30 15480 N 1467.34 -2.98155 -3.54483 0
M  V30 15481 C 1468.07 -3.77791 -4.31349 0
M  V30 15482 N 1467.57 -4.67302 -5.11469 0
M  V30 15483 N 1469.36 -3.66099 -4.2653 0
M  V30 15484 H 1461.51 -1.97988 -0.769048 0
M  V30 15485 H 1463.78 -0.859115 -0.40078 0
M  V30 15486 H 1463.48 -2.89175 -2.00176 0
M  V30 15487 H 1463.36 -1.75955 -3.33646 0
M  V30 15488 H 1465.74 -0.923531 -2.80276 0
M  V30 15489 H 1465.83 -2.09005 -1.4748 0
M  V30 15490 H 1465.47 -3.98578 -3.14799 0
M  V30 15491 H 1465.4 -2.78965 -4.46639 0
M  V30 15492 H 1467.89 -2.33277 -2.97305 0
M  V30 15493 H 1468.2 -5.24676 -5.67393 0
M  V30 15494 H 1466.55 -4.71345 -5.10743 0
M  V30 15495 H 1469.74 -2.95539 -3.63008 0
M  V30 15496 H 1469.91 -4.28402 -4.86185 0
M  V30 15497 N 1463.32 1.31536 -0.86811 0
M  V30 15498 C 1464.73 1.78991 -0.530937 0
M  V30 15499 C 1465.08 1.71553 0.952046 0
M  V30 15500 O 1464.21 1.28216 1.74326 0
M  V30 15501 C 1464.8 3.25004 -0.956981 0
M  V30 15502 C 1463.36 3.70362 -0.671495 0
M  V30 15503 C 1462.51 2.52361 -1.14932 0
M  V30 15504 H 1465.46 1.18644 -1.05401 0
M  V30 15505 H 1465.48 3.79477 -0.278883 0
M  V30 15506 H 1464.99 3.30385 -2.03635 0
M  V30 15507 H 1463.09 3.70483 0.39659 0
M  V30 15508 H 1463.21 4.62581 -1.24722 0
M  V30 15509 H 1461.57 2.4826 -0.569144 0
M  V30 15510 H 1462.35 2.60489 -2.23608 0
M  V30 15511 N 1464.8 0.627364 1.44575 0
M  V30 15512 C 1465.75 -0.101618 2.27773 0
M  V30 15513 C 1466.73 -0.819759 1.38451 0
M  V30 15514 O 1467.92 -0.706487 1.62289 0
M  V30 15515 C 1465.05 -1.08507 3.25701 0
M  V30 15516 C 1464.14 -0.366745 4.22511 0
M  V30 15517 N 1464.53 0.602571 5.02198 0
M  V30 15518 C 1462.83 -0.611691 4.41785 0
M  V30 15519 C 1463.53 1.02662 5.72569 0
M  V30 15520 N 1462.5 0.366195 5.42365 0
M  V30 15521 H 1466.31 0.642569 2.8679 0
M  V30 15522 H 1463.82 0.452571 1.55967 0
M  V30 15523 H 1465.82 -1.62189 3.84058 0
M  V30 15524 H 1464.48 -1.8296 2.68246 0
M  V30 15525 H 1465.49 0.980215 5.08539 0
M  V30 15526 H 1462.17 -1.33938 3.95432 0
M  V30 15527 H 1463.56 1.82721 6.46578 0
M  V30 15528 N 1466.28 -1.53251 0.367684 0
M  V30 15529 C 1467.5 -2.0618 -0.224645 0
M  V30 15530 C 1467.93 -1.23927 -1.41505 0
M  V30 15531 O 1467.28 -0.258858 -1.79443 0
M  V30 15532 C 1467.33 -3.55671 -0.594171 0
M  V30 15533 O 1466.44 -3.76132 -1.69112 0
M  V30 15534 H 1465.78 -0.663218 -0.0322099 0
M  V30 15535 H 1468.31 -1.97646 0.528897 0
M  V30 15536 H 1468.32 -3.98734 -0.864589 0
M  V30 15537 H 1466.99 -4.14982 0.276254 0
M  V30 15538 H 1465.57 -3.44965 -1.41609 0
M  V30 15539 N 1467.75 -0.0969077 -1.57302 0
M  V30 15540 C 1469 0.566072 -1.93594 0
M  V30 15541 C 1469.32 1.69226 -0.980922 0
M  V30 15542 O 1470.52 2.41651 -1.23763 0
M  V30 15543 C 1468.98 1.05832 -3.43988 0
M  V30 15544 C 1468.59 -0.038207 -4.47984 0
M  V30 15545 C 1470.33 1.69393 -3.89238 0
M  V30 15546 C 1468.24 0.4695 -5.89533 0
M  V30 15547 H 1467.17 0.215226 -0.72263 0
M  V30 15548 H 1469.82 -0.173202 -1.82681 0
M  V30 15549 H 1468.2 1.85134 -3.50059 0
M  V30 15550 H 1469.37 -0.813761 -4.53558 0
M  V30 15551 H 1467.69 -0.579113 -4.12353 0
M  V30 15552 H 1470.29 2.08454 -4.92393 0
M  V30 15553 H 1470.63 2.56381 -3.27986 0
M  V30 15554 H 1471.16 0.966709 -3.85875 0
M  V30 15555 H 1467.9 -0.363802 -6.5449 0
M  V30 15556 H 1467.42 1.21202 -5.87427 0
M  V30 15557 H 1469.1 0.937885 -6.40166 0
M  V30 15558 N 1469.23 1.56605 0.176793 0
M  V30 15559 C 1470.48 1.81324 0.892535 0
M  V30 15560 C 1470.8 0.67301 1.83018 0
M  V30 15561 O 1470.07 -0.307498 1.93472 0
M  V30 15562 H 1468.65 0.668881 0.332576 0
M  V30 15563 H 1471.31 1.94086 0.17792 0
M  V30 15564 H 1470.41 2.75168 1.47272 0
M  V30 15565 N 1470.71 -0.445159 1.51182 0
M  V30 15566 C 1471.93 -1.22249 1.67541 0
M  V30 15567 C 1472.36 -1.84446 0.368972 0
M  V30 15568 O 1471.72 -1.68463 -0.670058 0
M  V30 15569 C 1471.77 -2.288 2.78717 0
M  V30 15570 O 1470.87 -3.34094 2.41775 0
M  V30 15571 H 1470.21 -0.358516 0.558894 0
M  V30 15572 H 1472.74 -0.526696 1.97704 0
M  V30 15573 H 1472.75 -2.73708 3.02569 0
M  V30 15574 H 1471.43 -1.82906 3.73521 0
M  V30 15575 H 1470 -2.94717 2.28466 0
M  V30 15576 N 1472.19 -1.41197 -0.700089 0
M  V30 15577 C 1473.15 -1.42419 -1.79582 0
M  V30 15578 C 1474.15 -0.31551 -1.57674 0
M  V30 15579 O 1475.34 -0.575173 -1.64431 0
M  V30 15580 C 1472.47 -1.23114 -3.17893 0
M  V30 15581 H 1473.67 -2.39956 -1.79892 0
M  V30 15582 H 1471.22 -1.27273 -0.907271 0
M  V30 15583 H 1471.95 -0.263992 -3.23224 0
M  V30 15584 H 1471.74 -2.03437 -3.35195 0
M  V30 15585 H 1473.23 -1.26793 -3.97886 0
M  V30 15586 N 1473.67 0.933891 -1.2695 0
M  V30 15587 C 1474.89 1.72042 -1.15828 0
M  V30 15588 C 1475.32 1.85975 0.28193 0
M  V30 15589 O 1474.67 1.35528 1.20423 0
M  V30 15590 C 1474.72 3.10112 -1.84019 0
M  V30 15591 O 1473.83 3.96504 -1.13394 0
M  V30 15592 H 1473.17 0.527573 -0.40319 0
M  V30 15593 H 1475.7 1.16914 -1.67905 0
M  V30 15594 H 1475.71 3.60461 -1.91133 0
M  V30 15595 H 1474.38 2.99287 -2.8879 0
M  V30 15596 H 1472.96 3.54948 -1.14307 0
M  V30 15597 N 1475.14 1.08871 1.13951 0
M  V30 15598 C 1476.37 0.843055 1.89492 0
M  V30 15599 C 1476.79 -0.599539 1.78289 0
M  V30 15600 O 1476.15 -1.42062 1.12642 0
M  V30 15601 C 1476.2 1.27572 3.3728 0
M  V30 15602 O 1475.3 0.430611 4.10146 0
M  V30 15603 H 1474.64 0.3058 0.589391 0
M  V30 15604 H 1477.17 1.45137 1.44209 0
M  V30 15605 H 1477.18 1.25864 3.88101 0
M  V30 15606 H 1475.86 2.32635 3.44751 0
M  V30 15607 H 1474.44 0.511516 3.69375 0
M  V30 15608 N 1476.62 -1.31073 0.875073 0
M  V30 15609 C 1477.87 -1.95791 0.484661 0
M  V30 15610 C 1478.18 -1.69907 -0.969074 0
M  V30 15611 O 1479.39 -2.28527 -1.46587 0
M  V30 15612 C 1477.85 -3.50532 0.815804 0
M  V30 15613 C 1477.45 -3.85249 2.28664 0
M  V30 15614 C 1479.2 -4.21615 0.494111 0
M  V30 15615 C 1477.1 -5.33124 2.55993 0
M  V30 15616 H 1476.03 -0.732806 0.177516 0
M  V30 15617 H 1478.69 -1.49169 1.06868 0
M  V30 15618 H 1477.07 -3.95673 0.16098 0
M  V30 15619 H 1478.24 -3.51051 2.98496 0
M  V30 15620 H 1476.56 -3.27244 2.57488 0
M  V30 15621 H 1479.15 -5.30417 0.675456 0
M  V30 15622 H 1479.5 -4.12437 -0.565815 0
M  V30 15623 H 1480.03 -3.82125 1.1057 0
M  V30 15624 H 1476.77 -5.47343 3.60688 0
M  V30 15625 H 1476.29 -5.68657 1.90761 0
M  V30 15626 H 1477.97 -6.00446 2.40984 0
M  V30 15627 N 1478.1 -0.635022 -1.4424 0
M  V30 15628 C 1479.38 -0.0718064 -1.95468 0
M  V30 15629 C 1479.76 1.40348 -1.57689 0
M  V30 15630 O 1479.11 2.11986 -0.852888 0
M  V30 15631 C 1479.32 -0.298793 -3.47719 0
M  V30 15632 C 1480.66 -0.194056 -4.24156 0
M  V30 15633 O 1481.69 -0.230368 -3.55454 0
M  V30 15634 O 1480.55 -0.102294 -5.46404 0
M  V30 15635 H 1477.64 0.0200784 -0.826756 0
M  V30 15636 H 1480.19 -0.706996 -1.54271 0
M  V30 15637 H 1478.96 -1.32233 -3.6828 0
M  V30 15638 H 1478.58 0.370347 -3.95871 0
M  V30 15639 N 1479.58 1.53054 -0.375806 0
M  V30 15640 C 1480.83 2.01003 0.210257 0
M  V30 15641 C 1481.15 1.26451 1.48442 0
M  V30 15642 O 1480.42 0.380687 1.92166 0
M  V30 15643 H 1479 0.74263 0.0806861 0
M  V30 15644 H 1481.66 1.8826 -0.504393 0
M  V30 15645 H 1480.76 3.09123 0.430027 0
M  V30 15646 N 1481.06 0.105248 1.57248 0
M  V30 15647 C 1481.99 -0.846915 2.176 0
M  V30 15648 C 1482.97 -1.28706 1.11216 0
M  V30 15649 O 1484.15 -1.35213 1.39396 0
M  V30 15650 C 1481.28 -2.10228 2.76445 0
M  V30 15651 C 1480.24 -1.80041 3.8829 0
M  V30 15652 C 1479.56 -3.12491 4.33882 0
M  V30 15653 C 1480.86 -1.07943 5.11024 0
M  V30 15654 H 1482.56 -0.344052 2.97417 0
M  V30 15655 H 1480.1 -0.164045 1.43063 0
M  V30 15656 H 1482.06 -2.77284 3.17319 0
M  V30 15657 H 1480.78 -2.62815 1.93897 0
M  V30 15658 H 1479.44 -1.15379 3.4797 0
M  V30 15659 H 1479.09 -3.62985 3.48211 0
M  V30 15660 H 1478.79 -2.93072 5.09296 0
M  V30 15661 H 1480.31 -3.80688 4.77398 0
M  V30 15662 H 1481.72 -1.65127 5.49004 0
M  V30 15663 H 1480.12 -0.986674 5.91933 0
M  V30 15664 H 1481.19 -0.0638511 4.84858 0
M  V30 15665 N 1482.53 -1.56697 -0.168486 0
M  V30 15666 C 1483.76 -1.86022 -0.898847 0
M  V30 15667 C 1484.17 -0.688909 -1.76212 0
M  V30 15668 O 1483.52 0.35111 -1.80313 0
M  V30 15669 C 1483.58 -3.09795 -1.82394 0
M  V30 15670 C 1483.24 -4.42553 -1.13999 0
M  V30 15671 C 1484.24 -5.1745 -0.504092 0
M  V30 15672 C 1481.92 -4.89288 -1.1359 0
M  V30 15673 C 1483.92 -6.37274 0.126758 0
M  V30 15674 C 1481.6 -6.09041 -0.501222 0
M  V30 15675 C 1482.6 -6.82878 0.128998 0
M  V30 15676 O 1482.29 -8.00359 0.753658 0
M  V30 15677 H 1482.02 -0.621283 -0.266426 0
M  V30 15678 H 1484.58 -2.04674 -0.172562 0
M  V30 15679 H 1482.81 -2.87096 -2.59061 0
M  V30 15680 H 1484.5 -3.25544 -2.42438 0
M  V30 15681 H 1485.26 -4.82424 -0.499207 0
M  V30 15682 H 1481.14 -4.31754 -1.61584 0
M  V30 15683 H 1484.68 -6.94846 0.619267 0
M  V30 15684 H 1480.58 -6.43532 -0.5037 0
M  V30 15685 H 1481.35 -8.1589 0.653188 0
M  V30 15686 N 1484.01 0.437135 -1.51416 0
M  V30 15687 C 1485.29 1.1978 -1.54636 0
M  V30 15688 C 1485.67 2.088 -0.310747 0
M  V30 15689 O 1485.02 2.1738 0.704148 0
M  V30 15690 C 1485.23 1.99947 -2.86046 0
M  V30 15691 C 1486.58 2.56981 -3.38003 0
M  V30 15692 O 1487.6 2.10157 -2.87598 0
M  V30 15693 O 1486.46 3.42383 -4.25953 0
M  V30 15694 H 1483.55 0.545346 -0.621713 0
M  V30 15695 H 1486.1 0.446189 -1.63729 0
M  V30 15696 H 1484.87 1.34564 -3.67435 0
M  V30 15697 H 1484.49 2.82172 -2.80115 0
M  V30 15698 N 1485.49 1.41566 0.692592 0
M  V30 15699 C 1486.73 1.42554 1.46485 0
M  V30 15700 C 1487.09 0.0341685 1.9197 0
M  V30 15701 O 1488.3 -0.0811732 2.68677 0
M  V30 15702 C 1486.57 2.40673 2.64218 0
M  V30 15703 S 1488.13 2.60215 3.53318 0
M  V30 15704 H 1484.94 0.50496 0.500537 0
M  V30 15705 H 1487.55 1.78027 0.807867 0
M  V30 15706 H 1486.25 3.40561 2.29012 0
M  V30 15707 H 1485.78 2.06562 3.34807 0
M  V30 15708 H 1487.8 1.87179 4.59542 0
M  V30 15709 N 1486.97 -0.927146 1.27443 0
M  V30 15710 C 1488.25 -1.65322 1.04538 0
M  V30 15711 C 1488.63 -2.06886 -0.419694 0
M  V30 15712 O 1487.97 -1.80352 -1.40304 0
M  V30 15713 C 1488.18 -2.85486 2.00746 0
M  V30 15714 C 1489.53 -3.56816 2.30147 0
M  V30 15715 O 1490.56 -2.95613 1.98724 0
M  V30 15716 O 1489.41 -4.67085 2.83714 0
M  V30 15717 H 1486.51 -0.724627 0.398554 0
M  V30 15718 H 1489.05 -0.977633 1.3871 0
M  V30 15719 H 1487.83 -2.51766 2.99549 0
M  V30 15720 H 1487.45 -3.60763 1.67139 0
M  V30 15721 N 1488.45 -1.09474 -1.13372 0
M  V30 15722 C 1489.39 -0.729274 -2.20872 0
M  V30 15723 C 1490.39 0.270036 -1.67234 0
M  V30 15724 O 1491.59 0.131445 -1.79519 0
M  V30 15725 H 1487.97 -0.217852 -0.719753 0
M  V30 15726 H 1489.94 -1.64505 -2.48959 0
M  V30 15727 C 1488.69 -0.166518 -3.47301 0
M  V30 15728 H 1488.01 -0.926666 -3.88913 0
M  V30 15729 H 1489.45 0.0512617 -4.23969 0
M  V30 15730 C 1487.91 1.09836 -3.18493 0
M  V30 15731 O 1488.44 2.18152 -3.37302 0
M  V30 15732 N 1486.65 1.01307 -2.7237 0
M  V30 15733 H 1486.19 0.131551 -2.57264 0
M  V30 15734 H 1486.15 1.86011 -2.5347 0
M  V30 15735 N 1489.92 1.30607 -0.882012 0
M  V30 15736 C 1491.34 1.78418 -0.549892 0
M  V30 15737 C 1491.69 1.72553 0.933797 0
M  V30 15738 O 1490.81 1.30058 1.72956 0
M  V30 15739 C 1491.41 3.2397 -0.991398 0
M  V30 15740 C 1489.97 3.69629 -0.710739 0
M  V30 15741 C 1489.11 2.51127 -1.17602 0
M  V30 15742 H 1492.06 1.17519 -1.06653 0
M  V30 15743 H 1492.08 3.79159 -0.319115 0
M  V30 15744 H 1491.6 3.28207 -2.07128 0
M  V30 15745 H 1489.7 3.70883 0.357273 0
M  V30 15746 H 1489.81 4.61232 -1.29621 0
M  V30 15747 H 1488.17 2.47642 -0.595444 0
M  V30 15748 H 1488.96 2.58103 -2.26358 0
M  V30 15749 N 1491.4 0.642663 1.43901 0
M  V30 15750 C 1492.81 0.232809 1.85243 0
M  V30 15751 C 1493.16 -1.21834 1.53789 0
M  V30 15752 O 1492.29 -1.92855 0.981625 0
M  V30 15753 C 1492.88 0.415749 3.36239 0
M  V30 15754 C 1491.44 0.0603055 3.76352 0
M  V30 15755 C 1490.59 0.723658 2.67691 0
M  V30 15756 H 1493.54 0.847052 1.34204 0
M  V30 15757 H 1493.56 -0.341903 3.78961 0
M  V30 15758 H 1493.07 1.472 3.59101 0
M  V30 15759 H 1491.18 -0.993761 3.59103 0
M  V30 15760 H 1491.29 0.478408 4.76705 0
M  V30 15761 H 1489.65 0.15787 2.5421 0
M  V30 15762 H 1490.44 1.78273 2.93383 0
M  V30 15763 N 1492.88 -1.52852 0.383918 0
M  V30 15764 C 1494.13 -2.0151 -0.199989 0
M  V30 15765 C 1494.46 -1.27058 -1.47263 0
M  V30 15766 O 1493.71 -0.357819 -1.92401 0
M  V30 15767 C 1494.01 -3.53602 -0.519674 0
M  V30 15768 C 1493.68 -4.46032 0.660789 0
M  V30 15769 C 1492.34 -4.71018 0.984646 0
M  V30 15770 C 1494.69 -5.00602 1.45077 0
M  V30 15771 C 1492.02 -5.47824 2.10013 0
M  V30 15772 C 1494.37 -5.78627 2.55682 0
M  V30 15773 C 1493.03 -6.01894 2.88582 0
M  V30 15774 H 1492.3 -0.737377 -0.0731812 0
M  V30 15775 H 1494.95 -1.843 0.520157 0
M  V30 15776 H 1493.26 -3.68856 -1.32108 0
M  V30 15777 H 1494.95 -3.88739 -0.984011 0
M  V30 15778 H 1491.54 -4.26745 0.398359 0
M  V30 15779 H 1495.73 -4.81228 1.21381 0
M  V30 15780 H 1490.98 -5.64066 2.3588 0
M  V30 15781 H 1495.16 -6.19914 3.173 0
M  V30 15782 H 1492.78 -6.61192 3.75138 0
M  V30 15783 N 1494.36 -0.113586 -1.5719 0
M  V30 15784 C 1495.59 0.553592 -1.99356 0
M  V30 15785 C 1496 1.60567 -0.993154 0
M  V30 15786 O 1495.36 1.82494 0.0147252 0
M  V30 15787 C 1495.41 1.18462 -3.41539 0
M  V30 15788 O 1495.13 0.174602 -4.37752 0
M  V30 15789 C 1496.63 1.93564 -3.98808 0
M  V30 15790 H 1493.85 0.146998 -0.6547 0
M  V30 15791 H 1496.4 -0.198329 -2.03536 0
M  V30 15792 H 1494.55 1.88736 -3.38316 0
M  V30 15793 H 1494.97 0.632395 -5.20674 0
M  V30 15794 H 1496.44 2.33051 -5.00391 0
M  V30 15795 H 1496.92 2.80874 -3.37648 0
M  V30 15796 H 1497.52 1.28066 -4.0556 0
M  V30 15797 N 1495.84 1.56784 0.160173 0
M  V30 15798 C 1497.07 1.86767 0.89026 0
M  V30 15799 C 1497.48 0.700276 1.75333 0
M  V30 15800 O 1496.84 -0.330342 1.79485 0
M  V30 15801 C 1496.89 3.15883 1.75784 0
M  V30 15802 O 1496.61 4.28124 0.929575 0
M  V30 15803 C 1498.11 3.5929 2.59664 0
M  V30 15804 H 1495.33 0.61938 0.258088 0
M  V30 15805 H 1497.87 2.03897 0.156919 0
M  V30 15806 H 1496.03 3.00546 2.4444 0
M  V30 15807 H 1496.44 5.01872 1.52397 0
M  V30 15808 H 1497.92 4.52506 3.16136 0
M  V30 15809 H 1498.39 2.83943 3.35072 0
M  V30 15810 H 1499 3.77277 1.96323 0
M  V30 15811 N 1497.32 -0.429099 1.51646 0
M  V30 15812 C 1498.25 -1.53996 1.69758 0
M  V30 15813 C 1499.26 -1.52189 0.578138 0
M  V30 15814 O 1500.45 -1.56816 0.852709 0
M  V30 15815 C 1497.55 -2.9291 1.7046 0
M  V30 15816 C 1496.72 -3.19132 2.99122 0
M  V30 15817 C 1495.78 -4.37813 2.91901 0
M  V30 15818 O 1494.81 -4.36065 3.65836 0
M  V30 15819 N 1496.01 -5.41834 2.08317 0
M  V30 15820 H 1498.77 -1.38861 2.65589 0
M  V30 15821 H 1496.34 -0.618148 1.49635 0
M  V30 15822 H 1498.33 -3.7034 1.63187 0
M  V30 15823 H 1496.9 -3.01602 0.821877 0
M  V30 15824 H 1496.12 -2.29926 3.20199 0
M  V30 15825 H 1497.41 -3.33483 3.84274 0
M  V30 15826 H 1496.8 -5.46094 1.4764 0
M  V30 15827 H 1495.36 -6.18085 2.06917 0
M  V30 15828 N 1498.79 -1.41931 -0.685074 0
M  V30 15829 C 1500.02 -1.45432 -1.47866 0
M  V30 15830 C 1500.44 -0.0641302 -1.87991 0
M  V30 15831 O 1499.8 0.935081 -1.55325 0
M  V30 15832 C 1499.85 -2.37801 -2.71077 0
M  V30 15833 O 1498.95 -1.84229 -3.68963 0
M  V30 15834 H 1498.29 -0.493156 -0.444627 0
M  V30 15835 H 1500.82 -1.86508 -0.841177 0
M  V30 15836 H 1500.83 -2.54033 -3.19266 0
M  V30 15837 H 1499.51 -3.38807 -2.41211 0
M  V30 15838 H 1498.09 -1.775 -3.27945 0
M  V30 15839 N 1500.27 0.920374 -1.27933 0
M  V30 15840 C 1501.69 1.19761 -1.05496 0
M  V30 15841 C 1501.89 2.00435 0.206864 0
M  V30 15842 O 1500.94 2.35518 0.910356 0
M  V30 15843 C 1502.26 1.93863 -2.29864 0
M  V30 15844 C 1503.8 2.06773 -2.34976 0
M  V30 15845 C 1504.28 2.84282 -3.59093 0
M  V30 15846 N 1505.77 2.91847 -3.59694 0
M  V30 15847 C 1506.51 3.52303 -4.52404 0
M  V30 15848 N 1506 4.14092 -5.55427 0
M  V30 15849 N 1507.79 3.49778 -4.40013 0
M  V30 15850 H 1499.95 0.381596 -2.08944 0
M  V30 15851 H 1502.21 0.231451 -0.919312 0
M  V30 15852 H 1501.91 1.42008 -3.21756 0
M  V30 15853 H 1501.79 2.94446 -2.35757 0
M  V30 15854 H 1504.18 2.57812 -1.43586 0
M  V30 15855 H 1504.26 1.05388 -2.33082 0
M  V30 15856 H 1503.9 2.33925 -4.50823 0
M  V30 15857 H 1503.83 3.85968 -3.5824 0
M  V30 15858 H 1506.32 2.4794 -2.85191 0
M  V30 15859 H 1506.63 4.58183 -6.22325 0
M  V30 15860 H 1504.98 4.12616 -5.59261 0
M  V30 15861 H 1508.17 3.00712 -3.58733 0
M  V30 15862 H 1508.34 3.96603 -5.12455 0
M  V30 15863 N 1501.75 1.10074 1.1279 0
M  V30 15864 C 1502.97 0.863106 1.88587 0
M  V30 15865 C 1503.4 -0.580595 1.78915 0
M  V30 15866 O 1502.76 -1.40859 1.14142 0
M  V30 15867 C 1502.81 1.31142 3.35908 0
M  V30 15868 O 1501.91 0.474088 4.09666 0
M  V30 15869 H 1501.25 0.312034 0.586115 0
M  V30 15870 H 1503.78 1.46659 1.42662 0
M  V30 15871 H 1503.79 1.29974 3.86744 0
M  V30 15872 H 1502.47 2.36279 3.42265 0
M  V30 15873 H 1501.04 0.550665 3.68812 0
M  V30 15874 N 1503.23 -1.30138 0.888926 0
M  V30 15875 C 1504.48 -1.95265 0.5054 0
M  V30 15876 C 1504.79 -1.70925 -0.950998 0
M  V30 15877 O 1506 -2.30069 -1.44155 0
M  V30 15878 C 1504.45 -3.49647 0.852937 0
M  V30 15879 C 1504.06 -3.82802 2.32737 0
M  V30 15880 C 1505.8 -4.21067 0.538801 0
M  V30 15881 C 1503.71 -5.30379 2.61633 0
M  V30 15882 H 1502.64 -0.730882 0.185278 0
M  V30 15883 H 1505.29 -1.48027 1.08444 0
M  V30 15884 H 1503.67 -3.9548 0.202937 0
M  V30 15885 H 1504.85 -3.47866 3.02202 0
M  V30 15886 H 1503.16 -3.24495 2.60944 0
M  V30 15887 H 1505.76 -5.2967 0.731676 0
M  V30 15888 H 1506.1 -4.13014 -0.522039 0
M  V30 15889 H 1506.64 -3.8093 1.14617 0
M  V30 15890 H 1503.37 -5.43486 3.66473 0
M  V30 15891 H 1502.89 -5.66601 1.96782 0
M  V30 15892 H 1504.57 -5.97856 2.47339 0
M  V30 15893 N 1504.71 -0.650285 -1.43559 0
M  V30 15894 C 1505.93 -0.168483 -2.06715 0
M  V30 15895 C 1506.36 1.15576 -1.48404 0
M  V30 15896 O 1505.71 1.71333 -0.592842 0
M  V30 15897 C 1505.76 -0.0877095 -3.60493 0
M  V30 15898 O 1504.87 0.950915 -4.01287 0
M  V30 15899 H 1504.21 -0.0935281 -0.65738 0
M  V30 15900 H 1506.74 -0.892381 -1.84113 0
M  V30 15901 H 1506.75 0.0965825 -4.07886 0
M  V30 15902 H 1505.42 -1.05442 -4.02312 0
M  V30 15903 H 1504 0.739648 -3.65491 0
M  V30 15904 N 1506.18 1.52647 -0.392018 0
M  V30 15905 C 1507.13 2.26532 0.441819 0
M  V30 15906 C 1508.1 1.2825 1.05552 0
M  V30 15907 O 1509.29 1.57083 1.08303 0
M  V30 15908 C 1506.43 3.0774 1.56174 0
M  V30 15909 C 1505.54 4.20955 0.970632 0
M  V30 15910 C 1504.67 4.89553 2.06183 0
M  V30 15911 C 1503.71 5.94756 1.44676 0
M  V30 15912 N 1502.85 6.5694 2.47738 0
M  V30 15913 H 1507.69 2.97363 -0.194699 0
M  V30 15914 H 1505.23 1.46704 -0.107848 0
M  V30 15915 H 1507.18 3.53116 2.22183 0
M  V30 15916 H 1505.81 2.39112 2.16853 0
M  V30 15917 H 1504.87 3.79874 0.200067 0
M  V30 15918 H 1506.18 4.96474 0.481181 0
M  V30 15919 H 1505.33 5.38247 2.79956 0
M  V30 15920 H 1504.07 4.13564 2.58488 0
M  V30 15921 H 1503.08 5.45399 0.694288 0
M  V30 15922 H 1504.3 6.72679 0.931617 0
M  V30 15923 H 1502.25 5.8379 2.99208 0
M  V30 15924 H 1502.16 7.2808 2.03556 0
M  V30 15925 H 1503.43 7.10277 3.21133 0
M  V30 15926 N 1507.66 0.121921 1.57128 0
M  V30 15927 C 1508.61 -0.827205 2.15467 0
M  V30 15928 C 1509.58 -1.26155 1.08047 0
M  V30 15929 O 1510.76 -1.33855 1.35969 0
M  V30 15930 C 1507.9 -2.07077 2.76067 0
M  V30 15931 C 1507.02 -1.68452 3.97804 0
M  V30 15932 C 1506.15 -2.87797 4.46482 0
M  V30 15933 C 1505.19 -2.45426 5.60743 0
M  V30 15934 N 1504.33 -3.57695 6.04151 0
M  V30 15935 H 1509.17 -0.322879 2.96246 0
M  V30 15936 H 1506.71 -0.147677 1.46357 0
M  V30 15937 H 1508.66 -2.79943 3.09335 0
M  V30 15938 H 1507.29 -2.54963 1.97974 0
M  V30 15939 H 1506.35 -0.854487 3.70679 0
M  V30 15940 H 1507.66 -1.33316 4.80654 0
M  V30 15941 H 1506.81 -3.68885 4.81673 0
M  V30 15942 H 1505.55 -3.26162 3.62587 0
M  V30 15943 H 1504.56 -1.62772 5.25153 0
M  V30 15944 H 1505.78 -2.08175 6.46405 0
M  V30 15945 H 1503.73 -3.95728 5.23197 0
M  V30 15946 H 1503.64 -3.26491 6.81865 0
M  V30 15947 H 1504.91 -4.39213 6.43981 0
M  V30 15948 N 1509.14 -1.56867 -0.151857 0
M  V30 15949 C 1510.55 -1.72573 -0.712411 0
M  V30 15950 C 1510.9 -0.735557 -1.8189 0
M  V30 15951 O 1510.03 0.09888 -2.16174 0
M  V30 15952 C 1510.62 -3.12906 -1.29905 0
M  V30 15953 C 1509.18 -3.30231 -1.80623 0
M  V30 15954 C 1508.33 -2.68507 -0.692781 0
M  V30 15955 H 1511.28 -1.58528 0.0737603 0
M  V30 15956 H 1511.3 -3.12636 -2.16885 0
M  V30 15957 H 1510.81 -3.84949 -0.493509 0
M  V30 15958 H 1508.91 -2.63176 -2.6376 0
M  V30 15959 H 1509.03 -4.38141 -1.93828 0
M  V30 15960 H 1507.39 -2.28842 -1.11818 0
M  V30 15961 H 1508.17 -3.43151 0.10124 0
M  V30 15962 N 1510.62 0.421051 -1.51871 0
M  V30 15963 C 1511.55 1.51928 -1.77313 0
M  V30 15964 C 1512.53 1.58258 -0.623579 0
M  V30 15965 O 1513.71 1.73724 -0.867967 0
M  V30 15966 C 1510.84 2.89865 -1.913 0
M  V30 15967 C 1509.8 2.98391 -3.06834 0
M  V30 15968 C 1509.12 4.38466 -3.06026 0
M  V30 15969 C 1510.42 2.7097 -4.46511 0
M  V30 15970 H 1512.12 1.30889 -2.69274 0
M  V30 15971 H 1509.66 0.628229 -1.29573 0
M  V30 15972 H 1511.62 3.66669 -2.07682 0
M  V30 15973 H 1510.34 3.12172 -0.960011 0
M  V30 15974 H 1509 2.24029 -2.90184 0
M  V30 15975 H 1508.65 4.57764 -2.08472 0
M  V30 15976 H 1508.35 4.45097 -3.83618 0
M  V30 15977 H 1509.87 5.17221 -3.24522 0
M  V30 15978 H 1511.29 3.37501 -4.63428 0
M  V30 15979 H 1509.68 2.88992 -5.25931 0
M  V30 15980 H 1510.75 1.66476 -4.55427 0
M  V30 15981 N 1512.1 1.42293 0.677538 0
M  V30 15982 C 1513.37 1.331 1.43331 0
M  V30 15983 C 1513.75 -0.0329227 2.11074 0
M  V30 15984 O 1513.1 -1.04826 2.03036 0
M  V30 15985 C 1513.31 2.49725 2.438 0
M  V30 15986 C 1514.66 2.91716 3.08524 0
M  V30 15987 O 1515.68 2.49596 2.54127 0
M  V30 15988 O 1514.54 3.64609 4.07091 0
M  V30 15989 H 1511.64 0.524758 0.639185 0
M  V30 15990 H 1514.18 1.54294 0.706493 0
M  V30 15991 H 1512.95 3.40663 1.92522 0
M  V30 15992 H 1512.58 2.30503 3.23966 0
M  V30 15993 N 1513.57 -0.913576 1.28419 0
M  V30 15994 C 1514.82 -1.65731 1.14961 0
M  V30 15995 C 1515.14 -1.93269 -0.301079 0
M  V30 15996 O 1516.34 -2.6573 -0.556778 0
M  V30 15997 C 1514.8 -2.98562 2.00969 0
M  V30 15998 C 1514.41 -2.78671 3.5078 0
M  V30 15999 C 1516.15 -3.76439 1.96198 0
M  V30 16000 C 1514.06 -4.07144 4.28938 0
M  V30 16001 H 1512.99 -0.621681 0.426648 0
M  V30 16002 H 1515.64 -1.0138 1.52952 0
M  V30 16003 H 1514.02 -3.64049 1.55835 0
M  V30 16004 H 1515.19 -2.21864 4.03873 0
M  V30 16005 H 1513.51 -2.14206 3.57078 0
M  V30 16006 H 1516.11 -4.71668 2.51861 0
M  V30 16007 H 1516.45 -4.05577 0.938771 0
M  V30 16008 H 1516.98 -3.17772 2.39303 0
M  V30 16009 H 1513.72 -3.83178 5.31841 0
M  V30 16010 H 1513.24 -4.63562 3.80619 0
M  V30 16011 H 1514.92 -4.754 4.38866 0
M  V30 16012 N 1515.05 -1.1067 -1.12204 0
M  V30 16013 C 1516.3 -0.84895 -1.83405 0
M  V30 16014 C 1516.62 0.62724 -1.84637 0
M  V30 16015 O 1515.89 1.45546 -1.31123 0
M  V30 16016 H 1514.47 -0.311074 -0.679148 0
M  V30 16017 H 1517.13 -1.39747 -1.35856 0
M  V30 16018 H 1516.23 -1.21398 -2.87522 0
M  V30 16019 N 1516.53 1.29665 -0.895815 0
M  V30 16020 C 1517.46 2.30268 -0.387151 0
M  V30 16021 C 1518.44 1.61442 0.535768 0
M  V30 16022 O 1519.63 1.88978 0.447321 0
M  V30 16023 C 1516.76 3.45107 0.389639 0
M  V30 16024 C 1515.71 4.25706 -0.442498 0
M  V30 16025 C 1515.04 5.32704 0.461552 0
M  V30 16026 C 1516.34 4.9419 -1.69036 0
M  V30 16027 H 1518.03 2.73064 -1.22786 0
M  V30 16028 H 1515.58 1.31274 -0.591869 0
M  V30 16029 H 1517.53 4.14559 0.756203 0
M  V30 16030 H 1516.25 3.01145 1.2641 0
M  V30 16031 H 1514.91 3.57957 -0.791343 0
M  V30 16032 H 1514.56 4.84987 1.33403 0
M  V30 16033 H 1514.26 5.87529 -0.0915006 0
M  V30 16034 H 1515.78 6.05009 0.824395 0
M  V30 16035 H 1517.2 5.561 -1.39376 0
M  V30 16036 H 1515.6 5.5893 -2.18444 0
M  V30 16037 H 1516.67 4.19699 -2.42859 0
M  V30 16038 N 1518.01 0.657889 1.43212 0
M  V30 16039 C 1519.42 0.252443 1.84985 0
M  V30 16040 C 1519.77 -1.20196 1.55072 0
M  V30 16041 O 1518.9 -1.91803 1.00202 0
M  V30 16042 C 1519.49 0.451388 3.3578 0
M  V30 16043 C 1518.05 0.100219 3.76267 0
M  V30 16044 C 1517.2 0.752009 2.66908 0
M  V30 16045 H 1520.15 0.861239 1.33298 0
M  V30 16046 H 1520.17 -0.30169 3.79302 0
M  V30 16047 H 1519.68 1.51001 3.5752 0
M  V30 16048 H 1517.78 -0.955618 3.60137 0
M  V30 16049 H 1517.89 0.528942 4.76171 0
M  V30 16050 H 1516.26 0.184823 2.54029 0
M  V30 16051 H 1517.04 1.81375 2.91476 0
M  V30 16052 N 1519.49 -1.52437 0.400108 0
M  V30 16053 C 1520.71 -2.0661 -0.180861 0
M  V30 16054 C 1521.14 -1.269 -1.38845 0
M  V30 16055 O 1520.49 -0.296862 -1.78853 0
M  V30 16056 C 1520.54 -3.56851 -0.518595 0
M  V30 16057 O 1519.65 -3.79634 -1.61095 0
M  V30 16058 H 1518.99 -0.663752 -0.0181348 0
M  V30 16059 H 1521.52 -1.96479 0.570702 0
M  V30 16060 H 1521.53 -4.00478 -0.779817 0
M  V30 16061 H 1520.2 -4.14302 0.364216 0
M  V30 16062 H 1518.78 -3.47892 -1.3426 0
M  V30 16063 N 1520.96 -0.130252 -1.57061 0
M  V30 16064 C 1522.19 0.535707 -2.00362 0
M  V30 16065 C 1522.61 1.58712 -1.00956 0
M  V30 16066 O 1521.97 1.81292 0.0171546 0
M  V30 16067 C 1522.02 1.12836 -3.42491 0
M  V30 16068 O 1521.12 2.24367 -3.46025 0
M  V30 16069 H 1520.47 0.132735 -0.650598 0
M  V30 16070 H 1523 -0.222047 -2.03392 0
M  V30 16071 H 1523.01 1.46115 -3.80939 0
M  V30 16072 H 1521.68 0.358304 -4.14354 0
M  V30 16073 H 1520.26 1.92443 -3.19406 0
M  V30 16074 N 1522.44 1.56945 0.143535 0
M  V30 16075 C 1523.39 1.98526 1.17711 0
M  V30 16076 C 1524.36 0.853402 1.425 0
M  V30 16077 O 1525.55 1.11574 1.54777 0
M  V30 16078 C 1522.69 2.37395 2.50475 0
M  V30 16079 C 1521.8 3.63887 2.32831 0
M  V30 16080 C 1520.93 3.91844 3.58653 0
M  V30 16081 C 1519.97 5.11595 3.36061 0
M  V30 16082 N 1519.11 5.35545 4.54022 0
M  V30 16083 H 1523.95 2.86624 0.815524 0
M  V30 16084 H 1521.49 1.41802 0.391231 0
M  V30 16085 H 1523.44 2.5796 3.27891 0
M  V30 16086 H 1522.07 1.52372 2.84575 0
M  V30 16087 H 1521.13 3.51078 1.46452 0
M  V30 16088 H 1522.44 4.51459 2.12098 0
M  V30 16089 H 1521.59 4.12926 4.44497 0
M  V30 16090 H 1520.33 3.027 3.82393 0
M  V30 16091 H 1519.34 4.90383 2.48606 0
M  V30 16092 H 1520.56 6.02295 3.13716 0
M  V30 16093 H 1518.51 4.49355 4.77929 0
M  V30 16094 H 1518.42 6.17393 4.36305 0
M  V30 16095 H 1519.69 5.61127 5.4107 0
M  V30 16096 N 1523.92 -0.412991 1.52093 0
M  V30 16097 C 1524.87 -1.50193 1.7154 0
M  V30 16098 C 1525.86 -1.50492 0.569294 0
M  V30 16099 O 1527.05 -1.56534 0.826207 0
M  V30 16100 C 1524.18 -2.8816 1.86598 0
M  V30 16101 C 1523.26 -2.92524 3.07068 0
M  V30 16102 N 1523.65 -2.66591 4.29841 0
M  V30 16103 C 1521.95 -3.23691 3.06822 0
M  V30 16104 C 1522.65 -2.77424 5.11284 0
M  V30 16105 N 1521.63 -3.10138 4.46448 0
M  V30 16106 H 1525.43 -1.28932 2.64109 0
M  V30 16107 H 1522.94 -0.620648 1.50072 0
M  V30 16108 H 1524.94 -3.66532 1.98646 0
M  V30 16109 H 1523.6 -3.10422 0.952263 0
M  V30 16110 H 1524.61 -2.41058 4.58379 0
M  V30 16111 H 1521.29 -3.51572 2.25174 0
M  V30 16112 H 1522.68 -2.61121 6.19084 0
M  V30 16113 N 1525.4 -1.4265 -0.669982 0
M  V30 16114 C 1526.62 -1.46992 -1.46315 0
M  V30 16115 C 1527.05 -0.0840655 -1.87912 0
M  V30 16116 O 1526.41 0.918554 -1.56308 0
M  V30 16117 C 1526.46 -2.40663 -2.6854 0
M  V30 16118 O 1525.56 -1.88132 -3.66988 0
M  V30 16119 H 1524.9 -0.497844 -0.439372 0
M  V30 16120 H 1527.43 -1.8739 -0.821348 0
M  V30 16121 H 1527.44 -2.57405 -3.16554 0
M  V30 16122 H 1526.12 -3.41346 -2.37604 0
M  V30 16123 H 1524.69 -1.80969 -3.26044 0
M  V30 16124 N 1526.88 0.906753 -1.28902 0
M  V30 16125 C 1527.81 2.01497 -1.09233 0
M  V30 16126 C 1528.82 1.62746 -0.0419378 0
M  V30 16127 O 1530.01 1.76198 -0.285728 0
M  V30 16128 C 1527.11 3.32816 -0.639255 0
M  V30 16129 C 1526.28 4.00137 -1.76661 0
M  V30 16130 C 1525.34 5.09742 -1.30573 0
M  V30 16131 O 1524.37 5.32559 -2.00921 0
M  V30 16132 N 1525.57 5.80243 -0.17275 0
M  V30 16133 H 1528.34 2.18927 -2.04673 0
M  V30 16134 H 1525.9 1.0785 -1.20748 0
M  V30 16135 H 1527.89 4.03477 -0.31439 0
M  V30 16136 H 1526.46 3.11807 0.222498 0
M  V30 16137 H 1525.68 3.22933 -2.26071 0
M  V30 16138 H 1526.97 4.41859 -2.52266 0
M  V30 16139 H 1526.37 5.64184 0.413931 0
M  V30 16140 H 1524.92 6.51734 0.0927926 0
M  V30 16141 N 1528.36 1.11264 1.11616 0
M  V30 16142 C 1529.29 0.79149 2.19676 0
M  V30 16143 C 1530.27 -0.239351 1.68408 0
M  V30 16144 O 1531.45 -0.103228 1.93925 0
M  V30 16145 C 1528.58 0.231891 3.46525 0
M  V30 16146 C 1527.54 1.19439 4.10997 0
M  V30 16147 C 1526.86 0.495593 5.32398 0
M  V30 16148 C 1528.16 2.54437 4.56135 0
M  V30 16149 H 1529.86 1.69503 2.46797 0
M  V30 16150 H 1527.4 0.816433 1.18619 0
M  V30 16151 H 1529.35 -0.00497468 4.214 0
M  V30 16152 H 1528.08 -0.706938 3.18857 0
M  V30 16153 H 1526.74 1.41686 3.38113 0
M  V30 16154 H 1526.39 -0.447984 5.01001 0
M  V30 16155 H 1526.09 1.13753 5.76484 0
M  V30 16156 H 1527.61 0.267476 6.10014 0
M  V30 16157 H 1529.02 2.36289 5.22341 0
M  V30 16158 H 1527.42 3.14595 5.11028 0
M  V30 16159 H 1528.49 3.13795 3.69676 0
M  V30 16160 N 1529.83 -1.29188 0.902679 0
M  V30 16161 C 1531.06 -2.00113 0.544953 0
M  V30 16162 C 1531.48 -1.67093 -0.863805 0
M  V30 16163 O 1530.84 -0.897179 -1.57545 0
M  V30 16164 C 1530.89 -3.52762 0.747741 0
M  V30 16165 O 1529.99 -4.11923 -0.198388 0
M  V30 16166 H 1529.33 -0.629054 0.212572 0
M  V30 16167 H 1531.86 -1.64611 1.21508 0
M  V30 16168 H 1531.87 -4.02732 0.653546 0
M  V30 16169 H 1530.55 -3.76131 1.77478 0
M  V30 16170 H 1529.13 -3.72857 -0.0563959 0
M  V30 16171 N 1531.31 -0.665475 -1.42861 0
M  V30 16172 C 1532.59 -0.113252 -1.95272 0
M  V30 16173 C 1532.97 1.36972 -1.6063 0
M  V30 16174 O 1532.32 2.10129 -0.897662 0
M  V30 16175 C 1532.53 -0.372482 -3.47007 0
M  V30 16176 C 1533.87 -0.283982 -4.23649 0
M  V30 16177 O 1534.9 -0.305714 -3.54886 0
M  V30 16178 O 1533.76 -0.218171 -5.46064 0
M  V30 16179 H 1530.85 0.00253712 -0.826996 0
M  V30 16180 H 1533.4 -0.739561 -1.52737 0
M  V30 16181 H 1532.17 -1.40015 -3.65392 0
M  V30 16182 H 1531.79 0.286294 -3.96568 0
M  V30 16183 N 1532.79 1.52222 -0.408187 0
M  V30 16184 C 1533.72 2.29892 0.408868 0
M  V30 16185 C 1534.7 1.34063 1.04695 0
M  V30 16186 O 1535.89 1.6297 1.05615 0
M  V30 16187 C 1533.02 3.11964 1.52629 0
M  V30 16188 C 1531.97 4.15833 1.01326 0
M  V30 16189 C 1531.3 4.86244 2.2242 0
M  V30 16190 C 1532.6 5.22256 0.0679573 0
M  V30 16191 H 1534.29 2.98443 -0.23923 0
M  V30 16192 H 1531.84 1.43528 -0.116496 0
M  V30 16193 H 1533.79 3.65067 2.10486 0
M  V30 16194 H 1532.51 2.41181 2.20225 0
M  V30 16195 H 1531.17 3.63739 0.4571 0
M  V30 16196 H 1530.82 4.11991 2.88569 0
M  V30 16197 H 1530.52 5.56461 1.88746 0
M  V30 16198 H 1532.04 5.42159 2.80885 0
M  V30 16199 H 1533.46 5.70604 0.555295 0
M  V30 16200 H 1531.85 5.9983 -0.179934 0
M  V30 16201 H 1532.92 4.76892 -0.877599 0
M  V30 16202 N 1534.27 0.138579 1.5699 0
M  V30 16203 C 1535.5 -0.521049 1.99922 0
M  V30 16204 C 1535.91 -1.59508 1.01754 0
M  V30 16205 O 1535.25 -1.83699 0.00521913 0
M  V30 16206 C 1535.31 -1.18856 3.39284 0
M  V30 16207 C 1534.97 -0.260145 4.56259 0
M  V30 16208 C 1535.97 0.508919 5.17403 0
M  V30 16209 C 1533.66 -0.165504 5.02027 0
M  V30 16210 C 1535.65 1.36016 6.22719 0
M  V30 16211 C 1533.34 0.689346 6.07199 0
M  V30 16212 C 1534.34 1.45079 6.67414 0
M  V30 16213 O 1534.02 2.29141 7.70551 0
M  V30 16214 H 1533.76 -0.140889 0.661155 0
M  V30 16215 H 1536.31 0.227618 2.04135 0
M  V30 16216 H 1534.54 -1.9847 3.31883 0
M  V30 16217 H 1536.23 -1.74706 3.66377 0
M  V30 16218 H 1536.99 0.445787 4.82947 0
M  V30 16219 H 1532.87 -0.747903 4.54893 0
M  V30 16220 H 1536.42 1.95496 6.69647 0
M  V30 16221 H 1532.31 0.7538 6.41084 0
M  V30 16222 H 1533.08 2.22296 7.87735 0
M  V30 16223 N 1535.75 -1.57019 -0.13521 0
M  V30 16224 C 1536.99 -1.83626 -0.844147 0
M  V30 16225 C 1537.31 -0.721298 -1.81169 0
M  V30 16226 O 1536.58 0.256095 -1.94219 0
M  V30 16227 H 1535.16 -0.677464 -0.314725 0
M  V30 16228 H 1537.83 -1.9449 -0.126399 0
M  V30 16229 H 1536.92 -2.78976 -1.39925 0
M  V30 16230 N 1537.22 0.404919 -1.52309 0
M  V30 16231 C 1538.17 1.49363 -1.75953 0
M  V30 16232 C 1539.14 1.54802 -0.60212 0
M  V30 16233 O 1540.33 1.71308 -0.840128 0
M  V30 16234 C 1537.47 2.86767 -1.91987 0
M  V30 16235 C 1536.58 2.90603 -3.19646 0
M  V30 16236 C 1535.71 4.19333 -3.26088 0
M  V30 16237 C 1534.75 4.17161 -4.47932 0
M  V30 16238 N 1533.89 5.37469 -4.51743 0
M  V30 16239 H 1538.73 1.28503 -2.6887 0
M  V30 16240 H 1536.27 0.623684 -1.33224 0
M  V30 16241 H 1538.23 3.66536 -1.99267 0
M  V30 16242 H 1536.86 3.06112 -1.02447 0
M  V30 16243 H 1535.91 2.033 -3.21517 0
M  V30 16244 H 1537.22 2.84864 -4.09456 0
M  V30 16245 H 1536.37 5.07497 -3.32463 0
M  V30 16246 H 1535.11 4.27774 -2.34224 0
M  V30 16247 H 1534.12 3.27386 -4.417 0
M  V30 16248 H 1535.34 4.10356 -5.41096 0
M  V30 16249 H 1533.29 5.46569 -3.62764 0
M  V30 16250 H 1533.21 5.3374 -5.35404 0
M  V30 16251 H 1534.47 6.27575 -4.62353 0
M  V30 16252 N 1538.7 1.43003 0.662408 0
M  V30 16253 C 1539.95 1.44133 1.42239 0
M  V30 16254 C 1540.28 0.062249 1.944 0
M  V30 16255 O 1539.53 -0.931341 1.72118 0
M  V30 16256 C 1539.83 2.4231 2.62718 0
M  V30 16257 C 1539.5 3.88403 2.29028 0
M  V30 16258 C 1538.16 4.28194 2.19552 0
M  V30 16259 C 1540.51 4.80505 2.01902 0
M  V30 16260 C 1537.84 5.58052 1.81092 0
M  V30 16261 C 1540.19 6.10718 1.64943 0
M  V30 16262 C 1538.86 6.49496 1.53985 0
M  V30 16263 H 1538.13 0.527419 0.52049 0
M  V30 16264 H 1540.77 1.76024 0.75417 0
M  V30 16265 H 1539.08 2.03789 3.3463 0
M  V30 16266 H 1540.77 2.40442 3.20918 0
M  V30 16267 H 1537.36 3.56906 2.37311 0
M  V30 16268 H 1541.55 4.50542 2.08149 0
M  V30 16269 H 1536.8 5.86945 1.71187 0
M  V30 16270 H 1540.98 6.81564 1.42982 0
M  V30 16271 H 1538.61 7.50026 1.23954 0
M  V30 16272 N 1540.18 -0.899904 1.29381 0
M  V30 16273 C 1541.41 -1.68911 1.20349 0
M  V30 16274 C 1541.83 -1.86657 -0.232523 0
M  V30 16275 O 1541.19 -1.38674 -1.16787 0
M  V30 16276 C 1541.24 -3.05124 1.92177 0
M  V30 16277 O 1540.34 -3.93358 1.23867 0
M  V30 16278 H 1539.68 -0.516698 0.417036 0
M  V30 16279 H 1542.21 -1.12422 1.70946 0
M  V30 16280 H 1542.22 -3.55267 2.00623 0
M  V30 16281 H 1540.9 -2.91525 2.96624 0
M  V30 16282 H 1539.47 -3.51793 1.23677 0
M  V30 16283 N 1541.66 -1.11854 -1.11024 0
M  V30 16284 C 1542.91 -0.870073 -1.82855 0
M  V30 16285 C 1543.23 0.604215 -1.84877 0
M  V30 16286 O 1542.49 1.46232 -1.30056 0
M  V30 16287 C 1542.79 -1.3823 -3.29586 0
M  V30 16288 C 1542.45 -2.87057 -3.4772 0
M  V30 16289 C 1541.12 -3.27696 -3.52376 0
M  V30 16290 C 1543.47 -3.8289 -3.53617 0
M  V30 16291 C 1540.8 -4.62886 -3.60491 0
M  V30 16292 C 1543.15 -5.17902 -3.63263 0
M  V30 16293 C 1541.81 -5.58092 -3.66182 0
M  V30 16294 H 1541.08 -0.318382 -0.669114 0
M  V30 16295 H 1543.73 -1.39769 -1.30908 0
M  V30 16296 H 1542.03 -0.775018 -3.84058 0
M  V30 16297 H 1543.73 -1.16634 -3.83663 0
M  V30 16298 H 1540.32 -2.54623 -3.44768 0
M  V30 16299 H 1544.5 -3.52591 -3.49275 0
M  V30 16300 H 1539.76 -4.93425 -3.61029 0
M  V30 16301 H 1543.93 -5.9199 -3.6677 0
M  V30 16302 H 1541.56 -6.62838 -3.72222 0
M  V30 16303 N 1543.14 1.28707 -0.909517 0
M  V30 16304 C 1544.08 2.27427 -0.393155 0
M  V30 16305 C 1545.05 1.57414 0.53009 0
M  V30 16306 O 1546.24 1.85339 0.453205 0
M  V30 16307 C 1543.38 3.4317 0.364507 0
M  V30 16308 C 1542.49 4.27942 -0.590757 0
M  V30 16309 C 1541.63 5.30878 0.184931 0
M  V30 16310 C 1540.67 6.07311 -0.764222 0
M  V30 16311 N 1539.8 7.02096 -0.0223203 0
M  V30 16312 H 1544.64 2.70974 -1.24005 0
M  V30 16313 H 1542.18 1.33265 -0.6228 0
M  V30 16314 H 1544.14 4.09063 0.819937 0
M  V30 16315 H 1542.77 3.00625 1.17578 0
M  V30 16316 H 1541.82 3.62131 -1.16471 0
M  V30 16317 H 1543.13 4.81102 -1.31689 0
M  V30 16318 H 1542.29 6.02635 0.701116 0
M  V30 16319 H 1541.02 4.78474 0.944143 0
M  V30 16320 H 1540.03 5.34408 -1.29182 0
M  V30 16321 H 1541.25 6.61804 -1.52292 0
M  V30 16322 H 1539.2 6.52048 0.718978 0
M  V30 16323 H 1539.12 7.5286 -0.688359 0
M  V30 16324 H 1540.39 7.78059 0.473807 0
M  V30 16325 N 1544.61 0.673042 1.42506 0
M  V30 16326 C 1545.84 0.201349 2.0642 0
M  V30 16327 C 1546.26 -1.132 1.50224 0
M  V30 16328 O 1545.62 -1.70368 0.620024 0
M  V30 16329 C 1545.67 0.14505 3.60308 0
M  V30 16330 O 1544.77 -0.886953 4.02749 0
M  V30 16331 H 1544.12 0.103975 0.655809 0
M  V30 16332 H 1546.65 0.921559 1.8267 0
M  V30 16333 H 1546.66 -0.0316792 4.07988 0
M  V30 16334 H 1545.33 1.11829 4.00583 0
M  V30 16335 H 1543.91 -0.681408 3.66621 0
M  V30 16336 N 1546.09 -1.52004 0.416254 0
M  V30 16337 C 1547.37 -1.94403 -0.216103 0
M  V30 16338 C 1547.75 -1.35362 -1.61989 0
M  V30 16339 O 1547.1 -0.532242 -2.22215 0
M  V30 16340 C 1547.31 -3.48336 -0.215225 0
M  V30 16341 C 1548.66 -4.22406 -0.431109 0
M  V30 16342 O 1549.68 -3.54982 -0.294271 0
M  V30 16343 O 1548.54 -5.4198 -0.70145 0
M  V30 16344 H 1545.63 -0.814838 -0.141306 0
M  V30 16345 H 1548.18 -1.62983 0.472712 0
M  V30 16346 H 1546.95 -3.83709 0.767004 0
M  V30 16347 H 1546.57 -3.86137 -0.947841 0
M  V30 16348 N 1547.57 -0.146903 -1.56914 0
M  V30 16349 C 1548.99 0.20951 -1.58219 0
M  V30 16350 C 1549.19 1.64679 -1.16116 0
M  V30 16351 O 1548.24 2.37352 -0.861414 0
M  V30 16352 C 1549.56 -0.0491564 -3.0066 0
M  V30 16353 C 1551.1 0.0145605 -3.12997 0
M  V30 16354 C 1551.58 -0.216773 -4.57487 0
M  V30 16355 N 1553.07 -0.163698 -4.62911 0
M  V30 16356 C 1553.8 -0.317204 -5.72522 0
M  V30 16357 N 1553.3 -0.528426 -6.90782 0
M  V30 16358 N 1555.09 -0.254814 -5.61522 0
M  V30 16359 H 1547.24 -1.08536 -1.82575 0
M  V30 16360 H 1549.51 -0.42963 -0.845057 0
M  V30 16361 H 1549.21 -1.04387 -3.35851 0
M  V30 16362 H 1549.09 0.670296 -3.71197 0
M  V30 16363 H 1551.47 0.999829 -2.77646 0
M  V30 16364 H 1551.56 -0.737219 -2.44946 0
M  V30 16365 H 1551.2 -1.19914 -4.93541 0
M  V30 16366 H 1551.13 0.555329 -5.23664 0
M  V30 16367 H 1553.62 -0.00509433 -3.779 0
M  V30 16368 H 1553.93 -0.635667 -7.70181 0
M  V30 16369 H 1552.28 -0.564746 -6.92702 0
M  V30 16370 H 1555.47 -0.0905626 -4.68012 0
M  V30 16371 H 1555.64 -0.377881 -6.46897 0
M  V30 16372 N 1549.05 1.57088 0.126881 0
M  V30 16373 C 1550.28 1.8834 0.849211 0
M  V30 16374 C 1550.69 0.735386 1.74324 0
M  V30 16375 O 1550.03 -0.30318 1.81181 0
M  V30 16376 C 1550.09 3.14522 1.74116 0
M  V30 16377 C 1549.76 4.4542 1.02225 0
M  V30 16378 C 1550.75 5.18605 0.366722 0
M  V30 16379 C 1548.44 4.92128 1.00577 0
M  V30 16380 C 1550.43 6.36714 -0.295675 0
M  V30 16381 C 1548.12 6.10156 0.33957 0
M  V30 16382 C 1549.12 6.82296 -0.310005 0
M  V30 16383 O 1548.8 7.9808 -0.965594 0
M  V30 16384 H 1548.54 0.628129 0.24986 0
M  V30 16385 H 1551.09 2.05059 0.118236 0
M  V30 16386 H 1549.32 2.93864 2.51358 0
M  V30 16387 H 1551.01 3.31857 2.33722 0
M  V30 16388 H 1551.78 4.83578 0.371126 0
M  V30 16389 H 1547.65 4.35887 1.5008 0
M  V30 16390 H 1551.2 6.9296 -0.803275 0
M  V30 16391 H 1547.1 6.44641 0.332902 0
M  V30 16392 H 1547.86 8.13871 -0.869277 0
M  V30 16393 N 1550.53 -0.396836 1.52522 0
M  V30 16394 C 1551.75 -1.16857 1.71345 0
M  V30 16395 C 1552.18 -1.83178 0.427465 0
M  V30 16396 O 1551.53 -1.7051 -0.616123 0
M  V30 16397 C 1551.58 -2.19817 2.85855 0
M  V30 16398 O 1550.69 -3.26233 2.52281 0
M  V30 16399 H 1550.03 -0.340554 0.570017 0
M  V30 16400 H 1552.56 -0.463532 1.9928 0
M  V30 16401 H 1552.57 -2.63944 3.11123 0
M  V30 16402 H 1551.24 -1.70931 3.79151 0
M  V30 16403 H 1549.82 -2.87299 2.37726 0
M  V30 16404 N 1552.01 -1.43353 -0.654814 0
M  V30 16405 C 1553.25 -1.44599 -1.41193 0
M  V30 16406 C 1553.57 -0.0707955 -1.94871 0
M  V30 16407 O 1552.84 0.893637 -1.7433 0
M  V30 16408 H 1551.42 -0.532373 -0.524011 0
M  V30 16409 H 1554.09 -1.78942 -0.772388 0
M  V30 16410 H 1553.18 -2.15761 -2.25508 0
M  V30 16411 N 1553.48 0.89303 -1.29857 0
M  V30 16412 C 1554.43 1.98497 -1.12173 0
M  V30 16413 C 1555.42 1.60852 -0.039207 0
M  V30 16414 O 1556.61 1.75055 -0.261652 0
M  V30 16415 C 1553.74 3.33674 -0.807259 0
M  V30 16416 C 1552.82 3.77658 -1.92965 0
M  V30 16417 N 1553.22 3.93814 -3.17402 0
M  V30 16418 C 1551.51 4.06988 -1.82419 0
M  V30 16419 C 1552.21 4.30988 -3.90671 0
M  V30 16420 N 1551.19 4.40403 -3.18662 0
M  V30 16421 H 1554.99 2.09068 -2.06562 0
M  V30 16422 H 1552.51 1.0823 -1.21078 0
M  V30 16423 H 1554.5 4.11617 -0.661603 0
M  V30 16424 H 1553.16 3.24445 0.128646 0
M  V30 16425 H 1554.17 3.79164 -3.52782 0
M  V30 16426 H 1550.85 4.06279 -0.961436 0
M  V30 16427 H 1552.24 4.51278 -4.97793 0
M  V30 16428 N 1554.96 1.12442 1.10429 0
M  V30 16429 C 1556.24 0.791191 1.78884 0
M  V30 16430 C 1556.62 -0.719044 1.98477 0
M  V30 16431 O 1555.97 -1.65275 1.57786 0
M  V30 16432 C 1556.18 1.56632 3.11877 0
M  V30 16433 C 1557.52 1.75236 3.86752 0
M  V30 16434 O 1558.55 1.53145 3.21598 0
M  V30 16435 O 1557.41 2.12025 5.03694 0
M  V30 16436 H 1554.5 0.287788 0.775311 0
M  V30 16437 H 1557.05 1.22844 1.17078 0
M  V30 16438 H 1555.82 2.59317 2.93037 0
M  V30 16439 H 1555.44 1.12332 3.81402 0
M  V30 16440 N 1556.44 -1.28223 0.91633 0
M  V30 16441 C 1557.72 -1.89878 0.469661 0
M  V30 16442 C 1558.1 -1.83037 -1.05169 0
M  V30 16443 O 1557.44 -1.26801 -1.90088 0
M  V30 16444 C 1557.65 -3.34279 1.00293 0
M  V30 16445 C 1559 -4.11244 1.05657 0
M  V30 16446 O 1560.03 -3.43249 0.951753 0
M  V30 16447 O 1558.89 -5.32788 1.21652 0
M  V30 16448 H 1555.98 -0.813418 0.149263 0
M  V30 16449 H 1558.53 -1.36572 1.00728 0
M  V30 16450 H 1557.3 -3.33494 2.04688 0
M  V30 16451 H 1556.92 -3.95087 0.446287 0
M  V30 16452 N 1557.92 -0.68059 -1.42147 0
M  V30 16453 C 1558.85 -0.0199376 -2.33491 0
M  V30 16454 C 1559.83 0.783164 -1.50999 0
M  V30 16455 O 1561.01 0.739154 -1.79583 0
M  V30 16456 C 1558.14 0.927902 -3.34675 0
M  V30 16457 C 1557.1 0.232979 -4.27365 0
M  V30 16458 C 1556.42 1.29415 -5.18802 0
M  V30 16459 C 1557.72 -0.891559 -5.14634 0
M  V30 16460 H 1559.42 -0.782823 -2.88985 0
M  V30 16461 H 1556.96 -0.377898 -1.38953 0
M  V30 16462 H 1558.92 1.3992 -3.97493 0
M  V30 16463 H 1557.64 1.72228 -2.77498 0
M  V30 16464 H 1556.3 -0.21814 -3.6595 0
M  V30 16465 H 1555.95 2.08067 -4.57949 0
M  V30 16466 H 1555.65 0.834274 -5.81647 0
M  V30 16467 H 1557.17 1.76627 -5.84496 0
M  V30 16468 H 1558.59 -0.501219 -5.71105 0
M  V30 16469 H 1556.98 -1.27759 -5.86343 0
M  V30 16470 H 1558.05 -1.73781 -4.5269 0
M  V30 16471 N 1559.4 1.51781 -0.424309 0
M  V30 16472 C 1560.64 2.01157 0.147925 0
M  V30 16473 C 1560.96 1.31369 1.44919 0
M  V30 16474 O 1562.16 1.71643 2.10359 0
M  V30 16475 C 1560.62 3.58526 0.31417 0
M  V30 16476 C 1560.23 4.37242 -0.975898 0
M  V30 16477 C 1561.97 4.16088 0.840876 0
M  V30 16478 C 1559.88 5.86287 -0.776009 0
M  V30 16479 H 1558.81 0.751684 0.0590568 0
M  V30 16480 H 1561.46 1.74998 -0.552079 0
M  V30 16481 H 1559.84 3.81077 1.07687 0
M  V30 16482 H 1561.02 4.26444 -1.74592 0
M  V30 16483 H 1559.33 3.9107 -1.43015 0
M  V30 16484 H 1561.93 5.25138 1.0067 0
M  V30 16485 H 1562.27 3.7442 1.81977 0
M  V30 16486 H 1562.8 3.97565 0.136836 0
M  V30 16487 H 1559.54 6.32343 -1.7269 0
M  V30 16488 H 1559.06 5.99783 -0.0455544 0
M  V30 16489 H 1560.74 6.45609 -0.424095 0
M  V30 16490 N 1560.87 0.155222 1.56834 0
M  V30 16491 C 1562.29 -0.201116 1.58328 0
M  V30 16492 C 1562.49 -1.64061 1.16988 0
M  V30 16493 O 1561.55 -2.36892 0.873989 0
M  V30 16494 C 1562.86 0.0651005 3.0063 0
M  V30 16495 C 1564.41 0.00203866 3.13 0
M  V30 16496 C 1564.88 0.241032 4.57365 0
M  V30 16497 N 1566.37 0.188245 4.62817 0
M  V30 16498 C 1567.11 0.347562 5.72346 0
M  V30 16499 N 1566.6 0.565052 6.90492 0
M  V30 16500 N 1568.4 0.284589 5.61379 0
M  V30 16501 H 1560.55 1.09503 1.81997 0
M  V30 16502 H 1562.81 0.434106 0.842767 0
M  V30 16503 H 1562.52 1.06167 3.35293 0
M  V30 16504 H 1562.39 -0.650601 3.71547 0
M  V30 16505 H 1564.78 -0.98509 2.78173 0
M  V30 16506 H 1564.86 0.750199 2.44552 0
M  V30 16507 H 1564.5 1.2253 4.92898 0
M  V30 16508 H 1564.43 -0.52755 5.23951 0
M  V30 16509 H 1566.92 0.0251352 3.77892 0
M  V30 16510 H 1567.24 0.676502 7.69833 0
M  V30 16511 H 1565.58 0.601473 6.92392 0
M  V30 16512 H 1568.77 0.115381 4.67958 0
M  V30 16513 H 1568.95 0.412182 6.46688 0
M  V30 16514 N 1562.35 -1.57153 -0.118549 0
M  V30 16515 C 1563.58 -1.89434 -0.844355 0
M  V30 16516 C 1564 -0.747203 -1.72622 0
M  V30 16517 O 1563.36 0.302252 -1.78763 0
M  V30 16518 C 1563.41 -3.20466 -1.65331 0
M  V30 16519 O 1562.51 -3.06403 -2.76027 0
M  V30 16520 H 1561.85 -0.621601 -0.23347 0
M  V30 16521 H 1564.38 -2.04351 -0.100811 0
M  V30 16522 H 1564.39 -3.53197 -2.04245 0
M  V30 16523 H 1563.07 -4.03551 -1.00594 0
M  V30 16524 H 1561.64 -2.85139 -2.40312 0
M  V30 16525 N 1563.83 0.388742 -1.5273 0
M  V30 16526 C 1565.11 1.14799 -1.58368 0
M  V30 16527 C 1565.49 2.07706 -0.377018 0
M  V30 16528 O 1564.83 2.1951 0.634634 0
M  V30 16529 C 1565.04 1.90745 -2.92262 0
M  V30 16530 C 1566.39 2.46098 -3.46007 0
M  V30 16531 O 1567.42 2.00901 -2.94138 0
M  V30 16532 O 1566.28 3.28658 -4.3663 0
M  V30 16533 H 1563.37 0.52529 -0.638748 0
M  V30 16534 H 1565.92 0.393874 -1.65066 0
M  V30 16535 H 1564.69 1.22806 -3.7153 0
M  V30 16536 H 1564.31 2.73118 -2.88951 0
M  V30 16537 N 1565.31 1.43698 0.647203 0
M  V30 16538 C 1566.55 1.45849 1.40911 0
M  V30 16539 C 1566.89 0.0846767 1.94015 0
M  V30 16540 O 1566.16 -0.89537 1.72665 0
M  V30 16541 C 1566.44 2.50579 2.58616 0
M  V30 16542 C 1566.3 3.97258 2.10965 0
M  V30 16543 C 1567.62 2.51981 3.60824 0
M  V30 16544 H 1564.74 0.531056 0.511027 0
M  V30 16545 H 1567.38 1.75283 0.733204 0
M  V30 16546 H 1565.53 2.25611 3.16278 0
M  V30 16547 H 1567.2 4.33304 1.58257 0
M  V30 16548 H 1565.44 4.09802 1.42284 0
M  V30 16549 H 1566.11 4.6616 2.95633 0
M  V30 16550 H 1568.59 2.7425 3.12932 0
M  V30 16551 H 1567.47 3.27191 4.40723 0
M  V30 16552 H 1567.73 1.55582 4.1382 0
M  V30 16553 N 1566.79 -0.886131 1.30328 0
M  V30 16554 C 1568.01 -1.67625 1.22134 0
M  V30 16555 C 1568.44 -1.86893 -0.212712 0
M  V30 16556 O 1567.79 -1.39905 -1.1531 0
M  V30 16557 C 1567.84 -3.03068 1.95402 0
M  V30 16558 O 1566.95 -3.92022 1.28032 0
M  V30 16559 H 1566.29 -0.512246 0.422493 0
M  V30 16560 H 1568.82 -1.10602 1.72129 0
M  V30 16561 H 1568.83 -3.53119 2.04379 0
M  V30 16562 H 1567.5 -2.88363 2.99699 0
M  V30 16563 H 1566.08 -3.50461 1.27402 0
M  V30 16564 N 1568.26 -1.13026 -1.09832 0
M  V30 16565 C 1569.54 -0.800667 -1.78462 0
M  V30 16566 C 1569.92 0.708508 -1.98855 0
M  V30 16567 O 1569.27 1.64436 -1.58661 0
M  V30 16568 C 1569.48 -1.58284 -3.11042 0
M  V30 16569 C 1570.83 -1.77285 -3.85818 0
M  V30 16570 O 1571.85 -1.54848 -3.20781 0
M  V30 16571 O 1570.71 -2.14693 -5.02563 0
M  V30 16572 H 1567.8 -0.291895 -0.773774 0
M  V30 16573 H 1570.35 -1.23464 -1.16425 0
M  V30 16574 H 1569.12 -2.60867 -2.91657 0
M  V30 16575 H 1568.75 -1.14353 -3.80801 0
M  V30 16576 N 1569.74 1.27735 -0.923117 0
M  V30 16577 C 1570.99 1.93857 -0.556994 0
M  V30 16578 C 1571.3 1.73386 0.905346 0
M  V30 16579 O 1572.51 2.3381 1.38005 0
M  V30 16580 C 1570.97 3.47263 -0.94534 0
M  V30 16581 C 1570.57 3.76497 -2.42805 0
M  V30 16582 C 1572.32 4.1949 -0.65025 0
M  V30 16583 C 1570.23 5.23256 -2.75603 0
M  V30 16584 H 1569.16 0.725712 -0.204591 0
M  V30 16585 H 1571.81 1.451 -1.12331 0
M  V30 16586 H 1570.19 3.94803 -0.307721 0
M  V30 16587 H 1571.36 3.39731 -3.11319 0
M  V30 16588 H 1569.68 3.17463 -2.69456 0
M  V30 16589 H 1572.27 5.27544 -0.871851 0
M  V30 16590 H 1572.62 4.14253 0.412352 0
M  V30 16591 H 1573.15 3.77758 -1.24676 0
M  V30 16592 H 1569.89 5.33579 -3.80754 0
M  V30 16593 H 1569.41 5.61185 -2.11735 0
M  V30 16594 H 1571.09 5.91088 -2.63103 0
M  V30 16595 N 1571.22 0.688118 1.41784 0
M  V30 16596 C 1572.45 0.223231 2.06195 0
M  V30 16597 C 1572.87 -1.11601 1.51416 0
M  V30 16598 O 1572.23 -1.69701 0.638059 0
M  V30 16599 C 1572.28 0.183257 3.60134 0
M  V30 16600 O 1571.38 -0.844186 4.03667 0
M  V30 16601 H 1570.72 0.110925 0.654669 0
M  V30 16602 H 1573.25 0.940882 1.81683 0
M  V30 16603 H 1573.26 0.0115951 4.07998 0
M  V30 16604 H 1571.94 1.16072 3.99375 0
M  V30 16605 H 1570.51 -0.642484 3.67323 0
M  V30 16606 N 1572.7 -1.51554 0.432352 0
M  V30 16607 C 1573.93 -2.06462 -0.1346 0
M  V30 16608 C 1574.34 -1.30027 -1.36889 0
M  V30 16609 O 1573.7 -0.358447 -1.78945 0
M  V30 16610 C 1573.75 -3.58538 -0.461822 0
M  V30 16611 O 1573.47 -4.32085 0.723471 0
M  V30 16612 C 1574.97 -4.29943 -1.07999 0
M  V30 16613 H 1572.19 -0.670923 -0.0101329 0
M  V30 16614 H 1574.74 -1.9519 0.609999 0
M  V30 16615 H 1572.89 -3.6974 -1.15632 0
M  V30 16616 H 1573.3 -5.22611 0.444757 0
M  V30 16617 H 1574.78 -5.37451 -1.25898 0
M  V30 16618 H 1575.26 -3.87912 -2.05963 0
M  V30 16619 H 1575.86 -4.23171 -0.425022 0
M  V30 16620 N 1574.18 -0.163538 -1.56749 0
M  V30 16621 C 1575.13 0.781904 -2.14173 0
M  V30 16622 C 1576.11 1.19818 -1.07389 0
M  V30 16623 O 1577.3 1.16184 -1.3353 0
M  V30 16624 C 1574.43 2.01433 -2.77992 0
M  V30 16625 C 1573.52 1.6204 -3.91923 0
M  V30 16626 N 1573.91 0.935598 -4.97072 0
M  V30 16627 C 1572.21 1.91197 -4.02939 0
M  V30 16628 C 1572.91 0.742806 -5.76938 0
M  V30 16629 N 1571.88 1.28183 -5.28271 0
M  V30 16630 H 1575.69 0.249647 -2.92838 0
M  V30 16631 H 1573.2 0.0374224 -1.62357 0
M  V30 16632 H 1575.2 2.7018 -3.17504 0
M  V30 16633 H 1573.86 2.55161 -2.00806 0
M  V30 16634 H 1574.87 0.594507 -5.14476 0
M  V30 16635 H 1571.54 2.46657 -3.36848 0
M  V30 16636 H 1572.93 0.201845 -6.71597 0
M  V30 16637 N 1575.65 1.57214 0.110213 0
M  V30 16638 C 1576.88 1.89505 0.830391 0
M  V30 16639 C 1577.3 0.755702 1.73016 0
M  V30 16640 O 1576.65 -0.273072 1.80445 0
M  V30 16641 C 1576.71 3.21316 1.65646 0
M  V30 16642 O 1576.43 4.30865 0.7929 0
M  V30 16643 C 1577.93 3.67369 2.48102 0
M  V30 16644 H 1575.15 0.627277 0.238252 0
M  V30 16645 H 1577.69 2.04293 0.0919716 0
M  V30 16646 H 1575.85 3.08171 2.34754 0
M  V30 16647 H 1576.26 5.06466 1.36353 0
M  V30 16648 H 1577.73 4.62335 3.0158 0
M  V30 16649 H 1578.21 2.94459 3.25869 0
M  V30 16650 H 1578.82 3.83331 1.8422 0
M  V30 16651 N 1577.13 -0.380637 1.52934 0
M  V30 16652 C 1578.38 -1.1265 1.68635 0
M  V30 16653 C 1578.71 -1.89397 0.429227 0
M  V30 16654 O 1577.99 -1.85863 -0.573182 0
M  V30 16655 C 1578.27 -2.09797 2.92673 0
M  V30 16656 C 1578.12 -1.36758 4.28506 0
M  V30 16657 C 1579.44 -3.10117 3.12274 0
M  V30 16658 H 1576.56 -0.408158 0.613658 0
M  V30 16659 H 1579.2 -0.408947 1.85547 0
M  V30 16660 H 1577.35 -2.70987 2.78385 0
M  V30 16661 H 1579.02 -0.784679 4.54577 0
M  V30 16662 H 1577.27 -0.669413 4.28604 0
M  V30 16663 H 1577.94 -2.07786 5.11399 0
M  V30 16664 H 1580.41 -2.59022 3.25648 0
M  V30 16665 H 1579.29 -3.75328 4.00525 0
M  V30 16666 H 1579.55 -3.79451 2.26868 0
M  V30 16667 N 1578.61 -1.44039 -0.639573 0
M  V30 16668 C 1579.84 -1.49844 -1.42669 0
M  V30 16669 C 1580.25 -0.120599 -1.88414 0
M  V30 16670 O 1579.61 0.871875 -1.60327 0
M  V30 16671 C 1579.66 -2.45597 -2.65263 0
M  V30 16672 O 1579.38 -3.78023 -2.21427 0
M  V30 16673 C 1580.88 -2.60781 -3.5848 0
M  V30 16674 H 1578.1 -0.508477 -0.437826 0
M  V30 16675 H 1580.65 -1.88919 -0.782923 0
M  V30 16676 H 1578.8 -2.09679 -3.2575 0
M  V30 16677 H 1579.22 -4.29642 -3.00846 0
M  V30 16678 H 1580.69 -3.31826 -4.4113 0
M  V30 16679 H 1581.17 -1.65727 -4.06732 0
M  V30 16680 H 1581.77 -2.97565 -3.03867 0
M  V30 16681 N 1580.09 0.879207 -1.30796 0
M  V30 16682 C 1581.32 1.66208 -1.22713 0
M  V30 16683 C 1581.73 1.88014 0.211506 0
M  V30 16684 O 1581.07 1.43183 1.15084 0
M  V30 16685 C 1581.13 3.05733 -1.89123 0
M  V30 16686 C 1580.8 3.07075 -3.38458 0
M  V30 16687 C 1581.79 2.85709 -4.34358 0
M  V30 16688 C 1579.48 3.28489 -3.8 0
M  V30 16689 C 1581.47 2.85722 -5.69773 0
M  V30 16690 C 1579.16 3.28131 -5.15532 0
M  V30 16691 C 1580.16 3.06773 -6.10229 0
M  V30 16692 O 1579.84 3.06243 -7.43283 0
M  V30 16693 H 1579.58 0.525224 -0.425577 0
M  V30 16694 H 1582.13 1.10636 -1.73057 0
M  V30 16695 H 1580.36 3.62993 -1.33316 0
M  V30 16696 H 1582.05 3.66199 -1.7508 0
M  V30 16697 H 1582.82 2.68956 -4.03593 0
M  V30 16698 H 1578.69 3.44147 -3.06731 0
M  V30 16699 H 1582.24 2.6897 -6.43662 0
M  V30 16700 H 1578.14 3.44422 -5.45934 0
M  V30 16701 H 1578.9 3.22369 -7.52343 0
M  V30 16702 N 1581.57 1.13606 1.09231 0
M  V30 16703 C 1582.82 0.897278 1.81089 0
M  V30 16704 C 1583.14 -0.578066 1.86235 0
M  V30 16705 O 1582.41 -1.42018 1.34935 0
M  V30 16706 H 1580.99 0.328971 0.670662 0
M  V30 16707 H 1583.65 1.433 1.32103 0
M  V30 16708 H 1582.74 1.28979 2.84202 0
M  V30 16709 N 1583.05 -1.27244 0.929878 0
M  V30 16710 C 1583.99 -2.28755 0.421202 0
M  V30 16711 C 1584.99 -1.61988 -0.49561 0
M  V30 16712 O 1586.19 -1.76049 -0.375071 0
M  V30 16713 H 1582.57 -0.742741 0.117646 0
M  V30 16714 H 1584.54 -2.6907 1.29011 0
M  V30 16715 C 1583.29 -3.46327 -0.308737 0
M  V30 16716 H 1582.61 -3.97917 0.387552 0
M  V30 16717 H 1584.05 -4.19308 -0.629052 0
M  V30 16718 C 1582.51 -3.00535 -1.5225 0
M  V30 16719 O 1583.04 -3.04395 -2.62119 0
M  V30 16720 N 1581.25 -2.56007 -1.3751 0
M  V30 16721 H 1580.79 -2.53065 -0.481215 0
M  V30 16722 H 1580.75 -2.25731 -2.18845 0
M  V30 16723 N 1584.52 -0.695628 -1.41417 0
M  V30 16724 C 1585.77 -0.223719 -2.00455 0
M  V30 16725 C 1586.09 1.18352 -1.55731 0
M  V30 16726 O 1587.29 1.7529 -2.0733 0
M  V30 16727 C 1585.75 -0.349076 -3.58203 0
M  V30 16728 C 1585.36 -1.76168 -4.11909 0
M  V30 16729 C 1587.1 0.0630563 -4.24453 0
M  V30 16730 C 1585.01 -1.83869 -5.62091 0
M  V30 16731 H 1583.94 -0.0798833 -0.749756 0
M  V30 16732 H 1586.59 -0.863834 -1.61896 0
M  V30 16733 H 1584.97 0.35929 -3.94367 0
M  V30 16734 H 1586.14 -2.49881 -3.87164 0
M  V30 16735 H 1584.46 -2.1235 -3.58185 0
M  V30 16736 H 1587.06 0.0259584 -5.34694 0
M  V30 16737 H 1587.4 1.10179 -4.01455 0
M  V30 16738 H 1587.93 -0.595036 -3.93324 0
M  V30 16739 H 1584.67 -2.85796 -5.89916 0
M  V30 16740 H 1584.19 -1.14541 -5.88762 0
M  V30 16741 H 1585.87 -1.60161 -6.26863 0
M  V30 16742 N 1586 1.51322 -0.440383 0
M  V30 16743 C 1586.91 2.31574 0.37561 0
M  V30 16744 C 1587.93 1.40617 1.02483 0
M  V30 16745 O 1589.1 1.73688 1.01953 0
M  V30 16746 C 1586.17 3.14441 1.4604 0
M  V30 16747 C 1585.23 4.21181 0.830991 0
M  V30 16748 C 1584.46 5.00087 1.86409 0
M  V30 16749 O 1584.69 4.79666 3.08669 0
M  V30 16750 O 1583.62 5.84101 1.45293 0
M  V30 16751 H 1587.45 3.0241 -0.27962 0
M  V30 16752 H 1585.03 1.48016 -0.202857 0
M  V30 16753 H 1586.91 3.6595 2.08946 0
M  V30 16754 H 1585.59 2.46366 2.09965 0
M  V30 16755 H 1584.49 3.73741 0.163798 0
M  V30 16756 H 1585.83 4.91638 0.235174 0
M  V30 16757 N 1587.48 0.171848 1.5666 0
M  V30 16758 C 1588.73 -0.472034 1.9651 0
M  V30 16759 C 1589.05 -1.63743 1.05893 0
M  V30 16760 O 1588.32 -1.95498 0.125396 0
M  V30 16761 H 1586.9 -0.177377 0.725635 0
M  V30 16762 H 1589.56 0.253155 1.93249 0
M  V30 16763 H 1588.66 -0.831693 3.00814 0
M  V30 16764 N 1588.96 -1.5727 -0.101874 0
M  V30 16765 C 1589.91 -2.0258 -1.14297 0
M  V30 16766 C 1590.9 -0.925674 -1.41872 0
M  V30 16767 O 1592.11 -1.11086 -1.41633 0
M  V30 16768 H 1588.48 -0.645504 -0.385782 0
M  V30 16769 H 1590.45 -2.8922 -0.734453 0
M  V30 16770 C 1589.2 -2.46036 -2.45686 0
M  V30 16771 H 1588.52 -3.30266 -2.2531 0
M  V30 16772 H 1589.96 -2.81522 -3.17051 0
M  V30 16773 C 1588.42 -1.33089 -3.09498 0
M  V30 16774 O 1588.95 -0.656277 -3.96303 0
M  V30 16775 N 1587.16 -1.08359 -2.69642 0
M  V30 16776 H 1586.71 -1.63397 -1.99146 0
M  V30 16777 H 1586.66 -0.329859 -3.12665 0
M  V30 16778 N 1590.44 0.372521 -1.53134 0
M  V30 16779 C 1591.4 1.43875 -1.78417 0
M  V30 16780 C 1592.4 1.46879 -0.654455 0
M  V30 16781 O 1593.59 1.47761 -0.922619 0
M  V30 16782 C 1590.72 2.83046 -1.89994 0
M  V30 16783 H 1591.91 1.22733 -2.73636 0
M  V30 16784 H 1589.47 0.605247 -1.44106 0
M  V30 16785 H 1590.2 3.09511 -0.968179 0
M  V30 16786 H 1589.99 2.82265 -2.72156 0
M  V30 16787 H 1591.48 3.60273 -2.11171 0
M  V30 16788 N 1591.91 1.44376 0.631925 0
M  V30 16789 C 1592.88 1.50825 1.72582 0
M  V30 16790 C 1593.88 0.390379 1.55989 0
M  V30 16791 O 1595.07 0.65297 1.61499 0
M  V30 16792 C 1592.2 1.38141 3.11657 0
M  V30 16793 H 1593.39 2.48265 1.68239 0
M  V30 16794 H 1590.94 1.31456 0.845514 0
M  V30 16795 H 1591.68 0.417905 3.21596 0
M  V30 16796 H 1591.46 2.19198 3.25107 0
M  V30 16797 H 1592.95 1.45633 3.91383 0
M  V30 16798 N 1593.39 -0.872258 1.31261 0
M  V30 16799 C 1594.34 -1.97926 1.18718 0
M  V30 16800 C 1595.31 -1.65937 0.0735242 0
M  V30 16801 O 1596.49 -1.89208 0.245979 0
M  V30 16802 C 1593.63 -3.33208 0.898117 0
M  V30 16803 C 1592.75 -3.77808 2.09488 0
M  V30 16804 C 1591.88 -5.01796 1.74281 0
M  V30 16805 C 1590.92 -5.38838 2.90379 0
M  V30 16806 N 1590.06 -6.54007 2.55382 0
M  V30 16807 H 1594.9 -2.07986 2.13415 0
M  V30 16808 H 1592.43 -1.01821 1.06165 0
M  V30 16809 H 1594.39 -4.11095 0.711089 0
M  V30 16810 H 1593.02 -3.22798 -0.0120097 0
M  V30 16811 H 1592.07 -2.95722 2.39276 0
M  V30 16812 H 1593.39 -4.01191 2.96391 0
M  V30 16813 H 1592.54 -5.87344 1.52027 0
M  V30 16814 H 1591.28 -4.80312 0.845665 0
M  V30 16815 H 1590.28 -4.51811 3.13284 0
M  V30 16816 H 1591.51 -5.62289 3.80799 0
M  V30 16817 H 1589.46 -6.34073 1.68188 0
M  V30 16818 H 1589.37 -6.77322 3.35814 0
M  V30 16819 H 1590.64 -7.42752 2.36516 0
M  V30 16820 N 1594.87 -1.14184 -1.08627 0
M  V30 16821 C 1596.29 -0.881757 -1.33031 0
M  V30 16822 C 1596.49 0.478313 -1.95741 0
M  V30 16823 O 1595.54 1.22308 -2.209 0
M  V30 16824 C 1596.85 -2.01274 -2.23404 0
M  V30 16825 C 1598.4 -2.04578 -2.3689 0
M  V30 16826 C 1598.88 -3.16962 -3.30604 0
M  V30 16827 N 1600.37 -3.16526 -3.3818 0
M  V30 16828 C 1601.1 -4.00124 -4.10716 0
M  V30 16829 N 1600.6 -4.93757 -4.8598 0
M  V30 16830 N 1602.39 -3.88193 -4.06525 0
M  V30 16831 H 1594.54 -2.01787 -0.663017 0
M  V30 16832 H 1596.81 -0.879152 -0.354677 0
M  V30 16833 H 1596.51 -2.9938 -1.84566 0
M  V30 16834 H 1596.39 -1.93393 -3.2385 0
M  V30 16835 H 1598.77 -1.0708 -2.74987 0
M  V30 16836 H 1598.85 -2.16529 -1.36194 0
M  V30 16837 H 1598.5 -4.14704 -2.93228 0
M  V30 16838 H 1598.43 -3.02248 -4.31223 0
M  V30 16839 H 1600.92 -2.48708 -2.84522 0
M  V30 16840 H 1601.23 -5.54015 -5.38783 0
M  V30 16841 H 1599.58 -4.97756 -4.8504 0
M  V30 16842 H 1602.77 -3.14365 -3.46831 0
M  V30 16843 H 1602.94 -4.53571 -4.62793 0
M  V30 16844 N 1596.35 1.26749 -0.936613 0
M  V30 16845 C 1597.76 1.46284 -0.638218 0
M  V30 16846 C 1597.96 1.84509 0.80986 0
M  V30 16847 O 1597.02 1.96399 1.58693 0
M  V30 16848 C 1598.33 2.54867 -1.59573 0
M  V30 16849 C 1599.88 2.68721 -1.60493 0
M  V30 16850 C 1600.36 3.80471 -2.54963 0
M  V30 16851 N 1601.85 3.87857 -2.53221 0
M  V30 16852 C 1602.58 4.73767 -3.23005 0
M  V30 16853 N 1602.08 5.641 -4.02198 0
M  V30 16854 N 1603.87 4.67574 -3.11979 0
M  V30 16855 H 1596.02 1.00224 -1.87267 0
M  V30 16856 H 1598.29 0.501478 -0.804502 0
M  V30 16857 H 1597.99 2.33594 -2.62919 0
M  V30 16858 H 1597.87 3.52433 -1.34427 0
M  V30 16859 H 1600.25 2.8937 -0.578729 0
M  V30 16860 H 1600.33 1.71613 -1.89691 0
M  V30 16861 H 1599.98 3.60575 -3.57698 0
M  V30 16862 H 1599.91 4.77026 -2.23056 0
M  V30 16863 H 1602.4 3.23272 -1.95714 0
M  V30 16864 H 1602.71 6.26535 -4.52409 0
M  V30 16865 H 1601.06 5.63866 -4.063 0
M  V30 16866 H 1604.25 3.96004 -2.49596 0
M  V30 16867 H 1604.42 5.34308 -3.66633 0
M  V30 16868 N 1597.83 0.703118 1.41046 0
M  V30 16869 C 1598.77 0.0425767 2.30761 0
M  V30 16870 C 1599.74 -0.763406 1.47517 0
M  V30 16871 O 1600.93 -0.7299 1.76287 0
M  V30 16872 C 1598.07 -0.882353 3.33629 0
M  V30 16873 C 1597.18 -0.0671799 4.31948 0
M  V30 16874 C 1596.32 -0.990443 5.21885 0
M  V30 16875 C 1595.36 -0.168622 6.11868 0
M  V30 16876 N 1594.49 -1.04609 6.94263 0
M  V30 16877 H 1599.33 0.813363 2.86685 0
M  V30 16878 H 1596.87 0.412804 1.41189 0
M  V30 16879 H 1598.83 -1.43273 3.91827 0
M  V30 16880 H 1597.46 -1.61946 2.79237 0
M  V30 16881 H 1596.51 0.600219 3.75635 0
M  V30 16882 H 1597.82 0.569624 4.95537 0
M  V30 16883 H 1596.98 -1.60979 5.84954 0
M  V30 16884 H 1595.71 -1.66109 4.5854 0
M  V30 16885 H 1594.72 0.463746 5.47841 0
M  V30 16886 H 1595.94 0.49834 6.77269 0
M  V30 16887 H 1593.89 -1.70262 6.33519 0
M  V30 16888 H 1593.81 -0.465036 7.54568 0
M  V30 16889 H 1595.08 -1.65201 7.61793 0
M  V30 16890 N 1599.3 -1.51086 0.448402 0
M  V30 16891 C 1600.24 -2.25799 -0.393401 0
M  V30 16892 C 1601.25 -1.30241 -0.976792 0
M  V30 16893 O 1602.44 -1.55916 -0.869051 0
M  V30 16894 C 1599.54 -3.00682 -1.56345 0
M  V30 16895 C 1598.71 -4.23421 -1.09695 0
M  V30 16896 C 1597.77 -4.8079 -2.1384 0
M  V30 16897 O 1596.8 -5.42329 -1.72823 0
M  V30 16898 N 1598 -4.65792 -3.46437 0
M  V30 16899 H 1600.76 -2.98681 0.246986 0
M  V30 16900 H 1598.32 -1.59497 0.277902 0
M  V30 16901 H 1600.32 -3.35945 -2.25662 0
M  V30 16902 H 1598.89 -2.30741 -2.10897 0
M  V30 16903 H 1598.11 -3.93526 -0.230457 0
M  V30 16904 H 1599.39 -5.03049 -0.762832 0
M  V30 16905 H 1598.79 -4.16799 -3.82486 0
M  V30 16906 H 1597.35 -5.05386 -4.11616 0
M  V30 16907 N 1600.78 -0.180154 -1.56567 0
M  V30 16908 C 1601.71 0.77825 -2.15583 0
M  V30 16909 C 1602.73 1.18746 -1.1137 0
M  V30 16910 O 1603.92 1.12578 -1.38523 0
M  V30 16911 C 1601.02 2.06024 -2.69086 0
M  V30 16912 C 1600.19 1.8132 -3.98047 0
M  V30 16913 C 1599.25 2.93823 -4.36526 0
M  V30 16914 O 1598.27 2.64075 -5.04235 0
M  V30 16915 N 1599.48 4.21823 -3.98806 0
M  V30 16916 H 1602.24 0.273661 -2.98448 0
M  V30 16917 H 1599.8 0.00232952 -1.619 0
M  V30 16918 H 1601.79 2.80398 -2.9182 0
M  V30 16919 H 1600.36 2.47648 -1.9076 0
M  V30 16920 H 1599.58 0.908046 -3.83599 0
M  V30 16921 H 1600.87 1.62194 -4.82256 0
M  V30 16922 H 1600.27 4.48849 -3.44313 0
M  V30 16923 H 1598.83 4.92871 -4.26522 0
M  V30 16924 N 1602.26 1.57322 0.0935319 0
M  V30 16925 C 1603.49 1.90099 0.80907 0
M  V30 16926 C 1603.9 0.772198 1.72724 0
M  V30 16927 O 1603.24 -0.26468 1.81783 0
M  V30 16928 C 1603.3 3.18144 1.67405 0
M  V30 16929 C 1602.97 4.47488 0.927539 0
M  V30 16930 C 1603.96 5.19266 0.256635 0
M  V30 16931 C 1601.65 4.9415 0.901156 0
M  V30 16932 C 1603.64 6.35943 -0.430665 0
M  V30 16933 C 1601.33 6.10739 0.21007 0
M  V30 16934 C 1602.33 6.81485 -0.454661 0
M  V30 16935 O 1602.02 7.95852 -1.13466 0
M  V30 16936 H 1601.75 0.633287 0.236481 0
M  V30 16937 H 1604.3 2.05264 0.0747132 0
M  V30 16938 H 1602.53 2.99129 2.45068 0
M  V30 16939 H 1604.22 3.3674 2.2663 0
M  V30 16940 H 1604.99 4.84256 0.268468 0
M  V30 16941 H 1600.87 4.38972 1.408 0
M  V30 16942 H 1604.41 6.911 -0.950082 0
M  V30 16943 H 1600.31 6.45202 0.196089 0
M  V30 16944 H 1601.08 8.11844 -1.04172 0
M  V30 16945 N 1603.74 -0.364395 1.53329 0
M  V30 16946 C 1604.69 -1.44645 1.79851 0
M  V30 16947 C 1605.66 -1.53151 0.642951 0
M  V30 16948 O 1606.84 -1.6902 0.885252 0
M  V30 16949 C 1603.98 -2.81575 1.99523 0
M  V30 16950 C 1603.09 -2.82026 3.27239 0
M  V30 16951 C 1602.23 -4.1054 3.37091 0
M  V30 16952 C 1601.27 -4.05138 4.58835 0
M  V30 16953 N 1600.4 -5.25303 4.65834 0
M  V30 16954 H 1605.24 -1.21329 2.72182 0
M  V30 16955 H 1602.78 -0.588143 1.34831 0
M  V30 16956 H 1604.74 -3.61124 2.08915 0
M  V30 16957 H 1603.37 -3.03288 1.10527 0
M  V30 16958 H 1602.42 -1.94704 3.26794 0
M  V30 16959 H 1603.73 -2.73907 4.16865 0
M  V30 16960 H 1602.89 -4.98504 3.45801 0
M  V30 16961 H 1601.63 -4.21413 2.45483 0
M  V30 16962 H 1600.63 -3.1556 4.50224 0
M  V30 16963 H 1601.86 -3.95866 5.51785 0
M  V30 16964 H 1599.8 -5.36759 3.77128 0
M  V30 16965 H 1599.72 -5.19358 5.49367 0
M  V30 16966 H 1600.99 -6.15096 4.78829 0
M  V30 16967 N 1605.22 -1.44709 -0.62426 0
M  V30 16968 C 1606.49 -1.38328 -1.38292 0
M  V30 16969 C 1606.87 -0.0454388 -2.11051 0
M  V30 16970 O 1606.22 0.972183 -2.06787 0
M  V30 16971 C 1606.43 -2.58602 -2.34364 0
M  V30 16972 C 1607.78 -3.02966 -2.97484 0
M  V30 16973 O 1608.8 -2.58856 -2.44688 0
M  V30 16974 O 1607.66 -3.79466 -3.93278 0
M  V30 16975 H 1604.76 -0.54812 -0.619269 0
M  V30 16976 H 1607.3 -1.5681 -0.648741 0
M  V30 16977 H 1606.07 -3.47573 -1.79746 0
M  V30 16978 H 1605.7 -2.42368 -3.15188 0
M  V30 16979 N 1606.69 0.865285 -1.31722 0
M  V30 16980 C 1607.92 1.65661 -1.24785 0
M  V30 16981 C 1608.34 1.87208 0.182952 0
M  V30 16982 O 1607.7 1.41721 1.1307 0
M  V30 16983 C 1607.75 2.99921 -2.00199 0
M  V30 16984 O 1606.85 3.89936 -1.34253 0
M  V30 16985 H 1606.2 0.505459 -0.430589 0
M  V30 16986 H 1608.73 1.0785 -1.73867 0
M  V30 16987 H 1608.74 3.49823 -2.09971 0
M  V30 16988 H 1607.41 2.83559 -3.04249 0
M  V30 16989 H 1605.99 3.4839 -1.32961 0
M  V30 16990 N 1608.17 1.14759 1.0802 0
M  V30 16991 C 1609.1 0.860977 2.17047 0
M  V30 16992 C 1610.08 -0.185652 1.69084 0
M  V30 16993 O 1611.27 -0.0414797 1.94156 0
M  V30 16994 C 1608.4 0.342018 3.45612 0
M  V30 16995 C 1607.35 1.32455 4.06989 0
M  V30 16996 C 1606.68 0.664721 5.30552 0
M  V30 16997 C 1607.98 2.68819 4.4781 0
M  V30 16998 H 1609.67 1.77269 2.4128 0
M  V30 16999 H 1607.22 0.853757 1.15961 0
M  V30 17000 H 1609.17 0.129093 4.21202 0
M  V30 17001 H 1607.9 -0.605138 3.20945 0
M  V30 17002 H 1606.55 1.52371 3.33435 0
M  V30 17003 H 1606.2 -0.288367 5.02173 0
M  V30 17004 H 1605.9 1.32036 5.72573 0
M  V30 17005 H 1607.43 0.461412 6.08854 0
M  V30 17006 H 1608.84 2.52787 5.14559 0
M  V30 17007 H 1607.24 3.30694 5.00761 0
M  V30 17008 H 1608.31 3.25398 3.59506 0
M  V30 17009 N 1609.65 -1.26251 0.943322 0
M  V30 17010 C 1610.6 -2.26304 0.453315 0
M  V30 17011 C 1611.57 -1.58764 -0.488168 0
M  V30 17012 O 1612.75 -1.86476 -0.403906 0
M  V30 17013 C 1609.89 -3.44015 -0.273393 0
M  V30 17014 C 1609.01 -4.26225 0.70401 0
M  V30 17015 C 1608.14 -5.31182 -0.0441134 0
M  V30 17016 C 1607.18 -6.05071 0.924971 0
M  V30 17017 N 1606.32 -7.0179 0.208461 0
M  V30 17018 H 1611.16 -2.67591 1.31146 0
M  V30 17019 H 1608.69 -1.31567 0.657914 0
M  V30 17020 H 1610.65 -4.11094 -0.711192 0
M  V30 17021 H 1609.28 -3.03636 -1.09566 0
M  V30 17022 H 1608.33 -3.58915 1.26032 0
M  V30 17023 H 1609.65 -4.77442 1.44398 0
M  V30 17024 H 1608.8 -6.04282 -0.541091 0
M  V30 17025 H 1607.54 -4.80809 -0.816952 0
M  V30 17026 H 1606.54 -5.30795 1.43305 0
M  V30 17027 H 1607.77 -6.57533 1.69785 0
M  V30 17028 H 1605.71 -6.53725 -0.545846 0
M  V30 17029 H 1605.63 -7.5077 0.887725 0
M  V30 17030 H 1606.9 -7.79041 -0.267352 0
M  V30 17031 N 1611.13 -0.710588 -1.40671 0
M  V30 17032 C 1612.08 -0.0548139 -2.30735 0
M  V30 17033 C 1613.05 0.755572 -1.4792 0
M  V30 17034 O 1614.23 0.720541 -1.76672 0
M  V30 17035 C 1611.37 0.864648 -3.34093 0
M  V30 17036 C 1610.48 0.0442717 -4.31977 0
M  V30 17037 C 1609.62 0.962752 -5.22403 0
M  V30 17038 C 1608.66 0.13617 -6.11949 0
M  V30 17039 N 1607.8 1.00926 -6.94808 0
M  V30 17040 H 1612.64 -0.828555 -2.8625 0
M  V30 17041 H 1610.17 -0.420286 -1.40968 0
M  V30 17042 H 1612.13 1.41193 -3.92582 0
M  V30 17043 H 1610.76 1.60462 -2.80092 0
M  V30 17044 H 1609.81 -0.620132 -3.75311 0
M  V30 17045 H 1611.12 -0.595895 -4.95228 0
M  V30 17046 H 1610.28 1.57874 -5.85799 0
M  V30 17047 H 1609.02 1.63675 -4.59415 0
M  V30 17048 H 1608.02 -0.492793 -5.47587 0
M  V30 17049 H 1609.25 -0.534251 -6.76995 0
M  V30 17050 H 1607.19 1.669 -6.34413 0
M  V30 17051 H 1607.11 0.425013 -7.54804 0
M  V30 17052 H 1608.38 1.61159 -7.62659 0
M  V30 17053 N 1612.61 1.50847 -0.456408 0
M  V30 17054 C 1614.02 1.59222 -0.109731 0
M  V30 17055 C 1614.22 1.46582 1.3826 0
M  V30 17056 O 1613.28 1.31678 2.15446 0
M  V30 17057 C 1614.59 2.9366 -0.646846 0
M  V30 17058 C 1616.14 3.07019 -0.60897 0
M  V30 17059 C 1616.62 4.44009 -1.12338 0
M  V30 17060 N 1618.11 4.50381 -1.08217 0
M  V30 17061 C 1618.84 5.54741 -1.45086 0
M  V30 17062 N 1618.34 6.66427 -1.89333 0
M  V30 17063 N 1620.13 5.45204 -1.36782 0
M  V30 17064 H 1612.28 1.57307 -1.42717 0
M  V30 17065 H 1614.54 0.742587 -0.589295 0
M  V30 17066 H 1614.25 3.0834 -1.69172 0
M  V30 17067 H 1614.12 3.7711 -0.0822535 0
M  V30 17068 H 1616.51 2.91995 0.426958 0
M  V30 17069 H 1616.59 2.25362 -1.21019 0
M  V30 17070 H 1616.24 4.59781 -2.15787 0
M  V30 17071 H 1616.17 5.24235 -0.498512 0
M  V30 17072 H 1618.66 3.70231 -0.757467 0
M  V30 17073 H 1618.97 7.42101 -2.15652 0
M  V30 17074 H 1617.32 6.67585 -1.93275 0
M  V30 17075 H 1620.51 4.56837 -1.02066 0
M  V30 17076 H 1620.68 6.26419 -1.65842 0
M  V30 17077 N 1614.09 0.188454 1.56469 0
M  V30 17078 C 1615.5 -0.325309 1.83844 0
M  V30 17079 C 1615.85 -1.61858 1.1089 0
M  V30 17080 O 1614.97 -2.13256 0.36752 0
M  V30 17081 C 1615.57 -0.597002 3.33499 0
M  V30 17082 C 1614.13 -1.05515 3.61308 0
M  V30 17083 C 1613.27 -0.100182 2.77119 0
M  V30 17084 H 1616.22 0.412378 1.53249 0
M  V30 17085 H 1616.25 -1.44709 3.51908 0
M  V30 17086 H 1615.76 0.344429 3.86569 0
M  V30 17087 H 1613.86 -2.01109 3.13665 0
M  V30 17088 H 1613.97 -0.952461 4.69537 0
M  V30 17089 H 1612.34 -0.600815 2.47512 0
M  V30 17090 H 1613.12 0.835574 3.32976 0
M  V30 17091 N 1615.56 -1.5737 -0.0851874 0
M  V30 17092 C 1616.53 -2.01789 -1.08692 0
M  V30 17093 C 1617.53 -0.912872 -1.32376 0
M  V30 17094 O 1618.72 -1.1781 -1.28322 0
M  V30 17095 C 1615.85 -2.38708 -2.43375 0
M  V30 17096 H 1617.04 -2.91511 -0.704359 0
M  V30 17097 H 1614.59 -1.52765 -0.330528 0
M  V30 17098 H 1615.33 -1.5197 -2.86488 0
M  V30 17099 H 1615.11 -3.19331 -2.2753 0
M  V30 17100 H 1616.6 -2.73697 -3.15404 0
M  V30 17101 N 1617.04 0.356258 -1.53521 0
M  V30 17102 C 1618.27 1.12273 -1.74383 0
M  V30 17103 C 1618.69 1.81981 -0.475881 0
M  V30 17104 O 1618.05 1.72083 0.570699 0
M  V30 17105 C 1618.1 2.12161 -2.91582 0
M  V30 17106 O 1617.2 3.1943 -2.60842 0
M  V30 17107 H 1616.54 0.325321 -0.578845 0
M  V30 17108 H 1619.07 0.410533 -2.00439 0
M  V30 17109 H 1619.08 2.55602 -3.18012 0
M  V30 17110 H 1617.76 1.60818 -3.8355 0
M  V30 17111 H 1616.33 2.80895 -2.4526 0
M  V30 17112 N 1618.52 1.45038 0.616577 0
M  V30 17113 C 1619.48 1.52647 1.70973 0
M  V30 17114 C 1620.48 0.406902 1.55567 0
M  V30 17115 O 1621.67 0.670062 1.60797 0
M  V30 17116 C 1618.8 1.41438 3.10174 0
M  V30 17117 H 1620 2.50036 1.65596 0
M  V30 17118 H 1617.55 1.32346 0.831524 0
M  V30 17119 H 1618.29 0.451991 3.21135 0
M  V30 17120 H 1618.07 2.22634 3.22764 0
M  V30 17121 H 1619.56 1.49776 3.89817 0
M  V30 17122 N 1620 -0.858287 1.32179 0
M  V30 17123 C 1620.94 -1.96656 1.20811 0
M  V30 17124 C 1621.91 -1.6585 0.0911199 0
M  V30 17125 O 1623.1 -1.88936 0.266033 0
M  V30 17126 C 1620.24 -3.32237 0.933408 0
M  V30 17127 C 1619.35 -3.75564 2.13484 0
M  V30 17128 C 1618.49 -4.9992 1.79593 0
M  V30 17129 C 1617.53 -5.35728 2.96077 0
M  V30 17130 N 1616.66 -6.51261 2.62304 0
M  V30 17131 H 1621.5 -2.05711 2.15609 0
M  V30 17132 H 1619.04 -1.00689 1.07239 0
M  V30 17133 H 1621 -4.10318 0.754651 0
M  V30 17134 H 1619.63 -3.22792 0.0222279 0
M  V30 17135 H 1618.68 -2.93167 2.42399 0
M  V30 17136 H 1619.99 -3.98025 3.00629 0
M  V30 17137 H 1619.15 -5.85698 1.58248 0
M  V30 17138 H 1617.89 -4.79388 0.896561 0
M  V30 17139 H 1616.89 -4.48463 3.18058 0
M  V30 17140 H 1618.12 -5.58219 3.86741 0
M  V30 17141 H 1616.06 -6.32254 1.74904 0
M  V30 17142 H 1615.98 -6.73722 3.42979 0
M  V30 17143 H 1617.25 -7.40202 2.4438 0
M  V30 17144 N 1621.48 -1.1533 -1.07409 0
M  V30 17145 C 1622.7 -0.952101 -1.84255 0
M  V30 17146 C 1623.13 0.494571 -1.81482 0
M  V30 17147 O 1622.48 1.35253 -1.20733 0
M  V30 17148 C 1622.53 -1.47019 -3.29268 0
M  V30 17149 O 1621.64 -0.669005 -4.06937 0
M  V30 17150 H 1620.98 -0.339643 -0.57056 0
M  V30 17151 H 1623.51 -1.53298 -1.35502 0
M  V30 17152 H 1623.52 -1.48278 -3.80102 0
M  V30 17153 H 1622.19 -2.5234 -3.30602 0
M  V30 17154 H 1620.77 -0.726003 -3.65764 0
M  V30 17155 N 1622.95 1.25748 -0.950004 0
M  V30 17156 C 1624.37 1.45599 -0.653697 0
M  V30 17157 C 1624.57 1.85357 0.790245 0
M  V30 17158 O 1623.63 1.98071 1.56601 0
M  V30 17159 C 1624.94 2.5316 -1.62267 0
M  V30 17160 C 1626.49 2.67004 -1.63334 0
M  V30 17161 C 1626.96 3.77745 -2.58984 0
M  V30 17162 N 1628.45 3.8515 -2.57321 0
M  V30 17163 C 1629.19 4.70315 -3.28011 0
M  V30 17164 N 1628.68 5.59802 -4.08159 0
M  V30 17165 N 1630.48 4.64239 -3.16921 0
M  V30 17166 H 1622.63 0.982321 -1.88319 0
M  V30 17167 H 1624.89 0.492917 -0.809776 0
M  V30 17168 H 1624.6 2.30792 -2.65382 0
M  V30 17169 H 1624.47 3.50988 -1.38158 0
M  V30 17170 H 1626.86 2.88739 -0.609388 0
M  V30 17171 H 1626.94 1.69591 -1.915 0
M  V30 17172 H 1626.58 3.56761 -3.61502 0
M  V30 17173 H 1626.51 4.74633 -2.28103 0
M  V30 17174 H 1629 3.21178 -1.99131 0
M  V30 17175 H 1629.32 6.21701 -4.59029 0
M  V30 17176 H 1627.66 5.59525 -4.12258 0
M  V30 17177 H 1630.85 3.93335 -2.53782 0
M  V30 17178 H 1631.03 5.30389 -3.72279 0
M  V30 17179 N 1624.43 0.718038 1.40292 0
M  V30 17180 C 1625.85 0.391848 1.54715 0
M  V30 17181 C 1626.05 -1.09911 1.68884 0
M  V30 17182 O 1625.1 -1.88518 1.6798 0
M  V30 17183 C 1626.42 1.16005 2.77423 0
M  V30 17184 C 1627.96 1.14659 2.91243 0
M  V30 17185 C 1628.44 1.897 4.16867 0
M  V30 17186 N 1629.93 1.86781 4.23872 0
M  V30 17187 C 1630.67 2.41665 5.19986 0
M  V30 17188 N 1630.16 3.05116 6.21994 0
M  V30 17189 N 1631.95 2.31794 5.12082 0
M  V30 17190 H 1624.11 1.68477 1.29342 0
M  V30 17191 H 1626.37 0.712248 0.625625 0
M  V30 17192 H 1626.07 2.21435 2.73239 0
M  V30 17193 H 1625.95 0.75328 3.69602 0
M  V30 17194 H 1628.34 0.100477 2.94929 0
M  V30 17195 H 1628.42 1.5926 2.00175 0
M  V30 17196 H 1628.06 2.94303 4.13942 0
M  V30 17197 H 1627.99 1.42518 5.06948 0
M  V30 17198 H 1630.48 1.40541 3.50794 0
M  V30 17199 H 1630.79 3.44505 6.91763 0
M  V30 17200 H 1629.14 3.09201 6.22431 0
M  V30 17201 H 1632.33 1.81879 4.31321 0
M  V30 17202 H 1632.5 2.74868 5.86815 0
M  V30 17203 N 1625.91 -1.50602 0.464402 0
M  V30 17204 C 1626.82 -2.32142 -0.338721 0
M  V30 17205 C 1627.84 -1.4223 -1.00233 0
M  V30 17206 O 1629.01 -1.75288 -0.99177 0
M  V30 17207 C 1626.08 -3.16725 -1.41019 0
M  V30 17208 C 1625.14 -4.22449 -0.76388 0
M  V30 17209 C 1624.37 -5.0299 -1.78429 0
M  V30 17210 O 1624.59 -4.84516 -3.00999 0
M  V30 17211 O 1623.53 -5.86338 -1.35982 0
M  V30 17212 H 1627.35 -3.01927 0.327695 0
M  V30 17213 H 1624.94 -1.47675 0.226379 0
M  V30 17214 H 1626.82 -3.69228 -2.03097 0
M  V30 17215 H 1625.5 -2.49675 -2.06019 0
M  V30 17216 H 1624.4 -3.73955 -0.104318 0
M  V30 17217 H 1625.74 -4.9195 -0.156929 0
M  V30 17218 N 1627.39 -0.19675 -1.56367 0
M  V30 17219 C 1628.64 0.441584 -1.97627 0
M  V30 17220 C 1628.96 1.61514 -1.08368 0
M  V30 17221 O 1628.22 1.95312 -0.123139 0
M  V30 17222 C 1628.52 0.942382 -3.44752 0
M  V30 17223 C 1628.18 -0.117977 -4.50746 0
M  V30 17224 C 1626.85 -0.409332 -4.79456 0
M  V30 17225 C 1629.2 -0.836374 -5.14446 0
M  V30 17226 C 1626.53 -1.42403 -5.69156 0
M  V30 17227 C 1628.88 -1.84024 -6.05242 0
M  V30 17228 C 1627.54 -2.13877 -6.32308 0
M  V30 17229 H 1626.81 0.161587 -0.723167 0
M  V30 17230 H 1629.46 -0.294063 -1.89229 0
M  V30 17231 H 1627.76 1.75633 -3.50229 0
M  V30 17232 H 1629.46 1.44571 -3.74032 0
M  V30 17233 H 1626.05 0.119274 -4.28434 0
M  V30 17234 H 1630.23 -0.62451 -4.92355 0
M  V30 17235 H 1625.49 -1.66122 -5.88399 0
M  V30 17236 H 1629.66 -2.40212 -6.5366 0
M  V30 17237 H 1627.29 -2.92649 -7.01613 0
M  V30 17238 N 1628.87 1.57413 0.0768405 0
M  V30 17239 C 1630.14 1.78056 0.809663 0
M  V30 17240 C 1630.52 0.783053 1.9604 0
M  V30 17241 O 1629.87 -0.184836 2.27751 0
M  V30 17242 C 1630.08 3.24391 1.2873 0
M  V30 17243 C 1631.43 3.88082 1.72272 0
M  V30 17244 O 1632.45 3.28251 1.38309 0
M  V30 17245 O 1631.31 4.93329 2.35135 0
M  V30 17246 H 1628.41 0.730553 0.387584 0
M  V30 17247 H 1630.95 1.69603 0.057307 0
M  V30 17248 H 1629.72 3.88543 0.463678 0
M  V30 17249 H 1629.35 3.37548 2.10112 0
M  V30 17250 N 1630.34 -0.348112 1.53707 0
M  V30 17251 C 1631.25 -1.45079 1.84361 0
M  V30 17252 C 1632.27 -1.5779 0.733375 0
M  V30 17253 O 1633.45 -1.73353 1.02522 0
M  V30 17254 C 1630.51 -2.80127 2.04278 0
M  V30 17255 C 1629.57 -2.76799 3.28148 0
M  V30 17256 C 1628.81 -4.05406 3.47105 0
M  V30 17257 O 1629.03 -5.02454 2.69992 0
M  V30 17258 O 1627.96 -4.10155 4.40519 0
M  V30 17259 H 1631.79 -1.22093 2.78077 0
M  V30 17260 H 1629.37 -0.539863 1.39305 0
M  V30 17261 H 1631.26 -3.60115 2.18849 0
M  V30 17262 H 1629.93 -3.03055 1.13751 0
M  V30 17263 H 1628.84 -1.95448 3.18984 0
M  V30 17264 H 1630.17 -2.58826 4.18653 0
M  V30 17265 N 1631.82 -1.45363 -0.608876 0
M  V30 17266 C 1633.07 -1.48586 -1.364 0
M  V30 17267 C 1633.38 -0.131213 -1.95159 0
M  V30 17268 O 1634.59 -0.0410845 -2.71469 0
M  V30 17269 C 1633.05 -2.61694 -2.47071 0
M  V30 17270 C 1632.65 -4.03466 -1.94729 0
M  V30 17271 C 1634.4 -2.74162 -3.24091 0
M  V30 17272 C 1632.31 -5.07958 -3.02874 0
M  V30 17273 H 1631.24 -0.552893 -0.512665 0
M  V30 17274 H 1633.89 -1.71499 -0.65271 0
M  V30 17275 H 1632.27 -2.32062 -3.20879 0
M  V30 17276 H 1633.44 -4.4277 -1.27638 0
M  V30 17277 H 1631.76 -3.95436 -1.30457 0
M  V30 17278 H 1634.35 -3.494 -4.04752 0
M  V30 17279 H 1634.7 -1.80751 -3.75013 0
M  V30 17280 H 1635.23 -3.03313 -2.57383 0
M  V30 17281 H 1631.97 -6.03073 -2.56871 0
M  V30 17282 H 1631.49 -4.73225 -3.68535 0
M  V30 17283 H 1633.17 -5.3265 -3.67277 0
M  V30 17284 N 1633.3 0.851265 -1.32632 0
M  V30 17285 C 1634.21 1.99239 -1.23858 0
M  V30 17286 C 1635.23 1.73339 -0.151517 0
M  V30 17287 O 1636.4 1.97919 -0.372822 0
M  V30 17288 C 1633.47 3.32987 -0.965417 0
M  V30 17289 C 1632.53 3.72087 -2.14126 0
M  V30 17290 C 1631.76 4.99453 -1.88103 0
M  V30 17291 O 1631.98 5.64399 -0.825253 0
M  V30 17292 O 1630.92 5.35763 -2.74302 0
M  V30 17293 H 1634.74 2.09579 -2.19796 0
M  V30 17294 H 1632.33 0.98243 -1.12555 0
M  V30 17295 H 1634.21 4.13151 -0.829713 0
M  V30 17296 H 1632.89 3.2368 -0.036219 0
M  V30 17297 H 1631.79 2.92485 -2.33245 0
M  V30 17298 H 1633.13 3.86045 -3.05336 0
M  V30 17299 N 1634.78 1.15898 1.06796 0
M  V30 17300 C 1635.71 0.88395 2.16122 0
M  V30 17301 C 1636.69 -0.167708 1.69271 0
M  V30 17302 O 1637.87 -0.0208846 1.94189 0
M  V30 17303 C 1635 0.378656 3.4523 0
M  V30 17304 C 1633.96 1.36764 4.05561 0
M  V30 17305 C 1633.28 0.720956 5.29817 0
M  V30 17306 C 1634.58 2.73554 4.44933 0
M  V30 17307 H 1636.28 1.79818 2.39386 0
M  V30 17308 H 1633.82 0.866008 1.15049 0
M  V30 17309 H 1635.78 0.17376 4.21042 0
M  V30 17310 H 1634.5 -0.571063 3.21569 0
M  V30 17311 H 1633.16 1.55899 3.318 0
M  V30 17312 H 1632.81 -0.235089 5.0245 0
M  V30 17313 H 1632.51 1.38101 5.71141 0
M  V30 17314 H 1634.03 0.525963 6.0833 0
M  V30 17315 H 1635.45 2.58231 5.11849 0
M  V30 17316 H 1633.84 3.35986 4.97226 0
M  V30 17317 H 1634.91 3.29192 3.56034 0
M  V30 17318 N 1636.26 -1.25243 0.956659 0
M  V30 17319 C 1637.22 -2.24054 0.482949 0
M  V30 17320 C 1638.22 -1.55367 -0.41447 0
M  V30 17321 O 1639.41 -1.72912 -0.211475 0
M  V30 17322 C 1636.54 -3.3956 -0.301975 0
M  V30 17323 H 1637.73 -2.67476 1.35634 0
M  V30 17324 H 1635.29 -1.37665 0.740138 0
M  V30 17325 H 1636.02 -3.01561 -1.19294 0
M  V30 17326 H 1635.81 -3.90607 0.341876 0
M  V30 17327 H 1637.3 -4.1293 -0.622807 0
M  V30 17328 N 1637.73 -0.725468 -1.3991 0
M  V30 17329 C 1638.96 -0.278797 -2.0471 0
M  V30 17330 C 1639.37 1.08796 -1.54791 0
M  V30 17331 O 1638.72 1.69685 -0.703763 0
M  V30 17332 C 1638.78 -0.191732 -3.58988 0
M  V30 17333 C 1638.44 -1.49539 -4.31842 0
M  V30 17334 C 1639.44 -2.43925 -4.59126 0
M  V30 17335 C 1637.12 -1.75705 -4.70567 0
M  V30 17336 C 1639.12 -3.62717 -5.24133 0
M  V30 17337 C 1636.8 -2.94776 -5.35304 0
M  V30 17338 C 1637.8 -3.88104 -5.62018 0
M  V30 17339 O 1637.49 -5.05085 -6.25415 0
M  V30 17340 H 1637.22 -0.121262 -0.665035 0
M  V30 17341 H 1639.78 -0.987188 -1.80122 0
M  V30 17342 H 1638.01 0.572683 -3.82436 0
M  V30 17343 H 1639.7 0.22168 -4.05294 0
M  V30 17344 H 1640.46 -2.24977 -4.29663 0
M  V30 17345 H 1636.34 -1.03912 -4.49136 0
M  V30 17346 H 1639.88 -4.35579 -5.44901 0
M  V30 17347 H 1635.78 -3.13629 -5.64187 0
M  V30 17348 H 1636.55 -5.05294 -6.4391 0
M  V30 17349 N 1639.21 1.50354 -0.472382 0
M  V30 17350 C 1640.63 1.59097 -0.126613 0
M  V30 17351 C 1640.83 1.4804 1.36698 0
M  V30 17352 O 1639.88 1.33956 2.14038 0
M  V30 17353 C 1641.2 2.92958 -0.677957 0
M  V30 17354 C 1642.75 3.06356 -0.6415 0
M  V30 17355 C 1643.22 4.42793 -1.17041 0
M  V30 17356 N 1644.71 4.49208 -1.12988 0
M  V30 17357 C 1645.45 5.53171 -1.50961 0
M  V30 17358 N 1644.94 6.64381 -1.96391 0
M  V30 17359 N 1646.74 5.43722 -1.42556 0
M  V30 17360 H 1638.89 1.55785 -1.44378 0
M  V30 17361 H 1641.15 0.736295 -0.597138 0
M  V30 17362 H 1640.86 3.06529 -1.72433 0
M  V30 17363 H 1640.73 3.77002 -0.122247 0
M  V30 17364 H 1643.12 2.92431 0.395964 0
M  V30 17365 H 1643.2 2.24066 -1.23403 0
M  V30 17366 H 1642.84 4.57466 -2.20651 0
M  V30 17367 H 1642.77 5.23677 -0.554086 0
M  V30 17368 H 1645.26 3.69407 -0.796692 0
M  V30 17369 H 1645.58 7.39772 -2.23511 0
M  V30 17370 H 1643.92 6.65498 -2.00344 0
M  V30 17371 H 1647.11 4.55729 -1.06905 0
M  V30 17372 H 1647.28 6.24625 -1.72476 0
M  V30 17373 N 1640.69 0.205039 1.56261 0
M  V30 17374 C 1642.11 -0.150644 1.58887 0
M  V30 17375 C 1642.31 -1.60256 1.22148 0
M  V30 17376 O 1641.36 -2.33991 0.948912 0
M  V30 17377 C 1642.68 0.160711 3.0027 0
M  V30 17378 C 1644.22 0.101616 3.12835 0
M  V30 17379 C 1644.7 0.386417 4.56367 0
M  V30 17380 N 1646.19 0.335392 4.61984 0
M  V30 17381 C 1646.93 0.529473 5.7095 0
M  V30 17382 N 1646.42 0.784441 6.88345 0
M  V30 17383 N 1648.21 0.463044 5.6019 0
M  V30 17384 H 1640.37 1.15238 1.78421 0
M  V30 17385 H 1642.63 0.460698 0.82853 0
M  V30 17386 H 1642.33 1.1678 3.31746 0
M  V30 17387 H 1642.21 -0.532067 3.73429 0
M  V30 17388 H 1644.6 -0.896093 2.81166 0
M  V30 17389 H 1644.68 0.827622 2.42041 0
M  V30 17390 H 1644.32 1.38149 4.88751 0
M  V30 17391 H 1644.25 -0.360592 5.25364 0
M  V30 17392 H 1646.74 0.145346 3.7762 0
M  V30 17393 H 1647.05 0.921077 7.67291 0
M  V30 17394 H 1645.4 0.821448 6.90128 0
M  V30 17395 H 1648.59 0.2642 4.67354 0
M  V30 17396 H 1648.76 0.617712 6.45049 0
M  V30 17397 N 1642.17 -1.57451 -0.0684915 0
M  V30 17398 C 1643.59 -1.53883 -0.423354 0
M  V30 17399 C 1643.79 -0.925698 -1.78978 0
M  V30 17400 O 1642.84 -0.529629 -2.46883 0
M  V30 17401 C 1644.15 -2.98521 -0.361386 0
M  V30 17402 C 1645.7 -3.09873 -0.441334 0
M  V30 17403 C 1646.18 -4.56168 -0.409239 0
M  V30 17404 N 1647.67 -4.60817 -0.469216 0
M  V30 17405 C 1648.4 -5.71498 -0.466648 0
M  V30 17406 N 1647.9 -6.91534 -0.4187 0
M  V30 17407 N 1649.69 -5.5975 -0.513452 0
M  V30 17408 H 1641.84 -1.95672 0.8262 0
M  V30 17409 H 1644.11 -0.895759 0.310354 0
M  V30 17410 H 1643.81 -3.46951 0.576035 0
M  V30 17411 H 1643.69 -3.58585 -1.17032 0
M  V30 17412 H 1646.07 -2.61414 -1.36918 0
M  V30 17413 H 1646.15 -2.52712 0.396237 0
M  V30 17414 H 1645.8 -5.05285 0.514772 0
M  V30 17415 H 1645.73 -5.11195 -1.26439 0
M  V30 17416 H 1648.22 -3.74438 -0.510387 0
M  V30 17417 H 1648.53 -7.71654 -0.420757 0
M  V30 17418 H 1646.88 -6.93931 -0.385338 0
M  V30 17419 H 1650.07 -4.64874 -0.548626 0
M  V30 17420 H 1650.24 -6.46006 -0.507982 0
M  V30 17421 N 1643.65 0.339955 -1.5389 0
M  V30 17422 C 1645.06 0.915362 -1.62721 0
M  V30 17423 C 1645.41 1.89434 -0.510798 0
M  V30 17424 O 1644.53 2.13403 0.3589 0
M  V30 17425 C 1645.13 1.66699 -2.94953 0
M  V30 17426 C 1643.69 2.19135 -3.06034 0
M  V30 17427 C 1642.84 1.01159 -2.5819 0
M  V30 17428 H 1645.79 0.11799 -1.58261 0
M  V30 17429 H 1645.81 2.53011 -2.84193 0
M  V30 17430 H 1645.32 0.954219 -3.76186 0
M  V30 17431 H 1643.42 2.93577 -2.29441 0
M  V30 17432 H 1643.53 2.4526 -4.11563 0
M  V30 17433 H 1641.9 1.38604 -2.13685 0
M  V30 17434 H 1642.68 0.313396 -3.41867 0
M  V30 17435 N 1645.13 1.45684 0.601159 0
M  V30 17436 C 1646.54 1.44423 1.18317 0
M  V30 17437 C 1646.89 0.17524 1.95416 0
M  V30 17438 O 1646.01 -0.722816 2.03971 0
M  V30 17439 C 1646.61 2.61651 2.1523 0
M  V30 17440 C 1645.17 2.6349 2.68793 0
M  V30 17441 C 1644.31 2.36787 1.44317 0
M  V30 17442 H 1647.26 1.53831 0.390108 0
M  V30 17443 H 1647.29 2.36117 2.98377 0
M  V30 17444 H 1646.8 3.53995 1.59088 0
M  V30 17445 H 1644.9 1.7517 3.28856 0
M  V30 17446 H 1645.01 3.62906 3.12787 0
M  V30 17447 H 1643.38 1.86472 1.73494 0
M  V30 17448 H 1644.16 3.31284 0.900327 0
M  V30 17449 N 1646.6 -0.84422 1.33082 0
M  V30 17450 C 1648.02 -1.13406 1.12299 0
M  V30 17451 C 1648.22 -2.013 -0.0896529 0
M  V30 17452 O 1647.28 -2.40425 -0.771493 0
M  V30 17453 C 1648.59 -1.80132 2.40776 0
M  V30 17454 C 1650.14 -1.92721 2.46632 0
M  V30 17455 C 1650.61 -2.62863 3.75056 0
M  V30 17456 N 1652.1 -2.70379 3.76097 0
M  V30 17457 C 1652.84 -3.25328 4.72175 0
M  V30 17458 N 1652.33 -3.81005 5.78625 0
M  V30 17459 N 1654.13 -3.23529 4.59658 0
M  V30 17460 H 1646.28 -0.259126 2.10813 0
M  V30 17461 H 1648.54 -0.177459 0.931242 0
M  V30 17462 H 1648.25 -1.23007 3.29488 0
M  V30 17463 H 1648.12 -2.802 2.52523 0
M  V30 17464 H 1650.51 -2.49002 1.58373 0
M  V30 17465 H 1650.59 -0.916191 2.3883 0
M  V30 17466 H 1650.23 -2.07242 4.63695 0
M  V30 17467 H 1650.16 -3.64425 3.80134 0
M  V30 17468 H 1652.65 -2.30891 2.99162 0
M  V30 17469 H 1652.97 -4.21121 6.47979 0
M  V30 17470 H 1651.31 -3.79308 5.82366 0
M  V30 17471 H 1654.5 -2.79286 3.75656 0
M  V30 17472 H 1654.68 -3.66051 5.34706 0
M  V30 17473 N 1648.08 -1.16463 -1.0618 0
M  V30 17474 C 1649.31 -0.97159 -1.83235 0
M  V30 17475 C 1649.73 0.475295 -1.81996 0
M  V30 17476 O 1649.09 1.33964 -1.22161 0
M  V30 17477 C 1649.14 -1.50504 -3.2769 0
M  V30 17478 O 1648.24 -0.712128 -4.06205 0
M  V30 17479 H 1647.58 -0.345676 -0.566925 0
M  V30 17480 H 1650.11 -1.54727 -1.33868 0
M  V30 17481 H 1650.12 -1.52301 -3.78508 0
M  V30 17482 H 1648.8 -2.55832 -3.27907 0
M  V30 17483 H 1647.37 -0.764756 -3.64974 0
M  V30 17484 N 1649.56 1.24734 -0.963288 0
M  V30 17485 C 1650.97 1.7456 -0.662246 0
M  V30 17486 C 1651.32 1.78143 0.822169 0
M  V30 17487 O 1650.45 1.40794 1.64335 0
M  V30 17488 C 1651.04 3.1701 -1.19542 0
M  V30 17489 C 1649.6 3.64361 -0.944371 0
M  V30 17490 C 1648.75 2.4314 -1.33335 0
M  V30 17491 H 1651.7 1.10498 -1.13911 0
M  V30 17492 H 1651.72 3.76362 -0.559601 0
M  V30 17493 H 1651.23 3.1437 -2.27581 0
M  V30 17494 H 1649.33 3.72405 0.120682 0
M  V30 17495 H 1649.45 4.52055 -1.58692 0
M  V30 17496 H 1647.81 2.43354 -0.751729 0
M  V30 17497 H 1648.59 2.43185 -2.42314 0
M  V30 17498 N 1651.04 0.732878 1.39523 0
M  V30 17499 C 1652.31 0.20629 1.94509 0
M  V30 17500 C 1652.69 -1.29152 1.66982 0
M  V30 17501 O 1652.04 -2.05607 0.996895 0
M  V30 17502 C 1652.25 0.537619 3.44834 0
M  V30 17503 C 1653.6 0.485787 4.21812 0
M  V30 17504 O 1654.62 0.474686 3.53023 0
M  V30 17505 O 1653.48 0.478457 5.44402 0
M  V30 17506 H 1650.58 0.0369228 0.826175 0
M  V30 17507 H 1653.12 0.811591 1.49035 0
M  V30 17508 H 1651.9 1.57289 3.58296 0
M  V30 17509 H 1651.52 -0.0967601 3.97482 0
M  V30 17510 N 1652.52 -1.50101 0.480349 0
M  V30 17511 C 1653.47 -2.25631 -0.327823 0
M  V30 17512 C 1654.45 -1.29605 -0.953492 0
M  V30 17513 O 1655.64 -1.54451 -0.86451 0
M  V30 17514 C 1652.77 -3.13284 -1.40386 0
M  V30 17515 C 1651.86 -4.16763 -0.785461 0
M  V30 17516 N 1652.25 -5.05702 0.0997266 0
M  V30 17517 C 1650.55 -4.33503 -1.04838 0
M  V30 17518 C 1651.25 -5.79944 0.45163 0
M  V30 17519 N 1650.22 -5.43317 -0.175455 0
M  V30 17520 H 1654.02 -2.91761 0.353929 0
M  V30 17521 H 1651.54 -1.59697 0.295085 0
M  V30 17522 H 1653.54 -3.66008 -1.9961 0
M  V30 17523 H 1652.2 -2.48703 -2.08751 0
M  V30 17524 H 1653.21 -5.1577 0.469184 0
M  V30 17525 H 1649.88 -3.80138 -1.72631 0
M  V30 17526 H 1651.27 -6.61554 1.17458 0
M  V30 17527 N 1653.99 -0.213323 -1.5615 0
M  V30 17528 C 1654.94 0.700175 -2.19923 0
M  V30 17529 C 1655.91 1.19641 -1.15218 0
M  V30 17530 O 1657.1 1.257 -1.43542 0
M  V30 17531 C 1654.24 1.90629 -2.87671 0
M  V30 17532 C 1653.35 1.44973 -4.06948 0
M  V30 17533 C 1652.48 2.61277 -4.62502 0
M  V30 17534 C 1651.52 2.12316 -5.74098 0
M  V30 17535 N 1650.66 3.21862 -6.23978 0
M  V30 17536 H 1655.5 0.14961 -2.97624 0
M  V30 17537 H 1653.04 0.0620957 -1.46969 0
M  V30 17538 H 1654.99 2.61431 -3.2513 0
M  V30 17539 H 1653.62 2.42987 -2.12502 0
M  V30 17540 H 1652.68 0.636917 -3.7503 0
M  V30 17541 H 1653.99 1.05065 -4.87609 0
M  V30 17542 H 1653.14 3.40174 -5.02361 0
M  V30 17543 H 1651.88 3.04468 -3.80987 0
M  V30 17544 H 1650.89 1.31877 -5.33749 0
M  V30 17545 H 1652.11 1.70134 -6.57443 0
M  V30 17546 H 1650.06 3.64551 -5.45379 0
M  V30 17547 H 1649.97 2.86181 -6.9974 0
M  V30 17548 H 1651.24 4.0092 -6.68493 0
M  V30 17549 N 1655.47 1.57485 0.0601405 0
M  V30 17550 C 1656.89 1.54105 0.415187 0
M  V30 17551 C 1657.09 0.935177 1.78484 0
M  V30 17552 O 1656.14 0.542715 2.46599 0
M  V30 17553 C 1657.46 2.98708 0.34555 0
M  V30 17554 C 1659.01 3.10103 0.424895 0
M  V30 17555 C 1659.48 4.56379 0.385041 0
M  V30 17556 N 1660.97 4.6106 0.444771 0
M  V30 17557 C 1661.71 5.71737 0.436334 0
M  V30 17558 N 1661.2 6.91746 0.38202 0
M  V30 17559 N 1663 5.60014 0.483759 0
M  V30 17560 H 1655.15 1.95232 -0.836565 0
M  V30 17561 H 1657.41 0.894101 -0.3151 0
M  V30 17562 H 1657.12 3.4664 -0.594427 0
M  V30 17563 H 1656.99 3.59201 1.15129 0
M  V30 17564 H 1659.38 2.62137 1.3553 0
M  V30 17565 H 1659.46 2.52499 -0.409633 0
M  V30 17566 H 1659.1 5.05004 -0.541561 0
M  V30 17567 H 1659.03 5.11859 1.23726 0
M  V30 17568 H 1661.52 3.74703 0.490522 0
M  V30 17569 H 1661.84 7.71866 0.379829 0
M  V30 17570 H 1660.18 6.94126 0.348532 0
M  V30 17571 H 1663.37 4.65158 0.523965 0
M  V30 17572 H 1663.54 6.46266 0.473715 0
M  V30 17573 N 1656.95 -0.331789 1.54068 0
M  V30 17574 C 1658.18 -1.08886 1.75577 0
M  V30 17575 C 1658.59 -1.82462 0.50043 0
M  V30 17576 O 1657.93 -1.7564 -0.53816 0
M  V30 17577 C 1657.99 -2.13858 2.88972 0
M  V30 17578 C 1657.66 -1.59754 4.28168 0
M  V30 17579 C 1658.65 -1.04365 5.09317 0
M  V30 17580 C 1656.34 -1.64245 4.74688 0
M  V30 17581 C 1658.33 -0.541856 6.35093 0
M  V30 17582 C 1656.02 -1.13679 6.00433 0
M  V30 17583 C 1657.02 -0.587426 6.80469 0
M  V30 17584 O 1656.71 -0.0893367 8.0385 0
M  V30 17585 H 1656.44 -0.330075 0.589938 0
M  V30 17586 H 1658.99 -0.386127 2.01738 0
M  V30 17587 H 1657.22 -2.87724 2.58363 0
M  V30 17588 H 1658.91 -2.75223 2.98341 0
M  V30 17589 H 1659.68 -1.00208 4.74535 0
M  V30 17590 H 1655.56 -2.05945 4.12441 0
M  V30 17591 H 1659.1 -0.1124 6.97509 0
M  V30 17592 H 1655 -1.1754 6.34708 0
M  V30 17593 H 1655.77 -0.205529 8.18242 0
M  V30 17594 N 1658.43 -1.46001 -0.593424 0
M  V30 17595 C 1659.68 -1.50755 -1.352 0
M  V30 17596 C 1660 -0.154929 -1.93882 0
M  V30 17597 O 1659.26 0.848161 -1.76365 0
M  V30 17598 C 1659.56 -2.54568 -2.50858 0
M  V30 17599 C 1659.22 -3.98888 -2.10236 0
M  V30 17600 C 1657.89 -4.38182 -1.98872 0
M  V30 17601 C 1660.24 -4.89591 -1.78746 0
M  V30 17602 C 1657.57 -5.66057 -1.5426 0
M  V30 17603 C 1659.92 -6.17892 -1.35617 0
M  V30 17604 C 1658.58 -6.56103 -1.22822 0
M  V30 17605 H 1657.85 -0.551652 -0.494734 0
M  V30 17606 H 1660.5 -1.79422 -0.669327 0
M  V30 17607 H 1658.8 -2.19523 -3.24526 0
M  V30 17608 H 1660.5 -2.5548 -3.09081 0
M  V30 17609 H 1657.09 -3.67822 -2.20012 0
M  V30 17610 H 1661.27 -4.59959 -1.86416 0
M  V30 17611 H 1656.53 -5.94444 -1.42988 0
M  V30 17612 H 1660.7 -6.87609 -1.10301 0
M  V30 17613 H 1658.33 -7.55086 -0.880285 0
M  V30 17614 N 1659.91 0.83715 -1.33527 0
M  V30 17615 C 1661.32 1.12809 -1.12899 0
M  V30 17616 C 1661.52 2.01345 0.0789761 0
M  V30 17617 O 1660.58 2.40831 0.758732 0
M  V30 17618 C 1661.89 1.78852 -2.41728 0
M  V30 17619 C 1663.44 1.91411 -2.47651 0
M  V30 17620 C 1663.91 2.6087 -3.76445 0
M  V30 17621 N 1665.41 2.68381 -3.77526 0
M  V30 17622 C 1666.14 3.22819 -4.73894 0
M  V30 17623 N 1665.64 3.77931 -5.80638 0
M  V30 17624 N 1667.43 3.21087 -4.61367 0
M  V30 17625 H 1659.58 0.247942 -2.10948 0
M  V30 17626 H 1661.84 0.172518 -0.93217 0
M  V30 17627 H 1661.55 1.21258 -3.30135 0
M  V30 17628 H 1661.42 2.78856 -2.54006 0
M  V30 17629 H 1663.81 2.48159 -1.59691 0
M  V30 17630 H 1663.89 0.903512 -2.39312 0
M  V30 17631 H 1663.54 2.0478 -4.64787 0
M  V30 17632 H 1663.47 3.62404 -3.82061 0
M  V30 17633 H 1665.96 2.29301 -3.00382 0
M  V30 17634 H 1666.27 4.17678 -6.50204 0
M  V30 17635 H 1664.61 3.76214 -5.8437 0
M  V30 17636 H 1667.81 2.7729 -3.77131 0
M  V30 17637 H 1667.98 3.6321 -5.3664 0
M  V30 17638 N 1661.38 1.17024 1.05561 0
M  V30 17639 C 1662.66 0.86635 1.75367 0
M  V30 17640 C 1663.04 -0.634217 2.01348 0
M  V30 17641 O 1662.39 -1.58434 1.64654 0
M  V30 17642 C 1662.6 1.69719 3.04953 0
M  V30 17643 C 1663.95 1.91482 3.78972 0
M  V30 17644 O 1664.97 1.66647 3.14813 0
M  V30 17645 O 1663.83 2.33197 4.94248 0
M  V30 17646 H 1660.92 0.320412 0.762407 0
M  V30 17647 H 1663.47 1.277 1.11763 0
M  V30 17648 H 1662.24 2.71512 2.81775 0
M  V30 17649 H 1661.87 1.28408 3.76294 0
M  V30 17650 N 1662.86 -1.24221 0.969889 0
M  V30 17651 C 1663.81 -2.25292 0.501215 0
M  V30 17652 C 1664.78 -1.59764 -0.454382 0
M  V30 17653 O 1665.96 -1.87291 -0.364261 0
M  V30 17654 C 1663.1 -3.44518 -0.200361 0
M  V30 17655 C 1662.22 -4.24636 0.79426 0
M  V30 17656 C 1661.35 -5.31156 0.068568 0
M  V30 17657 C 1660.39 -6.02973 1.05311 0
M  V30 17658 N 1659.53 -7.0119 0.357274 0
M  V30 17659 H 1664.37 -2.64749 1.36792 0
M  V30 17660 H 1661.91 -1.30142 0.685673 0
M  V30 17661 H 1663.86 -4.1251 -0.623833 0
M  V30 17662 H 1662.49 -3.05892 -1.03101 0
M  V30 17663 H 1661.55 -3.56161 1.33616 0
M  V30 17664 H 1662.86 -4.74271 1.54493 0
M  V30 17665 H 1662.01 -6.05294 -0.412792 0
M  V30 17666 H 1660.75 -4.82434 -0.714781 0
M  V30 17667 H 1659.76 -5.27636 1.54532 0
M  V30 17668 H 1660.98 -6.53784 1.83694 0
M  V30 17669 H 1658.93 -6.54736 -0.407059 0
M  V30 17670 H 1658.84 -7.48718 1.04677 0
M  V30 17671 H 1660.11 -7.79433 -0.102045 0
M  V30 17672 N 1664.34 -0.740267 -1.39132 0
M  V30 17673 C 1665.25 -0.105452 -2.34363 0
M  V30 17674 C 1666.27 0.715908 -1.5859 0
M  V30 17675 O 1667.44 0.643155 -1.90855 0
M  V30 17676 C 1664.51 0.787141 -3.37646 0
M  V30 17677 C 1663.57 -0.047071 -4.29274 0
M  V30 17678 C 1662.8 0.803014 -5.27624 0
M  V30 17679 O 1663.02 2.04155 -5.32613 0
M  V30 17680 O 1661.96 0.228879 -6.01465 0
M  V30 17681 H 1665.78 -0.891588 -2.90318 0
M  V30 17682 H 1663.37 -0.500996 -1.40749 0
M  V30 17683 H 1665.25 1.29769 -4.00921 0
M  V30 17684 H 1663.93 1.552 -2.84068 0
M  V30 17685 H 1662.83 -0.603265 -3.69204 0
M  V30 17686 H 1664.17 -0.774273 -4.86072 0
M  V30 17687 N 1665.82 1.49844 -0.488302 0
M  V30 17688 C 1667.07 2.02009 0.0605782 0
M  V30 17689 C 1667.39 1.37114 1.38653 0
M  V30 17690 O 1666.66 0.522182 1.88812 0
M  V30 17691 H 1665.24 0.746569 0.0253773 0
M  V30 17692 H 1667.9 1.84 -0.64265 0
M  V30 17693 H 1667 3.11461 0.199542 0
M  V30 17694 N 1667.3 0.221601 1.56034 0
M  V30 17695 C 1668.23 -0.683171 2.23282 0
M  V30 17696 C 1669.21 -1.20101 1.20456 0
M  V30 17697 O 1670.39 -1.245 1.49041 0
M  V30 17698 C 1667.52 -1.89143 2.91277 0
M  V30 17699 C 1666.48 -1.50742 4.00576 0
M  V30 17700 C 1665.8 -2.79446 4.55867 0
M  V30 17701 C 1667.1 -0.697388 5.17623 0
M  V30 17702 H 1668.8 -0.122488 2.99149 0
M  V30 17703 H 1666.34 -0.0574732 1.43885 0
M  V30 17704 H 1668.3 -2.52982 3.37013 0
M  V30 17705 H 1667.02 -2.47708 2.12858 0
M  V30 17706 H 1665.68 -0.892492 3.5557 0
M  V30 17707 H 1665.33 -3.36155 3.74177 0
M  V30 17708 H 1665.03 -2.54486 5.29633 0
M  V30 17709 H 1666.55 -3.44228 5.04321 0
M  V30 17710 H 1667.96 -1.23948 5.59741 0
M  V30 17711 H 1666.36 -0.544875 5.97621 0
M  V30 17712 H 1667.43 0.295981 4.83996 0
M  V30 17713 N 1668.77 -1.57515 -0.0517878 0
M  V30 17714 C 1670.19 -1.54323 -0.407009 0
M  V30 17715 C 1670.39 -0.944629 -1.77986 0
M  V30 17716 O 1669.45 -0.555785 -2.46307 0
M  V30 17717 C 1670.76 -2.98887 -0.329703 0
M  V30 17718 C 1672.31 -3.10324 -0.408443 0
M  V30 17719 C 1672.78 -4.56576 -0.360833 0
M  V30 17720 N 1674.27 -4.61289 -0.420313 0
M  V30 17721 C 1675.01 -5.71961 -0.406007 0
M  V30 17722 N 1674.5 -6.91939 -0.34533 0
M  V30 17723 N 1676.3 -5.60263 -0.454054 0
M  V30 17724 H 1668.45 -1.94785 0.846907 0
M  V30 17725 H 1670.71 -0.892417 0.319838 0
M  V30 17726 H 1670.42 -3.4632 0.612802 0
M  V30 17727 H 1670.29 -3.59806 -1.13222 0
M  V30 17728 H 1672.68 -2.62852 -1.34138 0
M  V30 17729 H 1672.76 -2.52278 0.423018 0
M  V30 17730 H 1672.4 -5.0471 0.568335 0
M  V30 17731 H 1672.33 -5.12508 -1.2101 0
M  V30 17732 H 1674.82 -3.74958 -0.470644 0
M  V30 17733 H 1675.14 -7.72057 -0.338889 0
M  V30 17734 H 1673.48 -6.94301 -0.311715 0
M  V30 17735 H 1676.67 -4.6543 -0.499289 0
M  V30 17736 H 1676.85 -6.46508 -0.439435 0
M  V30 17737 N 1670.25 0.323614 -1.54242 0
M  V30 17738 C 1671.53 1.07979 -1.63095 0
M  V30 17739 C 1671.91 2.0592 -0.464774 0
M  V30 17740 O 1671.26 2.22004 0.540961 0
M  V30 17741 C 1671.47 1.78178 -3.0009 0
M  V30 17742 C 1672.82 2.31201 -3.56134 0
M  V30 17743 O 1673.84 1.88245 -3.02394 0
M  V30 17744 O 1672.7 3.09843 -4.50177 0
M  V30 17745 H 1669.79 0.497726 -0.660453 0
M  V30 17746 H 1672.34 0.323509 -1.66588 0
M  V30 17747 H 1671.11 1.06938 -3.76404 0
M  V30 17748 H 1670.73 2.60616 -3.00275 0
M  V30 17749 N 1671.73 1.46313 0.585673 0
M  V30 17750 C 1672.98 1.5147 1.34399 0
M  V30 17751 C 1673.31 0.165209 1.93797 0
M  V30 17752 O 1672.56 -0.838796 1.76813 0
M  V30 17753 C 1672.86 2.55895 2.49504 0
M  V30 17754 C 1672.53 3.99997 2.08118 0
M  V30 17755 C 1671.19 4.3923 1.96545 0
M  V30 17756 C 1673.54 4.90532 1.76147 0
M  V30 17757 C 1670.87 5.66867 1.51256 0
M  V30 17758 C 1673.22 6.18603 1.32338 0
M  V30 17759 C 1671.88 6.56745 1.1934 0
M  V30 17760 H 1671.15 0.554268 0.491801 0
M  V30 17761 H 1673.8 1.79774 0.659803 0
M  V30 17762 H 1672.11 2.21241 3.23357 0
M  V30 17763 H 1673.8 2.57116 3.07722 0
M  V30 17764 H 1670.39 3.68983 2.18058 0
M  V30 17765 H 1674.58 4.60942 1.83974 0
M  V30 17766 H 1669.83 5.95194 1.39834 0
M  V30 17767 H 1674.01 6.88185 1.06653 0
M  V30 17768 H 1671.63 7.55542 0.840228 0
M  V30 17769 N 1673.21 -0.830057 1.33969 0
M  V30 17770 C 1674.44 -1.61539 1.28797 0
M  V30 17771 C 1674.85 -1.8867 -0.14158 0
M  V30 17772 O 1674.19 -1.47356 -1.0969 0
M  V30 17773 C 1674.25 -2.98503 2.0034 0
M  V30 17774 C 1673.92 -2.94302 3.49622 0
M  V30 17775 C 1674.91 -2.69391 4.44662 0
M  V30 17776 C 1672.6 -3.14159 3.9193 0
M  V30 17777 C 1674.59 -2.64379 5.79985 0
M  V30 17778 C 1672.28 -3.08772 5.27355 0
M  V30 17779 C 1673.28 -2.83914 6.21194 0
M  V30 17780 O 1672.97 -2.78446 7.54137 0
M  V30 17781 H 1672.7 -0.509067 0.444777 0
M  V30 17782 H 1675.25 -1.04137 1.77044 0
M  V30 17783 H 1673.48 -3.57795 1.46697 0
M  V30 17784 H 1675.17 -3.59449 1.88551 0
M  V30 17785 H 1675.94 -2.53792 4.13298 0
M  V30 17786 H 1671.82 -3.32526 3.19293 0
M  V30 17787 H 1675.36 -2.44896 6.53201 0
M  V30 17788 H 1671.26 -3.23922 5.58341 0
M  V30 17789 H 1672.02 -2.94224 7.63789 0
M  V30 17790 N 1674.69 -1.17582 -1.04939 0
M  V30 17791 C 1675.62 -0.918221 -2.14688 0
M  V30 17792 C 1676.6 0.140757 -1.69517 0
M  V30 17793 O 1677.78 -0.0100118 -1.94197 0
M  V30 17794 C 1674.91 -0.433531 -3.44584 0
M  V30 17795 C 1673.87 -1.43199 -4.03334 0
M  V30 17796 C 1673.19 -0.805154 -5.28603 0
M  V30 17797 C 1674.49 -2.80598 -4.40525 0
M  V30 17798 H 1676.19 -1.83604 -2.36495 0
M  V30 17799 H 1673.73 -0.884202 -1.13657 0
M  V30 17800 H 1675.69 -0.240722 -4.20712 0
M  V30 17801 H 1674.41 0.519832 -3.22437 0
M  V30 17802 H 1673.07 -1.61158 -3.29277 0
M  V30 17803 H 1672.72 0.155124 -5.02761 0
M  V30 17804 H 1672.42 -1.4717 -5.68871 0
M  V30 17805 H 1673.94 -0.622677 -6.07417 0
M  V30 17806 H 1675.36 -2.66341 -5.07676 0
M  V30 17807 H 1673.75 -3.43854 -4.91817 0
M  V30 17808 H 1674.82 -3.34815 -3.50752 0
M  V30 17809 N 1676.17 1.23705 -0.976463 0
M  V30 17810 C 1677.44 1.87421 -0.559719 0
M  V30 17811 C 1677.82 1.87847 0.963166 0
M  V30 17812 O 1677.17 1.35726 1.83822 0
M  V30 17813 C 1677.38 3.29113 -1.16128 0
M  V30 17814 C 1678.73 4.05735 -1.25158 0
M  V30 17815 O 1679.75 3.38317 -1.11444 0
M  V30 17816 O 1678.61 5.26377 -1.46933 0
M  V30 17817 H 1675.71 0.80537 -0.187903 0
M  V30 17818 H 1678.25 1.31611 -1.07129 0
M  V30 17819 H 1677.02 3.23348 -2.20367 0
M  V30 17820 H 1676.65 3.92508 -0.63428 0
M  V30 17821 N 1677.64 0.747635 1.38738 0
M  V30 17822 C 1678.58 0.0762364 2.29073 0
M  V30 17823 C 1679.59 -0.690087 1.4745 0
M  V30 17824 O 1680.78 -0.53216 1.70383 0
M  V30 17825 C 1677.88 -0.916136 3.26282 0
M  V30 17826 C 1677.05 -0.2087 4.36902 0
M  V30 17827 C 1676.11 -1.11097 5.14338 0
M  V30 17828 O 1675.14 -0.583722 5.66199 0
M  V30 17829 N 1676.34 -2.43961 5.26748 0
M  V30 17830 H 1679.1 0.852024 2.87334 0
M  V30 17831 H 1676.66 0.597915 1.50455 0
M  V30 17832 H 1678.66 -1.52263 3.74964 0
M  V30 17833 H 1677.23 -1.59304 2.68963 0
M  V30 17834 H 1676.45 0.578435 3.89933 0
M  V30 17835 H 1677.73 0.281061 5.08023 0
M  V30 17836 H 1677.13 -2.89259 4.86154 0
M  V30 17837 H 1675.69 -2.99676 5.78824 0
M  V30 17838 N 1679.12 -1.49583 0.496242 0
M  V30 17839 C 1680.37 -2.02438 -0.049963 0
M  V30 17840 C 1680.7 -1.37632 -1.37433 0
M  V30 17841 O 1679.95 -0.499552 -1.89217 0
M  V30 17842 C 1680.25 -3.56482 -0.255949 0
M  V30 17843 C 1679.92 -4.39901 0.989824 0
M  V30 17844 C 1678.58 -4.62417 1.33132 0
M  V30 17845 C 1680.93 -4.88461 1.81811 0
M  V30 17846 C 1678.26 -5.30737 2.50071 0
M  V30 17847 C 1680.61 -5.58067 2.97899 0
M  V30 17848 C 1679.27 -5.7883 3.32434 0
M  V30 17849 H 1678.54 -0.740774 -0.0182828 0
M  V30 17850 H 1681.19 -1.79934 0.655434 0
M  V30 17851 H 1679.5 -3.77639 -1.04383 0
M  V30 17852 H 1681.19 -3.94967 -0.692943 0
M  V30 17853 H 1677.78 -4.22614 0.713811 0
M  V30 17854 H 1681.97 -4.70898 1.56743 0
M  V30 17855 H 1677.22 -5.45015 2.77072 0
M  V30 17856 H 1681.4 -5.9467 3.6241 0
M  V30 17857 H 1679.02 -6.31544 4.23151 0
M  V30 17858 N 1680.6 -0.229873 -1.55915 0
M  V30 17859 C 1682.02 0.125347 -1.59107 0
M  V30 17860 C 1682.22 1.58293 -1.24682 0
M  V30 17861 O 1681.27 2.32452 -0.986018 0
M  V30 17862 C 1682.58 -0.208461 -2.99977 0
M  V30 17863 C 1684.13 -0.151373 -3.12634 0
M  V30 17864 C 1684.61 -0.458972 -4.55694 0
M  V30 17865 N 1686.1 -0.408847 -4.61392 0
M  V30 17866 C 1686.83 -0.620239 -5.70036 0
M  V30 17867 N 1686.33 -0.893851 -6.8701 0
M  V30 17868 N 1688.12 -0.552107 -5.59382 0
M  V30 17869 H 1680.27 -1.18062 -1.76565 0
M  V30 17870 H 1682.54 -0.473821 -0.821095 0
M  V30 17871 H 1682.24 -1.22043 -3.29846 0
M  V30 17872 H 1682.12 0.472591 -3.74228 0
M  V30 17873 H 1684.5 0.851249 -2.82556 0
M  V30 17874 H 1684.58 -0.866024 -2.40694 0
M  V30 17875 H 1684.23 -1.45907 -4.86491 0
M  V30 17876 H 1684.16 0.276965 -5.25871 0
M  V30 17877 H 1686.65 -0.205404 -3.77341 0
M  V30 17878 H 1686.96 -1.04303 -7.65729 0
M  V30 17879 H 1685.31 -0.931138 -6.88734 0
M  V30 17880 H 1688.5 -0.338518 -4.66874 0
M  V30 17881 H 1688.67 -0.720256 -6.43985 0
M  V30 17882 N 1682.08 1.5754 0.0434337 0
M  V30 17883 C 1683.31 1.92856 0.749268 0
M  V30 17884 C 1683.72 0.828405 1.69655 0
M  V30 17885 O 1683.08 -0.196294 1.81441 0
M  V30 17886 C 1683.13 3.28052 1.51869 0
M  V30 17887 O 1682.85 4.3384 0.609442 0
M  V30 17888 C 1684.35 3.77562 2.32298 0
M  V30 17889 H 1681.57 0.636818 0.211433 0
M  V30 17890 H 1684.11 2.04499 0.00524119 0
M  V30 17891 H 1682.27 3.1785 2.21472 0
M  V30 17892 H 1682.68 5.11794 1.1475 0
M  V30 17893 H 1684.16 4.7471 2.817 0
M  V30 17894 H 1684.63 3.08015 3.13087 0
M  V30 17895 H 1685.24 3.908 1.67796 0
M  V30 17896 N 1683.56 -0.31543 1.54411 0
M  V30 17897 C 1684.5 -1.3885 1.84362 0
M  V30 17898 C 1685.47 -1.51028 0.69135 0
M  V30 17899 O 1686.66 -1.66119 0.938577 0
M  V30 17900 C 1683.8 -2.75085 2.0838 0
M  V30 17901 C 1682.91 -2.71473 3.36045 0
M  V30 17902 C 1682.05 -3.99608 3.49981 0
M  V30 17903 C 1681.08 -3.90335 4.71492 0
M  V30 17904 N 1680.22 -5.10216 4.82311 0
M  V30 17905 H 1685.06 -1.12609 2.75905 0
M  V30 17906 H 1682.6 -0.54495 1.36633 0
M  V30 17907 H 1684.56 -3.54295 2.20298 0
M  V30 17908 H 1683.19 -2.99618 1.2012 0
M  V30 17909 H 1682.24 -1.84209 3.32823 0
M  V30 17910 H 1683.55 -2.60507 4.25368 0
M  V30 17911 H 1682.7 -4.8725 3.61486 0
M  V30 17912 H 1681.44 -4.1339 2.58766 0
M  V30 17913 H 1680.45 -3.01077 4.60036 0
M  V30 17914 H 1681.67 -3.78111 5.641 0
M  V30 17915 H 1679.62 -5.24489 3.94014 0
M  V30 17916 H 1679.54 -5.01617 5.65612 0
M  V30 17917 H 1680.8 -5.99551 4.98156 0
M  V30 17918 N 1685.03 -1.46622 -0.577906 0
M  V30 17919 C 1685.94 -1.60143 -1.71439 0
M  V30 17920 C 1686.96 -0.484781 -1.6711 0
M  V30 17921 O 1688.14 -0.749551 -1.86932 0
M  V30 17922 C 1685.2 -1.59282 -3.07945 0
M  V30 17923 C 1684.26 -2.82216 -3.235 0
M  V30 17924 C 1683.5 -2.81387 -4.53495 0
M  V30 17925 O 1683.72 -1.90407 -5.37681 0
M  V30 17926 O 1682.65 -3.72991 -4.724 0
M  V30 17927 H 1686.48 -2.56265 -1.62978 0
M  V30 17928 H 1684.06 -1.2947 -0.745514 0
M  V30 17929 H 1685.95 -1.61515 -3.89218 0
M  V30 17930 H 1684.62 -0.663212 -3.16833 0
M  V30 17931 H 1683.53 -2.85536 -2.41702 0
M  V30 17932 H 1684.86 -3.74402 -3.19506 0
M  V30 17933 N 1686.51 0.822941 -1.34408 0
M  V30 17934 C 1687.46 1.95524 -1.25988 0
M  V30 17935 C 1688.45 1.68662 -0.157994 0
M  V30 17936 O 1689.66 1.77079 -0.322966 0
M  V30 17937 H 1686.04 0.642117 -0.391394 0
M  V30 17938 H 1688.01 1.99747 -2.21683 0
M  V30 17939 C 1686.76 3.32026 -1.03218 0
M  V30 17940 H 1686.08 3.53244 -1.87239 0
M  V30 17941 H 1687.52 4.11706 -1.01363 0
M  V30 17942 C 1685.98 3.3586 0.264523 0
M  V30 17943 O 1686.51 3.81232 1.26589 0
M  V30 17944 N 1684.71 2.89072 0.297626 0
M  V30 17945 H 1684.26 2.52341 -0.517836 0
M  V30 17946 H 1684.22 2.92019 1.165 0
M  V30 17947 N 1687.99 1.18137 1.04314 0
M  V30 17948 C 1689.22 1.00062 1.81666 0
M  V30 17949 C 1689.64 -0.446281 1.82729 0
M  V30 17950 O 1689 -1.32004 1.24277 0
M  V30 17951 C 1689.05 1.55698 3.25255 0
M  V30 17952 O 1688.15 0.776662 4.05021 0
M  V30 17953 H 1687.49 0.354651 0.561354 0
M  V30 17954 H 1690.02 1.56837 1.3139 0
M  V30 17955 H 1690.03 1.58303 3.76037 0
M  V30 17956 H 1688.71 2.61016 3.23795 0
M  V30 17957 H 1687.28 0.822723 3.63711 0
M  V30 17958 N 1689.47 -1.23186 0.98301 0
M  V30 17959 C 1690.88 -1.73484 0.689933 0
M  V30 17960 C 1691.23 -1.79428 -0.793724 0
M  V30 17961 O 1690.36 -1.43391 -1.62074 0
M  V30 17962 C 1690.95 -3.15068 1.24571 0
M  V30 17963 C 1689.51 -3.62812 1.00222 0
M  V30 17964 C 1688.66 -2.40988 1.37186 0
M  V30 17965 H 1691.61 -1.08672 1.15655 0
M  V30 17966 H 1691.63 -3.75425 0.619406 0
M  V30 17967 H 1691.14 -3.10709 2.32554 0
M  V30 17968 H 1689.24 -3.72549 -0.0614202 0
M  V30 17969 H 1689.35 -4.49473 1.65863 0
M  V30 17970 H 1687.72 -2.42127 0.79035 0
M  V30 17971 H 1688.5 -2.39299 2.46152 0
M  V30 17972 N 1690.95 -0.754982 -1.38339 0
M  V30 17973 C 1691.9 -0.103867 -2.27763 0
M  V30 17974 C 1692.88 0.691777 -1.4527 0
M  V30 17975 O 1694.07 0.557503 -1.67991 0
M  V30 17976 C 1691.2 0.787421 -3.34148 0
M  V30 17977 C 1690.29 -0.0151461 -4.24097 0
M  V30 17978 N 1690.68 -1.05227 -4.94733 0
M  V30 17979 C 1688.98 0.211452 -4.45498 0
M  V30 17980 C 1689.68 -1.53796 -5.61001 0
M  V30 17981 N 1688.65 -0.853018 -5.36866 0
M  V30 17982 H 1692.46 -0.898166 -2.7984 0
M  V30 17983 H 1689.97 -0.591155 -1.51258 0
M  V30 17984 H 1691.97 1.26952 -3.971 0
M  V30 17985 H 1690.63 1.58066 -2.83629 0
M  V30 17986 H 1691.64 -1.43409 -4.97649 0
M  V30 17987 H 1688.31 0.977919 -4.05885 0
M  V30 17988 H 1689.7 -2.40193 -6.27501 0
M  V30 17989 N 1692.42 1.49318 -0.504168 0
M  V30 17990 C 1693.67 2.03376 0.0312661 0
M  V30 17991 C 1694.03 1.37674 1.34401 0
M  V30 17992 O 1693.32 0.504451 1.8484 0
M  V30 17993 C 1693.51 3.56613 0.237041 0
M  V30 17994 C 1693.34 4.37169 -1.05421 0
M  V30 17995 C 1692.11 4.79069 -1.60689 0
M  V30 17996 C 1694.31 4.75558 -1.95829 0
M  V30 17997 N 1692.29 5.44064 -2.84372 0
M  V30 17998 C 1693.66 5.40304 -3.04091 0
M  V30 17999 C 1695.72 4.57498 -1.96469 0
M  V30 18000 C 1694.42 5.88901 -4.13023 0
M  V30 18001 C 1696.45 5.07058 -3.04378 0
M  V30 18002 C 1695.81 5.71807 -4.11358 0
M  V30 18003 H 1691.91 0.781446 -0.0294179 0
M  V30 18004 H 1694.49 1.82449 -0.679729 0
M  V30 18005 H 1692.66 3.77417 0.917095 0
M  V30 18006 H 1694.39 3.97312 0.769765 0
M  V30 18007 H 1691.15 4.59385 -1.15163 0
M  V30 18008 H 1691.57 5.81146 -3.47273 0
M  V30 18009 H 1696.22 4.06841 -1.15065 0
M  V30 18010 H 1693.93 6.38577 -4.95222 0
M  V30 18011 H 1697.52 4.94892 -3.05897 0
M  V30 18012 H 1696.4 6.09463 -4.93482 0
M  V30 18013 N 1693.9 0.238138 1.5579 0
M  V30 18014 C 1694.81 -0.676049 2.24648 0
M  V30 18015 C 1695.83 -1.20038 1.25964 0
M  V30 18016 O 1697 -1.2385 1.58818 0
M  V30 18017 C 1694.07 -1.86014 2.92574 0
M  V30 18018 C 1693.13 -1.37615 4.06646 0
M  V30 18019 C 1692.36 -2.5038 4.71323 0
M  V30 18020 O 1692.59 -3.68906 4.35045 0
M  V30 18021 O 1691.52 -2.20636 5.60003 0
M  V30 18022 H 1695.35 -0.119372 3.03465 0
M  V30 18023 H 1692.93 0.00699789 1.49398 0
M  V30 18024 H 1694.81 -2.55132 3.35389 0
M  V30 18025 H 1693.49 -2.4046 2.16704 0
M  V30 18026 H 1692.4 -0.652503 3.68366 0
M  V30 18027 H 1693.73 -0.877871 4.84308 0
M  V30 18028 N 1695.38 -1.57561 -0.0350783 0
M  V30 18029 C 1696.33 -2.02627 -1.04528 0
M  V30 18030 C 1697.31 -0.914525 -1.32383 0
M  V30 18031 O 1698.51 -1.17843 -1.32068 0
M  V30 18032 C 1695.64 -2.50425 -2.34824 0
M  V30 18033 C 1694.72 -3.68408 -2.10086 0
M  V30 18034 N 1695.11 -4.8134 -1.55387 0
M  V30 18035 C 1693.41 -3.75666 -2.40398 0
M  V30 18036 C 1694.11 -5.62998 -1.46314 0
M  V30 18037 N 1693.09 -5.07933 -1.93662 0
M  V30 18038 H 1696.89 -2.87366 -0.616284 0
M  V30 18039 H 1694.4 -1.60594 -0.241499 0
M  V30 18040 H 1696.4 -2.80968 -3.07998 0
M  V30 18041 H 1695.06 -1.67089 -2.78408 0
M  V30 18042 H 1696.07 -5.029 -1.2374 0
M  V30 18043 H 1692.75 -3.03119 -2.87098 0
M  V30 18044 H 1694.14 -6.63714 -1.04564 0
M  V30 18045 N 1696.86 0.307236 -1.54576 0
M  V30 18046 C 1698.1 1.04476 -1.73818 0
M  V30 18047 C 1698.44 1.87134 -0.519102 0
M  V30 18048 O 1697.71 1.88386 0.483852 0
M  V30 18049 C 1698 1.95594 -3.02349 0
M  V30 18050 C 1697.85 1.16158 -4.34543 0
M  V30 18051 C 1699.17 2.94865 -3.26715 0
M  V30 18052 H 1696.29 0.378415 -0.632433 0
M  V30 18053 H 1698.93 0.319955 -1.87287 0
M  V30 18054 H 1697.08 2.57396 -2.90997 0
M  V30 18055 H 1698.75 0.5669 -4.57803 0
M  V30 18056 H 1696.99 0.464158 -4.3131 0
M  V30 18057 H 1697.66 1.8315 -5.2073 0
M  V30 18058 H 1700.14 2.4319 -3.37636 0
M  V30 18059 H 1699.02 3.55791 -4.17976 0
M  V30 18060 H 1699.28 3.68195 -2.44714 0
M  V30 18061 N 1698.34 1.46926 0.570122 0
M  V30 18062 C 1699.61 1.43365 1.33063 0
M  V30 18063 C 1699.99 0.123738 2.10737 0
M  V30 18064 O 1699.34 -0.894766 2.10253 0
M  V30 18065 C 1699.55 2.67122 2.24604 0
M  V30 18066 C 1700.9 3.13798 2.86035 0
M  V30 18067 O 1701.92 2.67759 2.34912 0
M  V30 18068 O 1700.78 3.93801 3.78923 0
M  V30 18069 H 1697.88 0.570726 0.598499 0
M  V30 18070 H 1700.42 1.5911 0.590095 0
M  V30 18071 H 1699.19 3.54005 1.66722 0
M  V30 18072 H 1698.82 2.53899 3.05976 0
M  V30 18073 N 1699.82 -0.815801 1.34842 0
M  V30 18074 C 1700.75 -1.94193 1.29659 0
M  V30 18075 C 1701.73 -1.69221 0.172703 0
M  V30 18076 O 1702.91 -1.90716 0.366203 0
M  V30 18077 C 1700.04 -3.30777 1.0585 0
M  V30 18078 C 1699 -3.70207 2.1478 0
M  V30 18079 C 1698.32 -5.04852 1.76149 0
M  V30 18080 C 1699.62 -3.81553 3.56671 0
M  V30 18081 H 1701.32 -1.98787 2.23884 0
M  V30 18082 H 1698.86 -0.955013 1.07775 0
M  V30 18083 H 1700.81 -4.0915 1.00866 0
M  V30 18084 H 1699.54 -3.265 0.0806804 0
M  V30 18085 H 1698.2 -2.94113 2.18845 0
M  V30 18086 H 1697.85 -4.9707 0.770099 0
M  V30 18087 H 1697.55 -5.32205 2.49062 0
M  V30 18088 H 1699.07 -5.85676 1.72674 0
M  V30 18089 H 1700.48 -4.50181 3.54979 0
M  V30 18090 H 1698.88 -4.20367 4.28266 0
M  V30 18091 H 1699.95 -2.83356 3.93494 0
M  V30 18092 N 1701.29 -1.18689 -1.03686 0
M  V30 18093 C 1702.52 -1.00961 -1.80595 0
M  V30 18094 C 1702.94 0.44188 -1.83556 0
M  V30 18095 O 1702.29 1.30693 -1.27379 0
M  V30 18096 C 1702.34 -1.56185 -3.26019 0
M  V30 18097 O 1702.07 -2.95652 -3.23298 0
M  V30 18098 C 1703.57 -1.43129 -4.19558 0
M  V30 18099 H 1700.79 -0.356291 -0.568593 0
M  V30 18100 H 1703.33 -1.57324 -1.3065 0
M  V30 18101 H 1701.49 -1.03989 -3.73182 0
M  V30 18102 H 1701.9 -3.21481 -4.14427 0
M  V30 18103 H 1703.37 -1.86561 -5.19518 0
M  V30 18104 H 1703.85 -0.380581 -4.37548 0
M  V30 18105 H 1704.46 -1.94416 -3.78262 0
M  V30 18106 N 1702.77 1.22662 -0.989529 0
M  V30 18107 C 1704.05 1.86816 -0.579566 0
M  V30 18108 C 1704.43 1.88858 0.943188 0
M  V30 18109 O 1703.78 1.37668 1.82372 0
M  V30 18110 C 1703.99 3.27863 -1.19612 0
M  V30 18111 C 1705.33 4.04384 -1.29454 0
M  V30 18112 O 1706.36 3.37116 -1.15026 0
M  V30 18113 O 1705.22 5.24789 -1.52508 0
M  V30 18114 H 1702.31 0.803332 -0.196434 0
M  V30 18115 H 1704.86 1.30467 -1.08519 0
M  V30 18116 H 1703.63 3.20993 -2.23784 0
M  V30 18117 H 1703.25 3.91813 -0.675875 0
M  V30 18118 N 1704.25 0.762308 1.37937 0
M  V30 18119 C 1705.5 0.319104 1.9916 0
M  V30 18120 C 1705.81 -1.10787 1.61201 0
M  V30 18121 O 1707.02 -1.65198 2.15457 0
M  V30 18122 C 1705.47 0.519582 3.5613 0
M  V30 18123 C 1705.08 1.9562 4.03034 0
M  V30 18124 C 1706.83 0.139528 4.24271 0
M  V30 18125 C 1704.73 2.10478 5.52678 0
M  V30 18126 H 1703.66 0.115564 0.745091 0
M  V30 18127 H 1706.31 0.940092 1.5759 0
M  V30 18128 H 1704.7 -0.170724 3.95632 0
M  V30 18129 H 1705.87 2.68069 3.74801 0
M  V30 18130 H 1704.18 2.29197 3.47646 0
M  V30 18131 H 1706.78 0.22918 5.34209 0
M  V30 18132 H 1707.12 -0.908999 4.06255 0
M  V30 18133 H 1707.66 0.782019 3.90038 0
M  V30 18134 H 1704.4 3.13616 5.75609 0
M  V30 18135 H 1703.92 1.42501 5.82626 0
M  V30 18136 H 1705.6 1.89887 6.18508 0
M  V30 18137 N 1705.73 -1.49049 0.51208 0
M  V30 18138 C 1706.96 -2.06585 -0.024934 0
M  V30 18139 C 1707.37 -1.3713 -1.30353 0
M  V30 18140 O 1706.71 -0.446872 -1.78182 0
M  V30 18141 C 1706.77 -3.57911 -0.33768 0
M  V30 18142 C 1706.43 -4.49123 0.844817 0
M  V30 18143 C 1707.43 -4.89977 1.73836 0
M  V30 18144 C 1705.12 -4.91272 1.04675 0
M  V30 18145 C 1707.11 -5.71728 2.8179 0
M  V30 18146 C 1704.8 -5.72798 2.12946 0
M  V30 18147 C 1705.8 -6.12932 3.01337 0
M  V30 18148 O 1705.48 -6.92825 4.07737 0
M  V30 18149 H 1705.22 -0.675633 0.0222573 0
M  V30 18150 H 1707.77 -1.92669 0.711891 0
M  V30 18151 H 1706 -3.69875 -1.12825 0
M  V30 18152 H 1707.69 -3.97641 -0.814628 0
M  V30 18153 H 1708.45 -4.5805 1.59421 0
M  V30 18154 H 1704.33 -4.59528 0.368089 0
M  V30 18155 H 1707.88 -6.02974 3.50811 0
M  V30 18156 H 1703.77 -6.04137 2.27351 0
M  V30 18157 H 1704.54 -7.1115 4.05226 0
M  V30 18158 N 1707.21 -0.246397 -1.55662 0
M  V30 18159 C 1708.15 0.653368 -2.21359 0
M  V30 18160 C 1709.12 1.1717 -1.1773 0
M  V30 18161 O 1710.31 1.22626 -1.46176 0
M  V30 18162 C 1707.45 1.84484 -2.9165 0
M  V30 18163 C 1706.56 1.36308 -4.09932 0
M  V30 18164 C 1705.7 2.51407 -4.6794 0
M  V30 18165 C 1704.73 2.0009 -5.78472 0
M  V30 18166 N 1703.87 3.08555 -6.30665 0
M  V30 18167 H 1708.71 0.0864458 -2.97875 0
M  V30 18168 H 1706.25 0.0309074 -1.47068 0
M  V30 18169 H 1708.21 2.54476 -3.30602 0
M  V30 18170 H 1706.84 2.38425 -2.17609 0
M  V30 18171 H 1705.89 0.557224 -3.76297 0
M  V30 18172 H 1707.2 0.946988 -4.89728 0
M  V30 18173 H 1706.35 3.29442 -5.09463 0
M  V30 18174 H 1705.09 2.96318 -3.87359 0
M  V30 18175 H 1704.1 1.20526 -5.36427 0
M  V30 18176 H 1705.32 1.5615 -6.60904 0
M  V30 18177 H 1703.27 3.529 -5.52989 0
M  V30 18178 H 1703.19 2.71274 -7.05653 0
M  V30 18179 H 1704.45 3.8665 -6.76847 0
M  V30 18180 N 1708.68 1.57577 0.026722 0
M  V30 18181 C 1709.59 2.10114 1.04351 0
M  V30 18182 C 1710.61 1.04029 1.39477 0
M  V30 18183 O 1711.79 1.35778 1.48749 0
M  V30 18184 C 1708.85 2.57203 2.32481 0
M  V30 18185 C 1707.91 3.77779 2.03915 0
M  V30 18186 C 1707.14 4.22613 3.25936 0
M  V30 18187 O 1707.37 3.66955 4.36692 0
M  V30 18188 O 1706.3 5.15026 3.11499 0
M  V30 18189 H 1710.13 2.97157 0.627021 0
M  V30 18190 H 1707.71 1.47396 0.243855 0
M  V30 18191 H 1709.59 2.87809 3.07805 0
M  V30 18192 H 1708.27 1.7327 2.73421 0
M  V30 18193 H 1707.18 3.52188 1.26152 0
M  V30 18194 H 1708.51 4.62703 1.67829 0
M  V30 18195 N 1710.16 -0.299034 1.54737 0
M  V30 18196 C 1711.58 -0.644805 1.45995 0
M  V30 18197 C 1711.78 -1.90634 0.652749 0
M  V30 18198 O 1710.83 -2.51985 0.161228 0
M  V30 18199 C 1712.15 -0.795974 2.89974 0
M  V30 18200 C 1713.69 -0.891731 3.00029 0
M  V30 18201 C 1714.17 -1.07488 4.45208 0
M  V30 18202 N 1715.66 -1.14104 4.48926 0
M  V30 18203 C 1716.4 -1.30108 5.58444 0
M  V30 18204 N 1715.89 -1.42998 6.77882 0
M  V30 18205 N 1717.68 -1.33012 5.46136 0
M  V30 18206 H 1709.84 0.529806 2.05686 0
M  V30 18207 H 1712.1 0.175406 0.931631 0
M  V30 18208 H 1711.8 0.0601375 3.51649 0
M  V30 18209 H 1711.68 -1.68437 3.37504 0
M  V30 18210 H 1714.07 -1.73833 2.38466 0
M  V30 18211 H 1714.15 0.0207194 2.55792 0
M  V30 18212 H 1713.79 -0.233045 5.07365 0
M  V30 18213 H 1713.72 -2.00159 4.87077 0
M  V30 18214 H 1716.21 -1.05488 3.62878 0
M  V30 18215 H 1716.52 -1.5497 7.57102 0
M  V30 18216 H 1714.87 -1.4005 6.80743 0
M  V30 18217 H 1718.06 -1.22555 4.51772 0
M  V30 18218 H 1718.23 -1.45141 6.31536 0
M  V30 18219 N 1711.64 -1.47227 -0.562322 0
M  V30 18220 C 1712.86 -1.5744 -1.35008 0
M  V30 18221 C 1713.29 -0.223223 -1.86771 0
M  V30 18222 O 1712.65 0.800078 -1.62691 0
M  V30 18223 C 1712.7 -2.5992 -2.49948 0
M  V30 18224 O 1711.8 -2.14836 -3.52022 0
M  V30 18225 H 1711.14 -0.529064 -0.401232 0
M  V30 18226 H 1713.67 -1.92966 -0.680084 0
M  V30 18227 H 1713.68 -2.80177 -2.96588 0
M  V30 18228 H 1712.36 -3.58031 -2.11629 0
M  V30 18229 H 1710.93 -2.04655 -3.11722 0
M  V30 18230 N 1713.12 0.808639 -1.35273 0
M  V30 18231 C 1714.39 1.55238 -1.18998 0
M  V30 18232 C 1714.77 2.09824 0.231723 0
M  V30 18233 O 1714.12 1.92252 1.23497 0
M  V30 18234 C 1714.33 2.66252 -2.25634 0
M  V30 18235 C 1715.68 3.34646 -2.61338 0
M  V30 18236 O 1716.7 2.76521 -2.24532 0
M  V30 18237 O 1715.56 4.39644 -3.24615 0
M  V30 18238 H 1712.66 0.6858 -0.462176 0
M  V30 18239 H 1715.2 0.848777 -1.46949 0
M  V30 18240 H 1713.98 2.23774 -3.21 0
M  V30 18241 H 1713.6 3.4425 -1.98941 0
M  V30 18242 N 1714.6 1.19237 1.03055 0
M  V30 18243 C 1715.87 0.903353 1.7349 0
M  V30 18244 C 1716.25 -0.591365 2.02648 0
M  V30 18245 O 1715.6 -1.54906 1.67978 0
M  V30 18246 C 1715.81 1.7615 3.01284 0
M  V30 18247 C 1717.16 1.99477 3.74825 0
M  V30 18248 O 1718.18 1.73287 3.11207 0
M  V30 18249 O 1717.04 2.43628 4.89191 0
M  V30 18250 H 1714.14 0.336512 0.755439 0
M  V30 18251 H 1716.68 1.30041 1.09029 0
M  V30 18252 H 1715.45 2.77428 2.75952 0
M  V30 18253 H 1715.08 1.36361 3.73486 0
M  V30 18254 N 1716.07 -1.22136 0.99602 0
M  V30 18255 C 1717.32 -1.90967 0.673634 0
M  V30 18256 C 1717.65 -1.77526 -0.794654 0
M  V30 18257 O 1716.9 -1.14014 -1.59058 0
M  V30 18258 C 1717.2 -3.42259 1.02926 0
M  V30 18259 C 1716.87 -3.75891 2.49032 0
M  V30 18260 C 1715.53 -3.84781 2.88959 0
M  V30 18261 C 1717.88 -3.91799 3.43719 0
M  V30 18262 C 1715.21 -4.0702 4.22554 0
M  V30 18263 C 1717.56 -4.15543 4.76977 0
M  V30 18264 C 1716.23 -4.22658 5.1664 0
M  V30 18265 H 1715.5 -0.698798 0.2465 0
M  V30 18266 H 1718.14 -1.44836 1.25279 0
M  V30 18267 H 1716.45 -3.90066 0.368224 0
M  V30 18268 H 1718.15 -3.93774 0.757803 0
M  V30 18269 H 1714.74 -3.69556 2.17086 0
M  V30 18270 H 1718.92 -3.84306 3.14042 0
M  V30 18271 H 1714.18 -4.10756 4.52868 0
M  V30 18272 H 1718.35 -4.26796 5.50289 0
M  V30 18273 H 1715.98 -4.39643 6.20176 0
M  V30 18274 N 1717.55 -0.769612 -1.37531 0
M  V30 18275 C 1718.5 -0.152627 -2.30295 0
M  V30 18276 C 1719.47 0.692154 -1.50992 0
M  V30 18277 O 1720.65 0.64496 -1.79569 0
M  V30 18278 C 1717.79 0.72217 -3.37459 0
M  V30 18279 C 1716.91 -0.138985 -4.31776 0
M  V30 18280 C 1716.04 0.740317 -5.26016 0
M  V30 18281 C 1715.08 -0.1235 -6.11975 0
M  V30 18282 N 1714.22 0.713658 -6.98464 0
M  V30 18283 H 1719.06 -0.949218 -2.82478 0
M  V30 18284 H 1716.6 -0.479697 -1.39059 0
M  V30 18285 H 1718.55 1.24415 -3.98217 0
M  V30 18286 H 1717.18 1.48438 -2.86646 0
M  V30 18287 H 1716.24 -0.778756 -3.72343 0
M  V30 18288 H 1717.55 -0.805402 -4.92255 0
M  V30 18289 H 1716.7 1.32887 -5.91968 0
M  V30 18290 H 1715.44 1.44042 -4.65943 0
M  V30 18291 H 1714.45 -0.7246 -5.45004 0
M  V30 18292 H 1715.67 -0.820907 -6.7412 0
M  V30 18293 H 1713.62 1.39842 -6.40921 0
M  V30 18294 H 1713.53 0.104492 -7.55928 0
M  V30 18295 H 1714.8 1.28667 -7.68808 0
M  V30 18296 N 1719.03 1.48775 -0.519977 0
M  V30 18297 C 1720.45 1.58614 -0.177164 0
M  V30 18298 C 1720.65 1.52314 1.31919 0
M  V30 18299 O 1719.7 1.40697 2.09668 0
M  V30 18300 C 1721.02 2.90653 -0.770816 0
M  V30 18301 C 1722.56 3.0416 -0.73864 0
M  V30 18302 C 1723.04 4.38845 -1.31069 0
M  V30 18303 N 1724.53 4.45386 -1.27222 0
M  V30 18304 C 1725.26 5.48088 -1.68484 0
M  V30 18305 N 1724.76 6.57797 -2.17428 0
M  V30 18306 N 1726.55 5.38912 -1.59782 0
M  V30 18307 H 1718.7 1.51112 -1.49261 0
M  V30 18308 H 1720.97 0.716925 -0.62026 0
M  V30 18309 H 1720.67 3.00888 -1.82097 0
M  V30 18310 H 1720.55 3.76422 -0.242125 0
M  V30 18311 H 1722.93 2.93543 0.302728 0
M  V30 18312 H 1723.02 2.20026 -1.30469 0
M  V30 18313 H 1722.66 4.50215 -2.35093 0
M  V30 18314 H 1722.59 5.21649 -0.720409 0
M  V30 18315 H 1725.08 3.66685 -0.913813 0
M  V30 18316 H 1725.39 7.32287 -2.46933 0
M  V30 18317 H 1723.74 6.58787 -2.21415 0
M  V30 18318 H 1726.93 4.52097 -1.2135 0
M  V30 18319 H 1727.1 6.18821 -1.92261 0
M  V30 18320 N 1720.51 0.254649 1.55529 0
M  V30 18321 C 1721.79 -0.418663 1.91067 0
M  V30 18322 C 1722.17 -1.75284 1.17638 0
M  V30 18323 O 1721.51 -2.26569 0.296411 0
M  V30 18324 C 1721.72 -0.579125 3.44162 0
M  V30 18325 C 1723.07 -0.871451 4.15561 0
M  V30 18326 O 1724.1 -0.664702 3.49943 0
M  V30 18327 O 1722.95 -1.26563 5.31643 0
M  V30 18328 H 1720.05 -0.22593 0.795541 0
M  V30 18329 H 1722.59 0.299288 1.6704 0
M  V30 18330 H 1721.37 0.36062 3.89635 0
M  V30 18331 H 1720.99 -1.34732 3.74076 0
M  V30 18332 N 1721.99 -1.57589 -0.0183649 0
M  V30 18333 C 1723.21 -1.94421 -0.722172 0
M  V30 18334 C 1723.64 -0.855471 -1.67521 0
M  V30 18335 O 1722.99 0.187954 -1.80323 0
M  V30 18336 C 1723.04 -3.30331 -1.44615 0
M  V30 18337 O 1722.15 -3.23337 -2.55982 0
M  V30 18338 H 1721.49 -0.63519 -0.193466 0
M  V30 18339 H 1724.02 -2.04579 0.0293527 0
M  V30 18340 H 1724.03 -3.65471 -1.8137 0
M  V30 18341 H 1722.7 -4.09132 -0.747256 0
M  V30 18342 H 1721.28 -2.99845 -2.21692 0
M  V30 18343 N 1723.46 0.290824 -1.54893 0
M  V30 18344 C 1724.71 1.02627 -1.74916 0
M  V30 18345 C 1725.04 1.86572 -0.538921 0
M  V30 18346 O 1724.32 1.88888 0.463844 0
M  V30 18347 C 1724.6 1.92376 -3.04407 0
M  V30 18348 C 1724.45 1.11542 -4.3575 0
M  V30 18349 C 1725.77 2.91383 -3.29824 0
M  V30 18350 H 1722.89 0.371685 -0.636411 0
M  V30 18351 H 1725.53 0.300072 -1.87615 0
M  V30 18352 H 1723.68 2.54295 -2.93711 0
M  V30 18353 H 1725.36 0.518312 -4.58379 0
M  V30 18354 H 1723.6 0.418386 -4.31778 0
M  V30 18355 H 1724.27 1.77616 -5.22644 0
M  V30 18356 H 1726.75 2.39595 -3.40196 0
M  V30 18357 H 1725.62 3.51338 -4.21726 0
M  V30 18358 H 1725.88 3.65579 -2.48606 0
M  V30 18359 N 1724.94 1.47523 0.554506 0
M  V30 18360 C 1726.17 1.58154 1.34172 0
M  V30 18361 C 1726.59 0.233124 1.8665 0
M  V30 18362 O 1725.95 -0.791439 1.63113 0
M  V30 18363 C 1726 2.61242 2.48566 0
M  V30 18364 O 1725.1 2.167 3.50877 0
M  V30 18365 H 1724.44 0.531184 0.398421 0
M  V30 18366 H 1726.97 1.93324 0.669841 0
M  V30 18367 H 1726.98 2.81746 2.95098 0
M  V30 18368 H 1725.66 3.59148 2.09727 0
M  V30 18369 H 1724.24 2.06305 3.10632 0
M  V30 18370 N 1726.42 -0.801453 1.357 0
M  V30 18371 C 1727.67 -1.55571 1.29004 0
M  V30 18372 C 1727.99 -1.9454 -0.133836 0
M  V30 18373 O 1727.26 -1.64004 -1.07143 0
M  V30 18374 H 1725.84 -0.576922 0.47452 0
M  V30 18375 H 1728.5 -0.95568 1.69861 0
M  V30 18376 H 1727.6 -2.46879 1.90937 0
M  V30 18377 N 1727.9 -1.19782 -1.02421 0
M  V30 18378 C 1729.15 -1.00133 -1.7555 0
M  V30 18379 C 1729.47 0.468503 -1.89288 0
M  V30 18380 O 1728.74 1.3391 -1.42986 0
M  V30 18381 H 1727.32 -0.367513 -0.650341 0
M  V30 18382 H 1729.98 -1.50758 -1.23523 0
M  V30 18383 H 1729.08 -1.45329 -2.76199 0
M  V30 18384 N 1729.38 1.21606 -1.00248 0
M  V30 18385 C 1730.63 1.90231 -0.682401 0
M  V30 18386 C 1730.95 1.78324 0.78903 0
M  V30 18387 O 1730.22 1.17653 1.56635 0
M  V30 18388 H 1728.8 0.704132 -0.249414 0
M  V30 18389 H 1731.46 1.47751 -1.27105 0
M  V30 18390 H 1730.55 2.97183 -0.953351 0
M  V30 18391 N 1730.86 0.776895 1.37121 0
M  V30 18392 C 1732.27 0.408311 1.8218 0
M  V30 18393 C 1732.62 -1.06621 1.64701 0
M  V30 18394 O 1731.74 -1.82621 1.16097 0
M  V30 18395 C 1732.34 0.734339 3.30746 0
M  V30 18396 C 1730.9 0.418746 3.74063 0
M  V30 18397 C 1730.04 0.97551 2.59575 0
M  V30 18398 H 1732.99 0.971111 1.25519 0
M  V30 18399 H 1733.02 0.0208557 3.80494 0
M  V30 18400 H 1732.53 1.80757 3.43436 0
M  V30 18401 H 1730.63 -0.646961 3.6694 0
M  V30 18402 H 1730.74 0.930597 4.69975 0
M  V30 18403 H 1729.11 0.399449 2.51548 0
M  V30 18404 H 1729.89 2.05425 2.75056 0
M  V30 18405 N 1732.33 -1.48497 0.527859 0
M  V30 18406 C 1733.57 -2.04399 -0.00503337 0
M  V30 18407 C 1733.94 -1.39636 -1.3178 0
M  V30 18408 O 1735.14 -1.86412 -1.93659 0
M  V30 18409 C 1733.41 -3.57175 -0.126716 0
M  V30 18410 S 1734.97 -4.3454 -0.60998 0
M  V30 18411 H 1731.79 -0.710914 0.0110467 0
M  V30 18412 H 1734.39 -1.82232 0.707938 0
M  V30 18413 H 1733.09 -4.01845 0.833581 0
M  V30 18414 H 1732.62 -3.83792 -0.864129 0
M  V30 18415 H 1734.64 -4.59417 -1.87484 0
M  V30 18416 N 1733.81 -0.262893 -1.55392 0
M  V30 18417 C 1735.04 0.361057 -2.03725 0
M  V30 18418 C 1735.45 1.5037 -1.14168 0
M  V30 18419 O 1734.81 1.81804 -0.159284 0
M  V30 18420 C 1734.86 0.853697 -3.51275 0
M  V30 18421 O 1734.58 -0.243431 -4.37423 0
M  V30 18422 C 1736.08 1.54671 -4.15442 0
M  V30 18423 H 1733.3 0.0839272 -0.665731 0
M  V30 18424 H 1735.85 -0.391424 -2.00719 0
M  V30 18425 H 1734 1.55631 -3.54765 0
M  V30 18426 H 1734.42 0.133241 -5.24331 0
M  V30 18427 H 1735.89 1.84296 -5.20326 0
M  V30 18428 H 1736.37 2.47413 -3.62882 0
M  V30 18429 H 1736.97 0.888269 -4.15921 0
M  V30 18430 N 1735.29 1.57597 0.0100073 0
M  V30 18431 C 1736.24 2.089 1.02292 0
M  V30 18432 C 1737.23 1.00681 1.36234 0
M  V30 18433 O 1738.44 1.19155 1.34915 0
M  V30 18434 H 1734.81 0.666899 0.347491 0
M  V30 18435 H 1736.78 2.9301 0.56458 0
M  V30 18436 C 1735.53 2.59942 2.30923 0
M  V30 18437 H 1734.86 3.4284 2.05672 0
M  V30 18438 H 1736.3 2.99528 3.00098 0
M  V30 18439 C 1734.75 1.50907 3.01212 0
M  V30 18440 O 1735.28 0.886216 3.91802 0
M  V30 18441 N 1733.49 1.23895 2.62866 0
M  V30 18442 H 1733.04 1.7473 1.89281 0
M  V30 18443 H 1733 0.511591 3.1021 0
M  V30 18444 N 1736.77 -0.282606 1.55045 0
M  V30 18445 C 1738.18 -0.629284 1.4667 0
M  V30 18446 C 1738.38 -1.89931 0.672932 0
M  V30 18447 O 1737.44 -2.518 0.187946 0
M  V30 18448 C 1738.75 -0.765174 2.90802 0
M  V30 18449 C 1740.3 -0.859859 3.00958 0
M  V30 18450 C 1740.78 -1.0276 4.46323 0
M  V30 18451 N 1742.27 -1.09336 4.50111 0
M  V30 18452 C 1743 -1.24178 5.59792 0
M  V30 18453 N 1742.5 -1.358 6.7936 0
M  V30 18454 N 1744.29 -1.27212 5.47516 0
M  V30 18455 H 1736.44 0.551592 2.05113 0
M  V30 18456 H 1738.7 0.185277 0.929718 0
M  V30 18457 H 1738.41 0.0974312 3.51565 0
M  V30 18458 H 1738.28 -1.64848 3.39271 0
M  V30 18459 H 1740.67 -1.71294 2.40297 0
M  V30 18460 H 1740.75 0.0478484 2.55755 0
M  V30 18461 H 1740.4 -0.179219 5.07584 0
M  V30 18462 H 1740.33 -1.94981 4.89173 0
M  V30 18463 H 1742.82 -1.01633 3.63977 0
M  V30 18464 H 1743.13 -1.46932 7.58703 0
M  V30 18465 H 1741.48 -1.32822 6.8219 0
M  V30 18466 H 1744.67 -1.17756 4.53046 0
M  V30 18467 H 1744.84 -1.38435 6.3304 0
M  V30 18468 N 1738.25 -1.47815 -0.546675 0
M  V30 18469 C 1739.47 -1.58864 -1.33331 0
M  V30 18470 C 1739.9 -0.24302 -1.86524 0
M  V30 18471 O 1739.25 0.782777 -1.63531 0
M  V30 18472 C 1739.3 -2.62556 -2.47177 0
M  V30 18473 O 1738.41 -2.18558 -3.49723 0
M  V30 18474 H 1737.75 -0.53329 -0.395598 0
M  V30 18475 H 1740.28 -1.93677 -0.659579 0
M  V30 18476 H 1740.29 -2.83307 -2.936 0
M  V30 18477 H 1738.96 -3.60255 -2.0782 0
M  V30 18478 H 1737.54 -2.0795 -3.09534 0
M  V30 18479 N 1739.72 0.794246 -1.36123 0
M  V30 18480 C 1740.67 1.8963 -1.26588 0
M  V30 18481 C 1741.66 1.60118 -0.158415 0
M  V30 18482 O 1742.85 1.72632 -0.390783 0
M  V30 18483 C 1739.98 3.26767 -1.05255 0
M  V30 18484 C 1739.06 3.62304 -2.20447 0
M  V30 18485 N 1739.46 3.69185 -3.4574 0
M  V30 18486 C 1737.75 3.92336 -2.12106 0
M  V30 18487 C 1738.45 4.00822 -4.21565 0
M  V30 18488 N 1737.43 4.15553 -3.50453 0
M  V30 18489 H 1741.23 1.93169 -2.21501 0
M  V30 18490 H 1738.75 0.989508 -1.28773 0
M  V30 18491 H 1740.74 4.05575 -0.965108 0
M  V30 18492 H 1739.4 3.24505 -0.112374 0
M  V30 18493 H 1740.41 3.51951 -3.79935 0
M  V30 18494 H 1737.09 3.98028 -1.26016 0
M  V30 18495 H 1738.48 4.1311 -5.29896 0
M  V30 18496 N 1741.2 1.20323 1.01785 0
M  V30 18497 C 1742.45 1.00688 1.74771 0
M  V30 18498 C 1742.76 -0.461769 1.90071 0
M  V30 18499 O 1743.97 -0.777214 2.60138 0
M  V30 18500 C 1742.43 1.75278 3.14334 0
M  V30 18501 C 1742.03 3.26227 3.0705 0
M  V30 18502 C 1743.78 1.64006 3.91538 0
M  V30 18503 C 1741.68 3.9336 4.41613 0
M  V30 18504 H 1740.61 0.373123 0.655206 0
M  V30 18505 H 1743.27 1.43931 1.13825 0
M  V30 18506 H 1741.65 1.24821 3.75813 0
M  V30 18507 H 1742.82 3.83888 2.54885 0
M  V30 18508 H 1741.14 3.37898 2.43339 0
M  V30 18509 H 1743.73 2.11503 4.91091 0
M  V30 18510 H 1744.08 0.59605 4.12011 0
M  V30 18511 H 1744.61 2.11869 3.36684 0
M  V30 18512 H 1741.35 4.97907 4.26344 0
M  V30 18513 H 1740.87 3.40488 4.93789 0
M  V30 18514 H 1742.55 3.97541 5.10461 0
M  V30 18515 N 1742.68 -1.21073 1.00892 0
M  V30 18516 C 1743.63 -2.23583 0.572636 0
M  V30 18517 C 1744.6 -1.61129 -0.403324 0
M  V30 18518 O 1745.78 -1.88355 -0.304491 0
M  V30 18519 C 1742.92 -3.44981 -0.0906539 0
M  V30 18520 C 1742.03 -4.21894 0.928953 0
M  V30 18521 C 1741.17 -5.30669 0.237516 0
M  V30 18522 C 1740.21 -5.99317 1.24441 0
M  V30 18523 N 1739.35 -6.99699 0.580172 0
M  V30 18524 H 1744.19 -2.60263 1.45146 0
M  V30 18525 H 1741.72 -1.27895 0.72673 0
M  V30 18526 H 1743.68 -4.14285 -0.492281 0
M  V30 18527 H 1742.31 -3.09017 -0.933169 0
M  V30 18528 H 1741.36 -3.5173 1.4488 0
M  V30 18529 H 1742.67 -4.69116 1.69503 0
M  V30 18530 H 1741.83 -6.06301 -0.220013 0
M  V30 18531 H 1740.57 -4.84463 -0.560937 0
M  V30 18532 H 1739.57 -5.22453 1.7124 0
M  V30 18533 H 1740.8 -6.47609 2.04401 0
M  V30 18534 H 1738.74 -6.55699 -0.198553 0
M  V30 18535 H 1738.66 -7.45009 1.28444 0
M  V30 18536 H 1739.93 -7.79363 0.145977 0
M  V30 18537 N 1744.16 -0.784156 -1.36707 0
M  V30 18538 C 1745.11 -0.152155 -2.27492 0
M  V30 18539 C 1746.09 0.660807 -1.46704 0
M  V30 18540 O 1747.28 0.521744 -1.69136 0
M  V30 18541 C 1744.41 0.716367 -3.35743 0
M  V30 18542 C 1743.5 -0.1051 -4.2397 0
M  V30 18543 N 1743.89 -1.15697 -4.9239 0
M  V30 18544 C 1742.19 0.116908 -4.45847 0
M  V30 18545 C 1742.89 -1.65661 -5.57612 0
M  V30 18546 N 1741.87 -0.966703 -5.34935 0
M  V30 18547 H 1745.67 -0.957322 -2.77871 0
M  V30 18548 H 1743.18 -0.623106 -1.4997 0
M  V30 18549 H 1745.18 1.185 -3.99704 0
M  V30 18550 H 1743.84 1.52014 -2.86918 0
M  V30 18551 H 1744.85 -1.53933 -4.94495 0
M  V30 18552 H 1741.53 0.891605 -4.07868 0
M  V30 18553 H 1742.92 -2.53449 -6.22265 0
M  V30 18554 N 1745.64 1.48215 -0.535727 0
M  V30 18555 C 1746.88 2.021 -0.00372016 0
M  V30 18556 C 1747.21 1.41456 1.34221 0
M  V30 18557 O 1746.48 0.581987 1.87055 0
M  V30 18558 H 1745.06 0.746998 0.00161295 0
M  V30 18559 H 1747.72 1.81862 -0.700863 0
M  V30 18560 H 1746.81 3.11939 0.100352 0
M  V30 18561 N 1747.11 0.27113 1.5525 0
M  V30 18562 C 1748.34 -0.350248 2.03914 0
M  V30 18563 C 1748.76 -1.49763 1.14963 0
M  V30 18564 O 1748.11 -1.81717 0.168923 0
M  V30 18565 C 1748.17 -0.835056 3.51723 0
M  V30 18566 O 1747.89 0.266625 4.37288 0
M  V30 18567 C 1749.39 -1.52466 4.16256 0
M  V30 18568 H 1746.61 -0.0803955 0.666166 0
M  V30 18569 H 1749.15 0.402063 2.00509 0
M  V30 18570 H 1747.31 -1.53747 3.55585 0
M  V30 18571 H 1747.72 -0.105433 5.24394 0
M  V30 18572 H 1749.19 -1.81534 5.21296 0
M  V30 18573 H 1749.67 -2.45485 3.64189 0
M  V30 18574 H 1750.28 -0.8662 4.16386 0
M  V30 18575 N 1748.59 -1.576 -0.00164943 0
M  V30 18576 C 1749.84 -1.9012 -0.685486 0
M  V30 18577 C 1750.16 -0.872245 -1.74404 0
M  V30 18578 O 1749.43 0.090572 -1.95691 0
M  V30 18579 H 1748.01 -0.701699 -0.256177 0
M  V30 18580 H 1750.67 -1.94861 0.0388866 0
M  V30 18581 H 1749.77 -2.89831 -1.15778 0
M  V30 18582 N 1750.07 0.274379 -1.55193 0
M  V30 18583 C 1751.35 1.02736 -1.66447 0
M  V30 18584 C 1751.73 2.04337 -0.530051 0
M  V30 18585 O 1751.08 2.23613 0.470058 0
M  V30 18586 C 1751.29 1.6854 -3.05606 0
M  V30 18587 C 1752.63 2.19754 -3.63309 0
M  V30 18588 O 1753.66 1.78529 -3.0823 0
M  V30 18589 O 1752.52 2.95364 -4.59807 0
M  V30 18590 H 1749.61 0.476462 -0.675953 0
M  V30 18591 H 1752.16 0.270347 -1.67533 0
M  V30 18592 H 1750.93 0.949086 -3.79616 0
M  V30 18593 H 1750.55 2.50931 -3.08414 0
M  V30 18594 N 1751.55 1.48103 0.538828 0
M  V30 18595 C 1752.5 1.61966 1.64425 0
M  V30 18596 C 1753.47 0.461999 1.59546 0
M  V30 18597 O 1754.65 0.684377 1.78104 0
M  V30 18598 C 1751.79 1.65711 3.02711 0
M  V30 18599 C 1750.9 2.92522 3.17891 0
M  V30 18600 C 1750.04 2.87485 4.46683 0
M  V30 18601 C 1749.08 4.0904 4.5536 0
M  V30 18602 N 1748.21 4.02131 5.7553 0
M  V30 18603 H 1753.05 2.5637 1.51916 0
M  V30 18604 H 1750.59 1.27146 0.739745 0
M  V30 18605 H 1752.55 1.65864 3.82812 0
M  V30 18606 H 1751.18 0.748045 3.14013 0
M  V30 18607 H 1750.23 3.02154 2.311 0
M  V30 18608 H 1751.54 3.82487 3.20165 0
M  V30 18609 H 1750.7 2.8599 5.35065 0
M  V30 18610 H 1749.44 1.95234 4.46917 0
M  V30 18611 H 1748.44 4.10819 3.65387 0
M  V30 18612 H 1749.67 5.02439 4.56872 0
M  V30 18613 H 1747.61 3.12695 5.76678 0
M  V30 18614 H 1747.53 4.85791 5.7926 0
M  V30 18615 H 1748.8 4.04682 6.66223 0
M  V30 18616 N 1753.03 -0.787016 1.36542 0
M  V30 18617 C 1753.98 -1.88956 1.27592 0
M  V30 18618 C 1754.96 -1.60032 0.166904 0
M  V30 18619 O 1756.15 -1.72423 0.399932 0
M  V30 18620 C 1753.28 -3.26204 1.06986 0
M  V30 18621 C 1752.37 -3.6113 2.22365 0
M  V30 18622 N 1752.76 -3.67346 3.47693 0
M  V30 18623 C 1751.06 -3.91205 2.14183 0
M  V30 18624 C 1751.76 -3.98581 4.23684 0
M  V30 18625 N 1750.73 -4.13688 3.52651 0
M  V30 18626 H 1754.54 -1.91992 2.22522 0
M  V30 18627 H 1752.05 -0.982664 1.29296 0
M  V30 18628 H 1754.05 -4.05058 0.986603 0
M  V30 18629 H 1752.71 -3.24441 0.129582 0
M  V30 18630 H 1753.72 -3.49931 3.81797 0
M  V30 18631 H 1750.39 -3.97354 1.28125 0
M  V30 18632 H 1751.78 -4.10294 5.32079 0
M  V30 18633 N 1754.5 -1.20861 -1.01145 0
M  V30 18634 C 1755.75 -1.0199 -1.74478 0
M  V30 18635 C 1756.07 0.4484 -1.89775 0
M  V30 18636 O 1755.34 1.32386 -1.44398 0
M  V30 18637 H 1753.92 -0.37439 -0.646406 0
M  V30 18638 H 1756.59 -1.5206 -1.21917 0
M  V30 18639 H 1755.68 -1.48251 -2.74642 0
M  V30 18640 N 1755.98 1.20536 -1.01532 0
M  V30 18641 C 1757.23 1.90152 -0.704973 0
M  V30 18642 C 1757.56 1.78569 0.763343 0
M  V30 18643 O 1756.84 1.16906 1.55445 0
M  V30 18644 C 1757.12 3.41589 -1.1397 0
M  V30 18645 C 1756.97 3.62113 -2.66823 0
M  V30 18646 C 1758.29 4.34335 -0.709984 0
M  V30 18647 H 1755.41 0.690524 -0.257577 0
M  V30 18648 H 1758.05 1.41959 -1.26284 0
M  V30 18649 H 1756.2 3.82765 -0.66505 0
M  V30 18650 H 1757.87 3.30197 -3.2213 0
M  V30 18651 H 1756.12 3.05626 -3.07855 0
M  V30 18652 H 1756.79 4.68261 -2.92294 0
M  V30 18653 H 1759.26 4.00799 -1.11801 0
M  V30 18654 H 1758.14 5.38915 -1.04221 0
M  V30 18655 H 1758.4 4.40391 0.388408 0
M  V30 18656 N 1757.46 0.791395 1.36289 0
M  V30 18657 C 1758.71 0.365242 1.99484 0
M  V30 18658 C 1759.04 -1.06087 1.62663 0
M  V30 18659 O 1758.31 -1.73332 0.882396 0
M  V30 18660 C 1758.6 0.531317 3.56159 0
M  V30 18661 C 1758.45 2.00126 4.02827 0
M  V30 18662 C 1759.77 -0.0524248 4.40069 0
M  V30 18663 H 1756.89 0.134183 0.724682 0
M  V30 18664 H 1759.53 0.998102 1.61672 0
M  V30 18665 H 1757.68 -0.0074293 3.88499 0
M  V30 18666 H 1759.35 2.60122 3.80965 0
M  V30 18667 H 1757.6 2.50316 3.54294 0
M  V30 18668 H 1758.27 2.06842 5.11782 0
M  V30 18669 H 1760.74 0.407489 4.141 0
M  V30 18670 H 1759.62 0.0937898 5.4882 0
M  V30 18671 H 1759.88 -1.14472 4.27023 0
M  V30 18672 N 1758.94 -1.47929 0.54358 0
M  V30 18673 C 1760.16 -2.07393 0.0168905 0
M  V30 18674 C 1760.59 -1.39557 -1.26117 0
M  V30 18675 O 1759.95 -0.465983 -1.75209 0
M  V30 18676 C 1760 -3.6017 -0.176105 0
M  V30 18677 O 1759.1 -3.9326 -1.24178 0
M  V30 18678 H 1758.44 -0.662459 0.0452126 0
M  V30 18679 H 1760.97 -1.90145 0.755376 0
M  V30 18680 H 1760.98 -4.06088 -0.394555 0
M  V30 18681 H 1759.66 -4.08944 0.757445 0
M  V30 18682 H 1758.23 -3.59105 -1.0049 0
M  V30 18683 N 1760.42 -0.27936 -1.55104 0
M  V30 18684 C 1761.67 0.335541 -1.99295 0
M  V30 18685 C 1761.99 1.56059 -1.16921 0
M  V30 18686 O 1761.26 1.9417 -0.259773 0
M  V30 18687 H 1759.84 0.126968 -0.736131 0
M  V30 18688 H 1762.5 -0.385679 -1.91046 0
M  V30 18689 H 1761.59 0.622493 -3.05829 0
M  V30 18690 N 1761.9 1.57599 -0.0067085 0
M  V30 18691 C 1763.14 1.9114 0.677733 0
M  V30 18692 C 1763.47 0.881328 1.7305 0
M  V30 18693 O 1762.75 -0.099049 1.94248 0
M  V30 18694 C 1763.03 3.35241 1.31474 0
M  V30 18695 C 1762.89 4.4897 0.273055 0
M  V30 18696 C 1764.2 3.78886 2.23905 0
M  V30 18697 H 1761.32 0.695119 0.244907 0
M  V30 18698 H 1763.97 1.89907 -0.059378 0
M  V30 18699 H 1762.12 3.36423 1.94299 0
M  V30 18700 H 1763.79 4.59924 -0.356031 0
M  V30 18701 H 1762.03 4.31915 -0.403961 0
M  V30 18702 H 1762.7 5.46772 0.757941 0
M  V30 18703 H 1765.18 3.79299 1.7109 0
M  V30 18704 H 1764.05 4.80451 2.65439 0
M  V30 18705 H 1764.31 3.13129 3.12094 0
M  V30 18706 N 1763.37 -0.266145 1.55336 0
M  V30 18707 C 1764.78 -0.836683 1.66903 0
M  V30 18708 C 1765.14 -1.86781 0.600597 0
M  V30 18709 O 1764.26 -2.14872 -0.256674 0
M  V30 18710 C 1764.86 -1.52436 3.0257 0
M  V30 18711 C 1763.41 -2.04284 3.1614 0
M  V30 18712 C 1762.56 -0.887248 2.62723 0
M  V30 18713 H 1765.51 -0.0423472 1.58643 0
M  V30 18714 H 1765.53 -2.39163 2.95941 0
M  V30 18715 H 1765.05 -0.773649 3.80311 0
M  V30 18716 H 1763.15 -2.82296 2.43187 0
M  V30 18717 H 1763.26 -2.25345 4.22796 0
M  V30 18718 H 1761.62 -1.28251 2.20054 0
M  V30 18719 H 1762.41 -0.14993 3.42972 0
M  V30 18720 N 1764.85 -1.48386 -0.530967 0
M  V30 18721 C 1765.81 -1.62355 -1.61782 0
M  V30 18722 C 1766.81 -0.496909 -1.5293 0
M  V30 18723 O 1768 -0.762672 -1.56617 0
M  V30 18724 C 1765.14 -1.59282 -3.014 0
M  V30 18725 H 1766.33 -2.59265 -1.50737 0
M  V30 18726 H 1763.88 -1.36969 -0.752948 0
M  V30 18727 H 1764.62 -0.638453 -3.17953 0
M  V30 18728 H 1764.4 -2.41073 -3.09235 0
M  V30 18729 H 1765.89 -1.72248 -3.80421 0
M  V30 18730 N 1766.33 0.779763 -1.36958 0
M  V30 18731 C 1767.74 1.35555 -1.28381 0
M  V30 18732 C 1768.09 1.96067 0.0721422 0
M  V30 18733 O 1767.22 1.9325 0.973824 0
M  V30 18734 C 1767.81 2.46454 -2.32477 0
M  V30 18735 C 1766.37 2.99823 -2.27559 0
M  V30 18736 C 1765.52 1.72975 -2.16737 0
M  V30 18737 H 1768.47 0.580646 -1.47696 0
M  V30 18738 H 1768.49 3.25726 -1.96679 0
M  V30 18739 H 1768 2.02383 -3.31154 0
M  V30 18740 H 1766.1 3.4829 -1.3238 0
M  V30 18741 H 1766.22 3.55982 -3.20646 0
M  V30 18742 H 1764.58 1.95587 -1.6315 0
M  V30 18743 H 1765.36 1.31018 -3.17315 0
M  V30 18744 N 1767.81 1.21396 1.00503 0
M  V30 18745 C 1769.05 1.04275 1.74638 0
M  V30 18746 C 1769.41 -0.419351 1.87774 0
M  V30 18747 O 1768.7 -1.30703 1.40097 0
M  V30 18748 C 1768.9 1.67343 3.15802 0
M  V30 18749 C 1768.72 3.19534 3.1643 0
M  V30 18750 C 1767.49 3.88577 3.23011 0
M  V30 18751 C 1769.69 4.16621 3.01548 0
M  V30 18752 N 1767.67 5.27957 3.13265 0
M  V30 18753 C 1769.05 5.42753 2.99699 0
M  V30 18754 C 1771.1 4.07669 2.8585 0
M  V30 18755 C 1769.8 6.60963 2.8376 0
M  V30 18756 C 1771.83 5.25517 2.71268 0
M  V30 18757 C 1771.19 6.5056 2.70095 0
M  V30 18758 H 1767.29 0.435905 0.649239 0
M  V30 18759 H 1769.87 1.5375 1.19454 0
M  V30 18760 H 1768.05 1.20435 3.69256 0
M  V30 18761 H 1769.78 1.43428 3.78432 0
M  V30 18762 H 1766.53 3.39502 3.30205 0
M  V30 18763 H 1766.96 6.00958 3.11734 0
M  V30 18764 H 1771.6 3.11791 2.85563 0
M  V30 18765 H 1769.32 7.57002 2.82795 0
M  V30 18766 H 1772.9 5.20411 2.60121 0
M  V30 18767 H 1771.78 7.40214 2.58945 0
M  V30 18768 N 1769.29 -1.19996 1.0217 0
M  V30 18769 C 1770.2 -2.26634 0.606136 0
M  V30 18770 C 1771.21 -1.70262 -0.358746 0
M  V30 18771 O 1772.39 -2.00212 -0.218422 0
M  V30 18772 C 1769.45 -3.46672 -0.0439096 0
M  V30 18773 C 1768.51 -4.18254 0.967563 0
M  V30 18774 C 1767.75 -5.32561 0.348443 0
M  V30 18775 O 1767.97 -5.64024 -0.850508 0
M  V30 18776 O 1766.9 -5.92354 1.06772 0
M  V30 18777 H 1770.73 -2.64407 1.49407 0
M  V30 18778 H 1768.31 -1.26712 0.791483 0
M  V30 18779 H 1770.2 -4.19433 -0.406714 0
M  V30 18780 H 1768.87 -3.10764 -0.90596 0
M  V30 18781 H 1767.78 -3.47644 1.38183 0
M  V30 18782 H 1769.11 -4.58116 1.79975 0
M  V30 18783 N 1770.76 -0.798611 -1.35867 0
M  V30 18784 C 1771.71 -0.201442 -2.29919 0
M  V30 18785 C 1772.68 0.659971 -1.52426 0
M  V30 18786 O 1773.87 0.606726 -1.80896 0
M  V30 18787 C 1771.01 0.650427 -3.38915 0
M  V30 18788 C 1770.12 -0.230539 -4.31384 0
M  V30 18789 C 1769.25 0.628575 -5.27468 0
M  V30 18790 C 1768.29 -0.253282 -6.11576 0
M  V30 18791 N 1767.43 0.565343 -6.9982 0
M  V30 18792 H 1772.27 -1.00892 -2.80401 0
M  V30 18793 H 1769.81 -0.509085 -1.3801 0
M  V30 18794 H 1771.76 1.15941 -4.00766 0
M  V30 18795 H 1770.39 1.42325 -2.8973 0
M  V30 18796 H 1769.45 -0.85756 -3.70608 0
M  V30 18797 H 1770.76 -0.909635 -4.90436 0
M  V30 18798 H 1769.91 1.203 -5.94653 0
M  V30 18799 H 1768.65 1.34127 -4.68894 0
M  V30 18800 H 1767.66 -0.84004 -5.43345 0
M  V30 18801 H 1768.88 -0.963713 -6.72227 0
M  V30 18802 H 1766.83 1.26216 -6.43743 0
M  V30 18803 H 1766.74 -0.0558752 -7.55979 0
M  V30 18804 H 1768.01 1.1233 -7.71364 0
M  V30 18805 N 1772.24 1.47639 -0.551417 0
M  V30 18806 C 1773.19 2.31626 0.212654 0
M  V30 18807 C 1774.18 1.42567 0.914925 0
M  V30 18808 O 1775.39 1.59363 0.836869 0
M  V30 18809 H 1771.76 0.746898 0.0874493 0
M  V30 18810 H 1773.74 2.93923 -0.514976 0
M  V30 18811 C 1772.48 3.25098 1.23316 0
M  V30 18812 H 1771.81 3.93585 0.702196 0
M  V30 18813 H 1773.25 3.86707 1.73878 0
M  V30 18814 C 1771.71 2.48209 2.27802 0
M  V30 18815 O 1772.24 2.22235 3.34626 0
M  V30 18816 N 1770.44 2.09321 2.01577 0
M  V30 18817 H 1769.99 2.30645 1.14719 0
M  V30 18818 H 1769.95 1.58191 2.71704 0
M  V30 18819 N 1773.72 0.287581 1.54954 0
M  V30 18820 C 1774.65 -0.587855 2.25979 0
M  V30 18821 C 1775.63 -1.14884 1.25442 0
M  V30 18822 O 1776.82 -1.18067 1.54188 0
M  V30 18823 C 1773.95 -1.76618 2.99037 0
M  V30 18824 C 1772.9 -1.33617 4.06609 0
M  V30 18825 C 1772.23 -2.59859 4.67309 0
M  V30 18826 C 1773.53 -0.477219 5.20115 0
M  V30 18827 H 1775.22 0.00450183 2.994 0
M  V30 18828 H 1772.77 0.00360521 1.44 0
M  V30 18829 H 1774.72 -2.38461 3.4744 0
M  V30 18830 H 1773.44 -2.38457 2.23172 0
M  V30 18831 H 1772.1 -0.74088 3.59036 0
M  V30 18832 H 1771.75 -3.19983 3.88098 0
M  V30 18833 H 1771.45 -2.31793 5.3995 0
M  V30 18834 H 1772.97 -3.22528 5.18467 0
M  V30 18835 H 1774.39 -1.00096 5.64494 0
M  V30 18836 H 1772.79 -0.290913 5.99394 0
M  V30 18837 H 1773.86 0.500993 4.82305 0
M  V30 18838 N 1775.2 -1.57593 0.0150662 0
M  V30 18839 C 1776.43 -1.95504 -0.677174 0
M  V30 18840 C 1776.84 -0.8908 -1.66464 0
M  V30 18841 O 1776.2 0.128818 -1.82045 0
M  V30 18842 C 1776.25 -3.33463 -1.39589 0
M  V30 18843 O 1775.97 -4.35803 -0.448005 0
M  V30 18844 C 1777.47 -3.85923 -2.18125 0
M  V30 18845 H 1774.69 -0.644226 -0.187652 0
M  V30 18846 H 1777.24 -2.04378 0.070661 0
M  V30 18847 H 1775.39 -3.25851 -2.09523 0
M  V30 18848 H 1775.8 -5.157 -0.956756 0
M  V30 18849 H 1777.28 -4.84838 -2.63887 0
M  V30 18850 H 1777.76 -3.19423 -3.01439 0
M  V30 18851 H 1778.36 -3.96758 -1.53176 0
M  V30 18852 N 1776.68 0.257904 -1.55475 0
M  V30 18853 C 1777.62 1.33893 -1.90198 0
M  V30 18854 C 1778.62 1.50381 -0.779868 0
M  V30 18855 O 1779.82 1.51986 -0.964376 0
M  V30 18856 H 1776.2 0.448115 -0.603901 0
M  V30 18857 H 1778.17 1.01868 -2.80474 0
M  V30 18858 C 1776.92 2.68954 -2.20361 0
M  V30 18859 H 1776.24 2.57064 -3.062 0
M  V30 18860 H 1777.68 3.43498 -2.48567 0
M  V30 18861 C 1776.14 3.21208 -1.01623 0
M  V30 18862 O 1776.67 4.00867 -0.258567 0
M  V30 18863 N 1774.88 2.79088 -0.809825 0
M  V30 18864 H 1774.42 2.1442 -1.42764 0
M  V30 18865 H 1774.38 3.14395 -0.0170171 0
M  V30 18866 N 1778.15 1.48666 0.52309 0
M  V30 18867 C 1779.4 1.57267 1.28043 0
M  V30 18868 C 1779.73 0.248801 1.926 0
M  V30 18869 O 1779.01 -0.745814 1.79633 0
M  V30 18870 C 1779.29 2.71595 2.36449 0
M  V30 18871 C 1779.14 4.13708 1.76538 0
M  V30 18872 C 1780.46 2.81654 3.3817 0
M  V30 18873 H 1777.58 0.572455 0.464181 0
M  V30 18874 H 1780.22 1.80866 0.582013 0
M  V30 18875 H 1778.37 2.51604 2.9602 0
M  V30 18876 H 1780.05 4.45158 1.20964 0
M  V30 18877 H 1778.29 4.20386 1.07041 0
M  V30 18878 H 1778.96 4.89538 2.55062 0
M  V30 18879 H 1781.44 2.99784 2.88563 0
M  V30 18880 H 1780.31 3.63366 4.11408 0
M  V30 18881 H 1780.57 1.90093 3.99145 0
M  V30 18882 N 1779.63 -0.772489 1.37369 0
M  V30 18883 C 1780.54 -1.91679 1.35263 0
M  V30 18884 C 1781.56 -1.72161 0.252321 0
M  V30 18885 O 1782.73 -1.95409 0.487581 0
M  V30 18886 C 1779.8 -3.26792 1.15792 0
M  V30 18887 C 1778.86 -3.5897 2.35455 0
M  V30 18888 C 1778.09 -4.87636 2.16903 0
M  V30 18889 O 1778.32 -5.58627 1.15291 0
M  V30 18890 O 1777.25 -5.18859 3.05072 0
M  V30 18891 H 1781.08 -1.96408 2.31641 0
M  V30 18892 H 1778.66 -0.915136 1.18092 0
M  V30 18893 H 1780.54 -4.07611 1.06918 0
M  V30 18894 H 1779.22 -3.22918 0.224872 0
M  V30 18895 H 1778.13 -2.78389 2.49901 0
M  V30 18896 H 1779.46 -3.67586 3.27325 0
M  V30 18897 N 1781.11 -1.21927 -0.998575 0
M  V30 18898 C 1782.36 -1.05199 -1.74082 0
M  V30 18899 C 1782.71 0.409387 -1.87994 0
M  V30 18900 O 1782 1.29958 -1.40788 0
M  V30 18901 C 1782.2 -1.69015 -3.1491 0
M  V30 18902 C 1782.03 -3.21208 -3.14731 0
M  V30 18903 C 1780.8 -3.90284 -3.20946 0
M  V30 18904 C 1783 -4.18214 -2.99335 0
M  V30 18905 N 1780.98 -5.29611 -3.10461 0
M  V30 18906 C 1782.35 -5.44334 -2.96816 0
M  V30 18907 C 1784.4 -4.09179 -2.83684 0
M  V30 18908 C 1783.11 -6.62459 -2.80251 0
M  V30 18909 C 1785.13 -5.26948 -2.68477 0
M  V30 18910 C 1784.49 -6.51983 -2.66641 0
M  V30 18911 H 1780.59 -0.439342 -0.646918 0
M  V30 18912 H 1783.18 -1.54381 -1.18636 0
M  V30 18913 H 1781.35 -1.22392 -3.68612 0
M  V30 18914 H 1783.08 -1.45433 -3.77666 0
M  V30 18915 H 1779.84 -3.41248 -3.284 0
M  V30 18916 H 1780.26 -6.02603 -3.08543 0
M  V30 18917 H 1784.9 -3.13301 -2.83905 0
M  V30 18918 H 1782.62 -7.58492 -2.78776 0
M  V30 18919 H 1786.21 -5.21784 -2.57358 0
M  V30 18920 H 1785.09 -7.41577 -2.55016 0
M  V30 18921 N 1782.59 1.19452 -1.02805 0
M  V30 18922 C 1783.5 2.2631 -0.618147 0
M  V30 18923 C 1784.51 1.70449 0.349712 0
M  V30 18924 O 1785.69 2.00325 0.207801 0
M  V30 18925 C 1782.76 3.46691 0.0255242 0
M  V30 18926 C 1781.82 4.17735 -0.98973 0
M  V30 18927 C 1781.05 5.32369 -0.376681 0
M  V30 18928 O 1781.27 5.64467 0.820584 0
M  V30 18929 O 1780.21 5.9178 -1.09911 0
M  V30 18930 H 1784.03 2.63611 -1.50807 0
M  V30 18931 H 1781.62 1.2629 -0.798192 0
M  V30 18932 H 1783.5 4.19643 0.384464 0
M  V30 18933 H 1782.17 3.1124 0.889467 0
M  V30 18934 H 1781.08 3.46906 -1.40024 0
M  V30 18935 H 1782.41 4.57155 -1.82402 0
M  V30 18936 N 1784.07 0.805805 1.35442 0
M  V30 18937 C 1785.34 0.309105 1.93142 0
M  V30 18938 C 1785.72 -1.20119 1.73593 0
M  V30 18939 O 1785.07 -2.00034 1.10448 0
M  V30 18940 C 1785.28 0.719653 3.415 0
M  V30 18941 C 1786.63 0.708697 4.18644 0
M  V30 18942 O 1787.65 0.661148 3.5001 0
M  V30 18943 O 1786.51 0.76636 5.411 0
M  V30 18944 H 1783.61 0.0806647 0.823057 0
M  V30 18945 H 1786.15 0.88945 1.44523 0
M  V30 18946 H 1784.92 1.7606 3.49455 0
M  V30 18947 H 1784.55 0.114073 3.97436 0
M  V30 18948 N 1785.54 -1.47344 0.559239 0
M  V30 18949 C 1786.96 -1.58088 0.219155 0
M  V30 18950 C 1787.16 -1.55758 -1.27834 0
M  V30 18951 O 1786.22 -1.46207 -2.05864 0
M  V30 18952 C 1787.53 -2.88507 0.847606 0
M  V30 18953 C 1789.08 -3.02094 0.819022 0
M  V30 18954 C 1789.55 -4.35216 1.42658 0
M  V30 18955 N 1791.04 -4.41857 1.38986 0
M  V30 18956 C 1791.78 -5.43429 1.82956 0
M  V30 18957 N 1791.27 -6.51801 2.34792 0
M  V30 18958 N 1793.07 -5.34486 1.74015 0
M  V30 18959 H 1785.22 -1.47102 1.53215 0
M  V30 18960 H 1787.48 -0.700228 0.63905 0
M  V30 18961 H 1787.19 -2.95954 1.90011 0
M  V30 18962 H 1787.06 -3.75648 0.341841 0
M  V30 18963 H 1789.45 -2.94243 -0.224794 0
M  V30 18964 H 1789.53 -2.1649 1.36257 0
M  V30 18965 H 1789.17 -4.43824 2.46947 0
M  V30 18966 H 1789.1 -5.19556 0.858462 0
M  V30 18967 H 1791.59 -3.64133 1.01071 0
M  V30 18968 H 1791.91 -7.25482 2.66262 0
M  V30 18969 H 1790.25 -6.52685 2.38804 0
M  V30 18970 H 1793.44 -4.48721 1.33294 0
M  V30 18971 H 1793.62 -6.13506 2.086 0
M  V30 18972 N 1787.02 -0.295795 -1.54799 0
M  V30 18973 C 1788.25 0.32058 -2.04907 0
M  V30 18974 C 1788.67 1.47132 -1.17191 0
M  V30 18975 O 1788.03 1.80455 -0.174869 0
M  V30 18976 C 1788.08 0.759439 -3.52512 0
M  V30 18977 O 1787.18 1.86474 -3.67833 0
M  V30 18978 H 1786.52 0.0631128 -0.660994 0
M  V30 18979 H 1789.05 -0.436123 -1.99898 0
M  V30 18980 H 1789.06 1.04965 -3.94267 0
M  V30 18981 H 1787.74 -0.0823715 -4.15818 0
M  V30 18982 H 1786.32 1.57547 -3.37984 0
M  V30 18983 N 1788.5 1.57583 -0.0234236 0
M  V30 18984 C 1789.75 1.91186 0.655152 0
M  V30 18985 C 1790.07 0.89988 1.72995 0
M  V30 18986 O 1789.34 -0.0594278 1.9581 0
M  V30 18987 H 1787.92 0.705686 0.244982 0
M  V30 18988 H 1790.58 1.94775 -0.0698824 0
M  V30 18989 H 1789.68 2.91636 1.11152 0
M  V30 18990 N 1789.98 -0.249655 1.5561 0
M  V30 18991 C 1791.23 -0.976148 1.76963 0
M  V30 18992 C 1791.55 -1.85958 0.586903 0
M  V30 18993 O 1790.82 -1.91827 -0.397415 0
M  V30 18994 H 1789.4 -0.363416 0.652639 0
M  V30 18995 H 1792.06 -0.268264 1.93045 0
M  V30 18996 H 1791.16 -1.59948 2.67998 0
M  V30 18997 N 1791.46 -1.48941 -0.515198 0
M  V30 18998 C 1792.41 -1.65027 -1.63917 0
M  V30 18999 C 1793.4 -0.516402 -1.61337 0
M  V30 19000 O 1794.61 -0.695598 -1.66016 0
M  V30 19001 H 1790.98 -0.520121 -0.543119 0
M  V30 19002 H 1792.95 -2.59397 -1.47498 0
M  V30 19003 C 1791.7 -1.72093 -3.02125 0
M  V30 19004 H 1791.02 -2.5871 -3.0481 0
M  V30 19005 H 1792.46 -1.87387 -3.80345 0
M  V30 19006 C 1790.92 -0.462688 -3.33708 0
M  V30 19007 O 1791.45 0.417925 -3.9952 0
M  V30 19008 N 1789.66 -0.329909 -2.88721 0
M  V30 19009 H 1789.21 -1.0475 -2.35341 0
M  V30 19010 H 1789.16 0.510912 -3.10221 0
M  V30 19011 N 1792.94 0.765193 -1.37777 0
M  V30 19012 C 1794.18 1.52397 -1.33347 0
M  V30 19013 C 1794.51 1.94335 0.0800559 0
M  V30 19014 O 1793.77 1.64847 1.05469 0
M  V30 19015 C 1794.06 2.79732 -2.22452 0
M  V30 19016 C 1793.73 2.56814 -3.70618 0
M  V30 19017 C 1792.39 2.50272 -4.10996 0
M  V30 19018 C 1794.74 2.36494 -4.64457 0
M  V30 19019 C 1792.07 2.2141 -5.43318 0
M  V30 19020 C 1794.42 2.09155 -5.97024 0
M  V30 19021 C 1793.09 2.01062 -6.36499 0
M  V30 19022 H 1792.36 0.55766 -0.487951 0
M  V30 19023 H 1795.01 0.880853 -1.70039 0
M  V30 19024 H 1793.31 3.48635 -1.78777 0
M  V30 19025 H 1795.01 3.37639 -2.16335 0
M  V30 19026 H 1791.6 2.62771 -3.38599 0
M  V30 19027 H 1795.78 2.40534 -4.34117 0
M  V30 19028 H 1791.04 2.13644 -5.72858 0
M  V30 19029 H 1795.21 1.92433 -6.69285 0
M  V30 19030 H 1792.84 1.78462 -7.38956 0
M  V30 19031 N 1794.41 1.22455 0.992094 0
M  V30 19032 C 1795.65 1.06119 1.74694 0
M  V30 19033 C 1796.02 -0.396703 1.87857 0
M  V30 19034 O 1797.22 -0.680936 2.60032 0
M  V30 19035 C 1795.49 1.75374 3.11414 0
M  V30 19036 S 1797.05 1.74461 4.02627 0
M  V30 19037 H 1793.87 0.380011 0.600927 0
M  V30 19038 H 1796.47 1.55408 1.18611 0
M  V30 19039 H 1795.17 2.8061 2.99477 0
M  V30 19040 H 1794.7 1.26319 3.72568 0
M  V30 19041 H 1796.72 0.794871 4.89792 0
M  V30 19042 N 1795.89 -1.18905 1.03437 0
M  V30 19043 C 1797.31 -1.4075 0.752444 0
M  V30 19044 C 1797.51 -1.90361 -0.660679 0
M  V30 19045 O 1796.56 -2.08389 -1.42584 0
M  V30 19046 C 1797.88 -2.4138 1.79321 0
M  V30 19047 C 1799.42 -2.55118 1.81339 0
M  V30 19048 C 1799.9 -3.59007 2.8439 0
M  V30 19049 N 1801.39 -3.66508 2.83242 0
M  V30 19050 C 1802.13 -4.46602 3.59631 0
M  V30 19051 N 1801.62 -5.30355 4.45753 0
M  V30 19052 N 1803.41 -4.41304 3.48148 0
M  V30 19053 H 1795.57 -0.850259 1.94639 0
M  V30 19054 H 1797.83 -0.435962 0.841808 0
M  V30 19055 H 1797.53 -2.11963 2.80651 0
M  V30 19056 H 1797.41 -3.40636 1.62008 0
M  V30 19057 H 1799.8 -2.83856 0.806847 0
M  V30 19058 H 1799.88 -1.55996 2.02728 0
M  V30 19059 H 1799.52 -3.31011 3.8522 0
M  V30 19060 H 1799.45 -4.57792 2.60258 0
M  V30 19061 H 1801.94 -3.06697 2.20784 0
M  V30 19062 H 1802.25 -5.88603 5.00766 0
M  V30 19063 H 1800.6 -5.29797 4.49823 0
M  V30 19064 H 1803.79 -3.74918 2.80275 0
M  V30 19065 H 1803.96 -5.03483 4.07932 0
M  V30 19066 N 1797.37 -0.812977 -1.35013 0
M  V30 19067 C 1798.59 -0.407969 -2.03348 0
M  V30 19068 C 1799.02 0.975148 -1.60849 0
M  V30 19069 O 1798.38 1.63267 -0.788256 0
M  V30 19070 C 1798.43 -0.506754 -3.57022 0
M  V30 19071 O 1797.53 0.477322 -4.09628 0
M  V30 19072 H 1796.87 -0.169416 -0.642023 0
M  V30 19073 H 1799.4 -1.10064 -1.72474 0
M  V30 19074 H 1799.41 -0.378883 -4.06237 0
M  V30 19075 H 1798.09 -1.51557 -3.87302 0
M  V30 19076 H 1796.66 0.309161 -3.71616 0
M  V30 19077 N 1798.85 1.47045 -0.567045 0
M  V30 19078 C 1800.09 2.04341 -0.0491613 0
M  V30 19079 C 1800.45 1.4308 1.28031 0
M  V30 19080 O 1801.65 1.91481 1.88649 0
M  V30 19081 C 1799.92 3.57386 0.0319732 0
M  V30 19082 S 1801.48 4.36004 0.494555 0
M  V30 19083 H 1798.3 0.710371 -0.0298915 0
M  V30 19084 H 1800.9 1.80291 -0.756004 0
M  V30 19085 H 1799.61 3.99494 -0.93983 0
M  V30 19086 H 1799.14 3.85948 0.76207 0
M  V30 19087 H 1801.15 4.64226 1.75238 0
M  V30 19088 N 1800.33 0.304 1.5464 0
M  V30 19089 C 1801.74 -0.188042 1.85751 0
M  V30 19090 C 1802.09 -1.53186 1.22591 0
M  V30 19091 O 1801.21 -2.09943 0.524696 0
M  V30 19092 C 1801.81 -0.347976 3.37008 0
M  V30 19093 C 1800.37 -0.784238 3.68139 0
M  V30 19094 C 1799.51 0.105654 2.77099 0
M  V30 19095 H 1802.46 0.524918 1.49767 0
M  V30 19096 H 1802.49 -1.18207 3.61673 0
M  V30 19097 H 1802 0.630227 3.82949 0
M  V30 19098 H 1800.1 -1.77288 3.27719 0
M  V30 19099 H 1800.21 -0.601546 4.75309 0
M  V30 19100 H 1798.58 -0.415561 2.51287 0
M  V30 19101 H 1799.36 1.08027 3.25861 0
M  V30 19102 N 1801.8 -1.57568 0.0317802 0
M  V30 19103 C 1803.03 -1.9662 -0.659953 0
M  V30 19104 C 1803.45 -0.908334 -1.64715 0
M  V30 19105 O 1802.81 0.130491 -1.8083 0
M  V30 19106 C 1802.86 -3.34765 -1.34033 0
M  V30 19107 O 1801.96 -3.31317 -2.45566 0
M  V30 19108 H 1801.3 -0.641024 -0.17316 0
M  V30 19109 H 1803.83 -2.04382 0.0944231 0
M  V30 19110 H 1803.84 -3.71056 -1.69651 0
M  V30 19111 H 1802.52 -4.11302 -0.616716 0
M  V30 19112 H 1801.1 -3.06746 -2.1204 0
M  V30 19113 N 1803.28 0.241399 -1.5574 0
M  V30 19114 C 1804.23 1.29896 -1.90777 0
M  V30 19115 C 1805.2 1.47558 -0.76262 0
M  V30 19116 O 1806.38 1.61451 -1.01677 0
M  V30 19117 C 1803.52 2.6483 -2.21267 0
M  V30 19118 C 1802.64 2.5513 -3.48615 0
M  V30 19119 C 1801.77 3.82455 -3.68649 0
M  V30 19120 C 1800.81 3.67395 -4.89579 0
M  V30 19121 N 1799.95 4.86624 -5.06105 0
M  V30 19122 H 1804.79 0.993166 -2.80963 0
M  V30 19123 H 1802.33 0.47914 -1.39078 0
M  V30 19124 H 1804.28 3.4338 -2.36951 0
M  V30 19125 H 1802.91 2.93546 -1.34278 0
M  V30 19126 H 1801.97 1.6812 -3.41233 0
M  V30 19127 H 1803.28 2.39915 -4.37312 0
M  V30 19128 H 1802.43 4.69449 -3.84321 0
M  V30 19129 H 1801.17 4.00573 -2.78195 0
M  V30 19130 H 1800.18 2.78785 -4.73877 0
M  V30 19131 H 1801.4 3.50766 -5.81498 0
M  V30 19132 H 1799.35 5.05093 -4.18589 0
M  V30 19133 H 1799.26 4.7406 -5.889 0
M  V30 19134 H 1800.53 5.751 -5.26194 0
M  V30 19135 N 1804.76 1.49212 0.507292 0
M  V30 19136 C 1805.69 1.68326 1.61829 0
M  V30 19137 C 1806.67 0.531969 1.61568 0
M  V30 19138 O 1807.86 0.767104 1.78407 0
M  V30 19139 C 1804.99 1.74394 3.0034 0
M  V30 19140 C 1803.94 2.89251 3.15465 0
M  V30 19141 C 1803.27 2.80426 4.55264 0
M  V30 19142 C 1804.57 4.30269 2.96085 0
M  V30 19143 H 1806.26 2.6134 1.46087 0
M  V30 19144 H 1803.81 1.25765 0.701367 0
M  V30 19145 H 1805.76 1.86353 3.77956 0
M  V30 19146 H 1804.48 0.779748 3.17155 0
M  V30 19147 H 1803.14 2.76884 2.40272 0
M  V30 19148 H 1802.79 1.81928 4.68947 0
M  V30 19149 H 1802.49 3.57511 4.66326 0
M  V30 19150 H 1804.01 2.94384 5.34949 0
M  V30 19151 H 1805.43 4.4335 3.63475 0
M  V30 19152 H 1803.83 5.08527 3.18623 0
M  V30 19153 H 1804.9 4.45151 1.92272 0
M  V30 19154 N 1806.24 -0.757876 1.38181 0
M  V30 19155 C 1807.19 -1.86207 1.31571 0
M  V30 19156 C 1808.17 -1.59642 0.200812 0
M  V30 19157 O 1809.36 -1.71535 0.436416 0
M  V30 19158 C 1806.49 -3.23861 1.13881 0
M  V30 19159 C 1805.58 -3.56332 2.29975 0
M  V30 19160 N 1805.97 -3.59889 3.55406 0
M  V30 19161 C 1804.27 -3.86574 2.22433 0
M  V30 19162 C 1804.97 -3.89504 4.32044 0
M  V30 19163 N 1803.95 -4.06115 3.61347 0
M  V30 19164 H 1807.75 -1.87229 2.26545 0
M  V30 19165 H 1805.26 -0.955018 1.31351 0
M  V30 19166 H 1807.26 -4.02874 1.0723 0
M  V30 19167 H 1805.92 -3.24093 0.198371 0
M  V30 19168 H 1806.93 -3.41754 3.89133 0
M  V30 19169 H 1803.61 -3.94547 1.36524 0
M  V30 19170 H 1805 -3.98915 5.40663 0
M  V30 19171 N 1807.72 -1.22979 -0.985586 0
M  V30 19172 C 1808.66 -1.00374 -2.09828 0
M  V30 19173 C 1809.66 0.0555734 -1.69309 0
M  V30 19174 O 1810.86 -0.0974909 -1.79736 0
M  V30 19175 H 1807.24 -0.307451 -0.686278 0
M  V30 19176 H 1809.21 -1.94776 -2.26064 0
M  V30 19177 C 1807.96 -0.606018 -3.42378 0
M  V30 19178 H 1807.28 -1.41284 -3.74004 0
M  V30 19179 H 1808.72 -0.487318 -4.2119 0
M  V30 19180 C 1807.18 0.685197 -3.29859 0
M  V30 19181 O 1807.71 1.73572 -3.62265 0
M  V30 19182 N 1805.92 0.65914 -2.83026 0
M  V30 19183 H 1805.46 -0.196071 -2.56853 0
M  V30 19184 H 1805.42 1.52332 -2.75031 0
M  V30 19185 N 1809.19 1.18355 -1.04066 0
M  V30 19186 C 1810.42 1.91996 -0.762952 0
M  V30 19187 C 1810.83 1.76413 0.683745 0
M  V30 19188 O 1810.18 1.09121 1.47778 0
M  V30 19189 C 1810.24 3.4384 -1.04949 0
M  V30 19190 C 1809.9 3.83201 -2.4901 0
M  V30 19191 C 1810.9 3.86984 -3.47187 0
M  V30 19192 C 1808.58 4.14497 -2.83721 0
M  V30 19193 C 1810.58 4.21513 -4.78127 0
M  V30 19194 C 1808.26 4.48696 -4.14867 0
M  V30 19195 C 1809.26 4.52181 -5.1188 0
M  V30 19196 O 1808.95 4.85582 -6.40676 0
M  V30 19197 H 1808.68 0.616351 -0.277647 0
M  V30 19198 H 1811.24 1.51092 -1.39141 0
M  V30 19199 H 1809.47 3.84984 -0.363904 0
M  V30 19200 H 1811.16 3.98729 -0.759579 0
M  V30 19201 H 1811.92 3.62944 -3.21709 0
M  V30 19202 H 1807.8 4.10962 -2.08881 0
M  V30 19203 H 1811.34 4.24148 -5.53845 0
M  V30 19204 H 1807.24 4.72198 -4.40113 0
M  V30 19205 H 1808.01 5.03485 -6.45326 0
M  V30 19206 N 1810.67 0.820125 1.3458 0
M  V30 19207 C 1811.9 0.418747 2.03129 0
M  V30 19208 C 1812.32 -0.966605 1.61364 0
M  V30 19209 O 1811.68 -1.62847 0.796903 0
M  V30 19210 C 1811.73 0.525681 3.56748 0
M  V30 19211 O 1810.83 -0.455592 4.09876 0
M  V30 19212 H 1810.17 0.172819 0.641116 0
M  V30 19213 H 1812.7 1.10977 1.71888 0
M  V30 19214 H 1812.71 0.400422 4.0603 0
M  V30 19215 H 1811.39 1.53609 3.86493 0
M  V30 19216 H 1809.97 -0.289449 3.71775 0
M  V30 19217 N 1812.15 -1.46743 0.574835 0
M  V30 19218 C 1813.38 -2.06805 0.0627992 0
M  V30 19219 C 1813.79 -1.42482 -1.23872 0
M  V30 19220 O 1813.15 -0.527375 -1.74714 0
M  V30 19221 C 1813.2 -3.61307 -0.117983 0
M  V30 19222 O 1812.92 -4.23222 1.13201 0
M  V30 19223 C 1814.42 -4.3828 -0.665277 0
M  V30 19224 H 1811.64 -0.668835 0.0538616 0
M  V30 19225 H 1814.19 -1.88488 0.793265 0
M  V30 19226 H 1812.34 -3.79078 -0.798641 0
M  V30 19227 H 1812.76 -5.15992 0.940853 0
M  V30 19228 H 1814.23 -5.47004 -0.740985 0
M  V30 19229 H 1814.71 -4.05777 -1.68052 0
M  V30 19230 H 1815.31 -4.25295 -0.0197462 0
M  V30 19231 N 1813.63 -0.312197 -1.54477 0
M  V30 19232 C 1814.86 0.296061 -2.04771 0
M  V30 19233 C 1815.27 1.46662 -1.18894 0
M  V30 19234 O 1814.63 1.81205 -0.217043 0
M  V30 19235 C 1814.68 0.74151 -3.53813 0
M  V30 19236 O 1814.4 -0.382471 -4.36427 0
M  V30 19237 C 1815.9 1.41376 -4.20152 0
M  V30 19238 H 1813.12 0.062705 -0.668064 0
M  V30 19239 H 1815.67 -0.455083 -1.99372 0
M  V30 19240 H 1813.82 1.44265 -3.59536 0
M  V30 19241 H 1814.23 -0.0336382 -5.24489 0
M  V30 19242 H 1815.71 1.67649 -5.25926 0
M  V30 19243 H 1816.19 2.35743 -3.7057 0
M  V30 19244 H 1816.79 0.755498 -4.18536 0
M  V30 19245 N 1815.11 1.57549 -0.040136 0
M  V30 19246 C 1816.35 1.92535 0.637037 0
M  V30 19247 C 1816.69 0.917836 1.71141 0
M  V30 19248 O 1815.96 -0.057824 1.94414 0
M  V30 19249 C 1816.24 3.37955 1.24333 0
M  V30 19250 C 1816.1 4.49449 0.177761 0
M  V30 19251 C 1817.42 3.8355 2.15818 0
M  V30 19252 H 1814.53 0.700157 0.230107 0
M  V30 19253 H 1817.18 1.89739 -0.0996468 0
M  V30 19254 H 1815.33 3.40468 1.87119 0
M  V30 19255 H 1817 4.59065 -0.453507 0
M  V30 19256 H 1815.24 4.30961 -0.495486 0
M  V30 19257 H 1815.91 5.48256 0.641792 0
M  V30 19258 H 1818.39 3.82842 1.63006 0
M  V30 19259 H 1817.26 4.85974 2.55188 0
M  V30 19260 H 1817.53 3.19678 3.05382 0
M  V30 19261 N 1816.58 -0.233136 1.55866 0
M  V30 19262 C 1817.81 -0.976415 1.82411 0
M  V30 19263 C 1818.23 -1.78409 0.617724 0
M  V30 19264 O 1817.58 -1.77749 -0.413709 0
M  V30 19265 C 1817.64 -1.90328 3.07339 0
M  V30 19266 O 1817.36 -1.12828 4.23322 0
M  V30 19267 C 1818.86 -2.76142 3.46786 0
M  V30 19268 H 1816.08 -0.2867 0.606666 0
M  V30 19269 H 1818.62 -0.251863 2.02943 0
M  V30 19270 H 1816.78 -2.58193 2.88816 0
M  V30 19271 H 1817.19 -1.75643 4.94216 0
M  V30 19272 H 1818.66 -3.36901 4.37266 0
M  V30 19273 H 1819.14 -3.47953 2.68003 0
M  V30 19274 H 1819.75 -2.13708 3.67708 0
M  V30 19275 N 1818.06 -1.49479 -0.499372 0
M  V30 19276 C 1819.31 -1.58734 -1.25092 0
M  V30 19277 C 1819.63 -0.276701 -1.93027 0
M  V30 19278 O 1818.9 0.704058 -1.82811 0
M  V30 19279 H 1817.48 -0.584857 -0.464706 0
M  V30 19280 H 1820.14 -1.86113 -0.578608 0
M  V30 19281 H 1819.24 -2.38422 -2.01399 0
M  V30 19282 N 1819.54 0.750537 -1.38581 0
M  V30 19283 C 1820.47 1.87411 -1.31946 0
M  V30 19284 C 1821.49 1.61151 -0.231101 0
M  V30 19285 O 1822.68 1.71674 -0.488893 0
M  V30 19286 C 1819.78 3.23112 -1.02233 0
M  V30 19287 C 1818.95 3.76852 -2.22039 0
M  V30 19288 C 1818.01 4.91077 -1.89023 0
M  V30 19289 O 1817.03 5.0555 -2.61549 0
M  V30 19290 N 1818.24 5.74287 -0.847021 0
M  V30 19291 H 1821 1.93613 -2.28767 0
M  V30 19292 H 1818.56 0.930603 -1.32482 0
M  V30 19293 H 1820.55 3.97074 -0.78193 0
M  V30 19294 H 1819.12 3.12277 -0.141981 0
M  V30 19295 H 1818.34 2.94421 -2.62126 0
M  V30 19296 H 1819.63 4.09489 -3.01987 0
M  V30 19297 H 1819.03 5.65166 -0.245635 0
M  V30 19298 H 1817.59 6.48383 -0.666505 0
M  V30 19299 N 1821.02 1.235 0.979051 0
M  V30 19300 C 1821.97 1.01485 2.09293 0
M  V30 19301 C 1822.96 -0.0465937 1.69336 0
M  V30 19302 O 1824.17 0.107021 1.79682 0
M  V30 19303 H 1820.54 0.311087 0.684638 0
M  V30 19304 H 1822.51 1.95972 2.25028 0
M  V30 19305 C 1821.26 0.624167 3.42052 0
M  V30 19306 H 1820.59 1.43265 3.73249 0
M  V30 19307 H 1822.03 0.509648 4.20926 0
M  V30 19308 C 1820.48 -0.667694 3.30217 0
M  V30 19309 O 1821.01 -1.71648 3.6318 0
M  V30 19310 N 1819.22 -0.644122 2.83372 0
M  V30 19311 H 1818.77 0.20969 2.56745 0
M  V30 19312 H 1818.73 -1.50872 2.75835 0
M  V30 19313 N 1822.5 -1.17802 1.04693 0
M  V30 19314 C 1823.72 -1.92408 0.774194 0
M  V30 19315 C 1824.15 -1.76012 -0.663424 0
M  V30 19316 O 1823.51 -1.07447 -1.4603 0
M  V30 19317 C 1823.55 -3.4166 1.1533 0
M  V30 19318 O 1822.66 -4.11431 0.282469 0
M  V30 19319 H 1822 -0.600033 0.284353 0
M  V30 19320 H 1824.53 -1.49348 1.39844 0
M  V30 19321 H 1824.54 -3.92386 1.11791 0
M  V30 19322 H 1823.21 -3.52914 2.20056 0
M  V30 19323 H 1821.79 -3.70979 0.378021 0
M  V30 19324 N 1823.98 -0.827251 -1.34143 0
M  V30 19325 C 1825.22 -0.41656 -1.9776 0
M  V30 19326 C 1825.54 1.02488 -1.65895 0
M  V30 19327 O 1824.81 1.71219 -0.951891 0
M  V30 19328 H 1823.39 -0.151044 -0.73157 0
M  V30 19329 H 1826.06 -1.05765 -1.63706 0
M  V30 19330 H 1825.15 -0.539101 -3.07409 0
M  V30 19331 N 1825.45 1.46436 -0.582609 0
M  V30 19332 C 1826.87 1.5772 -0.244278 0
M  V30 19333 C 1827.07 1.57772 1.2534 0
M  V30 19334 O 1826.13 1.49463 2.03512 0
M  V30 19335 C 1827.44 2.87122 -0.893398 0
M  V30 19336 C 1828.99 3.00753 -0.866979 0
M  V30 19337 C 1829.46 4.32891 -1.49564 0
M  V30 19338 N 1830.95 4.3959 -1.45998 0
M  V30 19339 C 1831.69 5.40449 -1.91578 0
M  V30 19340 N 1831.18 6.47983 -2.45132 0
M  V30 19341 N 1832.98 5.3165 -1.82496 0
M  V30 19342 H 1825.13 1.44646 -1.55536 0
M  V30 19343 H 1827.39 0.689972 -0.650109 0
M  V30 19344 H 1827.1 2.92894 -1.94695 0
M  V30 19345 H 1826.97 3.75056 -0.40156 0
M  V30 19346 H 1829.36 2.94563 0.177954 0
M  V30 19347 H 1829.44 2.14295 -1.39684 0
M  V30 19348 H 1829.08 4.39839 -2.53977 0
M  V30 19349 H 1829.01 5.18124 -0.94101 0
M  V30 19350 H 1831.5 3.62479 -1.06851 0
M  V30 19351 H 1831.82 7.21154 -2.7777 0
M  V30 19352 H 1830.16 6.48803 -2.49157 0
M  V30 19353 H 1833.35 4.46543 -1.40416 0
M  V30 19354 H 1833.53 6.1011 -2.18334 0
M  V30 19355 N 1826.93 0.320385 1.54309 0
M  V30 19356 C 1827.86 -0.580992 2.21714 0
M  V30 19357 C 1828.88 -1.08236 1.21609 0
M  V30 19358 O 1830.07 -0.996489 1.48096 0
M  V30 19359 C 1827.17 -1.80961 2.86542 0
M  V30 19360 C 1826.34 -1.44746 4.12756 0
M  V30 19361 C 1825.4 -2.53327 4.61207 0
M  V30 19362 O 1824.42 -2.17605 5.25963 0
M  V30 19363 N 1825.63 -3.84204 4.35164 0
M  V30 19364 H 1828.39 -0.00384608 2.997 0
M  V30 19365 H 1825.95 0.143444 1.61263 0
M  V30 19366 H 1827.94 -2.52985 3.1588 0
M  V30 19367 H 1826.51 -2.29468 2.12281 0
M  V30 19368 H 1825.73 -0.55899 3.90217 0
M  V30 19369 H 1827.02 -1.18116 4.949 0
M  V30 19370 H 1826.42 -4.16026 3.83326 0
M  V30 19371 H 1824.98 -4.52468 4.69165 0
M  V30 19372 N 1828.41 -1.57525 0.0484906 0
M  V30 19373 C 1829.37 -2.10275 -0.911987 0
M  V30 19374 C 1830.37 -1.02178 -1.24163 0
M  V30 19375 O 1831.56 -1.28262 -1.17875 0
M  V30 19376 C 1828.69 -2.58475 -2.22269 0
M  V30 19377 H 1829.89 -2.96432 -0.454768 0
M  V30 19378 H 1827.44 -1.55017 -0.19987 0
M  V30 19379 H 1828.18 -1.75704 -2.72578 0
M  V30 19380 H 1827.96 -3.37466 -1.99648 0
M  V30 19381 H 1829.45 -2.99443 -2.91074 0
M  V30 19382 N 1829.89 0.224867 -1.55988 0
M  V30 19383 C 1831.13 0.956853 -1.8062 0
M  V30 19384 C 1831.49 1.81663 -0.621483 0
M  V30 19385 O 1832.69 2.58211 -0.747043 0
M  V30 19386 C 1830.96 1.77638 -3.10128 0
M  V30 19387 S 1832.52 2.56445 -3.56063 0
M  V30 19388 H 1829.34 0.321476 -0.634172 0
M  V30 19389 H 1831.94 0.222719 -1.94227 0
M  V30 19390 H 1830.65 1.13484 -3.94398 0
M  V30 19391 H 1830.18 2.55287 -2.99319 0
M  V30 19392 H 1832.19 3.79954 -3.19139 0
M  V30 19393 N 1831.37 1.49742 0.491438 0
M  V30 19394 C 1832.61 1.58956 1.24161 0
M  V30 19395 C 1832.93 0.285882 1.935 0
M  V30 19396 O 1834.13 0.256678 2.70284 0
M  V30 19397 C 1832.59 2.805 2.25494 0
M  V30 19398 C 1832.2 4.17664 1.62051 0
M  V30 19399 C 1833.94 2.99049 3.0128 0
M  V30 19400 C 1831.85 5.3042 2.61551 0
M  V30 19401 H 1830.78 0.591883 0.467108 0
M  V30 19402 H 1833.43 1.76144 0.514364 0
M  V30 19403 H 1831.81 2.56827 3.01423 0
M  V30 19404 H 1832.99 4.51512 0.9205 0
M  V30 19405 H 1831.3 4.04553 0.986211 0
M  V30 19406 H 1833.9 3.80458 3.75707 0
M  V30 19407 H 1834.24 2.0998 3.59464 0
M  V30 19408 H 1834.77 3.22807 2.32466 0
M  V30 19409 H 1831.51 6.21579 2.08135 0
M  V30 19410 H 1831.03 5.01014 3.29765 0
M  V30 19411 H 1832.71 5.60152 3.23789 0
M  V30 19412 N 1832.84 -0.743177 1.38977 0
M  V30 19413 C 1834.26 -1.04764 1.20402 0
M  V30 19414 C 1834.46 -2.01411 0.0599139 0
M  V30 19415 O 1833.52 -2.45485 -0.591026 0
M  V30 19416 C 1834.83 -1.61775 2.53474 0
M  V30 19417 C 1836.38 -1.73896 2.60248 0
M  V30 19418 C 1836.85 -2.34318 3.93522 0
M  V30 19419 N 1838.34 -2.41737 3.95117 0
M  V30 19420 C 1839.08 -2.89407 4.95006 0
M  V30 19421 N 1838.57 -3.37034 6.05293 0
M  V30 19422 N 1840.37 -2.88542 4.8239 0
M  V30 19423 H 1832.52 -0.102036 2.12155 0
M  V30 19424 H 1834.78 -0.107893 0.94184 0
M  V30 19425 H 1834.49 -0.982274 3.37704 0
M  V30 19426 H 1834.36 -2.60696 2.72612 0
M  V30 19427 H 1836.75 -2.36568 1.76407 0
M  V30 19428 H 1836.83 -0.736509 2.44968 0
M  V30 19429 H 1836.47 -1.72276 4.7779 0
M  V30 19430 H 1836.4 -3.35224 4.06119 0
M  V30 19431 H 1838.89 -2.08064 3.15464 0
M  V30 19432 H 1839.21 -3.71895 6.77432 0
M  V30 19433 H 1837.55 -3.35064 6.08898 0
M  V30 19434 H 1840.74 -2.50651 3.95337 0
M  V30 19435 H 1840.92 -3.25379 5.60386 0
M  V30 19436 N 1834.32 -1.24018 -0.972487 0
M  V30 19437 C 1835.56 -1.08885 -1.72984 0
M  V30 19438 C 1835.93 0.366766 -1.88464 0
M  V30 19439 O 1837.13 0.639481 -2.61083 0
M  V30 19440 C 1835.4 -1.80306 -3.08585 0
M  V30 19441 S 1836.96 -1.80844 -3.99801 0
M  V30 19442 H 1833.78 -0.389523 -0.594805 0
M  V30 19443 H 1836.38 -1.57275 -1.16124 0
M  V30 19444 H 1835.08 -2.85339 -2.94975 0
M  V30 19445 H 1834.61 -1.3223 -3.70512 0
M  V30 19446 H 1836.63 -0.872692 -4.88465 0
M  V30 19447 N 1835.8 1.17245 -1.05316 0
M  V30 19448 C 1836.71 2.24948 -0.666011 0
M  V30 19449 C 1837.73 1.71153 0.313478 0
M  V30 19450 O 1838.9 2.00721 0.165262 0
M  V30 19451 C 1835.97 3.46667 -0.0480198 0
M  V30 19452 C 1835.03 4.15542 -1.07812 0
M  V30 19453 C 1834.26 5.3145 -0.48952 0
M  V30 19454 O 1834.48 5.6608 0.700668 0
M  V30 19455 O 1833.42 5.89315 -1.22439 0
M  V30 19456 H 1837.24 2.60353 -1.56365 0
M  V30 19457 H 1834.83 1.24569 -0.8248 0
M  V30 19458 H 1836.71 4.20364 0.295366 0
M  V30 19459 H 1835.39 3.13056 0.823248 0
M  V30 19460 H 1834.29 3.43858 -1.47351 0
M  V30 19461 H 1835.63 4.53183 -1.92057 0
M  V30 19462 N 1837.28 0.834353 1.33702 0
M  V30 19463 C 1838.24 0.269618 2.27609 0
M  V30 19464 C 1839.24 -0.559065 1.50768 0
M  V30 19465 O 1840.43 -0.373511 1.70149 0
M  V30 19466 C 1837.56 -0.620682 3.35202 0
M  V30 19467 H 1838.76 1.09819 2.79069 0
M  V30 19468 H 1836.31 0.607087 1.44028 0
M  V30 19469 H 1837.04 -1.47187 2.88975 0
M  V30 19470 H 1836.83 -0.0278102 3.9209 0
M  V30 19471 H 1838.32 -1.00924 4.05221 0
M  V30 19472 N 1838.76 -1.46125 0.590367 0
M  V30 19473 C 1840 -2.04237 0.0816639 0
M  V30 19474 C 1840.36 -1.45099 -1.25739 0
M  V30 19475 O 1841.56 -1.94458 -1.85578 0
M  V30 19476 C 1839.83 -3.57391 0.0248878 0
M  V30 19477 S 1841.39 -4.36736 -0.425128 0
M  V30 19478 H 1838.21 -0.709806 0.0411891 0
M  V30 19479 H 1840.81 -1.79065 0.784592 0
M  V30 19480 H 1839.52 -3.97948 1.00327 0
M  V30 19481 H 1839.05 -3.87112 -0.700572 0
M  V30 19482 H 1841.06 -4.66956 -1.6783 0
M  V30 19483 N 1840.23 -0.328564 -1.54137 0
M  V30 19484 C 1841.18 0.535112 -2.24511 0
M  V30 19485 C 1842.15 1.10765 -1.23776 0
M  V30 19486 O 1843.34 1.14706 -1.52471 0
M  V30 19487 C 1840.48 1.68765 -3.01019 0
M  V30 19488 C 1839.59 1.14387 -4.16581 0
M  V30 19489 C 1838.72 2.26249 -4.80609 0
M  V30 19490 C 1837.76 1.69146 -5.88265 0
M  V30 19491 N 1836.9 2.74691 -6.46134 0
M  V30 19492 H 1841.74 -0.0715726 -2.97914 0
M  V30 19493 H 1839.28 -0.0470933 -1.47025 0
M  V30 19494 H 1841.24 2.36594 -3.43626 0
M  V30 19495 H 1839.87 2.26555 -2.29941 0
M  V30 19496 H 1838.92 0.356974 -3.78721 0
M  V30 19497 H 1840.23 0.686063 -4.94059 0
M  V30 19498 H 1839.38 3.01973 -5.2621 0
M  V30 19499 H 1838.12 2.75368 -4.02522 0
M  V30 19500 H 1837.13 0.919217 -5.42061 0
M  V30 19501 H 1838.35 1.20897 -6.68252 0
M  V30 19502 H 1836.3 3.23091 -5.70918 0
M  V30 19503 H 1836.22 2.33488 -7.19041 0
M  V30 19504 H 1837.48 3.50228 -6.96391 0
M  V30 19505 N 1841.71 1.57497 -0.0568439 0
M  V30 19506 C 1842.66 2.11862 0.915593 0
M  V30 19507 C 1843.63 1.02738 1.30515 0
M  V30 19508 O 1844.81 1.30318 1.39362 0
M  V30 19509 C 1841.95 2.67269 2.18315 0
M  V30 19510 C 1841.07 3.90498 1.84757 0
M  V30 19511 C 1840.2 4.342 3.06013 0
M  V30 19512 C 1839.24 5.50115 2.68403 0
M  V30 19513 N 1838.38 5.88844 3.8237 0
M  V30 19514 H 1843.22 2.94657 0.445101 0
M  V30 19515 H 1840.76 1.45621 0.20807 0
M  V30 19516 H 1842.71 2.97494 2.92494 0
M  V30 19517 H 1841.34 1.87262 2.62931 0
M  V30 19518 H 1840.4 3.66828 1.00703 0
M  V30 19519 H 1841.71 4.7473 1.53077 0
M  V30 19520 H 1840.86 4.66008 3.88486 0
M  V30 19521 H 1839.6 3.4879 3.40876 0
M  V30 19522 H 1838.61 5.17973 1.84348 0
M  V30 19523 H 1839.83 6.37244 2.34726 0
M  V30 19524 H 1837.78 5.06387 4.17024 0
M  V30 19525 H 1837.69 6.67781 3.54407 0
M  V30 19526 H 1838.96 6.25269 4.65466 0
M  V30 19527 N 1843.19 -0.216591 1.56105 0
M  V30 19528 C 1844.15 -1.25198 1.91985 0
M  V30 19529 C 1845.15 -1.39551 0.798884 0
M  V30 19530 O 1846.34 -1.37731 1.06657 0
M  V30 19531 C 1843.48 -2.62499 2.17502 0
M  V30 19532 H 1844.67 -0.945854 2.84594 0
M  V30 19533 H 1842.22 -0.457218 1.49463 0
M  V30 19534 H 1842.96 -2.98202 1.27461 0
M  V30 19535 H 1842.74 -2.53457 2.99169 0
M  V30 19536 H 1844.23 -3.37204 2.4634 0
M  V30 19537 N 1844.67 -1.5 -0.48349 0
M  V30 19538 C 1845.92 -1.60052 -1.23401 0
M  V30 19539 C 1846.24 -0.297159 -1.92723 0
M  V30 19540 O 1845.51 0.684629 -1.83547 0
M  V30 19541 H 1844.09 -0.589753 -0.458477 0
M  V30 19542 H 1846.75 -1.86716 -0.558835 0
M  V30 19543 H 1845.85 -2.40545 -1.98858 0
M  V30 19544 N 1846.15 0.735796 -1.39369 0
M  V30 19545 C 1847.09 1.87116 -1.38168 0
M  V30 19546 C 1848.09 1.67315 -0.264936 0
M  V30 19547 O 1849.29 1.74666 -0.434928 0
M  V30 19548 H 1845.67 0.615926 -0.431438 0
M  V30 19549 H 1847.64 1.85245 -2.33938 0
M  V30 19550 C 1846.39 3.2479 -1.24125 0
M  V30 19551 H 1845.71 3.40621 -2.09325 0
M  V30 19552 H 1847.15 4.04426 -1.27341 0
M  V30 19553 C 1845.61 3.36862 0.050393 0
M  V30 19554 O 1846.14 3.88511 1.02088 0
M  V30 19555 N 1844.35 2.90379 0.113184 0
M  V30 19556 H 1843.89 2.48537 -0.677267 0
M  V30 19557 H 1843.85 2.98837 0.976928 0
M  V30 19558 N 1847.63 1.24532 0.965897 0
M  V30 19559 C 1848.56 1.06393 2.07853 0
M  V30 19560 C 1849.54 -0.0236467 1.70084 0
M  V30 19561 O 1850.72 0.143767 1.93667 0
M  V30 19562 C 1847.85 0.669877 3.40778 0
M  V30 19563 C 1846.81 1.70643 3.92511 0
M  V30 19564 C 1846.13 1.16738 5.21801 0
M  V30 19565 C 1847.43 3.10278 4.20149 0
M  V30 19566 H 1849.13 1.99459 2.23285 0
M  V30 19567 H 1846.67 0.960397 1.07296 0
M  V30 19568 H 1848.62 0.52997 4.18054 0
M  V30 19569 H 1847.35 -0.296477 3.25252 0
M  V30 19570 H 1846.01 1.83458 3.17393 0
M  V30 19571 H 1845.66 0.191586 5.02635 0
M  V30 19572 H 1845.36 1.86009 5.57382 0
M  V30 19573 H 1846.88 1.03963 6.01684 0
M  V30 19574 H 1848.29 3.00681 4.88123 0
M  V30 19575 H 1846.69 3.76918 4.66962 0
M  V30 19576 H 1847.76 3.58182 3.26854 0
M  V30 19577 N 1849.1 -1.16685 1.05936 0
M  V30 19578 C 1850.33 -1.90758 0.793401 0
M  V30 19579 C 1850.74 -1.77479 -0.655593 0
M  V30 19580 O 1850.08 -1.11458 -1.46023 0
M  V30 19581 C 1850.15 -3.42127 1.10406 0
M  V30 19582 C 1849.81 -3.79191 2.55074 0
M  V30 19583 C 1850.81 -3.81412 3.533 0
M  V30 19584 C 1848.49 -4.09931 2.9028 0
M  V30 19585 C 1850.49 -4.13853 4.84772 0
M  V30 19586 C 1848.17 -4.42039 4.21953 0
M  V30 19587 C 1849.17 -4.4398 5.19009 0
M  V30 19588 O 1848.86 -4.75328 6.4832 0
M  V30 19589 H 1848.59 -0.611855 0.287418 0
M  V30 19590 H 1851.15 -1.48859 1.41527 0
M  V30 19591 H 1849.38 -3.84356 0.425106 0
M  V30 19592 H 1851.06 -3.97471 0.822918 0
M  V30 19593 H 1851.83 -3.5778 3.27443 0
M  V30 19594 H 1847.71 -4.07587 2.15393 0
M  V30 19595 H 1851.25 -4.15283 5.60523 0
M  V30 19596 H 1847.15 -4.65136 4.4757 0
M  V30 19597 H 1847.92 -4.93154 6.53254 0
M  V30 19598 N 1850.58 -0.841432 -1.33258 0
M  V30 19599 C 1851.86 -0.360204 -1.92255 0
M  V30 19600 C 1852.24 1.15474 -1.76717 0
M  V30 19601 O 1851.59 1.97035 -1.15713 0
M  V30 19602 C 1851.8 -0.809942 -3.39472 0
M  V30 19603 C 1853.14 -0.819444 -4.16618 0
M  V30 19604 O 1854.17 -0.753715 -3.48134 0
M  V30 19605 O 1853.03 -0.909553 -5.38878 0
M  V30 19606 H 1850.12 -0.102458 -0.820629 0
M  V30 19607 H 1852.67 -0.927455 -1.42114 0
M  V30 19608 H 1851.44 -1.85263 -3.44664 0
M  V30 19609 H 1851.06 -0.219406 -3.96994 0
M  V30 19610 N 1852.06 1.4581 -0.598108 0
M  V30 19611 C 1853.31 2.01511 -0.0872421 0
M  V30 19612 C 1853.62 1.47345 1.28642 0
M  V30 19613 O 1854.83 1.94963 1.88949 0
M  V30 19614 C 1853.28 3.59746 -0.105317 0
M  V30 19615 C 1852.89 4.22909 -1.47824 0
M  V30 19616 C 1854.64 4.23048 0.350802 0
M  V30 19617 C 1852.54 5.73268 -1.45321 0
M  V30 19618 H 1851.47 0.753448 -0.0288462 0
M  V30 19619 H 1854.12 1.67382 -0.752037 0
M  V30 19620 H 1852.51 3.91022 0.625947 0
M  V30 19621 H 1853.68 4.03221 -2.23046 0
M  V30 19622 H 1851.99 3.71763 -1.87566 0
M  V30 19623 H 1854.59 5.33286 0.388561 0
M  V30 19624 H 1854.93 3.93058 1.37155 0
M  V30 19625 H 1855.47 3.96455 -0.326889 0
M  V30 19626 H 1852.21 6.07942 -2.45126 0
M  V30 19627 H 1851.73 5.95175 -0.743436 0
M  V30 19628 H 1853.41 6.36283 -1.17275 0
M  V30 19629 N 1853.54 0.336733 1.53961 0
M  V30 19630 C 1854.76 -0.26614 2.05685 0
M  V30 19631 C 1855.19 -1.43973 1.21051 0
M  V30 19632 O 1854.55 -1.79928 0.222652 0
M  V30 19633 C 1854.59 -0.66571 3.54402 0
M  V30 19634 O 1853.7 -1.76656 3.72648 0
M  V30 19635 H 1853.04 -0.0455655 0.662435 0
M  V30 19636 H 1855.57 0.488969 1.98671 0
M  V30 19637 H 1855.58 -0.944748 3.96911 0
M  V30 19638 H 1854.25 0.192589 4.15454 0
M  V30 19639 H 1852.83 -1.48531 3.42042 0
M  V30 19640 N 1855.02 -1.57465 0.0651956 0
M  V30 19641 C 1855.93 -2.15841 -0.919235 0
M  V30 19642 C 1856.94 -1.11984 -1.33175 0
M  V30 19643 O 1858.12 -1.44219 -1.4058 0
M  V30 19644 C 1855.18 -2.7032 -2.1709 0
M  V30 19645 C 1854.24 -3.89026 -1.81542 0
M  V30 19646 C 1853.48 -4.40897 -3.00742 0
M  V30 19647 O 1853.7 -3.91792 -4.14555 0
M  V30 19648 O 1852.63 -5.32312 -2.80941 0
M  V30 19649 H 1856.46 -3.00307 -0.452704 0
M  V30 19650 H 1854.04 -1.48567 -0.157504 0
M  V30 19651 H 1855.93 -3.05266 -2.90501 0
M  V30 19652 H 1854.6 -1.88917 -2.62854 0
M  V30 19653 H 1853.51 -3.58944 -1.05404 0
M  V30 19654 H 1854.84 -4.71701 -1.40567 0
M  V30 19655 N 1856.49 0.20831 -1.56217 0
M  V30 19656 C 1857.77 0.955838 -1.70655 0
M  V30 19657 C 1858.15 2.01905 -0.61624 0
M  V30 19658 O 1857.5 2.25405 0.374793 0
M  V30 19659 C 1857.71 1.55427 -3.1248 0
M  V30 19660 C 1859.06 2.04147 -3.72303 0
M  V30 19661 O 1860.08 1.65295 -3.15525 0
M  V30 19662 O 1858.94 2.75597 -4.7192 0
M  V30 19663 H 1856.03 0.447364 -0.695553 0
M  V30 19664 H 1858.58 0.199047 -1.68529 0
M  V30 19665 H 1857.35 0.787224 -3.83299 0
M  V30 19666 H 1856.97 2.37625 -3.18779 0
M  V30 19667 N 1857.97 1.50255 0.475528 0
M  V30 19668 C 1858.92 1.69315 1.59484 0
M  V30 19669 C 1859.91 0.558996 1.59911 0
M  V30 19670 O 1861.12 0.73937 1.64114 0
M  V30 19671 H 1857.49 0.534338 0.529138 0
M  V30 19672 H 1859.47 2.63217 1.40568 0
M  V30 19673 C 1858.21 1.80042 2.97456 0
M  V30 19674 H 1857.54 2.667 2.97844 0
M  V30 19675 H 1858.98 1.97405 3.75243 0
M  V30 19676 C 1857.44 0.551002 3.32364 0
M  V30 19677 O 1857.97 -0.311853 4.00488 0
M  V30 19678 N 1856.17 0.406343 2.87745 0
M  V30 19679 H 1855.72 1.10953 2.32481 0
M  V30 19680 H 1855.68 -0.428483 3.11467 0
M  V30 19681 N 1859.45 -0.728395 1.39758 0
M  V30 19682 C 1860.67 -1.52268 1.40816 0
M  V30 19683 C 1861.1 -1.88099 0.00629167 0
M  V30 19684 O 1860.46 -1.52376 -0.982402 0
M  V30 19685 C 1860.51 -2.78262 2.29353 0
M  V30 19686 O 1859.61 -3.74453 1.72796 0
M  V30 19687 H 1858.95 -0.459582 0.47925 0
M  V30 19688 H 1861.48 -0.898132 1.83833 0
M  V30 19689 H 1861.49 -3.26927 2.44096 0
M  V30 19690 H 1860.17 -2.51515 3.31229 0
M  V30 19691 H 1858.74 -3.33248 1.67332 0
M  V30 19692 N 1860.93 -1.25042 -0.959279 0
M  V30 19693 C 1861.86 -1.07494 -2.07285 0
M  V30 19694 C 1862.84 0.0146264 -1.70094 0
M  V30 19695 O 1864.02 -0.154035 -1.93588 0
M  V30 19696 C 1861.15 -0.68794 -3.40418 0
M  V30 19697 C 1860.11 -1.72722 -3.91601 0
M  V30 19698 C 1859.43 -1.19504 -5.21175 0
M  V30 19699 C 1860.73 -3.12502 -4.18497 0
M  V30 19700 H 1862.43 -2.00641 -2.22224 0
M  V30 19701 H 1859.97 -0.966074 -1.06785 0
M  V30 19702 H 1861.93 -0.552133 -4.17767 0
M  V30 19703 H 1860.65 0.279224 -3.25404 0
M  V30 19704 H 1859.31 -1.85139 -3.16416 0
M  V30 19705 H 1858.96 -0.218239 -5.02526 0
M  V30 19706 H 1858.66 -1.88962 -5.56387 0
M  V30 19707 H 1860.18 -1.07153 -6.01124 0
M  V30 19708 H 1861.6 -3.03266 -4.86521 0
M  V30 19709 H 1859.99 -3.79389 -4.64956 0
M  V30 19710 H 1861.06 -3.5991 -3.2495 0
M  V30 19711 N 1862.41 1.16121 -1.06553 0
M  V30 19712 C 1863.34 2.20181 -0.636617 0
M  V30 19713 C 1864.35 1.59884 0.306731 0
M  V30 19714 O 1865.54 1.78235 0.0973101 0
M  V30 19715 C 1862.64 3.38789 0.0865541 0
M  V30 19716 C 1861.81 4.28641 -0.870941 0
M  V30 19717 C 1860.87 5.25869 -0.186538 0
M  V30 19718 O 1859.9 5.63189 -0.825028 0
M  V30 19719 N 1861.1 5.70536 1.0709 0
M  V30 19720 H 1863.87 2.576 -1.53175 0
M  V30 19721 H 1861.43 1.31157 -0.949185 0
M  V30 19722 H 1863.42 4.00878 0.554881 0
M  V30 19723 H 1861.99 2.99854 0.883524 0
M  V30 19724 H 1861.21 3.63776 -1.51858 0
M  V30 19725 H 1862.5 4.85552 -1.5204 0
M  V30 19726 H 1861.89 5.42314 1.60973 0
M  V30 19727 H 1860.45 6.34704 1.48305 0
M  V30 19728 N 1863.88 0.848487 1.3281 0
M  V30 19729 C 1864.79 0.291355 2.32784 0
M  V30 19730 C 1865.81 -0.587621 1.63777 0
M  V30 19731 O 1866.99 -0.489458 1.95362 0
M  V30 19732 C 1864.05 -0.51634 3.42834 0
M  V30 19733 C 1863.11 0.388046 4.27543 0
M  V30 19734 C 1862.35 -0.381197 5.32337 0
M  V30 19735 O 1862.57 -1.61186 5.47152 0
M  V30 19736 O 1861.5 0.2498 6.01381 0
M  V30 19737 H 1865.33 1.11947 2.82315 0
M  V30 19738 H 1862.91 0.611259 1.36323 0
M  V30 19739 H 1864.8 -0.974995 4.09966 0
M  V30 19740 H 1863.47 -1.32136 2.95503 0
M  V30 19741 H 1862.38 0.894745 3.63243 0
M  V30 19742 H 1863.71 1.15808 4.78382 0
M  V30 19743 N 1865.36 -1.4549 0.605832 0
M  V30 19744 C 1866.29 -2.3328 -0.101377 0
M  V30 19745 C 1867.27 -1.46727 -0.860543 0
M  V30 19746 O 1868.46 -1.75501 -0.831441 0
M  V30 19747 C 1865.59 -3.29403 -1.1005 0
M  V30 19748 C 1864.54 -4.25578 -0.45466 0
M  V30 19749 C 1863.87 -5.11379 -1.5619 0
M  V30 19750 C 1865.17 -5.18571 0.623028 0
M  V30 19751 H 1866.86 -2.92661 0.631653 0
M  V30 19752 H 1864.41 -1.40728 0.305208 0
M  V30 19753 H 1866.36 -3.89688 -1.60379 0
M  V30 19754 H 1865.09 -2.68177 -1.8641 0
M  V30 19755 H 1863.74 -3.66589 0.027752 0
M  V30 19756 H 1863.39 -4.46523 -2.31574 0
M  V30 19757 H 1863.09 -5.76528 -1.13529 0
M  V30 19758 H 1864.62 -5.74532 -2.0675 0
M  V30 19759 H 1866.03 -5.72937 0.203881 0
M  V30 19760 H 1864.43 -5.92187 0.971292 0
M  V30 19761 H 1865.5 -4.61106 1.50032 0
M  V30 19762 N 1866.84 -0.344893 -1.5378 0
M  V30 19763 C 1868.12 0.306554 -1.93183 0
M  V30 19764 C 1868.5 1.68127 -1.27658 0
M  V30 19765 O 1867.85 2.24456 -0.428003 0
M  V30 19766 C 1868.06 0.377484 -3.46953 0
M  V30 19767 C 1869.4 0.627685 -4.19935 0
M  V30 19768 O 1870.43 0.459544 -3.53223 0
M  V30 19769 O 1869.29 0.953511 -5.38117 0
M  V30 19770 H 1866.38 0.179163 -0.80736 0
M  V30 19771 H 1868.93 -0.396168 -1.65011 0
M  V30 19772 H 1867.7 -0.587175 -3.86869 0
M  V30 19773 H 1867.32 1.12694 -3.81295 0
M  V30 19774 N 1868.32 1.57428 -0.0735454 0
M  V30 19775 C 1869.25 2.09808 0.922679 0
M  V30 19776 C 1870.26 1.0306 1.26026 0
M  V30 19777 O 1871.45 1.30568 1.21714 0
M  V30 19778 C 1868.55 2.54492 2.23801 0
M  V30 19779 C 1867.73 3.84832 2.07901 0
M  V30 19780 C 1866.78 4.15592 3.22754 0
M  V30 19781 O 1865.81 4.85163 2.97667 0
M  V30 19782 N 1867.01 3.69277 4.47901 0
M  V30 19783 H 1869.78 2.95905 0.475456 0
M  V30 19784 H 1867.34 1.61511 0.112135 0
M  V30 19785 H 1869.33 2.7213 2.99545 0
M  V30 19786 H 1867.9 1.73523 2.60016 0
M  V30 19787 H 1867.12 3.76557 1.16614 0
M  V30 19788 H 1868.41 4.70144 1.9453 0
M  V30 19789 H 1867.81 3.13076 4.71168 0
M  V30 19790 H 1866.36 3.92111 5.20665 0
M  V30 19791 N 1869.8 -0.200022 1.56326 0
M  V30 19792 C 1871.21 -0.765141 1.70301 0
M  V30 19793 C 1871.56 -1.84066 0.679277 0
M  V30 19794 O 1870.68 -2.15768 -0.165308 0
M  V30 19795 C 1871.28 -1.39466 3.08763 0
M  V30 19796 C 1869.84 -1.90692 3.2452 0
M  V30 19797 C 1868.98 -0.77502 2.66249 0
M  V30 19798 H 1871.94 0.024977 1.5868 0
M  V30 19799 H 1871.96 -2.26396 3.05819 0
M  V30 19800 H 1871.47 -0.61165 3.8325 0
M  V30 19801 H 1869.57 -2.71728 2.54941 0
M  V30 19802 H 1869.68 -2.0721 4.31973 0
M  V30 19803 H 1868.05 -1.18802 2.25296 0
M  V30 19804 H 1868.83 -0.00432851 3.433 0
M  V30 19805 N 1871.27 -1.50505 -0.467553 0
M  V30 19806 C 1872.24 -1.69071 -1.54751 0
M  V30 19807 C 1873.24 -0.561325 -1.50684 0
M  V30 19808 O 1874.43 -0.828412 -1.53242 0
M  V30 19809 C 1871.56 -1.71922 -2.94373 0
M  V30 19810 H 1872.75 -2.65425 -1.39605 0
M  V30 19811 H 1870.31 -1.40039 -0.694177 0
M  V30 19812 H 1871.04 -0.772734 -3.14959 0
M  V30 19813 H 1870.83 -2.53972 -2.98732 0
M  V30 19814 H 1872.32 -1.88228 -3.72773 0
M  V30 19815 N 1872.75 0.720973 -1.40142 0
M  V30 19816 C 1873.72 1.81676 -1.39737 0
M  V30 19817 C 1874.72 1.58125 -0.292068 0
M  V30 19818 O 1875.91 1.65266 -0.550699 0
M  V30 19819 C 1873.04 3.19685 -1.18381 0
M  V30 19820 H 1874.23 1.83435 -2.37259 0
M  V30 19821 H 1871.78 0.926064 -1.25912 0
M  V30 19822 H 1872.52 3.2358 -0.21598 0
M  V30 19823 H 1872.3 3.38178 -1.98439 0
M  V30 19824 H 1873.79 3.99724 -1.20873 0
M  V30 19825 N 1874.23 1.25549 0.952634 0
M  V30 19826 C 1875.64 1.09496 1.5122 0
M  V30 19827 C 1875.99 -0.328639 1.93428 0
M  V30 19828 O 1875.12 -1.21884 1.78811 0
M  V30 19829 C 1875.71 1.9815 2.74813 0
M  V30 19830 C 1874.27 1.86275 3.27076 0
M  V30 19831 C 1873.42 1.92181 1.99904 0
M  V30 19832 H 1876.37 1.38806 0.769318 0
M  V30 19833 H 1876.39 1.52265 3.48705 0
M  V30 19834 H 1875.9 3.01754 2.44062 0
M  V30 19835 H 1874 0.855627 3.62643 0
M  V30 19836 H 1874.12 2.71194 3.94957 0
M  V30 19837 H 1872.48 1.36092 2.15293 0
M  V30 19838 H 1873.26 2.97393 1.71499 0
M  V30 19839 N 1875.71 -1.15554 1.07168 0
M  V30 19840 C 1876.95 -1.86572 0.794894 0
M  V30 19841 C 1877.29 -1.82007 -0.677276 0
M  V30 19842 O 1876.56 -1.2419 -1.4969 0
M  V30 19843 C 1876.85 -3.35762 1.30137 0
M  V30 19844 C 1876.7 -3.4897 2.83796 0
M  V30 19845 C 1878.02 -4.30453 0.916402 0
M  V30 19846 H 1875.14 -0.677448 0.29023 0
M  V30 19847 H 1877.78 -1.35772 1.32914 0
M  V30 19848 H 1875.93 -3.79156 0.846915 0
M  V30 19849 H 1877.6 -3.14452 3.37517 0
M  V30 19850 H 1875.84 -2.9059 3.22087 0
M  V30 19851 H 1876.51 -4.53782 3.14302 0
M  V30 19852 H 1878.99 -3.95008 1.30797 0
M  V30 19853 H 1877.87 -5.33329 1.29814 0
M  V30 19854 H 1878.13 -4.41742 -0.17785 0
M  V30 19855 N 1877.19 -0.855519 -1.32358 0
M  V30 19856 C 1878.15 -0.305794 -2.27151 0
M  V30 19857 C 1879.15 0.535008 -1.51639 0
M  V30 19858 O 1880.34 0.346394 -1.70721 0
M  V30 19859 C 1877.47 0.567275 -3.36147 0
M  V30 19860 H 1878.67 -1.14245 -2.77287 0
M  V30 19861 H 1876.22 -0.629924 -1.43044 0
M  V30 19862 H 1876.95 1.42571 -2.9128 0
M  V30 19863 H 1876.74 -0.0345714 -3.92085 0
M  V30 19864 H 1878.23 0.944644 -4.06775 0
M  V30 19865 N 1878.67 1.45167 -0.61354 0
M  V30 19866 C 1879.91 2.02495 -0.111227 0
M  V30 19867 C 1880.24 1.48015 1.25719 0
M  V30 19868 O 1879.52 0.657188 1.83061 0
M  V30 19869 C 1879.8 3.60014 -0.07876 0
M  V30 19870 C 1879.66 4.24814 -1.47827 0
M  V30 19871 C 1880.97 4.35908 0.605964 0
M  V30 19872 H 1878.09 0.735808 -0.0418931 0
M  V30 19873 H 1880.74 1.7295 -0.786651 0
M  V30 19874 H 1878.89 3.85315 0.496411 0
M  V30 19875 H 1880.56 4.10678 -2.10097 0
M  V30 19876 H 1878.8 3.82986 -2.03726 0
M  V30 19877 H 1879.47 5.33748 -1.40774 0
M  V30 19878 H 1881.95 4.15935 0.117019 0
M  V30 19879 H 1880.82 5.45635 0.597808 0
M  V30 19880 H 1881.08 4.09216 1.67315 0
M  V30 19881 N 1880.14 0.353044 1.53595 0
M  V30 19882 C 1881.37 -0.241665 2.05484 0
M  V30 19883 C 1881.79 -1.43458 1.2274 0
M  V30 19884 O 1881.14 -1.80566 0.26501 0
M  V30 19885 C 1881.19 -0.647442 3.55655 0
M  V30 19886 O 1880.92 0.498047 4.3526 0
M  V30 19887 C 1882.42 -1.30187 4.23753 0
M  V30 19888 H 1879.64 -0.0449704 0.669491 0
M  V30 19889 H 1882.18 0.507783 1.98095 0
M  V30 19890 H 1880.34 -1.34682 3.63235 0
M  V30 19891 H 1880.75 0.172685 5.24216 0
M  V30 19892 H 1882.22 -1.53646 5.30186 0
M  V30 19893 H 1882.7 -2.25835 3.7669 0
M  V30 19894 H 1883.31 -0.644265 4.20392 0
M  V30 19895 N 1881.62 -1.57387 0.0818932 0
M  V30 19896 C 1882.85 -1.9862 -0.597066 0
M  V30 19897 C 1883.27 -0.960277 -1.61741 0
M  V30 19898 O 1882.63 0.0728948 -1.81153 0
M  V30 19899 C 1882.68 -3.3886 -1.23315 0
M  V30 19900 O 1881.78 -3.38962 -2.34901 0
M  V30 19901 H 1881.12 -0.646208 -0.152679 0
M  V30 19902 H 1883.65 -2.03978 0.159398 0
M  V30 19903 H 1883.66 -3.76266 -1.5776 0
M  V30 19904 H 1882.34 -4.13056 -0.485551 0
M  V30 19905 H 1880.91 -3.13337 -2.02174 0
M  V30 19906 N 1883.1 0.191729 -1.56429 0
M  V30 19907 C 1884.05 1.25706 -1.95706 0
M  V30 19908 C 1885.04 1.46938 -0.842948 0
M  V30 19909 O 1886.25 1.47759 -1.02797 0
M  V30 19910 H 1882.62 0.422099 -0.622364 0
M  V30 19911 H 1884.59 0.8988 -2.84542 0
M  V30 19912 C 1883.34 2.59366 -2.3157 0
M  V30 19913 H 1882.67 2.43845 -3.16827 0
M  V30 19914 H 1884.11 3.32646 -2.62912 0
M  V30 19915 C 1882.56 3.16609 -1.15155 0
M  V30 19916 O 1883.09 3.9941 -0.428355 0
M  V30 19917 N 1881.3 2.75402 -0.927467 0
M  V30 19918 H 1880.85 2.08172 -1.5173 0
M  V30 19919 H 1880.81 3.1404 -0.150348 0
M  V30 19920 N 1884.58 1.50751 0.459565 0
M  V30 19921 C 1885.54 1.69889 1.53852 0
M  V30 19922 C 1886.54 0.569308 1.50385 0
M  V30 19923 O 1887.73 0.836527 1.528 0
M  V30 19924 C 1884.86 1.73481 2.93457 0
M  V30 19925 H 1886.06 2.66162 1.38195 0
M  V30 19926 H 1883.61 1.40405 0.686741 0
M  V30 19927 H 1884.34 0.789426 3.14545 0
M  V30 19928 H 1884.13 2.55553 2.97381 0
M  V30 19929 H 1885.62 1.90202 3.7177 0
M  V30 19930 N 1886.06 -0.713531 1.40522 0
M  V30 19931 C 1887.28 -1.50766 1.42423 0
M  V30 19932 C 1887.71 -1.88082 0.0262417 0
M  V30 19933 O 1887.06 -1.5341 -0.966185 0
M  V30 19934 C 1887.11 -2.75813 2.32291 0
M  V30 19935 O 1886.22 -3.726 1.76758 0
M  V30 19936 H 1885.56 -0.454473 0.484098 0
M  V30 19937 H 1888.09 -0.878583 1.84776 0
M  V30 19938 H 1888.1 -3.2432 2.47549 0
M  V30 19939 H 1886.77 -2.47988 3.33878 0
M  V30 19940 H 1885.35 -3.31455 1.70857 0
M  V30 19941 N 1887.53 -1.26053 -0.945962 0
M  V30 19942 C 1888.76 -1.14079 -1.72608 0
M  V30 19943 C 1889.18 0.304506 -1.86328 0
M  V30 19944 O 1888.53 1.20885 -1.36723 0
M  V30 19945 C 1888.58 -1.79938 -3.13535 0
M  V30 19946 O 1888.31 -3.18819 -3.00476 0
M  V30 19947 C 1889.81 -1.73856 -4.07785 0
M  V30 19948 H 1887.03 -0.397486 -0.540598 0
M  V30 19949 H 1889.57 -1.66582 -1.1862 0
M  V30 19950 H 1887.73 -1.31385 -3.6444 0
M  V30 19951 H 1888.14 -3.51337 -3.89439 0
M  V30 19952 H 1889.61 -2.24584 -5.04248 0
M  V30 19953 H 1890.09 -0.704095 -4.33519 0
M  V30 19954 H 1890.7 -2.21939 -3.62799 0
M  V30 19955 N 1889.01 1.14984 -1.07779 0
M  V30 19956 C 1890.24 1.89747 -0.824844 0
M  V30 19957 C 1890.65 1.78246 0.622385 0
M  V30 19958 O 1890.01 1.13739 1.42723 0
M  V30 19959 C 1890.06 3.39946 -1.2296 0
M  V30 19960 O 1889.78 3.5112 -2.62005 0
M  V30 19961 C 1891.28 4.31721 -1.00658 0
M  V30 19962 H 1888.5 0.601232 -0.297928 0
M  V30 19963 H 1891.05 1.4566 -1.43539 0
M  V30 19964 H 1889.2 3.81679 -0.663292 0
M  V30 19965 H 1889.62 4.44367 -2.78636 0
M  V30 19966 H 1891.09 5.35507 -1.33925 0
M  V30 19967 H 1891.57 4.39163 0.0568131 0
M  V30 19968 H 1892.17 3.95735 -1.55801 0
M  V30 19969 N 1890.49 0.862526 1.31902 0
M  V30 19970 C 1891.44 0.31091 2.28696 0
M  V30 19971 C 1892.41 -0.586495 1.55401 0
M  V30 19972 O 1893.59 -0.519727 1.83585 0
M  V30 19973 C 1890.73 -0.487986 3.41632 0
M  V30 19974 C 1889.84 0.436096 4.29793 0
M  V30 19975 C 1888.98 -0.376197 5.29866 0
M  V30 19976 C 1888.02 0.544784 6.09671 0
M  V30 19977 N 1887.16 -0.230806 7.01721 0
M  V30 19978 H 1892 1.14156 2.75268 0
M  V30 19979 H 1889.53 0.574352 1.35424 0
M  V30 19980 H 1891.49 -0.966875 4.05842 0
M  V30 19981 H 1890.12 -1.28339 2.96191 0
M  V30 19982 H 1889.17 1.03341 3.66094 0
M  V30 19983 H 1890.48 1.14259 4.85537 0
M  V30 19984 H 1889.64 -0.917915 5.99716 0
M  V30 19985 H 1888.38 -1.11602 4.74759 0
M  V30 19986 H 1887.38 1.09832 5.38718 0
M  V30 19987 H 1888.61 1.28334 6.66864 0
M  V30 19988 H 1886.55 -0.95358 6.49032 0
M  V30 19989 H 1886.47 0.416499 7.54852 0
M  V30 19990 H 1887.74 -0.753996 7.75845 0
M  V30 19991 N 1891.97 -1.4484 0.62123 0
M  V30 19992 C 1893.2 -2.06201 0.128374 0
M  V30 19993 C 1893.61 -1.46421 -1.19822 0
M  V30 19994 O 1892.95 -0.577812 -1.74376 0
M  V30 19995 C 1893.01 -3.59429 -0.0712601 0
M  V30 19996 C 1892.68 -4.41619 1.17564 0
M  V30 19997 C 1893.67 -4.75732 2.09703 0
M  V30 19998 C 1891.36 -4.82154 1.40828 0
M  V30 19999 C 1893.35 -5.49251 3.23423 0
M  V30 20000 C 1891.04 -5.55424 2.54848 0
M  V30 20001 C 1892.04 -5.88891 3.45972 0
M  V30 20002 O 1891.72 -6.60671 4.58006 0
M  V30 20003 H 1891.46 -0.672121 0.0723128 0
M  V30 20004 H 1894.01 -1.86857 0.852847 0
M  V30 20005 H 1892.24 -3.77225 -0.850773 0
M  V30 20006 H 1893.93 -4.02589 -0.517423 0
M  V30 20007 H 1894.7 -4.44963 1.92959 0
M  V30 20008 H 1890.57 -4.55532 0.707942 0
M  V30 20009 H 1894.12 -5.7529 3.94572 0
M  V30 20010 H 1890.02 -5.85608 2.71538 0
M  V30 20011 H 1890.78 -6.79132 4.56861 0
M  V30 20012 N 1893.45 -0.361184 -1.53405 0
M  V30 20013 C 1894.86 0.118972 -1.86321 0
M  V30 20014 C 1895.21 1.48531 -1.28191 0
M  V30 20015 O 1894.33 2.07851 -0.602253 0
M  V30 20016 C 1894.93 0.222658 -3.38068 0
M  V30 20017 C 1893.49 0.647065 -3.70796 0
M  V30 20018 C 1892.63 -0.208424 -2.76516 0
M  V30 20019 H 1895.59 -0.580142 -1.47716 0
M  V30 20020 H 1895.61 1.04702 -3.65811 0
M  V30 20021 H 1895.12 -0.771922 -3.80346 0
M  V30 20022 H 1893.22 1.65003 -3.34073 0
M  V30 20023 H 1893.33 0.424724 -4.77214 0
M  V30 20024 H 1891.7 0.322011 -2.52656 0
M  V30 20025 H 1892.48 -1.20046 -3.21627 0
M  V30 20026 N 1894.92 1.57341 -0.0902386 0
M  V30 20027 C 1895.86 2.10775 0.900374 0
M  V30 20028 C 1896.87 1.0439 1.24926 0
M  V30 20029 O 1898.06 1.31851 1.20322 0
M  V30 20030 C 1895.16 2.56852 2.21089 0
M  V30 20031 C 1894.33 3.87016 2.03808 0
M  V30 20032 C 1893.39 4.18991 3.18328 0
M  V30 20033 O 1892.42 4.88292 2.92505 0
M  V30 20034 N 1893.62 3.74006 4.43959 0
M  V30 20035 H 1896.38 2.96392 0.444045 0
M  V30 20036 H 1893.94 1.61621 0.0949979 0
M  V30 20037 H 1895.94 2.75292 2.96642 0
M  V30 20038 H 1894.51 1.76271 2.58161 0
M  V30 20039 H 1893.73 3.77772 1.12613 0
M  V30 20040 H 1895.01 4.72181 1.89532 0
M  V30 20041 H 1894.41 3.18056 4.67821 0
M  V30 20042 H 1892.97 3.97611 5.16477 0
M  V30 20043 N 1896.4 -0.183431 1.56529 0
M  V30 20044 C 1897.63 -0.921964 1.85781 0
M  V30 20045 C 1898.05 -1.75564 0.675184 0
M  V30 20046 O 1897.41 -1.7736 -0.375913 0
M  V30 20047 C 1897.46 -1.7844 3.13355 0
M  V30 20048 O 1896.56 -2.88461 2.94727 0
M  V30 20049 H 1895.9 -0.258974 0.611415 0
M  V30 20050 H 1898.43 -0.185225 2.0376 0
M  V30 20051 H 1898.44 -2.18675 3.44449 0
M  V30 20052 H 1897.12 -1.17195 3.99047 0
M  V30 20053 H 1895.7 -2.51897 2.74959 0
M  V30 20054 N 1897.88 -1.50992 -0.451564 0
M  V30 20055 C 1899.29 -1.55592 -1.03189 0
M  V30 20056 C 1899.64 -0.370923 -1.92662 0
M  V30 20057 O 1898.77 0.513972 -2.10208 0
M  V30 20058 C 1899.36 -2.81975 -1.87818 0
M  V30 20059 C 1897.92 -2.89192 -2.40925 0
M  V30 20060 C 1897.07 -2.50103 -1.19766 0
M  V30 20061 H 1900.02 -1.56974 -0.233388 0
M  V30 20062 H 1900.04 -2.64934 -2.73112 0
M  V30 20063 H 1899.55 -3.68203 -1.22672 0
M  V30 20064 H 1897.65 -2.07362 -3.09567 0
M  V30 20065 H 1897.77 -3.92529 -2.74696 0
M  V30 20066 H 1896.13 -2.02978 -1.53857 0
M  V30 20067 H 1896.91 -3.3866 -0.562517 0
M  V30 20068 N 1899.36 0.706069 -1.40899 0
M  V30 20069 C 1900.59 1.49504 -1.43025 0
M  V30 20070 C 1901 1.88772 -0.0325752 0
M  V30 20071 O 1900.36 1.56085 0.945716 0
M  V30 20072 C 1900.41 2.76431 -2.32955 0
M  V30 20073 O 1900.13 2.38821 -3.67282 0
M  V30 20074 C 1901.63 3.70255 -2.43774 0
M  V30 20075 H 1898.85 0.461069 -0.4875 0
M  V30 20076 H 1901.4 0.870198 -1.85062 0
M  V30 20077 H 1899.55 3.35177 -1.94255 0
M  V30 20078 H 1899.96 3.2056 -4.1514 0
M  V30 20079 H 1901.44 4.56129 -3.10887 0
M  V30 20080 H 1901.92 4.14021 -1.46573 0
M  V30 20081 H 1902.52 3.17417 -2.83066 0
M  V30 20082 N 1900.84 1.26553 0.939264 0
M  V30 20083 C 1901.78 1.08092 2.05958 0
M  V30 20084 C 1902.78 0.00730279 1.69398 0
M  V30 20085 O 1903.98 0.164131 1.7925 0
M  V30 20086 H 1900.36 0.33271 0.674394 0
M  V30 20087 H 1902.33 2.03032 2.18679 0
M  V30 20088 C 1901.08 0.732672 3.39893 0
M  V30 20089 H 1900.4 1.55067 3.68503 0
M  V30 20090 H 1901.84 0.643305 4.19091 0
M  V30 20091 C 1900.3 -0.5623 3.32174 0
M  V30 20092 O 1900.83 -1.60007 3.68457 0
M  V30 20093 N 1899.04 -0.553643 2.85277 0
M  V30 20094 H 1898.58 0.291265 2.55948 0
M  V30 20095 H 1898.54 -1.4202 2.80495 0
M  V30 20096 N 1902.31 -1.14411 1.08387 0
M  V30 20097 C 1903.54 -1.89848 0.835015 0
M  V30 20098 C 1903.96 -1.78034 -0.607091 0
M  V30 20099 O 1903.32 -1.12039 -1.42538 0
M  V30 20100 C 1903.37 -3.37818 1.26141 0
M  V30 20101 O 1902.47 -4.10325 0.41322 0
M  V30 20102 H 1901.82 -0.590682 0.303299 0
M  V30 20103 H 1904.35 -1.44823 1.44525 0
M  V30 20104 H 1904.36 -3.88631 1.24218 0
M  V30 20105 H 1903.03 -3.45735 2.31172 0
M  V30 20106 H 1901.61 -3.69589 0.495854 0
M  V30 20107 N 1903.79 -0.869509 -1.31443 0
M  V30 20108 C 1904.74 -0.323034 -2.28528 0
M  V30 20109 C 1905.71 0.578245 -1.5571 0
M  V30 20110 O 1906.89 0.509983 -1.83858 0
M  V30 20111 C 1904.03 0.469861 -3.41886 0
M  V30 20112 C 1903.15 -0.458883 -4.29556 0
M  V30 20113 C 1902.28 0.348092 -5.30058 0
M  V30 20114 C 1901.32 -0.577109 -6.09373 0
M  V30 20115 N 1900.46 0.193589 -7.01833 0
M  V30 20116 H 1905.3 -1.15614 -2.74659 0
M  V30 20117 H 1902.84 -0.581526 -1.35117 0
M  V30 20118 H 1904.79 0.945338 -4.06349 0
M  V30 20119 H 1903.42 1.26767 -2.96867 0
M  V30 20120 H 1902.48 -1.05281 -3.65541 0
M  V30 20121 H 1903.79 -1.16833 -4.84924 0
M  V30 20122 H 1902.94 0.886098 -6.00194 0
M  V30 20123 H 1901.68 1.09083 -4.75344 0
M  V30 20124 H 1900.69 -1.12687 -5.38128 0
M  V30 20125 H 1901.91 -1.31869 -6.66174 0
M  V30 20126 H 1899.86 0.919147 -6.49529 0
M  V30 20127 H 1899.77 -0.456525 -7.5462 0
M  V30 20128 H 1901.04 0.71284 -7.76234 0
M  V30 20129 N 1905.27 1.44508 -0.628902 0
M  V30 20130 C 1906.23 2.291 0.0676501 0
M  V30 20131 C 1907.23 1.40921 0.77447 0
M  V30 20132 O 1908.42 1.62816 0.619397 0
M  V30 20133 C 1905.56 3.22448 1.10634 0
M  V30 20134 H 1906.75 2.92174 -0.676344 0
M  V30 20135 H 1904.3 1.51384 -0.388933 0
M  V30 20136 H 1905.04 2.64219 1.88039 0
M  V30 20137 H 1904.82 3.87428 0.603465 0
M  V30 20138 H 1906.31 3.86 1.59354 0
M  V30 20139 N 1906.75 0.369315 1.53212 0
M  V30 20140 C 1907.68 -0.510161 2.2345 0
M  V30 20141 C 1908.69 -1.04313 1.24991 0
M  V30 20142 O 1909.88 -0.948869 1.51191 0
M  V30 20143 C 1906.98 -1.71753 2.92154 0
M  V30 20144 C 1906.16 -1.31542 4.17152 0
M  V30 20145 C 1905.22 -2.38526 4.69033 0
M  V30 20146 O 1904.24 -2.00761 5.32619 0
M  V30 20147 N 1905.44 -3.70165 4.47167 0
M  V30 20148 H 1908.21 0.0915031 2.9956 0
M  V30 20149 H 1905.77 0.194676 1.60725 0
M  V30 20150 H 1907.76 -2.42808 3.23769 0
M  V30 20151 H 1906.33 -2.22598 2.19474 0
M  V30 20152 H 1905.55 -0.434563 3.91797 0
M  V30 20153 H 1906.84 -1.02311 4.98407 0
M  V30 20154 H 1906.24 -4.0362 3.96368 0
M  V30 20155 H 1904.79 -4.37313 4.83323 0
M  V30 20156 N 1908.23 -1.57291 0.0985816 0
M  V30 20157 C 1909.17 -2.14215 -0.8591 0
M  V30 20158 C 1910.14 -1.06162 -1.27745 0
M  V30 20159 O 1911.33 -1.33967 -1.35858 0
M  V30 20160 C 1908.47 -2.72963 -2.11152 0
M  V30 20161 C 1907.58 -3.95259 -1.74339 0
M  V30 20162 C 1906.72 -4.4216 -2.94394 0
M  V30 20163 C 1905.76 -5.57038 -2.53723 0
M  V30 20164 N 1904.89 -5.98775 -3.66624 0
M  V30 20165 H 1909.73 -2.95734 -0.366821 0
M  V30 20166 H 1907.27 -1.46121 -0.169388 0
M  V30 20167 H 1909.23 -3.05145 -2.84504 0
M  V30 20168 H 1907.86 -1.94167 -2.57874 0
M  V30 20169 H 1906.91 -3.69369 -0.90942 0
M  V30 20170 H 1908.22 -4.78622 -1.40436 0
M  V30 20171 H 1907.38 -4.76144 -3.75994 0
M  V30 20172 H 1906.12 -3.57705 -3.31509 0
M  V30 20173 H 1905.12 -5.22678 -1.7055 0
M  V30 20174 H 1906.35 -6.43244 -2.17748 0
M  V30 20175 H 1904.29 -5.17265 -4.03451 0
M  V30 20176 H 1904.21 -6.76943 -3.36578 0
M  V30 20177 H 1905.48 -6.3739 -4.48725 0
M  V30 20178 N 1909.71 0.175127 -1.56624 0
M  V30 20179 C 1910.65 1.21687 -1.96114 0
M  V30 20180 C 1911.62 1.44191 -0.824518 0
M  V30 20181 O 1912.81 1.56994 -1.08433 0
M  V30 20182 C 1909.95 2.55207 -2.323 0
M  V30 20183 C 1909.06 2.40115 -3.59122 0
M  V30 20184 C 1908.2 3.66475 -3.84538 0
M  V30 20185 C 1907.23 3.463 -5.04721 0
M  V30 20186 N 1906.37 4.6472 -5.26288 0
M  V30 20187 H 1911.21 0.873106 -2.84923 0
M  V30 20188 H 1908.75 0.419721 -1.40985 0
M  V30 20189 H 1910.71 3.33022 -2.51302 0
M  V30 20190 H 1909.34 2.87587 -1.46607 0
M  V30 20191 H 1908.39 1.53496 -3.48056 0
M  V30 20192 H 1909.7 2.21151 -4.47095 0
M  V30 20193 H 1908.85 4.52726 -4.03886 0
M  V30 20194 H 1907.59 3.88414 -2.94934 0
M  V30 20195 H 1906.6 2.58435 -4.85274 0
M  V30 20196 H 1907.82 3.25787 -5.95852 0
M  V30 20197 H 1905.77 4.86885 -4.39635 0
M  V30 20198 H 1905.69 4.48656 -6.08477 0
M  V30 20199 H 1906.95 5.52265 -5.50112 0
M  V30 20200 N 1911.18 1.5123 0.44355 0
M  V30 20201 C 1912.13 1.7266 1.55857 0
M  V30 20202 C 1913.13 0.59279 1.5869 0
M  V30 20203 O 1914.33 0.774014 1.62509 0
M  V30 20204 H 1910.71 0.545442 0.517684 0
M  V30 20205 H 1912.68 2.66139 1.34954 0
M  V30 20206 C 1911.43 1.86311 2.9357 0
M  V30 20207 H 1910.75 2.72958 2.9212 0
M  V30 20208 H 1912.19 2.0532 3.70971 0
M  V30 20209 C 1910.65 0.621377 3.3112 0
M  V30 20210 O 1911.18 -0.226833 4.01059 0
M  V30 20211 N 1909.38 0.467286 2.86818 0
M  V30 20212 H 1908.93 1.15859 2.30075 0
M  V30 20213 H 1908.89 -0.36232 3.12305 0
M  V30 20214 N 1912.66 -0.698586 1.41271 0
M  V30 20215 C 1914.08 -1.0088 1.23674 0
M  V30 20216 C 1914.28 -2.01118 0.123961 0
M  V30 20217 O 1913.33 -2.47242 -0.512628 0
M  V30 20218 C 1914.65 -1.53629 2.58493 0
M  V30 20219 C 1916.19 -1.65528 2.65649 0
M  V30 20220 C 1916.67 -2.21679 4.00777 0
M  V30 20221 N 1918.16 -2.29044 4.02608 0
M  V30 20222 C 1918.9 -2.73512 5.03963 0
M  V30 20223 N 1918.39 -3.17607 6.15709 0
M  V30 20224 N 1920.18 -2.73049 4.91326 0
M  V30 20225 H 1912.34 -0.0344888 2.12372 0
M  V30 20226 H 1914.6 -0.0778742 0.944796 0
M  V30 20227 H 1914.3 -0.874339 3.40658 0
M  V30 20228 H 1914.18 -2.51891 2.80768 0
M  V30 20229 H 1916.57 -2.30836 1.83844 0
M  V30 20230 H 1916.65 -0.658201 2.47187 0
M  V30 20231 H 1916.29 -1.56988 4.83029 0
M  V30 20232 H 1916.22 -3.22134 4.16578 0
M  V30 20233 H 1918.71 -1.97922 3.21924 0
M  V30 20234 H 1919.02 -3.50155 6.88921 0
M  V30 20235 H 1917.37 -3.15523 6.1925 0
M  V30 20236 H 1920.56 -2.37947 4.03112 0
M  V30 20237 H 1920.73 -3.07386 5.70454 0
M  V30 20238 N 1914.14 -1.27049 -0.93254 0
M  V30 20239 C 1915.09 -1.09183 -2.05382 0
M  V30 20240 C 1916.08 -0.0162863 -1.69392 0
M  V30 20241 O 1917.29 -0.173635 -1.79161 0
M  V30 20242 H 1913.66 -0.336282 -0.67262 0
M  V30 20243 H 1915.63 -2.04189 -2.17599 0
M  V30 20244 C 1914.38 -0.750687 -3.395 0
M  V30 20245 H 1913.71 -1.57019 -3.67675 0
M  V30 20246 H 1915.15 -0.665521 -4.18744 0
M  V30 20247 C 1913.6 0.544676 -3.32468 0
M  V30 20248 O 1914.13 1.58051 -3.69301 0
M  V30 20249 N 1912.34 0.538506 -2.85567 0
M  V30 20250 H 1911.89 -0.304834 -2.5579 0
M  V30 20251 H 1911.85 1.4053 -2.81245 0
M  V30 20252 N 1915.62 1.13835 -1.08993 0
M  V30 20253 C 1916.56 2.19107 -0.725298 0
M  V30 20254 C 1917.53 1.63524 0.291368 0
M  V30 20255 O 1918.72 1.90005 0.174014 0
M  V30 20256 C 1915.86 3.44786 -0.147212 0
M  V30 20257 C 1914.97 4.14492 -1.21738 0
M  V30 20258 C 1914.11 5.27772 -0.602519 0
M  V30 20259 C 1913.15 5.89321 -1.65431 0
M  V30 20260 N 1912.28 6.9404 -1.0608 0
M  V30 20261 H 1917.12 2.49646 -1.6273 0
M  V30 20262 H 1914.66 1.22585 -0.813108 0
M  V30 20263 H 1916.62 4.16692 0.205719 0
M  V30 20264 H 1915.25 3.14712 0.718077 0
M  V30 20265 H 1914.3 3.40914 -1.68766 0
M  V30 20266 H 1915.61 4.56325 -2.01417 0
M  V30 20267 H 1914.77 6.06376 -0.198177 0
M  V30 20268 H 1913.51 4.87177 0.225868 0
M  V30 20269 H 1912.51 5.09415 -2.06824 0
M  V30 20270 H 1913.74 6.3199 -2.48528 0
M  V30 20271 H 1911.68 6.5551 -0.253616 0
M  V30 20272 H 1911.6 7.34391 -1.79461 0
M  V30 20273 H 1912.87 7.76506 -0.682517 0
M  V30 20274 N 1917.1 0.876467 1.3098 0
M  V30 20275 C 1918.03 0.352925 2.30817 0
M  V30 20276 C 1919.01 -0.559675 1.60629 0
M  V30 20277 O 1920.19 -0.475326 1.88293 0
M  V30 20278 C 1917.32 -0.440827 3.44491 0
M  V30 20279 C 1916.28 0.379253 4.26316 0
M  V30 20280 C 1915.6 -0.540582 5.3196 0
M  V30 20281 C 1916.9 1.61682 4.96645 0
M  V30 20282 H 1918.6 1.18719 2.74857 0
M  V30 20283 H 1916.14 0.572316 1.32138 0
M  V30 20284 H 1918.09 -0.817661 4.13391 0
M  V30 20285 H 1916.82 -1.30866 2.99235 0
M  V30 20286 H 1915.48 0.738117 3.59092 0
M  V30 20287 H 1915.13 -1.40588 4.82953 0
M  V30 20288 H 1914.83 0.00427133 5.876 0
M  V30 20289 H 1916.35 -0.914118 6.03719 0
M  V30 20290 H 1917.76 1.31105 5.58108 0
M  V30 20291 H 1916.16 2.10123 5.62111 0
M  V30 20292 H 1917.23 2.36602 4.23258 0
M  V30 20293 N 1918.57 -1.44173 0.636557 0
M  V30 20294 C 1919.99 -1.56704 0.302646 0
M  V30 20295 C 1920.19 -1.62316 -1.19398 0
M  V30 20296 O 1919.25 -1.56914 -1.97824 0
M  V30 20297 C 1920.56 -2.83608 0.999346 0
M  V30 20298 C 1922.11 -2.97328 0.978005 0
M  V30 20299 C 1922.58 -4.27042 1.65527 0
M  V30 20300 N 1924.07 -4.33868 1.62212 0
M  V30 20301 C 1924.81 -5.32966 2.11505 0
M  V30 20302 N 1924.3 -6.38439 2.69012 0
M  V30 20303 N 1926.1 -5.24511 2.02102 0
M  V30 20304 H 1918.25 -1.38773 1.60797 0
M  V30 20305 H 1920.51 -0.665369 0.675269 0
M  V30 20306 H 1920.22 -2.85466 2.05432 0
M  V30 20307 H 1920.09 -3.73308 0.540484 0
M  V30 20308 H 1922.48 -2.9502 -0.0685065 0
M  V30 20309 H 1922.56 -2.08963 1.47541 0
M  V30 20310 H 1922.2 -4.30109 2.70126 0
M  V30 20311 H 1922.13 -5.14275 1.13266 0
M  V30 20312 H 1924.62 -3.58264 1.20231 0
M  V30 20313 H 1924.94 -7.10348 3.04344 0
M  V30 20314 H 1923.28 -6.39109 2.73066 0
M  V30 20315 H 1926.47 -4.41024 1.56892 0
M  V30 20316 H 1926.65 -6.01586 2.40828 0
M  V30 20317 N 1920.05 -0.377435 -1.53014 0
M  V30 20318 C 1921.47 -0.0268747 -1.59577 0
M  V30 20319 C 1921.67 1.45688 -1.39202 0
M  V30 20320 O 1920.72 2.21996 -1.20309 0
M  V30 20321 C 1922.04 -0.493431 -2.96624 0
M  V30 20322 C 1923.58 -0.448667 -3.09768 0
M  V30 20323 C 1924.06 -0.891223 -4.49245 0
M  V30 20324 N 1925.55 -0.846756 -4.55395 0
M  V30 20325 C 1926.29 -1.16074 -5.61529 0
M  V30 20326 N 1925.78 -1.5446 -6.75362 0
M  V30 20327 N 1927.57 -1.08276 -5.51573 0
M  V30 20328 H 1919.73 -1.34353 -1.64508 0
M  V30 20329 H 1921.99 -0.549926 -0.772195 0
M  V30 20330 H 1921.69 -1.52927 -3.16712 0
M  V30 20331 H 1921.57 0.113748 -3.77028 0
M  V30 20332 H 1923.96 0.578058 -2.89383 0
M  V30 20333 H 1924.04 -1.0915 -2.31344 0
M  V30 20334 H 1923.68 -1.91612 -4.70369 0
M  V30 20335 H 1923.61 -0.225524 -5.26117 0
M  V30 20336 H 1926.1 -0.564127 -3.73666 0
M  V30 20337 H 1926.41 -1.76813 -7.52301 0
M  V30 20338 H 1924.76 -1.58336 -6.76724 0
M  V30 20339 H 1927.95 -0.781974 -4.61522 0
M  V30 20340 H 1928.12 -1.33078 -6.34188 0
M  V30 20341 N 1921.53 1.57237 -0.106922 0
M  V30 20342 C 1922.46 2.11718 0.877968 0
M  V30 20343 C 1923.48 1.0571 1.23812 0
M  V30 20344 O 1924.66 1.3312 1.18917 0
M  V30 20345 C 1921.76 2.59182 2.18352 0
M  V30 20346 C 1920.94 3.89156 1.99691 0
M  V30 20347 C 1920 4.22344 3.13866 0
M  V30 20348 O 1919.02 4.91367 2.87309 0
M  V30 20349 N 1920.22 3.78694 4.39967 0
M  V30 20350 H 1922.99 2.96846 0.412584 0
M  V30 20351 H 1920.55 1.61713 0.0778505 0
M  V30 20352 H 1922.54 2.78423 2.93706 0
M  V30 20353 H 1921.11 1.78999 2.56277 0
M  V30 20354 H 1920.33 3.78945 1.086 0
M  V30 20355 H 1921.62 4.74165 1.84514 0
M  V30 20356 H 1921.02 3.23 4.64422 0
M  V30 20357 H 1919.58 4.03067 5.12231 0
M  V30 20358 N 1923.01 -0.166818 1.56715 0
M  V30 20359 C 1923.96 -1.2112 1.93168 0
M  V30 20360 C 1924.94 -1.39572 0.800525 0
M  V30 20361 O 1926.13 -1.41467 1.06377 0
M  V30 20362 C 1923.26 -2.54958 2.29894 0
M  V30 20363 C 1922.35 -2.40181 3.49534 0
M  V30 20364 N 1922.74 -1.95125 4.66647 0
M  V30 20365 C 1921.04 -2.70994 3.54229 0
M  V30 20366 C 1921.74 -1.92918 5.48778 0
M  V30 20367 N 1920.72 -2.35491 4.89944 0
M  V30 20368 H 1924.52 -0.854619 2.812 0
M  V30 20369 H 1922.03 -0.375053 1.5801 0
M  V30 20370 H 1924.03 -3.30431 2.54206 0
M  V30 20371 H 1922.69 -2.91415 1.43203 0
M  V30 20372 H 1923.7 -1.65393 4.9078 0
M  V30 20373 H 1920.38 -3.11458 2.78029 0
M  V30 20374 H 1921.77 -1.59744 6.52634 0
M  V30 20375 N 1924.49 -1.51463 -0.435524 0
M  V30 20376 C 1925.71 -1.68316 -1.21179 0
M  V30 20377 C 1926.14 -0.380709 -1.84207 0
M  V30 20378 O 1925.49 0.659318 -1.68887 0
M  V30 20379 C 1925.54 -2.80168 -2.27021 0
M  V30 20380 O 1924.65 -2.43897 -3.32548 0
M  V30 20381 H 1923.99 -0.561165 -0.35495 0
M  V30 20382 H 1926.52 -1.98036 -0.514097 0
M  V30 20383 H 1926.53 -3.04305 -2.71776 0
M  V30 20384 H 1925.2 -3.74678 -1.80524 0
M  V30 20385 H 1923.78 -2.30337 -2.93256 0
M  V30 20386 N 1925.96 0.691085 -1.4164 0
M  V30 20387 C 1927.19 1.47764 -1.44393 0
M  V30 20388 C 1927.6 1.89137 -0.0489239 0
M  V30 20389 O 1926.95 1.57642 0.943111 0
M  V30 20390 C 1927.01 2.76837 -2.29351 0
M  V30 20391 C 1926.67 2.5764 -3.77453 0
M  V30 20392 C 1927.67 2.23295 -4.69505 0
M  V30 20393 C 1925.35 2.73141 -4.21544 0
M  V30 20394 C 1927.35 2.04696 -6.03638 0
M  V30 20395 C 1925.03 2.54158 -5.5574 0
M  V30 20396 C 1926.03 2.19987 -6.46603 0
M  V30 20397 O 1925.72 2.01173 -7.78322 0
M  V30 20398 H 1925.45 0.461744 -0.493729 0
M  V30 20399 H 1928.01 0.857998 -1.86621 0
M  V30 20400 H 1926.24 3.41223 -1.81944 0
M  V30 20401 H 1927.93 3.38659 -2.23752 0
M  V30 20402 H 1928.69 2.1093 -4.36731 0
M  V30 20403 H 1924.57 2.98721 -3.51122 0
M  V30 20404 H 1928.11 1.77947 -6.74523 0
M  V30 20405 H 1924.01 2.66115 -5.88093 0
M  V30 20406 H 1924.78 2.15901 -7.89512 0
M  V30 20407 N 1927.44 1.27542 0.925789 0
M  V30 20408 C 1928.72 1.04714 1.6521 0
M  V30 20409 C 1929.1 -0.417492 2.0693 0
M  V30 20410 O 1928.45 -1.40112 1.80502 0
M  V30 20411 C 1928.66 2.0105 2.85272 0
M  V30 20412 C 1930.01 2.30526 3.56571 0
M  V30 20413 O 1931.03 1.99038 2.95402 0
M  V30 20414 O 1929.89 2.84211 4.66783 0
M  V30 20415 H 1926.98 0.399325 0.724202 0
M  V30 20416 H 1929.53 1.38814 0.976156 0
M  V30 20417 H 1928.3 2.99817 2.51447 0
M  V30 20418 H 1927.92 1.67523 3.60585 0
M  V30 20419 N 1928.92 -1.13255 1.09595 0
M  V30 20420 C 1930.15 -1.88411 0.854927 0
M  V30 20421 C 1930.56 -1.79214 -0.593949 0
M  V30 20422 O 1929.92 -1.15995 -1.40895 0
M  V30 20423 C 1929.97 -3.37946 1.28353 0
M  V30 20424 O 1929.69 -3.46907 2.67558 0
M  V30 20425 C 1931.19 -4.30065 1.07514 0
M  V30 20426 H 1928.41 -0.596416 0.307455 0
M  V30 20427 H 1930.96 -1.43358 1.45838 0
M  V30 20428 H 1929.11 -3.80576 0.72393 0
M  V30 20429 H 1929.53 -4.39878 2.8567 0
M  V30 20430 H 1931 -5.33309 1.42428 0
M  V30 20431 H 1931.48 -4.39198 0.0130611 0
M  V30 20432 H 1932.08 -3.93206 1.62077 0
M  V30 20433 N 1930.4 -0.883401 -1.30514 0
M  V30 20434 C 1931.65 -0.501052 -1.96203 0
M  V30 20435 C 1931.97 0.949454 -1.69752 0
M  V30 20436 O 1931.23 1.68571 -0.994097 0
M  V30 20437 C 1931.53 -0.720655 -3.50059 0
M  V30 20438 C 1931.19 -2.146 -3.96557 0
M  V30 20439 C 1929.86 -2.53577 -4.08964 0
M  V30 20440 C 1932.21 -3.07496 -4.20827 0
M  V30 20441 C 1929.54 -3.84664 -4.43002 0
M  V30 20442 C 1931.89 -4.38113 -4.56333 0
M  V30 20443 C 1930.55 -4.76985 -4.66949 0
M  V30 20444 H 1929.82 -0.183348 -0.717959 0
M  V30 20445 H 1932.47 -1.11895 -1.55408 0
M  V30 20446 H 1930.77 -0.0197082 -3.91795 0
M  V30 20447 H 1932.47 -0.404442 -3.98955 0
M  V30 20448 H 1929.06 -1.83345 -3.87405 0
M  V30 20449 H 1933.24 -2.78604 -4.10723 0
M  V30 20450 H 1928.5 -4.14526 -4.4942 0
M  V30 20451 H 1932.67 -5.10133 -4.74064 0
M  V30 20452 H 1930.3 -5.786 -4.93079 0
M  V30 20453 N 1931.88 1.43833 -0.644194 0
M  V30 20454 C 1933.12 2.02213 -0.154155 0
M  V30 20455 C 1933.46 1.50648 1.22551 0
M  V30 20456 O 1932.73 0.69587 1.81626 0
M  V30 20457 C 1933.01 3.59766 -0.155107 0
M  V30 20458 C 1932.87 4.21583 -1.56804 0
M  V30 20459 C 1934.19 4.37096 0.513365 0
M  V30 20460 H 1931.3 0.734754 -0.0574913 0
M  V30 20461 H 1933.95 1.71243 -0.823159 0
M  V30 20462 H 1932.1 3.86282 0.414568 0
M  V30 20463 H 1933.77 4.0613 -2.18761 0
M  V30 20464 H 1932.01 3.78578 -2.11804 0
M  V30 20465 H 1932.68 5.30642 -1.52064 0
M  V30 20466 H 1935.16 4.1609 0.0287668 0
M  V30 20467 H 1934.03 5.4678 0.481936 0
M  V30 20468 H 1934.3 4.12673 1.58597 0
M  V30 20469 N 1933.35 0.385544 1.52811 0
M  V30 20470 C 1934.63 -0.255227 1.93928 0
M  V30 20471 C 1935.01 -1.64683 1.32071 0
M  V30 20472 O 1934.36 -2.23242 0.487363 0
M  V30 20473 C 1934.57 -0.285363 3.47831 0
M  V30 20474 C 1935.92 -0.516126 4.21451 0
M  V30 20475 O 1936.94 -0.365732 3.54317 0
M  V30 20476 O 1935.8 -0.810503 5.40456 0
M  V30 20477 H 1932.89 -0.157694 0.811826 0
M  V30 20478 H 1935.44 0.439779 1.63903 0
M  V30 20479 H 1934.21 0.68954 3.85177 0
M  V30 20480 H 1933.84 -1.02545 3.84149 0
M  V30 20481 N 1934.83 -1.57178 0.115259 0
M  V30 20482 C 1935.76 -2.18134 -0.833042 0
M  V30 20483 C 1936.74 -1.12033 -1.27995 0
M  V30 20484 O 1937.93 -1.40254 -1.34323 0
M  V30 20485 C 1935.06 -2.77778 -2.08463 0
M  V30 20486 C 1934.01 -3.89429 -1.77565 0
M  V30 20487 C 1933.34 -4.35863 -3.09722 0
M  V30 20488 C 1934.64 -5.11701 -1.04687 0
M  V30 20489 H 1936.33 -2.9763 -0.325107 0
M  V30 20490 H 1933.88 -1.43164 -0.154933 0
M  V30 20491 H 1935.83 -3.19079 -2.75258 0
M  V30 20492 H 1934.56 -1.95566 -2.61575 0
M  V30 20493 H 1933.21 -3.48698 -1.13161 0
M  V30 20494 H 1932.86 -3.50515 -3.6076 0
M  V30 20495 H 1932.56 -5.11152 -2.89823 0
M  V30 20496 H 1934.09 -4.79812 -3.77641 0
M  V30 20497 H 1935.5 -5.50045 -1.61628 0
M  V30 20498 H 1933.9 -5.92549 -0.948964 0
M  V30 20499 H 1934.97 -4.84889 -0.032977 0
M  V30 20500 N 1936.31 0.158505 -1.56801 0
M  V30 20501 C 1937.24 1.22086 -1.93978 0
M  V30 20502 C 1938.26 1.39798 -0.834291 0
M  V30 20503 O 1939.45 1.39573 -1.11272 0
M  V30 20504 C 1936.55 2.58757 -2.18857 0
M  V30 20505 C 1935.72 2.62175 -3.50118 0
M  V30 20506 C 1934.78 3.80301 -3.63673 0
M  V30 20507 O 1933.8 3.65706 -4.36174 0
M  V30 20508 N 1935.01 4.97286 -2.99477 0
M  V30 20509 H 1937.77 0.904964 -2.8571 0
M  V30 20510 H 1935.33 0.348168 -1.58112 0
M  V30 20511 H 1937.32 3.3627 -2.25177 0
M  V30 20512 H 1935.89 2.82685 -1.33446 0
M  V30 20513 H 1935.11 1.70662 -3.55342 0
M  V30 20514 H 1936.4 2.61481 -4.36469 0
M  V30 20515 H 1935.8 5.12046 -2.40469 0
M  V30 20516 H 1934.36 5.72616 -3.11375 0
M  V30 20517 N 1937.79 1.51692 0.427485 0
M  V30 20518 C 1938.74 1.73716 1.51958 0
M  V30 20519 C 1939.71 0.579073 1.55679 0
M  V30 20520 O 1940.89 0.814605 1.72536 0
M  V30 20521 C 1938.03 1.87709 2.89585 0
M  V30 20522 C 1937.14 3.15297 2.95317 0
M  V30 20523 C 1936.28 3.19827 4.24128 0
M  V30 20524 C 1935.32 4.4169 4.23764 0
M  V30 20525 N 1934.46 4.43715 5.44116 0
M  V30 20526 H 1939.3 2.66933 1.3248 0
M  V30 20527 H 1936.83 1.32283 0.643393 0
M  V30 20528 H 1938.79 1.93804 3.69454 0
M  V30 20529 H 1937.42 0.978912 3.07599 0
M  V30 20530 H 1936.47 3.18464 2.08051 0
M  V30 20531 H 1937.78 4.05182 2.90911 0
M  V30 20532 H 1936.94 3.24892 5.12377 0
M  V30 20533 H 1935.68 2.27848 4.31204 0
M  V30 20534 H 1934.68 4.36791 3.33907 0
M  V30 20535 H 1935.91 5.34944 4.18343 0
M  V30 20536 H 1933.85 3.5461 5.51894 0
M  V30 20537 H 1933.77 5.27421 5.4163 0
M  V30 20538 H 1935.04 4.52986 6.34369 0
M  V30 20539 N 1939.27 -0.683564 1.42004 0
M  V30 20540 C 1940.18 -1.82689 1.4718 0
M  V30 20541 C 1941.19 -1.70208 0.361298 0
M  V30 20542 O 1942.37 -1.91912 0.610867 0
M  V30 20543 C 1939.43 -3.18767 1.3634 0
M  V30 20544 C 1938.5 -3.43269 2.57808 0
M  V30 20545 C 1937.73 -4.72855 2.47476 0
M  V30 20546 O 1937.95 -5.50164 1.50584 0
M  V30 20547 O 1936.89 -4.98407 3.37452 0
M  V30 20548 H 1940.71 -1.81279 2.43663 0
M  V30 20549 H 1938.3 -0.838182 1.23672 0
M  V30 20550 H 1940.18 -3.99986 1.32624 0
M  V30 20551 H 1938.85 -3.20834 0.429781 0
M  V30 20552 H 1937.76 -2.61933 2.67099 0
M  V30 20553 H 1939.09 -3.46025 3.50039 0
M  V30 20554 N 1940.75 -1.28031 -0.919012 0
M  V30 20555 C 1941.66 -1.13341 -2.05404 0
M  V30 20556 C 1942.67 -0.0612715 -1.73892 0
M  V30 20557 O 1943.85 -0.26951 -1.99589 0
M  V30 20558 C 1940.91 -0.791143 -3.37553 0
M  V30 20559 C 1939.97 -1.94509 -3.82707 0
M  V30 20560 C 1939.21 -1.61905 -5.08549 0
M  V30 20561 O 1939.43 -0.530962 -5.67923 0
M  V30 20562 O 1938.36 -2.46102 -5.49288 0
M  V30 20563 H 1942.19 -2.08613 -2.20713 0
M  V30 20564 H 1939.77 -1.073 -1.03957 0
M  V30 20565 H 1941.66 -0.613981 -4.16903 0
M  V30 20566 H 1940.33 0.131966 -3.23431 0
M  V30 20567 H 1939.24 -2.17737 -3.04206 0
M  V30 20568 H 1940.57 -2.84871 -4.01384 0
M  V30 20569 N 1942.22 1.12672 -1.10194 0
M  V30 20570 C 1943.19 2.16513 -0.751974 0
M  V30 20571 C 1944.19 1.59255 0.222352 0
M  V30 20572 O 1945.38 1.742 -0.000482744 0
M  V30 20573 C 1942.51 3.40711 -0.113421 0
M  V30 20574 H 1943.7 2.48986 -1.67171 0
M  V30 20575 H 1941.25 1.27637 -0.90214 0
M  V30 20576 H 1941.99 3.13836 0.817162 0
M  V30 20577 H 1941.77 3.83545 -0.814599 0
M  V30 20578 H 1943.26 4.1744 0.115756 0
M  V30 20579 N 1943.7 0.89031 1.30043 0
M  V30 20580 C 1944.66 0.365912 2.2626 0
M  V30 20581 C 1945.66 -0.494616 1.53004 0
M  V30 20582 O 1946.85 -0.301009 1.7158 0
M  V30 20583 C 1943.99 -0.477952 3.37533 0
M  V30 20584 H 1945.18 1.21557 2.7416 0
M  V30 20585 H 1942.73 0.667628 1.41324 0
M  V30 20586 H 1943.47 -1.34798 2.94958 0
M  V30 20587 H 1943.25 0.138514 3.91855 0
M  V30 20588 H 1944.74 -0.836463 4.09137 0
M  V30 20589 N 1945.18 -1.43489 0.651812 0
M  V30 20590 C 1946.11 -2.33484 -0.0271093 0
M  V30 20591 C 1947.09 -1.4939 -0.813427 0
M  V30 20592 O 1948.28 -1.78058 -0.775186 0
M  V30 20593 C 1945.41 -3.32737 -0.995143 0
M  V30 20594 C 1944.36 -4.26809 -0.319036 0
M  V30 20595 C 1943.69 -5.1609 -1.39842 0
M  V30 20596 C 1944.99 -5.16326 0.787692 0
M  V30 20597 H 1946.68 -2.90503 0.724441 0
M  V30 20598 H 1944.23 -1.39686 0.349826 0
M  V30 20599 H 1946.18 -3.94593 -1.479 0
M  V30 20600 H 1944.9 -2.73972 -1.77784 0
M  V30 20601 H 1943.56 -3.66316 0.144366 0
M  V30 20602 H 1943.21 -4.53664 -2.17251 0
M  V30 20603 H 1942.91 -5.79848 -0.951292 0
M  V30 20604 H 1944.43 -5.80819 -1.88367 0
M  V30 20605 H 1945.85 -5.71999 0.386053 0
M  V30 20606 H 1944.24 -5.88798 1.1592 0
M  V30 20607 H 1945.31 -4.56099 1.64626 0
M  V30 20608 N 1946.66 -0.393643 -1.52605 0
M  V30 20609 C 1947.62 0.427358 -2.25181 0
M  V30 20610 C 1948.62 0.986595 -1.26976 0
M  V30 20611 O 1949.81 0.867913 -1.51039 0
M  V30 20612 C 1946.94 1.60001 -3.01019 0
M  V30 20613 H 1948.14 -0.208101 -2.99177 0
M  V30 20614 H 1945.69 -0.145844 -1.55618 0
M  V30 20615 H 1946.42 2.27278 -2.31334 0
M  V30 20616 H 1946.21 1.20567 -3.73103 0
M  V30 20617 H 1947.7 2.18115 -3.56112 0
M  V30 20618 N 1948.14 1.57115 -0.123593 0
M  V30 20619 C 1949.55 1.82342 0.401051 0
M  V30 20620 C 1949.9 1.04102 1.66304 0
M  V30 20621 O 1949.02 0.279024 2.14594 0
M  V30 20622 C 1949.62 3.30745 0.734394 0
M  V30 20623 C 1948.18 3.56636 1.20365 0
M  V30 20624 C 1947.32 2.76468 0.214686 0
M  V30 20625 H 1950.27 1.54823 -0.348657 0
M  V30 20626 H 1950.3 3.45624 1.59137 0
M  V30 20627 H 1949.81 3.87662 -0.184288 0
M  V30 20628 H 1947.91 3.05081 2.13908 0
M  V30 20629 H 1948.02 4.65197 1.1458 0
M  V30 20630 H 1946.39 2.44816 0.702648 0
M  V30 20631 H 1947.17 3.36146 -0.697174 0
M  V30 20632 N 1949.61 -0.150187 1.56883 0
M  V30 20633 C 1951.03 -0.502717 1.51476 0
M  V30 20634 C 1951.23 -1.83545 0.831478 0
M  V30 20635 O 1950.29 -2.49301 0.400671 0
M  V30 20636 C 1951.6 -0.515965 2.9624 0
M  V30 20637 C 1953.15 -0.601702 3.07162 0
M  V30 20638 C 1953.62 -0.645643 4.53426 0
M  V30 20639 N 1955.11 -0.707954 4.57758 0
M  V30 20640 C 1955.85 -0.762883 5.68302 0
M  V30 20641 N 1955.34 -0.777353 6.88425 0
M  V30 20642 N 1957.14 -0.803521 5.56327 0
M  V30 20643 H 1949.29 0.723442 1.997 0
M  V30 20644 H 1951.55 0.263405 0.910671 0
M  V30 20645 H 1951.26 0.395034 3.49474 0
M  V30 20646 H 1951.13 -1.35501 3.52022 0
M  V30 20647 H 1953.52 -1.50312 2.53949 0
M  V30 20648 H 1953.6 0.26443 2.5443 0
M  V30 20649 H 1953.24 0.251606 5.07276 0
M  V30 20650 H 1953.17 -1.52822 5.03937 0
M  V30 20651 H 1955.66 -0.7042 3.71281 0
M  V30 20652 H 1955.98 -0.821026 7.68426 0
M  V30 20653 H 1954.32 -0.745281 6.90992 0
M  V30 20654 H 1957.51 -0.789365 4.61396 0
M  V30 20655 H 1957.69 -0.842864 6.42495 0
M  V30 20656 N 1951.09 -1.51916 -0.419434 0
M  V30 20657 C 1952.32 -1.69592 -1.19387 0
M  V30 20658 C 1952.74 -0.400225 -1.83793 0
M  V30 20659 O 1952.1 0.641368 -1.69576 0
M  V30 20660 C 1952.15 -2.8256 -2.24036 0
M  V30 20661 O 1951.25 -2.4741 -3.29942 0
M  V30 20662 H 1950.59 -0.564898 -0.348978 0
M  V30 20663 H 1953.12 -1.9857 -0.493064 0
M  V30 20664 H 1953.13 -3.07171 -2.68533 0
M  V30 20665 H 1951.81 -3.76572 -1.7654 0
M  V30 20666 H 1950.39 -2.33435 -2.90796 0
M  V30 20667 N 1952.57 0.676023 -1.42365 0
M  V30 20668 C 1953.82 1.43821 -1.4298 0
M  V30 20669 C 1954.15 1.94147 -0.0455702 0
M  V30 20670 O 1953.42 1.70826 0.929976 0
M  V30 20671 C 1953.71 2.63612 -2.45318 0
M  V30 20672 C 1953.56 2.18926 -3.92927 0
M  V30 20673 C 1954.88 3.65827 -2.4466 0
M  V30 20674 H 1952 0.521622 -0.520653 0
M  V30 20675 H 1954.64 0.76837 -1.7377 0
M  V30 20676 H 1952.79 3.2076 -2.19193 0
M  V30 20677 H 1954.46 1.66955 -4.30028 0
M  V30 20678 H 1952.71 1.50512 -4.06852 0
M  V30 20679 H 1953.38 3.04965 -4.60109 0
M  V30 20680 H 1955.85 3.18393 -2.6789 0
M  V30 20681 H 1954.73 4.47226 -3.18245 0
M  V30 20682 H 1954.99 4.1687 -1.47213 0
M  V30 20683 N 1954.05 1.28517 0.912209 0
M  V30 20684 C 1955.27 1.18732 1.70052 0
M  V30 20685 C 1955.7 -0.250323 1.86427 0
M  V30 20686 O 1955.06 -1.18105 1.37553 0
M  V30 20687 C 1955.1 1.89256 3.06944 0
M  V30 20688 O 1954.21 1.20108 3.94522 0
M  V30 20689 H 1953.55 0.412087 0.520654 0
M  V30 20690 H 1956.08 1.69866 1.14048 0
M  V30 20691 H 1956.09 1.97223 3.57165 0
M  V30 20692 H 1954.76 2.93829 2.94343 0
M  V30 20693 H 1953.34 1.20315 3.52957 0
M  V30 20694 N 1955.53 -1.12086 1.1079 0
M  V30 20695 C 1956.46 -2.2001 0.78217 0
M  V30 20696 C 1957.44 -1.68305 -0.246488 0
M  V30 20697 O 1958.62 -1.9388 -0.111448 0
M  V30 20698 C 1955.75 -3.4662 0.2172 0
M  V30 20699 C 1954.71 -4.11499 1.17696 0
M  V30 20700 C 1954.03 -5.32604 0.47302 0
M  V30 20701 C 1955.33 -4.5721 2.52501 0
M  V30 20702 H 1957.03 -2.47514 1.68456 0
M  V30 20703 H 1954.57 -1.18964 0.811397 0
M  V30 20704 H 1956.53 -4.21394 -0.0228381 0
M  V30 20705 H 1955.25 -3.18555 -0.720448 0
M  V30 20706 H 1953.91 -3.38711 1.40252 0
M  V30 20707 H 1953.56 -5.00807 -0.469217 0
M  V30 20708 H 1953.26 -5.76961 1.11308 0
M  V30 20709 H 1954.78 -6.10122 0.241615 0
M  V30 20710 H 1956.19 -5.23338 2.34073 0
M  V30 20711 H 1954.59 -5.12357 3.12426 0
M  V30 20712 H 1955.66 -3.71003 3.12226 0
M  V30 20713 N 1957 -0.897194 -1.29569 0
M  V30 20714 C 1957.95 -0.371435 -2.27792 0
M  V30 20715 C 1958.92 0.545087 -1.56901 0
M  V30 20716 O 1960.11 0.47087 -1.84899 0
M  V30 20717 C 1957.25 0.397236 -3.42806 0
M  V30 20718 C 1956.36 -0.549895 -4.28486 0
M  V30 20719 C 1955.49 0.23558 -5.30677 0
M  V30 20720 C 1954.53 -0.706236 -6.08012 0
M  V30 20721 N 1953.67 0.0446763 -7.02086 0
M  V30 20722 H 1958.51 -1.21414 -2.72145 0
M  V30 20723 H 1956.05 -0.610055 -1.33853 0
M  V30 20724 H 1958.01 0.858933 -4.08262 0
M  V30 20725 H 1956.64 1.20441 -2.99489 0
M  V30 20726 H 1955.69 -1.13011 -3.63226 0
M  V30 20727 H 1957 -1.27092 -4.82337 0
M  V30 20728 H 1956.15 0.758588 -6.01939 0
M  V30 20729 H 1954.89 0.989757 -4.77551 0
M  V30 20730 H 1953.9 -1.24077 -5.35617 0
M  V30 20731 H 1955.12 -1.4597 -6.63227 0
M  V30 20732 H 1953.07 0.781165 -6.51332 0
M  V30 20733 H 1952.99 -0.616488 -7.53482 0
M  V30 20734 H 1954.25 0.548029 -7.77571 0
M  V30 20735 N 1958.48 1.43142 -0.659413 0
M  V30 20736 C 1959.76 1.95318 -0.104973 0
M  V30 20737 C 1960.14 1.60048 1.37651 0
M  V30 20738 O 1959.49 0.888746 2.10508 0
M  V30 20739 C 1959.7 3.47161 -0.357769 0
M  V30 20740 C 1961.05 4.23766 -0.26602 0
M  V30 20741 O 1962.07 3.55012 -0.290667 0
M  V30 20742 O 1960.93 5.46152 -0.195021 0
M  V30 20743 H 1958.02 0.826978 0.0060428 0
M  V30 20744 H 1960.57 1.53049 -0.733079 0
M  V30 20745 H 1959.34 3.65983 -1.38465 0
M  V30 20746 H 1958.96 3.96443 0.303102 0
M  V30 20747 N 1959.96 0.40173 1.52394 0
M  V30 20748 C 1960.91 -0.427385 2.26808 0
M  V30 20749 C 1961.88 -1.04733 1.28919 0
M  V30 20750 O 1963.06 -1.073 1.5777 0
M  V30 20751 C 1960.2 -1.54211 3.08728 0
M  V30 20752 C 1959.32 -0.943809 4.21564 0
M  V30 20753 C 1958.45 -2.03061 4.90856 0
M  V30 20754 C 1957.49 -1.40886 5.95666 0
M  V30 20755 N 1956.63 -2.4355 6.58504 0
M  V30 20756 H 1961.47 0.21363 2.97233 0
M  V30 20757 H 1959 0.117187 1.46632 0
M  V30 20758 H 1960.96 -2.1993 3.54523 0
M  V30 20759 H 1959.59 -2.15326 2.40488 0
M  V30 20760 H 1958.64 -0.175875 3.79993 0
M  V30 20761 H 1959.96 -0.449559 4.9677 0
M  V30 20762 H 1959.11 -2.76523 5.40018 0
M  V30 20763 H 1957.85 -2.5585 4.15201 0
M  V30 20764 H 1956.85 -0.659546 5.4583 0
M  V30 20765 H 1958.08 -0.888766 6.73259 0
M  V30 20766 H 1956.02 -2.95484 5.85683 0
M  V30 20767 H 1955.94 -1.98916 7.29362 0
M  V30 20768 H 1957.21 -3.16604 7.12308 0
M  V30 20769 N 1961.44 -1.57047 0.131923 0
M  V30 20770 C 1962.69 -1.95245 -0.521892 0
M  V30 20771 C 1963.01 -1.01692 -1.66385 0
M  V30 20772 O 1962.28 -0.0756026 -1.95754 0
M  V30 20773 H 1960.86 -0.720886 -0.195786 0
M  V30 20774 H 1963.52 -1.93831 0.203893 0
M  V30 20775 H 1962.62 -2.986 -0.907979 0
M  V30 20776 N 1962.92 0.141865 -1.5696 0
M  V30 20777 C 1964.33 0.494676 -1.5174 0
M  V30 20778 C 1964.53 1.83101 -0.8412 0
M  V30 20779 O 1963.59 2.49085 -0.413886 0
M  V30 20780 C 1964.9 0.500247 -2.9651 0
M  V30 20781 C 1966.45 0.585404 -3.07477 0
M  V30 20782 C 1966.92 0.621588 -4.53762 0
M  V30 20783 N 1968.42 0.683668 -4.58127 0
M  V30 20784 C 1969.15 0.732734 -5.68699 0
M  V30 20785 N 1968.65 0.740833 -6.88828 0
M  V30 20786 N 1970.44 0.774006 -5.56745 0
M  V30 20787 H 1962.59 -0.734022 -1.99314 0
M  V30 20788 H 1964.85 -0.268231 -0.909261 0
M  V30 20789 H 1964.56 -0.413562 -3.4926 0
M  V30 20790 H 1964.43 1.33632 -3.52735 0
M  V30 20791 H 1966.82 1.48963 -2.54743 0
M  V30 20792 H 1966.9 -0.277919 -2.54286 0
M  V30 20793 H 1966.55 -0.278504 -5.07136 0
M  V30 20794 H 1966.48 1.50147 -5.04741 0
M  V30 20795 H 1968.97 0.6845 -3.71649 0
M  V30 20796 H 1969.28 0.780262 -7.68851 0
M  V30 20797 H 1967.62 0.708625 -6.91378 0
M  V30 20798 H 1970.82 0.764885 -4.61809 0
M  V30 20799 H 1970.99 0.808779 -6.42933 0
M  V30 20800 N 1964.39 1.52136 0.411372 0
M  V30 20801 C 1965.64 1.66085 1.15853 0
M  V30 20802 C 1965.97 0.38968 1.90556 0
M  V30 20803 O 1965.22 -0.62727 1.85375 0
M  V30 20804 C 1965.52 2.832 2.1802 0
M  V30 20805 C 1965.19 4.21504 1.6014 0
M  V30 20806 C 1963.85 4.59124 1.4408 0
M  V30 20807 C 1966.2 5.07702 1.17848 0
M  V30 20808 C 1963.53 5.80621 0.842405 0
M  V30 20809 C 1965.88 6.29802 0.594283 0
M  V30 20810 C 1964.55 6.66172 0.420791 0
M  V30 20811 H 1963.82 0.607749 0.423937 0
M  V30 20812 H 1966.46 1.86233 0.446046 0
M  V30 20813 H 1964.77 2.57378 2.95405 0
M  V30 20814 H 1966.47 2.91189 2.75699 0
M  V30 20815 H 1963.06 3.91858 1.73623 0
M  V30 20816 H 1967.24 4.79224 1.29066 0
M  V30 20817 H 1962.5 6.07426 0.695983 0
M  V30 20818 H 1966.67 6.95921 0.258177 0
M  V30 20819 H 1964.3 7.60187 -0.044991 0
M  V30 20820 N 1965.87 -0.668464 1.42721 0
M  V30 20821 C 1966.81 -1.79325 1.41131 0
M  V30 20822 C 1967.78 -1.60262 0.274724 0
M  V30 20823 O 1968.97 -1.82651 0.465938 0
M  V30 20824 C 1966.1 -3.16415 1.20826 0
M  V30 20825 C 1965.14 -3.54213 2.37561 0
M  V30 20826 S 1965.97 -3.5592 4.00101 0
M  V30 20827 C 1967.13 -4.95693 3.82151 0
M  V30 20828 H 1967.36 -1.80401 2.36311 0
M  V30 20829 H 1964.9 -0.839714 1.29569 0
M  V30 20830 H 1966.85 -3.95543 1.09798 0
M  V30 20831 H 1965.52 -3.12918 0.272206 0
M  V30 20832 H 1964.71 -4.53876 2.19119 0
M  V30 20833 H 1964.31 -2.82461 2.45136 0
M  V30 20834 H 1966.6 -5.83944 3.43534 0
M  V30 20835 H 1967.55 -5.19183 4.81512 0
M  V30 20836 H 1967.95 -4.68509 3.14896 0
M  V30 20837 N 1967.35 -1.28999 -0.905381 0
M  V30 20838 C 1968.63 -1.07329 -1.63523 0
M  V30 20839 C 1969.01 0.384519 -2.07568 0
M  V30 20840 O 1968.36 1.37223 -1.82708 0
M  V30 20841 C 1968.57 -2.05563 -2.82037 0
M  V30 20842 C 1969.91 -2.3617 -3.52858 0
M  V30 20843 O 1970.94 -2.03713 -2.92198 0
M  V30 20844 O 1969.8 -2.91601 -4.62202 0
M  V30 20845 H 1966.89 -0.410796 -0.717757 0
M  V30 20846 H 1969.44 -1.40349 -0.953949 0
M  V30 20847 H 1968.21 -3.03779 -2.46645 0
M  V30 20848 H 1967.83 -1.73238 -3.57875 0
M  V30 20849 N 1968.83 1.11497 -1.11383 0
M  V30 20850 C 1970.08 1.8286 -0.860611 0
M  V30 20851 C 1970.4 1.85032 0.615471 0
M  V30 20852 O 1969.67 1.32047 1.44708 0
M  V30 20853 H 1968.25 0.677153 -0.315392 0
M  V30 20854 H 1970.91 1.34963 -1.40609 0
M  V30 20855 H 1970.01 2.86743 -1.23227 0
M  V30 20856 N 1970.31 0.904053 1.29092 0
M  V30 20857 C 1971.53 0.547082 2.00054 0
M  V30 20858 C 1971.96 -0.862026 1.67185 0
M  V30 20859 O 1971.32 -1.57449 0.898855 0
M  V30 20860 C 1971.36 0.751495 3.52682 0
M  V30 20861 O 1970.47 -0.194004 4.11943 0
M  V30 20862 H 1969.81 0.213241 0.628828 0
M  V30 20863 H 1972.34 1.21683 1.64482 0
M  V30 20864 H 1972.35 0.657831 4.02662 0
M  V30 20865 H 1971.02 1.77878 3.75942 0
M  V30 20866 H 1969.6 -0.0524281 3.72863 0
M  V30 20867 N 1971.79 -1.4279 0.666995 0
M  V30 20868 C 1973.2 -1.84821 0.264217 0
M  V30 20869 C 1973.55 -1.55834 -1.19206 0
M  V30 20870 O 1972.67 -1.01422 -1.91161 0
M  V30 20871 C 1973.27 -3.35485 0.47276 0
M  V30 20872 C 1971.83 -3.76195 0.124176 0
M  V30 20873 C 1970.97 -2.66424 0.768989 0
M  V30 20874 H 1973.92 -1.32747 0.869709 0
M  V30 20875 H 1973.95 -3.79487 -0.277532 0
M  V30 20876 H 1973.46 -3.56551 1.53274 0
M  V30 20877 H 1971.56 -3.60738 -0.932667 0
M  V30 20878 H 1971.67 -4.75825 0.559251 0
M  V30 20879 H 1970.04 -2.53906 0.200994 0
M  V30 20880 H 1970.82 -2.90315 1.83227 0
M  V30 20881 N 1973.26 -0.409806 -1.52179 0
M  V30 20882 C 1974.49 0.164995 -2.0594 0
M  V30 20883 C 1974.9 1.39354 -1.27973 0
M  V30 20884 O 1974.24 1.80802 -0.324989 0
M  V30 20885 C 1974.31 0.579659 -3.54796 0
M  V30 20886 C 1973.97 -0.538248 -4.53819 0
M  V30 20887 C 1974.97 -1.40203 -5.00639 0
M  V30 20888 C 1972.65 -0.711133 -4.97241 0
M  V30 20889 C 1974.65 -2.42363 -5.89524 0
M  V30 20890 C 1972.33 -1.73605 -5.85922 0
M  V30 20891 C 1973.33 -2.5907 -6.31959 0
M  V30 20892 O 1973.02 -3.59806 -7.18884 0
M  V30 20893 H 1972.75 0.0236196 -0.675587 0
M  V30 20894 H 1975.31 -0.579572 -1.97054 0
M  V30 20895 H 1973.54 1.37652 -3.61371 0
M  V30 20896 H 1975.22 1.08246 -3.912 0
M  V30 20897 H 1975.99 -1.27987 -4.67808 0
M  V30 20898 H 1971.87 -0.0555613 -4.60967 0
M  V30 20899 H 1975.41 -3.09106 -6.25379 0
M  V30 20900 H 1971.31 -1.85851 -6.18166 0
M  V30 20901 H 1972.08 -3.56058 -7.36997 0
M  V30 20902 N 1974.74 1.56975 -0.14025 0
M  V30 20903 C 1975.7 2.15234 0.78784 0
M  V30 20904 C 1976.7 1.09243 1.17994 0
M  V30 20905 O 1977.89 1.34916 1.10197 0
M  V30 20906 C 1975.03 2.70994 2.06821 0
M  V30 20907 H 1976.22 2.98579 0.281166 0
M  V30 20908 H 1973.77 1.55918 0.109151 0
M  V30 20909 H 1974.51 1.91297 2.6187 0
M  V30 20910 H 1974.29 3.48532 1.79633 0
M  V30 20911 H 1975.78 3.15904 2.7312 0
M  V30 20912 N 1976.22 -0.133539 1.57033 0
M  V30 20913 C 1977.17 -1.16995 1.95694 0
M  V30 20914 C 1978.15 -1.37843 0.82995 0
M  V30 20915 O 1979.35 -1.39179 1.09353 0
M  V30 20916 C 1976.47 -2.50025 2.3525 0
M  V30 20917 C 1975.56 -2.32713 3.5455 0
M  V30 20918 N 1975.95 -1.85183 4.70681 0
M  V30 20919 C 1974.25 -2.63419 3.59898 0
M  V30 20920 C 1974.95 -1.81235 5.52747 0
M  V30 20921 N 1973.93 -2.25046 4.94829 0
M  V30 20922 H 1977.73 -0.79478 2.8295 0
M  V30 20923 H 1975.24 -0.341452 1.5877 0
M  V30 20924 H 1977.24 -3.24965 2.61158 0
M  V30 20925 H 1975.9 -2.88312 1.49352 0
M  V30 20926 H 1976.91 -1.54946 4.94178 0
M  V30 20927 H 1973.59 -3.05491 2.84572 0
M  V30 20928 H 1974.98 -1.45864 6.55876 0
M  V30 20929 N 1977.7 -1.52352 -0.403298 0
M  V30 20930 C 1978.63 -1.70841 -1.5129 0
M  V30 20931 C 1979.61 -0.556052 -1.52797 0
M  V30 20932 O 1980.79 -0.784118 -1.71417 0
M  V30 20933 C 1977.92 -1.75304 -2.89804 0
M  V30 20934 C 1976.97 -2.96907 -3.06184 0
M  V30 20935 S 1977.8 -4.57148 -2.78884 0
M  V30 20936 C 1978.95 -4.64405 -4.19618 0
M  V30 20937 H 1979.19 -2.64688 -1.35379 0
M  V30 20938 H 1976.72 -1.42464 -0.595253 0
M  V30 20939 H 1978.68 -1.7856 -3.6963 0
M  V30 20940 H 1977.34 -0.825742 -3.03052 0
M  V30 20941 H 1976.53 -2.96529 -4.07537 0
M  V30 20942 H 1976.13 -2.91568 -2.3423 0
M  V30 20943 H 1978.43 -4.4214 -5.1334 0
M  V30 20944 H 1979.37 -5.66362 -4.25017 0
M  V30 20945 H 1979.78 -3.93381 -4.0486 0
M  V30 20946 N 1979.18 0.660885 -1.43074 0
M  V30 20947 C 1980.42 1.42086 -1.44284 0
M  V30 20948 C 1980.75 1.94394 -0.0643177 0
M  V30 20949 O 1980.01 1.72217 0.929509 0
M  V30 20950 C 1980.3 2.6246 -2.42589 0
M  V30 20951 C 1979.97 2.28615 -3.88647 0
M  V30 20952 C 1978.63 2.19096 -4.28428 0
M  V30 20953 C 1980.98 2.0139 -4.8072 0
M  V30 20954 C 1978.31 1.80498 -5.58245 0
M  V30 20955 C 1980.66 1.64293 -6.10893 0
M  V30 20956 C 1979.33 1.53294 -6.49659 0
M  V30 20957 H 1978.6 0.519929 -0.527973 0
M  V30 20958 H 1981.25 0.752296 -1.76104 0
M  V30 20959 H 1979.55 3.34413 -2.04145 0
M  V30 20960 H 1981.25 3.20662 -2.40784 0
M  V30 20961 H 1977.84 2.36931 -3.57158 0
M  V30 20962 H 1982.02 2.0767 -4.50763 0
M  V30 20963 H 1977.28 1.70563 -5.87127 0
M  V30 20964 H 1981.45 1.42256 -6.81716 0
M  V30 20965 H 1979.08 1.23156 -7.50158 0
M  V30 20966 N 1980.65 1.29477 0.898527 0
M  V30 20967 C 1981.56 1.16595 2.03575 0
M  V30 20968 C 1982.58 0.0889285 1.73773 0
M  V30 20969 O 1983.76 0.301228 1.99135 0
M  V30 20970 C 1980.82 0.844745 3.36251 0
M  V30 20971 C 1979.88 2.00573 3.79564 0
M  V30 20972 C 1979.12 1.69975 5.05909 0
M  V30 20973 O 1979.34 0.621246 5.67007 0
M  V30 20974 O 1978.27 2.54809 5.45303 0
M  V30 20975 H 1982.1 2.12098 2.17367 0
M  V30 20976 H 1979.68 1.0894 1.02237 0
M  V30 20977 H 1981.57 0.680229 4.15874 0
M  V30 20978 H 1980.24 -0.080494 3.236 0
M  V30 20979 H 1979.15 2.22549 3.00704 0
M  V30 20980 H 1980.48 2.91221 3.96801 0
M  V30 20981 N 1982.13 -1.10905 1.11972 0
M  V30 20982 C 1983.07 -2.16313 0.726904 0
M  V30 20983 C 1984.04 -1.60178 -0.279598 0
M  V30 20984 O 1985.23 -1.87689 -0.174702 0
M  V30 20985 C 1982.35 -3.38617 0.0751409 0
M  V30 20986 C 1981.4 -4.13432 1.04768 0
M  V30 20987 S 1982.23 -4.6964 2.5729 0
M  V30 20988 C 1983.39 -5.95261 1.9343 0
M  V30 20989 H 1983.62 -2.493 1.61978 0
M  V30 20990 H 1981.16 -1.22617 0.93832 0
M  V30 20991 H 1983.11 -4.09442 -0.294539 0
M  V30 20992 H 1981.77 -3.03879 -0.794774 0
M  V30 20993 H 1980.97 -5.01108 0.539188 0
M  V30 20994 H 1980.57 -3.48394 1.36006 0
M  V30 20995 H 1982.86 -6.65412 1.27411 0
M  V30 20996 H 1983.8 -6.50764 2.79126 0
M  V30 20997 H 1984.21 -5.47064 1.39215 0
M  V30 20998 N 1983.61 -0.910886 -1.2861 0
M  V30 20999 C 1984.84 -0.557684 -1.99761 0
M  V30 21000 C 1985.26 0.853148 -1.67639 0
M  V30 21001 O 1984.62 1.5697 -0.907192 0
M  V30 21002 C 1984.67 -0.770188 -3.52279 0
M  V30 21003 O 1983.77 0.172155 -4.12041 0
M  V30 21004 H 1983.11 -0.216573 -0.627688 0
M  V30 21005 H 1985.64 -1.22554 -1.63834 0
M  V30 21006 H 1985.65 -0.679176 -4.02307 0
M  V30 21007 H 1984.33 -1.79869 -3.74993 0
M  V30 21008 H 1982.9 0.0326535 -3.72886 0
M  V30 21009 N 1985.09 1.42434 -0.674558 0
M  V30 21010 C 1986.05 2.29199 -0.00527063 0
M  V30 21011 C 1987.05 1.43313 0.729245 0
M  V30 21012 O 1988.24 1.64704 0.567284 0
M  V30 21013 C 1985.37 3.25805 1.0032 0
M  V30 21014 H 1986.57 2.89874 -0.768954 0
M  V30 21015 H 1984.12 1.5007 -0.436898 0
M  V30 21016 H 1984.85 2.70068 1.79538 0
M  V30 21017 H 1984.64 3.89152 0.479902 0
M  V30 21018 H 1986.13 3.90875 1.46993 0
M  V30 21019 N 1986.57 0.417871 1.51959 0
M  V30 21020 C 1987.81 -0.154746 2.01507 0
M  V30 21021 C 1988.14 -1.44898 1.30497 0
M  V30 21022 O 1987.41 -1.91043 0.433536 0
M  V30 21023 H 1985.99 -0.0601759 0.744572 0
M  V30 21024 H 1988.65 0.556118 1.86798 0
M  V30 21025 H 1987.74 -0.344616 3.10192 0
M  V30 21026 N 1988.04 -1.56898 0.148573 0
M  V30 21027 C 1988.95 -2.2041 -0.80353 0
M  V30 21028 C 1989.97 -1.18886 -1.27052 0
M  V30 21029 O 1991.15 -1.51468 -1.32738 0
M  V30 21030 C 1988.21 -2.81447 -2.02456 0
M  V30 21031 C 1987.27 -3.98102 -1.60665 0
M  V30 21032 C 1986.51 -4.56219 -2.76948 0
M  V30 21033 O 1986.73 -4.13215 -3.93204 0
M  V30 21034 O 1985.66 -5.46455 -2.52329 0
M  V30 21035 H 1989.49 -3.02284 -0.292881 0
M  V30 21036 H 1987.07 -1.49193 -0.0785299 0
M  V30 21037 H 1988.96 -3.20235 -2.73911 0
M  V30 21038 H 1987.63 -2.02585 -2.5247 0
M  V30 21039 H 1986.54 -3.64027 -0.862287 0
M  V30 21040 H 1987.87 -4.78489 -1.15365 0
M  V30 21041 N 1989.52 0.125209 -1.57102 0
M  V30 21042 C 1990.75 0.852378 -1.89075 0
M  V30 21043 C 1991.17 1.72938 -0.739878 0
M  V30 21044 O 1990.53 1.78633 0.309828 0
M  V30 21045 C 1990.58 1.66688 -3.19762 0
M  V30 21046 O 1989.68 2.77324 -3.0523 0
M  V30 21047 H 1989.02 0.236103 -0.620606 0
M  V30 21048 H 1991.55 0.109473 -2.04307 0
M  V30 21049 H 1991.56 2.0574 -3.52328 0
M  V30 21050 H 1990.24 1.02303 -4.03121 0
M  V30 21051 H 1988.82 2.41519 -2.84118 0
M  V30 21052 N 1991 1.52564 0.395213 0
M  V30 21053 C 1992.23 1.71173 1.16222 0
M  V30 21054 C 1992.64 0.427335 1.839 0
M  V30 21055 O 1992 -0.597726 1.72434 0
M  V30 21056 C 1992.05 2.85698 2.21492 0
M  V30 21057 O 1991.77 4.09165 1.56574 0
M  V30 21058 C 1993.27 3.15934 3.10967 0
M  V30 21059 H 1990.49 0.573277 0.348705 0
M  V30 21060 H 1993.04 1.99186 0.463177 0
M  V30 21061 H 1991.19 2.60165 2.87042 0
M  V30 21062 H 1991.61 4.73086 2.26473 0
M  V30 21063 H 1993.08 3.99548 3.80874 0
M  V30 21064 H 1993.56 2.30059 3.74125 0
M  V30 21065 H 1994.16 3.43284 2.5107 0
M  V30 21066 N 1992.48 -0.653289 1.43422 0
M  V30 21067 C 1993.73 -1.41319 1.45036 0
M  V30 21068 C 1994.05 -1.94357 0.074626 0
M  V30 21069 O 1993.31 -1.72707 -0.920363 0
M  V30 21070 C 1993.61 -2.6117 2.43978 0
M  V30 21071 C 1993.27 -2.2655 3.89854 0
M  V30 21072 C 1991.94 -2.16821 4.29584 0
M  V30 21073 C 1994.29 -1.98838 4.81781 0
M  V30 21074 C 1991.62 -1.77535 5.59194 0
M  V30 21075 C 1993.97 -1.61051 6.11756 0
M  V30 21076 C 1992.63 -1.49847 6.50463 0
M  V30 21077 H 1991.9 -0.517121 0.530723 0
M  V30 21078 H 1994.55 -0.742946 1.76501 0
M  V30 21079 H 1992.85 -3.33326 2.05916 0
M  V30 21080 H 1994.55 -3.19381 2.42481 0
M  V30 21081 H 1991.14 -2.35033 3.58409 0
M  V30 21082 H 1995.32 -2.05276 4.51858 0
M  V30 21083 H 1990.58 -1.67447 5.88023 0
M  V30 21084 H 1994.75 -1.38639 6.8246 0
M  V30 21085 H 1992.38 -1.19176 7.508 0
M  V30 21086 N 1993.96 -1.29952 -0.891648 0
M  V30 21087 C 1994.92 -1.15756 -1.97821 0
M  V30 21088 C 1995.92 -0.0906975 -1.60544 0
M  V30 21089 O 1997.11 -0.338283 -1.70884 0
M  V30 21090 C 1994.24 -0.771976 -3.32044 0
M  V30 21091 H 1995.43 -2.12281 -2.11842 0
M  V30 21092 H 1992.99 -1.13253 -1.07719 0
M  V30 21093 H 1993.72 0.193059 -3.23725 0
M  V30 21094 H 1993.51 -1.54291 -3.60467 0
M  V30 21095 H 1995 -0.695941 -4.1176 0
M  V30 21096 N 1995.44 1.1031 -1.12559 0
M  V30 21097 C 1996.38 2.18777 -0.789907 0
M  V30 21098 C 1997.38 1.67915 0.223815 0
M  V30 21099 O 1998.58 1.79814 0.0818894 0
M  V30 21100 H 1994.96 0.713472 -0.237618 0
M  V30 21101 H 1996.93 2.44328 -1.71308 0
M  V30 21102 C 1995.68 3.4671 -0.26223 0
M  V30 21103 H 1995 3.86209 -1.03356 0
M  V30 21104 H 1996.44 4.23949 -0.0656758 0
M  V30 21105 C 1994.9 3.21401 1.01011 0
M  V30 21106 O 1995.43 3.4319 2.08767 0
M  V30 21107 N 1993.64 2.7506 0.937571 0
M  V30 21108 H 1993.18 2.57529 0.0605557 0
M  V30 21109 H 1993.14 2.58503 1.78951 0
M  V30 21110 N 1996.91 0.917694 1.28125 0
M  V30 21111 C 1997.86 0.399355 2.29146 0
M  V30 21112 C 1998.86 -0.511045 1.61508 0
M  V30 21113 O 2000.06 -0.391853 1.75683 0
M  V30 21114 H 1996.44 0.110553 0.743829 0
M  V30 21115 H 1998.41 1.26438 2.70289 0
M  V30 21116 C 1997.16 -0.34177 3.46016 0
M  V30 21117 H 1996.48 0.349564 3.98269 0
M  V30 21118 H 1997.92 -0.669035 4.18688 0
M  V30 21119 C 1996.38 -1.55111 2.99069 0
M  V30 21120 O 1996.91 -2.65012 3.0188 0
M  V30 21121 N 1995.11 -1.39946 2.54683 0
M  V30 21122 H 1994.66 -0.505341 2.52595 0
M  V30 21123 H 1994.62 -2.20989 2.23632 0
M  V30 21124 N 1998.39 -1.42074 0.682102 0
M  V30 21125 C 1999.34 -2.30799 0.00831535 0
M  V30 21126 C 2000.31 -1.46368 -0.785221 0
M  V30 21127 O 2001.49 -1.75184 -0.755989 0
M  V30 21128 C 1998.63 -3.32283 -0.931784 0
M  V30 21129 C 1997.75 -4.318 -0.131295 0
M  V30 21130 C 1996.88 -5.20357 -1.06781 0
M  V30 21131 C 1995.92 -6.1155 -0.259435 0
M  V30 21132 N 1995.06 -6.92634 -1.14904 0
M  V30 21133 H 1999.9 -2.87861 0.770715 0
M  V30 21134 H 1997.43 -1.41786 0.391799 0
M  V30 21135 H 1999.39 -3.89657 -1.49074 0
M  V30 21136 H 1998.02 -2.76802 -1.66073 0
M  V30 21137 H 1997.07 -3.76484 0.54439 0
M  V30 21138 H 1998.39 -4.96328 0.495998 0
M  V30 21139 H 1997.54 -5.82499 -1.69645 0
M  V30 21140 H 1996.28 -4.56024 -1.72898 0
M  V30 21141 H 1995.28 -5.48469 0.382368 0
M  V30 21142 H 1996.51 -6.77934 0.397744 0
M  V30 21143 H 1994.46 -6.30922 -1.79648 0
M  V30 21144 H 1994.37 -7.53795 -0.577001 0
M  V30 21145 H 1995.64 -7.59257 -1.76492 0
M  V30 21146 N 1999.87 -0.425924 -1.51735 0
M  V30 21147 C 2001.09 0.145767 -2.06887 0
M  V30 21148 C 2001.52 1.36671 -1.29239 0
M  V30 21149 O 2000.88 1.78323 -0.327176 0
M  V30 21150 C 2000.93 0.457951 -3.5768 0
M  V30 21151 O 2000.03 1.54629 -3.82314 0
M  V30 21152 H 1999.37 0.00686619 -0.663964 0
M  V30 21153 H 2001.9 -0.603968 -1.95482 0
M  V30 21154 H 2001.91 0.71173 -4.01744 0
M  V30 21155 H 2000.59 -0.434483 -4.13624 0
M  V30 21156 H 1999.16 1.28336 -3.5012 0
M  V30 21157 N 2001.35 1.56817 -0.156891 0
M  V30 21158 C 2002.57 2.01242 0.501622 0
M  V30 21159 C 2003 1.03635 1.56976 0
M  V30 21160 O 2002.36 0.0136188 1.81295 0
M  V30 21161 C 2002.4 3.44357 1.07007 0
M  V30 21162 O 2001.51 3.49783 2.18461 0
M  V30 21163 H 2000.85 0.652757 0.121673 0
M  V30 21164 H 2003.38 2.02985 -0.256537 0
M  V30 21165 H 2003.39 3.83364 1.39628 0
M  V30 21166 H 2002.06 4.14902 0.287924 0
M  V30 21167 H 2000.64 3.22626 1.86994 0
M  V30 21168 N 2002.83 -0.116876 1.57166 0
M  V30 21169 C 2004.07 -0.825509 1.85238 0
M  V30 21170 C 2004.4 -1.79427 0.742936 0
M  V30 21171 O 2003.68 -1.92873 -0.251043 0
M  V30 21172 C 2003.96 -1.57353 3.23901 0
M  V30 21173 C 2003.82 -0.624227 4.45447 0
M  V30 21174 C 2005.13 -2.52922 3.60164 0
M  V30 21175 H 2002.25 -0.298653 0.673777 0
M  V30 21176 H 2004.9 -0.0897002 1.89788 0
M  V30 21177 H 2003.05 -2.20078 3.20153 0
M  V30 21178 H 2004.72 -0.00566556 4.613 0
M  V30 21179 H 2002.96 0.0640779 4.33753 0
M  V30 21180 H 2003.63 -1.1843 5.39146 0
M  V30 21181 H 2006.11 -2.00302 3.64717 0
M  V30 21182 H 2004.98 -3.02291 4.58161 0
M  V30 21183 H 2005.24 -3.35684 2.87695 0
M  V30 21184 N 2004.3 -1.52772 -0.387116 0
M  V30 21185 C 2005.71 -1.59829 -0.964966 0
M  V30 21186 C 2006.07 -0.452304 -1.90915 0
M  V30 21187 O 2005.19 0.424353 -2.12199 0
M  V30 21188 C 2005.79 -2.89687 -1.7569 0
M  V30 21189 C 2004.34 -2.99151 -2.28442 0
M  V30 21190 C 2003.49 -2.54957 -1.0905 0
M  V30 21191 H 2006.44 -1.57823 -0.1666 0
M  V30 21192 H 2006.46 -2.76279 -2.6163 0
M  V30 21193 H 2005.98 -3.73074 -1.06945 0
M  V30 21194 H 2004.08 -2.20305 -3.00494 0
M  V30 21195 H 2004.19 -4.03827 -2.578 0
M  V30 21196 H 2002.55 -2.09321 -1.45109 0
M  V30 21197 H 2003.34 -3.40741 -0.418373 0
M  V30 21198 N 2005.78 0.645673 -1.43767 0
M  V30 21199 C 2007.01 1.43303 -1.49237 0
M  V30 21200 C 2007.42 1.88464 -0.11261 0
M  V30 21201 O 2006.78 1.59955 0.878664 0
M  V30 21202 C 2006.83 2.66302 -2.4447 0
M  V30 21203 O 2006.55 2.23028 -3.77081 0
M  V30 21204 C 2008.05 3.59583 -2.59259 0
M  V30 21205 H 2005.27 0.439978 -0.506617 0
M  V30 21206 H 2007.82 0.790924 -1.88586 0
M  V30 21207 H 2005.97 3.26636 -2.08296 0
M  V30 21208 H 2006.39 3.02664 -4.28363 0
M  V30 21209 H 2007.86 4.42532 -3.29953 0
M  V30 21210 H 2008.34 4.07431 -1.64001 0
M  V30 21211 H 2008.94 3.05126 -2.96274 0
M  V30 21212 N 2007.26 1.30423 0.884744 0
M  V30 21213 C 2008.22 1.16804 1.97204 0
M  V30 21214 C 2009.22 0.0992103 1.60494 0
M  V30 21215 O 2010.41 0.34734 1.70702 0
M  V30 21216 C 2007.54 0.789574 3.3163 0
M  V30 21217 H 2008.74 2.13401 2.10713 0
M  V30 21218 H 2006.29 1.13823 1.07117 0
M  V30 21219 H 2007.03 -0.175888 3.23823 0
M  V30 21220 H 2006.81 1.562 3.59644 0
M  V30 21221 H 2008.3 0.717768 4.11385 0
M  V30 21222 N 2008.74 -1.09711 1.13142 0
M  V30 21223 C 2009.99 -1.81468 0.889593 0
M  V30 21224 C 2010.31 -1.85988 -0.585956 0
M  V30 21225 O 2009.58 -1.34332 -1.42589 0
M  V30 21226 H 2008.16 -0.67205 0.326125 0
M  V30 21227 H 2010.82 -1.32709 1.42739 0
M  V30 21228 H 2009.91 -2.84746 1.27773 0
M  V30 21229 N 2010.22 -0.924476 -1.27637 0
M  V30 21230 C 2011.17 -0.392138 -2.24602 0
M  V30 21231 C 2012.15 0.501783 -1.52876 0
M  V30 21232 O 2013.34 0.339754 -1.73709 0
M  V30 21233 C 2010.47 0.356902 -3.4144 0
M  V30 21234 C 2009.56 -0.553352 -4.20475 0
M  V30 21235 N 2009.95 -1.67175 -4.77374 0
M  V30 21236 C 2008.25 -0.355752 -4.44579 0
M  V30 21237 C 2008.95 -2.23762 -5.36941 0
M  V30 21238 N 2007.92 -1.52759 -5.21695 0
M  V30 21239 H 2011.73 -1.24612 -2.66175 0
M  V30 21240 H 2009.24 -0.778373 -1.42531 0
M  V30 21241 H 2011.24 0.755192 -4.10003 0
M  V30 21242 H 2009.9 1.20785 -3.01399 0
M  V30 21243 H 2010.91 -2.05418 -4.7542 0
M  V30 21244 H 2007.58 0.454798 -4.15015 0
M  V30 21245 H 2008.97 -3.17902 -5.91936 0
M  V30 21246 N 2011.69 1.41711 -0.689627 0
M  V30 21247 C 2012.64 2.28 0.00249406 0
M  V30 21248 C 2013.63 1.41884 0.75879 0
M  V30 21249 O 2014.82 1.65207 0.635261 0
M  V30 21250 C 2011.95 3.30111 0.942438 0
M  V30 21251 C 2011.04 4.23706 0.182705 0
M  V30 21252 N 2011.43 4.99103 -0.820339 0
M  V30 21253 C 2009.72 4.44027 0.41904 0
M  V30 21254 C 2010.43 5.67564 -1.27459 0
M  V30 21255 N 2009.4 5.4026 -0.60165 0
M  V30 21256 H 2013.2 2.83725 -0.766648 0
M  V30 21257 H 2010.72 1.53851 -0.519952 0
M  V30 21258 H 2012.71 3.90746 1.45338 0
M  V30 21259 H 2011.37 2.75947 1.71124 0
M  V30 21260 H 2012.39 5.03797 -1.20038 0
M  V30 21261 H 2009.06 4.00882 1.16619 0
M  V30 21262 H 2010.45 6.38022 -2.10659 0
M  V30 21263 N 2013.17 0.433965 1.51507 0
M  V30 21264 C 2014.12 -0.397051 2.24516 0
M  V30 21265 C 2015.11 -0.992896 1.26611 0
M  V30 21266 O 2016.3 -0.911595 1.5172 0
M  V30 21267 C 2013.43 -1.49953 3.08819 0
M  V30 21268 C 2012.51 -0.913247 4.1415 0
M  V30 21269 N 2012.9 -0.0558268 5.05769 0
M  V30 21270 C 2011.2 -1.18118 4.30074 0
M  V30 21271 C 2011.9 0.27308 5.81059 0
M  V30 21272 N 2010.88 -0.342445 5.4252 0
M  V30 21273 H 2014.68 0.264043 2.92712 0
M  V30 21274 H 2012.2 0.245838 1.60528 0
M  V30 21275 H 2014.19 -2.1077 3.59696 0
M  V30 21276 H 2012.85 -2.163 2.42166 0
M  V30 21277 H 2013.86 0.310359 5.16969 0
M  V30 21278 H 2010.54 -1.84239 3.74649 0
M  V30 21279 H 2011.93 0.970595 6.64853 0
M  V30 21280 N 2014.65 -1.56732 0.165206 0
M  V30 21281 C 2015.6 -2.14257 -0.779625 0
M  V30 21282 C 2016.58 -1.07517 -1.19704 0
M  V30 21283 O 2017.78 -1.33654 -1.16042 0
M  V30 21284 C 2014.91 -2.78206 -2.01137 0
M  V30 21285 C 2013.99 -3.92096 -1.61623 0
M  V30 21286 N 2014.38 -4.97171 -0.930308 0
M  V30 21287 C 2012.68 -4.03142 -1.90768 0
M  V30 21288 C 2013.38 -5.77017 -0.736666 0
M  V30 21289 N 2012.36 -5.28407 -1.27621 0
M  V30 21290 H 2016.16 -2.92864 -0.246531 0
M  V30 21291 H 2013.67 -1.62361 -0.0356946 0
M  V30 21292 H 2015.67 -3.17791 -2.69842 0
M  V30 21293 H 2014.33 -2.01078 -2.54947 0
M  V30 21294 H 2015.34 -5.14539 -0.589031 0
M  V30 21295 H 2012.02 -3.3711 -2.46299 0
M  V30 21296 H 2013.41 -6.71618 -0.194698 0
M  V30 21297 N 2016.13 0.10854 -1.57226 0
M  V30 21298 C 2017.08 1.15155 -2.02094 0
M  V30 21299 C 2018.07 1.42263 -0.919651 0
M  V30 21300 O 2019.28 1.42102 -1.10485 0
M  V30 21301 H 2015.65 0.388515 -0.643863 0
M  V30 21302 H 2017.62 0.746707 -2.88906 0
M  V30 21303 C 2016.37 2.46727 -2.44992 0
M  V30 21304 H 2015.69 2.26708 -3.29307 0
M  V30 21305 H 2017.13 3.18242 -2.80175 0
M  V30 21306 C 2015.59 3.10059 -1.31776 0
M  V30 21307 O 2016.12 3.96577 -0.639471 0
M  V30 21308 N 2014.33 2.70099 -1.07215 0
M  V30 21309 H 2013.88 1.99837 -1.62552 0
M  V30 21310 H 2013.83 3.12802 -0.316602 0
M  V30 21311 N 2017.61 1.52975 0.379009 0
M  V30 21312 C 2018.55 1.79115 1.48393 0
M  V30 21313 C 2019.55 0.659562 1.56032 0
M  V30 21314 O 2020.75 0.842243 1.59079 0
M  V30 21315 H 2017.13 0.566908 0.494084 0
M  V30 21316 H 2019.1 2.71624 1.23544 0
M  V30 21317 C 2017.85 1.98595 2.85404 0
M  V30 21318 H 2017.17 2.85102 2.8028 0
M  V30 21319 H 2018.61 2.2087 3.61929 0
M  V30 21320 C 2017.07 0.761257 3.28187 0
M  V30 21321 O 2017.6 -0.0565264 4.0166 0
M  V30 21322 N 2015.81 0.588515 2.84578 0
M  V30 21323 H 2015.35 1.25513 2.24954 0
M  V30 21324 H 2015.31 -0.229535 3.13561 0
M  V30 21325 N 2019.08 -0.63804 1.44107 0
M  V30 21326 C 2020.5 -1.21954 1.41365 0
M  V30 21327 C 2020.85 -1.95799 0.125451 0
M  V30 21328 O 2019.97 -2.02066 -0.774492 0
M  V30 21329 C 2020.57 -2.21819 2.56089 0
M  V30 21330 C 2019.13 -2.75412 2.56564 0
M  V30 21331 C 2018.27 -1.50296 2.33037 0
M  V30 21332 H 2021.22 -0.429131 1.52788 0
M  V30 21333 H 2021.24 -3.0429 2.28447 0
M  V30 21334 H 2020.76 -1.68045 3.49832 0
M  V30 21335 H 2018.86 -3.33207 1.66744 0
M  V30 21336 H 2018.97 -3.21922 3.54828 0
M  V30 21337 H 2017.33 -1.78184 1.81996 0
M  V30 21338 H 2018.12 -0.984346 3.28885 0
M  V30 21339 N 2020.56 -1.3089 -0.877815 0
M  V30 21340 C 2021.81 -1.19888 -1.627 0
M  V30 21341 C 2022.13 0.244972 -1.93455 0
M  V30 21342 O 2021.4 1.16355 -1.57602 0
M  V30 21343 H 2019.98 -0.440719 -0.603138 0
M  V30 21344 H 2022.64 -1.64112 -1.05134 0
M  V30 21345 H 2021.74 -1.76493 -2.57404 0
M  V30 21346 N 2022.04 1.0911 -1.13723 0
M  V30 21347 C 2023.29 1.80994 -0.899205 0
M  V30 21348 C 2023.61 1.86296 0.576084 0
M  V30 21349 O 2022.88 1.35086 1.41875 0
M  V30 21350 H 2021.46 0.670311 -0.329685 0
M  V30 21351 H 2024.12 1.3195 -1.4344 0
M  V30 21352 H 2023.22 2.84065 -1.29281 0
M  V30 21353 N 2023.52 0.931232 1.27145 0
M  V30 21354 C 2024.77 0.572394 1.93825 0
M  V30 21355 C 2025.09 -0.88981 1.73515 0
M  V30 21356 O 2024.36 -1.63113 1.08494 0
M  V30 21357 H 2022.94 0.2087 0.717254 0
M  V30 21358 H 2025.6 1.18439 1.54784 0
M  V30 21359 H 2024.7 0.781679 3.02153 0
M  V30 21360 N 2025 -1.41343 0.697132 0
M  V30 21361 C 2026.23 -2.0523 0.237496 0
M  V30 21362 C 2026.64 -1.52567 -1.11892 0
M  V30 21363 O 2025.98 -0.669432 -1.71068 0
M  V30 21364 C 2026.04 -3.59302 0.119366 0
M  V30 21365 C 2025.7 -4.34767 1.40808 0
M  V30 21366 C 2026.7 -4.63947 2.34625 0
M  V30 21367 C 2024.39 -4.74011 1.66188 0
M  V30 21368 C 2026.38 -5.31334 3.52083 0
M  V30 21369 C 2024.07 -5.41134 2.83931 0
M  V30 21370 C 2025.07 -5.69723 3.76702 0
M  V30 21371 O 2024.75 -6.35464 4.92382 0
M  V30 21372 H 2024.49 -0.667343 0.107839 0
M  V30 21373 H 2027.04 -1.82074 0.950697 0
M  V30 21374 H 2025.27 -3.81204 -0.649618 0
M  V30 21375 H 2026.96 -4.04765 -0.303292 0
M  V30 21376 H 2027.72 -4.34109 2.16274 0
M  V30 21377 H 2023.6 -4.51139 0.948414 0
M  V30 21378 H 2027.15 -5.53566 4.24512 0
M  V30 21379 H 2023.04 -5.70391 3.02198 0
M  V30 21380 H 2023.81 -6.5396 4.92218 0
M  V30 21381 N 2026.48 -0.441993 -1.51275 0
M  V30 21382 C 2027.41 0.412439 -2.24442 0
M  V30 21383 C 2028.39 1.02082 -1.26563 0
M  V30 21384 O 2029.57 1.06238 -1.5571 0
M  V30 21385 C 2026.7 1.57525 -2.99839 0
M  V30 21386 C 2025.74 1.08711 -4.12413 0
M  V30 21387 S 2026.58 0.025352 -5.35494 0
M  V30 21388 C 2027.73 1.19273 -6.14431 0
M  V30 21389 H 2027.97 -0.208728 -2.96566 0
M  V30 21390 H 2025.5 -0.226557 -1.52729 0
M  V30 21391 H 2027.46 2.24185 -3.43877 0
M  V30 21392 H 2026.12 2.16785 -2.27295 0
M  V30 21393 H 2025.31 1.95679 -4.64463 0
M  V30 21394 H 2024.91 0.498677 -3.70661 0
M  V30 21395 H 2027.2 2.11018 -6.438 0
M  V30 21396 H 2028.15 0.712094 -7.0451 0
M  V30 21397 H 2028.56 1.4334 -5.45998 0
M  V30 21398 N 2027.95 1.56642 -0.173515 0
M  V30 21399 C 2028.88 2.21076 0.751509 0
M  V30 21400 C 2029.86 1.16706 1.23749 0
M  V30 21401 O 2031.05 1.45142 1.29025 0
M  V30 21402 C 2028.18 2.85323 1.9801 0
M  V30 21403 C 2027.13 3.95751 1.62989 0
M  V30 21404 C 2026.46 4.47058 2.93332 0
M  V30 21405 C 2027.76 5.15234 0.856231 0
M  V30 21406 H 2029.45 2.98631 0.21442 0
M  V30 21407 H 2027 1.4364 0.101692 0
M  V30 21408 H 2028.95 3.29075 2.63226 0
M  V30 21409 H 2027.68 2.0514 2.54136 0
M  V30 21410 H 2026.34 3.52658 1.00141 0
M  V30 21411 H 2025.98 3.63663 3.47503 0
M  V30 21412 H 2025.68 5.21556 2.70652 0
M  V30 21413 H 2027.21 4.93497 3.59573 0
M  V30 21414 H 2028.62 5.55665 1.41102 0
M  V30 21415 H 2027.02 5.95663 0.728389 0
M  V30 21416 H 2028.09 4.84677 -0.147009 0
M  V30 21417 N 2029.43 -0.1002 1.57281 0
M  V30 21418 C 2030.66 -0.82219 1.90407 0
M  V30 21419 C 2031.08 -1.71739 0.767297 0
M  V30 21420 O 2030.44 -1.79103 -0.281369 0
M  V30 21421 C 2030.49 -1.61579 3.22373 0
M  V30 21422 O 2029.59 -2.72433 3.09603 0
M  V30 21423 H 2028.93 -0.2262 0.624283 0
M  V30 21424 H 2031.46 -0.0769557 2.04455 0
M  V30 21425 H 2031.47 -2.00109 3.55556 0
M  V30 21426 H 2030.15 -0.958772 4.04698 0
M  V30 21427 H 2028.72 -2.36968 2.87925 0
M  V30 21428 N 2030.91 -1.53174 -0.370891 0
M  V30 21429 C 2031.86 -1.79236 -1.45406 0
M  V30 21430 C 2032.83 -0.636453 -1.53423 0
M  V30 21431 O 2034.01 -0.878079 -1.69394 0
M  V30 21432 C 2031.15 -1.98327 -2.82419 0
M  V30 21433 C 2030.26 -3.2604 -2.83411 0
M  V30 21434 C 2029.4 -3.35348 -4.11965 0
M  V30 21435 C 2028.44 -4.57114 -4.07079 0
M  V30 21436 N 2027.58 -4.63603 -5.27272 0
M  V30 21437 H 2032.42 -2.71666 -1.22482 0
M  V30 21438 H 2029.95 -1.3458 -0.593853 0
M  V30 21439 H 2031.91 -2.07382 -3.62006 0
M  V30 21440 H 2030.54 -1.0924 -3.03754 0
M  V30 21441 H 2029.59 -3.25966 -1.96088 0
M  V30 21442 H 2030.9 -4.157 -2.75672 0
M  V30 21443 H 2030.06 -3.43685 -4.99966 0
M  V30 21444 H 2028.8 -2.43695 -4.2245 0
M  V30 21445 H 2027.8 -4.48883 -3.17466 0
M  V30 21446 H 2029.03 -5.50102 -3.98201 0
M  V30 21447 H 2026.97 -3.74849 -5.38353 0
M  V30 21448 H 2026.89 -5.4716 -5.21682 0
M  V30 21449 H 2028.16 -4.76218 -6.1712 0
M  V30 21450 N 2032.39 0.630389 -1.44443 0
M  V30 21451 C 2033.61 1.42206 -1.50971 0
M  V30 21452 C 2034.04 1.87609 -0.135854 0
M  V30 21453 O 2033.4 1.58782 0.8751 0
M  V30 21454 C 2033.44 2.61801 -2.47977 0
M  V30 21455 O 2032.55 3.6166 -1.98181 0
M  V30 21456 H 2031.89 0.425475 -0.509771 0
M  V30 21457 H 2034.42 0.769359 -1.89584 0
M  V30 21458 H 2034.43 3.09335 -2.66037 0
M  V30 21459 H 2033.1 2.281 -3.47769 0
M  V30 21460 H 2031.68 3.2093 -1.89891 0
M  V30 21461 N 2033.87 1.31354 0.870861 0
M  V30 21462 C 2034.8 1.21518 1.99388 0
M  V30 21463 C 2035.78 0.102582 1.6979 0
M  V30 21464 O 2036.96 0.287028 1.92067 0
M  V30 21465 C 2034.09 0.920813 3.34871 0
M  V30 21466 C 2033.05 1.99289 3.78772 0
M  V30 21467 C 2032.37 1.55123 5.11704 0
M  V30 21468 C 2033.67 3.40589 3.95975 0
M  V30 21469 H 2035.37 2.15473 2.07875 0
M  V30 21470 H 2032.91 1.03734 0.998761 0
M  V30 21471 H 2034.86 0.838612 4.12971 0
M  V30 21472 H 2033.59 -0.0543971 3.26555 0
M  V30 21473 H 2032.25 2.06496 3.0291 0
M  V30 21474 H 2031.9 0.563901 4.99829 0
M  V30 21475 H 2031.6 2.26842 5.42048 0
M  V30 21476 H 2033.12 1.48308 5.92315 0
M  V30 21477 H 2034.53 3.36061 4.64474 0
M  V30 21478 H 2032.93 4.10517 4.37716 0
M  V30 21479 H 2034 3.8144 2.99385 0
M  V30 21480 N 2035.34 -1.08505 1.143 0
M  V30 21481 C 2036.57 -1.84347 0.932715 0
M  V30 21482 C 2036.98 -1.81853 -0.522138 0
M  V30 21483 O 2036.32 -1.21982 -1.37354 0
M  V30 21484 C 2036.39 -3.32995 1.3548 0
M  V30 21485 C 2036.05 -3.59226 2.82499 0
M  V30 21486 C 2037.05 -3.54154 3.80619 0
M  V30 21487 C 2034.73 -3.87269 3.19888 0
M  V30 21488 C 2036.73 -3.76754 5.14135 0
M  V30 21489 C 2034.41 -4.09522 4.5358 0
M  V30 21490 C 2035.41 -4.04258 5.50513 0
M  V30 21491 O 2035.1 -4.25928 6.81792 0
M  V30 21492 H 2034.83 -0.58885 0.332012 0
M  V30 21493 H 2037.39 -1.37951 1.5218 0
M  V30 21494 H 2035.62 -3.80144 0.70904 0
M  V30 21495 H 2037.3 -3.90271 1.11548 0
M  V30 21496 H 2038.07 -3.32505 3.5308 0
M  V30 21497 H 2033.95 -3.90487 2.45033 0
M  V30 21498 H 2037.49 -3.72561 5.89783 0
M  V30 21499 H 2033.39 -4.30655 4.80839 0
M  V30 21500 H 2034.16 -4.43339 6.88036 0
M  V30 21501 N 2036.82 -0.937962 -1.26649 0
M  V30 21502 C 2038.23 -0.626942 -1.75859 0
M  V30 21503 C 2038.58 0.857893 -1.7645 0
M  V30 21504 O 2037.71 1.67138 -1.37455 0
M  V30 21505 C 2038.3 -1.13131 -3.19354 0
M  V30 21506 C 2036.86 -0.870769 -3.66189 0
M  V30 21507 C 2036.01 -1.28409 -2.45777 0
M  V30 21508 H 2038.96 -1.11662 -1.12771 0
M  V30 21509 H 2038.98 -0.483659 -3.77414 0
M  V30 21510 H 2038.49 -2.21201 -3.18891 0
M  V30 21511 H 2036.59 0.195688 -3.72086 0
M  V30 21512 H 2036.71 -1.49552 -4.55161 0
M  V30 21513 H 2035.07 -0.702547 -2.44819 0
M  V30 21514 H 2035.85 -2.37365 -2.48017 0
M  V30 21515 N 2038.3 1.40971 -0.704618 0
M  V30 21516 C 2039.58 1.94885 -0.167059 0
M  V30 21517 C 2039.96 1.64346 1.3249 0
M  V30 21518 O 2039.3 0.955268 2.07574 0
M  V30 21519 C 2039.51 3.45847 -0.468035 0
M  V30 21520 C 2040.86 4.22705 -0.400704 0
M  V30 21521 O 2041.89 3.53908 -0.403464 0
M  V30 21522 O 2040.75 5.45255 -0.368676 0
M  V30 21523 H 2037.84 0.826752 -0.0202699 0
M  V30 21524 H 2040.39 1.50639 -0.7814 0
M  V30 21525 H 2039.16 3.61392 -1.50038 0
M  V30 21526 H 2038.78 3.97207 0.176823 0
M  V30 21527 N 2039.78 0.45001 1.51039 0
M  V30 21528 C 2041.19 0.10298 1.59267 0
M  V30 21529 C 2041.39 -1.38881 1.45995 0
M  V30 21530 O 2040.45 -2.16003 1.30763 0
M  V30 21531 C 2041.76 0.634392 2.93932 0
M  V30 21532 C 2043.31 0.59595 3.07274 0
M  V30 21533 C 2043.79 1.10455 4.44481 0
M  V30 21534 N 2045.28 1.06307 4.50836 0
M  V30 21535 C 2046.01 1.42733 5.55351 0
M  V30 21536 N 2045.51 1.86506 6.67224 0
M  V30 21537 N 2047.3 1.34469 5.45779 0
M  V30 21538 H 2039.45 1.42049 1.57911 0
M  V30 21539 H 2041.72 0.586142 0.745078 0
M  V30 21540 H 2041.42 1.67863 3.09055 0
M  V30 21541 H 2041.3 0.0662668 3.77142 0
M  V30 21542 H 2043.68 -0.439332 2.91811 0
M  V30 21543 H 2043.76 1.20063 2.25873 0
M  V30 21544 H 2043.41 2.13836 4.60692 0
M  V30 21545 H 2043.34 0.476284 5.24442 0
M  V30 21546 H 2045.83 0.741765 3.70549 0
M  V30 21547 H 2046.14 2.12505 7.43009 0
M  V30 21548 H 2044.49 1.90443 6.68398 0
M  V30 21549 H 2047.68 1.00128 4.57266 0
M  V30 21550 H 2047.85 1.63185 6.27116 0
M  V30 21551 N 2041.26 -1.56548 0.18182 0
M  V30 21552 C 2042.5 -1.97488 -0.461104 0
M  V30 21553 C 2042.84 -1.06819 -1.62183 0
M  V30 21554 O 2042.11 -0.117449 -1.94145 0
M  V30 21555 C 2042.39 -3.47776 -0.934008 0
M  V30 21556 C 2042.25 -4.49224 0.227615 0
M  V30 21557 C 2043.57 -4.01423 -1.80409 0
M  V30 21558 H 2040.68 -0.718031 -0.166135 0
M  V30 21559 H 2043.33 -1.88071 0.27007 0
M  V30 21560 H 2041.48 -3.55933 -1.55705 0
M  V30 21561 H 2043.15 -4.53118 0.864978 0
M  V30 21562 H 2041.39 -4.2475 0.881483 0
M  V30 21563 H 2042.06 -5.51808 -0.145571 0
M  V30 21564 H 2044.54 -3.95963 -1.27876 0
M  V30 21565 H 2043.41 -5.06975 -2.10398 0
M  V30 21566 H 2043.68 -3.45875 -2.7536 0
M  V30 21567 N 2042.73 0.0918577 -1.57332 0
M  V30 21568 C 2043.96 0.808218 -1.90461 0
M  V30 21569 C 2044.38 1.72122 -0.775843 0
M  V30 21570 O 2043.73 1.80752 0.251995 0
M  V30 21571 C 2043.79 1.61885 -3.23227 0
M  V30 21572 O 2043.51 0.742563 -4.31761 0
M  V30 21573 C 2045.01 2.43798 -3.7024 0
M  V30 21574 H 2042.23 0.230915 -0.630015 0
M  V30 21575 H 2044.77 0.0681235 -2.04387 0
M  V30 21576 H 2042.93 2.31142 -3.1089 0
M  V30 21577 H 2043.34 1.30433 -5.08023 0
M  V30 21578 H 2044.81 2.96164 -4.65823 0
M  V30 21579 H 2045.29 3.2241 -2.98242 0
M  V30 21580 H 2045.9 1.79734 -3.85455 0
M  V30 21581 N 2044.21 1.53368 0.362763 0
M  V30 21582 C 2045.14 1.76293 1.4647 0
M  V30 21583 C 2046.16 0.643758 1.49531 0
M  V30 21584 O 2047.35 0.920081 1.5296 0
M  V30 21585 C 2044.45 1.83034 2.85222 0
M  V30 21586 C 2043.62 3.12714 3.05825 0
M  V30 21587 C 2042.68 3.1066 4.24708 0
M  V30 21588 O 2041.7 3.84449 4.19747 0
M  V30 21589 N 2042.91 2.31677 5.32265 0
M  V30 21590 H 2045.67 2.71376 1.27183 0
M  V30 21591 H 2043.23 1.52181 0.552508 0
M  V30 21592 H 2045.22 1.79134 3.62895 0
M  V30 21593 H 2043.79 0.952227 2.97744 0
M  V30 21594 H 2043.01 3.29893 2.15788 0
M  V30 21595 H 2044.3 3.98409 3.16461 0
M  V30 21596 H 2043.7 1.71243 5.39159 0
M  V30 21597 H 2042.26 2.33593 6.08504 0
M  V30 21598 N 2045.69 -0.62272 1.44776 0
M  V30 21599 C 2046.64 -1.75545 1.526 0
M  V30 21600 C 2047.63 -1.64681 0.397056 0
M  V30 21601 O 2048.84 -1.70658 0.572351 0
M  V30 21602 H 2045.21 -0.579694 0.479018 0
M  V30 21603 H 2047.18 -1.66069 2.47919 0
M  V30 21604 C 2045.93 -3.13899 1.49542 0
M  V30 21605 H 2045.26 -3.2291 2.35731 0
M  V30 21606 H 2046.7 -3.93028 1.59076 0
M  V30 21607 C 2045.16 -3.36197 0.217454 0
M  V30 21608 O 2045.69 -3.95395 -0.708921 0
M  V30 21609 N 2043.89 -2.90361 0.117924 0
M  V30 21610 H 2043.44 -2.4237 0.872626 0
M  V30 21611 H 2043.4 -3.05655 -0.736367 0
M  V30 21612 N 2047.17 -1.31814 -0.863883 0
M  V30 21613 C 2048.58 -1.19653 -1.43318 0
M  V30 21614 C 2048.93 0.19461 -1.95232 0
M  V30 21615 O 2048.06 1.09277 -1.86782 0
M  V30 21616 C 2048.65 -2.1661 -2.6051 0
M  V30 21617 C 2047.21 -2.08364 -3.13466 0
M  V30 21618 C 2046.36 -2.05496 -1.8619 0
M  V30 21619 H 2049.31 -1.43776 -0.67187 0
M  V30 21620 H 2049.33 -1.75925 -3.37388 0
M  V30 21621 H 2048.84 -3.1785 -2.22695 0
M  V30 21622 H 2046.94 -1.10341 -3.55887 0
M  V30 21623 H 2047.05 -2.97757 -3.75336 0
M  V30 21624 H 2045.42 -1.50599 -2.05407 0
M  V30 21625 H 2046.2 -3.08501 -1.50605 0
M  V30 21626 N 2048.65 1.07897 -1.14873 0
M  V30 21627 C 2049.89 1.80386 -0.920169 0
M  V30 21628 C 2050.22 1.86473 0.553002 0
M  V30 21629 O 2049.48 1.3404 1.4259 0
M  V30 21630 C 2049.78 3.25649 -1.47267 0
M  V30 21631 C 2049.44 3.39671 -2.96537 0
M  V30 21632 C 2048.1 3.43205 -3.37288 0
M  V30 21633 C 2050.46 3.42923 -3.92496 0
M  V30 21634 C 2047.78 3.47589 -4.72651 0
M  V30 21635 C 2050.14 3.48843 -5.27723 0
M  V30 21636 C 2048.8 3.50652 -5.67978 0
M  V30 21637 H 2048.07 0.66008 -0.336714 0
M  V30 21638 H 2050.72 1.27004 -1.43326 0
M  V30 21639 H 2049.02 3.81775 -0.880635 0
M  V30 21640 H 2050.72 3.80301 -1.2717 0
M  V30 21641 H 2047.31 3.37615 -2.64034 0
M  V30 21642 H 2051.49 3.39419 -3.62089 0
M  V30 21643 H 2046.75 3.47285 -5.03193 0
M  V30 21644 H 2050.92 3.50305 -6.0188 0
M  V30 21645 H 2048.55 3.53802 -6.72851 0
M  V30 21646 N 2050.12 0.944665 1.2615 0
M  V30 21647 C 2051.37 0.589817 1.92884 0
M  V30 21648 C 2051.69 -0.875787 1.74898 0
M  V30 21649 O 2052.89 -1.34016 2.36118 0
M  V30 21650 C 2051.35 1.00415 3.45608 0
M  V30 21651 C 2050.96 2.4916 3.72321 0
M  V30 21652 C 2052.7 0.721357 4.18326 0
M  V30 21653 C 2050.61 2.84445 5.18503 0
M  V30 21654 H 2049.54 0.216879 0.722135 0
M  V30 21655 H 2052.19 1.14777 1.43173 0
M  V30 21656 H 2050.57 0.374687 3.94223 0
M  V30 21657 H 2051.74 3.1704 3.34398 0
M  V30 21658 H 2050.06 2.74805 3.12843 0
M  V30 21659 H 2052.66 0.961267 5.25988 0
M  V30 21660 H 2053 -0.341981 4.14893 0
M  V30 21661 H 2053.53 1.3107 3.75587 0
M  V30 21662 H 2050.27 3.89756 5.2704 0
M  V30 21663 H 2049.79 2.2123 5.5751 0
M  V30 21664 H 2051.47 2.73098 5.86538 0
M  V30 21665 N 2051.6 -1.40596 0.712085 0
M  V30 21666 C 2053.01 -1.83887 0.322883 0
M  V30 21667 C 2053.36 -1.59548 -1.14188 0
M  V30 21668 O 2052.49 -1.07452 -1.87838 0
M  V30 21669 C 2053.08 -3.33811 0.579252 0
M  V30 21670 C 2051.64 -3.7561 0.243796 0
M  V30 21671 C 2050.79 -2.63843 0.853361 0
M  V30 21672 H 2053.74 -1.29913 0.911501 0
M  V30 21673 H 2053.76 -3.80177 -0.156661 0
M  V30 21674 H 2053.27 -3.51494 1.6454 0
M  V30 21675 H 2051.38 -3.63523 -0.817429 0
M  V30 21676 H 2051.49 -4.73805 0.710348 0
M  V30 21677 H 2049.85 -2.53138 0.281671 0
M  V30 21678 H 2050.64 -2.84339 1.9237 0
M  V30 21679 N 2053.08 -0.458013 -1.50798 0
M  V30 21680 C 2054.31 0.0995379 -2.0666 0
M  V30 21681 C 2054.72 1.34662 -1.32331 0
M  V30 21682 O 2054.08 1.78311 -0.388768 0
M  V30 21683 C 2054.13 0.400901 -3.5927 0
M  V30 21684 O 2053.85 -0.796705 -4.30795 0
M  V30 21685 C 2055.35 1.00686 -4.31714 0
M  V30 21686 H 2052.57 -0.00125628 -0.670999 0
M  V30 21687 H 2055.12 -0.643041 -1.94127 0
M  V30 21688 H 2053.27 1.0934 -3.7165 0
M  V30 21689 H 2053.69 -0.533396 -5.21781 0
M  V30 21690 H 2055.16 1.16758 -5.39511 0
M  V30 21691 H 2055.64 1.99349 -3.91352 0
M  V30 21692 H 2056.24 0.353135 -4.23831 0
M  V30 21693 N 2054.56 1.56449 -0.190119 0
M  V30 21694 C 2055.81 1.97438 0.449957 0
M  V30 21695 C 2056.13 1.07682 1.61972 0
M  V30 21696 O 2055.39 0.114859 1.95363 0
M  V30 21697 C 2055.69 3.44349 0.956988 0
M  V30 21698 C 2055.35 4.50792 -0.098868 0
M  V30 21699 C 2054.02 4.79625 -0.389003 0
M  V30 21700 C 2056.37 5.14795 -0.814559 0
M  V30 21701 C 2053.7 5.69754 -1.39989 0
M  V30 21702 C 2056.05 6.06017 -1.81456 0
M  V30 21703 C 2054.71 6.33209 -2.11195 0
M  V30 21704 H 2053.98 0.722476 0.164651 0
M  V30 21705 H 2056.63 1.89352 -0.286039 0
M  V30 21706 H 2054.93 3.49481 1.77116 0
M  V30 21707 H 2056.63 3.73416 1.46155 0
M  V30 21708 H 2053.22 4.2838 0.137435 0
M  V30 21709 H 2057.41 4.92615 -0.603633 0
M  V30 21710 H 2052.66 5.89098 -1.63627 0
M  V30 21711 H 2056.84 6.54672 -2.37438 0
M  V30 21712 H 2054.46 7.02847 -2.89672 0
M  V30 21713 N 2056.04 -0.0835127 1.57379 0
M  V30 21714 C 2057.29 -0.783318 1.86302 0
M  V30 21715 C 2057.61 -1.787 0.780472 0
M  V30 21716 O 2056.88 -1.94956 -0.192101 0
M  V30 21717 H 2055.46 -0.292281 0.687445 0
M  V30 21718 H 2058.12 -0.0623868 1.948 0
M  V30 21719 H 2057.21 -1.30677 2.83425 0
M  V30 21720 N 2057.52 -1.53558 -0.354624 0
M  V30 21721 C 2058.79 -1.60886 -1.11243 0
M  V30 21722 C 2059.17 -0.423192 -2.06815 0
M  V30 21723 O 2058.52 0.585579 -2.20869 0
M  V30 21724 C 2058.73 -2.96439 -1.84188 0
M  V30 21725 C 2060.08 -3.51404 -2.38329 0
M  V30 21726 O 2061.1 -2.9854 -1.94299 0
M  V30 21727 O 2059.96 -4.43843 -3.1885 0
M  V30 21728 H 2057.06 -0.650291 -0.510932 0
M  V30 21729 H 2059.6 -1.65902 -0.357007 0
M  V30 21730 H 2058.37 -3.74173 -1.145 0
M  V30 21731 H 2058 -2.94963 -2.66613 0
M  V30 21732 N 2058.99 0.615033 -1.45104 0
M  V30 21733 C 2060.27 1.37409 -1.39206 0
M  V30 21734 C 2060.65 2.11018 -0.0588763 0
M  V30 21735 O 2060 2.07402 0.958997 0
M  V30 21736 C 2060.21 2.32712 -2.60089 0
M  V30 21737 C 2061.56 2.95549 -3.04854 0
M  V30 21738 O 2062.58 2.43035 -2.60408 0
M  V30 21739 O 2061.44 3.90854 -3.81963 0
M  V30 21740 H 2058.53 0.615766 -0.552052 0
M  V30 21741 H 2061.08 0.638743 -1.5722 0
M  V30 21742 H 2059.85 1.77529 -3.48711 0
M  V30 21743 H 2059.47 3.13639 -2.4437 0
M  V30 21744 N 2060.47 1.3227 0.85688 0
M  V30 21745 C 2061.4 1.16846 1.97179 0
M  V30 21746 C 2062.42 0.10404 1.62467 0
M  V30 21747 O 2063.61 0.352788 1.74979 0
M  V30 21748 C 2060.71 0.76585 3.30133 0
M  V30 21749 C 2059.88 1.91808 3.93101 0
M  V30 21750 C 2058.94 1.49939 5.04386 0
M  V30 21751 O 2057.96 2.21106 5.245 0
M  V30 21752 N 2059.17 0.394147 5.7916 0
M  V30 21753 H 2061.93 2.12882 2.10953 0
M  V30 21754 H 2059.49 1.24777 1.03161 0
M  V30 21755 H 2061.48 0.4682 4.01983 0
M  V30 21756 H 2060.05 -0.103295 3.12429 0
M  V30 21757 H 2059.27 2.38235 3.14067 0
M  V30 21758 H 2060.56 2.68952 4.31906 0
M  V30 21759 H 2059.96 -0.198236 5.65353 0
M  V30 21760 H 2058.52 0.156093 6.51613 0
M  V30 21761 N 2061.95 -1.07287 1.15444 0
M  V30 21762 C 2063.19 -1.8149 0.940261 0
M  V30 21763 C 2063.55 -1.84734 -0.523206 0
M  V30 21764 O 2064.75 -2.54815 -0.855738 0
M  V30 21765 C 2063.03 -3.22592 1.53848 0
M  V30 21766 S 2064.58 -4.13533 1.4675 0
M  V30 21767 H 2061.4 -0.625317 0.338377 0
M  V30 21768 H 2064 -1.28879 1.47005 0
M  V30 21769 H 2062.71 -3.1782 2.59651 0
M  V30 21770 H 2062.24 -3.80278 1.00758 0
M  V30 21771 H 2064.25 -4.94055 0.460833 0
M  V30 21772 N 2063.43 -0.951342 -1.25647 0
M  V30 21773 C 2064.36 -0.486897 -2.28367 0
M  V30 21774 C 2065.34 0.465072 -1.63619 0
M  V30 21775 O 2066.52 0.364737 -1.90744 0
M  V30 21776 C 2063.65 0.239229 -3.46475 0
M  V30 21777 C 2062.61 -0.627163 -4.2338 0
M  V30 21778 C 2061.93 0.229514 -5.34207 0
M  V30 21779 C 2063.23 -1.90362 -4.86374 0
M  V30 21780 H 2064.93 -1.34542 -2.67467 0
M  V30 21781 H 2062.47 -0.648383 -1.28577 0
M  V30 21782 H 2064.43 0.575251 -4.17455 0
M  V30 21783 H 2063.15 1.13197 -3.06356 0
M  V30 21784 H 2061.81 -0.946222 -3.54178 0
M  V30 21785 H 2061.46 1.12192 -4.90328 0
M  V30 21786 H 2061.16 -0.346852 -5.86575 0
M  V30 21787 H 2062.68 0.560578 -6.08021 0
M  V30 21788 H 2064.1 -1.63422 -5.49515 0
M  V30 21789 H 2062.49 -2.42538 -5.48904 0
M  V30 21790 H 2063.56 -2.60876 -4.08744 0
M  V30 21791 N 2064.91 1.40216 -0.719531 0
M  V30 21792 C 2065.84 2.33348 -0.08432 0
M  V30 21793 C 2066.82 1.53101 0.741225 0
M  V30 21794 O 2068 1.81553 0.68935 0
M  V30 21795 C 2065.13 3.37106 0.835256 0
M  V30 21796 C 2064.09 4.27845 0.115036 0
M  V30 21797 C 2063.41 5.22174 1.15059 0
M  V30 21798 C 2064.71 5.1198 -1.03314 0
M  V30 21799 H 2066.41 2.86716 -0.862219 0
M  V30 21800 H 2063.95 1.37858 -0.416073 0
M  V30 21801 H 2065.9 4.012 1.28905 0
M  V30 21802 H 2064.63 2.82142 1.6451 0
M  V30 21803 H 2063.29 3.6521 -0.318975 0
M  V30 21804 H 2062.94 4.63513 1.95359 0
M  V30 21805 H 2062.64 5.83727 0.673556 0
M  V30 21806 H 2064.16 5.89144 1.60441 0
M  V30 21807 H 2065.57 5.69505 -0.658522 0
M  V30 21808 H 2063.97 5.82596 -1.4388 0
M  V30 21809 H 2065.04 4.47725 -1.86199 0
M  V30 21810 N 2066.38 0.466004 1.50553 0
M  V30 21811 C 2067.33 -0.349338 2.25308 0
M  V30 21812 C 2068.32 -0.965816 1.28689 0
M  V30 21813 O 2069.51 -0.879208 1.53619 0
M  V30 21814 C 2066.64 -1.43369 3.1193 0
M  V30 21815 C 2065.72 -0.825194 4.15994 0
M  V30 21816 N 2066.12 0.0514669 5.05774 0
M  V30 21817 C 2064.41 -1.08969 4.32483 0
M  V30 21818 C 2065.11 0.39627 5.80349 0
M  V30 21819 N 2064.09 -0.227292 5.43125 0
M  V30 21820 H 2067.89 0.326072 2.92086 0
M  V30 21821 H 2065.41 0.279833 1.59971 0
M  V30 21822 H 2067.4 -2.03093 3.64086 0
M  V30 21823 H 2066.06 -2.11114 2.467 0
M  V30 21824 H 2067.07 0.419946 5.16195 0
M  V30 21825 H 2063.75 -1.76251 3.78473 0
M  V30 21826 H 2065.14 1.1114 6.62644 0
M  V30 21827 N 2067.86 -1.56346 0.198413 0
M  V30 21828 C 2069.11 -1.97283 -0.438612 0
M  V30 21829 C 2069.43 -1.08657 -1.61922 0
M  V30 21830 O 2068.7 -0.158561 -1.95257 0
M  V30 21831 H 2067.28 -0.728541 -0.165035 0
M  V30 21832 H 2069.94 -1.92791 0.285919 0
M  V30 21833 H 2069.04 -3.02183 -0.780516 0
M  V30 21834 N 2069.34 0.0751653 -1.57421 0
M  V30 21835 C 2070.57 0.791793 -1.91691 0
M  V30 21836 C 2070.99 1.70496 -0.794522 0
M  V30 21837 O 2070.35 1.79528 0.25284 0
M  V30 21838 C 2070.4 1.5643 -3.24903 0
M  V30 21839 O 2069.5 2.67473 -3.13898 0
M  V30 21840 H 2068.84 0.21624 -0.627803 0
M  V30 21841 H 2071.37 0.0444189 -2.04552 0
M  V30 21842 H 2071.38 1.94427 -3.58695 0
M  V30 21843 H 2070.06 0.894266 -4.06172 0
M  V30 21844 H 2068.63 2.32357 -2.91658 0
M  V30 21845 N 2070.82 1.53744 0.346476 0
M  V30 21846 C 2071.77 1.81527 1.42536 0
M  V30 21847 C 2072.74 0.660781 1.52391 0
M  V30 21848 O 2073.92 0.904918 1.67976 0
M  V30 21849 C 2071.06 2.02795 2.79228 0
M  V30 21850 C 2070.17 3.30508 2.78188 0
M  V30 21851 C 2069.31 3.41859 4.06578 0
M  V30 21852 C 2068.35 4.63532 3.99755 0
M  V30 21853 N 2067.48 4.71933 5.1983 0
M  V30 21854 H 2072.32 2.7358 1.18144 0
M  V30 21855 H 2069.86 1.35508 0.572368 0
M  V30 21856 H 2071.82 2.13115 3.58661 0
M  V30 21857 H 2070.45 1.14059 3.01978 0
M  V30 21858 H 2069.5 3.29044 1.90877 0
M  V30 21859 H 2070.81 4.20033 2.69024 0
M  V30 21860 H 2069.97 3.51595 4.94435 0
M  V30 21861 H 2068.71 2.50385 4.1852 0
M  V30 21862 H 2067.71 4.53876 3.10284 0
M  V30 21863 H 2068.94 5.56368 3.89399 0
M  V30 21864 H 2066.88 3.83367 5.32321 0
M  V30 21865 H 2066.8 5.5539 5.12911 0
M  V30 21866 H 2068.07 4.85975 6.09466 0
M  V30 21867 N 2072.3 -0.607329 1.45428 0
M  V30 21868 C 2073.52 -1.39786 1.53214 0
M  V30 21869 C 2073.95 -1.87369 0.165684 0
M  V30 21870 O 2073.3 -1.60154 -0.849728 0
M  V30 21871 C 2073.35 -2.57823 2.52111 0
M  V30 21872 O 2072.46 -3.58462 2.03909 0
M  V30 21873 H 2071.8 -0.417312 0.516476 0
M  V30 21874 H 2074.33 -0.739101 1.90784 0
M  V30 21875 H 2074.34 -3.05064 2.70925 0
M  V30 21876 H 2073.01 -2.22539 3.51354 0
M  V30 21877 H 2071.59 -3.17868 1.94973 0
M  V30 21878 N 2073.77 -1.32722 -0.849853 0
M  V30 21879 C 2075 -1.26385 -1.63433 0
M  V30 21880 C 2075.41 0.169573 -1.88439 0
M  V30 21881 O 2074.76 1.11866 -1.45711 0
M  V30 21882 C 2074.82 -1.95887 -3.01444 0
M  V30 21883 C 2074.48 -3.45215 -2.99459 0
M  V30 21884 C 2075.48 -4.40614 -2.75962 0
M  V30 21885 C 2073.16 -3.87223 -3.19943 0
M  V30 21886 C 2075.16 -5.75996 -2.72959 0
M  V30 21887 C 2072.84 -5.22713 -3.16566 0
M  V30 21888 C 2073.84 -6.16911 -2.93104 0
M  V30 21889 O 2073.53 -7.49921 -2.8961 0
M  V30 21890 H 2073.26 -0.437171 -0.515614 0
M  V30 21891 H 2075.82 -1.75479 -1.06754 0
M  V30 21892 H 2074.05 -1.41369 -3.59933 0
M  V30 21893 H 2075.74 -1.83194 -3.62208 0
M  V30 21894 H 2076.5 -4.09484 -2.59899 0
M  V30 21895 H 2072.38 -3.14321 -3.37229 0
M  V30 21896 H 2075.92 -6.49494 -2.54566 0
M  V30 21897 H 2071.82 -5.53471 -3.32175 0
M  V30 21898 H 2072.59 -7.59338 -3.0553 0
M  V30 21899 N 2075.25 1.06673 -1.16011 0
M  V30 21900 C 2076.5 1.794 -0.939249 0
M  V30 21901 C 2076.83 1.87049 0.533193 0
M  V30 21902 O 2076.08 1.35544 1.4116 0
M  V30 21903 C 2076.38 3.24069 -1.50712 0
M  V30 21904 C 2076.05 3.36507 -3.00123 0
M  V30 21905 C 2074.71 3.39609 -3.4091 0
M  V30 21906 C 2077.06 3.38741 -3.96111 0
M  V30 21907 C 2074.39 3.42556 -4.76311 0
M  V30 21908 C 2076.74 3.43226 -5.31393 0
M  V30 21909 C 2075.41 3.44608 -5.71665 0
M  V30 21910 H 2074.68 0.656471 -0.343696 0
M  V30 21911 H 2077.32 1.25476 -1.44665 0
M  V30 21912 H 2075.63 3.80819 -0.921077 0
M  V30 21913 H 2077.32 3.78931 -1.31196 0
M  V30 21914 H 2073.91 3.34796 -2.676 0
M  V30 21915 H 2078.1 3.35559 -3.65669 0
M  V30 21916 H 2073.35 3.41928 -5.06848 0
M  V30 21917 H 2077.53 3.43902 -6.05561 0
M  V30 21918 H 2075.16 3.46645 -6.76566 0
M  V30 21919 N 2076.73 0.957992 1.25141 0
M  V30 21920 C 2077.98 0.614592 1.92948 0
M  V30 21921 C 2078.31 -0.848868 1.74999 0
M  V30 21922 O 2077.56 -1.62488 1.09069 0
M  V30 21923 C 2077.86 0.923523 3.45262 0
M  V30 21924 C 2077.53 2.37356 3.83371 0
M  V30 21925 C 2076.19 2.7699 3.93484 0
M  V30 21926 C 2078.54 3.31508 4.02184 0
M  V30 21927 C 2075.87 4.09838 4.19821 0
M  V30 21928 C 2078.22 4.63973 4.30014 0
M  V30 21929 C 2076.88 5.03398 4.38345 0
M  V30 21930 H 2076.15 0.224895 0.706048 0
M  V30 21931 H 2078.8 1.20766 1.4862 0
M  V30 21932 H 2077.11 0.248102 3.91014 0
M  V30 21933 H 2078.8 0.636357 3.95919 0
M  V30 21934 H 2075.39 2.05619 3.76057 0
M  V30 21935 H 2079.58 3.02076 3.93781 0
M  V30 21936 H 2074.83 4.40023 4.24488 0
M  V30 21937 H 2079.01 5.36905 4.43516 0
M  V30 21938 H 2076.63 6.06363 4.58506 0
M  V30 21939 N 2078.21 -1.39832 0.726957 0
M  V30 21940 C 2079.62 -1.54462 0.401692 0
M  V30 21941 C 2079.82 -1.6958 -1.08834 0
M  V30 21942 O 2078.88 -1.69177 -1.87444 0
M  V30 21943 C 2080.19 -2.76679 1.17769 0
M  V30 21944 C 2081.74 -2.90507 1.16511 0
M  V30 21945 C 2082.22 -4.1565 1.9235 0
M  V30 21946 N 2083.71 -4.22674 1.89476 0
M  V30 21947 C 2084.44 -5.18437 2.44971 0
M  V30 21948 N 2083.94 -6.20038 3.0907 0
M  V30 21949 N 2085.73 -5.10596 2.3505 0
M  V30 21950 H 2077.88 -1.28266 1.69297 0
M  V30 21951 H 2080.15 -0.621077 0.716217 0
M  V30 21952 H 2079.85 -2.71823 2.2317 0
M  V30 21953 H 2079.73 -3.69115 0.776799 0
M  V30 21954 H 2082.11 -2.94859 0.119254 0
M  V30 21955 H 2082.19 -1.99157 1.60531 0
M  V30 21956 H 2081.84 -4.1206 2.96933 0
M  V30 21957 H 2081.77 -5.0603 1.45743 0
M  V30 21958 H 2084.26 -3.49892 1.42772 0
M  V30 21959 H 2084.57 -6.89555 3.48903 0
M  V30 21960 H 2082.92 -6.20449 3.13158 0
M  V30 21961 H 2086.11 -4.30154 1.84622 0
M  V30 21962 H 2086.28 -5.85053 2.78599 0
M  V30 21963 N 2079.69 -0.473982 -1.50304 0
M  V30 21964 C 2080.62 0.355019 -2.26434 0
M  V30 21965 C 2081.63 0.954546 -1.3188 0
M  V30 21966 O 2082.82 0.842462 -1.57368 0
M  V30 21967 C 2079.92 1.51219 -3.03292 0
M  V30 21968 C 2079.09 1.02492 -4.25222 0
M  V30 21969 C 2078.15 2.05649 -4.8435 0
M  V30 21970 O 2077.18 1.63594 -5.45184 0
M  V30 21971 N 2078.38 3.38481 -4.71605 0
M  V30 21972 H 2081.15 -0.297646 -2.98218 0
M  V30 21973 H 2078.71 -0.304934 -1.59002 0
M  V30 21974 H 2080.7 2.19927 -3.39726 0
M  V30 21975 H 2079.27 2.0695 -2.34287 0
M  V30 21976 H 2078.49 0.16363 -3.9386 0
M  V30 21977 H 2079.78 0.677339 -5.04271 0
M  V30 21978 H 2079.17 3.75356 -4.23231 0
M  V30 21979 H 2077.73 4.02979 -5.123 0
M  V30 21980 N 2081.16 1.56239 -0.206702 0
M  V30 21981 C 2082.58 1.84211 0.303832 0
M  V30 21982 C 2082.93 1.12771 1.60552 0
M  V30 21983 O 2082.05 0.392383 2.12813 0
M  V30 21984 C 2082.65 3.34173 0.558041 0
M  V30 21985 C 2081.21 3.62515 1.01292 0
M  V30 21986 C 2080.35 2.77217 0.0678344 0
M  V30 21987 H 2083.3 1.52757 -0.430235 0
M  V30 21988 H 2083.32 3.53573 1.40593 0
M  V30 21989 H 2082.84 3.8614 -0.38952 0
M  V30 21990 H 2080.94 3.15991 1.97435 0
M  V30 21991 H 2081.05 4.70617 0.8976 0
M  V30 21992 H 2079.41 2.48197 0.571888 0
M  V30 21993 H 2080.2 3.31978 -0.874377 0
M  V30 21994 N 2082.64 -0.0668159 1.57458 0
M  V30 21995 C 2083.87 -0.777815 1.91723 0
M  V30 21996 C 2084.29 -1.70866 0.803128 0
M  V30 21997 O 2083.64 -1.8113 -0.223207 0
M  V30 21998 C 2083.69 -1.56722 3.25761 0
M  V30 21999 O 2083.41 -0.673779 4.32888 0
M  V30 22000 C 2084.92 -2.37877 3.74071 0
M  V30 22001 H 2082.14 -0.220863 0.633609 0
M  V30 22002 H 2084.68 -0.0355987 2.04469 0
M  V30 22003 H 2082.83 -2.26166 3.14527 0
M  V30 22004 H 2083.25 -1.22335 5.10034 0
M  V30 22005 H 2084.72 -2.88716 4.70476 0
M  V30 22006 H 2085.2 -3.17625 3.03334 0
M  V30 22007 H 2085.81 -1.73579 3.88266 0
M  V30 22008 N 2084.12 -1.53926 -0.338317 0
M  V30 22009 C 2085.37 -1.71678 -1.07957 0
M  V30 22010 C 2085.7 -0.481294 -1.88141 0
M  V30 22011 O 2084.98 0.521709 -1.87372 0
M  V30 22012 C 2085.26 -2.98347 -2.01646 0
M  V30 22013 C 2085.11 -4.32114 -1.24889 0
M  V30 22014 C 2086.43 -3.20708 -3.01388 0
M  V30 22015 H 2083.55 -0.62468 -0.39108 0
M  V30 22016 H 2086.19 -1.86604 -0.357623 0
M  V30 22017 H 2084.34 -2.85752 -2.63207 0
M  V30 22018 H 2086.01 -4.56568 -0.659021 0
M  V30 22019 H 2084.26 -4.30287 -0.550962 0
M  V30 22020 H 2084.93 -5.16935 -1.93604 0
M  V30 22021 H 2087.4 -3.32667 -2.49943 0
M  V30 22022 H 2086.28 -4.10723 -3.6414 0
M  V30 22023 H 2086.54 -2.37246 -3.7305 0
M  V30 22024 N 2085.6 0.599608 -1.45748 0
M  V30 22025 C 2086.56 1.6918 -1.54631 0
M  V30 22026 C 2087.56 1.55081 -0.425029 0
M  V30 22027 O 2088.75 1.60004 -0.688782 0
M  V30 22028 C 2085.88 3.08502 -1.45049 0
M  V30 22029 H 2087.08 1.62667 -2.51951 0
M  V30 22030 H 2084.63 0.816022 -1.33307 0
M  V30 22031 H 2085.37 3.20585 -0.489439 0
M  V30 22032 H 2085.15 3.20144 -2.26386 0
M  V30 22033 H 2086.64 3.88042 -1.54315 0
M  V30 22034 N 2087.08 1.33171 0.842803 0
M  V30 22035 C 2088.33 1.24159 1.59464 0
M  V30 22036 C 2088.65 -0.193595 1.94037 0
M  V30 22037 O 2087.92 -1.12135 1.60632 0
M  V30 22038 H 2086.5 0.456555 0.591241 0
M  V30 22039 H 2089.16 1.66842 1.00746 0
M  V30 22040 H 2088.25 1.83255 2.52634 0
M  V30 22041 N 2088.56 -1.06056 1.16576 0
M  V30 22042 C 2089.52 -2.11761 0.876928 0
M  V30 22043 C 2090.52 -1.60281 -0.129123 0
M  V30 22044 O 2091.71 -1.73901 0.102046 0
M  V30 22045 C 2088.84 -3.3947 0.311872 0
M  V30 22046 H 2090.03 -2.38816 1.81403 0
M  V30 22047 H 2087.59 -1.2216 0.975021 0
M  V30 22048 H 2088.32 -3.18066 -0.632797 0
M  V30 22049 H 2088.11 -3.78143 1.03683 0
M  V30 22050 H 2089.6 -4.17404 0.12782 0
M  V30 22051 N 2090.03 -0.964615 -1.24631 0
M  V30 22052 C 2091.26 -0.641907 -1.97216 0
M  V30 22053 C 2091.68 0.781279 -1.71107 0
M  V30 22054 O 2091.04 1.52981 -0.972952 0
M  V30 22055 C 2091.09 -0.918908 -3.48695 0
M  V30 22056 O 2090.19 -0.00276058 -4.124 0
M  V30 22057 H 2089.53 -0.243001 -0.617937 0
M  V30 22058 H 2092.06 -1.29393 -1.58489 0
M  V30 22059 H 2092.07 -0.849197 -3.99065 0
M  V30 22060 H 2090.75 -1.95612 -3.67027 0
M  V30 22061 H 2089.33 -0.125529 -3.72689 0
M  V30 22062 N 2091.51 1.39445 -0.734362 0
M  V30 22063 C 2092.46 2.30609 -0.093969 0
M  V30 22064 C 2093.43 1.49181 0.730356 0
M  V30 22065 O 2094.61 1.77869 0.69045 0
M  V30 22066 C 2091.75 3.35512 0.807817 0
M  V30 22067 C 2090.87 4.3199 -0.0290549 0
M  V30 22068 C 2090 5.23961 0.873946 0
M  V30 22069 C 2089.04 6.12091 0.0322837 0
M  V30 22070 N 2088.18 6.96421 0.891182 0
M  V30 22071 H 2093.02 2.84802 -0.877022 0
M  V30 22072 H 2090.55 1.40234 -0.444152 0
M  V30 22073 H 2092.51 3.94922 1.34509 0
M  V30 22074 H 2091.14 2.82775 1.55685 0
M  V30 22075 H 2090.19 3.74205 -0.683744 0
M  V30 22076 H 2091.51 4.94145 -0.679865 0
M  V30 22077 H 2090.66 5.88394 1.47909 0
M  V30 22078 H 2089.4 4.62127 1.55854 0
M  V30 22079 H 2088.4 5.46672 -0.585665 0
M  V30 22080 H 2089.63 6.75991 -0.649081 0
M  V30 22081 H 2087.58 6.37155 1.56108 0
M  V30 22082 H 2087.49 7.55417 0.296837 0
M  V30 22083 H 2088.76 7.65284 1.48191 0
M  V30 22084 N 2092.99 0.481946 1.5005 0
M  V30 22085 C 2093.95 -0.295344 2.27289 0
M  V30 22086 C 2094.95 -0.910886 1.32512 0
M  V30 22087 O 2096.14 -0.778377 1.55843 0
M  V30 22088 C 2093.27 -1.42179 3.09835 0
M  V30 22089 H 2094.47 0.382176 2.97455 0
M  V30 22090 H 2092.02 0.236325 1.54503 0
M  V30 22091 H 2092.76 -2.13404 2.44191 0
M  V30 22092 H 2092.54 -0.986087 3.79498 0
M  V30 22093 H 2094.03 -1.96982 3.68223 0
M  V30 22094 N 2094.47 -1.56127 0.214985 0
M  V30 22095 C 2095.88 -1.5898 -0.140524 0
M  V30 22096 C 2096.08 -1.23166 -1.59475 0
M  V30 22097 O 2095.14 -0.963792 -2.33382 0
M  V30 22098 C 2096.45 -3.00162 0.179827 0
M  V30 22099 C 2098 -3.12764 0.121534 0
M  V30 22100 C 2098.48 -4.56112 0.415468 0
M  V30 22101 N 2099.97 -4.61761 0.364801 0
M  V30 22102 C 2100.7 -5.70602 0.565817 0
M  V30 22103 N 2100.2 -6.87831 0.828254 0
M  V30 22104 N 2101.99 -5.59883 0.498704 0
M  V30 22105 H 2094.14 -1.77683 1.16372 0
M  V30 22106 H 2096.4 -0.825579 0.465964 0
M  V30 22107 H 2096.11 -3.30995 1.1889 0
M  V30 22108 H 2095.98 -3.7376 -0.508279 0
M  V30 22109 H 2098.37 -2.81731 -0.878172 0
M  V30 22110 H 2098.45 -2.4151 0.843017 0
M  V30 22111 H 2098.1 -4.87861 1.41258 0
M  V30 22112 H 2098.03 -5.25583 -0.327132 0
M  V30 22113 H 2100.52 -3.7752 0.169387 0
M  V30 22114 H 2100.83 -7.66689 0.969914 0
M  V30 22115 H 2099.18 -6.89591 0.865375 0
M  V30 22116 H 2102.37 -4.67176 0.293953 0
M  V30 22117 H 2102.54 -6.44643 0.658773 0
M  V30 22118 N 2095.95 0.0584645 -1.57492 0
M  V30 22119 C 2097.36 0.608705 -1.76498 0
M  V30 22120 C 2097.71 1.77203 -0.84224 0
M  V30 22121 O 2096.83 2.1638 -0.0296265 0
M  V30 22122 C 2097.43 1.11101 -3.20066 0
M  V30 22123 C 2095.99 1.607 -3.40371 0
M  V30 22124 C 2095.13 0.532159 -2.72146 0
M  V30 22125 H 2098.08 -0.167741 -1.57811 0
M  V30 22126 H 2098.11 1.97943 -3.2496 0
M  V30 22127 H 2097.62 0.264112 -3.872 0
M  V30 22128 H 2095.72 2.47671 -2.7837 0
M  V30 22129 H 2095.83 1.67476 -4.48875 0
M  V30 22130 H 2094.2 0.980354 -2.35077 0
M  V30 22131 H 2094.98 -0.304774 -3.41944 0
M  V30 22132 N 2097.42 1.54103 0.330149 0
M  V30 22133 C 2098.7 1.62635 1.0867 0
M  V30 22134 C 2099.08 0.456041 2.06115 0
M  V30 22135 O 2098.43 -0.550367 2.21773 0
M  V30 22136 C 2098.64 2.99332 1.79448 0
M  V30 22137 C 2099.99 3.55151 2.32708 0
M  V30 22138 O 2101.01 3.01594 1.89525 0
M  V30 22139 O 2099.87 4.4886 3.11749 0
M  V30 22140 H 2096.96 0.658337 0.500521 0
M  V30 22141 H 2099.51 1.66449 0.330568 0
M  V30 22142 H 2098.28 3.75947 1.08532 0
M  V30 22143 H 2097.9 2.99167 2.61887 0
M  V30 22144 N 2098.9 -0.59187 1.46064 0
M  V30 22145 C 2100.15 -1.3504 1.50899 0
M  V30 22146 C 2100.48 -1.93865 0.156992 0
M  V30 22147 O 2099.73 -1.76455 -0.846284 0
M  V30 22148 C 2100.03 -2.50587 2.54835 0
M  V30 22149 C 2099.7 -2.09811 3.99111 0
M  V30 22150 C 2098.36 -1.98406 4.38393 0
M  V30 22151 C 2100.71 -1.78225 4.89781 0
M  V30 22152 C 2098.04 -1.53658 5.66221 0
M  V30 22153 C 2100.39 -1.34959 6.18036 0
M  V30 22154 C 2099.06 -1.22123 6.56233 0
M  V30 22155 H 2098.33 -0.494146 0.552178 0
M  V30 22156 H 2100.97 -0.667418 1.79493 0
M  V30 22157 H 2099.28 -3.24292 2.19868 0
M  V30 22158 H 2100.97 -3.08809 2.55809 0
M  V30 22159 H 2097.56 -2.1962 3.68056 0
M  V30 22160 H 2101.75 -1.85927 4.60158 0
M  V30 22161 H 2097 -1.42356 5.94596 0
M  V30 22162 H 2101.18 -1.09569 6.87726 0
M  V30 22163 H 2098.81 -0.872249 7.55179 0
M  V30 22164 N 2100.38 -1.33616 -0.835729 0
M  V30 22165 C 2101.8 -1.13019 -1.12689 0
M  V30 22166 C 2102 0.0768335 -2.01353 0
M  V30 22167 O 2101.05 0.756169 -2.40911 0
M  V30 22168 C 2102.37 -2.41918 -1.78595 0
M  V30 22169 C 2103.91 -2.47854 -1.91147 0
M  V30 22170 C 2104.39 -3.76723 -2.60469 0
M  V30 22171 N 2105.88 -3.77811 -2.67979 0
M  V30 22172 C 2106.61 -4.74237 -3.22315 0
M  V30 22173 N 2106.11 -5.81039 -3.77313 0
M  V30 22174 N 2107.9 -4.61709 -3.20596 0
M  V30 22175 H 2100.05 -2.10974 -0.245697 0
M  V30 22176 H 2102.32 -0.932353 -0.171526 0
M  V30 22177 H 2102.02 -3.30264 -1.20906 0
M  V30 22178 H 2101.9 -2.54302 -2.78586 0
M  V30 22179 H 2104.28 -1.59955 -2.47989 0
M  V30 22180 H 2104.37 -2.39408 -0.900965 0
M  V30 22181 H 2104.01 -4.65005 -2.04286 0
M  V30 22182 H 2103.94 -3.82447 -3.61998 0
M  V30 22183 H 2106.43 -3.00626 -2.28982 0
M  V30 22184 H 2106.74 -6.50648 -4.16986 0
M  V30 22185 H 2105.09 -5.8477 -3.75592 0
M  V30 22186 H 2108.28 -3.77426 -2.76888 0
M  V30 22187 H 2108.45 -5.37026 -3.62639 0
M  V30 22188 N 2101.86 1.05436 -1.17136 0
M  V30 22189 C 2102.82 2.11293 -0.888146 0
M  V30 22190 C 2103.82 1.60347 0.120621 0
M  V30 22191 O 2105.01 1.73844 -0.111266 0
M  V30 22192 C 2102.14 3.393 -0.329871 0
M  V30 22193 H 2103.34 2.3785 -1.82667 0
M  V30 22194 H 2100.89 1.21641 -0.981486 0
M  V30 22195 H 2101.62 3.18397 0.61592 0
M  V30 22196 H 2101.41 3.77588 -1.05687 0
M  V30 22197 H 2102.9 4.17331 -0.149954 0
M  V30 22198 N 2103.34 0.971211 1.24118 0
M  V30 22199 C 2104.27 0.523167 2.27564 0
M  V30 22200 C 2105.25 -0.438983 1.64338 0
M  V30 22201 O 2106.43 -0.334345 1.913 0
M  V30 22202 C 2103.56 -0.184078 3.46812 0
M  V30 22203 C 2102.52 0.694439 4.22329 0
M  V30 22204 C 2101.84 -0.144498 5.34505 0
M  V30 22205 C 2103.14 1.98076 4.83284 0
M  V30 22206 H 2104.84 1.3878 2.65293 0
M  V30 22207 H 2102.38 0.668756 1.27529 0
M  V30 22208 H 2104.34 -0.508765 4.18318 0
M  V30 22209 H 2103.06 -1.08309 3.08118 0
M  V30 22210 H 2101.72 1.00245 3.52628 0
M  V30 22211 H 2101.37 -1.04377 4.92051 0
M  V30 22212 H 2101.07 0.440127 5.85949 0
M  V30 22213 H 2102.59 -0.463776 6.08836 0
M  V30 22214 H 2104 1.72143 5.46845 0
M  V30 22215 H 2102.4 2.5124 5.44976 0
M  V30 22216 H 2103.47 2.67346 4.04542 0
M  V30 22217 N 2104.81 -1.39054 0.741747 0
M  V30 22218 C 2106.06 -2.00671 0.293089 0
M  V30 22219 C 2106.39 -1.58733 -1.11882 0
M  V30 22220 O 2105.67 -0.819335 -1.76401 0
M  V30 22221 C 2105.95 -3.57843 0.402573 0
M  V30 22222 C 2105.8 -4.0978 1.85474 0
M  V30 22223 C 2107.12 -4.39594 -0.211039 0
M  V30 22224 H 2104.24 -0.729048 0.10797 0
M  V30 22225 H 2106.88 -1.65165 0.939169 0
M  V30 22226 H 2105.03 -3.8822 -0.147482 0
M  V30 22227 H 2106.71 -3.90095 2.46219 0
M  V30 22228 H 2104.95 -3.63088 2.3738 0
M  V30 22229 H 2105.62 -5.18906 1.88257 0
M  V30 22230 H 2108.1 -4.153 0.257937 0
M  V30 22231 H 2106.97 -5.48801 -0.104126 0
M  V30 22232 H 2107.23 -4.22618 -1.29792 0
M  V30 22233 N 2106.29 -0.489897 -1.49792 0
M  V30 22234 C 2107.52 0.0556798 -2.06825 0
M  V30 22235 C 2107.94 1.31825 -1.35158 0
M  V30 22236 O 2107.29 1.77446 -0.426503 0
M  V30 22237 C 2107.34 0.324604 -3.6004 0
M  V30 22238 O 2107.06 -0.887904 -4.29008 0
M  V30 22239 C 2108.57 0.91506 -4.33753 0
M  V30 22240 H 2105.79 -0.0154889 -0.670821 0
M  V30 22241 H 2108.33 -0.684073 -1.92719 0
M  V30 22242 H 2106.48 1.01432 -3.73885 0
M  V30 22243 H 2106.9 -0.643954 -5.20532 0
M  V30 22244 H 2108.37 1.05288 -5.41866 0
M  V30 22245 H 2108.85 1.91003 -3.95493 0
M  V30 22246 H 2109.46 0.263155 -4.24485 0
M  V30 22247 N 2107.77 1.56011 -0.223262 0
M  V30 22248 C 2108.72 2.21735 0.702604 0
M  V30 22249 C 2109.71 1.19729 1.19839 0
M  V30 22250 O 2110.92 1.37804 1.15802 0
M  V30 22251 H 2107.29 0.71097 0.245002 0
M  V30 22252 H 2109.26 2.98139 0.124869 0
M  V30 22253 C 2108.01 2.91245 1.89925 0
M  V30 22254 H 2107.34 3.69496 1.52686 0
M  V30 22255 H 2108.78 3.4063 2.52482 0
M  V30 22256 C 2107.24 1.9381 2.75571 0
M  V30 22257 O 2107.77 1.45612 3.74379 0
M  V30 22258 N 2105.97 1.61422 2.41643 0
M  V30 22259 H 2105.52 2.00811 1.61347 0
M  V30 22260 H 2105.48 0.964905 2.99227 0
M  V30 22261 N 2109.25 -0.0501116 1.5752 0
M  V30 22262 C 2110.2 -1.05718 2.05164 0
M  V30 22263 C 2111.17 -1.37182 0.936492 0
M  V30 22264 O 2112.35 -1.4788 1.20565 0
M  V30 22265 C 2109.49 -2.3594 2.51846 0
M  V30 22266 C 2108.6 -2.10818 3.77067 0
M  V30 22267 C 2107.74 -3.34759 4.12444 0
M  V30 22268 C 2106.78 -3.05097 5.30643 0
M  V30 22269 N 2105.91 -4.21429 5.61553 0
M  V30 22270 H 2110.75 -0.643931 2.9096 0
M  V30 22271 H 2108.29 -0.30636 1.43874 0
M  V30 22272 H 2110.25 -3.11999 2.7697 0
M  V30 22273 H 2108.88 -2.75027 1.68997 0
M  V30 22274 H 2107.93 -1.25352 3.59153 0
M  V30 22275 H 2109.24 -1.84923 4.63255 0
M  V30 22276 H 2108.4 -4.19199 4.38585 0
M  V30 22277 H 2107.14 -3.63748 3.24867 0
M  V30 22278 H 2106.14 -2.19056 5.04276 0
M  V30 22279 H 2107.37 -2.77407 6.19856 0
M  V30 22280 H 2105.31 -4.5041 4.76935 0
M  V30 22281 H 2105.23 -3.98884 6.42205 0
M  V30 22282 H 2106.5 -5.06804 5.92258 0
M  V30 22283 N 2110.73 -1.54276 -0.321972 0
M  V30 22284 C 2112.14 -1.63778 -0.896309 0
M  V30 22285 C 2112.49 -0.532871 -1.88825 0
M  V30 22286 O 2111.61 0.33397 -2.13807 0
M  V30 22287 C 2112.21 -2.96878 -1.63245 0
M  V30 22288 C 2110.77 -3.0857 -2.15549 0
M  V30 22289 C 2109.91 -2.59353 -0.981385 0
M  V30 22290 H 2112.87 -1.58388 -0.0995121 0
M  V30 22291 H 2112.89 -2.87127 -2.49677 0
M  V30 22292 H 2112.4 -3.77274 -0.910251 0
M  V30 22293 H 2110.5 -2.32851 -2.9088 0
M  V30 22294 H 2110.61 -4.14398 -2.4044 0
M  V30 22295 H 2108.98 -2.15288 -1.361 0
M  V30 22296 H 2109.76 -3.42209 -0.273477 0
M  V30 22297 N 2112.2 0.584116 -1.46376 0
M  V30 22298 C 2113.45 1.34437 -1.51837 0
M  V30 22299 C 2113.78 1.93464 -0.168948 0
M  V30 22300 O 2113.06 1.76395 0.819455 0
M  V30 22301 C 2113.34 2.47477 -2.61586 0
M  V30 22302 C 2113.19 1.93494 -4.06054 0
M  V30 22303 C 2114.51 3.49527 -2.6743 0
M  V30 22304 H 2111.63 0.487455 -0.552772 0
M  V30 22305 H 2114.27 0.656303 -1.78305 0
M  V30 22306 H 2112.42 3.0617 -2.39148 0
M  V30 22307 H 2114.1 1.39268 -4.39775 0
M  V30 22308 H 2112.34 1.24333 -4.15601 0
M  V30 22309 H 2113.01 2.75087 -4.78572 0
M  V30 22310 H 2115.49 3.00712 -2.87596 0
M  V30 22311 H 2114.36 4.26082 -3.46043 0
M  V30 22312 H 2114.62 4.06664 -1.73426 0
M  V30 22313 N 2113.68 1.34058 0.828631 0
M  V30 22314 C 2114.93 1.2628 1.58686 0
M  V30 22315 C 2115.26 -0.168425 1.93468 0
M  V30 22316 O 2114.54 -1.11237 1.59551 0
M  V30 22317 C 2114.82 2.14808 2.89015 0
M  V30 22318 C 2114.67 3.66439 2.60849 0
M  V30 22319 C 2115.99 2.02902 3.90536 0
M  V30 22320 H 2113.11 0.460068 0.575766 0
M  V30 22321 H 2115.75 1.64256 0.954988 0
M  V30 22322 H 2113.9 1.82551 3.42939 0
M  V30 22323 H 2115.58 4.09036 2.13278 0
M  V30 22324 H 2113.82 3.87811 1.94384 0
M  V30 22325 H 2114.49 4.23742 3.53761 0
M  V30 22326 H 2116.97 2.31212 3.45948 0
M  V30 22327 H 2115.84 2.6708 4.79541 0
M  V30 22328 H 2116.1 1.00429 4.30542 0
M  V30 22329 N 2115.16 -1.04814 1.17694 0
M  V30 22330 C 2116.39 -1.82088 0.992908 0
M  V30 22331 C 2116.81 -1.82538 -0.454023 0
M  V30 22332 O 2116.17 -1.23716 -1.3253 0
M  V30 22333 C 2116.22 -3.25912 1.54318 0
M  V30 22334 O 2115.32 -4.05346 0.759486 0
M  V30 22335 H 2114.66 -0.562852 0.352268 0
M  V30 22336 H 2117.19 -1.32054 1.56279 0
M  V30 22337 H 2117.2 -3.76705 1.56708 0
M  V30 22338 H 2115.88 -3.24899 2.59641 0
M  V30 22339 H 2114.45 -3.64056 0.807298 0
M  V30 22340 N 2116.64 -0.977779 -1.23601 0
M  V30 22341 C 2117.6 -0.520908 -2.23202 0
M  V30 22342 C 2118.6 0.38804 -1.56048 0
M  V30 22343 O 2119.79 0.182096 -1.73246 0
M  V30 22344 C 2116.92 0.244298 -3.40024 0
M  V30 22345 H 2118.12 -1.40154 -2.65135 0
M  V30 22346 H 2115.67 -0.763397 -1.36389 0
M  V30 22347 H 2116.41 1.14159 -3.03543 0
M  V30 22348 H 2116.19 -0.408125 -3.8997 0
M  V30 22349 H 2117.68 0.55263 -4.13927 0
M  V30 22350 N 2118.12 1.38658 -0.749111 0
M  V30 22351 C 2119.05 2.33116 -0.133797 0
M  V30 22352 C 2120.03 1.54639 0.708583 0
M  V30 22353 O 2121.21 1.82975 0.650684 0
M  V30 22354 C 2118.34 3.38802 0.763563 0
M  V30 22355 C 2117.3 4.27993 0.0242578 0
M  V30 22356 C 2116.62 5.24497 1.03957 0
M  V30 22357 C 2117.92 5.09673 -1.14151 0
M  V30 22358 H 2119.62 2.84823 -0.922842 0
M  V30 22359 H 2117.16 1.36944 -0.445221 0
M  V30 22360 H 2119.12 4.03844 1.20366 0
M  V30 22361 H 2117.84 2.85568 1.58488 0
M  V30 22362 H 2116.5 3.64451 -0.39637 0
M  V30 22363 H 2116.15 4.67552 1.85483 0
M  V30 22364 H 2115.85 5.85024 0.549587 0
M  V30 22365 H 2117.37 5.92415 1.47908 0
M  V30 22366 H 2118.79 5.6798 -0.779174 0
M  V30 22367 H 2117.18 5.79413 -1.56206 0
M  V30 22368 H 2118.25 4.43675 -1.95654 0
M  V30 22369 N 2119.6 0.497834 1.49531 0
M  V30 22370 C 2120.55 -0.301469 2.25998 0
M  V30 22371 C 2121.53 -0.938302 1.30708 0
M  V30 22372 O 2122.72 -0.846425 1.5545 0
M  V30 22373 C 2119.85 -1.3672 3.14901 0
M  V30 22374 C 2118.94 -0.73677 4.17651 0
M  V30 22375 N 2119.33 0.158737 5.05551 0
M  V30 22376 C 2117.63 -0.997712 4.34697 0
M  V30 22377 C 2118.33 0.519281 5.79378 0
M  V30 22378 N 2117.3 -0.112036 5.43485 0
M  V30 22379 H 2121.1 0.387954 2.91328 0
M  V30 22380 H 2118.62 0.313703 1.59341 0
M  V30 22381 H 2120.62 -1.95325 3.68312 0
M  V30 22382 H 2119.28 -2.05834 2.51123 0
M  V30 22383 H 2120.29 0.529344 5.15188 0
M  V30 22384 H 2116.96 -1.68183 3.82126 0
M  V30 22385 H 2118.35 1.25171 6.60138 0
M  V30 22386 N 2121.07 -1.5589 0.231532 0
M  V30 22387 C 2122.32 -1.98169 -0.396667 0
M  V30 22388 C 2122.64 -1.12067 -1.59581 0
M  V30 22389 O 2121.91 -0.199942 -1.94877 0
M  V30 22390 H 2120.49 -0.731878 -0.149544 0
M  V30 22391 H 2123.15 -1.92142 0.326749 0
M  V30 22392 H 2122.25 -3.0377 -0.716243 0
M  V30 22393 N 2122.55 0.0417572 -1.57545 0
M  V30 22394 C 2123.51 1.03085 -2.0471 0
M  V30 22395 C 2124.51 1.29808 -0.94903 0
M  V30 22396 O 2125.7 1.25024 -1.21304 0
M  V30 22397 C 2122.84 2.367 -2.45329 0
M  V30 22398 H 2124.03 0.623701 -2.93343 0
M  V30 22399 H 2121.58 0.288275 -1.53619 0
M  V30 22400 H 2122.32 2.82188 -1.59813 0
M  V30 22401 H 2122.1 2.18637 -3.25485 0
M  V30 22402 H 2123.59 3.07737 -2.8229 0
M  V30 22403 N 2124.03 1.54445 0.313786 0
M  V30 22404 C 2125.28 1.73373 1.05212 0
M  V30 22405 C 2125.61 0.511165 1.87352 0
M  V30 22406 O 2124.88 -0.491833 1.88179 0
M  V30 22407 C 2125.17 3.01517 1.96874 0
M  V30 22408 C 2125.02 4.34046 1.17999 0
M  V30 22409 C 2126.34 3.25462 2.96248 0
M  V30 22410 H 2123.46 0.630823 0.381092 0
M  V30 22411 H 2126.1 1.87149 0.327891 0
M  V30 22412 H 2124.25 2.89903 2.58628 0
M  V30 22413 H 2125.92 4.57559 0.586302 0
M  V30 22414 H 2124.16 4.31109 0.482437 0
M  V30 22415 H 2124.84 5.19949 1.85355 0
M  V30 22416 H 2127.31 3.36602 2.44619 0
M  V30 22417 H 2126.19 4.16464 3.57559 0
M  V30 22418 H 2126.45 2.43151 3.69229 0
M  V30 22419 N 2125.51 -0.576345 1.46683 0
M  V30 22420 C 2126.92 -1.15848 1.46411 0
M  V30 22421 C 2127.27 -1.9509 0.208383 0
M  V30 22422 O 2126.39 -2.05169 -0.688092 0
M  V30 22423 C 2126.99 -2.10758 2.65267 0
M  V30 22424 C 2125.55 -2.64282 2.68015 0
M  V30 22425 C 2124.7 -1.40277 2.39202 0
M  V30 22426 H 2127.65 -0.363942 1.54471 0
M  V30 22427 H 2127.67 -2.94327 2.41147 0
M  V30 22428 H 2127.18 -1.53056 3.56645 0
M  V30 22429 H 2125.28 -3.25835 1.80726 0
M  V30 22430 H 2125.39 -3.06583 3.68163 0
M  V30 22431 H 2123.76 -1.70304 1.8939 0
M  V30 22432 H 2124.54 -0.843968 3.32764 0
M  V30 22433 N 2126.99 -1.34495 -0.82151 0
M  V30 22434 C 2127.95 -1.2608 -1.91407 0
M  V30 22435 C 2128.95 -0.175671 -1.59838 0
M  V30 22436 O 2130.14 -0.428389 -1.6885 0
M  V30 22437 C 2127.27 -0.9469 -3.27485 0
M  V30 22438 H 2128.46 -2.23212 -2.00291 0
M  V30 22439 H 2126.02 -1.18804 -1.01565 0
M  V30 22440 H 2126.75 0.0211878 -3.24293 0
M  V30 22441 H 2126.54 -1.73181 -3.51782 0
M  V30 22442 H 2128.03 -0.913228 -4.07492 0
M  V30 22443 N 2128.46 1.04188 -1.18248 0
M  V30 22444 C 2129.88 1.29568 -0.931902 0
M  V30 22445 C 2130.08 1.97424 0.403235 0
M  V30 22446 O 2129.14 2.25409 1.13785 0
M  V30 22447 C 2130.45 2.15557 -2.09656 0
M  V30 22448 C 2132 2.28907 -2.13473 0
M  V30 22449 C 2132.47 3.18262 -3.29353 0
M  V30 22450 N 2133.96 3.25849 -3.29206 0
M  V30 22451 C 2134.7 3.95141 -4.15513 0
M  V30 22452 N 2134.19 4.66775 -5.1195 0
M  V30 22453 N 2135.99 3.91408 -4.03431 0
M  V30 22454 H 2128.14 0.585496 -2.04171 0
M  V30 22455 H 2130.4 0.320854 -0.892052 0
M  V30 22456 H 2130.11 1.73002 -3.06208 0
M  V30 22457 H 2129.98 3.16231 -2.05616 0
M  V30 22458 H 2132.37 2.70698 -1.175 0
M  V30 22459 H 2132.45 1.27828 -2.21571 0
M  V30 22460 H 2132.09 2.77182 -4.25597 0
M  V30 22461 H 2132.02 4.1937 -3.18491 0
M  V30 22462 H 2134.51 2.74819 -2.59389 0
M  V30 22463 H 2134.83 5.17239 -5.74181 0
M  V30 22464 H 2133.17 4.65683 -5.15911 0
M  V30 22465 H 2136.36 3.34577 -3.27377 0
M  V30 22466 H 2136.54 4.45139 -4.70909 0
M  V30 22467 N 2129.94 0.98432 1.23081 0
M  V30 22468 C 2131.19 0.655381 1.91601 0
M  V30 22469 C 2131.52 -0.811558 1.7676 0
M  V30 22470 O 2130.77 -1.60138 1.12491 0
M  V30 22471 C 2131.07 0.996551 3.43225 0
M  V30 22472 C 2130.74 2.45434 3.7825 0
M  V30 22473 C 2129.4 2.85274 3.87521 0
M  V30 22474 C 2131.75 3.39965 3.95061 0
M  V30 22475 C 2129.08 4.18651 4.11033 0
M  V30 22476 C 2131.43 4.7299 4.20075 0
M  V30 22477 C 2130.1 5.12583 4.27569 0
M  V30 22478 H 2129.37 0.239821 0.701118 0
M  V30 22479 H 2132.01 1.23891 1.46025 0
M  V30 22480 H 2130.32 0.330986 3.90399 0
M  V30 22481 H 2132.01 0.720194 3.9448 0
M  V30 22482 H 2128.6 2.1355 3.71611 0
M  V30 22483 H 2132.79 3.10361 3.87285 0
M  V30 22484 H 2128.04 4.48928 4.15059 0
M  V30 22485 H 2132.22 5.46192 4.32027 0
M  V30 22486 H 2129.85 6.15952 4.45541 0
M  V30 22487 N 2131.42 -1.38259 0.756453 0
M  V30 22488 C 2132.35 -2.2902 0.0908208 0
M  V30 22489 C 2133.37 -1.47887 -0.680684 0
M  V30 22490 O 2134.55 -1.70718 -0.521301 0
M  V30 22491 C 2131.65 -3.26859 -0.895342 0
M  V30 22492 C 2130.83 -4.37026 -0.180877 0
M  V30 22493 C 2129.89 -5.15035 -1.0782 0
M  V30 22494 O 2128.91 -5.66559 -0.547658 0
M  V30 22495 N 2130.11 -5.28291 -2.40602 0
M  V30 22496 H 2132.88 -2.86785 0.870302 0
M  V30 22497 H 2130.44 -1.50071 0.607483 0
M  V30 22498 H 2132.43 -3.75926 -1.49873 0
M  V30 22499 H 2131 -2.69972 -1.57588 0
M  V30 22500 H 2130.22 -3.89557 0.603252 0
M  V30 22501 H 2131.51 -5.07834 0.313403 0
M  V30 22502 H 2130.91 -4.87986 -2.86158 0
M  V30 22503 H 2129.47 -5.80721 -2.95984 0
M  V30 22504 N 2132.9 -0.505757 -1.49264 0
M  V30 22505 C 2133.85 0.270127 -2.29214 0
M  V30 22506 C 2134.82 0.956031 -1.35828 0
M  V30 22507 O 2136 0.961771 -1.64787 0
M  V30 22508 C 2133.14 1.32577 -3.18618 0
M  V30 22509 C 2132.25 0.65116 -4.27064 0
M  V30 22510 C 2131.39 1.68765 -5.03678 0
M  V30 22511 C 2130.43 0.995172 -6.03956 0
M  V30 22512 N 2129.56 1.97608 -6.73718 0
M  V30 22513 H 2134.4 -0.41788 -2.95056 0
M  V30 22514 H 2131.94 -0.217921 -1.45477 0
M  V30 22515 H 2133.9 1.94985 -3.68832 0
M  V30 22516 H 2132.53 1.98248 -2.5475 0
M  V30 22517 H 2131.58 -0.0863124 -3.80302 0
M  V30 22518 H 2132.89 0.106277 -4.98687 0
M  V30 22519 H 2132.05 2.38665 -5.57785 0
M  V30 22520 H 2130.79 2.2664 -4.3184 0
M  V30 22521 H 2129.79 0.281968 -5.49076 0
M  V30 22522 H 2131.02 0.422861 -6.77782 0
M  V30 22523 H 2128.96 2.54436 -6.04647 0
M  V30 22524 H 2128.88 1.48199 -7.41332 0
M  V30 22525 H 2130.15 2.66782 -7.32426 0
M  V30 22526 N 2134.38 1.55765 -0.239796 0
M  V30 22527 C 2135.65 1.90659 0.436876 0
M  V30 22528 C 2136.03 1.1596 1.76398 0
M  V30 22529 O 2135.38 0.274778 2.26842 0
M  V30 22530 C 2135.59 3.43593 0.611939 0
M  V30 22531 C 2136.94 4.1471 0.911065 0
M  V30 22532 O 2137.96 3.49293 0.698064 0
M  V30 22533 O 2136.82 5.30411 1.3163 0
M  V30 22534 H 2133.92 0.793348 0.233511 0
M  V30 22535 H 2136.46 1.67318 -0.283335 0
M  V30 22536 H 2135.23 3.89961 -0.323424 0
M  V30 22537 H 2134.86 3.72773 1.38296 0
M  V30 22538 N 2135.85 -0.0334016 1.57565 0
M  V30 22539 C 2137.1 -0.724102 1.88254 0
M  V30 22540 C 2137.42 -1.76752 0.837737 0
M  V30 22541 O 2138.62 -2.51051 1.03372 0
M  V30 22542 C 2137.08 -1.33894 3.34067 0
M  V30 22543 C 2136.69 -0.332091 4.46767 0
M  V30 22544 C 2138.43 -2.00977 3.7391 0
M  V30 22545 C 2136.34 -0.955024 5.83638 0
M  V30 22546 H 2135.27 -0.274201 0.702375 0
M  V30 22547 H 2137.92 0.0216608 1.83487 0
M  V30 22548 H 2136.3 -2.13426 3.33565 0
M  V30 22549 H 2137.47 0.436205 4.58731 0
M  V30 22550 H 2135.79 0.236407 4.15728 0
M  V30 22551 H 2138.39 -2.48428 4.73485 0
M  V30 22552 H 2138.73 -2.82605 3.05679 0
M  V30 22553 H 2139.26 -1.28225 3.76568 0
M  V30 22554 H 2136 -0.178244 6.55258 0
M  V30 22555 H 2135.52 -1.69326 5.75403 0
M  V30 22556 H 2137.2 -1.46364 6.30227 0
M  V30 22557 N 2137.33 -1.54609 -0.305591 0
M  V30 22558 C 2138.57 -1.75406 -1.04938 0
M  V30 22559 C 2138.94 -0.526278 -1.84646 0
M  V30 22560 O 2140.14 -0.611906 -2.61743 0
M  V30 22561 C 2138.41 -3.00482 -1.93508 0
M  V30 22562 S 2139.97 -3.42262 -2.74595 0
M  V30 22563 H 2136.79 -0.616617 -0.353984 0
M  V30 22564 H 2139.39 -1.92808 -0.32331 0
M  V30 22565 H 2138.09 -3.8797 -1.33817 0
M  V30 22566 H 2137.62 -2.85654 -2.70491 0
M  V30 22567 H 2139.64 -2.98971 -3.96018 0
M  V30 22568 N 2138.81 0.568558 -1.46987 0
M  V30 22569 C 2140.06 1.32251 -1.52291 0
M  V30 22570 C 2140.37 1.94723 -0.184983 0
M  V30 22571 O 2141.58 2.71252 -0.115932 0
M  V30 22572 C 2140.03 2.3976 -2.68408 0
M  V30 22573 C 2139.64 1.83528 -4.08682 0
M  V30 22574 C 2141.39 3.16408 -2.82996 0
M  V30 22575 C 2139.29 2.88751 -5.16117 0
M  V30 22576 H 2138.22 0.497223 -0.56682 0
M  V30 22577 H 2140.87 0.605168 -1.73234 0
M  V30 22578 H 2139.26 3.14357 -2.40823 0
M  V30 22579 H 2140.43 1.1538 -4.46121 0
M  V30 22580 H 2138.75 1.19503 -3.98884 0
M  V30 22581 H 2141.34 3.94962 -3.60429 0
M  V30 22582 H 2141.69 3.69886 -1.91024 0
M  V30 22583 H 2142.22 2.4892 -3.10296 0
M  V30 22584 H 2138.96 2.40142 -6.09928 0
M  V30 22585 H 2138.48 3.55345 -4.83208 0
M  V30 22586 H 2140.16 3.52449 -5.42576 0
M  V30 22587 N 2140.29 1.34929 0.814366 0
M  V30 22588 C 2141.54 1.27514 1.56795 0
M  V30 22589 C 2141.86 -0.152393 1.94404 0
M  V30 22590 O 2141.13 -1.08703 1.62974 0
M  V30 22591 H 2139.71 0.468993 0.581424 0
M  V30 22592 H 2142.37 1.68941 0.971845 0
M  V30 22593 H 2141.47 1.88573 2.4869 0
M  V30 22594 N 2141.77 -1.0356 1.18799 0
M  V30 22595 C 2142.71 -2.13799 0.916116 0
M  V30 22596 C 2143.71 -1.68934 -0.125535 0
M  V30 22597 O 2144.91 -1.79985 0.0230864 0
M  V30 22598 H 2141.29 -0.698404 0.278811 0
M  V30 22599 H 2143.26 -2.33925 1.85262 0
M  V30 22600 C 2142.01 -3.44591 0.463926 0
M  V30 22601 H 2141.33 -3.79526 1.25698 0
M  V30 22602 H 2142.77 -4.22845 0.312739 0
M  V30 22603 C 2141.23 -3.26743 -0.821008 0
M  V30 22604 O 2141.76 -3.54778 -1.88403 0
M  V30 22605 N 2139.97 -2.80058 -0.775608 0
M  V30 22606 H 2139.51 -2.57444 0.089694 0
M  V30 22607 H 2139.47 -2.68497 -1.63575 0
M  V30 22608 N 2143.25 -0.990834 -1.22557 0
M  V30 22609 C 2144.18 -0.497682 -2.23731 0
M  V30 22610 C 2145.19 0.406113 -1.57653 0
M  V30 22611 O 2146.38 0.208577 -1.77277 0
M  V30 22612 C 2143.48 0.298244 -3.37585 0
M  V30 22613 C 2142.65 -0.601189 -4.33249 0
M  V30 22614 C 2141.71 0.142675 -5.26007 0
M  V30 22615 O 2140.74 -0.471227 -5.67246 0
M  V30 22616 N 2141.94 1.42559 -5.62723 0
M  V30 22617 H 2144.7 -1.36766 -2.66674 0
M  V30 22618 H 2142.27 -0.86531 -1.36836 0
M  V30 22619 H 2144.26 0.804481 -3.96623 0
M  V30 22620 H 2142.83 1.06931 -2.93742 0
M  V30 22621 H 2142.05 -1.28812 -3.7256 0
M  V30 22622 H 2143.34 -1.21379 -4.9411 0
M  V30 22623 H 2142.73 1.94571 -5.31186 0
M  V30 22624 H 2141.29 1.87706 -6.24187 0
M  V30 22625 N 2144.72 1.37856 -0.763775 0
M  V30 22626 C 2145.95 2.04686 -0.334395 0
M  V30 22627 C 2146.37 1.57229 1.0325 0
M  V30 22628 O 2145.73 0.728884 1.66003 0
M  V30 22629 C 2145.78 3.58616 -0.377715 0
M  V30 22630 O 2144.88 4.07641 0.624687 0
M  V30 22631 H 2144.22 0.647714 -0.146161 0
M  V30 22632 H 2146.75 1.76329 -1.03774 0
M  V30 22633 H 2146.76 4.07339 -0.232185 0
M  V30 22634 H 2145.44 3.92514 -1.37496 0
M  V30 22635 H 2144.02 3.7026 0.442931 0
M  V30 22636 N 2146.2 0.513665 1.48994 0
M  V30 22637 C 2147.15 -0.271533 2.3101 0
M  V30 22638 C 2148.14 -0.950911 1.40193 0
M  V30 22639 O 2149.35 -0.877155 1.57181 0
M  V30 22640 H 2145.72 -0.106429 0.744431 0
M  V30 22641 H 2147.7 0.440007 2.95138 0
M  V30 22642 C 2146.44 -1.3155 3.21854 0
M  V30 22643 H 2145.77 -0.802134 3.91671 0
M  V30 22644 H 2147.21 -1.83663 3.82157 0
M  V30 22645 C 2145.67 -2.34045 2.42332 0
M  V30 22646 O 2146.2 -3.40173 2.13647 0
M  V30 22647 N 2144.4 -2.06838 2.04123 0
M  V30 22648 H 2143.95 -1.20552 2.27651 0
M  V30 22649 H 2143.91 -2.75641 1.51225 0
M  V30 22650 N 2147.68 -1.55636 0.248053 0
M  V30 22651 C 2149.09 -1.84952 -0.254884 0
M  V30 22652 C 2149.44 -1.16988 -1.57506 0
M  V30 22653 O 2148.57 -0.448668 -2.11698 0
M  V30 22654 C 2149.16 -3.35535 -0.469244 0
M  V30 22655 C 2147.72 -3.65073 -0.916445 0
M  V30 22656 C 2146.87 -2.77299 0.00568866 0
M  V30 22657 H 2149.82 -1.51563 0.470584 0
M  V30 22658 H 2149.84 -3.57176 -1.31169 0
M  V30 22659 H 2149.35 -3.84972 0.491761 0
M  V30 22660 H 2147.45 -3.21114 -1.88988 0
M  V30 22661 H 2147.57 -4.72831 -0.772508 0
M  V30 22662 H 2145.93 -2.49626 -0.505882 0
M  V30 22663 H 2146.71 -3.29543 0.962088 0
M  V30 22664 N 2149.16 0.0250451 -1.5758 0
M  V30 22665 C 2150.4 0.719842 -1.91305 0
M  V30 22666 C 2150.76 1.72305 -0.84705 0
M  V30 22667 O 2151.96 2.46639 -1.06876 0
M  V30 22668 C 2150.23 1.36835 -3.30168 0
M  V30 22669 S 2151.79 2.09174 -3.85735 0
M  V30 22670 H 2148.61 0.238377 -0.669849 0
M  V30 22671 H 2151.21 -0.025625 -1.95483 0
M  V30 22672 H 2149.92 0.625028 -4.05613 0
M  V30 22673 H 2149.45 2.15228 -3.29303 0
M  V30 22674 H 2151.46 3.3637 -3.64787 0
M  V30 22675 N 2150.64 1.54769 0.297388 0
M  V30 22676 C 2151.88 1.74479 1.03367 0
M  V30 22677 C 2152.21 0.531007 1.86799 0
M  V30 22678 O 2151.49 -0.471847 1.8869 0
M  V30 22679 C 2151.77 3.03588 1.93665 0
M  V30 22680 C 2151.63 4.35274 1.13389 0
M  V30 22681 C 2152.94 3.28586 2.92779 0
M  V30 22682 H 2150.06 0.63483 0.37438 0
M  V30 22683 H 2152.71 1.87487 0.308023 0
M  V30 22684 H 2150.86 2.9263 2.55538 0
M  V30 22685 H 2152.53 4.58155 0.537739 0
M  V30 22686 H 2150.77 4.31596 0.436685 0
M  V30 22687 H 2151.44 5.21886 1.7983 0
M  V30 22688 H 2153.92 3.39177 2.41035 0
M  V30 22689 H 2152.79 4.20233 3.53122 0
M  V30 22690 H 2153.05 2.47054 3.66629 0
M  V30 22691 N 2152.11 -0.560755 1.47286 0
M  V30 22692 C 2153.52 -1.14289 1.47631 0
M  V30 22693 C 2153.88 -1.94858 0.229063 0
M  V30 22694 O 2153 -2.05887 -0.666292 0
M  V30 22695 C 2153.6 -2.07933 2.67487 0
M  V30 22696 C 2152.15 -2.61425 2.70803 0
M  V30 22697 C 2151.3 -1.37732 2.40677 0
M  V30 22698 H 2154.25 -0.347538 1.54848 0
M  V30 22699 H 2154.27 -2.91752 2.44256 0
M  V30 22700 H 2153.79 -1.49265 3.58248 0
M  V30 22701 H 2151.89 -3.239 1.84172 0
M  V30 22702 H 2152 -3.02661 3.71394 0
M  V30 22703 H 2150.36 -1.68286 1.91186 0
M  V30 22704 H 2151.15 -0.808627 3.33641 0
M  V30 22705 N 2153.59 -1.35359 -0.807199 0
M  V30 22706 C 2154.54 -1.28262 -1.9404 0
M  V30 22707 C 2155.53 -0.177666 -1.68466 0
M  V30 22708 O 2156.74 -0.34361 -1.7669 0
M  V30 22709 H 2153.11 -0.398861 -0.637506 0
M  V30 22710 H 2155.09 -2.23999 -1.97147 0
M  V30 22711 C 2153.83 -1.07086 -3.30799 0
M  V30 22712 H 2153.16 -1.91349 -3.51035 0
M  V30 22713 H 2154.6 -1.06161 -4.10495 0
M  V30 22714 C 2153.06 0.225309 -3.36146 0
M  V30 22715 O 2153.59 1.22131 -3.82684 0
M  V30 22716 N 2151.79 0.26387 -2.894 0
M  V30 22717 H 2151.34 -0.54725 -2.5172 0
M  V30 22718 H 2151.3 1.13084 -2.93359 0
M  V30 22719 N 2155.07 1.02928 -1.19346 0
M  V30 22720 C 2156.02 2.1331 -0.927441 0
M  V30 22721 C 2157.01 1.68998 0.116575 0
M  V30 22722 O 2158.22 1.7997 -0.0326311 0
M  V30 22723 H 2154.59 0.696916 -0.282511 0
M  V30 22724 H 2156.56 2.32939 -1.865 0
M  V30 22725 C 2155.31 3.4434 -0.482194 0
M  V30 22726 H 2154.64 3.78854 -1.27709 0
M  V30 22727 H 2156.08 4.22673 -0.335159 0
M  V30 22728 C 2154.53 3.27174 0.803669 0
M  V30 22729 O 2155.06 3.55772 1.86519 0
M  V30 22730 N 2153.27 2.80466 0.760745 0
M  V30 22731 H 2152.82 2.57393 -0.103346 0
M  V30 22732 H 2152.78 2.69361 1.62149 0
M  V30 22733 N 2156.55 0.997319 1.2203 0
M  V30 22734 C 2157.49 0.551276 2.2412 0
M  V30 22735 C 2158.46 -0.418681 1.60737 0
M  V30 22736 O 2159.65 -0.322451 1.88056 0
M  V30 22737 C 2156.79 -0.123569 3.44879 0
M  V30 22738 C 2155.9 0.888653 4.22761 0
M  V30 22739 C 2155.04 0.186868 5.30871 0
M  V30 22740 C 2154.08 1.18716 6.00477 0
M  V30 22741 N 2153.21 0.513378 7.00221 0
M  V30 22742 H 2158.05 1.42656 2.61636 0
M  V30 22743 H 2155.59 0.714493 1.28582 0
M  V30 22744 H 2157.55 -0.53179 4.13797 0
M  V30 22745 H 2156.18 -0.962614 3.08113 0
M  V30 22746 H 2155.23 1.41517 3.53096 0
M  V30 22747 H 2156.54 1.65019 4.70712 0
M  V30 22748 H 2155.7 -0.277858 6.06063 0
M  V30 22749 H 2154.44 -0.60714 4.83906 0
M  V30 22750 H 2153.44 1.66247 5.24063 0
M  V30 22751 H 2154.67 1.98212 6.4953 0
M  V30 22752 H 2152.61 -0.261113 6.5548 0
M  V30 22753 H 2152.53 1.21329 7.462 0
M  V30 22754 H 2153.8 0.0716018 7.79467 0
M  V30 22755 N 2158.03 -1.37449 0.771075 0
M  V30 22756 C 2158.97 -2.3215 0.144682 0
M  V30 22757 C 2159.97 -1.549 -0.685728 0
M  V30 22758 O 2161.17 -1.70302 -0.582865 0
M  V30 22759 H 2157.55 -0.751479 0.0279996 0
M  V30 22760 H 2159.52 -2.82565 0.959155 0
M  V30 22761 C 2158.27 -3.40151 -0.720591 0
M  V30 22762 H 2157.59 -3.99696 -0.0909784 0
M  V30 22763 H 2159.03 -4.08779 -1.12586 0
M  V30 22764 C 2157.49 -2.80177 -1.8709 0
M  V30 22765 O 2158.02 -2.70873 -2.96632 0
M  V30 22766 N 2156.23 -2.3773 -1.67132 0
M  V30 22767 H 2155.77 -2.45497 -0.780329 0
M  V30 22768 H 2155.73 -1.97946 -2.44263 0
M  V30 22769 N 2159.5 -0.52156 -1.4872 0
M  V30 22770 C 2160.92 -0.0789475 -1.86533 0
M  V30 22771 C 2161.27 1.34125 -1.43196 0
M  V30 22772 O 2160.39 2.00307 -0.818913 0
M  V30 22773 C 2160.99 -0.136494 -3.38525 0
M  V30 22774 C 2159.55 0.250879 -3.75563 0
M  V30 22775 C 2158.69 -0.499991 -2.72755 0
M  V30 22776 H 2161.64 -0.733264 -1.40744 0
M  V30 22777 H 2161.66 0.653868 -3.7484 0
M  V30 22778 H 2161.18 -1.17024 -3.70036 0
M  V30 22779 H 2159.28 1.28709 -3.49664 0
M  V30 22780 H 2159.39 -0.0828724 -4.79028 0
M  V30 22781 H 2157.75 0.0527232 -2.54645 0
M  V30 22782 H 2158.54 -1.53421 -3.0711 0
M  V30 22783 N 2160.98 1.55502 -0.256304 0
M  V30 22784 C 2162.4 1.59297 0.0983236 0
M  V30 22785 C 2162.6 1.27351 1.56154 0
M  V30 22786 O 2161.65 1.02533 2.30745 0
M  V30 22787 C 2162.97 2.9958 -0.259346 0
M  V30 22788 C 2164.52 3.12332 -0.204415 0
M  V30 22789 C 2164.99 4.5485 -0.536252 0
M  V30 22790 N 2166.48 4.60632 -0.487101 0
M  V30 22791 C 2167.22 5.68901 -0.716903 0
M  V30 22792 N 2166.71 6.85393 -1.01033 0
M  V30 22793 N 2168.51 5.58364 -0.646972 0
M  V30 22794 H 2160.66 1.74536 -1.21042 0
M  V30 22795 H 2162.92 0.812935 -0.487689 0
M  V30 22796 H 2162.63 3.27727 -1.27624 0
M  V30 22797 H 2162.5 3.74976 0.409004 0
M  V30 22798 H 2164.89 2.8396 0.803168 0
M  V30 22799 H 2164.97 2.3919 -0.906752 0
M  V30 22800 H 2164.61 4.83944 -1.54143 0
M  V30 22801 H 2164.54 5.26265 0.187668 0
M  V30 22802 H 2167.03 3.76938 -0.269421 0
M  V30 22803 H 2167.35 7.63848 -1.17285 0
M  V30 22804 H 2165.69 6.87055 -1.0479 0
M  V30 22805 H 2168.88 4.66233 -0.417713 0
M  V30 22806 H 2169.05 6.42669 -0.829457 0
M  V30 22807 N 2162.46 -0.0166879 1.57591 0
M  V30 22808 C 2163.42 -0.998156 2.06324 0
M  V30 22809 C 2164.42 -1.28282 0.969561 0
M  V30 22810 O 2165.61 -1.23078 1.23278 0
M  V30 22811 C 2162.75 -2.32767 2.49063 0
M  V30 22812 H 2163.94 -0.576954 2.94298 0
M  V30 22813 H 2161.49 -0.263799 1.54058 0
M  V30 22814 H 2162.23 -2.7961 1.64282 0
M  V30 22815 H 2162.01 -2.13431 3.28922 0
M  V30 22816 H 2163.5 -3.03207 2.87151 0
M  V30 22817 N 2163.94 -1.54924 -0.289176 0
M  V30 22818 C 2165.19 -1.74766 -1.02289 0
M  V30 22819 C 2165.51 -0.539873 -1.86857 0
M  V30 22820 O 2164.77 0.477978 -1.89773 0
M  V30 22821 C 2165.07 -2.99629 -1.94826 0
M  V30 22822 C 2164.73 -4.32897 -1.26139 0
M  V30 22823 C 2163.4 -4.69121 -1.0714 0
M  V30 22824 C 2165.75 -5.15461 -0.771309 0
M  V30 22825 C 2163.08 -5.85479 -0.37835 0
M  V30 22826 C 2165.43 -6.32533 -0.0919302 0
M  V30 22827 C 2164.09 -6.67409 0.109915 0
M  V30 22828 H 2163.36 -0.639515 -0.374301 0
M  V30 22829 H 2166.01 -1.89188 -0.296646 0
M  V30 22830 H 2164.31 -2.80038 -2.74018 0
M  V30 22831 H 2166.01 -3.12176 -2.51688 0
M  V30 22832 H 2162.6 -4.04416 -1.41935 0
M  V30 22833 H 2166.78 -4.87965 -0.905767 0
M  V30 22834 H 2162.04 -6.11035 -0.211091 0
M  V30 22835 H 2166.21 -6.95772 0.295654 0
M  V30 22836 H 2163.84 -7.57425 0.648932 0
M  V30 22837 N 2165.42 0.552936 -1.47582 0
M  V30 22838 C 2166.36 1.68064 -1.60802 0
M  V30 22839 C 2167.36 1.62599 -0.475175 0
M  V30 22840 O 2168.56 1.67733 -0.653122 0
M  V30 22841 H 2164.94 0.556179 -0.506131 0
M  V30 22842 H 2166.91 1.54051 -2.5556 0
M  V30 22843 C 2165.66 3.06407 -1.64348 0
M  V30 22844 H 2164.98 3.11295 -2.50869 0
M  V30 22845 H 2166.42 3.8499 -1.77647 0
M  V30 22846 C 2164.88 3.34777 -0.377611 0
M  V30 22847 O 2165.41 3.98327 0.519466 0
M  V30 22848 N 2163.62 2.89467 -0.256324 0
M  V30 22849 H 2163.16 2.3793 -0.98727 0
M  V30 22850 H 2163.12 3.0882 0.589696 0
M  V30 22851 N 2166.89 1.35785 0.800009 0
M  V30 22852 C 2168.14 1.2917 1.55434 0
M  V30 22853 C 2168.46 -0.131766 1.94554 0
M  V30 22854 O 2167.73 -1.06968 1.64118 0
M  V30 22855 H 2166.31 0.475134 0.576417 0
M  V30 22856 H 2168.98 1.69963 0.953872 0
M  V30 22857 H 2168.07 1.912 2.46676 0
M  V30 22858 N 2168.37 -1.02294 1.19891 0
M  V30 22859 C 2169.6 -1.79941 1.03131 0
M  V30 22860 C 2170.02 -1.8346 -0.415201 0
M  V30 22861 O 2169.38 -1.26499 -1.29876 0
M  V30 22862 C 2169.43 -3.22565 1.61196 0
M  V30 22863 O 2168.53 -4.03644 0.845295 0
M  V30 22864 H 2167.87 -0.555254 0.364128 0
M  V30 22865 H 2170.4 -1.28709 1.59045 0
M  V30 22866 H 2170.41 -3.73296 1.64663 0
M  V30 22867 H 2169.09 -3.19318 2.66474 0
M  V30 22868 H 2167.67 -3.62262 0.884338 0
M  V30 22869 N 2169.85 -1.00378 -1.21499 0
M  V30 22870 C 2171.08 -0.704325 -1.95074 0
M  V30 22871 C 2171.5 0.726447 -1.73506 0
M  V30 22872 O 2170.86 1.49809 -1.02113 0
M  V30 22873 C 2170.91 -1.02938 -3.45595 0
M  V30 22874 O 2170.01 -0.133961 -4.12182 0
M  V30 22875 H 2169.35 -0.262537 -0.609894 0
M  V30 22876 H 2171.88 -1.34369 -1.54292 0
M  V30 22877 H 2171.89 -0.975727 -3.96161 0
M  V30 22878 H 2170.57 -2.0719 -3.60618 0
M  V30 22879 H 2169.14 -0.244034 -3.72101 0
M  V30 22880 N 2171.33 1.37038 -0.778354 0
M  V30 22881 C 2172.28 2.3207 -0.156991 0
M  V30 22882 C 2173.27 1.55262 0.677503 0
M  V30 22883 O 2174.48 1.70608 0.573826 0
M  V30 22884 H 2170.85 0.75132 -0.0319844 0
M  V30 22885 H 2172.82 2.82052 -0.974127 0
M  V30 22886 C 2171.57 3.40528 0.702542 0
M  V30 22887 H 2170.89 3.99739 0.0697802 0
M  V30 22888 H 2172.33 4.0937 1.10417 0
M  V30 22889 C 2170.79 2.81165 1.85602 0
M  V30 22890 O 2171.32 2.72442 2.95192 0
M  V30 22891 N 2169.53 2.38613 1.65868 0
M  V30 22892 H 2169.08 2.45907 0.767299 0
M  V30 22893 H 2169.03 1.99239 2.4321 0
M  V30 22894 N 2172.81 0.529439 1.48441 0
M  V30 22895 C 2174.06 -0.00484705 2.02099 0
M  V30 22896 C 2174.38 -1.34819 1.40886 0
M  V30 22897 O 2173.65 -1.873 0.574052 0
M  V30 22898 H 2172.23 -0.00477953 0.746985 0
M  V30 22899 H 2174.89 0.693148 1.82158 0
M  V30 22900 H 2173.98 -0.113574 3.11893 0
M  V30 22901 N 2174.29 -1.55364 0.264547 0
M  V30 22902 C 2175.24 -2.18781 -0.641787 0
M  V30 22903 C 2176.22 -1.14912 -1.12624 0
M  V30 22904 O 2177.41 -1.40763 -1.07307 0
M  V30 22905 C 2174.54 -2.90435 -1.83037 0
M  V30 22906 C 2173.63 -4.0158 -1.3636 0
M  V30 22907 N 2174.02 -5.02081 -0.612243 0
M  V30 22908 C 2172.32 -4.14458 -1.64744 0
M  V30 22909 C 2173.02 -5.80533 -0.368214 0
M  V30 22910 N 2171.99 -5.35454 -0.937575 0
M  V30 22911 H 2175.79 -2.93839 -0.0597811 0
M  V30 22912 H 2173.31 -1.62259 0.067633 0
M  V30 22913 H 2175.31 -3.34309 -2.49085 0
M  V30 22914 H 2173.97 -2.16884 -2.41643 0
M  V30 22915 H 2174.98 -5.17244 -0.260611 0
M  V30 22916 H 2171.65 -3.52091 -2.24361 0
M  V30 22917 H 2173.04 -6.71497 0.23282 0
M  V30 22918 N 2175.76 0.00833021 -1.57598 0
M  V30 22919 C 2177.01 0.695941 -1.90485 0
M  V30 22920 C 2177.34 1.73883 -0.864775 0
M  V30 22921 O 2176.62 1.94144 0.11758 0
M  V30 22922 C 2176.9 1.34667 -3.33971 0
M  V30 22923 C 2176.75 0.315885 -4.48689 0
M  V30 22924 C 2178.07 2.2751 -3.76732 0
M  V30 22925 H 2175.19 0.251528 -0.69275 0
M  V30 22926 H 2177.83 -0.0412539 -1.89955 0
M  V30 22927 H 2175.98 1.975 -3.34553 0
M  V30 22928 H 2177.66 -0.312127 -4.60243 0
M  V30 22929 H 2175.9 -0.362729 -4.32281 0
M  V30 22930 H 2176.57 0.810081 -5.46024 0
M  V30 22931 H 2179.05 1.74702 -3.77649 0
M  V30 22932 H 2177.92 2.70011 -4.77897 0
M  V30 22933 H 2178.18 3.15068 -3.10136 0
M  V30 22934 N 2177.24 1.55075 0.280956 0
M  V30 22935 C 2178.47 1.79062 1.03055 0
M  V30 22936 C 2178.88 0.560149 1.80718 0
M  V30 22937 O 2178.22 -0.480122 1.77315 0
M  V30 22938 C 2178.28 2.95847 2.04242 0
M  V30 22939 C 2177.95 4.33189 1.4559 0
M  V30 22940 C 2178.95 5.12473 0.87563 0
M  V30 22941 C 2176.63 4.79831 1.4855 0
M  V30 22942 C 2178.62 6.36531 0.332759 0
M  V30 22943 C 2176.31 6.03846 0.938764 0
M  V30 22944 C 2177.31 6.82033 0.363385 0
M  V30 22945 O 2177 8.03709 -0.175 0
M  V30 22946 H 2176.73 0.600471 0.3105 0
M  V30 22947 H 2179.28 2.02898 0.319591 0
M  V30 22948 H 2177.51 2.67683 2.79075 0
M  V30 22949 H 2179.2 3.07228 2.65265 0
M  V30 22950 H 2179.97 4.77573 0.84552 0
M  V30 22951 H 2175.85 4.18989 1.92274 0
M  V30 22952 H 2179.39 6.97502 -0.116986 0
M  V30 22953 H 2175.29 6.3823 0.966087 0
M  V30 22954 H 2176.06 8.18475 -0.063602 0
M  V30 22955 N 2178.72 -0.545102 1.47873 0
M  V30 22956 C 2179.63 -1.67829 1.63922 0
M  V30 22957 C 2180.65 -1.65989 0.521885 0
M  V30 22958 O 2181.82 -1.85216 0.791005 0
M  V30 22959 C 2178.89 -3.0432 1.66102 0
M  V30 22960 C 2177.95 -3.17134 2.89352 0
M  V30 22961 C 2177.18 -4.47114 2.91419 0
M  V30 22962 O 2177.4 -5.33307 2.02337 0
M  V30 22963 O 2176.34 -4.63974 3.83421 0
M  V30 22964 H 2180.16 -1.57229 2.59832 0
M  V30 22965 H 2177.75 -0.716489 1.31098 0
M  V30 22966 H 2179.63 -3.85524 1.70145 0
M  V30 22967 H 2178.31 -3.15277 0.733623 0
M  V30 22968 H 2177.21 -2.35282 2.90849 0
M  V30 22969 H 2178.55 -3.11086 3.81426 0
M  V30 22970 N 2180.2 -1.36208 -0.792797 0
M  V30 22971 C 2181.14 -1.30258 -1.90529 0
M  V30 22972 C 2182.11 -0.171903 -1.65208 0
M  V30 22973 O 2183.3 -0.357869 -1.87414 0
M  V30 22974 C 2180.44 -1.09434 -3.27289 0
M  V30 22975 C 2179.55 -2.31548 -3.64705 0
M  V30 22976 C 2178.69 -2.03763 -4.90565 0
M  V30 22977 C 2177.73 -3.21855 -5.20649 0
M  V30 22978 N 2176.86 -2.93756 -6.37692 0
M  V30 22979 H 2181.7 -2.25385 -1.9495 0
M  V30 22980 H 2179.24 -1.12022 -0.953389 0
M  V30 22981 H 2181.2 -0.953883 -4.06149 0
M  V30 22982 H 2179.83 -0.179641 -3.223 0
M  V30 22983 H 2178.88 -2.56409 -2.80996 0
M  V30 22984 H 2180.19 -3.19685 -3.82888 0
M  V30 22985 H 2179.35 -1.86627 -5.77283 0
M  V30 22986 H 2178.09 -1.12931 -4.74445 0
M  V30 22987 H 2177.09 -3.39553 -4.32416 0
M  V30 22988 H 2178.32 -4.13507 -5.38691 0
M  V30 22989 H 2176.26 -2.05533 -6.2297 0
M  V30 22990 H 2176.18 -3.75431 -6.56192 0
M  V30 22991 H 2177.45 -2.80192 -7.27401 0
M  V30 22992 N 2181.68 1.01656 -1.20431 0
M  V30 22993 C 2182.61 2.12074 -0.977076 0
M  V30 22994 C 2183.59 1.6984 0.0939563 0
M  V30 22995 O 2184.77 1.94096 -0.0635618 0
M  V30 22996 C 2181.9 3.43257 -0.528392 0
M  V30 22997 C 2180.86 3.99231 -1.54267 0
M  V30 22998 C 2180.18 5.26182 -0.950621 0
M  V30 22999 C 2181.48 4.32619 -2.92639 0
M  V30 23000 H 2183.18 2.31342 -1.90056 0
M  V30 23001 H 2180.72 1.11175 -0.915209 0
M  V30 23002 H 2182.67 4.19888 -0.35665 0
M  V30 23003 H 2181.4 3.23747 0.430716 0
M  V30 23004 H 2180.06 3.24708 -1.70177 0
M  V30 23005 H 2179.71 5.02997 0.0164182 0
M  V30 23006 H 2179.41 5.64597 -1.62802 0
M  V30 23007 H 2180.93 6.05469 -0.789947 0
M  V30 23008 H 2182.34 5.00138 -2.8024 0
M  V30 23009 H 2180.74 4.82148 -3.57286 0
M  V30 23010 H 2181.81 3.41386 -3.4436 0
M  V30 23011 N 2183.15 1.01021 1.20965 0
M  V30 23012 C 2184.38 0.714661 1.94698 0
M  V30 23013 C 2184.8 -0.717235 1.73889 0
M  V30 23014 O 2184.16 -1.49265 1.02906 0
M  V30 23015 C 2184.21 1.04769 3.45045 0
M  V30 23016 O 2183.31 0.155818 4.12106 0
M  V30 23017 H 2182.65 0.265768 0.608493 0
M  V30 23018 H 2185.18 1.35186 1.53577 0
M  V30 23019 H 2185.19 0.996722 3.95638 0
M  V30 23020 H 2183.87 2.09099 3.59514 0
M  V30 23021 H 2182.45 0.263764 3.71966 0
M  V30 23022 N 2184.63 -1.36623 0.78561 0
M  V30 23023 C 2185.86 -2.04129 0.366917 0
M  V30 23024 C 2186.28 -1.58852 -1.00736 0
M  V30 23025 O 2185.64 -0.755202 -1.64822 0
M  V30 23026 C 2185.69 -3.5797 0.43472 0
M  V30 23027 O 2184.79 -4.08584 -0.559755 0
M  V30 23028 H 2184.13 -0.645306 0.156447 0
M  V30 23029 H 2186.66 -1.74656 1.06566 0
M  V30 23030 H 2186.67 -4.06918 0.296959 0
M  V30 23031 H 2185.35 -3.90277 1.43724 0
M  V30 23032 H 2183.92 -3.70918 -0.38397 0
M  V30 23033 N 2186.11 -0.537304 -1.48158 0
M  V30 23034 C 2187.36 -0.00384223 -2.017 0
M  V30 23035 C 2187.67 1.34625 -1.419 0
M  V30 23036 O 2188.88 1.96849 -1.86983 0
M  V30 23037 C 2187.33 0.0435291 -3.59874 0
M  V30 23038 C 2186.94 -1.30211 -4.2866 0
M  V30 23039 C 2188.69 0.525433 -4.21236 0
M  V30 23040 C 2186.59 -1.21492 -5.78786 0
M  V30 23041 H 2185.52 0.00233368 -0.753996 0
M  V30 23042 H 2188.17 -0.682181 -1.70348 0
M  V30 23043 H 2186.56 0.7871 -3.88099 0
M  V30 23044 H 2187.73 -2.06182 -4.12099 0
M  V30 23045 H 2186.04 -1.72034 -3.79201 0
M  V30 23046 H 2188.64 0.608744 -5.31223 0
M  V30 23047 H 2188.98 1.5329 -3.8705 0
M  V30 23048 H 2189.52 -0.162674 -3.97467 0
M  V30 23049 H 2186.26 -2.19778 -6.17558 0
M  V30 23050 H 2185.78 -0.496694 -5.9774 0
M  V30 23051 H 2187.46 -0.908641 -6.40588 0
M  V30 23052 N 2187.59 1.55221 -0.272782 0
M  V30 23053 C 2188.5 2.26098 0.62584 0
M  V30 23054 C 2189.51 1.28606 1.17203 0
M  V30 23055 O 2190.69 1.61537 1.20281 0
M  V30 23056 C 2187.76 2.96645 1.7945 0
M  V30 23057 C 2186.82 4.0961 1.28522 0
M  V30 23058 C 2186.05 4.76784 2.39819 0
M  V30 23059 O 2186.27 4.43155 3.59124 0
M  V30 23060 O 2185.21 5.64779 2.08107 0
M  V30 23061 H 2189.03 3.03656 0.0517442 0
M  V30 23062 H 2186.62 1.49346 -0.0402752 0
M  V30 23063 H 2188.5 3.40989 2.47597 0
M  V30 23064 H 2187.17 2.22006 2.35573 0
M  V30 23065 H 2186.08 3.69728 0.570286 0
M  V30 23066 H 2187.41 4.86143 0.769772 0
M  V30 23067 N 2189.07 2.77022e-05 1.576 0
M  V30 23068 C 2190.29 -0.699433 1.9525 0
M  V30 23069 C 2190.72 -1.66511 0.874964 0
M  V30 23070 O 2190.07 -1.8053 -0.166897 0
M  V30 23071 C 2190.12 -1.4075 3.31996 0
M  V30 23072 O 2189.23 -2.52192 3.26302 0
M  V30 23073 H 2188.57 -0.18604 0.637405 0
M  V30 23074 H 2191.1 0.053226 2.04531 0
M  V30 23075 H 2191.11 -1.77092 3.67563 0
M  V30 23076 H 2189.78 -0.699458 4.09976 0
M  V30 23077 H 2188.36 -2.18177 3.02412 0
M  V30 23078 N 2190.54 -1.55222 -0.272728 0
M  V30 23079 C 2191.82 -1.66557 -1.02559 0
M  V30 23080 C 2192.2 -0.532225 -2.04281 0
M  V30 23081 O 2191.55 0.467678 -2.23663 0
M  V30 23082 C 2191.76 -3.05785 -1.68215 0
M  V30 23083 C 2193.11 -3.63543 -2.19367 0
M  V30 23084 O 2194.13 -3.0842 -1.78201 0
M  V30 23085 O 2192.99 -4.60121 -2.94875 0
M  V30 23086 H 2190.08 -0.67646 -0.475743 0
M  V30 23087 H 2192.63 -1.67561 -0.268564 0
M  V30 23088 H 2191.4 -3.79716 -0.945046 0
M  V30 23089 H 2191.03 -3.08681 -2.50603 0
M  V30 23090 N 2192.02 0.537252 -1.4816 0
M  V30 23091 C 2193.27 1.29538 -1.56038 0
M  V30 23092 C 2193.6 1.92828 -0.230411 0
M  V30 23093 O 2192.88 1.78913 0.762921 0
M  V30 23094 C 2193.16 2.39029 -2.69327 0
M  V30 23095 C 2193.01 1.80478 -4.12005 0
M  V30 23096 C 2194.33 3.40842 -2.78414 0
M  V30 23097 H 2191.45 0.469622 -0.568 0
M  V30 23098 H 2194.09 0.599245 -1.80303 0
M  V30 23099 H 2192.24 2.98407 -2.48768 0
M  V30 23100 H 2193.91 1.25207 -4.43983 0
M  V30 23101 H 2192.16 1.11048 -4.19346 0
M  V30 23102 H 2192.83 2.59722 -4.87082 0
M  V30 23103 H 2195.3 2.9141 -2.97017 0
M  V30 23104 H 2194.18 4.14857 -3.59423 0
M  V30 23105 H 2194.44 4.00941 -1.86276 0
M  V30 23106 O 2193.54 1.46386 0.68215 0
M  V30 23107 H 2194.23 1.40391 1.33454 0
M  V30 END ATOM
M  V30 BEGIN BOND
M  V30 END BOND
M  V30 END CTAB
M  END
$$$$
