drugbank_target|P07550 Beta-2 adrenergic receptor (DB00127; DB00195; DB00221; DB00248; DB00264; DB00335; DB00368; DB00373; DB00397; DB00449; DB00489; DB00521; DB00571; DB00598; DB00612; DB00668; DB00816; DB00841; DB00852; DB00866; DB00867; DB00871; DB00901; DB00925; DB00938; DB00960; DB00983; DB01001; DB01064; DB01102; DB01136; DB01151; DB01182; DB01193; DB01203; DB01210; DB01214; DB01238; DB01274; DB01288; DB01291; DB01295; DB01359; DB01363; DB01364; DB01366; DB01407; DB01408; DB01580; DB01917; DB03566; DB04846; DB04861; DB05039; DB05590; DB05849; DB06216; DB06262; DB06814; DB07543; DB08807; DB08808; DB09013; DB09080; DB09082; DB09204; DB09273; DB11124; DB11587; DB12248; DB13139)
 OpenBabel12092119373D

  0  0  0     0  0            999 V3000
M  V30 BEGIN CTAB
M  V30 COUNTS 6518 6595 0 0 0
M  V30 BEGIN ATOM
M  V30 1 H -0.908 1.98254 -0.117106 0
M  V30 2 N 0 1.576 0 0
M  V30 3 C 0.933 2.03868 1.02534 0
M  V30 4 C 1.911 0.928543 1.3348 0
M  V30 5 O 3.095 1.19667 1.45644 0
M  V30 6 C 0.222 2.43627 2.35294 0
M  V30 7 C -0.732 3.65373 2.2001 0
M  V30 8 S 0.101 5.13292 1.52614 0
M  V30 9 C 1.257 5.56322 2.86805 0
M  V30 10 H 1.49 2.90518 0.631377 0
M  V30 11 H -0.977 1.52953 0.210867 0
M  V30 12 H 0.981 2.67203 3.11629 0
M  V30 13 H -0.358 1.57376 2.7183 0
M  V30 14 H -1.165 3.90944 3.18086 0
M  V30 15 H -1.563 3.418 1.51819 0
M  V30 16 H 0.729 5.58782 3.83104 0
M  V30 17 H 1.672 6.56266 2.65933 0
M  V30 18 H 2.08 4.83886 2.90714 0
M  V30 19 N 1.4781 -0.272755 1.55222 0
M  V30 20 C 2.7261 -1.00234 1.75492 0
M  V30 21 C 3.0471 -1.8681 0.5592 0
M  V30 22 O 2.3171 -1.91215 -0.425882 0
M  V30 23 H 0.8971 -0.373076 0.647166 0
M  V30 24 H 3.5591 -0.296926 1.92625 0
M  V30 25 H 2.6551 -1.63913 2.65592 0
M  V30 26 N 2.9562 -1.48159 -0.537278 0
M  V30 27 C 3.8882 -1.58218 -1.65831 0
M  V30 28 C 4.9012 -0.466948 -1.5596 0
M  V30 29 O 6.0902 -0.73747 -1.62553 0
M  V30 30 C 3.1902 -1.48906 -3.04434 0
M  V30 31 C 2.3632 -2.75343 -3.3986 0
M  V30 32 C 1.4222 -2.59588 -4.57712 0
M  V30 33 O 0.4482 -3.33457 -4.61297 0
M  V30 34 N 1.6502 -1.68724 -5.55439 0
M  V30 35 H 4.4152 -2.54891 -1.57641 0
M  V30 36 H 1.9762 -1.4479 -0.724386 0
M  V30 37 H 3.9682 -1.36072 -3.81139 0
M  V30 38 H 2.5382 -0.602368 -3.06741 0
M  V30 39 H 1.7582 -3.02795 -2.52406 0
M  V30 40 H 3.0462 -3.5924 -3.60311 0
M  V30 41 H 2.4442 -1.07898 -5.55315 0
M  V30 42 H 1.0012 -1.61832 -6.3139 0
M  V30 43 N 4.4343 0.785586 -1.36625 0
M  V30 44 C 5.8453 1.36101 -1.27803 0
M  V30 45 C 6.1963 1.96035 0.0804875 0
M  V30 46 O 5.3213 1.92834 0.982042 0
M  V30 47 C 5.9163 2.47442 -2.31426 0
M  V30 48 C 4.4753 3.00789 -2.26281 0
M  V30 49 C 3.6223 1.73896 -2.15999 0
M  V30 50 H 6.5733 0.586928 -1.47448 0
M  V30 51 H 6.5943 3.2656 -1.95291 0
M  V30 52 H 6.1063 2.03791 -3.30289 0
M  V30 53 H 4.2073 3.48851 -1.30896 0
M  V30 54 H 4.3203 3.57343 -3.19128 0
M  V30 55 H 2.6843 1.9628 -1.62316 0
M  V30 56 H 3.4673 1.32368 -3.16755 0
M  V30 57 N 5.9124 1.20967 1.01018 0
M  V30 58 C 7.1604 1.02172 1.74371 0
M  V30 59 C 7.4814 -0.446414 1.89821 0
M  V30 60 O 6.7514 -1.32234 1.44537 0
M  V30 61 H 5.3314 0.375066 0.646014 0
M  V30 62 H 7.9934 1.52187 1.21758 0
M  V30 63 H 7.0894 1.48538 2.74487 0
M  V30 64 N 7.3905 -1.2043 1.01659 0
M  V30 65 C 8.3385 -2.25249 0.580143 0
M  V30 66 C 9.3325 -1.65057 -0.381115 0
M  V30 67 O 10.5385 -1.78241 -0.251039 0
M  V30 68 H 6.9135 -0.732695 0.169299 0
M  V30 69 H 8.8845 -2.59389 1.47512 0
M  V30 70 C 7.6335 -3.47638 -0.065788 0
M  V30 71 H 6.9565 -3.94233 0.664874 0
M  V30 72 H 8.3965 -4.2268 -0.334282 0
M  V30 73 C 6.8555 -3.10447 -1.3086 0
M  V30 74 O 7.3855 -3.21981 -2.4019 0
M  V30 75 N 5.5915 -2.64996 -1.1927 0
M  V30 76 H 5.1385 -2.55811 -0.303064 0
M  V30 77 H 5.0965 -2.40482 -2.02523 0
M  V30 78 N 8.8686 -0.792821 -1.36206 0
M  V30 79 C 10.1166 -0.366062 -1.98757 0
M  V30 80 C 10.4376 1.0668 -1.63231 0
M  V30 81 O 9.7076 1.73587 -0.907978 0
M  V30 82 H 8.2876 -0.132364 -0.735179 0
M  V30 83 H 10.9496 -1.01562 -1.66347 0
M  V30 84 H 10.0456 -0.460638 -3.08682 0
M  V30 85 N 10.3467 1.47872 -0.545128 0
M  V30 86 C 11.5717 2.07391 -0.0190611 0
M  V30 87 C 11.9967 1.39688 1.25971 0
M  V30 88 O 11.3547 0.467816 1.7516 0
M  V30 89 C 11.4027 3.60188 0.172335 0
M  V30 90 O 10.5067 3.9339 1.23766 0
M  V30 91 H 9.8477 0.662411 -0.0459059 0
M  V30 92 H 12.3777 1.90066 -0.757365 0
M  V30 93 H 12.3877 4.06129 0.390305 0
M  V30 94 H 11.0627 4.08865 -0.761725 0
M  V30 95 H 9.6397 3.5921 1.00114 0
M  V30 96 N 11.8248 0.280983 1.55075 0
M  V30 97 C 12.7878 -0.590896 2.21452 0
M  V30 98 C 13.7878 -1.07682 1.19421 0
M  V30 99 O 14.9778 -0.97605 1.44288 0
M  V30 100 C 12.1098 -1.81587 2.88511 0
M  V30 101 H 13.3028 -0.0112554 2.99898 0
M  V30 102 H 10.8558 0.0316438 1.56268 0
M  V30 103 H 11.5908 -2.43587 2.14093 0
M  V30 104 H 11.3758 -1.4753 3.63287 0
M  V30 105 H 12.8658 -2.43575 3.39206 0
M  V30 106 N 13.3029 -1.57598 0.00835791 0
M  V30 107 C 14.5499 -1.90928 -0.674732 0
M  V30 108 C 14.8779 -0.88277 -1.73313 0
M  V30 109 O 14.1329 0.111294 -1.95383 0
M  V30 110 C 14.4319 -3.3101 -1.34787 0
M  V30 111 C 14.0979 -4.48922 -0.421861 0
M  V30 112 C 12.7599 -4.8091 -0.166927 0
M  V30 113 C 15.1119 -5.20755 0.215211 0
M  V30 114 C 12.4399 -5.821 0.733232 0
M  V30 115 C 14.7919 -6.22905 1.1033 0
M  V30 116 C 13.4559 -6.53346 1.36733 0
M  V30 117 H 12.7259 -0.698656 -0.246902 0
M  V30 118 H 15.3729 -1.91387 0.0656779 0
M  V30 119 H 13.6779 -3.26714 -2.16253 0
M  V30 120 H 15.3749 -3.54061 -1.8826 0
M  V30 121 H 11.9649 -4.23934 -0.630729 0
M  V30 122 H 16.1489 -4.9629 0.0312829 0
M  V30 123 H 11.4049 -6.04042 0.945712 0
M  V30 124 H 15.5789 -6.77694 1.60325 0
M  V30 125 H 13.2059 -7.31573 2.06652 0
M  V30 126 N 14.781 0.264519 -1.55364 0
M  V30 127 C 15.711 1.33121 -1.91836 0
M  V30 128 C 16.692 1.51101 -0.781192 0
M  V30 129 O 17.877 1.64003 -1.04003 0
M  V30 130 C 15.007 2.68921 -2.19769 0
M  V30 131 C 13.961 2.65661 -3.35571 0
M  V30 132 C 13.287 4.05093 -3.49004 0
M  V30 133 C 14.587 2.24187 -4.71739 0
M  V30 134 H 16.281 1.02844 -2.81182 0
M  V30 135 H 13.827 0.493286 -1.35287 0
M  V30 136 H 15.78 3.43663 -2.43872 0
M  V30 137 H 14.504 3.00799 -1.27231 0
M  V30 138 H 13.163 1.93377 -3.1145 0
M  V30 139 H 12.811 4.34206 -2.53917 0
M  V30 140 H 12.511 4.03804 -4.26868 0
M  V30 141 H 14.035 4.81561 -3.75408 0
M  V30 142 H 15.449 2.88654 -4.9533 0
M  V30 143 H 13.846 2.34044 -5.52579 0
M  V30 144 H 14.916 1.19327 -4.69988 0
M  V30 145 N 16.2591 1.48442 0.529413 0
M  V30 146 C 17.1891 1.65902 1.64313 0
M  V30 147 C 18.1701 0.507897 1.6234 0
M  V30 148 O 19.3551 0.740503 1.79528 0
M  V30 149 C 16.4851 1.69911 3.02898 0
M  V30 150 C 15.4391 2.8453 3.19729 0
M  V30 151 C 14.7651 2.73629 4.59381 0
M  V30 152 C 16.0651 4.25821 3.02447 0
M  V30 153 H 17.7591 2.5914 1.49955 0
M  V30 154 H 15.3051 1.24709 0.719982 0
M  V30 155 H 17.2581 1.80715 3.80684 0
M  V30 156 H 15.9821 0.732524 3.18279 0
M  V30 157 H 14.6411 2.73283 2.44361 0
M  V30 158 H 14.2891 1.74938 4.71599 0
M  V30 159 H 13.9891 3.50541 4.71588 0
M  V30 160 H 15.5131 2.86401 5.39265 0
M  V30 161 H 16.9271 4.37898 3.70024 0
M  V30 162 H 15.3241 5.03735 3.26146 0
M  V30 163 H 16.3941 4.42244 1.98867 0
M  V30 164 N 17.7372 -0.778329 1.37039 0
M  V30 165 C 18.7002 -1.87301 1.32102 0
M  V30 166 C 19.7002 -1.59198 0.226405 0
M  V30 167 O 20.8902 -1.67403 0.481861 0
M  V30 168 C 18.0222 -3.24309 1.05055 0
M  V30 169 H 19.2152 -1.93093 2.29467 0
M  V30 170 H 16.7682 -0.977358 1.21973 0
M  V30 171 H 17.5032 -3.24196 0.0819373 0
M  V30 172 H 17.2882 -3.46098 1.84279 0
M  V30 173 H 18.7782 -4.04382 1.04234 0
M  V30 174 N 19.2153 -1.21501 -1.00376 0
M  V30 175 C 20.6263 -1.03146 -1.55621 0
M  V30 176 C 20.9773 0.408375 -1.91903 0
M  V30 177 O 20.1023 1.29177 -1.73616 0
M  V30 178 C 20.6973 -1.86612 -2.82775 0
M  V30 179 C 19.2563 -1.72586 -3.34501 0
M  V30 180 C 18.4033 -1.83747 -2.07683 0
M  V30 181 H 21.3543 -1.35505 -0.826081 0
M  V30 182 H 21.3753 -1.3771 -3.54706 0
M  V30 183 H 20.8873 -2.91399 -2.56336 0
M  V30 184 H 18.9883 -0.704877 -3.65872 0
M  V30 185 H 19.1013 -2.54623 -4.05837 0
M  V30 186 H 17.4653 -1.27069 -2.20739 0
M  V30 187 H 18.2483 -2.90044 -1.83655 0
M  V30 188 N 20.6934 1.19889 -1.02296 0
M  V30 189 C 21.6414 2.24938 -0.592081 0
M  V30 190 C 22.6354 1.65257 0.372357 0
M  V30 191 O 23.8414 1.78371 0.241583 0
M  V30 192 H 20.2164 0.731787 -0.173182 0
M  V30 193 H 22.1874 2.58603 -1.48885 0
M  V30 194 C 20.9364 3.47668 0.047351 0
M  V30 195 H 20.2594 3.93875 -0.685772 0
M  V30 196 H 21.6994 4.22852 0.311862 0
M  V30 197 C 20.1584 3.11136 1.29212 0
M  V30 198 O 20.6884 3.2325 2.38479 0
M  V30 199 N 18.8944 2.65625 1.17863 0
M  V30 200 H 18.4414 2.55968 0.289493 0
M  V30 201 H 18.3994 2.41553 2.01245 0
M  V30 202 N 22.1715 0.800033 1.35784 0
M  V30 203 C 23.4195 0.376597 1.9856 0
M  V30 204 C 23.7405 -1.05812 1.63795 0
M  V30 205 O 23.0105 -1.73103 0.917171 0
M  V30 206 H 21.5905 0.136261 0.734467 0
M  V30 207 H 24.2525 1.02442 1.65806 0
M  V30 208 H 23.3485 0.477002 3.08433 0
M  V30 209 N 23.6496 -1.47581 0.552962 0
M  V30 210 C 24.8746 -2.07378 0.0300593 0
M  V30 211 C 25.2996 -1.40355 -1.25229 0
M  V30 212 O 24.6576 -0.477099 -1.7491 0
M  V30 213 C 24.7056 -3.60274 -0.153231 0
M  V30 214 O 23.8096 -3.94041 -1.21678 0
M  V30 215 H 23.1506 -0.662158 0.0494182 0
M  V30 216 H 25.6806 -1.89662 0.767434 0
M  V30 217 H 25.6906 -4.0633 -0.368761 0
M  V30 218 H 24.3656 -4.08455 0.783397 0
M  V30 219 H 22.9426 -3.59735 -0.982079 0
M  V30 220 N 25.1277 -0.289203 -1.54924 0
M  V30 221 C 26.0777 0.606939 -2.19773 0
M  V30 222 C 27.0617 1.10783 -1.16687 0
M  V30 223 O 28.2537 1.05057 -1.4245 0
M  V30 224 C 25.3827 1.78398 -2.93307 0
M  V30 225 C 24.4687 1.29961 -4.03697 0
M  V30 226 N 24.8597 0.532377 -5.0299 0
M  V30 227 C 23.1577 1.58136 -4.17024 0
M  V30 228 C 23.8587 0.275912 -5.81045 0
M  V30 229 N 22.8347 0.852365 -5.36876 0
M  V30 230 H 26.6367 0.0130779 -2.93897 0
M  V30 231 H 24.1507 -0.09341 -1.62131 0
M  V30 232 H 26.1477 2.43741 -3.38225 0
M  V30 233 H 24.8077 2.38166 -2.20697 0
M  V30 234 H 25.8187 0.17838 -5.17593 0
M  V30 235 H 22.4957 2.18738 -3.55612 0
M  V30 236 H 23.8857 -0.339502 -6.71042 0
M  V30 237 N 26.6058 1.57591 -0.0167156 0
M  V30 238 C 27.5688 2.08393 0.954204 0
M  V30 239 C 28.5688 0.996531 1.26198 0
M  V30 240 O 29.7588 1.25858 1.20438 0
M  V30 241 C 26.8908 2.5394 2.27436 0
M  V30 242 H 28.0838 2.95455 0.514451 0
M  V30 243 H 25.6368 1.54582 0.231089 0
M  V30 244 H 26.3718 1.70171 2.76066 0
M  V30 245 H 26.1568 3.33371 2.06412 0
M  V30 246 H 27.6468 2.93512 2.97053 0
M  V30 247 N 28.0839 -0.256276 1.55502 0
M  V30 248 C 29.4949 -0.826068 1.67431 0
M  V30 249 C 29.8459 -1.86396 0.612446 0
M  V30 250 O 28.9709 -2.15031 -0.243025 0
M  V30 251 C 29.5659 -1.50512 3.03532 0
M  V30 252 C 28.1249 -2.02273 3.17431 0
M  V30 253 C 27.2719 -0.870548 2.63281 0
M  V30 254 H 30.2229 -0.0322728 1.58667 0
M  V30 255 H 30.2439 -2.37279 2.97454 0
M  V30 256 H 29.7559 -0.749484 3.80794 0
M  V30 257 H 27.8569 -2.80746 2.44974 0
M  V30 258 H 27.9699 -2.22655 4.24219 0
M  V30 259 H 26.3339 -1.26851 2.20864 0
M  V30 260 H 27.1169 -0.128149 3.43061 0
M  V30 261 N 29.562 -1.4872 -0.521534 0
M  V30 262 C 30.839 -1.4766 -1.2828 0
M  V30 263 C 31.219 -0.19292 -2.10217 0
M  V30 264 O 30.567 0.825193 -2.13079 0
M  V30 265 C 30.777 -2.74358 -2.15705 0
M  V30 266 C 32.125 -3.23028 -2.75569 0
M  V30 267 O 33.149 -2.75333 -2.25987 0
M  V30 268 O 32.008 -4.0604 -3.65778 0
M  V30 269 H 29.102 -0.590085 -0.579421 0
M  V30 270 H 31.648 -1.60963 -0.537492 0
M  V30 271 H 30.42 -3.59292 -1.54999 0
M  V30 272 H 30.043 -2.63816 -2.97467 0
M  V30 273 N 31.0401 0.771051 -1.3745 0
M  V30 274 C 31.9901 1.87456 -1.29785 0
M  V30 275 C 32.9741 1.59827 -0.185541 0
M  V30 276 O 34.1661 1.71945 -0.419997 0
M  V30 277 C 31.2951 3.24935 -1.1078 0
M  V30 278 C 30.3811 3.58514 -2.26558 0
M  V30 279 N 30.7721 3.6327 -3.5195 0
M  V30 280 C 29.0701 3.88683 -2.18727 0
M  V30 281 C 29.7711 3.93616 -4.283 0
M  V30 282 N 28.7471 4.09551 -3.57448 0
M  V30 283 H 32.5491 1.89386 -2.24745 0
M  V30 284 H 30.0631 0.967531 -1.30432 0
M  V30 285 H 32.0601 4.03881 -1.03374 0
M  V30 286 H 30.7201 3.24268 -0.16738 0
M  V30 287 H 31.7311 3.45458 -3.85848 0
M  V30 288 H 28.4081 3.95834 -1.32746 0
M  V30 289 H 29.7981 4.04066 -5.36824 0
M  V30 290 N 32.5182 1.22032 0.997298 0
M  V30 291 C 33.7952 0.950823 1.70935 0
M  V30 292 C 34.1752 -0.535292 2.042 0
M  V30 293 O 33.5232 -1.50217 1.72183 0
M  V30 294 C 33.7332 1.84386 2.96315 0
M  V30 295 C 35.0812 2.09732 3.69185 0
M  V30 296 O 36.1052 1.81798 3.06314 0
M  V30 297 O 34.9642 2.57018 4.82291 0
M  V30 298 H 32.0582 0.357204 0.745878 0
M  V30 299 H 34.6042 1.32997 1.05404 0
M  V30 300 H 33.3762 2.84928 2.68201 0
M  V30 301 H 32.9992 1.46602 3.69586 0
M  V30 302 N 33.9963 -1.19345 1.0293 0
M  V30 303 C 35.2423 -1.89318 0.727083 0
M  V30 304 C 35.5753 -1.79446 -0.742483 0
M  V30 305 O 34.8503 -1.1871 -1.54072 0
M  V30 306 C 35.1333 -3.40238 1.17942 0
M  V30 307 C 34.9863 -3.58979 2.71024 0
M  V30 308 C 36.3053 -4.33479 0.760548 0
M  V30 309 H 33.4243 -0.687475 0.265606 0
M  V30 310 H 36.0663 -1.40477 1.2793 0
M  V30 311 H 34.2163 -3.81964 0.709608 0
M  V30 312 H 35.8883 -3.26421 3.25955 0
M  V30 313 H 34.1313 -3.02018 3.11396 0
M  V30 314 H 34.8023 -4.64823 2.9773 0
M  V30 315 H 37.2783 -3.99469 1.16464 0
M  V30 316 H 36.1543 -5.37664 1.10493 0
M  V30 317 H 36.4153 -4.40813 -0.337063 0
M  V30 318 N 35.4744 -0.807222 -1.35358 0
M  V30 319 C 36.7024 -0.400377 -2.02989 0
M  V30 320 C 37.1174 0.988859 -1.60832 0
M  V30 321 O 36.4744 1.63729 -0.806175 0
M  V30 322 C 36.5254 -0.474867 -3.58368 0
M  V30 323 O 36.2464 -1.80933 -3.98992 0
M  V30 324 C 37.7474 -0.0609112 -4.43258 0
M  V30 325 H 34.9674 -0.162587 -0.651004 0
M  V30 326 H 37.5114 -1.09102 -1.72965 0
M  V30 327 H 35.6664 0.167534 -3.87038 0
M  V30 328 H 36.0804 -1.77256 -4.9364 0
M  V30 329 H 37.5544 -0.164145 -5.51756 0
M  V30 330 H 38.0314 0.993831 -4.27808 0
M  V30 331 H 38.6374 -0.676492 -4.19885 0
M  V30 332 N 36.9525 1.47285 -0.560781 0
M  V30 333 C 37.8845 2.28118 0.222438 0
M  V30 334 C 38.8975 1.37219 0.876056 0
M  V30 335 O 40.0865 1.62011 0.749307 0
M  V30 336 C 37.1865 3.1159 1.33285 0
M  V30 337 C 36.3595 4.30473 0.77534 0
M  V30 338 C 35.4185 4.95513 1.77069 0
M  V30 339 O 34.4445 5.53792 1.31539 0
M  V30 340 N 35.6465 4.90531 3.10418 0
M  V30 341 H 38.4115 2.95976 -0.470958 0
M  V30 342 H 35.9725 1.56955 -0.39709 0
M  V30 343 H 37.9645 3.51967 1.99752 0
M  V30 344 H 36.5345 2.45951 1.92943 0
M  V30 345 H 35.7545 3.94144 -0.0662113 0
M  V30 346 H 37.0425 5.07362 0.382272 0
M  V30 347 H 36.4405 4.44389 3.5005 0
M  V30 348 H 34.9975 5.34917 3.72434 0
M  V30 349 N 38.4306 0.297415 1.54768 0
M  V30 350 C 39.3406 -0.58983 2.27064 0
M  V30 351 C 40.3566 -1.15144 1.30453 0
M  V30 352 O 41.5326 -1.17699 1.63428 0
M  V30 353 C 38.5976 -1.74714 2.9946 0
M  V30 354 C 37.6586 -1.21997 4.11601 0
M  V30 355 C 36.8916 -2.32212 4.80535 0
M  V30 356 O 37.1146 -3.52036 4.48806 0
M  V30 357 O 36.0486 -1.99106 5.68014 0
M  V30 358 H 39.8746 -0.00348199 3.037 0
M  V30 359 H 37.4596 0.0640035 1.49263 0
M  V30 360 H 39.3416 -2.42147 3.44881 0
M  V30 361 H 38.0166 -2.32016 2.25722 0
M  V30 362 H 36.9236 -0.511458 3.70587 0
M  V30 363 H 38.2566 -0.692419 4.87305 0
M  V30 364 N 39.9087 -1.5758 0.0250728 0
M  V30 365 C 41.3247 -1.56124 -0.331282 0
M  V30 366 C 41.5247 -1.03029 -1.73169 0
M  V30 367 O 40.5807 -0.675215 -2.43305 0
M  V30 368 C 41.8937 -3.00139 -0.183584 0
M  V30 369 C 43.4417 -3.11946 -0.256654 0
M  V30 370 C 43.9167 -4.57793 -0.137792 0
M  V30 371 N 45.4077 -4.6279 -0.194904 0
M  V30 372 C 46.1427 -5.7326 -0.126655 0
M  V30 373 N 45.6387 -6.928 -0.00755288 0
M  V30 374 N 47.4317 -5.61811 -0.180348 0
M  V30 375 H 39.5827 -1.90424 0.94087 0
M  V30 376 H 41.8457 -0.875761 0.362968 0
M  V30 377 H 41.5517 -3.4292 0.780927 0
M  V30 378 H 41.4257 -3.64899 -0.955448 0
M  V30 379 H 43.8127 -2.69079 -1.21162 0
M  V30 380 H 43.8937 -2.49915 0.545517 0
M  V30 381 H 43.5377 -5.01339 0.813739 0
M  V30 382 H 43.4677 -5.17798 -0.958775 0
M  V30 383 H 45.9587 -3.76807 -0.287267 0
M  V30 384 H 46.2717 -7.72791 0.0379428 0
M  V30 385 H 44.6167 -6.94995 0.0271731 0
M  V30 386 H 47.8077 -4.6731 -0.271767 0
M  V30 387 H 47.9807 -6.47882 -0.123697 0
M  V30 388 N 41.3868 0.248026 -1.55636 0
M  V30 389 C 42.6638 0.998988 -1.68165 0
M  V30 390 C 43.0438 2.03409 -0.564621 0
M  V30 391 O 42.3918 2.24378 0.432076 0
M  V30 392 C 42.6018 1.63334 -3.0842 0
M  V30 393 C 43.9498 2.13562 -3.66983 0
M  V30 394 O 44.9738 1.73277 -3.11213 0
M  V30 395 O 43.8328 2.87526 -4.64749 0
M  V30 396 H 40.9268 0.464933 -0.683935 0
M  V30 397 H 43.4728 0.241902 -1.67967 0
M  V30 398 H 42.2448 0.884583 -3.8117 0
M  V30 399 H 41.8678 2.45666 -3.12624 0
M  V30 400 N 42.8649 1.48995 0.513639 0
M  V30 401 C 43.7749 1.67443 1.64317 0
M  V30 402 C 44.7909 0.556947 1.64846 0
M  V30 403 O 45.9669 0.830082 1.83498 0
M  V30 404 C 43.0319 1.72515 3.00732 0
M  V30 405 C 42.0929 2.96009 3.1093 0
M  V30 406 C 41.3259 3.00829 4.40837 0
M  V30 407 O 41.5489 2.13594 5.28898 0
M  V30 408 O 40.4829 3.93168 4.55744 0
M  V30 409 H 44.3089 2.63106 1.51687 0
M  V30 410 H 41.8939 1.32588 0.688543 0
M  V30 411 H 43.7759 1.78277 3.81831 0
M  V30 412 H 42.4509 0.800278 3.13651 0
M  V30 413 H 41.3579 2.9577 2.29065 0
M  V30 414 H 42.6909 3.87934 3.02933 0
M  V30 415 N 44.343 -0.763751 1.37857 0
M  V30 416 C 45.589 -1.52483 1.33704 0
M  V30 417 C 45.922 -1.94051 -0.0759612 0
M  V30 418 O 45.197 -1.64675 -1.03501 0
M  V30 419 C 45.48 -2.78441 2.28348 0
M  V30 420 C 45.333 -2.43075 3.78463 0
M  V30 421 C 46.652 -3.80415 2.21298 0
M  V30 422 H 43.771 -0.553169 0.487005 0
M  V30 423 H 46.413 -0.875562 1.68624 0
M  V30 424 H 44.563 -3.33842 1.987 0
M  V30 425 H 46.235 -1.93527 4.18742 0
M  V30 426 H 44.478 -1.75666 3.96641 0
M  V30 427 H 45.149 -3.33149 4.40132 0
M  V30 428 H 47.625 -3.34527 2.47449 0
M  V30 429 H 46.501 -4.66257 2.89647 0
M  V30 430 H 46.762 -4.25262 1.20849 0
M  V30 431 N 45.8211 -1.22559 -0.990812 0
M  V30 432 C 47.0671 -1.06303 -1.73411 0
M  V30 433 C 47.4221 0.397442 -1.8825 0
M  V30 434 O 46.7151 1.29062 -1.41611 0
M  V30 435 C 46.9091 -1.71011 -3.13831 0
M  V30 436 C 46.7381 -3.232 -3.12685 0
M  V30 437 C 45.5081 -3.92314 -3.18461 0
M  V30 438 C 47.7061 -4.20107 -2.96673 0
M  V30 439 N 45.6881 -5.31571 -3.07091 0
M  V30 440 C 47.0591 -5.46208 -2.93354 0
M  V30 441 C 49.1141 -4.10973 -2.8108 0
M  V30 442 C 47.8171 -6.64225 -2.76039 0
M  V30 443 C 49.8431 -5.28642 -2.65126 0
M  V30 444 C 49.2051 -6.53663 -2.62496 0
M  V30 445 H 45.3041 -0.443441 -0.644115 0
M  V30 446 H 47.8881 -1.55131 -1.17654 0
M  V30 447 H 46.0591 -1.2473 -3.67827 0
M  V30 448 H 47.7911 -1.47828 -3.76735 0
M  V30 449 H 44.5461 -3.43326 -3.26227 0
M  V30 450 H 44.9701 -6.0455 -3.0471 0
M  V30 451 H 49.6121 -3.15098 -2.8191 0
M  V30 452 H 47.3301 -7.60246 -2.73954 0
M  V30 453 H 50.9161 -5.23407 -2.54039 0
M  V30 454 H 49.7961 -7.43182 -2.50302 0
M  V30 455 N 47.2992 1.18797 -1.03562 0
M  V30 456 C 48.5452 1.8893 -0.737113 0
M  V30 457 C 48.8782 1.79837 0.732956 0
M  V30 458 O 48.1532 1.19525 1.5344 0
M  V30 459 C 48.4362 3.39607 -1.19745 0
M  V30 460 C 48.2892 3.57537 -2.72924 0
M  V30 461 C 49.6082 4.33069 -0.783526 0
M  V30 462 H 46.7272 0.686057 -0.269249 0
M  V30 463 H 49.3692 1.39797 -1.28673 0
M  V30 464 H 47.5192 3.81583 -0.729855 0
M  V30 465 H 49.1912 3.24688 -3.27682 0
M  V30 466 H 47.4342 3.00363 -3.12993 0
M  V30 467 H 48.1052 4.63238 -3.00191 0
M  V30 468 H 50.5812 3.98846 -1.18581 0
M  V30 469 H 49.4572 5.3707 -1.13343 0
M  V30 470 H 49.7182 4.40986 0.313681 0
M  V30 471 N 48.7773 0.814389 1.34928 0
M  V30 472 C 50.0233 0.399013 1.98836 0
M  V30 473 C 50.3563 -1.03314 1.64438 0
M  V30 474 O 49.6313 -1.71811 0.911659 0
M  V30 475 C 49.9143 0.591629 3.55207 0
M  V30 476 C 49.7673 2.06928 3.99376 0
M  V30 477 C 51.0863 0.022199 4.40094 0
M  V30 478 H 48.2053 0.146451 0.722303 0
M  V30 479 H 50.8473 1.02537 1.59957 0
M  V30 480 H 48.9973 0.0584441 3.88456 0
M  V30 481 H 50.6693 2.66544 3.76499 0
M  V30 482 H 48.9123 2.56287 3.49999 0
M  V30 483 H 49.5833 2.1549 5.08201 0
M  V30 484 H 52.0593 0.477643 4.13349 0
M  V30 485 H 50.9353 0.186832 5.48582 0
M  V30 486 H 51.1963 -1.07215 4.28902 0
M  V30 487 N 50.2554 -1.46986 0.568584 0
M  V30 488 C 51.5034 -2.02041 0.0487022 0
M  V30 489 C 51.8244 -1.44408 -1.31039 0
M  V30 490 O 51.0944 -0.623477 -1.85714 0
M  V30 491 H 49.6744 -0.746849 0.015014 0
M  V30 492 H 52.3364 -1.80257 0.741168 0
M  V30 493 H 51.4324 -3.12085 -0.0308961 0
M  V30 494 N 51.7335 -0.305618 -1.54608 0
M  V30 495 C 52.6665 0.610536 -2.19881 0
M  V30 496 C 53.6445 1.1294 -1.16976 0
M  V30 497 O 54.8285 1.19673 -1.45638 0
M  V30 498 C 51.9555 1.83583 -2.84631 0
M  V30 499 C 51.0015 1.4498 -4.01102 0
M  V30 500 S 51.8345 0.501793 -5.33144 0
M  V30 501 C 52.9905 1.73478 -6.01379 0
M  V30 502 H 53.2235 0.0560177 -2.97247 0
M  V30 503 H 50.7565 -0.0897434 -1.54139 0
M  V30 504 H 52.7145 2.53898 -3.22562 0
M  V30 505 H 51.3755 2.36152 -2.07102 0
M  V30 506 H 50.5685 2.36236 -4.45206 0
M  V30 507 H 50.1705 0.826553 -3.64752 0
M  V30 508 H 52.4625 2.67473 -6.22467 0
M  V30 509 H 53.4055 1.33622 -6.95378 0
M  V30 510 H 53.8135 1.9136 -5.31076 0
M  V30 511 N 53.2116 1.57565 -0.0334293 0
M  V30 512 C 54.4596 1.91598 0.642999 0
M  V30 513 C 54.7806 0.910847 1.7242 0
M  V30 514 O 54.0506 -0.0469931 1.95844 0
M  V30 515 H 52.6306 0.707228 0.240496 0
M  V30 516 H 55.2926 1.94726 -0.0822488 0
M  V30 517 H 54.3886 2.92336 1.09298 0
M  V30 518 N 54.6897 -0.239769 1.55765 0
M  V30 519 C 55.9387 -0.964754 1.77131 0
M  V30 520 C 56.2517 -1.86213 0.59868 0
M  V30 521 O 57.4577 -2.6244 0.695522 0
M  V30 522 C 55.9137 -1.76552 3.1362 0
M  V30 523 C 55.5217 -0.915185 4.38553 0
M  V30 524 C 57.2657 -2.48281 3.44321 0
M  V30 525 C 55.1727 -1.71225 5.66071 0
M  V30 526 H 54.1027 -0.363953 0.660344 0
M  V30 527 H 56.7537 -0.219181 1.82186 0
M  V30 528 H 55.1357 -2.55331 3.02691 0
M  V30 529 H 56.3097 -0.169217 4.60489 0
M  V30 530 H 54.6247 -0.310889 4.15238 0
M  V30 531 H 57.2217 -3.08382 4.36812 0
M  V30 532 H 57.5647 -3.20256 2.65973 0
M  V30 533 H 58.0977 -1.76507 3.56497 0
M  V30 534 H 54.8367 -1.03612 6.4726 0
M  V30 535 H 54.3567 -2.43331 5.48224 0
M  V30 536 H 56.0357 -2.27758 6.05587 0
M  V30 537 N 56.1678 -1.49265 -0.50573 0
M  V30 538 C 57.4138 -1.58748 -1.26202 0
M  V30 539 C 57.7468 -0.271227 -1.92297 0
M  V30 540 O 57.0218 0.724831 -1.80489 0
M  V30 541 C 57.3048 -2.74332 -2.33268 0
M  V30 542 C 57.1578 -4.15737 -1.71705 0
M  V30 543 C 58.4768 -2.85576 -3.34865 0
M  V30 544 H 55.5958 -0.577826 -0.457478 0
M  V30 545 H 58.2378 -1.81532 -0.560897 0
M  V30 546 H 56.3878 -2.55036 -2.93068 0
M  V30 547 H 58.0598 -4.46537 -1.15769 0
M  V30 548 H 56.3028 -4.21605 -1.02135 0
M  V30 549 H 56.9738 -4.92477 -2.49341 0
M  V30 550 H 59.4498 -3.03127 -2.8505 0
M  V30 551 H 58.3258 -3.68135 -4.07146 0
M  V30 552 H 58.5868 -1.94732 -3.96903 0
M  V30 553 N 57.6459 0.756429 -1.3826 0
M  V30 554 C 58.5789 1.87802 -1.29637 0
M  V30 555 C 59.5569 1.61667 -0.173939 0
M  V30 556 O 60.7409 1.85208 -0.350775 0
M  V30 557 C 57.8679 3.23354 -1.00797 0
M  V30 558 C 56.9139 3.68379 -2.14939 0
M  V30 559 S 57.7469 3.8025 -3.77054 0
M  V30 560 C 58.9029 5.18626 -3.50396 0
M  V30 561 H 59.1359 1.94829 -2.24564 0
M  V30 562 H 56.6689 0.919117 -1.24063 0
M  V30 563 H 58.6269 4.01637 -0.848413 0
M  V30 564 H 57.2879 3.14008 -0.0759369 0
M  V30 565 H 56.4809 4.66693 -1.90299 0
M  V30 566 H 56.0829 2.97242 -2.26988 0
M  V30 567 H 58.3749 6.04289 -3.06334 0
M  V30 568 H 59.3179 5.48286 -4.48094 0
M  V30 569 H 59.7259 4.87289 -2.84973 0
M  V30 570 N 59.124 1.23083 0.984299 0
M  V30 571 C 60.349 1.088 1.76571 0
M  V30 572 C 60.774 -0.356657 1.84688 0
M  V30 573 O 60.132 -1.25788 1.30565 0
M  V30 574 C 60.18 1.71371 3.17277 0
M  V30 575 O 59.284 0.973213 4.00752 0
M  V30 576 H 58.625 0.381599 0.543395 0
M  V30 577 H 61.155 1.63057 1.23587 0
M  V30 578 H 61.165 1.76449 3.67872 0
M  V30 579 H 59.84 2.76493 3.10684 0
M  V30 580 H 58.417 0.999078 3.59267 0
M  V30 581 N 60.6021 -1.18246 1.0419 0
M  V30 582 C 61.5321 -2.24127 0.654914 0
M  V30 583 C 62.5131 -1.66617 -0.342451 0
M  V30 584 O 63.6981 -1.92924 -0.222277 0
M  V30 585 C 60.8281 -3.47295 0.0183757 0
M  V30 586 C 59.7821 -4.17563 0.939414 0
M  V30 587 C 59.1081 -5.34438 0.167286 0
M  V30 588 C 60.4081 -4.70917 2.25908 0
M  V30 589 H 62.1021 -2.56753 1.54007 0
M  V30 590 H 59.6481 -1.23414 0.74195 0
M  V30 591 H 61.6011 -4.20572 -0.264082 0
M  V30 592 H 60.3251 -3.13907 -0.901664 0
M  V30 593 H 58.9841 -3.46186 1.20628 0
M  V30 594 H 58.6321 -4.97298 -0.7552 0
M  V30 595 H 58.3321 -5.82388 0.780901 0
M  V30 596 H 59.8561 -6.10504 -0.108125 0
M  V30 597 H 61.2701 -5.35882 2.03724 0
M  V30 598 H 59.6671 -5.29406 2.82577 0
M  V30 599 H 60.7371 -3.88272 2.9047 0
M  V30 600 N 62.0802 -0.821533 -1.34494 0
M  V30 601 C 63.3292 -0.405355 -1.97585 0
M  V30 602 C 63.6422 1.03677 -1.65863 0
M  V30 603 O 64.8482 1.55679 -2.22433 0
M  V30 604 C 63.3042 -0.673861 -3.53535 0
M  V30 605 C 62.9122 -2.12951 -3.94152 0
M  V30 606 C 64.6562 -0.32378 -4.23263 0
M  V30 607 C 62.5632 -2.34298 -5.43009 0
M  V30 608 H 61.4932 -0.147836 -0.739365 0
M  V30 609 H 64.1442 -1.00769 -1.53355 0
M  V30 610 H 62.5262 -0.00137554 -3.96 0
M  V30 611 H 63.7002 -2.84104 -3.62797 0
M  V30 612 H 62.0152 -2.44089 -3.37356 0
M  V30 613 H 64.6122 -0.461126 -5.32708 0
M  V30 614 H 64.9552 0.731586 -4.09821 0
M  V30 615 H 65.4882 -0.950786 -3.8627 0
M  V30 616 H 62.2272 -3.38335 -5.61435 0
M  V30 617 H 61.7472 -1.67687 -5.75883 0
M  V30 618 H 63.4262 -2.16588 -6.09671 0
M  V30 619 N 63.5583 1.46682 -0.576371 0
M  V30 620 C 64.8043 2.02712 -0.0596221 0
M  V30 621 C 65.1373 1.44765 1.29448 0
M  V30 622 O 64.4123 0.610355 1.84675 0
M  V30 623 C 64.6953 3.60098 0.0129503 0
M  V30 624 C 64.5483 4.28441 -1.3696 0
M  V30 625 C 65.8673 4.34224 0.71678 0
M  V30 626 H 62.9863 0.736637 -0.0231407 0
M  V30 627 H 65.6283 1.74898 -0.742351 0
M  V30 628 H 63.7783 3.83926 0.594378 0
M  V30 629 H 65.4503 4.15896 -1.9957 0
M  V30 630 H 63.6933 3.8805 -1.93907 0
M  V30 631 H 64.3643 5.3716 -1.27135 0
M  V30 632 H 66.8403 4.15503 0.222908 0
M  V30 633 H 65.7163 5.43936 0.73657 0
M  V30 634 H 65.9773 4.04823 1.77682 0
M  V30 635 N 65.0364 0.313813 1.54444 0
M  V30 636 C 65.9664 -0.549454 2.26943 0
M  V30 637 C 66.9474 -1.12741 1.27372 0
M  V30 638 O 68.1324 -1.15436 1.56167 0
M  V30 639 C 65.2624 -1.71523 3.01989 0
M  V30 640 C 64.2164 -1.26703 4.08816 0
M  V30 641 C 63.5424 -2.51898 4.71647 0
M  V30 642 C 64.8424 -0.388962 5.2085 0
M  V30 643 H 66.5364 0.0552661 2.99349 0
M  V30 644 H 64.0824 0.0280207 1.43973 0
M  V30 645 H 66.0354 -2.32535 3.51433 0
M  V30 646 H 64.7594 -2.34639 2.27183 0
M  V30 647 H 63.4184 -0.679896 3.6024 0
M  V30 648 H 63.0664 -3.13356 3.93468 0
M  V30 649 H 62.7664 -2.22605 5.43802 0
M  V30 650 H 64.2904 -3.1369 5.23861 0
M  V30 651 H 65.7044 -0.905107 5.6611 0
M  V30 652 H 64.1014 -0.18924 5.99802 0
M  V30 653 H 65.1714 0.582699 4.81386 0
M  V30 654 N 66.5145 -1.57545 0.0417849 0
M  V30 655 C 67.4775 -2.09885 -0.92093 0
M  V30 656 C 68.4775 -1.01648 -1.24596 0
M  V30 657 O 69.6675 -1.27759 -1.1842 0
M  V30 658 C 66.7995 -2.57527 -2.23367 0
M  V30 659 H 67.9925 -2.96236 -0.467382 0
M  V30 660 H 65.5455 -1.5493 -0.206467 0
M  V30 661 H 66.2805 -1.74542 -2.73323 0
M  V30 662 H 66.0655 -3.36613 -2.01083 0
M  V30 663 H 67.5555 -2.98201 -2.92346 0
M  V30 664 N 67.9926 0.231505 -1.5589 0
M  V30 665 C 69.2416 0.955346 -1.7764 0
M  V30 666 C 69.5546 1.85893 -0.608546 0
M  V30 667 O 70.7606 2.62067 -0.70943 0
M  V30 668 C 69.2166 1.74886 -3.14552 0
M  V30 669 C 68.8246 0.891915 -4.39032 0
M  V30 670 C 70.5686 2.46452 -3.45633 0
M  V30 671 C 68.4756 1.68221 -5.66971 0
M  V30 672 H 67.4056 0.360446 -0.662265 0
M  V30 673 H 70.0566 0.209516 -1.823 0
M  V30 674 H 68.4386 2.53723 -3.04041 0
M  V30 675 H 69.6126 0.144793 -4.60572 0
M  V30 676 H 67.9276 0.288863 -4.15397 0
M  V30 677 H 70.5246 3.06061 -4.38441 0
M  V30 678 H 70.8676 3.18841 -2.67668 0
M  V30 679 H 71.4006 1.74613 -3.57428 0
M  V30 680 H 68.1396 1.00178 -6.478 0
M  V30 681 H 67.6596 2.4042 -5.49507 0
M  V30 682 H 69.3386 2.24544 -6.06786 0
M  V30 683 N 69.4707 1.49531 0.497807 0
M  V30 684 C 70.7167 1.59415 1.25358 0
M  V30 685 C 71.0497 0.281422 1.9215 0
M  V30 686 O 70.3247 -0.715249 1.80871 0
M  V30 687 C 70.6077 2.75566 2.3181 0
M  V30 688 C 70.4607 4.16642 1.69498 0
M  V30 689 C 71.7797 2.87347 3.33346 0
M  V30 690 H 68.8987 0.580244 0.454408 0
M  V30 691 H 71.5407 1.81827 0.551262 0
M  V30 692 H 69.6907 2.56587 2.91711 0
M  V30 693 H 71.3627 4.47145 1.13399 0
M  V30 694 H 69.6057 4.22141 0.998978 0
M  V30 695 H 70.2767 4.93792 2.46725 0
M  V30 696 H 72.7527 3.04634 2.83438 0
M  V30 697 H 71.6287 3.70289 4.05188 0
M  V30 698 H 71.8897 1.96834 3.95865 0
M  V30 699 N 70.9488 -0.749086 1.3866 0
M  V30 700 C 72.1958 -1.50833 1.35114 0
M  V30 701 C 72.5238 -1.94415 -0.0574049 0
M  V30 702 O 71.7788 -1.66065 -1.03541 0
M  V30 703 C 72.0778 -2.7712 2.25697 0
M  V30 704 C 71.7438 -2.52477 3.73585 0
M  V30 705 C 70.4058 -2.45466 4.13884 0
M  V30 706 C 72.7578 -2.31066 4.67181 0
M  V30 707 C 70.0858 -2.15064 5.45861 0
M  V30 708 C 72.4378 -2.02183 5.9942 0
M  V30 709 C 71.1018 -1.93631 6.38798 0
M  V30 710 H 70.3718 -0.551936 0.494416 0
M  V30 711 H 73.0188 -0.860979 1.71054 0
M  V30 712 H 71.3238 -3.46528 1.82827 0
M  V30 713 H 73.0208 -3.35096 2.20254 0
M  V30 714 H 69.6108 -2.58807 3.41638 0
M  V30 715 H 73.7948 -2.35459 4.3689 0
M  V30 716 H 69.0508 -2.06954 5.75308 0
M  V30 717 H 73.2248 -1.8462 6.71482 0
M  V30 718 H 70.8518 -1.69839 7.40985 0
M  V30 719 N 72.4269 -1.23603 -0.977757 0
M  V30 720 C 73.6749 -1.06759 -1.71601 0
M  V30 721 C 73.9959 0.395929 -1.90938 0
M  V30 722 O 73.2659 1.28356 -1.47992 0
M  V30 723 H 71.8459 -0.392062 -0.635843 0
M  V30 724 H 74.5079 -1.55362 -1.1768 0
M  V30 725 H 73.6039 -1.55763 -2.70452 0
M  V30 726 N 73.905 1.17692 -1.04816 0
M  V30 727 C 74.853 2.23632 -0.63966 0
M  V30 728 C 75.847 1.6601 0.337219 0
M  V30 729 O 77.053 1.78844 0.203693 0
M  V30 730 H 73.428 0.727949 -0.188665 0
M  V30 731 H 75.399 2.55387 -1.54337 0
M  V30 732 C 74.148 3.4769 -0.0264051 0
M  V30 733 H 73.471 3.92331 -0.769164 0
M  V30 734 H 74.911 4.23418 0.222098 0
M  V30 735 C 73.37 3.13807 1.22584 0
M  V30 736 O 73.9 3.28236 2.31569 0
M  V30 737 N 72.106 2.68065 1.12202 0
M  V30 738 H 71.653 2.56525 0.235133 0
M  V30 739 H 71.611 2.45767 1.96076 0
M  V30 740 N 75.3831 0.828654 1.34056 0
M  V30 741 C 76.6291 0.42008 1.98402 0
M  V30 742 C 76.9621 -1.01564 1.65525 0
M  V30 743 O 76.2371 -1.70834 0.929831 0
M  V30 744 C 76.5201 0.62927 3.54559 0
M  V30 745 C 76.3731 2.11152 3.97159 0
M  V30 746 C 77.6921 0.0688756 4.40046 0
M  V30 747 H 74.8111 0.154104 0.720709 0
M  V30 748 H 77.4531 1.04228 1.5886 0
M  V30 749 H 75.6031 0.0996418 3.88372 0
M  V30 750 H 77.2751 2.70522 3.73651 0
M  V30 751 H 75.5181 2.59985 3.47261 0
M  V30 752 H 76.1891 2.20868 5.05887 0
M  V30 753 H 78.6651 0.521458 4.1282 0
M  V30 754 H 77.5411 0.245006 5.48353 0
M  V30 755 H 77.8021 -1.0266 4.30015 0
M  V30 756 N 76.8612 -1.46375 0.584142 0
M  V30 757 C 77.7912 -2.33103 -0.136037 0
M  V30 758 C 78.7722 -1.45431 -0.882255 0
M  V30 759 O 79.9572 -1.74246 -0.857434 0
M  V30 760 C 77.0872 -3.27731 -1.14933 0
M  V30 761 C 76.0412 -4.24855 -0.517862 0
M  V30 762 C 75.3672 -5.09001 -1.63773 0
M  V30 763 C 76.6672 -5.19439 0.545886 0
M  V30 764 H 78.3612 -2.93568 0.588086 0
M  V30 765 H 75.9072 -1.41166 0.284259 0
M  V30 766 H 77.8602 -3.87261 -1.66153 0
M  V30 767 H 76.5842 -2.65377 -1.90375 0
M  V30 768 H 75.2432 -3.6659 -0.0267361 0
M  V30 769 H 74.8912 -4.43031 -2.38185 0
M  V30 770 H 74.5912 -5.74777 -1.22085 0
M  V30 771 H 76.1152 -5.71396 -2.15266 0
M  V30 772 H 77.5292 -5.73177 0.118704 0
M  V30 773 H 75.9262 -5.93566 0.88317 0
M  V30 774 H 76.9962 -4.63285 1.43162 0
M  V30 775 N 78.3393 -0.321999 -1.54275 0
M  V30 776 C 79.5853 0.281461 -2.00837 0
M  V30 777 C 79.9183 1.51909 -1.20985 0
M  V30 778 O 79.1933 1.923 -0.291733 0
M  V30 779 C 79.4763 0.617162 -3.54772 0
M  V30 780 C 79.3293 -0.631064 -4.45351 0
M  V30 781 C 80.6483 1.43542 -4.16033 0
M  V30 782 H 77.7673 0.100826 -0.730071 0
M  V30 783 H 80.4093 -0.438268 -1.84876 0
M  V30 784 H 78.5593 1.23034 -3.68504 0
M  V30 785 H 80.2313 -1.26934 -4.43492 0
M  V30 786 H 78.4743 -1.26025 -4.15091 0
M  V30 787 H 79.1453 -0.351735 -5.50878 0
M  V30 788 H 81.6213 0.917134 -4.05867 0
M  V30 789 H 80.4973 1.63907 -5.23856 0
M  V30 790 H 80.7583 2.43108 -3.69257 0
M  V30 791 N 79.8174 1.5752 -0.0501392 0
M  V30 792 C 81.0664 1.91827 0.623328 0
M  V30 793 C 81.3794 0.930222 1.72065 0
M  V30 794 O 82.5854 1.1653 2.4522 0
M  V30 795 C 81.0414 3.40692 1.16003 0
M  V30 796 C 80.6494 4.479 0.0948811 0
M  V30 797 C 82.3934 3.84034 1.80881 0
M  V30 798 C 80.3004 5.87879 0.644411 0
M  V30 799 H 79.2304 0.715918 0.236596 0
M  V30 800 H 81.8814 1.83115 -0.118861 0
M  V30 801 H 80.2634 3.44405 1.9545 0
M  V30 802 H 81.4374 4.55775 -0.678675 0
M  V30 803 H 79.7524 4.13892 -0.45637 0
M  V30 804 H 82.3494 4.85984 2.22988 0
M  V30 805 H 82.6924 3.20225 2.6601 0
M  V30 806 H 83.2254 3.82833 1.0809 0
M  V30 807 H 79.9644 6.55282 -0.169229 0
M  V30 808 H 79.4844 5.83567 1.38598 0
M  V30 809 H 81.1634 6.37098 1.12763 0
M  V30 810 N 81.2955 -0.223234 1.56011 0
M  V30 811 C 82.5235 -0.964812 1.83027 0
M  V30 812 C 82.9385 -1.78013 0.62904 0
M  V30 813 O 82.2955 -1.78008 -0.402414 0
M  V30 814 C 82.3465 -1.88373 3.08542 0
M  V30 815 O 82.0675 -1.10137 4.2403 0
M  V30 816 C 83.5685 -2.73934 3.48533 0
M  V30 817 H 80.7885 -0.282842 0.608475 0
M  V30 818 H 83.3325 -0.238971 2.03099 0
M  V30 819 H 81.4875 -2.56354 2.9045 0
M  V30 820 H 81.9015 -1.72501 4.95322 0
M  V30 821 H 83.3755 -3.34117 4.39397 0
M  V30 822 H 83.8525 -3.46244 2.70207 0
M  V30 823 H 84.4585 -2.11369 3.69057 0
M  V30 824 N 82.7736 -1.49793 -0.48987 0
M  V30 825 C 83.7366 -1.66752 -1.57246 0
M  V30 826 C 84.7366 -0.538867 -1.51502 0
M  V30 827 O 85.9266 -0.805545 -1.54456 0
M  V30 828 C 83.0586 -1.67528 -2.96896 0
M  V30 829 H 84.2516 -2.63321 -1.43534 0
M  V30 830 H 81.8046 -1.38992 -0.714914 0
M  V30 831 H 82.5396 -0.725837 -3.16073 0
M  V30 832 H 82.3246 -2.49504 -3.02473 0
M  V30 833 H 83.8146 -1.82667 -3.7553 0
M  V30 834 N 84.2517 0.741722 -1.39055 0
M  V30 835 C 85.5007 1.49656 -1.35225 0
M  V30 836 C 85.8137 1.95533 0.0512708 0
M  V30 837 O 87.0197 2.7067 0.212138 0
M  V30 838 C 85.4757 2.70389 -2.37525 0
M  V30 839 C 85.0837 2.31489 -3.83558 0
M  V30 840 C 86.8277 3.48236 -2.42759 0
M  V30 841 C 84.7347 3.48903 -4.77515 0
M  V30 842 H 83.6647 0.56197 -0.502699 0
M  V30 843 H 86.3157 0.809727 -1.64668 0
M  V30 844 H 84.6977 3.41113 -2.01142 0
M  V30 845 H 85.8717 1.68354 -4.28945 0
M  V30 846 H 84.1867 1.66749 -3.81554 0
M  V30 847 H 86.7837 4.35558 -3.1015 0
M  V30 848 H 87.1267 3.90229 -1.45008 0
M  V30 849 H 87.6597 2.84535 -2.78002 0
M  V30 850 H 84.3987 3.11966 -5.76504 0
M  V30 851 H 83.9187 4.11041 -4.36813 0
M  V30 852 H 85.5977 4.15328 -4.96096 0
M  V30 853 N 85.7298 1.2412 0.971189 0
M  V30 854 C 86.6928 1.03156 2.04674 0
M  V30 855 C 87.6928 -0.00990322 1.60797 0
M  V30 856 O 88.8828 0.230729 1.72665 0
M  V30 857 C 86.0148 0.562765 3.36223 0
M  V30 858 H 87.2078 1.98614 2.24705 0
M  V30 859 H 84.7608 1.06293 1.14593 0
M  V30 860 H 85.4958 -0.395176 3.21883 0
M  V30 861 H 85.2808 1.31441 3.69413 0
M  V30 862 H 86.7708 0.437015 4.15307 0
M  V30 863 N 87.2079 -1.17134 1.05439 0
M  V30 864 C 88.1549 -2.21235 0.657539 0
M  V30 865 C 89.1249 -1.62551 -0.341543 0
M  V30 866 O 90.3099 -1.89379 -0.232393 0
M  V30 867 C 87.4499 -3.45076 0.0410575 0
M  V30 868 C 86.5629 -4.18042 1.08927 0
M  V30 869 C 85.6979 -5.29376 0.439848 0
M  V30 870 C 84.7369 -5.94132 1.4722 0
M  V30 871 N 83.8739 -6.96975 0.846756 0
M  V30 872 H 88.7139 -2.54534 1.54972 0
M  V30 873 H 86.2509 -1.25028 0.775006 0
M  V30 874 H 88.2089 -4.15862 -0.33383 0
M  V30 875 H 86.8389 -3.12353 -0.814568 0
M  V30 876 H 85.8909 -3.45945 1.58196 0
M  V30 877 H 87.2029 -4.62306 1.87282 0
M  V30 878 H 86.3569 -6.06699 0.0115125 0
M  V30 879 H 85.0959 -4.86251 -0.375656 0
M  V30 880 H 84.1009 -5.15538 1.91052 0
M  V30 881 H 85.3259 -6.39337 2.28965 0
M  V30 882 H 83.2719 -6.5598 0.0518075 0
M  V30 883 H 83.1889 -7.39565 1.5678 0
M  V30 884 H 84.4569 -7.78239 0.443277 0
M  V30 885 N 88.686 -0.835752 -1.33615 0
M  V30 886 C 89.933 -0.429959 -1.97883 0
M  V30 887 C 90.261 1.01006 -1.66217 0
M  V30 888 O 89.516 1.72047 -0.93265 0
M  V30 889 C 89.815 -0.593925 -3.52431 0
M  V30 890 C 89.481 -2.00158 -4.04039 0
M  V30 891 C 88.143 -2.38662 -4.17844 0
M  V30 892 C 90.495 -2.92117 -4.31644 0
M  V30 893 C 87.823 -3.68435 -4.56588 0
M  V30 894 C 90.175 -4.21368 -4.71838 0
M  V30 895 C 88.839 -4.59833 -4.83849 0
M  V30 896 H 88.109 -0.157333 -0.724104 0
M  V30 897 H 90.756 -1.06217 -1.59343 0
M  V30 898 H 89.061 0.121619 -3.91611 0
M  V30 899 H 90.758 -0.260282 -4.00154 0
M  V30 900 H 87.348 -1.69252 -3.93766 0
M  V30 901 H 91.532 -2.63608 -4.20505 0
M  V30 902 H 86.788 -3.98046 -4.64079 0
M  V30 903 H 90.962 -4.92703 -4.92155 0
M  V30 904 H 88.589 -5.60438 -5.13627 0
M  V30 905 N 90.1641 1.46063 -0.591896 0
M  V30 906 C 91.0741 2.34192 0.13831 0
M  V30 907 C 92.0901 1.50305 0.876608 0
M  V30 908 O 93.2661 1.8315 0.837728 0
M  V30 909 C 90.3311 3.27656 1.13326 0
M  V30 910 C 89.3921 4.27445 0.39863 0
M  V30 911 C 88.6251 5.16443 1.34618 0
M  V30 912 O 88.8481 5.08553 2.58321 0
M  V30 913 O 87.7821 5.95843 0.851768 0
M  V30 914 H 91.6081 2.98002 -0.58552 0
M  V30 915 H 89.1931 1.45188 -0.352239 0
M  V30 916 H 91.0751 3.85291 1.70671 0
M  V30 917 H 89.7501 2.6643 1.83839 0
M  V30 918 H 88.6571 3.73471 -0.216895 0
M  V30 919 H 89.9901 4.91482 -0.265709 0
M  V30 920 N 91.6422 0.330177 1.54103 0
M  V30 921 C 93.0582 -0.0222371 1.59585 0
M  V30 922 C 93.2582 -1.49902 1.34654 0
M  V30 923 O 92.3142 -2.25592 1.13421 0
M  V30 924 C 93.6272 0.401932 2.98002 0
M  V30 925 C 95.1752 0.353145 3.11001 0
M  V30 926 C 95.6502 0.752576 4.51775 0
M  V30 927 N 97.1412 0.706239 4.57784 0
M  V30 928 C 97.8762 0.987417 5.64834 0
M  V30 929 N 97.3722 1.33607 6.79795 0
M  V30 930 N 99.1652 0.91254 5.54643 0
M  V30 931 H 91.3162 1.29228 1.68564 0
M  V30 932 H 93.5792 0.525906 0.78875 0
M  V30 933 H 93.2852 1.4311 3.21267 0
M  V30 934 H 93.1592 -0.229699 3.765 0
M  V30 935 H 95.5462 -0.666822 2.87467 0
M  V30 936 H 95.6272 1.0198 2.34593 0
M  V30 937 H 95.2712 1.77049 4.76042 0
M  V30 938 H 95.2012 0.0635409 5.26562 0
M  V30 939 H 97.6922 0.44889 3.75224 0
M  V30 940 H 98.0052 1.53582 7.57385 0
M  V30 941 H 96.3502 1.37439 6.81275 0
M  V30 942 H 99.5412 0.639601 4.6371 0
M  V30 943 H 99.7142 1.13503 6.37982 0
M  V30 944 N 93.1203 -1.57491 0.0584922 0
M  V30 945 C 94.0503 -2.14988 -0.911178 0
M  V30 946 C 95.0313 -1.07343 -1.31952 0
M  V30 947 O 96.2163 -1.35318 -1.39294 0
M  V30 948 C 93.3463 -2.70078 -2.18347 0
M  V30 949 C 92.3003 -3.82771 -1.91495 0
M  V30 950 C 91.6263 -4.24408 -3.25241 0
M  V30 951 C 92.9263 -5.07592 -1.23075 0
M  V30 952 H 94.6203 -2.96263 -0.432246 0
M  V30 953 H 92.1663 -1.42512 -0.206469 0
M  V30 954 H 94.1193 -3.08943 -2.86587 0
M  V30 955 H 92.8433 -1.86005 -2.68458 0
M  V30 956 H 91.5023 -3.44389 -1.25664 0
M  V30 957 H 91.1503 -3.37275 -3.73168 0
M  V30 958 H 90.8503 -5.00366 -3.08071 0
M  V30 959 H 92.3743 -4.65879 -3.94701 0
M  V30 960 H 93.7883 -5.43857 -1.81362 0
M  V30 961 H 92.1853 -5.88741 -1.16207 0
M  V30 962 H 93.2553 -4.84454 -0.207847 0
M  V30 963 N 94.5984 0.214957 -1.56127 0
M  V30 964 C 95.5304 1.29004 -1.89448 0
M  V30 965 C 96.5434 1.42716 -0.783326 0
M  V30 966 O 97.7324 1.43496 -1.06166 0
M  V30 967 C 94.8324 2.66482 -2.09381 0
M  V30 968 C 94.0054 2.74633 -3.40434 0
M  V30 969 C 93.0644 3.9317 -3.49719 0
M  V30 970 O 92.0904 3.812 -4.227 0
M  V30 971 N 93.2924 5.07765 -2.81346 0
M  V30 972 H 96.0574 1.00743 -2.82261 0
M  V30 973 H 93.6184 0.40497 -1.56753 0
M  V30 974 H 95.6104 3.44173 -2.12901 0
M  V30 975 H 94.1804 2.87314 -1.23163 0
M  V30 976 H 93.4004 1.83368 -3.48955 0
M  V30 977 H 94.6884 2.77054 -4.26754 0
M  V30 978 H 94.0864 5.20386 -2.21843 0
M  V30 979 H 92.6434 5.83474 -2.90519 0
M  V30 980 N 96.0765 1.50051 0.48192 0
M  V30 981 C 97.3045 1.64237 1.25832 0
M  V30 982 C 97.7195 0.321336 1.86045 0
M  V30 983 O 97.0765 -0.695478 1.68729 0
M  V30 984 C 97.1275 2.72548 2.37487 0
M  V30 985 O 96.8485 3.99529 1.79745 0
M  V30 986 C 98.3495 2.9761 3.28547 0
M  V30 987 H 95.5695 0.55237 0.380957 0
M  V30 988 H 98.1135 1.96207 0.576467 0
M  V30 989 H 96.2685 2.43303 3.01467 0
M  V30 990 H 96.6825 4.59342 2.5319 0
M  V30 991 H 98.1565 3.77084 4.03127 0
M  V30 992 H 98.6335 2.0826 3.86684 0
M  V30 993 H 99.2395 3.28345 2.70314 0
M  V30 994 N 97.5546 -0.734337 1.39446 0
M  V30 995 C 98.8006 -1.49613 1.36908 0
M  V30 996 C 99.1336 -1.94169 -0.0347829 0
M  V30 997 O 98.4086 -1.66833 -0.999847 0
M  V30 998 C 98.6916 -2.73534 2.34203 0
M  V30 999 C 98.5446 -2.34993 3.83534 0
M  V30 1000 C 99.8636 -3.75635 2.29317 0
M  V30 1001 H 96.9826 -0.542714 0.498629 0
M  V30 1002 H 99.6246 -0.839597 1.70443 0
M  V30 1003 H 97.7746 -3.29553 2.05736 0
M  V30 1004 H 99.4466 -1.84601 4.22753 0
M  V30 1005 H 97.6896 -1.67213 4.00278 0
M  V30 1006 H 98.3606 -3.23738 4.47099 0
M  V30 1007 H 100.837 -3.29203 2.54489 0
M  V30 1008 H 99.7126 -4.60008 2.99472 0
M  V30 1009 H 99.9736 -4.22603 1.29842 0
M  V30 1010 N 99.0327 -1.24633 -0.964593 0
M  V30 1011 C 100.261 -1.11501 -1.74285 0
M  V30 1012 C 100.676 0.332165 -1.85855 0
M  V30 1013 O 100.033 1.22903 -1.34911 0
M  V30 1014 C 100.084 -1.75258 -3.16175 0
M  V30 1015 O 99.8047 -3.14318 -3.05182 0
M  V30 1016 C 101.306 -1.67776 -4.10324 0
M  V30 1017 H 98.5257 -0.389407 -0.546446 0
M  V30 1018 H 101.07 -1.64801 -1.21083 0
M  V30 1019 H 99.2247 -1.25954 -3.66353 0
M  V30 1020 H 99.6387 -3.4551 -3.94618 0
M  V30 1021 H 101.113 -2.17064 -5.0753 0
M  V30 1022 H 101.59 -0.639584 -4.34518 0
M  V30 1023 H 102.196 -2.16522 -3.66058 0
M  V30 1024 N 100.511 1.16574 -1.06058 0
M  V30 1025 C 101.459 2.22941 -0.663343 0
M  V30 1026 C 102.453 1.66358 0.319593 0
M  V30 1027 O 103.659 1.7905 0.184713 0
M  V30 1028 H 100.034 0.725907 -0.196376 0
M  V30 1029 H 102.005 2.53736 -1.57037 0
M  V30 1030 C 100.754 3.47642 -0.0632808 0
M  V30 1031 H 100.077 3.91493 -0.810733 0
M  V30 1032 H 101.517 4.2363 0.177177 0
M  V30 1033 C 99.9758 3.1509 1.19248 0
M  V30 1034 O 100.506 3.30673 2.28075 0
M  V30 1035 N 98.7118 2.6924 1.09353 0
M  V30 1036 H 98.2588 2.5676 0.207912 0
M  V30 1037 H 98.2168 2.47833 1.93458 0
M  V30 1038 N 101.989 0.842826 1.3317 0
M  V30 1039 C 103.219 0.453397 2.01564 0
M  V30 1040 C 103.627 -0.951147 1.63554 0
M  V30 1041 O 102.97 -1.63021 0.846746 0
M  V30 1042 C 103.032 0.499013 3.5602 0
M  V30 1043 C 102.696 1.86037 4.1742 0
M  V30 1044 C 103.693 2.82416 4.36506 0
M  V30 1045 C 101.378 2.15428 4.53757 0
M  V30 1046 C 103.372 4.06346 4.91082 0
M  V30 1047 C 101.059 3.39615 5.0804 0
M  V30 1048 C 102.057 4.3489 5.26649 0
M  V30 1049 O 101.745 5.5688 5.79776 0
M  V30 1050 H 101.477 0.177871 0.652179 0
M  V30 1051 H 104.031 1.13808 1.70988 0
M  V30 1052 H 102.261 -0.242467 3.85939 0
M  V30 1053 H 103.95 0.126852 4.05702 0
M  V30 1054 H 104.716 2.6101 4.08777 0
M  V30 1055 H 100.595 1.42061 4.38565 0
M  V30 1056 H 104.139 4.80722 5.05522 0
M  V30 1057 H 100.036 3.60876 5.352 0
M  V30 1058 H 100.804 5.58674 5.98185 0
M  V30 1059 N 103.467 -1.45747 0.599634 0
M  V30 1060 C 104.714 -2.02292 0.0917284 0
M  V30 1061 C 105.042 -1.46906 -1.27472 0
M  V30 1062 O 104.297 -0.630652 -1.8526 0
M  V30 1063 C 104.596 -3.57399 -0.00602758 0
M  V30 1064 C 104.262 -4.31902 1.29503 0
M  V30 1065 C 102.924 -4.51974 1.65144 0
M  V30 1066 C 105.276 -4.74551 2.15525 0
M  V30 1067 C 102.604 -5.11949 2.86574 0
M  V30 1068 C 104.956 -5.35868 3.36196 0
M  V30 1069 C 103.62 -5.54165 3.72099 0
M  V30 1070 H 102.89 -0.740239 0.0335658 0
M  V30 1071 H 105.537 -1.7491 0.779661 0
M  V30 1072 H 103.842 -3.84014 -0.777183 0
M  V30 1073 H 105.539 -3.98846 -0.415038 0
M  V30 1074 H 102.129 -4.16588 1.00761 0
M  V30 1075 H 106.313 -4.58784 1.8929 0
M  V30 1076 H 101.569 -5.24305 3.14507 0
M  V30 1077 H 105.743 -5.6787 4.03109 0
M  V30 1078 H 103.37 -6.00406 4.6628 0
M  V30 1079 N 104.945 -0.338344 -1.53925 0
M  V30 1080 C 106.194 0.260732 -2.00008 0
M  V30 1081 C 106.507 1.52073 -1.23017 0
M  V30 1082 O 107.713 2.19672 -1.5955 0
M  V30 1083 C 106.169 0.51515 -3.56194 0
M  V30 1084 C 105.777 -0.728645 -4.42035 0
M  V30 1085 C 107.521 1.07337 -4.10706 0
M  V30 1086 C 105.428 -0.445315 -5.89721 0
M  V30 1087 H 104.358 0.101205 -0.747177 0
M  V30 1088 H 107.009 -0.452866 -1.77824 0
M  V30 1089 H 105.391 1.28932 -3.74423 0
M  V30 1090 H 106.565 -1.50352 -4.35581 0
M  V30 1091 H 104.88 -1.20813 -3.98489 0
M  V30 1092 H 107.477 1.30022 -5.18651 0
M  V30 1093 H 107.82 2.0273 -3.63602 0
M  V30 1094 H 108.353 0.360034 -3.96167 0
M  V30 1095 H 105.092 -1.36883 -6.41049 0
M  V30 1096 H 104.612 0.291569 -5.99091 0
M  V30 1097 H 106.291 -0.0606218 -6.46972 0
M  V30 1098 N 106.423 1.57458 -0.0668435 0
M  V30 1099 C 107.651 1.97624 0.612565 0
M  V30 1100 C 108.066 0.94502 1.63447 0
M  V30 1101 O 107.423 -0.0689276 1.8237 0
M  V30 1102 C 107.474 3.37869 1.28555 0
M  V30 1103 O 107.195 4.3704 0.304557 0
M  V30 1104 C 108.696 3.92882 2.05325 0
M  V30 1105 H 105.916 0.650045 0.166381 0
M  V30 1106 H 108.46 2.04035 -0.137782 0
M  V30 1107 H 106.615 3.3256 1.98702 0
M  V30 1108 H 107.029 5.18565 0.786779 0
M  V30 1109 H 108.503 4.93247 2.47812 0
M  V30 1110 H 108.98 3.29156 2.9078 0
M  V30 1111 H 109.586 4.01577 1.40056 0
M  V30 1112 N 107.901 -0.206675 1.56239 0
M  V30 1113 C 109.126 -0.949474 1.8439 0
M  V30 1114 C 109.551 -1.76549 0.649016 0
M  V30 1115 O 108.909 -1.76782 -0.402231 0
M  V30 1116 C 108.957 -1.83078 3.10668 0
M  V30 1117 O 108.061 -2.9281 2.90407 0
M  V30 1118 H 107.402 -0.268033 0.607499 0
M  V30 1119 H 109.932 -0.215488 2.03462 0
M  V30 1120 H 109.942 -2.2377 3.41161 0
M  V30 1121 H 108.617 -1.23112 3.97261 0
M  V30 1122 H 107.194 -2.55956 2.71184 0
M  V30 1123 N 109.379 -1.50304 -0.473955 0
M  V30 1124 C 110.309 -1.71886 -1.58042 0
M  V30 1125 C 111.29 -0.567799 -1.60344 0
M  V30 1126 O 112.475 -0.806623 -1.76656 0
M  V30 1127 C 109.605 -1.81036 -2.96384 0
M  V30 1128 C 108.559 -2.962 -3.08949 0
M  V30 1129 C 107.885 -2.9049 -4.48909 0
M  V30 1130 C 109.185 -4.36752 -2.86434 0
M  V30 1131 H 110.879 -2.64527 -1.40234 0
M  V30 1132 H 108.425 -1.27295 -0.673201 0
M  V30 1133 H 110.378 -1.94719 -3.73714 0
M  V30 1134 H 109.102 -0.850147 -3.15341 0
M  V30 1135 H 107.761 -2.82164 -2.3405 0
M  V30 1136 H 107.409 -1.92321 -4.64781 0
M  V30 1137 H 107.109 -3.67802 -4.58253 0
M  V30 1138 H 108.633 -3.06218 -5.28264 0
M  V30 1139 H 110.047 -4.5133 -3.53517 0
M  V30 1140 H 108.444 -5.15493 -3.07225 0
M  V30 1141 H 109.514 -4.49321 -1.82316 0
M  V30 1142 N 110.857 0.726932 -1.39834 0
M  V30 1143 C 111.82 1.82269 -1.38962 0
M  V30 1144 C 112.82 1.58248 -0.285334 0
M  V30 1145 O 114.01 1.65499 -0.54366 0
M  V30 1146 C 111.142 3.20186 -1.17019 0
M  V30 1147 H 112.335 1.84443 -2.36476 0
M  V30 1148 H 109.888 0.931416 -1.25516 0
M  V30 1149 H 110.623 3.23669 -0.202204 0
M  V30 1150 H 110.408 3.3902 -1.96998 0
M  V30 1151 H 111.898 4.00235 -1.1917 0
M  V30 1152 N 112.336 1.25143 0.95797 0
M  V30 1153 C 113.576 1.10893 1.71703 0
M  V30 1154 C 113.94 -0.34478 1.88879 0
M  V30 1155 O 115.141 -0.609014 2.6181 0
M  V30 1156 C 113.412 1.83889 3.06463 0
M  V30 1157 S 114.971 1.85491 3.97666 0
M  V30 1158 H 111.789 0.396428 0.590226 0
M  V30 1159 H 114.391 1.58618 1.14283 0
M  V30 1160 H 113.095 2.88756 2.9163 0
M  V30 1161 H 112.626 1.36538 3.68946 0
M  V30 1162 H 114.641 0.929553 4.87415 0
M  V30 1163 N 113.814 -1.1601 1.06675 0
M  V30 1164 C 114.777 -2.18724 0.685001 0
M  V30 1165 C 115.777 -1.58496 -0.271246 0
M  V30 1166 O 116.967 -1.74119 -0.0531156 0
M  V30 1167 C 114.099 -3.40899 0.00853648 0
M  V30 1168 H 115.292 -2.54011 1.59431 0
M  V30 1169 H 112.845 -1.30352 0.862441 0
M  V30 1170 H 113.58 -3.11173 -0.913337 0
M  V30 1171 H 113.365 -3.8587 0.696204 0
M  V30 1172 H 114.855 -4.16886 -0.24414 0
M  V30 1173 N 115.292 -0.849877 -1.32721 0
M  V30 1174 C 116.569 -0.372405 -1.92022 0
M  V30 1175 C 116.949 1.1435 -1.77447 0
M  V30 1176 O 116.297 1.96296 -1.16962 0
M  V30 1177 C 116.507 -0.831482 -3.3895 0
M  V30 1178 C 117.855 -0.845882 -4.16089 0
M  V30 1179 O 118.879 -0.775806 -3.47649 0
M  V30 1180 O 117.738 -0.943753 -5.38289 0
M  V30 1181 H 114.832 -0.107667 -0.819961 0
M  V30 1182 H 117.378 -0.93646 -1.41522 0
M  V30 1183 H 116.15 -1.87448 -3.4348 0
M  V30 1184 H 115.773 -0.24461 -3.96847 0
M  V30 1185 N 116.77 1.45427 -0.607355 0
M  V30 1186 C 117.7 2.3329 0.0989352 0
M  V30 1187 C 118.681 1.46816 0.859007 0
M  V30 1188 O 119.866 1.75588 0.829604 0
M  V30 1189 C 116.996 3.29518 1.09705 0
M  V30 1190 C 115.95 4.25626 0.450206 0
M  V30 1191 C 115.276 5.11542 1.55655 0
M  V30 1192 C 116.576 5.18505 -0.628455 0
M  V30 1193 H 118.27 2.92595 -0.634716 0
M  V30 1194 H 115.816 1.40696 -0.306681 0
M  V30 1195 H 117.769 3.89855 1.59971 0
M  V30 1196 H 116.493 2.68372 1.86129 0
M  V30 1197 H 115.152 3.66586 -0.0315886 0
M  V30 1198 H 114.8 4.46765 2.31107 0
M  V30 1199 H 114.5 5.76647 1.12925 0
M  V30 1200 H 116.024 5.74748 2.06148 0
M  V30 1201 H 117.438 5.72916 -0.209877 0
M  V30 1202 H 115.835 5.92085 -0.977489 0
M  V30 1203 H 116.905 4.60948 -1.50514 0
M  V30 1204 N 118.248 0.346503 1.53744 0
M  V30 1205 C 119.494 -0.249473 2.0126 0
M  V30 1206 C 119.827 -1.49965 1.23386 0
M  V30 1207 O 119.102 -1.91811 0.32229 0
M  V30 1208 C 119.385 -0.560643 3.55709 0
M  V30 1209 C 119.238 0.701836 4.44291 0
M  V30 1210 C 120.557 -1.36905 4.18264 0
M  V30 1211 H 117.676 -0.0891987 0.731582 0
M  V30 1212 H 120.318 0.467624 1.84156 0
M  V30 1213 H 118.468 -1.17156 3.70414 0
M  V30 1214 H 120.14 1.33974 4.41417 0
M  V30 1215 H 118.383 1.32612 4.13033 0
M  V30 1216 H 119.054 0.43933 5.50249 0
M  V30 1217 H 121.53 -0.852448 4.07275 0
M  V30 1218 H 120.406 -1.55553 5.26398 0
M  V30 1219 H 120.667 -2.37203 3.73078 0
M  V30 1220 N 119.726 -1.57421 0.075193 0
M  V30 1221 C 120.659 -2.08528 -0.926904 0
M  V30 1222 C 121.637 -0.991171 -1.28898 0
M  V30 1223 O 122.821 -1.26479 -1.39769 0
M  V30 1224 C 119.948 -2.54576 -2.23402 0
M  V30 1225 C 118.994 -3.75454 -2.02327 0
M  V30 1226 S 119.827 -5.19989 -1.27951 0
M  V30 1227 C 120.983 -5.69372 -2.59935 0
M  V30 1228 H 121.216 -2.932 -0.492048 0
M  V30 1229 H 118.749 -1.53785 -0.137651 0
M  V30 1230 H 120.707 -2.81767 -2.98526 0
M  V30 1231 H 119.368 -1.70166 -2.64012 0
M  V30 1232 H 118.561 -4.05675 -2.99071 0
M  V30 1233 H 118.163 -3.48654 -1.35339 0
M  V30 1234 H 120.455 -5.76424 -3.56008 0
M  V30 1235 H 121.398 -6.68207 -2.34319 0
M  V30 1236 H 121.806 -4.97205 -2.67296 0
M  V30 1237 N 121.204 0.198386 -1.56346 0
M  V30 1238 C 122.452 0.91747 -1.80075 0
M  V30 1239 C 122.773 1.83929 -0.647692 0
M  V30 1240 O 122.043 1.93029 0.334166 0
M  V30 1241 H 120.623 0.341774 -0.664228 0
M  V30 1242 H 123.285 0.204684 -1.93822 0
M  V30 1243 H 122.381 1.51055 -2.7311 0
M  V30 1244 N 122.682 1.50554 0.465978 0
M  V30 1245 C 123.612 1.72722 1.57128 0
M  V30 1246 C 124.593 0.576294 1.6004 0
M  V30 1247 O 125.778 0.81598 1.76225 0
M  V30 1248 C 122.908 1.82605 2.95419 0
M  V30 1249 C 121.862 2.97835 3.07373 0
M  V30 1250 C 121.188 2.92867 4.47363 0
M  V30 1251 C 122.488 4.38265 2.84114 0
M  V30 1252 H 124.182 2.65267 1.38829 0
M  V30 1253 H 121.728 1.2765 0.666441 0
M  V30 1254 H 123.681 1.96698 3.72677 0
M  V30 1255 H 122.405 0.866858 3.14886 0
M  V30 1256 H 121.064 2.83401 2.3255 0
M  V30 1257 H 120.712 1.94783 4.63755 0
M  V30 1258 H 120.412 3.70227 4.56296 0
M  V30 1259 H 121.936 3.09015 5.26633 0
M  V30 1260 H 123.35 4.53198 3.51118 0
M  V30 1261 H 121.747 5.17115 3.04487 0
M  V30 1262 H 122.817 4.50281 1.7993 0
M  V30 1263 N 124.16 -0.719506 1.40217 0
M  V30 1264 C 125.123 -1.8153 1.39927 0
M  V30 1265 C 126.123 -1.58095 0.293723 0
M  V30 1266 O 127.313 -1.65209 0.552429 0
M  V30 1267 C 124.445 -3.19561 1.18716 0
M  V30 1268 H 125.638 -1.83186 2.37451 0
M  V30 1269 H 123.191 -0.924746 1.26008 0
M  V30 1270 H 123.926 -3.23557 0.219366 0
M  V30 1271 H 123.711 -3.3797 1.98793 0
M  V30 1272 H 125.201 -3.99598 1.21291 0
M  V30 1273 N 125.638 -1.25649 -0.95132 0
M  V30 1274 C 126.884 -1.10757 -1.69884 0
M  V30 1275 C 127.217 0.350061 -1.91019 0
M  V30 1276 O 126.492 1.25783 -1.48354 0
M  V30 1277 C 126.775 -1.86606 -3.07978 0
M  V30 1278 C 126.628 -3.40217 -2.94232 0
M  V30 1279 C 127.947 -1.65182 -4.07925 0
M  V30 1280 H 125.066 -0.40374 -0.616574 0
M  V30 1281 H 127.708 -1.54521 -1.10558 0
M  V30 1282 H 125.858 -1.49409 -3.58621 0
M  V30 1283 H 127.53 -3.87108 -2.50889 0
M  V30 1284 H 125.773 -3.67759 -2.30078 0
M  V30 1285 H 126.444 -3.88505 -3.92133 0
M  V30 1286 H 128.92 -1.9757 -3.66204 0
M  V30 1287 H 127.796 -2.20683 -5.02583 0
M  V30 1288 H 128.057 -0.593933 -4.38092 0
M  V30 1289 N 127.117 1.15442 -1.07289 0
M  V30 1290 C 128.363 1.86489 -0.796846 0
M  V30 1291 C 128.696 1.82078 0.675371 0
M  V30 1292 O 127.971 1.24346 1.4956 0
M  V30 1293 C 128.254 3.35626 -1.30489 0
M  V30 1294 C 128.107 3.48673 -2.84161 0
M  V30 1295 C 129.426 4.30357 -0.920907 0
M  V30 1296 H 126.545 0.677144 -0.290939 0
M  V30 1297 H 129.187 1.35633 -1.33056 0
M  V30 1298 H 127.337 3.79068 -0.850883 0
M  V30 1299 H 129.009 3.14099 -3.37846 0
M  V30 1300 H 127.252 2.90253 -3.22391 0
M  V30 1301 H 127.923 4.53453 -3.14777 0
M  V30 1302 H 130.399 3.94871 -1.3121 0
M  V30 1303 H 129.275 5.33193 -1.30372 0
M  V30 1304 H 129.536 4.4176 0.173226 0
M  V30 1305 N 128.595 0.856903 1.32268 0
M  V30 1306 C 130.006 0.515711 1.79436 0
M  V30 1307 C 130.357 -0.966586 1.70738 0
M  V30 1308 O 129.482 -1.75409 1.26731 0
M  V30 1309 C 130.077 0.929335 3.25805 0
M  V30 1310 C 128.636 0.640006 3.70919 0
M  V30 1311 C 127.783 1.12784 2.53328 0
M  V30 1312 H 130.734 1.04389 1.19535 0
M  V30 1313 H 130.755 0.246633 3.797 0
M  V30 1314 H 130.267 2.00821 3.32103 0
M  V30 1315 H 128.368 -0.428051 3.70133 0
M  V30 1316 H 128.481 1.20788 4.63624 0
M  V30 1317 H 126.845 0.548033 2.48734 0
M  V30 1318 H 127.628 2.21387 2.62379 0
M  V30 1319 N 130.073 -1.45103 0.615059 0
M  V30 1320 C 131.32 -2.02183 0.113179 0
M  V30 1321 C 131.648 -1.48249 -1.25906 0
M  V30 1322 O 130.903 -0.650265 -1.84581 0
M  V30 1323 C 131.202 -3.57386 0.0318797 0
M  V30 1324 C 130.868 -4.30505 1.34077 0
M  V30 1325 C 129.53 -4.50197 1.69929 0
M  V30 1326 C 131.882 -4.72238 2.20546 0
M  V30 1327 C 129.21 -5.08881 2.91988 0
M  V30 1328 C 131.562 -5.32272 3.41861 0
M  V30 1329 C 130.226 -5.50187 3.77956 0
M  V30 1330 H 129.496 -0.739842 0.0414151 0
M  V30 1331 H 132.143 -1.74073 0.798168 0
M  V30 1332 H 130.448 -3.84817 -0.736409 0
M  V30 1333 H 132.145 -3.99264 -0.372712 0
M  V30 1334 H 128.735 -4.15496 1.05173 0
M  V30 1335 H 132.919 -4.56751 1.94146 0
M  V30 1336 H 128.175 -5.20939 3.2005 0
M  V30 1337 H 132.349 -5.63563 4.09109 0
M  V30 1338 H 129.976 -5.95427 4.72622 0
M  V30 1339 N 131.551 -0.354651 -1.53558 0
M  V30 1340 C 132.799 0.237972 -2.00694 0
M  V30 1341 C 133.12 1.50173 -1.24391 0
M  V30 1342 O 132.39 1.92673 -0.354135 0
M  V30 1343 H 130.97 0.0909256 -0.741446 0
M  V30 1344 H 133.632 -0.478368 -1.88938 0
M  V30 1345 H 132.728 0.47264 -3.085 0
M  V30 1346 N 133.029 1.57378 -0.0835403 0
M  V30 1347 C 133.992 2.12252 0.864959 0
M  V30 1348 C 134.992 1.04916 1.21858 0
M  V30 1349 O 136.182 1.30853 1.14991 0
M  V30 1350 C 133.314 2.63358 2.16461 0
M  V30 1351 H 134.507 2.97371 0.388676 0
M  V30 1352 H 132.06 1.55423 0.165317 0
M  V30 1353 H 132.795 1.81727 2.686 0
M  V30 1354 H 132.58 3.41826 1.92087 0
M  V30 1355 H 134.07 3.05847 2.84337 0
M  V30 1356 N 134.507 -0.190092 1.56449 0
M  V30 1357 C 135.47 -1.21925 1.9408 0
M  V30 1358 C 136.47 -1.38176 0.822431 0
M  V30 1359 O 137.66 -1.35903 1.08977 0
M  V30 1360 C 134.792 -2.58773 2.21922 0
M  V30 1361 H 135.985 -0.897464 2.86157 0
M  V30 1362 H 133.538 -0.43181 1.50217 0
M  V30 1363 H 134.273 -2.95998 1.32499 0
M  V30 1364 H 134.058 -2.48348 3.03424 0
M  V30 1365 H 135.548 -3.32978 2.52022 0
M  V30 1366 N 135.985 -1.50799 -0.457987 0
M  V30 1367 C 136.935 -1.67003 -1.55222 0
M  V30 1368 C 137.919 -0.52434 -1.52117 0
M  V30 1369 O 139.111 -0.779345 -1.58919 0
M  V30 1370 C 136.24 -1.77956 -2.93576 0
M  V30 1371 C 135.326 -2.98243 -3.01516 0
M  V30 1372 N 135.717 -4.21732 -2.79241 0
M  V30 1373 C 134.015 -2.97072 -3.32662 0
M  V30 1374 C 134.716 -5.02817 -2.92489 0
M  V30 1375 N 133.692 -4.37038 -3.23262 0
M  V30 1376 H 137.494 -2.60163 -1.36721 0
M  V30 1377 H 135.008 -1.48163 -0.664952 0
M  V30 1378 H 137.005 -1.87671 -3.72271 0
M  V30 1379 H 135.665 -0.859634 -3.13114 0
M  V30 1380 H 136.676 -4.51016 -2.54567 0
M  V30 1381 H 133.353 -2.14631 -3.58106 0
M  V30 1382 H 134.743 -6.11054 -2.79396 0
M  V30 1383 N 137.463 0.71206 -1.40597 0
M  V30 1384 C 138.712 1.46754 -1.38369 0
M  V30 1385 C 139.025 1.95598 0.0097839 0
M  V30 1386 O 140.231 2.71059 0.154677 0
M  V30 1387 C 138.687 2.65289 -2.43207 0
M  V30 1388 C 138.295 2.23301 -3.88382 0
M  V30 1389 C 140.039 3.43008 -2.50091 0
M  V30 1390 C 137.946 3.38696 -4.84808 0
M  V30 1391 H 136.876 0.55118 -0.514506 0
M  V30 1392 H 139.527 0.774616 -1.66349 0
M  V30 1393 H 137.909 3.36769 -2.08332 0
M  V30 1394 H 139.083 1.59218 -4.32419 0
M  V30 1395 H 137.398 1.58618 -3.85006 0
M  V30 1396 H 139.995 4.28881 -3.1932 0
M  V30 1397 H 140.338 3.87065 -1.53253 0
M  V30 1398 H 140.871 2.78574 -2.83974 0
M  V30 1399 H 137.61 2.99668 -5.82992 0
M  V30 1400 H 137.13 4.01683 -4.45433 0
M  V30 1401 H 138.809 4.04712 -5.04794 0
M  V30 1402 N 138.941 1.26152 0.944643 0
M  V30 1403 C 139.871 1.09902 2.06019 0
M  V30 1404 C 140.852 0.00519538 1.70099 0
M  V30 1405 O 142.037 0.176583 1.93396 0
M  V30 1406 C 139.167 0.727562 3.39594 0
M  V30 1407 C 138.121 1.77274 3.89561 0
M  V30 1408 C 137.447 1.25569 5.19747 0
M  V30 1409 C 138.747 3.17357 4.14827 0
M  V30 1410 H 140.441 2.03217 2.19871 0
M  V30 1411 H 137.987 0.978452 1.05652 0
M  V30 1412 H 139.94 0.600777 4.17095 0
M  V30 1413 H 138.664 -0.241287 3.25707 0
M  V30 1414 H 137.323 1.88814 3.14237 0
M  V30 1415 H 136.971 0.276783 5.02238 0
M  V30 1416 H 136.671 1.95433 5.54148 0
M  V30 1417 H 138.195 1.1415 5.99835 0
M  V30 1418 H 139.609 3.08914 4.82954 0
M  V30 1419 H 138.006 3.84781 4.60504 0
M  V30 1420 H 139.076 3.63673 3.20734 0
M  V30 1421 N 140.419 -1.14872 1.07899 0
M  V30 1422 C 141.352 -2.18794 0.64841 0
M  V30 1423 C 142.33 -1.59065 -0.337189 0
M  V30 1424 O 143.514 -1.86936 -0.242284 0
M  V30 1425 C 140.641 -3.38667 -0.0470417 0
M  V30 1426 C 139.687 -4.16942 0.897884 0
M  V30 1427 S 140.52 -4.78615 2.40183 0
M  V30 1428 C 141.676 -6.0185 1.71834 0
M  V30 1429 H 141.909 -2.5498 1.52881 0
M  V30 1430 H 139.442 -1.25922 0.893484 0
M  V30 1431 H 141.4 -4.08113 -0.442027 0
M  V30 1432 H 140.061 -3.00814 -0.903861 0
M  V30 1433 H 139.254 -5.02726 0.358096 0
M  V30 1434 H 138.856 -3.53073 1.23352 0
M  V30 1435 H 141.148 -6.69574 1.03328 0
M  V30 1436 H 142.091 -6.60408 2.55473 0
M  V30 1437 H 142.499 -5.5173 1.19392 0
M  V30 1438 N 141.898 -0.863906 -1.31812 0
M  V30 1439 C 142.845 -0.313303 -2.28664 0
M  V30 1440 C 143.815 0.584868 -1.55462 0
M  V30 1441 O 145 0.517805 -1.83639 0
M  V30 1442 C 142.14 0.48441 -3.41683 0
M  V30 1443 C 141.253 -0.440594 -4.29747 0
M  V30 1444 C 140.388 0.370652 -5.29905 0
M  V30 1445 C 139.427 -0.551164 -6.09613 0
M  V30 1446 N 138.564 0.223462 -7.01744 0
M  V30 1447 H 143.404 -1.14444 -2.75148 0
M  V30 1448 H 140.941 -0.575769 -1.35364 0
M  V30 1449 H 142.899 0.962627 -4.05943 0
M  V30 1450 H 141.529 1.28029 -2.96325 0
M  V30 1451 H 140.581 -1.03724 -3.65986 0
M  V30 1452 H 141.893 -1.14767 -4.85417 0
M  V30 1453 H 141.047 0.911638 -5.99812 0
M  V30 1454 H 139.786 1.11105 -4.74876 0
M  V30 1455 H 138.791 -1.10396 -5.38603 0
M  V30 1456 H 140.016 -1.29032 -6.66729 0
M  V30 1457 H 137.962 0.946787 -6.49132 0
M  V30 1458 H 137.879 -0.424399 -7.54808 0
M  V30 1459 H 139.147 0.745876 -7.75923 0
M  V30 1460 N 143.376 1.44774 -0.622745 0
M  V30 1461 C 144.309 2.27792 0.136329 0
M  V30 1462 C 145.287 1.38041 0.859264 0
M  V30 1463 O 146.471 1.67478 0.86506 0
M  V30 1464 C 143.598 3.16776 1.19878 0
M  V30 1465 C 142.644 4.22575 0.57731 0
M  V30 1466 S 143.477 5.31825 -0.626294 0
M  V30 1467 C 144.633 6.24377 0.436378 0
M  V30 1468 H 144.866 2.91824 -0.567967 0
M  V30 1469 H 142.399 1.48838 -0.410677 0
M  V30 1470 H 144.357 3.68596 1.80686 0
M  V30 1471 H 143.018 2.5198 1.87523 0
M  V30 1472 H 142.211 4.84818 1.37721 0
M  V30 1473 H 141.813 3.73974 0.0440439 0
M  V30 1474 H 144.105 6.64689 1.31128 0
M  V30 1475 H 145.048 7.07941 -0.150271 0
M  V30 1476 H 145.456 5.59381 0.758513 0
M  V30 1477 N 144.854 0.36279 1.53368 0
M  V30 1478 C 146.1 -0.220702 2.02199 0
M  V30 1479 C 146.455 -1.46649 1.24546 0
M  V30 1480 O 145.748 -1.88737 0.32996 0
M  V30 1481 C 145.942 -0.568417 3.52851 0
M  V30 1482 C 145.771 0.642126 4.45092 0
M  V30 1483 C 144.541 1.15335 4.91961 0
M  V30 1484 C 146.739 1.50649 4.91741 0
M  V30 1485 N 144.721 2.3242 5.68202 0
M  V30 1486 C 146.092 2.52404 5.66297 0
M  V30 1487 C 148.147 1.52969 4.73819 0
M  V30 1488 C 146.85 3.56331 6.24836 0
M  V30 1489 C 148.876 2.55789 5.33222 0
M  V30 1490 C 148.238 3.56268 6.07662 0
M  V30 1491 H 144.337 -0.0435508 0.780786 0
M  V30 1492 H 146.921 0.506704 1.87991 0
M  V30 1493 H 145.092 -1.2649 3.67226 0
M  V30 1494 H 146.824 -1.13676 3.88407 0
M  V30 1495 H 143.579 0.718412 4.68119 0
M  V30 1496 H 144.003 2.91591 6.10986 0
M  V30 1497 H 148.645 0.766418 4.15795 0
M  V30 1498 H 146.363 4.33543 6.81958 0
M  V30 1499 H 149.949 2.58435 5.21251 0
M  V30 1500 H 148.829 4.34524 6.52808 0
M  V30 1501 N 146.332 -1.57332 0.0918853 0
M  V30 1502 C 147.56 -1.98574 -0.581048 0
M  V30 1503 C 147.975 -0.970903 -1.61923 0
M  V30 1504 O 147.332 0.0399054 -1.82456 0
M  V30 1505 C 147.383 -3.39872 -1.23164 0
M  V30 1506 O 147.104 -4.37469 -0.234989 0
M  V30 1507 C 148.605 -3.96099 -1.99049 0
M  V30 1508 H 145.825 -0.65261 -0.156018 0
M  V30 1509 H 148.369 -2.0379 0.170225 0
M  V30 1510 H 146.524 -3.35679 -1.93386 0
M  V30 1511 H 146.938 -5.19751 -0.70418 0
M  V30 1512 H 148.412 -4.97127 -2.39934 0
M  V30 1513 H 148.889 -3.3374 -2.85507 0
M  V30 1514 H 149.495 -4.03755 -1.3365 0
M  V30 1515 N 147.81 0.181792 -1.56548 0
M  V30 1516 C 149.057 0.900097 -1.81396 0
M  V30 1517 C 149.385 1.82695 -0.667281 0
M  V30 1518 O 148.64 1.92614 0.346146 0
M  V30 1519 C 148.939 1.73728 -3.12335 0
M  V30 1520 C 148.605 0.960255 -4.40556 0
M  V30 1521 C 147.267 0.745766 -4.75386 0
M  V30 1522 C 149.619 0.414477 -5.19549 0
M  V30 1523 C 146.947 -0.0257694 -5.86694 0
M  V30 1524 C 149.299 -0.343916 -6.31664 0
M  V30 1525 C 147.963 -0.569301 -6.65068 0
M  V30 1526 H 147.233 0.329369 -0.663775 0
M  V30 1527 H 149.88 0.165647 -1.90782 0
M  V30 1528 H 148.185 2.54081 -2.98245 0
M  V30 1529 H 149.882 2.29591 -3.28769 0
M  V30 1530 H 146.472 1.13746 -4.13231 0
M  V30 1531 H 150.656 0.567554 -4.93044 0
M  V30 1532 H 145.912 -0.210233 -6.11038 0
M  V30 1533 H 150.086 -0.774133 -6.92084 0
M  V30 1534 H 147.713 -1.16903 -7.51158 0
M  V30 1535 N 149.288 1.51039 0.449983 0
M  V30 1536 C 150.536 1.62759 1.19808 0
M  V30 1537 C 150.857 0.339981 1.92013 0
M  V30 1538 O 150.127 -0.643606 1.85026 0
M  V30 1539 H 148.707 0.599811 0.445237 0
M  V30 1540 H 151.369 1.87914 0.517138 0
M  V30 1541 H 150.465 2.44911 1.93455 0
M  V30 1542 N 150.766 -0.704594 1.40972 0
M  V30 1543 C 151.714 -1.83994 1.42299 0
M  V30 1544 C 152.708 -1.66684 0.302111 0
M  V30 1545 O 153.914 -1.73655 0.473697 0
M  V30 1546 H 150.289 -0.606171 0.44504 0
M  V30 1547 H 152.26 -1.79992 2.38003 0
M  V30 1548 C 151.009 -3.21946 1.31323 0
M  V30 1549 H 150.332 -3.35878 2.16855 0
M  V30 1550 H 151.772 -4.01491 1.36311 0
M  V30 1551 C 150.231 -3.36891 0.0245977 0
M  V30 1552 O 150.761 -3.90687 -0.934153 0
M  V30 1553 N 148.967 -2.90559 -0.0485243 0
M  V30 1554 H 148.514 -2.46968 0.732419 0
M  V30 1555 H 148.472 -3.00937 -0.910171 0
M  V30 1556 N 152.244 -1.26651 -0.937939 0
M  V30 1557 C 153.491 -1.12387 -1.6845 0
M  V30 1558 C 153.819 0.332208 -1.91642 0
M  V30 1559 O 153.074 1.2602 -1.49725 0
M  V30 1560 C 153.373 -1.84168 -3.06295 0
M  V30 1561 C 153.039 -3.34056 -3.02849 0
M  V30 1562 C 151.701 -3.74942 -3.01616 0
M  V30 1563 C 154.053 -4.29741 -2.9491 0
M  V30 1564 C 151.381 -5.09894 -2.90215 0
M  V30 1565 C 153.733 -5.64738 -2.8505 0
M  V30 1566 C 152.397 -6.0493 -2.82162 0
M  V30 1567 H 151.667 -0.411252 -0.616403 0
M  V30 1568 H 154.314 -1.57134 -1.09459 0
M  V30 1569 H 152.619 -1.319 -3.6893 0
M  V30 1570 H 154.316 -1.70569 -3.62915 0
M  V30 1571 H 150.906 -3.01534 -3.0459 0
M  V30 1572 H 155.09 -3.99133 -2.94969 0
M  V30 1573 H 150.346 -5.40194 -2.86358 0
M  V30 1574 H 154.52 -6.38561 -2.77872 0
M  V30 1575 H 152.147 -7.09457 -2.73084 0
M  V30 1576 N 153.722 1.14298 -1.08507 0
M  V30 1577 C 154.968 1.85854 -0.826438 0
M  V30 1578 C 155.323 1.81413 0.640878 0
M  V30 1579 O 154.616 1.23463 1.46518 0
M  V30 1580 C 154.81 3.33547 -1.28379 0
M  V30 1581 C 154.639 3.52369 -2.79403 0
M  V30 1582 C 153.409 3.67159 -3.47164 0
M  V30 1583 C 155.607 3.49203 -3.77573 0
M  V30 1584 N 153.589 3.74149 -4.86709 0
M  V30 1585 C 154.96 3.6245 -5.03021 0
M  V30 1586 C 157.015 3.32547 -3.70563 0
M  V30 1587 C 155.718 3.60761 -6.2229 0
M  V30 1588 C 157.744 3.32162 -4.89308 0
M  V30 1589 C 157.106 3.45949 -6.13595 0
M  V30 1590 H 153.205 0.696705 -0.355143 0
M  V30 1591 H 155.789 1.36981 -1.38362 0
M  V30 1592 H 153.96 3.81008 -0.754166 0
M  V30 1593 H 155.692 3.92867 -0.971469 0
M  V30 1594 H 152.447 3.68433 -2.9758 0
M  V30 1595 H 152.871 3.81359 -5.5937 0
M  V30 1596 H 157.513 3.20797 -2.75407 0
M  V30 1597 H 155.231 3.71286 -7.17755 0
M  V30 1598 H 158.817 3.20485 -4.85573 0
M  V30 1599 H 157.697 3.456 -7.03939 0
M  V30 1600 N 155.201 0.870884 1.31352 0
M  V30 1601 C 156.441 0.488783 1.9847 0
M  V30 1602 C 156.805 -0.941536 1.67329 0
M  V30 1603 O 158.006 -1.42903 2.27667 0
M  V30 1604 C 156.277 0.739688 3.49662 0
M  V30 1605 S 157.836 0.457582 4.36408 0
M  V30 1606 H 154.654 0.18242 0.6872 0
M  V30 1607 H 157.256 1.12711 1.59739 0
M  V30 1608 H 155.96 1.77944 3.69816 0
M  V30 1609 H 155.491 0.0883905 3.93301 0
M  V30 1610 H 157.506 -0.709752 4.91098 0
M  V30 1611 N 156.679 -1.44442 0.630414 0
M  V30 1612 C 157.589 -2.34476 -0.0761693 0
M  V30 1613 C 158.605 -1.52576 -0.836449 0
M  V30 1614 O 159.781 -1.85307 -0.788874 0
M  V30 1615 C 156.846 -3.30545 -1.04599 0
M  V30 1616 C 155.907 -4.28352 -0.28516 0
M  V30 1617 C 155.14 -5.19831 -1.20878 0
M  V30 1618 O 155.363 -5.15223 -2.44747 0
M  V30 1619 O 154.297 -5.97892 -0.693491 0
M  V30 1620 H 158.123 -2.96345 0.664324 0
M  V30 1621 H 155.708 -1.44203 0.39061 0
M  V30 1622 H 157.59 -3.89681 -1.60396 0
M  V30 1623 H 156.265 -2.7121 -1.76711 0
M  V30 1624 H 155.172 -3.72764 0.315837 0
M  V30 1625 H 156.505 -4.90605 0.395924 0
M  V30 1626 N 158.157 -0.370918 -1.53173 0
M  V30 1627 C 159.404 0.217102 -2.01333 0
M  V30 1628 C 159.732 1.48338 -1.25802 0
M  V30 1629 O 158.987 1.92698 -0.34146 0
M  V30 1630 C 159.286 0.549696 -3.53147 0
M  V30 1631 C 158.952 -0.622872 -4.46577 0
M  V30 1632 C 157.614 -0.944595 -4.71838 0
M  V30 1633 C 159.966 -1.40819 -5.01816 0
M  V30 1634 C 157.294 -2.05351 -5.49589 0
M  V30 1635 C 159.646 -2.50757 -5.80778 0
M  V30 1636 C 158.31 -2.83458 -6.04324 0
M  V30 1637 H 157.58 0.0794431 -0.736729 0
M  V30 1638 H 160.227 -0.504481 -1.84736 0
M  V30 1639 H 158.532 1.35237 -3.6772 0
M  V30 1640 H 160.229 1.017 -3.87889 0
M  V30 1641 H 156.819 -0.36209 -4.27068 0
M  V30 1642 H 161.003 -1.17289 -4.82242 0
M  V30 1643 H 156.259 -2.3108 -5.6605 0
M  V30 1644 H 160.433 -3.12022 -6.22588 0
M  V30 1645 H 158.06 -3.69508 -6.64355 0
M  V30 1646 N 159.635 1.57281 -0.100228 0
M  V30 1647 C 160.881 1.95626 0.556946 0
M  V30 1648 C 161.236 0.981655 1.65473 0
M  V30 1649 O 160.529 0.00849847 1.91598 0
M  V30 1650 C 160.723 3.38305 1.15259 0
M  V30 1651 C 160.552 4.49555 0.114035 0
M  V30 1652 C 159.322 5.0434 -0.311266 0
M  V30 1653 C 161.52 5.10051 -0.659768 0
M  V30 1654 N 159.502 5.99152 -1.33755 0
M  V30 1655 C 160.873 6.00628 -1.53774 0
M  V30 1656 C 162.928 4.92772 -0.712723 0
M  V30 1657 C 161.631 6.7578 -2.46403 0
M  V30 1658 C 163.657 5.6859 -1.62663 0
M  V30 1659 C 163.019 6.58838 -2.49222 0
M  V30 1660 H 159.118 0.7624 0.173982 0
M  V30 1661 H 161.702 1.93829 -0.183988 0
M  V30 1662 H 159.873 3.40786 1.86332 0
M  V30 1663 H 161.605 3.63817 1.77254 0
M  V30 1664 H 158.36 4.73537 0.0774812 0
M  V30 1665 H 158.784 6.5126 -1.84905 0
M  V30 1666 H 163.426 4.22761 -0.0576648 0
M  V30 1667 H 161.144 7.4505 -3.12931 0
M  V30 1668 H 164.73 5.57233 -1.67281 0
M  V30 1669 H 163.61 7.16479 -3.18791 0
M  V30 1670 N 161.113 -0.173488 1.56642 0
M  V30 1671 C 162.341 -0.906095 1.86004 0
M  V30 1672 C 162.756 -1.75921 0.685355 0
M  V30 1673 O 162.113 -1.79198 -0.345578 0
M  V30 1674 C 162.164 -1.78462 3.14378 0
M  V30 1675 O 161.885 -0.965914 4.27319 0
M  V30 1676 C 163.386 -2.62707 3.57071 0
M  V30 1677 H 160.606 -0.263341 0.617165 0
M  V30 1678 H 163.15 -0.174236 2.03756 0
M  V30 1679 H 161.305 -2.46984 2.98459 0
M  V30 1680 H 161.719 -1.56655 5.00559 0
M  V30 1681 H 163.193 -3.19969 4.49804 0
M  V30 1682 H 163.67 -3.37472 2.81086 0
M  V30 1683 H 164.276 -1.99521 3.75595 0
M  V30 1684 N 162.591 -1.51276 -0.441967 0
M  V30 1685 C 163.816 -1.67799 -1.21895 0
M  V30 1686 C 164.241 -0.372864 -1.84367 0
M  V30 1687 O 163.599 0.666501 -1.68604 0
M  V30 1688 C 163.647 -2.79199 -2.28211 0
M  V30 1689 O 162.751 -2.42479 -3.33583 0
M  V30 1690 H 162.092 -0.559649 -0.357336 0
M  V30 1691 H 164.622 -1.97815 -0.522522 0
M  V30 1692 H 164.632 -3.03146 -2.73069 0
M  V30 1693 H 163.307 -3.73906 -1.82118 0
M  V30 1694 H 161.884 -2.29087 -2.94234 0
M  V30 1695 N 164.069 0.697108 -1.41344 0
M  V30 1696 C 165.318 1.45279 -1.39918 0
M  V30 1697 C 165.631 1.95597 -0.0109624 0
M  V30 1698 O 166.837 2.71208 0.125919 0
M  V30 1699 C 165.293 2.62695 -2.46007 0
M  V30 1700 C 164.901 2.19169 -3.90729 0
M  V30 1701 C 166.645 3.40336 -2.53715 0
M  V30 1702 C 164.552 3.33535 -4.88373 0
M  V30 1703 H 163.482 0.545692 -0.520323 0
M  V30 1704 H 166.133 0.756929 -1.67161 0
M  V30 1705 H 164.515 3.34541 -2.11892 0
M  V30 1706 H 165.689 1.54623 -4.34083 0
M  V30 1707 H 164.004 1.54525 -3.86666 0
M  V30 1708 H 166.601 4.2547 -3.2385 0
M  V30 1709 H 166.944 3.85418 -1.5735 0
M  V30 1710 H 167.477 2.75546 -2.86913 0
M  V30 1711 H 164.216 2.93468 -5.86137 0
M  V30 1712 H 163.736 3.96936 -4.49668 0
M  V30 1713 H 165.415 3.99335 -5.09059 0
M  V30 1714 N 165.547 1.27147 0.931209 0
M  V30 1715 C 166.824 1.0401 1.65654 0
M  V30 1716 C 167.204 -0.426297 2.06751 0
M  V30 1717 O 166.552 -1.40879 1.79904 0
M  V30 1718 C 166.762 1.99834 2.86125 0
M  V30 1719 C 168.11 2.29007 3.57549 0
M  V30 1720 O 169.134 1.97779 2.96246 0
M  V30 1721 O 167.993 2.82222 4.67989 0
M  V30 1722 H 165.087 0.396239 0.725895 0
M  V30 1723 H 167.633 1.38397 0.982056 0
M  V30 1724 H 166.405 2.98744 2.52721 0
M  V30 1725 H 166.028 1.65987 3.61295 0
M  V30 1726 N 167.025 -1.13721 1.09112 0
M  V30 1727 C 168.271 -1.85198 0.826414 0
M  V30 1728 C 168.604 -1.83129 -0.646319 0
M  V30 1729 O 167.879 -1.2671 -1.47563 0
M  V30 1730 C 168.162 -3.33507 1.35812 0
M  V30 1731 C 168.015 -3.44108 2.89672 0
M  V30 1732 C 169.334 -4.28838 0.989256 0
M  V30 1733 H 166.453 -0.67243 0.301675 0
M  V30 1734 H 169.095 -1.33499 1.35197 0
M  V30 1735 H 167.245 -3.77666 0.911082 0
M  V30 1736 H 168.917 -3.08684 3.428 0
M  V30 1737 H 167.16 -2.85087 3.26967 0
M  V30 1738 H 167.831 -4.48388 3.21951 0
M  V30 1739 H 170.307 -3.92734 1.37475 0
M  V30 1740 H 169.183 -5.31051 1.38838 0
M  V30 1741 H 169.444 -4.4198 -0.102924 0
M  V30 1742 N 168.503 -0.877838 -1.30888 0
M  V30 1743 C 169.433 -0.35534 -2.3078 0
M  V30 1744 C 170.414 0.557994 -1.60687 0
M  V30 1745 O 171.599 0.473355 -1.88343 0
M  V30 1746 C 168.729 0.437221 -3.44537 0
M  V30 1747 C 167.683 -0.383715 -4.26276 0
M  V30 1748 C 167.009 0.535014 -5.32017 0
M  V30 1749 C 168.309 -1.62201 -4.96476 0
M  V30 1750 H 170.003 -1.19007 -2.74732 0
M  V30 1751 H 167.549 -0.573698 -1.32078 0
M  V30 1752 H 169.502 0.813334 -4.13477 0
M  V30 1753 H 168.226 1.30553 -2.99372 0
M  V30 1754 H 166.885 -0.741874 -3.59015 0
M  V30 1755 H 166.533 1.40083 -4.831 0
M  V30 1756 H 166.233 -0.0104211 -5.87599 0
M  V30 1757 H 167.757 0.907799 -6.03814 0
M  V30 1758 H 169.171 -1.31689 -5.5797 0
M  V30 1759 H 167.568 -2.10711 -5.61891 0
M  V30 1760 H 168.638 -2.37044 -4.23011 0
M  V30 1761 N 169.982 1.44106 -0.638065 0
M  V30 1762 C 171.222 2.03858 -0.148733 0
M  V30 1763 C 171.586 1.49153 1.20903 0
M  V30 1764 O 172.787 2.00452 1.79088 0
M  V30 1765 C 171.058 3.57117 -0.142314 0
M  V30 1766 S 172.617 4.37897 0.281385 0
M  V30 1767 H 169.435 0.708069 -0.0644912 0
M  V30 1768 H 172.037 1.7639 -0.843009 0
M  V30 1769 H 170.741 3.94436 -1.13349 0
M  V30 1770 H 170.272 3.89205 0.572988 0
M  V30 1771 H 172.287 4.72218 1.52395 0
M  V30 1772 N 171.46 0.379036 1.52974 0
M  V30 1773 C 172.706 -0.206727 2.01744 0
M  V30 1774 C 173.039 -1.47314 1.26539 0
M  V30 1775 O 172.314 -1.91084 0.362903 0
M  V30 1776 C 172.597 -0.485066 3.56818 0
M  V30 1777 C 172.45 0.795919 4.42702 0
M  V30 1778 C 173.769 -1.28003 4.21074 0
M  V30 1779 H 170.888 -0.0736607 0.73331 0
M  V30 1780 H 173.53 0.506581 1.83122 0
M  V30 1781 H 171.68 -1.09272 3.72816 0
M  V30 1782 H 173.352 1.43307 4.38476 0
M  V30 1783 H 171.595 1.41344 4.10127 0
M  V30 1784 H 172.266 0.555947 5.49193 0
M  V30 1785 H 174.742 -0.765867 4.08991 0
M  V30 1786 H 173.618 -1.44352 5.29579 0
M  V30 1787 H 173.879 -2.29236 3.78026 0
M  V30 1788 N 172.938 -1.57226 0.108567 0
M  V30 1789 C 174.166 -1.99179 -0.559954 0
M  V30 1790 C 174.581 -0.988022 -1.60884 0
M  V30 1791 O 173.938 0.0205512 -1.82488 0
M  V30 1792 C 173.989 -3.41159 -1.19552 0
M  V30 1793 O 173.71 -4.37694 -0.188577 0
M  V30 1794 C 175.211 -3.98188 -1.94837 0
M  V30 1795 H 172.431 -0.654228 -0.149088 0
M  V30 1796 H 174.975 -2.03598 0.19183 0
M  V30 1797 H 173.13 -3.37711 -1.89815 0
M  V30 1798 H 173.544 -5.20469 -0.649014 0
M  V30 1799 H 175.018 -4.99644 -2.34648 0
M  V30 1800 H 175.495 -3.3675 -2.81951 0
M  V30 1801 H 176.101 -4.0515 -1.2936 0
M  V30 1802 N 174.416 0.165178 -1.56732 0
M  V30 1803 C 175.379 1.18822 -1.95995 0
M  V30 1804 C 176.379 1.3685 -0.84431 0
M  V30 1805 O 177.569 1.34152 -1.11126 0
M  V30 1806 C 174.701 2.5521 -2.26011 0
M  V30 1807 H 175.894 0.851825 -2.87548 0
M  V30 1808 H 173.447 0.407857 -1.50885 0
M  V30 1809 H 174.182 2.93852 -1.37191 0
M  V30 1810 H 173.967 2.43489 -3.07336 0
M  V30 1811 H 175.457 3.28927 -2.57288 0
M  V30 1812 N 175.894 1.51508 0.433938 0
M  V30 1813 C 177.119 1.68443 1.21003 0
M  V30 1814 C 177.544 0.382636 1.84167 0
M  V30 1815 O 176.902 -0.65755 1.68956 0
M  V30 1816 C 176.95 2.80405 2.26727 0
M  V30 1817 O 176.054 2.44245 3.32292 0
M  V30 1818 H 175.395 0.561536 0.354363 0
M  V30 1819 H 177.925 1.9809 0.512024 0
M  V30 1820 H 177.935 3.0459 2.71457 0
M  V30 1821 H 176.61 3.74867 1.80132 0
M  V30 1822 H 175.187 2.30644 2.93015 0
M  V30 1823 N 177.372 -0.689602 1.41712 0
M  V30 1824 C 178.621 -1.44534 1.40686 0
M  V30 1825 C 178.934 -1.95588 0.0213352 0
M  V30 1826 O 180.14 -2.71271 -0.111534 0
M  V30 1827 C 178.596 -2.61387 2.47396 0
M  V30 1828 C 178.204 -2.17094 3.91885 0
M  V30 1829 C 179.948 -3.38986 2.55517 0
M  V30 1830 C 177.855 -3.3094 4.90135 0
M  V30 1831 H 176.785 -0.542925 0.52321 0
M  V30 1832 H 179.436 -0.748054 1.6756 0
M  V30 1833 H 177.818 -3.33412 2.13664 0
M  V30 1834 H 178.992 -1.52318 4.34897 0
M  V30 1835 H 177.307 -1.52473 3.8748 0
M  V30 1836 H 179.904 -4.23747 3.26102 0
M  V30 1837 H 180.247 -3.84578 1.59391 0
M  V30 1838 H 180.78 -2.74021 2.8837 0
M  V30 1839 H 177.519 -2.90355 5.87685 0
M  V30 1840 H 177.039 -3.94546 4.51767 0
M  V30 1841 H 178.718 -3.9663 5.11169 0
M  V30 1842 N 178.85 -1.27639 -0.924453 0
M  V30 1843 C 179.76 -1.12466 -2.05885 0
M  V30 1844 C 180.776 -0.053869 -1.73917 0
M  V30 1845 O 181.952 -0.261012 -1.99702 0
M  V30 1846 C 179.017 -0.776768 -3.37886 0
M  V30 1847 C 178.078 -1.92878 -3.83532 0
M  V30 1848 C 177.311 -1.59739 -5.09234 0
M  V30 1849 O 177.534 -0.506782 -5.68144 0
M  V30 1850 O 176.468 -2.43761 -5.50331 0
M  V30 1851 H 180.294 -2.07671 -2.21599 0
M  V30 1852 H 177.879 -1.06857 -1.04413 0
M  V30 1853 H 179.761 -0.596229 -4.17161 0
M  V30 1854 H 178.436 0.145732 -3.23372 0
M  V30 1855 H 177.343 -2.1644 -3.0513 0
M  V30 1856 H 178.676 -2.8316 -4.02593 0
M  V30 1857 N 180.328 1.1314 -1.09713 0
M  V30 1858 C 181.556 1.88321 -0.856898 0
M  V30 1859 C 181.971 1.79276 0.592073 0
M  V30 1860 O 181.328 1.16142 1.40774 0
M  V30 1861 C 181.379 3.37812 -1.28706 0
M  V30 1862 O 181.1 3.46627 -2.67921 0
M  V30 1863 C 182.601 4.29952 -1.07964 0
M  V30 1864 H 179.821 0.596094 -0.308079 0
M  V30 1865 H 182.365 1.43205 -1.45988 0
M  V30 1866 H 180.52 3.805 -0.727912 0
M  V30 1867 H 180.934 4.39579 -2.8613 0
M  V30 1868 H 182.408 5.33159 -1.42986 0
M  V30 1869 H 182.885 4.39196 -0.0176577 0
M  V30 1870 H 183.491 3.93036 -1.62489 0
M  V30 1871 N 181.806 0.884767 1.30421 0
M  V30 1872 C 182.736 0.367574 2.30589 0
M  V30 1873 C 183.717 -0.549464 1.60981 0
M  V30 1874 O 184.902 -0.46336 1.88591 0
M  V30 1875 C 182.032 -0.418944 3.44764 0
M  V30 1876 C 180.986 0.406316 4.26067 0
M  V30 1877 C 180.312 -0.506793 5.32293 0
M  V30 1878 C 181.612 1.64832 4.95608 0
M  V30 1879 H 183.306 1.20462 2.74097 0
M  V30 1880 H 180.852 0.580695 1.31772 0
M  V30 1881 H 182.805 -0.791395 4.13902 0
M  V30 1882 H 181.529 -1.28964 3.0006 0
M  V30 1883 H 180.188 0.760903 3.58617 0
M  V30 1884 H 179.836 -1.37519 4.83836 0
M  V30 1885 H 179.536 0.0415828 5.87585 0
M  V30 1886 H 181.06 -0.875764 6.04287 0
M  V30 1887 H 182.474 1.34646 5.57264 0
M  V30 1888 H 180.871 2.13688 5.60765 0
M  V30 1889 H 181.941 2.39284 4.21748 0
M  V30 1890 N 183.284 -1.43765 0.645699 0
M  V30 1891 C 184.524 -2.03776 0.159542 0
M  V30 1892 C 184.888 -1.49792 -1.2011 0
M  V30 1893 O 186.089 -2.01398 -1.78023 0
M  V30 1894 C 184.36 -3.57036 0.161251 0
M  V30 1895 S 185.919 -4.3804 -0.258159 0
M  V30 1896 H 182.737 -0.707717 0.0682454 0
M  V30 1897 H 185.339 -1.75941 0.852352 0
M  V30 1898 H 184.043 -3.9383 1.15439 0
M  V30 1899 H 183.574 -3.89503 -0.552339 0
M  V30 1900 H 185.589 -4.7302 -1.49889 0
M  V30 1901 N 184.763 -0.387143 -1.52771 0
M  V30 1902 C 186.009 0.196025 -2.0185 0
M  V30 1903 C 186.342 1.46641 -1.27319 0
M  V30 1904 O 185.617 1.90889 -0.373032 0
M  V30 1905 C 185.9 0.466136 -3.5707 0
M  V30 1906 C 185.753 -0.819385 -4.42274 0
M  V30 1907 C 187.072 1.25768 -4.21747 0
M  V30 1908 H 184.191 0.0697708 -0.73369 0
M  V30 1909 H 186.833 -0.516286 -1.82851 0
M  V30 1910 H 184.983 1.07293 -3.7339 0
M  V30 1911 H 186.655 -1.4563 -4.37709 0
M  V30 1912 H 184.898 -1.43517 -4.09372 0
M  V30 1913 H 185.569 -0.585065 -5.48891 0
M  V30 1914 H 188.045 0.744167 -4.09391 0
M  V30 1915 H 186.921 1.41541 -5.30337 0
M  V30 1916 H 187.182 2.27228 -3.79236 0
M  V30 1917 N 186.241 1.57166 -0.116904 0
M  V30 1918 C 187.49 1.94298 0.541407 0
M  V30 1919 C 187.803 1.00236 1.67964 0
M  V30 1920 O 189.009 1.26826 2.40057 0
M  V30 1921 C 187.465 3.45306 1.01449 0
M  V30 1922 C 187.073 4.47899 -0.0951738 0
M  V30 1923 C 188.817 3.91361 1.6443 0
M  V30 1924 C 186.724 5.90083 0.394491 0
M  V30 1925 H 185.654 0.725308 0.206019 0
M  V30 1926 H 188.305 1.82446 -0.196419 0
M  V30 1927 H 186.687 3.52385 1.80667 0
M  V30 1928 H 187.861 4.52486 -0.871374 0
M  V30 1929 H 186.176 4.11583 -0.631505 0
M  V30 1930 H 188.773 4.95004 2.02176 0
M  V30 1931 H 189.116 3.3122 2.52189 0
M  V30 1932 H 189.649 3.87073 0.917559 0
M  V30 1933 H 186.388 6.53974 -0.447004 0
M  V30 1934 H 185.908 5.88921 1.13722 0
M  V30 1935 H 187.587 6.41307 0.856399 0
M  V30 1936 N 187.719 -0.156864 1.56817 0
M  V30 1937 C 188.682 -1.17781 1.96622 0
M  V30 1938 C 189.682 -1.36401 0.851555 0
M  V30 1939 O 190.872 -1.33561 1.11836 0
M  V30 1940 C 188.004 -2.54008 2.27361 0
M  V30 1941 H 189.197 -0.836564 2.87996 0
M  V30 1942 H 186.75 -0.39985 1.51099 0
M  V30 1943 H 187.485 -2.9312 1.38748 0
M  V30 1944 H 187.27 -2.41856 3.08623 0
M  V30 1945 H 188.76 -3.27558 2.59029 0
M  V30 1946 N 189.197 -1.51736 -0.425897 0
M  V30 1947 C 190.443 -1.65214 -1.1761 0
M  V30 1948 C 190.776 -0.372778 -1.90589 0
M  V30 1949 O 190.051 0.628139 -1.84078 0
M  V30 1950 C 190.334 -2.86312 -2.18398 0
M  V30 1951 C 190.187 -4.24254 -1.49426 0
M  V30 1952 C 191.506 -3.02925 -3.19256 0
M  V30 1953 H 188.625 -0.601263 -0.426206 0
M  V30 1954 H 191.267 -1.8425 -0.463882 0
M  V30 1955 H 189.417 -2.70213 -2.79137 0
M  V30 1956 H 191.089 -4.52046 -0.919362 0
M  V30 1957 H 189.332 -4.26426 -0.796432 0
M  V30 1958 H 190.003 -5.05001 -2.22885 0
M  V30 1959 H 192.479 -3.1781 -2.68581 0
M  V30 1960 H 191.355 -3.89199 -3.8706 0
M  V30 1961 H 191.616 -2.15497 -3.86023 0
M  V30 1962 N 190.675 0.682077 -1.42076 0
M  V30 1963 C 191.952 1.43755 -1.32642 0
M  V30 1964 C 192.332 2.11063 0.0396611 0
M  V30 1965 O 191.68 2.02701 1.05474 0
M  V30 1966 C 191.89 2.44596 -2.48946 0
M  V30 1967 C 193.238 3.09454 -2.9073 0
M  V30 1968 O 194.262 2.54922 -2.48783 0
M  V30 1969 O 193.121 4.08253 -3.63307 0
M  V30 1970 H 190.215 0.640857 -0.522715 0
M  V30 1971 H 192.761 0.711415 -1.54068 0
M  V30 1972 H 191.533 1.93609 -3.40046 0
M  V30 1973 H 191.156 3.24701 -2.29467 0
M  V30 1974 N 192.153 1.28127 0.917671 0
M  V30 1975 C 193.569 1.05749 1.19538 0
M  V30 1976 C 193.769 -0.202633 2.00479 0
M  V30 1977 O 192.825 -0.905382 2.3571 0
M  V30 1978 C 194.138 2.30273 1.93378 0
M  V30 1979 C 195.686 2.35412 2.06277 0
M  V30 1980 C 196.161 3.59692 2.83524 0
M  V30 1981 N 197.652 3.60309 2.91087 0
M  V30 1982 C 198.387 4.53147 3.51348 0
M  V30 1983 N 197.883 5.563 4.12919 0
M  V30 1984 N 199.676 4.40751 3.48849 0
M  V30 1985 H 191.827 2.09024 0.377184 0
M  V30 1986 H 194.09 0.919798 0.22951 0
M  V30 1987 H 193.796 3.22055 1.41328 0
M  V30 1988 H 193.67 2.36378 2.93947 0
M  V30 1989 H 196.057 1.4413 2.57508 0
M  V30 1990 H 196.138 2.33304 1.04895 0
M  V30 1991 H 195.782 4.51316 2.32973 0
M  V30 1992 H 195.712 3.59054 3.85211 0
M  V30 1993 H 198.203 2.85714 2.47338 0
M  V30 1994 H 198.516 6.2329 4.56869 0
M  V30 1995 H 196.861 5.60131 4.11435 0
M  V30 1996 H 200.052 3.59367 2.99955 0
M  V30 1997 H 200.225 5.13291 3.9552 0
M  V30 1998 N 193.631 -1.12557 1.10312 0
M  V30 1999 C 194.861 -1.87592 0.865617 0
M  V30 2000 C 195.269 -1.79851 -0.587389 0
M  V30 2001 O 194.612 -1.16949 -1.41664 0
M  V30 2002 C 194.674 -3.37665 1.23381 0
M  V30 2003 C 194.338 -3.69181 2.69359 0
M  V30 2004 C 195.335 -3.67652 3.67597 0
M  V30 2005 C 193.02 -3.98555 3.05711 0
M  V30 2006 C 195.014 -3.95053 5.00212 0
M  V30 2007 C 192.701 -4.25616 4.38514 0
M  V30 2008 C 193.699 -4.23851 5.35574 0
M  V30 2009 O 193.387 -4.50242 6.65986 0
M  V30 2010 H 193.119 -0.600442 0.310557 0
M  V30 2011 H 195.673 -1.4335 1.47105 0
M  V30 2012 H 193.903 -3.82454 0.571467 0
M  V30 2013 H 195.592 -3.94041 0.973994 0
M  V30 2014 H 196.358 -3.45024 3.40857 0
M  V30 2015 H 192.237 -3.99071 2.30789 0
M  V30 2016 H 195.781 -3.93591 5.75962 0
M  V30 2017 H 191.678 -4.47718 4.64994 0
M  V30 2018 H 192.446 -4.67867 6.71597 0
M  V30 2019 N 195.109 -0.891671 -1.2995 0
M  V30 2020 C 196.356 -0.513501 -1.95881 0
M  V30 2021 C 196.684 0.938655 -1.70351 0
M  V30 2022 O 195.939 1.67936 -1.00478 0
M  V30 2023 C 196.238 -0.742868 -3.49594 0
M  V30 2024 C 195.904 -2.17114 -3.95186 0
M  V30 2025 C 194.566 -2.56169 -4.07346 0
M  V30 2026 C 196.918 -3.10162 -4.18866 0
M  V30 2027 C 194.246 -3.87469 -4.4055 0
M  V30 2028 C 196.598 -4.41001 -4.53542 0
M  V30 2029 C 195.262 -4.79941 -4.63911 0
M  V30 2030 H 194.532 -0.187903 -0.71678 0
M  V30 2031 H 197.179 -1.1288 -1.54694 0
M  V30 2032 H 195.484 -0.044586 -3.91775 0
M  V30 2033 H 197.181 -0.429767 -3.9869 0
M  V30 2034 H 193.771 -1.85801 -3.86233 0
M  V30 2035 H 197.955 -2.81206 -4.08946 0
M  V30 2036 H 193.211 -4.17371 -4.46779 0
M  V30 2037 H 197.385 -5.13133 -4.70815 0
M  V30 2038 H 195.012 -5.81719 -4.89395 0
M  V30 2039 N 196.587 1.43421 -0.653314 0
M  V30 2040 C 197.55 2.29182 0.0287951 0
M  V30 2041 C 198.55 1.42213 0.750465 0
M  V30 2042 O 199.74 1.63843 0.591701 0
M  V30 2043 C 196.872 3.24278 1.05151 0
M  V30 2044 H 198.065 2.90985 -0.725786 0
M  V30 2045 H 195.618 1.50702 -0.414545 0
M  V30 2046 H 196.353 2.6737 1.83532 0
M  V30 2047 H 196.138 3.88396 0.537687 0
M  V30 2048 H 197.628 3.88647 1.52786 0
M  V30 2049 N 198.065 0.39524 1.52563 0
M  V30 2050 C 199.314 -0.186321 2.00838 0
M  V30 2051 C 199.627 -1.47402 1.28577 0
M  V30 2052 O 200.833 -2.13599 1.67593 0
M  V30 2053 C 199.289 -0.382595 3.57861 0
M  V30 2054 C 198.897 0.892202 4.39026 0
M  V30 2055 C 200.641 -0.9202 4.14406 0
M  V30 2056 C 198.548 0.66388 5.87662 0
M  V30 2057 H 197.478 -0.0734041 0.750418 0
M  V30 2058 H 200.129 0.518552 1.76021 0
M  V30 2059 H 198.511 -1.14946 3.7895 0
M  V30 2060 H 199.685 1.66414 4.29701 0
M  V30 2061 H 198 1.35519 3.9373 0
M  V30 2062 H 200.597 -1.10683 5.23119 0
M  V30 2063 H 200.94 -1.89096 3.70875 0
M  V30 2064 H 201.473 -0.212751 3.97231 0
M  V30 2065 H 198.212 1.6058 6.35527 0
M  V30 2066 H 197.732 -0.0690193 5.9976 0
M  V30 2067 H 199.411 0.300699 6.46301 0
M  V30 2068 N 199.544 -1.57102 0.125237 0
M  V30 2069 C 200.772 -1.99761 -0.538797 0
M  V30 2070 C 201.187 -1.00503 -1.59827 0
M  V30 2071 O 200.544 0.00119474 -1.825 0
M  V30 2072 C 200.595 -3.42408 -1.15927 0
M  V30 2073 O 200.316 -4.37869 -0.142143 0
M  V30 2074 C 201.817 -4.00232 -1.90602 0
M  V30 2075 H 199.037 -0.655772 -0.14214 0
M  V30 2076 H 201.581 -2.03383 0.213413 0
M  V30 2077 H 199.736 -3.39706 -1.86223 0
M  V30 2078 H 200.15 -5.21128 -0.593775 0
M  V30 2079 H 201.624 -5.02105 -2.29335 0
M  V30 2080 H 202.101 -3.39721 -2.78363 0
M  V30 2081 H 202.707 -4.06499 -1.25055 0
M  V30 2082 N 201.022 0.148545 -1.56898 0
M  V30 2083 C 202.247 0.880385 -1.87787 0
M  V30 2084 C 202.672 1.74018 -0.714093 0
M  V30 2085 O 202.03 1.78153 0.336343 0
M  V30 2086 C 202.078 1.71422 -3.17249 0
M  V30 2087 O 201.182 2.8183 -3.01074 0
M  V30 2088 H 200.523 0.245301 -0.617028 0
M  V30 2089 H 203.053 0.139826 -2.04122 0
M  V30 2090 H 203.063 2.10954 -3.49231 0
M  V30 2091 H 201.738 1.08284 -4.01556 0
M  V30 2092 H 200.315 2.45715 -2.80497 0
M  V30 2093 N 202.5 1.5196 0.417844 0
M  V30 2094 C 203.911 1.57851 0.997 0
M  V30 2095 C 204.262 0.413714 1.91789 0
M  V30 2096 O 203.387 -0.467057 2.113 0
M  V30 2097 C 203.982 2.86085 1.81496 0
M  V30 2098 C 202.541 2.94483 2.34428 0
M  V30 2099 C 201.688 2.52707 1.14169 0
M  V30 2100 H 204.639 1.57455 0.198392 0
M  V30 2101 H 204.66 2.70947 2.67148 0
M  V30 2102 H 204.172 3.70842 1.14446 0
M  V30 2103 H 202.273 2.142 3.04875 0
M  V30 2104 H 202.386 3.98546 2.65891 0
M  V30 2105 H 200.75 2.06353 1.49301 0
M  V30 2106 H 201.533 3.39828 0.486999 0
M  V30 2107 N 203.978 -0.674533 1.42435 0
M  V30 2108 C 205.225 -1.43459 1.42919 0
M  V30 2109 C 205.553 -1.94446 0.0457312 0
M  V30 2110 O 204.808 -1.7132 -0.94593 0
M  V30 2111 C 205.107 -2.64767 2.40069 0
M  V30 2112 C 204.773 -2.3232 3.86443 0
M  V30 2113 C 203.435 -2.23182 4.26314 0
M  V30 2114 C 205.787 -2.05977 4.78773 0
M  V30 2115 C 203.115 -1.85827 5.56494 0
M  V30 2116 C 205.467 -1.70125 6.09295 0
M  V30 2117 C 204.131 -1.59498 6.48164 0
M  V30 2118 H 203.401 -0.524952 0.522978 0
M  V30 2119 H 206.048 -0.769097 1.75377 0
M  V30 2120 H 204.353 -3.36349 2.00939 0
M  V30 2121 H 206.05 -3.22949 2.37707 0
M  V30 2122 H 202.64 -2.40334 3.54877 0
M  V30 2123 H 206.824 -2.11969 4.48757 0
M  V30 2124 H 202.08 -1.76168 5.8547 0
M  V30 2125 H 206.254 -1.48767 6.80324 0
M  V30 2126 H 203.881 -1.30322 7.48946 0
M  V30 2127 N 205.456 -1.28612 -0.910864 0
M  V30 2128 C 206.403 -1.12786 -2.01365 0
M  V30 2129 C 207.373 -0.024201 -1.66082 0
M  V30 2130 O 208.558 -0.189667 -1.89855 0
M  V30 2131 C 205.698 -0.798743 -3.35729 0
M  V30 2132 C 204.811 -1.98173 -3.83864 0
M  V30 2133 C 203.946 -1.59298 -5.06752 0
M  V30 2134 C 202.985 -2.74245 -5.47226 0
M  V30 2135 N 202.122 -2.35842 -6.61304 0
M  V30 2136 H 206.962 -2.07142 -2.14234 0
M  V30 2137 H 204.499 -1.03093 -1.0493 0
M  V30 2138 H 206.457 -0.588662 -4.13026 0
M  V30 2139 H 205.087 0.10789 -3.2262 0
M  V30 2140 H 204.139 -2.30386 -3.02699 0
M  V30 2141 H 205.451 -2.84343 -4.09818 0
M  V30 2142 H 204.605 -1.34513 -5.916 0
M  V30 2143 H 203.344 -0.702618 -4.82612 0
M  V30 2144 H 202.349 -2.99725 -4.60918 0
M  V30 2145 H 203.574 -3.63928 -5.73353 0
M  V30 2146 H 201.52 -1.49279 -6.38789 0
M  V30 2147 H 201.437 -3.15546 -6.86998 0
M  V30 2148 H 202.705 -2.14348 -7.4945 0
M  V30 2149 N 206.934 1.1197 -1.10907 0
M  V30 2150 C 208.164 1.8713 -0.875553 0
M  V30 2151 C 208.572 1.8016 0.577843 0
M  V30 2152 O 207.915 1.17699 1.41042 0
M  V30 2153 C 207.977 3.37005 -1.2517 0
M  V30 2154 C 207.641 3.67748 -2.71313 0
M  V30 2155 C 208.638 3.65698 -3.69542 0
M  V30 2156 C 206.323 3.96928 -3.07821 0
M  V30 2157 C 208.317 3.92395 -5.023 0
M  V30 2158 C 206.004 4.23284 -4.40765 0
M  V30 2159 C 207.002 4.21005 -5.37814 0
M  V30 2160 O 206.69 4.46704 -6.68364 0
M  V30 2161 H 206.422 0.598786 -0.313737 0
M  V30 2162 H 208.976 1.42568 -1.47863 0
M  V30 2163 H 207.206 3.82146 -0.591741 0
M  V30 2164 H 208.895 3.93519 -0.994877 0
M  V30 2165 H 209.661 3.43211 -3.42682 0
M  V30 2166 H 205.54 3.97841 -2.32902 0
M  V30 2167 H 209.084 3.90531 -5.78041 0
M  V30 2168 H 204.981 4.45246 -4.67361 0
M  V30 2169 H 205.749 4.64299 -6.74069 0
M  V30 2170 N 208.412 0.89855 1.29475 0
M  V30 2171 C 209.344 0.332726 2.26772 0
M  V30 2172 C 210.357 -0.520323 1.54261 0
M  V30 2173 O 211.546 -0.337668 1.75277 0
M  V30 2174 C 208.646 -0.544334 3.345 0
M  V30 2175 C 207.819 0.282728 4.36485 0
M  V30 2176 C 206.878 -0.526982 5.23555 0
M  V30 2177 O 205.904 0.0551165 5.69173 0
M  V30 2178 N 207.106 -1.83331 5.5079 0
M  V30 2179 H 209.871 1.16897 2.75962 0
M  V30 2180 H 207.432 0.762919 1.42798 0
M  V30 2181 H 209.424 -1.09239 3.89678 0
M  V30 2182 H 207.994 -1.28127 2.85136 0
M  V30 2183 H 207.214 1.01221 3.80983 0
M  V30 2184 H 208.502 0.84918 5.01664 0
M  V30 2185 H 207.9 -2.32898 5.15534 0
M  V30 2186 H 206.457 -2.32852 6.08788 0
M  V30 2187 N 209.89 -1.43072 0.660911 0
M  V30 2188 C 211.115 -2.06584 0.183805 0
M  V30 2189 C 211.54 -1.49257 -1.14472 0
M  V30 2190 O 210.898 -0.605528 -1.70889 0
M  V30 2191 C 210.946 -3.60418 0.114434 0
M  V30 2192 O 210.05 -4.01981 -0.921137 0
M  V30 2193 H 209.391 -0.656669 0.0983994 0
M  V30 2194 H 211.921 -1.83447 0.906006 0
M  V30 2195 H 211.931 -4.07946 -0.0663394 0
M  V30 2196 H 210.606 -4.01519 1.08422 0
M  V30 2197 H 209.183 -3.66029 -0.71253 0
M  V30 2198 N 211.368 -0.403325 -1.52352 0
M  V30 2199 C 212.298 0.416205 -2.29761 0
M  V30 2200 C 213.279 1.05123 -1.33728 0
M  V30 2201 O 214.464 1.06134 -1.62632 0
M  V30 2202 C 211.594 1.53624 -3.11475 0
M  V30 2203 C 210.548 1.02653 -4.15507 0
M  V30 2204 C 209.874 2.23971 -4.85532 0
M  V30 2205 C 211.174 0.08463 -5.22231 0
M  V30 2206 H 212.868 -0.229701 -2.98518 0
M  V30 2207 H 210.414 -0.111913 -1.43564 0
M  V30 2208 H 212.367 2.1165 -3.64393 0
M  V30 2209 H 211.091 2.20994 -2.40477 0
M  V30 2210 H 209.75 0.46871 -3.63591 0
M  V30 2211 H 209.398 2.89883 -4.11068 0
M  V30 2212 H 209.098 1.90521 -5.55856 0
M  V30 2213 H 210.622 2.82614 -5.41259 0
M  V30 2214 H 212.036 0.573509 -5.70424 0
M  V30 2215 H 210.433 -0.160783 -5.99885 0
M  V30 2216 H 211.503 -0.86237 -4.7717 0
M  V30 2217 N 212.846 1.57033 -0.133567 0
M  V30 2218 C 213.776 2.1909 0.807567 0
M  V30 2219 C 214.757 1.13517 1.26681 0
M  V30 2220 O 215.942 1.41809 1.32679 0
M  V30 2221 C 213.072 2.80188 2.05212 0
M  V30 2222 C 212.026 3.91471 1.73015 0
M  V30 2223 C 211.352 4.39443 3.04622 0
M  V30 2224 C 212.652 5.12886 0.987168 0
M  V30 2225 H 214.346 2.97988 0.290403 0
M  V30 2226 H 211.892 1.43335 0.138239 0
M  V30 2227 H 213.845 3.22264 2.71521 0
M  V30 2228 H 212.569 1.98601 2.59278 0
M  V30 2229 H 211.228 3.49993 1.0909 0
M  V30 2230 H 210.876 3.54695 3.56651 0
M  V30 2231 H 210.576 5.14495 2.83847 0
M  V30 2232 H 212.1 4.8418 3.72024 0
M  V30 2233 H 213.514 5.51891 1.55208 0
M  V30 2234 H 211.911 5.93615 0.87985 0
M  V30 2235 H 212.981 4.84894 -0.0235286 0
M  V30 2236 N 214.325 -0.140222 1.56975 0
M  V30 2237 C 215.553 -0.866437 1.87884 0
M  V30 2238 C 215.968 -1.74428 0.722517 0
M  V30 2239 O 215.325 -1.79891 -0.30749 0
M  V30 2240 C 215.376 -1.71753 3.18093 0
M  V30 2241 O 215.097 -0.875056 4.29272 0
M  V30 2242 C 216.598 -2.55074 3.62563 0
M  V30 2243 H 213.818 -0.25019 0.622612 0
M  V30 2244 H 216.362 -0.130977 2.0408 0
M  V30 2245 H 214.517 -2.40598 3.03631 0
M  V30 2246 H 214.931 -1.46002 5.03769 0
M  V30 2247 H 216.405 -3.10356 4.5649 0
M  V30 2248 H 216.882 -3.31434 2.88181 0
M  V30 2249 H 217.488 -1.91509 3.79743 0
M  V30 2250 N 215.803 -1.52179 -0.40978 0
M  V30 2251 C 216.75 -1.75475 -1.49924 0
M  V30 2252 C 217.72 -0.597175 -1.54994 0
M  V30 2253 O 218.905 -0.834655 -1.71575 0
M  V30 2254 C 216.045 -1.9107 -2.87378 0
M  V30 2255 C 215.158 -3.18717 -2.91622 0
M  V30 2256 C 214.293 -3.24747 -4.20372 0
M  V30 2257 C 213.332 -4.46598 -4.18588 0
M  V30 2258 N 212.469 -4.50025 -5.38908 0
M  V30 2259 H 217.309 -2.68458 -1.29361 0
M  V30 2260 H 214.846 -1.33024 -0.627934 0
M  V30 2261 H 216.804 -1.98096 -3.6717 0
M  V30 2262 H 215.434 -1.01469 -3.06437 0
M  V30 2263 H 214.486 -3.20866 -2.04326 0
M  V30 2264 H 215.798 -4.08544 -2.86169 0
M  V30 2265 H 214.952 -3.30841 -5.08556 0
M  V30 2266 H 213.691 -2.32857 -4.28519 0
M  V30 2267 H 212.696 -4.40652 -3.28794 0
M  V30 2268 H 213.921 -5.39783 -4.12081 0
M  V30 2269 H 211.867 -3.61017 -5.47725 0
M  V30 2270 H 211.784 -5.33697 -5.35447 0
M  V30 2271 H 213.052 -4.60347 -6.29048 0
M  V30 2272 N 217.281 0.66697 -1.42791 0
M  V30 2273 C 218.229 1.80157 -1.47127 0
M  V30 2274 C 219.223 1.65825 -0.346199 0
M  V30 2275 O 220.429 1.72338 -0.519572 0
M  V30 2276 H 216.804 0.594158 -0.460956 0
M  V30 2277 H 218.775 1.73619 -2.42692 0
M  V30 2278 C 217.524 3.18351 -1.39813 0
M  V30 2279 H 216.847 3.3001 -2.25684 0
M  V30 2280 H 218.287 3.97736 -1.46908 0
M  V30 2281 C 216.746 3.36707 -0.11391 0
M  V30 2282 O 217.276 3.93027 0.830241 0
M  V30 2283 N 215.482 2.90586 -0.0285295 0
M  V30 2284 H 215.029 2.4494 -0.79764 0
M  V30 2285 H 214.987 3.03245 0.830063 0
M  V30 2286 N 218.759 1.29093 0.90403 0
M  V30 2287 C 219.706 1.13853 2.00764 0
M  V30 2288 C 220.676 0.0330084 1.66067 0
M  V30 2289 O 221.861 0.199733 1.89752 0
M  V30 2290 C 219.001 0.816537 3.35301 0
M  V30 2291 C 218.114 2.00206 3.82807 0
M  V30 2292 C 217.249 1.61983 5.059 0
M  V30 2293 C 216.288 2.77143 5.45764 0
M  V30 2294 N 215.425 2.39346 6.60044 0
M  V30 2295 H 220.265 2.08276 2.13132 0
M  V30 2296 H 217.802 1.03648 1.04381 0
M  V30 2297 H 219.76 0.610557 4.12708 0
M  V30 2298 H 218.39 -0.090779 3.22672 0
M  V30 2299 H 217.442 2.31988 3.01473 0
M  V30 2300 H 218.754 2.86512 4.08304 0
M  V30 2301 H 217.908 1.37649 5.90879 0
M  V30 2302 H 216.647 0.728202 4.82233 0
M  V30 2303 H 215.652 3.02165 4.59322 0
M  V30 2304 H 216.877 3.66964 5.71414 0
M  V30 2305 H 214.823 1.52665 6.37989 0
M  V30 2306 H 214.74 3.19185 6.85315 0
M  V30 2307 H 216.008 2.1832 7.48303 0
M  V30 2308 N 220.237 -1.11381 1.11499 0
M  V30 2309 C 221.2 -2.15622 0.777153 0
M  V30 2310 C 222.2 -1.59504 -0.203779 0
M  V30 2311 O 223.39 -1.74188 0.020782 0
M  V30 2312 C 220.522 -3.40556 0.153116 0
M  V30 2313 H 221.715 -2.47021 1.70061 0
M  V30 2314 H 219.268 -1.26577 0.916952 0
M  V30 2315 H 220.003 -3.14767 -0.780536 0
M  V30 2316 H 219.788 -3.8257 0.859238 0
M  V30 2317 H 221.278 -4.17546 -0.0671044 0
M  V30 2318 N 221.715 -0.905404 -1.28997 0
M  V30 2319 C 223.131 -0.60233 -1.47798 0
M  V30 2320 C 223.331 0.854645 -1.82478 0
M  V30 2321 O 222.387 1.63439 -1.92468 0
M  V30 2322 C 223.7 -1.53306 -2.58685 0
M  V30 2323 C 225.248 -1.53887 -2.72558 0
M  V30 2324 C 225.723 -2.45602 -3.86579 0
M  V30 2325 N 227.214 -2.43681 -3.93921 0
M  V30 2326 C 227.949 -3.11347 -4.81509 0
M  V30 2327 N 227.445 -3.88313 -5.73746 0
M  V30 2328 N 229.238 -3.00476 -4.75048 0
M  V30 2329 H 221.389 -1.84765 -1.04764 0
M  V30 2330 H 223.652 -0.792025 -0.520961 0
M  V30 2331 H 223.358 -2.57141 -2.39941 0
M  V30 2332 H 223.232 -1.25787 -3.55609 0
M  V30 2333 H 225.619 -0.507941 -2.90696 0
M  V30 2334 H 225.7 -1.85447 -1.76191 0
M  V30 2335 H 225.344 -3.48792 -3.69197 0
M  V30 2336 H 225.274 -2.11349 -4.82327 0
M  V30 2337 H 227.765 -1.87767 -3.27951 0
M  V30 2338 H 228.078 -4.36985 -6.37389 0
M  V30 2339 H 226.423 -3.92419 -5.73614 0
M  V30 2340 H 229.614 -2.39858 -4.01977 0
M  V30 2341 H 229.787 -3.53485 -5.43095 0
M  V30 2342 N 223.193 1.4272 -0.668489 0
M  V30 2343 C 224.439 2.01923 -0.188419 0
M  V30 2344 C 224.772 1.52704 1.19979 0
M  V30 2345 O 224.047 0.726566 1.8042 0
M  V30 2346 C 224.33 3.59451 -0.216085 0
M  V30 2347 C 224.183 4.18864 -1.6393 0
M  V30 2348 C 225.502 4.37903 0.439179 0
M  V30 2349 H 222.621 0.733674 -0.0699412 0
M  V30 2350 H 225.263 1.69822 -0.852076 0
M  V30 2351 H 223.413 3.86929 0.349012 0
M  V30 2352 H 225.085 4.02362 -2.25616 0
M  V30 2353 H 223.328 3.74933 -2.18193 0
M  V30 2354 H 223.999 5.27987 -1.61039 0
M  V30 2355 H 226.475 4.16079 -0.0417878 0
M  V30 2356 H 225.351 5.47519 0.389157 0
M  V30 2357 H 225.612 4.15303 1.51577 0
M  V30 2358 N 224.671 0.411399 1.52136 0
M  V30 2359 C 225.92 -0.165009 2.01024 0
M  V30 2360 C 226.233 -1.4603 1.30133 0
M  V30 2361 O 227.439 -2.1181 1.69849 0
M  V30 2362 C 225.895 -0.344618 3.58246 0
M  V30 2363 C 225.503 0.938716 4.38055 0
M  V30 2364 C 227.247 -0.876195 4.15359 0
M  V30 2365 C 225.154 0.726172 5.86925 0
M  V30 2366 H 224.084 -0.0654407 0.751155 0
M  V30 2367 H 226.735 0.537192 1.75461 0
M  V30 2368 H 225.117 -1.10921 3.80148 0
M  V30 2369 H 226.291 1.70963 4.27912 0
M  V30 2370 H 224.606 1.39688 3.92271 0
M  V30 2371 H 227.203 -1.05128 5.24263 0
M  V30 2372 H 227.546 -1.85152 3.7286 0
M  V30 2373 H 228.079 -0.170607 3.97434 0
M  V30 2374 H 224.818 1.67312 6.33788 0
M  V30 2375 H 224.338 -0.00540283 5.998 0
M  V30 2376 H 226.017 0.369231 6.45946 0
M  V30 2377 N 226.149 -1.5696 0.141893 0
M  V30 2378 C 227.398 -1.95135 -0.510427 0
M  V30 2379 C 227.711 -1.02896 -1.66348 0
M  V30 2380 O 228.917 -1.30629 -2.38009 0
M  V30 2381 C 227.373 -3.46876 -0.959427 0
M  V30 2382 C 226.981 -4.47691 0.166419 0
M  V30 2383 C 228.725 -3.93927 -1.58183 0
M  V30 2384 C 226.632 -5.90636 -0.300565 0
M  V30 2385 H 225.562 -0.728494 -0.194454 0
M  V30 2386 H 228.213 -1.8211 0.22542 0
M  V30 2387 H 226.595 -3.55215 -1.75038 0
M  V30 2388 H 227.769 -4.51043 0.94325 0
M  V30 2389 H 226.084 -4.10527 0.696905 0
M  V30 2390 H 228.681 -4.98158 -1.94275 0
M  V30 2391 H 229.024 -3.3519 -2.46888 0
M  V30 2392 H 229.557 -3.88484 -0.855863 0
M  V30 2393 H 226.296 -6.5318 0.550989 0
M  V30 2394 H 225.816 -5.90655 -1.04338 0
M  V30 2395 H 227.495 -6.42588 -0.754265 0
M  V30 2396 N 227.627 0.131896 -1.57047 0
M  V30 2397 C 228.557 1.16384 -2.02428 0
M  V30 2398 C 229.538 1.43936 -0.90644 0
M  V30 2399 O 230.723 1.54599 -1.17528 0
M  V30 2400 C 227.853 2.49328 -2.4177 0
M  V30 2401 C 226.807 2.36266 -3.56879 0
M  V30 2402 C 226.133 3.74057 -3.8208 0
M  V30 2403 C 227.433 1.834 -4.89042 0
M  V30 2404 H 229.127 0.786433 -2.88887 0
M  V30 2405 H 226.673 0.376855 -1.38981 0
M  V30 2406 H 228.626 3.21759 -2.7212 0
M  V30 2407 H 227.35 2.88934 -1.52266 0
M  V30 2408 H 226.009 1.66286 -3.26718 0
M  V30 2409 H 225.657 4.11125 -2.89803 0
M  V30 2410 H 225.357 3.66174 -4.59554 0
M  V30 2411 H 226.881 4.48012 -4.1487 0
M  V30 2412 H 228.295 2.45636 -5.18011 0
M  V30 2413 H 226.692 1.8637 -5.70426 0
M  V30 2414 H 227.762 0.790662 -4.7841 0
M  V30 2415 N 229.106 1.52395 0.401703 0
M  V30 2416 C 230.039 1.70999 1.51111 0
M  V30 2417 C 231.017 0.55765 1.52738 0
M  V30 2418 O 232.201 0.785912 1.71335 0
M  V30 2419 C 229.328 1.75607 2.8962 0
M  V30 2420 C 228.374 2.97227 3.05873 0
M  V30 2421 S 229.207 4.57439 2.78405 0
M  V30 2422 C 230.363 4.64844 4.19131 0
M  V30 2423 H 230.596 2.6483 1.35102 0
M  V30 2424 H 228.129 1.42527 0.593762 0
M  V30 2425 H 230.087 1.78947 3.69443 0
M  V30 2426 H 228.748 0.828914 3.02965 0
M  V30 2427 H 227.941 2.96955 4.07227 0
M  V30 2428 H 227.543 2.91813 2.33925 0
M  V30 2429 H 229.835 4.42677 5.12877 0
M  V30 2430 H 230.778 5.66807 4.24424 0
M  V30 2431 H 231.186 3.93804 4.04448 0
M  V30 2432 N 230.584 -0.659388 1.43143 0
M  V30 2433 C 231.83 -1.42145 1.44647 0
M  V30 2434 C 232.163 -1.9408 0.0681907 0
M  V30 2435 O 231.438 -1.71899 -0.910007 0
M  V30 2436 C 231.721 -2.60735 2.48373 0
M  V30 2437 C 231.574 -2.14332 3.95451 0
M  V30 2438 C 232.893 -3.62951 2.48906 0
M  V30 2439 H 230.012 -0.51552 0.526696 0
M  V30 2440 H 232.654 -0.748069 1.74654 0
M  V30 2441 H 230.804 -3.18184 2.22916 0
M  V30 2442 H 232.476 -1.61932 4.31944 0
M  V30 2443 H 230.719 -1.4576 4.08578 0
M  V30 2444 H 231.39 -2.99583 4.63631 0
M  V30 2445 H 233.866 -3.1525 2.71582 0
M  V30 2446 H 232.742 -4.43487 3.23435 0
M  V30 2447 H 233.003 -4.15126 1.52061 0
M  V30 2448 N 232.062 -1.29571 -0.897171 0
M  V30 2449 C 233.308 -1.18873 -1.65048 0
M  V30 2450 C 233.663 0.256707 -1.9068 0
M  V30 2451 O 232.956 1.18202 -1.50794 0
M  V30 2452 C 233.15 -1.9382 -3.00281 0
M  V30 2453 C 232.979 -3.45503 -2.8785 0
M  V30 2454 C 231.749 -4.14856 -2.88483 0
M  V30 2455 C 233.947 -4.40956 -2.64693 0
M  V30 2456 N 231.929 -5.52886 -2.66815 0
M  V30 2457 C 233.3 -5.66464 -2.5203 0
M  V30 2458 C 235.355 -4.3069 -2.49821 0
M  V30 2459 C 234.058 -6.82871 -2.26008 0
M  V30 2460 C 236.084 -5.46852 -2.25182 0
M  V30 2461 C 235.446 -6.71333 -2.13286 0
M  V30 2462 H 231.545 -0.489998 -0.609447 0
M  V30 2463 H 234.129 -1.63431 -1.05822 0
M  V30 2464 H 232.3 -1.51671 -3.57562 0
M  V30 2465 H 234.032 -1.75366 -3.64731 0
M  V30 2466 H 230.787 -3.66579 -2.99861 0
M  V30 2467 H 231.211 -6.25487 -2.59027 0
M  V30 2468 H 235.853 -3.35141 -2.5776 0
M  V30 2469 H 233.571 -7.78473 -2.16806 0
M  V30 2470 H 237.157 -5.40809 -2.14515 0
M  V30 2471 H 236.037 -7.59701 -1.94485 0
M  V30 2472 N 233.54 1.10788 -1.12088 0
M  V30 2473 C 234.789 1.82036 -0.868659 0
M  V30 2474 C 235.102 1.85929 0.607426 0
M  V30 2475 O 236.308 2.53346 0.97613 0
M  V30 2476 C 234.764 3.26951 -1.50435 0
M  V30 2477 C 234.372 3.31367 -3.01496 0
M  V30 2478 C 236.116 4.03053 -1.33225 0
M  V30 2479 C 234.023 4.7072 -3.58017 0
M  V30 2480 H 232.953 0.682108 -0.321318 0
M  V30 2481 H 235.604 1.24618 -1.34694 0
M  V30 2482 H 233.986 3.84343 -0.953735 0
M  V30 2483 H 235.16 2.83819 -3.6302 0
M  V30 2484 H 233.475 2.6875 -3.18061 0
M  V30 2485 H 236.072 5.05981 -1.72878 0
M  V30 2486 H 236.415 4.15387 -0.275529 0
M  V30 2487 H 236.948 3.52066 -1.85188 0
M  V30 2488 H 233.687 4.63585 -4.63432 0
M  V30 2489 H 233.207 5.1865 -3.01268 0
M  V30 2490 H 234.886 5.39685 -3.56859 0
M  V30 2491 N 235.018 0.912232 1.28515 0
M  V30 2492 C 236.264 0.545405 1.95328 0
M  V30 2493 C 236.597 -0.908313 1.71649 0
M  V30 2494 O 235.872 -1.64575 1.03659 0
M  V30 2495 C 236.155 0.853483 3.4984 0
M  V30 2496 C 236.008 2.35982 3.82926 0
M  V30 2497 C 237.327 0.348589 4.38717 0
M  V30 2498 H 234.446 0.199626 0.709449 0
M  V30 2499 H 237.088 1.1412 1.5191 0
M  V30 2500 H 235.238 0.34643 3.86952 0
M  V30 2501 H 236.91 2.93738 3.55691 0
M  V30 2502 H 235.153 2.81543 3.30024 0
M  V30 2503 H 235.824 2.52593 4.90816 0
M  V30 2504 H 238.3 0.78294 4.08668 0
M  V30 2505 H 237.176 0.593242 5.45685 0
M  V30 2506 H 237.437 -0.751049 4.35674 0
M  V30 2507 N 236.496 -1.42363 0.676048 0
M  V30 2508 C 237.721 -2.06377 0.205705 0
M  V30 2509 C 238.146 -1.50463 -1.12883 0
M  V30 2510 O 237.504 -0.623619 -1.70237 0
M  V30 2511 C 237.552 -3.60277 0.152655 0
M  V30 2512 O 236.656 -4.02935 -0.87845 0
M  V30 2513 H 235.997 -0.655588 0.105359 0
M  V30 2514 H 238.527 -1.82475 0.925412 0
M  V30 2515 H 238.537 -4.07993 -0.0230675 0
M  V30 2516 H 237.212 -4.00346 1.12675 0
M  V30 2517 H 235.789 -3.66764 -0.673668 0
M  V30 2518 N 237.974 -0.419461 -1.51915 0
M  V30 2519 C 239.222 0.152637 -2.01523 0
M  V30 2520 C 239.543 1.44762 -1.30649 0
M  V30 2521 O 238.813 1.90997 -0.435535 0
M  V30 2522 H 237.393 0.0593966 -0.744635 0
M  V30 2523 H 240.055 -0.558073 -1.86739 0
M  V30 2524 H 239.151 0.341369 -3.10227 0
M  V30 2525 N 239.452 1.56882 -0.150215 0
M  V30 2526 C 240.382 2.19935 0.784284 0
M  V30 2527 C 241.363 1.14854 1.25469 0
M  V30 2528 O 242.548 1.43209 1.31168 0
M  V30 2529 C 239.678 2.82349 2.02229 0
M  V30 2530 C 238.632 3.93285 1.68853 0
M  V30 2531 C 237.958 4.42649 2.99944 0
M  V30 2532 C 239.258 5.13904 0.932714 0
M  V30 2533 H 240.952 2.9828 0.258781 0
M  V30 2534 H 238.498 1.43473 0.123029 0
M  V30 2535 H 240.451 3.25126 2.68088 0
M  V30 2536 H 239.175 2.0134 2.57157 0
M  V30 2537 H 237.834 3.5113 1.05371 0
M  V30 2538 H 237.482 3.58458 3.52869 0
M  V30 2539 H 237.182 5.17476 2.78374 0
M  V30 2540 H 238.706 4.88099 3.66868 0
M  V30 2541 H 240.12 5.53506 1.49345 0
M  V30 2542 H 238.517 5.94515 0.81684 0
M  V30 2543 H 239.587 4.84842 -0.0749568 0
M  V30 2544 N 240.93 -0.123565 1.57115 0
M  V30 2545 C 242.158 -0.846461 1.88793 0
M  V30 2546 C 242.573 -1.73652 0.740976 0
M  V30 2547 O 241.93 -1.80207 -0.288393 0
M  V30 2548 C 241.981 -1.6837 3.19897 0
M  V30 2549 O 241.702 -0.829477 4.30176 0
M  V30 2550 C 243.203 -2.51214 3.65248 0
M  V30 2551 H 240.423 -0.243573 0.625231 0
M  V30 2552 H 242.967 -0.109324 2.04208 0
M  V30 2553 H 241.122 -2.37364 3.06165 0
M  V30 2554 H 241.536 -1.40651 5.0529 0
M  V30 2555 H 243.01 -3.05497 4.59756 0
M  V30 2556 H 243.487 -3.28359 2.9168 0
M  V30 2557 H 244.093 -1.8747 3.81752 0
M  V30 2558 N 242.408 -1.52605 -0.393616 0
M  V30 2559 C 243.633 -1.71592 -1.16495 0
M  V30 2560 C 244.058 -0.43133 -1.83088 0
M  V30 2561 O 243.416 0.612523 -1.7064 0
M  V30 2562 C 243.464 -2.86318 -2.19213 0
M  V30 2563 O 242.568 -2.52969 -3.257 0
M  V30 2564 H 241.909 -0.570734 -0.33935 0
M  V30 2565 H 244.439 -1.99377 -0.459324 0
M  V30 2566 H 244.449 -3.1168 -2.63286 0
M  V30 2567 H 243.124 -3.79511 -1.7013 0
M  V30 2568 H 241.701 -2.38332 -2.86797 0
M  V30 2569 N 243.887 0.651787 -1.4349 0
M  V30 2570 C 245.134 1.41167 -1.45183 0
M  V30 2571 C 245.462 1.94349 -0.0766601 0
M  V30 2572 O 244.717 1.72804 0.918555 0
M  V30 2573 C 245.016 2.60914 -2.44251 0
M  V30 2574 C 244.682 2.26142 -3.9009 0
M  V30 2575 C 243.344 2.16371 -4.2981 0
M  V30 2576 C 245.696 1.98334 -4.81989 0
M  V30 2577 C 243.024 1.7695 -5.5938 0
M  V30 2578 C 245.376 1.6041 -6.11924 0
M  V30 2579 C 244.04 1.49166 -6.5062 0
M  V30 2580 H 243.31 0.516566 -0.531263 0
M  V30 2581 H 245.957 0.741099 -1.76579 0
M  V30 2582 H 244.262 3.3311 -2.06265 0
M  V30 2583 H 245.959 3.19127 -2.42815 0
M  V30 2584 H 242.549 2.34658 -3.58655 0
M  V30 2585 H 246.733 2.04803 -4.52072 0
M  V30 2586 H 241.989 1.66831 -5.88198 0
M  V30 2587 H 246.163 1.37925 -6.82605 0
M  V30 2588 H 243.79 1.1839 -7.50925 0
M  V30 2589 N 245.365 1.30045 0.890287 0
M  V30 2590 C 246.295 1.18541 2.01172 0
M  V30 2591 C 247.276 0.0773356 1.69924 0
M  V30 2592 O 248.461 0.25845 1.92473 0
M  V30 2593 C 245.591 0.870941 3.36202 0
M  V30 2594 C 244.545 1.93637 3.81692 0
M  V30 2595 C 243.871 1.475 5.13953 0
M  V30 2596 C 245.171 3.34666 4.00994 0
M  V30 2597 H 246.865 2.12359 2.11054 0
M  V30 2598 H 244.411 1.02238 1.01407 0
M  V30 2599 H 246.364 0.777141 4.14172 0
M  V30 2600 H 245.088 -0.102926 3.26438 0
M  V30 2601 H 243.747 2.01972 3.05946 0
M  V30 2602 H 243.395 0.489551 5.00612 0
M  V30 2603 H 243.095 2.1876 5.4536 0
M  V30 2604 H 244.619 1.39489 5.94454 0
M  V30 2605 H 246.033 3.2912 4.69417 0
M  V30 2606 H 244.43 4.03966 4.43769 0
M  V30 2607 H 245.5 3.76949 3.05021 0
M  V30 2608 N 246.843 -1.10192 1.12674 0
M  V30 2609 C 248.254 -1.63707 0.897604 0
M  V30 2610 C 248.605 -1.87812 -0.567546 0
M  V30 2611 O 247.73 -1.62196 -1.43253 0
M  V30 2612 C 248.325 -2.974 1.62292 0
M  V30 2613 C 246.884 -3.47772 1.43986 0
M  V30 2614 C 246.031 -2.22332 1.65722 0
M  V30 2615 H 248.982 -0.936587 1.28116 0
M  V30 2616 H 249.003 -3.64986 1.07541 0
M  V30 2617 H 248.515 -2.79824 2.68924 0
M  V30 2618 H 246.616 -3.70487 0.396206 0
M  V30 2619 H 246.729 -4.25723 2.19765 0
M  V30 2620 H 245.093 -2.30599 1.08149 0
M  V30 2621 H 245.876 -2.07285 2.73657 0
M  V30 2622 N 248.321 -0.919034 -1.28029 0
M  V30 2623 C 249.57 -0.550802 -1.94034 0
M  V30 2624 C 249.883 0.910877 -1.73096 0
M  V30 2625 O 251.089 1.3875 -2.33368 0
M  V30 2626 C 249.545 -0.934249 -3.47563 0
M  V30 2627 C 249.153 -2.41602 -3.7727 0
M  V30 2628 C 250.897 -0.636854 -4.19696 0
M  V30 2629 C 248.804 -2.73932 -5.24133 0
M  V30 2630 H 247.734 -0.202273 -0.726362 0
M  V30 2631 H 250.385 -1.11867 -1.45458 0
M  V30 2632 H 248.767 -0.295115 -3.94899 0
M  V30 2633 H 249.941 -3.10233 -3.40723 0
M  V30 2634 H 248.256 -2.68441 -3.18321 0
M  V30 2635 H 250.853 -0.855005 -5.2782 0
M  V30 2636 H 251.196 0.425575 -4.14119 0
M  V30 2637 H 251.729 -1.23469 -3.78154 0
M  V30 2638 H 248.468 -3.79049 -5.34792 0
M  V30 2639 H 247.988 -2.09942 -5.61858 0
M  V30 2640 H 249.667 -2.61215 -5.91925 0
M  V30 2641 N 249.799 1.42003 -0.683588 0
M  V30 2642 C 250.731 2.29183 0.0283068 0
M  V30 2643 C 251.744 1.4415 0.756611 0
M  V30 2644 O 252.933 1.67779 0.609306 0
M  V30 2645 C 250.033 3.21765 1.06398 0
M  V30 2646 C 249.206 4.35496 0.407723 0
M  V30 2647 C 248.265 5.08737 1.34437 0
M  V30 2648 O 247.291 5.62948 0.841318 0
M  V30 2649 N 248.493 5.15075 2.67728 0
M  V30 2650 H 251.258 2.9092 -0.720105 0
M  V30 2651 H 248.819 1.53025 -0.528682 0
M  V30 2652 H 250.811 3.6763 1.69204 0
M  V30 2653 H 249.381 2.61418 1.71404 0
M  V30 2654 H 248.601 3.92165 -0.400012 0
M  V30 2655 H 249.889 5.08776 -0.0490956 0
M  V30 2656 H 249.287 4.72457 3.11129 0
M  V30 2657 H 247.844 5.64556 3.2576 0
M  V30 2658 N 251.277 0.427512 1.51691 0
M  V30 2659 C 252.21 -0.433876 2.24037 0
M  V30 2660 C 253.188 -1.03287 1.25581 0
M  V30 2661 O 254.372 -1.07722 1.54688 0
M  V30 2662 C 251.499 -1.60385 2.98319 0
M  V30 2663 C 250.545 -1.12648 4.11355 0
M  V30 2664 S 251.378 -0.076543 5.35445 0
M  V30 2665 C 252.534 -1.25141 6.13262 0
M  V30 2666 H 252.767 0.180367 2.96752 0
M  V30 2667 H 250.3 0.211946 1.52938 0
M  V30 2668 H 252.258 -2.27462 3.41718 0
M  V30 2669 H 250.919 -2.18948 2.25213 0
M  V30 2670 H 250.112 -2.0011 4.62571 0
M  V30 2671 H 249.714 -0.534088 3.70167 0
M  V30 2672 H 252.006 -2.17162 6.41753 0
M  V30 2673 H 252.949 -0.779411 7.03797 0
M  V30 2674 H 253.357 -1.48553 5.44603 0
M  V30 2675 N 252.755 -1.56801 0.158532 0
M  V30 2676 C 253.705 -2.13923 -0.788738 0
M  V30 2677 C 254.689 -1.07006 -1.2016 0
M  V30 2678 O 255.881 -1.33159 -1.1661 0
M  V30 2679 C 253.01 -2.77348 -2.02319 0
M  V30 2680 C 252.096 -3.91404 -1.6329 0
M  V30 2681 N 252.487 -4.9677 -0.951463 0
M  V30 2682 C 250.785 -4.02326 -1.92482 0
M  V30 2683 C 251.486 -5.76698 -0.761221 0
M  V30 2684 N 250.462 -5.27859 -1.29869 0
M  V30 2685 H 254.264 -2.92757 -0.258995 0
M  V30 2686 H 251.778 -1.62344 -0.0426055 0
M  V30 2687 H 253.775 -3.16639 -2.71192 0
M  V30 2688 H 252.435 -1.99991 -2.558 0
M  V30 2689 H 253.446 -5.14284 -0.610928 0
M  V30 2690 H 250.123 -3.36059 -2.47732 0
M  V30 2691 H 251.513 -6.71529 -0.223284 0
M  V30 2692 N 254.233 0.115231 -1.57178 0
M  V30 2693 C 255.479 0.818565 -1.86202 0
M  V30 2694 C 255.834 1.77316 -0.746785 0
M  V30 2695 O 255.127 1.89923 0.25291 0
M  V30 2696 C 255.321 1.60324 -3.19423 0
M  V30 2697 C 255.15 0.726138 -4.43799 0
M  V30 2698 C 253.92 0.379535 -5.03873 0
M  V30 2699 C 256.118 0.0420774 -5.14283 0
M  V30 2700 N 254.1 -0.507841 -6.11796 0
M  V30 2701 C 255.471 -0.704152 -6.15988 0
M  V30 2702 C 257.526 -0.0339486 -4.97888 0
M  V30 2703 C 256.229 -1.51927 -7.03072 0
M  V30 2704 C 258.255 -0.835906 -5.85463 0
M  V30 2705 C 257.617 -1.57031 -6.86673 0
M  V30 2706 H 253.716 0.276343 -0.731545 0
M  V30 2707 H 256.3 0.0821032 -1.94527 0
M  V30 2708 H 254.471 2.31072 -3.12186 0
M  V30 2709 H 256.203 2.2522 -3.36241 0
M  V30 2710 H 252.958 0.722634 -4.68054 0
M  V30 2711 H 253.382 -0.94349 -6.70393 0
M  V30 2712 H 258.024 0.519496 -4.19596 0
M  V30 2713 H 255.742 -2.08386 -7.80769 0
M  V30 2714 H 259.328 -0.89714 -5.74841 0
M  V30 2715 H 258.208 -2.18088 -7.53264 0
M  V30 2716 N 255.711 1.52812 0.385517 0
M  V30 2717 C 256.941 1.71658 1.14966 0
M  V30 2718 C 257.349 0.436253 1.84102 0
M  V30 2719 O 256.692 -0.599313 1.73649 0
M  V30 2720 C 256.754 2.81309 2.23843 0
M  V30 2721 C 256.418 4.22313 1.74644 0
M  V30 2722 C 257.415 5.05352 1.22129 0
M  V30 2723 C 255.1 4.68648 1.80761 0
M  V30 2724 C 257.094 6.32807 0.763838 0
M  V30 2725 C 254.781 5.96086 1.34627 0
M  V30 2726 C 255.779 6.77996 0.825264 0
M  V30 2727 O 255.467 8.03045 0.370669 0
M  V30 2728 H 255.199 0.578022 0.350523 0
M  V30 2729 H 257.753 2.00263 0.456509 0
M  V30 2730 H 255.983 2.48133 2.96592 0
M  V30 2731 H 257.672 2.88524 2.85497 0
M  V30 2732 H 258.438 4.70736 1.16758 0
M  V30 2733 H 254.317 4.04979 2.20256 0
M  V30 2734 H 257.861 6.96689 0.356494 0
M  V30 2735 H 253.758 6.30205 1.39686 0
M  V30 2736 H 254.526 8.17021 0.491829 0
M  V30 2737 N 257.189 -0.644168 1.43834 0
M  V30 2738 C 258.605 -0.960875 1.27434 0
M  V30 2739 C 258.805 -2.00499 0.200618 0
M  V30 2740 O 257.861 -2.49018 -0.417906 0
M  V30 2741 C 259.174 -1.43653 2.64167 0
M  V30 2742 C 260.722 -1.55271 2.71772 0
M  V30 2743 C 261.197 -2.06224 4.08944 0
M  V30 2744 N 262.688 -2.13513 4.11055 0
M  V30 2745 C 263.423 -2.54081 5.14033 0
M  V30 2746 N 262.919 -2.9388 6.27381 0
M  V30 2747 N 264.712 -2.54101 5.01387 0
M  V30 2748 H 256.863 0.0465779 2.12349 0
M  V30 2749 H 259.126 -0.0417638 0.94708 0
M  V30 2750 H 258.832 -0.743706 3.43747 0
M  V30 2751 H 258.706 -2.40993 2.90176 0
M  V30 2752 H 261.093 -2.23653 1.92519 0
M  V30 2753 H 261.174 -0.563395 2.49519 0
M  V30 2754 H 260.818 -1.38441 4.88668 0
M  V30 2755 H 260.748 -3.06003 4.28567 0
M  V30 2756 H 263.239 -1.85493 3.29242 0
M  V30 2757 H 263.552 -3.2361 7.01781 0
M  V30 2758 H 261.897 -2.91663 6.30839 0
M  V30 2759 H 265.088 -2.22391 4.11898 0
M  V30 2760 H 265.261 -2.85394 5.81768 0
M  V30 2761 N 258.668 -1.30515 -0.883378 0
M  V30 2762 C 259.631 -1.1701 -1.97082 0
M  V30 2763 C 260.631 -0.10089 -1.60483 0
M  V30 2764 O 261.821 -0.349127 -1.70666 0
M  V30 2765 C 258.953 -0.793045 -3.31547 0
M  V30 2766 H 260.146 -2.13622 -2.10489 0
M  V30 2767 H 257.699 -1.13935 -1.06998 0
M  V30 2768 H 258.434 0.172499 -3.23841 0
M  V30 2769 H 258.219 -1.56576 -3.5948 0
M  V30 2770 H 259.709 -0.722073 -4.1131 0
M  V30 2771 N 260.146 1.09593 -1.13257 0
M  V30 2772 C 261.374 1.855 -0.916378 0
M  V30 2773 C 261.789 1.81069 0.534738 0
M  V30 2774 O 261.146 1.20562 1.37007 0
M  V30 2775 C 261.197 3.33546 -1.39388 0
M  V30 2776 O 260.918 3.37927 -2.78813 0
M  V30 2777 C 262.419 4.26299 -1.21588 0
M  V30 2778 H 259.639 0.585991 -0.326887 0
M  V30 2779 H 262.183 1.38488 -1.5047 0
M  V30 2780 H 260.338 3.77992 -0.848597 0
M  V30 2781 H 260.752 4.30254 -2.9997 0
M  V30 2782 H 262.226 5.28341 -1.59876 0
M  V30 2783 H 262.703 4.38918 -0.157376 0
M  V30 2784 H 263.309 3.87668 -1.7491 0
M  V30 2785 N 261.624 0.925811 1.2754 0
M  V30 2786 C 262.574 0.394488 2.24561 0
M  V30 2787 C 263.558 -0.500183 1.52928 0
M  V30 2788 O 264.75 -0.337936 1.73744 0
M  V30 2789 C 261.879 -0.353328 3.41477 0
M  V30 2790 C 260.965 0.557752 4.20416 0
M  V30 2791 N 261.356 1.67674 4.77199 0
M  V30 2792 C 259.654 0.360404 4.44541 0
M  V30 2793 C 260.355 2.24324 5.36706 0
M  V30 2794 N 259.331 1.53305 5.21535 0
M  V30 2795 H 263.133 1.2489 2.66045 0
M  V30 2796 H 260.647 0.779864 1.4245 0
M  V30 2797 H 262.644 -0.7509 4.10082 0
M  V30 2798 H 261.304 -1.20469 3.01525 0
M  V30 2799 H 262.315 2.05915 4.75204 0
M  V30 2800 H 258.992 -0.450454 4.15063 0
M  V30 2801 H 260.382 3.18521 5.91603 0
M  V30 2802 N 263.102 -1.41638 0.69111 0
M  V30 2803 C 264.034 -2.29194 -0.0161523 0
M  V30 2804 C 265.047 -1.44549 -0.748955 0
M  V30 2805 O 266.236 -1.681 -0.6004 0
M  V30 2806 C 263.336 -3.22325 -1.0469 0
M  V30 2807 C 262.509 -4.35706 -0.384621 0
M  V30 2808 C 261.568 -5.09443 -1.31737 0
M  V30 2809 O 260.594 -5.63386 -0.811451 0
M  V30 2810 N 261.796 -5.16487 -2.64993 0
M  V30 2811 H 264.561 -2.90534 0.735523 0
M  V30 2812 H 262.122 -1.52742 0.53679 0
M  V30 2813 H 264.114 -3.68522 -1.67252 0
M  V30 2814 H 262.684 -2.62323 -1.70015 0
M  V30 2815 H 261.904 -3.91948 0.420804 0
M  V30 2816 H 263.192 -5.08743 0.0760765 0
M  V30 2817 H 262.59 -4.741 -3.08619 0
M  V30 2818 H 261.147 -5.66276 -3.22761 0
M  V30 2819 N 264.58 -0.43555 -1.51462 0
M  V30 2820 C 265.49 0.383001 -2.31453 0
M  V30 2821 C 266.506 1.02931 -1.4029 0
M  V30 2822 O 267.682 1.02507 -1.73362 0
M  V30 2823 C 264.747 1.47043 -3.13973 0
M  V30 2824 C 263.808 0.844433 -4.20913 0
M  V30 2825 C 263.041 1.88004 -4.9949 0
M  V30 2826 O 263.264 3.10199 -4.78678 0
M  V30 2827 O 262.198 1.47157 -5.83634 0
M  V30 2828 H 266.024 -0.269964 -3.02498 0
M  V30 2829 H 263.609 -0.19813 -1.4808 0
M  V30 2830 H 265.491 2.10113 -3.65281 0
M  V30 2831 H 264.166 2.10751 -2.45695 0
M  V30 2832 H 263.073 0.175729 -3.73687 0
M  V30 2833 H 264.406 0.250869 -4.9156 0
M  V30 2834 N 266.058 1.56714 -0.166846 0
M  V30 2835 C 267.021 2.16539 0.751232 0
M  V30 2836 C 268.021 1.11228 1.16125 0
M  V30 2837 O 269.211 1.36765 1.07894 0
M  V30 2838 C 266.343 2.74462 2.02196 0
M  V30 2839 H 267.536 2.99013 0.230499 0
M  V30 2840 H 265.089 1.56081 0.0826982 0
M  V30 2841 H 265.824 1.95709 2.58589 0
M  V30 2842 H 265.609 3.51527 1.73698 0
M  V30 2843 H 267.099 3.20489 2.67725 0
M  V30 2844 N 267.536 -0.106894 1.57237 0
M  V30 2845 C 268.785 -0.811163 1.8467 0
M  V30 2846 C 269.098 -1.80469 0.754342 0
M  V30 2847 O 270.304 -2.55601 0.915439 0
M  V30 2848 C 268.76 -1.49337 3.27454 0
M  V30 2849 C 268.368 -0.540217 4.44731 0
M  V30 2850 C 270.112 -2.18206 3.64124 0
M  V30 2851 C 268.019 -1.22634 5.78545 0
M  V30 2852 H 266.949 -0.306679 0.688813 0
M  V30 2853 H 269.6 -0.0639887 1.83388 0
M  V30 2854 H 267.982 -2.2876 3.23241 0
M  V30 2855 H 269.156 0.221659 4.60267 0
M  V30 2856 H 267.471 0.042146 4.16379 0
M  V30 2857 H 270.068 -2.70253 4.61376 0
M  V30 2858 H 270.411 -2.96562 2.92158 0
M  V30 2859 H 270.944 -1.45658 3.70174 0
M  V30 2860 H 267.683 -0.483832 6.53712 0
M  V30 2861 H 267.203 -1.95993 5.66874 0
M  V30 2862 H 268.882 -1.75615 6.2271 0
M  V30 2863 N 269.014 -1.53014 -0.377408 0
M  V30 2864 C 269.962 -1.7927 -1.48206 0
M  V30 2865 C 270.956 -0.661195 -1.55963 0
M  V30 2866 O 272.162 -0.843908 -1.58991 0
M  V30 2867 H 268.537 -0.567425 -0.493491 0
M  V30 2868 H 270.508 -2.71753 -1.2326 0
M  V30 2869 C 269.257 -1.98894 -2.85196 0
M  V30 2870 H 268.58 -2.85395 -2.79981 0
M  V30 2871 H 270.02 -2.21249 -3.61698 0
M  V30 2872 C 268.479 -0.764691 -3.28107 0
M  V30 2873 O 269.009 0.0523226 -4.01666 0
M  V30 2874 N 267.215 -0.591493 -2.84517 0
M  V30 2875 H 266.762 -1.25749 -2.24822 0
M  V30 2876 H 266.72 0.226253 -3.13585 0
M  V30 2877 N 270.492 0.636531 -1.44174 0
M  V30 2878 C 271.732 1.40781 -1.48189 0
M  V30 2879 C 272.096 1.91688 -0.10944 0
M  V30 2880 O 273.297 2.68789 -0.0242741 0
M  V30 2881 C 271.568 2.54575 -2.50851 0
M  V30 2882 S 273.127 3.4284 -2.73873 0
M  V30 2883 H 269.945 0.480345 -0.524204 0
M  V30 2884 H 272.547 0.737416 -1.81059 0
M  V30 2885 H 271.251 2.15478 -3.49281 0
M  V30 2886 H 270.782 3.26447 -2.19536 0
M  V30 2887 H 272.797 4.51846 -2.05059 0
M  V30 2888 N 271.97 1.30982 0.876444 0
M  V30 2889 C 273.2 1.23063 1.65949 0
M  V30 2890 C 273.608 -0.207537 1.88058 0
M  V30 2891 O 272.951 -1.14781 1.43426 0
M  V30 2892 C 273.013 1.89768 3.05333 0
M  V30 2893 C 272.677 3.39106 3.0636 0
M  V30 2894 C 273.674 4.3496 2.84791 0
M  V30 2895 C 271.359 3.80693 3.27686 0
M  V30 2896 C 273.353 5.70375 2.84519 0
M  V30 2897 C 271.04 5.16223 3.27043 0
M  V30 2898 C 272.038 6.10875 3.05485 0
M  V30 2899 O 271.726 7.43928 3.04674 0
M  V30 2900 H 271.458 0.426685 0.524324 0
M  V30 2901 H 274.012 1.7329 1.10271 0
M  V30 2902 H 272.242 1.34082 3.6271 0
M  V30 2903 H 273.931 1.75853 3.65829 0
M  V30 2904 H 274.697 4.0416 2.68103 0
M  V30 2905 H 270.576 3.07457 3.43499 0
M  V30 2906 H 274.12 6.44228 2.67611 0
M  V30 2907 H 270.017 5.4666 3.43269 0
M  V30 2908 H 270.785 7.53022 3.2078 0
M  V30 2909 N 273.449 -1.08991 1.13837 0
M  V30 2910 C 274.412 -2.13925 0.822715 0
M  V30 2911 C 275.412 -1.599 -0.1699 0
M  V30 2912 O 276.602 -1.74104 0.0577251 0
M  V30 2913 C 273.734 -3.40155 0.225318 0
M  V30 2914 H 274.927 -2.43358 1.75262 0
M  V30 2915 H 272.48 -1.24603 0.943594 0
M  V30 2916 H 273.215 -3.16352 -0.713594 0
M  V30 2917 H 273 -3.80661 0.940193 0
M  V30 2918 H 274.49 -4.17594 0.0214784 0
M  V30 2919 N 274.927 -0.932562 -1.27047 0
M  V30 2920 C 275.875 -0.42603 -2.28665 0
M  V30 2921 C 276.869 0.49219 -1.62092 0
M  V30 2922 O 278.075 0.371355 -1.76128 0
M  V30 2923 H 274.45 -0.119213 -0.742491 0
M  V30 2924 H 276.421 -1.29579 -2.68797 0
M  V30 2925 C 275.17 0.301426 -3.46391 0
M  V30 2926 H 274.493 -0.39595 -3.97834 0
M  V30 2927 H 275.933 0.6202 -4.1944 0
M  V30 2928 C 274.392 1.51616 -3.00856 0
M  V30 2929 O 274.922 2.61476 -3.04948 0
M  V30 2930 N 273.128 1.36969 -2.56296 0
M  V30 2931 H 272.675 0.475873 -2.53166 0
M  V30 2932 H 272.633 2.18368 -2.26192 0
M  V30 2933 N 276.405 1.4127 -0.698611 0
M  V30 2934 C 277.315 2.34573 -0.0357891 0
M  V30 2935 C 278.331 1.56393 0.762701 0
M  V30 2936 O 279.507 1.8886 0.699564 0
M  V30 2937 C 276.572 3.35159 0.887089 0
M  V30 2938 C 275.633 4.29225 0.0804634 0
M  V30 2939 C 274.866 5.25006 0.959387 0
M  V30 2940 O 275.089 5.26314 2.19886 0
M  V30 2941 O 274.023 6.00519 0.407439 0
M  V30 2942 H 277.849 2.92838 -0.804957 0
M  V30 2943 H 275.434 1.42175 -0.458966 0
M  V30 2944 H 277.316 3.9689 1.41621 0
M  V30 2945 H 275.991 2.79333 1.6357 0
M  V30 2946 H 274.898 3.70833 -0.493328 0
M  V30 2947 H 276.231 4.88157 -0.629547 0
M  V30 2948 N 277.883 0.443576 1.51229 0
M  V30 2949 C 279.111 -0.11929 2.06556 0
M  V30 2950 C 279.526 -1.35921 1.31038 0
M  V30 2951 O 278.883 -1.78675 0.371704 0
M  V30 2952 C 278.934 -0.435228 3.5887 0
M  V30 2953 O 278.655 0.755486 4.31537 0
M  V30 2954 C 280.156 -1.04808 4.30732 0
M  V30 2955 H 277.376 -0.0051584 0.67098 0
M  V30 2956 H 279.92 0.624453 1.94733 0
M  V30 2957 H 278.075 -1.12887 3.70588 0
M  V30 2958 H 278.489 0.483491 5.22267 0
M  V30 2959 H 279.963 -1.2191 5.3837 0
M  V30 2960 H 280.44 -2.03081 3.89429 0
M  V30 2961 H 281.046 -0.393637 4.23474 0
M  V30 2962 N 279.361 -1.56624 0.175154 0
M  V30 2963 C 280.601 -1.98894 -0.471221 0
M  V30 2964 C 280.965 -1.05889 -1.60161 0
M  V30 2965 O 282.166 -1.37315 -2.3108 0
M  V30 2966 C 280.437 -3.44865 -0.938241 0
M  V30 2967 S 281.996 -4.09164 -1.58526 0
M  V30 2968 H 278.814 -0.694686 -0.151434 0
M  V30 2969 H 281.416 -1.93577 0.27352 0
M  V30 2970 H 280.12 -4.10265 -0.10518 0
M  V30 2971 H 279.651 -3.53956 -1.71693 0
M  V30 2972 H 281.666 -4.04528 -2.87352 0
M  V30 2973 N 280.839 0.0985539 -1.57292 0
M  V30 2974 C 282.079 0.808332 -1.87737 0
M  V30 2975 C 282.443 1.7607 -0.76572 0
M  V30 2976 O 283.644 2.51358 -0.952499 0
M  V30 2977 C 281.915 1.52093 -3.23423 0
M  V30 2978 S 283.474 2.26947 -3.75554 0
M  V30 2979 H 280.292 0.269377 -0.657995 0
M  V30 2980 H 282.894 0.0656269 -1.9539 0
M  V30 2981 H 281.598 0.81363 -4.02254 0
M  V30 2982 H 281.129 2.30361 -3.189 0
M  V30 2983 H 283.144 3.53027 -3.48692 0
M  V30 2984 N 282.317 1.53212 0.369288 0
M  V30 2985 C 283.594 1.59815 1.12776 0
M  V30 2986 C 283.974 0.403402 2.0721 0
M  V30 2987 O 283.322 -0.606667 2.20299 0
M  V30 2988 C 283.532 2.94664 1.87013 0
M  V30 2989 C 284.88 3.49109 2.41677 0
M  V30 2990 O 285.904 2.96669 1.97144 0
M  V30 2991 O 284.763 4.40775 3.23079 0
M  V30 2992 H 281.857 0.645376 0.517125 0
M  V30 2993 H 284.403 1.65553 0.37285 0
M  V30 2994 H 283.175 3.73061 1.18071 0
M  V30 2995 H 282.798 2.92401 2.69421 0
M  V30 2996 N 283.795 -0.628877 1.44509 0
M  V30 2997 C 285.042 -1.38839 1.47411 0
M  V30 2998 C 285.37 -1.94202 0.10757 0
M  V30 2999 O 284.625 -1.74243 -0.890947 0
M  V30 3000 C 284.924 -2.56995 2.48371 0
M  V30 3001 C 284.59 -2.19908 3.93639 0
M  V30 3002 C 283.252 -2.09506 4.33198 0
M  V30 3003 C 285.604 -1.9064 4.85083 0
M  V30 3004 C 282.932 -1.68028 5.62124 0
M  V30 3005 C 285.284 -1.50655 6.14399 0
M  V30 3006 C 283.948 -1.38796 6.5291 0
M  V30 3007 H 283.218 -0.508048 0.539414 0
M  V30 3008 H 285.865 -0.712913 1.77735 0
M  V30 3009 H 284.17 -3.29786 2.11538 0
M  V30 3010 H 285.867 -3.15223 2.47861 0
M  V30 3011 H 282.457 -2.28922 3.62343 0
M  V30 3012 H 286.641 -1.97585 4.55273 0
M  V30 3013 H 281.897 -1.57452 5.90778 0
M  V30 3014 H 286.071 -1.27048 6.84713 0
M  V30 3015 H 283.698 -1.06429 7.52713 0
M  V30 3016 N 285.273 -1.31445 -0.869486 0
M  V30 3017 C 286.52 -1.21158 -1.62256 0
M  V30 3018 C 286.848 0.230155 -1.93133 0
M  V30 3019 O 286.103 1.17906 -1.56194 0
M  V30 3020 C 286.402 -2.00145 -2.96102 0
M  V30 3021 C 286.068 -3.4964 -2.84715 0
M  V30 3022 C 284.73 -3.90403 -2.81317 0
M  V30 3023 C 287.082 -4.44769 -2.71716 0
M  V30 3024 C 284.41 -5.24561 -2.62778 0
M  V30 3025 C 286.762 -5.79054 -2.54714 0
M  V30 3026 C 285.426 -6.19037 -2.49699 0
M  V30 3027 H 284.696 -0.443348 -0.593737 0
M  V30 3028 H 287.343 -1.62715 -1.00976 0
M  V30 3029 H 285.648 -1.5127 -3.6142 0
M  V30 3030 H 287.345 -1.89566 -3.53363 0
M  V30 3031 H 283.935 -3.17256 -2.88178 0
M  V30 3032 H 288.119 -4.14208 -2.73397 0
M  V30 3033 H 283.375 -5.54613 -2.57321 0
M  V30 3034 H 287.549 -6.52393 -2.43632 0
M  V30 3035 H 285.176 -7.22935 -2.35093 0
M  V30 3036 N 286.751 1.08385 -1.14413 0
M  V30 3037 C 287.979 1.84517 -0.936001 0
M  V30 3038 C 288.394 1.81626 0.515503 0
M  V30 3039 O 287.751 1.22008 1.35721 0
M  V30 3040 C 287.802 3.32049 -1.42918 0
M  V30 3041 O 287.523 3.34951 -2.82381 0
M  V30 3042 C 289.024 4.24986 -1.26103 0
M  V30 3043 H 286.244 0.582491 -0.333084 0
M  V30 3044 H 288.788 1.36885 -1.5193 0
M  V30 3045 H 286.943 3.7707 -0.888641 0
M  V30 3046 H 287.357 4.27048 -3.04517 0
M  V30 3047 H 288.831 5.26615 -1.6547 0
M  V30 3048 H 289.308 4.38726 -0.20392 0
M  V30 3049 H 289.914 3.85791 -1.79012 0
M  V30 3050 N 288.23 0.939286 1.26551 0
M  V30 3051 C 289.178 0.43815 2.28436 0
M  V30 3052 C 290.172 -0.483587 1.62351 0
M  V30 3053 O 291.378 -0.362009 1.76322 0
M  V30 3054 H 287.753 0.123149 0.741848 0
M  V30 3055 H 289.724 1.31002 2.68106 0
M  V30 3056 C 288.473 -0.283052 3.46546 0
M  V30 3057 H 287.796 0.417043 3.97619 0
M  V30 3058 H 289.236 -0.597948 4.19763 0
M  V30 3059 C 287.695 -1.50018 3.01656 0
M  V30 3060 O 288.225 -2.59855 3.0633 0
M  V30 3061 N 286.431 -1.35608 2.57019 0
M  V30 3062 H 285.978 -0.46244 2.53415 0
M  V30 3063 H 285.936 -2.17165 2.27347 0
M  V30 3064 N 289.708 -1.40897 0.706093 0
M  V30 3065 C 290.64 -2.29199 0.00815776 0
M  V30 3066 C 291.653 -1.45336 -0.733582 0
M  V30 3067 O 292.842 -1.68727 -0.582537 0
M  V30 3068 C 289.942 -3.23417 -1.01265 0
M  V30 3069 C 289.115 -4.36089 -0.338387 0
M  V30 3070 C 288.174 -5.10811 -1.26326 0
M  V30 3071 O 287.2 -5.64215 -0.751651 0
M  V30 3072 N 288.402 -5.19269 -2.595 0
M  V30 3073 H 291.167 -2.89738 0.766297 0
M  V30 3074 H 288.728 -1.52164 0.55296 0
M  V30 3075 H 290.72 -3.70276 -1.63334 0
M  V30 3076 H 289.29 -2.64112 -1.67223 0
M  V30 3077 H 288.51 -3.91479 0.462352 0
M  V30 3078 H 289.798 -5.08634 0.130031 0
M  V30 3079 H 289.196 -4.77347 -3.03573 0
M  V30 3080 H 287.753 -5.69667 -3.16737 0
M  V30 3081 N 291.186 -0.45159 -1.50991 0
M  V30 3082 C 292.149 0.341117 -2.26647 0
M  V30 3083 C 293.149 0.937422 -1.30649 0
M  V30 3084 O 294.339 0.809644 -1.54241 0
M  V30 3085 C 291.471 1.48398 -3.06905 0
M  V30 3086 H 292.664 -0.322117 -2.98165 0
M  V30 3087 H 290.217 -0.205122 -1.54948 0
M  V30 3088 H 290.952 2.18284 -2.39838 0
M  V30 3089 H 290.737 1.06241 -3.77432 0
M  V30 3090 H 292.227 2.04367 -3.64176 0
M  V30 3091 N 292.664 1.56529 -0.183458 0
M  V30 3092 C 293.894 2.01331 0.463612 0
M  V30 3093 C 294.302 1.06278 1.5653 0
M  V30 3094 O 293.645 0.0577976 1.83609 0
M  V30 3095 C 293.707 3.42547 1.09096 0
M  V30 3096 C 293.371 4.56817 0.129442 0
M  V30 3097 C 294.368 5.15734 -0.656807 0
M  V30 3098 C 292.053 5.02295 0.02174 0
M  V30 3099 C 294.047 6.1857 -1.53784 0
M  V30 3100 C 291.734 6.04978 -0.862864 0
M  V30 3101 C 292.732 6.62988 -1.64123 0
M  V30 3102 O 292.42 7.63677 -2.51103 0
M  V30 3103 H 292.152 0.664917 0.121907 0
M  V30 3104 H 294.706 2.034 -0.285954 0
M  V30 3105 H 292.936 3.37428 1.88889 0
M  V30 3106 H 294.625 3.71228 1.64148 0
M  V30 3107 H 295.391 4.81473 -0.583839 0
M  V30 3108 H 291.27 4.56847 0.617392 0
M  V30 3109 H 294.814 6.63777 -2.14583 0
M  V30 3110 H 290.711 6.38663 -0.93699 0
M  V30 3111 H 291.479 7.81049 -2.44753 0
M  V30 3112 N 294.142 -0.090211 1.57342 0
M  V30 3113 C 295.105 -1.09335 2.01441 0
M  V30 3114 C 296.105 -1.32666 0.908641 0
M  V30 3115 O 297.295 -1.28697 1.174 0
M  V30 3116 C 294.427 -2.44136 2.3793 0
M  V30 3117 H 295.62 -0.713662 2.91285 0
M  V30 3118 H 293.173 -0.335404 1.52659 0
M  V30 3119 H 293.908 -2.86972 1.51055 0
M  V30 3120 H 293.693 -2.28548 3.18603 0
M  V30 3121 H 295.183 -3.16277 2.72688 0
M  V30 3122 N 295.62 -1.53406 -0.361157 0
M  V30 3123 C 296.869 -1.69022 -1.10066 0
M  V30 3124 C 297.182 -0.450838 -1.90333 0
M  V30 3125 O 298.388 -0.487617 -2.67085 0
M  V30 3126 C 296.844 -2.98812 -2.00598 0
M  V30 3127 C 296.452 -4.30027 -1.25621 0
M  V30 3128 C 298.196 -3.23795 -2.74513 0
M  V30 3129 C 296.103 -5.50903 -2.1508 0
M  V30 3130 H 295.033 -0.629776 -0.414606 0
M  V30 3131 H 297.684 -1.79907 -0.361348 0
M  V30 3132 H 296.066 -2.8174 -2.78278 0
M  V30 3133 H 297.24 -4.57745 -0.529739 0
M  V30 3134 H 295.555 -4.11522 -0.635496 0
M  V30 3135 H 298.152 -4.11289 -3.41681 0
M  V30 3136 H 298.495 -2.40045 -3.40123 0
M  V30 3137 H 299.028 -3.41561 -2.03914 0
M  V30 3138 H 295.767 -6.37143 -1.54041 0
M  V30 3139 H 295.287 -5.27459 -2.85565 0
M  V30 3140 H 296.966 -5.85865 -2.74538 0
M  V30 3141 N 297.098 0.621204 -1.44841 0
M  V30 3142 C 298.061 1.71459 -1.521 0
M  V30 3143 C 299.061 1.55696 -0.401933 0
M  V30 3144 O 300.251 1.61011 -0.664925 0
M  V30 3145 C 297.383 3.10624 -1.40447 0
M  V30 3146 H 298.576 1.66394 -2.49506 0
M  V30 3147 H 296.129 0.835745 -1.3208 0
M  V30 3148 H 296.864 3.21277 -0.441737 0
M  V30 3149 H 296.649 3.23473 -2.21602 0
M  V30 3150 H 298.139 3.90293 -1.4853 0
M  V30 3151 N 298.576 1.31904 0.862503 0
M  V30 3152 C 299.801 1.25135 1.65397 0
M  V30 3153 C 300.226 -0.179 1.87246 0
M  V30 3154 O 299.584 -1.1277 1.4196 0
M  V30 3155 C 299.632 2.00832 2.99498 0
M  V30 3156 O 298.736 1.35075 3.89652 0
M  V30 3157 H 298.077 0.431655 0.504549 0
M  V30 3158 H 300.607 1.74094 1.07483 0
M  V30 3159 H 300.617 2.10709 3.49379 0
M  V30 3160 H 299.292 3.04847 2.82916 0
M  V30 3161 H 297.869 1.33696 3.48109 0
M  V30 3162 N 300.054 -1.07777 1.14986 0
M  V30 3163 C 301.279 -1.84558 0.946213 0
M  V30 3164 C 301.704 -1.81323 -0.500362 0
M  V30 3165 O 301.062 -1.20301 -1.35637 0
M  V30 3166 C 301.11 -3.29736 1.45968 0
M  V30 3167 O 300.214 -4.07149 0.65601 0
M  V30 3168 H 299.555 -0.571641 0.33782 0
M  V30 3169 H 302.085 -1.35991 1.52865 0
M  V30 3170 H 302.095 -3.80574 1.47063 0
M  V30 3171 H 300.77 -3.31406 2.51283 0
M  V30 3172 H 299.347 -3.65994 0.714322 0
M  V30 3173 N 301.532 -0.945985 -1.26051 0
M  V30 3174 C 302.781 -0.591836 -1.92822 0
M  V30 3175 C 303.094 0.873956 -1.7499 0
M  V30 3176 O 304.3 1.33769 -2.36259 0
M  V30 3177 C 302.756 -1.00776 -3.45503 0
M  V30 3178 C 302.364 -2.4955 -3.7206 0
M  V30 3179 C 304.108 -0.725735 -4.1825 0
M  V30 3180 C 302.015 -2.84988 -5.18205 0
M  V30 3181 H 300.945 -0.217635 -0.721908 0
M  V30 3182 H 303.596 -1.14927 -1.43052 0
M  V30 3183 H 301.978 -0.378812 -3.94184 0
M  V30 3184 H 303.152 -3.1739 -3.34066 0
M  V30 3185 H 301.467 -2.75133 -3.12555 0
M  V30 3186 H 304.064 -0.966771 -5.25887 0
M  V30 3187 H 304.407 0.337639 -4.14929 0
M  V30 3188 H 304.94 -1.31463 -3.7545 0
M  V30 3189 H 301.679 -3.90307 -5.26631 0
M  V30 3190 H 301.199 -2.21813 -5.57278 0
M  V30 3191 H 302.878 -2.73712 -5.86252 0
M  V30 3192 N 303.011 1.40521 -0.713556 0
M  V30 3193 C 304.257 2.01221 -0.252564 0
M  V30 3194 C 304.59 1.56444 1.1506 0
M  V30 3195 O 303.865 0.783597 1.78017 0
M  V30 3196 C 304.148 3.58582 -0.330332 0
M  V30 3197 C 304.001 4.13437 -1.77173 0
M  V30 3198 C 305.32 4.39079 0.299641 0
M  V30 3199 H 302.439 0.731077 -0.0932471 0
M  V30 3200 H 305.081 1.67026 -0.905673 0
M  V30 3201 H 303.231 3.87844 0.225737 0
M  V30 3202 H 304.903 3.9498 -2.38303 0
M  V30 3203 H 303.146 3.67801 -2.3001 0
M  V30 3204 H 303.817 5.22597 -1.77755 0
M  V30 3205 H 306.293 4.15735 -0.174139 0
M  V30 3206 H 305.169 5.4848 0.214771 0
M  V30 3207 H 305.43 4.19915 1.38288 0
M  V30 3208 N 304.489 0.459591 1.5075 0
M  V30 3209 C 305.714 -0.0996819 2.0716 0
M  V30 3210 C 306.139 -1.33761 1.32249 0
M  V30 3211 O 305.497 -1.77551 0.366786 0
M  V30 3212 C 305.545 -0.378226 3.58611 0
M  V30 3213 O 304.649 -1.46081 3.85661 0
M  V30 3214 H 303.99 0.00791392 0.663953 0
M  V30 3215 H 306.52 0.647329 1.9409 0
M  V30 3216 H 306.53 -0.622135 4.03229 0
M  V30 3217 H 305.205 0.526439 4.12555 0
M  V30 3218 H 303.782 -1.20511 3.5289 0
M  V30 3219 N 305.967 -1.56429 0.191757 0
M  V30 3220 C 307.214 -1.97485 -0.447891 0
M  V30 3221 C 307.542 -1.07852 -1.61859 0
M  V30 3222 O 306.797 -0.116903 -1.95351 0
M  V30 3223 C 307.096 -3.44449 -0.953384 0
M  V30 3224 C 306.762 -4.50781 0.103586 0
M  V30 3225 C 305.424 -4.79584 0.394023 0
M  V30 3226 C 307.776 -5.1471 0.819946 0
M  V30 3227 C 305.104 -5.69607 1.40585 0
M  V30 3228 C 307.456 -6.05827 1.8209 0
M  V30 3229 C 306.12 -6.32987 2.11857 0
M  V30 3230 H 305.39 -0.722648 -0.163895 0
M  V30 3231 H 308.037 -1.89322 0.28802 0
M  V30 3232 H 306.342 -3.49666 -1.76751 0
M  V30 3233 H 308.039 -3.73569 -1.45765 0
M  V30 3234 H 304.629 -4.28394 -0.132951 0
M  V30 3235 H 308.813 -4.92552 0.608789 0
M  V30 3236 H 304.069 -5.88926 1.64243 0
M  V30 3237 H 308.243 -6.54424 2.38123 0
M  V30 3238 H 305.87 -7.02544 2.90407 0
M  V30 3239 N 307.445 0.0818655 -1.57387 0
M  V30 3240 C 308.675 0.794954 -1.90694 0
M  V30 3241 C 309.083 1.72147 -0.784982 0
M  V30 3242 O 308.426 1.81974 0.251196 0
M  V30 3243 C 308.488 1.65042 -3.19376 0
M  V30 3244 C 308.152 0.894337 -4.48164 0
M  V30 3245 C 309.149 0.21813 -5.19442 0
M  V30 3246 C 306.834 0.864495 -4.94805 0
M  V30 3247 C 308.828 -0.477802 -6.35607 0
M  V30 3248 C 306.515 0.164785 -6.10878 0
M  V30 3249 C 307.513 -0.505173 -6.81129 0
M  V30 3250 O 307.201 -1.19363 -7.94989 0
M  V30 3251 H 306.933 0.231779 -0.635023 0
M  V30 3252 H 309.487 0.059493 -2.05314 0
M  V30 3253 H 307.717 2.42844 -3.00938 0
M  V30 3254 H 309.406 2.24127 -3.38411 0
M  V30 3255 H 310.172 0.232558 -4.84442 0
M  V30 3256 H 306.051 1.37542 -4.40004 0
M  V30 3257 H 309.595 -1.00129 -6.90377 0
M  V30 3258 H 305.492 0.148249 -6.4533 0
M  V30 3259 H 306.26 -1.10188 -8.11049 0
M  V30 3260 N 308.923 1.53595 0.353017 0
M  V30 3261 C 310.169 1.70638 1.09593 0
M  V30 3262 C 310.502 0.463286 1.88593 0
M  V30 3263 O 309.777 -0.539597 1.86865 0
M  V30 3264 C 310.06 2.96406 2.04489 0
M  V30 3265 C 309.913 4.30901 1.29014 0
M  V30 3266 C 311.232 3.17812 3.0444 0
M  V30 3267 H 308.351 0.620913 0.397034 0
M  V30 3268 H 310.993 1.86254 0.375446 0
M  V30 3269 H 309.143 2.83223 2.65927 0
M  V30 3270 H 310.815 4.55917 0.702638 0
M  V30 3271 H 309.058 4.29741 0.592071 0
M  V30 3272 H 309.729 5.1506 1.98537 0
M  V30 3273 H 312.205 3.30263 2.53112 0
M  V30 3274 H 311.081 4.07223 3.6805 0
M  V30 3275 H 311.342 2.33669 3.75301 0
M  V30 3276 N 310.401 -0.613514 1.45168 0
M  V30 3277 C 311.812 -1.19539 1.43413 0
M  V30 3278 C 312.163 -1.95558 0.158632 0
M  V30 3279 O 311.288 -2.0335 -0.740119 0
M  V30 3280 C 311.883 -2.17445 2.59813 0
M  V30 3281 C 310.442 -2.71022 2.61197 0
M  V30 3282 C 309.589 -1.46323 2.35552 0
M  V30 3283 H 312.54 -0.403163 1.53494 0
M  V30 3284 H 312.561 -3.00373 2.33574 0
M  V30 3285 H 312.073 -1.62089 3.52631 0
M  V30 3286 H 310.174 -3.30332 1.7237 0
M  V30 3287 H 310.287 -3.15859 3.60236 0
M  V30 3288 H 308.651 -1.75072 1.84992 0
M  V30 3289 H 309.434 -0.92844 3.30507 0
M  V30 3290 N 311.879 -1.3236 -0.855495 0
M  V30 3291 C 312.809 -1.23833 -1.97958 0
M  V30 3292 C 313.79 -0.122361 -1.69659 0
M  V30 3293 O 314.975 -0.30939 -1.9172 0
M  V30 3294 C 312.105 -0.959772 -3.33775 0
M  V30 3295 C 311.059 -2.03689 -3.76424 0
M  V30 3296 C 310.385 -1.61075 -5.09862 0
M  V30 3297 C 311.685 -3.4518 -3.9198 0
M  V30 3298 H 313.379 -2.1788 -2.0535 0
M  V30 3299 H 310.925 -1.04891 -0.986605 0
M  V30 3300 H 312.878 -0.886678 -4.11966 0
M  V30 3301 H 311.602 0.0163404 -3.26596 0
M  V30 3302 H 310.261 -2.10012 -3.00484 0
M  V30 3303 H 309.909 -0.622107 -4.99138 0
M  V30 3304 H 309.609 -2.33143 -5.39368 0
M  V30 3305 H 311.133 -1.55201 -5.90546 0
M  V30 3306 H 312.547 -3.4145 -4.60526 0
M  V30 3307 H 310.944 -4.1559 -4.32903 0
M  V30 3308 H 312.014 -3.84903 -2.94919 0
M  V30 3309 N 313.357 1.07166 -1.15556 0
M  V30 3310 C 314.603 1.80065 -0.932984 0
M  V30 3311 C 314.936 1.86586 0.53845 0
M  V30 3312 O 314.211 1.35098 1.39924 0
M  V30 3313 C 314.494 3.25022 -1.55025 0
M  V30 3314 C 314.347 3.26634 -3.09242 0
M  V30 3315 C 315.666 4.22341 -1.2376 0
M  V30 3316 H 312.785 0.653697 -0.340366 0
M  V30 3317 H 315.427 1.25389 -1.4275 0
M  V30 3318 H 313.577 3.71712 -1.12972 0
M  V30 3319 H 315.249 2.88173 -3.60214 0
M  V30 3320 H 313.492 2.65539 -3.43033 0
M  V30 3321 H 314.163 4.28854 -3.47546 0
M  V30 3322 H 316.639 3.8405 -1.60139 0
M  V30 3323 H 315.515 5.22053 -1.69564 0
M  V30 3324 H 315.776 4.41828 -0.154938 0
M  V30 3325 N 314.835 0.952656 1.25548 0
M  V30 3326 C 316.084 0.602053 1.92505 0
M  V30 3327 C 316.397 -0.864663 1.75451 0
M  V30 3328 O 317.603 -1.32514 2.36965 0
M  V30 3329 C 316.059 1.02607 3.44963 0
M  V30 3330 C 315.667 2.51519 3.70732 0
M  V30 3331 C 317.411 0.747905 4.1786 0
M  V30 3332 C 315.318 2.87732 5.16686 0
M  V30 3333 H 314.248 0.22146 0.720744 0
M  V30 3334 H 316.899 1.15684 1.42441 0
M  V30 3335 H 315.281 0.399712 3.93978 0
M  V30 3336 H 316.455 3.19157 3.32378 0
M  V30 3337 H 314.77 2.76786 3.11092 0
M  V30 3338 H 317.367 0.994647 5.25367 0
M  V30 3339 H 317.71 -0.315629 4.15102 0
M  V30 3340 H 318.243 1.33452 3.74747 0
M  V30 3341 H 314.982 3.93095 5.24554 0
M  V30 3342 H 314.502 2.24765 5.56094 0
M  V30 3343 H 316.181 2.76817 5.84792 0
M  V30 3344 N 316.313 -1.40141 0.720998 0
M  V30 3345 C 317.246 -2.2819 0.020916 0
M  V30 3346 C 318.224 -1.43633 -0.762129 0
M  V30 3347 O 319.408 -1.7304 -0.747633 0
M  V30 3348 C 316.535 -3.24281 -0.977715 0
M  V30 3349 C 315.581 -4.25548 -0.284836 0
M  V30 3350 S 316.414 -5.26247 0.991169 0
M  V30 3351 C 317.57 -6.259 -0.0052214 0
M  V30 3352 H 317.803 -2.87218 0.767649 0
M  V30 3353 H 315.336 -1.45656 0.512233 0
M  V30 3354 H 317.294 -3.80167 -1.54865 0
M  V30 3355 H 315.955 -2.643 -1.69719 0
M  V30 3356 H 315.148 -4.93154 -1.03996 0
M  V30 3357 H 314.75 -3.73389 0.213684 0
M  V30 3358 H 317.042 -6.72143 -0.850279 0
M  V30 3359 H 317.985 -7.05224 0.637599 0
M  V30 3360 H 318.393 -5.63277 -0.371366 0
M  V30 3361 N 317.792 -0.46758 -1.50504 0
M  V30 3362 C 319.038 0.0887532 -2.02606 0
M  V30 3363 C 319.371 1.39686 -1.34913 0
M  V30 3364 O 318.646 1.88644 -0.473694 0
M  V30 3365 C 318.929 0.276206 -3.59039 0
M  V30 3366 C 318.782 -1.05267 -4.37309 0
M  V30 3367 C 320.101 1.03235 -4.27821 0
M  V30 3368 H 317.22 0.0307814 -0.736357 0
M  V30 3369 H 319.862 -0.612485 -1.79857 0
M  V30 3370 H 318.012 0.8735 -3.78553 0
M  V30 3371 H 319.684 -1.68628 -4.29374 0
M  V30 3372 H 317.927 -1.65015 -4.01189 0
M  V30 3373 H 318.598 -0.875197 -5.45018 0
M  V30 3374 H 321.074 0.526111 -4.12761 0
M  V30 3375 H 319.95 1.1323 -5.37094 0
M  V30 3376 H 320.211 2.06806 -3.90748 0
M  V30 3377 N 319.27 1.56325 -0.20005 0
M  V30 3378 C 320.517 1.97719 0.437411 0
M  V30 3379 C 320.845 1.08709 1.61284 0
M  V30 3380 O 320.1 0.127261 1.95286 0
M  V30 3381 C 320.399 3.4495 0.935103 0
M  V30 3382 C 320.065 4.5072 -0.12749 0
M  V30 3383 C 318.727 4.79368 -0.419451 0
M  V30 3384 C 321.079 5.14268 -0.847231 0
M  V30 3385 C 318.407 5.68854 -1.43604 0
M  V30 3386 C 320.759 6.04852 -1.85301 0
M  V30 3387 C 319.423 6.31855 -2.15211 0
M  V30 3388 H 318.693 0.723507 0.16006 0
M  V30 3389 H 321.34 1.89166 -0.298056 0
M  V30 3390 H 319.645 3.50599 1.74894 0
M  V30 3391 H 321.342 3.74337 1.43781 0
M  V30 3392 H 317.932 4.28458 0.11023 0
M  V30 3393 H 322.116 4.92222 -0.634901 0
M  V30 3394 H 317.372 5.88047 -1.67364 0
M  V30 3395 H 321.546 6.53152 -2.41591 0
M  V30 3396 H 319.173 7.00994 -2.94129 0
M  V30 3397 N 320.748 -0.0735177 1.57428 0
M  V30 3398 C 321.994 -0.774145 1.87443 0
M  V30 3399 C 322.327 -1.77311 0.792103 0
M  V30 3400 O 321.602 -1.93492 -0.197793 0
M  V30 3401 C 321.885 -1.48367 3.28115 0
M  V30 3402 C 321.738 -0.501227 4.46999 0
M  V30 3403 C 323.057 -2.429 3.66998 0
M  V30 3404 H 320.176 -0.279971 0.681752 0
M  V30 3405 H 322.818 -0.0373616 1.89963 0
M  V30 3406 H 320.968 -2.11171 3.26097 0
M  V30 3407 H 322.64 0.121468 4.6114 0
M  V30 3408 H 320.883 0.183593 4.33411 0
M  V30 3409 H 321.554 -1.03526 5.42205 0
M  V30 3410 H 324.03 -1.90175 3.70098 0
M  V30 3411 H 322.906 -2.89549 4.66318 0
M  V30 3412 H 323.167 -3.27628 2.96837 0
M  V30 3413 N 322.226 -1.5378 -0.344866 0
M  V30 3414 C 323.456 -1.74646 -1.10374 0
M  V30 3415 C 323.864 -0.48491 -1.8288 0
M  V30 3416 O 323.207 0.553062 -1.75177 0
M  V30 3417 C 323.269 -2.87145 -2.16306 0
M  V30 3418 C 322.933 -4.26795 -1.63386 0
M  V30 3419 C 323.93 -5.08412 -1.08688 0
M  V30 3420 C 321.615 -4.73276 -1.68272 0
M  V30 3421 C 323.609 -6.34609 -0.595792 0
M  V30 3422 C 321.296 -5.99446 -1.18776 0
M  V30 3423 C 322.294 -6.79946 -0.645215 0
M  V30 3424 O 321.982 -8.03745 -0.157626 0
M  V30 3425 H 321.714 -0.587112 -0.335075 0
M  V30 3426 H 324.268 -2.01403 -0.403252 0
M  V30 3427 H 322.498 -2.55909 -2.89909 0
M  V30 3428 H 324.187 -2.95992 -2.77747 0
M  V30 3429 H 324.953 -4.73666 -1.04236 0
M  V30 3430 H 320.832 -4.10677 -2.09442 0
M  V30 3431 H 324.376 -6.97389 -0.171654 0
M  V30 3432 H 320.273 -6.33687 -1.22928 0
M  V30 3433 H 321.041 -8.18038 -0.275037 0
M  V30 3434 N 323.704 0.605807 -1.45491 0
M  V30 3435 C 324.929 1.39625 -1.53361 0
M  V30 3436 C 325.354 1.87351 -0.167645 0
M  V30 3437 O 324.712 1.60243 0.848051 0
M  V30 3438 C 324.76 2.57559 -2.5238 0
M  V30 3439 O 323.864 3.58248 -2.04285 0
M  V30 3440 H 323.205 0.416771 -0.516912 0
M  V30 3441 H 325.735 0.737103 -1.90861 0
M  V30 3442 H 325.745 3.0478 -2.71244 0
M  V30 3443 H 324.42 2.22171 -3.51586 0
M  V30 3444 H 322.997 3.17664 -1.95305 0
M  V30 3445 N 325.182 1.32811 0.848464 0
M  V30 3446 C 326.598 1.11937 1.13764 0
M  V30 3447 C 326.798 -0.0960789 2.01271 0
M  V30 3448 O 325.854 -0.779165 2.40178 0
M  V30 3449 C 327.167 2.402 1.809 0
M  V30 3450 C 328.715 2.46016 1.93508 0
M  V30 3451 C 329.19 3.74215 2.64059 0
M  V30 3452 N 330.681 3.75232 2.71579 0
M  V30 3453 C 331.416 4.71134 3.26833 0
M  V30 3454 N 330.912 5.77406 3.8285 0
M  V30 3455 N 332.705 4.58623 3.24995 0
M  V30 3456 H 324.856 2.1073 0.265855 0
M  V30 3457 H 327.119 0.930671 0.180431 0
M  V30 3458 H 326.825 3.29093 1.24058 0
M  V30 3459 H 326.699 2.51628 2.81004 0
M  V30 3460 H 329.086 1.57577 2.49506 0
M  V30 3461 H 329.167 2.38536 0.923811 0
M  V30 3462 H 328.811 4.63031 2.08722 0
M  V30 3463 H 328.741 3.78968 3.65637 0
M  V30 3464 H 331.232 2.98423 2.31845 0
M  V30 3465 H 331.545 6.46632 4.23187 0
M  V30 3466 H 329.89 5.81152 3.81165 0
M  V30 3467 H 333.081 3.74762 2.80484 0
M  V30 3468 H 333.254 5.33535 3.67756 0
M  V30 3469 N 326.66 -1.06551 1.16123 0
M  V30 3470 C 327.906 -1.79567 0.94252 0
M  V30 3471 C 328.239 -1.86869 -0.528547 0
M  V30 3472 O 327.514 -1.35838 -1.39206 0
M  V30 3473 C 327.797 -3.24195 1.56747 0
M  V30 3474 C 327.65 -3.24989 3.10969 0
M  V30 3475 C 328.969 -4.21678 1.25998 0
M  V30 3476 H 326.088 -0.651883 0.343828 0
M  V30 3477 H 328.73 -1.2463 1.43413 0
M  V30 3478 H 326.88 -3.71107 1.14942 0
M  V30 3479 H 328.552 -2.86258 3.61737 0
M  V30 3480 H 326.795 -2.63716 3.44436 0
M  V30 3481 H 327.466 -4.27005 3.49815 0
M  V30 3482 H 329.942 -3.83196 1.62174 0
M  V30 3483 H 328.818 -5.21146 1.7233 0
M  V30 3484 H 329.079 -4.4174 0.178367 0
M  V30 3485 N 328.138 -0.959301 -1.25041 0
M  V30 3486 C 329.385 -0.616611 -1.92884 0
M  V30 3487 C 329.713 0.847036 -1.75087 0
M  V30 3488 O 328.968 1.62374 -1.09239 0
M  V30 3489 C 329.267 -0.927136 -3.45165 0
M  V30 3490 C 328.933 -2.37757 -3.83122 0
M  V30 3491 C 327.595 -2.77402 -3.93194 0
M  V30 3492 C 329.947 -3.31929 -4.01836 0
M  V30 3493 C 327.275 -4.10277 -4.19392 0
M  V30 3494 C 329.627 -4.64423 -4.29528 0
M  V30 3495 C 328.291 -5.03857 -4.37818 0
M  V30 3496 H 327.561 -0.225634 -0.705812 0
M  V30 3497 H 330.208 -1.20921 -1.48493 0
M  V30 3498 H 328.513 -0.252195 -3.90987 0
M  V30 3499 H 330.21 -0.6405 -3.95852 0
M  V30 3500 H 326.8 -2.06013 -3.75841 0
M  V30 3501 H 330.984 -3.02488 -3.93465 0
M  V30 3502 H 326.24 -4.40467 -4.24027 0
M  V30 3503 H 330.414 -5.37369 -4.42953 0
M  V30 3504 H 328.041 -6.06843 -4.57871 0
M  V30 3505 N 329.616 1.39756 -0.72842 0
M  V30 3506 C 330.548 2.29157 -0.0446202 0
M  V30 3507 C 331.561 1.46484 0.710367 0
M  V30 3508 O 332.75 1.69632 0.55562 0
M  V30 3509 C 329.85 3.24987 0.961071 0
M  V30 3510 C 329.023 4.36572 0.268967 0
M  V30 3511 C 328.082 5.12756 1.18184 0
M  V30 3512 O 327.108 5.6534 0.661794 0
M  V30 3513 N 328.31 5.23331 2.51206 0
M  V30 3514 H 331.075 2.88482 -0.812295 0
M  V30 3515 H 328.636 1.51265 -0.577098 0
M  V30 3516 H 330.628 3.72827 1.57423 0
M  V30 3517 H 329.198 2.66739 1.63 0
M  V30 3518 H 328.418 3.90694 -0.524574 0
M  V30 3519 H 329.706 5.08363 -0.210934 0
M  V30 3520 H 329.104 4.82116 2.9594 0
M  V30 3521 H 327.661 5.74634 3.07634 0
M  V30 3522 N 331.094 0.475555 1.50254 0
M  V30 3523 C 332.004 -0.321501 2.32387 0
M  V30 3524 C 333.02 -0.991755 1.42969 0
M  V30 3525 O 334.196 -0.978747 1.76018 0
M  V30 3526 C 331.261 -1.38667 3.17762 0
M  V30 3527 C 330.322 -0.732538 4.23004 0
M  V30 3528 C 329.555 -1.74695 5.04299 0
M  V30 3529 O 329.778 -2.97399 4.86734 0
M  V30 3530 O 328.712 -1.31631 5.8733 0
M  V30 3531 H 332.538 0.350071 3.01676 0
M  V30 3532 H 330.123 0.237321 1.47503 0
M  V30 3533 H 332.005 -2.00354 3.70724 0
M  V30 3534 H 330.68 -2.04163 2.51196 0
M  V30 3535 H 329.587 -0.0765902 3.74022 0
M  V30 3536 H 330.92 -0.120452 4.92053 0
M  V30 3537 N 332.573 -1.56217 0.208337 0
M  V30 3538 C 333.536 -2.18455 -0.693557 0
M  V30 3539 C 334.536 -1.14268 -1.13135 0
M  V30 3540 O 335.726 -1.39577 -1.0423 0
M  V30 3541 C 332.858 -2.79727 -1.94848 0
M  V30 3542 H 334.051 -2.99519 -0.15114 0
M  V30 3543 H 331.604 -1.56245 -0.041287 0
M  V30 3544 H 332.339 -2.02497 -2.53309 0
M  V30 3545 H 332.124 -3.56009 -1.64316 0
M  V30 3546 H 333.614 -3.27475 -2.59133 0
M  V30 3547 N 334.051 0.0651679 -1.57465 0
M  V30 3548 C 334.998 1.07675 -2.04144 0
M  V30 3549 C 335.968 1.38071 -0.923335 0
M  V30 3550 O 337.153 1.49026 -1.19146 0
M  V30 3551 C 334.293 2.38337 -2.49579 0
M  V30 3552 C 333.406 2.14413 -3.75035 0
M  V30 3553 C 332.541 3.38686 -4.09225 0
M  V30 3554 C 331.58 3.10156 -5.27702 0
M  V30 3555 N 330.717 4.26778 -5.57499 0
M  V30 3556 H 335.557 0.671716 -2.90331 0
M  V30 3557 H 333.094 0.3201 -1.43575 0
M  V30 3558 H 335.052 3.14632 -2.73975 0
M  V30 3559 H 333.682 2.7663 -1.6636 0
M  V30 3560 H 332.734 1.2878 -3.57939 0
M  V30 3561 H 334.046 1.89344 -4.61466 0
M  V30 3562 H 333.2 4.23373 -4.34558 0
M  V30 3563 H 331.939 3.66837 -3.21374 0
M  V30 3564 H 330.944 2.23866 -5.02159 0
M  V30 3565 H 332.169 2.8332 -6.17176 0
M  V30 3566 H 330.115 4.54948 -4.72608 0
M  V30 3567 H 330.032 4.05005 -6.38362 0
M  V30 3568 H 331.3 5.12443 -5.87386 0
M  V30 3569 N 335.529 1.53961 0.336706 0
M  V30 3570 C 336.945 1.44378 0.680241 0
M  V30 3571 C 337.145 0.606034 1.9217 0
M  V30 3572 O 336.201 0.099688 2.52303 0
M  V30 3573 C 337.514 2.87945 0.8665 0
M  V30 3574 C 339.062 2.97763 0.964682 0
M  V30 3575 C 339.537 4.42453 1.18321 0
M  V30 3576 N 341.028 4.46008 1.25025 0
M  V30 3577 C 341.763 5.55102 1.43697 0
M  V30 3578 N 341.259 6.7419 1.59498 0
M  V30 3579 N 343.052 5.42727 1.463 0
M  V30 3580 H 335.203 2.06918 -0.479455 0
M  V30 3581 H 337.466 0.935634 -0.152619 0
M  V30 3582 H 337.172 3.51691 0.0256937 0
M  V30 3583 H 337.046 3.33293 1.76623 0
M  V30 3584 H 339.433 2.34153 1.796 0
M  V30 3585 H 339.514 2.55766 0.041708 0
M  V30 3586 H 339.158 5.06645 0.356788 0
M  V30 3587 H 339.088 4.82048 2.11985 0
M  V30 3588 H 341.579 3.60196 1.14312 0
M  V30 3589 H 341.892 7.53095 1.734 0
M  V30 3590 H 340.237 6.77123 1.56621 0
M  V30 3591 H 343.428 4.48647 1.33543 0
M  V30 3592 H 343.601 6.27806 1.6051 0
M  V30 3593 N 337.007 -0.598083 1.45811 0
M  V30 3594 C 337.939 -1.72231 1.51225 0
M  V30 3595 C 338.952 -1.57757 0.402059 0
M  V30 3596 O 340.141 -1.65464 0.669624 0
M  V30 3597 C 337.241 -3.10331 1.3619 0
M  V30 3598 C 336.414 -3.50955 2.61054 0
M  V30 3599 C 335.473 -4.68055 2.40439 0
M  V30 3600 O 334.499 -4.74691 3.14097 0
M  V30 3601 N 335.701 -5.61941 1.45612 0
M  V30 3602 H 338.466 -1.68046 2.48154 0
M  V30 3603 H 336.027 -0.783637 1.41671 0
M  V30 3604 H 338.019 -3.86439 1.20195 0
M  V30 3605 H 336.589 -3.0897 0.475015 0
M  V30 3606 H 335.809 -2.64711 2.92099 0
M  V30 3607 H 337.097 -3.74858 3.44034 0
M  V30 3608 H 336.495 -5.59301 0.848431 0
M  V30 3609 H 335.052 -6.37542 1.35585 0
M  V30 3610 N 338.485 -1.33259 -0.841409 0
M  V30 3611 C 339.415 -1.25926 -1.96634 0
M  V30 3612 C 340.396 -0.140349 -1.6952 0
M  V30 3613 O 341.581 -0.329707 -1.91381 0
M  V30 3614 C 338.711 -0.99512 -3.32738 0
M  V30 3615 C 337.665 -2.0767 -3.74242 0
M  V30 3616 C 336.991 -1.66474 -5.08125 0
M  V30 3617 C 338.291 -3.49318 -3.88297 0
M  V30 3618 H 339.985 -2.20046 -2.03027 0
M  V30 3619 H 337.531 -1.05931 -0.975425 0
M  V30 3620 H 339.484 -0.930323 -4.11002 0
M  V30 3621 H 338.208 -0.0183004 -3.26595 0
M  V30 3622 H 336.867 -2.13187 -2.98239 0
M  V30 3623 H 336.515 -0.675012 -4.9845 0
M  V30 3624 H 336.215 -2.3885 -5.36865 0
M  V30 3625 H 337.739 -1.61455 -5.88867 0
M  V30 3626 H 339.153 -3.46316 -4.56879 0
M  V30 3627 H 337.55 -4.20158 -4.28471 0
M  V30 3628 H 338.62 -3.8801 -2.9082 0
M  V30 3629 N 339.963 1.05934 -1.16686 0
M  V30 3630 C 340.895 2.13468 -0.834503 0
M  V30 3631 C 341.908 1.62013 0.15984 0
M  V30 3632 O 343.097 1.7838 -0.0654228 0
M  V30 3633 C 340.197 3.3817 -0.222361 0
M  V30 3634 C 339.37 4.18928 -1.25771 0
M  V30 3635 C 338.429 5.21985 -0.664703 0
M  V30 3636 O 337.455 5.53334 -1.33453 0
M  V30 3637 N 338.657 5.77919 0.546834 0
M  V30 3638 H 341.422 2.42578 -1.75999 0
M  V30 3639 H 338.983 1.21967 -1.06469 0
M  V30 3640 H 340.975 4.04266 0.187472 0
M  V30 3641 H 339.545 3.06655 0.606758 0
M  V30 3642 H 338.765 3.48433 -1.84358 0
M  V30 3643 H 340.053 4.69687 -1.95631 0
M  V30 3644 H 339.451 5.54721 1.10912 0
M  V30 3645 H 338.008 6.45573 0.898829 0
M  V30 3646 N 341.441 0.965919 1.2453 0
M  V30 3647 C 342.388 0.49402 2.25451 0
M  V30 3648 C 343.358 -0.45948 1.59618 0
M  V30 3649 O 344.543 -0.370238 1.87173 0
M  V30 3650 C 341.683 -0.211359 3.44452 0
M  V30 3651 C 340.796 0.7807 4.24887 0
M  V30 3652 C 339.931 0.0516105 5.31175 0
M  V30 3653 C 338.97 1.03385 6.03306 0
M  V30 3654 N 338.107 0.334887 7.01301 0
M  V30 3655 H 342.947 1.35946 2.65184 0
M  V30 3656 H 340.484 0.681515 1.3036 0
M  V30 3657 H 342.442 -0.637 4.12308 0
M  V30 3658 H 341.072 -1.04077 3.05562 0
M  V30 3659 H 340.124 1.32479 3.56586 0
M  V30 3660 H 341.436 1.52978 4.74762 0
M  V30 3661 H 340.59 -0.432114 6.05159 0
M  V30 3662 H 339.329 -0.730179 4.82203 0
M  V30 3663 H 338.334 1.52847 5.28127 0
M  V30 3664 H 339.559 1.81606 6.54367 0
M  V30 3665 H 337.505 -0.427959 6.54603 0
M  V30 3666 H 337.422 1.02287 7.49048 0
M  V30 3667 H 338.69 -0.126928 7.79397 0
M  V30 3668 N 342.919 -1.39368 0.735821 0
M  V30 3669 C 344.168 -1.99733 0.281004 0
M  V30 3670 C 344.481 -1.59055 -1.13846 0
M  V30 3671 O 345.687 -2.12262 -1.69284 0
M  V30 3672 C 344.143 -3.57057 0.451462 0
M  V30 3673 C 343.751 -4.06697 1.87886 0
M  V30 3674 C 345.495 -4.2446 0.0584616 0
M  V30 3675 C 343.402 -5.56598 1.99883 0
M  V30 3676 H 342.332 -0.747163 0.101311 0
M  V30 3677 H 344.983 -1.59357 0.909819 0
M  V30 3678 H 343.365 -3.95234 -0.246263 0
M  V30 3679 H 344.539 -3.79853 2.60861 0
M  V30 3680 H 342.854 -3.5196 2.22515 0
M  V30 3681 H 345.451 -5.34549 0.127099 0
M  V30 3682 H 345.794 -4.04444 -0.986433 0
M  V30 3683 H 346.327 -3.9146 0.707374 0
M  V30 3684 H 343.066 -5.81494 3.02564 0
M  V30 3685 H 342.586 -5.85242 1.31346 0
M  V30 3686 H 344.265 -6.22022 1.78039 0
M  V30 3687 N 344.397 -0.483516 -1.5 0
M  V30 3688 C 345.674 0.129337 -1.95172 0
M  V30 3689 C 346.054 1.55802 -1.4244 0
M  V30 3690 O 345.402 2.19625 -0.630649 0
M  V30 3691 C 345.612 0.0599251 -3.48949 0
M  V30 3692 C 346.96 0.242617 -4.23906 0
M  V30 3693 O 347.984 0.135933 -3.55941 0
M  V30 3694 O 346.843 0.459454 -5.44565 0
M  V30 3695 H 343.937 0.104887 -0.820322 0
M  V30 3696 H 346.483 -0.544807 -1.60717 0
M  V30 3697 H 345.255 -0.937079 -3.79914 0
M  V30 3698 H 344.878 0.774984 -3.89974 0
M  V30 3699 N 345.875 1.56104 -0.216619 0
M  V30 3700 C 346.822 2.2007 0.695531 0
M  V30 3701 C 347.792 1.15471 1.19397 0
M  V30 3702 O 348.977 1.43807 1.25396 0
M  V30 3703 C 346.117 2.88073 1.90021 0
M  V30 3704 C 345.23 4.07253 1.44113 0
M  V30 3705 C 344.365 4.63052 2.603 0
M  V30 3706 C 343.404 5.74545 2.11103 0
M  V30 3707 N 342.541 6.24656 3.20545 0
M  V30 3708 H 347.381 2.97655 0.143327 0
M  V30 3709 H 344.918 1.46982 0.0589934 0
M  V30 3710 H 346.876 3.25681 2.60745 0
M  V30 3711 H 345.506 2.13015 2.42538 0
M  V30 3712 H 344.558 3.75164 0.628999 0
M  V30 3713 H 345.87 4.8783 1.04036 0
M  V30 3714 H 345.024 5.03078 3.39113 0
M  V30 3715 H 343.763 3.81628 3.03663 0
M  V30 3716 H 342.768 5.34027 1.3075 0
M  V30 3717 H 343.993 6.57801 1.68746 0
M  V30 3718 H 341.939 5.46148 3.63399 0
M  V30 3719 H 341.856 7.00343 2.84704 0
M  V30 3720 H 343.124 6.69338 3.99508 0
M  V30 3721 N 347.353 -0.0568162 1.57498 0
M  V30 3722 C 348.578 -0.769402 1.92601 0
M  V30 3723 C 349.003 -1.69559 0.814336 0
M  V30 3724 O 348.361 -1.79811 -0.231903 0
M  V30 3725 C 348.409 -1.52634 3.26704 0
M  V30 3726 O 347.513 -2.63797 3.16994 0
M  V30 3727 H 346.854 -0.208909 0.63028 0
M  V30 3728 H 349.384 -0.0205798 2.0459 0
M  V30 3729 H 349.394 -1.90234 3.60936 0
M  V30 3730 H 348.069 -0.846875 4.07186 0
M  V30 3731 H 346.646 -2.28943 2.94346 0
M  V30 3732 N 348.832 -1.54138 -0.328536 0
M  V30 3733 C 349.742 -1.86192 -1.42723 0
M  V30 3734 C 350.758 -0.753382 -1.56844 0
M  V30 3735 O 351.934 -1.04718 -1.72035 0
M  V30 3736 C 348.999 -2.07824 -2.77507 0
M  V30 3737 C 348.06 -3.31641 -2.72603 0
M  V30 3738 C 347.293 -3.52232 -4.00959 0
M  V30 3739 O 347.516 -2.7636 -4.9898 0
M  V30 3740 O 346.45 -4.45699 -4.0452 0
M  V30 3741 H 350.276 -2.79608 -1.18547 0
M  V30 3742 H 347.861 -1.3998 -0.522104 0
M  V30 3743 H 349.743 -2.23411 -3.57303 0
M  V30 3744 H 348.418 -1.17596 -3.01584 0
M  V30 3745 H 347.325 -3.21444 -1.91376 0
M  V30 3746 H 348.658 -4.2191 -2.53481 0
M  V30 3747 N 350.31 0.590341 -1.46126 0
M  V30 3748 C 351.558 1.34616 -1.50742 0
M  V30 3749 C 351.879 1.94363 -0.157486 0
M  V30 3750 O 351.149 1.78136 0.815136 0
M  V30 3751 H 349.729 0.499789 -0.555175 0
M  V30 3752 H 352.391 0.691953 -1.82203 0
M  V30 3753 H 351.487 2.15678 -2.25587 0
M  V30 3754 N 351.788 1.33704 0.83433 0
M  V30 3755 C 353.204 1.13137 1.12571 0
M  V30 3756 C 353.404 -0.0747261 2.01361 0
M  V30 3757 O 352.46 -0.753647 2.4099 0
M  V30 3758 C 353.773 2.42105 1.78342 0
M  V30 3759 C 355.321 2.48054 1.90888 0
M  V30 3760 C 355.796 3.76995 2.60075 0
M  V30 3761 N 357.287 3.78092 2.67584 0
M  V30 3762 C 358.022 4.74574 3.21818 0
M  V30 3763 N 357.518 5.81434 3.76705 0
M  V30 3764 N 359.311 4.62044 3.20112 0
M  V30 3765 H 351.462 2.11 0.243489 0
M  V30 3766 H 353.725 0.932532 0.17055 0
M  V30 3767 H 353.431 3.30391 1.20561 0
M  V30 3768 H 353.305 2.54594 2.7832 0
M  V30 3769 H 355.692 1.60215 2.47821 0
M  V30 3770 H 355.773 2.39502 0.898459 0
M  V30 3771 H 355.417 4.65219 2.03799 0
M  V30 3772 H 355.347 3.82825 3.61597 0
M  V30 3773 H 357.838 3.00865 2.28667 0
M  V30 3774 H 358.151 6.51084 4.16305 0
M  V30 3775 H 356.496 5.85163 3.7498 0
M  V30 3776 H 359.687 3.77716 2.76493 0
M  V30 3777 H 359.86 5.37406 3.62076 0
M  V30 3778 N 353.266 -1.05314 1.17247 0
M  V30 3779 C 354.513 -1.78293 0.960091 0
M  V30 3780 C 354.841 -1.87658 -0.51136 0
M  V30 3781 O 354.096 -1.3718 -1.39571 0
M  V30 3782 C 354.395 -3.2229 1.54479 0
M  V30 3783 C 354.061 -3.32987 3.04024 0
M  V30 3784 C 352.723 -3.35613 3.44844 0
M  V30 3785 C 355.075 -3.34102 4.00031 0
M  V30 3786 C 352.403 -3.36982 4.8027 0
M  V30 3787 C 354.755 -3.3701 5.35357 0
M  V30 3788 C 353.419 -3.37923 5.75642 0
M  V30 3789 H 352.689 -0.652422 0.351322 0
M  V30 3790 H 355.336 -1.23782 1.46117 0
M  V30 3791 H 353.641 -3.7972 0.965391 0
M  V30 3792 H 355.338 -3.77376 1.35603 0
M  V30 3793 H 351.928 -3.31655 2.71483 0
M  V30 3794 H 356.112 -3.31276 3.69554 0
M  V30 3795 H 351.368 -3.35999 5.10798 0
M  V30 3796 H 355.542 -3.36822 6.09528 0
M  V30 3797 H 353.169 -3.38738 6.80559 0
M  V30 3798 N 354.744 -0.972509 -1.24016 0
M  V30 3799 C 355.694 -0.477561 -2.22942 0
M  V30 3800 C 356.678 0.44308 -1.54679 0
M  V30 3801 O 357.87 0.273219 -1.74879 0
M  V30 3802 C 354.999 0.226348 -3.42553 0
M  V30 3803 C 354.085 -0.713403 -4.18057 0
M  V30 3804 N 354.476 -1.8527 -4.70647 0
M  V30 3805 C 352.774 -0.525145 -4.42898 0
M  V30 3806 C 353.475 -2.44089 -5.28011 0
M  V30 3807 N 352.451 -1.72556 -5.15486 0
M  V30 3808 H 356.253 -1.34678 -2.61226 0
M  V30 3809 H 353.767 -0.832196 -1.39457 0
M  V30 3810 H 355.764 0.598184 -4.12586 0
M  V30 3811 H 354.424 1.09195 -3.05788 0
M  V30 3812 H 355.435 -2.2341 -4.67235 0
M  V30 3813 H 352.112 0.296096 -4.16449 0
M  V30 3814 H 353.502 -3.40259 -5.79374 0
M  V30 3815 N 356.222 1.38976 -0.743202 0
M  V30 3816 C 357.468 2.0064 -0.295189 0
M  V30 3817 C 357.801 1.5885 1.11716 0
M  V30 3818 O 357.076 0.821181 1.76315 0
M  V30 3819 C 357.359 3.578 -0.406318 0
M  V30 3820 C 357.212 4.09586 -1.85903 0
M  V30 3821 C 358.531 4.39616 0.206439 0
M  V30 3822 H 355.65 0.728935 -0.108733 0
M  V30 3823 H 358.292 1.65067 -0.940897 0
M  V30 3824 H 356.442 3.88235 0.143419 0
M  V30 3825 H 358.114 3.89837 -2.46627 0
M  V30 3826 H 356.357 3.6284 -2.3776 0
M  V30 3827 H 357.028 5.18708 -1.888 0
M  V30 3828 H 359.504 4.15273 -0.262283 0
M  V30 3829 H 358.38 5.48812 0.0983819 0
M  V30 3830 H 358.641 4.22754 1.2935 0
M  V30 3831 N 357.7 0.491464 1.49741 0
M  V30 3832 C 358.632 -0.328609 2.26832 0
M  V30 3833 C 359.645 -0.939113 1.32983 0
M  V30 3834 O 360.834 -0.824067 1.58339 0
M  V30 3835 C 357.934 -1.47675 3.05033 0
M  V30 3836 C 357.107 -0.975305 4.26388 0
M  V30 3837 C 356.166 -1.99991 4.86714 0
M  V30 3838 O 355.192 -1.57229 5.47054 0
M  V30 3839 N 356.394 -3.32962 4.75517 0
M  V30 3840 H 359.159 0.332377 2.97851 0
M  V30 3841 H 356.72 0.323441 1.58636 0
M  V30 3842 H 358.712 -2.15954 3.42266 0
M  V30 3843 H 357.282 -2.04206 2.36683 0
M  V30 3844 H 356.502 -0.117723 3.94024 0
M  V30 3845 H 357.79 -0.618531 5.05026 0
M  V30 3846 H 357.188 -3.70399 4.27576 0
M  V30 3847 H 355.745 -3.96982 5.16961 0
M  V30 3848 N 359.178 -1.55987 0.224894 0
M  V30 3849 C 360.126 -2.21808 -0.700283 0
M  V30 3850 C 361.12 -1.19854 -1.19714 0
M  V30 3851 O 362.326 -1.37925 -1.15658 0
M  V30 3852 H 358.701 -0.711226 -0.244258 0
M  V30 3853 H 360.672 -2.98152 -0.121749 0
M  V30 3854 C 359.421 -2.91444 -1.8962 0
M  V30 3855 H 358.744 -3.69655 -1.52299 0
M  V30 3856 H 360.184 -3.40894 -2.52125 0
M  V30 3857 C 358.643 -1.94098 -2.75368 0
M  V30 3858 O 359.173 -1.46004 -3.74227 0
M  V30 3859 N 357.379 -1.61675 -2.41474 0
M  V30 3860 H 356.926 -2.00979 -1.61137 0
M  V30 3861 H 356.884 -0.968036 -2.99126 0
M  V30 3862 N 360.656 0.0484629 -1.57525 0
M  V30 3863 C 361.586 1.0549 -2.08313 0
M  V30 3864 C 362.567 1.38929 -0.981463 0
M  V30 3865 O 363.752 1.48151 -1.25558 0
M  V30 3866 C 360.882 2.36162 -2.54646 0
M  V30 3867 C 359.836 2.17016 -3.68901 0
M  V30 3868 C 359.162 3.53278 -4.01371 0
M  V30 3869 C 360.462 1.57219 -4.98076 0
M  V30 3870 H 362.156 0.632195 -2.92649 0
M  V30 3871 H 359.702 0.302654 -1.40784 0
M  V30 3872 H 361.655 3.06882 -2.88793 0
M  V30 3873 H 360.379 2.80456 -1.67368 0
M  V30 3874 H 359.038 1.48733 -3.35073 0
M  V30 3875 H 358.686 3.95185 -3.11188 0
M  V30 3876 H 358.386 3.41299 -4.78318 0
M  V30 3877 H 359.91 4.25391 -4.38035 0
M  V30 3878 H 361.324 2.17832 -5.30304 0
M  V30 3879 H 359.721 1.55871 -5.79503 0
M  V30 3880 H 360.791 0.535956 -4.81929 0
M  V30 3881 N 362.134 1.5431 0.320358 0
M  V30 3882 C 363.359 1.76954 1.08175 0
M  V30 3883 C 363.784 0.518193 1.80821 0
M  V30 3884 O 363.142 -0.530411 1.73368 0
M  V30 3885 C 363.19 2.96451 2.05303 0
M  V30 3886 O 362.294 2.68221 3.13259 0
M  V30 3887 H 361.635 0.586275 0.311733 0
M  V30 3888 H 364.165 2.01342 0.363676 0
M  V30 3889 H 364.175 3.23887 2.48116 0
M  V30 3890 H 362.85 3.87196 1.51829 0
M  V30 3891 H 361.427 2.51744 2.75099 0
M  V30 3892 N 363.613 -0.582584 1.46437 0
M  V30 3893 C 364.545 -1.70618 1.53043 0
M  V30 3894 C 365.558 -1.57322 0.418769 0
M  V30 3895 O 366.747 -1.64744 0.687136 0
M  V30 3896 C 363.847 -3.08869 1.39474 0
M  V30 3897 C 363.02 -3.48166 2.64762 0
M  V30 3898 C 362.079 -4.65478 2.4539 0
M  V30 3899 O 361.105 -4.71333 3.19114 0
M  V30 3900 N 362.307 -5.60365 1.51564 0
M  V30 3901 H 365.072 -1.65405 2.49923 0
M  V30 3902 H 362.633 -0.768567 1.42494 0
M  V30 3903 H 364.625 -3.85143 1.24287 0
M  V30 3904 H 363.195 -3.08449 0.507758 0
M  V30 3905 H 362.415 -2.61598 2.9489 0
M  V30 3906 H 363.703 -3.71188 3.4799 0
M  V30 3907 H 363.101 -5.5837 0.907705 0
M  V30 3908 H 361.658 -6.36068 1.4234 0
M  V30 3909 N 365.091 -1.34144 -0.827227 0
M  V30 3910 C 366.337 -1.26446 -1.58554 0
M  V30 3911 C 366.67 0.1664 -1.93486 0
M  V30 3912 O 365.945 1.1107 -1.59667 0
M  V30 3913 C 366.228 -2.15111 -2.8879 0
M  V30 3914 C 366.081 -3.66712 -2.60465 0
M  V30 3915 C 367.4 -2.03311 -3.90324 0
M  V30 3916 H 364.519 -0.46067 -0.575284 0
M  V30 3917 H 367.161 -1.64356 -0.953269 0
M  V30 3918 H 365.311 -1.8291 -3.42748 0
M  V30 3919 H 366.983 -4.09259 -2.1285 0
M  V30 3920 H 365.226 -3.88014 -1.93978 0
M  V30 3921 H 365.897 -4.24112 -3.53317 0
M  V30 3922 H 368.373 -2.31574 -3.45706 0
M  V30 3923 H 367.249 -2.67582 -4.79261 0
M  V30 3924 H 367.51 -1.00879 -4.30437 0
M  V30 3925 N 366.569 1.04691 -1.17803 0
M  V30 3926 C 367.479 2.16057 -0.914151 0
M  V30 3927 C 368.495 1.73589 0.119503 0
M  V30 3928 O 369.671 2.01308 -0.0609468 0
M  V30 3929 C 366.736 3.4394 -0.436603 0
M  V30 3930 C 365.797 4.00825 -1.53746 0
M  V30 3931 C 365.03 5.22604 -1.0826 0
M  V30 3932 O 365.253 5.70367 0.0612244 0
M  V30 3933 O 364.187 5.7186 -1.87775 0
M  V30 3934 H 368.013 2.41169 -1.84584 0
M  V30 3935 H 365.598 1.1453 -0.959334 0
M  V30 3936 H 367.48 4.21024 -0.178057 0
M  V30 3937 H 366.155 3.20316 0.466869 0
M  V30 3938 H 365.062 3.25158 -1.84995 0
M  V30 3939 H 366.395 4.28778 -2.41683 0
M  V30 3940 N 368.047 0.979072 1.23499 0
M  V30 3941 C 368.979 0.476271 2.24197 0
M  V30 3942 C 369.992 -0.421166 1.57258 0
M  V30 3943 O 371.181 -0.225515 1.7707 0
M  V30 3944 C 368.281 -0.330503 3.37285 0
M  V30 3945 C 367.454 0.559744 4.33804 0
M  V30 3946 C 366.513 -0.192954 5.25846 0
M  V30 3947 O 365.539 0.416978 5.67671 0
M  V30 3948 N 366.741 -1.47932 5.61334 0
M  V30 3949 H 369.506 1.34211 2.67969 0
M  V30 3950 H 367.067 0.852189 1.37657 0
M  V30 3951 H 369.059 -0.842361 3.95836 0
M  V30 3952 H 367.629 -1.09734 2.92707 0
M  V30 3953 H 366.849 1.25245 3.73775 0
M  V30 3954 H 368.137 1.1665 4.95248 0
M  V30 3955 H 367.535 -1.9964 5.29302 0
M  V30 3956 H 366.092 -1.93664 6.22364 0
M  V30 3957 N 369.525 -1.3858 0.750561 0
M  V30 3958 C 370.802 -1.94231 0.231009 0
M  V30 3959 C 371.182 -1.68611 -1.27018 0
M  V30 3960 O 370.53 -1.02296 -2.04323 0
M  V30 3961 C 370.74 -3.44123 0.581428 0
M  V30 3962 C 372.088 -4.2116 0.539389 0
M  V30 3963 O 373.112 -3.52391 0.519541 0
M  V30 3964 O 371.971 -5.43749 0.54765 0
M  V30 3965 H 369.065 -0.825639 0.0474263 0
M  V30 3966 H 371.611 -1.4799 0.830478 0
M  V30 3967 H 370.383 -3.56267 1.61833 0
M  V30 3968 H 370.006 -3.97573 -0.0462047 0
M  V30 3969 N 371.003 -0.499398 -1.49478 0
M  V30 3970 C 372.251 0.0455996 -2.02049 0
M  V30 3971 C 372.572 1.37633 -1.38138 0
M  V30 3972 O 371.842 1.8842 -0.536166 0
M  V30 3973 H 370.422 0.0198416 -0.746736 0
M  V30 3974 H 373.084 -0.656274 -1.83519 0
M  V30 3975 H 372.18 0.176445 -3.11601 0
M  V30 3976 N 372.481 1.55866 -0.233164 0
M  V30 3977 C 373.897 1.59133 0.121988 0
M  V30 3978 C 374.097 1.25016 1.58029 0
M  V30 3979 O 373.153 0.990922 2.32243 0
M  V30 3980 C 374.466 2.99932 -0.214792 0
M  V30 3981 C 376.014 3.12601 -0.157971 0
M  V30 3982 C 376.489 4.55597 -0.46859 0
M  V30 3983 N 377.98 4.61305 -0.418585 0
M  V30 3984 C 378.715 5.69903 -0.63227 0
M  V30 3985 N 378.211 6.86819 -0.90835 0
M  V30 3986 N 380.004 5.59264 -0.563913 0
M  V30 3987 H 372.155 1.76315 -1.18434 0
M  V30 3988 H 374.418 0.820093 -0.475553 0
M  V30 3989 H 374.124 3.29588 -1.22739 0
M  V30 3990 H 373.998 3.74327 0.464691 0
M  V30 3991 H 376.385 2.82735 0.845283 0
M  V30 3992 H 376.466 2.40511 -0.871102 0
M  V30 3993 H 376.11 4.86182 -1.46934 0
M  V30 3994 H 376.04 5.25928 0.265865 0
M  V30 3995 H 378.531 3.77297 -0.213368 0
M  V30 3996 H 378.844 7.65507 -1.05919 0
M  V30 3997 H 377.189 6.88536 -0.945673 0
M  V30 3998 H 380.38 4.66802 -0.348372 0
M  V30 3999 H 380.553 6.43831 -0.733847 0
M  V30 4000 N 373.959 -0.0401083 1.57549 0
M  V30 4001 C 375.187 -0.745196 1.93014 0
M  V30 4002 C 375.602 -1.6948 0.831984 0
M  V30 4003 O 374.959 -1.81482 -0.192463 0
M  V30 4004 C 375.01 -1.51176 3.28372 0
M  V30 4005 O 374.731 -0.600284 4.33968 0
M  V30 4006 C 376.232 -2.315 3.78051 0
M  V30 4007 H 373.452 -0.210088 0.637263 0
M  V30 4008 H 375.996 -0.000924689 2.045 0
M  V30 4009 H 374.151 -2.20801 3.18317 0
M  V30 4010 H 374.565 -1.13669 5.12035 0
M  V30 4011 H 376.039 -2.80697 4.75303 0
M  V30 4012 H 376.516 -3.12436 3.08675 0
M  V30 4013 H 377.122 -1.66971 3.91153 0
M  V30 4014 N 375.437 -1.54477 -0.31217 0
M  V30 4015 C 376.685 -1.72884 -1.04668 0
M  V30 4016 C 377.006 -0.511477 -1.88173 0
M  V30 4017 O 376.276 0.474407 -1.90069 0
M  V30 4018 H 374.856 -0.637461 -0.389425 0
M  V30 4019 H 377.518 -1.91807 -0.345852 0
M  V30 4020 H 376.614 -2.61334 -1.70619 0
M  V30 4021 N 376.915 0.57481 -1.46744 0
M  V30 4022 C 377.865 1.67838 -1.54319 0
M  V30 4023 C 378.849 1.55759 -0.40346 0
M  V30 4024 O 380.041 1.6454 -0.652347 0
M  V30 4025 C 377.17 3.06624 -1.5439 0
M  V30 4026 C 376.256 3.23971 -2.73685 0
M  V30 4027 N 376.647 3.11447 -3.9854 0
M  V30 4028 C 374.945 3.5493 -2.70075 0
M  V30 4029 C 375.646 3.31011 -4.78337 0
M  V30 4030 N 374.622 3.56533 -4.10348 0
M  V30 4031 H 378.424 1.56698 -2.48642 0
M  V30 4032 H 375.938 0.779071 -1.42493 0
M  V30 4033 H 377.935 3.85839 -1.57905 0
M  V30 4034 H 376.595 3.1889 -0.611493 0
M  V30 4035 H 377.606 2.89145 -4.29669 0
M  V30 4036 H 374.283 3.73832 -1.85893 0
M  V30 4037 H 375.673 3.26445 -5.87268 0
M  V30 4038 N 378.394 1.34581 0.820102 0
M  V30 4039 C 379.642 1.26845 1.57336 0
M  V30 4040 C 379.963 -0.160667 1.94337 0
M  V30 4041 O 379.233 -1.09396 1.6251 0
M  V30 4042 H 377.813 0.466514 0.583415 0
M  V30 4043 H 380.475 1.68526 0.979027 0
M  V30 4044 H 379.571 1.87513 2.4949 0
M  V30 4045 N 379.872 -1.04064 1.18357 0
M  V30 4046 C 380.802 -2.14001 0.934113 0
M  V30 4047 C 381.783 -1.69616 -0.128186 0
M  V30 4048 O 382.968 -1.94185 0.0244093 0
M  V30 4049 C 380.098 -3.44253 0.459066 0
M  V30 4050 C 379.052 -4.02261 1.46185 0
M  V30 4051 C 378.378 -5.27992 0.844322 0
M  V30 4052 C 379.678 -4.38432 2.83856 0
M  V30 4053 H 381.372 -2.35127 1.85352 0
M  V30 4054 H 378.918 -1.12998 0.892604 0
M  V30 4055 H 380.871 -4.20522 0.271907 0
M  V30 4056 H 379.595 -3.22813 -0.495912 0
M  V30 4057 H 378.254 -3.28074 1.63595 0
M  V30 4058 H 377.902 -5.02862 -0.117845 0
M  V30 4059 H 377.602 -5.67765 1.51384 0
M  V30 4060 H 379.126 -6.06938 0.667693 0
M  V30 4061 H 380.54 -5.05688 2.70098 0
M  V30 4062 H 378.937 -4.89254 3.47491 0
M  V30 4063 H 380.007 -3.4826 3.37406 0
M  V30 4064 N 381.35 -0.985608 -1.22978 0
M  V30 4065 C 382.766 -0.695104 -1.43668 0
M  V30 4066 C 382.966 0.736866 -1.87543 0
M  V30 4067 O 382.022 1.50868 -2.02473 0
M  V30 4068 C 383.335 -1.69447 -2.48412 0
M  V30 4069 C 384.883 -1.70909 -2.62219 0
M  V30 4070 C 385.358 -2.6969 -3.70178 0
M  V30 4071 N 386.849 -2.6824 -3.77626 0
M  V30 4072 C 387.584 -3.41339 -4.60733 0
M  V30 4073 N 387.08 -4.24015 -5.4789 0
M  V30 4074 N 388.873 -3.30079 -4.54977 0
M  V30 4075 H 381.024 -1.91054 -0.928016 0
M  V30 4076 H 383.287 -0.823553 -0.469536 0
M  V30 4077 H 382.993 -2.7188 -2.23102 0
M  V30 4078 H 382.867 -1.48147 -3.46889 0
M  V30 4079 H 385.254 -0.691785 -2.86877 0
M  V30 4080 H 385.335 -1.96276 -1.6404 0
M  V30 4081 H 384.979 -3.71566 -3.46268 0
M  V30 4082 H 384.909 -2.41595 -4.67909 0
M  V30 4083 H 387.4 -2.08243 -3.15346 0
M  V30 4084 H 387.713 -4.76636 -6.08308 0
M  V30 4085 H 386.058 -4.28104 -5.47496 0
M  V30 4086 H 389.249 -2.64937 -3.85909 0
M  V30 4087 H 389.422 -3.87308 -5.19516 0
M  V30 4088 N 382.828 1.3818 -0.7579 0
M  V30 4089 C 384.244 1.5353 -0.435972 0
M  V30 4090 C 384.444 1.71961 1.05032 0
M  V30 4091 O 383.5 1.73307 1.83633 0
M  V30 4092 C 384.813 2.73989 -1.23898 0
M  V30 4093 C 386.361 2.87841 -1.22949 0
M  V30 4094 C 386.836 4.11266 -2.01554 0
M  V30 4095 N 388.327 4.18352 -1.98837 0
M  V30 4096 C 389.062 5.12856 -2.5645 0
M  V30 4097 N 388.558 6.13005 -3.22794 0
M  V30 4098 N 390.351 5.05238 -2.46356 0
M  V30 4099 H 382.502 1.24467 -1.7211 0
M  V30 4100 H 384.765 0.604982 -0.729864 0
M  V30 4101 H 384.471 2.66789 -2.29165 0
M  V30 4102 H 384.345 3.67294 -0.858764 0
M  V30 4103 H 386.732 2.9452 -0.184854 0
M  V30 4104 H 386.813 1.95534 -1.64924 0
M  V30 4105 H 386.457 4.05349 -3.06031 0
M  V30 4106 H 386.387 5.02661 -1.5697 0
M  V30 4107 H 388.878 3.46628 -1.50524 0
M  V30 4108 H 389.191 6.81619 -3.64165 0
M  V30 4109 H 387.536 6.13325 -3.2689 0
M  V30 4110 H 390.727 4.25938 -1.9415 0
M  V30 4111 H 390.9 5.78707 -2.91552 0
M  V30 4112 N 384.306 0.507319 1.49211 0
M  V30 4113 C 385.531 -0.033725 2.07373 0
M  V30 4114 C 385.956 -1.29485 1.36437 0
M  V30 4115 O 385.314 -1.76294 0.423087 0
M  V30 4116 C 385.362 -0.263945 3.59633 0
M  V30 4117 O 384.466 -1.33737 3.90113 0
M  V30 4118 H 383.807 0.0290331 0.663365 0
M  V30 4119 H 386.337 0.708749 1.91932 0
M  V30 4120 H 386.347 -0.493536 4.05004 0
M  V30 4121 H 385.022 0.657424 4.10671 0
M  V30 4122 H 383.599 -1.09224 3.56545 0
M  V30 4123 N 385.784 -1.5574 0.241426 0
M  V30 4124 C 387.009 -2.0366 -0.392111 0
M  V30 4125 C 387.434 -1.11969 -1.51144 0
M  V30 4126 O 386.792 -0.111594 -1.80956 0
M  V30 4127 C 386.84 -3.49638 -0.882371 0
M  V30 4128 O 385.944 -3.6108 -1.99235 0
M  V30 4129 H 385.285 -0.658379 -0.0862122 0
M  V30 4130 H 387.815 -2.01302 0.365881 0
M  V30 4131 H 387.825 -3.90351 -1.18702 0
M  V30 4132 H 386.5 -4.15852 -0.0632361 0
M  V30 4133 H 385.077 -3.32262 -1.69282 0
M  V30 4134 N 387.262 0.0317525 -1.57568 0
M  V30 4135 C 388.209 1.0332 -2.06382 0
M  V30 4136 C 389.179 1.36082 -0.952414 0
M  V30 4137 O 390.364 1.46466 -1.2228 0
M  V30 4138 C 387.504 2.32989 -2.54578 0
M  V30 4139 C 386.617 2.0641 -3.79498 0
M  V30 4140 C 385.752 3.2993 -4.16317 0
M  V30 4141 C 384.791 2.98893 -5.34162 0
M  V30 4142 N 383.928 4.14857 -5.66426 0
M  V30 4143 H 388.768 0.609982 -2.9169 0
M  V30 4144 H 386.305 0.289573 -1.44222 0
M  V30 4145 H 388.263 3.0875 -2.80587 0
M  V30 4146 H 386.893 2.73039 -1.7219 0
M  V30 4147 H 385.945 1.21158 -3.6059 0
M  V30 4148 H 387.257 1.79513 -4.65378 0
M  V30 4149 H 386.411 4.1406 -4.4344 0
M  V30 4150 H 385.15 3.59938 -3.29083 0
M  V30 4151 H 384.155 2.13164 -5.06795 0
M  V30 4152 H 385.38 2.70165 -6.23047 0
M  V30 4153 H 383.326 4.44821 -4.82151 0
M  V30 4154 H 383.243 3.91374 -6.4681 0
M  V30 4155 H 384.511 4.99868 -5.98124 0
M  V30 4156 N 388.74 1.54641 0.303973 0
M  V30 4157 C 389.987 1.7378 1.03955 0
M  V30 4158 C 390.315 0.521986 1.87365 0
M  V30 4159 O 389.57 -0.496099 1.89308 0
M  V30 4160 C 389.869 2.97753 1.97681 0
M  V30 4161 C 389.535 4.31671 1.30271 0
M  V30 4162 C 388.197 4.68075 1.11619 0
M  V30 4163 C 390.549 5.147 0.82055 0
M  V30 4164 C 387.877 5.8509 0.434304 0
M  V30 4165 C 390.229 6.32416 0.152395 0
M  V30 4166 C 388.893 6.67484 -0.0461067 0
M  V30 4167 H 388.163 0.635908 0.380398 0
M  V30 4168 H 390.81 1.88896 0.314718 0
M  V30 4169 H 389.115 2.77406 2.76682 0
M  V30 4170 H 390.812 3.09756 2.54661 0
M  V30 4171 H 387.402 4.03041 1.45795 0
M  V30 4172 H 391.586 4.87077 0.952374 0
M  V30 4173 H 386.842 6.10806 0.269495 0
M  V30 4174 H 391.016 6.96023 -0.229126 0
M  V30 4175 H 388.643 7.58011 -0.576494 0
M  V30 4176 N 390.218 -0.567019 1.47046 0
M  V30 4177 C 391.458 -1.3355 1.54738 0
M  V30 4178 C 391.822 -1.90947 0.200772 0
M  V30 4179 O 393.023 -2.68367 0.152489 0
M  V30 4180 C 391.294 -2.42317 2.62712 0
M  V30 4181 S 392.853 -3.29383 2.89918 0
M  V30 4182 H 389.671 -0.454788 0.546525 0
M  V30 4183 H 392.273 -0.650191 1.84371 0
M  V30 4184 H 390.977 -1.98568 3.59164 0
M  V30 4185 H 390.508 -3.15601 2.34861 0
M  V30 4186 H 392.523 -4.41548 2.26384 0
M  V30 4187 N 391.696 -1.35014 -0.812953 0
M  V30 4188 C 392.626 -1.30069 -1.93919 0
M  V30 4189 C 393.607 -0.176275 -1.69184 0
M  V30 4190 O 394.792 -0.370227 -1.90638 0
M  V30 4191 C 391.922 -1.06547 -3.30552 0
M  V30 4192 C 390.876 -2.15561 -3.69753 0
M  V30 4193 C 390.202 -1.77214 -5.04479 0
M  V30 4194 C 391.502 -3.57476 -3.808 0
M  V30 4195 H 393.196 -2.24303 -1.98314 0
M  V30 4196 H 390.742 -1.07977 -0.952736 0
M  V30 4197 H 392.695 -1.01729 -4.08937 0
M  V30 4198 H 391.419 -0.0875719 -3.26483 0
M  V30 4199 H 390.078 -2.19466 -2.9365 0
M  V30 4200 H 389.726 -0.780589 -4.96906 0
M  V30 4201 H 389.426 -2.50184 -5.31678 0
M  V30 4202 H 390.95 -1.7391 -5.8531 0
M  V30 4203 H 392.364 -3.55929 -4.4943 0
M  V30 4204 H 390.761 -4.29152 -4.19462 0
M  V30 4205 H 391.831 -3.94091 -2.82525 0
M  V30 4206 N 393.175 1.03435 -1.18907 0
M  V30 4207 C 394.122 2.11591 -0.921837 0
M  V30 4208 C 395.092 1.65499 0.141226 0
M  V30 4209 O 396.277 1.908 0.000242829 0
M  V30 4210 C 393.417 3.42012 -0.460616 0
M  V30 4211 C 392.53 4.01682 -1.58982 0
M  V30 4212 C 391.665 5.20091 -1.08069 0
M  V30 4213 C 390.704 5.71805 -2.18416 0
M  V30 4214 N 389.841 6.81494 -1.68849 0
M  V30 4215 H 394.681 2.33787 -1.8479 0
M  V30 4216 H 392.218 1.1467 -0.921373 0
M  V30 4217 H 394.176 4.16834 -0.174642 0
M  V30 4218 H 392.806 3.19944 0.428467 0
M  V30 4219 H 391.858 3.24127 -1.99113 0
M  V30 4220 H 393.17 4.36084 -2.4214 0
M  V30 4221 H 392.324 6.02051 -0.749615 0
M  V30 4222 H 391.063 4.87209 -0.218771 0
M  V30 4223 H 390.068 4.88461 -2.5236 0
M  V30 4224 H 391.293 6.06728 -3.05054 0
M  V30 4225 H 389.239 6.50475 -0.849572 0
M  V30 4226 H 389.156 7.14994 -2.45601 0
M  V30 4227 H 390.424 7.67063 -1.38689 0
M  V30 4228 N 394.653 0.992116 1.22453 0
M  V30 4229 C 395.563 0.55065 2.28046 0
M  V30 4230 C 396.579 -0.400189 1.69335 0
M  V30 4231 O 397.755 -0.267215 1.99619 0
M  V30 4232 C 394.82 -0.128496 3.46462 0
M  V30 4233 C 393.881 0.865208 4.20491 0
M  V30 4234 C 393.114 0.218377 5.33253 0
M  V30 4235 O 393.337 -0.987894 5.6178 0
M  V30 4236 O 392.271 0.922845 5.94783 0
M  V30 4237 H 396.097 1.4291 2.67975 0
M  V30 4238 H 393.682 0.760326 1.28606 0
M  V30 4239 H 395.564 -0.508947 4.18315 0
M  V30 4240 H 394.239 -0.981526 3.0846 0
M  V30 4241 H 393.146 1.29658 3.50913 0
M  V30 4242 H 394.479 1.68741 4.62371 0
M  V30 4243 N 396.131 -1.37776 0.765217 0
M  V30 4244 C 397.081 -2.2768 0.12075 0
M  V30 4245 C 398.065 -1.45778 -0.680988 0
M  V30 4246 O 399.257 -1.684 -0.545033 0
M  V30 4247 C 396.386 -3.34722 -0.762626 0
M  V30 4248 C 395.472 -4.24074 0.0465881 0
M  V30 4249 N 395.863 -4.93939 1.08892 0
M  V30 4250 C 394.161 -4.45643 -0.178418 0
M  V30 4251 C 394.862 -5.59845 1.57951 0
M  V30 4252 N 393.838 -5.36218 0.892797 0
M  V30 4253 H 397.64 -2.79166 0.918889 0
M  V30 4254 H 395.154 -1.50816 0.602353 0
M  V30 4255 H 397.151 -3.98031 -1.24005 0
M  V30 4256 H 395.811 -2.84793 -1.55959 0
M  V30 4257 H 396.822 -4.96572 1.47095 0
M  V30 4258 H 393.499 -4.06599 -0.9478 0
M  V30 4259 H 394.889 -6.25703 2.44838 0
M  V30 4260 N 397.609 -0.515225 -1.4894 0
M  V30 4261 C 398.556 0.255567 -2.29381 0
M  V30 4262 C 399.526 0.947387 -1.36432 0
M  V30 4263 O 400.711 0.951288 -1.65394 0
M  V30 4264 C 397.851 1.30551 -3.19453 0
M  V30 4265 C 396.964 0.624029 -4.27469 0
M  V30 4266 C 396.099 1.65563 -5.0474 0
M  V30 4267 C 395.138 0.956802 -6.04576 0
M  V30 4268 N 394.275 1.93326 -6.74959 0
M  V30 4269 H 399.115 -0.436607 -2.94784 0
M  V30 4270 H 396.652 -0.227154 -1.45336 0
M  V30 4271 H 398.61 1.92639 -3.70062 0
M  V30 4272 H 397.24 1.96626 -2.56004 0
M  V30 4273 H 396.292 -0.110459 -3.8024 0
M  V30 4274 H 397.604 0.0746092 -4.98744 0
M  V30 4275 H 396.758 2.35119 -5.59289 0
M  V30 4276 H 395.497 2.23893 -4.3327 0
M  V30 4277 H 394.502 0.247097 -5.49244 0
M  V30 4278 H 395.727 0.379814 -6.78037 0
M  V30 4279 H 393.673 2.50591 -6.06251 0
M  V30 4280 H 393.59 1.43489 -7.42258 0
M  V30 4281 H 394.858 2.62126 -7.34105 0
M  V30 4282 N 399.087 1.5561 -0.249682 0
M  V30 4283 C 400.05 2.20217 0.635394 0
M  V30 4284 C 401.05 1.17227 1.10066 0
M  V30 4285 O 402.24 1.42292 1.00492 0
M  V30 4286 C 399.372 2.84794 1.87363 0
M  V30 4287 H 400.565 2.99814 0.0716752 0
M  V30 4288 H 398.118 1.563 -0.000153234 0
M  V30 4289 H 398.853 2.09142 2.47851 0
M  V30 4290 H 398.638 3.60241 1.5482 0
M  V30 4291 H 400.128 3.3423 2.5036 0
M  V30 4292 N 400.565 -0.0233959 1.57583 0
M  V30 4293 C 401.495 -1.02162 2.09965 0
M  V30 4294 C 402.476 -1.3735 1.00344 0
M  V30 4295 O 403.661 -1.46135 1.27899 0
M  V30 4296 C 400.791 -2.32081 2.58371 0
M  V30 4297 C 399.745 -2.1112 3.72307 0
M  V30 4298 C 399.071 -3.46848 4.06941 0
M  V30 4299 C 400.371 -1.49276 5.00514 0
M  V30 4300 H 402.065 -0.585557 2.93618 0
M  V30 4301 H 399.611 -0.280218 1.41247 0
M  V30 4302 H 401.564 -3.02249 2.93639 0
M  V30 4303 H 400.288 -2.77758 1.71808 0
M  V30 4304 H 398.947 -1.43384 3.37397 0
M  V30 4305 H 398.595 -3.90184 3.17436 0
M  V30 4306 H 398.295 -3.33646 4.83688 0
M  V30 4307 H 399.819 -4.18369 4.44747 0
M  V30 4308 H 401.233 -2.09368 5.33702 0
M  V30 4309 H 399.63 -1.46632 5.8191 0
M  V30 4310 H 400.7 -0.459217 4.82721 0
M  V30 4311 N 402.043 -1.548 -0.295768 0
M  V30 4312 C 402.99 -1.86113 -1.36494 0
M  V30 4313 C 403.96 -0.7105 -1.50137 0
M  V30 4314 O 405.145 -0.959626 -1.64912 0
M  V30 4315 C 402.285 -2.11861 -2.72413 0
M  V30 4316 C 401.398 -3.39471 -2.67177 0
M  V30 4317 C 400.533 -3.55035 -3.95125 0
M  V30 4318 C 399.572 -4.76418 -3.84308 0
M  V30 4319 N 398.709 -4.8876 -5.04042 0
M  V30 4320 H 403.549 -2.77314 -1.09091 0
M  V30 4321 H 401.086 -1.37315 -0.52753 0
M  V30 4322 H 403.044 -2.24786 -3.51464 0
M  V30 4323 H 401.674 -1.2392 -2.98066 0
M  V30 4324 H 400.726 -3.35139 -1.79962 0
M  V30 4325 H 402.038 -4.28646 -2.55076 0
M  V30 4326 H 401.192 -3.67653 -4.82614 0
M  V30 4327 H 399.931 -2.64002 -4.10066 0
M  V30 4328 H 398.936 -4.63827 -2.95202 0
M  V30 4329 H 400.161 -5.68863 -3.70906 0
M  V30 4330 H 398.107 -4.00652 -5.19436 0
M  V30 4331 H 398.024 -5.71945 -4.94384 0
M  V30 4332 H 399.292 -5.0574 -5.93167 0
M  V30 4333 N 403.521 0.559213 -1.47345 0
M  V30 4334 C 404.749 1.34194 -1.57479 0
M  V30 4335 C 405.164 1.87463 -0.224261 0
M  V30 4336 O 404.521 1.64888 0.782185 0
M  V30 4337 C 404.572 2.51324 -2.59843 0
M  V30 4338 O 404.293 2.00256 -3.89653 0
M  V30 4339 C 405.794 3.43563 -2.80142 0
M  V30 4340 H 403.014 0.409136 -0.531835 0
M  V30 4341 H 405.558 0.677609 -1.92947 0
M  V30 4342 H 403.713 3.13699 -2.27314 0
M  V30 4343 H 404.127 2.76708 -4.4557 0
M  V30 4344 H 405.601 4.2217 -3.55635 0
M  V30 4345 H 406.078 3.9698 -1.87892 0
M  V30 4346 H 406.684 2.87005 -3.1386 0
M  V30 4347 N 404.999 1.35443 0.805782 0
M  V30 4348 C 405.929 1.31095 1.93226 0
M  V30 4349 C 406.91 0.185244 1.69088 0
M  V30 4350 O 408.095 0.380332 1.90439 0
M  V30 4351 C 405.225 1.08299 3.29983 0
M  V30 4352 C 404.179 2.17519 3.68605 0
M  V30 4353 C 403.505 1.79887 5.03532 0
M  V30 4354 C 404.805 3.5949 3.78898 0
M  V30 4355 H 406.499 2.25352 1.97122 0
M  V30 4356 H 404.045 1.0848 0.946996 0
M  V30 4357 H 405.998 1.03897 4.08391 0
M  V30 4358 H 404.722 0.104885 3.26432 0
M  V30 4359 H 403.381 2.2102 2.92482 0
M  V30 4360 H 403.029 0.80693 4.96485 0
M  V30 4361 H 402.729 2.53001 5.30344 0
M  V30 4362 H 404.253 1.77011 5.84379 0
M  V30 4363 H 405.667 3.58307 4.47536 0
M  V30 4364 H 404.064 4.31371 4.1718 0
M  V30 4365 H 405.134 3.95584 2.80431 0
M  V30 4366 N 406.477 -1.02803 1.19454 0
M  V30 4367 C 407.725 -1.75869 0.995722 0
M  V30 4368 C 408.046 -1.89138 -0.474543 0
M  V30 4369 O 407.316 -1.42558 -1.34366 0
M  V30 4370 H 405.896 -0.651511 0.365435 0
M  V30 4371 H 408.558 -1.24004 1.50363 0
M  V30 4372 H 407.654 -2.76661 1.44447 0
M  V30 4373 N 407.956 -0.998596 -1.21925 0
M  V30 4374 C 409.205 -0.673085 -1.90138 0
M  V30 4375 C 409.518 0.79895 -1.78539 0
M  V30 4376 O 410.724 1.23628 -2.4172 0
M  V30 4377 C 409.18 -1.15339 -3.40918 0
M  V30 4378 C 408.788 -2.65106 -3.61141 0
M  V30 4379 C 410.532 -0.902476 -4.14796 0
M  V30 4380 C 408.439 -3.0671 -5.05651 0
M  V30 4381 H 407.369 -0.248057 -0.712028 0
M  V30 4382 H 410.02 -1.20891 -1.38049 0
M  V30 4383 H 408.402 -0.545658 -3.92223 0
M  V30 4384 H 409.576 -3.31274 -3.20304 0
M  V30 4385 H 407.891 -2.88142 -3.00605 0
M  V30 4386 H 410.488 -1.18895 -5.21314 0
M  V30 4387 H 410.831 0.161349 -4.15987 0
M  V30 4388 H 411.364 -1.47269 -3.69536 0
M  V30 4389 H 408.103 -4.12292 -5.09603 0
M  V30 4390 H 407.623 -2.45249 -5.47369 0
M  V30 4391 H 409.302 -2.9833 -5.74115 0
M  V30 4392 N 409.434 1.37368 -0.772513 0
M  V30 4393 C 410.683 1.98918 -0.333861 0
M  V30 4394 C 410.996 1.62017 1.09589 0
M  V30 4395 O 412.202 2.16676 1.63596 0
M  V30 4396 C 410.658 3.55735 -0.545971 0
M  V30 4397 C 410.266 4.01573 -1.98603 0
M  V30 4398 C 412.01 4.24156 -0.170979 0
M  V30 4399 C 409.917 5.51102 -2.1457 0
M  V30 4400 H 408.847 0.744214 -0.121085 0
M  V30 4401 H 411.498 1.56888 -0.95175 0
M  V30 4402 H 409.88 3.95748 0.141387 0
M  V30 4403 H 411.054 3.72803 -2.7084 0
M  V30 4404 H 409.369 3.45937 -2.31769 0
M  V30 4405 H 411.966 5.34024 -0.26878 0
M  V30 4406 H 412.309 4.06917 0.878855 0
M  V30 4407 H 412.842 3.89447 -0.810914 0
M  V30 4408 H 409.581 5.73268 -3.17875 0
M  V30 4409 H 409.101 5.81554 -1.46817 0
M  V30 4410 H 410.78 6.17083 -1.94468 0
M  V30 4411 N 410.912 0.523116 1.48665 0
M  V30 4412 C 411.845 -0.290518 2.26343 0
M  V30 4413 C 412.823 -0.950913 1.31895 0
M  V30 4414 O 414.007 -0.976662 1.61225 0
M  V30 4415 C 411.134 -1.41088 3.07915 0
M  V30 4416 C 410.18 -0.862597 4.17686 0
M  V30 4417 S 411.013 0.264135 5.34848 0
M  V30 4418 C 412.169 -0.858864 6.19979 0
M  V30 4419 H 412.402 0.368726 2.95005 0
M  V30 4420 H 409.935 0.30878 1.51281 0
M  V30 4421 H 411.893 -2.0527 3.55492 0
M  V30 4422 H 410.554 -2.04182 2.38681 0
M  V30 4423 H 409.747 -1.70287 4.74361 0
M  V30 4424 H 409.349 -0.297595 3.72814 0
M  V30 4425 H 411.641 -1.7591 6.54264 0
M  V30 4426 H 412.584 -0.330244 7.07329 0
M  V30 4427 H 412.992 -1.13617 5.52948 0
M  V30 4428 N 412.39 -1.55475 0.257931 0
M  V30 4429 C 413.638 -1.98813 -0.363009 0
M  V30 4430 C 413.959 -1.14757 -1.57657 0
M  V30 4431 O 413.229 -0.232956 -1.9451 0
M  V30 4432 H 411.809 -0.734308 -0.137113 0
M  V30 4433 H 414.471 -1.9156 0.359281 0
M  V30 4434 H 413.567 -3.04941 -0.664634 0
M  V30 4435 N 413.868 0.0150385 -1.57593 0
M  V30 4436 C 415.096 0.714395 -1.94175 0
M  V30 4437 C 415.511 1.68135 -0.858841 0
M  V30 4438 O 414.868 1.81766 0.163567 0
M  V30 4439 C 414.919 1.45933 -3.30735 0
M  V30 4440 O 414.64 0.531167 -4.34868 0
M  V30 4441 C 416.141 2.25456 -3.81686 0
M  V30 4442 H 413.361 0.199923 -0.640525 0
M  V30 4443 H 415.905 -0.0316096 -2.04476 0
M  V30 4444 H 414.06 2.15709 -3.21789 0
M  V30 4445 H 414.474 1.05509 -5.13778 0
M  V30 4446 H 415.948 2.731 -4.79709 0
M  V30 4447 H 416.425 3.07485 -3.13607 0
M  V30 4448 H 417.031 1.60727 -3.9376 0
M  V30 4449 N 415.346 1.54954 0.287554 0
M  V30 4450 C 416.593 1.74873 1.02106 0
M  V30 4451 C 416.921 0.541829 1.86801 0
M  V30 4452 O 416.176 -0.475992 1.89823 0
M  V30 4453 C 416.475 2.99833 1.94512 0
M  V30 4454 C 416.141 4.33029 1.25686 0
M  V30 4455 C 414.803 4.69233 1.06649 0
M  V30 4456 C 417.155 5.15542 0.765913 0
M  V30 4457 C 414.483 5.85518 0.372222 0
M  V30 4458 C 416.835 6.32542 0.0853101 0
M  V30 4459 C 415.499 6.67398 -0.1169 0
M  V30 4460 H 414.769 0.639906 0.373632 0
M  V30 4461 H 417.416 1.89219 0.294665 0
M  V30 4462 H 415.721 2.80325 2.73725 0
M  V30 4463 H 417.418 3.1244 2.51361 0
M  V30 4464 H 414.008 4.04564 1.41512 0
M  V30 4465 H 418.192 4.88059 0.90066 0
M  V30 4466 H 413.448 6.11057 0.204695 0
M  V30 4467 H 417.622 6.95741 -0.302936 0
M  V30 4468 H 415.249 7.57357 -0.656859 0
M  V30 4469 N 416.824 -0.551391 1.4764 0
M  V30 4470 C 418.052 -1.33357 1.58189 0
M  V30 4471 C 418.467 -1.87342 0.234199 0
M  V30 4472 O 417.824 -1.65301 -0.77343 0
M  V30 4473 C 417.875 -2.49942 2.61173 0
M  V30 4474 O 417.596 -1.98187 3.90709 0
M  V30 4475 C 419.097 -3.42072 2.8196 0
M  V30 4476 H 416.317 -0.40631 0.533998 0
M  V30 4477 H 418.861 -0.667367 1.93304 0
M  V30 4478 H 417.016 -3.12489 2.28975 0
M  V30 4479 H 417.43 -2.74342 4.47031 0
M  V30 4480 H 418.904 -4.20278 3.57869 0
M  V30 4481 H 419.381 -3.95978 1.89995 0
M  V30 4482 H 419.987 -2.85336 3.15378 0
M  V30 4483 N 418.302 -1.35869 -0.798587 0
M  V30 4484 C 419.232 -1.32118 -1.92528 0
M  V30 4485 C 420.213 -0.194209 -1.68988 0
M  V30 4486 O 421.398 -0.390426 -1.90235 0
M  V30 4487 C 418.528 -1.10047 -3.29404 0
M  V30 4488 C 417.482 -2.19471 -3.67446 0
M  V30 4489 C 416.808 -1.82555 -5.02571 0
M  V30 4490 C 418.108 -3.61495 -3.76987 0
M  V30 4491 H 419.802 -2.26394 -1.95924 0
M  V30 4492 H 417.348 -1.08981 -0.94123 0
M  V30 4493 H 419.301 -1.06061 -4.07835 0
M  V30 4494 H 418.025 -0.122195 -3.26371 0
M  V30 4495 H 416.684 -2.22568 -2.91306 0
M  V30 4496 H 416.332 -0.833249 -4.9605 0
M  V30 4497 H 416.032 -2.5581 -5.28995 0
M  V30 4498 H 417.556 -1.80108 -5.83432 0
M  V30 4499 H 418.97 -3.60676 -4.4563 0
M  V30 4500 H 417.367 -4.33577 -4.14887 0
M  V30 4501 H 418.437 -3.97065 -2.78329 0
M  V30 4502 N 419.78 1.02168 -1.19998 0
M  V30 4503 C 421.02 1.77232 -1.01825 0
M  V30 4504 C 421.384 1.86833 0.442428 0
M  V30 4505 O 422.585 2.58293 0.744189 0
M  V30 4506 C 420.856 3.15601 -1.67722 0
M  V30 4507 S 422.415 4.06765 -1.64584 0
M  V30 4508 H 419.233 0.610021 -0.365233 0
M  V30 4509 H 421.835 1.22368 -1.52467 0
M  V30 4510 H 420.539 3.06235 -2.73218 0
M  V30 4511 H 420.07 3.7554 -1.17189 0
M  V30 4512 H 422.085 4.91586 -0.67511 0
M  V30 4513 N 421.258 1.00505 1.21394 0
M  V30 4514 C 422.504 0.698477 1.91031 0
M  V30 4515 C 422.859 -0.762448 1.76648 0
M  V30 4516 O 422.152 -1.54554 1.13241 0
M  V30 4517 C 422.346 1.0546 3.41486 0
M  V30 4518 C 422.175 2.5486 3.70508 0
M  V30 4519 C 420.945 3.21461 3.8986 0
M  V30 4520 C 423.143 3.53019 3.74008 0
M  V30 4521 N 421.125 4.60211 4.06299 0
M  V30 4522 C 422.496 4.77279 3.95733 0
M  V30 4523 C 424.551 3.47154 3.56915 0
M  V30 4524 C 423.254 5.96388 4.02137 0
M  V30 4525 C 425.28 4.65652 3.64585 0
M  V30 4526 C 424.642 5.88717 3.86771 0
M  V30 4527 H 420.741 0.30707 0.719189 0
M  V30 4528 H 423.325 1.28753 1.46051 0
M  V30 4529 H 421.496 0.494007 3.85246 0
M  V30 4530 H 423.228 0.702765 3.98552 0
M  V30 4531 H 419.983 2.71906 3.87768 0
M  V30 4532 H 420.407 5.32216 4.1842 0
M  V30 4533 H 425.049 2.53015 3.38738 0
M  V30 4534 H 422.767 6.90919 4.19114 0
M  V30 4535 H 426.353 4.62717 3.52681 0
M  V30 4536 H 425.233 6.78877 3.92549 0
M  V30 4537 N 422.737 -1.36956 0.779787 0
M  V30 4538 C 423.667 -2.32761 0.185651 0
M  V30 4539 C 424.648 -1.56177 -0.673989 0
M  V30 4540 O 425.833 -1.84378 -0.609797 0
M  V30 4541 C 422.963 -3.40418 -0.687964 0
M  V30 4542 C 421.917 -4.27941 0.0710102 0
M  V30 4543 C 421.243 -5.26681 -0.922573 0
M  V30 4544 C 422.543 -5.07006 1.25467 0
M  V30 4545 H 424.237 -2.82698 0.986008 0
M  V30 4546 H 421.783 -1.3592 0.475592 0
M  V30 4547 H 423.736 -4.06423 -1.11348 0
M  V30 4548 H 422.46 -2.89025 -1.52093 0
M  V30 4549 H 421.119 -3.63478 0.47739 0
M  V30 4550 H 420.767 -4.71565 -1.7503 0
M  V30 4551 H 420.467 -5.86103 -0.419237 0
M  V30 4552 H 421.991 -5.9556 -1.34686 0
M  V30 4553 H 423.405 -5.66105 0.905401 0
M  V30 4554 H 421.802 -5.75793 1.69063 0
M  V30 4555 H 422.872 -4.3921 2.05481 0
M  V30 4556 N 424.215 -0.530993 -1.48385 0
M  V30 4557 C 425.626 -0.0907905 -1.86479 0
M  V30 4558 C 425.977 1.33213 -1.44044 0
M  V30 4559 O 425.102 1.99783 -0.831615 0
M  V30 4560 C 425.697 -0.157987 -3.38431 0
M  V30 4561 C 424.256 0.227026 -3.75715 0
M  V30 4562 C 423.403 -0.5173 -2.72432 0
M  V30 4563 H 426.354 -0.742186 -1.40276 0
M  V30 4564 H 426.375 0.630053 -3.75247 0
M  V30 4565 H 425.887 -1.19372 -3.69286 0
M  V30 4566 H 423.988 1.26486 -3.50474 0
M  V30 4567 H 424.101 -0.113288 -4.78966 0
M  V30 4568 H 422.465 0.0365527 -2.54674 0
M  V30 4569 H 423.248 -1.55368 -3.0613 0
M  V30 4570 N 425.693 1.55336 -0.266172 0
M  V30 4571 C 426.94 1.99397 0.353158 0
M  V30 4572 C 427.268 1.15451 1.56529 0
M  V30 4573 O 426.523 0.209974 1.9457 0
M  V30 4574 C 426.822 3.48606 0.787957 0
M  V30 4575 C 426.488 4.49773 -0.318541 0
M  V30 4576 C 425.15 4.77158 -0.62239 0
M  V30 4577 C 427.502 5.10212 -1.06459 0
M  V30 4578 C 424.83 5.62251 -1.67602 0
M  V30 4579 C 427.182 5.96449 -2.10788 0
M  V30 4580 C 425.846 6.22158 -2.41817 0
M  V30 4581 H 425.116 0.729644 0.12923 0
M  V30 4582 H 427.763 1.87732 -0.37802 0
M  V30 4583 H 426.068 3.57701 1.59866 0
M  V30 4584 H 427.765 3.80098 1.27775 0
M  V30 4585 H 424.355 4.2854 -0.0715925 0
M  V30 4586 H 428.539 4.89086 -0.843098 0
M  V30 4587 H 423.795 5.80419 -1.92155 0
M  V30 4588 H 427.969 6.42317 -2.69076 0
M  V30 4589 H 425.596 6.87888 -3.23596 0
M  V30 4590 N 427.171 -0.0066808 1.57599 0
M  V30 4591 C 428.418 -0.69292 1.90276 0
M  V30 4592 C 428.746 -1.74148 0.866192 0
M  V30 4593 O 428.001 -1.95268 -0.129933 0
M  V30 4594 C 428.3 -1.37939 3.29708 0
M  V30 4595 C 427.966 -0.464679 4.48499 0
M  V30 4596 C 426.628 -0.212809 4.80729 0
M  V30 4597 C 428.98 0.16551 5.20937 0
M  V30 4598 C 426.308 0.677653 5.82773 0
M  V30 4599 C 428.66 1.04381 6.23929 0
M  V30 4600 C 427.324 1.30492 6.54621 0
M  V30 4601 H 426.594 -0.253558 0.696268 0
M  V30 4602 H 429.241 0.0474123 1.91441 0
M  V30 4603 H 427.546 -2.1936 3.24636 0
M  V30 4604 H 429.243 -1.9163 3.52249 0
M  V30 4605 H 425.833 -0.671153 4.23313 0
M  V30 4606 H 430.017 -0.0160756 4.96297 0
M  V30 4607 H 425.273 0.88803 6.04917 0
M  V30 4608 H 429.447 1.53851 6.79193 0
M  V30 4609 H 427.074 1.99662 7.33512 0
M  V30 4610 N 428.649 -1.55105 -0.279332 0
M  V30 4611 C 429.898 -1.74618 -1.00952 0
M  V30 4612 C 430.211 -0.551096 -1.87676 0
M  V30 4613 O 431.417 -0.628507 -2.64125 0
M  V30 4614 C 429.873 -3.09025 -1.84476 0
M  V30 4615 C 429.481 -4.36081 -1.0265 0
M  V30 4616 C 431.225 -3.37891 -2.56963 0
M  V30 4617 C 429.132 -5.6153 -1.85576 0
M  V30 4618 H 428.062 -0.650868 -0.38064 0
M  V30 4619 H 430.713 -1.81569 -0.265475 0
M  V30 4620 H 429.095 -2.96095 -2.62952 0
M  V30 4621 H 430.269 -4.59909 -0.286354 0
M  V30 4622 H 428.584 -4.14312 -0.416464 0
M  V30 4623 H 431.181 -4.28822 -3.19399 0
M  V30 4624 H 431.524 -2.57737 -3.26921 0
M  V30 4625 H 432.057 -3.5189 -1.85522 0
M  V30 4626 H 428.796 -6.44413 -1.2005 0
M  V30 4627 H 428.316 -5.41854 -2.57204 0
M  V30 4628 H 429.995 -5.99594 -2.43096 0
M  V30 4629 N 430.127 0.543554 -1.4793 0
M  V30 4630 C 431.373 1.30201 -1.55485 0
M  V30 4631 C 431.706 1.92925 -0.222201 0
M  V30 4632 O 430.981 1.78586 0.77053 0
M  V30 4633 C 431.264 2.40174 -2.68307 0
M  V30 4634 C 431.117 1.8223 -4.11233 0
M  V30 4635 C 432.436 3.42024 -2.76961 0
M  V30 4636 H 429.555 0.472036 -0.565996 0
M  V30 4637 H 432.197 0.606914 -1.80046 0
M  V30 4638 H 430.347 2.99463 -2.47495 0
M  V30 4639 H 432.019 1.27096 -4.43446 0
M  V30 4640 H 430.262 1.12832 -4.18869 0
M  V30 4641 H 430.933 2.61793 -4.85972 0
M  V30 4642 H 433.409 2.92672 -2.95774 0
M  V30 4643 H 432.285 4.16383 -3.57654 0
M  V30 4644 H 432.546 4.0173 -1.84568 0
M  V30 4645 N 431.605 1.3629 0.791371 0
M  V30 4646 C 432.553 1.30514 1.92533 0
M  V30 4647 C 433.547 0.197285 1.68247 0
M  V30 4648 O 434.753 0.364176 1.76278 0
M  V30 4649 H 431.128 0.406263 0.632815 0
M  V30 4650 H 433.099 2.26282 1.94523 0
M  V30 4651 C 431.848 1.10933 3.29529 0
M  V30 4652 H 431.171 1.95427 3.48781 0
M  V30 4653 H 432.611 1.10937 4.0923 0
M  V30 4654 C 431.07 -0.186123 3.36385 0
M  V30 4655 O 431.6 -1.17664 3.84081 0
M  V30 4656 N 429.806 -0.230128 2.89687 0
M  V30 4657 H 429.353 0.576545 2.51065 0
M  V30 4658 H 429.311 -1.09658 2.94657 0
M  V30 4659 N 433.083 -1.0153 1.20538 0
M  V30 4660 C 434.332 -1.74558 1.01057 0
M  V30 4661 C 434.645 -1.90168 -0.457756 0
M  V30 4662 O 435.851 -2.60301 -0.771722 0
M  V30 4663 C 434.307 -3.13963 1.75941 0
M  V30 4664 C 433.915 -3.06361 3.26875 0
M  V30 4665 C 435.659 -3.91191 1.64832 0
M  V30 4666 C 433.566 -4.40782 3.94291 0
M  V30 4667 H 432.496 -0.654417 0.374505 0
M  V30 4668 H 435.147 -1.13521 1.44171 0
M  V30 4669 H 433.529 -3.75549 1.25614 0
M  V30 4670 H 434.703 -2.54074 3.84425 0
M  V30 4671 H 433.018 -2.42625 3.38411 0
M  V30 4672 H 435.615 -4.90644 2.12539 0
M  V30 4673 H 435.958 -4.11884 0.604745 0
M  V30 4674 H 436.491 -3.36236 2.12579 0
M  V30 4675 H 433.23 -4.25292 4.98805 0
M  V30 4676 H 432.75 -4.9307 3.41529 0
M  V30 4677 H 434.429 -5.09621 3.98617 0
M  V30 4678 N 434.561 -1.01147 -1.20859 0
M  V30 4679 C 435.807 -0.698899 -1.90377 0
M  V30 4680 C 436.14 0.76904 -1.78324 0
M  V30 4681 O 435.415 1.55817 -1.16409 0
M  V30 4682 C 435.698 -1.12878 -3.41951 0
M  V30 4683 C 435.551 -2.65665 -3.62963 0
M  V30 4684 C 436.87 -0.696114 -4.3456 0
M  V30 4685 H 433.989 -0.255372 -0.691342 0
M  V30 4686 H 436.631 -1.25831 -1.42361 0
M  V30 4687 H 434.781 -0.652827 -3.82976 0
M  V30 4688 H 436.453 -3.21074 -3.31224 0
M  V30 4689 H 434.696 -3.06878 -3.06608 0
M  V30 4690 H 435.367 -2.90797 -4.69192 0
M  V30 4691 H 437.843 -1.10521 -4.01154 0
M  V30 4692 H 436.719 -1.025 -5.39245 0
M  V30 4693 H 436.98 0.402465 -4.40264 0
M  V30 4694 N 436.039 1.36541 -0.78704 0
M  V30 4695 C 436.989 2.27459 -0.156957 0
M  V30 4696 C 437.973 1.46843 0.657709 0
M  V30 4697 O 439.165 1.69245 0.518173 0
M  V30 4698 C 436.294 3.35893 0.709278 0
M  V30 4699 C 435.38 4.23947 -0.114049 0
M  V30 4700 N 435.771 4.92145 -1.16736 0
M  V30 4701 C 434.069 4.4587 0.107497 0
M  V30 4702 C 434.77 5.57261 -1.66837 0
M  V30 4703 N 433.746 5.3473 -0.977992 0
M  V30 4704 H 437.548 2.77669 -0.963185 0
M  V30 4705 H 435.062 1.49839 -0.62627 0
M  V30 4706 H 437.059 3.99953 1.17656 0
M  V30 4707 H 435.719 2.87238 1.51408 0
M  V30 4708 H 436.73 4.94169 -1.54976 0
M  V30 4709 H 433.407 4.08056 0.882994 0
M  V30 4710 H 434.797 6.21728 -2.54762 0
M  V30 4711 N 437.518 0.538854 1.48102 0
M  V30 4712 C 438.764 0.00801365 2.02798 0
M  V30 4713 C 439.097 -1.3309 1.41424 0
M  V30 4714 O 438.372 -1.86169 0.563158 0
M  V30 4715 C 438.655 -0.104589 3.59948 0
M  V30 4716 C 438.508 1.26012 4.31788 0
M  V30 4717 C 439.827 -0.827055 4.32259 0
M  V30 4718 H 436.946 0.00438624 0.736987 0
M  V30 4719 H 439.588 0.6976 1.7673 0
M  V30 4720 H 437.738 -0.691893 3.82289 0
M  V30 4721 H 439.41 1.88922 4.2084 0
M  V30 4722 H 437.653 1.83968 3.92859 0
M  V30 4723 H 438.324 1.13424 5.40221 0
M  V30 4724 H 440.8 -0.328578 4.14801 0
M  V30 4725 H 439.676 -0.87476 5.41885 0
M  V30 4726 H 439.937 -1.87927 4.0017 0
M  V30 4727 N 438.996 -1.55193 0.274407 0
M  V30 4728 C 440.245 -1.98758 -0.343213 0
M  V30 4729 C 440.558 -1.16624 -1.5703 0
M  V30 4730 O 441.764 -1.5033 -2.26082 0
M  V30 4731 C 440.22 -3.53759 -0.661996 0
M  V30 4732 C 439.828 -4.4467 0.54524 0
M  V30 4733 C 441.572 -4.05916 -1.24228 0
M  V30 4734 C 439.479 -5.91058 0.201084 0
M  V30 4735 H 438.409 -0.742353 -0.132014 0
M  V30 4736 H 441.06 -1.79545 0.378948 0
M  V30 4737 H 439.442 -3.68772 -1.44304 0
M  V30 4738 H 440.616 -4.41426 1.32212 0
M  V30 4739 H 438.931 -4.03143 1.04232 0
M  V30 4740 H 441.528 -5.12831 -1.51357 0
M  V30 4741 H 441.871 -3.54908 -2.17592 0
M  V30 4742 H 442.404 -3.9434 -0.523542 0
M  V30 4743 H 439.143 -6.46161 1.10258 0
M  V30 4744 H 438.663 -5.97373 -0.539045 0
M  V30 4745 H 440.342 -6.46669 -0.206954 0
M  V30 4746 N 440.474 -0.00167713 -1.576 0
M  V30 4747 C 441.406 1.0174 -2.05382 0
M  V30 4748 C 442.419 1.30595 -0.972052 0
M  V30 4749 O 443.608 1.27542 -1.24882 0
M  V30 4750 C 440.708 2.35174 -2.44022 0
M  V30 4751 C 439.881 2.25234 -3.74951 0
M  V30 4752 C 438.94 3.4137 -4.00441 0
M  V30 4753 O 437.966 3.19483 -4.71083 0
M  V30 4754 N 439.168 4.64275 -3.48467 0
M  V30 4755 H 441.933 0.609902 -2.93428 0
M  V30 4756 H 439.494 0.185672 -1.60832 0
M  V30 4757 H 441.486 3.11643 -2.58187 0
M  V30 4758 H 440.056 2.67659 -1.61485 0
M  V30 4759 H 439.276 1.33664 -3.70847 0
M  V30 4760 H 440.564 2.15767 -4.60784 0
M  V30 4761 H 439.962 4.84955 -2.91264 0
M  V30 4762 H 438.519 5.38005 -3.67959 0
M  V30 4763 N 441.952 1.55251 0.271103 0
M  V30 4764 C 443.229 1.66664 1.02384 0
M  V30 4765 C 443.609 0.534363 2.04225 0
M  V30 4766 O 442.957 -0.465337 2.23712 0
M  V30 4767 C 443.167 3.05961 1.67895 0
M  V30 4768 C 444.515 3.63772 2.18986 0
M  V30 4769 O 445.539 3.08606 1.77878 0
M  V30 4770 O 444.398 4.60429 2.94393 0
M  V30 4771 H 441.492 0.676957 0.475035 0
M  V30 4772 H 444.038 1.67589 0.26681 0
M  V30 4773 H 442.81 3.79815 0.941071 0
M  V30 4774 H 442.433 3.08943 2.5028 0
M  V30 4775 N 443.43 -0.535701 1.48216 0
M  V30 4776 C 444.378 -1.66179 1.62749 0
M  V30 4777 C 445.372 -1.62034 0.49409 0
M  V30 4778 O 446.578 -1.6696 0.672624 0
M  V30 4779 H 442.953 -0.550244 0.512578 0
M  V30 4780 H 444.924 -1.51063 2.57337 0
M  V30 4781 C 443.673 -3.04471 1.67907 0
M  V30 4782 H 442.996 -3.08351 2.54479 0
M  V30 4783 H 444.436 -3.82894 1.82121 0
M  V30 4784 C 442.895 -3.34314 0.416596 0
M  V30 4785 O 443.425 -3.98905 -0.473014 0
M  V30 4786 N 441.631 -2.89149 0.290038 0
M  V30 4787 H 441.178 -2.36764 1.01493 0
M  V30 4788 H 441.136 -3.09486 -0.55367 0
M  V30 4789 N 444.908 -1.36708 -0.784132 0
M  V30 4790 C 445.838 -1.34153 -1.91116 0
M  V30 4791 C 446.819 -0.212121 -1.68772 0
M  V30 4792 O 448.004 -0.410581 -1.8981 0
M  V30 4793 C 445.134 -1.13535 -3.28218 0
M  V30 4794 C 444.088 -2.23356 -3.65097 0
M  V30 4795 C 443.414 -1.87875 -5.00607 0
M  V30 4796 C 444.714 -3.65473 -3.73131 0
M  V30 4797 H 446.408 -2.28459 -1.93512 0
M  V30 4798 H 443.954 -1.09973 -0.929618 0
M  V30 4799 H 445.907 -1.10381 -4.06687 0
M  V30 4800 H 444.631 -0.156804 -3.26223 0
M  V30 4801 H 443.29 -2.25645 -2.88929 0
M  V30 4802 H 442.938 -0.885814 -4.95139 0
M  V30 4803 H 442.638 -2.61406 -5.26252 0
M  V30 4804 H 444.162 -1.86286 -5.81489 0
M  V30 4805 H 445.576 -3.65382 -4.41779 0
M  V30 4806 H 443.973 -4.37953 -4.10265 0
M  V30 4807 H 445.043 -3.99995 -2.74102 0
M  V30 4808 N 446.386 1.0089 -1.21074 0
M  V30 4809 C 447.635 1.74019 -1.01981 0
M  V30 4810 C 447.948 1.90408 0.447665 0
M  V30 4811 O 449.154 2.60707 0.757906 0
M  V30 4812 C 447.61 3.13026 -1.77603 0
M  V30 4813 C 447.218 3.04623 -3.28495 0
M  V30 4814 C 448.962 3.90312 -1.66904 0
M  V30 4815 C 446.869 4.38685 -3.96623 0
M  V30 4816 H 445.799 0.652422 -0.377971 0
M  V30 4817 H 448.45 1.12755 -1.44771 0
M  V30 4818 H 446.832 3.74878 -1.27604 0
M  V30 4819 H 448.006 2.52032 -3.85767 0
M  V30 4820 H 446.321 2.40827 -3.39693 0
M  V30 4821 H 448.918 4.8951 -2.15138 0
M  V30 4822 H 449.261 4.11558 -0.62658 0
M  V30 4823 H 449.794 3.35104 -2.14359 0
M  V30 4824 H 446.533 4.22641 -5.01054 0
M  V30 4825 H 446.053 4.91252 -3.4414 0
M  V30 4826 H 447.732 5.075 -4.01314 0
M  V30 4827 N 447.864 1.01787 1.20321 0
M  V30 4828 C 449.28 0.732951 1.41774 0
M  V30 4829 C 449.48 -0.686883 1.89431 0
M  V30 4830 O 448.536 -1.45446 2.06402 0
M  V30 4831 C 449.849 1.75973 2.43832 0
M  V30 4832 C 451.397 1.77802 2.57596 0
M  V30 4833 C 451.872 2.7941 3.62897 0
M  V30 4834 N 453.363 2.78157 3.70382 0
M  V30 4835 C 454.098 3.53434 4.51521 0
M  V30 4836 N 453.594 4.38392 5.36455 0
M  V30 4837 N 455.387 3.42026 4.46066 0
M  V30 4838 H 447.538 1.93447 0.877035 0
M  V30 4839 H 449.801 0.835712 0.447536 0
M  V30 4840 H 449.507 2.77699 2.15815 0
M  V30 4841 H 449.381 1.57292 3.4284 0
M  V30 4842 H 451.768 0.767602 2.84942 0
M  V30 4843 H 451.849 2.00557 1.58779 0
M  V30 4844 H 451.493 3.80616 3.36295 0
M  V30 4845 H 451.423 2.53916 4.61339 0
M  V30 4846 H 453.914 2.16531 3.09714 0
M  V30 4847 H 454.227 4.92596 5.95457 0
M  V30 4848 H 452.572 4.4247 5.35953 0
M  V30 4849 H 455.763 2.75075 3.78749 0
M  V30 4850 H 455.936 4.00946 5.09064 0
M  V30 4851 N 449.342 -1.36122 0.79427 0
M  V30 4852 C 450.289 -2.29982 0.194101 0
M  V30 4853 C 451.259 -1.52214 -0.664833 0
M  V30 4854 O 452.444 -1.80702 -0.612498 0
M  V30 4855 C 449.584 -3.38706 -0.661244 0
M  V30 4856 C 448.697 -4.31456 0.216766 0
M  V30 4857 C 447.832 -5.27265 -0.645411 0
M  V30 4858 C 446.871 -6.11653 0.233756 0
M  V30 4859 N 446.008 -6.99636 -0.587682 0
M  V30 4860 H 450.848 -2.80722 0.999965 0
M  V30 4861 H 448.385 -1.38172 0.504677 0
M  V30 4862 H 450.343 -4.00394 -1.17219 0
M  V30 4863 H 448.973 -2.89274 -1.43249 0
M  V30 4864 H 448.025 -3.7088 0.845724 0
M  V30 4865 H 449.337 -4.90724 0.893973 0
M  V30 4866 H 448.491 -5.94266 -1.22198 0
M  V30 4867 H 447.23 -4.68463 -1.35623 0
M  V30 4868 H 446.235 -5.4361 0.82269 0
M  V30 4869 H 447.46 -6.72531 0.942247 0
M  V30 4870 H 445.406 -6.43337 -1.2827 0
M  V30 4871 H 445.323 -7.55993 0.0317402 0
M  V30 4872 H 446.591 -7.71001 -1.14792 0
M  V30 4873 N 450.82 -0.546701 -1.47814 0
M  V30 4874 C 451.73 0.21026 -2.33656 0
M  V30 4875 C 452.746 0.922413 -1.47538 0
M  V30 4876 O 453.922 0.893652 -1.80488 0
M  V30 4877 C 450.987 1.23348 -3.24016 0
M  V30 4878 C 450.048 0.529883 -4.26017 0
M  V30 4879 C 449.281 1.50435 -5.12059 0
M  V30 4880 O 449.504 2.73837 -5.00369 0
M  V30 4881 O 448.438 1.03459 -5.92942 0
M  V30 4882 H 452.264 -0.493605 -2.99662 0
M  V30 4883 H 449.849 -0.307427 -1.46203 0
M  V30 4884 H 451.731 1.82438 -3.79861 0
M  V30 4885 H 450.406 1.91945 -2.60651 0
M  V30 4886 H 449.313 -0.101948 -3.73961 0
M  V30 4887 H 450.646 -0.11445 -4.92067 0
M  V30 4888 N 452.299 1.55045 -0.282633 0
M  V30 4889 C 453.545 2.00056 0.332481 0
M  V30 4890 C 453.878 1.1708 1.54939 0
M  V30 4891 O 453.153 0.2427 1.9298 0
M  V30 4892 C 453.436 3.53086 0.70725 0
M  V30 4893 C 453.289 4.46813 -0.517521 0
M  V30 4894 C 454.608 4.12245 1.54084 0
M  V30 4895 H 451.727 0.727268 0.119373 0
M  V30 4896 H 454.369 1.85932 -0.391076 0
M  V30 4897 H 452.519 3.65253 1.32372 0
M  V30 4898 H 454.191 4.46579 -1.15607 0
M  V30 4899 H 452.434 4.18163 -1.1542 0
M  V30 4900 H 453.105 5.51595 -0.211426 0
M  V30 4901 H 455.581 4.03401 1.02013 0
M  V30 4902 H 454.457 5.19515 1.77186 0
M  V30 4903 H 454.718 3.62951 2.52427 0
M  V30 4904 N 453.777 0.010035 1.57597 0
M  V30 4905 C 455.007 -0.682422 1.95004 0
M  V30 4906 C 455.415 -1.67278 0.884014 0
M  V30 4907 O 454.758 -1.83129 -0.144672 0
M  V30 4908 C 454.82 -1.46141 3.28456 0
M  V30 4909 C 454.484 -0.631523 4.52615 0
M  V30 4910 C 455.481 0.0850905 5.1983 0
M  V30 4911 C 453.166 -0.574539 4.99003 0
M  V30 4912 C 455.16 0.847566 6.3174 0
M  V30 4913 C 452.847 0.191655 6.10799 0
M  V30 4914 C 453.845 0.901432 6.77025 0
M  V30 4915 O 453.533 1.65511 7.86677 0
M  V30 4916 H 453.265 -0.194361 0.647456 0
M  V30 4917 H 455.819 0.060312 2.05311 0
M  V30 4918 H 454.049 -2.24885 3.14585 0
M  V30 4919 H 455.738 -2.04016 3.50902 0
M  V30 4920 H 456.504 0.0502812 4.84974 0
M  V30 4921 H 452.383 -1.11654 4.47274 0
M  V30 4922 H 455.927 1.4021 6.83364 0
M  V30 4923 H 451.824 0.228249 6.45096 0
M  V30 4924 H 452.592 1.57287 8.03245 0
M  V30 4925 N 455.255 -1.55392 -0.262866 0
M  V30 4926 C 456.504 -1.75679 -0.990943 0
M  V30 4927 C 456.817 -0.57097 -1.87081 0
M  V30 4928 O 458.023 -0.656486 -2.63444 0
M  V30 4929 C 456.479 -3.10964 -1.81188 0
M  V30 4930 C 456.087 -4.37146 -0.980188 0
M  V30 4931 C 457.831 -3.40597 -2.53365 0
M  V30 4932 C 455.738 -5.63466 -1.7961 0
M  V30 4933 H 454.668 -0.654868 -0.373716 0
M  V30 4934 H 457.319 -1.81841 -0.246203 0
M  V30 4935 H 455.701 -2.98867 -2.59797 0
M  V30 4936 H 456.875 -4.60187 -0.237558 0
M  V30 4937 H 455.19 -4.14731 -0.372497 0
M  V30 4938 H 457.787 -4.32186 -3.14833 0
M  V30 4939 H 458.13 -2.6119 -3.24169 0
M  V30 4940 H 458.663 -3.53838 -1.81779 0
M  V30 4941 H 455.402 -6.4565 -1.13209 0
M  V30 4942 H 454.922 -5.44552 -2.51443 0
M  V30 4943 H 456.601 -6.02139 -2.36723 0
M  V30 4944 N 456.733 0.527833 -1.48498 0
M  V30 4945 C 457.663 1.64136 -1.66077 0
M  V30 4946 C 458.644 1.62286 -0.509625 0
M  V30 4947 O 459.829 1.79449 -0.742413 0
M  V30 4948 C 456.959 3.02717 -1.70234 0
M  V30 4949 C 455.913 3.19426 -2.8487 0
M  V30 4950 C 455.239 4.5909 -2.74118 0
M  V30 4951 C 456.539 3.01993 -4.26142 0
M  V30 4952 H 458.233 1.4968 -2.593 0
M  V30 4953 H 455.779 0.718654 -1.24785 0
M  V30 4954 H 457.732 3.80491 -1.8112 0
M  V30 4955 H 456.456 3.18201 -0.735911 0
M  V30 4956 H 455.115 2.4407 -2.73542 0
M  V30 4957 H 454.763 4.71413 -1.7544 0
M  V30 4958 H 454.463 4.71214 -3.51042 0
M  V30 4959 H 455.987 5.3896 -2.86974 0
M  V30 4960 H 457.401 3.69558 -4.38292 0
M  V30 4961 H 455.798 3.2561 -5.04082 0
M  V30 4962 H 456.868 1.98396 -4.42456 0
M  V30 4963 N 458.211 1.37122 0.776871 0
M  V30 4964 C 459.141 1.35164 1.90402 0
M  V30 4965 C 460.122 0.221069 1.68657 0
M  V30 4966 O 461.307 0.420642 1.8959 0
M  V30 4967 C 458.437 1.15274 3.27611 0
M  V30 4968 C 457.391 2.25289 3.63908 0
M  V30 4969 C 456.717 1.90527 4.99603 0
M  V30 4970 C 458.017 3.67446 3.71188 0
M  V30 4971 H 459.711 2.29482 1.92297 0
M  V30 4972 H 457.257 1.10465 0.923773 0
M  V30 4973 H 459.21 1.12536 4.06096 0
M  V30 4974 H 457.934 0.174102 3.26136 0
M  V30 4975 H 456.593 2.27174 2.87728 0
M  V30 4976 H 456.241 0.91206 4.94662 0
M  V30 4977 H 455.941 2.64193 5.24858 0
M  V30 4978 H 457.465 1.89367 5.80493 0
M  V30 4979 H 458.879 3.67719 4.39836 0
M  V30 4980 H 457.276 4.40123 4.07936 0
M  V30 4981 H 458.346 4.01443 2.71977 0
M  V30 4982 N 459.689 -1.00246 1.21608 0
M  V30 4983 C 460.637 -2.11193 0.97469 0
M  V30 4984 C 461.631 -1.69216 -0.0789303 0
M  V30 4985 O 462.837 -1.79853 0.0726806 0
M  V30 4986 H 459.212 -0.690455 0.297953 0
M  V30 4987 H 461.183 -2.2873 1.91638 0
M  V30 4988 C 459.932 -3.43182 0.558717 0
M  V30 4989 H 459.255 -3.75918 1.3611 0
M  V30 4990 H 460.695 -4.21823 0.429154 0
M  V30 4991 C 459.154 -3.28882 -0.730648 0
M  V30 4992 O 459.684 -3.59835 -1.78554 0
M  V30 4993 N 457.89 -2.8209 -0.698131 0
M  V30 4994 H 457.437 -2.57099 0.16061 0
M  V30 4995 H 457.395 -2.72903 -1.56113 0
M  V30 4996 N 461.167 -1.02423 -1.1978 0
M  V30 4997 C 462.413 -0.72878 -1.89896 0
M  V30 4998 C 462.768 0.734248 -1.77839 0
M  V30 4999 O 462.061 1.52733 -1.15685 0
M  V30 5000 C 462.255 -1.1088 -3.39765 0
M  V30 5001 C 462.084 -2.60722 -3.66407 0
M  V30 5002 C 460.854 -3.27623 -3.84696 0
M  V30 5003 C 463.052 -3.58924 -3.68345 0
M  V30 5004 N 461.034 -4.66617 -3.98926 0
M  V30 5005 C 462.405 -4.83514 -3.8809 0
M  V30 5006 C 464.46 -3.52788 -3.51347 0
M  V30 5007 C 463.163 -6.0271 -3.92598 0
M  V30 5008 C 465.189 -4.71394 -3.5713 0
M  V30 5009 C 464.551 -5.94796 -3.77356 0
M  V30 5010 H 460.65 -0.318473 -0.714212 0
M  V30 5011 H 463.234 -1.3106 -1.43984 0
M  V30 5012 H 461.405 -0.555233 -3.84411 0
M  V30 5013 H 463.137 -0.766082 -3.97383 0
M  V30 5014 H 459.892 -2.7804 -3.83393 0
M  V30 5015 H 460.316 -5.38805 -4.099 0
M  V30 5016 H 464.958 -2.58372 -3.3467 0
M  V30 5017 H 462.676 -6.97499 -4.08069 0
M  V30 5018 H 466.262 -4.6827 -3.45275 0
M  V30 5019 H 465.142 -6.85037 -3.81699 0
M  V30 5020 N 462.645 1.35699 -0.801477 0
M  V30 5021 C 463.894 1.98165 -0.375979 0
M  V30 5022 C 464.207 1.64306 1.06127 0
M  V30 5023 O 465.413 2.20097 1.58964 0
M  V30 5024 C 463.869 3.54497 -0.621305 0
M  V30 5025 C 463.477 3.9727 -2.07076 0
M  V30 5026 C 465.221 4.23697 -0.26091 0
M  V30 5027 C 463.128 5.46427 -2.26211 0
M  V30 5028 H 462.058 0.741478 -0.136844 0
M  V30 5029 H 464.709 1.54834 -0.984814 0
M  V30 5030 H 463.091 3.95958 0.0574112 0
M  V30 5031 H 464.265 3.66974 -2.78687 0
M  V30 5032 H 462.58 3.40943 -2.39054 0
M  V30 5033 H 465.177 5.33334 -0.381994 0
M  V30 5034 H 465.52 4.0869 0.792344 0
M  V30 5035 H 466.053 3.87639 -0.893339 0
M  V30 5036 H 462.792 5.66396 -3.29963 0
M  V30 5037 H 462.312 5.78309 -1.59119 0
M  V30 5038 H 463.991 6.12819 -2.07513 0
M  V30 5039 N 464.123 0.554532 1.47522 0
M  V30 5040 C 465.371 0.0294208 2.02079 0
M  V30 5041 C 465.692 -1.32411 1.43151 0
M  V30 5042 O 464.962 -1.863 0.605728 0
M  V30 5043 H 463.542 0.00788672 0.746958 0
M  V30 5044 H 466.204 0.723934 1.80956 0
M  V30 5045 H 465.3 -0.0606745 3.12041 0
M  V30 5046 N 465.601 -1.54893 0.290851 0
M  V30 5047 C 466.831 -2.04047 -0.323818 0
M  V30 5048 C 467.239 -1.16809 -1.48837 0
M  V30 5049 O 466.582 -0.184145 -1.82775 0
M  V30 5050 C 466.644 -3.49248 -0.852395 0
M  V30 5051 C 466.308 -4.56623 0.185557 0
M  V30 5052 C 467.305 -5.09985 1.01053 0
M  V30 5053 C 464.99 -5.01252 0.324332 0
M  V30 5054 C 466.984 -6.06507 1.96031 0
M  V30 5055 C 464.671 -5.97596 1.27757 0
M  V30 5056 C 465.669 -6.50107 2.09405 0
M  V30 5057 O 465.357 -7.44565 3.03114 0
M  V30 5058 H 465.089 -0.671735 -0.0758129 0
M  V30 5059 H 467.643 -2.00947 0.425393 0
M  V30 5060 H 465.873 -3.49639 -1.65195 0
M  V30 5061 H 467.562 -3.81654 -1.38185 0
M  V30 5062 H 468.328 -4.76307 0.914129 0
M  V30 5063 H 464.207 -4.60015 -0.301213 0
M  V30 5064 H 467.751 -6.47418 2.598 0
M  V30 5065 H 463.648 -6.30691 1.37473 0
M  V30 5066 H 464.416 -7.62334 2.97976 0
M  V30 5067 N 467.08 -0.0183926 -1.57589 0
M  V30 5068 C 468.326 0.663543 -1.91638 0
M  V30 5069 C 468.659 1.72392 -0.894134 0
M  V30 5070 O 467.934 1.94316 0.0846449 0
M  V30 5071 C 468.217 1.28984 -3.36207 0
M  V30 5072 C 468.07 0.239761 -4.49161 0
M  V30 5073 C 469.389 2.2109 -3.80536 0
M  V30 5074 H 466.508 0.239746 -0.696915 0
M  V30 5075 H 469.15 -0.073456 -1.89858 0
M  V30 5076 H 467.3 1.91799 -3.37854 0
M  V30 5077 H 468.972 -0.390119 -4.59647 0
M  V30 5078 H 467.215 -0.435972 -4.31604 0
M  V30 5079 H 467.886 0.717383 -5.47319 0
M  V30 5080 H 470.362 1.68273 -3.80557 0
M  V30 5081 H 469.238 2.61869 -4.82406 0
M  V30 5082 H 469.499 3.09764 -3.15434 0
M  V30 5083 N 468.558 1.5553 0.254621 0
M  V30 5084 C 469.506 1.9048 1.33492 0
M  V30 5085 C 470.5 0.78304 1.50216 0
M  V30 5086 O 471.706 0.967582 1.51782 0
M  V30 5087 H 468.081 0.604846 0.44684 0
M  V30 5088 H 470.052 2.80688 1.01275 0
M  V30 5089 C 468.801 2.20928 2.68489 0
M  V30 5090 H 468.124 3.06742 2.56417 0
M  V30 5091 H 469.564 2.49291 3.42972 0
M  V30 5092 C 468.023 1.023 3.20993 0
M  V30 5093 O 468.553 0.267027 4.00811 0
M  V30 5094 N 466.759 0.815714 2.78917 0
M  V30 5095 H 466.306 1.43217 2.14119 0
M  V30 5096 H 466.264 0.0236532 3.14391 0
M  V30 5097 N 470.036 -0.519951 1.48776 0
M  V30 5098 C 471.261 -1.30447 1.6124 0
M  V30 5099 C 471.686 -1.86055 0.276591 0
M  V30 5100 O 471.044 -1.64915 -0.753183 0
M  V30 5101 C 471.092 -2.42406 2.66967 0
M  V30 5102 O 470.196 -3.45728 2.24824 0
M  V30 5103 H 469.537 -0.385924 0.540332 0
M  V30 5104 H 472.067 -0.624572 1.94834 0
M  V30 5105 H 472.077 -2.88447 2.88552 0
M  V30 5106 H 470.752 -2.01294 3.63941 0
M  V30 5107 H 469.329 -3.05737 2.13494 0
M  V30 5108 N 471.514 -1.37532 -0.769588 0
M  V30 5109 C 472.762 -1.32597 -1.5252 0
M  V30 5110 C 473.083 0.0884294 -1.94799 0
M  V30 5111 O 472.353 1.03289 -1.66458 0
M  V30 5112 H 470.933 -0.487846 -0.565699 0
M  V30 5113 H 473.595 -1.72044 -0.915806 0
M  V30 5114 H 472.691 -1.96643 -2.42359 0
M  V30 5115 N 472.992 0.995999 -1.22138 0
M  V30 5116 C 474.239 1.7351 -1.04406 0
M  V30 5117 C 474.567 1.89884 0.421244 0
M  V30 5118 O 473.822 1.43683 1.32867 0
M  V30 5119 C 474.121 3.14553 -1.6968 0
M  V30 5120 C 473.787 3.18102 -3.19565 0
M  V30 5121 C 472.449 3.18778 -3.60464 0
M  V30 5122 C 474.801 3.14636 -4.15516 0
M  V30 5123 C 472.129 3.13684 -4.95801 0
M  V30 5124 C 474.481 3.11084 -5.50826 0
M  V30 5125 C 473.145 3.10074 -5.91109 0
M  V30 5126 H 472.415 0.634916 -0.38205 0
M  V30 5127 H 475.062 1.1667 -1.51857 0
M  V30 5128 H 473.367 3.74682 -1.14546 0
M  V30 5129 H 475.064 3.70477 -1.53454 0
M  V30 5130 H 471.654 3.18324 -2.86998 0
M  V30 5131 H 475.838 3.13266 -3.84939 0
M  V30 5132 H 471.094 3.11245 -5.26247 0
M  V30 5133 H 475.268 3.07357 -6.24904 0
M  V30 5134 H 472.895 3.05882 -6.95946 0
M  V30 5135 N 474.47 1.03057 1.19235 0
M  V30 5136 C 475.418 0.606391 2.24557 0
M  V30 5137 C 476.412 -0.361826 1.65491 0
M  V30 5138 O 477.618 -0.23022 1.78522 0
M  V30 5139 H 473.993 0.177838 0.730669 0
M  V30 5140 H 475.964 1.50529 2.5765 0
M  V30 5141 C 474.713 -0.0252127 3.47691 0
M  V30 5142 H 474.036 0.710838 3.9343 0
M  V30 5143 H 475.476 -0.284931 4.23042 0
M  V30 5144 C 473.935 -1.27229 3.11953 0
M  V30 5145 O 474.465 -2.36416 3.24762 0
M  V30 5146 N 472.671 -1.16169 2.6637 0
M  V30 5147 H 472.218 -0.273189 2.56147 0
M  V30 5148 H 472.176 -1.99703 2.42829 0
M  V30 5149 N 475.948 -1.35272 0.808662 0
M  V30 5150 C 477.359 -1.81179 0.450688 0
M  V30 5151 C 477.71 -1.67143 -1.02751 0
M  V30 5152 O 476.835 -1.20325 -1.79864 0
M  V30 5153 C 477.43 -3.28943 0.811275 0
M  V30 5154 C 475.989 -3.72985 0.505871 0
M  V30 5155 C 475.136 -2.57229 1.03578 0
M  V30 5156 H 478.087 -1.2322 1.00012 0
M  V30 5157 H 478.108 -3.80342 0.109588 0
M  V30 5158 H 477.62 -3.39127 1.88718 0
M  V30 5159 H 475.721 -3.68349 -0.561209 0
M  V30 5160 H 475.834 -4.67677 1.03995 0
M  V30 5161 H 474.198 -2.50548 0.458005 0
M  V30 5162 H 474.981 -2.7019 2.11784 0
M  V30 5163 N 477.426 -0.562348 -1.47226 0
M  V30 5164 C 478.356 0.170627 -2.32876 0
M  V30 5165 C 479.337 0.903748 -1.44106 0
M  V30 5166 O 480.522 0.883206 -1.72954 0
M  V30 5167 C 477.652 1.19786 -3.25989 0
M  V30 5168 C 476.606 0.580875 -4.2404 0
M  V30 5169 C 475.932 1.71311 -5.06514 0
M  V30 5170 C 477.232 -0.468714 -5.20193 0
M  V30 5171 H 478.926 -0.544441 -2.94408 0
M  V30 5172 H 476.472 -0.263271 -1.41573 0
M  V30 5173 H 478.425 1.71884 -3.84752 0
M  V30 5174 H 477.149 1.94294 -2.62521 0
M  V30 5175 H 475.808 0.0811538 -3.6651 0
M  V30 5176 H 475.456 2.44736 -4.39447 0
M  V30 5177 H 475.156 1.30604 -5.72902 0
M  V30 5178 H 476.68 2.23725 -5.68137 0
M  V30 5179 H 478.094 -0.0336028 -5.7329 0
M  V30 5180 H 476.491 -0.794957 -5.94811 0
M  V30 5181 H 477.561 -1.36269 -4.65359 0
M  V30 5182 N 478.904 1.54736 -0.299062 0
M  V30 5183 C 480.153 1.99279 0.311549 0
M  V30 5184 C 480.466 1.19107 1.55154 0
M  V30 5185 O 481.672 1.53908 2.23662 0
M  V30 5186 C 480.128 3.54768 0.605632 0
M  V30 5187 C 479.736 4.43746 -0.615914 0
M  V30 5188 C 481.48 4.07841 1.17754 0
M  V30 5189 C 479.387 5.90663 -0.29509 0
M  V30 5190 H 478.317 0.744359 0.120187 0
M  V30 5191 H 480.968 1.78919 -0.407464 0
M  V30 5192 H 479.35 3.71021 1.38419 0
M  V30 5193 H 480.524 4.39267 -1.39218 0
M  V30 5194 H 478.839 4.01434 -1.10633 0
M  V30 5195 H 481.436 5.15174 1.43179 0
M  V30 5196 H 481.779 3.58324 2.11918 0
M  V30 5197 H 482.312 3.95123 0.460739 0
M  V30 5198 H 479.051 6.44325 -1.20524 0
M  V30 5199 H 478.571 5.98155 0.44394 0
M  V30 5200 H 480.25 6.46916 0.104048 0
M  V30 5201 N 480.382 0.0267497 1.57577 0
M  V30 5202 C 481.612 -0.6617 1.95717 0
M  V30 5203 C 482.02 -1.66331 0.901706 0
M  V30 5204 O 481.363 -1.83273 -0.125241 0
M  V30 5205 C 481.425 -1.42649 3.29987 0
M  V30 5206 C 481.089 -0.583482 4.5326 0
M  V30 5207 C 482.086 0.140221 5.19711 0
M  V30 5208 C 479.771 -0.521581 4.99585 0
M  V30 5209 C 481.765 0.914523 6.30805 0
M  V30 5210 C 479.452 0.256428 6.10562 0
M  V30 5211 C 480.45 0.973189 6.76031 0
M  V30 5212 O 480.138 1.73845 7.84878 0
M  V30 5213 H 479.87 -0.187483 0.649481 0
M  V30 5214 H 482.424 0.0820847 2.05236 0
M  V30 5215 H 480.654 -2.21536 3.16952 0
M  V30 5216 H 482.343 -2.00282 3.53047 0
M  V30 5217 H 483.109 0.101716 4.84893 0
M  V30 5218 H 478.988 -1.06904 4.48433 0
M  V30 5219 H 482.532 1.4745 6.81839 0
M  V30 5220 H 478.429 0.296657 6.44818 0
M  V30 5221 H 479.197 1.65797 8.01532 0
M  V30 5222 N 481.861 -1.55662 -0.24637 0
M  V30 5223 C 483.101 -1.79283 -0.981685 0
M  V30 5224 C 483.465 -0.596356 -1.82504 0
M  V30 5225 O 484.666 -0.711342 -2.59217 0
M  V30 5226 C 482.937 -3.07648 -1.819 0
M  V30 5227 S 484.496 -3.52491 -2.61334 0
M  V30 5228 H 481.314 -0.629676 -0.330196 0
M  V30 5229 H 483.916 -1.93901 -0.249498 0
M  V30 5230 H 482.62 -3.92794 -1.18915 0
M  V30 5231 H 482.151 -2.95768 -2.59393 0
M  V30 5232 H 484.166 -3.13866 -3.84321 0
M  V30 5233 N 483.339 0.512053 -1.4905 0
M  V30 5234 C 484.755 0.84224 -1.35567 0
M  V30 5235 C 484.955 1.97878 -0.380319 0
M  V30 5236 O 484.011 2.51769 0.19201 0
M  V30 5237 C 485.324 1.19286 -2.76028 0
M  V30 5238 C 486.872 1.30171 -2.84648 0
M  V30 5239 C 487.347 1.68568 -4.25851 0
M  V30 5240 N 488.838 1.75638 -4.28609 0
M  V30 5241 C 489.573 2.06769 -5.34821 0
M  V30 5242 N 489.069 2.36201 -6.51292 0
M  V30 5243 N 490.862 2.07927 -5.22229 0
M  V30 5244 H 483.013 -0.237574 -2.11067 0
M  V30 5245 H 485.276 -0.0436747 -0.946993 0
M  V30 5246 H 484.982 0.431199 -3.49047 0
M  V30 5247 H 484.856 2.13889 -3.10695 0
M  V30 5248 H 487.243 2.05411 -2.11873 0
M  V30 5249 H 487.324 0.336457 -2.53578 0
M  V30 5250 H 486.968 0.938824 -4.99148 0
M  V30 5251 H 486.898 2.66174 -4.54377 0
M  V30 5252 H 489.389 1.55097 -3.44606 0
M  V30 5253 H 489.702 2.59112 -7.28066 0
M  V30 5254 H 488.047 2.33681 -6.54536 0
M  V30 5255 H 491.238 1.84403 -4.30248 0
M  V30 5256 H 491.411 2.31856 -6.05101 0
M  V30 5257 N 484.817 1.37938 0.762283 0
M  V30 5258 C 486.042 1.37059 1.55659 0
M  V30 5259 C 486.467 -0.0396123 1.88058 0
M  V30 5260 O 485.825 -1.01929 1.49934 0
M  V30 5261 C 485.873 2.22494 2.83776 0
M  V30 5262 O 484.977 1.63607 3.78559 0
M  V30 5263 H 484.318 0.467892 0.47114 0
M  V30 5264 H 486.848 1.81587 0.942725 0
M  V30 5265 H 486.858 2.36045 3.32786 0
M  V30 5266 H 485.533 3.24993 2.59524 0
M  V30 5267 H 484.11 1.5915 3.37233 0
M  V30 5268 N 486.295 -0.989507 1.22664 0
M  V30 5269 C 487.706 -1.54406 1.04955 0
M  V30 5270 C 488.057 -1.92366 -0.385951 0
M  V30 5271 O 487.182 -1.75111 -1.27142 0
M  V30 5272 C 487.777 -2.80578 1.89899 0
M  V30 5273 C 486.336 -3.32464 1.76478 0
M  V30 5274 C 485.483 -2.05524 1.86159 0
M  V30 5275 H 488.434 -0.810211 1.3646 0
M  V30 5276 H 488.455 -3.53075 1.4184 0
M  V30 5277 H 487.967 -2.52918 2.94371 0
M  V30 5278 H 486.068 -3.65024 0.747528 0
M  V30 5279 H 486.181 -4.02838 2.59342 0
M  V30 5280 H 484.545 -2.19241 1.29636 0
M  V30 5281 H 485.328 -1.80258 2.92168 0
M  V30 5282 N 487.773 -1.03688 -1.18687 0
M  V30 5283 C 489.05 -0.652397 -1.84399 0
M  V30 5284 C 489.43 0.868386 -1.92412 0
M  V30 5285 O 488.778 1.76832 -1.44716 0
M  V30 5286 C 488.988 -1.3238 -3.22919 0
M  V30 5287 C 490.336 -1.45216 -3.98996 0
M  V30 5288 O 491.36 -1.2816 -3.32345 0
M  V30 5289 O 490.219 -1.72975 -5.18403 0
M  V30 5290 H 487.313 -0.227793 -0.795009 0
M  V30 5291 H 489.859 -1.13553 -1.2611 0
M  V30 5292 H 488.631 -2.36202 -3.11968 0
M  V30 5293 H 488.254 -0.829039 -3.88861 0
M  V30 5294 N 489.251 1.34841 -0.815825 0
M  V30 5295 C 490.498 1.98499 -0.400535 0
M  V30 5296 C 490.826 1.64699 1.03463 0
M  V30 5297 O 490.081 0.907006 1.73412 0
M  V30 5298 C 490.38 3.53273 -0.541541 0
M  V30 5299 C 490.046 4.06966 -1.94138 0
M  V30 5300 C 488.708 4.21341 -2.32433 0
M  V30 5301 C 491.06 4.35933 -2.85677 0
M  V30 5302 C 488.388 4.62007 -3.61617 0
M  V30 5303 C 490.74 4.78042 -4.14317 0
M  V30 5304 C 489.404 4.90622 -4.52599 0
M  V30 5305 H 488.674 0.72636 -0.146566 0
M  V30 5306 H 491.321 1.60902 -1.0384 0
M  V30 5307 H 489.626 3.91387 0.179741 0
M  V30 5308 H 491.323 4.00497 -0.20085 0
M  V30 5309 H 487.913 3.96235 -1.63388 0
M  V30 5310 H 492.097 4.24372 -2.57337 0
M  V30 5311 H 487.353 4.69937 -3.91113 0
M  V30 5312 H 491.527 4.99415 -4.85342 0
M  V30 5313 H 489.154 5.2189 -5.52752 0
M  V30 5314 N 490.729 0.570148 1.46925 0
M  V30 5315 C 492.145 0.23087 1.57921 0
M  V30 5316 C 492.345 -1.26676 1.56702 0
M  V30 5317 O 491.401 -2.04774 1.47729 0
M  V30 5318 C 492.714 0.868973 2.8787 0
M  V30 5319 C 494.262 0.841397 3.01479 0
M  V30 5320 C 494.737 1.45881 4.34146 0
M  V30 5321 N 496.228 1.42258 4.40814 0
M  V30 5322 C 496.963 1.8698 5.42057 0
M  V30 5323 N 496.459 2.39618 6.50042 0
M  V30 5324 N 498.252 1.77972 5.33181 0
M  V30 5325 H 490.403 1.54301 1.45962 0
M  V30 5326 H 492.666 0.644224 0.69547 0
M  V30 5327 H 492.372 1.922 2.94537 0
M  V30 5328 H 492.246 0.369682 3.75384 0
M  V30 5329 H 494.633 -0.202973 2.94401 0
M  V30 5330 H 494.714 1.37858 2.15474 0
M  V30 5331 H 494.358 2.50231 4.4198 0
M  V30 5332 H 494.288 0.896958 5.18905 0
M  V30 5333 H 496.779 1.03768 3.63374 0
M  V30 5334 H 497.092 2.71633 7.23488 0
M  V30 5335 H 495.437 2.43636 6.50897 0
M  V30 5336 H 498.628 1.36617 4.4772 0
M  V30 5337 H 498.801 2.13143 6.11943 0
M  V30 5338 N 492.207 -1.54576 0.307264 0
M  V30 5339 C 493.456 -1.99442 -0.300976 0
M  V30 5340 C 493.769 -1.19928 -1.5452 0
M  V30 5341 O 494.975 -1.55092 -2.22842 0
M  V30 5342 C 493.431 -3.55084 -0.586809 0
M  V30 5343 C 493.039 -4.43413 0.639438 0
M  V30 5344 C 494.783 -4.0846 -1.1559 0
M  V30 5345 C 492.69 -5.90499 0.326411 0
M  V30 5346 H 491.62 -0.744986 -0.116238 0
M  V30 5347 H 494.271 -1.787 0.416947 0
M  V30 5348 H 492.653 -3.71749 -1.36449 0
M  V30 5349 H 493.827 -4.38522 1.41545 0
M  V30 5350 H 492.142 -4.00842 1.1276 0
M  V30 5351 H 494.739 -5.15926 -1.40445 0
M  V30 5352 H 495.082 -3.59443 -2.10015 0
M  V30 5353 H 495.615 -3.95362 -0.439778 0
M  V30 5354 H 492.354 -6.43676 1.23939 0
M  V30 5355 H 491.874 -5.98382 -0.412212 0
M  V30 5356 H 493.553 -6.46962 -0.0697393 0
M  V30 5357 N 493.685 -0.035106 -1.57561 0
M  V30 5358 C 494.648 0.929819 -2.09492 0
M  V30 5359 C 495.648 1.25026 -1.01119 0
M  V30 5360 O 496.838 1.18961 -1.27255 0
M  V30 5361 C 493.97 2.24457 -2.56577 0
M  V30 5362 H 495.163 0.479935 -2.96035 0
M  V30 5363 H 492.716 0.213033 -1.54841 0
M  V30 5364 H 493.451 2.74061 -1.73382 0
M  V30 5365 H 493.236 2.02508 -3.35757 0
M  V30 5366 H 494.726 2.93607 -2.96959 0
M  V30 5367 N 495.163 1.55791 0.238111 0
M  V30 5368 C 496.41 1.78033 0.964907 0
M  V30 5369 C 496.738 0.600984 1.84982 0
M  V30 5370 O 495.993 -0.41536 1.91241 0
M  V30 5371 C 496.292 3.05869 1.84875 0
M  V30 5372 C 495.958 4.36808 1.11846 0
M  V30 5373 C 494.62 4.72388 0.916662 0
M  V30 5374 C 496.972 5.17717 0.60151 0
M  V30 5375 C 494.3 5.86406 0.185756 0
M  V30 5376 C 496.652 6.32494 -0.115972 0
M  V30 5377 C 495.316 6.66688 -0.329168 0
M  V30 5378 H 494.586 0.651469 0.353085 0
M  V30 5379 H 497.233 1.90061 0.234318 0
M  V30 5380 H 495.538 2.88891 2.64668 0
M  V30 5381 H 497.235 3.20278 2.41294 0
M  V30 5382 H 493.825 4.08862 1.28569 0
M  V30 5383 H 498.009 4.90678 0.744932 0
M  V30 5384 H 493.265 6.11399 0.0101886 0
M  V30 5385 H 497.439 6.94425 -0.524127 0
M  V30 5386 H 495.066 7.54884 -0.897474 0
M  V30 5387 N 496.642 -0.504142 1.49319 0
M  V30 5388 C 497.574 -1.62265 1.61872 0
M  V30 5389 C 498.587 -1.54881 0.501573 0
M  V30 5390 O 499.776 -1.6087 0.773497 0
M  V30 5391 C 496.876 -3.01042 1.55651 0
M  V30 5392 C 496.049 -3.33642 2.82845 0
M  V30 5393 C 495.108 -4.51816 2.69719 0
M  V30 5394 O 494.134 -4.53755 3.4365 0
M  V30 5395 N 495.336 -5.51543 1.81055 0
M  V30 5396 H 498.101 -1.51924 2.58339 0
M  V30 5397 H 495.662 -0.691954 1.46368 0
M  V30 5398 H 497.654 -3.78013 1.44528 0
M  V30 5399 H 496.224 -3.05323 0.670546 0
M  V30 5400 H 495.444 -2.45598 3.08343 0
M  V30 5401 H 496.732 -3.5222 3.67177 0
M  V30 5402 H 496.13 -5.52774 1.20241 0
M  V30 5403 H 494.687 -6.27629 1.75856 0
M  V30 5404 N 498.12 -1.38341 -0.754957 0
M  V30 5405 C 499.03 -1.3769 -1.89944 0
M  V30 5406 C 500.046 -0.274194 -1.71826 0
M  V30 5407 O 501.222 -0.512391 -1.94773 0
M  V30 5408 C 498.287 -1.19938 -3.25293 0
M  V30 5409 C 497.348 -2.40001 -3.55946 0
M  V30 5410 C 496.581 -2.23087 -4.84838 0
M  V30 5411 O 496.804 -1.22386 -5.57116 0
M  V30 5412 O 495.738 -3.11646 -5.14937 0
M  V30 5413 H 499.564 -2.3412 -1.93446 0
M  V30 5414 H 497.149 -1.19246 -0.900044 0
M  V30 5415 H 499.031 -1.12093 -4.06218 0
M  V30 5416 H 497.706 -0.265919 -3.22606 0
M  V30 5417 H 496.613 -2.53421 -2.75188 0
M  V30 5418 H 497.946 -3.31973 -3.63394 0
M  V30 5419 N 499.598 0.982988 -1.23187 0
M  V30 5420 C 500.528 2.09301 -1.03515 0
M  V30 5421 C 501.509 1.70035 0.0471136 0
M  V30 5422 O 502.694 1.93847 -0.117029 0
M  V30 5423 C 499.824 3.4167 -0.622791 0
M  V30 5424 C 498.778 3.94828 -1.65211 0
M  V30 5425 C 498.104 5.23362 -1.09527 0
M  V30 5426 C 499.404 4.2439 -3.04451 0
M  V30 5427 H 501.098 2.26016 -1.96359 0
M  V30 5428 H 498.644 1.08611 -0.945501 0
M  V30 5429 H 500.597 4.18746 -0.472233 0
M  V30 5430 H 499.321 3.24811 0.341329 0
M  V30 5431 H 497.98 3.19895 -1.79061 0
M  V30 5432 H 497.628 5.02852 -0.122211 0
M  V30 5433 H 497.328 5.59895 -1.783 0
M  V30 5434 H 498.852 6.03062 -0.956511 0
M  V30 5435 H 500.266 4.92225 -2.93917 0
M  V30 5436 H 498.663 4.72118 -3.70438 0
M  V30 5437 H 499.733 3.31765 -3.53638 0
M  V30 5438 N 501.076 1.04316 1.18135 0
M  V30 5439 C 502.006 0.657299 2.24058 0
M  V30 5440 C 502.987 -0.340678 1.66654 0
M  V30 5441 O 504.172 -0.220223 1.92947 0
M  V30 5442 C 501.302 0.0220715 3.47293 0
M  V30 5443 C 500.256 0.943857 4.17463 0
M  V30 5444 C 499.582 0.172973 5.3442 0
M  V30 5445 C 500.882 2.26409 4.70677 0
M  V30 5446 H 502.576 1.5428 2.56589 0
M  V30 5447 H 500.122 0.743263 1.23335 0
M  V30 5448 H 502.075 -0.259607 4.206 0
M  V30 5449 H 500.799 -0.898323 3.14003 0
M  V30 5450 H 499.458 1.20996 3.46057 0
M  V30 5451 H 499.106 -0.749907 4.97379 0
M  V30 5452 H 498.806 0.787098 5.82304 0
M  V30 5453 H 500.33 -0.101628 6.10515 0
M  V30 5454 H 501.744 2.04294 5.35665 0
M  V30 5455 H 500.141 2.8314 5.29105 0
M  V30 5456 H 501.211 2.90883 3.87962 0
M  V30 5457 N 502.554 -1.34406 0.822964 0
M  V30 5458 C 503.794 -2.00103 0.416915 0
M  V30 5459 C 504.158 -1.63826 -1.00125 0
M  V30 5460 O 505.359 -2.22367 -1.51018 0
M  V30 5461 C 503.63 -3.52101 0.613151 0
M  V30 5462 S 505.189 -4.37774 0.299956 0
M  V30 5463 H 502.007 -0.69333 0.157527 0
M  V30 5464 H 504.609 -1.63698 1.06879 0
M  V30 5465 H 503.313 -3.75991 1.64496 0
M  V30 5466 H 502.844 -3.93364 -0.0534554 0
M  V30 5467 H 504.859 -4.8822 -0.886336 0
M  V30 5468 N 504.032 -0.577932 -1.46621 0
M  V30 5469 C 504.962 0.145917 -2.33044 0
M  V30 5470 C 505.943 0.888412 -1.45056 0
M  V30 5471 O 507.128 0.864812 -1.73881 0
M  V30 5472 C 504.258 1.16322 -3.27241 0
M  V30 5473 C 503.212 0.535868 -4.24632 0
M  V30 5474 C 502.538 1.65929 -5.08303 0
M  V30 5475 C 503.838 -0.523861 -5.19666 0
M  V30 5476 H 505.532 -0.575636 -2.93814 0
M  V30 5477 H 503.078 -0.278272 -1.41286 0
M  V30 5478 H 505.031 1.67793 -3.86553 0
M  V30 5479 H 503.755 1.91498 -2.64567 0
M  V30 5480 H 502.414 0.0422759 -3.66576 0
M  V30 5481 H 502.062 2.40061 -4.42018 0
M  V30 5482 H 501.762 1.2452 -5.74255 0
M  V30 5483 H 503.286 2.17686 -5.70478 0
M  V30 5484 H 504.7 -0.0944059 -5.73222 0
M  V30 5485 H 503.097 -0.858 -5.93935 0
M  V30 5486 H 504.167 -1.41197 -4.63887 0
M  V30 5487 N 505.51 1.54411 -0.315457 0
M  V30 5488 C 506.926 1.59556 0.037464 0
M  V30 5489 C 507.126 1.33217 1.5118 0
M  V30 5490 O 506.182 1.11264 2.26664 0
M  V30 5491 C 507.495 2.98372 -0.373477 0
M  V30 5492 C 509.043 3.11324 -0.323452 0
M  V30 5493 C 509.518 4.52472 -0.709433 0
M  V30 5494 N 511.009 4.58437 -0.662524 0
M  V30 5495 C 511.744 5.65751 -0.933474 0
M  V30 5496 N 511.24 6.81039 -1.27114 0
M  V30 5497 N 513.033 5.55489 -0.859573 0
M  V30 5498 H 505.184 1.6979 -1.27614 0
M  V30 5499 H 507.447 0.793732 -0.518356 0
M  V30 5500 H 507.153 3.22618 -1.40037 0
M  V30 5501 H 507.027 3.76264 0.265615 0
M  V30 5502 H 509.414 2.86818 0.694223 0
M  V30 5503 H 509.495 2.35555 -0.997367 0
M  V30 5504 H 509.139 4.7771 -1.72498 0
M  V30 5505 H 509.069 5.26598 -0.0132923 0
M  V30 5506 H 511.56 3.75636 -0.413065 0
M  V30 5507 H 511.873 7.58816 -1.46348 0
M  V30 5508 H 510.218 6.82555 -1.30932 0
M  V30 5509 H 513.409 4.64299 -0.595324 0
M  V30 5510 H 513.582 6.39036 -1.0741 0
M  V30 5511 N 506.988 0.0434614 1.5754 0
M  V30 5512 C 508.404 -0.313039 1.565 0
M  V30 5513 C 508.604 -1.71954 1.05043 0
M  V30 5514 O 507.66 -2.425 0.703564 0
M  V30 5515 C 508.973 -0.148544 3.00333 0
M  V30 5516 C 510.521 -0.220231 3.12224 0
M  V30 5517 C 510.996 -0.0843565 4.57922 0
M  V30 5518 N 512.487 -0.140881 4.62986 0
M  V30 5519 C 513.222 -0.0597443 5.73369 0
M  V30 5520 N 512.718 0.0733004 6.92761 0
M  V30 5521 N 514.511 -0.11477 5.61983 0
M  V30 5522 H 506.662 0.96303 1.89313 0
M  V30 5523 H 508.925 0.373164 0.871466 0
M  V30 5524 H 508.631 0.820894 3.41986 0
M  V30 5525 H 508.505 -0.912798 3.65989 0
M  V30 5526 H 510.892 -1.18014 2.70475 0
M  V30 5527 H 510.973 0.574646 2.49262 0
M  V30 5528 H 510.617 0.872192 5.00355 0
M  V30 5529 H 510.547 -0.898281 5.18882 0
M  V30 5530 H 513.038 -0.243273 3.77116 0
M  V30 5531 H 513.351 0.128128 7.72694 0
M  V30 5532 H 511.696 0.10828 6.94916 0
M  V30 5533 H 514.887 -0.217212 4.67596 0
M  V30 5534 H 515.06 -0.0480779 6.47982 0
M  V30 5535 N 508.466 -1.55915 -0.229846 0
M  V30 5536 C 509.691 -1.8296 -0.976743 0
M  V30 5537 C 510.116 -0.622735 -1.77493 0
M  V30 5538 O 509.474 0.428431 -1.76165 0
M  V30 5539 C 509.522 -3.07916 -1.8767 0
M  V30 5540 O 508.626 -2.86028 -2.97088 0
M  V30 5541 H 507.967 -0.603453 -0.277021 0
M  V30 5542 H 510.497 -2.0312 -0.245669 0
M  V30 5543 H 510.507 -3.37802 -2.2881 0
M  V30 5544 H 509.182 -3.95389 -1.28996 0
M  V30 5545 H 507.759 -2.67355 -2.59954 0
M  V30 5546 N 509.944 0.496216 -1.49584 0
M  V30 5547 C 511.169 1.27865 -1.63295 0
M  V30 5548 C 511.594 1.85592 -0.306156 0
M  V30 5549 O 510.952 1.66092 0.726851 0
M  V30 5550 C 511 2.38128 -2.7079 0
M  V30 5551 O 510.104 3.42108 -2.30296 0
M  V30 5552 H 509.445 0.377279 -0.546403 0
M  V30 5553 H 511.975 0.593497 -1.95803 0
M  V30 5554 H 511.985 2.8382 -2.93104 0
M  V30 5555 H 510.66 1.95479 -3.67098 0
M  V30 5556 H 509.237 3.02301 -2.18331 0
M  V30 5557 N 511.423 1.38739 0.74761 0
M  V30 5558 C 512.353 1.39173 1.87492 0
M  V30 5559 C 513.334 0.256794 1.6815 0
M  V30 5560 O 514.519 0.460762 1.88655 0
M  V30 5561 C 511.649 1.22197 3.25093 0
M  V30 5562 C 510.603 2.32957 3.59047 0
M  V30 5563 C 509.929 2.01082 4.95449 0
M  V30 5564 C 511.229 3.75237 3.6331 0
M  V30 5565 H 512.923 2.3351 1.87386 0
M  V30 5566 H 510.469 1.12399 0.900134 0
M  V30 5567 H 512.422 1.21124 4.03617 0
M  V30 5568 H 511.146 0.243241 3.25693 0
M  V30 5569 H 509.805 2.33226 2.82845 0
M  V30 5570 H 509.453 1.01678 4.92616 0
M  V30 5571 H 509.153 2.75267 5.19136 0
M  V30 5572 H 510.677 2.01638 5.76346 0
M  V30 5573 H 512.091 3.76966 4.31937 0
M  V30 5574 H 510.488 4.48677 3.98509 0
M  V30 5575 H 511.558 4.07122 2.634 0
M  V30 5576 N 512.901 -0.976442 1.23707 0
M  V30 5577 C 513.848 -2.06952 1.02174 0
M  V30 5578 C 514.818 -1.65984 -0.0621034 0
M  V30 5579 O 516.003 -1.90584 0.0907906 0
M  V30 5580 C 513.143 -3.39425 0.62327 0
M  V30 5581 C 512.256 -3.9364 1.77966 0
M  V30 5582 C 511.391 -5.14343 1.3276 0
M  V30 5583 C 510.43 -5.60733 2.45449 0
M  V30 5584 N 509.567 -6.72662 2.01172 0
M  V30 5585 H 514.407 -2.24704 1.95734 0
M  V30 5586 H 511.944 -1.10143 0.975034 0
M  V30 5587 H 513.902 -4.15526 0.37332 0
M  V30 5588 H 512.532 -3.21624 -0.275329 0
M  V30 5589 H 511.584 -3.14258 2.14351 0
M  V30 5590 H 512.896 -4.24035 2.62671 0
M  V30 5591 H 512.05 -5.97789 1.03601 0
M  V30 5592 H 510.789 -4.8561 0.450975 0
M  V30 5593 H 509.794 -4.75865 2.75378 0
M  V30 5594 H 511.019 -5.91483 3.33654 0
M  V30 5595 H 508.965 -6.45681 1.15895 0
M  V30 5596 H 508.882 -7.02462 2.79434 0
M  V30 5597 H 510.15 -7.59572 1.75129 0
M  V30 5598 N 514.379 -1.04941 -1.1758 0
M  V30 5599 C 515.342 -0.652456 -2.19717 0
M  V30 5600 C 516.342 0.294745 -1.58076 0
M  V30 5601 O 517.532 0.0789579 -1.74021 0
M  V30 5602 C 514.664 0.0420712 -3.40874 0
M  V30 5603 H 515.857 -1.55642 -2.5635 0
M  V30 5604 H 513.41 -0.842995 -1.31618 0
M  V30 5605 H 514.145 0.95943 -3.09783 0
M  V30 5606 H 513.93 -0.638844 -3.86861 0
M  V30 5607 H 515.42 0.306 -4.16477 0
M  V30 5608 N 515.857 1.33968 -0.830081 0
M  V30 5609 C 517.087 2.01987 -0.434142 0
M  V30 5610 C 517.495 1.62639 0.96671 0
M  V30 5611 O 516.838 0.831151 1.63822 0
M  V30 5612 C 516.9 3.5648 -0.465018 0
M  V30 5613 C 516.564 4.19176 -1.82045 0
M  V30 5614 C 517.561 4.39181 -2.78237 0
M  V30 5615 C 515.246 4.55792 -2.11089 0
M  V30 5616 C 517.24 4.94937 -4.01642 0
M  V30 5617 C 514.927 5.11258 -3.34752 0
M  V30 5618 C 515.925 5.30775 -4.29845 0
M  V30 5619 O 515.613 5.85064 -5.51322 0
M  V30 5620 H 515.345 0.653847 -0.171639 0
M  V30 5621 H 517.899 1.72066 -1.12171 0
M  V30 5622 H 516.129 3.8569 0.279284 0
M  V30 5623 H 517.818 4.05804 -0.0881334 0
M  V30 5624 H 518.584 4.11249 -2.57097 0
M  V30 5625 H 514.463 4.39901 -1.3787 0
M  V30 5626 H 518.007 5.10086 -4.75876 0
M  V30 5627 H 513.904 5.38619 -3.55753 0
M  V30 5628 H 514.672 6.03489 -5.5294 0
M  V30 5629 N 517.335 0.585699 1.46312 0
M  V30 5630 C 518.583 0.072278 2.01971 0
M  V30 5631 C 518.904 -1.29345 1.45928 0
M  V30 5632 O 518.174 -1.84973 0.645109 0
M  V30 5633 H 516.754 0.023729 0.746623 0
M  V30 5634 H 519.416 0.762155 1.7938 0
M  V30 5635 H 518.512 0.00552767 3.121 0
M  V30 5636 N 518.813 -1.54241 0.323641 0
M  V30 5637 C 519.761 -2.25813 -0.557804 0
M  V30 5638 C 520.755 -1.27225 -1.11849 0
M  V30 5639 O 521.961 -1.45001 -1.06652 0
M  V30 5640 H 518.336 -0.72532 -0.198532 0
M  V30 5641 H 520.307 -2.98322 0.0681112 0
M  V30 5642 C 519.056 -3.02913 -1.70701 0
M  V30 5643 H 518.379 -3.78593 -1.28482 0
M  V30 5644 H 519.819 -3.56238 -2.29935 0
M  V30 5645 C 518.278 -2.11217 -2.62467 0
M  V30 5646 O 518.808 -1.69508 -3.64184 0
M  V30 5647 N 517.014 -1.76704 -2.30703 0
M  V30 5648 H 516.561 -2.1082 -1.48029 0
M  V30 5649 H 516.519 -1.15631 -2.92364 0
M  V30 5650 N 520.291 -0.0518155 -1.57515 0
M  V30 5651 C 521.539 0.620595 -1.92336 0
M  V30 5652 C 521.86 1.71345 -0.930907 0
M  V30 5653 O 521.13 1.95885 0.0241341 0
M  V30 5654 H 519.71 0.232226 -0.709986 0
M  V30 5655 H 522.372 -0.104969 -1.94617 0
M  V30 5656 H 521.468 1.05879 -2.93592 0
M  V30 5657 N 521.769 1.56035 0.221574 0
M  V30 5658 C 522.999 1.82864 0.961468 0
M  V30 5659 C 523.407 0.628703 1.78449 0
M  V30 5660 O 522.75 -0.412109 1.79018 0
M  V30 5661 C 522.812 3.03425 1.92804 0
M  V30 5662 C 522.476 4.38429 1.28954 0
M  V30 5663 C 523.473 5.15441 0.679431 0
M  V30 5664 C 521.158 4.85151 1.30131 0
M  V30 5665 C 523.152 6.37337 0.0896148 0
M  V30 5666 C 520.839 6.06989 0.707651 0
M  V30 5667 C 521.837 6.82923 0.102855 0
M  V30 5668 O 521.525 8.02456 -0.48157 0
M  V30 5669 H 521.257 0.611883 0.28736 0
M  V30 5670 H 523.811 2.0397 0.241932 0
M  V30 5671 H 522.041 2.78138 2.68656 0
M  V30 5672 H 523.73 3.17127 2.53348 0
M  V30 5673 H 524.496 4.80452 0.662661 0
M  V30 5674 H 520.375 4.26021 1.76145 0
M  V30 5675 H 523.919 6.96547 -0.383069 0
M  V30 5676 H 519.816 6.41451 0.721834 0
M  V30 5677 H 520.584 8.17636 -0.375887 0
M  V30 5678 N 523.247 -0.488276 1.49845 0
M  V30 5679 C 524.472 -1.26997 1.63971 0
M  V30 5680 C 524.897 -1.85427 0.315994 0
M  V30 5681 O 524.255 -1.66475 -0.718032 0
M  V30 5682 C 524.303 -2.36689 2.72049 0
M  V30 5683 O 523.407 -3.40882 2.32107 0
M  V30 5684 H 522.748 -0.374376 0.548396 0
M  V30 5685 H 525.278 -0.583104 1.96115 0
M  V30 5686 H 525.288 -2.82262 2.94605 0
M  V30 5687 H 523.963 -1.93529 3.68129 0
M  V30 5688 H 522.54 -3.01139 2.19931 0
M  V30 5689 N 524.725 -1.39134 -0.740242 0
M  V30 5690 C 525.95 -1.39518 -1.53459 0
M  V30 5691 C 526.375 0.00968883 -1.88098 0
M  V30 5692 O 525.733 0.995312 -1.51536 0
M  V30 5693 C 525.781 -2.26981 -2.802 0
M  V30 5694 O 524.885 -1.69609 -3.75908 0
M  V30 5695 H 524.226 -0.475328 -0.463637 0
M  V30 5696 H 526.756 -1.83064 -0.913717 0
M  V30 5697 H 526.766 -2.41309 -3.28989 0
M  V30 5698 H 525.441 -3.29081 -2.5432 0
M  V30 5699 H 524.018 -1.64495 -3.34658 0
M  V30 5700 N 526.204 0.969867 -1.24223 0
M  V30 5701 C 527.152 2.08535 -1.03034 0
M  V30 5702 C 528.146 1.69366 0.0340379 0
M  V30 5703 O 529.352 1.79597 -0.12034 0
M  V30 5704 H 525.727 0.682313 -0.316154 0
M  V30 5705 H 527.698 2.23569 -1.97635 0
M  V30 5706 C 526.447 3.4158 -0.649509 0
M  V30 5707 H 525.77 3.72177 -1.46028 0
M  V30 5708 H 527.21 4.20536 -0.540841 0
M  V30 5709 C 525.669 3.30703 0.643194 0
M  V30 5710 O 526.199 3.64443 1.68951 0
M  V30 5711 N 524.405 2.83841 0.623095 0
M  V30 5712 H 523.952 2.56583 -0.228719 0
M  V30 5713 H 523.91 2.76946 1.48823 0
M  V30 5714 N 527.682 1.05563 1.17022 0
M  V30 5715 C 528.93 0.76642 1.87004 0
M  V30 5716 C 529.251 -0.708854 1.8166 0
M  V30 5717 O 528.521 -1.51242 1.2451 0
M  V30 5718 H 527.101 0.280516 0.692329 0
M  V30 5719 H 529.763 1.33557 1.41945 0
M  V30 5720 H 528.859 1.08472 2.92644 0
M  V30 5721 N 529.16 -1.33526 0.837174 0
M  V30 5722 C 530.108 -2.31168 0.257698 0
M  V30 5723 C 531.102 -1.5806 -0.609388 0
M  V30 5724 O 532.308 -1.72941 -0.499139 0
M  V30 5725 H 528.683 -0.74922 0.0646058 0
M  V30 5726 H 530.654 -2.77552 1.09578 0
M  V30 5727 C 529.403 -3.4326 -0.553887 0
M  V30 5728 H 528.726 -3.99665 0.104008 0
M  V30 5729 H 530.166 -4.13782 -0.925219 0
M  V30 5730 C 528.625 -2.88965 -1.73207 0
M  V30 5731 O 529.155 -2.85013 -2.83073 0
M  V30 5732 N 527.361 -2.45596 -1.55342 0
M  V30 5733 H 526.908 -2.49009 -0.659705 0
M  V30 5734 H 526.866 -2.0962 -2.34322 0
M  V30 5735 N 530.638 -0.59345 -1.46 0
M  V30 5736 C 531.866 -0.0890934 -2.06708 0
M  V30 5737 C 532.281 1.2205 -1.44046 0
M  V30 5738 O 531.638 1.74029 -0.549551 0
M  V30 5739 C 531.689 0.0720263 -3.61428 0
M  V30 5740 O 531.41 -1.18574 -4.21748 0
M  V30 5741 C 532.911 0.609487 -4.3909 0
M  V30 5742 H 530.131 -0.0623628 -0.668096 0
M  V30 5743 H 532.675 -0.817171 -1.87464 0
M  V30 5744 H 530.83 0.750369 -3.80063 0
M  V30 5745 H 531.244 -1.0064 -5.14754 0
M  V30 5746 H 532.718 0.671363 -5.47902 0
M  V30 5747 H 533.195 1.62878 -4.07882 0
M  V30 5748 H 533.801 -0.03434 -4.25286 0
M  V30 5749 N 532.116 1.54067 -0.331816 0
M  V30 5750 C 533.364 2.00319 0.267739 0
M  V30 5751 C 533.685 1.22148 1.52003 0
M  V30 5752 O 532.955 0.325494 1.93177 0
M  V30 5753 H 531.535 0.740014 0.101922 0
M  V30 5754 H 534.197 1.89628 -0.450267 0
M  V30 5755 H 533.293 3.07765 0.518385 0
M  V30 5756 N 533.594 0.0601682 1.57485 0
M  V30 5757 C 534.504 -0.926121 2.15546 0
M  V30 5758 C 535.52 -1.33532 1.11558 0
M  V30 5759 O 536.696 -1.4104 1.4377 0
M  V30 5760 C 533.761 -2.17952 2.69625 0
M  V30 5761 C 532.822 -1.82783 3.88444 0
M  V30 5762 C 532.055 -3.02148 4.39935 0
M  V30 5763 O 532.278 -4.15803 3.90466 0
M  V30 5764 O 531.212 -2.82639 5.31412 0
M  V30 5765 H 535.038 -0.462289 3.00161 0
M  V30 5766 H 532.623 -0.162246 1.48516 0
M  V30 5767 H 534.505 -2.91474 3.04337 0
M  V30 5768 H 533.18 -2.63456 1.88077 0
M  V30 5769 H 532.087 -1.06549 3.58606 0
M  V30 5770 H 533.42 -1.42072 4.7125 0
M  V30 5771 N 535.072 -1.5615 -0.213296 0
M  V30 5772 C 536.004 -1.89586 -1.28802 0
M  V30 5773 C 537.017 -0.784844 -1.42633 0
M  V30 5774 O 538.206 -1.06319 -1.43383 0
M  V30 5775 C 535.306 -2.09665 -2.66259 0
M  V30 5776 C 534.479 -3.40726 -2.7427 0
M  V30 5777 C 533.538 -3.50137 -3.92798 0
M  V30 5778 O 532.564 -4.23105 -3.8075 0
M  V30 5779 N 533.766 -2.81886 -5.07465 0
M  V30 5780 H 536.531 -2.82368 -1.00442 0
M  V30 5781 H 534.092 -1.56796 -0.403302 0
M  V30 5782 H 536.084 -2.13268 -3.43946 0
M  V30 5783 H 534.654 -1.23469 -2.87183 0
M  V30 5784 H 533.874 -3.4915 -1.82997 0
M  V30 5785 H 535.162 -4.27048 -2.76599 0
M  V30 5786 H 534.56 -2.22397 -5.2015 0
M  V30 5787 H 533.117 -2.91139 -5.83165 0
M  V30 5788 N 536.55 0.480323 -1.50102 0
M  V30 5789 C 537.775 1.26126 -1.64642 0
M  V30 5790 C 538.2 1.85257 -0.325823 0
M  V30 5791 O 537.558 1.66854 0.709194 0
M  V30 5792 C 537.606 2.35243 -2.73301 0
M  V30 5793 O 536.71 3.39646 -2.33911 0
M  V30 5794 H 536.051 0.371463 -0.550374 0
M  V30 5795 H 538.581 0.572696 -1.96421 0
M  V30 5796 H 538.591 2.80695 -2.96098 0
M  V30 5797 H 537.266 1.91574 -3.6915 0
M  V30 5798 H 535.843 2.99969 -2.21525 0
M  V30 5799 N 538.028 1.39524 0.732853 0
M  V30 5800 C 539.276 1.36594 1.48951 0
M  V30 5801 C 539.597 -0.0367507 1.94965 0
M  V30 5802 O 538.867 -0.988391 1.69138 0
M  V30 5803 H 537.447 0.502673 0.552566 0
M  V30 5804 H 540.109 1.74411 0.869869 0
M  V30 5805 H 539.205 2.03 2.3706 0
M  V30 5806 N 539.506 -0.963266 1.24736 0
M  V30 5807 C 540.736 -1.73913 1.11524 0
M  V30 5808 C 541.144 -1.86218 -0.334612 0
M  V30 5809 O 540.487 -1.3531 -1.24245 0
M  V30 5810 C 540.549 -3.17501 1.68622 0
M  V30 5811 C 540.213 -3.28655 3.17546 0
M  V30 5812 C 541.21 -3.13637 4.14642 0
M  V30 5813 C 538.895 -3.52753 3.5759 0
M  V30 5814 C 540.889 -3.2255 5.49764 0
M  V30 5815 C 538.576 -3.61303 4.92852 0
M  V30 5816 C 539.574 -3.46214 5.88748 0
M  V30 5817 O 539.262 -3.5443 7.2155 0
M  V30 5818 H 538.994 -0.552057 0.390139 0
M  V30 5819 H 541.548 -1.2177 1.65412 0
M  V30 5820 H 539.778 -3.70969 1.09172 0
M  V30 5821 H 541.467 -3.76914 1.50635 0
M  V30 5822 H 542.233 -2.94899 3.85045 0
M  V30 5823 H 538.112 -3.63561 2.83451 0
M  V30 5824 H 541.656 -3.1069 6.24594 0
M  V30 5825 H 537.553 -3.79556 5.22118 0
M  V30 5826 H 538.321 -3.71116 7.29531 0
M  V30 5827 N 540.985 -1.06182 -1.16461 0
M  V30 5828 C 541.935 -0.641619 -2.18786 0
M  V30 5829 C 542.919 0.327122 -1.5754 0
M  V30 5830 O 544.111 0.142746 -1.76423 0
M  V30 5831 C 541.24 -0.0283734 -3.43288 0
M  V30 5832 C 540.326 -1.02154 -4.11613 0
M  V30 5833 N 540.717 -2.19671 -4.55608 0
M  V30 5834 C 539.015 -0.852229 -4.37782 0
M  V30 5835 C 539.716 -2.82583 -5.0845 0
M  V30 5836 N 538.692 -2.10318 -5.01266 0
M  V30 5837 H 542.494 -1.53684 -2.50516 0
M  V30 5838 H 540.008 -0.933349 -1.329 0
M  V30 5839 H 542.005 0.29049 -4.15887 0
M  V30 5840 H 540.665 0.862118 -3.13046 0
M  V30 5841 H 541.676 -2.57453 -4.49375 0
M  V30 5842 H 538.353 -0.0136314 -4.17498 0
M  V30 5843 H 539.743 -3.82298 -5.52538 0
M  V30 5844 N 542.463 1.3308 -0.844243 0
M  V30 5845 C 543.709 1.97898 -0.443206 0
M  V30 5846 C 544.042 1.66699 0.99625 0
M  V30 5847 O 543.317 0.949704 1.69738 0
M  V30 5848 C 543.6 3.53801 -0.670606 0
M  V30 5849 C 543.453 3.94667 -2.15772 0
M  V30 5850 C 544.772 4.39936 -0.120226 0
M  V30 5851 H 541.891 0.718861 -0.162504 0
M  V30 5852 H 544.533 1.57633 -1.06075 0
M  V30 5853 H 542.683 3.88229 -0.14496 0
M  V30 5854 H 544.355 3.70469 -2.74865 0
M  V30 5855 H 542.598 3.44203 -2.6402 0
M  V30 5856 H 543.269 5.03275 -2.26757 0
M  V30 5857 H 545.745 4.12183 -0.5696 0
M  V30 5858 H 544.621 5.4803 -0.308984 0
M  V30 5859 H 544.882 4.31184 0.976347 0
M  V30 5860 N 543.941 0.601185 1.45683 0
M  V30 5861 C 544.851 -0.123395 2.34275 0
M  V30 5862 C 545.867 -0.86702 1.5086 0
M  V30 5863 O 547.043 -0.826049 1.8368 0
M  V30 5864 C 544.108 -1.11237 3.2837 0
M  V30 5865 C 543.169 -0.371405 4.2769 0
M  V30 5866 C 542.402 -1.31327 5.1729 0
M  V30 5867 O 542.625 -2.55078 5.10188 0
M  V30 5868 O 541.559 -0.813811 5.96373 0
M  V30 5869 H 545.385 0.604483 2.97623 0
M  V30 5870 H 542.97 0.361477 1.44961 0
M  V30 5871 H 544.852 -1.68214 3.8637 0
M  V30 5872 H 543.527 -1.82139 2.67595 0
M  V30 5873 H 542.434 0.24067 3.73325 0
M  V30 5874 H 543.767 0.296998 4.91303 0
M  V30 5875 N 545.419 -1.53889 0.339982 0
M  V30 5876 C 546.351 -2.22435 -0.55275 0
M  V30 5877 C 547.364 -1.22975 -1.06681 0
M  V30 5878 O 548.553 -1.49351 -0.977575 0
M  V30 5879 C 545.653 -2.8882 -1.77302 0
M  V30 5880 C 544.826 -4.14563 -1.39486 0
M  V30 5881 C 543.885 -4.64391 -2.47442 0
M  V30 5882 O 542.911 -5.28687 -2.10899 0
M  V30 5883 N 544.113 -4.40015 -3.78639 0
M  V30 5884 H 546.878 -2.9968 0.0342669 0
M  V30 5885 H 544.439 -1.61068 0.16394 0
M  V30 5886 H 546.431 -3.19072 -2.48948 0
M  V30 5887 H 545.001 -2.15182 -2.26749 0
M  V30 5888 H 544.221 -3.90896 -0.509321 0
M  V30 5889 H 545.509 -4.96362 -1.11813 0
M  V30 5890 H 544.907 -3.88586 -4.11118 0
M  V30 5891 H 543.464 -4.74881 -4.46465 0
M  V30 5892 N 546.897 -0.0685191 -1.57451 0
M  V30 5893 C 547.807 0.914677 -2.16034 0
M  V30 5894 C 548.823 1.32938 -1.12265 0
M  V30 5895 O 549.999 1.40275 -1.44516 0
M  V30 5896 C 547.064 2.16519 -2.70777 0
M  V30 5897 C 546.125 1.80721 -3.89408 0
M  V30 5898 C 545.358 2.9981 -4.41531 0
M  V30 5899 O 545.581 4.13727 -3.92666 0
M  V30 5900 O 544.515 2.79817 -5.32903 0
M  V30 5901 H 548.341 0.446364 -3.00402 0
M  V30 5902 H 545.926 0.154367 -1.486 0
M  V30 5903 H 547.808 2.89856 -3.05878 0
M  V30 5904 H 546.483 2.62454 -1.89471 0
M  V30 5905 H 545.39 1.04646 -3.59166 0
M  V30 5906 H 546.723 1.39571 -4.71997 0
M  V30 5907 N 548.375 1.56261 0.205012 0
M  V30 5908 C 549.322 1.93754 1.25411 0
M  V30 5909 C 550.292 0.796826 1.45739 0
M  V30 5910 O 551.477 1.05414 1.59036 0
M  V30 5911 C 548.617 2.27383 2.59598 0
M  V30 5912 C 547.73 3.5447 2.46931 0
M  V30 5913 C 546.865 3.77468 3.73753 0
M  V30 5914 C 545.904 4.98014 3.55877 0
M  V30 5915 N 545.041 5.17316 4.74688 0
M  V30 5916 H 549.881 2.83203 0.92737 0
M  V30 5917 H 547.418 1.40158 0.446574 0
M  V30 5918 H 549.376 2.44895 3.37761 0
M  V30 5919 H 548.006 1.41088 2.90335 0
M  V30 5920 H 547.058 3.45061 1.60116 0
M  V30 5921 H 548.37 4.42789 2.29651 0
M  V30 5922 H 547.524 3.95165 4.60358 0
M  V30 5923 H 546.263 2.87461 3.93976 0
M  V30 5924 H 545.268 4.80249 2.67657 0
M  V30 5925 H 546.493 5.8952 3.37109 0
M  V30 5926 H 544.439 4.30255 4.95194 0
M  V30 5927 H 544.356 5.99796 4.60197 0
M  V30 5928 H 545.624 5.39463 5.62672 0
M  V30 5929 N 549.853 -0.472356 1.50355 0
M  V30 5930 C 550.763 -1.59637 1.7191 0
M  V30 5931 C 551.779 -1.63247 0.602195 0
M  V30 5932 O 552.955 -1.81139 0.880369 0
M  V30 5933 C 550.02 -2.9586 1.80742 0
M  V30 5934 C 549.081 -3.02649 3.04471 0
M  V30 5935 C 548.314 -4.32374 3.12872 0
M  V30 5936 O 548.537 -5.22807 2.28099 0
M  V30 5937 O 547.471 -4.44728 4.05587 0
M  V30 5938 H 551.297 -1.44373 2.67189 0
M  V30 5939 H 548.882 -0.651717 1.34436 0
M  V30 5940 H 550.764 -3.7677 1.88739 0
M  V30 5941 H 549.439 -3.11325 0.88647 0
M  V30 5942 H 548.346 -2.20821 3.01975 0
M  V30 5943 H 549.679 -2.92119 3.9614 0
M  V30 5944 N 551.331 -1.39911 -0.725443 0
M  V30 5945 C 552.279 -1.39552 -1.86086 0
M  V30 5946 C 553.273 -0.277334 -1.67114 0
M  V30 5947 O 554.479 -0.447865 -1.74339 0
M  V30 5948 H 550.854 -0.435993 -0.612711 0
M  V30 5949 H 552.825 -2.35305 -1.83505 0
M  V30 5950 C 551.574 -1.26529 -3.2386 0
M  V30 5951 H 550.897 -2.11845 -3.3906 0
M  V30 5952 H 552.337 -1.30336 -4.03471 0
M  V30 5953 C 550.796 0.0254168 -3.3689 0
M  V30 5954 O 551.326 0.992048 -3.89257 0
M  V30 5955 N 549.532 0.0916528 -2.90455 0
M  V30 5956 H 549.079 -0.695675 -2.48028 0
M  V30 5957 H 549.037 0.954745 -2.99553 0
M  V30 5958 N 552.809 0.956637 -1.25245 0
M  V30 5959 C 553.756 2.053 -1.05454 0
M  V30 5960 C 554.726 1.66062 0.0356889 0
M  V30 5961 O 555.911 1.90415 -0.121099 0
M  V30 5962 C 553.051 3.38391 -0.677191 0
M  V30 5963 C 552.164 3.90758 -1.84206 0
M  V30 5964 C 551.299 5.12165 -1.40926 0
M  V30 5965 C 550.338 5.56757 -2.54338 0
M  V30 5966 N 549.475 6.69376 -2.11848 0
M  V30 5967 H 554.315 2.21562 -1.99284 0
M  V30 5968 H 551.852 1.08578 -0.992434 0
M  V30 5969 H 553.81 4.1488 -0.43938 0
M  V30 5970 H 552.44 3.22021 0.224127 0
M  V30 5971 H 551.492 3.10808 -2.19323 0
M  V30 5972 H 552.804 4.19802 -2.69383 0
M  V30 5973 H 551.958 5.96065 -1.13098 0
M  V30 5974 H 550.697 4.84832 -0.528175 0
M  V30 5975 H 549.702 4.71423 -2.82913 0
M  V30 5976 H 550.927 5.861 -3.43022 0
M  V30 5977 H 548.873 6.43756 -1.26153 0
M  V30 5978 H 548.79 6.97927 -2.90574 0
M  V30 5979 H 550.058 7.5669 -1.87191 0
M  V30 5980 N 554.287 1.06798 1.15896 0
M  V30 5981 C 555.217 0.704677 2.22613 0
M  V30 5982 C 556.198 -0.305252 1.67339 0
M  V30 5983 O 557.383 -0.179247 1.93371 0
M  V30 5984 C 554.513 0.0957325 3.47168 0
M  V30 5985 C 553.467 1.0322 4.15367 0
M  V30 5986 C 552.793 0.286293 5.33933 0
M  V30 5987 C 554.093 2.36341 4.65768 0
M  V30 5988 H 555.787 1.59688 2.53259 0
M  V30 5989 H 553.333 0.769257 1.21731 0
M  V30 5990 H 555.286 -0.170333 4.21056 0
M  V30 5991 H 554.01 -0.831516 3.15838 0
M  V30 5992 H 552.669 1.28309 3.43413 0
M  V30 5993 H 552.317 -0.644237 4.98857 0
M  V30 5994 H 552.017 0.910436 5.80504 0
M  V30 5995 H 553.541 0.0278938 6.10594 0
M  V30 5996 H 554.955 2.1561 5.31211 0
M  V30 5997 H 553.352 2.94299 5.2298 0
M  V30 5998 H 554.422 2.99047 3.81705 0
M  V30 5999 N 555.766 -1.3263 0.851289 0
M  V30 6000 C 556.696 -2.31449 0.308771 0
M  V30 6001 C 557.677 -1.59531 -0.590255 0
M  V30 6002 O 558.862 -1.87351 -0.511205 0
M  V30 6003 C 555.992 -3.43586 -0.506548 0
M  V30 6004 C 554.946 -4.26963 0.297753 0
M  V30 6005 C 554.272 -5.30831 -0.642094 0
M  V30 6006 C 555.572 -4.99643 1.52166 0
M  V30 6007 H 557.266 -2.77074 1.13447 0
M  V30 6008 H 554.812 -1.33207 0.546971 0
M  V30 6009 H 556.765 -4.11754 -0.896474 0
M  V30 6010 H 555.489 -2.96681 -1.36558 0
M  V30 6011 H 554.148 -3.60437 0.669391 0
M  V30 6012 H 553.796 -4.8018 -1.49788 0
M  V30 6013 H 553.496 -5.87501 -0.107968 0
M  V30 6014 H 555.02 -6.01862 -1.02927 0
M  V30 6015 H 556.434 -5.6051 1.20421 0
M  V30 6016 H 554.831 -5.66022 1.99347 0
M  V30 6017 H 555.901 -4.27701 2.28474 0
M  V30 6018 N 557.244 -0.608902 -1.45362 0
M  V30 6019 C 558.484 -0.10763 -2.04116 0
M  V30 6020 C 558.848 1.23883 -1.46686 0
M  V30 6021 O 560.049 1.83091 -1.96803 0
M  V30 6022 C 558.32 -0.0703351 -3.57331 0
M  V30 6023 S 559.879 0.369554 -4.37241 0
M  V30 6024 H 556.697 -0.0502123 -0.709225 0
M  V30 6025 H 559.299 -0.8073 -1.78053 0
M  V30 6026 H 558.003 -1.05379 -3.9664 0
M  V30 6027 H 557.534 0.651287 -3.87971 0
M  V30 6028 H 559.549 1.61878 -4.69052 0
M  V30 6029 N 558.722 1.53707 -0.348139 0
M  V30 6030 C 559.632 2.28881 0.514857 0
M  V30 6031 C 560.648 1.34168 1.10793 0
M  V30 6032 O 561.824 1.6721 1.12262 0
M  V30 6033 C 558.889 3.05042 1.64774 0
M  V30 6034 C 557.95 4.15389 1.08398 0
M  V30 6035 C 557.183 4.87909 2.16287 0
M  V30 6036 O 557.406 4.60137 3.3709 0
M  V30 6037 O 556.34 5.74254 1.80323 0
M  V30 6038 H 560.166 3.03547 -0.0963699 0
M  V30 6039 H 557.751 1.48972 -0.113043 0
M  V30 6040 H 559.633 3.52656 2.30677 0
M  V30 6041 H 558.308 2.33228 2.24469 0
M  V30 6042 H 557.215 3.72068 0.389341 0
M  V30 6043 H 558.548 4.89318 0.531829 0
M  V30 6044 N 560.2 0.0768682 1.57412 0
M  V30 6045 C 561.477 -0.632359 1.85096 0
M  V30 6046 C 561.857 -1.87479 0.9703 0
M  V30 6047 O 561.205 -2.28469 0.0379062 0
M  V30 6048 C 561.415 -0.965174 3.35388 0
M  V30 6049 C 562.763 -1.33648 4.03018 0
M  V30 6050 O 563.787 -1.05675 3.40164 0
M  V30 6051 O 562.646 -1.85959 5.13889 0
M  V30 6052 H 559.74 -0.314574 0.764835 0
M  V30 6053 H 562.286 0.108184 1.69355 0
M  V30 6054 H 561.058 -0.0829745 3.91212 0
M  V30 6055 H 560.681 -1.76231 3.5641 0
M  V30 6056 N 561.678 -1.56367 -0.196722 0
M  V30 6057 C 562.608 -1.97442 -1.24655 0
M  V30 6058 C 563.589 -0.846147 -1.47561 0
M  V30 6059 O 564.774 -1.11035 -1.59326 0
M  V30 6060 C 561.904 -2.31253 -2.59112 0
M  V30 6061 C 560.858 -3.46804 -2.50821 0
M  V30 6062 C 560.184 -3.66286 -3.89536 0
M  V30 6063 C 561.484 -4.8104 -2.03465 0
M  V30 6064 H 563.178 -2.85388 -0.905216 0
M  V30 6065 H 560.724 -1.37304 -0.434002 0
M  V30 6066 H 562.677 -2.58583 -3.32736 0
M  V30 6067 H 561.401 -1.40188 -2.94983 0
M  V30 6068 H 560.06 -3.19563 -1.79653 0
M  V30 6069 H 559.708 -2.72555 -4.22756 0
M  V30 6070 H 559.408 -4.4402 -3.84864 0
M  V30 6071 H 560.932 -3.9599 -4.64784 0
M  V30 6072 H 562.346 -5.07411 -2.66846 0
M  V30 6073 H 560.743 -5.62232 -2.09798 0
M  V30 6074 H 561.813 -4.74732 -0.98781 0
M  V30 6075 N 563.156 0.464375 -1.50603 0
M  V30 6076 C 564.567 1.04507 -1.5471 0
M  V30 6077 C 564.918 1.9297 -0.354542 0
M  V30 6078 O 564.043 2.09763 0.531812 0
M  V30 6079 C 564.638 1.90207 -2.80369 0
M  V30 6080 C 563.197 2.43373 -2.87135 0
M  V30 6081 C 562.344 1.21886 -2.49076 0
M  V30 6082 H 565.295 0.246716 -1.56771 0
M  V30 6083 H 565.316 2.75353 -2.62604 0
M  V30 6084 H 564.828 1.25796 -3.67147 0
M  V30 6085 H 562.929 3.11318 -2.04724 0
M  V30 6086 H 563.042 2.7802 -3.90181 0
M  V30 6087 H 561.406 1.55575 -2.01664 0
M  V30 6088 H 562.189 0.591268 -3.3817 0
M  V30 6089 N 564.634 1.40294 0.718013 0
M  V30 6090 C 565.882 1.38167 1.47494 0
M  V30 6091 C 566.203 -0.01607 1.94993 0
M  V30 6092 O 565.473 -0.970396 1.70177 0
M  V30 6093 H 564.053 0.508505 0.547203 0
M  V30 6094 H 566.715 1.75324 0.851322 0
M  V30 6095 H 565.811 2.05503 2.34894 0
M  V30 6096 N 566.112 -0.949982 1.2575 0
M  V30 6097 C 567.34 -1.72972 1.13527 0
M  V30 6098 C 567.755 -1.8623 -0.310453 0
M  V30 6099 O 567.112 -1.36336 -1.2132 0
M  V30 6100 C 567.163 -3.14108 1.78936 0
M  V30 6101 O 566.884 -3.01493 3.17858 0
M  V30 6102 C 568.385 -4.08338 1.72554 0
M  V30 6103 H 565.605 -0.541864 0.395758 0
M  V30 6104 H 568.149 -1.19151 1.66202 0
M  V30 6105 H 566.304 -3.64858 1.30221 0
M  V30 6106 H 566.718 -3.90559 3.50092 0
M  V30 6107 H 568.192 -5.04963 2.22973 0
M  V30 6108 H 568.669 -4.33742 0.690251 0
M  V30 6109 H 569.275 -3.63506 2.2078 0
M  V30 6110 N 567.59 -1.07411 -1.15328 0
M  V30 6111 C 568.5 -0.706438 -2.23711 0
M  V30 6112 C 569.516 0.282586 -1.7169 0
M  V30 6113 O 570.692 0.129066 -2.00986 0
M  V30 6114 C 567.757 -0.11048 -3.46524 0
M  V30 6115 C 566.818 -1.15282 -4.13532 0
M  V30 6116 C 566.051 -0.585205 -5.30482 0
M  V30 6117 O 566.274 0.598549 -5.67251 0
M  V30 6118 O 565.208 -1.33039 -5.87013 0
M  V30 6119 H 569.034 -1.61031 -2.57493 0
M  V30 6120 H 566.619 -0.847113 -1.23062 0
M  V30 6121 H 568.501 0.21957 -4.20828 0
M  V30 6122 H 567.176 0.766703 -3.14489 0
M  V30 6123 H 566.083 -1.53523 -3.41147 0
M  V30 6124 H 567.416 -2.00192 -4.49649 0
M  V30 6125 N 569.068 1.32177 -0.85831 0
M  V30 6126 C 570.345 1.91781 -0.384624 0
M  V30 6127 C 570.725 1.78171 1.13217 0
M  V30 6128 O 570.073 1.18209 1.95548 0
M  V30 6129 C 570.283 3.38414 -0.853047 0
M  V30 6130 C 571.631 4.15542 -0.872359 0
M  V30 6131 O 572.655 3.47148 -0.797926 0
M  V30 6132 O 571.514 5.37678 -0.978009 0
M  V30 6133 H 568.608 0.819259 -0.112886 0
M  V30 6134 H 571.154 1.40923 -0.945453 0
M  V30 6135 H 569.926 3.4228 -1.89632 0
M  V30 6136 H 569.549 3.96683 -0.269874 0
M  V30 6137 N 570.547 0.616602 1.45037 0
M  V30 6138 C 571.794 0.115331 2.02171 0
M  V30 6139 C 572.122 -1.25748 1.48383 0
M  V30 6140 O 571.377 -1.84511 0.652229 0
M  V30 6141 C 571.676 0.0356829 3.57382 0
M  V30 6142 C 571.342 1.34535 4.30362 0
M  V30 6143 C 570.004 1.70408 4.50016 0
M  V30 6144 C 572.356 2.21049 4.72003 0
M  V30 6145 C 569.684 2.92529 5.0857 0
M  V30 6146 C 572.036 3.42427 5.31908 0
M  V30 6147 C 570.7 3.78541 5.49784 0
M  V30 6148 H 569.97 0.0422024 0.739797 0
M  V30 6149 H 572.617 0.80002 1.73988 0
M  V30 6150 H 570.922 -0.732314 3.84895 0
M  V30 6151 H 572.619 -0.368463 3.99304 0
M  V30 6152 H 569.209 1.05615 4.15383 0
M  V30 6153 H 573.393 1.94632 4.56544 0
M  V30 6154 H 568.649 3.20605 5.20598 0
M  V30 6155 H 572.823 4.09709 5.63127 0
M  V30 6156 H 570.45 4.73255 5.94923 0
M  V30 6157 N 572.025 -1.5352 0.356285 0
M  V30 6158 C 573.271 -2.01414 -0.236653 0
M  V30 6159 C 573.604 -1.24339 -1.49176 0
M  V30 6160 O 572.879 -0.334496 -1.91602 0
M  V30 6161 C 573.162 -3.56059 -0.537982 0
M  V30 6162 C 573.015 -4.43835 0.730112 0
M  V30 6163 C 574.334 -4.19127 -1.34239 0
M  V30 6164 H 571.453 -0.732135 -0.0845386 0
M  V30 6165 H 574.095 -1.83854 0.479341 0
M  V30 6166 H 572.245 -3.71153 -1.14795 0
M  V30 6167 H 573.917 -4.40555 1.36782 0
M  V30 6168 H 572.16 -4.1218 1.3524 0
M  V30 6169 H 572.831 -5.49958 0.474358 0
M  V30 6170 H 575.307 -4.07809 -0.826498 0
M  V30 6171 H 574.183 -5.27378 -1.52198 0
M  V30 6172 H 574.444 -3.74581 -2.34822 0
M  V30 6173 N 573.503 -0.0852151 -1.57369 0
M  V30 6174 C 574.751 0.579658 -1.93609 0
M  V30 6175 C 575.072 1.69332 -0.967043 0
M  V30 6176 O 574.342 1.95892 -0.0174215 0
M  V30 6177 H 572.922 0.217113 -0.714752 0
M  V30 6178 H 575.584 -0.146226 -1.94351 0
M  V30 6179 H 574.68 0.996276 -2.95771 0
M  V30 6180 N 574.981 1.5647 0.188427 0
M  V30 6181 C 575.931 1.91479 1.23774 0
M  V30 6182 C 576.915 0.78119 1.40664 0
M  V30 6183 O 578.107 1.04414 1.42922 0
M  V30 6184 C 575.236 2.26354 2.58106 0
M  V30 6185 C 574.322 3.46186 2.44981 0
M  V30 6186 N 574.713 4.63911 2.01546 0
M  V30 6187 C 573.011 3.50456 2.75856 0
M  V30 6188 C 573.712 5.46064 2.00472 0
M  V30 6189 N 572.688 4.86648 2.42229 0
M  V30 6190 H 576.49 2.79994 0.893339 0
M  V30 6191 H 574.004 1.57477 0.39682 0
M  V30 6192 H 576.001 2.49622 3.33908 0
M  V30 6193 H 574.661 1.39168 2.93364 0
M  V30 6194 H 575.672 4.88451 1.7215 0
M  V30 6195 H 572.349 2.73704 3.15265 0
M  V30 6196 H 573.739 6.50368 1.68734 0
M  V30 6197 N 576.459 -0.456382 1.50847 0
M  V30 6198 C 577.391 -1.57033 1.66953 0
M  V30 6199 C 578.404 -1.53207 0.550593 0
M  V30 6200 O 579.593 -1.58328 0.824285 0
M  V30 6201 C 576.693 -2.95937 1.65149 0
M  V30 6202 C 575.866 -3.24475 2.93317 0
M  V30 6203 C 574.925 -4.43007 2.83957 0
M  V30 6204 O 573.951 -4.42592 3.57912 0
M  V30 6205 N 575.153 -5.45503 1.9851 0
M  V30 6206 H 577.918 -1.43629 2.63042 0
M  V30 6207 H 575.479 -0.645037 1.48495 0
M  V30 6208 H 577.471 -3.73224 1.56481 0
M  V30 6209 H 576.041 -3.03036 0.767343 0
M  V30 6210 H 575.261 -2.35664 3.16 0
M  V30 6211 H 576.549 -3.4036 3.78196 0
M  V30 6212 H 575.947 -5.48668 1.37766 0
M  V30 6213 H 574.504 -6.21716 1.95735 0
M  V30 6214 N 577.937 -1.40673 -0.710563 0
M  V30 6215 C 579.185 -1.38947 -1.46759 0
M  V30 6216 C 579.506 0.00572879 -1.94999 0
M  V30 6217 O 578.776 0.961358 -1.70689 0
M  V30 6218 H 577.356 -0.5114 -0.544499 0
M  V30 6219 H 580.018 -1.75773 -0.842012 0
M  V30 6220 H 579.114 -2.06745 -2.33801 0
M  V30 6221 N 579.415 0.9433 -1.26252 0
M  V30 6222 C 580.643 1.72367 -1.14443 0
M  V30 6223 C 581.058 1.86392 0.300572 0
M  V30 6224 O 580.415 1.36978 1.20596 0
M  V30 6225 C 580.466 3.13155 -1.806 0
M  V30 6226 O 580.187 2.99803 -3.19452 0
M  V30 6227 C 581.688 4.07417 -1.74717 0
M  V30 6228 H 578.908 0.539758 -0.398626 0
M  V30 6229 H 581.452 1.18268 -1.66832 0
M  V30 6230 H 579.607 3.64162 -1.32154 0
M  V30 6231 H 580.021 3.88697 -3.52158 0
M  V30 6232 H 581.495 5.03773 -2.25647 0
M  V30 6233 H 581.972 4.3337 -0.713244 0
M  V30 6234 H 582.578 3.6233 -2.22704 0
M  V30 6235 N 580.893 1.08022 1.14757 0
M  V30 6236 C 582.139 0.808705 1.85978 0
M  V30 6237 C 582.472 -0.663764 1.82504 0
M  V30 6238 O 581.747 -1.48765 1.25296 0
M  V30 6239 C 582.03 1.32623 3.34788 0
M  V30 6240 C 581.883 2.86375 3.46856 0
M  V30 6241 C 583.202 0.948291 4.29762 0
M  V30 6242 H 580.321 0.295244 0.675278 0
M  V30 6243 H 582.963 1.33917 1.34783 0
M  V30 6244 H 581.113 0.875002 3.78518 0
M  V30 6245 H 582.785 3.39839 3.11941 0
M  V30 6246 H 581.028 3.24232 2.88194 0
M  V30 6247 H 581.699 3.17658 4.51439 0
M  V30 6248 H 584.175 1.33722 3.94028 0
M  V30 6249 H 583.051 1.33765 5.32352 0
M  V30 6250 H 583.312 -0.145094 4.41862 0
M  V30 6251 N 582.371 -1.3172 0.865308 0
M  V30 6252 C 583.782 -1.79104 0.527126 0
M  V30 6253 C 584.133 -1.7135 -0.955695 0
M  V30 6254 O 583.258 -1.27845 -1.74598 0
M  V30 6255 C 583.853 -3.25207 0.950061 0
M  V30 6256 C 582.412 -3.70504 0.663611 0
M  V30 6257 C 581.559 -2.52605 1.14395 0
M  V30 6258 H 584.51 -1.18868 1.05148 0
M  V30 6259 H 584.531 -3.79535 0.270805 0
M  V30 6260 H 584.043 -3.30818 2.02931 0
M  V30 6261 H 582.144 -3.70398 -0.404474 0
M  V30 6262 H 582.257 -4.62845 1.23737 0
M  V30 6263 H 580.621 -2.4838 0.563859 0
M  V30 6264 H 581.404 -2.60964 2.23053 0
M  V30 6265 N 583.85 -0.624285 -1.44708 0
M  V30 6266 C 585.075 -0.131171 -2.06985 0
M  V30 6267 C 585.5 1.18234 -1.46295 0
M  V30 6268 O 584.858 1.72375 -0.561842 0
M  V30 6269 C 584.906 -0.0226724 -3.60593 0
M  V30 6270 O 584.01 1.02314 -3.99507 0
M  V30 6271 H 583.351 -0.0816556 -0.65896 0
M  V30 6272 H 585.88 -0.859027 -1.85693 0
M  V30 6273 H 585.891 0.170138 -4.07645 0
M  V30 6274 H 584.566 -0.981685 -4.04148 0
M  V30 6275 H 583.143 0.805452 -3.64097 0
M  V30 6276 N 585.328 1.53329 -0.364422 0
M  V30 6277 C 586.605 1.93557 0.281962 0
M  V30 6278 C 586.985 1.29786 1.6649 0
M  V30 6279 O 586.333 0.456512 2.23893 0
M  V30 6280 C 586.543 3.47405 0.333331 0
M  V30 6281 C 587.891 4.20699 0.574231 0
M  V30 6282 O 588.915 3.53779 0.414588 0
M  V30 6283 O 587.774 5.39287 0.885002 0
M  V30 6284 H 584.868 0.809573 0.168881 0
M  V30 6285 H 587.414 1.64494 -0.417121 0
M  V30 6286 H 586.186 3.86091 -0.636326 0
M  V30 6287 H 585.809 3.82697 1.07836 0
M  V30 6288 N 586.806 0.0935595 1.57322 0
M  V30 6289 C 587.754 -0.883457 2.15169 0
M  V30 6290 C 588.748 -1.29324 1.09415 0
M  V30 6291 O 589.954 -1.26795 1.27762 0
M  V30 6292 H 586.329 -0.302923 0.688289 0
M  V30 6293 H 588.3 -0.370845 2.96087 0
M  V30 6294 C 587.049 -2.13345 2.74552 0
M  V30 6295 H 586.372 -1.82702 3.55612 0
M  V30 6296 H 587.812 -2.7977 3.18598 0
M  V30 6297 C 586.271 -2.90646 1.70371 0
M  V30 6298 O 586.801 -3.85133 1.14173 0
M  V30 6299 N 585.007 -2.54157 1.40899 0
M  V30 6300 H 584.554 -1.77391 1.86789 0
M  V30 6301 H 584.512 -3.06178 0.714301 0
M  V30 6302 N 588.284 -1.56567 -0.180126 0
M  V30 6303 C 589.533 -1.80685 -0.896426 0
M  V30 6304 C 589.846 -0.669335 -1.83791 0
M  V30 6305 O 591.052 -0.795209 -2.59593 0
M  V30 6306 C 589.508 -3.20132 -1.6445 0
M  V30 6307 C 589.116 -4.41727 -0.747088 0
M  V30 6308 C 590.86 -3.53549 -2.34955 0
M  V30 6309 C 588.767 -5.72195 -1.49489 0
M  V30 6310 H 587.697 -0.673758 -0.338477 0
M  V30 6311 H 590.348 -1.8289 -0.149467 0
M  V30 6312 H 588.73 -3.12218 -2.43589 0
M  V30 6313 H 589.904 -4.608 0.00671129 0
M  V30 6314 H 588.219 -4.16122 -0.152134 0
M  V30 6315 H 590.816 -4.48267 -2.91481 0
M  V30 6316 H 591.159 -2.78006 -3.09868 0
M  V30 6317 H 591.692 -3.62976 -1.62768 0
M  V30 6318 H 588.431 -6.50743 -0.788251 0
M  V30 6319 H 587.951 -5.57115 -2.22224 0
M  V30 6320 H 589.63 -6.1384 -2.04472 0
M  V30 6321 N 589.762 0.448376 -1.51087 0
M  V30 6322 C 591.039 1.20926 -1.53741 0
M  V30 6323 C 591.419 2.09025 -0.295222 0
M  V30 6324 O 590.767 2.16851 0.720283 0
M  V30 6325 C 590.977 2.02067 -2.84552 0
M  V30 6326 C 592.325 2.59486 -3.36084 0
M  V30 6327 O 593.349 2.12289 -2.86028 0
M  V30 6328 O 592.208 3.45539 -4.23397 0
M  V30 6329 H 589.302 0.549951 -0.617643 0
M  V30 6330 H 591.848 0.458344 -1.63393 0
M  V30 6331 H 590.62 1.37291 -3.66425 0
M  V30 6332 H 590.243 2.84246 -2.78011 0
M  V30 6333 N 591.24 1.41047 0.703093 0
M  V30 6334 C 592.465 1.43537 1.49706 0
M  V30 6335 C 592.89 0.0401853 1.88057 0
M  V30 6336 O 592.248 -0.954785 1.54122 0
M  V30 6337 C 592.296 2.3433 2.74084 0
M  V30 6338 O 591.4 1.79515 3.71279 0
M  V30 6339 H 590.741 0.487454 0.450871 0
M  V30 6340 H 593.271 1.85422 0.86486 0
M  V30 6341 H 593.281 2.49947 3.22476 0
M  V30 6342 H 591.956 3.35708 2.45506 0
M  V30 6343 H 590.533 1.7331 3.30179 0
M  V30 6344 N 592.718 -0.936591 1.26751 0
M  V30 6345 C 593.65 -2.03991 1.045 0
M  V30 6346 C 594.663 -1.628 0.00394261 0
M  V30 6347 O 595.852 -1.76817 0.244526 0
M  V30 6348 C 592.952 -3.34218 0.561403 0
M  V30 6349 C 592.125 -4.04151 1.67274 0
M  V30 6350 C 591.184 -5.12651 1.1864 0
M  V30 6351 O 590.21 -5.37104 1.88437 0
M  V30 6352 N 591.412 -5.80488 0.037278 0
M  V30 6353 H 594.177 -2.23644 1.99508 0
M  V30 6354 H 591.738 -1.10638 1.18198 0
M  V30 6355 H 593.73 -4.04101 0.220136 0
M  V30 6356 H 592.3 -3.11203 -0.295211 0
M  V30 6357 H 591.52 -3.28121 2.18472 0
M  V30 6358 H 592.808 -4.47626 2.41885 0
M  V30 6359 H 592.206 -5.63064 -0.545494 0
M  V30 6360 H 590.763 -6.5134 -0.244877 0
M  V30 6361 N 594.196 -1.08629 -1.14182 0
M  V30 6362 C 595.444 -0.815731 -1.84906 0
M  V30 6363 C 595.765 0.660441 -1.83475 0
M  V30 6364 O 595.035 1.47888 -1.28476 0
M  V30 6365 H 593.615 -0.298773 -0.684648 0
M  V30 6366 H 596.277 -1.37274 -1.38354 0
M  V30 6367 H 595.373 -1.16193 -2.89665 0
M  V30 6368 N 595.674 1.31259 -0.872281 0
M  V30 6369 C 597.09 1.49283 -0.564521 0
M  V30 6370 C 597.29 1.80243 0.900807 0
M  V30 6371 O 596.346 1.88246 1.68284 0
M  V30 6372 C 597.659 2.62503 -1.46673 0
M  V30 6373 C 599.207 2.76386 -1.46901 0
M  V30 6374 C 599.682 3.92705 -2.35684 0
M  V30 6375 N 601.173 3.99995 -2.33577 0
M  V30 6376 C 601.908 4.89276 -2.98992 0
M  V30 6377 N 601.404 5.83443 -3.73585 0
M  V30 6378 N 603.197 4.82541 -2.88289 0
M  V30 6379 H 595.348 1.09432 -1.82039 0
M  V30 6380 H 597.611 0.540949 -0.77851 0
M  V30 6381 H 597.317 2.46407 -2.50951 0
M  V30 6382 H 597.191 3.58695 -1.16696 0
M  V30 6383 H 599.578 2.91894 -0.433796 0
M  V30 6384 H 599.659 1.80853 -1.80903 0
M  V30 6385 H 599.303 3.77954 -3.39283 0
M  V30 6386 H 599.233 4.87549 -1.99006 0
M  V30 6387 H 601.724 3.32624 -1.7936 0
M  V30 6388 H 602.037 6.48303 -4.20622 0
M  V30 6389 H 600.382 5.83415 -3.77694 0
M  V30 6390 H 603.573 4.07951 -2.2955 0
M  V30 6391 H 603.746 5.51916 -3.39549 0
M  V30 6392 N 597.152 0.631951 1.44375 0
M  V30 6393 C 598.1 -0.0846693 2.32446 0
M  V30 6394 C 599.094 -0.834957 1.47393 0
M  V30 6395 O 600.3 -0.747764 1.63733 0
M  V30 6396 H 596.675 -0.0461508 0.750583 0
M  V30 6397 H 598.646 0.67619 2.90638 0
M  V30 6398 C 597.395 -1.05211 3.314 0
M  V30 6399 H 596.718 -0.484203 3.96857 0
M  V30 6400 H 598.158 -1.523 3.95703 0
M  V30 6401 C 596.617 -2.13776 2.60387 0
M  V30 6402 O 597.147 -3.21869 2.4034 0
M  V30 6403 N 595.353 -1.89733 2.20113 0
M  V30 6404 H 594.9 -1.01833 2.36618 0
M  V30 6405 H 594.858 -2.62572 1.72926 0
M  V30 6406 N 598.631 -1.53133 0.372548 0
M  V30 6407 C 599.871 -2.03267 -0.214943 0
M  V30 6408 C 600.235 -1.25362 -1.45425 0
M  V30 6409 O 601.436 -1.65536 -2.11781 0
M  V30 6410 C 599.707 -3.53985 -0.492897 0
M  V30 6411 S 601.266 -4.25977 -1.05307 0
M  V30 6412 H 598.084 -0.708289 -0.062029 0
M  V30 6413 H 600.686 -1.88539 0.517025 0
M  V30 6414 H 599.39 -4.08282 0.416442 0
M  V30 6415 H 598.921 -3.72887 -1.25375 0
M  V30 6416 H 600.936 -4.37731 -2.33679 0
M  V30 6417 N 600.109 -0.101901 -1.5727 0
M  V30 6418 C 601.334 0.571759 -1.99363 0
M  V30 6419 C 601.759 1.60507 -0.980768 0
M  V30 6420 O 601.117 1.81231 0.0498517 0
M  V30 6421 C 601.165 1.18996 -3.404 0
M  V30 6422 O 600.269 2.30572 -3.41922 0
M  V30 6423 H 599.61 0.144449 -0.648098 0
M  V30 6424 H 602.14 -0.185325 -2.03759 0
M  V30 6425 H 602.15 1.52962 -3.78241 0
M  V30 6426 H 600.825 0.432984 -4.1364 0
M  V30 6427 H 599.402 1.98173 -3.15883 0
M  V30 6428 N 601.587 1.56661 0.17182 0
M  V30 6429 C 602.815 1.861 0.904115 0
M  V30 6430 C 603.23 0.687227 1.75848 0
M  V30 6431 O 602.587 -0.343671 1.79235 0
M  V30 6432 C 602.638 3.14568 1.78127 0
M  V30 6433 O 602.359 4.27422 0.961366 0
M  V30 6434 C 603.86 3.5735 2.62327 0
M  V30 6435 H 601.08 0.617445 0.262684 0
M  V30 6436 H 603.624 2.03775 0.172068 0
M  V30 6437 H 601.779 2.98721 2.46666 0
M  V30 6438 H 602.193 5.00725 1.56123 0
M  V30 6439 H 603.667 4.50144 3.1949 0
M  V30 6440 H 604.144 2.81445 3.37173 0
M  V30 6441 H 604.75 3.75807 1.99121 0
M  V30 6442 N 603.065 -0.440357 1.51323 0
M  V30 6443 C 604.013 -1.55492 1.72988 0
M  V30 6444 C 605.007 -1.58564 0.596138 0
M  V30 6445 O 606.213 -1.62345 0.777443 0
M  V30 6446 H 602.588 -0.516532 0.546533 0
M  V30 6447 H 604.559 -1.34392 2.66423 0
M  V30 6448 C 603.308 -2.93176 1.86931 0
M  V30 6449 H 602.631 -2.91543 2.73574 0
M  V30 6450 H 604.071 -3.70537 2.06103 0
M  V30 6451 C 602.53 -3.30988 0.628365 0
M  V30 6452 O 603.06 -4.01106 -0.218367 0
M  V30 6453 N 601.266 -2.86719 0.473339 0
M  V30 6454 H 600.813 -2.2983 1.16345 0
M  V30 6455 H 600.771 -3.12381 -0.355727 0
M  V30 6456 N 604.543 -1.41418 -0.695603 0
M  V30 6457 C 605.82 -1.31264 -1.45014 0
M  V30 6458 C 606.2 0.0597994 -2.11015 0
M  V30 6459 O 605.548 1.07403 -2.01685 0
M  V30 6460 C 605.758 -2.466 -2.4696 0
M  V30 6461 C 607.106 -2.87763 -3.12214 0
M  V30 6462 O 608.13 -2.46339 -2.57285 0
M  V30 6463 O 606.989 -3.59395 -4.11701 0
M  V30 6464 H 604.083 -0.516576 -0.645816 0
M  V30 6465 H 606.629 -1.53382 -0.726084 0
M  V30 6466 H 605.401 -3.38183 -1.96845 0
M  V30 6467 H 605.024 -2.26358 -3.26876 0
M  V30 6468 N 606.021 0.929856 -1.27246 0
M  V30 6469 C 607.246 1.71674 -1.16374 0
M  V30 6470 C 607.671 1.86064 0.276024 0
M  V30 6471 O 607.029 1.3591 1.19992 0
M  V30 6472 C 607.077 3.09526 -1.85003 0
M  V30 6473 O 606.181 3.96142 -1.14653 0
M  V30 6474 H 605.522 0.52629 -0.404863 0
M  V30 6475 H 608.052 1.16381 -1.68276 0
M  V30 6476 H 608.062 3.59852 -1.92276 0
M  V30 6477 H 606.737 2.98369 -2.89739 0
M  V30 6478 H 605.314 3.54584 -1.15433 0
M  V30 6479 N 607.499 1.09233 1.13605 0
M  V30 6480 C 608.429 0.751738 2.21068 0
M  V30 6481 C 609.41 -0.269688 1.67948 0
M  V30 6482 O 610.595 -0.13819 1.93708 0
M  V30 6483 C 607.725 0.16935 3.46887 0
M  V30 6484 C 606.679 1.12007 4.13084 0
M  V30 6485 C 606.005 0.399483 5.33206 0
M  V30 6486 C 607.305 2.46168 4.6065 0
M  V30 6487 H 608.999 1.65024 2.49815 0
M  V30 6488 H 606.545 0.794905 1.20072 0
M  V30 6489 H 608.498 -0.0809824 4.21322 0
M  V30 6490 H 607.222 -0.764335 3.1753 0
M  V30 6491 H 605.881 1.35564 3.40614 0
M  V30 6492 H 605.529 -0.538277 5.00112 0
M  V30 6493 H 605.229 1.03337 5.78442 0
M  V30 6494 H 606.753 0.157403 6.10397 0
M  V30 6495 H 608.167 2.26829 5.26518 0
M  V30 6496 H 606.564 3.05326 5.1662 0
M  V30 6497 H 607.634 3.07076 3.75276 0
M  V30 6498 N 608.977 -1.30795 0.87923 0
M  V30 6499 C 609.907 -2.30742 0.357796 0
M  V30 6500 C 610.888 -1.60747 -0.556283 0
M  V30 6501 O 612.073 -1.88393 -0.47135 0
M  V30 6502 C 609.203 -3.44583 -0.433555 0
M  V30 6503 C 608.157 -4.26235 0.388251 0
M  V30 6504 C 607.483 -5.32073 -0.529352 0
M  V30 6505 C 608.783 -4.96303 1.62729 0
M  V30 6506 H 610.477 -2.74605 1.19299 0
M  V30 6507 H 608.023 -1.32017 0.575104 0
M  V30 6508 H 609.976 -4.13563 -0.808934 0
M  V30 6509 H 608.7 -2.99511 -1.30234 0
M  V30 6510 H 607.359 -3.58936 0.745695 0
M  V30 6511 H 607.007 -4.83249 -1.39569 0
M  V30 6512 H 606.707 -5.87598 0.0166741 0
M  V30 6513 H 608.231 -6.0391 -0.901373 0
M  V30 6514 H 609.645 -5.5783 1.32283 0
M  V30 6515 H 608.042 -5.61666 2.11309 0
M  V30 6516 H 609.112 -4.22758 2.37494 0
M  V30 6517 O 610.494 -0.779418 -1.41447 0
M  V30 6518 H 611.185 -0.346083 -1.90583 0
M  V30 END ATOM
M  V30 BEGIN BOND
M  V30 END BOND
M  V30 END CTAB
M  END
$$$$
