drugbank_target|Q9BQI3 Eukaryotic translation initiation factor 2-alpha kinase 1 (DB12010)
 OpenBabel12092121153D

  0  0  0     0  0            999 V3000
M  V30 BEGIN CTAB
M  V30 COUNTS 9959 10046 0 0 0
M  V30 BEGIN ATOM
M  V30 1 H -0.908 1.98254 -0.117106 0
M  V30 2 N 0 1.576 0 0
M  V30 3 C 0.933 2.03868 1.02534 0
M  V30 4 C 1.911 0.928543 1.3348 0
M  V30 5 O 3.095 1.19667 1.45644 0
M  V30 6 C 0.222 2.43627 2.35294 0
M  V30 7 C -0.732 3.65373 2.2001 0
M  V30 8 S 0.101 5.13292 1.52614 0
M  V30 9 C 1.257 5.56322 2.86805 0
M  V30 10 H 1.49 2.90518 0.631377 0
M  V30 11 H -0.977 1.52953 0.210867 0
M  V30 12 H 0.981 2.67203 3.11629 0
M  V30 13 H -0.358 1.57376 2.7183 0
M  V30 14 H -1.165 3.90944 3.18086 0
M  V30 15 H -1.563 3.418 1.51819 0
M  V30 16 H 0.729 5.58782 3.83104 0
M  V30 17 H 1.672 6.56266 2.65933 0
M  V30 18 H 2.08 4.83886 2.90714 0
M  V30 19 N 1.4781 -0.272755 1.55222 0
M  V30 20 C 2.4101 -1.35946 1.8453 0
M  V30 21 C 3.4231 -1.45525 0.729818 0
M  V30 22 O 4.6121 -1.47337 1.00767 0
M  V30 23 C 1.7121 -2.74069 1.99347 0
M  V30 24 C 0.8851 -2.87079 3.30007 0
M  V30 25 C -0.0559 -4.05879 3.34886 0
M  V30 26 O -1.0299 -3.96626 4.08261 0
M  V30 27 N 0.1721 -5.17857 2.62307 0
M  V30 28 H 2.9371 -1.11149 2.78327 0
M  V30 29 H 0.4981 -0.462869 1.55142 0
M  V30 30 H 2.4901 -3.51838 1.99981 0
M  V30 31 H 1.0601 -2.91688 1.12415 0
M  V30 32 H 0.2801 -1.96193 3.41909 0
M  V30 33 H 1.5681 -2.92701 4.16177 0
M  V30 34 H 0.9661 -5.28261 2.02377 0
M  V30 35 H -0.4769 -5.93855 2.68663 0
M  V30 36 N 2.9562 -1.48159 -0.537278 0
M  V30 37 C 4.2042 -1.55497 -1.29094 0
M  V30 38 C 4.5252 -0.227454 -1.93669 0
M  V30 39 O 3.7952 0.750386 -1.80959 0
M  V30 40 H 2.3752 -0.572832 -0.47945 0
M  V30 41 H 5.0372 -1.84579 -0.625818 0
M  V30 42 H 4.1332 -2.33216 -2.07405 0
M  V30 43 N 4.4343 0.785586 -1.36625 0
M  V30 44 C 5.6823 1.54057 -1.30808 0
M  V30 45 C 6.0033 1.94683 0.111157 0
M  V30 46 O 5.2733 1.65241 1.05224 0
M  V30 47 H 3.8533 0.571354 -0.481211 0
M  V30 48 H 6.5153 0.935821 -1.70963 0
M  V30 49 H 5.6113 2.44637 -1.93801 0
M  V30 50 N 5.9124 1.20967 1.01018 0
M  V30 51 C 6.8604 0.961223 2.1181 0
M  V30 52 C 7.8544 -0.0897034 1.69162 0
M  V30 53 O 9.0604 0.0612271 1.79896 0
M  V30 54 H 5.4354 0.29355 0.692338 0
M  V30 55 H 7.4064 1.90178 2.29946 0
M  V30 56 C 6.1554 0.536854 3.4353 0
M  V30 57 H 5.4784 1.33713 3.76777 0
M  V30 58 H 6.9184 0.402286 4.22087 0
M  V30 59 C 5.3774 -0.751574 3.2841 0
M  V30 60 O 5.9074 -1.80841 3.58691 0
M  V30 61 N 4.1134 -0.716079 2.81639 0
M  V30 62 H 3.6604 0.144236 2.57196 0
M  V30 63 H 3.6184 -1.57847 2.71904 0
M  V30 64 N 7.3905 -1.2043 1.01659 0
M  V30 65 C 8.6155 -1.94318 0.724942 0
M  V30 66 C 9.0405 -1.74266 -0.708034 0
M  V30 67 O 8.3985 -1.03694 -1.48719 0
M  V30 68 C 8.4465 -3.44486 1.06591 0
M  V30 69 O 7.5505 -4.12017 0.177599 0
M  V30 70 H 6.8915 -0.60708 0.26898 0
M  V30 71 H 9.4215 -1.52861 1.35995 0
M  V30 72 H 9.4315 -3.95106 1.01762 0
M  V30 73 H 8.1065 -3.58404 2.10997 0
M  V30 74 H 6.6835 -3.71821 0.283421 0
M  V30 75 N 8.8686 -0.792821 -1.36206 0
M  V30 76 C 10.1166 -0.366062 -1.98757 0
M  V30 77 C 10.4376 1.0668 -1.63231 0
M  V30 78 O 9.7076 1.73587 -0.907978 0
M  V30 79 H 8.2876 -0.132364 -0.735179 0
M  V30 80 H 10.9496 -1.01562 -1.66347 0
M  V30 81 H 10.0456 -0.460638 -3.08682 0
M  V30 82 N 10.3467 1.47872 -0.545128 0
M  V30 83 C 11.5927 2.02793 -0.0166104 0
M  V30 84 C 11.9257 1.41987 1.32489 0
M  V30 85 O 11.2007 0.571045 1.85928 0
M  V30 86 C 11.4837 3.59989 0.0893294 0
M  V30 87 C 11.3367 4.3125 -1.27841 0
M  V30 88 C 12.6557 4.32606 0.808724 0
M  V30 89 H 9.7747 0.736962 -0.00751035 0
M  V30 90 H 12.4167 1.76433 -0.705085 0
M  V30 91 H 10.5667 3.82579 0.675681 0
M  V30 92 H 12.2387 4.20035 -1.90704 0
M  V30 93 H 10.4817 3.92076 -1.85632 0
M  V30 94 H 11.1527 5.39736 -1.15713 0
M  V30 95 H 13.6287 4.14936 0.310992 0
M  V30 96 H 12.5047 5.42251 0.851782 0
M  V30 97 H 12.7657 4.00963 1.86229 0
M  V30 98 N 11.8248 0.280983 1.55075 0
M  V30 99 C 13.2408 -0.0729964 1.59433 0
M  V30 100 C 13.4408 -1.5411 1.29817 0
M  V30 101 O 12.4968 -2.29086 1.06187 0
M  V30 102 C 13.8098 0.306921 2.9913 0
M  V30 103 C 15.3578 0.254023 3.11968 0
M  V30 104 C 15.8328 0.608467 4.5394 0
M  V30 105 N 17.3238 0.560241 4.59799 0
M  V30 106 C 18.0588 0.80722 5.6769 0
M  V30 107 N 17.5548 1.11912 6.83701 0
M  V30 108 N 19.3478 0.735623 5.57266 0
M  V30 109 H 11.4988 1.238 1.7259 0
M  V30 110 H 13.7618 0.500547 0.805082 0
M  V30 111 H 13.4678 1.32816 3.25657 0
M  V30 112 H 13.3418 -0.349363 3.75579 0
M  V30 113 H 15.7288 -0.75794 2.852 0
M  V30 114 H 15.8098 0.944649 2.37718 0
M  V30 115 H 15.4538 1.61814 4.81434 0
M  V30 116 H 15.3838 -0.104013 5.26497 0
M  V30 117 H 17.8748 0.329288 3.76463 0
M  V30 118 H 18.1878 1.29409 7.61888 0
M  V30 119 H 16.5328 1.15695 6.85303 0
M  V30 120 H 19.7238 0.491752 4.6551 0
M  V30 121 H 19.8968 0.931482 6.4127 0
M  V30 122 N 13.3029 -1.57598 0.00835791 0
M  V30 123 C 14.2499 -2.08945 -0.980346 0
M  V30 124 C 15.2199 -0.986738 -1.33614 0
M  V30 125 O 16.4049 -1.25968 -1.43306 0
M  V30 126 C 13.5449 -2.60425 -2.26435 0
M  V30 127 C 12.6579 -3.84628 -1.96685 0
M  V30 128 C 11.7929 -4.24579 -3.19228 0
M  V30 129 C 10.8319 -5.41596 -2.85202 0
M  V30 130 N 9.9689 -5.768 -4.00307 0
M  V30 131 H 14.8089 -2.93148 -0.535551 0
M  V30 132 H 12.3459 -1.44912 -0.252776 0
M  V30 133 H 14.3039 -2.88354 -3.01509 0
M  V30 134 H 12.9339 -1.79083 -2.68568 0
M  V30 135 H 11.9859 -3.63556 -1.11942 0
M  V30 136 H 13.2979 -4.69796 -1.67611 0
M  V30 137 H 12.4519 -4.53834 -4.02641 0
M  V30 138 H 11.1909 -3.38137 -3.51447 0
M  V30 139 H 10.1959 -5.12056 -2.00198 0
M  V30 140 H 11.4209 -6.29721 -2.54222 0
M  V30 141 H 9.3669 -4.93316 -4.32407 0
M  V30 142 H 9.2839 -6.5656 -3.74786 0
M  V30 143 H 10.5519 -6.10652 -4.84484 0
M  V30 144 N 14.781 0.264519 -1.55364 0
M  V30 145 C 16.197 0.61215 -1.47394 0
M  V30 146 C 16.397 1.89134 -0.695018 0
M  V30 147 O 15.453 2.51563 -0.217275 0
M  V30 148 C 16.766 0.731235 -2.91674 0
M  V30 149 C 18.314 0.82473 -3.01939 0
M  V30 150 C 18.789 0.975522 -4.4749 0
M  V30 151 N 20.28 1.04083 -4.51354 0
M  V30 152 C 21.015 1.17646 -5.61201 0
M  V30 153 N 20.511 1.27874 -6.80896 0
M  V30 154 N 22.304 1.20823 -5.48961 0
M  V30 155 H 14.455 -0.575456 -2.04456 0
M  V30 156 H 16.718 -0.196099 -0.927496 0
M  V30 157 H 16.424 -0.138392 -3.51428 0
M  V30 158 H 16.298 1.60883 -3.41169 0
M  V30 159 H 18.685 1.68482 -2.42276 0
M  V30 160 H 18.766 -0.0776479 -2.55682 0
M  V30 161 H 18.41 0.120058 -5.07758 0
M  V30 162 H 18.34 1.89268 -4.91412 0
M  V30 163 H 20.831 0.973846 -3.65136 0
M  V30 164 H 21.144 1.38081 -7.60364 0
M  V30 165 H 19.489 1.24863 -6.83692 0
M  V30 166 H 22.68 1.12469 -4.54388 0
M  V30 167 H 22.853 1.31049 -6.3461 0
M  V30 168 N 16.2591 1.48442 0.529413 0
M  V30 169 C 17.1691 1.6569 1.66084 0
M  V30 170 C 18.1851 0.539432 1.65427 0
M  V30 171 O 19.3611 0.810572 1.84368 0
M  V30 172 C 16.4261 1.69315 3.02545 0
M  V30 173 C 15.4871 2.92694 3.14052 0
M  V30 174 C 14.7201 2.96137 4.44003 0
M  V30 175 O 14.9431 2.07973 5.31134 0
M  V30 176 O 13.8771 3.88312 4.59888 0
M  V30 177 H 17.7031 2.61483 1.54469 0
M  V30 178 H 15.2881 1.3185 0.702567 0
M  V30 179 H 17.1701 1.74217 3.83701 0
M  V30 180 H 15.8451 0.766966 3.14483 0
M  V30 181 H 14.7521 2.93324 2.32189 0
M  V30 182 H 16.0851 3.84699 3.0703 0
M  V30 183 N 17.7372 -0.778329 1.37039 0
M  V30 184 C 18.6472 -1.92253 1.34446 0
M  V30 185 C 19.6632 -1.72267 0.244991 0
M  V30 186 O 20.8392 -1.95615 0.479258 0
M  V30 187 C 17.9042 -3.27282 1.144 0
M  V30 188 C 16.9652 -3.59969 2.33925 0
M  V30 189 C 16.1982 -4.88555 2.14825 0
M  V30 190 O 16.4212 -5.59113 1.12912 0
M  V30 191 O 15.3552 -5.20153 3.02861 0
M  V30 192 H 19.1812 -1.97392 2.30803 0
M  V30 193 H 16.7662 -0.920154 1.17701 0
M  V30 194 H 18.6482 -4.08062 1.05182 0
M  V30 195 H 17.3232 -3.23011 0.211124 0
M  V30 196 H 16.2302 -2.7945 2.48714 0
M  V30 197 H 17.5632 -3.68976 3.25757 0
M  V30 198 N 19.2153 -1.21501 -1.00376 0
M  V30 199 C 20.1253 -0.991447 -2.12621 0
M  V30 200 C 21.1413 0.0568446 -1.73907 0
M  V30 201 O 22.3173 -0.13348 -2.00957 0
M  V30 202 C 19.3823 -0.560312 -3.42142 0
M  V30 203 C 18.4433 -1.68096 -3.95022 0
M  V30 204 C 17.6763 -1.2703 -5.18362 0
M  V30 205 O 17.8993 -0.144438 -5.70217 0
M  V30 206 O 16.8333 -2.08269 -5.64719 0
M  V30 207 H 20.6593 -1.93158 -2.34358 0
M  V30 208 H 18.2443 -0.999999 -1.10997 0
M  V30 209 H 20.1263 -0.329724 -4.20108 0
M  V30 210 H 18.8013 0.351089 -3.2179 0
M  V30 211 H 17.7083 -1.96597 -3.18278 0
M  V30 212 H 19.0413 -2.56983 -4.19786 0
M  V30 213 N 20.6934 1.19889 -1.02296 0
M  V30 214 C 21.9414 1.89046 -0.714558 0
M  V30 215 C 22.2624 1.79636 0.758681 0
M  V30 216 O 21.5324 1.20292 1.54618 0
M  V30 217 H 20.1124 0.699802 -0.261317 0
M  V30 218 H 22.7744 1.45574 -1.29592 0
M  V30 219 H 21.8704 2.95524 -1.0036 0
M  V30 220 N 22.1715 0.800033 1.35784 0
M  V30 221 C 23.4485 0.30088 1.93272 0
M  V30 222 C 23.8285 -1.20857 1.73081 0
M  V30 223 O 23.1765 -2.00502 1.09596 0
M  V30 224 C 23.3865 0.70511 3.41803 0
M  V30 225 C 24.7345 0.690871 4.18942 0
M  V30 226 O 25.7585 0.646244 3.50289 0
M  V30 227 O 24.6175 0.74332 5.41421 0
M  V30 228 H 21.7115 0.0771605 0.823393 0
M  V30 229 H 24.2575 0.88329 1.449 0
M  V30 230 H 23.0295 1.74571 3.50201 0
M  V30 231 H 22.6525 0.0971541 3.97481 0
M  V30 232 N 23.6496 -1.47581 0.552962 0
M  V30 233 C 24.8976 -2.02082 0.0272703 0
M  V30 234 C 25.2186 -1.4301 -1.32563 0
M  V30 235 O 24.4886 -0.603745 -1.86365 0
M  V30 236 H 23.0686 -0.746966 0.00709182 0
M  V30 237 H 25.7306 -1.81033 0.722008 0
M  V30 238 H 24.8266 -3.12034 -0.0639951 0
M  V30 239 N 25.1277 -0.289203 -1.54924 0
M  V30 240 C 26.0907 0.579144 -2.21762 0
M  V30 241 C 27.0907 1.07047 -1.1999 0
M  V30 242 O 28.2807 0.968384 -1.44803 0
M  V30 243 C 25.4127 1.80055 -2.8947 0
M  V30 244 H 26.6057 -0.00464908 -2.999 0
M  V30 245 H 24.1587 -0.0399306 -1.56249 0
M  V30 246 H 24.8937 2.42449 -2.15381 0
M  V30 247 H 24.6787 1.45602 -3.64064 0
M  V30 248 H 26.1687 2.41773 -3.40493 0
M  V30 249 N 26.6058 1.57591 -0.0167156 0
M  V30 250 C 27.8538 1.90906 0.663285 0
M  V30 251 C 28.1748 0.892509 1.73376 0
M  V30 252 O 27.4448 -0.0677623 1.95783 0
M  V30 253 H 26.0248 0.704637 0.247983 0
M  V30 254 H 28.6868 1.94803 -0.0615909 0
M  V30 255 H 27.7828 2.9116 1.12393 0
M  V30 256 N 28.0839 -0.256276 1.55502 0
M  V30 257 C 29.0469 -1.30047 1.88734 0
M  V30 258 C 30.0469 -1.4154 0.763086 0
M  V30 259 O 31.2369 -1.40403 1.03115 0
M  V30 260 C 28.3689 -2.67953 2.10747 0
M  V30 261 H 29.5619 -1.01802 2.82093 0
M  V30 262 H 27.1149 -0.495134 1.4825 0
M  V30 263 H 27.8499 -3.01351 1.19825 0
M  V30 264 H 27.6349 -2.60993 2.92617 0
M  V30 265 H 29.1249 -3.43368 2.37673 0
M  V30 266 N 29.562 -1.4872 -0.521534 0
M  V30 267 C 30.808 -1.574 -1.27879 0
M  V30 268 C 31.141 -0.250817 -1.92573 0
M  V30 269 O 30.416 0.743934 -1.79711 0
M  V30 270 C 30.699 -2.71843 -2.36164 0
M  V30 271 C 30.552 -4.13893 -1.76105 0
M  V30 272 C 31.871 -2.82008 -3.37875 0
M  V30 273 H 28.99 -0.572941 -0.463581 0
M  V30 274 H 31.632 -1.80927 -0.580119 0
M  V30 275 H 29.782 -2.51914 -2.95756 0
M  V30 276 H 31.454 -4.45284 -1.20499 0
M  V30 277 H 29.697 -4.20498 -1.06601 0
M  V30 278 H 30.368 -4.89804 -2.5455 0
M  V30 279 H 32.844 -3.00086 -2.88249 0
M  V30 280 H 31.72 -3.63796 -4.11028 0
M  V30 281 H 31.981 -1.90511 -3.98946 0
M  V30 282 N 31.0401 0.771051 -1.3745 0
M  V30 283 C 32.0031 1.86598 -1.33093 0
M  V30 284 C 33.0031 1.59076 -0.234845 0
M  V30 285 O 34.1931 1.67145 -0.490732 0
M  V30 286 C 31.3251 3.23747 -1.06773 0
M  V30 287 H 32.5181 1.91873 -2.30488 0
M  V30 288 H 30.0711 0.970876 -1.2249 0
M  V30 289 H 30.8061 3.24148 -0.099129 0
M  V30 290 H 30.5911 3.45115 -1.86112 0
M  V30 291 H 32.0811 4.03824 -1.06377 0
M  V30 292 N 32.5182 1.22032 0.997298 0
M  V30 293 C 33.4812 0.987909 2.06816 0
M  V30 294 C 34.4812 -0.0440084 1.6074 0
M  V30 295 O 35.6712 0.194053 1.73116 0
M  V30 296 C 32.8032 0.49132 3.37341 0
M  V30 297 H 33.9962 1.93803 2.28868 0
M  V30 298 H 31.5492 1.03838 1.16822 0
M  V30 299 H 32.2842 -0.463364 3.20973 0
M  V30 300 H 32.0692 1.23575 3.72118 0
M  V30 301 H 33.5592 0.348824 4.16141 0
M  V30 302 N 33.9963 -1.19345 1.0293 0
M  V30 303 C 35.4073 -1.70725 0.755633 0
M  V30 304 C 35.7583 -1.82326 -0.724676 0
M  V30 305 O 34.8833 -1.49471 -1.56484 0
M  V30 306 C 35.4783 -3.10084 1.36503 0
M  V30 307 C 34.0373 -3.58723 1.13994 0
M  V30 308 C 33.1843 -2.35577 1.46283 0
M  V30 309 H 36.1353 -1.0418 1.19718 0
M  V30 310 H 36.1563 -3.72787 0.762217 0
M  V30 311 H 35.6683 -3.01609 2.44241 0
M  V30 312 H 33.7693 -3.72512 0.0807901 0
M  V30 313 H 33.8823 -4.42816 1.82894 0
M  V30 314 H 32.2463 -2.38935 0.88217 0
M  V30 315 H 33.0293 -2.29731 2.55105 0
M  V30 316 N 35.4744 -0.807222 -1.35358 0
M  V30 317 C 36.8854 -0.44876 -1.81226 0
M  V30 318 C 37.2364 1.02929 -1.67033 0
M  V30 319 O 36.3614 1.79991 -1.20133 0
M  V30 320 C 36.9564 -0.807774 -3.2903 0
M  V30 321 C 35.5154 -0.501901 -3.73039 0
M  V30 322 C 34.6624 -1.03304 -2.57339 0
M  V30 323 H 37.6134 -0.998808 -1.23327 0
M  V30 324 H 37.6344 -0.10554 -3.80354 0
M  V30 325 H 37.1464 -1.88357 -3.39328 0
M  V30 326 H 35.2474 0.565128 -3.68289 0
M  V30 327 H 35.3604 -1.03497 -4.67787 0
M  V30 328 H 33.7244 -0.455339 -2.50597 0
M  V30 329 H 34.5074 -2.11496 -2.70415 0
M  V30 330 N 36.9525 1.47285 -0.560781 0
M  V30 331 C 37.9155 2.28535 0.174488 0
M  V30 332 C 38.9155 1.37153 0.839388 0
M  V30 333 O 40.1055 1.59748 0.694702 0
M  V30 334 C 37.2375 3.16934 1.25561 0
M  V30 335 H 38.4305 2.95012 -0.539262 0
M  V30 336 H 35.9835 1.53034 -0.317865 0
M  V30 337 H 36.7185 2.55157 2.00164 0
M  V30 338 H 36.5035 3.8419 0.783604 0
M  V30 339 H 37.9935 3.78143 1.77193 0
M  V30 340 N 38.4306 0.297415 1.54768 0
M  V30 341 C 39.6796 -0.313669 1.99246 0
M  V30 342 C 39.9926 -1.55281 1.18942 0
M  V30 343 O 41.1986 -2.23825 1.5367 0
M  V30 344 C 39.6546 -0.609407 3.54703 0
M  V30 345 C 39.2626 0.611192 4.43811 0
M  V30 346 C 41.0066 -1.18188 4.07715 0
M  V30 347 C 38.9136 0.288805 5.90694 0
M  V30 348 H 37.8436 -0.120979 0.744231 0
M  V30 349 H 40.4946 0.40556 1.78962 0
M  V30 350 H 38.8766 -1.38813 3.70873 0
M  V30 351 H 40.0506 1.3875 4.39414 0
M  V30 352 H 38.3656 1.10205 4.01552 0
M  V30 353 H 40.9626 -1.43727 5.15021 0
M  V30 354 H 41.3056 -2.12299 3.58099 0
M  V30 355 H 41.8386 -0.464944 3.95074 0
M  V30 356 H 38.5776 1.19838 6.44453 0
M  V30 357 H 38.0976 -0.450305 5.98107 0
M  V30 358 H 39.7766 -0.110933 6.46905 0
M  V30 359 N 39.9087 -1.5758 0.0250728 0
M  V30 360 C 41.1857 -1.82917 -0.692873 0
M  V30 361 C 41.5657 -0.908137 -1.90568 0
M  V30 362 O 40.9137 0.0372298 -2.2847 0
M  V30 363 C 41.1237 -3.32034 -1.07492 0
M  V30 364 C 42.4717 -3.98406 -1.46826 0
M  V30 365 O 43.4957 -3.36505 -1.16801 0
M  V30 366 O 42.3547 -5.07497 -2.02754 0
M  V30 367 H 39.4487 -0.754079 -0.33955 0
M  V30 368 H 41.9947 -1.69619 0.0524456 0
M  V30 369 H 40.7667 -3.90728 -0.211552 0
M  V30 370 H 40.3897 -3.50424 -1.87854 0
M  V30 371 N 41.3868 0.248026 -1.55636 0
M  V30 372 C 42.6338 0.976224 -1.77415 0
M  V30 373 C 42.9618 1.85361 -0.589193 0
M  V30 374 O 42.2168 1.90973 0.427529 0
M  V30 375 C 42.5158 1.86819 -3.04686 0
M  V30 376 C 42.1818 1.14625 -4.36087 0
M  V30 377 C 40.8438 0.946723 -4.71795 0
M  V30 378 C 43.1958 0.634463 -5.17324 0
M  V30 379 C 40.5238 0.223091 -5.86276 0
M  V30 380 C 42.8758 -0.0756959 -6.32555 0
M  V30 381 C 41.5398 -0.286711 -6.66884 0
M  V30 382 H 40.8098 0.357226 -0.649208 0
M  V30 383 H 43.4568 0.246415 -1.89908 0
M  V30 384 H 41.7618 2.66502 -2.872 0
M  V30 385 H 43.4588 2.43329 -3.18735 0
M  V30 386 H 40.0488 1.3117 -4.08035 0
M  V30 387 H 44.2328 0.77616 -4.90193 0
M  V30 388 H 39.4888 0.0491185 -6.1138 0
M  V30 389 H 43.6628 -0.479899 -6.94745 0
M  V30 390 H 41.2898 -0.849389 -7.5544 0
M  V30 391 N 42.8649 1.48995 0.513639 0
M  V30 392 C 44.2759 1.5119 1.09537 0
M  V30 393 C 44.6269 0.290906 1.94031 0
M  V30 394 O 43.7519 -0.60049 2.07902 0
M  V30 395 C 44.3469 2.73964 1.99322 0
M  V30 396 C 42.9059 2.78978 2.52682 0
M  V30 397 C 42.0529 2.44934 1.30009 0
M  V30 398 H 45.0039 1.55875 0.298125 0
M  V30 399 H 45.0249 2.53409 2.83838 0
M  V30 400 H 44.5369 3.62813 1.37799 0
M  V30 401 H 42.6379 1.94378 3.1788 0
M  V30 402 H 42.7509 3.8083 2.90698 0
M  V30 403 H 41.1149 1.9644 1.62122 0
M  V30 404 H 41.8979 3.36043 0.702131 0
M  V30 405 N 44.343 -0.763751 1.37857 0
M  V30 406 C 45.306 -1.85889 1.34081 0
M  V30 407 C 46.306 -1.58949 0.243277 0
M  V30 408 O 47.496 -1.66882 0.499589 0
M  V30 409 C 44.628 -3.23176 1.08489 0
M  V30 410 H 45.821 -1.90648 2.31502 0
M  V30 411 H 43.374 -0.964367 1.23003 0
M  V30 412 H 44.109 -3.24091 0.116318 0
M  V30 413 H 43.894 -3.44124 1.8794 0
M  V30 414 H 45.384 -4.03254 1.08517 0
M  V30 415 N 45.8211 -1.22559 -0.990812 0
M  V30 416 C 46.7311 -1.01394 -2.11557 0
M  V30 417 C 47.7471 0.0383962 -1.73958 0
M  V30 418 O 48.9231 -0.154787 -2.00804 0
M  V30 419 C 45.9881 -0.596569 -3.41529 0
M  V30 420 C 45.0491 -1.72276 -3.93217 0
M  V30 421 C 44.2821 -1.32521 -5.16985 0
M  V30 422 O 44.5051 -0.204909 -5.70032 0
M  V30 423 O 43.4391 -2.14247 -5.62478 0
M  V30 424 H 47.2651 -1.95633 -2.32296 0
M  V30 425 H 44.8501 -1.01172 -1.0993 0
M  V30 426 H 46.7321 -0.374263 -4.19735 0
M  V30 427 H 45.4071 0.316939 -3.22145 0
M  V30 428 H 44.3141 -1.99961 -3.16174 0
M  V30 429 H 45.6471 -2.61421 -4.17037 0
M  V30 430 N 47.2992 1.18797 -1.03562 0
M  V30 431 C 48.5472 1.88278 -0.734569 0
M  V30 432 C 48.8682 1.8043 0.739586 0
M  V30 433 O 48.1382 1.21925 1.53333 0
M  V30 434 H 46.7182 0.696991 -0.268725 0
M  V30 435 H 49.3802 1.44192 -1.31129 0
M  V30 436 H 48.4762 2.94443 -1.03489 0
M  V30 437 N 48.7773 0.814389 1.34928 0
M  V30 438 C 50.1883 0.458364 1.80986 0
M  V30 439 C 50.5393 -1.02042 1.67577 0
M  V30 440 O 49.6643 -1.79352 1.21086 0
M  V30 441 C 50.2593 0.825212 3.28597 0
M  V30 442 C 48.8183 0.521677 3.72767 0
M  V30 443 C 47.9653 1.04668 2.56788 0
M  V30 444 H 50.9163 1.00533 1.22795 0
M  V30 445 H 50.9373 0.12571 3.80292 0
M  V30 446 H 50.4493 1.90154 3.38324 0
M  V30 447 H 48.5503 -0.545589 3.68584 0
M  V30 448 H 48.6633 1.05977 4.67232 0
M  V30 449 H 47.0273 0.468622 2.50352 0
M  V30 450 H 47.8103 2.12927 2.6929 0
M  V30 451 N 50.2554 -1.46986 0.568584 0
M  V30 452 C 51.5324 -1.95592 -0.0174074 0
M  V30 453 C 51.9124 -1.51124 -1.47393 0
M  V30 454 O 51.2604 -0.755329 -2.15655 0
M  V30 455 C 51.4704 -3.48719 0.139913 0
M  V30 456 C 52.8184 -4.246 0.000426376 0
M  V30 457 O 53.8424 -3.56135 0.0680316 0
M  V30 458 O 52.7014 -5.46302 -0.146988 0
M  V30 459 H 49.7954 -0.82498 -0.0577599 0
M  V30 460 H 52.3414 -1.57335 0.635909 0
M  V30 461 H 51.1134 -3.73927 1.15301 0
M  V30 462 H 50.7364 -3.93771 -0.550491 0
M  V30 463 N 51.7335 -0.305618 -1.54608 0
M  V30 464 C 53.1445 0.186098 -1.8577 0
M  V30 465 C 53.4955 1.53058 -1.22751 0
M  V30 466 O 52.6205 2.09888 -0.526893 0
M  V30 467 C 53.2155 0.344449 -3.37044 0
M  V30 468 C 51.7745 0.780384 -3.68221 0
M  V30 469 C 50.9215 -0.108554 -2.77087 0
M  V30 470 H 53.8725 -0.526485 -1.49712 0
M  V30 471 H 53.8935 1.17828 -3.61796 0
M  V30 472 H 53.4055 -0.634235 -3.82883 0
M  V30 473 H 51.5065 1.76945 -3.27904 0
M  V30 474 H 51.6195 0.596572 -4.75371 0
M  V30 475 H 49.9835 0.412931 -2.5133 0
M  V30 476 H 50.7665 -1.08368 -3.25747 0
M  V30 477 N 53.2116 1.57565 -0.0334293 0
M  V30 478 C 54.1216 2.13943 0.962572 0
M  V30 479 C 55.1376 1.09276 1.35406 0
M  V30 480 O 56.3136 1.41355 1.4346 0
M  V30 481 C 53.3786 2.65887 2.22497 0
M  V30 482 C 52.4396 3.85286 1.8935 0
M  V30 483 C 51.6726 4.34743 3.09571 0
M  V30 484 O 51.8956 3.83352 4.22371 0
M  V30 485 O 50.8296 5.26538 2.91618 0
M  V30 486 H 54.6556 2.99333 0.513169 0
M  V30 487 H 52.2406 1.4822 0.18743 0
M  V30 488 H 54.1226 2.99346 2.96598 0
M  V30 489 H 52.7976 1.83578 2.6661 0
M  V30 490 H 51.7046 3.56746 1.1262 0
M  V30 491 H 53.0376 4.68771 1.5005 0
M  V30 492 N 54.6897 -0.239769 1.55765 0
M  V30 493 C 55.9197 -0.982743 1.8173 0
M  V30 494 C 56.3277 -1.7917 0.607835 0
M  V30 495 O 55.6707 -1.78525 -0.432973 0
M  V30 496 C 55.7327 -1.96332 3.01155 0
M  V30 497 C 55.3967 -1.34062 4.36894 0
M  V30 498 C 56.3937 -0.739539 5.14613 0
M  V30 499 C 54.0787 -1.35784 4.83599 0
M  V30 500 C 56.0727 -0.163989 6.37189 0
M  V30 501 C 53.7597 -0.778441 6.06122 0
M  V30 502 C 54.7577 -0.182548 6.82756 0
M  V30 503 O 54.4457 0.387887 8.02964 0
M  V30 504 H 54.1777 -0.294481 0.608487 0
M  V30 505 H 56.7317 -0.26572 2.03674 0
M  V30 506 H 54.9617 -2.71884 2.74984 0
M  V30 507 H 56.6507 -2.57032 3.14149 0
M  V30 508 H 57.4167 -0.718687 4.79646 0
M  V30 509 H 53.2957 -1.81105 4.23936 0
M  V30 510 H 56.8397 0.301753 6.96947 0
M  V30 511 H 52.7367 -0.796645 6.40565 0
M  V30 512 H 53.5047 0.28044 8.18019 0
M  V30 513 N 56.1678 -1.49265 -0.50573 0
M  V30 514 C 57.4448 -1.49012 -1.26707 0
M  V30 515 C 57.8248 -0.215205 -2.1 0
M  V30 516 O 57.1728 0.802547 -2.13943 0
M  V30 517 C 57.3828 -2.7663 -2.12783 0
M  V30 518 C 58.7308 -3.25932 -2.72127 0
M  V30 519 O 59.7548 -2.77715 -2.23054 0
M  V30 520 O 58.6138 -4.09897 -3.61451 0
M  V30 521 H 55.7078 -0.596197 -0.57313 0
M  V30 522 H 58.2538 -1.61524 -0.52039 0
M  V30 523 H 57.0258 -3.60916 -1.5118 0
M  V30 524 H 56.6488 -2.66956 -2.94653 0
M  V30 525 N 57.6459 0.756429 -1.3826 0
M  V30 526 C 58.5559 1.9009 -1.37488 0
M  V30 527 C 59.5719 1.71855 -0.272366 0
M  V30 528 O 60.7479 1.94827 -0.510318 0
M  V30 529 C 57.8129 3.25421 -1.19592 0
M  V30 530 C 56.8739 3.56202 -2.39622 0
M  V30 531 C 56.1069 4.85075 -2.2257 0
M  V30 532 O 56.3299 5.57246 -1.21793 0
M  V30 533 O 55.2639 5.15269 -3.11098 0
M  V30 534 H 59.0899 1.93695 -2.33914 0
M  V30 535 H 56.6749 0.901313 -1.1915 0
M  V30 536 H 58.5569 4.06337 -1.11661 0
M  V30 537 H 57.2319 3.22634 -0.262486 0
M  V30 538 H 56.1389 2.75458 -2.53128 0
M  V30 539 H 57.4719 3.63747 -3.31586 0
M  V30 540 N 59.124 1.23083 0.984299 0
M  V30 541 C 60.349 1.088 1.76571 0
M  V30 542 C 60.774 -0.356657 1.84688 0
M  V30 543 O 60.132 -1.25788 1.30565 0
M  V30 544 C 60.18 1.71371 3.17277 0
M  V30 545 O 59.284 0.973213 4.00752 0
M  V30 546 H 58.625 0.381599 0.543395 0
M  V30 547 H 61.155 1.63057 1.23587 0
M  V30 548 H 61.165 1.76449 3.67872 0
M  V30 549 H 59.84 2.76493 3.10684 0
M  V30 550 H 58.417 0.999078 3.59267 0
M  V30 551 N 60.6021 -1.18246 1.0419 0
M  V30 552 C 61.8791 -1.84121 0.660208 0
M  V30 553 C 62.2591 -1.92778 -0.860221 0
M  V30 554 O 61.6071 -1.45464 -1.76217 0
M  V30 555 C 61.8171 -3.22355 1.33747 0
M  V30 556 C 63.1651 -3.98376 1.46906 0
M  V30 557 O 64.1891 -3.31799 1.29568 0
M  V30 558 O 63.0481 -5.17665 1.75171 0
M  V30 559 H 60.1421 -0.794036 0.231161 0
M  V30 560 H 62.6881 -1.25628 1.14087 0
M  V30 561 H 61.4601 -3.10964 2.37522 0
M  V30 562 H 61.0831 -3.88506 0.845515 0
M  V30 563 N 62.0802 -0.821533 -1.34494 0
M  V30 564 C 63.3262 -0.409552 -1.98622 0
M  V30 565 C 63.6592 1.0244 -1.64984 0
M  V30 566 O 62.9342 1.71325 -0.920758 0
M  V30 567 C 63.2172 -0.610458 -3.54888 0
M  V30 568 C 63.0702 -2.09043 -3.98273 0
M  V30 569 C 64.3892 -0.0455379 -4.40076 0
M  V30 570 H 61.5082 -0.15028 -0.721516 0
M  V30 571 H 64.1502 -1.03384 -1.59411 0
M  V30 572 H 62.3002 -0.079044 -3.8842 0
M  V30 573 H 63.9722 -2.68537 -3.75081 0
M  V30 574 H 62.2152 -2.58139 -3.48635 0
M  V30 575 H 62.8862 -2.18182 -5.07051 0
M  V30 576 H 65.3622 -0.499557 -4.1309 0
M  V30 577 H 64.2382 -0.215922 -5.48475 0
M  V30 578 H 64.4992 1.04939 -4.29465 0
M  V30 579 N 63.5583 1.46682 -0.576371 0
M  V30 580 C 64.9693 1.86112 -0.148091 0
M  V30 581 C 65.3203 1.48073 1.2872 0
M  V30 582 O 64.4453 0.892656 1.97131 0
M  V30 583 C 65.0403 3.37786 -0.261982 0
M  V30 584 C 63.5993 3.76235 0.111384 0
M  V30 585 C 62.7463 2.70713 -0.60083 0
M  V30 586 H 65.6973 1.37927 -0.78497 0
M  V30 587 H 65.7183 3.77007 0.514364 0
M  V30 588 H 65.2303 3.6544 -1.30671 0
M  V30 589 H 63.3313 3.54198 1.15649 0
M  V30 590 H 63.4443 4.78391 -0.26052 0
M  V30 591 H 61.8083 2.54666 -0.0417783 0
M  V30 592 H 62.5913 3.01208 -1.64708 0
M  V30 593 N 65.0364 0.313813 1.54444 0
M  V30 594 C 65.9994 -0.54379 2.22656 0
M  V30 595 C 66.9994 -1.05124 1.21678 0
M  V30 596 O 68.1894 -0.945225 1.46325 0
M  V30 597 C 65.3214 -1.75427 2.92298 0
M  V30 598 H 66.5144 0.0523599 2.99854 0
M  V30 599 H 64.0674 0.0647834 1.56166 0
M  V30 600 H 64.8024 -2.38991 2.19211 0
M  V30 601 H 64.5874 -1.39791 3.66334 0
M  V30 602 H 66.0774 -2.36325 3.44297 0
M  V30 603 N 66.5145 -1.57545 0.0417849 0
M  V30 604 C 67.4245 -2.14451 -0.951213 0
M  V30 605 C 68.4405 -1.09992 -1.34825 0
M  V30 606 O 69.6165 -1.42114 -1.42708 0
M  V30 607 C 66.6815 -2.67063 -2.21084 0
M  V30 608 C 65.7425 -3.86284 -1.87304 0
M  V30 609 C 64.9755 -4.36378 -3.07261 0
M  V30 610 O 65.1985 -3.85587 -4.20332 0
M  V30 611 O 64.1325 -5.28077 -2.88822 0
M  V30 612 H 67.9585 -2.99601 -0.497287 0
M  V30 613 H 65.5435 -1.48317 -0.179567 0
M  V30 614 H 67.4255 -3.00914 -2.95006 0
M  V30 615 H 66.1005 -1.84989 -2.65633 0
M  V30 616 H 65.0075 -3.57338 -1.10727 0
M  V30 617 H 66.3405 -4.6956 -1.47562 0
M  V30 618 N 67.9926 0.231505 -1.5589 0
M  V30 619 C 69.2416 0.955346 -1.7764 0
M  V30 620 C 69.5546 1.85893 -0.608546 0
M  V30 621 O 70.7606 2.62067 -0.70943 0
M  V30 622 C 69.2166 1.74886 -3.14552 0
M  V30 623 C 68.8246 0.891915 -4.39032 0
M  V30 624 C 70.5686 2.46452 -3.45633 0
M  V30 625 C 68.4756 1.68221 -5.66971 0
M  V30 626 H 67.4056 0.360446 -0.662265 0
M  V30 627 H 70.0566 0.209516 -1.823 0
M  V30 628 H 68.4386 2.53723 -3.04041 0
M  V30 629 H 69.6126 0.144793 -4.60572 0
M  V30 630 H 67.9276 0.288863 -4.15397 0
M  V30 631 H 70.5246 3.06061 -4.38441 0
M  V30 632 H 70.8676 3.18841 -2.67668 0
M  V30 633 H 71.4006 1.74613 -3.57428 0
M  V30 634 H 68.1396 1.00178 -6.478 0
M  V30 635 H 67.6596 2.4042 -5.49507 0
M  V30 636 H 69.3386 2.24544 -6.06786 0
M  V30 637 N 69.4707 1.49531 0.497807 0
M  V30 638 C 70.4027 1.62559 1.61578 0
M  V30 639 C 71.4157 0.508134 1.54667 0
M  V30 640 O 72.6047 0.780309 1.60541 0
M  V30 641 C 69.7047 1.56925 3.00379 0
M  V30 642 C 68.8777 2.84257 3.3244 0
M  V30 643 C 67.9367 2.71632 4.50669 0
M  V30 644 O 66.9627 3.4557 4.52294 0
M  V30 645 N 68.1647 1.83391 5.5077 0
M  V30 646 H 70.9297 2.58981 1.50828 0
M  V30 647 H 68.4907 1.4666 0.685743 0
M  V30 648 H 70.4827 1.46129 3.77397 0
M  V30 649 H 69.0527 0.683483 3.05037 0
M  V30 650 H 68.2727 3.09381 2.44289 0
M  V30 651 H 69.5607 3.68666 3.5066 0
M  V30 652 H 68.9587 1.22583 5.52259 0
M  V30 653 H 67.5157 1.78515 6.26878 0
M  V30 654 N 70.9488 -0.749086 1.3866 0
M  V30 655 C 72.1948 -1.51056 1.35314 0
M  V30 656 C 72.5278 -1.94121 -0.0553751 0
M  V30 657 O 71.8028 -1.65763 -1.01749 0
M  V30 658 C 72.0858 -2.76003 2.31288 0
M  V30 659 C 71.9388 -2.39047 3.8102 0
M  V30 660 C 73.2578 -3.78046 2.2532 0
M  V30 661 H 70.3768 -0.547972 0.492844 0
M  V30 662 H 73.0188 -0.857628 1.69543 0
M  V30 663 H 71.1688 -3.31716 2.02229 0
M  V30 664 H 72.8408 -1.89074 4.20771 0
M  V30 665 H 71.0838 -1.71449 3.98482 0
M  V30 666 H 71.7548 -3.28462 4.4364 0
M  V30 667 H 74.2308 -3.31884 2.50983 0
M  V30 668 H 73.1068 -4.63159 2.94576 0
M  V30 669 H 73.3678 -4.23957 1.25352 0
M  V30 670 N 72.4269 -1.23603 -0.977757 0
M  V30 671 C 73.3569 -1.04401 -2.0886 0
M  V30 672 C 74.3379 0.0399052 -1.70053 0
M  V30 673 O 75.5229 -0.125246 -1.93796 0
M  V30 674 C 72.6529 -0.637269 -3.41403 0
M  V30 675 C 71.6069 -1.66883 -3.94124 0
M  V30 676 C 70.9329 -1.11745 -5.22893 0
M  V30 677 C 72.2329 -3.06247 -4.23096 0
M  V30 678 H 73.9269 -1.97316 -2.25182 0
M  V30 679 H 71.4729 -0.950096 -1.08209 0
M  V30 680 H 73.4259 -0.48998 -4.18542 0
M  V30 681 H 72.1499 0.327557 -3.24953 0
M  V30 682 H 70.8089 -1.80416 -3.19133 0
M  V30 683 H 70.4569 -0.143527 -5.02795 0
M  V30 684 H 70.1569 -1.80672 -5.59134 0
M  V30 685 H 71.6809 -0.982067 -6.02651 0
M  V30 686 H 73.0949 -2.96001 -4.90975 0
M  V30 687 H 71.4919 -3.72436 -4.70544 0
M  V30 688 H 72.5619 -3.55041 -3.30263 0
M  V30 689 N 73.905 1.17692 -1.04816 0
M  V30 690 C 74.852 2.21581 -0.645797 0
M  V30 691 C 75.822 1.62367 0.350159 0
M  V30 692 O 77.007 1.89254 0.242433 0
M  V30 693 C 74.147 3.45092 -0.0227568 0
M  V30 694 C 73.26 4.18613 -1.06709 0
M  V30 695 C 72.395 5.29602 -0.411767 0
M  V30 696 C 71.434 5.94904 -1.44067 0
M  V30 697 N 70.571 6.97414 -0.809781 0
M  V30 698 H 75.411 2.55353 -1.5362 0
M  V30 699 H 72.948 1.25438 -0.768364 0
M  V30 700 H 74.906 4.15679 0.35588 0
M  V30 701 H 73.536 3.11917 0.831122 0
M  V30 702 H 72.588 3.46779 -1.5636 0
M  V30 703 H 73.9 4.63293 -1.84827 0
M  V30 704 H 73.054 6.06696 0.0206623 0
M  V30 705 H 71.793 4.86045 0.401438 0
M  V30 706 H 70.798 5.16544 -1.88316 0
M  V30 707 H 72.023 6.40542 -2.25571 0
M  V30 708 H 69.969 6.55998 -0.0170186 0
M  V30 709 H 69.886 7.40386 -1.52856 0
M  V30 710 H 71.154 7.78463 -0.401999 0
M  V30 711 N 75.3831 0.828654 1.34056 0
M  V30 712 C 76.2931 0.256725 2.33191 0
M  V30 713 C 77.3091 -0.611898 1.62886 0
M  V30 714 O 78.4851 -0.51844 1.94613 0
M  V30 715 C 75.5501 -0.567238 3.42028 0
M  V30 716 C 74.6111 0.324458 4.28072 0
M  V30 717 C 73.8441 -0.460274 5.31712 0
M  V30 718 O 74.0671 -1.693 5.44696 0
M  V30 719 O 73.0011 0.160391 6.01686 0
M  V30 720 H 76.8271 1.07739 2.83947 0
M  V30 721 H 74.4121 0.59093 1.37217 0
M  V30 722 H 76.2941 -1.03582 4.08471 0
M  V30 723 H 74.9691 -1.36513 2.93506 0
M  V30 724 H 73.8761 0.840659 3.64532 0
M  V30 725 H 75.2091 1.08685 4.8005 0
M  V30 726 N 76.8612 -1.46375 0.584142 0
M  V30 727 C 78.2722 -1.86031 0.157959 0
M  V30 728 C 78.6232 -1.48753 -1.27933 0
M  V30 729 O 77.7482 -0.903098 -1.96655 0
M  V30 730 C 78.3432 -3.37642 0.279892 0
M  V30 731 C 76.9022 -3.76289 -0.09143 0
M  V30 732 C 76.0492 -2.7039 0.615178 0
M  V30 733 H 79.0002 -1.37509 0.792274 0
M  V30 734 H 79.0212 -3.77275 -0.494364 0
M  V30 735 H 78.5332 -3.64742 1.32607 0
M  V30 736 H 76.6342 -3.54806 -1.13769 0
M  V30 737 H 76.7472 -4.78246 0.285886 0
M  V30 738 H 75.1112 -2.5464 0.0552833 0
M  V30 739 H 75.8942 -3.0033 1.66303 0
M  V30 740 N 78.3393 -0.321999 -1.54275 0
M  V30 741 C 79.2693 0.537411 -2.27231 0
M  V30 742 C 80.2503 1.12064 -1.27968 0
M  V30 743 O 81.4353 1.14606 -1.56777 0
M  V30 744 C 78.5653 1.69919 -3.02894 0
M  V30 745 C 77.5193 1.24534 -4.09482 0
M  V30 746 C 76.8453 2.49394 -4.72977 0
M  V30 747 C 78.1453 0.361335 -5.21049 0
M  V30 748 H 79.8393 -0.0711406 -2.99315 0
M  V30 749 H 77.3853 -0.0356555 -1.43956 0
M  V30 750 H 79.3383 2.30668 -3.52662 0
M  V30 751 H 78.0623 2.33431 -2.28424 0
M  V30 752 H 76.7213 0.660782 -3.60596 0
M  V30 753 H 76.3693 3.11265 -3.95124 0
M  V30 754 H 76.0693 2.19718 -5.44975 0
M  V30 755 H 77.5933 3.10908 -5.25517 0
M  V30 756 H 79.0073 0.875072 -5.66582 0
M  V30 757 H 77.4043 0.157428 -5.99893 0
M  V30 758 H 78.4743 -0.60822 -4.8107 0
M  V30 759 N 79.8174 1.5752 -0.0501392 0
M  V30 760 C 80.7494 2.08413 0.95376 0
M  V30 761 C 81.7624 1.01175 1.27544 0
M  V30 762 O 82.9514 1.28744 1.23641 0
M  V30 763 C 80.0514 2.51138 2.27559 0
M  V30 764 C 79.2244 3.817 2.13598 0
M  V30 765 C 78.2834 4.10749 3.28895 0
M  V30 766 O 77.3094 4.80685 3.04845 0
M  V30 767 N 78.5114 3.62579 4.5334 0
M  V30 768 H 81.2764 2.95165 0.519383 0
M  V30 769 H 78.8374 1.61327 0.136127 0
M  V30 770 H 80.8294 2.67648 3.03557 0
M  V30 771 H 79.3994 1.6964 2.62567 0
M  V30 772 H 78.6194 3.74782 1.22197 0
M  V30 773 H 79.9074 4.67201 2.01496 0
M  V30 774 H 79.3054 3.06039 4.75769 0
M  V30 775 H 77.8624 3.84329 5.26436 0
M  V30 776 N 81.2955 -0.223234 1.56011 0
M  V30 777 C 82.2275 -1.30006 1.88762 0
M  V30 778 C 83.2405 -1.43129 0.775746 0
M  V30 779 O 84.4295 -1.44057 1.05403 0
M  V30 780 C 81.5295 -2.67589 2.07965 0
M  V30 781 C 80.7025 -2.76434 3.38973 0
M  V30 782 C 79.7615 -3.95019 3.47629 0
M  V30 783 O 78.7875 -3.83436 4.20672 0
M  V30 784 N 79.9895 -5.09249 2.78649 0
M  V30 785 H 82.7545 -1.02238 2.81722 0
M  V30 786 H 80.3155 -0.413278 1.56536 0
M  V30 787 H 82.3075 -3.45297 2.11073 0
M  V30 788 H 80.8775 -2.87964 1.21638 0
M  V30 789 H 80.0975 -1.85216 3.47978 0
M  V30 790 H 81.3855 -2.79313 4.25278 0
M  V30 791 H 80.7835 -5.21556 2.19081 0
M  V30 792 H 79.3405 -5.85007 2.8742 0
M  V30 793 N 82.7736 -1.49793 -0.48987 0
M  V30 794 C 84.1846 -1.52914 -1.07118 0
M  V30 795 C 84.5356 -0.321738 -1.93544 0
M  V30 796 O 83.6606 0.567338 -2.08831 0
M  V30 797 C 84.2556 -2.771 -1.94938 0
M  V30 798 C 82.8146 -2.82963 -2.48212 0
M  V30 799 C 81.9616 -2.46972 -1.26096 0
M  V30 800 H 84.9126 -1.56329 -0.273289 0
M  V30 801 H 84.9336 -2.57892 -2.79771 0
M  V30 802 H 84.4456 -3.64959 -1.32009 0
M  V30 803 H 82.5466 -1.99411 -3.14748 0
M  V30 804 H 82.6596 -3.85406 -2.84603 0
M  V30 805 H 81.0236 -1.98994 -1.58976 0
M  V30 806 H 81.8066 -3.37118 -0.648581 0
M  V30 807 N 84.2517 0.741722 -1.39055 0
M  V30 808 C 85.4797 1.53098 -1.39171 0
M  V30 809 C 85.8947 1.88794 0.0155099 0
M  V30 810 O 85.2517 1.53626 0.985159 0
M  V30 811 C 85.3027 2.82274 -2.2584 0
M  V30 812 O 85.0237 2.48097 -3.61081 0
M  V30 813 C 86.5247 3.76343 -2.34266 0
M  V30 814 H 83.7447 0.473335 -0.4756 0
M  V30 815 H 86.2887 0.917045 -1.82785 0
M  V30 816 H 84.4437 3.40015 -1.85656 0
M  V30 817 H 84.8577 3.31029 -4.06842 0
M  V30 818 H 86.3317 4.63898 -2.9917 0
M  V30 819 H 86.8087 4.17619 -1.35982 0
M  V30 820 H 87.4147 3.24523 -2.74891 0
M  V30 821 N 85.7298 1.2412 0.971189 0
M  V30 822 C 86.9768 1.07881 1.71371 0
M  V30 823 C 87.3048 -0.382901 1.90694 0
M  V30 824 O 86.5598 -1.29945 1.46331 0
M  V30 825 C 86.8588 1.75983 3.11071 0
M  V30 826 C 86.5248 3.25909 3.11599 0
M  V30 827 C 85.1868 3.66813 3.11451 0
M  V30 828 C 87.5388 4.21771 3.062 0
M  V30 829 C 84.8668 5.02021 3.03631 0
M  V30 830 C 87.2188 5.56982 2.99923 0
M  V30 831 C 85.8828 5.97237 2.98102 0
M  V30 832 H 85.1528 0.394764 0.62709 0
M  V30 833 H 87.7998 1.54176 1.13587 0
M  V30 834 H 86.1048 1.22072 3.72298 0
M  V30 835 H 87.8018 1.60887 3.6731 0
M  V30 836 H 84.3918 2.93353 3.12477 0
M  V30 837 H 88.5758 3.91172 3.05447 0
M  V30 838 H 83.8318 5.32411 3.0058 0
M  V30 839 H 88.0058 6.30969 2.94704 0
M  V30 840 H 85.6328 7.01967 2.91798 0
M  V30 841 N 87.2079 -1.17134 1.05439 0
M  V30 842 C 88.6189 -1.69084 0.791676 0
M  V30 843 C 88.9699 -1.83822 -0.685839 0
M  V30 844 O 88.0949 -1.52757 -1.53278 0
M  V30 845 C 88.6899 -3.07119 1.4305 0
M  V30 846 C 87.2489 -3.56225 1.21577 0
M  V30 847 C 86.3959 -2.32421 1.51247 0
M  V30 848 H 89.3469 -1.01617 1.219 0
M  V30 849 H 89.3679 -3.71087 0.84112 0
M  V30 850 H 88.8799 -2.9636 2.50584 0
M  V30 851 H 86.9809 -3.72257 0.159787 0
M  V30 852 H 87.0939 -4.38837 1.92246 0
M  V30 853 H 85.4579 -2.3701 0.932653 0
M  V30 854 H 86.2409 -2.24268 2.5992 0
M  V30 855 N 88.686 -0.835752 -1.33615 0
M  V30 856 C 89.933 -0.429959 -1.97883 0
M  V30 857 C 90.261 1.01006 -1.66217 0
M  V30 858 O 89.516 1.72047 -0.93265 0
M  V30 859 C 89.815 -0.593925 -3.52431 0
M  V30 860 C 89.481 -2.00158 -4.04039 0
M  V30 861 C 88.143 -2.38662 -4.17844 0
M  V30 862 C 90.495 -2.92117 -4.31644 0
M  V30 863 C 87.823 -3.68435 -4.56588 0
M  V30 864 C 90.175 -4.21368 -4.71838 0
M  V30 865 C 88.839 -4.59833 -4.83849 0
M  V30 866 H 88.109 -0.157333 -0.724104 0
M  V30 867 H 90.756 -1.06217 -1.59343 0
M  V30 868 H 89.061 0.121619 -3.91611 0
M  V30 869 H 90.758 -0.260282 -4.00154 0
M  V30 870 H 87.348 -1.69252 -3.93766 0
M  V30 871 H 91.532 -2.63608 -4.20505 0
M  V30 872 H 86.788 -3.98046 -4.64079 0
M  V30 873 H 90.962 -4.92703 -4.92155 0
M  V30 874 H 88.589 -5.60438 -5.13627 0
M  V30 875 N 90.1641 1.46063 -0.591896 0
M  V30 876 C 91.1271 2.28854 0.125973 0
M  V30 877 C 92.1271 1.38903 0.810107 0
M  V30 878 O 93.3171 1.61186 0.66066 0
M  V30 879 C 90.4491 3.19526 1.1881 0
M  V30 880 H 91.6421 2.93802 -0.601717 0
M  V30 881 H 89.1951 1.52325 -0.350254 0
M  V30 882 H 89.9301 2.59345 1.94707 0
M  V30 883 H 89.7151 3.85766 0.701936 0
M  V30 884 H 91.2051 3.81817 1.69132 0
M  V30 885 N 91.6422 0.330177 1.54103 0
M  V30 886 C 92.8882 -0.270806 2.00984 0
M  V30 887 C 93.2212 -1.51265 1.21789 0
M  V30 888 O 92.4962 -1.92142 0.301927 0
M  V30 889 C 92.7792 -0.598339 3.55094 0
M  V30 890 C 92.6322 0.654674 4.4501 0
M  V30 891 C 93.9512 -1.41334 4.16789 0
M  V30 892 H 91.0702 -0.0969531 0.730595 0
M  V30 893 H 93.7122 0.448066 1.84641 0
M  V30 894 H 91.8622 -1.21078 3.69151 0
M  V30 895 H 93.5342 1.29285 4.42813 0
M  V30 896 H 91.7772 1.28224 4.14416 0
M  V30 897 H 92.4482 0.380944 5.50684 0
M  V30 898 H 94.9242 -0.895597 4.06347 0
M  V30 899 H 93.8002 -1.61127 5.24718 0
M  V30 900 H 94.0612 -2.41146 3.70541 0
M  V30 901 N 93.1203 -1.57491 0.0584922 0
M  V30 902 C 94.0833 -2.1085 -0.898617 0
M  V30 903 C 95.0833 -1.02964 -1.23511 0
M  V30 904 O 96.2733 -1.29007 -1.17059 0
M  V30 905 C 93.4053 -2.59881 -2.20623 0
M  V30 906 H 94.5983 -2.96715 -0.435936 0
M  V30 907 H 92.1513 -1.55141 -0.190023 0
M  V30 908 H 92.8863 -1.77431 -2.71457 0
M  V30 909 H 92.6713 -3.38727 -1.97501 0
M  V30 910 H 94.1613 -3.01285 -2.89166 0
M  V30 911 N 94.5984 0.214957 -1.56127 0
M  V30 912 C 95.5464 1.28601 -1.93816 0
M  V30 913 C 96.5404 1.48175 -0.821016 0
M  V30 914 O 97.7464 1.49271 -1.0059 0
M  V30 915 H 94.1214 0.431302 -0.616022 0
M  V30 916 H 96.0924 0.940991 -2.83175 0
M  V30 917 C 94.8414 2.62779 -2.27689 0
M  V30 918 H 94.1644 2.48527 -3.13168 0
M  V30 919 H 95.6044 3.36517 -2.57939 0
M  V30 920 C 94.0634 3.18285 -1.10436 0
M  V30 921 O 94.5934 4.00002 -0.368945 0
M  V30 922 N 92.7994 2.7675 -0.886433 0
M  V30 923 H 92.3464 2.10404 -1.48619 0
M  V30 924 H 92.3044 3.14229 -0.103656 0
M  V30 925 N 96.0765 1.50051 0.48192 0
M  V30 926 C 97.0085 1.64263 1.59844 0
M  V30 927 C 98.0215 0.52451 1.54119 0
M  V30 928 O 99.2105 0.797293 1.59704 0
M  V30 929 C 96.3105 1.60102 2.98698 0
M  V30 930 C 95.4835 2.87767 3.29407 0
M  V30 931 C 94.5425 2.76397 4.47762 0
M  V30 932 O 93.5685 3.50348 4.48603 0
M  V30 933 N 94.7705 1.89222 5.48794 0
M  V30 934 H 97.5355 2.60566 1.48073 0
M  V30 935 H 95.0965 1.47379 0.670149 0
M  V30 936 H 97.0885 1.50123 3.75826 0
M  V30 937 H 95.6585 0.715798 3.04294 0
M  V30 938 H 94.8785 3.11954 2.40994 0
M  V30 939 H 96.1665 3.72365 3.4673 0
M  V30 940 H 95.5645 1.28434 5.50928 0
M  V30 941 H 94.1215 1.85154 6.24949 0
M  V30 942 N 97.5546 -0.734337 1.39446 0
M  V30 943 C 98.4846 -1.86155 1.40955 0
M  V30 944 C 99.4656 -1.67898 0.272827 0
M  V30 945 O 100.651 -1.88207 0.478743 0
M  V30 946 C 97.7806 -3.23912 1.25294 0
M  V30 947 C 96.7346 -3.56808 2.36373 0
M  V30 948 C 96.0606 -4.93508 2.058 0
M  V30 949 C 97.3606 -3.59713 3.78687 0
M  V30 950 H 99.0546 -1.8515 2.35287 0
M  V30 951 H 96.6006 -0.889367 1.13253 0
M  V30 952 H 98.5536 -4.02443 1.2497 0
M  V30 953 H 97.2776 -3.25446 0.274308 0
M  V30 954 H 95.9366 -2.80606 2.35914 0
M  V30 955 H 95.5846 -4.91623 1.06374 0
M  V30 956 H 95.2846 -5.16486 2.80208 0
M  V30 957 H 96.8086 -5.74396 2.07128 0
M  V30 958 H 98.2226 -4.2832 3.81071 0
M  V30 959 H 96.6196 -3.94209 4.52459 0
M  V30 960 H 97.6896 -2.59504 4.09617 0
M  V30 961 N 99.0327 -1.24633 -0.964593 0
M  V30 962 C 99.9627 -1.06611 -2.07741 0
M  V30 963 C 100.944 0.0218666 -1.70086 0
M  V30 964 O 102.129 -0.145793 -1.93652 0
M  V30 965 C 99.2587 -0.673444 -3.40708 0
M  V30 966 C 98.2127 -1.71054 -3.92332 0
M  V30 967 C 97.5387 -1.17285 -5.21678 0
M  V30 968 C 98.8387 -3.10718 -4.19824 0
M  V30 969 H 100.533 -1.99693 -2.23076 0
M  V30 970 H 98.0787 -0.96152 -1.07195 0
M  V30 971 H 100.032 -0.534345 -4.17998 0
M  V30 972 H 98.7557 0.293073 -3.25282 0
M  V30 973 H 97.4147 -1.83791 -3.17201 0
M  V30 974 H 97.0627 -0.196847 -5.02615 0
M  V30 975 H 96.7627 -1.86592 -5.57187 0
M  V30 976 H 98.2867 -1.04593 -6.01575 0
M  V30 977 H 99.7007 -3.01192 -4.87808 0
M  V30 978 H 98.0977 -3.77406 -4.66567 0
M  V30 979 H 99.1677 -3.58524 -3.26479 0
M  V30 980 N 100.511 1.16574 -1.06058 0
M  V30 981 C 101.441 2.23057 -0.690488 0
M  V30 982 C 102.422 1.67141 0.315901 0
M  V30 983 O 103.607 1.93253 0.191556 0
M  V30 984 C 100.737 3.47222 -0.073625 0
M  V30 985 C 99.6908 4.16016 -1.00573 0
M  V30 986 C 99.0168 5.34104 -0.252289 0
M  V30 987 C 100.317 4.67264 -2.33371 0
M  V30 988 H 102.011 2.54271 -1.58072 0
M  V30 989 H 99.5568 1.22218 -0.76149 0
M  V30 990 H 101.51 4.20939 0.19714 0
M  V30 991 H 100.234 3.15302 0.85161 0
M  V30 992 H 98.8928 3.44223 -1.2612 0
M  V30 993 H 98.5408 4.98437 0.675988 0
M  V30 994 H 98.2408 5.81072 -0.873455 0
M  V30 995 H 99.7648 6.10599 0.0109857 0
M  V30 996 H 101.179 5.32573 -2.12223 0
M  V30 997 H 99.5758 5.24843 -2.90963 0
M  V30 998 H 100.646 3.83602 -2.96611 0
M  V30 999 N 101.989 0.842826 1.3317 0
M  V30 1000 C 103.235 0.441099 1.97945 0
M  V30 1001 C 103.568 -0.998024 1.66593 0
M  V30 1002 O 102.843 -1.69839 0.947898 0
M  V30 1003 C 103.126 0.666841 3.53872 0
M  V30 1004 C 102.979 2.15352 3.94897 0
M  V30 1005 C 104.298 0.115544 4.39948 0
M  V30 1006 H 101.417 0.161739 0.719034 0
M  V30 1007 H 104.059 1.05907 1.57746 0
M  V30 1008 H 102.209 0.140828 3.88245 0
M  V30 1009 H 103.881 2.7447 3.70761 0
M  V30 1010 H 102.124 2.63653 3.44484 0
M  V30 1011 H 102.795 2.26221 5.03516 0
M  V30 1012 H 105.271 0.565213 4.12243 0
M  V30 1013 H 104.147 0.303152 5.48062 0
M  V30 1014 H 104.408 -0.980935 4.3108 0
M  V30 1015 N 103.467 -1.45747 0.599634 0
M  V30 1016 C 104.692 -2.07178 0.0960198 0
M  V30 1017 C 105.117 -1.44268 -1.207 0
M  V30 1018 O 104.475 -0.532503 -1.73303 0
M  V30 1019 C 104.523 -3.60579 -0.0385348 0
M  V30 1020 O 103.627 -3.97713 -1.0908 0
M  V30 1021 H 102.968 -0.660251 0.0704593 0
M  V30 1022 H 105.498 -1.87124 0.827385 0
M  V30 1023 H 105.508 -4.07298 -0.239304 0
M  V30 1024 H 104.183 -4.05756 0.912947 0
M  V30 1025 H 102.76 -3.62678 -0.867135 0
M  V30 1026 N 104.945 -0.338344 -1.53925 0
M  V30 1027 C 105.875 0.51328 -2.27789 0
M  V30 1028 C 106.856 1.107 -1.29149 0
M  V30 1029 O 108.041 1.12937 -1.57984 0
M  V30 1030 C 105.171 1.66697 -3.04679 0
M  V30 1031 C 104.125 1.20183 -4.1078 0
M  V30 1032 C 103.451 2.44363 -4.75595 0
M  V30 1033 C 104.751 0.30605 -5.21403 0
M  V30 1034 H 106.445 -0.102883 -2.99223 0
M  V30 1035 H 103.991 -0.0509219 -1.4391 0
M  V30 1036 H 105.944 2.26915 -3.55088 0
M  V30 1037 H 104.668 2.30995 -2.30887 0
M  V30 1038 H 103.327 0.622499 -3.61276 0
M  V30 1039 H 102.975 3.07057 -3.98403 0
M  V30 1040 H 102.675 2.13925 -5.47275 0
M  V30 1041 H 104.199 3.05317 -5.28786 0
M  V30 1042 H 105.613 0.814929 -5.67478 0
M  V30 1043 H 104.01 0.0937929 -6.00027 0
M  V30 1044 H 105.08 -0.65921 -4.80398 0
M  V30 1045 N 106.423 1.57458 -0.0668435 0
M  V30 1046 C 107.353 2.15468 0.899764 0
M  V30 1047 C 108.334 1.08042 1.31381 0
M  V30 1048 O 109.519 1.36054 1.38574 0
M  V30 1049 C 106.649 2.71232 2.16911 0
M  V30 1050 C 105.603 3.83781 1.89463 0
M  V30 1051 C 104.929 4.26127 3.22986 0
M  V30 1052 C 106.229 5.08238 1.20381 0
M  V30 1053 H 107.923 2.96488 0.416529 0
M  V30 1054 H 105.469 1.4262 0.198908 0
M  V30 1055 H 107.422 3.10458 2.84945 0
M  V30 1056 H 106.146 1.87426 2.67468 0
M  V30 1057 H 104.805 3.45051 1.23836 0
M  V30 1058 H 104.453 3.39249 3.71374 0
M  V30 1059 H 104.153 5.01993 3.05413 0
M  V30 1060 H 105.677 4.67966 3.92225 0
M  V30 1061 H 107.091 5.44811 1.78475 0
M  V30 1062 H 105.488 5.89349 1.13083 0
M  V30 1063 H 106.558 4.84558 0.182153 0
M  V30 1064 N 107.901 -0.206675 1.56239 0
M  V30 1065 C 108.811 -1.27686 1.96808 0
M  V30 1066 C 109.827 -1.50455 0.874035 0
M  V30 1067 O 111.003 -1.63295 1.17884 0
M  V30 1068 C 108.068 -2.60358 2.28942 0
M  V30 1069 C 107.129 -2.45762 3.51994 0
M  V30 1070 C 106.362 -3.72108 3.82585 0
M  V30 1071 O 106.585 -4.75776 3.14631 0
M  V30 1072 O 105.519 -3.6833 4.76043 0
M  V30 1073 H 109.345 -0.962593 2.88041 0
M  V30 1074 H 106.93 -0.410746 1.43643 0
M  V30 1075 H 108.812 -3.38687 2.50737 0
M  V30 1076 H 107.487 -2.91435 1.4088 0
M  V30 1077 H 106.394 -1.65584 3.35459 0
M  V30 1078 H 107.727 -2.19621 4.40486 0
M  V30 1079 N 109.379 -1.50304 -0.473955 0
M  V30 1080 C 110.329 -1.65347 -1.56985 0
M  V30 1081 C 111.313 -0.508176 -1.52664 0
M  V30 1082 O 112.505 -0.762446 -1.59737 0
M  V30 1083 C 109.634 -1.74832 -2.95447 0
M  V30 1084 C 108.72 -2.95028 -3.04662 0
M  V30 1085 N 109.111 -4.18747 -2.83698 0
M  V30 1086 C 107.409 -2.93527 -3.35795 0
M  V30 1087 C 108.11 -4.99687 -2.97805 0
M  V30 1088 N 107.086 -4.33585 -3.2788 0
M  V30 1089 H 110.888 -2.58698 -1.39472 0
M  V30 1090 H 108.402 -1.47449 -0.680629 0
M  V30 1091 H 110.399 -1.83712 -3.7424 0
M  V30 1092 H 109.059 -0.826376 -3.14008 0
M  V30 1093 H 110.07 -4.48291 -2.59337 0
M  V30 1094 H 106.747 -2.10821 -3.60362 0
M  V30 1095 H 108.137 -6.08057 -2.85861 0
M  V30 1096 N 110.857 0.726932 -1.39834 0
M  V30 1097 C 111.787 1.85405 -1.41941 0
M  V30 1098 C 112.768 1.67751 -0.281728 0
M  V30 1099 O 113.953 1.8795 -0.488717 0
M  V30 1100 C 111.083 3.23243 -1.2701 0
M  V30 1101 C 110.037 3.55549 -2.38262 0
M  V30 1102 C 109.363 4.9241 -2.08415 0
M  V30 1103 C 110.663 3.577 -3.80589 0
M  V30 1104 H 112.357 1.83899 -2.36266 0
M  V30 1105 H 109.903 0.883349 -1.13723 0
M  V30 1106 H 111.856 4.01775 -1.27103 0
M  V30 1107 H 110.58 3.25296 -0.291564 0
M  V30 1108 H 109.239 2.79351 -2.37399 0
M  V30 1109 H 108.887 4.91052 -1.0898 0
M  V30 1110 H 108.587 5.14992 -2.82943 0
M  V30 1111 H 110.111 5.73289 -2.10171 0
M  V30 1112 H 111.525 4.26293 -3.83337 0
M  V30 1113 H 109.922 3.91804 -4.54543 0
M  V30 1114 H 110.992 2.57328 -4.10987 0
M  V30 1115 N 112.336 1.25143 0.95797 0
M  V30 1116 C 113.561 1.12521 1.74223 0
M  V30 1117 C 113.986 -0.317402 1.85403 0
M  V30 1118 O 113.344 -1.2299 1.33204 0
M  V30 1119 C 113.392 1.78062 3.1357 0
M  V30 1120 O 112.496 1.058 3.98598 0
M  V30 1121 H 111.837 0.39304 0.535178 0
M  V30 1122 H 114.367 1.65641 1.201 0
M  V30 1123 H 114.377 1.84213 3.64046 0
M  V30 1124 H 113.052 2.83021 3.04749 0
M  V30 1125 H 111.629 1.07506 3.57067 0
M  V30 1126 N 113.814 -1.1601 1.06675 0
M  V30 1127 C 114.764 -2.18512 0.650888 0
M  V30 1128 C 115.748 -1.57677 -0.320441 0
M  V30 1129 O 116.94 -1.76482 -0.135266 0
M  V30 1130 C 114.069 -3.43273 0.0429255 0
M  V30 1131 C 113.155 -4.11176 1.03898 0
M  V30 1132 N 113.546 -4.54672 2.216 0
M  V30 1133 C 111.844 -4.37417 0.870779 0
M  V30 1134 C 112.545 -5.07248 2.84736 0
M  V30 1135 N 111.521 -5.0037 2.12441 0
M  V30 1136 H 115.323 -2.49863 1.54745 0
M  V30 1137 H 112.837 -1.32503 0.938975 0
M  V30 1138 H 114.834 -4.16006 -0.272857 0
M  V30 1139 H 113.494 -3.13408 -0.84884 0
M  V30 1140 H 114.505 -4.4828 2.59356 0
M  V30 1141 H 111.182 -4.17488 0.0313293 0
M  V30 1142 H 112.572 -5.50912 3.84636 0
M  V30 1143 N 115.292 -0.849877 -1.32721 0
M  V30 1144 C 116.538 -0.451591 -1.97708 0
M  V30 1145 C 116.871 0.989175 -1.6712 0
M  V30 1146 O 116.146 1.69334 -0.956891 0
M  V30 1147 C 116.429 -0.685598 -3.53513 0
M  V30 1148 C 116.282 -2.17444 -3.93749 0
M  V30 1149 C 117.601 -0.138874 -4.39881 0
M  V30 1150 H 114.72 -0.16555 -0.718166 0
M  V30 1151 H 117.362 -1.06742 -1.57182 0
M  V30 1152 H 115.512 -0.161416 -3.88165 0
M  V30 1153 H 117.184 -2.76433 -3.693 0
M  V30 1154 H 115.427 -2.65476 -3.43081 0
M  V30 1155 H 116.098 -2.28888 -5.02309 0
M  V30 1156 H 118.574 -0.587068 -4.11938 0
M  V30 1157 H 117.45 -0.332213 -5.47894 0
M  V30 1158 H 117.711 0.95806 -4.31594 0
M  V30 1159 N 116.77 1.45427 -0.607355 0
M  V30 1160 C 117.72 2.27612 0.133038 0
M  V30 1161 C 118.704 1.37307 0.838785 0
M  V30 1162 O 119.896 1.61299 0.728813 0
M  V30 1163 C 117.025 3.24173 1.12991 0
M  V30 1164 C 116.111 4.21965 0.425011 0
M  V30 1165 N 116.502 5.02982 -0.533217 0
M  V30 1166 C 114.8 4.40899 0.672593 0
M  V30 1167 C 115.501 5.73931 -0.947518 0
M  V30 1168 N 114.477 5.42819 -0.291321 0
M  V30 1169 H 118.279 2.87649 -0.602935 0
M  V30 1170 H 115.793 1.56576 -0.431006 0
M  V30 1171 H 117.79 3.81783 1.67473 0
M  V30 1172 H 116.45 2.65696 1.86644 0
M  V30 1173 H 117.461 5.09843 -0.90995 0
M  V30 1174 H 114.138 3.93547 1.39382 0
M  V30 1175 H 115.528 6.49037 -1.73782 0
M  V30 1176 N 118.248 0.346503 1.53744 0
M  V30 1177 C 119.158 -0.517293 2.28826 0
M  V30 1178 C 120.174 -1.10935 1.3405 0
M  V30 1179 O 121.35 -1.1244 1.6709 0
M  V30 1180 C 118.415 -1.65098 3.04866 0
M  V30 1181 C 117.476 -1.0884 4.15274 0
M  V30 1182 C 116.709 -2.16806 4.87679 0
M  V30 1183 O 116.932 -3.3758 4.59778 0
M  V30 1184 O 115.866 -1.80934 5.74061 0
M  V30 1185 H 119.692 0.0931396 3.03557 0
M  V30 1186 H 117.277 0.111458 1.48984 0
M  V30 1187 H 119.159 -2.31053 3.5241 0
M  V30 1188 H 117.834 -2.24717 2.32989 0
M  V30 1189 H 116.741 -0.3933 3.72027 0
M  V30 1190 H 118.074 -0.537036 4.89261 0
M  V30 1191 N 119.726 -1.57421 0.075193 0
M  V30 1192 C 121.137 -1.81021 -0.456964 0
M  V30 1193 C 121.488 -0.98936 -1.69429 0
M  V30 1194 O 120.613 -0.212865 -2.15351 0
M  V30 1195 C 121.208 -3.28329 -0.83581 0
M  V30 1196 C 119.767 -3.52764 -1.31281 0
M  V30 1197 C 118.914 -2.75676 -0.299648 0
M  V30 1198 H 121.865 -1.55822 0.300856 0
M  V30 1199 H 121.886 -3.40564 -1.69696 0
M  V30 1200 H 121.398 -3.88046 0.0649238 0
M  V30 1201 H 119.499 -2.98355 -2.23193 0
M  V30 1202 H 119.612 -4.61451 -1.28839 0
M  V30 1203 H 117.976 -2.42538 -0.777641 0
M  V30 1204 H 118.759 -3.38132 0.593417 0
M  V30 1205 N 121.204 0.198386 -1.56346 0
M  V30 1206 C 122.152 1.26538 -1.95169 0
M  V30 1207 C 123.146 1.47295 -0.836685 0
M  V30 1208 O 124.352 1.48195 -1.02167 0
M  V30 1209 H 120.727 0.424744 -0.620561 0
M  V30 1210 H 122.698 0.910904 -2.84157 0
M  V30 1211 C 121.447 2.6035 -2.30463 0
M  V30 1212 H 120.77 2.45192 -3.15786 0
M  V30 1213 H 122.21 3.33762 -2.61494 0
M  V30 1214 C 120.669 3.17096 -1.13806 0
M  V30 1215 O 121.199 3.99588 -0.41135 0
M  V30 1216 N 119.405 2.75795 -0.915736 0
M  V30 1217 H 118.952 2.08816 -1.50843 0
M  V30 1218 H 118.91 3.14101 -0.136979 0
M  V30 1219 N 122.682 1.50554 0.465978 0
M  V30 1220 C 124.093 1.54599 1.04671 0
M  V30 1221 C 124.444 0.352488 1.93008 0
M  V30 1222 O 123.569 -0.534044 2.09707 0
M  V30 1223 C 124.164 2.80166 1.90505 0
M  V30 1224 C 122.723 2.86876 2.43678 0
M  V30 1225 C 121.87 2.48947 1.22151 0
M  V30 1226 H 124.821 1.56744 0.248384 0
M  V30 1227 H 124.842 2.62311 2.75633 0
M  V30 1228 H 124.354 3.67013 1.26186 0
M  V30 1229 H 122.455 2.04393 3.11536 0
M  V30 1230 H 122.568 3.89885 2.78436 0
M  V30 1231 H 120.932 2.01498 1.5579 0
M  V30 1232 H 121.715 3.38107 0.594866 0
M  V30 1233 N 124.16 -0.719506 1.40217 0
M  V30 1234 C 125.09 -1.8465 1.42922 0
M  V30 1235 C 126.071 -1.67599 0.29062 0
M  V30 1236 O 127.256 -1.87688 0.498677 0
M  V30 1237 C 124.386 -3.22565 1.28722 0
M  V30 1238 C 123.34 -3.54281 2.40144 0
M  V30 1239 C 122.666 -4.91298 2.11023 0
M  V30 1240 C 123.966 -3.55676 3.82481 0
M  V30 1241 H 125.66 -1.82644 2.37237 0
M  V30 1242 H 123.206 -0.877305 1.1419 0
M  V30 1243 H 125.159 -4.01095 1.29232 0
M  V30 1244 H 123.883 -3.25137 0.308811 0
M  V30 1245 H 122.542 -2.78088 2.38877 0
M  V30 1246 H 122.19 -4.90468 1.11582 0
M  V30 1247 H 121.89 -5.13485 2.8567 0
M  V30 1248 H 123.414 -5.72166 2.13209 0
M  V30 1249 H 124.828 -4.24254 3.85592 0
M  V30 1250 H 123.225 -3.89388 4.56614 0
M  V30 1251 H 124.295 -2.55144 4.12346 0
M  V30 1252 N 125.638 -1.25649 -0.95132 0
M  V30 1253 C 127.054 -1.02542 -1.223 0
M  V30 1254 C 127.254 0.255715 -1.99871 0
M  V30 1255 O 126.31 0.967558 -2.33226 0
M  V30 1256 C 127.623 -2.25065 -1.99415 0
M  V30 1257 C 129.171 -2.29861 -2.12446 0
M  V30 1258 C 129.646 -3.52048 -2.92961 0
M  V30 1259 N 131.137 -3.52465 -3.00538 0
M  V30 1260 C 131.872 -4.43672 -3.63239 0
M  V30 1261 N 131.368 -5.45157 -4.27523 0
M  V30 1262 N 133.161 -4.31346 -3.60412 0
M  V30 1263 H 125.312 -2.07951 -0.432471 0
M  V30 1264 H 127.575 -0.91339 -0.253816 0
M  V30 1265 H 127.281 -3.18194 -1.49817 0
M  V30 1266 H 127.155 -2.28502 -3.00111 0
M  V30 1267 H 129.542 -1.37252 -2.61239 0
M  V30 1268 H 129.623 -2.3044 -1.11044 0
M  V30 1269 H 129.267 -4.44981 -2.44856 0
M  V30 1270 H 129.197 -3.48715 -3.94596 0
M  V30 1271 H 131.688 -2.79056 -2.54826 0
M  V30 1272 H 132.001 -6.10958 -4.73234 0
M  V30 1273 H 130.346 -5.49025 -4.26141 0
M  V30 1274 H 133.537 -3.51288 -3.09377 0
M  V30 1275 H 133.71 -5.02624 -4.0899 0
M  V30 1276 N 127.117 1.15442 -1.07289 0
M  V30 1277 C 128.342 1.90638 -0.816828 0
M  V30 1278 C 128.767 1.77445 0.624083 0
M  V30 1279 O 128.125 1.10671 1.43602 0
M  V30 1280 C 128.173 3.39008 -1.22906 0
M  V30 1281 O 127.277 4.10701 -0.373975 0
M  V30 1282 H 126.618 0.593555 -0.297638 0
M  V30 1283 H 129.148 1.46198 -1.43134 0
M  V30 1284 H 129.158 3.89801 -1.20497 0
M  V30 1285 H 127.833 3.47929 -2.27856 0
M  V30 1286 H 126.41 3.70046 -0.460499 0
M  V30 1287 N 128.595 0.856903 1.32268 0
M  V30 1288 C 130.011 0.547061 1.49931 0
M  V30 1289 C 130.211 -0.921781 1.7918 0
M  V30 1290 O 129.267 -1.70469 1.8627 0
M  V30 1291 C 130.58 1.43599 2.64196 0
M  V30 1292 C 132.128 1.43665 2.78081 0
M  V30 1293 C 132.603 2.31085 3.95428 0
M  V30 1294 N 134.094 2.28893 4.02694 0
M  V30 1295 C 134.829 2.93262 4.92732 0
M  V30 1296 N 134.325 3.66751 5.87763 0
M  V30 1297 N 136.118 2.82638 4.85873 0
M  V30 1298 H 128.269 1.8075 1.11549 0
M  V30 1299 H 130.532 0.772144 0.549997 0
M  V30 1300 H 130.238 2.48058 2.49319 0
M  V30 1301 H 130.112 1.12502 3.60032 0
M  V30 1302 H 132.499 0.399701 2.92381 0
M  V30 1303 H 132.58 1.7878 1.82952 0
M  V30 1304 H 132.224 3.34849 3.81888 0
M  V30 1305 H 132.154 1.93302 4.89839 0
M  V30 1306 H 134.645 1.75466 3.34694 0
M  V30 1307 H 134.958 4.13027 6.53168 0
M  V30 1308 H 133.303 3.70859 5.87783 0
M  V30 1309 H 136.494 2.24774 4.10602 0
M  V30 1310 H 136.667 3.33084 5.55841 0
M  V30 1311 N 130.073 -1.45103 0.615059 0
M  V30 1312 C 131.005 -2.28786 -0.13762 0
M  V30 1313 C 132.018 -1.40376 -0.824525 0
M  V30 1314 O 133.207 -1.64681 -0.688662 0
M  V30 1315 C 130.307 -3.16322 -1.21628 0
M  V30 1316 C 129.48 -4.33054 -0.615039 0
M  V30 1317 C 128.539 -5.01743 -1.58556 0
M  V30 1318 O 127.565 -5.58293 -1.10895 0
M  V30 1319 N 128.767 -5.01714 -2.91998 0
M  V30 1320 H 131.532 -2.94025 0.580483 0
M  V30 1321 H 129.093 -1.55373 0.45507 0
M  V30 1322 H 131.085 -3.59139 -1.86552 0
M  V30 1323 H 129.655 -2.52943 -1.83681 0
M  V30 1324 H 128.875 -3.93627 0.21245 0
M  V30 1325 H 130.163 -5.08431 -0.193704 0
M  V30 1326 H 129.561 -4.57075 -3.33316 0
M  V30 1327 H 128.118 -5.48371 -3.52325 0
M  V30 1328 N 131.551 -0.354651 -1.53558 0
M  V30 1329 C 132.797 0.238797 -2.01389 0
M  V30 1330 C 133.13 1.49309 -1.2418 0
M  V30 1331 O 132.405 1.91638 -0.332457 0
M  V30 1332 C 132.688 0.541771 -3.56001 0
M  V30 1333 C 132.541 -0.725388 -4.43912 0
M  V30 1334 C 133.86 1.34685 -4.18984 0
M  V30 1335 H 130.979 0.0853177 -0.732045 0
M  V30 1336 H 133.621 -0.477384 -1.83905 0
M  V30 1337 H 131.771 1.15189 -3.71031 0
M  V30 1338 H 133.443 -1.36313 -4.407 0
M  V30 1339 H 131.686 -1.34801 -4.12324 0
M  V30 1340 H 132.357 -0.468505 -5.50008 0
M  V30 1341 H 134.833 0.830837 -4.07721 0
M  V30 1342 H 133.709 1.52759 -5.27215 0
M  V30 1343 H 133.97 2.35221 -3.74331 0
M  V30 1344 N 133.029 1.57378 -0.0835403 0
M  V30 1345 C 134.276 1.9393 0.58287 0
M  V30 1346 C 134.604 0.964455 1.68904 0
M  V30 1347 O 133.859 -0.0179474 1.95692 0
M  V30 1348 C 134.158 3.37063 1.1884 0
M  V30 1349 C 133.824 4.50424 0.207194 0
M  V30 1350 C 132.486 4.81159 -0.0627115 0
M  V30 1351 C 134.838 5.19136 -0.463426 0
M  V30 1352 C 132.166 5.77939 -1.01012 0
M  V30 1353 C 134.518 6.16931 -1.39924 0
M  V30 1354 C 133.182 6.46078 -1.67749 0
M  V30 1355 H 132.452 0.70964 0.213287 0
M  V30 1356 H 135.099 1.90856 -0.156916 0
M  V30 1357 H 133.404 3.3666 2.00418 0
M  V30 1358 H 135.101 3.6264 1.71153 0
M  V30 1359 H 131.691 4.2646 0.427747 0
M  V30 1360 H 135.875 4.95576 -0.268034 0
M  V30 1361 H 131.131 5.98842 -1.23283 0
M  V30 1362 H 135.305 6.69273 -1.92476 0
M  V30 1363 H 132.932 7.2088 -2.41321 0
M  V30 1364 N 134.507 -0.190092 1.56449 0
M  V30 1365 C 135.454 -1.23557 1.94942 0
M  V30 1366 C 136.424 -1.44972 0.810696 0
M  V30 1367 O 137.609 -1.58023 1.06927 0
M  V30 1368 C 134.749 -2.57416 2.2985 0
M  V30 1369 C 133.862 -2.43537 3.5681 0
M  V30 1370 C 132.997 -3.70134 3.81017 0
M  V30 1371 C 132.036 -3.51109 5.01387 0
M  V30 1372 N 131.173 -4.6973 5.21822 0
M  V30 1373 H 136.013 -0.900304 2.84075 0
M  V30 1374 H 133.55 -0.43318 1.40577 0
M  V30 1375 H 135.508 -3.35409 2.48106 0
M  V30 1376 H 134.138 -2.88975 1.43852 0
M  V30 1377 H 133.19 -1.56816 3.46573 0
M  V30 1378 H 134.502 -2.25415 4.4496 0
M  V30 1379 H 133.656 -4.56566 3.9954 0
M  V30 1380 H 132.395 -3.91215 2.91207 0
M  V30 1381 H 131.4 -2.63063 4.82782 0
M  V30 1382 H 132.625 -3.31468 5.9271 0
M  V30 1383 H 130.571 -4.91065 4.34961 0
M  V30 1384 H 130.488 -4.54452 6.0416 0
M  V30 1385 H 131.756 -5.57499 5.44808 0
M  V30 1386 N 135.985 -1.50799 -0.457987 0
M  V30 1387 C 136.915 -1.73553 -1.5621 0
M  V30 1388 C 137.896 -0.584774 -1.59732 0
M  V30 1389 O 139.081 -0.825314 -1.7579 0
M  V30 1390 C 136.211 -1.84169 -2.94447 0
M  V30 1391 C 135.165 -2.99461 -3.0579 0
M  V30 1392 C 134.491 -2.95235 -4.45803 0
M  V30 1393 C 135.791 -4.39766 -2.81786 0
M  V30 1394 H 137.485 -2.66 -1.37421 0
M  V30 1395 H 135.031 -1.28002 -0.659662 0
M  V30 1396 H 136.984 -1.98672 -3.71628 0
M  V30 1397 H 135.708 -0.883545 -3.14422 0
M  V30 1398 H 134.367 -2.8463 -2.31044 0
M  V30 1399 H 134.015 -1.97239 -4.62715 0
M  V30 1400 H 133.715 -3.72642 -4.54326 0
M  V30 1401 H 135.239 -3.11803 -5.24987 0
M  V30 1402 H 136.653 -4.55054 -3.4871 0
M  V30 1403 H 135.05 -5.18722 -3.0174 0
M  V30 1404 H 136.12 -4.51229 -1.7754 0
M  V30 1405 N 137.463 0.71206 -1.40597 0
M  V30 1406 C 138.393 1.83889 -1.43899 0
M  V30 1407 C 139.374 1.67442 -0.299504 0
M  V30 1408 O 140.559 1.87421 -0.508624 0
M  V30 1409 C 137.689 3.21877 -1.30431 0
M  V30 1410 C 136.643 3.53002 -2.42019 0
M  V30 1411 C 135.969 4.90172 -2.13626 0
M  V30 1412 C 137.269 3.53643 -3.84362 0
M  V30 1413 H 138.963 1.81383 -2.38203 0
M  V30 1414 H 136.509 0.871237 -1.14654 0
M  V30 1415 H 138.462 4.00404 -1.31357 0
M  V30 1416 H 137.186 3.24968 -0.326049 0
M  V30 1417 H 135.845 2.76818 -2.40349 0
M  V30 1418 H 135.493 4.89869 -1.14182 0
M  V30 1419 H 135.193 5.11962 -2.88389 0
M  V30 1420 H 136.717 5.71028 -2.1624 0
M  V30 1421 H 138.131 4.22203 -3.87837 0
M  V30 1422 H 136.528 3.86961 -4.58673 0
M  V30 1423 H 137.598 2.52954 -4.13693 0
M  V30 1424 N 138.941 1.26152 0.944643 0
M  V30 1425 C 140.181 1.12708 1.70517 0
M  V30 1426 C 140.545 -0.324727 1.89234 0
M  V30 1427 O 141.746 -0.581211 2.62441 0
M  V30 1428 C 140.017 1.8713 3.04495 0
M  V30 1429 S 141.576 1.89698 3.95677 0
M  V30 1430 H 138.394 0.402665 0.585988 0
M  V30 1431 H 140.996 1.59821 1.12594 0
M  V30 1432 H 139.7 2.91833 2.88551 0
M  V30 1433 H 139.231 1.40444 3.67477 0
M  V30 1434 H 141.246 0.981198 4.86402 0
M  V30 1435 N 140.419 -1.14872 1.07899 0
M  V30 1436 C 141.351 -2.19425 0.662231 0
M  V30 1437 C 142.364 -1.60231 -0.288079 0
M  V30 1438 O 143.553 -1.78336 -0.076534 0
M  V30 1439 C 140.653 -3.38867 -0.0470695 0
M  V30 1440 C 139.826 -4.27597 0.920831 0
M  V30 1441 C 138.885 -5.25616 0.247805 0
M  V30 1442 O 137.911 -5.62189 0.890599 0
M  V30 1443 N 139.113 -5.71746 -1.00435 0
M  V30 1444 H 141.878 -2.55797 1.56166 0
M  V30 1445 H 139.439 -1.30042 0.964404 0
M  V30 1446 H 141.431 -4.01497 -0.50813 0
M  V30 1447 H 140.001 -3.00864 -0.848523 0
M  V30 1448 H 139.221 -3.61982 1.56087 0
M  V30 1449 H 140.509 -4.83748 1.57688 0
M  V30 1450 H 139.907 -5.44153 -1.54642 0
M  V30 1451 H 138.464 -6.36389 -1.40899 0
M  V30 1452 N 141.898 -0.863906 -1.31812 0
M  V30 1453 C 143.126 -0.486111 -2.01108 0
M  V30 1454 C 143.541 0.919755 -1.64882 0
M  V30 1455 O 142.898 1.60162 -0.874893 0
M  V30 1456 C 142.949 -0.626435 -3.56031 0
M  V30 1457 O 142.67 -1.97693 -3.90959 0
M  V30 1458 C 144.171 -0.248857 -4.42601 0
M  V30 1459 H 141.391 -0.190052 -0.643523 0
M  V30 1460 H 143.935 -1.1634 -1.68182 0
M  V30 1461 H 142.09 0.00322717 -3.874 0
M  V30 1462 H 142.504 -1.98034 -4.85678 0
M  V30 1463 H 143.978 -0.398016 -5.50563 0
M  V30 1464 H 144.455 0.811489 -4.31638 0
M  V30 1465 H 145.061 -0.853971 -4.16638 0
M  V30 1466 N 143.376 1.44774 -0.622745 0
M  V30 1467 C 144.623 2.02121 -0.1239 0
M  V30 1468 C 144.951 1.48915 1.25118 0
M  V30 1469 O 144.206 0.660045 1.84233 0
M  V30 1470 C 144.505 3.57364 -0.0508323 0
M  V30 1471 C 144.171 4.29787 -1.36358 0
M  V30 1472 C 142.833 4.4929 -1.72314 0
M  V30 1473 C 145.185 4.71062 -2.23048 0
M  V30 1474 C 142.513 5.07325 -2.94682 0
M  V30 1475 C 144.865 5.30452 -3.44679 0
M  V30 1476 C 143.529 5.48175 -3.80868 0
M  V30 1477 H 142.799 0.739612 -0.0453381 0
M  V30 1478 H 145.446 1.73648 -0.807389 0
M  V30 1479 H 143.751 3.85202 0.715991 0
M  V30 1480 H 145.448 3.99456 0.351533 0
M  V30 1481 H 142.038 4.14932 -1.07375 0
M  V30 1482 H 146.222 4.55715 -1.96565 0
M  V30 1483 H 141.478 5.19235 -3.22809 0
M  V30 1484 H 145.652 5.61385 -4.12092 0
M  V30 1485 H 143.279 5.92912 -4.75773 0
M  V30 1486 N 144.854 0.36279 1.53368 0
M  V30 1487 C 146.103 -0.22888 2.00397 0
M  V30 1488 C 146.416 -1.50096 1.25421 0
M  V30 1489 O 147.622 -2.17106 1.63025 0
M  V30 1490 C 146.078 -0.458417 3.56969 0
M  V30 1491 C 145.686 0.798877 4.4082 0
M  V30 1492 C 147.43 -1.00789 4.12361 0
M  V30 1493 C 145.337 0.539078 5.88938 0
M  V30 1494 H 144.267 -0.089305 0.748693 0
M  V30 1495 H 146.918 0.481099 1.77081 0
M  V30 1496 H 145.3 -1.22959 3.76427 0
M  V30 1497 H 146.474 1.57262 4.33134 0
M  V30 1498 H 144.789 1.27137 3.96516 0
M  V30 1499 H 147.386 -1.21754 5.20653 0
M  V30 1500 H 147.729 -1.9692 3.66781 0
M  V30 1501 H 148.262 -0.296961 3.9669 0
M  V30 1502 H 145.001 1.47064 6.3879 0
M  V30 1503 H 144.521 -0.196222 5.99479 0
M  V30 1504 H 146.2 0.163542 6.46793 0
M  V30 1505 N 146.332 -1.57332 0.0918853 0
M  V30 1506 C 147.279 -2.13847 -0.868211 0
M  V30 1507 C 148.249 -1.05618 -1.28196 0
M  V30 1508 O 149.434 -1.33387 -1.36427 0
M  V30 1509 C 146.574 -2.72062 -2.12312 0
M  V30 1510 C 145.687 -3.94514 -1.7602 0
M  V30 1511 C 144.822 -4.40903 -2.96273 0
M  V30 1512 C 143.861 -5.55953 -2.56092 0
M  V30 1513 N 142.998 -5.97209 -3.69169 0
M  V30 1514 H 147.838 -2.95575 -0.379406 0
M  V30 1515 H 145.375 -1.46048 -0.175606 0
M  V30 1516 H 147.333 -3.03931 -2.858 0
M  V30 1517 H 145.963 -1.93068 -2.58698 0
M  V30 1518 H 145.015 -3.68979 -0.925135 0
M  V30 1519 H 146.327 -4.7802 -1.42472 0
M  V30 1520 H 145.481 -4.74539 -3.78018 0
M  V30 1521 H 144.22 -3.56291 -3.33029 0
M  V30 1522 H 143.225 -5.21948 -1.72773 0
M  V30 1523 H 144.45 -6.42311 -2.20484 0
M  V30 1524 H 142.396 -5.15543 -4.05649 0
M  V30 1525 H 142.313 -6.75504 -3.39456 0
M  V30 1526 H 143.581 -6.35475 -4.51434 0
M  V30 1527 N 147.81 0.181792 -1.56548 0
M  V30 1528 C 148.743 1.25366 -1.90679 0
M  V30 1529 C 149.721 1.43299 -0.768376 0
M  V30 1530 O 150.905 1.58475 -1.02068 0
M  V30 1531 C 148.032 2.61826 -2.1486 0
M  V30 1532 C 147.078 2.60688 -3.37556 0
M  V30 1533 S 147.911 2.10804 -4.92262 0
M  V30 1534 C 149.067 3.49062 -5.19525 0
M  V30 1535 H 149.3 0.962277 -2.81296 0
M  V30 1536 H 146.833 0.385892 -1.495 0
M  V30 1537 H 148.791 3.40371 -2.29473 0
M  V30 1538 H 147.452 2.88169 -1.24969 0
M  V30 1539 H 146.645 3.61058 -3.51643 0
M  V30 1540 H 146.247 1.90232 -3.22006 0
M  V30 1541 H 148.539 4.45003 -5.10861 0
M  V30 1542 H 149.482 3.39859 -6.2121 0
M  V30 1543 H 149.89 3.4459 -4.47122 0
M  V30 1544 N 149.288 1.51039 0.449983 0
M  V30 1545 C 150.536 1.62759 1.19808 0
M  V30 1546 C 150.857 0.339981 1.92013 0
M  V30 1547 O 150.127 -0.643606 1.85026 0
M  V30 1548 H 148.707 0.599811 0.445237 0
M  V30 1549 H 151.369 1.87914 0.517138 0
M  V30 1550 H 150.465 2.44911 1.93455 0
M  V30 1551 N 150.766 -0.704594 1.40972 0
M  V30 1552 C 151.696 -1.83124 1.44872 0
M  V30 1553 C 152.677 -1.67281 0.30838 0
M  V30 1554 O 153.862 -1.87149 0.518556 0
M  V30 1555 C 150.992 -3.21181 1.32136 0
M  V30 1556 C 149.946 -3.51714 2.43888 0
M  V30 1557 C 149.272 -4.89032 2.16222 0
M  V30 1558 C 150.572 -3.516 3.86232 0
M  V30 1559 H 152.266 -1.80117 2.39161 0
M  V30 1560 H 149.812 -0.865145 1.15114 0
M  V30 1561 H 151.765 -3.99702 1.33479 0
M  V30 1562 H 150.489 -3.24791 0.343279 0
M  V30 1563 H 149.148 -2.75539 2.41813 0
M  V30 1564 H 148.796 -4.89256 1.16778 0
M  V30 1565 H 148.496 -5.10426 2.911 0
M  V30 1566 H 150.02 -5.69873 2.19265 0
M  V30 1567 H 151.434 -4.2014 3.9007 0
M  V30 1568 H 149.831 -3.84523 4.60719 0
M  V30 1569 H 150.901 -2.50757 4.15029 0
M  V30 1570 N 152.244 -1.26651 -0.937939 0
M  V30 1571 C 153.174 -1.10993 -2.05433 0
M  V30 1572 C 154.155 -0.0142161 -1.70094 0
M  V30 1573 O 155.34 -0.186837 -1.93299 0
M  V30 1574 C 152.47 -0.745561 -3.39203 0
M  V30 1575 C 151.424 -1.79337 -3.88616 0
M  V30 1576 C 150.75 -1.28324 -5.19073 0
M  V30 1577 C 152.05 -3.19553 -4.13138 0
M  V30 1578 H 153.744 -2.0438 -2.1879 0
M  V30 1579 H 151.29 -0.984041 -1.05131 0
M  V30 1580 H 153.243 -0.622888 -4.16771 0
M  V30 1581 H 151.967 0.22401 -3.25831 0
M  V30 1582 H 150.626 -1.90477 -3.13231 0
M  V30 1583 H 150.274 -0.303414 -5.02084 0
M  V30 1584 H 149.974 -1.98369 -5.53103 0
M  V30 1585 H 151.498 -1.1733 -5.99221 0
M  V30 1586 H 152.912 -3.11471 -4.81309 0
M  V30 1587 H 151.309 -3.87218 -4.58457 0
M  V30 1588 H 152.379 -3.65368 -3.18801 0
M  V30 1589 N 153.722 1.14298 -1.08507 0
M  V30 1590 C 154.947 1.8976 -0.837001 0
M  V30 1591 C 155.372 1.78097 0.605228 0
M  V30 1592 O 154.73 1.12188 1.4242 0
M  V30 1593 C 154.778 3.37685 -1.26495 0
M  V30 1594 O 153.882 4.10281 -0.417514 0
M  V30 1595 H 153.223 0.590365 -0.303917 0
M  V30 1596 H 155.753 1.44672 -1.44676 0
M  V30 1597 H 155.763 3.88501 -1.24625 0
M  V30 1598 H 154.438 3.45492 -2.31534 0
M  V30 1599 H 153.015 3.69536 -0.499722 0
M  V30 1600 N 155.201 0.870884 1.31352 0
M  V30 1601 C 156.426 0.495957 2.01383 0
M  V30 1602 C 156.851 -0.904324 1.64935 0
M  V30 1603 O 156.209 -1.59687 0.858466 0
M  V30 1604 C 156.257 0.661433 3.54482 0
M  V30 1605 O 155.361 -0.298851 4.11316 0
M  V30 1606 H 154.702 0.197158 0.634054 0
M  V30 1607 H 157.232 1.17455 1.67527 0
M  V30 1608 H 157.242 0.555072 4.04207 0
M  V30 1609 H 155.917 1.68246 3.8035 0
M  V30 1610 H 154.494 -0.147368 3.72609 0
M  V30 1611 N 156.679 -1.44442 0.630414 0
M  V30 1612 C 157.926 -2.02052 0.134617 0
M  V30 1613 C 158.254 -1.49576 -1.24327 0
M  V30 1614 O 157.509 -0.669806 -1.83881 0
M  V30 1615 C 157.808 -3.57332 0.0697835 0
M  V30 1616 C 157.474 -4.29058 1.38635 0
M  V30 1617 C 156.136 -4.4837 1.74694 0
M  V30 1618 C 158.488 -4.69872 2.25543 0
M  V30 1619 C 155.816 -5.05756 2.97369 0
M  V30 1620 C 158.168 -5.28616 3.47487 0
M  V30 1621 C 156.832 -5.46147 3.8377 0
M  V30 1622 H 156.102 -0.739361 0.0492598 0
M  V30 1623 H 158.749 -1.73217 0.816586 0
M  V30 1624 H 157.054 -3.85577 -0.695553 0
M  V30 1625 H 158.751 -3.99637 -0.330344 0
M  V30 1626 H 155.341 -4.14357 1.09574 0
M  V30 1627 H 159.525 -4.54666 1.98979 0
M  V30 1628 H 154.781 -5.17515 3.25558 0
M  V30 1629 H 158.955 -5.59192 4.15063 0
M  V30 1630 H 156.582 -5.9038 4.7891 0
M  V30 1631 N 158.157 -0.370918 -1.53173 0
M  V30 1632 C 159.385 0.217704 -2.05751 0
M  V30 1633 C 159.8 1.42018 -1.24404 0
M  V30 1634 O 159.157 1.80245 -0.286033 0
M  V30 1635 C 159.208 0.605954 -3.56385 0
M  V30 1636 O 158.929 -0.548734 -4.3465 0
M  V30 1637 C 160.43 1.2524 -4.25241 0
M  V30 1638 H 157.65 0.0371659 -0.66997 0
M  V30 1639 H 160.194 -0.530832 -1.9749 0
M  V30 1640 H 158.349 1.3044 -3.6478 0
M  V30 1641 H 158.763 -0.23376 -5.23979 0
M  V30 1642 H 160.237 1.47458 -5.3194 0
M  V30 1643 H 160.714 2.2143 -3.79296 0
M  V30 1644 H 161.32 0.595233 -4.21114 0
M  V30 1645 N 159.635 1.57281 -0.100228 0
M  V30 1646 C 160.875 1.96419 0.56558 0
M  V30 1647 C 161.239 0.981265 1.65031 0
M  V30 1648 O 162.44 1.26133 2.37369 0
M  V30 1649 C 160.711 3.39996 1.10171 0
M  V30 1650 S 162.27 4.01134 1.77867 0
M  V30 1651 H 159.088 0.68667 0.184406 0
M  V30 1652 H 161.69 1.94662 -0.180851 0
M  V30 1653 H 160.394 4.09296 0.300803 0
M  V30 1654 H 159.925 3.45361 1.88385 0
M  V30 1655 H 161.94 3.90358 3.06326 0
M  V30 1656 N 161.113 -0.173488 1.56642 0
M  V30 1657 C 162.338 -0.910149 1.86363 0
M  V30 1658 C 162.763 -1.75132 0.686318 0
M  V30 1659 O 162.121 -1.77595 -0.364643 0
M  V30 1660 C 162.169 -1.76447 3.14482 0
M  V30 1661 O 161.273 -2.86584 2.96553 0
M  V30 1662 H 160.614 -0.255086 0.613047 0
M  V30 1663 H 163.144 -0.172283 2.03873 0
M  V30 1664 H 163.154 -2.16483 3.45831 0
M  V30 1665 H 161.829 -1.14658 3.99783 0
M  V30 1666 H 160.406 -2.50146 2.76553 0
M  V30 1667 N 162.591 -1.51276 -0.441967 0
M  V30 1668 C 163.868 -1.54252 -1.20273 0
M  V30 1669 C 164.248 -0.30408 -2.08898 0
M  V30 1670 O 163.596 0.711084 -2.17154 0
M  V30 1671 C 163.806 -2.85406 -2.00859 0
M  V30 1672 C 165.154 -3.37181 -2.58059 0
M  V30 1673 O 166.178 -2.86925 -2.11074 0
M  V30 1674 O 165.037 -4.24858 -3.43741 0
M  V30 1675 H 162.131 -0.619969 -0.547328 0
M  V30 1676 H 164.677 -1.63586 -0.451413 0
M  V30 1677 H 163.449 -3.67003 -1.35736 0
M  V30 1678 H 163.072 -2.79213 -2.83065 0
M  V30 1679 N 164.069 0.697108 -1.41344 0
M  V30 1680 C 164.979 1.84088 -1.45427 0
M  V30 1681 C 165.995 1.70545 -0.34501 0
M  V30 1682 O 167.171 1.92488 -0.592492 0
M  V30 1683 C 164.236 3.20056 -1.33286 0
M  V30 1684 C 163.297 3.45718 -2.54514 0
M  V30 1685 C 162.53 4.75199 -2.42944 0
M  V30 1686 O 162.753 5.51579 -1.45318 0
M  V30 1687 O 161.687 5.0161 -3.32672 0
M  V30 1688 H 165.513 1.836 -2.41919 0
M  V30 1689 H 163.098 0.849966 -1.22866 0
M  V30 1690 H 164.98 4.01236 -1.28794 0
M  V30 1691 H 163.655 3.2123 -0.39909 0
M  V30 1692 H 162.562 2.64474 -2.64583 0
M  V30 1693 H 163.895 3.49356 -3.46715 0
M  V30 1694 N 165.547 1.27147 0.931209 0
M  V30 1695 C 166.794 1.13278 1.67852 0
M  V30 1696 C 167.122 -0.32204 1.91815 0
M  V30 1697 O 166.377 -1.25224 1.50391 0
M  V30 1698 C 166.676 1.8579 3.05314 0
M  V30 1699 C 166.342 3.35657 3.01073 0
M  V30 1700 C 165.004 3.76536 2.99623 0
M  V30 1701 C 167.356 4.31299 2.92627 0
M  V30 1702 C 164.684 5.11426 2.87506 0
M  V30 1703 C 167.036 5.66242 2.82051 0
M  V30 1704 C 165.7 6.06418 2.7895 0
M  V30 1705 H 164.97 0.414515 0.614214 0
M  V30 1706 H 167.617 1.57712 1.08624 0
M  V30 1707 H 165.922 1.33854 3.68226 0
M  V30 1708 H 167.619 1.72491 3.62005 0
M  V30 1709 H 164.209 3.03146 3.02986 0
M  V30 1710 H 168.393 4.00692 2.92848 0
M  V30 1711 H 163.649 5.41705 2.83489 0
M  V30 1712 H 167.823 6.40026 2.74481 0
M  V30 1713 H 165.45 7.10895 2.69318 0
M  V30 1714 N 167.025 -1.13721 1.09112 0
M  V30 1715 C 168.25 -1.89314 0.847053 0
M  V30 1716 C 168.675 -1.78416 -0.595774 0
M  V30 1717 O 168.033 -1.12942 -1.41823 0
M  V30 1718 C 168.081 -3.3701 1.28284 0
M  V30 1719 O 167.185 -4.10054 0.439267 0
M  V30 1720 H 166.526 -0.588745 0.307044 0
M  V30 1721 H 169.056 -1.43902 1.45442 0
M  V30 1722 H 169.066 -3.87834 1.26683 0
M  V30 1723 H 167.741 -3.4426 2.33363 0
M  V30 1724 H 166.318 -3.69266 0.519312 0
M  V30 1725 N 168.503 -0.877838 -1.30888 0
M  V30 1726 C 169.728 -0.506629 -2.01117 0
M  V30 1727 C 170.153 0.895564 -1.65412 0
M  V30 1728 O 169.511 1.5923 -0.866922 0
M  V30 1729 C 169.559 -0.680223 -3.54126 0
M  V30 1730 O 168.663 0.277033 -4.11468 0
M  V30 1731 H 168.004 -0.200518 -0.633 0
M  V30 1732 H 170.534 -1.18342 -1.66902 0
M  V30 1733 H 170.544 -0.5765 -4.03907 0
M  V30 1734 H 169.219 -1.70261 -3.79452 0
M  V30 1735 H 167.796 0.127606 -3.72682 0
M  V30 1736 N 169.982 1.44106 -0.638065 0
M  V30 1737 C 170.912 2.33448 0.0494287 0
M  V30 1738 C 171.893 1.48606 0.827672 0
M  V30 1739 O 173.078 1.77308 0.792173 0
M  V30 1740 C 170.208 3.31771 1.02691 0
M  V30 1741 C 169.162 4.26485 0.359823 0
M  V30 1742 C 168.488 5.14729 1.44769 0
M  V30 1743 C 169.788 5.17056 -0.738296 0
M  V30 1744 H 171.482 2.91183 -0.696636 0
M  V30 1745 H 169.028 1.40014 -0.336456 0
M  V30 1746 H 170.981 3.93161 1.51666 0
M  V30 1747 H 169.705 2.7226 1.80395 0
M  V30 1748 H 168.364 3.66437 -0.10934 0
M  V30 1749 H 168.012 4.51566 2.21578 0
M  V30 1750 H 167.712 5.78913 1.00668 0
M  V30 1751 H 169.236 5.78991 1.93911 0
M  V30 1752 H 170.65 5.72342 -0.331354 0
M  V30 1753 H 169.047 5.89879 -1.10286 0
M  V30 1754 H 170.117 4.57652 -1.60258 0
M  V30 1755 N 171.46 0.379036 1.52974 0
M  V30 1756 C 172.876 0.0285448 1.59574 0
M  V30 1757 C 173.076 -1.45542 1.39355 0
M  V30 1758 O 172.132 -2.2187 1.20541 0
M  V30 1759 C 173.445 0.496535 2.96572 0
M  V30 1760 C 174.993 0.451909 3.0972 0
M  V30 1761 C 175.468 0.895924 4.49152 0
M  V30 1762 N 176.959 0.851522 4.55306 0
M  V30 1763 C 177.694 1.16661 5.61407 0
M  V30 1764 N 177.19 1.55166 6.752 0
M  V30 1765 N 178.983 1.08853 5.51459 0
M  V30 1766 H 171.134 1.34525 1.64367 0
M  V30 1767 H 173.397 0.550733 0.771619 0
M  V30 1768 H 173.103 1.53258 3.16552 0
M  V30 1769 H 172.977 -0.109802 3.7704 0
M  V30 1770 H 175.364 -0.575029 2.89443 0
M  V30 1771 H 175.445 1.09392 2.3123 0
M  V30 1772 H 175.089 1.92104 4.70168 0
M  V30 1773 H 175.019 0.23103 5.26093 0
M  V30 1774 H 177.51 0.568038 3.73606 0
M  V30 1775 H 177.823 1.776 7.52116 0
M  V30 1776 H 176.168 1.59044 6.76557 0
M  V30 1777 H 179.359 0.786803 4.6144 0
M  V30 1778 H 179.532 1.33742 6.34048 0
M  V30 1779 N 172.938 -1.57226 0.108567 0
M  V30 1780 C 173.868 -2.17778 -0.84232 0
M  V30 1781 C 174.849 -1.11487 -1.2847 0
M  V30 1782 O 176.034 -1.39681 -1.34918 0
M  V30 1783 C 173.164 -2.76888 -2.09644 0
M  V30 1784 C 172.118 -3.88669 -1.79221 0
M  V30 1785 C 171.444 -4.34541 -3.11574 0
M  V30 1786 C 172.744 -5.11251 -1.06864 0
M  V30 1787 H 174.438 -2.97489 -0.337774 0
M  V30 1788 H 171.984 -1.43097 -0.161025 0
M  V30 1789 H 173.937 -3.17904 -2.76614 0
M  V30 1790 H 172.661 -1.94451 -2.62405 0
M  V30 1791 H 171.32 -3.48213 -1.14644 0
M  V30 1792 H 170.968 -3.48977 -3.62249 0
M  V30 1793 H 170.668 -5.09914 -2.91996 0
M  V30 1794 H 172.192 -4.782 -3.7968 0
M  V30 1795 H 173.606 -5.49352 -1.63968 0
M  V30 1796 H 172.003 -5.9214 -0.974178 0
M  V30 1797 H 173.073 -4.8487 -0.0536168 0
M  V30 1798 N 174.416 0.165178 -1.56732 0
M  V30 1799 C 175.366 1.20917 -1.93295 0
M  V30 1800 C 176.35 1.39488 -0.801985 0
M  V30 1801 O 177.542 1.41356 -1.06525 0
M  V30 1802 C 174.671 2.54718 -2.3016 0
M  V30 1803 C 173.757 2.39815 -3.49785 0
M  V30 1804 N 174.148 1.94637 -4.66851 0
M  V30 1805 C 172.446 2.70623 -3.54513 0
M  V30 1806 C 173.147 1.92344 -5.4898 0
M  V30 1807 N 172.123 2.34978 -4.9019 0
M  V30 1808 H 175.925 0.851675 -2.81289 0
M  V30 1809 H 173.439 0.373399 -1.58049 0
M  V30 1810 H 175.436 3.30165 -2.54552 0
M  V30 1811 H 174.096 2.91265 -1.43508 0
M  V30 1812 H 175.107 1.6488 -4.90953 0
M  V30 1813 H 171.784 3.11167 -2.78354 0
M  V30 1814 H 173.174 1.5906 -6.52801 0
M  V30 1815 N 175.894 1.51508 0.433938 0
M  V30 1816 C 176.844 1.69451 1.52546 0
M  V30 1817 C 177.828 0.548474 1.51263 0
M  V30 1818 O 179.02 0.804529 1.57659 0
M  V30 1819 C 176.149 1.82604 2.90707 0
M  V30 1820 C 175.235 3.03002 2.96733 0
M  V30 1821 N 175.626 4.26121 2.72496 0
M  V30 1822 C 173.924 3.02327 3.27894 0
M  V30 1823 C 174.625 5.07407 2.84452 0
M  V30 1824 N 173.601 4.42126 3.16269 0
M  V30 1825 H 177.403 2.62305 1.32564 0
M  V30 1826 H 174.917 1.49202 0.641297 0
M  V30 1827 H 176.914 1.93569 3.69238 0
M  V30 1828 H 175.574 0.909339 3.11707 0
M  V30 1829 H 176.585 4.55009 2.4736 0
M  V30 1830 H 173.262 2.20301 3.54646 0
M  V30 1831 H 174.652 6.15422 2.69639 0
M  V30 1832 N 177.372 -0.689602 1.41712 0
M  V30 1833 C 178.32 -1.82475 1.44242 0
M  V30 1834 C 179.314 -1.66354 0.319774 0
M  V30 1835 O 180.52 -1.73143 0.492089 0
M  V30 1836 H 176.895 -0.601416 0.451445 0
M  V30 1837 H 178.866 -1.77458 2.39899 0
M  V30 1838 C 177.615 -3.20535 1.3473 0
M  V30 1839 H 176.938 -3.33559 2.20405 0
M  V30 1840 H 178.378 -4.00023 1.40562 0
M  V30 1841 C 176.837 -3.36846 0.0603281 0
M  V30 1842 O 177.367 -3.91656 -0.892663 0
M  V30 1843 N 175.573 -2.90595 -0.0177039 0
M  V30 1844 H 175.12 -2.46178 0.758572 0
M  V30 1845 H 175.078 -3.01886 -0.878201 0
M  V30 1846 N 178.85 -1.27639 -0.924453 0
M  V30 1847 C 180.266 -1.05113 -1.20097 0
M  V30 1848 C 180.466 0.213262 -2.00368 0
M  V30 1849 O 179.522 0.91787 -2.35226 0
M  V30 1850 C 180.835 -2.29244 -1.94596 0
M  V30 1851 C 182.383 -2.34315 -2.07522 0
M  V30 1852 C 182.858 -3.58183 -2.85427 0
M  V30 1853 N 184.349 -3.5876 -2.92994 0
M  V30 1854 C 185.084 -4.51277 -3.53746 0
M  V30 1855 N 184.58 -5.54102 -4.15863 0
M  V30 1856 N 186.373 -4.38894 -3.51181 0
M  V30 1857 H 178.524 -2.08821 -0.388264 0
M  V30 1858 H 180.787 -0.918568 -0.234385 0
M  V30 1859 H 180.493 -3.21301 -1.43034 0
M  V30 1860 H 180.367 -2.34816 -2.95197 0
M  V30 1861 H 182.754 -1.42762 -2.58269 0
M  V30 1862 H 182.835 -2.32744 -1.06131 0
M  V30 1863 H 182.479 -4.50074 -2.35363 0
M  V30 1864 H 182.409 -3.57006 -3.8711 0
M  V30 1865 H 184.9 -2.84398 -2.4885 0
M  V30 1866 H 185.213 -6.20859 -4.60168 0
M  V30 1867 H 183.558 -5.57941 -4.144 0
M  V30 1868 H 186.749 -3.57772 -3.01856 0
M  V30 1869 H 186.922 -5.11186 -3.98237 0
M  V30 1870 N 180.328 1.1314 -1.09713 0
M  V30 1871 C 181.291 2.16831 -0.742751 0
M  V30 1872 C 182.291 1.59159 0.229129 0
M  V30 1873 O 183.481 1.74199 0.00693237 0
M  V30 1874 C 180.613 3.40756 -0.0989168 0
M  V30 1875 H 181.806 2.49695 -1.66109 0
M  V30 1876 H 179.359 1.2802 -0.896699 0
M  V30 1877 H 180.094 3.13485 0.830514 0
M  V30 1878 H 179.879 3.83888 -0.798265 0
M  V30 1879 H 181.369 4.17386 0.133524 0
M  V30 1880 N 181.806 0.884767 1.30421 0
M  V30 1881 C 183.055 0.499164 1.95426 0
M  V30 1882 C 183.368 -0.95645 1.70621 0
M  V30 1883 O 184.574 -1.44889 2.29607 0
M  V30 1884 C 183.03 0.84177 3.49917 0
M  V30 1885 C 182.638 2.31514 3.83543 0
M  V30 1886 C 184.382 0.525355 4.21237 0
M  V30 1887 C 182.289 2.59939 5.31212 0
M  V30 1888 H 181.219 0.182944 0.73147 0
M  V30 1889 H 183.87 1.07971 1.48373 0
M  V30 1890 H 182.252 0.190311 3.95542 0
M  V30 1891 H 183.426 3.0109 3.48829 0
M  V30 1892 H 181.741 2.59907 3.25326 0
M  V30 1893 H 184.338 0.714762 5.29901 0
M  V30 1894 H 184.681 -0.535222 4.12845 0
M  V30 1895 H 185.214 1.134 3.81294 0
M  V30 1896 H 181.953 3.64736 5.44654 0
M  V30 1897 H 181.473 1.94972 5.67227 0
M  V30 1898 H 183.152 2.45429 5.98643 0
M  V30 1899 N 183.284 -1.43765 0.645699 0
M  V30 1900 C 184.512 -2.06253 0.163556 0
M  V30 1901 C 184.927 -1.48352 -1.16778 0
M  V30 1902 O 184.284 -0.611932 -1.71935 0
M  V30 1903 C 184.335 -3.61453 0.0583186 0
M  V30 1904 O 184.056 -4.172 1.33702 0
M  V30 1905 C 185.557 -4.41002 -0.450795 0
M  V30 1906 H 182.777 -0.665413 0.0864077 0
M  V30 1907 H 185.321 -1.84396 0.884222 0
M  V30 1908 H 183.476 -3.82522 -0.612865 0
M  V30 1909 H 183.89 -5.10791 1.19131 0
M  V30 1910 H 185.364 -5.49966 -0.473403 0
M  V30 1911 H 185.841 -4.13488 -1.48068 0
M  V30 1912 H 186.447 -4.24886 0.187637 0
M  V30 1913 N 184.763 -0.387143 -1.52771 0
M  V30 1914 C 185.713 0.465942 -2.23188 0
M  V30 1915 C 186.697 1.03138 -1.23496 0
M  V30 1916 O 187.889 0.957845 -1.48843 0
M  V30 1917 C 185.018 1.59384 -3.04059 0
M  V30 1918 C 184.104 1.04024 -4.11144 0
M  V30 1919 N 184.495 0.211416 -5.05358 0
M  V30 1920 C 182.793 1.31295 -4.26237 0
M  V30 1921 C 183.494 -0.0941698 -5.81624 0
M  V30 1922 N 182.47 0.509207 -5.4121 0
M  V30 1923 H 186.272 -0.173856 -2.93385 0
M  V30 1924 H 183.786 -0.19633 -1.61209 0
M  V30 1925 H 185.783 2.21738 -3.53041 0
M  V30 1926 H 184.443 2.23648 -2.35397 0
M  V30 1927 H 185.454 -0.151151 -5.17679 0
M  V30 1928 H 182.131 1.95679 -3.68803 0
M  V30 1929 H 183.521 -0.765572 -6.67524 0
M  V30 1930 N 186.241 1.57166 -0.116904 0
M  V30 1931 C 187.171 2.18222 0.830759 0
M  V30 1932 C 188.152 1.12167 1.27877 0
M  V30 1933 O 189.337 1.40394 1.34176 0
M  V30 1934 C 186.467 2.77996 2.08172 0
M  V30 1935 C 185.421 3.89614 1.77157 0
M  V30 1936 C 184.747 4.36187 3.09265 0
M  V30 1937 C 186.047 5.1181 1.04151 0
M  V30 1938 H 187.741 2.97664 0.321992 0
M  V30 1939 H 185.287 1.4318 0.153434 0
M  V30 1940 H 187.24 3.19366 2.74924 0
M  V30 1941 H 185.964 1.9584 2.6137 0
M  V30 1942 H 184.623 3.48816 1.12796 0
M  V30 1943 H 184.271 3.50893 3.60393 0
M  V30 1944 H 183.971 5.11455 2.89288 0
M  V30 1945 H 185.495 4.80207 3.77139 0
M  V30 1946 H 186.909 5.50214 1.61052 0
M  V30 1947 H 185.306 5.92648 0.942762 0
M  V30 1948 H 186.376 4.84892 0.0279022 0
M  V30 1949 N 187.719 -0.156864 1.56817 0
M  V30 1950 C 188.652 -1.22316 1.9265 0
M  V30 1951 C 189.63 -1.42059 0.791076 0
M  V30 1952 O 190.814 -1.56831 1.04576 0
M  V30 1953 C 187.941 -2.58375 2.18998 0
M  V30 1954 C 186.987 -2.55284 3.41661 0
M  V30 1955 S 187.82 -2.02946 4.95553 0
M  V30 1956 C 188.976 -3.40753 5.25013 0
M  V30 1957 H 189.209 -0.917403 2.82791 0
M  V30 1958 H 186.742 -0.362059 1.50095 0
M  V30 1959 H 188.7 -3.36677 2.34859 0
M  V30 1960 H 187.361 -2.86145 1.29538 0
M  V30 1961 H 186.554 -3.55418 3.57343 0
M  V30 1962 H 186.156 -1.85086 3.24991 0
M  V30 1963 H 188.448 -4.36819 5.17876 0
M  V30 1964 H 189.391 -3.29933 6.26538 0
M  V30 1965 H 189.799 -3.37433 4.52548 0
M  V30 1966 N 189.197 -1.51736 -0.425897 0
M  V30 1967 C 190.613 -1.40166 -0.76326 0
M  V30 1968 C 190.813 -0.492962 -1.95377 0
M  V30 1969 O 189.869 0.0475815 -2.52455 0
M  V30 1970 C 191.182 -2.82403 -1.03291 0
M  V30 1971 C 192.73 -2.91632 -1.13665 0
M  V30 1972 C 193.205 -4.34801 -1.43916 0
M  V30 1973 N 194.696 -4.3796 -1.50816 0
M  V30 1974 C 195.431 -5.4578 -1.75817 0
M  V30 1975 N 194.927 -6.63744 -1.98534 0
M  V30 1976 N 196.72 -5.33274 -1.77694 0
M  V30 1977 H 188.871 -2.09361 0.358 0
M  V30 1978 H 191.134 -0.942941 0.0978094 0
M  V30 1979 H 190.84 -3.50943 -0.230696 0
M  V30 1980 H 190.714 -3.22428 -1.95754 0
M  V30 1981 H 193.101 -2.23284 -1.92947 0
M  V30 1982 H 193.182 -2.55088 -0.190756 0
M  V30 1983 H 192.826 -5.03703 -0.65157 0
M  V30 1984 H 192.756 -4.68868 -2.39729 0
M  V30 1985 H 195.247 -3.52919 -1.35118 0
M  V30 1986 H 195.56 -7.41704 -2.17013 0
M  V30 1987 H 193.905 -6.66839 -1.95832 0
M  V30 1988 H 197.096 -4.40098 -1.59473 0
M  V30 1989 H 197.269 -6.1738 -1.9684 0
M  V30 1990 N 190.675 0.682077 -1.42076 0
M  V30 1991 C 191.9 1.47558 -1.45744 0
M  V30 1992 C 192.325 1.87977 -0.0680981 0
M  V30 1993 O 191.683 1.55522 0.9318 0
M  V30 1994 C 191.731 2.70575 -2.38373 0
M  V30 1995 O 190.835 3.68573 -1.85007 0
M  V30 1996 H 190.176 0.443585 -0.494093 0
M  V30 1997 H 192.706 0.837238 -1.86686 0
M  V30 1998 H 192.716 3.18729 -2.54707 0
M  V30 1999 H 191.391 2.40495 -3.39315 0
M  V30 2000 H 189.968 3.2757 -1.78192 0
M  V30 2001 N 192.153 1.28127 0.917671 0
M  V30 2002 C 193.116 1.11744 2.00115 0
M  V30 2003 C 194.116 0.0583052 1.60694 0
M  V30 2004 O 195.306 0.303755 1.71531 0
M  V30 2005 C 192.438 0.704862 3.33533 0
M  V30 2006 H 193.631 2.07966 2.16079 0
M  V30 2007 H 191.184 1.11058 1.09981 0
M  V30 2008 H 191.919 -0.258299 3.2327 0
M  V30 2009 H 191.704 1.4699 3.63505 0
M  V30 2010 H 193.194 0.612768 4.1308 0
M  V30 2011 N 193.631 -1.12557 1.10312 0
M  V30 2012 C 194.578 -2.18247 0.750781 0
M  V30 2013 C 195.548 -1.63853 -0.272293 0
M  V30 2014 O 196.733 -1.90195 -0.151862 0
M  V30 2015 C 193.873 -3.44591 0.187379 0
M  V30 2016 C 192.986 -4.13046 1.2656 0
M  V30 2017 C 192.121 -5.27034 0.663978 0
M  V30 2018 C 191.16 -5.87353 1.72287 0
M  V30 2019 N 190.297 -6.92757 1.1416 0
M  V30 2020 H 195.137 -2.47732 1.65628 0
M  V30 2021 H 192.674 -1.21629 0.827337 0
M  V30 2022 H 194.632 -4.16904 -0.157148 0
M  V30 2023 H 193.262 -3.15527 -0.681355 0
M  V30 2024 H 192.314 -3.38924 1.72727 0
M  V30 2025 H 193.626 -4.53947 2.06721 0
M  V30 2026 H 192.78 -6.06104 0.268824 0
M  V30 2027 H 191.519 -4.87407 -0.169082 0
M  V30 2028 H 190.524 -5.06971 2.12746 0
M  V30 2029 H 191.749 -6.29051 2.55875 0
M  V30 2030 H 189.695 -6.5517 0.329984 0
M  V30 2031 H 189.612 -7.3225 1.88007 0
M  V30 2032 H 190.88 -7.75658 0.772956 0
M  V30 2033 N 195.109 -0.891671 -1.2995 0
M  V30 2034 C 196.019 -0.367691 -2.31701 0
M  V30 2035 C 197.035 0.533486 -1.6562 0
M  V30 2036 O 198.211 0.424997 -1.96865 0
M  V30 2037 C 195.276 0.403406 -3.44345 0
M  V30 2038 C 194.337 -0.528328 -4.26037 0
M  V30 2039 C 193.57 0.206063 -5.33302 0
M  V30 2040 O 193.793 1.43119 -5.52153 0
M  V30 2041 O 192.727 -0.447281 -6.00236 0
M  V30 2042 H 196.553 -1.21163 -2.78484 0
M  V30 2043 H 194.138 -0.655725 -1.34241 0
M  V30 2044 H 196.02 0.839753 -4.12948 0
M  V30 2045 H 194.695 1.22354 -2.99685 0
M  V30 2046 H 193.602 -1.01362 -3.60106 0
M  V30 2047 H 194.935 -1.31465 -4.74318 0
M  V30 2048 N 196.587 1.43421 -0.653314 0
M  V30 2049 C 198.003 1.56341 -0.320886 0
M  V30 2050 C 198.203 1.63696 1.17499 0
M  V30 2051 O 197.259 1.59208 1.95982 0
M  V30 2052 C 198.572 2.82424 -1.03233 0
M  V30 2053 C 200.12 2.96168 -1.01259 0
M  V30 2054 C 200.595 4.25084 -1.70492 0
M  V30 2055 N 202.086 4.31948 -1.67257 0
M  V30 2056 C 202.821 5.30466 -2.17701 0
M  V30 2057 N 202.317 6.35261 -2.76434 0
M  V30 2058 N 204.11 5.2212 -2.082 0
M  V30 2059 H 196.261 1.3689 -1.62403 0
M  V30 2060 H 198.524 0.657455 -0.682977 0
M  V30 2061 H 198.23 2.83053 -2.08744 0
M  V30 2062 H 198.104 3.72653 -0.583948 0
M  V30 2063 H 200.491 2.9508 0.0341235 0
M  V30 2064 H 200.572 2.07229 -1.49966 0
M  V30 2065 H 200.216 4.26932 -2.7512 0
M  V30 2066 H 200.146 5.1292 -1.19251 0
M  V30 2067 H 202.637 3.56838 -1.24398 0
M  V30 2068 H 202.95 7.06754 -3.12601 0
M  V30 2069 H 201.295 6.35884 -2.80495 0
M  V30 2070 H 204.486 4.39166 -1.62021 0
M  V30 2071 H 204.659 5.98739 -2.47822 0
M  V30 2072 N 198.065 0.39524 1.52563 0
M  V30 2073 C 199.311 -0.185318 2.01952 0
M  V30 2074 C 199.644 -1.45964 1.28095 0
M  V30 2075 O 198.919 -1.90689 0.38315 0
M  V30 2076 C 199.202 -0.447193 3.57312 0
M  V30 2077 C 199.055 0.842828 4.41833 0
M  V30 2078 C 200.374 -1.23529 4.22408 0
M  V30 2079 H 197.493 -0.0658788 0.73405 0
M  V30 2080 H 200.135 0.525975 1.82575 0
M  V30 2081 H 198.285 -1.05312 3.73954 0
M  V30 2082 H 199.957 1.4795 4.36931 0
M  V30 2083 H 198.2 1.45686 4.08605 0
M  V30 2084 H 198.871 0.614165 5.48573 0
M  V30 2085 H 201.347 -0.722445 4.0978 0
M  V30 2086 H 200.223 -1.38727 5.3108 0
M  V30 2087 H 200.484 -2.25213 3.80436 0
M  V30 2088 N 199.544 -1.57102 0.125237 0
M  V30 2089 C 200.96 -1.57915 -0.231322 0
M  V30 2090 C 201.16 -1.13833 -1.66266 0
M  V30 2091 O 200.216 -0.828581 -2.38518 0
M  V30 2092 C 201.529 -3.00699 0.00766489 0
M  V30 2093 C 203.077 -3.12947 -0.0577483 0
M  V30 2094 C 203.552 -4.57742 0.153626 0
M  V30 2095 N 205.043 -4.63092 0.0998073 0
M  V30 2096 C 205.778 -5.72905 0.238174 0
M  V30 2097 N 205.274 -6.91445 0.433057 0
M  V30 2098 N 207.067 -5.6182 0.177308 0
M  V30 2099 H 199.218 -1.84055 1.06007 0
M  V30 2100 H 201.481 -0.850905 0.417929 0
M  V30 2101 H 201.187 -3.3726 0.997431 0
M  V30 2102 H 201.061 -3.70236 -0.721452 0
M  V30 2103 H 203.448 -2.7624 -1.03804 0
M  V30 2104 H 203.529 -2.4594 0.70335 0
M  V30 2105 H 203.173 -4.95149 1.13092 0
M  V30 2106 H 203.103 -5.22848 -0.627534 0
M  V30 2107 H 205.594 -3.77871 -0.047051 0
M  V30 2108 H 205.907 -7.70985 0.529332 0
M  V30 2109 H 204.252 -6.93415 0.469109 0
M  V30 2110 H 207.443 -4.68093 0.0259748 0
M  V30 2111 H 207.616 -6.47357 0.288582 0
M  V30 2112 N 201.022 0.148545 -1.56898 0
M  V30 2113 C 201.954 1.20852 -1.9475 0
M  V30 2114 C 202.967 1.39265 -0.843152 0
M  V30 2115 O 204.156 1.38864 -1.12156 0
M  V30 2116 C 201.256 2.57362 -2.20495 0
M  V30 2117 C 200.429 2.59947 -3.51776 0
M  V30 2118 C 199.488 3.77984 -3.6608 0
M  V30 2119 O 198.514 3.62929 -4.38487 0
M  V30 2120 N 199.716 4.95375 -3.02629 0
M  V30 2121 H 202.481 0.886804 -2.86279 0
M  V30 2122 H 200.042 0.338121 -1.5833 0
M  V30 2123 H 202.034 3.34833 -2.27307 0
M  V30 2124 H 200.604 2.81832 -1.35238 0
M  V30 2125 H 199.824 1.68403 -3.56419 0
M  V30 2126 H 201.112 2.58704 -4.38121 0
M  V30 2127 H 200.51 5.10509 -2.43715 0
M  V30 2128 H 199.067 5.70627 -3.15004 0
M  V30 2129 N 202.5 1.5196 0.417844 0
M  V30 2130 C 203.777 1.56146 1.17803 0
M  V30 2131 C 204.157 0.337275 2.08388 0
M  V30 2132 O 203.505 -0.676447 2.18258 0
M  V30 2133 C 203.715 2.88566 1.96293 0
M  V30 2134 C 205.063 3.41244 2.52662 0
M  V30 2135 O 206.087 2.90247 2.06483 0
M  V30 2136 O 204.946 4.30273 3.36938 0
M  V30 2137 H 202.04 0.628598 0.537395 0
M  V30 2138 H 204.586 1.64283 0.425331 0
M  V30 2139 H 203.358 3.69116 1.2988 0
M  V30 2140 H 202.981 2.83681 2.78587 0
M  V30 2141 N 203.978 -0.674533 1.42435 0
M  V30 2142 C 205.389 -1.25514 1.38214 0
M  V30 2143 C 205.74 -1.96055 0.0755464 0
M  V30 2144 O 204.865 -2.00028 -0.8257 0
M  V30 2145 C 205.46 -2.28269 2.50357 0
M  V30 2146 C 204.019 -2.81856 2.49467 0
M  V30 2147 C 203.166 -1.56182 2.29134 0
M  V30 2148 H 206.117 -0.467902 1.51646 0
M  V30 2149 H 206.138 -3.10009 2.20624 0
M  V30 2150 H 205.65 -1.769 3.45439 0
M  V30 2151 H 203.751 -3.37346 1.58204 0
M  V30 2152 H 203.864 -3.30854 3.46515 0
M  V30 2153 H 202.228 -1.82761 1.774 0
M  V30 2154 H 203.011 -1.06778 3.26272 0
M  V30 2155 N 205.456 -1.28612 -0.910864 0
M  V30 2156 C 206.696 -1.1719 -1.67469 0
M  V30 2157 C 207.06 0.274441 -1.90028 0
M  V30 2158 O 208.261 0.511425 -2.6389 0
M  V30 2159 C 206.532 -1.95137 -2.99427 0
M  V30 2160 S 208.091 -2.00122 -3.90508 0
M  V30 2161 H 204.909 -0.41806 -0.575106 0
M  V30 2162 H 207.511 -1.6275 -1.08317 0
M  V30 2163 H 206.215 -2.99381 -2.80712 0
M  V30 2164 H 205.746 -1.50137 -3.63624 0
M  V30 2165 H 207.761 -1.10981 -4.8363 0
M  V30 2166 N 206.934 1.1197 -1.10907 0
M  V30 2167 C 207.844 2.21433 -0.774896 0
M  V30 2168 C 208.86 1.72478 0.229657 0
M  V30 2169 O 210.036 2.01288 0.0672008 0
M  V30 2170 C 207.101 3.4602 -0.216986 0
M  V30 2171 C 206.162 4.09791 -1.27944 0
M  V30 2172 C 205.395 5.28431 -0.748055 0
M  V30 2173 O 205.618 5.68823 0.423833 0
M  V30 2174 O 204.552 5.82644 -1.51027 0
M  V30 2175 H 208.378 2.5242 -1.68873 0
M  V30 2176 H 205.963 1.20399 -0.884555 0
M  V30 2177 H 207.845 4.21304 0.090059 0
M  V30 2178 H 206.52 3.16698 0.669633 0
M  V30 2179 H 205.427 3.36265 -1.63941 0
M  V30 2180 H 206.76 4.4328 -2.13925 0
M  V30 2181 N 208.412 0.89855 1.29475 0
M  V30 2182 C 209.689 0.443416 1.90508 0
M  V30 2183 C 210.069 -1.07685 1.81569 0
M  V30 2184 O 209.417 -1.9182 1.24166 0
M  V30 2185 C 209.627 0.956708 3.35631 0
M  V30 2186 C 210.975 0.999728 4.12663 0
M  V30 2187 O 211.999 0.904299 3.4453 0
M  V30 2188 O 210.858 1.14289 5.34416 0
M  V30 2189 H 207.952 0.138025 0.815401 0
M  V30 2190 H 210.498 0.98834 1.37949 0
M  V30 2191 H 209.27 2.00067 3.36287 0
M  V30 2192 H 208.893 0.391728 3.95666 0
M  V30 2193 N 209.89 -1.43072 0.660911 0
M  V30 2194 C 211.139 -2.00942 0.174735 0
M  V30 2195 C 211.452 -1.52797 -1.22117 0
M  V30 2196 O 212.658 -2.02991 -1.80297 0
M  V30 2197 C 211.114 -3.58948 0.261559 0
M  V30 2198 C 210.722 -4.16085 1.66064 0
M  V30 2199 C 212.466 -4.24173 -0.166617 0
M  V30 2200 C 210.373 -5.6641 1.70098 0
M  V30 2201 H 209.303 -0.751483 0.0615631 0
M  V30 2202 H 211.954 -1.63955 0.824069 0
M  V30 2203 H 210.336 -3.93372 -0.455421 0
M  V30 2204 H 211.51 -3.93147 2.40359 0
M  V30 2205 H 209.825 -3.6326 2.03546 0
M  V30 2206 H 212.422 -5.34471 -0.156433 0
M  V30 2207 H 212.765 -3.98647 -1.19943 0
M  V30 2208 H 213.298 -3.94659 0.498875 0
M  V30 2209 H 210.037 -5.96715 2.71315 0
M  V30 2210 H 209.557 -5.91382 1.00139 0
M  V30 2211 H 211.236 -6.30585 1.44816 0
M  V30 2212 N 211.368 -0.403325 -1.52352 0
M  V30 2213 C 212.593 0.176499 -2.06648 0
M  V30 2214 C 213.018 1.38577 -1.27193 0
M  V30 2215 O 212.376 1.7879 -0.300637 0
M  V30 2216 C 212.424 0.511061 -3.5696 0
M  V30 2217 O 211.528 1.60294 -3.79973 0
M  V30 2218 H 210.869 0.0167337 -0.663789 0
M  V30 2219 H 213.399 -0.574848 -1.96359 0
M  V30 2220 H 213.409 0.771362 -4.00642 0
M  V30 2221 H 212.084 -0.37296 -4.14224 0
M  V30 2222 H 210.661 1.33526 -3.48174 0
M  V30 2223 N 212.846 1.57033 -0.133567 0
M  V30 2224 C 214.262 1.58035 0.222944 0
M  V30 2225 C 214.462 1.14713 1.6566 0
M  V30 2226 O 213.518 0.841218 2.38075 0
M  V30 2227 C 214.831 3.00691 -0.0236116 0
M  V30 2228 C 216.379 3.12973 0.0411512 0
M  V30 2229 C 216.854 4.57654 -0.177899 0
M  V30 2230 N 218.345 4.63033 -0.124365 0
M  V30 2231 C 219.08 5.72771 -0.268553 0
M  V30 2232 N 218.576 6.91206 -0.46972 0
M  V30 2233 N 220.369 5.61718 -0.2071 0
M  V30 2234 H 212.52 1.8349 -1.06981 0
M  V30 2235 H 214.783 0.848677 -0.422436 0
M  V30 2236 H 214.489 3.36726 -1.0153 0
M  V30 2237 H 214.363 3.70614 0.701808 0
M  V30 2238 H 216.75 2.76787 1.02338 0
M  V30 2239 H 216.831 2.45564 -0.716383 0
M  V30 2240 H 216.475 4.94542 -1.15717 0
M  V30 2241 H 216.405 5.23173 0.599797 0
M  V30 2242 H 218.896 3.7789 0.027011 0
M  V30 2243 H 219.209 7.70693 -0.570212 0
M  V30 2244 H 217.554 6.93156 -0.505876 0
M  V30 2245 H 220.745 4.68072 -0.0507986 0
M  V30 2246 H 220.918 6.47195 -0.322909 0
M  V30 2247 N 214.325 -0.140222 1.56975 0
M  V30 2248 C 215.574 -0.850152 1.82908 0
M  V30 2249 C 215.887 -1.82028 0.715892 0
M  V30 2250 O 217.093 -2.57485 0.861016 0
M  V30 2251 C 215.549 -1.5625 3.24213 0
M  V30 2252 C 215.157 -0.63443 4.43485 0
M  V30 2253 C 216.901 -2.25881 3.59413 0
M  V30 2254 C 214.808 -1.34879 5.75814 0
M  V30 2255 H 213.738 -0.321221 0.682153 0
M  V30 2256 H 216.389 -0.102874 1.83211 0
M  V30 2257 H 214.771 -2.35565 3.18316 0
M  V30 2258 H 215.945 0.12398 4.60633 0
M  V30 2259 H 214.26 -0.0461836 4.16374 0
M  V30 2260 H 216.857 -2.79978 4.5554 0
M  V30 2261 H 217.2 -3.02693 2.85802 0
M  V30 2262 H 217.733 -1.53477 3.67001 0
M  V30 2263 H 214.472 -0.622385 6.52539 0
M  V30 2264 H 213.992 -2.07974 5.6259 0
M  V30 2265 H 215.671 -1.88784 6.18845 0
M  V30 2266 N 215.803 -1.52179 -0.40978 0
M  V30 2267 C 216.735 -1.71703 -1.51825 0
M  V30 2268 C 217.748 -0.597445 -1.51441 0
M  V30 2269 O 218.937 -0.872582 -1.55719 0
M  V30 2270 C 216.037 -1.74171 -2.90719 0
M  V30 2271 C 215.21 -3.03156 -3.15302 0
M  V30 2272 C 214.269 -2.97445 -4.34065 0
M  V30 2273 O 213.295 -3.71352 -4.31377 0
M  V30 2274 N 214.497 -2.15191 -5.39141 0
M  V30 2275 H 217.262 -2.67334 -1.35472 0
M  V30 2276 H 214.823 -1.50409 -0.599069 0
M  V30 2277 H 216.815 -1.67884 -3.68235 0
M  V30 2278 H 215.385 -0.860166 -3.00533 0
M  V30 2279 H 214.605 -3.23097 -2.25836 0
M  V30 2280 H 215.893 -3.88484 -3.28569 0
M  V30 2281 H 215.291 -1.54573 -5.44173 0
M  V30 2282 H 213.848 -2.1476 -6.15403 0
M  V30 2283 N 217.281 0.66697 -1.42791 0
M  V30 2284 C 218.228 1.7803 -1.4688 0
M  V30 2285 C 219.198 1.6299 -0.319919 0
M  V30 2286 O 220.383 1.83432 -0.525118 0
M  V30 2287 C 217.523 3.1611 -1.38451 0
M  V30 2288 C 216.636 3.42381 -2.63437 0
M  V30 2289 C 215.771 4.70232 -2.47094 0
M  V30 2290 C 214.81 4.89564 -3.67415 0
M  V30 2291 N 213.947 6.08661 -3.49966 0
M  V30 2292 H 218.787 1.7387 -2.42019 0
M  V30 2293 H 216.324 0.84868 -1.20149 0
M  V30 2294 H 218.282 3.95914 -1.31561 0
M  V30 2295 H 216.912 3.19374 -0.469033 0
M  V30 2296 H 215.964 2.56774 -2.80662 0
M  V30 2297 H 217.276 3.52557 -3.52853 0
M  V30 2298 H 216.43 5.5814 -2.37834 0
M  V30 2299 H 215.169 4.62353 -1.5518 0
M  V30 2300 H 214.174 4.00096 -3.77099 0
M  V30 2301 H 215.399 4.99282 -4.6032 0
M  V30 2302 H 213.345 6.0194 -2.60776 0
M  V30 2303 H 213.262 6.19733 -4.32975 0
M  V30 2304 H 214.53 6.99226 -3.44532 0
M  V30 2305 N 218.759 1.29093 0.90403 0
M  V30 2306 C 220.008 1.16187 1.64874 0
M  V30 2307 C 220.321 -0.286742 1.93487 0
M  V30 2308 O 221.527 -0.537062 2.66135 0
M  V30 2309 C 219.983 2.03177 2.97064 0
M  V30 2310 C 219.591 3.52836 2.76062 0
M  V30 2311 C 221.335 1.98984 3.74974 0
M  V30 2312 C 219.242 4.31945 4.03952 0
M  V30 2313 H 218.172 0.431246 0.618501 0
M  V30 2314 H 220.823 1.53699 1.00243 0
M  V30 2315 H 219.205 1.5853 3.62883 0
M  V30 2316 H 220.379 4.05507 2.18863 0
M  V30 2317 H 218.694 3.58656 2.11553 0
M  V30 2318 H 221.291 2.55351 4.69787 0
M  V30 2319 H 221.634 0.968815 4.0487 0
M  V30 2320 H 222.167 2.41652 3.15989 0
M  V30 2321 H 218.906 5.34667 3.79225 0
M  V30 2322 H 218.426 3.84045 4.60727 0
M  V30 2323 H 220.105 4.42379 4.72133 0
M  V30 2324 N 220.237 -1.11381 1.11499 0
M  V30 2325 C 221.653 -1.35143 0.849031 0
M  V30 2326 C 221.853 -1.94515 -0.525938 0
M  V30 2327 O 220.909 -2.1785 -1.27662 0
M  V30 2328 C 222.222 -2.28249 1.95762 0
M  V30 2329 C 223.77 -2.41812 1.98736 0
M  V30 2330 C 224.245 -3.3824 3.088 0
M  V30 2331 N 225.736 -3.45803 3.08179 0
M  V30 2332 C 226.471 -4.20358 3.89982 0
M  V30 2333 N 225.967 -4.97884 4.8175 0
M  V30 2334 N 227.76 -4.15877 3.78157 0
M  V30 2335 H 219.911 -0.712062 2.00109 0
M  V30 2336 H 222.174 -0.376025 0.870235 0
M  V30 2337 H 221.88 -1.91817 2.94787 0
M  V30 2338 H 221.754 -3.28473 1.85433 0
M  V30 2339 H 224.141 -2.77518 1.00338 0
M  V30 2340 H 224.222 -1.41437 2.13141 0
M  V30 2341 H 223.866 -3.03261 4.07425 0
M  V30 2342 H 223.796 -4.38471 2.91635 0
M  V30 2343 H 226.287 -2.90506 2.41691 0
M  V30 2344 H 226.6 -5.52142 5.40702 0
M  V30 2345 H 224.945 -4.97043 4.85771 0
M  V30 2346 H 228.136 -3.544 3.05808 0
M  V30 2347 H 228.309 -4.73723 4.42143 0
M  V30 2348 N 221.715 -0.905404 -1.28997 0
M  V30 2349 C 222.94 -0.549175 -1.99997 0
M  V30 2350 C 223.365 0.860276 -1.67275 0
M  V30 2351 O 222.723 1.57355 -0.900502 0
M  V30 2352 C 222.771 -0.755185 -3.52604 0
M  V30 2353 O 221.875 0.189692 -4.11964 0
M  V30 2354 H 221.216 -0.213899 -0.628604 0
M  V30 2355 H 223.746 -1.21856 -1.64354 0
M  V30 2356 H 223.756 -0.662045 -4.02593 0
M  V30 2357 H 222.431 -1.78271 -3.75755 0
M  V30 2358 H 221.008 0.0485257 -3.72868 0
M  V30 2359 N 223.193 1.4272 -0.668489 0
M  V30 2360 C 224.609 1.55992 -0.33745 0
M  V30 2361 C 224.809 1.64933 1.15756 0
M  V30 2362 O 223.865 1.61278 1.94282 0
M  V30 2363 C 225.178 2.81314 -1.06222 0
M  V30 2364 C 226.726 2.95078 -1.04394 0
M  V30 2365 C 227.201 4.23252 -1.74991 0
M  V30 2366 N 228.692 4.3015 -1.71829 0
M  V30 2367 C 229.427 5.28127 -2.23315 0
M  V30 2368 N 228.923 6.32293 -2.83156 0
M  V30 2369 N 230.716 5.19882 -2.13726 0
M  V30 2370 H 222.867 1.3516 -1.63846 0
M  V30 2371 H 225.13 0.650174 -0.689912 0
M  V30 2372 H 224.836 2.80823 -2.11734 0
M  V30 2373 H 224.71 3.72012 -0.62344 0
M  V30 2374 H 227.097 2.951 0.0028244 0
M  V30 2375 H 227.178 2.05627 -1.52155 0
M  V30 2376 H 226.822 4.2399 -2.79633 0
M  V30 2377 H 226.752 5.11626 -1.24685 0
M  V30 2378 H 229.243 3.55499 -1.28175 0
M  V30 2379 H 229.556 7.03398 -3.20079 0
M  V30 2380 H 227.901 6.32873 -2.87223 0
M  V30 2381 H 231.092 4.37423 -1.66669 0
M  V30 2382 H 231.265 5.96077 -2.54158 0
M  V30 2383 N 224.671 0.411399 1.52136 0
M  V30 2384 C 225.581 -0.419774 2.30814 0
M  V30 2385 C 226.597 -1.0515 1.38634 0
M  V30 2386 O 227.773 -1.05252 1.71709 0
M  V30 2387 C 224.838 -1.52019 3.11594 0
M  V30 2388 C 223.899 -0.91129 4.19516 0
M  V30 2389 C 223.132 -1.95927 4.96436 0
M  V30 2390 O 223.355 -3.17775 4.73683 0
M  V30 2391 O 222.289 -1.56423 5.81219 0
M  V30 2392 H 226.115 0.221805 3.02889 0
M  V30 2393 H 223.7 0.174547 1.48377 0
M  V30 2394 H 225.582 -2.15898 3.61892 0
M  V30 2395 H 224.257 -2.14633 2.42311 0
M  V30 2396 H 223.164 -0.235157 3.7336 0
M  V30 2397 H 224.497 -0.32904 4.91099 0
M  V30 2398 N 226.149 -1.5696 0.141893 0
M  V30 2399 C 227.395 -1.9625 -0.511248 0
M  V30 2400 C 227.728 -1.02654 -1.64851 0
M  V30 2401 O 227.003 -0.0679676 -1.94381 0
M  V30 2402 C 227.286 -3.45285 -1.02227 0
M  V30 2403 C 227.139 -4.49658 0.113138 0
M  V30 2404 C 228.458 -3.96698 -1.90574 0
M  V30 2405 H 225.577 -0.713567 -0.184367 0
M  V30 2406 H 228.219 -1.88698 0.222087 0
M  V30 2407 H 226.369 -3.51852 -1.64719 0
M  V30 2408 H 228.041 -4.55174 0.749302 0
M  V30 2409 H 226.284 -4.26857 0.773026 0
M  V30 2410 H 226.955 -5.51258 -0.286053 0
M  V30 2411 H 229.431 -3.92578 -1.37918 0
M  V30 2412 H 228.307 -5.01453 -2.2324 0
M  V30 2413 H 228.568 -3.3875 -2.84079 0
M  V30 2414 N 227.627 0.131896 -1.57047 0
M  V30 2415 C 228.59 1.14638 -1.98471 0
M  V30 2416 C 229.59 1.35029 -0.873148 0
M  V30 2417 O 230.78 1.31764 -1.13946 0
M  V30 2418 C 227.912 2.50358 -2.31373 0
M  V30 2419 H 229.105 0.79064 -2.8929 0
M  V30 2420 H 226.658 0.375761 -1.51716 0
M  V30 2421 H 227.393 2.90876 -1.43393 0
M  V30 2422 H 227.178 2.36915 -3.12432 0
M  V30 2423 H 228.668 3.23395 -2.64207 0
M  V30 2424 N 229.106 1.52395 0.401703 0
M  V30 2425 C 230.036 1.79231 1.49661 0
M  V30 2426 C 231.017 0.643654 1.57452 0
M  V30 2427 O 232.202 0.889989 1.72606 0
M  V30 2428 C 229.332 1.94971 2.87409 0
M  V30 2429 C 228.286 3.10604 2.94465 0
M  V30 2430 C 227.612 3.11577 4.34538 0
M  V30 2431 C 228.912 4.49921 2.6527 0
M  V30 2432 H 230.606 2.70917 1.27454 0
M  V30 2433 H 228.152 1.30362 0.6117 0
M  V30 2434 H 230.105 2.12328 3.63999 0
M  V30 2435 H 228.829 0.999632 3.10926 0
M  V30 2436 H 227.488 2.93009 2.20321 0
M  V30 2437 H 227.136 2.14277 4.55076 0
M  V30 2438 H 226.836 3.89247 4.40183 0
M  V30 2439 H 228.36 3.31073 5.13053 0
M  V30 2440 H 229.774 4.67683 3.31581 0
M  V30 2441 H 228.171 5.29564 2.82281 0
M  V30 2442 H 229.241 4.57507 1.60671 0
M  V30 2443 N 230.584 -0.659388 1.43143 0
M  V30 2444 C 231.494 -1.80167 1.50256 0
M  V30 2445 C 232.51 -1.69571 0.390106 0
M  V30 2446 O 233.686 -1.90849 0.643319 0
M  V30 2447 C 230.751 -3.16409 1.41725 0
M  V30 2448 C 229.812 -3.38848 2.63591 0
M  V30 2449 C 229.045 -4.68591 2.55458 0
M  V30 2450 O 229.268 -5.47532 1.59891 0
M  V30 2451 O 228.202 -4.92614 3.45854 0
M  V30 2452 H 232.028 -1.77121 2.46702 0
M  V30 2453 H 229.613 -0.817092 1.25076 0
M  V30 2454 H 231.495 -3.9768 1.39387 0
M  V30 2455 H 230.17 -3.20059 0.484118 0
M  V30 2456 H 229.077 -2.57366 2.71502 0
M  V30 2457 H 230.41 -3.4004 3.55856 0
M  V30 2458 N 232.062 -1.29571 -0.897171 0
M  V30 2459 C 233.025 -1.14913 -1.98312 0
M  V30 2460 C 234.025 -0.0838629 -1.60581 0
M  V30 2461 O 235.215 -0.331006 -1.71026 0
M  V30 2462 C 232.347 -0.757835 -3.3237 0
M  V30 2463 H 233.54 -2.11377 -2.12743 0
M  V30 2464 H 231.093 -1.12793 -1.08201 0
M  V30 2465 H 231.828 0.206837 -3.2364 0
M  V30 2466 H 231.613 -1.52755 -3.61121 0
M  V30 2467 H 233.103 -0.678408 -4.12053 0
M  V30 2468 N 233.54 1.10788 -1.12088 0
M  V30 2469 C 234.472 2.16816 -0.743213 0
M  V30 2470 C 235.485 1.6119 0.228412 0
M  V30 2471 O 236.674 1.78497 0.0102931 0
M  V30 2472 C 233.774 3.38809 -0.0787313 0
M  V30 2473 C 232.947 4.23885 -1.0789 0
M  V30 2474 C 232.006 5.24334 -0.442713 0
M  V30 2475 O 231.032 5.58497 -1.09864 0
M  V30 2476 N 232.234 5.75079 0.791457 0
M  V30 2477 H 234.999 2.49825 -1.65552 0
M  V30 2478 H 232.56 1.26373 -1.012 0
M  V30 2479 H 234.552 4.03107 0.358766 0
M  V30 2480 H 233.122 3.03805 0.736275 0
M  V30 2481 H 232.342 3.55939 -1.69414 0
M  V30 2482 H 233.63 4.77562 -1.75533 0
M  V30 2483 H 233.028 5.49517 1.3434 0
M  V30 2484 H 231.585 6.4118 1.17183 0
M  V30 2485 N 235.018 0.912232 1.28515 0
M  V30 2486 C 236.246 0.560416 1.99166 0
M  V30 2487 C 236.661 -0.857927 1.68182 0
M  V30 2488 O 236.018 -1.56805 0.933733 0
M  V30 2489 C 236.069 0.758142 3.53461 0
M  V30 2490 O 235.79 2.12067 3.83352 0
M  V30 2491 C 237.291 0.412954 4.41372 0
M  V30 2492 H 234.511 0.213805 0.636026 0
M  V30 2493 H 237.055 1.22502 1.63749 0
M  V30 2494 H 235.21 0.140556 3.87145 0
M  V30 2495 H 235.624 2.15923 4.77993 0
M  V30 2496 H 237.098 0.60208 5.48707 0
M  V30 2497 H 237.575 -0.65073 4.34353 0
M  V30 2498 H 238.181 1.00802 4.13182 0
M  V30 2499 N 236.496 -1.42363 0.676048 0
M  V30 2500 C 237.721 -2.06377 0.205705 0
M  V30 2501 C 238.146 -1.50463 -1.12883 0
M  V30 2502 O 237.504 -0.623619 -1.70237 0
M  V30 2503 C 237.552 -3.60277 0.152655 0
M  V30 2504 O 236.656 -4.02935 -0.87845 0
M  V30 2505 H 235.997 -0.655588 0.105359 0
M  V30 2506 H 238.527 -1.82475 0.925412 0
M  V30 2507 H 238.537 -4.07993 -0.0230675 0
M  V30 2508 H 237.212 -4.00346 1.12675 0
M  V30 2509 H 235.789 -3.66764 -0.673668 0
M  V30 2510 N 237.974 -0.419461 -1.51915 0
M  V30 2511 C 239.39 -0.0708431 -1.59443 0
M  V30 2512 C 239.59 1.41796 -1.43164 0
M  V30 2513 O 238.646 2.18596 -1.26381 0
M  V30 2514 C 239.959 -0.574991 -2.95151 0
M  V30 2515 C 241.507 -0.533867 -3.08413 0
M  V30 2516 C 241.982 -1.01469 -4.46618 0
M  V30 2517 N 243.473 -0.971939 -4.52888 0
M  V30 2518 C 244.208 -1.31505 -5.58116 0
M  V30 2519 N 243.704 -1.73014 -6.70849 0
M  V30 2520 N 245.497 -1.23436 -5.48379 0
M  V30 2521 H 237.648 -1.38836 -1.60743 0
M  V30 2522 H 239.911 -0.570998 -0.756747 0
M  V30 2523 H 239.617 -1.61597 -3.12377 0
M  V30 2524 H 239.491 0.00979777 -3.77199 0
M  V30 2525 H 241.878 0.498086 -2.90866 0
M  V30 2526 H 241.959 -1.15484 -2.28248 0
M  V30 2527 H 241.603 -2.04502 -4.6491 0
M  V30 2528 H 241.533 -0.370433 -5.25295 0
M  V30 2529 H 244.024 -0.666893 -3.71969 0
M  V30 2530 H 244.337 -1.97479 -7.47143 0
M  V30 2531 H 242.682 -1.76926 -6.72103 0
M  V30 2532 H 245.873 -0.908869 -4.59192 0
M  V30 2533 H 246.046 -1.50506 -6.30279 0
M  V30 2534 N 239.452 1.56882 -0.150215 0
M  V30 2535 C 240.682 2.00302 0.506213 0
M  V30 2536 C 241.09 1.02934 1.58749 0
M  V30 2537 O 240.433 0.0188384 1.8369 0
M  V30 2538 C 240.495 3.40156 1.16337 0
M  V30 2539 C 240.159 4.56439 0.226311 0
M  V30 2540 C 241.156 5.17012 -0.547265 0
M  V30 2541 C 238.841 5.02136 0.128279 0
M  V30 2542 C 240.835 6.21693 -1.40629 0
M  V30 2543 C 238.522 6.06672 -0.734345 0
M  V30 2544 C 239.52 6.6632 -1.50023 0
M  V30 2545 O 239.208 7.68831 -2.34848 0
M  V30 2546 H 238.94 0.662182 0.135984 0
M  V30 2547 H 241.494 2.03961 -0.242746 0
M  V30 2548 H 239.724 3.33346 1.96004 0
M  V30 2549 H 241.413 3.67663 1.71985 0
M  V30 2550 H 242.179 4.82603 -0.48158 0
M  V30 2551 H 238.058 4.55435 0.714157 0
M  V30 2552 H 241.602 6.68179 -2.00455 0
M  V30 2553 H 237.499 6.40507 -0.801309 0
M  V30 2554 H 238.267 7.86065 -2.28131 0
M  V30 2555 N 240.93 -0.123565 1.57115 0
M  V30 2556 C 241.86 -1.15309 2.03042 0
M  V30 2557 C 242.841 -1.43454 0.914061 0
M  V30 2558 O 244.026 -1.53973 1.18347 0
M  V30 2559 C 241.156 -2.48043 2.43089 0
M  V30 2560 C 240.11 -2.3437 3.58127 0
M  V30 2561 C 239.436 -3.72026 3.84059 0
M  V30 2562 C 240.736 -1.80804 4.90007 0
M  V30 2563 H 242.43 -0.771102 2.893 0
M  V30 2564 H 239.976 -0.369479 1.39179 0
M  V30 2565 H 241.929 -3.20311 2.73823 0
M  V30 2566 H 240.653 -2.88122 1.53796 0
M  V30 2567 H 239.312 -1.64551 3.27595 0
M  V30 2568 H 238.96 -4.09582 2.91979 0
M  V30 2569 H 238.66 -3.63732 4.6149 0
M  V30 2570 H 240.184 -4.45806 4.1724 0
M  V30 2571 H 241.598 -2.42886 5.19307 0
M  V30 2572 H 239.995 -1.83343 5.71407 0
M  V30 2573 H 241.065 -0.76528 4.78823 0
M  V30 2574 N 242.408 -1.52605 -0.393616 0
M  V30 2575 C 243.356 -1.77688 -1.50099 0
M  V30 2576 C 244.35 -0.644615 -1.56656 0
M  V30 2577 O 245.556 -0.826997 -1.59877 0
M  V30 2578 H 241.931 -0.562159 -0.499481 0
M  V30 2579 H 243.902 -2.7043 -1.26135 0
M  V30 2580 C 242.651 -1.95858 -2.87289 0
M  V30 2581 H 241.974 -2.8241 -2.82992 0
M  V30 2582 H 243.414 -2.174 -3.64024 0
M  V30 2583 C 241.873 -0.729848 -3.28899 0
M  V30 2584 O 242.403 0.0949217 -4.01588 0
M  V30 2585 N 240.609 -0.561283 -2.85128 0
M  V30 2586 H 240.156 -1.23357 -2.26143 0
M  V30 2587 H 240.114 0.2595 -3.13327 0
M  V30 2588 N 243.887 0.651787 -1.4349 0
M  V30 2589 C 244.797 1.79368 -1.5121 0
M  V30 2590 C 245.813 1.69361 -0.399093 0
M  V30 2591 O 246.989 1.90505 -0.653431 0
M  V30 2592 C 244.054 3.15653 -1.43401 0
M  V30 2593 C 243.115 3.37446 -2.65384 0
M  V30 2594 C 242.348 4.67229 -2.57939 0
M  V30 2595 O 242.571 5.46676 -1.62792 0
M  V30 2596 O 241.505 4.90773 -3.48462 0
M  V30 2597 H 245.331 1.7581 -2.47638 0
M  V30 2598 H 242.916 0.810447 -1.25507 0
M  V30 2599 H 244.798 3.96935 -1.41494 0
M  V30 2600 H 243.473 3.19798 -0.501085 0
M  V30 2601 H 242.38 2.55923 -2.72863 0
M  V30 2602 H 243.713 3.38148 -3.57654 0
M  V30 2603 N 245.365 1.30045 0.890287 0
M  V30 2604 C 246.612 1.18561 1.64163 0
M  V30 2605 C 246.94 -0.260852 1.92743 0
M  V30 2606 O 246.195 -1.20376 1.54299 0
M  V30 2607 C 246.494 1.95409 2.99249 0
M  V30 2608 C 246.16 3.45066 2.90242 0
M  V30 2609 C 244.822 3.85878 2.87492 0
M  V30 2610 C 247.174 4.4039 2.78758 0
M  V30 2611 C 244.502 5.20314 2.7109 0
M  V30 2612 C 246.854 5.74928 2.63894 0
M  V30 2613 C 245.518 6.14986 2.59516 0
M  V30 2614 H 244.788 0.433846 0.600715 0
M  V30 2615 H 247.435 1.61088 1.03552 0
M  V30 2616 H 245.74 1.45501 3.63781 0
M  V30 2617 H 247.437 1.8392 3.56334 0
M  V30 2618 H 244.027 3.12631 2.93189 0
M  V30 2619 H 248.211 4.09806 2.79952 0
M  V30 2620 H 243.467 5.50449 2.66112 0
M  V30 2621 H 247.641 6.48434 2.53981 0
M  V30 2622 H 245.268 7.19104 2.46565 0
M  V30 2623 N 246.843 -1.10192 1.12674 0
M  V30 2624 C 247.753 -2.20172 0.810026 0
M  V30 2625 C 248.769 -1.72821 -0.202188 0
M  V30 2626 O 249.945 -2.01369 -0.0351691 0
M  V30 2627 C 247.01 -3.45631 0.272007 0
M  V30 2628 C 246.071 -4.07704 1.34447 0
M  V30 2629 C 245.304 -5.27175 0.832029 0
M  V30 2630 O 245.527 -5.69425 -0.333284 0
M  V30 2631 O 244.461 -5.80168 1.60277 0
M  V30 2632 H 248.287 -2.49701 1.72867 0
M  V30 2633 H 245.872 -1.18977 0.903597 0
M  V30 2634 H 247.754 -4.21394 -0.0230219 0
M  V30 2635 H 246.429 -3.17723 -0.619164 0
M  V30 2636 H 245.336 -3.33614 1.6927 0
M  V30 2637 H 246.669 -4.3982 2.2095 0
M  V30 2638 N 248.321 -0.919034 -1.28029 0
M  V30 2639 C 249.231 -0.416756 -2.30869 0
M  V30 2640 C 250.247 0.498235 -1.66714 0
M  V30 2641 O 251.423 0.383144 -1.97722 0
M  V30 2642 C 248.488 0.330274 -3.45123 0
M  V30 2643 C 247.549 -0.618578 -4.2482 0
M  V30 2644 C 246.782 0.0928959 -5.33619 0
M  V30 2645 O 247.005 1.31375 -5.55065 0
M  V30 2646 O 245.939 -0.574499 -5.99152 0
M  V30 2647 H 249.765 -1.27043 -2.75851 0
M  V30 2648 H 247.35 -0.684052 -1.3282 0
M  V30 2649 H 249.232 0.751972 -4.14636 0
M  V30 2650 H 247.907 1.1597 -3.02213 0
M  V30 2651 H 246.814 -1.08978 -3.57875 0
M  V30 2652 H 248.147 -1.41497 -4.71423 0
M  V30 2653 N 249.799 1.42003 -0.683588 0
M  V30 2654 C 250.729 2.33487 -0.024866 0
M  V30 2655 C 251.71 1.51163 0.779975 0
M  V30 2656 O 252.895 1.79739 0.735362 0
M  V30 2657 C 250.025 3.3487 0.920836 0
M  V30 2658 C 248.979 4.27414 0.223958 0
M  V30 2659 C 248.305 5.19074 1.2832 0
M  V30 2660 C 249.605 5.14445 -0.90242 0
M  V30 2661 H 251.299 2.88819 -0.788921 0
M  V30 2662 H 248.845 1.38873 -0.38083 0
M  V30 2663 H 250.798 3.97787 1.39081 0
M  V30 2664 H 249.522 2.77861 1.71642 0
M  V30 2665 H 248.181 3.65904 -0.225864 0
M  V30 2666 H 247.829 4.58387 2.071 0
M  V30 2667 H 247.529 5.81822 0.821995 0
M  V30 2668 H 249.053 5.84867 1.75392 0
M  V30 2669 H 250.467 5.70998 -0.513272 0
M  V30 2670 H 248.864 5.86072 -1.28997 0
M  V30 2671 H 249.934 4.52322 -1.74737 0
M  V30 2672 N 251.277 0.427512 1.51691 0
M  V30 2673 C 252.24 -0.377132 2.26076 0
M  V30 2674 C 253.24 -0.958089 1.29141 0
M  V30 2675 O 254.43 -0.83408 1.52934 0
M  V30 2676 C 251.562 -1.53262 3.04506 0
M  V30 2677 H 252.755 0.27464 2.9864 0
M  V30 2678 H 250.308 0.180445 1.55255 0
M  V30 2679 H 251.043 -2.22072 2.36335 0
M  V30 2680 H 250.828 -1.12232 3.75694 0
M  V30 2681 H 252.318 -2.10135 3.60878 0
M  V30 2682 N 252.755 -1.56801 0.158532 0
M  V30 2683 C 254.004 -1.95665 -0.489702 0
M  V30 2684 C 254.317 -1.04654 -1.65248 0
M  V30 2685 O 255.523 -1.33146 -2.3661 0
M  V30 2686 C 253.979 -3.47874 -0.922582 0
M  V30 2687 C 253.587 -4.47489 0.213893 0
M  V30 2688 C 255.331 -3.95583 -1.53996 0
M  V30 2689 C 253.238 -5.90921 -0.237903 0
M  V30 2690 H 252.168 -0.730516 -0.186716 0
M  V30 2691 H 254.819 -1.81861 0.244722 0
M  V30 2692 H 253.201 -3.57051 -1.71261 0
M  V30 2693 H 254.375 -4.50017 0.991036 0
M  V30 2694 H 252.69 -4.09764 0.740407 0
M  V30 2695 H 255.287 -5.0019 -1.8898 0
M  V30 2696 H 255.63 -3.37789 -2.43319 0
M  V30 2697 H 256.163 -3.8937 -0.814611 0
M  V30 2698 H 252.902 -6.52559 0.620236 0
M  V30 2699 H 252.422 -5.91729 -0.980676 0
M  V30 2700 H 254.101 -6.43352 -0.686067 0
M  V30 2701 N 254.233 0.115231 -1.57178 0
M  V30 2702 C 255.163 1.1423 -2.03651 0
M  V30 2703 C 256.144 1.42967 -0.921655 0
M  V30 2704 O 257.329 1.53343 -1.19162 0
M  V30 2705 C 254.459 2.4675 -2.44401 0
M  V30 2706 C 253.413 2.32467 -3.59365 0
M  V30 2707 C 252.739 3.69984 -3.86026 0
M  V30 2708 C 254.039 1.78203 -4.90959 0
M  V30 2709 H 255.733 0.755749 -2.89705 0
M  V30 2710 H 253.279 0.362093 -1.39373 0
M  V30 2711 H 255.232 3.18854 -2.75517 0
M  V30 2712 H 253.956 2.87302 -1.55322 0
M  V30 2713 H 252.615 1.62811 -3.28463 0
M  V30 2714 H 252.263 4.08028 -2.94147 0
M  V30 2715 H 251.963 3.61279 -4.63412 0
M  V30 2716 H 253.487 4.43587 -4.19599 0
M  V30 2717 H 254.901 2.40128 -5.20587 0
M  V30 2718 H 253.298 1.8031 -5.72371 0
M  V30 2719 H 254.368 0.739876 -4.79222 0
M  V30 2720 N 255.711 1.52812 0.385517 0
M  V30 2721 C 256.959 1.67694 1.12797 0
M  V30 2722 C 257.28 0.421115 1.90399 0
M  V30 2723 O 256.55 -0.564551 1.87589 0
M  V30 2724 H 255.13 0.618155 0.419396 0
M  V30 2725 H 257.792 1.89938 0.436972 0
M  V30 2726 H 256.888 2.52896 1.82894 0
M  V30 2727 N 257.189 -0.644168 1.43834 0
M  V30 2728 C 258.136 -1.75671 1.49694 0
M  V30 2729 C 259.106 -1.6246 0.345809 0
M  V30 2730 O 260.291 -1.82573 0.554234 0
M  V30 2731 C 257.431 -3.13867 1.43463 0
M  V30 2732 C 256.544 -3.38147 2.6885 0
M  V30 2733 C 255.679 -4.66241 2.54544 0
M  V30 2734 C 254.718 -4.83657 3.75157 0
M  V30 2735 N 253.855 -6.03016 3.59605 0
M  V30 2736 H 258.695 -1.69998 2.44754 0
M  V30 2737 H 256.232 -0.829458 1.21484 0
M  V30 2738 H 258.19 -3.9377 1.37843 0
M  V30 2739 H 256.82 -3.18588 0.519783 0
M  V30 2740 H 255.872 -2.52276 2.84712 0
M  V30 2741 H 257.184 -3.46899 3.58417 0
M  V30 2742 H 256.338 -5.54285 2.46683 0
M  V30 2743 H 255.077 -4.59826 1.62516 0
M  V30 2744 H 254.082 -3.94046 3.83416 0
M  V30 2745 H 255.307 -4.91896 4.68204 0
M  V30 2746 H 253.253 -5.97715 2.7032 0
M  V30 2747 H 253.17 -6.12766 4.42779 0
M  V30 2748 H 254.438 -6.93657 3.55613 0
M  V30 2749 N 258.668 -1.30515 -0.883378 0
M  V30 2750 C 259.916 -1.19194 -1.63209 0
M  V30 2751 C 260.237 0.253205 -1.93349 0
M  V30 2752 O 259.507 1.17025 -1.57105 0
M  V30 2753 H 258.087 -0.438148 -0.605009 0
M  V30 2754 H 260.749 -1.63663 -1.05832 0
M  V30 2755 H 259.845 -1.75396 -2.58153 0
M  V30 2756 N 260.146 1.09593 -1.13257 0
M  V30 2757 C 261.394 1.81375 -0.891492 0
M  V30 2758 C 261.715 1.86049 0.584009 0
M  V30 2759 O 260.985 1.34481 1.42449 0
M  V30 2760 H 259.565 0.671708 -0.326828 0
M  V30 2761 H 262.227 1.3256 -1.42877 0
M  V30 2762 H 261.323 2.84612 -1.28071 0
M  V30 2763 N 261.624 0.925811 1.2754 0
M  V30 2764 C 262.854 0.580666 1.98272 0
M  V30 2765 C 263.262 -0.845207 1.69272 0
M  V30 2766 O 262.605 -1.57306 0.948707 0
M  V30 2767 C 262.667 0.724418 3.52126 0
M  V30 2768 C 262.331 2.12206 4.04744 0
M  V30 2769 C 263.328 3.09604 4.17662 0
M  V30 2770 C 261.013 2.4385 4.39138 0
M  V30 2771 C 263.007 4.36755 4.64246 0
M  V30 2772 C 260.694 3.71237 4.85414 0
M  V30 2773 C 261.692 4.67503 4.97926 0
M  V30 2774 O 261.38 5.92624 5.43187 0
M  V30 2775 H 261.112 0.218987 0.639547 0
M  V30 2776 H 263.666 1.24452 1.63404 0
M  V30 2777 H 261.896 0.0034663 3.867 0
M  V30 2778 H 263.585 0.384607 4.04074 0
M  V30 2779 H 264.351 2.86478 3.91351 0
M  V30 2780 H 260.23 1.69665 4.28643 0
M  V30 2781 H 263.774 5.11898 4.73927 0
M  V30 2782 H 259.671 3.94182 5.11166 0
M  V30 2783 H 260.439 5.95585 5.61445 0
M  V30 2784 N 263.102 -1.41638 0.69111 0
M  V30 2785 C 264.35 -2.00902 0.219758 0
M  V30 2786 C 264.671 -1.54994 -1.18329 0
M  V30 2787 O 263.941 -0.778628 -1.79762 0
M  V30 2788 H 262.521 -0.74289 0.0782558 0
M  V30 2789 H 265.183 -1.73327 0.891271 0
M  V30 2790 H 264.279 -3.11224 0.233708 0
M  V30 2791 N 264.58 -0.43555 -1.51462 0
M  V30 2792 C 265.996 -0.0877501 -1.59359 0
M  V30 2793 C 266.196 1.4027 -1.4466 0
M  V30 2794 O 265.252 2.17243 -1.28693 0
M  V30 2795 C 266.565 -0.606264 -2.94525 0
M  V30 2796 C 268.113 -0.566548 -3.0783 0
M  V30 2797 C 268.588 -1.06201 -4.45517 0
M  V30 2798 N 270.079 -1.01992 -4.51832 0
M  V30 2799 C 270.814 -1.37417 -5.5669 0
M  V30 2800 N 270.31 -1.80119 -6.68976 0
M  V30 2801 N 272.103 -1.29245 -5.47039 0
M  V30 2802 H 264.254 -1.40533 -1.59261 0
M  V30 2803 H 266.517 -0.578992 -0.750648 0
M  V30 2804 H 266.223 -1.64901 -3.10645 0
M  V30 2805 H 266.097 -0.0302097 -3.77188 0
M  V30 2806 H 268.484 0.467208 -2.91378 0
M  V30 2807 H 268.565 -1.17898 -2.2701 0
M  V30 2808 H 268.209 -2.09422 -4.62715 0
M  V30 2809 H 268.139 -0.426127 -5.24873 0
M  V30 2810 H 270.63 -0.706308 -3.71241 0
M  V30 2811 H 270.943 -2.05392 -7.45006 0
M  V30 2812 H 269.288 -1.84044 -6.70189 0
M  V30 2813 H 272.479 -0.957522 -4.58202 0
M  V30 2814 H 272.652 -1.57182 -6.28648 0
M  V30 2815 N 266.058 1.56714 -0.166846 0
M  V30 2816 C 267.304 1.97039 0.479962 0
M  V30 2817 C 267.637 1.05264 1.63197 0
M  V30 2818 O 266.912 0.0988833 1.94248 0
M  V30 2819 C 267.195 3.46867 0.967212 0
M  V30 2820 C 267.048 4.49421 -0.18466 0
M  V30 2821 C 268.367 3.9968 1.84238 0
M  V30 2822 H 265.486 0.71641 0.172992 0
M  V30 2823 H 268.128 1.8832 -0.252079 0
M  V30 2824 H 266.278 3.54428 1.59101 0
M  V30 2825 H 267.95 4.53924 -0.821621 0
M  V30 2826 H 266.193 4.25573 -0.840837 0
M  V30 2827 H 266.864 5.51644 0.198317 0
M  V30 2828 H 269.34 3.94723 1.31655 0
M  V30 2829 H 268.216 5.04941 2.15234 0
M  V30 2830 H 268.477 3.43226 2.78654 0
M  V30 2831 N 267.536 -0.106894 1.57237 0
M  V30 2832 C 268.766 -0.825191 1.89405 0
M  V30 2833 C 269.174 -1.73374 0.757496 0
M  V30 2834 O 268.517 -1.81552 -0.280115 0
M  V30 2835 C 268.579 -1.70102 3.1671 0
M  V30 2836 C 268.243 -0.965523 4.46684 0
M  V30 2837 C 269.24 -0.300741 5.19029 0
M  V30 2838 C 266.925 -0.943105 4.93367 0
M  V30 2839 C 268.919 0.376622 6.36286 0
M  V30 2840 C 266.606 -0.261949 6.10538 0
M  V30 2841 C 267.604 0.396748 6.81847 0
M  V30 2842 O 267.292 1.06701 7.96787 0
M  V30 2843 H 267.024 -0.241852 0.631255 0
M  V30 2844 H 269.578 -0.0921491 2.05193 0
M  V30 2845 H 267.808 -2.47601 2.97036 0
M  V30 2846 H 269.497 -2.29483 3.34802 0
M  V30 2847 H 270.263 -0.309599 4.84011 0
M  V30 2848 H 266.142 -1.44524 4.3776 0
M  V30 2849 H 269.686 0.891334 6.91882 0
M  V30 2850 H 265.583 -0.250896 6.45012 0
M  V30 2851 H 266.351 0.972707 8.127 0
M  V30 2852 N 269.014 -1.53014 -0.377408 0
M  V30 2853 C 269.961 -1.78616 -1.46168 0
M  V30 2854 C 270.931 -0.629917 -1.53692 0
M  V30 2855 O 272.116 -0.870861 -1.69766 0
M  V30 2856 C 269.256 -1.97123 -2.8326 0
M  V30 2857 C 268.369 -3.24831 -2.84796 0
M  V30 2858 C 267.504 -3.33591 -4.13389 0
M  V30 2859 C 266.543 -4.55377 -4.09021 0
M  V30 2860 N 265.68 -4.61355 -5.29241 0
M  V30 2861 H 270.52 -2.71142 -1.23637 0
M  V30 2862 H 268.057 -1.34326 -0.599577 0
M  V30 2863 H 270.015 -2.05839 -3.62886 0
M  V30 2864 H 268.645 -1.07946 -3.04216 0
M  V30 2865 H 267.697 -3.25128 -1.97474 0
M  V30 2866 H 269.009 -4.14523 -2.77439 0
M  V30 2867 H 268.163 -3.41554 -5.01424 0
M  V30 2868 H 266.902 -2.41894 -4.23484 0
M  V30 2869 H 265.907 -4.47527 -3.19373 0
M  V30 2870 H 267.132 -5.48402 -4.00539 0
M  V30 2871 H 265.078 -3.72554 -5.39944 0
M  V30 2872 H 264.995 -5.44935 -5.24006 0
M  V30 2873 H 266.263 -4.73586 -6.19141 0
M  V30 2874 N 270.492 0.636531 -1.44174 0
M  V30 2875 C 271.738 1.39826 -1.4689 0
M  V30 2876 C 272.071 1.93947 -0.0990585 0
M  V30 2877 O 271.346 1.73325 0.882544 0
M  V30 2878 C 271.629 2.56751 -2.5249 0
M  V30 2879 C 271.482 2.08014 -3.98811 0
M  V30 2880 C 272.801 3.58946 -2.54649 0
M  V30 2881 H 269.92 0.507075 -0.53483 0
M  V30 2882 H 272.562 0.720188 -1.75822 0
M  V30 2883 H 270.712 3.14597 -2.2795 0
M  V30 2884 H 272.384 1.5504 -4.34466 0
M  V30 2885 H 270.627 1.39242 -4.10846 0
M  V30 2886 H 271.298 2.92169 -4.68339 0
M  V30 2887 H 273.774 3.1089 -2.76563 0
M  V30 2888 H 272.65 4.38286 -3.3045 0
M  V30 2889 H 272.911 4.12655 -1.58646 0
M  V30 2890 N 271.97 1.30982 0.876444 0
M  V30 2891 C 273.386 1.09498 1.16113 0
M  V30 2892 C 273.586 -0.13875 2.01022 0
M  V30 2893 O 272.642 -0.829935 2.38471 0
M  V30 2894 C 273.955 2.36308 1.85954 0
M  V30 2895 C 275.503 2.41856 1.98683 0
M  V30 2896 C 275.978 3.6853 2.71937 0
M  V30 2897 N 277.469 3.69387 2.79477 0
M  V30 2898 C 278.204 4.64096 3.36753 0
M  V30 2899 N 277.7 5.69155 3.95012 0
M  V30 2900 N 279.493 4.51626 3.3465 0
M  V30 2901 H 271.644 2.10118 0.310494 0
M  V30 2902 H 273.907 0.926634 0.200131 0
M  V30 2903 H 273.613 3.26388 1.31011 0
M  V30 2904 H 273.487 2.4561 2.86278 0
M  V30 2905 H 275.874 1.52249 2.52793 0
M  V30 2906 H 275.955 2.36523 0.9742 0
M  V30 2907 H 275.599 4.58499 2.18496 0
M  V30 2908 H 275.529 3.71127 3.73593 0
M  V30 2909 H 278.02 2.93438 2.38123 0
M  V30 2910 H 278.333 6.3751 4.36808 0
M  V30 2911 H 276.678 5.72937 3.93406 0
M  V30 2912 H 279.869 3.68728 2.8837 0
M  V30 2913 H 280.042 5.25614 3.7899 0
M  V30 2914 N 273.449 -1.08991 1.13837 0
M  V30 2915 C 274.397 -2.17841 0.815347 0
M  V30 2916 C 275.391 -1.68164 -0.204233 0
M  V30 2917 O 276.597 -1.79897 -0.0609304 0
M  V30 2918 H 272.972 -0.710654 0.245915 0
M  V30 2919 H 274.943 -2.42315 1.74143 0
M  V30 2920 C 273.692 -3.46381 0.302614 0
M  V30 2921 H 273.015 -3.84979 1.0785 0
M  V30 2922 H 274.455 -4.23844 0.115074 0
M  V30 2923 C 272.914 -3.22556 -0.972591 0
M  V30 2924 O 273.444 -3.45599 -2.04754 0
M  V30 2925 N 271.65 -2.76134 -0.905455 0
M  V30 2926 H 271.197 -2.57582 -0.0305421 0
M  V30 2927 H 271.155 -2.60571 -1.75926 0
M  V30 2928 N 274.927 -0.932562 -1.27047 0
M  V30 2929 C 275.874 -0.434072 -2.26681 0
M  V30 2930 C 276.844 0.501639 -1.58344 0
M  V30 2931 O 278.029 0.419734 -1.86126 0
M  V30 2932 C 275.169 0.30261 -3.43771 0
M  V30 2933 C 274.282 -0.667774 -4.26808 0
M  V30 2934 C 273.417 0.0892393 -5.31125 0
M  V30 2935 C 272.456 -0.873532 -6.05835 0
M  V30 2936 N 271.593 -0.148832 -7.01942 0
M  V30 2937 H 276.433 -1.28868 -2.68695 0
M  V30 2938 H 273.97 -0.646713 -1.32121 0
M  V30 2939 H 275.928 0.746092 -4.10474 0
M  V30 2940 H 274.558 1.12142 -3.02695 0
M  V30 2941 H 273.61 -1.22978 -3.59973 0
M  V30 2942 H 274.922 -1.40337 -4.78651 0
M  V30 2943 H 274.076 0.592409 -6.03801 0
M  V30 2944 H 272.815 0.85777 -4.80097 0
M  V30 2945 H 271.82 -1.38791 -5.31994 0
M  V30 2946 H 273.045 -1.64193 -6.58952 0
M  V30 2947 H 270.991 0.601365 -6.53238 0
M  V30 2948 H 270.908 -0.82391 -7.51497 0
M  V30 2949 H 272.176 0.333527 -7.78786 0
M  V30 2950 N 276.405 1.4127 -0.698611 0
M  V30 2951 C 277.335 2.33447 -0.049629 0
M  V30 2952 C 278.316 1.51982 0.763898 0
M  V30 2953 O 279.501 1.80509 0.716257 0
M  V30 2954 C 276.631 3.35828 0.885267 0
M  V30 2955 C 275.585 4.27627 0.178613 0
M  V30 2956 C 274.911 5.20406 1.22807 0
M  V30 2957 C 276.211 5.13459 -0.956933 0
M  V30 2958 H 277.905 2.87966 -0.81951 0
M  V30 2959 H 275.451 1.38461 -0.395538 0
M  V30 2960 H 277.404 3.9924 1.34854 0
M  V30 2961 H 276.128 2.79666 1.68685 0
M  V30 2962 H 274.787 3.65643 -0.26466 0
M  V30 2963 H 274.435 4.60558 2.02226 0
M  V30 2964 H 274.135 5.82661 0.760239 0
M  V30 2965 H 275.659 5.86695 1.69179 0
M  V30 2966 H 277.073 5.70421 -0.573805 0
M  V30 2967 H 275.47 5.8467 -1.35205 0
M  V30 2968 H 276.54 4.50443 -1.79524 0
M  V30 2969 N 277.883 0.443576 1.51229 0
M  V30 2970 C 279.16 -0.181038 1.9476 0
M  V30 2971 C 279.54 -1.59523 1.38259 0
M  V30 2972 O 278.888 -2.2122 0.572198 0
M  V30 2973 C 279.098 -0.152422 3.48667 0
M  V30 2974 C 280.446 -0.354923 4.23114 0
M  V30 2975 O 281.47 -0.230257 3.55455 0
M  V30 2976 O 280.329 -0.603674 5.43156 0
M  V30 2977 H 277.423 -0.1266 0.817252 0
M  V30 2978 H 279.969 0.502004 1.62105 0
M  V30 2979 H 278.741 0.836022 3.82265 0
M  V30 2980 H 278.364 -0.878107 3.87782 0
M  V30 2981 N 279.361 -1.56624 0.175154 0
M  V30 2982 C 280.609 -1.96609 -0.467885 0
M  V30 2983 C 280.93 -1.06238 -1.63519 0
M  V30 2984 O 280.2 -0.129523 -1.95471 0
M  V30 2985 H 278.78 -0.726008 -0.175845 0
M  V30 2986 H 281.442 -1.93195 0.257234 0
M  V30 2987 H 280.538 -3.00989 -0.825342 0
M  V30 2988 N 280.839 0.0985539 -1.57292 0
M  V30 2989 C 281.771 1.14595 -1.98496 0
M  V30 2990 C 282.784 1.36512 -0.887031 0
M  V30 2991 O 283.973 1.35225 -1.16518 0
M  V30 2992 C 281.073 2.50216 -2.28572 0
M  V30 2993 C 280.246 2.48624 -3.59868 0
M  V30 2994 C 279.305 3.66146 -3.7792 0
M  V30 2995 O 278.331 3.48795 -4.49812 0
M  V30 2996 N 279.533 4.85496 -3.18235 0
M  V30 2997 H 282.298 0.795277 -2.88956 0
M  V30 2998 H 279.859 0.287579 -1.59325 0
M  V30 2999 H 281.851 3.27432 -2.37845 0
M  V30 3000 H 280.421 2.77387 -1.44136 0
M  V30 3001 H 279.641 1.56978 -3.61596 0
M  V30 3002 H 280.929 2.44635 -4.46129 0
M  V30 3003 H 280.327 5.02497 -2.59833 0
M  V30 3004 H 278.884 5.60317 -3.32999 0
M  V30 3005 N 282.317 1.53212 0.369288 0
M  V30 3006 C 283.547 1.72868 1.13139 0
M  V30 3007 C 283.955 0.455754 1.83629 0
M  V30 3008 O 283.298 -0.580861 1.74275 0
M  V30 3009 C 283.36 2.83667 2.20847 0
M  V30 3010 C 283.024 4.24142 1.70155 0
M  V30 3011 C 284.021 5.06619 1.16763 0
M  V30 3012 C 281.706 4.70539 1.7578 0
M  V30 3013 C 283.7 6.33581 0.696678 0
M  V30 3014 C 281.387 5.97481 1.28297 0
M  V30 3015 C 282.385 6.78833 0.753307 0
M  V30 3016 O 282.073 8.03393 0.285475 0
M  V30 3017 H 281.805 0.581707 0.344373 0
M  V30 3018 H 284.359 2.00736 0.435243 0
M  V30 3019 H 282.589 2.51265 2.93944 0
M  V30 3020 H 284.278 2.91536 2.82421 0
M  V30 3021 H 285.044 4.71948 1.11758 0
M  V30 3022 H 280.923 4.07293 2.15949 0
M  V30 3023 H 284.467 6.97027 0.282581 0
M  V30 3024 H 280.364 6.31651 1.32994 0
M  V30 3025 H 281.132 8.17497 0.405145 0
M  V30 3026 N 283.795 -0.628877 1.44509 0
M  V30 3027 C 285.025 -1.41349 1.50678 0
M  V30 3028 C 285.433 -1.88745 0.131075 0
M  V30 3029 O 284.776 -1.61592 -0.87371 0
M  V30 3030 C 284.838 -2.66608 2.41165 0
M  V30 3031 C 284.502 -2.40993 3.88293 0
M  V30 3032 C 285.499 -2.0268 4.78766 0
M  V30 3033 C 283.184 -2.54563 4.33016 0
M  V30 3034 C 285.178 -1.78269 6.11963 0
M  V30 3035 C 282.865 -2.29766 5.6626 0
M  V30 3036 C 283.863 -1.91678 6.55552 0
M  V30 3037 O 283.551 -1.67158 7.86329 0
M  V30 3038 H 283.283 -0.439851 0.51333 0
M  V30 3039 H 285.837 -0.776084 1.90174 0
M  V30 3040 H 284.067 -3.32994 1.96601 0
M  V30 3041 H 285.756 -3.28615 2.38259 0
M  V30 3042 H 286.522 -1.91751 4.45485 0
M  V30 3043 H 282.401 -2.83179 3.63773 0
M  V30 3044 H 285.945 -1.48465 6.81619 0
M  V30 3045 H 281.842 -2.40306 5.99102 0
M  V30 3046 H 282.61 -1.81386 7.98149 0
M  V30 3047 N 285.273 -1.31445 -0.869486 0
M  V30 3048 C 286.236 -1.19094 -1.9583 0
M  V30 3049 C 287.236 -0.117906 -1.60367 0
M  V30 3050 O 288.426 -0.367208 -1.70286 0
M  V30 3051 C 285.558 -0.828165 -3.30688 0
M  V30 3052 H 286.751 -2.15842 -2.08212 0
M  V30 3053 H 284.304 -1.15063 -1.05784 0
M  V30 3054 H 285.039 0.138142 -3.24006 0
M  V30 3055 H 284.824 -1.6038 -3.578 0
M  V30 3056 H 286.314 -0.765658 -4.10521 0
M  V30 3057 N 286.751 1.08385 -1.14413 0
M  V30 3058 C 288 1.80153 -0.907076 0
M  V30 3059 C 288.313 1.87176 0.567851 0
M  V30 3060 O 289.519 2.55359 0.922172 0
M  V30 3061 C 287.975 3.23687 -1.57336 0
M  V30 3062 C 287.583 3.24897 -3.08457 0
M  V30 3063 C 289.327 4.00136 -1.41744 0
M  V30 3064 C 287.234 4.6302 -3.67921 0
M  V30 3065 H 286.164 0.675139 -0.335714 0
M  V30 3066 H 288.815 1.21733 -1.37307 0
M  V30 3067 H 287.197 3.82234 -1.03505 0
M  V30 3068 H 288.371 2.76055 -3.68958 0
M  V30 3069 H 286.686 2.61943 -3.2369 0
M  V30 3070 H 289.283 5.02201 -1.83572 0
M  V30 3071 H 289.626 4.14709 -0.363576 0
M  V30 3072 H 290.159 3.48058 -1.92614 0
M  V30 3073 H 286.898 4.5365 -4.73161 0
M  V30 3074 H 286.418 5.12143 -3.12201 0
M  V30 3075 H 288.097 5.31994 -3.68227 0
M  V30 3076 N 288.23 0.939286 1.26551 0
M  V30 3077 C 289.177 0.446088 2.26448 0
M  V30 3078 C 290.147 -0.493234 1.58608 0
M  V30 3079 O 291.332 -0.409857 1.86346 0
M  V30 3080 C 288.472 -0.284375 3.43926 0
M  V30 3081 C 287.585 0.690399 4.26448 0
M  V30 3082 C 286.72 -0.0610712 5.31165 0
M  V30 3083 C 285.759 0.905649 6.05363 0
M  V30 3084 N 284.896 0.186055 7.01853 0
M  V30 3085 H 289.736 1.30291 2.68008 0
M  V30 3086 H 287.273 0.65371 1.31776 0
M  V30 3087 H 289.231 -0.724313 4.10864 0
M  V30 3088 H 287.861 -1.10535 3.03285 0
M  V30 3089 H 286.913 1.24885 3.59316 0
M  V30 3090 H 288.225 1.42873 4.779 0
M  V30 3091 H 287.379 -0.56038 6.04106 0
M  V30 3092 H 286.118 -0.832297 4.80546 0
M  V30 3093 H 285.123 1.4161 5.3125 0
M  V30 3094 H 286.348 1.67685 6.58072 0
M  V30 3095 H 284.294 -0.566714 6.53548 0
M  V30 3096 H 284.211 0.863752 7.51049 0
M  V30 3097 H 285.479 -0.292221 7.78952 0
M  V30 3098 N 289.708 -1.40897 0.706093 0
M  V30 3099 C 290.655 -2.30751 0.0474474 0
M  V30 3100 C 291.625 -1.47678 -0.76029 0
M  V30 3101 O 292.81 -1.76441 -0.726177 0
M  V30 3102 C 289.95 -3.33815 -0.875309 0
M  V30 3103 C 289.063 -4.31961 -0.0580623 0
M  V30 3104 C 288.198 -5.22093 -0.979425 0
M  V30 3105 C 287.237 -6.11902 -0.155706 0
M  V30 3106 N 286.374 -6.94482 -1.03144 0
M  V30 3107 H 291.214 -2.86513 0.819413 0
M  V30 3108 H 288.751 -1.41102 0.415783 0
M  V30 3109 H 290.709 -3.92129 -1.42446 0
M  V30 3110 H 289.339 -2.79579 -1.61356 0
M  V30 3111 H 288.391 -3.75507 0.608147 0
M  V30 3112 H 289.703 -4.95415 0.580082 0
M  V30 3113 H 288.857 -5.85292 -1.59744 0
M  V30 3114 H 287.596 -4.5889 -1.65141 0
M  V30 3115 H 286.601 -5.47742 0.475309 0
M  V30 3116 H 287.826 -6.77162 0.512635 0
M  V30 3117 H 285.772 -6.33877 -1.68924 0
M  V30 3118 H 285.689 -7.54665 -0.449108 0
M  V30 3119 H 286.957 -7.6214 -1.63593 0
M  V30 3120 N 291.186 -0.45159 -1.50991 0
M  V30 3121 C 292.435 0.111653 -2.01391 0
M  V30 3122 C 292.748 1.42529 -1.33959 0
M  V30 3123 O 293.954 2.07232 -1.75405 0
M  V30 3124 C 292.41 0.249514 -3.59034 0
M  V30 3125 C 292.018 -1.05453 -4.35412 0
M  V30 3126 C 293.762 0.765762 -4.17536 0
M  V30 3127 C 291.669 -0.881529 -5.84793 0
M  V30 3128 H 290.599 0.0455022 -0.752626 0
M  V30 3129 H 293.25 -0.583524 -1.73975 0
M  V30 3130 H 291.632 1.00803 -3.82955 0
M  V30 3131 H 292.806 -1.82248 -4.23229 0
M  V30 3132 H 291.121 -1.50039 -3.88429 0
M  V30 3133 H 293.718 0.911913 -5.26866 0
M  V30 3134 H 294.061 1.75201 -3.77638 0
M  V30 3135 H 294.594 0.0651744 -3.97747 0
M  V30 3136 H 291.333 -1.84057 -6.29129 0
M  V30 3137 H 290.853 -0.153625 -5.99603 0
M  V30 3138 H 292.532 -0.540363 -6.4474 0
M  V30 3139 N 292.664 1.56529 -0.183458 0
M  V30 3140 C 293.594 2.21549 0.737456 0
M  V30 3141 C 294.575 1.17489 1.23005 0
M  V30 3142 O 295.76 1.45959 1.281 0
M  V30 3143 C 292.89 2.86575 1.96194 0
M  V30 3144 C 291.844 3.96778 1.60473 0
M  V30 3145 C 291.17 4.48911 2.90487 0
M  V30 3146 C 292.47 5.15767 0.823497 0
M  V30 3147 H 294.164 2.98761 0.195453 0
M  V30 3148 H 291.71 1.43702 0.0925686 0
M  V30 3149 H 293.663 3.30739 2.61131 0
M  V30 3150 H 292.387 2.06749 2.52828 0
M  V30 3151 H 291.046 3.53286 0.978997 0
M  V30 3152 H 290.694 3.65862 3.45186 0
M  V30 3153 H 290.394 5.23265 2.67335 0
M  V30 3154 H 291.918 4.95771 3.56432 0
M  V30 3155 H 293.332 5.56549 1.37571 0
M  V30 3156 H 291.729 5.96114 0.690551 0
M  V30 3157 H 292.799 4.84574 -0.177782 0
M  V30 3158 N 294.142 -0.090211 1.57342 0
M  V30 3159 C 295.391 -0.791531 1.8552 0
M  V30 3160 C 295.704 -1.79659 0.773441 0
M  V30 3161 O 296.91 -2.54616 0.942497 0
M  V30 3162 C 295.366 -1.45856 3.2902 0
M  V30 3163 C 294.974 -0.493017 4.45279 0
M  V30 3164 C 296.718 -2.14332 3.66418 0
M  V30 3165 C 294.625 -1.16491 5.79814 0
M  V30 3166 H 293.555 -0.299356 0.692027 0
M  V30 3167 H 296.206 -0.0445343 1.83446 0
M  V30 3168 H 294.588 -2.25318 3.2565 0
M  V30 3169 H 295.762 0.270464 4.60006 0
M  V30 3170 H 294.077 0.0863061 4.16311 0
M  V30 3171 H 296.674 -2.65344 4.64216 0
M  V30 3172 H 297.017 -2.93447 2.95287 0
M  V30 3173 H 297.55 -1.41724 3.71698 0
M  V30 3174 H 294.289 -0.41447 6.54188 0
M  V30 3175 H 293.809 -1.8997 5.68921 0
M  V30 3176 H 295.488 -1.69001 6.24538 0
M  V30 3177 N 295.62 -1.53406 -0.361157 0
M  V30 3178 C 296.567 -1.80156 -1.44265 0
M  V30 3179 C 297.537 -0.646183 -1.53015 0
M  V30 3180 O 298.722 -0.888818 -1.68833 0
M  V30 3181 C 295.862 -2.00116 -2.81154 0
M  V30 3182 C 294.975 -3.27833 -2.81335 0
M  V30 3183 C 294.11 -3.37957 -4.09828 0
M  V30 3184 C 293.149 -4.59689 -4.04168 0
M  V30 3185 N 292.286 -4.66942 -5.24318 0
M  V30 3186 H 297.126 -2.72438 -1.20754 0
M  V30 3187 H 294.663 -1.34954 -0.585296 0
M  V30 3188 H 296.621 -2.09677 -3.60682 0
M  V30 3189 H 295.251 -1.11167 -3.03054 0
M  V30 3190 H 294.303 -3.27204 -1.94014 0
M  V30 3191 H 295.615 -4.17442 -2.73027 0
M  V30 3192 H 294.769 -3.46853 -4.97773 0
M  V30 3193 H 293.508 -2.46372 -4.20894 0
M  V30 3194 H 292.513 -4.50889 -3.14609 0
M  V30 3195 H 293.738 -5.5262 -3.947 0
M  V30 3196 H 291.684 -3.7826 -5.35962 0
M  V30 3197 H 291.601 -5.50462 -5.18197 0
M  V30 3198 H 292.869 -4.80127 -6.14084 0
M  V30 3199 N 297.098 0.621204 -1.44841 0
M  V30 3200 C 298.346 1.37783 -1.47852 0
M  V30 3201 C 298.667 1.94653 -0.116224 0
M  V30 3202 O 297.937 1.76367 0.852737 0
M  V30 3203 H 296.517 0.511453 -0.544449 0
M  V30 3204 H 299.179 0.730446 -1.80694 0
M  V30 3205 H 298.275 2.20414 -2.20961 0
M  V30 3206 N 298.576 1.31904 0.862503 0
M  V30 3207 C 299.539 1.20131 1.95195 0
M  V30 3208 C 300.539 0.126409 1.60302 0
M  V30 3209 O 301.729 0.376234 1.70089 0
M  V30 3210 C 298.861 0.845691 3.30244 0
M  V30 3211 H 300.054 2.16943 2.07064 0
M  V30 3212 H 297.607 1.15622 1.05172 0
M  V30 3213 H 298.342 -0.120957 3.24074 0
M  V30 3214 H 298.127 1.62276 3.56944 0
M  V30 3215 H 299.617 0.787418 4.10109 0
M  V30 3216 N 300.054 -1.07777 1.14986 0
M  V30 3217 C 301.282 -1.84018 0.945773 0
M  V30 3218 C 301.697 -1.81897 -0.505863 0
M  V30 3219 O 301.054 -1.22726 -1.35072 0
M  V30 3220 C 301.105 -3.31287 1.44677 0
M  V30 3221 O 300.826 -3.33449 2.84154 0
M  V30 3222 C 302.327 -4.24311 1.28355 0
M  V30 3223 H 299.547 -0.580716 0.336169 0
M  V30 3224 H 302.091 -1.36077 1.52654 0
M  V30 3225 H 300.246 -3.76594 0.908625 0
M  V30 3226 H 300.66 -4.25427 3.06777 0
M  V30 3227 H 302.134 -5.2573 1.68261 0
M  V30 3228 H 302.611 -4.38612 0.227184 0
M  V30 3229 H 303.217 -3.84836 1.81056 0
M  V30 3230 N 301.532 -0.945985 -1.26051 0
M  V30 3231 C 302.479 -0.45809 -2.26208 0
M  V30 3232 C 303.449 0.484816 -1.58867 0
M  V30 3233 O 304.634 0.399969 -1.86561 0
M  V30 3234 C 301.774 0.266131 -3.44072 0
M  V30 3235 C 300.887 -0.713005 -4.26075 0
M  V30 3236 C 300.022 0.0329013 -5.3119 0
M  V30 3237 C 299.061 -0.93774 -6.04874 0
M  V30 3238 N 298.198 -0.223274 -7.01745 0
M  V30 3239 H 303.038 -1.3171 -2.67313 0
M  V30 3240 H 300.575 -0.66069 -1.31428 0
M  V30 3241 H 302.533 0.702514 -4.11243 0
M  V30 3242 H 301.163 1.08925 -3.03867 0
M  V30 3243 H 300.215 -1.26789 -3.58648 0
M  V30 3244 H 301.527 -1.45406 -4.77136 0
M  V30 3245 H 300.681 0.528335 -6.04395 0
M  V30 3246 H 299.42 0.806801 -4.8098 0
M  V30 3247 H 298.425 -1.44425 -5.30492 0
M  V30 3248 H 299.65 -1.71172 -6.57173 0
M  V30 3249 H 297.596 0.532046 -6.53839 0
M  V30 3250 H 297.513 -0.90357 -7.50581 0
M  V30 3251 H 298.781 0.250907 -7.79096 0
M  V30 3252 N 303.011 1.40521 -0.713556 0
M  V30 3253 C 304.239 2.05237 -0.261775 0
M  V30 3254 C 304.654 1.53755 1.09567 0
M  V30 3255 O 304.011 0.693268 1.6882 0
M  V30 3256 C 304.062 3.60763 -0.230706 0
M  V30 3257 O 303.783 4.10345 -1.53455 0
M  V30 3258 C 305.284 4.42651 0.239874 0
M  V30 3259 H 302.504 0.660533 -0.118057 0
M  V30 3260 H 305.048 1.79967 -0.971192 0
M  V30 3261 H 303.203 3.8501 0.429661 0
M  V30 3262 H 303.617 5.04526 -1.43366 0
M  V30 3263 H 305.091 5.51599 0.210468 0
M  V30 3264 H 305.568 4.20082 1.28171 0
M  V30 3265 H 306.174 4.23507 -0.390142 0
M  V30 3266 N 304.489 0.459591 1.5075 0
M  V30 3267 C 305.735 -0.0994966 2.02556 0
M  V30 3268 C 306.068 -1.40399 1.3417 0
M  V30 3269 O 305.343 -1.88892 0.463683 0
M  V30 3270 C 305.626 -0.295242 3.58888 0
M  V30 3271 C 305.479 1.02947 4.37861 0
M  V30 3272 C 306.798 -1.05502 4.27267 0
M  V30 3273 H 303.917 -0.034686 0.736183 0
M  V30 3274 H 306.559 0.602938 1.8018 0
M  V30 3275 H 304.709 -0.893563 3.78084 0
M  V30 3276 H 306.381 1.66348 4.30263 0
M  V30 3277 H 304.624 1.62885 4.02058 0
M  V30 3278 H 305.295 0.846281 5.45474 0
M  V30 3279 H 307.771 -0.547993 4.12476 0
M  V30 3280 H 306.647 -1.16077 5.36486 0
M  V30 3281 H 306.908 -2.08875 3.89645 0
M  V30 3282 N 305.967 -1.56429 0.191757 0
M  V30 3283 C 307.207 -1.99383 -0.450099 0
M  V30 3284 C 307.571 -1.07581 -1.59029 0
M  V30 3285 O 308.772 -1.39758 -2.29611 0
M  V30 3286 C 307.043 -3.45841 -0.901611 0
M  V30 3287 S 308.602 -4.10822 -1.54177 0
M  V30 3288 H 305.42 -0.696253 -0.144057 0
M  V30 3289 H 308.022 -1.93276 0.294036 0
M  V30 3290 H 306.726 -4.10354 -0.0616596 0
M  V30 3291 H 306.257 -3.55757 -1.67929 0
M  V30 3292 H 308.272 -4.07553 -2.83046 0
M  V30 3293 N 307.445 0.0818655 -1.57387 0
M  V30 3294 C 308.378 1.12986 -1.98266 0
M  V30 3295 C 309.356 1.38123 -0.857954 0
M  V30 3296 O 310.54 1.51663 -1.1194 0
M  V30 3297 C 307.667 2.47632 -2.31076 0
M  V30 3298 C 306.713 2.38693 -3.53452 0
M  V30 3299 S 307.546 1.79071 -5.04672 0
M  V30 3300 C 308.702 3.15316 -5.40673 0
M  V30 3301 H 308.935 0.781435 -2.86846 0
M  V30 3302 H 306.468 0.290034 -1.51651 0
M  V30 3303 H 308.426 3.25089 -2.50654 0
M  V30 3304 H 307.087 2.79638 -1.43043 0
M  V30 3305 H 306.28 3.37964 -3.73893 0
M  V30 3306 H 305.882 1.69369 -3.33452 0
M  V30 3307 H 308.174 4.11613 -5.38127 0
M  V30 3308 H 309.117 2.99664 -6.41566 0
M  V30 3309 H 309.525 3.15457 -4.68132 0
M  V30 3310 N 308.923 1.53595 0.353017 0
M  V30 3311 C 309.87 1.80919 1.43308 0
M  V30 3312 C 310.84 0.654288 1.5267 0
M  V30 3313 O 312.025 0.897759 1.6836 0
M  V30 3314 C 309.165 2.01605 2.80089 0
M  V30 3315 C 308.278 3.29321 2.79593 0
M  V30 3316 C 307.413 3.40125 4.0803 0
M  V30 3317 C 306.452 4.61826 4.01725 0
M  V30 3318 N 305.589 4.69716 5.21834 0
M  V30 3319 H 310.429 2.73074 1.19308 0
M  V30 3320 H 307.966 1.35263 0.578131 0
M  V30 3321 H 309.924 2.11586 3.59565 0
M  V30 3322 H 308.554 1.12772 3.0246 0
M  V30 3323 H 307.606 3.28229 1.92276 0
M  V30 3324 H 308.918 4.18884 2.70809 0
M  V30 3325 H 308.072 3.49488 4.95927 0
M  V30 3326 H 306.811 2.48601 4.19582 0
M  V30 3327 H 305.816 4.52552 3.12213 0
M  V30 3328 H 307.041 5.54705 3.91764 0
M  V30 3329 H 304.987 3.81097 5.33948 0
M  V30 3330 H 304.904 5.53202 5.1527 0
M  V30 3331 H 306.172 4.83376 6.11529 0
M  V30 3332 N 310.401 -0.613514 1.45168 0
M  V30 3333 C 311.647 -1.37471 1.49096 0
M  V30 3334 C 311.98 -1.93765 0.129901 0
M  V30 3335 O 311.255 -1.74707 -0.854858 0
M  V30 3336 C 311.538 -2.52701 2.56542 0
M  V30 3337 C 311.391 -2.01643 4.0207 0
M  V30 3338 C 312.71 -3.54849 2.60327 0
M  V30 3339 H 309.829 -0.498502 0.54283 0
M  V30 3340 H 312.471 -0.692125 1.76945 0
M  V30 3341 H 310.621 -3.10931 2.32926 0
M  V30 3342 H 312.293 -1.48108 4.36877 0
M  V30 3343 H 310.536 -1.32688 4.13009 0
M  V30 3344 H 311.207 -2.84681 4.72928 0
M  V30 3345 H 313.683 -3.0645 2.81474 0
M  V30 3346 H 312.559 -4.32973 3.37381 0
M  V30 3347 H 312.82 -4.10079 1.6519 0
M  V30 3348 N 311.879 -1.3236 -0.855495 0
M  V30 3349 C 312.809 -1.23833 -1.97958 0
M  V30 3350 C 313.79 -0.122361 -1.69659 0
M  V30 3351 O 314.975 -0.30939 -1.9172 0
M  V30 3352 C 312.105 -0.959772 -3.33775 0
M  V30 3353 C 311.059 -2.03689 -3.76424 0
M  V30 3354 C 310.385 -1.61075 -5.09862 0
M  V30 3355 C 311.685 -3.4518 -3.9198 0
M  V30 3356 H 313.379 -2.1788 -2.0535 0
M  V30 3357 H 310.925 -1.04891 -0.986605 0
M  V30 3358 H 312.878 -0.886678 -4.11966 0
M  V30 3359 H 311.602 0.0163404 -3.26596 0
M  V30 3360 H 310.261 -2.10012 -3.00484 0
M  V30 3361 H 309.909 -0.622107 -4.99138 0
M  V30 3362 H 309.609 -2.33143 -5.39368 0
M  V30 3363 H 311.133 -1.55201 -5.90546 0
M  V30 3364 H 312.547 -3.4145 -4.60526 0
M  V30 3365 H 310.944 -4.1559 -4.32903 0
M  V30 3366 H 312.014 -3.84903 -2.94919 0
M  V30 3367 N 313.357 1.07166 -1.15556 0
M  V30 3368 C 314.773 1.31899 -0.898603 0
M  V30 3369 C 314.973 1.96333 0.453383 0
M  V30 3370 O 314.029 2.22438 1.19489 0
M  V30 3371 C 315.342 2.20826 -2.04099 0
M  V30 3372 C 316.89 2.34269 -2.07574 0
M  V30 3373 C 317.365 3.26546 -3.21141 0
M  V30 3374 N 318.856 3.34127 -3.20801 0
M  V30 3375 C 319.591 4.05595 -4.05315 0
M  V30 3376 N 319.087 4.79661 -4.99897 0
M  V30 3377 N 320.88 4.01555 -3.93332 0
M  V30 3378 H 313.031 0.637302 -2.02613 0
M  V30 3379 H 315.294 0.343468 -0.883591 0
M  V30 3380 H 315 1.80744 -3.01703 0
M  V30 3381 H 314.874 3.21364 -1.97496 0
M  V30 3382 H 317.261 2.73603 -1.10568 0
M  V30 3383 H 317.342 1.33429 -2.18244 0
M  V30 3384 H 316.986 2.87931 -4.184 0
M  V30 3385 H 316.916 4.27345 -3.07708 0
M  V30 3386 H 319.407 2.81336 -2.52306 0
M  V30 3387 H 319.72 5.31694 -5.60822 0
M  V30 3388 H 318.065 4.78671 -5.03884 0
M  V30 3389 H 321.256 3.42806 -3.18751 0
M  V30 3390 H 321.429 4.56987 -4.5942 0
M  V30 3391 N 314.835 0.952656 1.25548 0
M  V30 3392 C 315.745 0.47782 2.29682 0
M  V30 3393 C 316.761 -0.453859 1.67977 0
M  V30 3394 O 317.937 -0.330587 1.98668 0
M  V30 3395 C 315.002 -0.238655 3.45878 0
M  V30 3396 C 314.063 0.730994 4.23031 0
M  V30 3397 C 313.296 0.0486165 5.33678 0
M  V30 3398 O 313.519 -1.16612 5.58353 0
M  V30 3399 O 312.453 0.733152 5.97418 0
M  V30 3400 H 316.279 1.34312 2.72386 0
M  V30 3401 H 313.864 0.719026 1.30959 0
M  V30 3402 H 315.746 -0.641774 4.16484 0
M  V30 3403 H 314.421 -1.07916 3.05181 0
M  V30 3404 H 313.328 1.18428 3.5486 0
M  V30 3405 H 314.661 1.53946 4.67506 0
M  V30 3406 N 316.313 -1.40141 0.720998 0
M  V30 3407 C 317.559 -2.01084 0.263231 0
M  V30 3408 C 317.892 -1.57052 -1.14229 0
M  V30 3409 O 317.167 -0.793027 -1.77599 0
M  V30 3410 C 317.45 -3.58401 0.349344 0
M  V30 3411 C 317.303 -4.12491 1.79363 0
M  V30 3412 C 318.622 -4.39231 -0.276351 0
M  V30 3413 H 315.741 -0.730572 0.0971228 0
M  V30 3414 H 318.383 -1.66543 0.914518 0
M  V30 3415 H 316.533 -3.87958 -0.205165 0
M  V30 3416 H 318.205 -3.93711 2.40394 0
M  V30 3417 H 316.448 -3.66576 2.31958 0
M  V30 3418 H 317.119 -5.21646 1.80524 0
M  V30 3419 H 319.595 -4.15637 0.196184 0
M  V30 3420 H 318.471 -5.48586 -0.185681 0
M  V30 3421 H 318.732 -4.20643 -1.36059 0
M  V30 3422 N 317.792 -0.46758 -1.50504 0
M  V30 3423 C 318.739 0.328413 -2.28452 0
M  V30 3424 C 319.709 0.990313 -1.33349 0
M  V30 3425 O 320.894 1.00343 -1.62284 0
M  V30 3426 C 318.034 1.40648 -3.15138 0
M  V30 3427 C 317.147 0.759709 -4.25267 0
M  V30 3428 C 316.282 1.81537 -4.99217 0
M  V30 3429 C 315.321 1.14866 -6.01226 0
M  V30 3430 N 314.458 2.14702 -6.68467 0
M  V30 3431 H 319.298 -0.342603 -2.96024 0
M  V30 3432 H 316.835 -0.180801 -1.45985 0
M  V30 3433 H 318.793 2.04315 -3.63746 0
M  V30 3434 H 317.423 2.04671 -2.49619 0
M  V30 3435 H 316.475 0.0105671 -3.80399 0
M  V30 3436 H 317.787 0.233243 -4.98254 0
M  V30 3437 H 316.941 2.52793 -5.51526 0
M  V30 3438 H 315.68 2.37564 -4.25928 0
M  V30 3439 H 314.685 0.42171 -5.4818 0
M  V30 3440 H 315.91 0.595334 -6.76485 0
M  V30 3441 H 313.856 2.69752 -5.97972 0
M  V30 3442 H 313.773 1.6703 -7.37317 0
M  V30 3443 H 315.041 2.85348 -7.25394 0
M  V30 3444 N 319.27 1.56325 -0.20005 0
M  V30 3445 C 320.516 1.98012 0.438059 0
M  V30 3446 C 320.849 1.08702 1.60927 0
M  V30 3447 O 320.124 0.140064 1.93995 0
M  V30 3448 C 320.407 3.48841 0.893419 0
M  V30 3449 C 320.26 4.48928 -0.279947 0
M  V30 3450 C 321.579 4.03498 1.75719 0
M  V30 3451 H 318.698 0.719918 0.157757 0
M  V30 3452 H 321.34 1.87743 -0.291968 0
M  V30 3453 H 319.49 3.57723 1.51547 0
M  V30 3454 H 321.162 4.52079 -0.91772 0
M  V30 3455 H 319.405 4.23694 -0.930919 0
M  V30 3456 H 320.076 5.5194 0.0812601 0
M  V30 3457 H 322.552 3.97427 1.23253 0
M  V30 3458 H 321.428 5.09393 2.04476 0
M  V30 3459 H 321.689 3.4906 2.71311 0
M  V30 3460 N 320.748 -0.0735177 1.57428 0
M  V30 3461 C 321.678 -1.0879 2.06608 0
M  V30 3462 C 322.659 -1.40473 0.959237 0
M  V30 3463 O 323.844 -1.5013 1.23185 0
M  V30 3464 C 320.974 -2.40183 2.50857 0
M  V30 3465 C 319.928 -2.22858 3.65402 0
M  V30 3466 C 319.254 -3.59619 3.957 0
M  V30 3467 C 320.554 -1.65123 4.95511 0
M  V30 3468 H 322.248 -0.678673 2.91607 0
M  V30 3469 H 319.794 -0.325013 1.40284 0
M  V30 3470 H 321.747 -3.11437 2.83874 0
M  V30 3471 H 320.471 -2.83083 1.62885 0
M  V30 3472 H 319.13 -1.54045 3.32664 0
M  V30 3473 H 318.778 -4.00086 3.04861 0
M  V30 3474 H 318.478 -3.48866 4.72828 0
M  V30 3475 H 320.002 -4.32306 4.31212 0
M  V30 3476 H 321.416 -2.26241 5.26771 0
M  V30 3477 H 319.813 -1.65071 5.7695 0
M  V30 3478 H 320.883 -0.612559 4.81015 0
M  V30 3479 N 322.226 -1.5378 -0.344866 0
M  V30 3480 C 323.189 -1.80981 -1.40637 0
M  V30 3481 C 324.189 -0.680816 -1.45676 0
M  V30 3482 O 325.379 -0.949095 -1.46075 0
M  V30 3483 C 322.511 -1.95063 -2.79577 0
M  V30 3484 H 323.704 -2.75803 -1.17783 0
M  V30 3485 H 321.257 -1.45173 -0.579181 0
M  V30 3486 H 321.992 -1.02379 -3.07716 0
M  V30 3487 H 321.777 -2.77198 -2.77315 0
M  V30 3488 H 323.267 -2.17629 -3.56409 0
M  V30 3489 N 323.704 0.605807 -1.45491 0
M  V30 3490 C 324.952 1.36207 -1.49305 0
M  V30 3491 C 325.273 1.94519 -0.136863 0
M  V30 3492 O 324.543 1.77261 0.833983 0
M  V30 3493 H 323.123 0.50565 -0.549843 0
M  V30 3494 H 325.785 0.711239 -1.81459 0
M  V30 3495 H 324.881 2.18058 -2.23287 0
M  V30 3496 N 325.182 1.32811 0.848464 0
M  V30 3497 C 326.112 1.24882 1.97299 0
M  V30 3498 C 327.093 0.131357 1.69592 0
M  V30 3499 O 328.278 0.319553 1.91553 0
M  V30 3500 C 325.408 0.97746 3.33261 0
M  V30 3501 C 324.362 2.05682 3.75338 0
M  V30 3502 C 323.688 1.63777 5.09 0
M  V30 3503 C 324.988 3.47254 3.90144 0
M  V30 3504 H 326.682 2.18966 2.04191 0
M  V30 3505 H 324.228 1.05413 0.981029 0
M  V30 3506 H 326.181 0.908513 4.1149 0
M  V30 3507 H 324.905 0.000980011 3.266 0
M  V30 3508 H 323.564 2.11603 2.99366 0
M  V30 3509 H 323.212 0.648569 4.98801 0
M  V30 3510 H 322.912 2.36 5.38124 0
M  V30 3511 H 324.436 1.5833 5.89715 0
M  V30 3512 H 325.85 3.43888 4.58709 0
M  V30 3513 H 324.247 4.1788 4.30693 0
M  V30 3514 H 325.317 3.86462 2.92874 0
M  V30 3515 N 326.66 -1.06551 1.16123 0
M  V30 3516 C 327.592 -2.13908 0.823171 0
M  V30 3517 C 328.605 -1.61926 -0.16843 0
M  V30 3518 O 329.794 -1.78412 0.055962 0
M  V30 3519 C 326.894 -3.38283 0.204424 0
M  V30 3520 C 326.067 -4.19589 1.23548 0
M  V30 3521 C 325.126 -5.2233 0.637011 0
M  V30 3522 O 324.152 -5.54034 1.30516 0
M  V30 3523 N 325.354 -5.77621 -0.577474 0
M  V30 3524 H 328.119 -2.43508 1.74711 0
M  V30 3525 H 325.68 -1.2253 1.05821 0
M  V30 3526 H 327.672 -4.0416 -0.208909 0
M  V30 3527 H 326.242 -3.06329 -0.623012 0
M  V30 3528 H 325.462 -3.49406 1.82507 0
M  V30 3529 H 326.75 -4.70718 1.93137 0
M  V30 3530 H 326.148 -5.54125 -1.13853 0
M  V30 3531 H 324.705 -6.45087 -0.933053 0
M  V30 3532 N 328.138 -0.959301 -1.25041 0
M  V30 3533 C 329.088 -0.453888 -2.23436 0
M  V30 3534 C 330.072 0.459461 -1.542 0
M  V30 3535 O 331.264 0.291752 -1.74579 0
M  V30 3536 C 328.393 0.262667 -3.42294 0
M  V30 3537 C 327.479 -0.669022 -4.1879 0
M  V30 3538 N 327.87 -1.80267 -4.72586 0
M  V30 3539 C 326.168 -0.47814 -4.4343 0
M  V30 3540 C 326.869 -2.38475 -5.3057 0
M  V30 3541 N 325.845 -1.67078 -5.17287 0
M  V30 3542 H 329.647 -1.319 -2.6264 0
M  V30 3543 H 327.161 -0.817358 -1.40332 0
M  V30 3544 H 329.158 0.641911 -4.11929 0
M  V30 3545 H 327.818 1.12432 -3.04613 0
M  V30 3546 H 328.829 -2.18442 -4.69578 0
M  V30 3547 H 325.506 0.340249 -4.16111 0
M  V30 3548 H 326.896 -3.34094 -5.8295 0
M  V30 3549 N 329.616 1.39756 -0.72842 0
M  V30 3550 C 331.027 1.83498 -0.344289 0
M  V30 3551 C 331.378 1.60868 1.12321 0
M  V30 3552 O 330.503 1.09634 1.86573 0
M  V30 3553 C 331.098 3.33114 -0.618112 0
M  V30 3554 C 329.657 3.753 -0.287549 0
M  V30 3555 C 328.804 2.62831 -0.884048 0
M  V30 3556 H 331.755 1.28842 -0.926578 0
M  V30 3557 H 331.776 3.80334 0.112349 0
M  V30 3558 H 331.288 3.49553 -1.68625 0
M  V30 3559 H 329.389 3.64451 0.775012 0
M  V30 3560 H 329.502 4.72945 -0.765512 0
M  V30 3561 H 327.866 2.52792 -0.311149 0
M  V30 3562 H 328.649 2.82078 -1.95671 0
M  V30 3563 N 331.094 0.475555 1.50254 0
M  V30 3564 C 332.042 -0.330276 2.30243 0
M  V30 3565 C 333.036 -0.986306 1.37726 0
M  V30 3566 O 334.242 -0.9169 1.54897 0
M  V30 3567 H 330.617 -0.125353 0.741479 0
M  V30 3568 H 332.588 0.364702 2.96163 0
M  V30 3569 C 331.337 -1.39704 3.18399 0
M  V30 3570 H 330.66 -0.901621 3.89501 0
M  V30 3571 H 332.1 -1.93336 3.77355 0
M  V30 3572 C 330.559 -2.4014 2.36293 0
M  V30 3573 O 331.089 -3.45504 2.04914 0
M  V30 3574 N 329.295 -2.1197 1.98789 0
M  V30 3575 H 328.842 -1.2631 2.24507 0
M  V30 3576 H 328.8 -2.79403 1.44157 0
M  V30 3577 N 332.573 -1.56217 0.208337 0
M  V30 3578 C 333.822 -1.97124 -0.427204 0
M  V30 3579 C 334.135 -1.09859 -1.61835 0
M  V30 3580 O 335.341 -1.40606 -2.32255 0
M  V30 3581 C 333.797 -3.50633 -0.811442 0
M  V30 3582 C 333.405 -4.46582 0.35615 0
M  V30 3583 C 335.149 -4.00282 -1.41332 0
M  V30 3584 C 333.056 -5.91379 -0.0497852 0
M  V30 3585 H 331.986 -0.736086 -0.163381 0
M  V30 3586 H 334.637 -1.8099 0.302456 0
M  V30 3587 H 333.019 -3.62319 -1.59815 0
M  V30 3588 H 334.193 -4.46636 1.1337 0
M  V30 3589 H 332.508 -4.07202 0.870396 0
M  V30 3590 H 335.105 -5.0595 -1.72972 0
M  V30 3591 H 335.448 -3.45359 -2.32449 0
M  V30 3592 H 335.981 -3.91764 -0.690323 0
M  V30 3593 H 332.72 -6.50255 0.827529 0
M  V30 3594 H 332.24 -5.94549 -0.791926 0
M  V30 3595 H 333.919 -6.45209 -0.481042 0
M  V30 3596 N 334.051 0.0651679 -1.57465 0
M  V30 3597 C 335.297 0.764193 -1.87851 0
M  V30 3598 C 335.63 1.76889 -0.801495 0
M  V30 3599 O 334.905 1.93594 0.187528 0
M  V30 3600 C 335.188 1.46625 -3.28897 0
M  V30 3601 C 335.041 0.477515 -4.47258 0
M  V30 3602 C 336.36 2.4095 -3.68281 0
M  V30 3603 H 333.479 0.276351 -0.683227 0
M  V30 3604 H 336.121 0.0272868 -1.8998 0
M  V30 3605 H 334.271 2.09438 -3.27212 0
M  V30 3606 H 335.943 -0.145922 -4.61069 0
M  V30 3607 H 334.186 -0.206576 -4.33308 0
M  V30 3608 H 334.857 1.0065 -5.42746 0
M  V30 3609 H 337.333 1.88209 -3.71102 0
M  V30 3610 H 336.209 2.87072 -4.67847 0
M  V30 3611 H 336.47 3.26049 -2.98571 0
M  V30 3612 N 335.529 1.53961 0.336706 0
M  V30 3613 C 336.777 1.71197 1.07405 0
M  V30 3614 C 337.098 0.481475 1.88962 0
M  V30 3615 O 336.368 -0.504585 1.8929 0
M  V30 3616 H 334.948 0.631185 0.399517 0
M  V30 3617 H 337.61 1.91232 0.376323 0
M  V30 3618 H 336.706 2.58587 1.74755 0
M  V30 3619 N 337.007 -0.598083 1.45811 0
M  V30 3620 C 338.237 -1.38121 1.53643 0
M  V30 3621 C 338.645 -1.88425 0.171081 0
M  V30 3622 O 337.988 -1.63409 -0.839237 0
M  V30 3623 C 338.05 -2.61432 2.46766 0
M  V30 3624 C 337.714 -2.32702 3.93318 0
M  V30 3625 C 338.711 -1.92479 4.82957 0
M  V30 3626 C 336.396 -2.45321 4.38318 0
M  V30 3627 C 338.39 -1.65248 6.15607 0
M  V30 3628 C 336.077 -2.17703 5.71007 0
M  V30 3629 C 337.075 -1.7773 6.5947 0
M  V30 3630 O 336.763 -1.50441 7.89698 0
M  V30 3631 H 336.495 -0.428863 0.522544 0
M  V30 3632 H 339.049 -0.73557 1.91777 0
M  V30 3633 H 337.279 -3.28749 2.0362 0
M  V30 3634 H 338.968 -3.23487 2.45175 0
M  V30 3635 H 339.734 -1.82258 4.49452 0
M  V30 3636 H 335.613 -2.75399 3.69697 0
M  V30 3637 H 339.157 -1.33973 6.84614 0
M  V30 3638 H 335.054 -2.27544 6.04065 0
M  V30 3639 H 335.822 -1.64415 8.01817 0
M  V30 3640 N 338.485 -1.33259 -0.841409 0
M  V30 3641 C 339.435 -1.19872 -1.93945 0
M  V30 3642 C 340.419 -0.102269 -1.60575 0
M  V30 3643 O 341.611 -0.330114 -1.73894 0
M  V30 3644 C 338.74 -0.937517 -3.30251 0
M  V30 3645 C 337.826 -2.07629 -3.69799 0
M  V30 3646 N 338.217 -3.32604 -3.81062 0
M  V30 3647 C 336.515 -1.98242 -3.9952 0
M  V30 3648 C 337.216 -4.07275 -4.15333 0
M  V30 3649 N 336.192 -3.35691 -4.27566 0
M  V30 3650 H 339.994 -2.14604 -2.00805 0
M  V30 3651 H 337.508 -1.2523 -1.03398 0
M  V30 3652 H 339.505 -0.822545 -4.08705 0
M  V30 3653 H 338.165 0.00128798 -3.247 0
M  V30 3654 H 339.176 -3.67382 -3.65035 0
M  V30 3655 H 335.853 -1.12005 -4.02195 0
M  V30 3656 H 337.243 -5.1511 -4.31406 0
M  V30 3657 N 339.963 1.05934 -1.16686 0
M  V30 3658 C 341.191 1.8249 -0.974929 0
M  V30 3659 C 341.606 1.82679 0.476861 0
M  V30 3660 O 340.963 1.2486 1.33103 0
M  V30 3661 C 341.014 3.28943 -1.49929 0
M  V30 3662 O 340.735 3.28886 -2.89423 0
M  V30 3663 C 342.236 4.22215 -1.35089 0
M  V30 3664 H 339.456 0.575295 -0.345365 0
M  V30 3665 H 342 1.33631 -1.548 0
M  V30 3666 H 340.155 3.751 -0.968423 0
M  V30 3667 H 340.569 4.20493 -3.13506 0
M  V30 3668 H 342.043 5.22987 -1.76603 0
M  V30 3669 H 342.52 4.38195 -0.296935 0
M  V30 3670 H 343.126 3.81907 -1.87155 0
M  V30 3671 N 341.441 0.965919 1.2453 0
M  V30 3672 C 342.404 0.499547 2.2369 0
M  V30 3673 C 343.404 -0.40294 1.5567 0
M  V30 3674 O 344.594 -0.19865 1.73064 0
M  V30 3675 C 341.726 -0.276792 3.39774 0
M  V30 3676 H 342.919 1.37613 2.66463 0
M  V30 3677 H 340.472 0.750324 1.37112 0
M  V30 3678 H 341.207 -1.17055 3.02438 0
M  V30 3679 H 340.992 0.370826 3.90343 0
M  V30 3680 H 342.482 -0.592175 4.1338 0
M  V30 3681 N 342.919 -1.39368 0.735821 0
M  V30 3682 C 344.165 -2.01272 0.293439 0
M  V30 3683 C 344.52 -1.57344 -1.10728 0
M  V30 3684 O 343.813 -0.792744 -1.74431 0
M  V30 3685 C 344.007 -3.5583 0.334651 0
M  V30 3686 C 343.836 -4.14764 1.73784 0
M  V30 3687 C 342.606 -4.47315 2.35026 0
M  V30 3688 C 344.804 -4.38246 2.69157 0
M  V30 3689 N 342.786 -4.91756 3.6749 0
M  V30 3690 C 344.157 -4.849 3.86357 0
M  V30 3691 C 346.212 -4.20315 2.66908 0
M  V30 3692 C 344.915 -5.15505 5.01645 0
M  V30 3693 C 346.941 -4.52033 3.8134 0
M  V30 3694 C 346.303 -4.98895 4.97276 0
M  V30 3695 H 342.402 -0.766756 0.153652 0
M  V30 3696 H 344.986 -1.69276 0.961967 0
M  V30 3697 H 343.157 -3.87212 -0.303527 0
M  V30 3698 H 344.889 -4.04503 -0.126358 0
M  V30 3699 H 341.644 -4.35143 1.86943 0
M  V30 3700 H 342.068 -5.18333 4.35499 0
M  V30 3701 H 346.71 -3.83287 1.78468 0
M  V30 3702 H 344.428 -5.51437 5.90713 0
M  V30 3703 H 348.014 -4.39781 3.80899 0
M  V30 3704 H 346.894 -5.22973 5.84353 0
M  V30 3705 N 344.397 -0.483516 -1.5 0
M  V30 3706 C 345.646 0.0689102 -2.01582 0
M  V30 3707 C 345.959 1.39655 -1.36952 0
M  V30 3708 O 347.165 2.03465 -1.79762 0
M  V30 3709 C 345.621 0.173302 -3.59483 0
M  V30 3710 C 345.229 -1.14665 -4.33077 0
M  V30 3711 C 346.973 0.677024 -4.19066 0
M  V30 3712 C 344.88 -1.00537 -5.82792 0
M  V30 3713 H 343.81 0.0295277 -0.753422 0
M  V30 3714 H 346.461 -0.620295 -1.72698 0
M  V30 3715 H 344.843 0.926569 -3.85007 0
M  V30 3716 H 346.017 -1.91184 -4.19268 0
M  V30 3717 H 344.332 -1.58244 -3.85159 0
M  V30 3718 H 346.929 0.799952 -5.28682 0
M  V30 3719 H 347.272 1.67151 -3.81269 0
M  V30 3720 H 347.805 -0.0192083 -3.97795 0
M  V30 3721 H 344.544 -1.9736 -6.25083 0
M  V30 3722 H 344.064 -0.280776 -5.99142 0
M  V30 3723 H 345.743 -0.677 -6.43448 0
M  V30 3724 N 345.875 1.56104 -0.216619 0
M  V30 3725 C 346.785 2.23694 0.706982 0
M  V30 3726 C 347.801 1.24295 1.21765 0
M  V30 3727 O 348.977 1.57094 1.2603 0
M  V30 3728 C 346.042 2.8998 1.90033 0
M  V30 3729 C 345.103 4.04708 1.43213 0
M  V30 3730 C 344.336 4.67824 2.56859 0
M  V30 3731 O 344.559 4.29913 3.74874 0
M  V30 3732 O 343.493 5.56905 2.28343 0
M  V30 3733 H 347.319 3.03272 0.161235 0
M  V30 3734 H 344.904 1.49394 0.0136177 0
M  V30 3735 H 346.786 3.31837 2.59735 0
M  V30 3736 H 345.461 2.13365 2.43428 0
M  V30 3737 H 344.368 3.6743 0.70327 0
M  V30 3738 H 345.701 4.83051 0.944615 0
M  V30 3739 N 347.353 -0.0568162 1.57498 0
M  V30 3740 C 348.303 -1.07315 2.01166 0
M  V30 3741 C 349.287 -1.33632 0.896171 0
M  V30 3742 O 350.479 -1.33682 1.16009 0
M  V30 3743 C 347.608 -2.38257 2.47161 0
M  V30 3744 C 346.694 -2.1515 3.65474 0
M  V30 3745 N 347.085 -1.62014 4.7915 0
M  V30 3746 C 345.383 -2.45559 3.72313 0
M  V30 3747 C 346.084 -1.54069 5.60926 0
M  V30 3748 N 345.06 -2.00652 5.05213 0
M  V30 3749 H 348.862 -0.655878 2.86488 0
M  V30 3750 H 346.376 -0.263635 1.60246 0
M  V30 3751 H 348.373 -3.11845 2.76691 0
M  V30 3752 H 347.033 -2.80687 1.63232 0
M  V30 3753 H 348.044 -1.30667 5.01145 0
M  V30 3754 H 344.721 -2.91253 2.99129 0
M  V30 3755 H 346.111 -1.13712 6.62208 0
M  V30 3756 N 348.832 -1.54138 -0.328536 0
M  V30 3757 C 350.078 -1.7236 -1.06865 0
M  V30 3758 C 350.411 -0.493231 -1.87832 0
M  V30 3759 O 349.686 0.5098 -1.877 0
M  V30 3760 C 349.969 -2.99621 -1.99747 0
M  V30 3761 C 349.822 -4.32899 -1.22143 0
M  V30 3762 C 351.141 -3.22615 -2.99345 0
M  V30 3763 H 348.26 -0.627151 -0.387105 0
M  V30 3764 H 350.902 -1.86827 -0.345767 0
M  V30 3765 H 349.052 -2.87418 -2.61387 0
M  V30 3766 H 350.724 -4.56978 -0.630017 0
M  V30 3767 H 348.967 -4.30628 -0.523628 0
M  V30 3768 H 349.638 -5.18154 -1.90318 0
M  V30 3769 H 352.114 -3.34248 -2.47826 0
M  V30 3770 H 350.99 -4.13027 -3.61524 0
M  V30 3771 H 351.251 -2.3961 -3.71536 0
M  V30 3772 N 350.31 0.590341 -1.46126 0
M  V30 3773 C 351.26 1.69466 -1.5253 0
M  V30 3774 C 352.244 1.56179 -0.386917 0
M  V30 3775 O 353.436 1.65223 -0.634858 0
M  V30 3776 C 350.565 3.08245 -1.5113 0
M  V30 3777 C 349.651 3.26856 -2.70233 0
M  V30 3778 N 350.042 3.15657 -3.95214 0
M  V30 3779 C 348.34 3.57775 -2.66296 0
M  V30 3780 C 349.041 3.36066 -4.74799 0
M  V30 3781 N 348.017 3.60865 -4.06543 0
M  V30 3782 H 351.819 1.59326 -2.46966 0
M  V30 3783 H 349.333 0.79414 -1.41659 0
M  V30 3784 H 351.33 3.87492 -1.53804 0
M  V30 3785 H 349.99 3.19521 -0.577636 0
M  V30 3786 H 351.001 2.93686 -4.26578 0
M  V30 3787 H 347.678 3.75782 -1.81918 0
M  V30 3788 H 349.068 3.32655 -5.83772 0
M  V30 3789 N 351.788 1.33704 0.83433 0
M  V30 3790 C 353.034 1.25603 1.59222 0
M  V30 3791 C 353.367 -0.176659 1.93395 0
M  V30 3792 O 352.642 -1.11915 1.59076 0
M  V30 3793 C 352.925 2.13576 2.89926 0
M  V30 3794 C 352.778 3.65326 2.62406 0
M  V30 3795 C 354.097 2.01238 3.91397 0
M  V30 3796 H 351.216 0.457613 0.577719 0
M  V30 3797 H 353.858 1.63848 0.961972 0
M  V30 3798 H 352.008 1.8109 3.43713 0
M  V30 3799 H 353.68 4.08124 2.15017 0
M  V30 3800 H 351.923 3.8698 1.96033 0
M  V30 3801 H 352.594 4.22232 3.55562 0
M  V30 3802 H 355.07 2.29738 3.46929 0
M  V30 3803 H 353.946 2.65036 4.80673 0
M  V30 3804 H 354.207 0.985951 4.30966 0
M  V30 3805 N 353.266 -1.05314 1.17247 0
M  V30 3806 C 354.515 -1.77685 0.954521 0
M  V30 3807 C 354.828 -1.88616 -0.518025 0
M  V30 3808 O 356.034 -2.57714 -0.854144 0
M  V30 3809 C 354.49 -3.19402 1.65863 0
M  V30 3810 C 354.098 -3.16605 3.16963 0
M  V30 3811 C 355.842 -3.96237 1.52303 0
M  V30 3812 C 353.749 -4.53103 3.80068 0
M  V30 3813 H 352.679 -0.666 0.353496 0
M  V30 3814 H 355.33 -1.1805 1.40486 0
M  V30 3815 H 353.712 -3.79355 1.13602 0
M  V30 3816 H 354.886 -2.66176 3.76148 0
M  V30 3817 H 353.201 -2.53268 3.30521 0
M  V30 3818 H 355.798 -4.97157 1.96822 0
M  V30 3819 H 356.141 -4.136 0.473401 0
M  V30 3820 H 356.674 -3.42829 2.01775 0
M  V30 3821 H 353.413 -4.40946 4.85023 0
M  V30 3822 H 352.933 -5.03686 3.2567 0
M  V30 3823 H 354.612 -5.22045 3.82202 0
M  V30 3824 N 354.744 -0.972509 -1.24016 0
M  V30 3825 C 355.676 -0.464375 -2.24446 0
M  V30 3826 C 356.689 0.4295 -1.57032 0
M  V30 3827 O 357.878 0.234902 -1.76948 0
M  V30 3828 C 354.978 0.348385 -3.37105 0
M  V30 3829 C 354.151 -0.53673 -4.34094 0
M  V30 3830 C 353.21 0.220838 -5.25736 0
M  V30 3831 O 352.236 -0.386867 -5.67884 0
M  V30 3832 N 353.438 1.50907 -5.60542 0
M  V30 3833 H 356.203 -1.32788 -2.68677 0
M  V30 3834 H 353.764 -0.844877 -1.38107 0
M  V30 3835 H 355.756 0.863341 -3.95384 0
M  V30 3836 H 354.326 1.11285 -2.92121 0
M  V30 3837 H 353.546 -1.23261 -3.74433 0
M  V30 3838 H 354.834 -1.14022 -4.95859 0
M  V30 3839 H 354.232 2.02444 -5.28236 0
M  V30 3840 H 352.789 1.96962 -6.21329 0
M  V30 3841 N 356.222 1.38976 -0.743202 0
M  V30 3842 C 357.633 1.83123 -0.363732 0
M  V30 3843 C 357.984 1.6205 1.10609 0
M  V30 3844 O 357.109 1.11606 1.854 0
M  V30 3845 C 357.704 3.32439 -0.653408 0
M  V30 3846 C 356.263 3.74974 -0.327338 0
M  V30 3847 C 355.41 2.61878 -0.911875 0
M  V30 3848 H 358.361 1.27852 -0.940191 0
M  V30 3849 H 358.382 3.80432 0.0720031 0
M  V30 3850 H 357.894 3.47745 -1.72323 0
M  V30 3851 H 355.995 3.65252 0.736314 0
M  V30 3852 H 356.108 4.72106 -0.815631 0
M  V30 3853 H 354.472 2.52448 -0.337944 0
M  V30 3854 H 355.255 2.79987 -1.98651 0
M  V30 3855 N 357.7 0.491464 1.49741 0
M  V30 3856 C 359.116 0.146835 1.58923 0
M  V30 3857 C 359.316 -1.34804 1.49767 0
M  V30 3858 O 358.372 -2.12317 1.36667 0
M  V30 3859 C 359.685 0.715157 2.92072 0
M  V30 3860 C 361.233 0.680407 3.05515 0
M  V30 3861 C 361.708 1.22663 4.41269 0
M  V30 3862 N 363.199 1.18691 4.47735 0
M  V30 3863 C 363.934 1.57984 5.51207 0
M  V30 3864 N 363.43 2.04824 6.6183 0
M  V30 3865 N 365.223 1.49459 5.41866 0
M  V30 3866 H 357.374 1.46347 1.53936 0
M  V30 3867 H 359.637 0.606453 0.728642 0
M  V30 3868 H 359.343 1.76317 3.04311 0
M  V30 3869 H 359.217 0.17018 3.76816 0
M  V30 3870 H 361.604 -0.358743 2.92911 0
M  V30 3871 H 361.685 1.26242 2.22478 0
M  V30 3872 H 361.329 2.26451 4.54623 0
M  V30 3873 H 361.259 0.620637 5.2293 0
M  V30 3874 H 363.75 0.843605 3.68364 0
M  V30 3875 H 364.063 2.32901 7.3687 0
M  V30 3876 H 362.408 2.08791 6.62896 0
M  V30 3877 H 365.599 1.12692 4.54333 0
M  V30 3878 H 365.772 1.80406 6.22381 0
M  V30 3879 N 359.178 -1.55987 0.224894 0
M  V30 3880 C 360.141 -2.19178 -0.670348 0
M  V30 3881 C 361.141 -1.15461 -1.11917 0
M  V30 3882 O 362.331 -1.40675 -1.02743 0
M  V30 3883 C 359.463 -2.81777 -1.9187 0
M  V30 3884 H 360.656 -2.99662 -0.119364 0
M  V30 3885 H 358.209 -1.5628 -0.0247128 0
M  V30 3886 H 358.944 -2.05172 -2.51147 0
M  V30 3887 H 358.729 -3.57732 -1.60531 0
M  V30 3888 H 360.219 -3.30205 -2.55645 0
M  V30 3889 N 360.656 0.0484629 -1.57525 0
M  V30 3890 C 361.933 0.777447 -1.79486 0
M  V30 3891 C 362.313 1.94597 -0.818251 0
M  V30 3892 O 361.661 2.28047 0.143767 0
M  V30 3893 C 361.871 1.22864 -3.26658 0
M  V30 3894 C 363.219 1.65251 -3.91123 0
M  V30 3895 O 364.243 1.32372 -3.3069 0
M  V30 3896 O 363.102 2.26207 -4.97486 0
M  V30 3897 H 360.196 0.374357 -0.737419 0
M  V30 3898 H 362.742 0.0267359 -1.69679 0
M  V30 3899 H 361.514 0.393589 -3.89316 0
M  V30 3900 H 361.137 2.03996 -3.41279 0
M  V30 3901 N 362.134 1.5431 0.320358 0
M  V30 3902 C 363.55 1.45091 0.664889 0
M  V30 3903 C 363.75 0.626382 1.91517 0
M  V30 3904 O 362.806 0.126443 2.52183 0
M  V30 3905 C 364.119 2.88848 0.83591 0
M  V30 3906 C 365.667 2.9877 0.933046 0
M  V30 3907 C 366.142 4.43683 1.13621 0
M  V30 3908 N 367.633 4.47309 1.20287 0
M  V30 3909 C 368.368 5.56595 1.37801 0
M  V30 3910 N 367.864 6.75844 1.52338 0
M  V30 3911 N 369.657 5.44248 1.40535 0
M  V30 3912 H 361.808 2.06398 -0.501374 0
M  V30 3913 H 364.071 0.933963 -0.162534 0
M  V30 3914 H 363.777 3.51698 -0.0116092 0
M  V30 3915 H 363.651 3.35148 1.73078 0
M  V30 3916 H 366.038 2.36045 1.77107 0
M  V30 3917 H 366.119 2.55796 0.0145782 0
M  V30 3918 H 365.763 5.06995 0.303032 0
M  V30 3919 H 365.693 4.84269 2.0686 0
M  V30 3920 H 368.184 3.61388 1.10485 0
M  V30 3921 H 368.497 7.54892 1.65403 0
M  V30 3922 H 366.842 6.78746 1.4943 0
M  V30 3923 H 370.033 4.50038 1.28777 0
M  V30 3924 H 370.206 6.29473 1.53842 0
M  V30 3925 N 363.613 -0.582584 1.46437 0
M  V30 3926 C 364.576 -1.67366 1.56592 0
M  V30 3927 C 365.576 -1.54575 0.443072 0
M  V30 3928 O 366.766 -1.59191 0.707381 0
M  V30 3929 C 363.898 -3.06791 1.48634 0
M  V30 3930 H 365.091 -1.5972 2.5383 0
M  V30 3931 H 362.644 -0.800432 1.34249 0
M  V30 3932 H 363.379 -3.19993 0.526763 0
M  V30 3933 H 363.164 -3.17484 2.30101 0
M  V30 3934 H 364.654 -3.86218 1.58826 0
M  V30 3935 N 365.091 -1.34144 -0.827227 0
M  V30 3936 C 366.054 -1.25264 -1.91942 0
M  V30 3937 C 367.054 -0.168866 -1.59911 0
M  V30 3938 O 368.244 -0.421198 -1.69031 0
M  V30 3939 C 365.376 -0.932952 -3.27885 0
M  V30 3940 H 366.569 -2.22357 -2.0124 0
M  V30 3941 H 364.122 -1.1837 -1.0207 0
M  V30 3942 H 364.857 0.0349917 -3.24281 0
M  V30 3943 H 364.642 -1.71682 -3.52516 0
M  V30 3944 H 366.132 -0.895874 -4.07877 0
M  V30 3945 N 366.569 1.04691 -1.17803 0
M  V30 3946 C 367.818 1.77176 -0.963931 0
M  V30 3947 C 368.131 1.88888 0.508015 0
M  V30 3948 O 369.337 2.58164 0.840465 0
M  V30 3949 C 367.793 3.18518 -1.67555 0
M  V30 3950 C 367.401 3.14919 -3.18637 0
M  V30 3951 C 369.145 3.95424 -1.54402 0
M  V30 3952 C 367.052 4.51081 -3.82466 0
M  V30 3953 H 365.982 0.664116 -0.357023 0
M  V30 3954 H 368.633 1.17303 -1.4111 0
M  V30 3955 H 367.015 3.78748 -1.15613 0
M  V30 3956 H 368.189 2.64178 -3.77554 0
M  V30 3957 H 366.504 2.51512 -3.31859 0
M  V30 3958 H 369.101 4.96106 -1.99456 0
M  V30 3959 H 369.444 4.13343 -0.495329 0
M  V30 3960 H 369.977 3.41754 -2.0359 0
M  V30 3961 H 366.716 4.38368 -4.87354 0
M  V30 3962 H 366.236 5.01951 -3.28337 0
M  V30 3963 H 367.915 5.2001 -3.84965 0
M  V30 3964 N 368.047 0.979072 1.23499 0
M  V30 3965 C 368.957 0.526431 2.28617 0
M  V30 3966 C 369.973 -0.418126 1.68901 0
M  V30 3967 O 371.149 -0.288372 1.99325 0
M  V30 3968 C 368.214 -0.165235 3.46306 0
M  V30 3969 C 367.275 0.82056 4.21385 0
M  V30 3970 C 366.508 0.161807 5.33455 0
M  V30 3971 O 366.731 -1.04742 5.60701 0
M  V30 3972 O 365.665 0.859708 5.95729 0
M  V30 3973 H 369.491 1.4006 2.69475 0
M  V30 3974 H 367.076 0.746643 1.29405 0
M  V30 3975 H 368.958 -0.553287 4.17752 0
M  V30 3976 H 367.633 -1.01419 3.07402 0
M  V30 3977 H 366.54 1.25929 3.52268 0
M  V30 3978 H 367.873 1.63828 4.64135 0
M  V30 3979 N 369.525 -1.3858 0.750561 0
M  V30 3980 C 370.455 -2.33102 0.136237 0
M  V30 3981 C 371.436 -1.54713 -0.706965 0
M  V30 3982 O 372.621 -1.83043 -0.648769 0
M  V30 3983 C 369.751 -3.38882 -0.760017 0
M  V30 3984 C 368.705 -4.27995 -0.0197785 0
M  V30 3985 C 368.031 -5.24605 -1.03408 0
M  V30 3986 C 369.331 -5.09554 1.14684 0
M  V30 3987 H 371.025 -2.84726 0.925822 0
M  V30 3988 H 368.571 -1.36898 0.446654 0
M  V30 3989 H 370.524 -4.0397 -1.19943 0
M  V30 3990 H 369.248 -2.85734 -1.58189 0
M  V30 3991 H 367.907 -3.64409 0.400184 0
M  V30 3992 H 367.555 -4.67746 -1.84994 0
M  V30 3993 H 367.255 -5.85081 -0.543464 0
M  V30 3994 H 368.779 -5.9257 -1.47288 0
M  V30 3995 H 370.193 -5.67899 0.785118 0
M  V30 3996 H 368.59 -5.7925 1.56812 0
M  V30 3997 H 369.66 -4.4347 1.96118 0
M  V30 3998 N 371.003 -0.499398 -1.49478 0
M  V30 3999 C 372.414 -0.051215 -1.8663 0
M  V30 4000 C 372.765 1.36238 -1.41186 0
M  V30 4001 O 371.89 2.01502 -0.789051 0
M  V30 4002 C 372.485 -0.0861651 -3.3869 0
M  V30 4003 C 371.044 0.30667 -3.75149 0
M  V30 4004 C 370.191 -0.459397 -2.73468 0
M  V30 4005 H 373.142 -0.712264 -1.41818 0
M  V30 4006 H 373.163 0.709507 -3.73826 0
M  V30 4007 H 372.675 -1.11512 -3.71735 0
M  V30 4008 H 370.776 1.33892 -3.47712 0
M  V30 4009 H 370.889 -0.0116669 -4.79099 0
M  V30 4010 H 369.253 0.0905645 -2.54539 0
M  V30 4011 H 370.036 -1.4884 -3.09357 0
M  V30 4012 N 372.481 1.55866 -0.233164 0
M  V30 4013 C 373.706 2.03449 0.402906 0
M  V30 4014 C 374.131 1.11166 1.51736 0
M  V30 4015 O 373.489 0.101996 1.81013 0
M  V30 4016 C 373.537 3.49165 0.9009 0
M  V30 4017 O 372.641 3.60019 2.01147 0
M  V30 4018 H 371.982 0.657913 0.0897025 0
M  V30 4019 H 374.512 2.01493 -0.355201 0
M  V30 4020 H 374.522 3.89716 1.2077 0
M  V30 4021 H 373.197 4.15813 0.0852889 0
M  V30 4022 H 371.774 3.3136 1.71042 0
M  V30 4023 N 373.959 -0.0401083 1.57549 0
M  V30 4024 C 374.889 -1.04384 2.08869 0
M  V30 4025 C 375.87 -1.38407 0.988817 0
M  V30 4026 O 377.055 -1.47483 1.26342 0
M  V30 4027 C 374.185 -2.34808 2.55895 0
M  V30 4028 C 373.139 -2.15057 3.70047 0
M  V30 4029 C 372.465 -3.51145 4.03239 0
M  V30 4030 C 373.765 -1.54576 4.98902 0
M  V30 4031 H 375.459 -0.616666 2.92981 0
M  V30 4032 H 373.005 -0.295184 1.40942 0
M  V30 4033 H 374.958 -3.05346 2.90417 0
M  V30 4034 H 373.682 -2.79565 1.68853 0
M  V30 4035 H 372.341 -1.46954 3.35857 0
M  V30 4036 H 371.989 -3.93529 3.13279 0
M  V30 4037 H 371.689 -3.38758 4.80122 0
M  V30 4038 H 373.213 -4.23062 4.40285 0
M  V30 4039 H 374.627 -2.15017 5.31451 0
M  V30 4040 H 373.024 -1.52796 5.80322 0
M  V30 4041 H 374.094 -0.51039 4.82206 0
M  V30 4042 N 375.437 -1.54477 -0.31217 0
M  V30 4043 C 376.347 -1.87695 -1.4074 0
M  V30 4044 C 377.363 -0.769975 -1.56036 0
M  V30 4045 O 378.539 -1.06537 -1.70915 0
M  V30 4046 C 375.604 -2.10755 -2.75287 0
M  V30 4047 C 374.665 -3.34514 -2.69071 0
M  V30 4048 C 373.898 -3.56465 -3.97201 0
M  V30 4049 O 374.121 -2.81637 -4.96021 0
M  V30 4050 O 373.055 -4.49964 -3.9977 0
M  V30 4051 H 376.881 -2.80849 -1.15574 0
M  V30 4052 H 374.466 -1.40526 -0.507228 0
M  V30 4053 H 376.348 -2.27188 -3.54913 0
M  V30 4054 H 375.023 -1.20788 -3.0032 0
M  V30 4055 H 373.93 -3.23456 -1.87955 0
M  V30 4056 H 375.263 -4.24575 -2.48992 0
M  V30 4057 N 376.915 0.57481 -1.46744 0
M  V30 4058 C 378.161 1.3347 -1.52688 0
M  V30 4059 C 378.494 1.93353 -0.181229 0
M  V30 4060 O 377.769 1.76912 0.808237 0
M  V30 4061 C 378.052 2.45811 -2.63152 0
M  V30 4062 C 377.905 1.90912 -4.07275 0
M  V30 4063 C 379.224 3.47822 -2.69644 0
M  V30 4064 H 376.343 0.483935 -0.555856 0
M  V30 4065 H 378.985 0.644968 -1.78718 0
M  V30 4066 H 377.135 3.04646 -2.41088 0
M  V30 4067 H 378.807 1.36473 -4.4065 0
M  V30 4068 H 377.05 1.21691 -4.16382 0
M  V30 4069 H 377.721 2.72042 -4.80309 0
M  V30 4070 H 380.197 2.9888 -2.895 0
M  V30 4071 H 379.073 4.23876 -3.48742 0
M  V30 4072 H 379.334 4.05555 -1.76005 0
M  V30 4073 N 378.394 1.34581 0.820102 0
M  V30 4074 C 379.324 1.29038 1.94606 0
M  V30 4075 C 380.305 0.1673 1.69275 0
M  V30 4076 O 381.49 0.360112 1.90832 0
M  V30 4077 C 378.62 1.04793 3.31113 0
M  V30 4078 C 377.574 2.13597 3.70891 0
M  V30 4079 C 376.9 1.74537 5.05412 0
M  V30 4080 C 378.2 3.55451 3.8269 0
M  V30 4081 H 379.894 2.23248 1.99501 0
M  V30 4082 H 377.44 1.0747 0.958449 0
M  V30 4083 H 379.393 0.995592 4.0947 0
M  V30 4084 H 378.117 0.0702565 3.26524 0
M  V30 4085 H 376.776 2.17905 2.9481 0
M  V30 4086 H 376.424 0.754226 4.97313 0
M  V30 4087 H 376.124 2.47361 5.32997 0
M  V30 4088 H 377.648 1.70803 5.86224 0
M  V30 4089 H 379.062 3.5354 4.51312 0
M  V30 4090 H 377.459 4.26922 4.21732 0
M  V30 4091 H 378.529 3.92587 2.84611 0
M  V30 4092 N 379.872 -1.04064 1.18357 0
M  V30 4093 C 381.097 -1.81454 1.00445 0
M  V30 4094 C 381.522 -1.82823 -0.442423 0
M  V30 4095 O 380.88 -1.24555 -1.31741 0
M  V30 4096 C 380.928 -3.24925 1.56384 0
M  V30 4097 O 380.032 -4.04856 0.785209 0
M  V30 4098 H 379.373 -0.560604 0.355835 0
M  V30 4099 H 381.903 -1.31059 1.57114 0
M  V30 4100 H 381.913 -3.75702 1.59097 0
M  V30 4101 H 380.588 -3.23244 2.61699 0
M  V30 4102 H 379.165 -3.63537 0.830399 0
M  V30 4103 N 381.35 -0.985608 -1.22978 0
M  V30 4104 C 382.627 -0.573599 -1.87001 0
M  V30 4105 C 383.007 0.949213 -1.88555 0
M  V30 4106 O 382.355 1.82811 -1.37086 0
M  V30 4107 C 382.565 -1.18564 -3.28243 0
M  V30 4108 C 383.913 -1.28163 -4.04796 0
M  V30 4109 O 384.937 -1.13949 -3.37482 0
M  V30 4110 O 383.796 -1.50832 -5.25273 0
M  V30 4111 H 380.89 -0.193868 -0.803955 0
M  V30 4112 H 383.436 -1.08102 -1.30813 0
M  V30 4113 H 382.208 -2.22758 -3.21706 0
M  V30 4114 H 381.831 -0.663363 -3.92027 0
M  V30 4115 N 382.828 1.3818 -0.7579 0
M  V30 4116 C 383.76 2.2901 -0.0932177 0
M  V30 4117 C 384.773 1.47958 0.679136 0
M  V30 4118 O 385.962 1.70773 0.519514 0
M  V30 4119 C 383.062 3.26953 0.89192 0
M  V30 4120 C 382.235 4.37045 0.176303 0
M  V30 4121 C 381.294 5.15148 1.07281 0
M  V30 4122 O 380.32 5.66616 0.541728 0
M  V30 4123 N 381.522 5.28542 2.40049 0
M  V30 4124 H 384.287 2.86694 -0.873303 0
M  V30 4125 H 381.848 1.50007 -0.609054 0
M  V30 4126 H 383.84 3.76083 1.49479 0
M  V30 4127 H 382.41 2.70136 1.57306 0
M  V30 4128 H 381.63 3.89493 -0.607328 0
M  V30 4129 H 382.918 5.07801 -0.318718 0
M  V30 4130 H 382.316 4.88285 2.85647 0
M  V30 4131 H 380.873 5.8103 2.95376 0
M  V30 4132 N 384.306 0.507319 1.49211 0
M  V30 4133 C 385.216 -0.272136 2.33016 0
M  V30 4134 C 386.232 -0.961206 1.45041 0
M  V30 4135 O 387.408 -0.941191 1.78055 0
M  V30 4136 C 384.473 -1.31895 3.20631 0
M  V30 4137 C 383.534 -0.642648 4.24463 0
M  V30 4138 C 382.767 -1.63959 5.07891 0
M  V30 4139 O 382.99 -2.87007 4.92933 0
M  V30 4140 O 381.924 -1.19143 5.8999 0
M  V30 4141 H 385.75 0.413982 3.00865 0
M  V30 4142 H 383.335 0.268556 1.46966 0
M  V30 4143 H 385.217 -1.92446 3.7489 0
M  V30 4144 H 383.892 -1.98788 2.5547 0
M  V30 4145 H 382.799 0.00276252 3.741 0
M  V30 4146 H 384.132 -0.0160534 4.92197 0
M  V30 4147 N 385.784 -1.5574 0.241426 0
M  V30 4148 C 386.694 -2.2479 -0.671305 0
M  V30 4149 C 387.71 -1.26217 -1.19772 0
M  V30 4150 O 388.886 -1.59079 -1.23514 0
M  V30 4151 C 385.951 -2.92966 -1.85396 0
M  V30 4152 C 385.012 -4.06935 -1.36756 0
M  V30 4153 C 384.245 -4.71851 -2.49384 0
M  V30 4154 O 384.468 -4.35823 -3.67987 0
M  V30 4155 O 383.402 -5.60467 -2.19454 0
M  V30 4156 H 387.228 -3.0349 -0.112966 0
M  V30 4157 H 384.813 -1.49397 0.0101513 0
M  V30 4158 H 386.695 -3.35927 -2.54423 0
M  V30 4159 H 385.37 -2.17211 -2.40002 0
M  V30 4160 H 384.277 -3.68503 -0.644726 0
M  V30 4161 H 385.61 -4.84492 -0.867647 0
M  V30 4162 N 387.262 0.0317525 -1.57568 0
M  V30 4163 C 388.539 0.758366 -1.803 0
M  V30 4164 C 388.919 1.93718 -0.838845 0
M  V30 4165 O 388.267 2.28187 0.119571 0
M  V30 4166 C 388.477 1.19392 -3.27943 0
M  V30 4167 C 389.825 1.61094 -3.92854 0
M  V30 4168 O 390.849 1.28857 -3.32076 0
M  V30 4169 O 389.708 2.20918 -4.99858 0
M  V30 4170 H 386.802 0.366514 -0.741348 0
M  V30 4171 H 389.348 0.00873765 -1.69698 0
M  V30 4172 H 388.12 0.352275 -3.89711 0
M  V30 4173 H 387.743 2.00365 -3.43424 0
M  V30 4174 N 388.74 1.54641 0.303973 0
M  V30 4175 C 390.156 1.45788 0.649463 0
M  V30 4176 C 390.356 0.64666 1.90842 0
M  V30 4177 O 389.412 0.153183 2.52035 0
M  V30 4178 C 390.725 2.89718 0.805227 0
M  V30 4179 C 392.273 2.99742 0.901305 0
M  V30 4180 C 392.748 4.44863 1.08909 0
M  V30 4181 N 394.239 4.48559 1.15536 0
M  V30 4182 C 394.974 5.58026 1.3189 0
M  V30 4183 N 394.47 6.77422 1.45161 0
M  V30 4184 N 396.263 5.45708 1.34755 0
M  V30 4185 H 388.414 2.05854 -0.523237 0
M  V30 4186 H 390.677 0.932186 -0.172431 0
M  V30 4187 H 390.383 3.51666 -0.0489108 0
M  V30 4188 H 390.257 3.36964 1.69513 0
M  V30 4189 H 392.644 2.3791 1.74593 0
M  V30 4190 H 392.725 2.55797 -0.0125531 0
M  V30 4191 H 392.369 5.07288 0.249241 0
M  V30 4192 H 392.299 4.86436 2.01713 0
M  V30 4193 H 394.79 3.6254 1.06646 0
M  V30 4194 H 395.103 7.56604 1.57387 0
M  V30 4195 H 393.448 6.80292 1.42223 0
M  V30 4196 H 396.639 4.51378 1.23996 0
M  V30 4197 H 396.812 6.3107 1.47157 0
M  V30 4198 N 390.218 -0.567019 1.47046 0
M  V30 4199 C 391.128 -1.70247 1.6141 0
M  V30 4200 C 392.144 -1.66746 0.497157 0
M  V30 4201 O 393.32 -1.86371 0.763389 0
M  V30 4202 C 390.385 -3.06756 1.61561 0
M  V30 4203 C 389.446 -3.21399 2.84607 0
M  V30 4204 C 388.679 -4.51396 2.84741 0
M  V30 4205 O 388.902 -5.36255 1.94388 0
M  V30 4206 O 387.836 -4.69621 3.76483 0
M  V30 4207 H 391.662 -1.61073 2.57467 0
M  V30 4208 H 389.247 -0.735894 1.30019 0
M  V30 4209 H 391.129 -3.8801 1.64396 0
M  V30 4210 H 389.804 -3.16333 0.686684 0
M  V30 4211 H 388.711 -2.39579 2.8732 0
M  V30 4212 H 390.044 -3.16721 3.76761 0
M  V30 4213 N 391.696 -1.35014 -0.812953 0
M  V30 4214 C 392.628 -1.23262 -1.93233 0
M  V30 4215 C 393.641 -0.157371 -1.62038 0
M  V30 4216 O 394.83 -0.410096 -1.73725 0
M  V30 4217 C 391.93 -0.87392 -3.27438 0
M  V30 4218 C 391.103 -2.04622 -3.86586 0
M  V30 4219 C 390.162 -1.66432 -4.99186 0
M  V30 4220 O 389.188 -2.38222 -5.16951 0
M  V30 4221 N 390.39 -0.584248 -5.77552 0
M  V30 4222 H 393.155 -2.19699 -2.03844 0
M  V30 4223 H 390.716 -1.281 -0.99005 0
M  V30 4224 H 392.708 -0.600039 -4.00227 0
M  V30 4225 H 391.278 0.00057392 -3.126 0
M  V30 4226 H 390.498 -2.48427 -3.06068 0
M  V30 4227 H 391.786 -2.82999 -4.22835 0
M  V30 4228 H 391.184 0.0123526 -5.65699 0
M  V30 4229 H 389.741 -0.37013 -6.50748 0
M  V30 4230 N 393.175 1.03435 -1.18907 0
M  V30 4231 C 394.415 1.78302 -0.999391 0
M  V30 4232 C 394.779 1.86353 0.462219 0
M  V30 4233 O 395.98 2.57489 0.771543 0
M  V30 4234 C 394.251 3.17362 -1.64365 0
M  V30 4235 S 395.81 4.08488 -1.6026 0
M  V30 4236 H 392.628 0.613861 -0.358742 0
M  V30 4237 H 395.23 1.23979 -1.51161 0
M  V30 4238 H 393.934 3.09116 -2.69955 0
M  V30 4239 H 393.465 3.76762 -1.13199 0
M  V30 4240 H 395.48 4.92274 -0.622932 0
M  V30 4241 N 394.653 0.992116 1.22453 0
M  V30 4242 C 395.901 0.666215 1.90804 0
M  V30 4243 C 396.222 -0.804152 1.77647 0
M  V30 4244 O 395.492 -1.57629 1.16318 0
M  V30 4245 H 394.072 0.243423 0.706225 0
M  V30 4246 H 396.734 1.25845 1.48825 0
M  V30 4247 H 395.83 0.928069 2.97982 0
M  V30 4248 N 396.131 -1.37776 0.765217 0
M  V30 4249 C 397.377 -2.00145 0.327072 0
M  V30 4250 C 397.71 -1.60607 -1.09175 0
M  V30 4251 O 396.985 -0.849127 -1.74986 0
M  V30 4252 C 397.268 -3.57109 0.46319 0
M  V30 4253 C 397.121 -4.06576 1.92395 0
M  V30 4254 C 398.44 -4.39888 -0.136473 0
M  V30 4255 H 395.559 -0.727113 0.120316 0
M  V30 4256 H 398.201 -1.63549 0.967039 0
M  V30 4257 H 396.351 -3.88414 -0.0816358 0
M  V30 4258 H 398.023 -3.85864 2.52798 0
M  V30 4259 H 396.266 -3.59011 2.43503 0
M  V30 4260 H 396.937 -5.15639 1.97028 0
M  V30 4261 H 399.413 -4.14803 0.328317 0
M  V30 4262 H 398.289 -5.48899 -0.0110582 0
M  V30 4263 H 398.55 -4.24758 -1.22608 0
M  V30 4264 N 397.609 -0.515225 -1.4894 0
M  V30 4265 C 398.556 0.255567 -2.29381 0
M  V30 4266 C 399.526 0.947387 -1.36432 0
M  V30 4267 O 400.711 0.951288 -1.65394 0
M  V30 4268 C 397.851 1.30551 -3.19453 0
M  V30 4269 C 396.964 0.624029 -4.27469 0
M  V30 4270 C 396.099 1.65563 -5.0474 0
M  V30 4271 C 395.138 0.956802 -6.04576 0
M  V30 4272 N 394.275 1.93326 -6.74959 0
M  V30 4273 H 399.115 -0.436607 -2.94784 0
M  V30 4274 H 396.652 -0.227154 -1.45336 0
M  V30 4275 H 398.61 1.92639 -3.70062 0
M  V30 4276 H 397.24 1.96626 -2.56004 0
M  V30 4277 H 396.292 -0.110459 -3.8024 0
M  V30 4278 H 397.604 0.0746092 -4.98744 0
M  V30 4279 H 396.758 2.35119 -5.59289 0
M  V30 4280 H 395.497 2.23893 -4.3327 0
M  V30 4281 H 394.502 0.247097 -5.49244 0
M  V30 4282 H 395.727 0.379814 -6.78037 0
M  V30 4283 H 393.673 2.50591 -6.06251 0
M  V30 4284 H 393.59 1.43489 -7.42258 0
M  V30 4285 H 394.858 2.62126 -7.34105 0
M  V30 4286 N 399.087 1.5561 -0.249682 0
M  V30 4287 C 400.035 2.22894 0.664906 0
M  V30 4288 C 401.029 1.21743 1.17792 0
M  V30 4289 O 402.235 1.39748 1.13449 0
M  V30 4290 H 398.61 0.715022 0.232912 0
M  V30 4291 H 400.581 2.98307 0.0742998 0
M  V30 4292 C 399.33 2.94424 1.84959 0
M  V30 4293 H 398.653 3.72031 1.46399 0
M  V30 4294 H 400.093 3.44862 2.4667 0
M  V30 4295 C 398.552 1.98454 2.72245 0
M  V30 4296 O 399.082 1.51939 3.71857 0
M  V30 4297 N 397.288 1.65496 2.38871 0
M  V30 4298 H 396.835 2.03517 1.57919 0
M  V30 4299 H 396.793 1.0155 2.97548 0
M  V30 4300 N 400.565 -0.0233959 1.57583 0
M  V30 4301 C 401.842 -0.748794 1.807 0
M  V30 4302 C 402.222 -1.9327 0.849106 0
M  V30 4303 O 401.57 -2.28247 -0.107468 0
M  V30 4304 C 401.78 -1.17651 3.28571 0
M  V30 4305 C 403.128 -1.59008 3.93702 0
M  V30 4306 O 404.152 -1.27094 3.32755 0
M  V30 4307 O 403.011 -2.18264 5.01022 0
M  V30 4308 H 400.105 -0.362578 0.743281 0
M  V30 4309 H 402.651 0.000261958 1.697 0
M  V30 4310 H 401.423 -0.331603 3.89892 0
M  V30 4311 H 401.046 -1.98541 3.44481 0
M  V30 4312 N 402.043 -1.548 -0.295768 0
M  V30 4313 C 402.953 -1.89177 -1.38742 0
M  V30 4314 C 403.969 -0.786481 -1.55211 0
M  V30 4315 O 405.145 -1.08344 -1.69775 0
M  V30 4316 C 402.21 -2.13663 -2.73036 0
M  V30 4317 C 401.271 -3.37349 -2.65508 0
M  V30 4318 C 400.504 -3.60658 -3.93398 0
M  V30 4319 O 400.727 -2.86882 -4.93006 0
M  V30 4320 O 399.661 -4.54179 -3.94975 0
M  V30 4321 H 403.487 -2.82059 -1.12589 0
M  V30 4322 H 401.072 -1.41056 -0.492295 0
M  V30 4323 H 402.954 -2.3094 -3.52484 0
M  V30 4324 H 401.629 -1.23967 -2.99022 0
M  V30 4325 H 400.536 -3.25431 -1.84514 0
M  V30 4326 H 401.869 -4.27192 -2.44474 0
M  V30 4327 N 403.521 0.559213 -1.47345 0
M  V30 4328 C 404.746 1.34676 -1.57725 0
M  V30 4329 C 405.171 1.86723 -0.227164 0
M  V30 4330 O 404.529 1.6286 0.796642 0
M  V30 4331 C 404.577 2.49399 -2.60447 0
M  V30 4332 O 403.681 3.51567 -2.15578 0
M  V30 4333 H 403.022 0.400115 -0.52991 0
M  V30 4334 H 405.552 0.676009 -1.93109 0
M  V30 4335 H 405.562 2.95996 -2.80803 0
M  V30 4336 H 404.237 2.10873 -3.58477 0
M  V30 4337 H 402.814 3.11289 -2.05313 0
M  V30 4338 N 404.999 1.35443 0.805782 0
M  V30 4339 C 406.224 1.32037 1.59941 0
M  V30 4340 C 406.649 -0.0994215 1.87837 0
M  V30 4341 O 406.007 -1.06648 1.46615 0
M  V30 4342 C 406.055 2.13354 2.90711 0
M  V30 4343 O 405.159 1.5148 3.83572 0
M  V30 4344 H 404.5 0.452666 0.485787 0
M  V30 4345 H 407.03 1.78496 1.00002 0
M  V30 4346 H 407.04 2.25338 3.40128 0
M  V30 4347 H 405.715 3.16572 2.69732 0
M  V30 4348 H 404.292 1.4834 3.42125 0
M  V30 4349 N 406.477 -1.02803 1.19454 0
M  V30 4350 C 407.702 -1.80378 1.02364 0
M  V30 4351 C 408.127 -1.83282 -0.423007 0
M  V30 4352 O 407.485 -1.25945 -1.30413 0
M  V30 4353 C 407.533 -3.23248 1.59821 0
M  V30 4354 O 406.637 -4.04 0.828105 0
M  V30 4355 H 405.978 -0.556799 0.361761 0
M  V30 4356 H 408.508 -1.29385 1.58495 0
M  V30 4357 H 408.518 -3.73994 1.63073 0
M  V30 4358 H 407.193 -3.2045 2.65113 0
M  V30 4359 H 405.77 -3.62635 0.86891 0
M  V30 4360 N 407.956 -0.998596 -1.21925 0
M  V30 4361 C 409.181 -0.696015 -1.95372 0
M  V30 4362 C 409.606 0.733826 -1.73195 0
M  V30 4363 O 408.964 1.50242 -1.01474 0
M  V30 4364 C 409.012 -1.01466 -3.4603 0
M  V30 4365 O 408.116 -0.116415 -4.12236 0
M  V30 4366 H 407.457 -0.259938 -0.611006 0
M  V30 4367 H 409.987 -1.33711 -1.54863 0
M  V30 4368 H 409.997 -0.958855 -3.96573 0
M  V30 4369 H 408.672 -2.05653 -3.61497 0
M  V30 4370 H 407.249 -0.228193 -3.72201 0
M  V30 4371 N 409.434 1.37368 -0.772513 0
M  V30 4372 C 410.659 2.0447 -0.347386 0
M  V30 4373 C 411.084 1.57882 1.0225 0
M  V30 4374 O 410.442 0.73941 1.65537 0
M  V30 4375 C 410.49 3.58369 -0.400479 0
M  V30 4376 O 409.594 4.0803 0.598789 0
M  V30 4377 H 408.935 0.646773 -0.15027 0
M  V30 4378 H 411.465 1.75667 -1.04892 0
M  V30 4379 H 411.475 4.07183 -0.258045 0
M  V30 4380 H 410.15 3.91633 -1.39986 0
M  V30 4381 H 408.727 3.70534 0.419411 0
M  V30 4382 N 410.912 0.523116 1.48665 0
M  V30 4383 C 412.161 -0.01544 2.01694 0
M  V30 4384 C 412.474 -1.35975 1.40606 0
M  V30 4385 O 413.68 -1.98627 1.85093 0
M  V30 4386 C 412.136 -0.0779303 3.59816 0
M  V30 4387 C 411.744 1.26107 4.29885 0
M  V30 4388 C 413.488 -0.565678 4.20714 0
M  V30 4389 C 411.395 1.15954 5.79921 0
M  V30 4390 H 410.325 -0.00954163 0.75394 0
M  V30 4391 H 412.976 0.665865 1.70993 0
M  V30 4392 H 411.358 -0.824165 3.87329 0
M  V30 4393 H 412.532 2.02233 4.14051 0
M  V30 4394 H 410.847 1.68401 3.80828 0
M  V30 4395 H 413.444 -0.6595 5.30617 0
M  V30 4396 H 413.787 -1.56984 3.85567 0
M  V30 4397 H 414.32 0.12467 3.97605 0
M  V30 4398 H 411.059 2.13864 6.19631 0
M  V30 4399 H 410.579 0.439529 5.98187 0
M  V30 4400 H 412.258 0.847361 6.41427 0
M  V30 4401 N 412.39 -1.55475 0.257931 0
M  V30 4402 C 413.639 -1.98383 -0.364275 0
M  V30 4403 C 413.952 -1.14952 -1.58258 0
M  V30 4404 O 415.158 -1.47924 -2.27664 0
M  V30 4405 C 413.614 -3.53037 -0.699479 0
M  V30 4406 C 413.222 -4.45223 0.498046 0
M  V30 4407 C 414.966 -4.04575 -1.28526 0
M  V30 4408 C 412.873 -5.91238 0.138383 0
M  V30 4409 H 411.803 -0.740911 -0.13988 0
M  V30 4410 H 414.454 -1.79936 0.359883 0
M  V30 4411 H 412.836 -3.6722 -1.48207 0
M  V30 4412 H 414.01 -4.42803 1.27522 0
M  V30 4413 H 412.325 -4.04226 0.999503 0
M  V30 4414 H 414.922 -5.11196 -1.56788 0
M  V30 4415 H 415.265 -3.5258 -2.21344 0
M  V30 4416 H 415.798 -3.93762 -0.565337 0
M  V30 4417 H 412.537 -6.47294 1.03398 0
M  V30 4418 H 412.057 -5.96768 -0.602374 0
M  V30 4419 H 413.736 -6.46413 -0.27553 0
M  V30 4420 N 413.868 0.0150385 -1.57593 0
M  V30 4421 C 415.115 0.703001 -1.89906 0
M  V30 4422 C 415.443 1.74604 -0.856944 0
M  V30 4423 O 414.698 1.95197 0.140287 0
M  V30 4424 C 414.997 1.39686 -3.28972 0
M  V30 4425 C 414.663 0.488457 -4.48246 0
M  V30 4426 C 413.325 0.2383 -4.8061 0
M  V30 4427 C 415.677 -0.137881 -5.21018 0
M  V30 4428 C 413.005 -0.646738 -5.83125 0
M  V30 4429 C 415.357 -1.0107 -6.24474 0
M  V30 4430 C 414.021 -1.27019 -6.55303 0
M  V30 4431 H 413.291 0.257246 -0.694914 0
M  V30 4432 H 415.938 -0.037259 -1.91464 0
M  V30 4433 H 414.243 2.21079 -3.23468 0
M  V30 4434 H 415.94 1.93495 -3.51227 0
M  V30 4435 H 412.53 0.693593 -4.22951 0
M  V30 4436 H 416.714 0.0423953 -4.96282 0
M  V30 4437 H 411.97 -0.855937 -6.05379 0
M  V30 4438 H 416.144 -1.50247 -6.79999 0
M  V30 4439 H 413.771 -1.95769 -7.3456 0
M  V30 4440 N 415.346 1.54954 0.287554 0
M  V30 4441 C 416.309 1.86076 1.33823 0
M  V30 4442 C 417.309 0.734414 1.43049 0
M  V30 4443 O 418.499 1.00266 1.42452 0
M  V30 4444 C 415.631 2.05305 2.72144 0
M  V30 4445 H 416.824 2.79984 1.07465 0
M  V30 4446 H 414.377 1.47223 0.524902 0
M  V30 4447 H 415.112 1.1373 3.03704 0
M  V30 4448 H 414.897 2.873 2.66836 0
M  V30 4449 H 416.387 2.30706 3.48087 0
M  V30 4450 N 416.824 -0.551391 1.4764 0
M  V30 4451 C 417.734 -1.68525 1.63207 0
M  V30 4452 C 418.75 -1.6621 0.514815 0
M  V30 4453 O 419.926 -1.85551 0.783113 0
M  V30 4454 C 416.991 -3.05025 1.64805 0
M  V30 4455 C 416.052 -3.18362 2.88 0
M  V30 4456 C 415.285 -4.4835 2.89513 0
M  V30 4457 O 415.508 -5.34163 2.00065 0
M  V30 4458 O 414.442 -4.65602 3.81443 0
M  V30 4459 H 418.268 -1.58333 2.59161 0
M  V30 4460 H 415.853 -0.722063 1.30792 0
M  V30 4461 H 417.735 -3.86245 1.68502 0
M  V30 4462 H 416.41 -3.15587 0.720197 0
M  V30 4463 H 415.317 -2.36518 2.89845 0
M  V30 4464 H 416.65 -3.12707 3.80099 0
M  V30 4465 N 418.302 -1.35869 -0.798587 0
M  V30 4466 C 419.713 -1.26498 -1.37314 0
M  V30 4467 C 420.064 0.0991899 -1.95949 0
M  V30 4468 O 419.189 1.0004 -1.91888 0
M  V30 4469 C 419.784 -2.29054 -2.49639 0
M  V30 4470 C 418.343 -2.234 -3.02935 0
M  V30 4471 C 417.49 -2.14329 -1.75949 0
M  V30 4472 H 420.441 -1.46881 -0.600971 0
M  V30 4473 H 420.462 -1.92166 -3.28409 0
M  V30 4474 H 419.974 -3.2833 -2.06933 0
M  V30 4475 H 418.075 -1.27562 -3.50084 0
M  V30 4476 H 418.188 -3.15703 -3.60372 0
M  V30 4477 H 416.552 -1.60435 -1.9782 0
M  V30 4478 H 417.335 -3.15477 -1.35384 0
M  V30 4479 N 419.78 1.02168 -1.19998 0
M  V30 4480 C 421.008 1.79296 -1.03249 0
M  V30 4481 C 421.423 1.84103 0.418502 0
M  V30 4482 O 420.78 1.29031 1.29063 0
M  V30 4483 C 420.831 3.24007 -1.60319 0
M  V30 4484 O 420.552 3.19512 -2.99739 0
M  V30 4485 C 422.053 4.17704 -1.48453 0
M  V30 4486 H 419.273 0.564016 -0.363493 0
M  V30 4487 H 421.817 1.28639 -1.58973 0
M  V30 4488 H 419.972 3.7183 -1.08727 0
M  V30 4489 H 420.386 4.10306 -3.26725 0
M  V30 4490 H 421.86 5.17104 -1.93153 0
M  V30 4491 H 422.337 4.37029 -0.436193 0
M  V30 4492 H 422.943 3.7576 -1.99211 0
M  V30 4493 N 421.258 1.00505 1.21394 0
M  V30 4494 C 422.669 0.721082 1.72213 0
M  V30 4495 C 423.02 -0.761263 1.80829 0
M  V30 4496 O 422.145 -1.59464 1.46288 0
M  V30 4497 C 422.74 1.30228 3.12772 0
M  V30 4498 C 421.299 1.06743 3.60947 0
M  V30 4499 C 420.446 1.41507 2.38477 0
M  V30 4500 H 423.397 1.17594 1.06571 0
M  V30 4501 H 423.418 0.686955 3.74247 0
M  V30 4502 H 422.93 2.38115 3.06468 0
M  V30 4503 H 421.031 0.00572162 3.726 0
M  V30 4504 H 421.144 1.73936 4.46411 0
M  V30 4505 H 419.508 0.833852 2.40664 0
M  V30 4506 H 420.291 2.50424 2.34824 0
M  V30 4507 N 422.737 -1.36956 0.779787 0
M  V30 4508 C 423.647 -2.33965 0.172491 0
M  V30 4509 C 424.663 -1.60574 -0.670222 0
M  V30 4510 O 425.839 -1.92617 -0.588263 0
M  V30 4511 C 422.904 -3.39761 -0.690173 0
M  V30 4512 C 421.965 -4.28964 0.169924 0
M  V30 4513 C 421.198 -5.29707 -0.651662 0
M  V30 4514 O 421.421 -5.38238 -1.88827 0
M  V30 4515 O 420.355 -6.01873 -0.0566264 0
M  V30 4516 H 424.181 -2.87647 0.974321 0
M  V30 4517 H 421.766 -1.39258 0.541078 0
M  V30 4518 H 423.648 -4.04471 -1.1824 0
M  V30 4519 H 422.323 -2.88394 -1.47006 0
M  V30 4520 H 421.23 -3.67326 0.708696 0
M  V30 4521 H 422.563 -4.83656 0.913085 0
M  V30 4522 N 424.215 -0.530993 -1.48385 0
M  V30 4523 C 425.162 0.231223 -2.29639 0
M  V30 4524 C 426.132 0.932864 -1.37429 0
M  V30 4525 O 427.317 0.933692 -1.66394 0
M  V30 4526 C 424.457 1.27155 -3.2082 0
M  V30 4527 C 423.57 0.578655 -4.28107 0
M  V30 4528 C 422.705 1.602 -5.06467 0
M  V30 4529 C 421.744 0.892625 -6.05556 0
M  V30 4530 N 420.881 1.86157 -6.76971 0
M  V30 4531 H 425.721 -0.467848 -2.94305 0
M  V30 4532 H 423.258 -0.242556 -1.45086 0
M  V30 4533 H 425.216 1.88703 -3.72085 0
M  V30 4534 H 423.846 1.939 -2.58075 0
M  V30 4535 H 422.898 -0.150782 -3.80101 0
M  V30 4536 H 424.21 0.0217065 -4.98795 0
M  V30 4537 H 423.364 2.29173 -5.61751 0
M  V30 4538 H 422.103 2.19285 -4.35621 0
M  V30 4539 H 421.108 0.188829 -5.49476 0
M  V30 4540 H 422.333 0.307878 -6.78402 0
M  V30 4541 H 420.279 2.44147 -6.08875 0
M  V30 4542 H 420.196 1.35608 -7.43738 0
M  V30 4543 H 421.464 2.54325 -7.36844 0
M  V30 4544 N 425.693 1.55336 -0.266172 0
M  V30 4545 C 426.603 2.2583 0.635458 0
M  V30 4546 C 427.619 1.28106 1.17749 0
M  V30 4547 O 428.795 1.61024 1.20968 0
M  V30 4548 C 425.86 2.95879 1.80712 0
M  V30 4549 C 424.921 4.09059 1.30265 0
M  V30 4550 C 424.154 4.75759 2.41846 0
M  V30 4551 O 424.377 4.41622 3.61007 0
M  V30 4552 O 423.311 5.63888 2.1051 0
M  V30 4553 H 427.137 3.03631 0.0646693 0
M  V30 4554 H 424.722 1.49361 -0.0339177 0
M  V30 4555 H 426.604 3.39932 2.49047 0
M  V30 4556 H 425.279 2.21002 2.36516 0
M  V30 4557 H 424.186 3.69482 0.586019 0
M  V30 4558 H 425.519 4.85811 0.790458 0
M  V30 4559 N 427.171 -0.0066808 1.57599 0
M  V30 4560 C 428.118 -1.00024 2.08 0
M  V30 4561 C 429.088 -1.34549 0.973943 0
M  V30 4562 O 430.273 -1.44502 1.24595 0
M  V30 4563 C 427.413 -2.2891 2.58252 0
M  V30 4564 C 426.526 -2.00346 3.82734 0
M  V30 4565 C 425.661 -3.23265 4.21513 0
M  V30 4566 C 424.7 -2.90357 5.3885 0
M  V30 4567 N 423.837 -4.05793 5.72954 0
M  V30 4568 H 428.677 -0.563499 2.92624 0
M  V30 4569 H 426.214 -0.266592 1.44664 0
M  V30 4570 H 428.172 -3.04247 2.85464 0
M  V30 4571 H 426.802 -2.70265 1.76512 0
M  V30 4572 H 425.854 -1.15406 3.62471 0
M  V30 4573 H 427.166 -1.72086 4.68175 0
M  V30 4574 H 426.32 -4.06953 4.49971 0
M  V30 4575 H 425.059 -3.54657 3.34768 0
M  V30 4576 H 424.064 -2.05075 5.10122 0
M  V30 4577 H 425.289 -2.60219 6.27266 0
M  V30 4578 H 423.235 -4.37094 4.89167 0
M  V30 4579 H 423.152 -3.81034 6.52954 0
M  V30 4580 H 424.42 -4.90289 6.06001 0
M  V30 4581 N 428.649 -1.55105 -0.279332 0
M  V30 4582 C 430.065 -1.46803 -0.626187 0
M  V30 4583 C 430.265 -0.676939 -1.89789 0
M  V30 4584 O 429.321 -0.19326 -2.51759 0
M  V30 4585 C 430.634 -2.90962 -0.759034 0
M  V30 4586 C 432.182 -3.01138 -0.853504 0
M  V30 4587 C 432.657 -4.46539 -1.01818 0
M  V30 4588 N 434.148 -4.50341 -1.08386 0
M  V30 4589 C 434.883 -5.60053 -1.22996 0
M  V30 4590 N 434.379 -6.79645 -1.34366 0
M  V30 4591 N 436.172 -5.47783 -1.26056 0
M  V30 4592 H 428.323 -2.04996 0.555921 0
M  V30 4593 H 430.586 -0.929325 0.187239 0
M  V30 4594 H 430.292 -3.51544 0.104852 0
M  V30 4595 H 430.166 -3.39619 -1.64131 0
M  V30 4596 H 432.553 -2.40658 -1.70786 0
M  V30 4597 H 432.634 -2.55745 0.0532466 0
M  V30 4598 H 432.278 -5.0762 -0.168504 0
M  V30 4599 H 432.208 -4.89583 -1.93948 0
M  V30 4600 H 434.699 -3.64191 -1.00864 0
M  V30 4601 H 435.012 -7.59012 -1.4533 0
M  V30 4602 H 433.357 -6.82469 -1.31382 0
M  V30 4603 H 436.548 -4.53294 -1.168 0
M  V30 4604 H 436.721 -6.33331 -1.37098 0
M  V30 4605 N 430.127 0.543554 -1.4793 0
M  V30 4606 C 431.374 1.30008 -1.55255 0
M  V30 4607 C 431.702 1.93245 -0.220612 0
M  V30 4608 O 430.957 1.79141 0.787843 0
M  V30 4609 C 431.256 2.42078 -2.62932 0
M  V30 4610 C 430.922 1.96583 -4.0579 0
M  V30 4611 C 429.584 1.83893 -4.44676 0
M  V30 4612 C 431.936 1.62034 -4.95373 0
M  V30 4613 C 429.264 1.34969 -5.70964 0
M  V30 4614 C 431.616 1.14577 -6.22137 0
M  V30 4615 C 430.28 1.00493 -6.59892 0
M  V30 4616 H 429.55 0.475735 -0.568117 0
M  V30 4617 H 432.197 0.608075 -1.81589 0
M  V30 4618 H 430.502 3.16892 -2.30406 0
M  V30 4619 H 432.199 3.00236 -2.65818 0
M  V30 4620 H 428.789 2.07407 -3.75074 0
M  V30 4621 H 432.973 1.70705 -4.66019 0
M  V30 4622 H 428.229 1.2274 -5.98953 0
M  V30 4623 H 432.403 0.869109 -6.90955 0
M  V30 4624 H 430.03 0.623624 -7.57638 0
M  V30 4625 N 431.605 1.3629 0.791371 0
M  V30 4626 C 432.853 1.30154 1.5461 0
M  V30 4627 C 433.174 -0.119409 1.94634 0
M  V30 4628 O 432.444 -1.05924 1.64794 0
M  V30 4629 H 431.024 0.478784 0.573389 0
M  V30 4630 H 433.686 1.70565 0.94306 0
M  V30 4631 H 432.782 1.92762 2.45457 0
M  V30 4632 N 433.083 -1.0153 1.20538 0
M  V30 4633 C 433.993 -2.13557 0.971113 0
M  V30 4634 C 435.009 -1.73845 -0.0734366 0
M  V30 4635 O 436.185 -2.01075 0.114299 0
M  V30 4636 C 433.25 -3.42661 0.527639 0
M  V30 4637 C 432.311 -3.96608 1.64319 0
M  V30 4638 C 431.544 -5.1955 1.22078 0
M  V30 4639 O 431.767 -5.70329 0.0900198 0
M  V30 4640 O 430.701 -5.66681 2.02871 0
M  V30 4641 H 434.527 -2.3619 1.90913 0
M  V30 4642 H 432.112 -1.11946 0.989362 0
M  V30 4643 H 433.994 -4.20404 0.289621 0
M  V30 4644 H 432.669 -3.21441 -0.381779 0
M  V30 4645 H 431.576 -3.20139 1.93551 0
M  V30 4646 H 432.909 -4.22219 2.52966 0
M  V30 4647 N 434.561 -1.01147 -1.20859 0
M  V30 4648 C 435.786 -0.716698 -1.94623 0
M  V30 4649 C 436.211 0.715415 -1.73964 0
M  V30 4650 O 435.569 1.49157 -1.03062 0
M  V30 4651 C 435.617 -1.0513 -3.44935 0
M  V30 4652 O 434.721 -0.160131 -4.12089 0
M  V30 4653 H 434.062 -0.266404 -0.608214 0
M  V30 4654 H 436.592 -1.35346 -1.53436 0
M  V30 4655 H 436.602 -1.00086 -3.95533 0
M  V30 4656 H 435.277 -2.09475 -3.59295 0
M  V30 4657 H 433.854 -0.267657 -3.71938 0
M  V30 4658 N 436.039 1.36541 -0.78704 0
M  V30 4659 C 437.316 1.9355 -0.282424 0
M  V30 4660 C 437.696 1.71919 1.22503 0
M  V30 4661 O 437.044 1.07677 2.01539 0
M  V30 4662 C 437.254 3.4246 -0.672462 0
M  V30 4663 C 438.602 4.19582 -0.650863 0
M  V30 4664 O 439.626 3.50889 -0.612789 0
M  V30 4665 O 438.485 5.42106 -0.691623 0
M  V30 4666 H 435.579 0.824091 -0.0693 0
M  V30 4667 H 438.125 1.45736 -0.869423 0
M  V30 4668 H 436.897 3.51851 -1.71221 0
M  V30 4669 H 436.52 3.97556 -0.0592211 0
M  V30 4670 N 437.518 0.538854 1.48102 0
M  V30 4671 C 438.746 0.0123136 2.06896 0
M  V30 4672 C 439.161 -1.27312 1.39417 0
M  V30 4673 O 438.518 -1.75949 0.484582 0
M  V30 4674 C 438.569 -0.206118 3.60912 0
M  V30 4675 O 438.29 1.0284 4.25859 0
M  V30 4676 C 439.791 -0.772033 4.36526 0
M  V30 4677 H 437.011 0.0375239 0.66995 0
M  V30 4678 H 439.555 0.747032 1.90367 0
M  V30 4679 H 437.71 -0.89091 3.77017 0
M  V30 4680 H 438.124 0.814654 5.18135 0
M  V30 4681 H 439.598 -0.874251 5.45033 0
M  V30 4682 H 440.075 -1.77904 4.01555 0
M  V30 4683 H 440.681 -0.123526 4.25121 0
M  V30 4684 N 438.996 -1.55193 0.274407 0
M  V30 4685 C 439.906 -2.26164 -0.623473 0
M  V30 4686 C 440.922 -1.28729 -1.17068 0
M  V30 4687 O 442.098 -1.61663 -1.20112 0
M  V30 4688 C 439.163 -2.96833 -1.7914 0
M  V30 4689 C 438.224 -4.09745 -1.28093 0
M  V30 4690 C 437.457 -4.77034 -2.3932 0
M  V30 4691 O 437.68 -4.4353 -3.5866 0
M  V30 4692 O 436.614 -5.64996 -2.07516 0
M  V30 4693 H 440.44 -3.03661 -0.0485661 0
M  V30 4694 H 438.025 -1.49341 0.0418382 0
M  V30 4695 H 439.907 -3.41248 -2.4724 0
M  V30 4696 H 438.582 -2.22253 -2.35341 0
M  V30 4697 H 437.489 -3.69787 -0.566416 0
M  V30 4698 H 438.822 -4.86224 -0.764683 0
M  V30 4699 N 440.474 -0.00167713 -1.576 0
M  V30 4700 C 441.422 1.0074 -2.09652 0
M  V30 4701 C 442.416 1.35483 -1.01689 0
M  V30 4702 O 443.622 1.34028 -1.20152 0
M  V30 4703 H 439.997 0.342537 -0.669457 0
M  V30 4704 H 441.968 0.542841 -2.93421 0
M  V30 4705 C 440.717 2.2899 -2.61647 0
M  V30 4706 H 440.04 2.03124 -3.44355 0
M  V30 4707 H 441.48 2.9787 -3.01744 0
M  V30 4708 C 439.939 3.00085 -1.53136 0
M  V30 4709 O 440.469 3.91135 -0.91524 0
M  V30 4710 N 438.675 2.6194 -1.25841 0
M  V30 4711 H 438.222 1.8798 -1.76129 0
M  V30 4712 H 438.18 3.09822 -0.534576 0
M  V30 4713 N 441.952 1.55251 0.271103 0
M  V30 4714 C 442.884 1.84675 1.35749 0
M  V30 4715 C 443.897 0.731366 1.45447 0
M  V30 4716 O 445.086 1.00924 1.4723 0
M  V30 4717 C 442.186 1.99638 2.73857 0
M  V30 4718 C 441.359 3.30312 2.86727 0
M  V30 4719 C 440.418 3.35318 4.05522 0
M  V30 4720 O 439.444 4.08682 3.96191 0
M  V30 4721 N 440.646 2.62857 5.17577 0
M  V30 4722 H 443.411 2.78445 1.10853 0
M  V30 4723 H 440.972 1.55191 0.461218 0
M  V30 4724 H 442.964 2.00355 3.51625 0
M  V30 4725 H 441.534 1.12725 2.91568 0
M  V30 4726 H 440.754 3.42118 1.95829 0
M  V30 4727 H 442.042 4.16488 2.92258 0
M  V30 4728 H 441.44 2.02939 5.28046 0
M  V30 4729 H 439.997 2.69295 5.93568 0
M  V30 4730 N 443.43 -0.535701 1.48216 0
M  V30 4731 C 444.378 -1.66179 1.62749 0
M  V30 4732 C 445.372 -1.62034 0.49409 0
M  V30 4733 O 446.578 -1.6696 0.672624 0
M  V30 4734 H 442.953 -0.550244 0.512578 0
M  V30 4735 H 444.924 -1.51063 2.57337 0
M  V30 4736 C 443.673 -3.04471 1.67907 0
M  V30 4737 H 442.996 -3.08351 2.54479 0
M  V30 4738 H 444.436 -3.82894 1.82121 0
M  V30 4739 C 442.895 -3.34314 0.416596 0
M  V30 4740 O 443.425 -3.98905 -0.473014 0
M  V30 4741 N 441.631 -2.89149 0.290038 0
M  V30 4742 H 441.178 -2.36764 1.01493 0
M  V30 4743 H 441.136 -3.09486 -0.55367 0
M  V30 4744 N 444.908 -1.36708 -0.784132 0
M  V30 4745 C 445.856 -1.31533 -1.91838 0
M  V30 4746 C 446.85 -0.206205 -1.6814 0
M  V30 4747 O 448.056 -0.373519 -1.76082 0
M  V30 4748 H 444.431 -0.409613 -0.630651 0
M  V30 4749 H 446.402 -2.2731 -1.9332 0
M  V30 4750 C 445.151 -1.12679 -3.28936 0
M  V30 4751 H 444.474 -1.97274 -3.4774 0
M  V30 4752 H 445.914 -1.13106 -4.08636 0
M  V30 4753 C 444.373 0.168281 -3.36479 0
M  V30 4754 O 444.903 1.15625 -3.84699 0
M  V30 4755 N 443.109 0.214762 -2.89805 0
M  V30 4756 H 442.656 -0.589852 -2.50756 0
M  V30 4757 H 442.614 1.08094 -2.95234 0
M  V30 4758 N 446.386 1.0089 -1.21074 0
M  V30 4759 C 447.333 2.09588 -0.966512 0
M  V30 4760 C 448.303 1.65761 0.106089 0
M  V30 4761 O 449.488 1.90758 -0.0402287 0
M  V30 4762 C 446.628 3.40958 -0.533058 0
M  V30 4763 C 445.741 3.9822 -1.67467 0
M  V30 4764 C 444.876 5.17682 -1.19076 0
M  V30 4765 C 443.915 5.67043 -2.30496 0
M  V30 4766 N 443.052 6.77759 -1.83267 0
M  V30 4767 H 447.892 2.29815 -1.89708 0
M  V30 4768 H 445.429 1.12689 -0.945489 0
M  V30 4769 H 447.387 4.1637 -0.263019 0
M  V30 4770 H 446.017 3.20781 0.360505 0
M  V30 4771 H 445.069 3.1983 -2.05944 0
M  V30 4772 H 446.381 4.3085 -2.51336 0
M  V30 4773 H 445.535 6.00326 -0.877151 0
M  V30 4774 H 444.274 4.86635 -0.322066 0
M  V30 4775 H 443.279 4.82999 -2.62664 0
M  V30 4776 H 444.504 6.00121 -3.17855 0
M  V30 4777 H 442.45 6.48527 -0.987356 0
M  V30 4778 H 442.367 7.09624 -2.60711 0
M  V30 4779 H 443.635 7.63949 -1.54928 0
M  V30 4780 N 447.864 1.01787 1.20321 0
M  V30 4781 C 449.089 0.727009 1.9424 0
M  V30 4782 C 449.514 -0.706179 1.74341 0
M  V30 4783 O 448.872 -1.48609 1.03852 0
M  V30 4784 C 448.92 1.06958 3.44372 0
M  V30 4785 O 448.024 0.181983 4.11998 0
M  V30 4786 H 447.365 0.269626 0.606793 0
M  V30 4787 H 449.895 1.36158 1.52716 0
M  V30 4788 H 449.905 1.02182 3.94997 0
M  V30 4789 H 448.58 2.11378 3.58179 0
M  V30 4790 H 447.157 0.287378 3.71791 0
M  V30 4791 N 449.342 -1.36122 0.79427 0
M  V30 4792 C 450.588 -1.99406 0.369452 0
M  V30 4793 C 450.921 -1.62886 -1.05743 0
M  V30 4794 O 450.196 -0.886053 -1.73145 0
M  V30 4795 C 450.479 -3.56046 0.538833 0
M  V30 4796 C 450.332 -4.02404 2.00976 0
M  V30 4797 C 451.651 -4.40079 -0.0431359 0
M  V30 4798 H 448.77 -0.724397 0.135712 0
M  V30 4799 H 451.412 -1.61461 1.00151 0
M  V30 4800 H 449.562 -3.885 0.000771004 0
M  V30 4801 H 451.234 -3.80415 2.60926 0
M  V30 4802 H 449.477 -3.53765 2.51063 0
M  V30 4803 H 450.148 -5.11344 2.07922 0
M  V30 4804 H 452.624 -4.14013 0.416228 0
M  V30 4805 H 451.5 -5.48799 0.105374 0
M  V30 4806 H 451.761 -4.27264 -1.13571 0
M  V30 4807 N 450.82 -0.546701 -1.47814 0
M  V30 4808 C 451.767 0.206854 -2.29871 0
M  V30 4809 C 452.737 0.918235 -1.38411 0
M  V30 4810 O 453.922 0.915991 -1.67375 0
M  V30 4811 C 451.062 1.23746 -3.22151 0
M  V30 4812 C 450.175 0.533216 -4.28697 0
M  V30 4813 C 449.31 1.5482 -5.08138 0
M  V30 4814 C 448.349 0.828347 -6.06469 0
M  V30 4815 N 447.486 1.78966 -6.78908 0
M  V30 4816 H 452.326 -0.499037 -2.93792 0
M  V30 4817 H 449.863 -0.25793 -1.44821 0
M  V30 4818 H 451.821 1.84746 -3.74065 0
M  V30 4819 H 450.451 1.91151 -2.60117 0
M  V30 4820 H 449.503 -0.191089 -3.7992 0
M  V30 4821 H 450.815 -0.0311987 -4.9879 0
M  V30 4822 H 449.969 2.23202 -5.6415 0
M  V30 4823 H 448.708 2.14652 -4.37922 0
M  V30 4824 H 447.713 0.130539 -5.49645 0
M  V30 4825 H 448.938 0.235907 -6.7869 0
M  V30 4826 H 446.884 2.37675 -6.1143 0
M  V30 4827 H 446.801 1.27712 -7.45135 0
M  V30 4828 H 448.069 2.46496 -7.395 0
M  V30 4829 N 452.299 1.55045 -0.282633 0
M  V30 4830 C 453.529 2.03872 0.334635 0
M  V30 4831 C 453.937 1.16018 1.49454 0
M  V30 4832 O 453.28 0.174449 1.8287 0
M  V30 4833 C 453.342 3.48791 0.870905 0
M  V30 4834 C 453.006 4.56715 -0.161338 0
M  V30 4835 C 454.003 5.10513 -0.983466 0
M  V30 4836 C 451.688 5.01417 -0.297745 0
M  V30 4837 C 453.682 6.07538 -1.92811 0
M  V30 4838 C 451.369 5.98265 -1.24586 0
M  V30 4839 C 452.367 6.51208 -2.05954 0
M  V30 4840 O 452.055 7.46162 -2.99162 0
M  V30 4841 H 451.787 0.671324 0.0793742 0
M  V30 4842 H 454.341 2.01169 -0.41473 0
M  V30 4843 H 452.571 3.48758 1.67047 0
M  V30 4844 H 454.26 3.80916 1.40207 0
M  V30 4845 H 455.026 4.76785 -0.888856 0
M  V30 4846 H 450.905 4.59849 0.325604 0
M  V30 4847 H 454.449 6.48787 -2.56363 0
M  V30 4848 H 450.346 6.31412 -1.34126 0
M  V30 4849 H 451.114 7.63903 -2.93929 0
M  V30 4850 N 453.777 0.010035 1.57597 0
M  V30 4851 C 455.005 -0.683413 1.95287 0
M  V30 4852 C 455.42 -1.66747 0.885481 0
M  V30 4853 O 454.777 -1.82003 -0.134629 0
M  V30 4854 C 454.828 -1.40652 3.33015 0
M  V30 4855 O 454.549 -0.461916 4.35658 0
M  V30 4856 C 456.05 -2.19356 3.85225 0
M  V30 4857 H 453.27 -0.189708 0.643624 0
M  V30 4858 H 455.814 0.0641359 2.04399 0
M  V30 4859 H 453.969 -2.10562 3.2518 0
M  V30 4860 H 454.383 -0.973215 5.15392 0
M  V30 4861 H 455.857 -2.65433 4.83993 0
M  V30 4862 H 456.334 -3.02457 3.18459 0
M  V30 4863 H 456.94 -1.54442 3.96267 0
M  V30 4864 N 455.255 -1.55392 -0.262866 0
M  V30 4865 C 456.483 -1.80513 -1.01108 0
M  V30 4866 C 456.898 -0.583533 -1.79556 0
M  V30 4867 O 456.255 0.447585 -1.76926 0
M  V30 4868 C 456.306 -3.03648 -1.96164 0
M  V30 4869 O 456.027 -4.2109 -1.20893 0
M  V30 4870 C 457.528 -3.41448 -2.82715 0
M  V30 4871 H 454.748 -0.601079 -0.298236 0
M  V30 4872 H 457.292 -2.02425 -0.290582 0
M  V30 4873 H 455.447 -2.83832 -2.63663 0
M  V30 4874 H 455.861 -4.90771 -1.85051 0
M  V30 4875 H 457.335 -4.30751 -3.45192 0
M  V30 4876 H 457.812 -2.61308 -3.53008 0
M  V30 4877 H 458.418 -3.63559 -2.20693 0
M  V30 4878 N 456.733 0.527833 -1.48498 0
M  V30 4879 C 457.681 1.65313 -1.63628 0
M  V30 4880 C 458.675 1.6177 -0.502676 0
M  V30 4881 O 459.881 1.66601 -0.681469 0
M  V30 4882 H 456.256 0.547518 -0.515488 0
M  V30 4883 H 458.227 1.49696 -2.58135 0
M  V30 4884 C 456.976 3.03576 -1.6952 0
M  V30 4885 H 456.299 3.06997 -2.56111 0
M  V30 4886 H 457.739 3.81923 -1.84149 0
M  V30 4887 C 456.198 3.34089 -0.43432 0
M  V30 4888 O 456.728 3.99151 0.451852 0
M  V30 4889 N 454.934 2.88991 -0.305368 0
M  V30 4890 H 454.481 2.36222 -1.02747 0
M  V30 4891 H 454.439 3.09776 0.537249 0
M  V30 4892 N 458.211 1.37122 0.776871 0
M  V30 4893 C 459.141 1.35164 1.90402 0
M  V30 4894 C 460.122 0.221069 1.68657 0
M  V30 4895 O 461.307 0.420642 1.8959 0
M  V30 4896 C 458.437 1.15274 3.27611 0
M  V30 4897 C 457.391 2.25289 3.63908 0
M  V30 4898 C 456.717 1.90527 4.99603 0
M  V30 4899 C 458.017 3.67446 3.71188 0
M  V30 4900 H 459.711 2.29482 1.92297 0
M  V30 4901 H 457.257 1.10465 0.923773 0
M  V30 4902 H 459.21 1.12536 4.06096 0
M  V30 4903 H 457.934 0.174102 3.26136 0
M  V30 4904 H 456.593 2.27174 2.87728 0
M  V30 4905 H 456.241 0.91206 4.94662 0
M  V30 4906 H 455.941 2.64193 5.24858 0
M  V30 4907 H 457.465 1.89367 5.80493 0
M  V30 4908 H 458.879 3.67719 4.39836 0
M  V30 4909 H 457.276 4.40123 4.07936 0
M  V30 4910 H 458.346 4.01443 2.71977 0
M  V30 4911 N 459.689 -1.00246 1.21608 0
M  V30 4912 C 460.935 -1.74319 1.03638 0
M  V30 4913 C 461.268 -1.89408 -0.428749 0
M  V30 4914 O 460.543 -1.43026 -1.3181 0
M  V30 4915 C 460.826 -3.15431 1.73711 0
M  V30 4916 C 460.679 -3.08049 3.27759 0
M  V30 4917 C 461.998 -4.14407 1.48173 0
M  V30 4918 H 459.117 -0.632741 0.377899 0
M  V30 4919 H 461.759 -1.16853 1.49818 0
M  V30 4920 H 459.909 -3.64493 1.34452 0
M  V30 4921 H 461.581 -2.66681 3.76403 0
M  V30 4922 H 459.824 -2.45088 3.57931 0
M  V30 4923 H 460.495 -4.07862 3.71958 0
M  V30 4924 H 462.971 -3.74061 1.82258 0
M  V30 4925 H 461.847 -5.11279 1.99713 0
M  V30 4926 H 462.108 -4.40174 0.412273 0
M  V30 4927 N 461.167 -1.02423 -1.1978 0
M  V30 4928 C 462.416 -0.713265 -1.88667 0
M  V30 4929 C 462.729 0.7609 -1.80193 0
M  V30 4930 O 463.935 1.18473 -2.44288 0
M  V30 4931 C 462.391 -1.22545 -3.38394 0
M  V30 4932 C 461.999 -2.72706 -3.55437 0
M  V30 4933 C 463.743 -0.990257 -4.12788 0
M  V30 4934 C 461.65 -3.17367 -4.99031 0
M  V30 4935 H 460.58 -0.263105 -0.706606 0
M  V30 4936 H 463.231 -1.23792 -1.35454 0
M  V30 4937 H 461.613 -0.628732 -3.90977 0
M  V30 4938 H 462.787 -3.37993 -3.13205 0
M  V30 4939 H 461.102 -2.94453 -2.94425 0
M  V30 4940 H 463.699 -1.29926 -5.18675 0
M  V30 4941 H 464.042 0.0730761 -4.16236 0
M  V30 4942 H 464.575 -1.55074 -3.66329 0
M  V30 4943 H 461.314 -4.23009 -5.00743 0
M  V30 4944 H 460.834 -2.56805 -5.42044 0
M  V30 4945 H 462.513 -3.10441 -5.67658 0
M  V30 4946 N 462.645 1.35699 -0.801477 0
M  V30 4947 C 464.061 1.52065 -0.484596 0
M  V30 4948 C 464.261 1.75215 0.995084 0
M  V30 4949 O 463.317 1.79061 1.78026 0
M  V30 4950 C 464.63 2.69908 -1.32552 0
M  V30 4951 C 466.178 2.83784 -1.32044 0
M  V30 4952 C 466.653 4.04646 -2.14536 0
M  V30 4953 N 468.144 4.11814 -2.12046 0
M  V30 4954 C 468.879 5.04437 -2.72636 0
M  V30 4955 N 468.375 6.02426 -3.42133 0
M  V30 4956 N 470.168 4.97144 -2.62305 0
M  V30 4957 H 462.319 1.18928 -1.75983 0
M  V30 4958 H 464.582 0.581455 -0.748741 0
M  V30 4959 H 464.288 2.59363 -2.37537 0
M  V30 4960 H 464.162 3.64376 -0.975181 0
M  V30 4961 H 466.549 2.93783 -0.27846 0
M  V30 4962 H 466.63 1.90188 -1.71062 0
M  V30 4963 H 466.274 3.95407 -3.18772 0
M  V30 4964 H 466.204 4.97413 -1.72882 0
M  V30 4965 H 468.695 3.41664 -1.61476 0
M  V30 4966 H 469.008 6.69688 -3.85666 0
M  V30 4967 H 467.353 6.02615 -3.46237 0
M  V30 4968 H 470.544 4.19546 -2.07603 0
M  V30 4969 H 470.717 5.69138 -3.09815 0
M  V30 4970 N 464.123 0.554532 1.47522 0
M  V30 4971 C 465.033 -0.197865 2.33764 0
M  V30 4972 C 466.049 -0.914576 1.48025 0
M  V30 4973 O 467.225 -0.884067 1.80959 0
M  V30 4974 C 464.29 -1.21628 3.24665 0
M  V30 4975 C 463.351 -0.507283 4.26292 0
M  V30 4976 C 462.584 -1.47718 5.1285 0
M  V30 4977 O 462.807 -2.7118 5.01814 0
M  V30 4978 O 461.741 -1.00313 5.93482 0
M  V30 4979 H 465.567 0.50949 2.99396 0
M  V30 4980 H 463.152 0.315176 1.46038 0
M  V30 4981 H 465.034 -1.80421 3.80823 0
M  V30 4982 H 463.709 -1.9056 2.61665 0
M  V30 4983 H 462.616 0.121778 3.73902 0
M  V30 4984 H 463.949 0.140544 4.91999 0
M  V30 4985 N 465.601 -1.54893 0.290851 0
M  V30 4986 C 466.826 -2.04804 -0.32712 0
M  V30 4987 C 467.251 -1.16721 -1.47506 0
M  V30 4988 O 466.609 -0.169107 -1.8051 0
M  V30 4989 C 466.657 -3.52268 -0.770689 0
M  V30 4990 O 465.761 -3.67236 -1.87647 0
M  V30 4991 H 465.102 -0.660789 -0.0652227 0
M  V30 4992 H 467.632 -2.00036 0.429739 0
M  V30 4993 H 467.642 -3.9393 -1.06223 0
M  V30 4994 H 466.317 -4.15843 0.069096 0
M  V30 4995 H 464.894 -3.37479 -1.58626 0
M  V30 4996 N 467.08 -0.0183926 -1.57589 0
M  V30 4997 C 468.328 0.661253 -1.90976 0
M  V30 4998 C 468.649 1.73281 -0.894353 0
M  V30 4999 O 467.919 1.9579 0.0656788 0
M  V30 5000 H 466.499 0.247233 -0.704901 0
M  V30 5001 H 469.161 -0.0636639 -1.94796 0
M  V30 5002 H 468.257 1.12083 -2.9128 0
M  V30 5003 N 468.558 1.5553 0.254621 0
M  V30 5004 C 469.468 1.92789 1.33677 0
M  V30 5005 C 470.484 0.827356 1.53071 0
M  V30 5006 O 471.66 1.12807 1.66843 0
M  V30 5007 C 468.725 2.20827 2.67275 0
M  V30 5008 C 467.786 3.4427 2.5647 0
M  V30 5009 C 467.019 3.70961 3.83697 0
M  V30 5010 O 467.242 2.99852 4.85227 0
M  V30 5011 O 466.176 4.64491 3.82794 0
M  V30 5012 H 470.002 2.84945 1.05071 0
M  V30 5013 H 467.587 1.42312 0.454723 0
M  V30 5014 H 469.469 2.40204 3.46237 0
M  V30 5015 H 468.144 1.31851 2.9563 0
M  V30 5016 H 467.051 3.30209 1.75821 0
M  V30 5017 H 468.384 4.33524 2.33062 0
M  V30 5018 N 470.036 -0.519951 1.48776 0
M  V30 5019 C 470.966 -1.63253 1.66945 0
M  V30 5020 C 471.947 -1.62014 0.518224 0
M  V30 5021 O 473.132 -1.79053 0.751919 0
M  V30 5022 C 470.262 -3.0181 1.71836 0
M  V30 5023 C 469.216 -3.17911 2.8656 0
M  V30 5024 C 468.542 -4.5763 2.76548 0
M  V30 5025 C 469.842 -2.99729 4.27738 0
M  V30 5026 H 471.536 -1.48302 2.6009 0
M  V30 5027 H 469.082 -0.712026 1.25165 0
M  V30 5028 H 471.035 -3.79525 1.83135 0
M  V30 5029 H 469.759 -3.17806 0.752775 0
M  V30 5030 H 468.418 -2.42616 2.74833 0
M  V30 5031 H 468.066 -4.70476 1.77937 0
M  V30 5032 H 467.766 -4.69346 3.53536 0
M  V30 5033 H 469.29 -5.37431 2.89828 0
M  V30 5034 H 470.704 -3.67228 4.40246 0
M  V30 5035 H 469.101 -3.22932 5.05801 0
M  V30 5036 H 470.171 -1.96047 4.43502 0
M  V30 5037 N 471.514 -1.37532 -0.769588 0
M  V30 5038 C 472.424 -1.35668 -1.91393 0
M  V30 5039 C 473.44 -0.255954 -1.72107 0
M  V30 5040 O 474.616 -0.491704 -1.95305 0
M  V30 5041 C 471.681 -1.16481 -3.26547 0
M  V30 5042 C 470.742 -2.36212 -3.58472 0
M  V30 5043 C 469.975 -2.17932 -4.87177 0
M  V30 5044 O 470.198 -1.1647 -5.58382 0
M  V30 5045 O 469.132 -3.06167 -5.18214 0
M  V30 5046 H 472.958 -2.32055 -1.95918 0
M  V30 5047 H 470.543 -1.18284 -0.912641 0
M  V30 5048 H 472.425 -1.07778 -4.07384 0
M  V30 5049 H 471.1 -0.231687 -3.2287 0
M  V30 5050 H 470.007 -2.50488 -2.77861 0
M  V30 5051 H 471.34 -3.281 -3.66894 0
M  V30 5052 N 472.992 0.995999 -1.22138 0
M  V30 5053 C 474.217 1.77601 -1.0711 0
M  V30 5054 C 474.642 1.84339 0.374264 0
M  V30 5055 O 474 1.29359 1.27028 0
M  V30 5056 C 474.048 3.18897 -1.68336 0
M  V30 5057 O 473.152 4.01663 -0.934928 0
M  V30 5058 H 472.493 0.547011 -0.376397 0
M  V30 5059 H 475.023 1.25137 -1.6187 0
M  V30 5060 H 475.033 3.69539 -1.72931 0
M  V30 5061 H 473.708 3.13308 -2.73516 0
M  V30 5062 H 472.285 3.60204 -0.964751 0
M  V30 5063 N 474.47 1.03057 1.19235 0
M  V30 5064 C 475.698 0.747697 1.92917 0
M  V30 5065 C 476.113 -0.69372 1.75593 0
M  V30 5066 O 475.47 -1.47191 1.07894 0
M  V30 5067 C 475.521 1.09159 3.44625 0
M  V30 5068 O 475.242 2.47641 3.61394 0
M  V30 5069 C 476.743 0.831763 4.35427 0
M  V30 5070 H 473.963 0.273453 0.612751 0
M  V30 5071 H 476.507 1.37552 1.51327 0
M  V30 5072 H 474.662 0.508919 3.84043 0
M  V30 5073 H 475.076 2.60499 4.55237 0
M  V30 5074 H 476.55 1.12233 5.4047 0
M  V30 5075 H 477.027 -0.233769 4.38577 0
M  V30 5076 H 477.633 1.39725 4.01693 0
M  V30 5077 N 475.948 -1.35272 0.808662 0
M  V30 5078 C 476.878 -2.32315 0.234981 0
M  V30 5079 C 477.859 -1.57572 -0.64071 0
M  V30 5080 O 479.044 -1.8563 -0.570551 0
M  V30 5081 C 476.174 -3.41801 -0.615601 0
M  V30 5082 C 475.128 -4.27694 0.161767 0
M  V30 5083 C 474.454 -5.28519 -0.810649 0
M  V30 5084 C 475.754 -5.04231 1.36193 0
M  V30 5085 H 477.448 -2.80543 1.04575 0
M  V30 5086 H 474.994 -1.3488 0.504315 0
M  V30 5087 H 476.947 -4.08693 -1.02702 0
M  V30 5088 H 475.671 -2.92186 -1.45928 0
M  V30 5089 H 474.33 -3.62384 0.554382 0
M  V30 5090 H 473.978 -4.75171 -1.64988 0
M  V30 5091 H 473.678 -5.8686 -0.294822 0
M  V30 5092 H 475.202 -5.98283 -1.22023 0
M  V30 5093 H 476.616 -5.64058 1.02528 0
M  V30 5094 H 475.013 -5.72077 1.81239 0
M  V30 5095 H 476.083 -4.34753 2.14751 0
M  V30 5096 N 477.426 -0.562348 -1.47226 0
M  V30 5097 C 478.336 0.185466 -2.33866 0
M  V30 5098 C 479.352 0.906713 -1.48508 0
M  V30 5099 O 480.528 0.874458 -1.81425 0
M  V30 5100 C 477.593 1.19904 -3.25306 0
M  V30 5101 C 476.654 0.484669 -4.26555 0
M  V30 5102 C 475.887 1.44996 -5.13626 0
M  V30 5103 O 476.11 2.68515 -5.03245 0
M  V30 5104 O 475.044 0.971642 -5.94006 0
M  V30 5105 H 478.87 -0.525361 -2.99121 0
M  V30 5106 H 476.455 -0.322916 -1.45868 0
M  V30 5107 H 478.337 1.78399 -3.81774 0
M  V30 5108 H 477.012 1.8917 -2.62672 0
M  V30 5109 H 475.919 -0.141605 -3.73832 0
M  V30 5110 H 477.252 -0.166634 -4.91918 0
M  V30 5111 N 478.904 1.54736 -0.299062 0
M  V30 5112 C 479.834 2.26409 0.571085 0
M  V30 5113 C 480.815 1.2629 1.13951 0
M  V30 5114 O 482 1.55059 1.16921 0
M  V30 5115 C 479.13 3.00338 1.74396 0
M  V30 5116 C 478.084 4.07588 1.30599 0
M  V30 5117 C 477.41 4.69222 2.56387 0
M  V30 5118 C 478.71 5.20455 0.438645 0
M  V30 5119 H 480.404 2.99388 -0.0266991 0
M  V30 5120 H 477.95 1.43993 -0.0142812 0
M  V30 5121 H 479.903 3.49198 2.35878 0
M  V30 5122 H 478.627 2.24934 2.36796 0
M  V30 5123 H 477.286 3.59575 0.71424 0
M  V30 5124 H 476.934 3.9046 3.17097 0
M  V30 5125 H 476.634 5.41653 2.27784 0
M  V30 5126 H 478.158 5.20844 3.18675 0
M  V30 5127 H 479.572 5.65221 0.959085 0
M  V30 5128 H 477.969 5.99594 0.246466 0
M  V30 5129 H 479.039 4.8192 -0.536738 0
M  V30 5130 N 480.382 0.0267497 1.57577 0
M  V30 5131 C 481.314 -0.984594 2.06974 0
M  V30 5132 C 482.327 -1.29032 0.992705 0
M  V30 5133 O 483.516 -1.25539 1.26895 0
M  V30 5134 C 480.616 -2.31262 2.47732 0
M  V30 5135 C 479.789 -2.1924 3.78487 0
M  V30 5136 C 478.848 -3.34956 4.05821 0
M  V30 5137 O 477.874 -3.11948 4.76106 0
M  V30 5138 N 479.076 -4.58672 3.55809 0
M  V30 5139 H 481.841 -0.563143 2.94362 0
M  V30 5140 H 479.402 -0.160061 1.61107 0
M  V30 5141 H 481.394 -3.07496 2.63112 0
M  V30 5142 H 479.964 -2.65056 1.65723 0
M  V30 5143 H 479.184 -1.27747 3.72927 0
M  V30 5144 H 480.472 -2.08409 4.64158 0
M  V30 5145 H 479.87 -4.8026 2.98942 0
M  V30 5146 H 478.427 -5.32083 3.76472 0
M  V30 5147 N 481.861 -1.55662 -0.24637 0
M  V30 5148 C 482.771 -1.93495 -1.32653 0
M  V30 5149 C 483.787 -0.835462 -1.5263 0
M  V30 5150 O 484.963 -1.1369 -1.66242 0
M  V30 5151 C 482.028 -2.22242 -2.66101 0
M  V30 5152 C 481.089 -3.45625 -2.54641 0
M  V30 5153 C 480.322 -3.72991 -3.81724 0
M  V30 5154 O 480.545 -3.02421 -4.8363 0
M  V30 5155 O 479.479 -4.66515 -3.80325 0
M  V30 5156 H 483.305 -2.85498 -1.03559 0
M  V30 5157 H 480.89 -1.42551 -0.44717 0
M  V30 5158 H 482.772 -2.42037 -3.44958 0
M  V30 5159 H 481.447 -1.33417 -2.94926 0
M  V30 5160 H 480.354 -3.31136 -1.74067 0
M  V30 5161 H 481.687 -4.34754 -2.3076 0
M  V30 5162 N 483.339 0.512053 -1.4905 0
M  V30 5163 C 484.287 1.63568 -1.65373 0
M  V30 5164 C 485.281 1.61228 -0.519806 0
M  V30 5165 O 486.487 1.65869 -0.699101 0
M  V30 5166 H 482.862 0.542019 -0.521267 0
M  V30 5167 H 484.833 1.4695 -2.59708 0
M  V30 5168 C 483.582 3.01761 -1.7273 0
M  V30 5169 H 482.905 3.04263 -2.59353 0
M  V30 5170 H 484.345 3.79948 -1.8819 0
M  V30 5171 C 482.804 3.33609 -0.46973 0
M  V30 5172 O 483.334 3.99607 0.409492 0
M  V30 5173 N 481.54 2.88651 -0.336003 0
M  V30 5174 H 481.087 2.35119 -1.05247 0
M  V30 5175 H 481.045 3.10328 0.504363 0
M  V30 5176 N 484.817 1.37938 0.762283 0
M  V30 5177 C 486.065 1.33404 1.51815 0
M  V30 5178 C 486.386 -0.0780975 1.94844 0
M  V30 5179 O 485.656 -1.02405 1.67003 0
M  V30 5180 H 484.236 0.490839 0.563104 0
M  V30 5181 H 486.898 1.72527 0.906669 0
M  V30 5182 H 485.994 1.97926 2.41313 0
M  V30 5183 N 486.295 -0.989507 1.22664 0
M  V30 5184 C 487.225 -2.09847 1.02404 0
M  V30 5185 C 488.206 -1.70007 -0.0561303 0
M  V30 5186 O 489.391 -1.93906 0.106748 0
M  V30 5187 C 486.521 -3.41996 0.604663 0
M  V30 5188 C 485.475 -3.95699 1.63115 0
M  V30 5189 C 484.801 -5.23936 1.0675 0
M  V30 5190 C 486.101 -4.25999 3.02196 0
M  V30 5191 H 487.795 -2.27054 1.95158 0
M  V30 5192 H 485.341 -1.09111 0.939727 0
M  V30 5193 H 487.294 -4.1899 0.45002 0
M  V30 5194 H 486.018 -3.24626 -0.35855 0
M  V30 5195 H 484.677 -3.2084 1.77362 0
M  V30 5196 H 484.325 -5.02909 0.0955422 0
M  V30 5197 H 484.025 -5.60833 1.75328 0
M  V30 5198 H 485.549 -6.0356 0.924516 0
M  V30 5199 H 486.963 -4.93777 2.91303 0
M  V30 5200 H 485.36 -4.74076 3.67929 0
M  V30 5201 H 486.43 -3.33636 3.51873 0
M  V30 5202 N 487.773 -1.03688 -1.18687 0
M  V30 5203 C 488.736 -0.629115 -2.20397 0
M  V30 5204 C 489.736 0.311495 -1.57754 0
M  V30 5205 O 490.926 0.0974107 -1.73927 0
M  V30 5206 C 488.058 0.0782231 -3.4081 0
M  V30 5207 H 489.251 -1.52915 -2.57987 0
M  V30 5208 H 486.804 -0.828988 -1.32505 0
M  V30 5209 H 487.539 0.992233 -3.08748 0
M  V30 5210 H 487.324 -0.597776 -3.87517 0
M  V30 5211 H 488.814 0.350156 -4.16129 0
M  V30 5212 N 489.251 1.34841 -0.815825 0
M  V30 5213 C 490.499 1.98107 -0.399744 0
M  V30 5214 C 490.82 1.65019 1.03894 0
M  V30 5215 O 490.09 0.937311 1.72021 0
M  V30 5216 H 488.67 0.732827 -0.144823 0
M  V30 5217 H 491.332 1.64599 -1.0437 0
M  V30 5218 H 490.428 3.07856 -0.512965 0
M  V30 5219 N 490.729 0.570148 1.46925 0
M  V30 5220 C 491.659 -0.158274 2.32963 0
M  V30 5221 C 492.64 -0.896093 1.44583 0
M  V30 5222 O 493.825 -0.874022 1.7342 0
M  V30 5223 C 490.955 -1.18055 3.26619 0
M  V30 5224 C 489.909 -0.558379 4.24342 0
M  V30 5225 C 489.235 -1.68623 5.07415 0
M  V30 5226 C 490.535 0.496295 5.19937 0
M  V30 5227 H 492.229 0.560046 2.94115 0
M  V30 5228 H 489.775 0.270775 1.41431 0
M  V30 5229 H 491.728 -1.69841 3.85658 0
M  V30 5230 H 490.452 -1.92899 2.63548 0
M  V30 5231 H 489.111 -0.0617157 3.66548 0
M  V30 5232 H 488.759 -2.42402 4.40738 0
M  V30 5233 H 488.459 -1.27564 5.73586 0
M  V30 5234 H 489.983 -2.20709 5.69315 0
M  V30 5235 H 491.397 0.0640052 5.73264 0
M  V30 5236 H 489.794 0.82649 5.94381 0
M  V30 5237 H 490.864 1.38735 4.6463 0
M  V30 5238 N 492.207 -1.54576 0.307264 0
M  V30 5239 C 493.432 -2.05139 -0.305379 0
M  V30 5240 C 493.857 -1.18278 -1.46259 0
M  V30 5241 O 493.215 -0.188243 -1.8032 0
M  V30 5242 C 493.263 -3.53066 -0.733283 0
M  V30 5243 O 492.367 -3.69206 -1.83741 0
M  V30 5244 H 491.708 -0.661444 -0.0582105 0
M  V30 5245 H 494.238 -1.99569 0.450931 0
M  V30 5246 H 494.248 -3.95034 -1.02039 0
M  V30 5247 H 492.923 -4.15746 0.113198 0
M  V30 5248 H 491.5 -3.39143 -1.55037 0
M  V30 5249 N 493.685 -0.035106 -1.57561 0
M  V30 5250 C 494.648 0.929819 -2.09492 0
M  V30 5251 C 495.648 1.25026 -1.01119 0
M  V30 5252 O 496.838 1.18961 -1.27255 0
M  V30 5253 C 493.97 2.24457 -2.56577 0
M  V30 5254 H 495.163 0.479935 -2.96035 0
M  V30 5255 H 492.716 0.213033 -1.54841 0
M  V30 5256 H 493.451 2.74061 -1.73382 0
M  V30 5257 H 493.236 2.02508 -3.35757 0
M  V30 5258 H 494.726 2.93607 -2.96959 0
M  V30 5259 N 495.163 1.55791 0.238111 0
M  V30 5260 C 496.388 1.8244 0.986432 0
M  V30 5261 C 496.813 0.613314 1.7782 0
M  V30 5262 O 496.171 -0.437767 1.75935 0
M  V30 5263 C 496.219 3.06917 1.893 0
M  V30 5264 O 495.323 2.84449 2.98601 0
M  V30 5265 H 494.664 0.601975 0.280218 0
M  V30 5266 H 497.194 2.02987 0.256437 0
M  V30 5267 H 497.204 3.36583 2.30598 0
M  V30 5268 H 495.879 3.947 1.31091 0
M  V30 5269 H 494.456 2.65972 2.61368 0
M  V30 5270 N 496.642 -0.504142 1.49319 0
M  V30 5271 C 497.867 -1.28729 1.62615 0
M  V30 5272 C 498.292 -1.85752 0.296309 0
M  V30 5273 O 497.65 -1.65704 -0.735649 0
M  V30 5274 C 497.698 -2.39561 2.69524 0
M  V30 5275 O 496.802 -3.43324 2.28478 0
M  V30 5276 H 496.143 -0.380172 0.544395 0
M  V30 5277 H 498.673 -0.603872 1.95485 0
M  V30 5278 H 498.683 -2.8537 2.91595 0
M  V30 5279 H 497.358 -1.97423 3.66056 0
M  V30 5280 H 495.935 -3.03455 2.16725 0
M  V30 5281 N 498.12 -1.38341 -0.754957 0
M  V30 5282 C 499.369 -1.33791 -1.5094 0
M  V30 5283 C 499.682 0.0699267 -1.95475 0
M  V30 5284 O 500.888 0.237956 -2.70455 0
M  V30 5285 C 499.344 -2.34934 -2.72643 0
M  V30 5286 C 498.952 -3.81332 -2.35138 0
M  V30 5287 C 500.696 -2.39425 -3.50536 0
M  V30 5288 C 498.603 -4.74164 -3.53444 0
M  V30 5289 H 497.533 -0.497314 -0.566741 0
M  V30 5290 H 500.184 -1.63888 -0.825403 0
M  V30 5291 H 498.566 -1.97878 -3.43017 0
M  V30 5292 H 499.74 -4.27319 -1.7244 0
M  V30 5293 H 498.055 -3.79946 -1.70382 0
M  V30 5294 H 500.652 -3.0598 -4.38498 0
M  V30 5295 H 500.995 -1.41278 -3.91594 0
M  V30 5296 H 501.528 -2.75274 -2.87174 0
M  V30 5297 H 498.267 -5.73501 -3.17453 0
M  V30 5298 H 497.787 -4.3287 -4.15191 0
M  V30 5299 H 499.466 -4.92111 -4.20043 0
M  V30 5300 N 499.598 0.982988 -1.23187 0
M  V30 5301 C 500.844 1.72648 -1.06398 0
M  V30 5302 C 501.177 1.90066 0.398561 0
M  V30 5303 O 500.452 1.45105 1.29518 0
M  V30 5304 C 500.735 3.12627 -1.78707 0
M  V30 5305 C 500.588 3.02795 -3.32618 0
M  V30 5306 C 501.907 4.11997 -1.54747 0
M  V30 5307 H 499.026 0.626649 -0.387918 0
M  V30 5308 H 501.668 1.14455 -1.51658 0
M  V30 5309 H 499.818 3.62308 -1.40234 0
M  V30 5310 H 501.49 2.60659 -3.80598 0
M  V30 5311 H 499.733 2.39362 -3.61785 0
M  V30 5312 H 500.404 4.01893 -3.78399 0
M  V30 5313 H 502.88 3.71114 -1.88186 0
M  V30 5314 H 501.756 5.08037 -2.07821 0
M  V30 5315 H 502.017 4.39462 -0.482249 0
M  V30 5316 N 501.076 1.04316 1.18135 0
M  V30 5317 C 501.986 0.646876 2.25505 0
M  V30 5318 C 503.002 -0.328008 1.7088 0
M  V30 5319 O 504.178 -0.182309 2.00573 0
M  V30 5320 C 501.243 0.0185664 3.46695 0
M  V30 5321 C 500.304 1.04277 4.16443 0
M  V30 5322 C 499.537 0.444352 5.31847 0
M  V30 5323 O 499.76 -0.748735 5.65465 0
M  V30 5324 O 498.694 1.17428 5.90334 0
M  V30 5325 H 502.52 1.54147 2.61672 0
M  V30 5326 H 500.105 0.814188 1.25265 0
M  V30 5327 H 501.987 -0.331068 4.20097 0
M  V30 5328 H 500.662 -0.849814 3.12346 0
M  V30 5329 H 499.569 1.44425 3.45098 0
M  V30 5330 H 500.902 1.882 4.54798 0
M  V30 5331 N 502.554 -1.34406 0.822964 0
M  V30 5332 C 503.486 -2.28305 0.202375 0
M  V30 5333 C 504.499 -1.5103 -0.60777 0
M  V30 5334 O 505.688 -1.73057 -0.437444 0
M  V30 5335 C 502.788 -3.30836 -0.734911 0
M  V30 5336 C 501.961 -4.37388 0.0324177 0
M  V30 5337 C 501.02 -5.1968 -0.825803 0
M  V30 5338 O 500.046 -5.68556 -0.270771 0
M  V30 5339 N 501.248 -5.39393 -2.14558 0
M  V30 5340 H 504.013 -2.82201 1.00909 0
M  V30 5341 H 501.574 -1.4693 0.67993 0
M  V30 5342 H 503.566 -3.82786 -1.31365 0
M  V30 5343 H 502.136 -2.77334 -1.44238 0
M  V30 5344 H 501.356 -3.86152 0.792469 0
M  V30 5345 H 502.644 -5.05702 0.560633 0
M  V30 5346 H 502.042 -5.01357 -2.62025 0
M  V30 5347 H 500.599 -5.94461 -2.67318 0
M  V30 5348 N 504.032 -0.577932 -1.46621 0
M  V30 5349 C 504.964 0.195801 -2.28362 0
M  V30 5350 C 505.977 0.859983 -1.38232 0
M  V30 5351 O 507.166 0.730349 -1.62875 0
M  V30 5352 C 504.266 1.29639 -3.13124 0
M  V30 5353 C 503.439 0.725049 -4.31349 0
M  V30 5354 C 502.498 1.71274 -4.97546 0
M  V30 5355 O 501.524 1.25067 -5.5529 0
M  V30 5356 N 502.726 3.04672 -4.94121 0
M  V30 5357 H 505.491 -0.505468 -2.95407 0
M  V30 5358 H 503.052 -0.415381 -1.56481 0
M  V30 5359 H 505.044 1.95631 -3.54275 0
M  V30 5360 H 503.614 1.90059 -2.48186 0
M  V30 5361 H 502.834 -0.112205 -3.9404 0
M  V30 5362 H 504.122 0.323034 -5.07774 0
M  V30 5363 H 503.52 3.4484 -4.48444 0
M  V30 5364 H 502.077 3.66166 -5.39227 0
M  V30 5365 N 505.51 1.54411 -0.315457 0
M  V30 5366 C 506.44 2.27002 0.547039 0
M  V30 5367 C 507.421 1.27492 1.12605 0
M  V30 5368 O 508.606 1.5629 1.15269 0
M  V30 5369 C 505.736 3.02171 1.71201 0
M  V30 5370 C 504.69 4.0895 1.26268 0
M  V30 5371 C 504.016 4.71915 2.51396 0
M  V30 5372 C 505.316 5.20891 0.383419 0
M  V30 5373 H 507.01 2.99343 -0.0584517 0
M  V30 5374 H 504.556 1.4397 -0.0295527 0
M  V30 5375 H 506.509 3.51681 2.32161 0
M  V30 5376 H 505.233 2.27433 2.34397 0
M  V30 5377 H 503.892 3.60312 0.676062 0
M  V30 5378 H 503.54 3.93801 3.12937 0
M  V30 5379 H 503.24 5.44039 2.22026 0
M  V30 5380 H 504.764 5.24195 3.13133 0
M  V30 5381 H 506.178 5.66206 0.899082 0
M  V30 5382 H 504.575 5.99821 0.182857 0
M  V30 5383 H 505.645 4.81324 -0.587821 0
M  V30 5384 N 506.988 0.0434614 1.5754 0
M  V30 5385 C 508.399 -0.493343 1.80064 0
M  V30 5386 C 508.75 -1.71388 0.955023 0
M  V30 5387 O 507.875 -2.15736 0.169434 0
M  V30 5388 C 508.47 -0.90179 3.26578 0
M  V30 5389 C 507.029 -1.38362 3.50047 0
M  V30 5390 C 506.176 -0.355129 2.75017 0
M  V30 5391 H 509.127 0.2694 1.56397 0
M  V30 5392 H 509.148 -1.76523 3.37075 0
M  V30 5393 H 508.66 -0.013271 3.88098 0
M  V30 5394 H 506.761 -2.29159 2.93798 0
M  V30 5395 H 506.874 -1.3811 4.58762 0
M  V30 5396 H 505.238 -0.826348 2.40922 0
M  V30 5397 H 506.021 0.525172 3.39259 0
M  V30 5398 N 508.466 -1.55915 -0.229846 0
M  V30 5399 C 509.396 -1.94754 -1.28815 0
M  V30 5400 C 510.377 -0.814657 -1.49323 0
M  V30 5401 O 511.562 -1.07631 -1.61645 0
M  V30 5402 C 508.692 -2.25705 -2.63959 0
M  V30 5403 C 507.646 -3.41406 -2.5812 0
M  V30 5404 C 506.972 -3.57941 -3.97218 0
M  V30 5405 C 508.272 -4.76616 -2.13623 0
M  V30 5406 H 509.966 -2.83404 -0.965547 0
M  V30 5407 H 507.512 -1.36353 -0.463028 0
M  V30 5408 H 509.465 -2.51467 -3.38146 0
M  V30 5409 H 508.189 -1.339 -2.9789 0
M  V30 5410 H 506.848 -3.1568 -1.86391 0
M  V30 5411 H 506.496 -2.63526 -4.28443 0
M  V30 5412 H 506.196 -4.35757 -3.94195 0
M  V30 5413 H 507.72 -3.86042 -4.73079 0
M  V30 5414 H 509.134 -5.01637 -2.77549 0
M  V30 5415 H 507.531 -5.57655 -2.21677 0
M  V30 5416 H 508.601 -4.7253 -1.08829 0
M  V30 5417 N 509.944 0.496216 -1.49584 0
M  V30 5418 C 511.36 0.827814 -1.36453 0
M  V30 5419 C 511.56 1.97464 -0.401285 0
M  V30 5420 O 510.616 2.51958 0.165296 0
M  V30 5421 C 511.929 1.16352 -2.77277 0
M  V30 5422 C 513.477 1.27145 -2.86013 0
M  V30 5423 C 513.952 1.64042 -4.27615 0
M  V30 5424 N 515.443 1.71082 -4.30448 0
M  V30 5425 C 516.178 2.01085 -5.36984 0
M  V30 5426 N 515.674 2.2928 -6.5376 0
M  V30 5427 N 517.467 2.02376 -5.24405 0
M  V30 5428 H 509.618 -0.259947 -2.10803 0
M  V30 5429 H 511.881 -0.0537163 -0.946477 0
M  V30 5430 H 511.587 0.394153 -3.49484 0
M  V30 5431 H 511.461 2.10582 -3.12946 0
M  V30 5432 H 513.848 2.03152 -2.1404 0
M  V30 5433 H 513.929 0.309542 -2.5392 0
M  V30 5434 H 513.573 0.88583 -5.00115 0
M  V30 5435 H 513.503 2.6134 -4.57175 0
M  V30 5436 H 515.994 1.51434 -3.46232 0
M  V30 5437 H 516.307 2.51376 -7.30774 0
M  V30 5438 H 514.652 2.26726 -6.56978 0
M  V30 5439 H 517.843 1.79829 -4.32179 0
M  V30 5440 H 518.016 2.25425 -6.07526 0
M  V30 5441 N 511.423 1.38739 0.74761 0
M  V30 5442 C 512.839 1.20067 1.05148 0
M  V30 5443 C 513.039 0.0534835 2.01429 0
M  V30 5444 O 512.095 -0.59886 2.45296 0
M  V30 5445 C 513.408 2.52957 1.62584 0
M  V30 5446 C 514.956 2.59692 1.74726 0
M  V30 5447 C 515.431 3.92772 2.35573 0
M  V30 5448 N 516.922 3.94343 2.42997 0
M  V30 5449 C 517.657 4.9408 2.90985 0
M  V30 5450 N 517.153 6.04214 3.38965 0
M  V30 5451 N 518.946 4.81466 2.9008 0
M  V30 5452 H 511.097 2.12121 0.108808 0
M  V30 5453 H 513.36 0.941491 0.110899 0
M  V30 5454 H 513.066 3.37389 0.993051 0
M  V30 5455 H 512.94 2.71779 2.61565 0
M  V30 5456 H 515.327 1.75651 2.3713 0
M  V30 5457 H 515.408 2.44731 0.744326 0
M  V30 5458 H 515.052 4.77238 1.738 0
M  V30 5459 H 514.982 4.05046 3.36519 0
M  V30 5460 H 517.473 3.14799 2.0907 0
M  V30 5461 H 517.786 6.76241 3.74056 0
M  V30 5462 H 516.131 6.07825 3.37007 0
M  V30 5463 H 519.322 3.94535 2.51912 0
M  V30 5464 H 519.495 5.59344 3.27166 0
M  V30 5465 N 512.901 -0.976442 1.23707 0
M  V30 5466 C 513.849 -2.09078 1.01927 0
M  V30 5467 C 514.843 -1.69345 -0.0430193 0
M  V30 5468 O 516.049 -1.79659 0.110814 0
M  V30 5469 H 512.424 -0.68398 0.312531 0
M  V30 5470 H 514.395 -2.24614 1.96447 0
M  V30 5471 C 513.144 -3.41919 0.631385 0
M  V30 5472 H 512.467 -3.72946 1.44053 0
M  V30 5473 H 513.907 -4.20817 0.518532 0
M  V30 5474 C 512.366 -3.30357 -0.660723 0
M  V30 5475 O 512.896 -3.63542 -1.70881 0
M  V30 5476 N 511.102 -2.83507 -0.638139 0
M  V30 5477 H 510.649 -2.567 0.215108 0
M  V30 5478 H 510.607 -2.76153 -1.50289 0
M  V30 5479 N 514.379 -1.04941 -1.1758 0
M  V30 5480 C 515.604 -0.778253 -1.92245 0
M  V30 5481 C 516.029 0.659707 -1.76152 0
M  V30 5482 O 515.387 1.45803 -1.07755 0
M  V30 5483 C 515.435 -1.16051 -3.41416 0
M  V30 5484 O 514.539 -0.291153 -4.11371 0
M  V30 5485 H 513.88 -0.285619 -0.599431 0
M  V30 5486 H 516.41 -1.40159 -1.49052 0
M  V30 5487 H 516.42 -1.12619 -3.92149 0
M  V30 5488 H 515.095 -2.208 -3.52449 0
M  V30 5489 H 513.672 -0.385851 -3.70898 0
M  V30 5490 N 515.857 1.33968 -0.830081 0
M  V30 5491 C 516.807 2.26845 -0.229242 0
M  V30 5492 C 517.791 1.48862 0.610659 0
M  V30 5493 O 518.983 1.70808 0.464067 0
M  V30 5494 C 516.112 3.3798 0.602057 0
M  V30 5495 C 515.198 4.23369 -0.248866 0
M  V30 5496 N 515.589 4.88182 -1.32334 0
M  V30 5497 C 513.887 4.45987 -0.0344077 0
M  V30 5498 C 514.588 5.51671 -1.84482 0
M  V30 5499 N 513.564 5.31348 -1.14762 0
M  V30 5500 H 517.366 2.74464 -1.05104 0
M  V30 5501 H 514.88 1.4777 -0.673623 0
M  V30 5502 H 516.877 4.03494 1.04873 0
M  V30 5503 H 515.537 2.9191 1.42193 0
M  V30 5504 H 516.548 4.88988 -1.70619 0
M  V30 5505 H 513.225 4.10658 0.752727 0
M  V30 5506 H 514.615 6.13308 -2.74413 0
M  V30 5507 N 517.335 0.585699 1.46312 0
M  V30 5508 C 518.265 -0.133556 2.33118 0
M  V30 5509 C 519.246 -0.880707 1.45525 0
M  V30 5510 O 520.431 -0.855579 1.74337 0
M  V30 5511 C 517.561 -1.14585 3.27853 0
M  V30 5512 C 516.515 -0.513341 4.2491 0
M  V30 5513 C 515.841 -1.63231 5.09175 0
M  V30 5514 C 517.141 0.551413 5.19381 0
M  V30 5515 H 518.835 0.59121 2.93505 0
M  V30 5516 H 516.381 0.285761 1.41136 0
M  V30 5517 H 518.334 -1.65741 3.87438 0
M  V30 5518 H 517.058 -1.90093 2.65579 0
M  V30 5519 H 515.717 -0.0228349 3.66593 0
M  V30 5520 H 515.365 -2.37713 4.43285 0
M  V30 5521 H 515.065 -1.21473 5.74907 0
M  V30 5522 H 516.589 -2.14658 5.71624 0
M  V30 5523 H 518.003 0.124804 5.73164 0
M  V30 5524 H 516.4 0.889486 5.93471 0
M  V30 5525 H 517.47 1.43655 4.63132 0
M  V30 5526 N 518.813 -1.54241 0.323641 0
M  V30 5527 C 519.723 -2.28033 -0.551205 0
M  V30 5528 C 520.739 -1.32388 -1.12913 0
M  V30 5529 O 521.915 -1.65403 -1.14908 0
M  V30 5530 C 518.98 -3.02382 -1.69606 0
M  V30 5531 C 518.041 -4.13612 -1.14993 0
M  V30 5532 C 517.274 -4.84407 -2.24022 0
M  V30 5533 O 517.497 -4.54716 -3.44368 0
M  V30 5534 O 516.431 -5.71312 -1.89436 0
M  V30 5535 H 520.257 -3.03662 0.048066 0
M  V30 5536 H 517.842 -1.49133 0.0893289 0
M  V30 5537 H 519.724 -3.48941 -2.36259 0
M  V30 5538 H 518.399 -2.29628 -2.28151 0
M  V30 5539 H 517.306 -3.71402 -0.448484 0
M  V30 5540 H 518.639 -4.8841 -0.609608 0
M  V30 5541 N 520.291 -0.0518155 -1.57515 0
M  V30 5542 C 521.201 0.937539 -2.15052 0
M  V30 5543 C 522.217 1.34121 -1.10849 0
M  V30 5544 O 523.393 1.418 -1.4302 0
M  V30 5545 C 520.458 2.19379 -2.68466 0
M  V30 5546 C 519.519 1.84841 -3.87469 0
M  V30 5547 C 518.752 3.04477 -4.38326 0
M  V30 5548 O 518.975 4.17868 -3.88256 0
M  V30 5549 O 517.909 2.85453 -5.29906 0
M  V30 5550 H 521.735 0.478201 -2.99912 0
M  V30 5551 H 519.32 0.17012 -1.48428 0
M  V30 5552 H 521.202 2.93084 -3.02787 0
M  V30 5553 H 519.877 2.64449 -1.86677 0
M  V30 5554 H 518.784 1.08449 -3.58036 0
M  V30 5555 H 520.117 1.44569 -4.7049 0
M  V30 5556 N 521.769 1.56035 0.221574 0
M  V30 5557 C 522.994 1.83476 0.967026 0
M  V30 5558 C 523.419 0.632139 1.7716 0
M  V30 5559 O 522.777 -0.419082 1.7639 0
M  V30 5560 C 522.825 3.08907 1.86034 0
M  V30 5561 O 521.929 2.876 2.95567 0
M  V30 5562 H 521.27 0.604913 0.273817 0
M  V30 5563 H 523.8 2.03247 0.234893 0
M  V30 5564 H 523.81 3.3901 2.27016 0
M  V30 5565 H 522.485 3.96068 1.26898 0
M  V30 5566 H 521.062 2.6873 2.58532 0
M  V30 5567 N 523.247 -0.488276 1.49845 0
M  V30 5568 C 524.494 -1.24157 1.59973 0
M  V30 5569 C 524.822 -1.92293 0.292182 0
M  V30 5570 O 524.077 -1.81942 -0.720813 0
M  V30 5571 C 524.376 -2.32152 2.71735 0
M  V30 5572 C 524.042 -1.81387 4.12807 0
M  V30 5573 C 522.704 -1.67262 4.51195 0
M  V30 5574 C 525.056 -1.43537 5.01045 0
M  V30 5575 C 522.384 -1.13685 5.7558 0
M  V30 5576 C 524.736 -0.914081 6.25961 0
M  V30 5577 C 523.4 -0.759327 6.63167 0
M  V30 5578 H 522.67 -0.454322 0.585383 0
M  V30 5579 H 525.317 -0.540261 1.83721 0
M  V30 5580 H 523.622 -3.08122 2.42008 0
M  V30 5581 H 525.319 -2.90164 2.76778 0
M  V30 5582 H 521.909 -1.93344 3.82513 0
M  V30 5583 H 526.093 -1.53292 4.72033 0
M  V30 5584 H 521.349 -1.00426 6.03096 0
M  V30 5585 H 525.523 -0.612066 6.93705 0
M  V30 5586 H 523.15 -0.342002 7.5943 0
M  V30 5587 N 524.725 -1.39134 -0.740242 0
M  V30 5588 C 525.953 -1.39334 -1.5295 0
M  V30 5589 C 526.368 0.0135008 -1.88795 0
M  V30 5590 O 525.725 0.983524 -1.5373 0
M  V30 5591 C 525.776 -2.2614 -2.82034 0
M  V30 5592 O 525.497 -3.61345 -2.47712 0
M  V30 5593 C 526.998 -2.34666 -3.76094 0
M  V30 5594 H 524.218 -0.476103 -0.472828 0
M  V30 5595 H 526.762 -1.82883 -0.9151 0
M  V30 5596 H 524.917 -1.86018 -3.39818 0
M  V30 5597 H 525.331 -4.07194 -3.30595 0
M  V30 5598 H 526.805 -2.99663 -4.63579 0
M  V30 5599 H 527.282 -1.36426 -4.17474 0
M  V30 5600 H 527.888 -2.75236 -3.2423 0
M  V30 5601 N 526.204 0.969867 -1.24223 0
M  V30 5602 C 527.429 1.75289 -1.10853 0
M  V30 5603 C 527.854 1.85091 0.335079 0
M  V30 5604 O 527.212 1.32024 1.24255 0
M  V30 5605 C 527.26 3.15255 -1.75062 0
M  V30 5606 O 526.364 3.99589 -1.01992 0
M  V30 5607 H 525.705 0.538904 -0.387915 0
M  V30 5608 H 528.235 1.21675 -1.64488 0
M  V30 5609 H 528.245 3.65787 -1.80731 0
M  V30 5610 H 526.92 3.07436 -2.801 0
M  V30 5611 H 525.497 3.58077 -1.04094 0
M  V30 5612 N 527.682 1.05563 1.17022 0
M  V30 5613 C 528.91 0.78845 1.91288 0
M  V30 5614 C 529.325 -0.656318 1.77025 0
M  V30 5615 O 528.682 -1.44869 1.10992 0
M  V30 5616 C 528.733 1.16444 3.42232 0
M  V30 5617 O 528.454 2.5525 3.5606 0
M  V30 5618 C 529.955 0.923937 4.33565 0
M  V30 5619 H 527.175 0.286389 0.606813 0
M  V30 5620 H 529.719 1.4073 1.48375 0
M  V30 5621 H 527.874 0.590266 3.82877 0
M  V30 5622 H 528.288 2.70097 4.49609 0
M  V30 5623 H 529.762 1.23672 5.37968 0
M  V30 5624 H 530.239 -0.140688 4.38975 0
M  V30 5625 H 530.845 1.48214 3.98639 0
M  V30 5626 N 529.16 -1.33526 0.837174 0
M  V30 5627 C 530.07 -2.33023 0.271568 0
M  V30 5628 C 531.086 -1.63272 -0.601514 0
M  V30 5629 O 532.262 -1.94939 -0.506038 0
M  V30 5630 C 529.327 -3.42382 -0.545448 0
M  V30 5631 C 528.388 -4.27857 0.351709 0
M  V30 5632 C 527.621 -5.31994 -0.426409 0
M  V30 5633 O 527.844 -5.45763 -1.65828 0
M  V30 5634 O 526.778 -6.01572 0.1987 0
M  V30 5635 H 530.604 -2.83256 1.09545 0
M  V30 5636 H 528.189 -1.36837 0.599655 0
M  V30 5637 H 530.071 -4.09122 -1.00979 0
M  V30 5638 H 528.746 -2.94369 -1.34641 0
M  V30 5639 H 527.653 -3.6399 0.863853 0
M  V30 5640 H 528.986 -4.79349 1.1174 0
M  V30 5641 N 530.638 -0.59345 -1.46 0
M  V30 5642 C 531.548 0.135817 -2.34207 0
M  V30 5643 C 532.564 0.875008 -1.50398 0
M  V30 5644 O 533.74 0.835778 -1.83239 0
M  V30 5645 C 530.805 1.12977 -3.27776 0
M  V30 5646 C 529.866 0.394081 -4.27487 0
M  V30 5647 C 529.099 1.34068 -5.16586 0
M  V30 5648 O 529.322 2.5778 -5.08828 0
M  V30 5649 O 528.256 0.845426 -5.95933 0
M  V30 5650 H 532.082 -0.588691 -2.9794 0
M  V30 5651 H 529.667 -0.353784 -1.45151 0
M  V30 5652 H 531.549 1.70261 -3.85473 0
M  V30 5653 H 530.224 1.83556 -2.66625 0
M  V30 5654 H 529.131 -0.220869 -3.73447 0
M  V30 5655 H 530.464 -0.270939 -4.91454 0
M  V30 5656 N 532.116 1.54067 -0.331816 0
M  V30 5657 C 533.341 2.05599 0.272705 0
M  V30 5658 C 533.766 1.2059 1.44359 0
M  V30 5659 O 533.124 0.216907 1.79998 0
M  V30 5660 C 533.172 3.54188 0.677021 0
M  V30 5661 O 532.276 3.72082 1.77844 0
M  V30 5662 H 531.617 0.662286 0.0476801 0
M  V30 5663 H 534.147 1.98826 -0.482624 0
M  V30 5664 H 534.157 3.96608 0.957415 0
M  V30 5665 H 532.832 4.15513 -0.179325 0
M  V30 5666 H 531.409 3.41566 1.49622 0
M  V30 5667 N 533.594 0.0601682 1.57485 0
M  V30 5668 C 534.819 -0.624416 1.97777 0
M  V30 5669 C 535.244 -1.63051 0.937867 0
M  V30 5670 O 534.602 -1.81036 -0.0978845 0
M  V30 5671 C 534.65 -1.27979 3.37126 0
M  V30 5672 O 533.754 -2.39556 3.35688 0
M  V30 5673 H 533.095 -0.161581 0.64404 0
M  V30 5674 H 535.625 0.131237 2.04179 0
M  V30 5675 H 535.635 -1.62937 3.74053 0
M  V30 5676 H 534.31 -0.542501 4.12347 0
M  V30 5677 H 532.887 -2.06478 3.10517 0
M  V30 5678 N 535.072 -1.5615 -0.213296 0
M  V30 5679 C 535.982 -1.96265 -1.28519 0
M  V30 5680 C 536.998 -0.86765 -1.50824 0
M  V30 5681 O 538.174 -1.17191 -1.63793 0
M  V30 5682 C 535.239 -2.27836 -2.61327 0
M  V30 5683 C 534.3 -3.50949 -2.47252 0
M  V30 5684 C 533.533 -3.81004 -3.73727 0
M  V30 5685 O 533.756 -3.12612 -4.77106 0
M  V30 5686 O 532.69 -4.74477 -3.70344 0
M  V30 5687 H 536.516 -2.87631 -0.974795 0
M  V30 5688 H 534.101 -1.43467 -0.416832 0
M  V30 5689 H 535.983 -2.49299 -3.39747 0
M  V30 5690 H 534.658 -1.39643 -2.9203 0
M  V30 5691 H 533.565 -3.34754 -1.67004 0
M  V30 5692 H 534.898 -4.39551 -2.21486 0
M  V30 5693 N 536.55 0.480323 -1.50102 0
M  V30 5694 C 537.46 1.60547 -1.71061 0
M  V30 5695 C 538.476 1.63564 -0.593529 0
M  V30 5696 O 539.652 1.81604 -0.870751 0
M  V30 5697 C 536.717 2.96814 -1.79171 0
M  V30 5698 C 535.778 3.04259 -3.02861 0
M  V30 5699 C 535.011 4.34027 -3.10574 0
M  V30 5700 O 535.234 5.24009 -2.25323 0
M  V30 5701 O 534.168 4.46873 -4.03223 0
M  V30 5702 H 537.994 1.45788 -2.6642 0
M  V30 5703 H 535.579 0.658838 -1.34088 0
M  V30 5704 H 537.461 3.77765 -1.86738 0
M  V30 5705 H 536.136 3.11791 -0.869947 0
M  V30 5706 H 535.043 2.22419 -3.008 0
M  V30 5707 H 536.376 2.94216 -3.94586 0
M  V30 5708 N 538.028 1.39524 0.732853 0
M  V30 5709 C 538.976 1.38563 1.86824 0
M  V30 5710 C 539.97 0.268467 1.67259 0
M  V30 5711 O 541.176 0.438613 1.74574 0
M  V30 5712 H 537.551 0.432737 0.615014 0
M  V30 5713 H 539.522 2.34328 1.84751 0
M  V30 5714 C 538.271 1.2481 3.24527 0
M  V30 5715 H 537.594 2.10044 3.40179 0
M  V30 5716 H 539.034 1.28194 4.04156 0
M  V30 5717 C 537.493 -0.0432825 3.36872 0
M  V30 5718 O 538.023 -1.01268 3.88726 0
M  V30 5719 N 536.229 -0.107055 2.90403 0
M  V30 5720 H 535.776 0.682512 2.48394 0
M  V30 5721 H 535.734 -0.970618 2.99042 0
M  V30 5722 N 539.506 -0.963266 1.24736 0
M  V30 5723 C 540.752 -1.70933 1.09131 0
M  V30 5724 C 541.085 -1.90676 -0.368273 0
M  V30 5725 O 540.36 -1.47147 -1.27193 0
M  V30 5726 C 540.643 -3.09744 1.83658 0
M  V30 5727 C 540.496 -2.97465 3.37394 0
M  V30 5728 C 541.815 -4.09483 1.61282 0
M  V30 5729 H 538.934 -0.620398 0.397838 0
M  V30 5730 H 541.576 -1.12028 1.53459 0
M  V30 5731 H 539.726 -3.60031 1.4598 0
M  V30 5732 H 541.398 -2.54571 3.84696 0
M  V30 5733 H 539.641 -2.33576 3.65547 0
M  V30 5734 H 540.312 -3.95822 3.84745 0
M  V30 5735 H 542.788 -3.68073 1.94066 0
M  V30 5736 H 541.664 -5.04666 2.15878 0
M  V30 5737 H 541.925 -4.38639 0.552102 0
M  V30 5738 N 540.985 -1.06182 -1.16461 0
M  V30 5739 C 541.933 -0.665716 -2.2287 0
M  V30 5740 C 542.927 0.317822 -1.66392 0
M  V30 5741 O 544.133 0.182807 -1.79069 0
M  V30 5742 H 540.508 -0.197148 -0.725697 0
M  V30 5743 H 542.479 -1.57307 -2.53569 0
M  V30 5744 C 541.228 -0.0669803 -3.47635 0
M  V30 5745 H 540.551 -0.814899 -3.91407 0
M  V30 5746 H 541.991 0.172669 -4.23648 0
M  V30 5747 C 540.45 1.18913 -3.15216 0
M  V30 5748 O 540.98 2.27723 -3.30916 0
M  V30 5749 N 539.186 1.09066 -2.69357 0
M  V30 5750 H 538.733 0.20518 -2.56782 0
M  V30 5751 H 538.691 1.93195 -2.48039 0
M  V30 5752 N 542.463 1.3308 -0.844243 0
M  V30 5753 C 543.71 1.97605 -0.44255 0
M  V30 5754 C 544.038 1.66856 0.999458 0
M  V30 5755 O 543.293 0.943586 1.7145 0
M  V30 5756 C 543.592 3.52045 -0.616354 0
M  V30 5757 C 543.258 4.02757 -2.02726 0
M  V30 5758 C 541.92 4.16316 -2.41317 0
M  V30 5759 C 544.272 4.29776 -2.9486 0
M  V30 5760 C 541.6 4.54232 -3.71335 0
M  V30 5761 C 543.952 4.69146 -4.24364 0
M  V30 5762 C 542.616 4.80911 -4.62904 0
M  V30 5763 H 541.886 0.723088 -0.161941 0
M  V30 5764 H 544.533 1.58663 -1.0723 0
M  V30 5765 H 542.838 3.91681 0.0966812 0
M  V30 5766 H 544.535 3.99981 -0.285756 0
M  V30 5767 H 541.125 3.9268 -1.71756 0
M  V30 5768 H 545.309 4.18818 -2.6628 0
M  V30 5769 H 540.565 4.61535 -4.00993 0
M  V30 5770 H 544.739 4.89008 -4.95827 0
M  V30 5771 H 542.366 5.10048 -5.63698 0
M  V30 5772 N 543.941 0.601185 1.45683 0
M  V30 5773 C 544.871 -0.108824 2.33246 0
M  V30 5774 C 545.852 -0.865223 1.46451 0
M  V30 5775 O 547.037 -0.83704 1.75235 0
M  V30 5776 C 544.167 -1.11101 3.2905 0
M  V30 5777 C 543.121 -0.468244 4.25431 0
M  V30 5778 C 542.447 -1.57822 5.10878 0
M  V30 5779 C 543.747 0.606469 5.18767 0
M  V30 5780 H 545.441 0.622306 2.92861 0
M  V30 5781 H 542.987 0.300714 1.40825 0
M  V30 5782 H 544.94 -1.61622 3.89174 0
M  V30 5783 H 543.664 -1.87265 2.67581 0
M  V30 5784 H 542.323 0.0160484 3.66596 0
M  V30 5785 H 541.971 -2.32998 4.45781 0
M  V30 5786 H 541.671 -1.15369 5.76163 0
M  V30 5787 H 543.195 -2.08583 5.73869 0
M  V30 5788 H 544.609 0.185589 5.73 0
M  V30 5789 H 543.006 0.952381 5.92494 0
M  V30 5790 H 544.076 1.48559 4.61582 0
M  V30 5791 N 545.419 -1.53889 0.339982 0
M  V30 5792 C 546.667 -2.00458 -0.257112 0
M  V30 5793 C 546.988 -1.22953 -1.51353 0
M  V30 5794 O 546.258 -0.335734 -1.93002 0
M  V30 5795 H 544.838 -0.740544 -0.0979965 0
M  V30 5796 H 547.5 -1.89386 0.460317 0
M  V30 5797 H 546.596 -3.08035 -0.502057 0
M  V30 5798 N 546.897 -0.0685191 -1.57451 0
M  V30 5799 C 547.829 0.929372 -2.09512 0
M  V30 5800 C 548.842 1.26354 -1.02657 0
M  V30 5801 O 550.031 1.2213 -1.30179 0
M  V30 5802 C 547.131 2.24612 -2.53777 0
M  V30 5803 C 546.304 2.09128 -3.84167 0
M  V30 5804 C 545.363 3.24079 -4.14559 0
M  V30 5805 O 544.389 2.99215 -4.8421 0
M  V30 5806 N 545.591 4.49077 -3.67845 0
M  V30 5807 H 548.356 0.484901 -2.95751 0
M  V30 5808 H 545.917 0.11729 -1.61475 0
M  V30 5809 H 547.909 3.00412 -2.71172 0
M  V30 5810 H 546.479 2.60569 -1.72692 0
M  V30 5811 H 545.699 1.17815 -3.76182 0
M  V30 5812 H 546.987 1.9603 -4.69521 0
M  V30 5813 H 546.385 4.72165 -3.11571 0
M  V30 5814 H 544.942 5.21915 -3.90446 0
M  V30 5815 N 548.375 1.56261 0.205012 0
M  V30 5816 C 549.603 1.84141 0.943386 0
M  V30 5817 C 550.018 0.649772 1.77266 0
M  V30 5818 O 549.375 -0.381612 1.78466 0
M  V30 5819 C 549.426 3.10719 1.84759 0
M  V30 5820 O 549.147 4.25286 1.05181 0
M  V30 5821 C 550.648 3.51706 2.69848 0
M  V30 5822 H 547.868 0.611734 0.275721 0
M  V30 5823 H 550.412 2.03364 0.215253 0
M  V30 5824 H 548.567 2.93422 2.52947 0
M  V30 5825 H 548.981 4.97301 1.66709 0
M  V30 5826 H 550.455 4.43266 3.28967 0
M  V30 5827 H 550.932 2.7423 3.43067 0
M  V30 5828 H 551.538 3.71499 2.07047 0
M  V30 5829 N 549.853 -0.472356 1.50355 0
M  V30 5830 C 550.763 -1.59637 1.7191 0
M  V30 5831 C 551.779 -1.63247 0.602195 0
M  V30 5832 O 552.955 -1.81139 0.880369 0
M  V30 5833 C 550.02 -2.9586 1.80742 0
M  V30 5834 C 549.081 -3.02649 3.04471 0
M  V30 5835 C 548.314 -4.32374 3.12872 0
M  V30 5836 O 548.537 -5.22807 2.28099 0
M  V30 5837 O 547.471 -4.44728 4.05587 0
M  V30 5838 H 551.297 -1.44373 2.67189 0
M  V30 5839 H 548.882 -0.651717 1.34436 0
M  V30 5840 H 550.764 -3.7677 1.88739 0
M  V30 5841 H 549.439 -3.11325 0.88647 0
M  V30 5842 H 548.346 -2.20821 3.01975 0
M  V30 5843 H 549.679 -2.92119 3.9614 0
M  V30 5844 N 551.331 -1.39911 -0.725443 0
M  V30 5845 C 552.294 -1.39156 -1.82121 0
M  V30 5846 C 553.294 -0.287018 -1.58218 0
M  V30 5847 O 554.484 -0.545421 -1.65441 0
M  V30 5848 C 551.616 -1.1736 -3.20062 0
M  V30 5849 H 552.809 -2.36672 -1.84191 0
M  V30 5850 H 550.362 -1.25615 -0.930079 0
M  V30 5851 H 551.097 -0.205648 -3.23647 0
M  V30 5852 H 550.882 -1.97358 -3.3881 0
M  V30 5853 H 552.372 -1.19596 -4.00108 0
M  V30 5854 N 552.809 0.956637 -1.25245 0
M  V30 5855 C 553.741 2.05628 -1.01242 0
M  V30 5856 C 554.754 1.62785 0.0219579 0
M  V30 5857 O 555.943 1.77184 -0.216365 0
M  V30 5858 C 553.043 3.35069 -0.508161 0
M  V30 5859 C 552.216 4.06761 -1.60823 0
M  V30 5860 C 551.275 5.14473 -1.1047 0
M  V30 5861 O 550.301 5.40033 -1.79868 0
M  V30 5862 N 551.503 5.80474 0.0550773 0
M  V30 5863 H 554.268 2.2679 -1.95925 0
M  V30 5864 H 551.829 1.12505 -1.16423 0
M  V30 5865 H 553.821 4.044 -0.155819 0
M  V30 5866 H 552.391 3.10694 0.344683 0
M  V30 5867 H 551.611 3.31555 -2.13224 0
M  V30 5868 H 552.899 4.51418 -2.34733 0
M  V30 5869 H 552.297 5.62125 0.635004 0
M  V30 5870 H 550.854 6.50868 0.348469 0
M  V30 5871 N 554.287 1.06798 1.15896 0
M  V30 5872 C 555.517 0.807522 1.90165 0
M  V30 5873 C 555.925 -0.642417 1.7796 0
M  V30 5874 O 555.268 -1.45193 1.12537 0
M  V30 5875 C 555.33 1.12939 3.41299 0
M  V30 5876 C 554.994 2.57879 3.7729 0
M  V30 5877 C 555.991 3.56118 3.78782 0
M  V30 5878 C 553.676 2.93311 4.07767 0
M  V30 5879 C 555.67 4.87827 4.10248 0
M  V30 5880 C 553.357 4.25219 4.38899 0
M  V30 5881 C 554.355 5.22287 4.4012 0
M  V30 5882 O 554.043 6.51826 4.70508 0
M  V30 5883 H 553.775 0.291946 0.609708 0
M  V30 5884 H 556.329 1.42627 1.47806 0
M  V30 5885 H 554.559 0.45359 3.84031 0
M  V30 5886 H 556.248 0.852363 3.9685 0
M  V30 5887 H 557.014 3.30086 3.55342 0
M  V30 5888 H 552.893 2.18409 4.05979 0
M  V30 5889 H 556.437 5.63586 4.11116 0
M  V30 5890 H 552.334 4.51006 4.61805 0
M  V30 5891 H 553.102 6.56893 4.88298 0
M  V30 5892 N 555.766 -1.3263 0.851289 0
M  V30 5893 C 556.716 -2.26451 0.265302 0
M  V30 5894 C 557.7 -1.49814 -0.586899 0
M  V30 5895 O 558.892 -1.71525 -0.436834 0
M  V30 5896 C 556.021 -3.38895 -0.548212 0
M  V30 5897 C 555.107 -4.2292 0.316189 0
M  V30 5898 N 555.498 -4.86014 1.40084 0
M  V30 5899 C 553.796 -4.45876 0.105356 0
M  V30 5900 C 554.497 -5.48667 1.93235 0
M  V30 5901 N 553.473 -5.29455 1.232 0
M  V30 5902 H 557.275 -2.72757 1.09457 0
M  V30 5903 H 554.789 -1.4668 0.697047 0
M  V30 5904 H 556.786 -4.05111 -0.984402 0
M  V30 5905 H 555.446 -2.94135 -1.37531 0
M  V30 5906 H 556.457 -4.86212 1.78377 0
M  V30 5907 H 553.134 -4.11804 -0.687299 0
M  V30 5908 H 554.524 -6.08865 2.84135 0
M  V30 5909 N 557.244 -0.608902 -1.45362 0
M  V30 5910 C 558.174 0.0964526 -2.33301 0
M  V30 5911 C 559.155 0.857444 -1.46908 0
M  V30 5912 O 560.34 0.827735 -1.75676 0
M  V30 5913 C 557.47 1.09354 -3.29635 0
M  V30 5914 C 556.424 0.445676 -4.25673 0
M  V30 5915 C 555.75 1.5511 -5.11708 0
M  V30 5916 C 557.05 -0.633972 -5.18438 0
M  V30 5917 H 558.744 -0.637829 -2.92527 0
M  V30 5918 H 556.29 -0.308178 -1.40664 0
M  V30 5919 H 558.243 1.59556 -3.90025 0
M  V30 5920 H 556.967 1.85843 -2.6857 0
M  V30 5921 H 555.626 -0.0354897 -3.66583 0
M  V30 5922 H 555.274 2.30631 -4.4701 0
M  V30 5923 H 554.974 1.12311 -5.76767 0
M  V30 5924 H 556.498 2.05537 -5.74967 0
M  V30 5925 H 557.912 -0.215974 -5.72893 0
M  V30 5926 H 556.309 -0.983789 -5.91981 0
M  V30 5927 H 557.379 -1.51005 -4.60788 0
M  V30 5928 N 558.722 1.53707 -0.348139 0
M  V30 5929 C 559.655 2.21481 0.549667 0
M  V30 5930 C 560.633 1.20046 1.09671 0
M  V30 5931 O 561.817 1.48883 1.15612 0
M  V30 5932 C 558.944 2.89585 1.75664 0
M  V30 5933 C 557.99 4.04948 1.33864 0
M  V30 5934 S 558.823 5.34325 0.354577 0
M  V30 5935 C 559.979 6.05934 1.56828 0
M  V30 5936 H 560.212 2.97289 -0.0259755 0
M  V30 5937 H 557.745 1.53833 -0.132216 0
M  V30 5938 H 559.703 3.29441 2.44906 0
M  V30 5939 H 558.364 2.13535 2.30351 0
M  V30 5940 H 557.557 4.51552 2.23868 0
M  V30 5941 H 557.159 3.66893 0.725651 0
M  V30 5942 H 559.451 6.29606 2.50205 0
M  V30 5943 H 560.394 6.98799 1.14395 0
M  V30 5944 H 560.802 5.36151 1.76642 0
M  V30 5945 N 560.2 0.0768682 1.57412 0
M  V30 5946 C 561.13 -0.886026 2.16037 0
M  V30 5947 C 562.111 -1.30691 1.08876 0
M  V30 5948 O 563.296 -1.37705 1.36934 0
M  V30 5949 C 560.426 -2.1518 2.72608 0
M  V30 5950 C 559.38 -1.87015 3.8498 0
M  V30 5951 C 558.706 -3.20266 4.28175 0
M  V30 5952 C 560.006 -1.17143 5.08994 0
M  V30 5953 H 561.7 -0.397642 2.96748 0
M  V30 5954 H 559.246 -0.189823 1.42743 0
M  V30 5955 H 561.199 -2.82962 3.12266 0
M  V30 5956 H 559.923 -2.66269 1.89125 0
M  V30 5957 H 558.582 -1.21636 3.45833 0
M  V30 5958 H 558.23 -3.69207 3.41607 0
M  V30 5959 H 557.93 -3.0221 5.03927 0
M  V30 5960 H 559.454 -3.89237 4.70454 0
M  V30 5961 H 560.868 -1.75003 5.45937 0
M  V30 5962 H 559.265 -1.09328 5.90057 0
M  V30 5963 H 560.335 -0.151295 4.84664 0
M  V30 5964 N 561.678 -1.56367 -0.196722 0
M  V30 5965 C 562.628 -1.9082 -1.24787 0
M  V30 5966 C 563.612 -0.773719 -1.41076 0
M  V30 5967 O 564.804 -1.03655 -1.43474 0
M  V30 5968 C 561.933 -2.24982 -2.59303 0
M  V30 5969 C 561.019 -3.44882 -2.46814 0
M  V30 5970 N 561.41 -4.62835 -2.04003 0
M  V30 5971 C 559.708 -3.48988 -2.77711 0
M  V30 5972 C 560.409 -5.44993 -2.03366 0
M  V30 5973 N 559.385 -4.85356 -2.44807 0
M  V30 5974 H 563.187 -2.79516 -0.908175 0
M  V30 5975 H 560.701 -1.57265 -0.405166 0
M  V30 5976 H 562.698 -2.47848 -3.35227 0
M  V30 5977 H 561.358 -1.37611 -2.94098 0
M  V30 5978 H 562.369 -4.87532 -1.74738 0
M  V30 5979 H 559.046 -2.72029 -3.16712 0
M  V30 5980 H 560.436 -6.49464 -1.72181 0
M  V30 5981 N 563.156 0.464375 -1.50603 0
M  V30 5982 C 564.405 1.21277 -1.61167 0
M  V30 5983 C 564.718 1.92953 -0.320704 0
M  V30 5984 O 565.924 2.69778 -0.30534 0
M  V30 5985 C 564.38 2.20403 -2.84518 0
M  V30 5986 C 563.988 1.54499 -4.20516 0
M  V30 5987 C 565.732 2.95843 -3.0443 0
M  V30 5988 C 563.639 2.51951 -5.35047 0
M  V30 5989 H 562.569 0.456367 -0.600204 0
M  V30 5990 H 565.22 0.48254 -1.77042 0
M  V30 5991 H 563.602 2.96746 -2.62217 0
M  V30 5992 H 564.776 0.83899 -4.53098 0
M  V30 5993 H 563.091 0.913152 -4.06264 0
M  V30 5994 H 565.688 3.6879 -3.87167 0
M  V30 5995 H 566.031 3.55622 -2.16423 0
M  V30 5996 H 566.564 2.26611 -3.26944 0
M  V30 5997 H 563.303 1.96901 -6.25228 0
M  V30 5998 H 562.823 3.20683 -5.06875 0
M  V30 5999 H 564.502 3.13643 -5.65895 0
M  V30 6000 N 564.634 1.40294 0.718013 0
M  V30 6001 C 565.566 1.36281 1.84283 0
M  V30 6002 C 566.579 0.268621 1.60569 0
M  V30 6003 O 567.768 0.528798 1.70487 0
M  V30 6004 C 564.868 1.09741 3.2064 0
M  V30 6005 C 564.041 2.30767 3.71571 0
M  V30 6006 C 563.1 2.00424 4.86535 0
M  V30 6007 O 562.126 2.73268 4.99313 0
M  V30 6008 N 563.328 0.980724 5.72156 0
M  V30 6009 H 566.093 2.3322 1.88225 0
M  V30 6010 H 563.654 1.34616 0.899453 0
M  V30 6011 H 565.646 0.874322 3.95143 0
M  V30 6012 H 564.216 0.214771 3.11861 0
M  V30 6013 H 563.436 2.68921 2.88228 0
M  V30 6014 H 564.724 3.11455 4.02335 0
M  V30 6015 H 564.122 0.377375 5.6444 0
M  V30 6016 H 562.679 0.817538 6.46653 0
M  V30 6017 N 566.112 -0.949982 1.2575 0
M  V30 6018 C 567.045 -2.047 1.00862 0
M  V30 6019 C 568.023 -1.62475 -0.0636982 0
M  V30 6020 O 569.207 -1.88343 0.0769153 0
M  V30 6021 C 566.334 -3.34597 0.525613 0
M  V30 6022 C 565.38 -3.95788 1.58916 0
M  V30 6023 S 566.213 -4.31175 3.17567 0
M  V30 6024 C 567.369 -5.64183 2.71013 0
M  V30 6025 H 567.602 -2.25497 1.93749 0
M  V30 6026 H 565.135 -1.09022 1.09332 0
M  V30 6027 H 567.093 -4.09716 0.25359 0
M  V30 6028 H 565.754 -3.11758 -0.382828 0
M  V30 6029 H 564.947 -4.89457 1.20201 0
M  V30 6030 H 564.549 -3.27168 1.81211 0
M  V30 6031 H 566.841 -6.42504 2.14928 0
M  V30 6032 H 567.784 -6.07774 3.6334 0
M  V30 6033 H 568.192 -5.2364 2.1086 0
M  V30 6034 N 567.59 -1.07411 -1.15328 0
M  V30 6035 C 568.522 -0.652924 -2.19703 0
M  V30 6036 C 569.535 0.294869 -1.60107 0
M  V30 6037 O 570.724 0.0840932 -1.78302 0
M  V30 6038 C 567.824 0.061434 -3.38844 0
M  V30 6039 C 566.997 -0.902696 -4.27984 0
M  V30 6040 C 566.056 -0.225521 -5.25717 0
M  V30 6041 O 565.082 -0.86676 -5.62562 0
M  V30 6042 N 566.284 1.02858 -5.71315 0
M  V30 6043 H 569.049 -1.55081 -2.56457 0
M  V30 6044 H 566.61 -0.958883 -1.30449 0
M  V30 6045 H 568.602 0.525145 -4.01278 0
M  V30 6046 H 567.172 0.861269 -3.00501 0
M  V30 6047 H 566.392 -1.54551 -3.6264 0
M  V30 6048 H 567.68 -1.55636 -4.84412 0
M  V30 6049 H 567.078 1.56948 -5.43492 0
M  V30 6050 H 565.635 1.43596 -6.35786 0
M  V30 6051 N 569.068 1.32177 -0.85831 0
M  V30 6052 C 569.998 2.31282 -0.321041 0
M  V30 6053 C 570.979 1.59841 0.581786 0
M  V30 6054 O 572.164 1.87619 0.501262 0
M  V30 6055 C 569.294 3.4385 0.48832 0
M  V30 6056 C 568.248 4.26799 -0.320391 0
M  V30 6057 C 567.574 5.31164 0.613934 0
M  V30 6058 C 568.874 4.98829 -1.54813 0
M  V30 6059 H 570.568 2.76469 -1.14915 0
M  V30 6060 H 568.114 1.32916 -0.554028 0
M  V30 6061 H 570.067 4.12224 0.874626 0
M  V30 6062 H 568.791 2.97401 1.34983 0
M  V30 6063 H 567.45 3.60077 -0.688497 0
M  V30 6064 H 567.098 4.80967 1.47239 0
M  V30 6065 H 566.798 5.8755 0.0768097 0
M  V30 6066 H 568.322 6.024 0.997336 0
M  V30 6067 H 569.736 5.59864 -1.23392 0
M  V30 6068 H 568.133 5.64957 -2.02346 0
M  V30 6069 H 569.203 4.26483 -2.30739 0
M  V30 6070 N 570.547 0.616602 1.45037 0
M  V30 6071 C 571.787 0.118453 2.04056 0
M  V30 6072 C 572.151 -1.23104 1.47341 0
M  V30 6073 O 573.352 -1.82044 1.97771 0
M  V30 6074 C 571.623 0.0892842 3.57288 0
M  V30 6075 S 573.182 -0.346361 4.37431 0
M  V30 6076 H 570 0.0539728 0.708948 0
M  V30 6077 H 572.602 0.816731 1.77623 0
M  V30 6078 H 571.306 1.07481 3.96076 0
M  V30 6079 H 570.837 -0.630703 3.88311 0
M  V30 6080 H 572.852 -1.59389 4.69904 0
M  V30 6081 N 572.025 -1.5352 0.356285 0
M  V30 6082 C 572.935 -2.29151 -0.502712 0
M  V30 6083 C 573.951 -1.34753 -1.1008 0
M  V30 6084 O 575.127 -1.67803 -1.11374 0
M  V30 6085 C 572.192 -3.05911 -1.63154 0
M  V30 6086 C 571.253 -4.15958 -1.06194 0
M  V30 6087 C 570.486 -4.8905 -2.13696 0
M  V30 6088 O 570.709 -4.61919 -3.34645 0
M  V30 6089 O 569.643 -5.75202 -1.77275 0
M  V30 6090 H 573.469 -3.03492 0.112466 0
M  V30 6091 H 571.054 -1.4891 0.120942 0
M  V30 6092 H 572.936 -3.53874 -2.28804 0
M  V30 6093 H 571.611 -2.34415 -2.23229 0
M  V30 6094 H 570.518 -3.7227 -0.369603 0
M  V30 6095 H 571.851 -4.89593 -0.505872 0
M  V30 6096 N 573.503 -0.0852151 -1.57369 0
M  V30 6097 C 574.433 0.874556 -2.16503 0
M  V30 6098 C 575.414 1.30111 -1.09568 0
M  V30 6099 O 576.599 1.36977 -1.37662 0
M  V30 6100 C 573.729 2.13731 -2.73745 0
M  V30 6101 C 572.683 1.84971 -3.85966 0
M  V30 6102 C 572.009 3.17991 -4.29867 0
M  V30 6103 C 573.309 1.14442 -5.09608 0
M  V30 6104 H 575.003 0.381899 -2.96954 0
M  V30 6105 H 572.549 0.18225 -1.42842 0
M  V30 6106 H 574.502 2.81302 -3.13763 0
M  V30 6107 H 573.226 2.65263 -1.90534 0
M  V30 6108 H 571.885 1.19801 -3.46473 0
M  V30 6109 H 571.533 3.6739 -3.4356 0
M  V30 6110 H 571.233 2.99534 -5.05523 0
M  V30 6111 H 572.757 3.86737 -4.72511 0
M  V30 6112 H 574.171 1.72105 -5.46857 0
M  V30 6113 H 572.568 1.06197 -5.90629 0
M  V30 6114 H 573.638 0.12559 -4.84737 0
M  V30 6115 N 574.981 1.5647 0.188427 0
M  V30 6116 C 576.206 1.85486 0.927891 0
M  V30 6117 C 576.631 0.669575 1.75779 0
M  V30 6118 O 575.989 -0.381573 1.77239 0
M  V30 6119 C 576.037 3.12784 1.7944 0
M  V30 6120 O 575.141 2.93805 2.894 0
M  V30 6121 H 574.482 0.610585 0.260925 0
M  V30 6122 H 577.012 2.037 0.191729 0
M  V30 6123 H 577.022 3.43749 2.19774 0
M  V30 6124 H 575.697 3.98671 1.18468 0
M  V30 6125 H 574.274 2.74153 2.52774 0
M  V30 6126 N 576.459 -0.456382 1.50847 0
M  V30 6127 C 577.389 -1.56025 1.73719 0
M  V30 6128 C 578.37 -1.5967 0.586473 0
M  V30 6129 O 579.555 -1.75702 0.827185 0
M  V30 6130 C 576.685 -2.94251 1.84483 0
M  V30 6131 C 575.639 -3.05471 2.99786 0
M  V30 6132 C 574.965 -4.45489 2.95709 0
M  V30 6133 C 576.265 -2.81318 4.40065 0
M  V30 6134 H 577.959 -1.37138 2.66146 0
M  V30 6135 H 575.505 -0.658299 1.28072 0
M  V30 6136 H 577.458 -3.71417 1.99067 0
M  V30 6137 H 576.182 -3.14328 0.886891 0
M  V30 6138 H 574.841 -2.30741 2.84876 0
M  V30 6139 H 574.489 -4.62505 1.97732 0
M  V30 6140 H 574.189 -4.53929 3.73125 0
M  V30 6141 H 575.713 -5.24655 3.12362 0
M  V30 6142 H 577.127 -3.48226 4.55425 0
M  V30 6143 H 575.524 -3.01188 5.19043 0
M  V30 6144 H 576.594 -1.7706 4.51418 0
M  V30 6145 N 577.937 -1.40673 -0.710563 0
M  V30 6146 C 579.183 -1.4043 -1.47142 0
M  V30 6147 C 579.538 -0.00781557 -1.92398 0
M  V30 6148 O 578.831 0.963535 -1.6561 0
M  V30 6149 C 579.025 -2.33253 -2.70791 0
M  V30 6150 C 578.854 -3.81789 -2.37629 0
M  V30 6151 C 577.624 -4.5057 -2.28724 0
M  V30 6152 C 579.822 -4.73152 -2.01572 0
M  V30 6153 N 577.804 -5.84312 -1.88289 0
M  V30 6154 C 579.175 -5.95728 -1.71778 0
M  V30 6155 C 581.23 -4.6094 -1.88252 0
M  V30 6156 C 579.933 -7.07454 -1.30003 0
M  V30 6157 C 581.959 -5.72613 -1.47881 0
M  V30 6158 C 581.321 -6.94278 -1.18987 0
M  V30 6159 H 577.42 -0.569115 -0.536314 0
M  V30 6160 H 580.004 -1.76425 -0.823547 0
M  V30 6161 H 578.175 -1.99378 -3.33321 0
M  V30 6162 H 579.907 -2.23833 -3.37166 0
M  V30 6163 H 576.662 -4.04315 -2.46629 0
M  V30 6164 H 577.086 -6.55153 -1.70596 0
M  V30 6165 H 581.728 -3.67389 -2.09249 0
M  V30 6166 H 579.446 -8.00884 -1.07749 0
M  V30 6167 H 583.032 -5.65161 -1.38145 0
M  V30 6168 H 581.912 -7.79222 -0.88219 0
M  V30 6169 N 579.415 0.9433 -1.26252 0
M  V30 6170 C 580.692 1.66639 -1.02424 0
M  V30 6171 C 581.072 2.06335 0.446006 0
M  V30 6172 O 580.42 1.78551 1.42589 0
M  V30 6173 C 580.63 2.88019 -1.97094 0
M  V30 6174 C 581.978 3.59718 -2.25584 0
M  V30 6175 O 583.002 2.9812 -1.94943 0
M  V30 6176 O 581.861 4.7066 -2.77743 0
M  V30 6177 H 578.955 0.729643 -0.389294 0
M  V30 6178 H 581.501 0.995218 -1.37454 0
M  V30 6179 H 580.273 2.5556 -2.96319 0
M  V30 6180 H 579.896 3.62863 -1.62532 0
M  V30 6181 N 580.893 1.08022 1.14757 0
M  V30 6182 C 582.139 0.818552 1.86202 0
M  V30 6183 C 582.494 -0.648563 1.81139 0
M  V30 6184 O 581.787 -1.4704 1.22841 0
M  V30 6185 C 581.981 1.26964 3.34088 0
M  V30 6186 C 581.81 2.77907 3.5355 0
M  V30 6187 C 580.58 3.45604 3.68627 0
M  V30 6188 C 582.778 3.7609 3.50801 0
M  V30 6189 N 580.76 4.85119 3.76209 0
M  V30 6190 C 582.131 5.0148 3.64579 0
M  V30 6191 C 584.186 3.6915 3.34115 0
M  V30 6192 C 582.889 6.20755 3.63395 0
M  V30 6193 C 584.915 4.87896 3.34233 0
M  V30 6194 C 584.277 6.12123 3.48547 0
M  V30 6195 H 580.376 0.352186 0.698204 0
M  V30 6196 H 582.96 1.37781 1.37567 0
M  V30 6197 H 581.131 0.738008 3.81324 0
M  V30 6198 H 582.863 0.954806 3.93275 0
M  V30 6199 H 579.618 2.96016 3.69691 0
M  V30 6200 H 580.042 5.57748 3.83726 0
M  V30 6201 H 584.684 2.74045 3.21961 0
M  V30 6202 H 582.402 7.16175 3.74326 0
M  V30 6203 H 585.988 4.8421 3.2254 0
M  V30 6204 H 584.868 7.02468 3.48581 0
M  V30 6205 N 582.371 -1.3172 0.865308 0
M  V30 6206 C 583.62 -1.96145 0.470098 0
M  V30 6207 C 583.933 -1.69182 -0.981674 0
M  V30 6208 O 585.139 -2.27431 -1.48281 0
M  V30 6209 C 583.595 -3.51129 0.789732 0
M  V30 6210 C 583.203 -3.86938 2.25795 0
M  V30 6211 C 584.947 -4.2197 0.462765 0
M  V30 6212 C 582.854 -5.35012 2.52024 0
M  V30 6213 H 581.784 -0.734105 0.172065 0
M  V30 6214 H 584.435 -1.49959 1.05757 0
M  V30 6215 H 582.817 -3.95781 0.131571 0
M  V30 6216 H 583.991 -3.5326 2.95879 0
M  V30 6217 H 582.306 -3.29149 2.55049 0
M  V30 6218 H 584.903 -5.30904 0.636019 0
M  V30 6219 H 585.246 -4.12005 -0.59645 0
M  V30 6220 H 585.779 -3.82936 1.07727 0
M  V30 6221 H 582.518 -5.50008 3.56611 0
M  V30 6222 H 582.038 -5.70058 1.8653 0
M  V30 6223 H 583.717 -6.0222 2.36515 0
M  V30 6224 N 583.85 -0.624285 -1.44708 0
M  V30 6225 C 585.096 -0.126237 -2.02407 0
M  V30 6226 C 585.428 1.24618 -1.48943 0
M  V30 6227 O 584.704 1.82569 -0.670742 0
M  V30 6228 C 584.986 -0.105449 -3.59946 0
M  V30 6229 C 584.84 -1.50972 -4.23707 0
M  V30 6230 C 586.159 0.573629 -4.36346 0
M  V30 6231 H 583.278 -0.0473472 -0.735478 0
M  V30 6232 H 585.92 -0.799452 -1.72362 0
M  V30 6233 H 584.07 0.46783 -3.85673 0
M  V30 6234 H 585.742 -2.13136 -4.0911 0
M  V30 6235 H 583.985 -2.0656 -3.81465 0
M  V30 6236 H 584.656 -1.44727 -5.32689 0
M  V30 6237 H 587.132 0.0861787 -4.16011 0
M  V30 6238 H 586.008 0.557338 -5.46063 0
M  V30 6239 H 586.269 1.64276 -4.10446 0
M  V30 6240 N 585.328 1.53329 -0.364422 0
M  V30 6241 C 586.238 2.29414 0.490552 0
M  V30 6242 C 587.254 1.35335 1.09363 0
M  V30 6243 O 588.43 1.68391 1.10483 0
M  V30 6244 C 585.495 3.06772 1.61529 0
M  V30 6245 C 584.556 4.16516 1.03986 0
M  V30 6246 C 583.789 4.90176 2.111 0
M  V30 6247 O 584.012 4.63687 3.32191 0
M  V30 6248 O 582.946 5.76134 1.74222 0
M  V30 6249 H 586.772 3.03428 -0.12856 0
M  V30 6250 H 584.357 1.48843 -0.128837 0
M  V30 6251 H 586.239 3.55082 2.26924 0
M  V30 6252 H 584.914 2.35596 2.21983 0
M  V30 6253 H 583.821 3.7246 0.349856 0
M  V30 6254 H 585.154 4.89855 0.4799 0
M  V30 6255 N 586.806 0.0935595 1.57322 0
M  V30 6256 C 588.222 -0.263091 1.57417 0
M  V30 6257 C 588.422 -1.68526 1.1046 0
M  V30 6258 O 587.478 -2.40139 0.780357 0
M  V30 6259 C 588.791 -0.0529201 3.00653 0
M  V30 6260 C 590.339 -0.120788 3.12767 0
M  V30 6261 C 590.814 0.0613707 4.57959 0
M  V30 6262 N 592.305 0.00648534 4.632 0
M  V30 6263 C 593.04 0.122699 5.73269 0
M  V30 6264 N 592.536 0.29366 6.92177 0
M  V30 6265 N 594.329 0.0640787 5.62063 0
M  V30 6266 H 586.48 1.02277 1.86154 0
M  V30 6267 H 588.743 0.4007 0.859153 0
M  V30 6268 H 588.449 0.929279 3.39201 0
M  V30 6269 H 588.323 -0.795899 3.68708 0
M  V30 6270 H 590.71 -1.09349 2.74093 0
M  V30 6271 H 590.791 0.653656 2.47307 0
M  V30 6272 H 590.435 1.03093 4.97327 0
M  V30 6273 H 590.365 -0.732748 5.21477 0
M  V30 6274 H 592.856 -0.123173 3.77699 0
M  V30 6275 H 593.169 0.37389 7.71895 0
M  V30 6276 H 591.514 0.329307 6.94219 0
M  V30 6277 H 594.705 -0.0683396 4.6805 0
M  V30 6278 H 594.878 0.158097 6.47807 0
M  V30 6279 N 588.284 -1.56567 -0.180126 0
M  V30 6280 C 589.232 -1.96632 -1.24251 0
M  V30 6281 C 590.226 -0.853818 -1.46309 0
M  V30 6282 O 591.432 -1.0389 -1.46993 0
M  V30 6283 H 587.807 -0.625476 -0.417473 0
M  V30 6284 H 589.778 -2.85201 -0.877679 0
M  V30 6285 C 588.527 -2.33486 -2.57642 0
M  V30 6286 H 587.85 -3.18626 -2.4149 0
M  V30 6287 H 589.29 -2.65371 -3.30688 0
M  V30 6288 C 587.749 -1.17499 -3.15746 0
M  V30 6289 O 588.279 -0.457956 -3.99081 0
M  V30 6290 N 586.485 -0.94786 -2.74707 0
M  V30 6291 H 586.032 -1.53269 -2.07042 0
M  V30 6292 H 585.99 -0.173626 -3.1392 0
M  V30 6293 N 589.762 0.448376 -1.51087 0
M  V30 6294 C 590.709 1.54341 -1.71603 0
M  V30 6295 C 591.679 1.56463 -0.557536 0
M  V30 6296 O 592.864 1.73644 -0.79072 0
M  V30 6297 C 590.004 2.92148 -1.83695 0
M  V30 6298 C 589.117 2.99639 -3.11192 0
M  V30 6299 C 588.252 4.285 -3.13944 0
M  V30 6300 C 587.291 4.29819 -4.35801 0
M  V30 6301 N 586.428 5.50186 -4.36164 0
M  V30 6302 H 591.268 1.36151 -2.65079 0
M  V30 6303 H 588.805 0.661585 -1.31383 0
M  V30 6304 H 590.763 3.72093 -1.88687 0
M  V30 6305 H 589.393 3.0892 -0.936374 0
M  V30 6306 H 588.445 2.12425 -3.15562 0
M  V30 6307 H 589.757 2.96474 -4.01129 0
M  V30 6308 H 588.911 5.16811 -3.17791 0
M  V30 6309 H 587.65 4.34307 -2.21876 0
M  V30 6310 H 586.655 3.39902 -4.32142 0
M  V30 6311 H 587.88 4.25685 -5.29121 0
M  V30 6312 H 585.826 5.56735 -3.46961 0
M  V30 6313 H 585.743 5.48856 -5.19897 0
M  V30 6314 H 587.011 6.40559 -4.44189 0
M  V30 6315 N 591.24 1.41047 0.703093 0
M  V30 6316 C 592.656 1.23351 1.01275 0
M  V30 6317 C 592.856 0.11754 2.01157 0
M  V30 6318 O 591.912 -0.520518 2.47077 0
M  V30 6319 C 593.225 2.58001 1.54454 0
M  V30 6320 C 594.773 2.65119 1.66376 0
M  V30 6321 C 595.248 4.00067 2.22958 0
M  V30 6322 N 596.739 4.01875 2.30328 0
M  V30 6323 C 597.474 5.03087 2.75119 0
M  V30 6324 N 596.97 6.14692 3.19571 0
M  V30 6325 N 598.763 4.90451 2.74616 0
M  V30 6326 H 590.914 2.1236 0.0412686 0
M  V30 6327 H 593.177 0.944543 0.08089 0
M  V30 6328 H 592.883 3.40378 0.88521 0
M  V30 6329 H 592.757 2.79962 2.52786 0
M  V30 6330 H 595.144 1.83106 2.31422 0
M  V30 6331 H 595.225 2.46975 0.666089 0
M  V30 6332 H 594.869 4.82526 1.58529 0
M  V30 6333 H 594.799 4.15547 3.23462 0
M  V30 6334 H 597.29 3.21291 1.98949 0
M  V30 6335 H 597.603 6.87799 3.52352 0
M  V30 6336 H 595.948 6.18239 3.17498 0
M  V30 6337 H 599.139 4.0235 2.39233 0
M  V30 6338 H 599.312 5.6947 3.09206 0
M  V30 6339 N 592.718 -0.936591 1.26751 0
M  V30 6340 C 593.966 -1.67998 1.12343 0
M  V30 6341 C 594.287 -1.92137 -0.332938 0
M  V30 6342 O 593.557 -1.52132 -1.23421 0
M  V30 6343 H 592.137 -0.622609 0.412756 0
M  V30 6344 H 594.799 -1.12509 1.59147 0
M  V30 6345 H 593.895 -2.65185 1.64571 0
M  V30 6346 N 594.196 -1.08629 -1.14182 0
M  V30 6347 C 595.612 -0.814363 -1.3726 0
M  V30 6348 C 595.812 0.575271 -1.93114 0
M  V30 6349 O 594.868 1.33165 -2.1453 0
M  V30 6350 C 596.181 -1.8989 -2.33157 0
M  V30 6351 C 597.729 -1.92518 -2.46791 0
M  V30 6352 C 598.204 -3.00092 -3.45989 0
M  V30 6353 N 599.695 -2.99279 -3.53534 0
M  V30 6354 C 600.43 -3.79158 -4.30147 0
M  V30 6355 N 599.926 -4.68923 -5.09983 0
M  V30 6356 N 601.719 -3.67451 -4.25366 0
M  V30 6357 H 593.87 -1.98232 -0.762758 0
M  V30 6358 H 596.133 -0.860383 -0.398051 0
M  V30 6359 H 595.839 -2.89809 -1.99257 0
M  V30 6360 H 595.713 -1.77013 -3.33086 0
M  V30 6361 H 598.1 -0.932425 -2.79982 0
M  V30 6362 H 598.181 -2.09473 -1.46816 0
M  V30 6363 H 597.825 -3.99575 -3.13532 0
M  V30 6364 H 597.755 -2.80382 -4.45751 0
M  V30 6365 H 600.246 -2.3422 -2.96563 0
M  V30 6366 H 600.559 -5.26475 -5.65724 0
M  V30 6367 H 598.904 -4.72964 -5.09244 0
M  V30 6368 H 602.095 -2.9669 -3.62067 0
M  V30 6369 H 602.268 -4.29944 -4.84822 0
M  V30 6370 N 595.674 1.31259 -0.872281 0
M  V30 6371 C 596.584 2.32221 -0.333255 0
M  V30 6372 C 597.6 1.6481 0.558013 0
M  V30 6373 O 598.776 1.96212 0.454175 0
M  V30 6374 C 595.841 3.43708 0.454479 0
M  V30 6375 C 594.902 4.26774 -0.465024 0
M  V30 6376 C 594.135 5.32937 0.28521 0
M  V30 6377 O 594.358 5.49968 1.513 0
M  V30 6378 O 593.292 6.00834 -0.358126 0
M  V30 6379 H 597.118 2.80252 -1.17016 0
M  V30 6380 H 594.703 1.352 -0.635724 0
M  V30 6381 H 596.585 4.11656 0.900963 0
M  V30 6382 H 595.26 2.97836 1.26789 0
M  V30 6383 H 594.167 3.61571 -0.960055 0
M  V30 6384 H 595.5 4.76217 -1.2441 0
M  V30 6385 N 597.152 0.631951 1.44375 0
M  V30 6386 C 598.382 0.143658 2.061 0
M  V30 6387 C 598.79 -1.18733 1.47306 0
M  V30 6388 O 598.133 -1.73943 0.590724 0
M  V30 6389 C 598.195 -0.0446102 3.59472 0
M  V30 6390 C 597.859 1.20835 4.40736 0
M  V30 6391 C 598.856 2.13224 4.74164 0
M  V30 6392 C 596.541 1.44399 4.81097 0
M  V30 6393 C 598.535 3.27487 5.46838 0
M  V30 6394 C 596.222 2.58959 5.53519 0
M  V30 6395 C 597.22 3.50329 5.86309 0
M  V30 6396 O 596.908 4.62891 6.57257 0
M  V30 6397 H 596.64 0.0772939 0.671567 0
M  V30 6398 H 599.194 0.866677 1.8622 0
M  V30 6399 H 597.424 -0.822783 3.77845 0
M  V30 6400 H 599.113 -0.487561 4.02961 0
M  V30 6401 H 599.879 1.96253 4.4352 0
M  V30 6402 H 595.758 0.741696 4.54994 0
M  V30 6403 H 599.302 3.98826 5.72349 0
M  V30 6404 H 595.199 2.75873 5.83579 0
M  V30 6405 H 595.967 4.61883 6.75726 0
M  V30 6406 N 598.631 -1.53133 0.372548 0
M  V30 6407 C 599.877 -2.01654 -0.215277 0
M  V30 6408 C 600.21 -1.25914 -1.47849 0
M  V30 6409 O 599.485 -0.3548 -1.91237 0
M  V30 6410 C 599.768 -3.56609 -0.500187 0
M  V30 6411 C 599.621 -4.43036 0.777145 0
M  V30 6412 C 600.94 -4.20528 -1.29786 0
M  V30 6413 H 598.059 -0.732991 -0.0767686 0
M  V30 6414 H 600.701 -1.83335 0.498814 0
M  V30 6415 H 598.851 -3.7235 -1.10852 0
M  V30 6416 H 600.523 -4.39079 1.41447 0
M  V30 6417 H 598.766 -4.10723 1.39604 0
M  V30 6418 H 599.437 -5.49424 0.532662 0
M  V30 6419 H 601.913 -4.08663 -0.783198 0
M  V30 6420 H 600.789 -5.28962 -1.46596 0
M  V30 6421 H 601.05 -3.77051 -2.30836 0
M  V30 6422 N 600.109 -0.101901 -1.5727 0
M  V30 6423 C 601.386 0.602832 -1.86079 0
M  V30 6424 C 601.766 1.85912 -1 0
M  V30 6425 O 601.114 2.28379 -0.0742488 0
M  V30 6426 C 601.324 0.911694 -3.36881 0
M  V30 6427 C 602.672 1.2722 -4.05093 0
M  V30 6428 O 603.696 1.0025 -3.41802 0
M  V30 6429 O 602.555 1.7776 -5.16782 0
M  V30 6430 H 599.649 0.302366 -0.769743 0
M  V30 6431 H 602.195 -0.135113 -1.69161 0
M  V30 6432 H 600.967 0.0207256 -3.91295 0
M  V30 6433 H 600.59 1.70538 -3.59169 0
M  V30 6434 N 601.587 1.56661 0.17182 0
M  V30 6435 C 602.497 1.99604 1.2327 0
M  V30 6436 C 603.513 0.907333 1.4847 0
M  V30 6437 O 604.689 1.21492 1.60629 0
M  V30 6438 C 601.754 2.34685 2.55194 0
M  V30 6439 C 600.815 3.57381 2.3786 0
M  V30 6440 C 600.048 3.90779 3.63494 0
M  V30 6441 O 600.271 3.25152 4.6865 0
M  V30 6442 O 599.205 4.84129 3.57634 0
M  V30 6443 H 603.031 2.90114 0.898192 0
M  V30 6444 H 600.616 1.44522 0.378647 0
M  V30 6445 H 602.498 2.5822 3.33017 0
M  V30 6446 H 601.173 1.47336 2.88225 0
M  V30 6447 H 600.08 3.39064 1.5807 0
M  V30 6448 H 601.413 4.45268 2.09754 0
M  V30 6449 N 603.065 -0.440357 1.51323 0
M  V30 6450 C 604.29 -1.21716 1.67928 0
M  V30 6451 C 604.715 -1.84328 0.374826 0
M  V30 6452 O 604.073 -1.68675 -0.664706 0
M  V30 6453 C 604.121 -2.27914 2.79442 0
M  V30 6454 O 603.225 -3.33325 2.42834 0
M  V30 6455 H 602.566 -0.35674 0.560029 0
M  V30 6456 H 605.096 -0.520417 1.97871 0
M  V30 6457 H 605.106 -2.72746 3.03436 0
M  V30 6458 H 603.781 -1.8172 3.741 0
M  V30 6459 H 602.358 -2.9399 2.294 0
M  V30 6460 N 604.543 -1.41418 -0.695603 0
M  V30 6461 C 605.506 -1.42988 -1.79129 0
M  V30 6462 C 606.506 -0.320514 -1.57573 0
M  V30 6463 O 607.696 -0.58039 -1.64247 0
M  V30 6464 C 604.828 -1.24122 -3.175 0
M  V30 6465 H 606.021 -2.40526 -1.7913 0
M  V30 6466 H 603.574 -1.2756 -0.903225 0
M  V30 6467 H 604.309 -0.274253 -3.23138 0
M  V30 6468 H 604.094 -2.045 -3.34547 0
M  V30 6469 H 605.584 -1.28056 -3.97481 0
M  V30 6470 N 606.021 0.929856 -1.27246 0
M  V30 6471 C 607.261 1.6919 -1.14691 0
M  V30 6472 C 607.625 1.896 0.302621 0
M  V30 6473 O 608.826 2.63102 0.550543 0
M  V30 6474 C 607.097 3.02291 -1.9067 0
M  V30 6475 S 608.656 3.93436 -1.94303 0
M  V30 6476 H 605.474 0.581248 -0.409477 0
M  V30 6477 H 608.076 1.10722 -1.61124 0
M  V30 6478 H 606.78 2.85125 -2.95181 0
M  V30 6479 H 606.311 3.65813 -1.44723 0
M  V30 6480 H 608.326 4.85224 -1.0379 0
M  V30 6481 N 607.499 1.09233 1.13605 0
M  V30 6482 C 608.91 0.846839 1.6639 0
M  V30 6483 C 609.261 -0.625031 1.85978 0
M  V30 6484 O 608.386 -1.48173 1.57714 0
M  V30 6485 C 608.981 1.5307 3.0225 0
M  V30 6486 C 607.54 1.33223 3.52035 0
M  V30 6487 C 606.687 1.58806 2.27323 0
M  V30 6488 H 609.638 1.25175 0.975541 0
M  V30 6489 H 609.659 0.96267 3.68121 0
M  V30 6490 H 609.171 2.60192 2.87961 0
M  V30 6491 H 607.272 0.282091 3.71531 0
M  V30 6492 H 607.385 2.0657 4.32279 0
M  V30 6493 H 605.749 1.01007 2.33815 0
M  V30 6494 H 606.532 2.67153 2.15602 0
M  V30 6495 N 608.977 -1.30795 0.87923 0
M  V30 6496 C 610.207 -2.00237 0.50881 0
M  V30 6497 C 610.615 -1.66115 -0.905682 0
M  V30 6498 O 609.958 -0.89138 -1.60624 0
M  V30 6499 C 610.02 -3.54508 0.597003 0
M  V30 6500 C 609.684 -4.12131 1.97477 0
M  V30 6501 C 610.681 -4.28552 2.94346 0
M  V30 6502 C 608.366 -4.47644 2.2786 0
M  V30 6503 C 610.36 -4.79689 4.19735 0
M  V30 6504 C 608.047 -4.98481 3.53496 0
M  V30 6505 C 609.045 -5.14456 4.49248 0
M  V30 6506 O 608.733 -5.64199 5.72656 0
M  V30 6507 H 608.465 -0.647026 0.195788 0
M  V30 6508 H 611.019 -1.67785 1.1848 0
M  V30 6509 H 609.249 -3.86461 -0.135945 0
M  V30 6510 H 610.938 -4.05198 0.238684 0
M  V30 6511 H 611.704 -4.01424 2.72183 0
M  V30 6512 H 607.583 -4.34481 1.54102 0
M  V30 6513 H 611.127 -4.92073 4.9448 0
M  V30 6514 H 607.024 -5.25044 3.75498 0
M  V30 6515 H 607.792 -5.82551 5.74957 0
M  V30 6516 N 610.455 -0.639598 -1.44038 0
M  V30 6517 C 611.701 -0.147698 -2.02261 0
M  V30 6518 C 612.034 1.23031 -1.50256 0
M  V30 6519 O 611.309 1.81847 -0.690068 0
M  V30 6520 C 611.592 -0.14362 -3.59813 0
M  V30 6521 C 611.445 -1.55458 -4.22082 0
M  V30 6522 C 612.764 0.527317 -4.36929 0
M  V30 6523 H 609.883 -0.0551453 -0.734934 0
M  V30 6524 H 612.525 -0.817688 -1.71505 0
M  V30 6525 H 610.675 0.426898 -3.86147 0
M  V30 6526 H 612.347 -2.17464 -4.06826 0
M  V30 6527 H 610.59 -2.10594 -3.79253 0
M  V30 6528 H 611.261 -1.50369 -5.31124 0
M  V30 6529 H 613.737 0.0420504 -4.16079 0
M  V30 6530 H 612.613 0.499389 -5.46624 0
M  V30 6531 H 612.874 1.59914 -4.12165 0
M  V30 6532 N 611.933 1.52934 -0.380664 0
M  V30 6533 C 612.866 2.22597 0.502564 0
M  V30 6534 C 613.844 1.22345 1.071 0
M  V30 6535 O 615.028 1.51302 1.12428 0
M  V30 6536 C 612.155 2.93246 1.69482 0
M  V30 6537 C 611.201 4.07696 1.25244 0
M  V30 6538 S 612.034 5.34957 0.241159 0
M  V30 6539 C 613.19 6.09124 1.4394 0
M  V30 6540 H 613.423 2.97167 -0.089029 0
M  V30 6541 H 610.956 1.53518 -0.164817 0
M  V30 6542 H 612.914 3.34562 2.37863 0
M  V30 6543 H 611.575 2.18373 2.2577 0
M  V30 6544 H 610.768 4.56199 2.1424 0
M  V30 6545 H 610.37 3.68349 0.647664 0
M  V30 6546 H 612.662 6.34771 2.36794 0
M  V30 6547 H 613.605 7.01068 0.995464 0
M  V30 6548 H 614.013 5.39777 1.65229 0
M  V30 6549 N 613.412 0.11024 1.57214 0
M  V30 6550 C 614.375 -0.828808 2.1369 0
M  V30 6551 C 615.375 -1.20059 1.06969 0
M  V30 6552 O 616.565 -1.12754 1.32786 0
M  V30 6553 C 613.697 -2.11959 2.66994 0
M  V30 6554 H 614.89 -0.338146 2.97988 0
M  V30 6555 H 612.443 -0.138913 1.55681 0
M  V30 6556 H 613.178 -2.65476 1.8626 0
M  V30 6557 H 612.963 -1.86258 3.45037 0
M  V30 6558 H 614.453 -2.79105 3.10629 0
M  V30 6559 N 614.89 -1.56749 -0.16351 0
M  V30 6560 C 615.838 -1.97939 -1.22159 0
M  V30 6561 C 616.832 -0.869288 -1.45395 0
M  V30 6562 O 618.038 -1.05443 -1.45883 0
M  V30 6563 H 614.413 -0.629869 -0.410815 0
M  V30 6564 H 616.384 -2.86115 -0.847381 0
M  V30 6565 C 615.133 -2.36206 -2.55151 0
M  V30 6566 H 614.456 -3.2117 -2.38097 0
M  V30 6567 H 615.896 -2.68863 -3.27854 0
M  V30 6568 C 614.355 -1.20841 -3.14482 0
M  V30 6569 O 614.885 -0.500258 -3.98573 0
M  V30 6570 N 613.091 -0.976943 -2.73686 0
M  V30 6571 H 612.638 -1.55457 -2.05404 0
M  V30 6572 H 612.596 -0.206912 -3.13718 0
M  V30 6573 N 616.368 0.432326 -1.51554 0
M  V30 6574 C 617.614 1.18309 -1.64714 0
M  V30 6575 C 617.947 1.90745 -0.364696 0
M  V30 6576 O 617.222 1.8381 0.635936 0
M  V30 6577 C 617.505 2.1961 -2.85383 0
M  V30 6578 C 617.358 1.51223 -4.23617 0
M  V30 6579 C 618.677 3.20538 -3.01569 0
M  V30 6580 H 615.796 0.428751 -0.599451 0
M  V30 6581 H 618.438 0.471689 -1.84052 0
M  V30 6582 H 616.588 2.8028 -2.69027 0
M  V30 6583 H 618.26 0.938516 -4.51652 0
M  V30 6584 H 616.503 0.814501 -4.26085 0
M  V30 6585 H 617.174 2.25024 -5.04052 0
M  V30 6586 H 619.65 2.69926 -3.16669 0
M  V30 6587 H 618.526 3.88706 -3.87555 0
M  V30 6588 H 618.787 3.86933 -2.13859 0
M  V30 6589 N 617.846 1.41785 0.688094 0
M  V30 6590 C 618.809 1.43936 1.78368 0
M  V30 6591 C 619.809 0.328866 1.57401 0
M  V30 6592 O 620.999 0.589093 1.63937 0
M  V30 6593 C 618.131 1.25804 3.16838 0
M  V30 6594 H 619.324 2.41472 1.77852 0
M  V30 6595 H 616.877 1.28037 0.896448 0
M  V30 6596 H 617.612 0.291386 3.22988 0
M  V30 6597 H 617.397 2.06272 3.33458 0
M  V30 6598 H 618.887 1.30162 3.96797 0
M  V30 6599 N 619.324 -0.923095 1.27737 0
M  V30 6600 C 620.552 -1.70525 1.17171 0
M  V30 6601 C 620.967 -1.86847 -0.270881 0
M  V30 6602 O 620.324 -1.38879 -1.18401 0
M  V30 6603 C 620.375 -3.10242 1.85559 0
M  V30 6604 O 620.096 -2.94683 3.24182 0
M  V30 6605 C 621.597 -4.04586 1.81176 0
M  V30 6606 H 618.817 -0.533347 0.407163 0
M  V30 6607 H 621.361 -1.15599 1.68692 0
M  V30 6608 H 619.516 -3.62014 1.3793 0
M  V30 6609 H 619.93 -3.83045 3.58297 0
M  V30 6610 H 621.404 -5.00119 2.33633 0
M  V30 6611 H 621.881 -4.3218 0.782099 0
M  V30 6612 H 622.487 -3.58741 2.2844 0
M  V30 6613 N 620.802 -1.09834 -1.13024 0
M  V30 6614 C 621.749 -0.741522 -2.18564 0
M  V30 6615 C 622.719 0.279236 -1.63736 0
M  V30 6616 O 623.904 0.159923 -1.90129 0
M  V30 6617 C 621.044 -0.17277 -3.44667 0
M  V30 6618 C 620.157 -1.24808 -4.13578 0
M  V30 6619 C 619.292 -0.641631 -5.27311 0
M  V30 6620 C 618.331 -1.69795 -5.88078 0
M  V30 6621 N 617.468 -1.11223 -6.93234 0
M  V30 6622 H 622.308 -1.64576 -2.48432 0
M  V30 6623 H 619.845 -0.822174 -1.21978 0
M  V30 6624 H 621.803 0.17482 -4.16834 0
M  V30 6625 H 620.433 0.694725 -3.15235 0
M  V30 6626 H 619.485 -1.71288 -3.39653 0
M  V30 6627 H 620.797 -2.04795 -4.54819 0
M  V30 6628 H 619.951 -0.243128 -6.06213 0
M  V30 6629 H 618.69 0.189742 -4.87331 0
M  V30 6630 H 617.695 -2.10595 -5.07868 0
M  V30 6631 H 618.92 -2.53206 -6.3013 0
M  V30 6632 H 616.866 -0.302208 -6.55304 0
M  V30 6633 H 616.783 -1.84901 -7.3304 0
M  V30 6634 H 618.051 -0.740068 -7.75979 0
M  V30 6635 N 622.28 1.30327 -0.886154 0
M  V30 6636 C 623.529 1.95373 -0.501243 0
M  V30 6637 C 623.842 1.70722 0.954634 0
M  V30 6638 O 625.048 2.29761 1.44644 0
M  V30 6639 C 623.504 3.49828 -0.845493 0
M  V30 6640 C 623.112 3.83296 -2.31922 0
M  V30 6641 C 624.856 4.2118 -0.529838 0
M  V30 6642 C 622.763 5.30935 -2.60504 0
M  V30 6643 H 621.693 0.731274 -0.183722 0
M  V30 6644 H 624.344 1.48258 -1.08129 0
M  V30 6645 H 622.726 3.95522 -0.19452 0
M  V30 6646 H 623.9 3.48508 -3.01461 0
M  V30 6647 H 622.215 3.2505 -2.60253 0
M  V30 6648 H 624.812 5.29825 -0.720401 0
M  V30 6649 H 625.155 4.12902 0.530828 0
M  V30 6650 H 625.688 3.81173 -1.13806 0
M  V30 6651 H 622.427 5.44265 -3.65316 0
M  V30 6652 H 621.947 5.67019 -1.95575 0
M  V30 6653 H 623.626 5.98381 -2.46066 0
M  V30 6654 N 623.758 0.647228 1.43697 0
M  V30 6655 C 625.005 0.158188 2.01881 0
M  V30 6656 C 625.333 -1.22573 1.51017 0
M  V30 6657 O 624.588 -1.83086 0.69122 0
M  V30 6658 C 624.887 0.111481 3.57226 0
M  V30 6659 C 624.553 1.43633 4.27411 0
M  V30 6660 C 623.215 1.79915 4.463 0
M  V30 6661 C 625.567 2.31011 4.67208 0
M  V30 6662 C 622.895 3.03251 5.02251 0
M  V30 6663 C 625.247 3.53633 5.24525 0
M  V30 6664 C 623.911 3.90118 5.41631 0
M  V30 6665 H 623.181 0.0578851 0.738736 0
M  V30 6666 H 625.828 0.836746 1.72252 0
M  V30 6667 H 624.133 -0.650507 3.86362 0
M  V30 6668 H 625.83 -0.283682 3.99995 0
M  V30 6669 H 622.42 1.14403 4.1305 0
M  V30 6670 H 626.604 2.04272 4.52313 0
M  V30 6671 H 621.86 3.31575 5.13681 0
M  V30 6672 H 626.034 4.21561 5.5431 0
M  V30 6673 H 623.661 4.85768 5.84751 0
M  V30 6674 N 625.236 -1.5273 0.388769 0
M  V30 6675 C 626.168 -2.24081 -0.481704 0
M  V30 6676 C 627.181 -1.26307 -1.02715 0
M  V30 6677 O 628.37 -1.52386 -0.929565 0
M  V30 6678 C 625.47 -2.94315 -1.68024 0
M  V30 6679 C 624.643 -4.18791 -1.26226 0
M  V30 6680 C 623.702 -4.72028 -2.32542 0
M  V30 6681 O 622.728 -5.35129 -1.93972 0
M  V30 6682 N 623.93 -4.51838 -3.64448 0
M  V30 6683 H 626.695 -2.9942 0.129591 0
M  V30 6684 H 624.256 -1.60465 0.2151 0
M  V30 6685 H 626.248 -3.26831 -2.38671 0
M  V30 6686 H 624.818 -2.22287 -2.19789 0
M  V30 6687 H 624.038 -3.92318 -0.384703 0
M  V30 6688 H 625.326 -4.99668 -0.959647 0
M  V30 6689 H 624.724 -4.01468 -3.98547 0
M  V30 6690 H 623.281 -4.88845 -4.31131 0
M  V30 6691 N 626.714 -0.118576 -1.57153 0
M  V30 6692 C 627.624 0.845484 -2.18835 0
M  V30 6693 C 628.64 1.29299 -1.16438 0
M  V30 6694 O 629.816 1.35607 -1.48905 0
M  V30 6695 C 626.881 2.07795 -2.77529 0
M  V30 6696 C 625.942 1.6824 -3.9496 0
M  V30 6697 C 625.175 2.85612 -4.50845 0
M  V30 6698 O 625.398 4.01025 -4.05629 0
M  V30 6699 O 624.332 2.62721 -5.41536 0
M  V30 6700 H 628.158 0.350568 -3.0167 0
M  V30 6701 H 625.743 0.107013 -1.49016 0
M  V30 6702 H 627.625 2.79978 -3.14945 0
M  V30 6703 H 626.3 2.56294 -1.97725 0
M  V30 6704 H 625.207 0.931663 -3.62313 0
M  V30 6705 H 626.54 1.24484 -4.76198 0
M  V30 6706 N 628.193 1.56834 0.155195 0
M  V30 6707 C 629.123 2.00678 1.19376 0
M  V30 6708 C 630.104 0.884973 1.45266 0
M  V30 6709 O 631.289 1.1522 1.56326 0
M  V30 6710 C 628.419 2.38042 2.5289 0
M  V30 6711 C 627.373 3.53332 2.41538 0
M  V30 6712 C 626.699 3.76485 3.79688 0
M  V30 6713 C 627.999 4.86265 1.9064 0
M  V30 6714 H 629.693 2.87688 0.829232 0
M  V30 6715 H 627.239 1.38407 0.397445 0
M  V30 6716 H 629.192 2.67314 3.25763 0
M  V30 6717 H 627.916 1.4796 2.91162 0
M  V30 6718 H 626.575 3.24213 1.71117 0
M  V30 6719 H 626.223 2.83667 4.15382 0
M  V30 6720 H 625.923 4.54068 3.72956 0
M  V30 6721 H 627.447 4.08174 4.54122 0
M  V30 6722 H 628.861 5.14308 2.53299 0
M  V30 6723 H 627.258 5.67597 1.94818 0
M  V30 6724 H 628.328 4.77184 0.861596 0
M  V30 6725 N 629.671 -0.424282 1.51781 0
M  V30 6726 C 630.917 -1.17434 1.6534 0
M  V30 6727 C 631.25 -1.90549 0.374806 0
M  V30 6728 O 630.525 -1.84145 -0.626179 0
M  V30 6729 C 630.808 -2.18093 2.86544 0
M  V30 6730 C 630.661 -1.48975 4.24413 0
M  V30 6731 C 631.98 -3.18934 3.03264 0
M  V30 6732 H 629.099 -0.425566 0.601716 0
M  V30 6733 H 631.741 -0.461921 1.84299 0
M  V30 6734 H 629.891 -2.78849 2.7051 0
M  V30 6735 H 631.563 -0.914551 4.52143 0
M  V30 6736 H 629.806 -0.791893 4.26511 0
M  V30 6737 H 630.477 -2.22347 5.05238 0
M  V30 6738 H 632.953 -2.68243 3.18096 0
M  V30 6739 H 631.829 -3.86645 3.89611 0
M  V30 6740 H 632.09 -3.85793 2.15908 0
M  V30 6741 N 631.149 -1.42148 -0.680565 0
M  V30 6742 C 632.059 -1.47565 -1.82378 0
M  V30 6743 C 633.075 -0.36489 -1.70131 0
M  V30 6744 O 634.251 -0.614916 -1.91783 0
M  V30 6745 C 631.316 -1.37013 -3.18478 0
M  V30 6746 C 630.377 -2.58532 -3.42724 0
M  V30 6747 C 629.61 -2.48473 -4.72331 0
M  V30 6748 O 629.833 -1.51745 -5.49845 0
M  V30 6749 O 628.767 -3.38503 -4.97694 0
M  V30 6750 H 632.593 -2.44045 -1.80764 0
M  V30 6751 H 630.178 -1.23849 -0.835569 0
M  V30 6752 H 632.06 -1.33468 -3.99705 0
M  V30 6753 H 630.735 -0.436552 -3.20743 0
M  V30 6754 H 629.642 -2.67652 -2.61368 0
M  V30 6755 H 630.975 -3.50769 -3.45286 0
M  V30 6756 N 632.627 0.916307 -1.28225 0
M  V30 6757 C 633.875 1.6619 -1.15002 0
M  V30 6758 C 634.196 1.92642 0.302329 0
M  V30 6759 O 633.466 1.54076 1.20985 0
M  V30 6760 H 632.046 0.615964 -0.422608 0
M  V30 6761 H 634.708 1.09963 -1.60917 0
M  V30 6762 H 633.804 2.62533 -1.68769 0
M  V30 6763 N 634.105 1.10431 1.1244 0
M  V30 6764 C 635.351 0.847972 1.84221 0
M  V30 6765 C 635.684 -0.624903 1.83871 0
M  V30 6766 O 634.959 -1.46074 1.28423 0
M  V30 6767 C 635.242 1.39695 3.319 0
M  V30 6768 C 635.095 2.93668 3.40704 0
M  V30 6769 C 636.414 1.03924 4.27654 0
M  V30 6770 H 633.533 0.309502 0.668863 0
M  V30 6771 H 636.175 1.36745 1.31912 0
M  V30 6772 H 634.325 0.955095 3.76577 0
M  V30 6773 H 635.997 3.46379 3.04662 0
M  V30 6774 H 634.24 3.30272 2.81252 0
M  V30 6775 H 634.911 3.27162 4.446 0
M  V30 6776 H 637.387 1.42049 3.91102 0
M  V30 6777 H 636.263 1.45027 5.29394 0
M  V30 6778 H 636.524 -0.051336 4.4207 0
M  V30 6779 N 635.583 -1.29855 0.893053 0
M  V30 6780 C 636.83 -1.95826 0.515585 0
M  V30 6781 C 637.158 -1.70451 -0.936842 0
M  V30 6782 O 636.413 -1.00657 -1.67829 0
M  V30 6783 C 636.712 -3.49515 0.746588 0
M  V30 6784 C 636.378 -3.94955 2.17535 0
M  V30 6785 C 635.04 -4.07073 2.56603 0
M  V30 6786 C 637.392 -4.18536 3.10607 0
M  V30 6787 C 634.72 -4.40138 3.87938 0
M  V30 6788 C 637.072 -4.53073 4.41484 0
M  V30 6789 C 635.736 -4.634 4.80434 0
M  V30 6790 H 635.006 -0.71658 0.188666 0
M  V30 6791 H 637.653 -1.54574 1.13045 0
M  V30 6792 H 635.958 -3.9177 0.0487551 0
M  V30 6793 H 637.655 -3.98644 0.434009 0
M  V30 6794 H 634.245 -3.86035 1.86212 0
M  V30 6795 H 638.429 -4.08646 2.81641 0
M  V30 6796 H 633.685 -4.46335 4.17846 0
M  V30 6797 H 637.859 -4.70269 5.13634 0
M  V30 6798 H 635.486 -4.88775 5.82239 0
M  V30 6799 N 637.061 -0.65484 -1.43351 0
M  V30 6800 C 638.291 -0.176429 -2.05845 0
M  V30 6801 C 638.699 1.16375 -1.49176 0
M  V30 6802 O 638.042 1.72981 -0.618322 0
M  V30 6803 C 638.104 -0.0125844 -3.59498 0
M  V30 6804 C 637.768 -1.27831 -4.38758 0
M  V30 6805 C 638.765 -2.2074 -4.70712 0
M  V30 6806 C 636.45 -1.52035 -4.78739 0
M  V30 6807 C 638.444 -3.36145 -5.41558 0
M  V30 6808 C 636.131 -2.67732 -5.49329 0
M  V30 6809 C 637.129 -3.59612 -5.80662 0
M  V30 6810 O 636.817 -4.73289 -6.4981 0
M  V30 6811 H 636.549 -0.0879682 -0.670252 0
M  V30 6812 H 639.103 -0.896193 -1.84818 0
M  V30 6813 H 637.333 0.762567 -3.79107 0
M  V30 6814 H 639.022 0.423392 -4.03686 0
M  V30 6815 H 639.788 -2.03284 -4.40341 0
M  V30 6816 H 635.667 -0.813987 -4.53757 0
M  V30 6817 H 639.211 -4.07881 -5.65932 0
M  V30 6818 H 635.108 -2.85122 -5.79116 0
M  V30 6819 H 635.876 -4.72575 -6.68293 0
M  V30 6820 N 638.539 1.52521 -0.396863 0
M  V30 6821 C 639.788 2.00857 0.184184 0
M  V30 6822 C 640.101 1.28733 1.47265 0
M  V30 6823 O 641.307 1.67821 2.13421 0
M  V30 6824 C 639.763 3.57901 0.378787 0
M  V30 6825 C 639.371 4.38931 -0.896873 0
M  V30 6826 C 641.115 4.14504 0.915789 0
M  V30 6827 C 639.022 5.87591 -0.670133 0
M  V30 6828 H 637.952 0.750496 0.0726055 0
M  V30 6829 H 640.603 1.75965 -0.520425 0
M  V30 6830 H 638.985 3.79072 1.14543 0
M  V30 6831 H 640.159 4.29524 -1.66872 0
M  V30 6832 H 638.474 3.93586 -1.35938 0
M  V30 6833 H 641.071 5.23236 1.10126 0
M  V30 6834 H 641.414 3.71076 1.88701 0
M  V30 6835 H 641.947 3.97253 0.208523 0
M  V30 6836 H 638.686 6.35355 -1.61257 0
M  V30 6837 H 638.206 5.99767 0.0626368 0
M  V30 6838 H 639.885 6.46268 -0.307577 0
M  V30 6839 N 640.017 0.126909 1.57088 0
M  V30 6840 C 640.967 -0.831678 2.1229 0
M  V30 6841 C 641.951 -1.22292 1.04564 0
M  V30 6842 O 643.143 -1.19269 1.30782 0
M  V30 6843 C 640.272 -2.07866 2.73215 0
M  V30 6844 C 639.358 -1.71143 3.88035 0
M  V30 6845 N 639.749 -1.05136 4.94753 0
M  V30 6846 C 638.047 -2.00549 3.98367 0
M  V30 6847 C 638.748 -0.877257 5.75047 0
M  V30 6848 N 637.724 -1.40477 5.25135 0
M  V30 6849 H 641.526 -0.317926 2.92175 0
M  V30 6850 H 639.04 -0.0753052 1.62225 0
M  V30 6851 H 641.037 -2.77516 3.11111 0
M  V30 6852 H 639.697 -2.59778 1.94796 0
M  V30 6853 H 640.708 -0.71442 5.12949 0
M  V30 6854 H 637.385 -2.54452 3.30999 0
M  V30 6855 H 638.775 -0.358536 6.70943 0
M  V30 6856 N 641.495 -1.56914 -0.146875 0
M  V30 6857 C 642.443 -1.99224 -1.20053 0
M  V30 6858 C 643.437 -0.884661 -1.44465 0
M  V30 6859 O 644.643 -1.06984 -1.44756 0
M  V30 6860 H 641.018 -0.634191 -0.404112 0
M  V30 6861 H 642.989 -2.86998 -0.816987 0
M  V30 6862 C 641.738 -2.38899 -2.52632 0
M  V30 6863 H 641.061 -3.23677 -2.34677 0
M  V30 6864 H 642.501 -2.72326 -3.24984 0
M  V30 6865 C 640.96 -1.2417 -3.13183 0
M  V30 6866 O 641.49 -0.542503 -3.9802 0
M  V30 6867 N 639.696 -1.00592 -2.72635 0
M  V30 6868 H 639.243 -1.57627 -2.03744 0
M  V30 6869 H 639.201 -0.240174 -3.13481 0
M  V30 6870 N 642.974 0.416227 -1.52004 0
M  V30 6871 C 643.907 1.52736 -1.6955 0
M  V30 6872 C 644.885 1.53264 -0.54305 0
M  V30 6873 O 646.069 1.72077 -0.769527 0
M  V30 6874 C 643.196 2.91283 -1.72835 0
M  V30 6875 C 642.242 3.08695 -2.94295 0
M  V30 6876 S 643.075 2.82758 -4.54762 0
M  V30 6877 C 644.231 4.23548 -4.60823 0
M  V30 6878 H 644.464 1.37623 -2.63528 0
M  V30 6879 H 641.997 0.607335 -1.41954 0
M  V30 6880 H 643.955 3.71134 -1.75413 0
M  V30 6881 H 642.616 3.03742 -0.799966 0
M  V30 6882 H 641.809 4.10042 -2.93056 0
M  V30 6883 H 641.411 2.36699 -2.89568 0
M  V30 6884 H 643.703 5.17078 -4.37763 0
M  V30 6885 H 644.646 4.29813 -5.62731 0
M  V30 6886 H 645.054 4.08188 -3.89927 0
M  V30 6887 N 644.452 1.42507 0.673017 0
M  V30 6888 C 645.7 1.42789 1.43023 0
M  V30 6889 C 646.021 0.0459738 1.94946 0
M  V30 6890 O 645.291 -0.915765 1.73178 0
M  V30 6891 H 643.871 0.525657 0.530748 0
M  V30 6892 H 646.533 1.77944 0.795113 0
M  V30 6893 H 645.629 2.12872 2.28237 0
M  V30 6894 N 645.93 -0.909495 1.28709 0
M  V30 6895 C 647.179 -1.65365 1.15487 0
M  V30 6896 C 647.492 -1.93364 -0.294941 0
M  V30 6897 O 648.698 -2.65905 -0.548338 0
M  V30 6898 C 647.154 -2.97923 2.01916 0
M  V30 6899 C 646.762 -2.77556 3.51663 0
M  V30 6900 C 648.506 -3.75814 1.97393 0
M  V30 6901 C 646.413 -4.0578 4.30229 0
M  V30 6902 H 645.343 -0.620323 0.42862 0
M  V30 6903 H 647.994 -1.00894 1.53273 0
M  V30 6904 H 646.376 -3.63552 1.5699 0
M  V30 6905 H 647.55 -2.2058 4.04575 0
M  V30 6906 H 645.865 -2.13072 3.57756 0
M  V30 6907 H 648.462 -4.70866 2.53357 0
M  V30 6908 H 648.805 -4.05277 0.951643 0
M  V30 6909 H 649.338 -3.1701 2.40311 0
M  V30 6910 H 646.077 -3.81488 5.33055 0
M  V30 6911 H 645.597 -4.62351 3.82089 0
M  V30 6912 H 647.276 -4.74004 4.40374 0
M  V30 6913 N 647.408 -1.11026 -1.11852 0
M  V30 6914 C 648.654 -0.857729 -1.83768 0
M  V30 6915 C 648.987 0.615143 -1.842 0
M  V30 6916 O 648.262 1.45391 -1.29196 0
M  V30 6917 C 648.545 -1.41453 -3.31154 0
M  V30 6918 C 648.398 -2.95471 -3.39142 0
M  V30 6919 C 649.717 -1.0619 -4.27097 0
M  V30 6920 H 646.836 -0.313044 -0.667212 0
M  V30 6921 H 649.478 -1.37443 -1.31185 0
M  V30 6922 H 647.628 -0.975052 -3.76065 0
M  V30 6923 H 649.3 -3.4799 -3.02821 0
M  V30 6924 H 647.543 -3.31759 -2.79497 0
M  V30 6925 H 648.214 -3.29515 -4.42859 0
M  V30 6926 H 650.69 -1.44122 -3.90344 0
M  V30 6927 H 649.566 -1.47832 -5.28618 0
M  V30 6928 H 649.827 0.0278912 -4.42091 0
M  V30 6929 N 648.886 1.2938 -0.899927 0
M  V30 6930 C 649.836 2.25311 -0.349165 0
M  V30 6931 C 650.82 1.51889 0.530892 0
M  V30 6932 O 652.012 1.73028 0.372872 0
M  V30 6933 C 649.141 3.40696 0.422055 0
M  V30 6934 C 648.227 4.21455 -0.472935 0
M  V30 6935 N 648.618 4.8048 -1.58026 0
M  V30 6936 C 646.916 4.45177 -0.270767 0
M  V30 6937 C 647.617 5.41117 -2.13465 0
M  V30 6938 N 646.593 5.24518 -1.42766 0
M  V30 6939 H 650.395 2.68507 -1.19505 0
M  V30 6940 H 647.909 1.43992 -0.751006 0
M  V30 6941 H 649.906 4.08486 0.833369 0
M  V30 6942 H 648.566 2.99037 1.2652 0
M  V30 6943 H 649.577 4.79257 -1.96299 0
M  V30 6944 H 646.254 4.14071 0.533988 0
M  V30 6945 H 647.644 5.979 -3.06537 0
M  V30 6946 N 650.364 0.662433 1.43002 0
M  V30 6947 C 651.78 0.330835 1.56133 0
M  V30 6948 C 651.98 -1.16454 1.64441 0
M  V30 6949 O 651.036 -1.94964 1.60453 0
M  V30 6950 C 652.349 1.05029 2.81761 0
M  V30 6951 C 653.897 1.03142 2.95518 0
M  V30 6952 C 654.372 1.73196 4.2399 0
M  V30 6953 N 655.863 1.70004 4.30875 0
M  V30 6954 C 656.598 2.21074 5.29069 0
M  V30 6955 N 656.094 2.80473 6.33488 0
M  V30 6956 N 657.887 2.1152 5.20784 0
M  V30 6957 H 650.038 1.63272 1.35853 0
M  V30 6958 H 652.301 0.687149 0.653092 0
M  V30 6959 H 652.007 2.10542 2.81718 0
M  V30 6960 H 651.881 0.607664 3.72273 0
M  V30 6961 H 654.268 -0.0153339 2.95096 0
M  V30 6962 H 654.349 1.51282 2.0627 0
M  V30 6963 H 653.993 2.77833 4.25172 0
M  V30 6964 H 653.923 1.22515 5.1215 0
M  V30 6965 H 656.414 1.26667 3.56039 0
M  V30 6966 H 656.727 3.17094 7.04749 0
M  V30 6967 H 655.072 2.84538 6.34085 0
M  V30 6968 H 658.263 1.64814 4.38126 0
M  V30 6969 H 658.436 2.51629 5.97149 0
M  V30 6970 N 651.842 -1.52309 0.404946 0
M  V30 6971 C 653.119 -1.94237 -0.230544 0
M  V30 6972 C 653.499 -1.34154 -1.6299 0
M  V30 6973 O 652.847 -0.515713 -2.22604 0
M  V30 6974 C 653.057 -3.48166 -0.241106 0
M  V30 6975 C 654.405 -4.22074 -0.462488 0
M  V30 6976 O 655.429 -3.54754 -0.320644 0
M  V30 6977 O 654.288 -5.41443 -0.741708 0
M  V30 6978 H 651.382 -0.813766 -0.147358 0
M  V30 6979 H 653.928 -1.6333 0.460587 0
M  V30 6980 H 652.7 -3.84269 0.738467 0
M  V30 6981 H 652.323 -3.85422 -0.97651 0
M  V30 6982 N 653.32 -0.135238 -1.57019 0
M  V30 6983 C 654.25 0.805235 -2.19176 0
M  V30 6984 C 655.231 1.2656 -1.13651 0
M  V30 6985 O 656.416 1.32528 -1.4195 0
M  V30 6986 C 653.546 2.04914 -2.80406 0
M  V30 6987 C 652.5 1.72598 -3.91655 0
M  V30 6988 C 651.826 3.04154 -4.39766 0
M  V30 6989 C 653.126 0.981709 -5.12991 0
M  V30 6990 H 654.82 0.287232 -2.98019 0
M  V30 6991 H 652.366 0.136714 -1.4335 0
M  V30 6992 H 654.319 2.71178 -3.22553 0
M  V30 6993 H 653.043 2.59067 -1.98877 0
M  V30 6994 H 651.702 1.08717 -3.50109 0
M  V30 6995 H 651.35 3.56274 -3.55075 0
M  V30 6996 H 651.05 2.83299 -5.14796 0
M  V30 6997 H 652.574 3.71509 -4.84576 0
M  V30 6998 H 653.988 1.5462 -5.52056 0
M  V30 6999 H 652.385 0.873533 -5.93708 0
M  V30 7000 H 653.455 -0.0286887 -4.84892 0
M  V30 7001 N 654.798 1.5699 0.138552 0
M  V30 7002 C 655.745 1.98899 1.17081 0
M  V30 7003 C 656.715 0.857922 1.42228 0
M  V30 7004 O 657.9 1.12065 1.54422 0
M  V30 7005 C 655.04 2.38189 2.4972 0
M  V30 7006 C 654.153 3.64624 2.31674 0
M  V30 7007 C 653.288 3.9298 3.57407 0
M  V30 7008 C 652.327 5.1266 3.34435 0
M  V30 7009 N 651.464 5.36983 4.5232 0
M  V30 7010 H 656.304 2.86881 0.80642 0
M  V30 7011 H 653.841 1.41925 0.386727 0
M  V30 7012 H 655.799 2.59 3.2707 0
M  V30 7013 H 654.429 1.53275 2.84089 0
M  V30 7014 H 653.481 3.51542 1.45337 0
M  V30 7015 H 654.793 4.52131 2.10664 0
M  V30 7016 H 653.947 4.14335 4.43183 0
M  V30 7017 H 652.686 3.03912 3.8143 0
M  V30 7018 H 651.691 4.9117 2.47048 0
M  V30 7019 H 652.916 6.03288 3.11802 0
M  V30 7020 H 650.862 4.50871 4.76499 0
M  V30 7021 H 650.779 6.18775 4.34343 0
M  V30 7022 H 652.047 5.62842 5.39285 0
M  V30 7023 N 656.276 -0.40816 1.52223 0
M  V30 7024 C 657.687 -0.986929 1.58482 0
M  V30 7025 C 658.038 -1.91521 0.425917 0
M  V30 7026 O 657.163 -2.11593 -0.453593 0
M  V30 7027 C 657.758 -1.7967 2.87235 0
M  V30 7028 C 656.317 -2.32549 2.9597 0
M  V30 7029 C 655.464 -1.12558 2.53428 0
M  V30 7030 H 658.415 -0.188362 1.57578 0
M  V30 7031 H 658.436 -2.65417 2.72642 0
M  V30 7032 H 657.948 -1.12082 3.71563 0
M  V30 7033 H 656.049 -3.03505 2.16137 0
M  V30 7034 H 656.162 -2.63348 4.00231 0
M  V30 7035 H 654.526 -1.47984 2.07299 0
M  V30 7036 H 655.309 -0.465351 3.40131 0
M  V30 7037 N 657.755 -1.42862 -0.66545 0
M  V30 7038 C 659.171 -1.25993 -0.979687 0
M  V30 7039 C 659.371 -0.170831 -2.00775 0
M  V30 7040 O 658.427 0.454827 -2.4837 0
M  V30 7041 C 659.74 -2.62005 -1.47559 0
M  V30 7042 C 661.288 -2.69437 -1.59288 0
M  V30 7043 C 661.763 -4.05838 -2.12272 0
M  V30 7044 N 663.254 -4.0784 -2.19592 0
M  V30 7045 C 663.989 -5.10205 -2.61684 0
M  V30 7046 N 663.485 -6.22949 -3.03161 0
M  V30 7047 N 665.278 -4.9756 -2.61516 0
M  V30 7048 H 657.429 -2.12395 0.0150493 0
M  V30 7049 H 659.692 -0.946355 -0.0558187 0
M  V30 7050 H 659.398 -3.42605 -0.794654 0
M  V30 7051 H 659.272 -2.86566 -2.45275 0
M  V30 7052 H 661.659 -1.89178 -2.26486 0
M  V30 7053 H 661.74 -2.48655 -0.600374 0
M  V30 7054 H 661.384 -4.86559 -1.4568 0
M  V30 7055 H 661.314 -4.23977 -3.12331 0
M  V30 7056 H 663.805 -3.26452 -1.90361 0
M  V30 7057 H 664.118 -6.96899 -3.33993 0
M  V30 7058 H 662.463 -6.2644 -3.00995 0
M  V30 7059 H 665.654 -4.08551 -2.28481 0
M  V30 7060 H 665.827 -5.77468 -2.93999 0
M  V30 7061 N 659.233 0.902656 -1.29189 0
M  V30 7062 C 660.181 2.0278 -1.13943 0
M  V30 7063 C 661.175 1.69308 -0.055787 0
M  V30 7064 O 662.381 1.78707 -0.215371 0
M  V30 7065 H 658.756 0.664595 -0.351877 0
M  V30 7066 H 660.727 2.12778 -2.09208 0
M  V30 7067 C 659.476 3.37657 -0.82966 0
M  V30 7068 H 658.799 3.63913 -1.65551 0
M  V30 7069 H 660.239 4.17078 -0.762998 0
M  V30 7070 C 658.698 3.33648 0.466991 0
M  V30 7071 O 659.228 3.72886 1.49395 0
M  V30 7072 N 657.434 2.86745 0.471761 0
M  V30 7073 H 656.981 2.55009 -0.364406 0
M  V30 7074 H 656.939 2.84446 1.33933 0
M  V30 7075 N 660.711 1.11618 1.11262 0
M  V30 7076 C 661.96 0.860934 1.82403 0
M  V30 7077 C 662.273 -0.615303 1.8567 0
M  V30 7078 O 663.479 -0.986861 2.52929 0
M  V30 7079 C 661.935 1.49048 3.27586 0
M  V30 7080 C 661.543 3.00089 3.32642 0
M  V30 7081 C 663.287 1.31515 4.03614 0
M  V30 7082 C 661.194 3.56019 4.72234 0
M  V30 7083 H 660.124 0.318423 0.683464 0
M  V30 7084 H 662.775 1.34165 1.25188 0
M  V30 7085 H 661.157 0.937434 3.84744 0
M  V30 7086 H 662.331 3.61813 2.85356 0
M  V30 7087 H 660.646 3.16919 2.70096 0
M  V30 7088 H 663.243 1.70732 5.0671 0
M  V30 7089 H 663.586 0.257917 4.155 0
M  V30 7090 H 664.119 1.83694 3.52848 0
M  V30 7091 H 660.858 4.61463 4.65545 0
M  V30 7092 H 660.378 2.99066 5.19923 0
M  V30 7093 H 662.057 3.54568 5.41193 0
M  V30 7094 N 662.189 -1.289 0.906776 0
M  V30 7095 C 663.436 -1.95269 0.536326 0
M  V30 7096 C 663.764 -1.71435 -0.918711 0
M  V30 7097 O 663.019 -1.02431 -1.66752 0
M  V30 7098 C 663.318 -3.48704 0.783617 0
M  V30 7099 C 662.984 -3.92626 2.21711 0
M  V30 7100 C 661.646 -4.04329 2.60906 0
M  V30 7101 C 663.998 -4.15218 3.15029 0
M  V30 7102 C 661.326 -4.35998 3.92584 0
M  V30 7103 C 663.678 -4.48365 4.46264 0
M  V30 7104 C 662.342 -4.58278 4.85322 0
M  V30 7105 H 661.612 -0.714538 0.196256 0
M  V30 7106 H 664.259 -1.53366 1.14678 0
M  V30 7107 H 662.564 -3.91696 0.0903048 0
M  V30 7108 H 664.261 -3.98162 0.476267 0
M  V30 7109 H 660.851 -3.84038 1.90296 0
M  V30 7110 H 665.035 -4.05636 2.8596 0
M  V30 7111 H 660.291 -4.41878 4.22557 0
M  V30 7112 H 664.465 -4.64795 5.18593 0
M  V30 7113 H 662.092 -4.82573 5.87391 0
M  V30 7114 N 663.667 -0.670007 -1.42649 0
M  V30 7115 C 664.597 -0.00258501 -2.335 0
M  V30 7116 C 665.578 0.794364 -1.50412 0
M  V30 7117 O 666.763 0.75248 -1.79029 0
M  V30 7118 C 663.893 0.952748 -3.33976 0
M  V30 7119 C 662.847 0.264733 -4.2718 0
M  V30 7120 C 662.173 1.33267 -5.17826 0
M  V30 7121 C 663.473 -0.853289 -5.15283 0
M  V30 7122 H 665.167 -0.761326 -2.89559 0
M  V30 7123 H 662.713 -0.367561 -1.3923 0
M  V30 7124 H 664.666 1.4287 -3.96442 0
M  V30 7125 H 663.39 1.74285 -2.7621 0
M  V30 7126 H 662.049 -0.190938 -3.66102 0
M  V30 7127 H 661.697 2.11464 -4.5639 0
M  V30 7128 H 661.397 0.877476 -5.81011 0
M  V30 7129 H 662.921 1.80965 -5.83167 0
M  V30 7130 H 664.335 -0.458763 -5.71462 0
M  V30 7131 H 662.732 -1.23398 -5.87276 0
M  V30 7132 H 663.802 -1.70412 -4.53969 0
M  V30 7133 N 665.145 1.52092 -0.413018 0
M  V30 7134 C 666.095 2.23947 0.427993 0
M  V30 7135 C 667.079 1.25229 1.01027 0
M  V30 7136 O 668.271 1.50448 0.932444 0
M  V30 7137 C 665.4 3.0672 1.542 0
M  V30 7138 C 664.486 4.12851 0.970307 0
M  V30 7139 N 664.877 5.05644 0.125611 0
M  V30 7140 C 663.175 4.28404 1.24042 0
M  V30 7141 C 663.876 5.8138 -0.192876 0
M  V30 7142 N 662.852 5.41996 0.417273 0
M  V30 7143 H 666.654 2.93048 -0.223628 0
M  V30 7144 H 664.168 1.60852 -0.223664 0
M  V30 7145 H 666.165 3.56754 2.15714 0
M  V30 7146 H 664.825 2.39159 2.19621 0
M  V30 7147 H 665.836 5.17348 -0.238995 0
M  V30 7148 H 662.513 3.72071 1.89391 0
M  V30 7149 H 663.903 6.66129 -0.878762 0
M  V30 7150 N 666.623 0.143563 1.56945 0
M  V30 7151 C 667.871 -0.507402 1.95627 0
M  V30 7152 C 668.192 -1.65626 1.02922 0
M  V30 7153 O 667.462 -1.95693 0.0901136 0
M  V30 7154 H 666.042 -0.190436 0.722318 0
M  V30 7155 H 668.704 0.218257 1.93674 0
M  V30 7156 H 667.8 -0.885816 2.99265 0
M  V30 7157 N 668.101 -1.57061 -0.130224 0
M  V30 7158 C 669.512 -1.73539 -0.68856 0
M  V30 7159 C 669.863 -0.760554 -1.80859 0
M  V30 7160 O 668.988 0.0690796 -2.1629 0
M  V30 7161 C 669.583 -3.14666 -1.25581 0
M  V30 7162 C 668.142 -3.32689 -1.76055 0
M  V30 7163 C 667.289 -2.69436 -0.655712 0
M  V30 7164 H 670.24 -1.58412 0.0956002 0
M  V30 7165 H 670.261 -3.15595 -2.12556 0
M  V30 7166 H 669.773 -3.85593 -0.440412 0
M  V30 7167 H 667.874 -2.66786 -2.60108 0
M  V30 7168 H 667.987 -4.4077 -1.87772 0
M  V30 7169 H 666.351 -2.30362 -1.08654 0
M  V30 7170 H 667.134 -3.42979 0.14852 0
M  V30 7171 N 669.579 0.400081 -1.52437 0
M  V30 7172 C 670.856 1.15973 -1.57511 0
M  V30 7173 C 671.236 2.0798 -0.361572 0
M  V30 7174 O 670.584 2.19032 0.650929 0
M  V30 7175 C 670.794 1.92912 -2.90837 0
M  V30 7176 C 672.142 2.48662 -3.44169 0
M  V30 7177 O 673.166 2.03081 -2.92637 0
M  V30 7178 O 672.025 3.31894 -4.34176 0
M  V30 7179 H 669.119 0.530023 -0.634827 0
M  V30 7180 H 671.665 0.40613 -1.64769 0
M  V30 7181 H 670.437 1.25564 -3.70607 0
M  V30 7182 H 670.06 2.75257 -2.86913 0
M  V30 7183 N 671.057 1.43213 0.657864 0
M  V30 7184 C 671.989 1.43974 1.78337 0
M  V30 7185 C 673.002 0.336482 1.59285 0
M  V30 7186 O 674.191 0.600631 1.68091 0
M  V30 7187 C 671.291 1.23242 3.15697 0
M  V30 7188 C 670.464 2.46319 3.61449 0
M  V30 7189 C 669.523 2.2088 4.77597 0
M  V30 7190 O 668.549 2.942 4.87273 0
M  V30 7191 N 669.751 1.22251 5.67481 0
M  V30 7192 H 672.516 2.40993 1.78164 0
M  V30 7193 H 670.077 1.3831 0.841549 0
M  V30 7194 H 672.069 1.04113 3.91079 0
M  V30 7195 H 670.639 0.346849 3.1067 0
M  V30 7196 H 669.859 2.80904 2.76563 0
M  V30 7197 H 671.147 3.28239 3.88763 0
M  V30 7198 H 670.545 0.616433 5.62331 0
M  V30 7199 H 669.102 1.09107 6.42603 0
M  V30 7200 N 672.536 -0.895792 1.29666 0
M  V30 7201 C 673.468 -2.00563 1.10937 0
M  V30 7202 C 674.481 -1.62705 0.055734 0
M  V30 7203 O 675.67 -1.7595 0.300656 0
M  V30 7204 C 672.77 -3.32262 0.667448 0
M  V30 7205 C 671.943 -3.98625 1.80047 0
M  V30 7206 C 671.002 -5.08617 1.3489 0
M  V30 7207 O 670.028 -5.30837 2.05429 0
M  V30 7208 N 671.23 -5.80076 0.221937 0
M  V30 7209 H 673.995 -2.17184 2.06522 0
M  V30 7210 H 671.556 -1.06822 1.21658 0
M  V30 7211 H 673.548 -4.03196 0.348586 0
M  V30 7212 H 672.118 -3.11985 -0.196055 0
M  V30 7213 H 671.338 -3.21005 2.28801 0
M  V30 7214 H 672.626 -4.39704 2.56003 0
M  V30 7215 H 672.024 -5.64514 -0.366084 0
M  V30 7216 H 670.581 -6.51789 -0.0375346 0
M  V30 7217 N 674.014 -1.12206 -1.10668 0
M  V30 7218 C 675.26 -0.877172 -1.82848 0
M  V30 7219 C 675.593 0.595571 -1.84842 0
M  V30 7220 O 674.868 1.44013 -1.30731 0
M  V30 7221 C 675.151 -1.44957 -3.29635 0
M  V30 7222 C 675.004 -2.99051 -3.35989 0
M  V30 7223 C 676.323 -1.10714 -4.25946 0
M  V30 7224 H 673.442 -0.320103 -0.663854 0
M  V30 7225 H 676.084 -1.38827 -1.2972 0
M  V30 7226 H 674.234 -1.01488 -3.7501 0
M  V30 7227 H 675.906 -3.51182 -2.99113 0
M  V30 7228 H 674.149 -3.34705 -2.75962 0
M  V30 7229 H 674.82 -3.34194 -4.39339 0
M  V30 7230 H 677.296 -1.48254 -3.88793 0
M  V30 7231 H 676.172 -1.5343 -5.2702 0
M  V30 7232 H 676.433 -0.019 -4.42096 0
M  V30 7233 N 675.492 1.28418 -0.913599 0
M  V30 7234 C 676.439 2.27301 -0.400373 0
M  V30 7235 C 677.409 1.57582 0.52509 0
M  V30 7236 O 678.594 1.85482 0.447318 0
M  V30 7237 C 675.734 3.43284 0.35361 0
M  V30 7238 C 674.847 4.27752 -0.604341 0
M  V30 7239 C 673.982 5.30934 0.168075 0
M  V30 7240 C 673.021 6.07065 -0.783499 0
M  V30 7241 N 672.158 7.02086 -0.0446112 0
M  V30 7242 H 676.998 2.70579 -1.24865 0
M  V30 7243 H 674.535 1.33067 -0.627028 0
M  V30 7244 H 676.493 4.09322 0.806945 0
M  V30 7245 H 675.123 3.00997 1.16623 0
M  V30 7246 H 674.175 3.61759 -1.17621 0
M  V30 7247 H 675.487 4.80682 -1.33216 0
M  V30 7248 H 674.641 6.02855 0.681979 0
M  V30 7249 H 673.38 4.78771 0.928947 0
M  V30 7250 H 672.385 5.33995 -1.30878 0
M  V30 7251 H 673.61 6.61317 -1.54392 0
M  V30 7252 H 671.556 6.52273 0.698272 0
M  V30 7253 H 671.473 7.52637 -0.712258 0
M  V30 7254 H 672.741 7.78205 0.449102 0
M  V30 7255 N 676.97 0.677563 1.42291 0
M  V30 7256 C 678.219 0.198173 2.00724 0
M  V30 7257 C 678.532 -1.20325 1.54211 0
M  V30 7258 O 679.738 -1.77916 2.05081 0
M  V30 7259 C 678.194 0.303432 3.58619 0
M  V30 7260 C 677.802 1.70909 4.14119 0
M  V30 7261 C 679.546 -0.117103 4.24338 0
M  V30 7262 C 677.453 1.76696 5.64387 0
M  V30 7263 H 676.383 0.070329 0.750713 0
M  V30 7264 H 679.034 0.843147 1.62982 0
M  V30 7265 H 677.416 -0.409482 3.93877 0
M  V30 7266 H 678.59 2.44931 3.90315 0
M  V30 7267 H 676.905 2.07771 3.6086 0
M  V30 7268 H 679.502 -0.0940471 5.34617 0
M  V30 7269 H 679.845 -1.15283 4.00019 0
M  V30 7270 H 680.378 0.5449 3.9405 0
M  V30 7271 H 677.117 2.7826 5.93508 0
M  V30 7272 H 676.637 1.07034 5.90173 0
M  V30 7273 H 678.316 1.52166 6.28852 0
M  V30 7274 N 678.448 -1.51871 0.421078 0
M  V30 7275 C 679.696 -2.01539 -0.150492 0
M  V30 7276 C 680.017 -1.30803 -1.44623 0
M  V30 7277 O 679.287 -0.437568 -1.90951 0
M  V30 7278 H 677.867 -0.744698 -0.0586041 0
M  V30 7279 H 680.529 -1.8668 0.560059 0
M  V30 7280 H 679.625 -3.10264 -0.338068 0
M  V30 7281 N 679.926 -0.151884 -1.56866 0
M  V30 7282 C 681.203 0.543328 -1.87902 0
M  V30 7283 C 681.583 1.82636 -1.05864 0
M  V30 7284 O 680.931 2.28028 -0.146868 0
M  V30 7285 C 681.141 0.804056 -3.39611 0
M  V30 7286 C 682.489 1.14267 -4.08935 0
M  V30 7287 O 683.513 0.893248 -3.44818 0
M  V30 7288 O 682.372 1.61229 -5.22176 0
M  V30 7289 H 679.466 0.277724 -0.778973 0
M  V30 7290 H 682.012 -0.188862 -1.68646 0
M  V30 7291 H 680.784 -0.103772 -3.91162 0
M  V30 7292 H 680.407 1.59025 -3.64413 0
M  V30 7293 N 681.404 1.57128 0.121893 0
M  V30 7294 C 682.651 1.847 0.830188 0
M  V30 7295 C 682.979 0.736543 1.80015 0
M  V30 7296 O 682.234 -0.272358 1.93796 0
M  V30 7297 C 682.533 3.1874 1.61677 0
M  V30 7298 C 682.199 4.43901 0.791361 0
M  V30 7299 C 680.861 4.77887 0.563731 0
M  V30 7300 C 683.213 5.20753 0.215823 0
M  V30 7301 C 680.541 5.86168 -0.249737 0
M  V30 7302 C 682.893 6.29891 -0.584821 0
M  V30 7303 C 681.557 6.6241 -0.822794 0
M  V30 7304 H 680.827 0.675866 0.303787 0
M  V30 7305 H 683.474 1.91276 0.0926894 0
M  V30 7306 H 681.779 3.07728 2.42509 0
M  V30 7307 H 683.476 3.37295 2.16872 0
M  V30 7308 H 680.066 4.17272 0.978867 0
M  V30 7309 H 684.25 4.94851 0.378907 0
M  V30 7310 H 679.506 6.0979 -0.44336 0
M  V30 7311 H 683.68 6.88624 -1.03779 0
M  V30 7312 H 681.307 7.46147 -1.45496 0
M  V30 7313 N 682.882 -0.391992 1.52647 0
M  V30 7314 C 684.13 -1.13507 1.67214 0
M  V30 7315 C 684.451 -1.90575 0.41304 0
M  V30 7316 O 683.721 -1.87348 -0.572498 0
M  V30 7317 H 682.301 -0.422013 0.616372 0
M  V30 7318 H 684.963 -0.44502 1.89751 0
M  V30 7319 H 684.059 -1.83964 2.52118 0
M  V30 7320 N 684.36 -1.4356 -0.65026 0
M  V30 7321 C 685.29 -1.51758 -1.77459 0
M  V30 7322 C 686.271 -0.372019 -1.65982 0
M  V30 7323 O 687.456 -0.589627 -1.85033 0
M  V30 7324 C 684.586 -1.44302 -3.15902 0
M  V30 7325 C 683.54 -2.57138 -3.42146 0
M  V30 7326 C 682.866 -2.34735 -4.8042 0
M  V30 7327 C 684.166 -3.99373 -3.36598 0
M  V30 7328 H 685.86 -2.45863 -1.70855 0
M  V30 7329 H 683.406 -1.18333 -0.820566 0
M  V30 7330 H 685.359 -1.48641 -3.94314 0
M  V30 7331 H 684.083 -0.467026 -3.23244 0
M  V30 7332 H 682.742 -2.52157 -2.66106 0
M  V30 7333 H 682.39 -1.35372 -4.84441 0
M  V30 7334 H 682.09 -3.10375 -4.9894 0
M  V30 7335 H 683.614 -2.40862 -5.61086 0
M  V30 7336 H 685.028 -4.05826 -4.04942 0
M  V30 7337 H 683.425 -4.75063 -3.66654 0
M  V30 7338 H 684.495 -4.243 -2.34729 0
M  V30 7339 N 685.838 0.888903 -1.30139 0
M  V30 7340 C 686.801 1.97576 -1.16174 0
M  V30 7341 C 687.801 1.60525 -0.094086 0
M  V30 7342 O 688.991 1.70812 -0.341889 0
M  V30 7343 C 686.123 3.3188 -0.778983 0
M  V30 7344 H 687.316 2.11393 -2.12728 0
M  V30 7345 H 684.869 1.0748 -1.1348 0
M  V30 7346 H 685.604 3.23765 0.186225 0
M  V30 7347 H 685.389 3.60141 -1.55051 0
M  V30 7348 H 686.879 4.11612 -0.704631 0
M  V30 7349 N 687.317 1.12792 1.10072 0
M  V30 7350 C 688.557 0.895691 1.8373 0
M  V30 7351 C 688.921 -0.568131 1.83402 0
M  V30 7352 O 690.122 -0.917666 2.52651 0
M  V30 7353 C 688.393 1.4593 3.2625 0
M  V30 7354 S 689.952 1.36615 4.16991 0
M  V30 7355 H 686.77 0.323017 0.633389 0
M  V30 7356 H 689.372 1.43816 1.32428 0
M  V30 7357 H 688.076 2.51818 3.24062 0
M  V30 7358 H 687.607 0.914478 3.82624 0
M  V30 7359 H 689.622 0.340131 4.95033 0
M  V30 7360 N 688.795 -1.27931 0.920396 0
M  V30 7361 C 690.023 -1.98805 0.573087 0
M  V30 7362 C 690.438 -1.68724 -0.847201 0
M  V30 7363 O 689.795 -0.943699 -1.56207 0
M  V30 7364 C 689.846 -3.52971 0.780633 0
M  V30 7365 O 689.567 -3.81994 2.14504 0
M  V30 7366 C 691.068 -4.411 0.44105 0
M  V30 7367 H 688.288 -0.634651 0.21785 0
M  V30 7368 H 690.832 -1.62965 1.23542 0
M  V30 7369 H 688.987 -3.87048 0.165204 0
M  V30 7370 H 689.401 -4.76609 2.18962 0
M  V30 7371 H 690.875 -5.48312 0.637006 0
M  V30 7372 H 691.352 -4.34758 -0.62306 0
M  V30 7373 H 691.958 -4.12532 1.0343 0
M  V30 7374 N 690.273 -0.685099 -1.4193 0
M  V30 7375 C 691.55 -0.140152 -1.95097 0
M  V30 7376 C 691.93 1.34745 -1.62502 0
M  V30 7377 O 691.278 2.08872 -0.926534 0
M  V30 7378 C 691.488 -0.420268 -3.4646 0
M  V30 7379 C 692.836 -0.342338 -4.23218 0
M  V30 7380 O 693.86 -0.354592 -3.54431 0
M  V30 7381 O 692.719 -0.293404 -5.45712 0
M  V30 7382 H 689.813 -0.00885998 -0.826953 0
M  V30 7383 H 692.359 -0.760539 -1.51703 0
M  V30 7384 H 691.131 -1.45037 -3.63428 0
M  V30 7385 H 690.754 0.231616 -3.96925 0
M  V30 7386 N 691.751 1.51645 -0.429126 0
M  V30 7387 C 693 2.01203 0.141538 0
M  V30 7388 C 693.313 1.31828 1.44502 0
M  V30 7389 O 694.519 1.7231 2.09813 0
M  V30 7390 C 692.975 3.58624 0.302786 0
M  V30 7391 C 692.583 4.3693 -0.989775 0
M  V30 7392 C 694.327 4.16353 0.827661 0
M  V30 7393 C 692.234 5.86037 -0.794619 0
M  V30 7394 H 691.164 0.751867 0.05667 0
M  V30 7395 H 693.815 1.74822 -0.557633 0
M  V30 7396 H 692.197 3.81417 1.06476 0
M  V30 7397 H 693.371 4.25887 -1.75945 0
M  V30 7398 H 691.686 3.90614 -1.44256 0
M  V30 7399 H 694.283 5.25455 0.990026 0
M  V30 7400 H 694.626 3.74995 1.80787 0
M  V30 7401 H 695.159 3.97606 0.124213 0
M  V30 7402 H 691.898 6.31792 -1.74697 0
M  V30 7403 H 691.418 5.99765 -0.0645968 0
M  V30 7404 H 693.097 6.45471 -0.444591 0
M  V30 7405 N 693.229 0.160201 1.56784 0
M  V30 7406 C 694.159 -0.770264 2.2043 0
M  V30 7407 C 695.14 -1.24736 1.15651 0
M  V30 7408 O 696.325 -1.30253 1.44041 0
M  V30 7409 C 693.455 -2.00427 2.83631 0
M  V30 7410 C 692.409 -1.66345 3.94352 0
M  V30 7411 C 691.735 -2.97119 4.4455 0
M  V30 7412 C 693.035 -0.899972 5.14488 0
M  V30 7413 H 694.729 -0.239783 2.98438 0
M  V30 7414 H 692.275 -0.113891 1.43549 0
M  V30 7415 H 694.228 -2.66012 3.26827 0
M  V30 7416 H 692.952 -2.5587 2.02973 0
M  V30 7417 H 691.611 -1.03133 3.51794 0
M  V30 7418 H 691.259 -3.5058 3.60698 0
M  V30 7419 H 690.959 -2.75073 5.19238 0
M  V30 7420 H 692.483 -3.63753 4.90425 0
M  V30 7421 H 693.897 -1.45818 5.54446 0
M  V30 7422 H 692.294 -0.778968 5.95023 0
M  V30 7423 H 693.364 0.105827 4.84785 0
M  V30 7424 N 694.707 -1.5719 -0.113559 0
M  V30 7425 C 695.639 -1.97393 -1.16484 0
M  V30 7426 C 696.652 -0.873964 -1.37352 0
M  V30 7427 O 697.841 -1.15222 -1.36331 0
M  V30 7428 C 694.941 -2.26174 -2.52386 0
M  V30 7429 C 694.114 -3.57479 -2.52046 0
M  V30 7430 C 693.173 -3.74409 -3.69735 0
M  V30 7431 O 692.199 -4.46463 -3.53071 0
M  V30 7432 N 693.401 -3.13588 -4.88511 0
M  V30 7433 H 696.166 -2.88184 -0.822814 0
M  V30 7434 H 693.727 -1.59044 -0.302769 0
M  V30 7435 H 695.719 -2.3471 -3.29687 0
M  V30 7436 H 694.289 -1.41483 -2.7875 0
M  V30 7437 H 693.509 -3.60081 -1.60421 0
M  V30 7438 H 694.797 -4.43775 -2.48881 0
M  V30 7439 H 694.195 -2.55026 -5.04953 0
M  V30 7440 H 692.752 -3.27637 -5.63469 0
M  V30 7441 N 696.185 0.383891 -1.52853 0
M  V30 7442 C 697.132 1.46924 -1.77995 0
M  V30 7443 C 698.102 1.53958 -0.623396 0
M  V30 7444 O 699.287 1.70134 -0.863657 0
M  V30 7445 C 696.427 2.84093 -1.95921 0
M  V30 7446 C 695.54 2.86171 -3.23621 0
M  V30 7447 C 694.675 4.14799 -3.31836 0
M  V30 7448 C 693.714 4.10948 -4.53639 0
M  V30 7449 N 692.851 5.31192 -4.59107 0
M  V30 7450 H 697.691 1.24786 -2.70615 0
M  V30 7451 H 695.228 0.605265 -1.34071 0
M  V30 7452 H 697.186 3.63755 -2.04299 0
M  V30 7453 H 695.816 3.04671 -1.06656 0
M  V30 7454 H 694.868 1.9885 -3.24288 0
M  V30 7455 H 696.18 2.79194 -4.13343 0
M  V30 7456 H 695.334 5.02867 -3.39425 0
M  V30 7457 H 694.073 4.24505 -2.40097 0
M  V30 7458 H 693.078 3.21268 -4.46169 0
M  V30 7459 H 694.303 4.0286 -5.467 0
M  V30 7460 H 692.249 5.41518 -3.70262 0
M  V30 7461 H 692.166 5.26311 -5.42708 0
M  V30 7462 H 693.434 6.21143 -4.70958 0
M  V30 7463 N 697.663 1.43903 0.642637 0
M  V30 7464 C 698.611 1.50164 1.77634 0
M  V30 7465 C 699.605 0.374294 1.65213 0
M  V30 7466 O 700.811 0.548748 1.71431 0
M  V30 7467 H 697.186 0.470974 0.586249 0
M  V30 7468 H 699.157 2.45603 1.69474 0
M  V30 7469 C 697.906 1.45196 3.15933 0
M  V30 7470 H 697.229 2.31253 3.26132 0
M  V30 7471 H 698.669 1.53638 3.95185 0
M  V30 7472 C 697.128 0.171043 3.36466 0
M  V30 7473 O 697.658 -0.763413 3.94379 0
M  V30 7474 N 695.864 0.077847 2.90496 0
M  V30 7475 H 695.411 0.8391 2.43551 0
M  V30 7476 H 695.369 -0.778473 3.0461 0
M  V30 7477 N 699.141 -0.881989 1.30609 0
M  V30 7478 C 700.369 -1.66711 1.22536 0
M  V30 7479 C 700.784 -1.87614 -0.2113 0
M  V30 7480 O 700.141 -1.42576 -1.13923 0
M  V30 7481 C 700.192 -3.04182 1.95335 0
M  V30 7482 O 699.913 -2.8422 3.33393 0
M  V30 7483 C 701.414 -3.98617 1.93956 0
M  V30 7484 H 698.634 -0.520124 0.423925 0
M  V30 7485 H 701.178 -1.10174 1.72285 0
M  V30 7486 H 699.333 -3.57442 1.49378 0
M  V30 7487 H 699.747 -3.71452 3.70302 0
M  V30 7488 H 701.221 -4.92433 2.49426 0
M  V30 7489 H 701.698 -4.29473 0.919198 0
M  V30 7490 H 702.304 -3.51292 2.39738 0
M  V30 7491 N 700.619 -1.13374 -1.09472 0
M  V30 7492 C 701.896 -0.806329 -1.78207 0
M  V30 7493 C 702.276 0.702191 -1.99079 0
M  V30 7494 O 701.624 1.63931 -1.59182 0
M  V30 7495 C 701.834 -1.59271 -3.10538 0
M  V30 7496 C 703.182 -1.78509 -3.85253 0
M  V30 7497 O 704.206 -1.55866 -3.20288 0
M  V30 7498 O 703.065 -2.16287 -5.01879 0
M  V30 7499 H 700.159 -0.29435 -0.772843 0
M  V30 7500 H 702.705 -1.23833 -1.16033 0
M  V30 7501 H 701.477 -2.61792 -2.90828 0
M  V30 7502 H 701.1 -1.15562 -3.80436 0
M  V30 7503 N 702.098 1.27442 -0.927168 0
M  V30 7504 C 703.344 1.95025 -0.577651 0
M  V30 7505 C 703.699 1.71534 0.871421 0
M  V30 7506 O 702.992 1.03354 1.61333 0
M  V30 7507 C 703.186 3.47413 -0.838994 0
M  V30 7508 C 703.015 3.85721 -2.31192 0
M  V30 7509 C 701.785 4.09199 -2.96452 0
M  V30 7510 C 703.983 3.95352 -3.28939 0
M  V30 7511 N 701.965 4.34283 -4.33903 0
M  V30 7512 C 703.336 4.24805 -4.51598 0
M  V30 7513 C 705.391 3.77926 -3.24155 0
M  V30 7514 C 704.094 4.38645 -5.70073 0
M  V30 7515 C 706.12 3.9299 -4.41942 0
M  V30 7516 C 705.482 4.22829 -5.63379 0
M  V30 7517 H 701.581 0.736983 -0.261495 0
M  V30 7518 H 704.165 1.53816 -1.19368 0
M  V30 7519 H 702.336 3.87581 -0.252129 0
M  V30 7520 H 704.068 4.02166 -0.452158 0
M  V30 7521 H 700.823 4.04013 -2.47125 0
M  V30 7522 H 701.247 4.50883 -5.05008 0
M  V30 7523 H 705.889 3.53897 -2.31337 0
M  V30 7524 H 703.607 4.615 -6.63358 0
M  V30 7525 H 707.193 3.80926 -4.39757 0
M  V30 7526 H 706.073 4.34234 -6.53001 0
M  V30 7527 N 703.576 0.692616 1.41565 0
M  V30 7528 C 704.804 0.231279 2.05603 0
M  V30 7529 C 705.219 -1.11837 1.52111 0
M  V30 7530 O 704.576 -1.6983 0.66813 0
M  V30 7531 C 704.627 0.177125 3.61066 0
M  V30 7532 O 704.348 1.47346 4.12578 0
M  V30 7533 C 705.849 -0.30556 4.42246 0
M  V30 7534 H 703.069 0.108238 0.662213 0
M  V30 7535 H 705.613 0.944369 1.81389 0
M  V30 7536 H 703.768 -0.486769 3.8433 0
M  V30 7537 H 704.182 1.35861 5.06599 0
M  V30 7538 H 705.656 -0.29233 5.51225 0
M  V30 7539 H 706.133 -1.34393 4.18133 0
M  V30 7540 H 706.739 0.327229 4.24039 0
M  V30 7541 N 705.054 -1.51416 0.437162 0
M  V30 7542 C 706.002 -2.29328 -0.388765 0
M  V30 7543 C 706.996 -1.35171 -1.02104 0
M  V30 7544 O 708.202 -1.52513 -0.956024 0
M  V30 7545 H 704.577 -0.738048 -0.144183 0
M  V30 7546 H 706.548 -2.96995 0.289212 0
M  V30 7547 C 705.297 -3.14741 -1.47761 0
M  V30 7548 H 704.62 -3.8708 -1.00045 0
M  V30 7549 H 706.06 -3.72313 -2.02877 0
M  V30 7550 C 704.519 -2.30105 -2.46076 0
M  V30 7551 O 705.049 -1.96055 -3.50607 0
M  V30 7552 N 703.255 -1.93331 -2.1696 0
M  V30 7553 H 702.802 -2.2122 -1.31983 0
M  V30 7554 H 702.76 -1.36999 -2.82982 0
M  V30 7555 N 706.532 -0.168513 -1.56696 0
M  V30 7556 C 707.948 0.187686 -1.58493 0
M  V30 7557 C 708.148 1.63063 -1.18375 0
M  V30 7558 O 707.204 2.36142 -0.894042 0
M  V30 7559 C 708.517 -0.0905858 -3.00564 0
M  V30 7560 C 710.065 -0.028575 -3.12987 0
M  V30 7561 C 710.54 -0.279799 -4.57145 0
M  V30 7562 N 712.031 -0.227476 -4.62641 0
M  V30 7563 C 712.766 -0.396073 -5.7203 0
M  V30 7564 N 712.262 -0.623572 -6.89988 0
M  V30 7565 N 714.055 -0.332173 -5.61118 0
M  V30 7566 H 706.206 -1.11042 -1.81062 0
M  V30 7567 H 708.469 -0.441235 -0.839056 0
M  V30 7568 H 708.175 -1.09006 -3.34381 0
M  V30 7569 H 708.049 0.619078 -3.72085 0
M  V30 7570 H 710.436 0.961471 -2.78998 0
M  V30 7571 H 710.517 -0.770905 -2.43907 0
M  V30 7572 H 710.161 -1.26704 -4.91842 0
M  V30 7573 H 710.091 0.48311 -5.24379 0
M  V30 7574 H 712.582 -0.0571723 -3.77857 0
M  V30 7575 H 712.895 -0.741745 -7.69232 0
M  V30 7576 H 711.24 -0.660153 -6.91858 0
M  V30 7577 H 714.431 -0.155051 -4.67843 0
M  V30 7578 H 714.604 -0.466994 -6.46315 0
M  V30 7579 N 708.01 1.57248 0.105221 0
M  V30 7580 C 708.958 2.02337 1.14728 0
M  V30 7581 C 709.952 0.922652 1.42069 0
M  V30 7582 O 711.158 1.10785 1.41869 0
M  V30 7583 H 707.533 0.644682 0.387155 0
M  V30 7584 H 709.504 2.89063 0.740607 0
M  V30 7585 C 708.253 2.45513 2.46209 0
M  V30 7586 H 707.576 3.29785 2.26013 0
M  V30 7587 H 709.016 2.80846 3.1765 0
M  V30 7588 C 707.475 1.3243 3.09781 0
M  V30 7589 O 708.005 0.647841 3.96442 0
M  V30 7590 N 706.211 1.07785 2.69872 0
M  V30 7591 H 705.758 1.62973 1.99493 0
M  V30 7592 H 705.716 0.323204 3.12734 0
M  V30 7593 N 709.488 -0.375779 1.53054 0
M  V30 7594 C 710.736 -1.11727 1.68409 0
M  V30 7595 C 711.057 -1.90127 0.43323 0
M  V30 7596 O 710.327 -1.87945 -0.552595 0
M  V30 7597 H 708.907 -0.415451 0.620813 0
M  V30 7598 H 711.569 -0.424869 1.90213 0
M  V30 7599 H 710.665 -1.8128 2.54055 0
M  V30 7600 N 710.966 -1.44241 -0.634997 0
M  V30 7601 C 711.913 -1.5081 -1.74714 0
M  V30 7602 C 712.883 -0.356147 -1.62237 0
M  V30 7603 O 714.068 -0.565848 -1.82216 0
M  V30 7604 C 711.208 -1.45458 -3.12947 0
M  V30 7605 C 710.321 -2.70998 -3.36428 0
M  V30 7606 C 709.456 -2.57507 -4.64611 0
M  V30 7607 C 708.495 -3.78229 -4.81258 0
M  V30 7608 N 707.632 -3.63438 -6.00714 0
M  V30 7609 H 712.472 -2.45832 -1.68436 0
M  V30 7610 H 710.009 -1.2201 -0.821706 0
M  V30 7611 H 711.967 -1.40347 -3.92885 0
M  V30 7612 H 710.597 -0.540058 -3.1825 0
M  V30 7613 H 709.649 -2.86312 -2.50458 0
M  V30 7614 H 710.961 -3.60619 -3.44609 0
M  V30 7615 H 710.115 -2.50207 -5.52703 0
M  V30 7616 H 708.854 -1.65441 -4.58782 0
M  V30 7617 H 707.859 -3.85918 -3.91596 0
M  V30 7618 H 709.084 -4.71327 -4.88904 0
M  V30 7619 H 707.03 -2.7412 -5.95982 0
M  V30 7620 H 706.947 -4.46672 -6.09934 0
M  V30 7621 H 708.215 -3.60022 -6.91378 0
M  V30 7622 N 712.444 0.87505 -1.31075 0
M  V30 7623 C 713.86 1.15997 -1.09622 0
M  V30 7624 C 714.06 2.01036 0.136611 0
M  V30 7625 O 713.116 2.38559 0.827397 0
M  V30 7626 C 714.429 1.85702 -2.36506 0
M  V30 7627 C 715.977 1.98425 -2.42067 0
M  V30 7628 C 716.452 2.71544 -3.68819 0
M  V30 7629 N 717.943 2.79084 -3.69684 0
M  V30 7630 C 718.678 3.36259 -4.64454 0
M  V30 7631 N 718.174 3.94406 -5.69575 0
M  V30 7632 N 719.967 3.34169 -4.51982 0
M  V30 7633 H 712.118 0.308258 -2.10151 0
M  V30 7634 H 714.381 0.199145 -0.926847 0
M  V30 7635 H 714.087 1.30663 -3.26527 0
M  V30 7636 H 713.961 2.86017 -2.45915 0
M  V30 7637 H 716.348 2.5263 -1.52518 0
M  V30 7638 H 716.429 0.971682 -2.36626 0
M  V30 7639 H 716.073 2.18008 -4.58732 0
M  V30 7640 H 716.003 3.73198 -3.71525 0
M  V30 7641 H 718.494 2.3781 -2.93691 0
M  V30 7642 H 718.807 4.36129 -6.37974 0
M  V30 7643 H 717.152 3.92797 -5.73355 0
M  V30 7644 H 720.343 2.87977 -3.69035 0
M  V30 7645 H 720.516 3.78431 -5.26017 0
M  V30 7646 N 713.922 1.13953 1.08869 0
M  V30 7647 C 715.15 0.92817 1.84912 0
M  V30 7648 C 715.565 -0.523197 1.81406 0
M  V30 7649 O 714.922 -1.36237 1.21432 0
M  V30 7650 C 714.973 1.41509 3.32652 0
M  V30 7651 O 714.694 2.80959 3.36145 0
M  V30 7652 C 716.195 1.243 4.25517 0
M  V30 7653 H 713.415 0.330612 0.583898 0
M  V30 7654 H 715.959 1.51349 1.37527 0
M  V30 7655 H 714.114 0.872648 3.77444 0
M  V30 7656 H 714.528 3.02704 4.28335 0
M  V30 7657 H 716.002 1.63237 5.27312 0
M  V30 7658 H 716.479 0.18532 4.38809 0
M  V30 7659 H 717.085 1.77375 3.86546 0
M  V30 7660 N 715.4 -1.26948 0.933913 0
M  V30 7661 C 716.811 -1.76058 0.621324 0
M  V30 7662 C 717.162 -1.76175 -0.863522 0
M  V30 7663 O 716.287 -1.36921 -1.67576 0
M  V30 7664 C 716.882 -3.19713 1.12111 0
M  V30 7665 C 715.441 -3.66465 0.859074 0
M  V30 7666 C 714.588 -2.46186 1.27624 0
M  V30 7667 H 717.539 -1.13127 1.11301 0
M  V30 7668 H 717.56 -3.77566 0.471608 0
M  V30 7669 H 717.072 -3.19596 2.20182 0
M  V30 7670 H 715.173 -3.72021 -0.207566 0
M  V30 7671 H 715.286 -4.55636 1.48098 0
M  V30 7672 H 713.65 -2.45042 0.694727 0
M  V30 7673 H 714.433 -2.48774 2.36572 0
M  V30 7674 N 716.879 -0.700114 -1.41195 0
M  V30 7675 C 718.107 -0.242179 -2.05478 0
M  V30 7676 C 718.522 1.11029 -1.52702 0
M  V30 7677 O 717.879 1.69473 -0.677127 0
M  V30 7678 C 717.93 -0.196271 -3.60967 0
M  V30 7679 O 717.651 -1.49532 -4.11791 0
M  V30 7680 C 719.152 0.282102 -4.42401 0
M  V30 7681 H 716.372 -0.111749 -0.661629 0
M  V30 7682 H 718.916 -0.953975 -1.80885 0
M  V30 7683 H 717.071 0.46638 -3.84582 0
M  V30 7684 H 717.485 -1.38545 -5.05871 0
M  V30 7685 H 718.959 0.263093 -5.51373 0
M  V30 7686 H 719.436 1.32174 -4.1884 0
M  V30 7687 H 720.042 -0.349712 -4.2386 0
M  V30 7688 N 718.357 1.51182 -0.445186 0
M  V30 7689 C 719.307 2.24804 0.380394 0
M  V30 7690 C 720.291 1.27344 0.983482 0
M  V30 7691 O 721.483 1.52392 0.900322 0
M  V30 7692 C 718.612 3.09922 1.4766 0
M  V30 7693 C 717.698 4.14816 0.882517 0
M  V30 7694 N 718.089 5.05797 0.0183278 0
M  V30 7695 C 716.387 4.30938 1.14927 0
M  V30 7696 C 717.088 5.8084 -0.316152 0
M  V30 7697 N 716.064 5.42759 0.302214 0
M  V30 7698 H 719.866 2.92508 -0.285737 0
M  V30 7699 H 717.38 1.60342 -0.257733 0
M  V30 7700 H 719.377 3.61249 2.08098 0
M  V30 7701 H 718.037 2.43763 2.14498 0
M  V30 7702 H 719.048 5.16725 -0.348679 0
M  V30 7703 H 715.725 3.76005 1.81457 0
M  V30 7704 H 717.115 6.64115 -1.01986 0
M  V30 7705 N 719.835 0.176821 1.56605 0
M  V30 7706 C 721.063 -0.472828 2.01425 0
M  V30 7707 C 721.478 -1.56436 1.05703 0
M  V30 7708 O 720.835 -1.82405 0.058808 0
M  V30 7709 C 720.886 -1.04607 3.46034 0
M  V30 7710 O 720.607 0.00189608 4.381 0
M  V30 7711 C 722.108 -1.7734 4.06282 0
M  V30 7712 H 719.328 -0.120503 0.660091 0
M  V30 7713 H 721.872 0.280166 2.02572 0
M  V30 7714 H 720.027 -1.74953 3.45645 0
M  V30 7715 H 720.441 -0.422118 5.22799 0
M  V30 7716 H 721.915 -2.12703 5.09374 0
M  V30 7717 H 722.392 -2.67043 3.4869 0
M  V30 7718 H 722.998 -1.11623 4.10391 0
M  V30 7719 N 721.313 -1.57302 -0.09688 0
M  V30 7720 C 722.538 -1.9058 -0.818169 0
M  V30 7721 C 722.963 -0.770921 -1.71576 0
M  V30 7722 O 722.321 0.277588 -1.79162 0
M  V30 7723 C 722.369 -3.22714 -1.60898 0
M  V30 7724 O 721.473 -3.10178 -2.71779 0
M  V30 7725 H 720.814 -0.624759 -0.224882 0
M  V30 7726 H 723.344 -2.04471 -0.07264 0
M  V30 7727 H 723.354 -3.55978 -1.99358 0
M  V30 7728 H 722.029 -4.04899 -0.950227 0
M  V30 7729 H 720.606 -2.88424 -2.3636 0
M  V30 7730 N 722.791 0.367657 -1.53252 0
M  V30 7731 C 724.207 0.709191 -1.42978 0
M  V30 7732 C 724.407 1.93352 -0.567193 0
M  V30 7733 O 723.463 2.52453 -0.0488349 0
M  V30 7734 C 724.776 0.924338 -2.86141 0
M  V30 7735 C 726.324 1.02448 -2.95759 0
M  V30 7736 C 726.799 1.27211 -4.39979 0
M  V30 7737 N 728.29 1.33986 -4.43398 0
M  V30 7738 C 729.025 1.54852 -5.52095 0
M  V30 7739 N 728.521 1.73049 -6.7084 0
M  V30 7740 N 730.314 1.57205 -5.39669 0
M  V30 7741 H 722.465 -0.437669 -2.07842 0
M  V30 7742 H 724.728 -0.133737 -0.938519 0
M  V30 7743 H 724.434 0.0965455 -3.51567 0
M  V30 7744 H 724.308 1.83302 -3.29667 0
M  V30 7745 H 726.695 1.84282 -2.30487 0
M  V30 7746 H 726.776 0.0932301 -2.5563 0
M  V30 7747 H 726.42 0.458792 -5.05824 0
M  V30 7748 H 726.35 2.21654 -4.77679 0
M  V30 7749 H 728.841 1.21545 -3.5782 0
M  V30 7750 H 729.154 1.88538 -7.49449 0
M  V30 7751 H 727.499 1.70231 -6.7383 0
M  V30 7752 H 730.69 1.42555 -4.45865 0
M  V30 7753 H 730.863 1.73126 -6.24445 0
M  V30 7754 N 724.269 1.44576 0.627338 0
M  V30 7755 C 725.515 1.47777 1.38888 0
M  V30 7756 C 725.848 0.111406 1.9388 0
M  V30 7757 O 725.123 -0.87149 1.73883 0
M  V30 7758 C 725.406 2.54119 2.55138 0
M  V30 7759 C 725.259 4.00128 2.0547 0
M  V30 7760 C 726.578 2.56929 3.57317 0
M  V30 7761 H 723.697 0.538048 0.50366 0
M  V30 7762 H 726.339 1.76277 0.708978 0
M  V30 7763 H 724.489 2.29948 3.13139 0
M  V30 7764 H 726.161 4.35444 1.5227 0
M  V30 7765 H 724.404 4.11724 1.36623 0
M  V30 7766 H 725.075 4.7019 2.89181 0
M  V30 7767 H 727.551 2.78536 3.09122 0
M  V30 7768 H 726.427 3.33234 4.36173 0
M  V30 7769 H 726.688 1.6127 4.11636 0
M  V30 7770 N 725.747 -0.868086 1.31537 0
M  V30 7771 C 726.995 -1.61807 1.21091 0
M  V30 7772 C 727.316 -1.93631 -0.230623 0
M  V30 7773 O 726.586 -1.5846 -1.15183 0
M  V30 7774 H 725.166 -0.599854 0.445178 0
M  V30 7775 H 727.828 -1.03915 1.64887 0
M  V30 7776 H 726.924 -2.56088 1.78396 0
M  V30 7777 N 727.225 -1.14528 -1.08264 0
M  V30 7778 C 728.453 -0.937964 -1.84418 0
M  V30 7779 C 728.868 0.51357 -1.81681 0
M  V30 7780 O 728.225 1.35591 -1.22153 0
M  V30 7781 C 728.276 -1.43272 -3.31897 0
M  V30 7782 O 727.997 -2.82738 -3.34651 0
M  V30 7783 C 729.498 -1.26555 -4.24851 0
M  V30 7784 H 726.718 -0.333704 -0.582136 0
M  V30 7785 H 729.262 -1.52076 -1.36723 0
M  V30 7786 H 727.417 -0.892653 -3.76975 0
M  V30 7787 H 727.831 -3.04971 -4.26724 0
M  V30 7788 H 729.305 -1.66031 -5.26439 0
M  V30 7789 H 729.782 -0.208589 -4.38704 0
M  V30 7790 H 730.388 -1.79423 -3.856 0
M  V30 7791 N 728.703 1.26451 -0.940633 0
M  V30 7792 C 729.943 1.95537 -0.595381 0
M  V30 7793 C 730.307 1.72175 0.849683 0
M  V30 7794 O 731.508 2.3506 1.30384 0
M  V30 7795 C 729.779 3.45151 -0.927669 0
M  V30 7796 S 731.338 4.33295 -0.69288 0
M  V30 7797 H 728.156 0.676331 -0.219311 0
M  V30 7798 H 730.758 1.53411 -1.21183 0
M  V30 7799 H 729.462 3.59654 -1.9768 0
M  V30 7800 H 728.993 3.92247 -0.300921 0
M  V30 7801 H 731.008 4.94217 0.443175 0
M  V30 7802 N 730.181 0.707592 1.40822 0
M  V30 7803 C 731.111 0.0644925 2.33411 0
M  V30 7804 C 732.092 -0.754205 1.52466 0
M  V30 7805 O 733.277 -0.704749 1.80961 0
M  V30 7806 C 730.407 -0.863865 3.36385 0
M  V30 7807 C 729.361 -0.15138 4.27732 0
M  V30 7808 C 728.687 -1.19491 5.21177 0
M  V30 7809 C 729.987 0.989607 5.12839 0
M  V30 7810 H 731.681 0.837829 2.87438 0
M  V30 7811 H 729.227 0.404346 1.38207 0
M  V30 7812 H 731.18 -1.32309 4.0009 0
M  V30 7813 H 729.904 -1.66901 2.80734 0
M  V30 7814 H 728.563 0.287937 3.65467 0
M  V30 7815 H 728.211 -1.9929 4.61836 0
M  V30 7816 H 727.911 -0.723123 5.83134 0
M  V30 7817 H 729.435 -1.6544 5.8776 0
M  V30 7818 H 730.849 0.610114 5.70044 0
M  V30 7819 H 729.246 1.38926 5.83798 0
M  V30 7820 H 730.316 1.82389 4.49291 0
M  V30 7821 N 731.66 -1.50943 0.453197 0
M  V30 7822 C 732.89 -2.06328 -0.105981 0
M  V30 7823 C 733.298 -1.31909 -1.35634 0
M  V30 7824 O 732.641 -0.376607 -1.79798 0
M  V30 7825 C 732.703 -3.5631 -0.477868 0
M  V30 7826 C 732.367 -4.52093 0.667925 0
M  V30 7827 C 733.364 -4.96421 1.54475 0
M  V30 7828 C 731.049 -4.95001 0.853168 0
M  V30 7829 C 733.043 -5.82346 2.59138 0
M  V30 7830 C 730.73 -5.80713 1.90305 0
M  V30 7831 C 731.728 -6.24284 2.77053 0
M  V30 7832 O 731.416 -7.08291 3.80236 0
M  V30 7833 H 731.148 -0.675986 -0.00427247 0
M  V30 7834 H 733.702 -1.95314 0.635738 0
M  V30 7835 H 731.932 -3.65163 -1.27252 0
M  V30 7836 H 733.621 -3.94138 -0.970039 0
M  V30 7837 H 734.387 -4.63953 1.41324 0
M  V30 7838 H 730.266 -4.60619 0.187482 0
M  V30 7839 H 733.81 -6.16276 3.2688 0
M  V30 7840 H 729.707 -6.12593 2.03469 0
M  V30 7841 H 730.475 -7.26504 3.77007 0
M  V30 7842 N 733.138 -0.185124 -1.56509 0
M  V30 7843 C 734.101 0.72591 -2.17401 0
M  V30 7844 C 735.101 1.14819 -1.12575 0
M  V30 7845 O 736.291 1.0629 -1.38015 0
M  V30 7846 C 733.423 1.98979 -2.76803 0
M  V30 7847 H 734.616 0.195588 -2.99262 0
M  V30 7848 H 732.169 0.0644772 -1.56167 0
M  V30 7849 H 732.904 2.56287 -1.98714 0
M  V30 7850 H 732.689 1.69583 -3.53531 0
M  V30 7851 H 734.179 2.63966 -3.23592 0
M  V30 7852 N 734.616 1.57351 0.0885366 0
M  V30 7853 C 735.841 1.91011 0.80805 0
M  V30 7854 C 736.266 0.780009 1.71165 0
M  V30 7855 O 735.624 -0.268083 1.79307 0
M  V30 7856 C 735.672 3.23562 1.59185 0
M  V30 7857 O 734.776 3.11615 2.7013 0
M  V30 7858 H 734.117 0.625943 0.221565 0
M  V30 7859 H 736.647 2.04507 0.0617954 0
M  V30 7860 H 736.657 3.5703 1.97468 0
M  V30 7861 H 735.332 4.05398 0.928741 0
M  V30 7862 H 733.909 2.89673 2.34827 0
M  V30 7863 N 736.094 -0.359525 1.53444 0
M  V30 7864 C 737.505 -0.936009 1.61542 0
M  V30 7865 C 737.856 -1.90069 0.486633 0
M  V30 7866 O 736.981 -2.12929 -0.386047 0
M  V30 7867 C 737.576 -1.70441 2.92806 0
M  V30 7868 C 736.135 -2.23015 3.03218 0
M  V30 7869 C 735.282 -1.04438 2.56881 0
M  V30 7870 H 738.233 -0.138134 1.58098 0
M  V30 7871 H 738.254 -2.56609 2.80948 0
M  V30 7872 H 737.766 -1.00205 3.74941 0
M  V30 7873 H 735.867 -2.96475 2.25684 0
M  V30 7874 H 735.98 -2.50481 4.08407 0
M  V30 7875 H 734.344 -1.41314 2.11902 0
M  V30 7876 H 735.127 -0.356905 3.4144 0
M  V30 7877 N 737.572 -1.44907 -0.619662 0
M  V30 7878 C 738.482 -1.55168 -1.75955 0
M  V30 7879 C 739.498 -0.43672 -1.6843 0
M  V30 7880 O 740.674 -0.695704 -1.89002 0
M  V30 7881 C 737.739 -1.50397 -3.12381 0
M  V30 7882 C 736.8 -2.72835 -3.31451 0
M  V30 7883 C 736.033 -2.68283 -4.61368 0
M  V30 7884 O 736.256 -1.74929 -5.42914 0
M  V30 7885 O 735.19 -3.59308 -4.82889 0
M  V30 7886 H 739.016 -2.51493 -1.7025 0
M  V30 7887 H 736.601 -1.27282 -0.782289 0
M  V30 7888 H 738.483 -1.50301 -3.93685 0
M  V30 7889 H 737.158 -0.572197 -3.18603 0
M  V30 7890 H 736.065 -2.78496 -2.49781 0
M  V30 7891 H 737.398 -3.65098 -3.30098 0
M  V30 7892 N 739.05 0.861098 -1.31996 0
M  V30 7893 C 739.982 1.97551 -1.16216 0
M  V30 7894 C 740.995 1.625 -0.0988527 0
M  V30 7895 O 742.184 1.75091 -0.3472 0
M  V30 7896 C 739.284 3.30376 -0.755307 0
M  V30 7897 C 738.457 3.93711 -1.90552 0
M  V30 7898 C 737.516 5.04862 -1.48328 0
M  V30 7899 O 736.542 5.25204 -2.19431 0
M  V30 7900 N 737.744 5.79283 -0.375656 0
M  V30 7901 H 740.509 2.11632 -2.12208 0
M  V30 7902 H 738.07 1.03559 -1.24448 0
M  V30 7903 H 740.062 4.0213 -0.455364 0
M  V30 7904 H 738.632 3.12395 0.113269 0
M  V30 7905 H 737.852 3.14825 -2.37231 0
M  V30 7906 H 739.14 4.32762 -2.67571 0
M  V30 7907 H 738.538 5.65286 0.216284 0
M  V30 7908 H 737.095 6.5166 -0.135289 0
M  V30 7909 N 740.528 1.15101 1.07655 0
M  V30 7910 C 741.458 0.867864 2.16773 0
M  V30 7911 C 742.439 -0.180283 1.69142 0
M  V30 7912 O 743.624 -0.0353152 1.94168 0
M  V30 7913 C 740.754 0.35299 3.45501 0
M  V30 7914 C 739.708 1.33746 4.06566 0
M  V30 7915 C 739.034 0.681562 5.30338 0
M  V30 7916 C 740.334 2.7024 4.46954 0
M  V30 7917 H 742.028 1.78034 2.40716 0
M  V30 7918 H 739.574 0.857435 1.15689 0
M  V30 7919 H 741.527 0.142465 4.21159 0
M  V30 7920 H 740.251 -0.594945 3.21135 0
M  V30 7921 H 738.91 1.53429 3.32949 0
M  V30 7922 H 738.558 -0.272422 5.02262 0
M  V30 7923 H 738.258 1.33853 5.72151 0
M  V30 7924 H 739.782 0.48074 6.08705 0
M  V30 7925 H 741.196 2.5442 5.13754 0
M  V30 7926 H 739.593 3.32282 4.99709 0
M  V30 7927 H 740.663 3.26537 3.58471 0
M  V30 7928 N 742.006 -1.2595 0.947325 0
M  V30 7929 C 742.916 -2.29883 0.468079 0
M  V30 7930 C 743.932 -1.67783 -0.460975 0
M  V30 7931 O 745.108 -1.98526 -0.339006 0
M  V30 7932 C 742.173 -3.45773 -0.253315 0
M  V30 7933 C 741.234 -4.23337 0.713054 0
M  V30 7934 C 740.467 -5.33694 0.025993 0
M  V30 7935 O 740.69 -5.57853 -1.18978 0
M  V30 7936 O 739.624 -5.97724 0.70782 0
M  V30 7937 H 743.45 -2.72952 1.33156 0
M  V30 7938 H 741.035 -1.31263 0.713468 0
M  V30 7939 H 742.917 -4.16209 -0.659423 0
M  V30 7940 H 741.592 -3.04721 -1.09209 0
M  V30 7941 H 740.499 -3.55359 1.16923 0
M  V30 7942 H 741.832 -4.68154 1.51963 0
M  V30 7943 N 743.484 -0.715051 -1.40445 0
M  V30 7944 C 744.732 -0.253826 -2.005 0
M  V30 7945 C 745.053 1.15681 -1.5698 0
M  V30 7946 O 744.323 1.78414 -0.809027 0
M  V30 7947 H 742.903 -0.0908537 -0.741454 0
M  V30 7948 H 745.565 -0.920561 -1.7179 0
M  V30 7949 H 744.661 -0.286499 -3.10782 0
M  V30 7950 N 744.962 1.50701 -0.461195 0
M  V30 7951 C 746.187 2.07171 0.0974773 0
M  V30 7952 C 746.612 1.32391 1.3362 0
M  V30 7953 O 745.97 0.368676 1.77512 0
M  V30 7954 C 746.018 3.58651 0.374409 0
M  V30 7955 O 745.122 3.85816 1.4567 0
M  V30 7956 H 744.463 0.663944 -0.00862047 0
M  V30 7957 H 746.993 1.94021 -0.649394 0
M  V30 7958 H 747.003 4.03295 0.617843 0
M  V30 7959 H 745.678 4.12498 -0.530829 0
M  V30 7960 H 744.255 3.53018 1.20136 0
M  V30 7961 N 746.441 0.193421 1.56409 0
M  V30 7962 C 747.351 -0.740112 2.2262 0
M  V30 7963 C 748.367 -1.23597 1.22474 0
M  V30 7964 O 749.543 -1.28348 1.55206 0
M  V30 7965 C 746.608 -1.94317 2.87127 0
M  V30 7966 C 745.669 -1.49205 4.02538 0
M  V30 7967 C 744.902 -2.63776 4.63959 0
M  V30 7968 O 745.125 -3.81215 4.24301 0
M  V30 7969 O 744.059 -2.36585 5.53454 0
M  V30 7970 H 747.885 -0.206238 3.02999 0
M  V30 7971 H 745.47 -0.0357938 1.49357 0
M  V30 7972 H 747.352 -2.64633 3.27944 0
M  V30 7973 H 746.027 -2.46568 2.09728 0
M  V30 7974 H 744.934 -0.757738 3.66346 0
M  V30 7975 H 746.267 -1.01622 4.81595 0
M  V30 7976 N 747.919 -1.57396 -0.0801906 0
M  V30 7977 C 749.149 -1.90778 -0.792924 0
M  V30 7978 C 749.557 -0.786814 -1.72064 0
M  V30 7979 O 748.9 0.249259 -1.82001 0
M  V30 7980 C 748.962 -3.19552 -1.64702 0
M  V30 7981 C 748.626 -4.48259 -0.889567 0
M  V30 7982 C 749.623 -5.19465 -0.212602 0
M  V30 7983 C 747.308 -4.94896 -0.859229 0
M  V30 7984 C 749.302 -6.35555 0.484566 0
M  V30 7985 C 746.989 -6.10895 -0.158284 0
M  V30 7986 C 747.987 -6.81075 0.512421 0
M  V30 7987 O 747.675 -7.94862 1.20209 0
M  V30 7988 H 747.407 -0.63527 -0.231103 0
M  V30 7989 H 749.961 -2.0532 -0.0573081 0
M  V30 7990 H 748.191 -3.01196 -2.42524 0
M  V30 7991 H 749.88 -3.38649 -2.23767 0
M  V30 7992 H 750.646 -4.84467 -0.227403 0
M  V30 7993 H 746.525 -4.4015 -1.37073 0
M  V30 7994 H 750.069 -6.9027 1.00864 0
M  V30 7995 H 745.966 -6.45345 -0.141381 0
M  V30 7996 H 746.734 -8.10932 1.11051 0
M  V30 7997 N 749.397 0.351382 -1.53633 0
M  V30 7998 C 750.674 1.10903 -1.6112 0
M  V30 7999 C 751.054 2.06725 -0.427556 0
M  V30 8000 O 750.402 2.20992 0.580916 0
M  V30 8001 C 750.612 1.83561 -2.96827 0
M  V30 8002 C 751.96 2.37587 -3.51906 0
M  V30 8003 O 752.984 1.93669 -2.9895 0
M  V30 8004 O 751.843 3.17913 -4.44515 0
M  V30 8005 H 748.937 0.509558 -0.651368 0
M  V30 8006 H 751.483 0.353504 -1.65977 0
M  V30 8007 H 750.255 1.1371 -3.74414 0
M  V30 8008 H 749.878 2.6599 -2.95525 0
M  V30 8009 N 750.875 1.45233 0.611969 0
M  V30 8010 C 751.838 1.53189 1.70487 0
M  V30 8011 C 752.838 0.411839 1.55437 0
M  V30 8012 O 754.028 0.675164 1.60584 0
M  V30 8013 C 751.16 1.42422 3.09723 0
M  V30 8014 H 752.353 2.5056 1.64802 0
M  V30 8015 H 749.906 1.32609 0.827318 0
M  V30 8016 H 750.641 0.462185 3.2099 0
M  V30 8017 H 750.426 2.23658 3.22055 0
M  V30 8018 H 751.916 1.51012 3.89339 0
M  V30 8019 N 752.353 -0.854086 1.3245 0
M  V30 8020 C 753.3 -1.96271 1.21434 0
M  V30 8021 C 754.27 -1.6582 0.0963851 0
M  V30 8022 O 755.455 -1.88851 0.27203 0
M  V30 8023 C 752.595 -3.31939 0.943952 0
M  V30 8024 C 751.708 -3.74885 2.14675 0
M  V30 8025 C 750.843 -4.99347 1.81179 0
M  V30 8026 C 749.882 -5.34785 2.97777 0
M  V30 8027 N 749.019 -6.50425 2.6437 0
M  V30 8028 H 753.859 -2.05025 2.16261 0
M  V30 8029 H 751.396 -1.00348 1.07558 0
M  V30 8030 H 753.354 -4.10076 0.767675 0
M  V30 8031 H 751.984 -3.22784 0.0324763 0
M  V30 8032 H 751.036 -2.92396 2.43328 0
M  V30 8033 H 752.348 -3.97068 3.01891 0
M  V30 8034 H 751.502 -5.85193 1.60107 0
M  V30 8035 H 750.241 -4.79101 0.911777 0
M  V30 8036 H 749.246 -4.47451 3.1948 0
M  V30 8037 H 750.471 -5.56988 3.88511 0
M  V30 8038 H 748.417 -6.31695 1.7691 0
M  V30 8039 H 748.334 -6.7263 3.45116 0
M  V30 8040 H 749.602 -7.39422 2.46729 0
M  V30 8041 N 753.831 -1.1567 -1.07043 0
M  V30 8042 C 755.056 -0.957946 -1.83952 0
M  V30 8043 C 755.481 0.488807 -1.81638 0
M  V30 8044 O 754.839 1.34869 -1.21162 0
M  V30 8045 C 754.887 -1.48064 -3.288 0
M  V30 8046 O 753.991 -0.681921 -4.06723 0
M  V30 8047 H 753.332 -0.341453 -0.569479 0
M  V30 8048 H 755.862 -1.53728 -1.35015 0
M  V30 8049 H 755.872 -1.49484 -3.7963 0
M  V30 8050 H 754.547 -2.53388 -3.29799 0
M  V30 8051 H 753.124 -0.737612 -3.65532 0
M  V30 8052 N 755.309 1.25446 -0.953992 0
M  V30 8053 C 756.586 1.884 -0.525823 0
M  V30 8054 C 756.966 1.86079 0.996891 0
M  V30 8055 O 756.314 1.32389 1.8624 0
M  V30 8056 C 756.524 3.31154 -1.10172 0
M  V30 8057 C 757.872 4.07926 -1.17819 0
M  V30 8058 O 758.896 3.40273 -1.05323 0
M  V30 8059 O 757.755 5.28942 -1.37415 0
M  V30 8060 H 754.849 0.808629 -0.173345 0
M  V30 8061 H 757.395 1.33522 -1.04738 0
M  V30 8062 H 756.167 3.27271 -2.14499 0
M  V30 8063 H 755.79 3.93588 -0.56338 0
M  V30 8064 N 756.787 0.722489 1.40064 0
M  V30 8065 C 757.72 0.0233443 2.28188 0
M  V30 8066 C 758.698 -0.7606 1.43714 0
M  V30 8067 O 759.882 -0.745791 1.73119 0
M  V30 8068 C 757.009 -0.974264 3.24385 0
M  V30 8069 C 756.055 -0.280307 4.25578 0
M  V30 8070 S 756.888 0.996769 5.26141 0
M  V30 8071 C 758.044 0.00143923 6.259 0
M  V30 8072 H 758.277 0.770705 2.87137 0
M  V30 8073 H 755.81 0.513783 1.45601 0
M  V30 8074 H 757.768 -1.5446 3.80332 0
M  V30 8075 H 756.429 -1.69438 2.6448 0
M  V30 8076 H 755.622 -1.03471 4.93264 0
M  V30 8077 H 755.224 0.217657 3.73366 0
M  V30 8078 H 757.516 -0.843126 6.72233 0
M  V30 8079 H 758.459 0.645104 7.05155 0
M  V30 8080 H 758.867 -0.365371 5.63316 0
M  V30 8081 N 758.265 -1.50454 0.469181 0
M  V30 8082 C 759.495 -2.06429 -0.0840913 0
M  V30 8083 C 759.903 -1.3334 -1.34227 0
M  V30 8084 O 759.246 -0.395656 -1.79389 0
M  V30 8085 C 759.308 -3.56797 -0.440049 0
M  V30 8086 C 758.972 -4.51359 0.715838 0
M  V30 8087 C 759.969 -4.94754 1.59732 0
M  V30 8088 C 757.654 -4.94069 0.905621 0
M  V30 8089 C 759.648 -5.79564 2.653 0
M  V30 8090 C 757.335 -5.78662 1.96453 0
M  V30 8091 C 758.333 -6.21311 2.83658 0
M  V30 8092 O 758.021 -7.04218 3.87727 0
M  V30 8093 H 757.753 -0.675994 0.00289751 0
M  V30 8094 H 760.307 -1.94629 0.656417 0
M  V30 8095 H 758.537 -3.66492 -1.23372 0
M  V30 8096 H 760.226 -3.95145 -0.928181 0
M  V30 8097 H 760.992 -4.62428 1.46237 0
M  V30 8098 H 756.871 -4.60394 0.236326 0
M  V30 8099 H 760.415 -6.12774 3.33398 0
M  V30 8100 H 756.312 -6.10401 2.09955 0
M  V30 8101 H 757.08 -7.22464 3.84692 0
M  V30 8102 N 759.743 -0.201713 -1.56304 0
M  V30 8103 C 760.968 0.443815 -2.02596 0
M  V30 8104 C 761.393 1.53945 -1.08086 0
M  V30 8105 O 760.751 1.81182 -0.0655056 0
M  V30 8106 C 760.799 0.971066 -3.47279 0
M  V30 8107 O 759.903 2.0836 -3.55893 0
M  V30 8108 H 759.244 0.10294 -0.655972 0
M  V30 8109 H 761.774 -0.314533 -2.02168 0
M  V30 8110 H 761.784 1.28598 -3.87204 0
M  V30 8111 H 760.459 0.169048 -4.15556 0
M  V30 8112 H 759.036 1.77683 -3.27846 0
M  V30 8113 N 761.222 1.57436 0.0718424 0
M  V30 8114 C 762.152 2.06724 1.08571 0
M  V30 8115 C 763.133 0.960731 1.40371 0
M  V30 8116 O 764.318 1.23345 1.49999 0
M  V30 8117 C 761.448 2.51112 2.39916 0
M  V30 8118 C 760.402 3.65639 2.22469 0
M  V30 8119 C 759.728 3.96082 3.59198 0
M  V30 8120 C 761.028 4.95687 1.64596 0
M  V30 8121 H 762.722 2.91679 0.675569 0
M  V30 8122 H 760.268 1.40319 0.32352 0
M  V30 8123 H 762.221 2.84206 3.11135 0
M  V30 8124 H 760.945 1.63186 2.8291 0
M  V30 8125 H 759.604 3.32828 1.53691 0
M  V30 8126 H 759.252 3.05287 3.99761 0
M  V30 8127 H 758.952 4.73199 3.48362 0
M  V30 8128 H 760.476 4.31672 4.31847 0
M  V30 8129 H 761.89 5.27011 2.25681 0
M  V30 8130 H 760.287 5.77126 1.64457 0
M  V30 8131 H 761.357 4.8108 0.60744 0
M  V30 8132 N 762.7 -0.34323 1.53817 0
M  V30 8133 C 763.948 -1.0813 1.70741 0
M  V30 8134 C 764.269 -1.89165 0.473461 0
M  V30 8135 O 763.539 -1.89075 -0.512605 0
M  V30 8136 H 762.119 -0.40219 0.629486 0
M  V30 8137 H 764.781 -0.384426 1.91071 0
M  V30 8138 H 763.877 -1.7585 2.57843 0
M  V30 8139 N 764.178 -1.45556 -0.604258 0
M  V30 8140 C 765.424 -1.49968 -1.36519 0
M  V30 8141 C 765.757 -0.142236 -1.93678 0
M  V30 8142 O 765.032 0.843717 -1.75247 0
M  V30 8143 C 765.315 -2.58146 -2.51063 0
M  V30 8144 C 765.168 -4.03346 -1.99078 0
M  V30 8145 C 766.487 -2.62581 -3.53184 0
M  V30 8146 H 763.606 -0.545993 -0.495036 0
M  V30 8147 H 766.248 -1.77382 -0.680845 0
M  V30 8148 H 764.398 -2.34901 -3.09441 0
M  V30 8149 H 766.07 -4.37811 -1.45323 0
M  V30 8150 H 764.313 -4.13845 -1.30055 0
M  V30 8151 H 764.984 -4.74731 -2.81664 0
M  V30 8152 H 767.46 -2.83419 -3.04652 0
M  V30 8153 H 766.336 -3.40131 -4.30816 0
M  V30 8154 H 766.597 -1.67798 -4.09019 0
M  V30 8155 N 765.656 0.84705 -1.32902 0
M  V30 8156 C 766.902 1.60414 -1.24078 0
M  V30 8157 C 767.235 1.93217 0.195105 0
M  V30 8158 O 766.51 1.58001 1.13428 0
M  V30 8159 C 766.793 2.91951 -2.108 0
M  V30 8160 C 766.646 2.6588 -3.62805 0
M  V30 8161 C 767.965 3.93299 -1.97494 0
M  V30 8162 H 765.084 0.58206 -0.452079 0
M  V30 8163 H 767.726 0.977562 -1.62922 0
M  V30 8164 H 765.876 3.45425 -1.77802 0
M  V30 8165 H 767.548 2.18902 -4.06054 0
M  V30 8166 H 765.791 1.99716 -3.85092 0
M  V30 8167 H 766.462 3.59574 -4.1882 0
M  V30 8168 H 768.938 3.49105 -2.26417 0
M  V30 8169 H 767.814 4.8318 -2.60438 0
M  V30 8170 H 768.075 4.31887 -0.944782 0
M  V30 8171 N 767.134 1.16236 1.06428 0
M  V30 8172 C 768.064 0.890807 2.1584 0
M  V30 8173 C 769.045 -0.162333 1.69324 0
M  V30 8174 O 770.23 -0.0147191 1.94194 0
M  V30 8175 C 767.36 0.389615 3.45108 0
M  V30 8176 C 766.314 1.38051 4.05125 0
M  V30 8177 C 765.64 0.737773 5.29586 0
M  V30 8178 C 766.94 2.74965 4.44062 0
M  V30 8179 H 768.634 1.80577 2.38814 0
M  V30 8180 H 766.18 0.869657 1.14774 0
M  V30 8181 H 768.133 0.187127 4.20984 0
M  V30 8182 H 766.857 -0.560851 3.21748 0
M  V30 8183 H 765.516 1.56952 3.31303 0
M  V30 8184 H 765.164 -0.219135 5.02522 0
M  V30 8185 H 764.864 1.39914 5.70699 0
M  V30 8186 H 766.388 0.545275 6.0816 0
M  V30 8187 H 767.802 2.59855 5.11027 0
M  V30 8188 H 766.199 3.37563 4.96156 0
M  V30 8189 H 767.269 3.30321 3.54987 0
M  V30 8190 N 768.612 -1.24939 0.960631 0
M  V30 8191 C 769.542 -2.28 0.503815 0
M  V30 8192 C 770.523 -1.63959 -0.452928 0
M  V30 8193 O 771.708 -1.91009 -0.350585 0
M  V30 8194 C 768.838 -3.46643 -0.213535 0
M  V30 8195 C 767.792 -4.22903 0.658535 0
M  V30 8196 C 767.118 -5.34363 -0.189902 0
M  V30 8197 C 768.418 -4.84949 1.93963 0
M  V30 8198 H 770.112 -2.66462 1.36521 0
M  V30 8199 H 767.658 -1.28093 0.657897 0
M  V30 8200 H 769.611 -4.1787 -0.544286 0
M  V30 8201 H 768.335 -3.07187 -1.10923 0
M  V30 8202 H 766.994 -3.53467 0.972455 0
M  V30 8203 H 766.642 -4.91147 -1.08553 0
M  V30 8204 H 766.342 -5.86302 0.390331 0
M  V30 8205 H 767.866 -6.0842 -0.515484 0
M  V30 8206 H 769.28 -5.48288 1.67491 0
M  V30 8207 H 767.677 -5.47091 2.46601 0
M  V30 8208 H 768.747 -4.06799 2.639 0
M  V30 8209 N 770.09 -0.729906 -1.39679 0
M  V30 8210 C 771 -0.0880322 -2.34435 0
M  V30 8211 C 772.016 0.727674 -1.58053 0
M  V30 8212 O 773.192 0.657321 -1.90371 0
M  V30 8213 C 770.257 0.812211 -3.37052 0
M  V30 8214 C 769.318 -0.0151681 -4.29297 0
M  V30 8215 C 768.551 0.842202 -5.27013 0
M  V30 8216 O 768.774 2.08108 -5.31081 0
M  V30 8217 O 767.708 0.27357 -6.01278 0
M  V30 8218 H 771.534 -0.869989 -2.90972 0
M  V30 8219 H 769.119 -0.490522 -1.41118 0
M  V30 8220 H 771.001 1.32745 -3.99946 0
M  V30 8221 H 769.676 1.57307 -2.82907 0
M  V30 8222 H 768.583 -0.575811 -3.69642 0
M  V30 8223 H 769.916 -0.738129 -4.86634 0
M  V30 8224 N 771.568 1.50203 -0.477153 0
M  V30 8225 C 772.498 2.31517 0.303646 0
M  V30 8226 C 773.479 1.38696 0.984753 0
M  V30 8227 O 774.664 1.67615 0.980758 0
M  V30 8228 C 771.794 3.18598 1.38249 0
M  V30 8229 C 770.748 4.2002 0.822645 0
M  V30 8230 C 770.074 4.95878 2.00024 0
M  V30 8231 C 771.374 5.22023 -0.170185 0
M  V30 8232 H 773.068 2.97042 -0.375027 0
M  V30 8233 H 770.614 1.42848 -0.181802 0
M  V30 8234 H 772.567 3.74282 1.93625 0
M  V30 8235 H 771.291 2.5097 2.09002 0
M  V30 8236 H 769.95 3.65445 0.290813 0
M  V30 8237 H 769.598 4.24717 2.69489 0
M  V30 8238 H 769.298 5.64487 1.63183 0
M  V30 8239 H 770.822 5.54399 2.55878 0
M  V30 8240 H 772.236 5.72543 0.294606 0
M  V30 8241 H 770.633 5.98386 -0.453181 0
M  V30 8242 H 771.703 4.72396 -1.09408 0
M  V30 8243 N 773.046 0.209999 1.56195 0
M  V30 8244 C 774.293 -0.424813 1.97994 0
M  V30 8245 C 774.621 -1.60589 1.09733 0
M  V30 8246 O 773.876 -1.95201 0.139693 0
M  V30 8247 C 774.175 -0.91312 3.45539 0
M  V30 8248 C 773.841 0.156187 4.50629 0
M  V30 8249 C 772.503 0.449966 4.79092 0
M  V30 8250 C 774.855 0.879959 5.13718 0
M  V30 8251 C 772.183 1.47223 5.67928 0
M  V30 8252 C 774.535 1.89148 6.0366 0
M  V30 8253 C 773.199 2.1923 6.30472 0
M  V30 8254 H 772.469 -0.15545 0.724511 0
M  V30 8255 H 775.116 0.310095 1.88973 0
M  V30 8256 H 773.421 -1.72658 3.51705 0
M  V30 8257 H 775.118 -1.41395 3.75245 0
M  V30 8258 H 771.708 -0.0829466 4.2852 0
M  V30 8259 H 775.892 0.66623 4.91808 0
M  V30 8260 H 771.148 1.71105 5.86969 0
M  V30 8261 H 775.322 2.45745 6.516 0
M  V30 8262 H 772.949 2.98587 6.99107 0
M  V30 8263 N 774.524 -1.57472 -0.0634922 0
M  V30 8264 C 775.456 -2.00999 -1.10145 0
M  V30 8265 C 776.469 -0.917219 -1.34503 0
M  V30 8266 O 777.658 -1.19501 -1.32596 0
M  V30 8267 C 774.758 -2.34089 -2.45063 0
M  V30 8268 C 773.931 -3.65317 -2.40546 0
M  V30 8269 C 772.99 -3.85982 -3.57637 0
M  V30 8270 O 772.016 -4.5747 -3.38689 0
M  V30 8271 N 773.218 -3.28971 -4.78287 0
M  V30 8272 H 775.983 -2.90656 -0.730714 0
M  V30 8273 H 773.544 -1.59926 -0.252017 0
M  V30 8274 H 775.536 -2.4508 -3.22053 0
M  V30 8275 H 774.106 -1.50279 -2.74107 0
M  V30 8276 H 773.326 -3.65003 -1.48885 0
M  V30 8277 H 774.614 -4.51468 -2.34636 0
M  V30 8278 H 774.012 -2.70962 -4.96584 0
M  V30 8279 H 772.569 -3.45398 -5.5276 0
M  V30 8280 N 776.003 0.335068 -1.53997 0
M  V30 8281 C 777.414 0.910191 -1.6301 0
M  V30 8282 C 777.765 1.89271 -0.516809 0
M  V30 8283 O 776.89 2.13516 0.352123 0
M  V30 8284 C 777.485 1.65761 -2.9548 0
M  V30 8285 C 776.044 2.18163 -3.06728 0
M  V30 8286 C 775.191 1.00338 -2.5851 0
M  V30 8287 H 778.142 0.112965 -1.58297 0
M  V30 8288 H 778.163 2.52107 -2.84995 0
M  V30 8289 H 777.675 0.94227 -3.76488 0
M  V30 8290 H 775.776 2.92847 -2.30372 0
M  V30 8291 H 775.889 2.43952 -4.1234 0
M  V30 8292 H 774.253 1.37925 -2.14124 0
M  V30 8293 H 775.036 0.30254 -3.41964 0
M  V30 8294 N 777.481 1.45874 0.596531 0
M  V30 8295 C 778.728 1.50467 1.35521 0
M  V30 8296 C 779.056 0.150802 1.93915 0
M  V30 8297 O 778.311 -0.851913 1.76184 0
M  V30 8298 C 778.61 2.54034 2.51399 0
M  V30 8299 C 778.276 3.9844 2.11085 0
M  V30 8300 C 776.938 4.37758 1.99804 0
M  V30 8301 C 779.29 4.89209 1.79788 0
M  V30 8302 C 776.618 5.65727 1.55465 0
M  V30 8303 C 778.97 6.17602 1.36931 0
M  V30 8304 C 777.634 6.5584 1.24218 0
M  V30 8305 H 776.904 0.550597 0.495907 0
M  V30 8306 H 779.551 1.79279 0.673145 0
M  V30 8307 H 777.856 2.18832 3.24992 0
M  V30 8308 H 779.553 2.54822 3.09624 0
M  V30 8309 H 776.143 3.67353 2.20794 0
M  V30 8310 H 780.327 4.59562 1.87395 0
M  V30 8311 H 775.583 5.94139 1.44253 0
M  V30 8312 H 779.757 6.87373 1.11764 0
M  V30 8313 H 777.384 7.54897 0.896353 0
M  V30 8314 N 778.959 -0.83999 1.33349 0
M  V30 8315 C 780.207 -1.59202 1.24496 0
M  V30 8316 C 780.528 -1.94077 -0.189499 0
M  V30 8317 O 779.798 -1.60868 -1.11796 0
M  V30 8318 H 778.378 -0.590276 0.457802 0
M  V30 8319 H 781.04 -1.00394 1.67054 0
M  V30 8320 H 780.136 -2.52247 1.83788 0
M  V30 8321 N 780.437 -1.16799 -1.0581 0
M  V30 8322 C 781.665 -0.97687 -1.82387 0
M  V30 8323 C 782.08 0.474917 -1.82729 0
M  V30 8324 O 781.437 1.3297 -1.25001 0
M  V30 8325 C 781.488 -1.50279 -3.28783 0
M  V30 8326 O 781.209 -2.89772 -3.28578 0
M  V30 8327 C 782.71 -1.35538 -4.22071 0
M  V30 8328 H 779.93 -0.345977 -0.574927 0
M  V30 8329 H 782.474 -1.54942 -1.33466 0
M  V30 8330 H 780.629 -0.972414 -3.74997 0
M  V30 8331 H 781.043 -3.13954 -4.20159 0
M  V30 8332 H 782.517 -1.7716 -5.22799 0
M  V30 8333 H 782.994 -0.301598 -4.38163 0
M  V30 8334 H 783.6 -1.87562 -3.81708 0
M  V30 8335 N 781.915 1.24427 -0.967243 0
M  V30 8336 C 782.825 2.29109 -0.504592 0
M  V30 8337 C 783.841 1.68495 0.434224 0
M  V30 8338 O 785.017 1.99041 0.307379 0
M  V30 8339 C 782.082 3.46133 0.198273 0
M  V30 8340 C 781.143 4.22149 -0.780313 0
M  V30 8341 C 780.376 5.33585 -0.110896 0
M  V30 8342 O 780.599 5.59676 1.10088 0
M  V30 8343 O 779.533 5.96522 -0.802823 0
M  V30 8344 H 783.359 2.708 -1.37482 0
M  V30 8345 H 780.944 1.30111 -0.73426 0
M  V30 8346 H 782.826 4.17205 0.593124 0
M  V30 8347 H 781.501 3.0642 1.04347 0
M  V30 8348 H 780.408 3.53454 -1.22561 0
M  V30 8349 H 781.741 4.65677 -1.59392 0
M  V30 8350 N 783.393 0.737304 1.3929 0
M  V30 8351 C 784.326 0.0475454 2.2815 0
M  V30 8352 C 785.304 -0.745314 1.44512 0
M  V30 8353 O 786.488 -0.727387 1.739 0
M  V30 8354 C 783.615 -0.939803 3.254 0
M  V30 8355 C 782.661 -0.235153 4.25851 0
M  V30 8356 S 783.494 1.05252 5.25055 0
M  V30 8357 C 784.65 0.0678242 6.25863 0
M  V30 8358 H 784.883 0.801117 2.86303 0
M  V30 8359 H 782.416 0.529197 1.45048 0
M  V30 8360 H 784.374 -1.50417 3.81949 0
M  V30 8361 H 783.035 -1.66623 2.66262 0
M  V30 8362 H 782.228 -0.982336 4.94334 0
M  V30 8363 H 781.83 0.257245 3.73114 0
M  V30 8364 H 784.122 -0.771779 6.7309 0
M  V30 8365 H 785.065 0.719858 7.04431 0
M  V30 8366 H 785.473 -0.305604 5.63672 0
M  V30 8367 N 784.871 -1.49948 0.485112 0
M  V30 8368 C 785.781 -2.32587 -0.306697 0
M  V30 8369 C 786.797 -1.43598 -0.982632 0
M  V30 8370 O 787.973 -1.76638 -0.967519 0
M  V30 8371 C 785.038 -3.18638 -1.3664 0
M  V30 8372 C 784.099 -4.23462 -0.705589 0
M  V30 8373 C 783.332 -5.05401 -1.7148 0
M  V30 8374 O 783.555 -4.88618 -2.94293 0
M  V30 8375 O 782.489 -5.88157 -1.27889 0
M  V30 8376 H 786.315 -3.01447 0.369272 0
M  V30 8377 H 783.9 -1.47349 0.246709 0
M  V30 8378 H 785.782 -3.71992 -1.9799 0
M  V30 8379 H 784.457 -2.52491 -2.02559 0
M  V30 8380 H 783.364 -3.74063 -0.0527733 0
M  V30 8381 H 784.697 -4.92119 -0.0891187 0
M  V30 8382 N 786.349 -0.21828 -1.56081 0
M  V30 8383 C 787.765 0.137168 -1.59009 0
M  V30 8384 C 787.965 1.59215 -1.23503 0
M  V30 8385 O 787.021 2.33178 -0.968716 0
M  V30 8386 C 788.334 -0.186162 -3.00123 0
M  V30 8387 C 789.882 -0.128135 -3.12738 0
M  V30 8388 C 790.357 -0.425094 -4.56023 0
M  V30 8389 N 791.848 -0.374547 -4.61683 0
M  V30 8390 C 792.583 -0.57786 -5.70481 0
M  V30 8391 N 792.079 -0.842771 -6.87655 0
M  V30 8392 N 793.872 -0.510521 -5.59777 0
M  V30 8393 H 786.023 -1.16746 -1.77437 0
M  V30 8394 H 788.286 -0.467706 -0.824594 0
M  V30 8395 H 787.992 -1.19589 -3.30744 0
M  V30 8396 H 787.866 0.500388 -3.73866 0
M  V30 8397 H 790.253 0.872224 -2.81915 0
M  V30 8398 H 790.334 -0.848112 -2.41331 0
M  V30 8399 H 789.978 -1.42288 -4.87562 0
M  V30 8400 H 789.908 0.316038 -5.25651 0
M  V30 8401 H 792.399 -0.177356 -3.77484 0
M  V30 8402 H 792.712 -0.986095 -7.66483 0
M  V30 8403 H 791.057 -0.879929 -6.89407 0
M  V30 8404 H 794.248 -0.303813 -4.67113 0
M  V30 8405 H 794.421 -0.672378 -6.44502 0
M  V30 8406 N 787.827 1.57504 0.0551401 0
M  V30 8407 C 788.79 2.03826 1.04821 0
M  V30 8408 C 789.79 0.937968 1.30609 0
M  V30 8409 O 790.98 1.20237 1.2605 0
M  V30 8410 C 788.112 2.43309 2.38775 0
M  V30 8411 H 789.305 2.92802 0.6486 0
M  V30 8412 H 786.858 1.53368 0.301315 0
M  V30 8413 H 787.593 1.5741 2.83536 0
M  V30 8414 H 787.378 3.23615 2.21395 0
M  V30 8415 H 788.868 2.79666 3.10124 0
M  V30 8416 N 789.305 -0.326896 1.54172 0
M  V30 8417 C 790.215 -1.42525 1.86343 0
M  V30 8418 C 791.231 -1.56764 0.75505 0
M  V30 8419 O 792.407 -1.71924 1.04901 0
M  V30 8420 C 789.472 -2.77286 2.08119 0
M  V30 8421 C 788.533 -2.7225 3.31931 0
M  V30 8422 C 787.766 -4.00584 3.52659 0
M  V30 8423 O 787.989 -4.98686 2.76891 0
M  V30 8424 O 786.923 -4.04045 4.46129 0
M  V30 8425 H 790.749 -1.18249 2.79734 0
M  V30 8426 H 788.334 -0.520614 1.40036 0
M  V30 8427 H 790.216 -3.57065 2.23791 0
M  V30 8428 H 788.891 -3.01459 1.17917 0
M  V30 8429 H 787.798 -1.91033 3.21647 0
M  V30 8430 H 789.131 -2.53032 4.2218 0
M  V30 8431 N 790.784 -1.46188 -0.588786 0
M  V30 8432 C 792.03 -1.51407 -1.34921 0
M  V30 8433 C 792.363 -0.162771 -1.93517 0
M  V30 8434 O 791.638 0.825082 -1.76132 0
M  V30 8435 C 791.921 -2.60795 -2.48311 0
M  V30 8436 C 791.774 -4.05435 -1.94789 0
M  V30 8437 C 793.093 -2.66313 -3.50379 0
M  V30 8438 H 790.212 -0.551213 -0.489217 0
M  V30 8439 H 792.854 -1.78095 -0.661993 0
M  V30 8440 H 791.004 -2.3817 -3.06932 0
M  V30 8441 H 792.676 -4.39328 -1.40672 0
M  V30 8442 H 790.919 -4.15202 -1.25659 0
M  V30 8443 H 791.59 -4.77691 -2.76613 0
M  V30 8444 H 794.066 -2.86634 -3.01629 0
M  V30 8445 H 792.942 -3.44681 -4.27184 0
M  V30 8446 H 793.203 -1.72127 -4.07216 0
M  V30 8447 N 792.262 0.832906 -1.33792 0
M  V30 8448 C 793.192 1.95828 -1.27176 0
M  V30 8449 C 794.173 1.69427 -0.15114 0
M  V30 8450 O 795.358 1.91167 -0.341886 0
M  V30 8451 C 792.488 3.32098 -1.01629 0
M  V30 8452 C 791.442 3.72912 -2.10049 0
M  V30 8453 C 790.768 5.07054 -1.69706 0
M  V30 8454 C 792.068 3.86064 -3.51783 0
M  V30 8455 H 793.762 2.01622 -2.21334 0
M  V30 8456 H 791.308 0.96866 -1.0655 0
M  V30 8457 H 793.261 4.10402 -0.956474 0
M  V30 8458 H 791.985 3.26577 -0.0390956 0
M  V30 8459 H 790.644 2.96876 -2.15082 0
M  V30 8460 H 790.292 4.9801 -0.706737 0
M  V30 8461 H 789.992 5.35333 -2.42264 0
M  V30 8462 H 791.516 5.87827 -1.65202 0
M  V30 8463 H 792.93 4.54665 -3.49218 0
M  V30 8464 H 791.327 4.25787 -4.22878 0
M  V30 8465 H 792.397 2.88344 -3.89854 0
M  V30 8466 N 793.74 1.17359 1.05189 0
M  V30 8467 C 794.968 0.986529 1.81866 0
M  V30 8468 C 795.383 -0.46522 1.82979 0
M  V30 8469 O 794.74 -1.32305 1.25705 0
M  V30 8470 C 794.791 1.52021 3.27982 0
M  V30 8471 O 794.512 2.91511 3.27037 0
M  V30 8472 C 796.013 1.37774 4.21347 0
M  V30 8473 H 793.233 0.349021 0.573084 0
M  V30 8474 H 795.777 1.55648 1.32643 0
M  V30 8475 H 793.932 0.992287 3.74476 0
M  V30 8476 H 794.346 3.16178 4.18488 0
M  V30 8477 H 795.82 1.7993 5.21852 0
M  V30 8478 H 796.297 0.32483 4.37997 0
M  V30 8479 H 796.903 1.89583 3.80708 0
M  V30 8480 N 795.218 -1.23913 0.973828 0
M  V30 8481 C 796.466 -1.91771 0.637817 0
M  V30 8482 C 796.787 -1.76434 -0.830435 0
M  V30 8483 O 796.057 -1.13965 -1.59339 0
M  V30 8484 H 794.637 -0.709761 0.232912 0
M  V30 8485 H 797.299 -1.50677 1.23622 0
M  V30 8486 H 796.395 -2.99327 0.883731 0
M  V30 8487 N 796.696 -0.74468 -1.38897 0
M  V30 8488 C 797.626 -0.126355 -2.33158 0
M  V30 8489 C 798.607 0.713517 -1.54412 0
M  V30 8490 O 799.792 0.656523 -1.82766 0
M  V30 8491 C 796.922 0.774375 -3.38557 0
M  V30 8492 C 795.876 0.0379214 -4.27983 0
M  V30 8493 C 795.202 1.05631 -5.24162 0
M  V30 8494 C 796.502 -1.12523 -5.10035 0
M  V30 8495 H 798.196 -0.913744 -2.85116 0
M  V30 8496 H 795.742 -0.440847 -1.37086 0
M  V30 8497 H 797.695 1.21655 -4.03458 0
M  V30 8498 H 796.419 1.59399 -2.85061 0
M  V30 8499 H 795.078 -0.384733 -3.64576 0
M  V30 8500 H 794.726 1.86975 -4.66958 0
M  V30 8501 H 794.426 0.568261 -5.84846 0
M  V30 8502 H 795.95 1.49799 -5.9194 0
M  V30 8503 H 797.364 -0.761037 -5.68226 0
M  V30 8504 H 795.761 -1.54355 -5.79909 0
M  V30 8505 H 796.831 -1.94237 -4.44297 0
M  V30 8506 N 798.174 1.49689 -0.493057 0
M  V30 8507 C 799.59 1.58907 -0.148526 0
M  V30 8508 C 799.79 1.4991 1.34645 0
M  V30 8509 O 798.846 1.36893 2.12171 0
M  V30 8510 C 800.159 2.91996 -0.718265 0
M  V30 8511 C 801.707 3.05443 -0.683658 0
M  V30 8512 C 802.182 4.41138 -1.23132 0
M  V30 8513 N 803.673 4.47608 -1.19167 0
M  V30 8514 C 804.408 5.51038 -1.5857 0
M  V30 8515 N 803.904 6.61612 -2.05528 0
M  V30 8516 N 805.697 5.41706 -1.50036 0
M  V30 8517 H 797.848 1.5378 -1.46511 0
M  V30 8518 H 800.111 0.727996 -0.607228 0
M  V30 8519 H 799.817 3.04123 -1.7664 0
M  V30 8520 H 799.691 3.76798 -0.17419 0
M  V30 8521 H 802.078 2.92949 0.355626 0
M  V30 8522 H 802.159 2.22344 -1.26479 0
M  V30 8523 H 801.803 4.54382 -2.26935 0
M  V30 8524 H 801.733 5.22864 -0.626201 0
M  V30 8525 H 804.224 3.68274 -0.847524 0
M  V30 8526 H 804.537 7.36622 -2.33685 0
M  V30 8527 H 802.882 6.62674 -2.09497 0
M  V30 8528 H 806.073 4.54212 -1.13176 0
M  V30 8529 H 806.246 6.22188 -1.81068 0
M  V30 8530 N 799.652 0.226554 1.55963 0
M  V30 8531 C 800.88 -0.408507 2.02827 0
M  V30 8532 C 801.295 -1.52994 1.10627 0
M  V30 8533 O 800.652 -1.82126 0.116809 0
M  V30 8534 C 800.703 -0.93545 3.49187 0
M  V30 8535 O 800.424 0.141273 4.37872 0
M  V30 8536 C 801.925 -1.64325 4.11719 0
M  V30 8537 H 799.145 -0.099442 0.66359 0
M  V30 8538 H 801.689 0.344471 2.01578 0
M  V30 8539 H 799.844 -1.63868 3.51036 0
M  V30 8540 H 800.258 -0.25558 5.23877 0
M  V30 8541 H 801.732 -1.9639 5.15883 0
M  V30 8542 H 802.209 -2.55815 3.57009 0
M  V30 8543 H 802.815 -0.9851 4.13734 0
M  V30 8544 N 801.13 -1.57531 -0.0467866 0
M  V30 8545 C 802.378 -1.88078 -0.739656 0
M  V30 8546 C 802.699 -0.821936 -1.76831 0
M  V30 8547 O 801.969 0.146582 -1.95351 0
M  V30 8548 H 800.549 -0.694075 -0.276169 0
M  V30 8549 H 803.211 -1.94893 -0.0169391 0
M  V30 8550 H 802.307 -2.86396 -1.24031 0
M  V30 8551 N 802.608 0.318715 -1.54344 0
M  V30 8552 C 803.54 1.41364 -1.80413 0
M  V30 8553 C 804.553 1.47627 -0.686294 0
M  V30 8554 O 805.742 1.50264 -0.963486 0
M  V30 8555 C 802.842 2.79867 -1.91123 0
M  V30 8556 C 802.015 2.96749 -3.21339 0
M  V30 8557 C 801.074 4.15642 -3.22689 0
M  V30 8558 O 800.1 4.08571 -3.96306 0
M  V30 8559 N 801.302 5.25416 -2.46817 0
M  V30 8560 H 804.067 1.19363 -2.74905 0
M  V30 8561 H 801.628 0.508722 -1.537 0
M  V30 8562 H 803.62 3.57619 -1.89448 0
M  V30 8563 H 802.19 2.94896 -1.03706 0
M  V30 8564 H 801.41 2.06257 -3.35934 0
M  V30 8565 H 802.698 3.04927 -4.07304 0
M  V30 8566 H 802.096 5.34037 -1.86605 0
M  V30 8567 H 800.653 6.01569 -2.50915 0
M  V30 8568 N 804.086 1.46499 0.581025 0
M  V30 8569 C 805.016 1.60052 1.70017 0
M  V30 8570 C 805.997 0.450788 1.64018 0
M  V30 8571 O 807.182 0.677237 1.82009 0
M  V30 8572 C 804.312 1.5921 3.08658 0
M  V30 8573 C 803.266 2.73169 3.29488 0
M  V30 8574 C 802.592 2.57389 4.68674 0
M  V30 8575 C 803.892 4.14978 3.1716 0
M  V30 8576 H 805.586 2.53735 1.5893 0
M  V30 8577 H 803.132 1.22113 0.763173 0
M  V30 8578 H 805.085 1.67285 3.86773 0
M  V30 8579 H 803.809 0.620718 3.20647 0
M  V30 8580 H 802.468 2.64566 2.53773 0
M  V30 8581 H 802.116 1.58331 4.77431 0
M  V30 8582 H 801.816 3.33826 4.83564 0
M  V30 8583 H 803.34 2.67358 5.48956 0
M  V30 8584 H 804.754 4.24684 3.85119 0
M  V30 8585 H 803.151 4.92016 3.4357 0
M  V30 8586 H 804.221 4.35016 2.14218 0
M  V30 8587 N 805.565 -0.825799 1.34232 0
M  V30 8588 C 806.976 -1.39835 1.23706 0
M  V30 8589 C 807.327 -1.95709 -0.138649 0
M  V30 8590 O 806.452 -1.89833 -1.03886 0
M  V30 8591 C 807.047 -2.54203 2.23978 0
M  V30 8592 C 805.606 -3.07374 2.17251 0
M  V30 8593 C 804.753 -1.80232 2.10741 0
M  V30 8594 H 807.704 -0.630442 1.4564 0
M  V30 8595 H 807.725 -3.32214 1.8551 0
M  V30 8596 H 807.237 -2.13506 3.24094 0
M  V30 8597 H 805.338 -3.52583 1.20483 0
M  V30 8598 H 805.451 -3.6666 3.08379 0
M  V30 8599 H 803.815 -2.01012 1.56417 0
M  V30 8600 H 804.598 -1.41713 3.12686 0
M  V30 8601 N 807.043 -1.17915 -1.04565 0
M  V30 8602 C 807.953 -0.916449 -2.15959 0
M  V30 8603 C 808.969 0.117655 -1.73602 0
M  V30 8604 O 810.145 -0.063089 -2.01301 0
M  V30 8605 C 807.21 -0.440262 -3.43893 0
M  V30 8606 C 806.271 -1.54172 -4.00661 0
M  V30 8607 C 805.504 -1.08816 -5.22489 0
M  V30 8608 O 805.727 0.0551547 -5.70373 0
M  V30 8609 O 804.661 -1.88383 -5.7166 0
M  V30 8610 H 808.487 -1.8484 -2.40972 0
M  V30 8611 H 806.072 -0.960552 -1.14428 0
M  V30 8612 H 807.954 -0.182537 -4.21004 0
M  V30 8613 H 806.629 0.46346 -3.20365 0
M  V30 8614 H 805.536 -1.85341 -3.24961 0
M  V30 8615 H 806.869 -2.42139 -4.2852 0
M  V30 8616 N 808.521 1.23394 -0.980386 0
M  V30 8617 C 809.746 1.96384 -0.666935 0
M  V30 8618 C 810.171 1.72087 0.759456 0
M  V30 8619 O 809.529 0.992328 1.51732 0
M  V30 8620 C 809.577 3.47499 -0.963177 0
M  V30 8621 O 808.681 4.12363 -0.0552051 0
M  V30 8622 H 808.022 0.614797 -0.250839 0
M  V30 8623 H 810.552 1.56831 -1.31398 0
M  V30 8624 H 810.562 3.97953 -0.899877 0
M  V30 8625 H 809.237 3.6451 -2.00264 0
M  V30 8626 H 807.814 3.72499 -0.172914 0
M  V30 8627 N 809.999 0.752036 1.385 0
M  V30 8628 C 810.929 0.138718 2.33088 0
M  V30 8629 C 811.91 -0.705318 1.54788 0
M  V30 8630 O 813.095 -0.646821 1.83112 0
M  V30 8631 C 810.225 -0.75641 3.38963 0
M  V30 8632 C 809.179 -0.0152239 4.27997 0
M  V30 8633 C 808.505 -1.0285 5.24715 0
M  V30 8634 C 809.805 1.15226 5.09431 0
M  V30 8635 H 811.499 0.928852 2.84627 0
M  V30 8636 H 809.045 0.448111 1.3685 0
M  V30 8637 H 810.998 -1.19513 4.04097 0
M  V30 8638 H 809.722 -1.57885 2.85902 0
M  V30 8639 H 808.381 0.404061 3.64366 0
M  V30 8640 H 808.029 -1.84496 4.67943 0
M  V30 8641 H 807.729 -0.537238 5.85139 0
M  V30 8642 H 809.253 -1.46657 5.92726 0
M  V30 8643 H 810.667 0.791161 5.67815 0
M  V30 8644 H 809.064 1.57428 5.79082 0
M  V30 8645 H 810.134 1.9659 4.43261 0
M  V30 8646 N 811.477 -1.49425 0.500989 0
M  V30 8647 C 812.893 -1.58826 0.156951 0
M  V30 8648 C 813.093 -1.50622 -1.33848 0
M  V30 8649 O 812.149 -1.38016 -2.11442 0
M  V30 8650 C 813.462 -2.91611 0.73374 0
M  V30 8651 C 815.01 -3.05076 0.699846 0
M  V30 8652 C 815.485 -4.40479 1.2547 0
M  V30 8653 N 816.976 -4.4697 1.2154 0
M  V30 8654 C 817.711 -5.50189 1.6149 0
M  V30 8655 N 817.207 -6.60512 2.09034 0
M  V30 8656 N 819 -5.40903 1.52907 0
M  V30 8657 H 811.151 -1.53001 1.47324 0
M  V30 8658 H 813.414 -0.724765 0.61108 0
M  V30 8659 H 813.12 -3.03182 1.78251 0
M  V30 8660 H 812.994 -3.767 0.19417 0
M  V30 8661 H 815.381 -2.93134 -0.340085 0
M  V30 8662 H 815.462 -2.2167 1.27656 0
M  V30 8663 H 815.106 -4.53172 2.29341 0
M  V30 8664 H 815.036 -5.22524 0.653921 0
M  V30 8665 H 817.527 -3.67819 0.867043 0
M  V30 8666 H 817.84 -7.35372 2.37588 0
M  V30 8667 H 816.185 -6.61553 2.13008 0
M  V30 8668 H 819.376 -4.53606 1.15583 0
M  V30 8669 H 819.549 -6.21219 1.84365 0
M  V30 8670 N 812.955 -0.234822 -1.55841 0
M  V30 8671 C 813.902 0.6698 -2.20867 0
M  V30 8672 C 814.872 1.18042 -1.16856 0
M  V30 8673 O 816.057 1.23709 -1.45261 0
M  V30 8674 C 813.197 1.86646 -2.90271 0
M  V30 8675 C 812.31 1.39351 -4.08908 0
M  V30 8676 C 811.445 2.54878 -4.66059 0
M  V30 8677 C 810.484 2.04384 -5.76969 0
M  V30 8678 N 809.621 3.13233 -6.28355 0
M  V30 8679 H 814.461 0.10858 -2.97802 0
M  V30 8680 H 811.998 0.041836 -1.4704 0
M  V30 8681 H 813.956 2.56926 -3.28702 0
M  V30 8682 H 812.586 2.40035 -2.15831 0
M  V30 8683 H 811.638 0.585173 -3.75872 0
M  V30 8684 H 812.95 0.983356 -4.89011 0
M  V30 8685 H 812.104 3.33219 -5.07001 0
M  V30 8686 H 810.843 2.99188 -3.85146 0
M  V30 8687 H 809.848 1.24509 -5.35516 0
M  V30 8688 H 811.073 1.61057 -6.59725 0
M  V30 8689 H 809.019 3.57 -5.50352 0
M  V30 8690 H 808.936 2.76511 -7.03618 0
M  V30 8691 H 810.204 3.91669 -6.73955 0
M  V30 8692 N 814.433 1.57553 0.0384317 0
M  V30 8693 C 815.849 1.54663 0.39391 0
M  V30 8694 C 816.049 0.959685 1.77179 0
M  V30 8695 O 815.105 0.576647 2.45827 0
M  V30 8696 C 816.418 2.99156 0.304352 0
M  V30 8697 C 817.966 3.10659 0.382119 0
M  V30 8698 C 818.441 4.56866 0.322111 0
M  V30 8699 N 819.932 4.61629 0.38119 0
M  V30 8700 C 820.667 5.72284 0.357501 0
M  V30 8701 N 820.163 6.92207 0.286654 0
M  V30 8702 N 821.956 5.60628 0.406538 0
M  V30 8703 H 814.107 1.9406 -0.86339 0
M  V30 8704 H 816.37 0.889673 -0.327392 0
M  V30 8705 H 816.076 3.45788 -0.642141 0
M  V30 8706 H 815.95 3.60753 1.10168 0
M  V30 8707 H 818.337 2.6398 1.31904 0
M  V30 8708 H 818.418 2.5191 -0.444391 0
M  V30 8709 H 818.062 5.0421 -0.611104 0
M  V30 8710 H 817.992 5.13515 1.1666 0
M  V30 8711 H 820.483 3.75343 0.438838 0
M  V30 8712 H 820.796 7.72316 0.273421 0
M  V30 8713 H 819.141 6.9454 0.252841 0
M  V30 8714 H 822.332 4.65836 0.459812 0
M  V30 8715 H 822.505 6.46858 0.384608 0
M  V30 8716 N 815.911 -0.310526 1.54511 0
M  V30 8717 C 817.151 -1.05498 1.7507 0
M  V30 8718 C 817.515 -1.84814 0.520381 0
M  V30 8719 O 818.716 -2.61937 0.603547 0
M  V30 8720 C 816.987 -1.94466 2.99863 0
M  V30 8721 S 818.546 -2.75686 3.41383 0
M  V30 8722 H 815.364 -0.355951 0.615483 0
M  V30 8723 H 817.966 -0.329464 1.92704 0
M  V30 8724 H 816.67 -1.35055 3.87541 0
M  V30 8725 H 816.201 -2.71401 2.84789 0
M  V30 8726 H 818.216 -3.96971 2.97706 0
M  V30 8727 N 817.389 -1.46805 -0.573248 0
M  V30 8728 C 818.8 -1.46655 -1.15539 0
M  V30 8729 C 819.151 -0.2125 -1.95046 0
M  V30 8730 O 818.276 0.683759 -2.05314 0
M  V30 8731 C 818.871 -2.65711 -2.10198 0
M  V30 8732 C 817.43 -2.68572 -2.63716 0
M  V30 8733 C 816.577 -2.39498 -1.39772 0
M  V30 8734 H 819.528 -1.54547 -0.36068 0
M  V30 8735 H 819.549 -2.41768 -2.93817 0
M  V30 8736 H 819.061 -3.56967 -1.52303 0
M  V30 8737 H 817.162 -1.81414 -3.25453 0
M  V30 8738 H 817.275 -3.68809 -3.05805 0
M  V30 8739 H 815.639 -1.89749 -1.69904 0
M  V30 8740 H 816.422 -3.32942 -0.836943 0
M  V30 8741 N 818.867 0.818669 -1.34668 0
M  V30 8742 C 820.113 1.57746 -1.27453 0
M  V30 8743 C 820.446 1.93588 0.154077 0
M  V30 8744 O 819.721 1.60371 1.10051 0
M  V30 8745 C 820.004 2.87414 -2.16945 0
M  V30 8746 C 819.857 2.58125 -3.68363 0
M  V30 8747 C 821.176 3.89021 -2.05792 0
M  V30 8748 H 818.295 0.572339 -0.464324 0
M  V30 8749 H 820.937 0.942784 -1.64959 0
M  V30 8750 H 819.087 3.41576 -1.85089 0
M  V30 8751 H 820.759 2.10239 -4.10606 0
M  V30 8752 H 819.002 1.91503 -3.89242 0
M  V30 8753 H 819.673 3.5061 -4.26353 0
M  V30 8754 H 822.149 3.44224 -2.33771 0
M  V30 8755 H 821.025 4.77548 -2.70628 0
M  V30 8756 H 821.286 4.29786 -1.03618 0
M  V30 8757 N 820.346 1.18468 1.03938 0
M  V30 8758 C 821.278 0.870615 2.12021 0
M  V30 8759 C 822.291 -0.132318 1.62261 0
M  V30 8760 O 823.48 0.0956901 1.78243 0
M  V30 8761 C 820.58 0.279727 3.37744 0
M  V30 8762 C 819.753 1.32863 4.16733 0
M  V30 8763 C 818.812 0.753204 5.20781 0
M  V30 8764 O 817.838 1.42825 5.5099 0
M  V30 8765 N 819.04 -0.448664 5.78764 0
M  V30 8766 H 821.805 1.80091 2.39556 0
M  V30 8767 H 819.366 1.08524 1.20142 0
M  V30 8768 H 821.358 -0.118829 4.04526 0
M  V30 8769 H 819.928 -0.554621 3.07641 0
M  V30 8770 H 819.148 1.90245 3.45254 0
M  V30 8771 H 820.436 2.03574 4.66299 0
M  V30 8772 H 819.834 -1.01481 5.56523 0
M  V30 8773 H 818.391 -0.789125 6.47005 0
M  V30 8774 N 821.824 -1.22873 0.986916 0
M  V30 8775 C 822.787 -2.2281 0.537442 0
M  V30 8776 C 823.787 -1.56331 -0.37646 0
M  V30 8777 O 824.977 -1.73376 -0.169247 0
M  V30 8778 C 822.109 -3.40195 -0.219082 0
M  V30 8779 H 823.302 -2.64089 1.42116 0
M  V30 8780 H 820.855 -1.35819 0.773488 0
M  V30 8781 H 821.59 -3.04381 -1.11905 0
M  V30 8782 H 821.375 -3.89657 0.437026 0
M  V30 8783 H 822.865 -4.14326 -0.521926 0
M  V30 8784 N 823.302 -0.75937 -1.38099 0
M  V30 8785 C 824.249 -0.135508 -2.30402 0
M  V30 8786 C 825.219 0.703356 -1.50473 0
M  V30 8787 O 826.404 0.658287 -1.79084 0
M  V30 8788 C 823.544 0.747228 -3.36913 0
M  V30 8789 C 822.657 -0.106893 -4.31868 0
M  V30 8790 C 821.792 0.779388 -5.25451 0
M  V30 8791 C 820.831 -0.0780179 -6.1205 0
M  V30 8792 N 819.968 0.765545 -6.97914 0
M  V30 8793 H 824.808 -0.9282 -2.83176 0
M  V30 8794 H 822.345 -0.46935 -1.39411 0
M  V30 8795 H 824.303 1.27371 -3.97281 0
M  V30 8796 H 822.933 1.50565 -2.85535 0
M  V30 8797 H 821.985 -0.751063 -3.72912 0
M  V30 8798 H 823.297 -0.768798 -4.9284 0
M  V30 8799 H 822.451 1.37282 -5.90964 0
M  V30 8800 H 821.19 1.47501 -4.6486 0
M  V30 8801 H 820.195 -0.684078 -5.45528 0
M  V30 8802 H 821.42 -0.770786 -6.74712 0
M  V30 8803 H 819.366 1.44601 -6.39864 0
M  V30 8804 H 819.283 0.160666 -7.55829 0
M  V30 8805 H 820.551 1.34377 -7.6783 0
M  V30 8806 N 824.78 1.49157 -0.508906 0
M  V30 8807 C 826.01 2.06579 0.0293308 0
M  V30 8808 C 826.418 1.36852 1.30645 0
M  V30 8809 O 825.761 0.443079 1.78276 0
M  V30 8810 C 825.823 3.57838 0.345296 0
M  V30 8811 C 825.487 4.49302 -0.835256 0
M  V30 8812 C 826.484 4.90345 -1.72793 0
M  V30 8813 C 824.169 4.91494 -1.0363 0
M  V30 8814 C 826.163 5.72327 -2.80573 0
M  V30 8815 C 823.85 5.7325 -2.11726 0
M  V30 8816 C 824.848 6.13572 -3.00032 0
M  V30 8817 O 824.536 6.93691 -4.06261 0
M  V30 8818 H 824.268 0.675679 -0.0208193 0
M  V30 8819 H 826.822 1.9282 -0.707789 0
M  V30 8820 H 825.052 3.69634 1.13612 0
M  V30 8821 H 826.741 3.97467 0.823089 0
M  V30 8822 H 827.507 4.58388 -1.58446 0
M  V30 8823 H 823.386 4.59605 -0.358308 0
M  V30 8824 H 826.93 6.03719 -3.49527 0
M  V30 8825 H 822.827 6.0462 -2.26065 0
M  V30 8826 H 823.595 7.12011 -4.03711 0
M  V30 8827 N 826.258 0.243083 1.55714 0
M  V30 8828 C 827.507 -0.383188 1.98027 0
M  V30 8829 C 827.82 -1.59347 1.13436 0
M  V30 8830 O 829.026 -2.29065 1.45745 0
M  V30 8831 C 827.482 -0.733135 3.52354 0
M  V30 8832 C 827.09 0.455539 4.45678 0
M  V30 8833 C 828.834 -1.32381 4.03331 0
M  V30 8834 C 826.741 0.0819591 5.91343 0
M  V30 8835 H 825.671 -0.146944 0.739543 0
M  V30 8836 H 828.322 0.342697 1.80272 0
M  V30 8837 H 826.704 -1.51704 3.65789 0
M  V30 8838 H 827.878 1.23291 4.44 0
M  V30 8839 H 826.193 0.960886 4.05162 0
M  V30 8840 H 828.79 -1.61658 5.09677 0
M  V30 8841 H 829.133 -2.24698 3.50452 0
M  V30 8842 H 829.666 -0.602885 3.93205 0
M  V30 8843 H 826.405 0.972171 6.48251 0
M  V30 8844 H 825.925 -0.659291 5.96166 0
M  V30 8845 H 827.604 -0.3372 6.46121 0
M  V30 8846 N 827.736 -1.57571 -0.0300757 0
M  V30 8847 C 828.668 -2.0329 -1.05857 0
M  V30 8848 C 829.681 -0.945543 -1.32527 0
M  V30 8849 O 830.87 -1.22287 -1.30032 0
M  V30 8850 C 827.97 -2.39234 -2.40042 0
M  V30 8851 C 827.143 -3.70337 -2.32743 0
M  V30 8852 C 826.202 -3.93482 -3.49369 0
M  V30 8853 O 825.228 -4.64551 -3.28909 0
M  V30 8854 N 826.43 -3.39042 -4.71201 0
M  V30 8855 H 829.195 -2.9214 -0.668897 0
M  V30 8856 H 826.756 -1.60425 -0.218038 0
M  V30 8857 H 828.748 -2.51856 -3.16782 0
M  V30 8858 H 827.318 -1.5606 -2.70858 0
M  V30 8859 H 826.538 -3.68079 -1.41109 0
M  V30 8860 H 827.826 -4.56343 -2.25007 0
M  V30 8861 H 827.224 -2.81434 -4.90725 0
M  V30 8862 H 825.781 -3.57045 -5.45309 0
M  V30 8863 N 829.214 0.302327 -1.54673 0
M  V30 8864 C 830.164 1.37443 -1.81916 0
M  V30 8865 C 831.148 1.45999 -0.676251 0
M  V30 8866 O 832.34 1.50174 -0.93685 0
M  V30 8867 C 829.469 2.73966 -2.06876 0
M  V30 8868 C 828.555 2.69637 -3.27348 0
M  V30 8869 N 828.946 2.34926 -4.47933 0
M  V30 8870 C 827.244 3.00742 -3.29348 0
M  V30 8871 C 827.945 2.39862 -5.29944 0
M  V30 8872 N 826.921 2.77163 -4.67634 0
M  V30 8873 H 830.723 1.09567 -2.72713 0
M  V30 8874 H 828.237 0.5109 -1.54154 0
M  V30 8875 H 830.234 3.51265 -2.2454 0
M  V30 8876 H 828.894 3.02754 -1.17346 0
M  V30 8877 H 829.905 2.07403 -4.74557 0
M  V30 8878 H 826.582 3.34434 -2.49921 0
M  V30 8879 H 827.972 2.15835 -6.3629 0
M  V30 8880 N 830.692 1.47107 0.565454 0
M  V30 8881 C 831.622 1.61846 1.68309 0
M  V30 8882 C 832.603 0.468159 1.63531 0
M  V30 8883 O 833.788 0.696504 1.8128 0
M  V30 8884 C 830.918 1.62474 3.06952 0
M  V30 8885 C 829.872 2.76649 3.26572 0
M  V30 8886 C 829.198 2.62345 4.65917 0
M  V30 8887 C 830.498 4.18319 3.12741 0
M  V30 8888 H 832.192 2.55407 1.5623 0
M  V30 8889 H 829.738 1.22916 0.750179 0
M  V30 8890 H 831.691 1.71378 3.84977 0
M  V30 8891 H 830.415 0.654692 3.19971 0
M  V30 8892 H 829.074 2.67242 2.50952 0
M  V30 8893 H 828.722 1.63386 4.75725 0
M  V30 8894 H 828.422 3.38936 4.79996 0
M  V30 8895 H 829.946 2.73165 5.46089 0
M  V30 8896 H 831.36 4.28745 3.80593 0
M  V30 8897 H 829.757 4.95632 3.38333 0
M  V30 8898 H 830.827 4.37263 2.09592 0
M  V30 8899 N 832.17 -0.811516 1.35101 0
M  V30 8900 C 833.398 -1.59981 1.31201 0
M  V30 8901 C 833.813 -1.8847 -0.111552 0
M  V30 8902 O 833.17 -1.48414 -1.06205 0
M  V30 8903 C 833.221 -2.934 2.11184 0
M  V30 8904 O 832.942 -2.66148 3.4799 0
M  V30 8905 C 834.443 -3.87776 2.14813 0
M  V30 8906 H 831.663 -0.496921 0.450899 0
M  V30 8907 H 834.207 -1.00886 1.77883 0
M  V30 8908 H 832.362 -3.49022 1.68115 0
M  V30 8909 H 832.776 -3.51301 3.89471 0
M  V30 8910 H 834.25 -4.7852 2.75178 0
M  V30 8911 H 834.727 -4.23997 1.14556 0
M  V30 8912 H 835.333 -3.3809 2.58022 0
M  V30 8913 N 833.648 -1.19017 -1.03309 0
M  V30 8914 C 835.064 -0.941483 -1.28873 0
M  V30 8915 C 835.264 0.388587 -1.97718 0
M  V30 8916 O 834.32 1.12111 -2.26246 0
M  V30 8917 C 835.633 -2.11249 -2.13996 0
M  V30 8918 C 837.181 -2.15164 -2.27318 0
M  V30 8919 C 837.656 -3.31704 -3.15811 0
M  V30 8920 N 839.147 -3.31613 -3.23399 0
M  V30 8921 C 839.882 -4.18431 -3.9205 0
M  V30 8922 N 839.378 -5.15397 -4.62966 0
M  V30 8923 N 841.171 -4.06321 -3.88406 0
M  V30 8924 H 833.322 -2.04599 -0.570343 0
M  V30 8925 H 835.585 -0.894406 -0.314232 0
M  V30 8926 H 835.291 -3.07482 -1.70727 0
M  V30 8927 H 835.165 -2.07955 -3.14697 0
M  V30 8928 H 837.552 -1.19504 -2.6982 0
M  V30 8929 H 837.633 -2.22513 -1.26182 0
M  V30 8930 H 837.277 -4.2764 -2.74019 0
M  V30 8931 H 837.207 -3.21592 -4.16997 0
M  V30 8932 H 839.698 -2.6142 -2.72888 0
M  V30 8933 H 840.011 -5.78 -5.12968 0
M  V30 8934 H 838.356 -5.19349 -4.61846 0
M  V30 8935 H 841.547 -3.29849 -3.3214 0
M  V30 8936 H 841.72 -4.74196 -4.41635 0
M  V30 8937 N 835.127 1.22348 -0.993418 0
M  V30 8938 C 836.543 1.43222 -0.704238 0
M  V30 8939 C 836.743 1.88009 0.724909 0
M  V30 8940 O 835.799 2.03429 1.49575 0
M  V30 8941 C 837.112 2.47328 -1.71025 0
M  V30 8942 C 838.66 2.61126 -1.72576 0
M  V30 8943 C 839.135 3.68453 -2.72041 0
M  V30 8944 N 840.626 3.75911 -2.70639 0
M  V30 8945 C 841.361 4.58551 -3.44266 0
M  V30 8946 N 840.857 5.45179 -4.27495 0
M  V30 8947 N 842.65 4.52866 -3.32969 0
M  V30 8948 H 834.801 0.915832 -1.91641 0
M  V30 8949 H 837.064 0.464283 -0.826526 0
M  V30 8950 H 836.77 2.21366 -2.73295 0
M  V30 8951 H 836.644 3.45939 -1.50353 0
M  V30 8952 H 839.031 2.86431 -0.710037 0
M  V30 8953 H 839.112 1.62787 -1.97317 0
M  V30 8954 H 838.756 3.43895 -3.73763 0
M  V30 8955 H 838.686 4.66362 -2.4457 0
M  V30 8956 H 841.177 3.14014 -2.10247 0
M  V30 8957 H 841.49 6.0526 -4.80499 0
M  V30 8958 H 839.835 5.44759 -4.31582 0
M  V30 8959 H 843.026 3.84215 -2.67389 0
M  V30 8960 H 843.199 5.17039 -3.90608 0
M  V30 8961 N 836.605 0.766683 1.37694 0
M  V30 8962 C 837.553 0.137269 2.32195 0
M  V30 8963 C 838.547 -0.69067 1.54681 0
M  V30 8964 O 839.753 -0.588299 1.70115 0
M  V30 8965 H 836.128 0.0256003 0.751564 0
M  V30 8966 H 838.099 0.950129 2.82869 0
M  V30 8967 C 836.848 -0.731446 3.39919 0
M  V30 8968 H 836.171 -0.103738 3.99665 0
M  V30 8969 H 837.611 -1.13891 4.08417 0
M  V30 8970 C 836.07 -1.87984 2.79578 0
M  V30 8971 O 836.6 -2.97496 2.69924 0
M  V30 8972 N 834.806 -1.6789 2.37195 0
M  V30 8973 H 834.353 -0.788162 2.45246 0
M  V30 8974 H 834.311 -2.44894 1.97165 0
M  V30 8975 N 838.083 -1.48885 0.516809 0
M  V30 8976 C 839.308 -2.0739 -0.0205201 0
M  V30 8977 C 839.733 -1.37259 -1.28614 0
M  V30 8978 O 839.091 -0.434304 -1.76021 0
M  V30 8979 C 839.139 -3.59793 -0.24104 0
M  V30 8980 O 838.243 -3.90957 -1.31251 0
M  V30 8981 H 837.584 -0.663167 0.0332564 0
M  V30 8982 H 840.114 -1.91477 0.720956 0
M  V30 8983 H 840.124 -4.0531 -0.467737 0
M  V30 8984 H 838.799 -4.10244 0.68356 0
M  V30 8985 H 837.376 -3.57234 -1.06951 0
M  V30 8986 N 839.561 -0.251338 -1.55583 0
M  V30 8987 C 840.786 0.379136 -2.03905 0
M  V30 8988 C 841.211 1.50428 -1.12929 0
M  V30 8989 O 840.569 1.80882 -0.123114 0
M  V30 8990 C 840.617 0.86009 -3.50193 0
M  V30 8991 O 839.721 1.96932 -3.62342 0
M  V30 8992 H 839.062 0.0820183 -0.658915 0
M  V30 8993 H 841.592 -0.378692 -2.01065 0
M  V30 8994 H 841.602 1.16214 -3.91099 0
M  V30 8995 H 840.277 0.0367559 -4.15884 0
M  V30 8996 H 838.854 1.67163 -3.33333 0
M  V30 8997 N 841.039 1.57585 0.0217189 0
M  V30 8998 C 841.971 2.03849 1.04777 0
M  V30 8999 C 842.984 0.952558 1.32023 0
M  V30 9000 O 844.173 1.22974 1.29381 0
M  V30 9001 C 841.273 2.40504 2.3877 0
M  V30 9002 C 840.446 3.71566 2.30775 0
M  V30 9003 C 839.505 3.95329 3.47277 0
M  V30 9004 O 838.531 4.66289 3.26441 0
M  V30 9005 N 839.733 3.41536 4.69397 0
M  V30 9006 H 842.498 2.92491 0.653395 0
M  V30 9007 H 840.059 1.60538 0.209527 0
M  V30 9008 H 842.051 2.53532 3.15442 0
M  V30 9009 H 840.621 1.57494 2.70027 0
M  V30 9010 H 839.841 3.68822 1.39155 0
M  V30 9011 H 841.129 4.5753 2.22584 0
M  V30 9012 H 840.527 2.84033 4.89226 0
M  V30 9013 H 839.084 3.59932 5.43408 0
M  V30 9014 N 842.517 -0.29412 1.54831 0
M  V30 9015 C 843.933 -0.640167 1.46199 0
M  V30 9016 C 844.133 -1.90426 0.658798 0
M  V30 9017 O 843.189 -2.51932 0.169228 0
M  V30 9018 C 844.502 -0.786763 2.90225 0
M  V30 9019 C 846.05 -0.882201 3.0031 0
M  V30 9020 C 846.525 -1.06074 4.45547 0
M  V30 9021 N 848.016 -1.12678 4.49286 0
M  V30 9022 C 848.751 -1.28334 5.58854 0
M  V30 9023 N 848.247 -1.40845 6.78332 0
M  V30 9024 N 850.04 -1.31277 5.46555 0
M  V30 9025 H 842.191 0.536334 2.05517 0
M  V30 9026 H 844.454 0.178363 0.93107 0
M  V30 9027 H 844.16 0.0713018 3.51628 0
M  V30 9028 H 844.034 -1.67364 3.38037 0
M  V30 9029 H 846.421 -1.73075 2.39017 0
M  V30 9030 H 846.502 0.0288405 2.55784 0
M  V30 9031 H 846.146 -0.216935 5.07437 0
M  V30 9032 H 846.076 -1.98611 4.8771 0
M  V30 9033 H 848.567 -1.04335 3.63212 0
M  V30 9034 H 848.88 -1.52566 7.57591 0
M  V30 9035 H 847.225 -1.37888 6.81184 0
M  V30 9036 H 850.416 -1.2112 4.52159 0
M  V30 9037 H 850.589 -1.43136 6.31994 0
M  V30 9038 N 843.995 -1.47404 -0.557645 0
M  V30 9039 C 845.406 -1.47872 -1.13977 0
M  V30 9040 C 845.757 -0.233176 -1.94809 0
M  V30 9041 O 844.882 0.661945 -2.06027 0
M  V30 9042 C 845.477 -2.67926 -2.07368 0
M  V30 9043 C 844.036 -2.71354 -2.60852 0
M  V30 9044 C 843.183 -2.40967 -1.37223 0
M  V30 9045 H 846.134 -1.54921 -0.344268 0
M  V30 9046 H 846.155 -2.44871 -2.91236 0
M  V30 9047 H 845.667 -3.58562 -1.48509 0
M  V30 9048 H 843.768 -1.84855 -3.23511 0
M  V30 9049 H 843.881 -3.72032 -3.01876 0
M  V30 9050 H 842.245 -1.91541 -1.67882 0
M  V30 9051 H 843.028 -3.33811 -0.801583 0
M  V30 9052 N 845.473 0.80434 -1.35529 0
M  V30 9053 C 846.698 1.598 -1.32207 0
M  V30 9054 C 847.123 1.87848 0.0974226 0
M  V30 9055 O 846.481 1.46728 1.06492 0
M  V30 9056 C 846.529 2.90483 -2.13663 0
M  V30 9057 O 845.633 3.83411 -1.51888 0
M  V30 9058 H 844.974 0.485305 -0.453183 0
M  V30 9059 H 847.504 0.998119 -1.78602 0
M  V30 9060 H 847.514 3.39888 -2.257 0
M  V30 9061 H 846.189 2.69395 -3.16859 0
M  V30 9062 H 844.766 3.41967 -1.48704 0
M  V30 9063 N 846.951 1.19563 1.02676 0
M  V30 9064 C 847.914 0.937182 2.09164 0
M  V30 9065 C 848.914 -0.0831927 1.60585 0
M  V30 9066 O 850.104 0.15178 1.73538 0
M  V30 9067 C 847.236 0.408912 3.38439 0
M  V30 9068 H 848.429 1.88164 2.33526 0
M  V30 9069 H 845.982 1.00959 1.19319 0
M  V30 9070 H 846.717 -0.541497 3.19747 0
M  V30 9071 H 846.502 1.14464 3.7502 0
M  V30 9072 H 847.992 0.247242 4.16867 0
M  V30 9073 N 848.429 -1.21819 0.999893 0
M  V30 9074 C 849.678 -1.90066 0.675108 0
M  V30 9075 C 849.991 -1.78624 -0.79705 0
M  V30 9076 O 851.197 -2.41851 -1.23371 0
M  V30 9077 C 849.653 -3.40795 1.15702 0
M  V30 9078 C 849.261 -3.60859 2.6549 0
M  V30 9079 C 851.005 -4.147 0.906889 0
M  V30 9080 C 848.912 -5.05324 3.07248 0
M  V30 9081 H 847.842 -0.711763 0.248815 0
M  V30 9082 H 850.493 -1.3792 1.21038 0
M  V30 9083 H 848.875 -3.92164 0.549832 0
M  V30 9084 H 850.049 -3.19951 3.31614 0
M  V30 9085 H 848.364 -3.00298 2.88461 0
M  V30 9086 H 850.961 -5.21187 1.1945 0
M  V30 9087 H 851.304 -4.16004 -0.156923 0
M  V30 9088 H 851.837 -3.69379 1.47662 0
M  V30 9089 H 848.576 -5.09164 4.12834 0
M  V30 9090 H 848.096 -5.47108 2.45832 0
M  V30 9091 H 849.775 -5.73797 2.98941 0
M  V30 9092 N 849.908 -0.773975 -1.37286 0
M  V30 9093 C 850.84 -0.119938 -2.28886 0
M  V30 9094 C 851.853 0.661822 -1.48741 0
M  V30 9095 O 853.042 0.499548 -1.71367 0
M  V30 9096 C 850.142 0.853703 -3.27971 0
M  V30 9097 C 849.315 0.125286 -4.37221 0
M  V30 9098 C 848.374 1.01261 -5.16365 0
M  V30 9099 O 847.4 0.475565 -5.6721 0
M  V30 9100 N 848.602 2.33864 -5.31308 0
M  V30 9101 H 851.367 -0.906702 -2.85655 0
M  V30 9102 H 848.928 -0.626519 -1.49286 0
M  V30 9103 H 850.92 1.4508 -3.77801 0
M  V30 9104 H 849.49 1.54142 -2.71954 0
M  V30 9105 H 848.71 -0.652742 -3.88758 0
M  V30 9106 H 849.998 -0.377959 -5.07394 0
M  V30 9107 H 849.396 2.79929 -4.91585 0
M  V30 9108 H 847.953 2.88575 -5.84438 0
M  V30 9109 N 851.386 1.48609 -0.524698 0
M  V30 9110 C 852.316 2.32366 0.229837 0
M  V30 9111 C 853.297 1.41759 0.940129 0
M  V30 9112 O 854.482 1.7065 0.926936 0
M  V30 9113 C 851.612 3.22835 1.28043 0
M  V30 9114 C 850.566 4.22424 0.688603 0
M  V30 9115 C 849.892 5.0199 1.84146 0
M  V30 9116 C 851.192 5.21217 -0.336176 0
M  V30 9117 H 852.886 2.95698 -0.469339 0
M  V30 9118 H 850.432 1.42197 -0.227156 0
M  V30 9119 H 852.385 3.80253 1.8162 0
M  V30 9120 H 851.109 2.57492 2.00912 0
M  V30 9121 H 849.768 3.66185 0.174402 0
M  V30 9122 H 849.416 4.33076 2.5584 0
M  V30 9123 H 849.116 5.69392 1.45142 0
M  V30 9124 H 850.64 5.62259 2.38111 0
M  V30 9125 H 852.054 5.7319 0.112307 0
M  V30 9126 H 850.451 5.96642 -0.643324 0
M  V30 9127 H 851.521 4.68676 -1.24381 0
M  V30 9128 N 852.864 0.259585 1.55447 0
M  V30 9129 C 853.794 -0.62852 2.24882 0
M  V30 9130 C 854.775 -1.17128 1.23349 0
M  V30 9131 O 855.96 -1.20829 1.52033 0
M  V30 9132 C 853.09 -1.81983 2.95803 0
M  V30 9133 C 852.044 -1.40929 4.04132 0
M  V30 9134 C 851.37 -2.68246 4.62545 0
M  V30 9135 C 852.67 -0.570956 5.1917 0
M  V30 9136 H 854.364 -0.0495021 2.99359 0
M  V30 9137 H 851.91 -0.0223688 1.43983 0
M  V30 9138 H 853.863 -2.44689 3.43082 0
M  V30 9139 H 852.587 -2.42444 2.18835 0
M  V30 9140 H 851.246 -0.805519 3.57641 0
M  V30 9141 H 850.894 -3.26931 3.82263 0
M  V30 9142 H 850.594 -2.41495 5.35681 0
M  V30 9143 H 852.118 -3.31827 5.12565 0
M  V30 9144 H 853.532 -1.10262 5.62597 0
M  V30 9145 H 851.929 -0.398979 5.98772 0
M  V30 9146 H 852.999 0.413918 4.8313 0
M  V30 9147 N 854.342 -1.57594 -0.0133615 0
M  V30 9148 C 855.274 -2.04402 -1.03695 0
M  V30 9149 C 856.287 -0.959546 -1.31516 0
M  V30 9150 O 857.476 -1.23659 -1.28727 0
M  V30 9151 C 854.576 -2.41766 -2.37491 0
M  V30 9152 C 853.749 -3.72785 -2.28802 0
M  V30 9153 C 852.808 -3.97165 -3.45176 0
M  V30 9154 O 851.834 -4.68013 -3.23963 0
M  V30 9155 N 853.036 -3.44021 -4.67579 0
M  V30 9156 H 855.801 -2.92833 -0.637874 0
M  V30 9157 H 853.362 -1.60647 -0.20101 0
M  V30 9158 H 855.354 -2.55201 -3.14093 0
M  V30 9159 H 853.924 -1.58924 -2.69188 0
M  V30 9160 H 853.144 -3.69555 -1.37197 0
M  V30 9161 H 854.432 -4.58704 -2.20154 0
M  V30 9162 H 853.83 -2.86623 -4.87713 0
M  V30 9163 H 852.387 -3.62808 -5.41492 0
M  V30 9164 N 855.82 0.285905 -1.54985 0
M  V30 9165 C 857.045 1.04207 -1.7932 0
M  V30 9166 C 857.47 1.79622 -0.558343 0
M  V30 9167 O 856.828 1.74506 0.491661 0
M  V30 9168 C 856.876 1.98648 -3.0095 0
M  V30 9169 O 855.98 3.07207 -2.75132 0
M  V30 9170 H 855.321 0.298596 -0.593074 0
M  V30 9171 H 857.851 0.318736 -2.02102 0
M  V30 9172 H 857.861 2.4084 -3.29333 0
M  V30 9173 H 856.536 1.43167 -3.90482 0
M  V30 9174 H 855.113 2.69423 -2.57809 0
M  V30 9175 N 857.298 1.47698 0.54982 0
M  V30 9176 C 858.208 1.63386 1.68351 0
M  V30 9177 C 859.224 0.516583 1.66155 0
M  V30 9178 O 860.4 0.785088 1.85468 0
M  V30 9179 C 857.465 1.6513 3.04849 0
M  V30 9180 C 856.526 2.88338 3.18056 0
M  V30 9181 C 855.759 2.8999 4.48042 0
M  V30 9182 O 855.982 2.00633 5.3395 0
M  V30 9183 O 854.916 3.81938 4.65196 0
M  V30 9184 H 858.742 2.59329 1.58057 0
M  V30 9185 H 856.327 1.30869 0.72067 0
M  V30 9186 H 858.209 1.68913 3.86065 0
M  V30 9187 H 856.884 0.723555 3.1551 0
M  V30 9188 H 855.791 2.90097 2.36209 0
M  V30 9189 H 857.124 3.80431 3.12302 0
M  V30 9190 N 858.776 -0.797141 1.35954 0
M  V30 9191 C 859.706 -1.92387 1.32323 0
M  V30 9192 C 860.687 -1.68967 0.196007 0
M  V30 9193 O 861.872 -1.90193 0.39245 0
M  V30 9194 C 859.002 -3.29286 1.10398 0
M  V30 9195 C 857.956 -3.67212 2.19862 0
M  V30 9196 C 857.282 -5.02377 1.8309 0
M  V30 9197 C 858.582 -3.76602 3.61896 0
M  V30 9198 H 860.276 -1.95683 2.26602 0
M  V30 9199 H 857.822 -0.94007 1.09081 0
M  V30 9200 H 859.775 -4.07721 1.06495 0
M  V30 9201 H 858.499 -3.26358 0.125668 0
M  V30 9202 H 857.158 -2.91069 2.22878 0
M  V30 9203 H 856.806 -4.95961 0.838527 0
M  V30 9204 H 856.506 -5.28722 2.56372 0
M  V30 9205 H 858.03 -5.8324 1.80729 0
M  V30 9206 H 859.444 -4.45246 3.6115 0
M  V30 9207 H 857.841 -4.14425 4.34018 0
M  V30 9208 H 858.911 -2.77906 3.97361 0
M  V30 9209 N 860.254 -1.20106 -1.0204 0
M  V30 9210 C 861.501 -1.00889 -1.75578 0
M  V30 9211 C 861.829 0.459415 -1.88996 0
M  V30 9212 O 861.084 1.35735 -1.40977 0
M  V30 9213 C 861.383 -1.63308 -3.17908 0
M  V30 9214 C 861.049 -3.13091 -3.24476 0
M  V30 9215 C 859.711 -3.53968 -3.25976 0
M  V30 9216 C 862.063 -4.09093 -3.22944 0
M  V30 9217 C 859.391 -4.89381 -3.2361 0
M  V30 9218 C 861.743 -5.44447 -3.22119 0
M  V30 9219 C 860.407 -5.84742 -3.2192 0
M  V30 9220 H 859.677 -0.36918 -0.642485 0
M  V30 9221 H 862.324 -1.49475 -1.19706 0
M  V30 9222 H 860.629 -1.06974 -3.76914 0
M  V30 9223 H 862.326 -1.45958 -3.73493 0
M  V30 9224 H 858.916 -2.80526 -3.24042 0
M  V30 9225 H 863.1 -3.78549 -3.20958 0
M  V30 9226 H 858.356 -5.1987 -3.21785 0
M  V30 9227 H 862.53 -6.18584 -3.19885 0
M  V30 9228 H 860.157 -6.89642 -3.19841 0
M  V30 9229 N 861.732 1.21287 -1.00634 0
M  V30 9230 C 862.664 2.2308 -0.526094 0
M  V30 9231 C 863.677 1.58157 0.386031 0
M  V30 9232 O 864.866 1.77528 0.186016 0
M  V30 9233 C 861.966 3.37937 0.255289 0
M  V30 9234 C 861.139 4.32449 -0.656236 0
M  V30 9235 C 860.198 5.26145 0.0757714 0
M  V30 9236 O 859.224 5.66601 -0.543325 0
M  V30 9237 N 860.426 5.6449 1.35391 0
M  V30 9238 H 863.191 2.64913 -1.40147 0
M  V30 9239 H 860.752 1.35724 -0.882641 0
M  V30 9240 H 862.744 3.97614 0.753977 0
M  V30 9241 H 861.314 2.95078 1.03187 0
M  V30 9242 H 860.534 3.70892 -1.3354 0
M  V30 9243 H 861.822 4.92526 -1.27653 0
M  V30 9244 H 861.22 5.33617 1.878 0
M  V30 9245 H 859.777 6.26524 1.79753 0
M  V30 9246 N 863.21 0.781244 1.36873 0
M  V30 9247 C 864.158 0.161889 2.32036 0
M  V30 9248 C 865.152 -0.674225 1.55405 0
M  V30 9249 O 866.358 -0.570223 1.70729 0
M  V30 9250 H 862.733 0.0335702 0.75125 0
M  V30 9251 H 864.704 0.980078 2.81846 0
M  V30 9252 C 863.453 -0.695352 3.40676 0
M  V30 9253 H 862.776 -0.0613425 3.99753 0
M  V30 9254 H 864.216 -1.09553 4.09602 0
M  V30 9255 C 862.675 -1.85008 2.81556 0
M  V30 9256 O 863.205 -2.94616 2.73065 0
M  V30 9257 N 861.411 -1.65364 2.38962 0
M  V30 9258 H 860.958 -0.762106 2.46068 0
M  V30 9259 H 860.916 -2.42789 1.99752 0
M  V30 9260 N 864.689 -1.48329 0.532571 0
M  V30 9261 C 865.914 -2.074 0.00147755 0
M  V30 9262 C 866.339 -1.38615 -1.27151 0
M  V30 9263 O 865.697 -0.452949 -1.75551 0
M  V30 9264 C 865.745 -3.60029 -0.202866 0
M  V30 9265 O 864.849 -3.92327 -1.27097 0
M  V30 9266 H 864.19 -0.662777 0.0402883 0
M  V30 9267 H 866.72 -1.90701 0.741224 0
M  V30 9268 H 866.73 -4.05783 -0.424722 0
M  V30 9269 H 865.405 -4.09496 0.727033 0
M  V30 9270 H 863.982 -3.58348 -1.03156 0
M  V30 9271 N 866.167 -0.267825 -1.55308 0
M  V30 9272 C 867.415 0.350343 -1.9904 0
M  V30 9273 C 867.736 1.56924 -1.15758 0
M  V30 9274 O 867.006 1.94358 -0.245336 0
M  V30 9275 H 865.586 0.132435 -0.735167 0
M  V30 9276 H 868.248 -0.371471 -1.91327 0
M  V30 9277 H 867.344 0.645203 -3.05358 0
M  V30 9278 N 867.645 1.57599 0.00500368 0
M  V30 9279 C 868.593 2.09223 1.01628 0
M  V30 9280 C 869.587 1.01113 1.35913 0
M  V30 9281 O 870.793 1.19583 1.34536 0
M  V30 9282 H 867.168 0.667999 0.345372 0
M  V30 9283 H 869.139 2.93188 0.555274 0
M  V30 9284 C 867.888 2.60674 2.30097 0
M  V30 9285 H 867.211 3.43491 2.04582 0
M  V30 9286 H 868.651 3.00479 2.99146 0
M  V30 9287 C 867.11 1.51862 3.00731 0
M  V30 9288 O 867.64 0.898651 3.91519 0
M  V30 9289 N 865.846 1.24729 2.62471 0
M  V30 9290 H 865.393 1.7533 1.88725 0
M  V30 9291 H 865.351 0.521437 3.10046 0
M  V30 9292 N 869.123 -0.277682 1.55134 0
M  V30 9293 C 870.369 -1.0114 1.7578 0
M  V30 9294 C 870.702 -1.86109 0.554719 0
M  V30 9295 O 869.977 -1.89275 -0.447813 0
M  V30 9296 C 870.26 -1.89789 3.06027 0
M  V30 9297 C 870.113 -1.07844 4.3668 0
M  V30 9298 C 871.432 -2.88577 3.32282 0
M  V30 9299 H 868.551 -0.366277 0.639539 0
M  V30 9300 H 871.193 -0.284155 1.87863 0
M  V30 9301 H 869.343 -2.51796 2.95856 0
M  V30 9302 H 871.015 -0.479432 4.58802 0
M  V30 9303 H 869.258 -0.381764 4.32117 0
M  V30 9304 H 869.929 -1.73179 5.24131 0
M  V30 9305 H 872.405 -2.36702 3.42215 0
M  V30 9306 H 871.281 -3.47749 4.2469 0
M  V30 9307 H 871.542 -3.63458 2.51696 0
M  V30 9308 N 870.601 -1.47988 -0.541979 0
M  V30 9309 C 871.549 -1.62044 -1.66867 0
M  V30 9310 C 872.543 -0.487217 -1.62242 0
M  V30 9311 O 873.749 -0.66554 -1.67244 0
M  V30 9312 H 870.124 -0.51024 -0.552412 0
M  V30 9313 H 872.095 -2.56695 -1.52153 0
M  V30 9314 C 870.844 -1.66615 -3.0518 0
M  V30 9315 H 870.167 -2.5317 -3.09427 0
M  V30 9316 H 871.607 -1.80496 -3.83663 0
M  V30 9317 C 870.066 -0.402421 -3.34488 0
M  V30 9318 O 870.596 0.48992 -3.98701 0
M  V30 9319 N 868.802 -0.277778 -2.89269 0
M  V30 9320 H 868.349 -1.00488 -2.37192 0
M  V30 9321 H 868.307 0.566784 -3.09249 0
M  V30 9322 N 872.079 0.78992 -1.36375 0
M  V30 9323 C 873.009 1.91683 -1.33341 0
M  V30 9324 C 873.99 1.68861 -0.204965 0
M  V30 9325 O 875.175 1.89982 -0.402531 0
M  V30 9326 C 872.305 3.28696 -1.12143 0
M  V30 9327 C 871.259 3.66041 -2.21806 0
M  V30 9328 C 870.585 5.01399 -1.85751 0
M  V30 9329 C 871.885 3.74677 -3.63888 0
M  V30 9330 H 873.579 1.94478 -2.27637 0
M  V30 9331 H 871.125 0.934271 -1.09578 0
M  V30 9332 H 873.078 4.07151 -1.08656 0
M  V30 9333 H 871.802 3.26287 -0.142974 0
M  V30 9334 H 870.461 2.89883 -2.24418 0
M  V30 9335 H 870.109 4.9551 -0.864817 0
M  V30 9336 H 869.809 5.27355 -2.59173 0
M  V30 9337 H 871.333 5.82274 -1.83819 0
M  V30 9338 H 872.747 4.43324 -3.63506 0
M  V30 9339 H 871.144 4.12118 -4.3621 0
M  V30 9340 H 872.214 2.75795 -3.9883 0
M  V30 9341 N 873.557 1.20646 1.01402 0
M  V30 9342 C 874.785 1.04389 1.78635 0
M  V30 9343 C 875.2 -0.406771 1.84366 0
M  V30 9344 O 874.557 -1.28239 1.2985 0
M  V30 9345 C 874.608 1.62378 3.22979 0
M  V30 9346 O 874.329 3.01768 3.17597 0
M  V30 9347 C 875.83 1.5111 4.1675 0
M  V30 9348 H 873.05 0.367077 0.56169 0
M  V30 9349 H 875.594 1.59789 1.27624 0
M  V30 9350 H 873.749 1.11092 3.7113 0
M  V30 9351 H 874.163 3.29331 4.08217 0
M  V30 9352 H 875.637 1.96441 5.15863 0
M  V30 9353 H 876.114 0.464011 4.36742 0
M  V30 9354 H 876.72 2.01599 3.74483 0
M  V30 9355 N 875.035 -1.20752 1.01276 0
M  V30 9356 C 875.965 -2.25658 0.600064 0
M  V30 9357 C 876.946 -1.65733 -0.38298 0
M  V30 9358 O 878.131 -1.92324 -0.269256 0
M  V30 9359 C 875.261 -3.47237 -0.0663197 0
M  V30 9360 C 874.215 -4.1973 0.83731 0
M  V30 9361 C 873.541 -5.34687 0.0369102 0
M  V30 9362 C 874.841 -4.76286 2.14357 0
M  V30 9363 H 876.535 -2.60432 1.477 0
M  V30 9364 H 874.081 -1.25187 0.711634 0
M  V30 9365 H 876.034 -4.19803 -0.366563 0
M  V30 9366 H 874.758 -3.11615 -0.977944 0
M  V30 9367 H 873.417 -3.49024 1.1215 0
M  V30 9368 H 873.065 -4.95309 -0.876244 0
M  V30 9369 H 872.765 -5.84119 0.63865 0
M  V30 9370 H 874.289 -6.10059 -0.256968 0
M  V30 9371 H 875.703 -5.40691 1.90595 0
M  V30 9372 H 874.1 -5.36139 2.69583 0
M  V30 9373 H 875.17 -3.9524 2.80916 0
M  V30 9374 N 876.513 -0.788492 -1.36457 0
M  V30 9375 C 877.445 -0.144208 -2.28746 0
M  V30 9376 C 878.458 0.646009 -1.49434 0
M  V30 9377 O 879.647 0.481344 -1.71888 0
M  V30 9378 C 876.747 0.818869 -3.28858 0
M  V30 9379 C 875.92 0.0789055 -4.37329 0
M  V30 9380 C 874.979 0.957791 -5.1741 0
M  V30 9381 O 874.005 0.415378 -5.67682 0
M  V30 9382 N 875.207 2.28216 -5.33758 0
M  V30 9383 H 877.972 -0.936949 -2.84678 0
M  V30 9384 H 875.533 -0.642317 -1.48613 0
M  V30 9385 H 877.525 1.41065 -3.79319 0
M  V30 9386 H 876.095 1.51249 -2.73573 0
M  V30 9387 H 875.315 -0.693939 -3.88044 0
M  V30 9388 H 876.603 -0.431753 -5.06965 0
M  V30 9389 H 876.001 2.747 -4.94527 0
M  V30 9390 H 874.558 2.8236 -5.87466 0
M  V30 9391 N 877.991 1.48044 -0.54043 0
M  V30 9392 C 878.924 2.26667 0.264083 0
M  V30 9393 C 879.902 1.32996 0.935456 0
M  V30 9394 O 881.086 1.62354 0.95778 0
M  V30 9395 C 878.213 3.09541 1.37485 0
M  V30 9396 C 877.259 4.18664 0.813792 0
M  V30 9397 S 878.092 5.34503 -0.326536 0
M  V30 9398 C 879.248 6.20939 0.786452 0
M  V30 9399 H 879.481 2.94554 -0.403129 0
M  V30 9400 H 877.014 1.5091 -0.326415 0
M  V30 9401 H 878.972 3.57863 2.01107 0
M  V30 9402 H 877.633 2.41048 2.01382 0
M  V30 9403 H 876.826 4.76316 1.6474 0
M  V30 9404 H 876.428 3.73136 0.254066 0
M  V30 9405 H 878.72 6.56273 1.68262 0
M  V30 9406 H 879.663 7.07667 0.247673 0
M  V30 9407 H 880.071 5.54236 1.07156 0
M  V30 9408 N 879.47 0.276058 1.55163 0
M  V30 9409 C 880.417 -0.611006 2.22565 0
M  V30 9410 C 881.387 -1.14902 1.19945 0
M  V30 9411 O 882.572 -1.19815 1.48489 0
M  V30 9412 C 879.712 -1.78885 2.95117 0
M  V30 9413 C 878.825 -1.2846 4.12458 0
M  V30 9414 C 877.96 -2.42432 4.72652 0
M  V30 9415 C 876.999 -1.89015 5.82185 0
M  V30 9416 N 876.136 -2.96463 6.36439 0
M  V30 9417 H 880.976 -0.0295849 2.97985 0
M  V30 9418 H 878.513 -0.00283607 1.471 0
M  V30 9419 H 880.471 -2.48121 3.35398 0
M  V30 9420 H 879.101 -2.34229 2.22119 0
M  V30 9421 H 878.153 -0.485312 3.77292 0
M  V30 9422 H 879.465 -0.853358 4.91446 0
M  V30 9423 H 878.619 -3.19659 5.15658 0
M  V30 9424 H 877.358 -2.88872 3.92943 0
M  V30 9425 H 876.363 -1.10267 5.38629 0
M  V30 9426 H 877.588 -1.43509 6.63763 0
M  V30 9427 H 875.534 -3.42283 5.59623 0
M  V30 9428 H 875.451 -2.57759 7.10701 0
M  V30 9429 H 876.719 -3.73663 6.84103 0
M  V30 9430 N 880.948 -1.576 0.00335426 0
M  V30 9431 C 882.197 -1.89892 -0.680001 0
M  V30 9432 C 882.51 -0.878731 -1.7475 0
M  V30 9433 O 883.716 -1.09199 -2.48572 0
M  V30 9434 C 882.172 -3.37098 -1.26066 0
M  V30 9435 C 881.78 -4.4742 -0.227807 0
M  V30 9436 C 883.524 -3.78495 -1.92202 0
M  V30 9437 C 881.431 -5.85706 -0.81865 0
M  V30 9438 H 880.361 -0.708578 -0.257746 0
M  V30 9439 H 883.012 -1.83387 0.0644472 0
M  V30 9440 H 881.394 -3.38451 -2.05589 0
M  V30 9441 H 882.568 -4.57589 0.54307 0
M  V30 9442 H 880.883 -4.15064 0.333297 0
M  V30 9443 H 883.48 -4.7915 -2.37318 0
M  V30 9444 H 883.823 -3.12187 -2.75399 0
M  V30 9445 H 884.356 -3.79456 -1.19408 0
M  V30 9446 H 881.095 -6.55495 -0.0253787 0
M  V30 9447 H 880.615 -5.79196 -1.55861 0
M  V30 9448 H 882.294 -6.33469 -1.31627 0
M  V30 9449 N 882.426 0.269451 -1.5528 0
M  V30 9450 C 883.675 0.998381 -1.75258 0
M  V30 9451 C 883.988 1.87321 -0.563034 0
M  V30 9452 O 885.194 2.63719 -0.645313 0
M  V30 9453 C 883.65 1.82505 -3.10193 0
M  V30 9454 C 883.258 0.99871 -4.36726 0
M  V30 9455 C 885.002 2.54807 -3.3952 0
M  V30 9456 C 882.909 1.81997 -5.627 0
M  V30 9457 H 881.839 0.376488 -0.653278 0
M  V30 9458 H 884.49 0.253909 -1.81735 0
M  V30 9459 H 882.872 2.61061 -2.97763 0
M  V30 9460 H 884.046 0.257064 -4.60082 0
M  V30 9461 H 882.361 0.390074 -4.14569 0
M  V30 9462 H 884.958 3.16662 -4.30847 0
M  V30 9463 H 885.301 3.25273 -2.59813 0
M  V30 9464 H 885.834 1.83278 -3.53064 0
M  V30 9465 H 882.573 1.15945 -6.45164 0
M  V30 9466 H 882.093 2.53749 -5.43481 0
M  V30 9467 H 883.772 2.39274 -6.0113 0
M  V30 9468 N 883.904 1.48273 0.534124 0
M  V30 9469 C 884.814 1.65162 1.66609 0
M  V30 9470 C 885.83 0.534177 1.65598 0
M  V30 9471 O 887.006 0.804715 1.84625 0
M  V30 9472 C 884.071 1.68354 3.03081 0
M  V30 9473 C 883.132 2.91696 3.1498 0
M  V30 9474 C 882.365 2.94725 4.44941 0
M  V30 9475 O 882.588 2.06285 5.31792 0
M  V30 9476 O 881.522 3.8685 4.61119 0
M  V30 9477 H 885.348 2.60991 1.55298 0
M  V30 9478 H 882.933 1.31626 0.706749 0
M  V30 9479 H 884.815 1.72998 3.84252 0
M  V30 9480 H 883.49 0.756978 3.14725 0
M  V30 9481 H 882.397 2.92586 2.33119 0
M  V30 9482 H 883.73 3.83722 3.0825 0
M  V30 9483 N 885.382 -0.782676 1.36792 0
M  V30 9484 C 886.314 -1.9044 1.27536 0
M  V30 9485 C 887.327 -1.61647 0.193426 0
M  V30 9486 O 888.516 -1.72769 0.448692 0
M  V30 9487 C 885.616 -3.2541 0.946641 0
M  V30 9488 C 884.789 -3.81932 2.13183 0
M  V30 9489 C 883.848 -4.95355 1.7751 0
M  V30 9490 O 882.874 -5.11517 2.49678 0
M  V30 9491 N 884.076 -5.76108 0.712755 0
M  V30 9492 H 886.841 -1.98899 2.24186 0
M  V30 9493 H 884.402 -0.96127 1.30274 0
M  V30 9494 H 886.394 -3.98791 0.689043 0
M  V30 9495 H 884.964 -3.12524 0.0690591 0
M  V30 9496 H 884.184 -3.00459 2.55183 0
M  V30 9497 H 885.472 -4.16426 2.92347 0
M  V30 9498 H 884.87 -5.65586 0.113662 0
M  V30 9499 H 883.427 -6.49762 0.514995 0
M  V30 9500 N 886.86 -1.21182 -1.00761 0
M  V30 9501 C 887.77 -0.984691 -2.12934 0
M  V30 9502 C 888.786 0.0623657 -1.73888 0
M  V30 9503 O 889.962 -0.1271 -2.00999 0
M  V30 9504 C 887.027 -0.549447 -3.42319 0
M  V30 9505 C 886.088 -1.66841 -3.95553 0
M  V30 9506 C 885.321 -1.25384 -5.18763 0
M  V30 9507 O 885.544 -0.126333 -5.7026 0
M  V30 9508 O 884.478 -2.06475 -5.65377 0
M  V30 9509 H 888.304 -1.92413 -2.3497 0
M  V30 9510 H 885.889 -0.99647 -1.11314 0
M  V30 9511 H 887.771 -0.316384 -4.20211 0
M  V30 9512 H 886.446 0.361304 -3.21677 0
M  V30 9513 H 885.353 -1.95585 -3.189 0
M  V30 9514 H 886.686 -2.55649 -4.206 0
M  V30 9515 N 888.338 1.20213 -1.01915 0
M  V30 9516 C 889.285 2.2309 -0.591571 0
M  V30 9517 C 890.255 1.61465 0.389649 0
M  V30 9518 O 891.44 1.88606 0.288511 0
M  V30 9519 C 888.58 3.45045 0.0614028 0
M  V30 9520 C 887.693 4.21091 -0.964688 0
M  V30 9521 C 886.828 5.30448 -0.282499 0
M  V30 9522 C 885.867 5.98241 -1.29517 0
M  V30 9523 N 885.004 6.99182 -0.639472 0
M  V30 9524 H 889.844 2.59023 -1.47347 0
M  V30 9525 H 887.381 1.27274 -0.737547 0
M  V30 9526 H 889.339 4.14688 0.45714 0
M  V30 9527 H 887.969 3.09797 0.906937 0
M  V30 9528 H 887.021 3.50489 -1.47857 0
M  V30 9529 H 888.333 4.67662 -1.73475 0
M  V30 9530 H 887.487 6.06466 0.168603 0
M  V30 9531 H 886.226 4.84922 0.519843 0
M  V30 9532 H 885.231 5.20982 -1.75663 0
M  V30 9533 H 886.456 6.45853 -2.09884 0
M  V30 9534 H 884.402 6.55844 0.142955 0
M  V30 9535 H 884.319 7.43893 -1.34756 0
M  V30 9536 H 885.587 7.79212 -0.212047 0
M  V30 9537 N 889.816 0.795718 1.36037 0
M  V30 9538 C 890.726 0.199784 2.33748 0
M  V30 9539 C 891.742 -0.651436 1.61345 0
M  V30 9540 O 892.918 -0.565743 1.93291 0
M  V30 9541 C 889.983 -0.650475 3.40543 0
M  V30 9542 C 889.044 0.219974 4.28736 0
M  V30 9543 C 888.277 -0.589798 5.30431 0
M  V30 9544 O 888.5 -1.82532 5.40406 0
M  V30 9545 O 887.434 0.0136187 6.01898 0
M  V30 9546 H 891.26 1.00782 2.8649 0
M  V30 9547 H 888.845 0.557293 1.38617 0
M  V30 9548 H 890.727 -1.13512 4.05824 0
M  V30 9549 H 889.402 -1.4363 2.9009 0
M  V30 9550 H 888.309 0.751516 3.66474 0
M  V30 9551 H 889.642 0.969468 4.82558 0
M  V30 9552 N 891.294 -1.47756 0.548274 0
M  V30 9553 C 892.543 -2.01691 0.0187961 0
M  V30 9554 C 892.856 -1.42894 -1.33569 0
M  V30 9555 O 894.062 -1.88438 -1.95457 0
M  V30 9556 C 892.518 -3.59896 -0.016847 0
M  V30 9557 C 892.126 -4.27683 1.33385 0
M  V30 9558 C 893.87 -4.21614 -0.494188 0
M  V30 9559 C 891.777 -5.7787 1.2578 0
M  V30 9560 H 890.707 -0.753993 0.00325648 0
M  V30 9561 H 893.358 -1.69838 0.694792 0
M  V30 9562 H 891.74 -3.88672 -0.758304 0
M  V30 9563 H 892.914 -4.10559 2.09232 0
M  V30 9564 H 891.229 -3.77915 1.7484 0
M  V30 9565 H 893.826 -5.3166 -0.569342 0
M  V30 9566 H 894.169 -3.88176 -1.50417 0
M  V30 9567 H 894.702 -3.97336 0.192138 0
M  V30 9568 H 891.441 -6.15912 2.2435 0
M  V30 9569 H 890.961 -5.97355 0.540997 0
M  V30 9570 H 892.64 -6.39897 0.956109 0
M  V30 9571 N 892.772 -0.284283 -1.55015 0
M  V30 9572 C 893.735 0.586182 -2.21577 0
M  V30 9573 C 894.735 1.07427 -1.1965 0
M  V30 9574 O 895.925 0.972977 -1.44495 0
M  V30 9575 C 893.057 1.80973 -2.88897 0
M  V30 9576 H 894.25 0.00487253 -2.999 0
M  V30 9577 H 891.803 -0.0349696 -1.56261 0
M  V30 9578 H 892.538 2.43131 -2.14611 0
M  V30 9579 H 892.323 1.46757 -3.636 0
M  V30 9580 H 893.813 2.42853 -3.39724 0
M  V30 9581 N 894.251 1.57596 -0.0117121 0
M  V30 9582 C 895.161 2.12596 0.991964 0
M  V30 9583 C 896.177 1.07399 1.36899 0
M  V30 9584 O 897.353 1.39365 1.45394 0
M  V30 9585 C 894.418 2.62796 2.2614 0
M  V30 9586 C 893.479 3.8264 1.94642 0
M  V30 9587 C 892.712 4.30435 3.15533 0
M  V30 9588 O 892.935 3.77495 4.27614 0
M  V30 9589 O 891.869 5.22469 2.98847 0
M  V30 9590 H 895.695 2.98597 0.554371 0
M  V30 9591 H 893.28 1.47947 0.207839 0
M  V30 9592 H 895.162 2.9523 3.00695 0
M  V30 9593 H 893.837 1.79886 2.69114 0
M  V30 9594 H 892.744 3.5516 1.17526 0
M  V30 9595 H 894.077 4.66658 1.56496 0
M  V30 9596 N 895.729 -0.261212 1.5542 0
M  V30 9597 C 896.659 -1.32712 1.92119 0
M  V30 9598 C 897.64 -1.50934 0.784406 0
M  V30 9599 O 898.825 -1.63781 1.04352 0
M  V30 9600 C 895.955 -2.68453 2.20341 0
M  V30 9601 C 894.909 -2.64947 3.36136 0
M  V30 9602 C 894.235 -4.04349 3.49865 0
M  V30 9603 C 895.535 -2.23182 4.72215 0
M  V30 9604 H 897.229 -1.02245 2.81401 0
M  V30 9605 H 894.775 -0.490406 1.35392 0
M  V30 9606 H 896.728 -3.43144 2.44603 0
M  V30 9607 H 895.452 -3.00527 1.27871 0
M  V30 9608 H 894.111 -1.92714 3.11861 0
M  V30 9609 H 893.759 -4.33665 2.5484 0
M  V30 9610 H 893.459 -4.02895 4.27726 0
M  V30 9611 H 894.983 -4.80761 3.76432 0
M  V30 9612 H 896.397 -2.87599 4.95943 0
M  V30 9613 H 894.794 -2.32867 5.53076 0
M  V30 9614 H 895.864 -1.18327 4.70241 0
M  V30 9615 N 897.207 -1.48554 -0.526253 0
M  V30 9616 C 898.154 -1.63354 -1.63046 0
M  V30 9617 C 899.124 -0.475509 -1.59148 0
M  V30 9618 O 900.309 -0.699453 -1.77517 0
M  V30 9619 C 897.449 -1.68271 -3.01295 0
M  V30 9620 C 896.562 -2.95207 -3.15399 0
M  V30 9621 C 895.697 -2.91262 -4.4423 0
M  V30 9622 C 894.736 -4.12886 -4.51876 0
M  V30 9623 N 893.873 -4.06996 -5.721 0
M  V30 9624 H 898.713 -2.57649 -1.49737 0
M  V30 9625 H 896.25 -1.27769 -0.728938 0
M  V30 9626 H 898.208 -1.69104 -3.81392 0
M  V30 9627 H 896.838 -0.774641 -3.13367 0
M  V30 9628 H 895.89 -3.04102 -2.2853 0
M  V30 9629 H 897.202 -3.85187 -3.1691 0
M  V30 9630 H 896.356 -2.90516 -5.32621 0
M  V30 9631 H 895.095 -1.99016 -4.45246 0
M  V30 9632 H 894.1 -4.13902 -3.61891 0
M  V30 9633 H 895.325 -5.06294 -4.52596 0
M  V30 9634 H 893.271 -3.17573 -5.74006 0
M  V30 9635 H 893.188 -4.90685 -5.75121 0
M  V30 9636 H 894.456 -4.10315 -6.62768 0
M  V30 9637 N 898.685 0.775411 -1.37205 0
M  V30 9638 C 899.632 1.88857 -1.32671 0
M  V30 9639 C 900.602 1.64976 -0.192899 0
M  V30 9640 O 901.787 1.86944 -0.381673 0
M  V30 9641 C 898.927 3.25871 -1.13588 0
M  V30 9642 C 898.04 3.61731 -2.36167 0
M  V30 9643 C 897.175 4.87934 -2.09985 0
M  V30 9644 C 896.214 5.16514 -3.2845 0
M  V30 9645 N 895.351 6.33905 -3.01842 0
M  V30 9646 H 900.191 1.92068 -2.27846 0
M  V30 9647 H 897.728 0.939066 -1.13225 0
M  V30 9648 H 899.686 4.04903 -1.00546 0
M  V30 9649 H 898.316 3.22045 -0.220613 0
M  V30 9650 H 897.368 2.77712 -2.59962 0
M  V30 9651 H 898.68 3.78792 -3.24528 0
M  V30 9652 H 897.834 5.74863 -1.93953 0
M  V30 9653 H 896.573 4.7297 -1.18956 0
M  V30 9654 H 895.578 4.28063 -3.45025 0
M  V30 9655 H 896.803 5.33389 -4.20325 0
M  V30 9656 H 894.749 6.20306 -2.13439 0
M  V30 9657 H 894.666 6.51364 -3.83746 0
M  V30 9658 H 895.934 7.23779 -2.8942 0
M  V30 9659 N 900.163 1.21714 1.00117 0
M  V30 9660 C 901.095 0.937627 2.09144 0
M  V30 9661 C 902.108 -0.0806291 1.626 0
M  V30 9662 O 903.297 0.152348 1.77849 0
M  V30 9663 C 900.397 0.387036 3.36683 0
M  V30 9664 C 899.57 1.46054 4.12295 0
M  V30 9665 C 898.629 0.918505 5.18122 0
M  V30 9666 O 897.655 1.60282 5.46167 0
M  V30 9667 N 898.857 -0.264308 5.79898 0
M  V30 9668 H 901.622 1.87622 2.33705 0
M  V30 9669 H 899.183 1.12291 1.16629 0
M  V30 9670 H 901.175 0.00992825 4.04699 0
M  V30 9671 H 899.745 -0.456467 3.09249 0
M  V30 9672 H 898.965 2.01133 3.39027 0
M  V30 9673 H 900.253 2.18306 4.59587 0
M  V30 9674 H 899.651 -0.837242 5.5947 0
M  V30 9675 H 898.208 -0.582886 6.49188 0
M  V30 9676 N 901.641 -1.19671 1.02551 0
M  V30 9677 C 902.571 -2.25009 0.623965 0
M  V30 9678 C 903.552 -1.66129 -0.36538 0
M  V30 9679 O 904.737 -1.92599 -0.248842 0
M  V30 9680 C 901.867 -3.47287 -0.0294869 0
M  V30 9681 C 900.821 -4.18818 0.881781 0
M  V30 9682 C 900.147 -5.34618 0.0936189 0
M  V30 9683 C 901.447 -4.73986 2.19396 0
M  V30 9684 H 903.141 -2.58851 1.50454 0
M  V30 9685 H 900.687 -1.24425 0.724872 0
M  V30 9686 H 902.64 -4.20168 -0.322016 0
M  V30 9687 H 901.364 -3.12635 -0.944838 0
M  V30 9688 H 900.023 -3.47815 1.15845 0
M  V30 9689 H 899.671 -4.9621 -0.823661 0
M  V30 9690 H 899.371 -5.83409 0.700568 0
M  V30 9691 H 900.895 -6.10297 -0.192249 0
M  V30 9692 H 902.309 -5.38639 1.96319 0
M  V30 9693 H 900.706 -5.3325 2.75254 0
M  V30 9694 H 901.776 -3.92238 2.85092 0
M  V30 9695 N 903.119 -0.802921 -1.35613 0
M  V30 9696 C 904.067 -0.198783 -2.31749 0
M  V30 9697 C 905.061 0.649416 -1.56458 0
M  V30 9698 O 906.267 0.542989 -1.71615 0
M  V30 9699 H 902.642 -0.0455177 -0.750621 0
M  V30 9700 H 904.613 -1.02479 -2.80251 0
M  V30 9701 C 903.362 0.641066 -3.41739 0
M  V30 9702 H 902.685 -0.00226244 -3.998 0
M  V30 9703 H 904.125 1.03022 -4.11294 0
M  V30 9704 C 902.584 1.80505 -2.84464 0
M  V30 9705 O 903.114 2.90235 -2.77717 0
M  V30 9706 N 901.32 1.61542 -2.41563 0
M  V30 9707 H 900.867 0.722863 -2.4725 0
M  V30 9708 H 900.825 2.39581 -2.03589 0
M  V30 9709 N 904.597 1.47463 -0.556102 0
M  V30 9710 C 905.527 2.32801 0.180497 0
M  V30 9711 C 906.508 1.43721 0.909848 0
M  V30 9712 O 907.693 1.72578 0.89053 0
M  V30 9713 C 904.823 3.25478 1.21167 0
M  V30 9714 C 903.777 4.2379 0.598846 0
M  V30 9715 C 903.103 5.05783 1.73457 0
M  V30 9716 C 904.403 5.20387 -0.446659 0
M  V30 9717 H 906.097 2.94636 -0.531956 0
M  V30 9718 H 903.643 1.41683 -0.257267 0
M  V30 9719 H 905.596 3.8402 1.73513 0
M  V30 9720 H 904.32 2.61695 1.95405 0
M  V30 9721 H 902.979 3.66472 0.0966897 0
M  V30 9722 H 902.627 4.38405 2.46596 0
M  V30 9723 H 902.327 5.72343 1.33031 0
M  V30 9724 H 903.851 5.67183 2.26131 0
M  V30 9725 H 905.265 5.73299 -0.00930019 0
M  V30 9726 H 903.662 5.95143 -0.769735 0
M  V30 9727 H 904.732 4.65932 -1.34295 0
M  V30 9728 N 906.075 0.2925 1.54862 0
M  V30 9729 C 907.005 -0.580677 2.26165 0
M  V30 9730 C 907.986 -1.14485 1.25806 0
M  V30 9731 O 909.171 -1.17577 1.54562 0
M  V30 9732 C 906.301 -1.75668 2.99596 0
M  V30 9733 C 905.255 -1.32325 4.07031 0
M  V30 9734 C 904.581 -2.58374 4.68131 0
M  V30 9735 C 905.881 -0.460703 5.20264 0
M  V30 9736 H 907.575 0.0140075 2.99397 0
M  V30 9737 H 905.121 0.00817706 1.43998 0
M  V30 9738 H 907.074 -2.37356 3.48195 0
M  V30 9739 H 905.798 -2.37747 2.23928 0
M  V30 9740 H 904.457 -0.729477 3.59269 0
M  V30 9741 H 904.105 -3.18749 3.89112 0
M  V30 9742 H 903.805 -2.30078 5.40683 0
M  V30 9743 H 905.329 -3.2088 5.19489 0
M  V30 9744 H 906.743 -0.983037 5.64809 0
M  V30 9745 H 905.14 -0.271881 5.99484 0
M  V30 9746 H 906.21 0.516304 4.82143 0
M  V30 9747 N 907.553 -1.57587 0.0200696 0
M  V30 9748 C 908.778 -1.96124 -0.674547 0
M  V30 9749 C 909.203 -0.896068 -1.65385 0
M  V30 9750 O 908.561 0.143925 -1.80728 0
M  V30 9751 C 908.609 -3.3376 -1.36517 0
M  V30 9752 O 907.713 -3.29483 -2.48022 0
M  V30 9753 H 907.054 -0.639719 -0.177919 0
M  V30 9754 H 909.584 -2.04447 0.0792317 0
M  V30 9755 H 909.594 -3.69785 -1.72403 0
M  V30 9756 H 908.269 -4.10832 -0.647265 0
M  V30 9757 H 906.846 -3.05162 -2.14314 0
M  V30 9758 N 909.032 0.252966 -1.55557 0
M  V30 9759 C 909.964 1.33585 -1.86246 0
M  V30 9760 C 910.977 1.44584 -0.748291 0
M  V30 9761 O 912.166 1.46042 -1.02635 0
M  V30 9762 C 909.266 2.71509 -2.02821 0
M  V30 9763 C 908.439 2.82853 -3.33636 0
M  V30 9764 C 907.498 4.01581 -3.40028 0
M  V30 9765 O 906.524 3.91394 -4.13278 0
M  V30 9766 N 907.726 5.14474 -2.6888 0
M  V30 9767 H 910.491 1.07596 -2.7972 0
M  V30 9768 H 908.052 0.443075 -1.55719 0
M  V30 9769 H 910.044 3.49262 -2.04445 0
M  V30 9770 H 908.614 2.90232 -1.1612 0
M  V30 9771 H 907.834 1.91823 -3.4438 0
M  V30 9772 H 909.122 2.87378 -4.19871 0
M  V30 9773 H 908.52 5.25641 -2.09087 0
M  V30 9774 H 907.077 5.90385 -2.76204 0
M  V30 9775 N 910.51 1.48831 0.518367 0
M  V30 9776 C 911.787 1.47933 1.27966 0
M  V30 9777 C 912.167 0.197393 2.10175 0
M  V30 9778 O 911.515 -0.820656 2.13255 0
M  V30 9779 C 911.725 2.74816 2.15121 0
M  V30 9780 C 913.073 3.23613 2.74881 0
M  V30 9781 O 914.097 2.75814 2.254 0
M  V30 9782 O 912.956 4.06818 3.64913 0
M  V30 9783 H 910.05 0.591316 0.578164 0
M  V30 9784 H 912.596 1.61077 0.534065 0
M  V30 9785 H 911.368 3.59621 1.54234 0
M  V30 9786 H 910.991 2.64449 2.96905 0
M  V30 9787 N 911.988 -0.768124 1.37614 0
M  V30 9788 C 912.935 -1.88151 1.33671 0
M  V30 9789 C 913.905 -1.64871 0.201645 0
M  V30 9790 O 915.09 -1.86739 0.391582 0
M  V30 9791 C 912.23 -3.25264 1.15314 0
M  V30 9792 C 911.343 -3.60473 2.38082 0
M  V30 9793 C 910.478 -4.86814 2.12569 0
M  V30 9794 C 909.517 -5.14765 3.31184 0
M  V30 9795 N 908.654 -6.32295 3.052 0
M  V30 9796 H 913.494 -1.90857 2.28862 0
M  V30 9797 H 911.031 -0.933048 1.13722 0
M  V30 9798 H 912.989 -4.04364 1.02691 0
M  V30 9799 H 911.619 -3.21924 0.237689 0
M  V30 9800 H 910.671 -2.7633 2.61431 0
M  V30 9801 H 911.983 -3.77065 3.26532 0
M  V30 9802 H 911.137 -5.73826 1.96999 0
M  V30 9803 H 909.876 -4.72333 1.21462 0
M  V30 9804 H 908.881 -4.26227 3.4729 0
M  V30 9805 H 910.106 -5.31153 4.23147 0
M  V30 9806 H 908.052 -6.19166 2.16726 0
M  V30 9807 H 907.969 -6.4932 3.87195 0
M  V30 9808 H 909.237 -7.22234 2.93254 0
M  V30 9809 N 913.466 -1.22244 -0.994698 0
M  V30 9810 C 914.714 -1.04384 -1.73056 0
M  V30 9811 C 915.035 0.422204 -1.90374 0
M  V30 9812 O 914.305 1.30383 -1.46209 0
M  V30 9813 H 912.885 -0.383263 -0.641185 0
M  V30 9814 H 915.547 -1.53725 -1.1981 0
M  V30 9815 H 914.643 -1.52021 -2.72573 0
M  V30 9816 N 914.944 1.19125 -1.03184 0
M  V30 9817 C 916.19 1.89163 -0.731111 0
M  V30 9818 C 916.523 1.79604 0.738662 0
M  V30 9819 O 915.798 1.19037 1.53819 0
M  V30 9820 C 916.081 3.39986 -1.18666 0
M  V30 9821 C 915.934 3.58401 -2.71788 0
M  V30 9822 C 917.253 4.33316 -0.769772 0
M  V30 9823 H 914.372 0.686908 -0.267069 0
M  V30 9824 H 917.014 1.40205 -1.28229 0
M  V30 9825 H 915.164 3.81813 -0.717736 0
M  V30 9826 H 916.836 3.25727 -3.26649 0
M  V30 9827 H 915.079 3.01355 -3.12038 0
M  V30 9828 H 915.75 4.64189 -2.98719 0
M  V30 9829 H 918.226 3.9922 -1.17314 0
M  V30 9830 H 917.102 5.37427 -1.11637 0
M  V30 9831 H 917.363 4.40884 0.327681 0
M  V30 9832 N 916.422 0.810101 1.35185 0
M  V30 9833 C 917.838 0.494269 1.51754 0
M  V30 9834 C 918.038 -0.983907 1.75845 0
M  V30 9835 O 917.094 -1.76882 1.80191 0
M  V30 9836 C 918.407 1.34268 2.69059 0
M  V30 9837 C 919.955 1.33848 2.82938 0
M  V30 9838 C 920.43 2.17109 4.03271 0
M  V30 9839 N 921.921 2.14664 4.10456 0
M  V30 9840 C 922.656 2.75843 5.02691 0
M  V30 9841 N 922.152 3.45962 6.00235 0
M  V30 9842 N 923.945 2.65465 4.95464 0
M  V30 9843 H 916.096 1.76736 1.17805 0
M  V30 9844 H 918.359 0.752429 0.576676 0
M  V30 9845 H 918.065 2.39183 2.57845 0
M  V30 9846 H 917.939 0.998362 3.63748 0
M  V30 9847 H 920.326 0.29716 2.936 0
M  V30 9848 H 920.407 1.72269 1.89095 0
M  V30 9849 H 920.051 3.21283 3.93369 0
M  V30 9850 H 919.981 1.76046 4.96302 0
M  V30 9851 H 922.472 1.63648 3.40628 0
M  V30 9852 H 922.785 3.89922 6.67219 0
M  V30 9853 H 921.13 3.50067 6.00398 0
M  V30 9854 H 924.321 2.1027 4.18215 0
M  V30 9855 H 924.494 3.13433 5.67154 0
M  V30 9856 N 917.9 -1.47166 0.563914 0
M  V30 9857 C 919.177 -1.95586 -0.0236172 0
M  V30 9858 C 919.557 -1.50655 -1.47872 0
M  V30 9859 O 918.905 -0.748479 -2.15894 0
M  V30 9860 C 919.115 -3.48762 0.128841 0
M  V30 9861 C 920.463 -4.24598 -0.0130544 0
M  V30 9862 O 921.487 -3.56155 0.0567242 0
M  V30 9863 O 920.346 -5.46253 -0.164332 0
M  V30 9864 H 917.44 -0.824793 -0.0603789 0
M  V30 9865 H 919.986 -1.57536 0.63091 0
M  V30 9866 H 918.758 -3.74291 1.14113 0
M  V30 9867 H 918.381 -3.93594 -0.56299 0
M  V30 9868 N 919.378 -0.300708 -1.54705 0
M  V30 9869 C 920.655 0.361757 -1.92226 0
M  V30 9870 C 921.035 1.71714 -1.2279 0
M  V30 9871 O 920.383 2.2559 -0.363542 0
M  V30 9872 C 920.593 0.476699 -3.45729 0
M  V30 9873 C 921.941 0.7477 -4.17965 0
M  V30 9874 O 922.965 0.560521 -3.51762 0
M  V30 9875 O 921.824 1.10724 -5.35166 0
M  V30 9876 H 918.918 0.202213 -0.801897 0
M  V30 9877 H 921.464 -0.348746 -1.66078 0
M  V30 9878 H 920.236 -0.476132 -3.88392 0
M  V30 9879 H 919.859 1.23568 -3.77911 0
M  V30 9880 N 920.856 1.57574 -0.0284266 0
M  V30 9881 C 922.104 1.91393 0.649079 0
M  V30 9882 C 922.425 0.905368 1.72708 0
M  V30 9883 O 921.695 -0.0532107 1.95828 0
M  V30 9884 H 920.275 0.70646 0.24274 0
M  V30 9885 H 922.937 1.94752 -0.076066 0
M  V30 9886 H 922.033 2.91988 1.10226 0
M  V30 9887 N 922.334 -0.244713 1.55689 0
M  V30 9888 C 923.281 -1.30301 1.905 0
M  V30 9889 C 924.251 -1.4772 0.759478 0
M  V30 9890 O 925.436 -1.61667 1.01333 0
M  V30 9891 C 922.576 -2.653 2.20703 0
M  V30 9892 C 921.689 -2.55872 3.48071 0
M  V30 9893 C 920.824 -3.83238 3.67834 0
M  V30 9894 C 919.863 -3.68436 4.88796 0
M  V30 9895 N 919 -4.877 5.05068 0
M  V30 9896 H 923.84 -0.999143 2.80751 0
M  V30 9897 H 921.377 -0.482099 1.38976 0
M  V30 9898 H 923.335 -3.43884 2.36219 0
M  V30 9899 H 921.965 -2.93831 1.33653 0
M  V30 9900 H 921.017 -1.68846 3.40874 0
M  V30 9901 H 922.329 -2.40845 4.36801 0
M  V30 9902 H 921.483 -4.70266 3.83321 0
M  V30 9903 H 920.222 -4.01165 2.77341 0
M  V30 9904 H 919.227 -2.79793 4.73282 0
M  V30 9905 H 920.452 -3.52003 5.8075 0
M  V30 9906 H 918.398 -5.05983 4.17513 0
M  V30 9907 H 918.315 -4.75312 5.8789 0
M  V30 9908 H 919.583 -5.76219 5.24969 0
M  V30 9909 N 923.813 -1.49104 -0.510467 0
M  V30 9910 C 925.09 -1.48609 -1.27179 0
M  V30 9911 C 925.47 -0.208537 -2.10067 0
M  V30 9912 O 924.818 0.809335 -2.13687 0
M  V30 9913 C 925.028 -2.75953 -2.1366 0
M  V30 9914 C 926.376 -3.25067 -2.73161 0
M  V30 9915 O 927.4 -2.77005 -2.23934 0
M  V30 9916 O 926.259 -4.08747 -3.62751 0
M  V30 9917 H 923.353 -0.594374 -0.57502 0
M  V30 9918 H 925.899 -1.61358 -0.525515 0
M  V30 9919 H 924.671 -3.60434 -1.52325 0
M  V30 9920 H 924.294 -2.66019 -2.95499 0
M  V30 9921 N 925.291 0.760815 -1.38019 0
M  V30 9922 C 926.539 1.51673 -1.33566 0
M  V30 9923 C 926.86 1.94852 0.076024 0
M  V30 9924 O 926.13 1.67112 1.02227 0
M  V30 9925 H 924.71 0.562581 -0.491438 0
M  V30 9926 H 927.372 0.904832 -1.72623 0
M  V30 9927 H 926.468 2.41102 -1.98182 0
M  V30 9928 N 926.769 1.22769 0.988202 0
M  V30 9929 C 928.017 1.05301 1.725 0
M  V30 9930 C 928.338 -0.412103 1.90596 0
M  V30 9931 O 927.608 -1.29606 1.46898 0
M  V30 9932 H 926.188 0.386658 0.639144 0
M  V30 9933 H 928.85 1.54359 1.18993 0
M  V30 9934 H 927.946 1.53465 2.71763 0
M  V30 9935 N 928.247 -1.18576 1.03814 0
M  V30 9936 C 929.493 -1.88773 0.741132 0
M  V30 9937 C 929.826 -1.79993 -0.729127 0
M  V30 9938 O 929.101 -1.19851 -1.53186 0
M  V30 9939 C 929.384 -3.39352 1.20468 0
M  V30 9940 C 929.237 -3.56955 2.73684 0
M  V30 9941 C 930.556 -4.32901 0.792741 0
M  V30 9942 H 927.675 -0.685482 0.270708 0
M  V30 9943 H 930.317 -1.39523 1.2897 0
M  V30 9944 H 928.467 -3.81427 0.737974 0
M  V30 9945 H 930.139 -3.2399 3.28372 0
M  V30 9946 H 928.382 -2.99696 3.13632 0
M  V30 9947 H 929.053 -4.62598 3.01176 0
M  V30 9948 H 931.529 -3.98592 1.1943 0
M  V30 9949 H 930.405 -5.36828 1.14486 0
M  V30 9950 H 930.666 -4.41052 -0.304295 0
M  V30 9951 N 929.725 -0.817259 -1.34754 0
M  V30 9952 C 930.973 -0.401852 -1.98065 0
M  V30 9953 C 931.294 1.03718 -1.65129 0
M  V30 9954 O 930.564 1.71921 -0.939141 0
M  V30 9955 H 929.144 -0.145603 -0.732672 0
M  V30 9956 H 931.806 -1.04545 -1.64488 0
M  V30 9957 H 930.902 -0.516241 -3.07801 0
M  V30 9958 O 931.242 1.44929 -0.712586 0
M  V30 9959 H 931.933 1.9199 -0.256802 0
M  V30 END ATOM
M  V30 BEGIN BOND
M  V30 END BOND
M  V30 END CTAB
M  END
$$$$
