drugbank_target|P20132 L-serine dehydratase/L-threonine deaminase (DB00114; DB00133)
 OpenBabel12092119253D

  0  0  0     0  0            999 V3000
M  V30 BEGIN CTAB
M  V30 COUNTS 4941 4990 0 0 0
M  V30 BEGIN ATOM
M  V30 1 H -0.908 1.98254 -0.117106 0
M  V30 2 N 0 1.576 0 0
M  V30 3 C 0.933 2.03868 1.02534 0
M  V30 4 C 1.911 0.928543 1.3348 0
M  V30 5 O 3.095 1.19667 1.45644 0
M  V30 6 C 0.222 2.43627 2.35294 0
M  V30 7 C -0.732 3.65373 2.2001 0
M  V30 8 S 0.101 5.13292 1.52614 0
M  V30 9 C 1.257 5.56322 2.86805 0
M  V30 10 H 1.49 2.90518 0.631377 0
M  V30 11 H -0.977 1.52953 0.210867 0
M  V30 12 H 0.981 2.67203 3.11629 0
M  V30 13 H -0.358 1.57376 2.7183 0
M  V30 14 H -1.165 3.90944 3.18086 0
M  V30 15 H -1.563 3.418 1.51819 0
M  V30 16 H 0.729 5.58782 3.83104 0
M  V30 17 H 1.672 6.56266 2.65933 0
M  V30 18 H 2.08 4.83886 2.90714 0
M  V30 19 N 1.4781 -0.272755 1.55222 0
M  V30 20 C 2.4111 -1.3627 1.83046 0
M  V30 21 C 3.3891 -1.47536 0.683521 0
M  V30 22 O 4.5731 -1.64157 0.926545 0
M  V30 23 C 1.7001 -2.73908 1.99229 0
M  V30 24 C 0.7461 -2.79925 3.21783 0
M  V30 25 S 1.5791 -2.39146 4.79134 0
M  V30 26 C 2.7351 -3.78758 4.9829 0
M  V30 27 H 2.9681 -1.12464 2.75207 0
M  V30 28 H 0.5011 -0.472398 1.46996 0
M  V30 29 H 2.4591 -3.53171 2.09238 0
M  V30 30 H 1.1201 -2.94965 1.07956 0
M  V30 31 H 0.3131 -3.80946 3.29994 0
M  V30 32 H -0.0849 -2.08683 3.10367 0
M  V30 33 H 2.2071 -4.7403 4.84047 0
M  V30 34 H 3.1501 -3.75499 6.00338 0
M  V30 35 H 3.5581 -3.70072 4.26271 0
M  V30 36 N 2.9562 -1.48159 -0.537278 0
M  V30 37 C 4.1812 -1.59707 -1.32319 0
M  V30 38 C 4.6062 -0.254859 -1.86365 0
M  V30 39 O 3.9642 0.772378 -1.64024 0
M  V30 40 C 4.0122 -2.6412 -2.45505 0
M  V30 41 O 3.1162 -2.20774 -3.48328 0
M  V30 42 H 2.4572 -0.535791 -0.392204 0
M  V30 43 H 4.9872 -1.94092 -0.647268 0
M  V30 44 H 4.9972 -2.85166 -2.91795 0
M  V30 45 H 3.6722 -3.61567 -2.05528 0
M  V30 46 H 2.2492 -2.09911 -3.08207 0
M  V30 47 N 4.4343 0.785586 -1.36625 0
M  V30 48 C 5.6823 1.54057 -1.30808 0
M  V30 49 C 6.0033 1.94683 0.111157 0
M  V30 50 O 5.2733 1.65241 1.05224 0
M  V30 51 H 3.8533 0.571354 -0.481211 0
M  V30 52 H 6.5153 0.935821 -1.70963 0
M  V30 53 H 5.6113 2.44637 -1.93801 0
M  V30 54 N 5.9124 1.20967 1.01018 0
M  V30 55 C 6.8224 0.980157 2.13143 0
M  V30 56 C 7.8384 -0.0660665 1.73875 0
M  V30 57 O 9.0144 0.122821 2.01025 0
M  V30 58 C 6.0794 0.54216 3.42435 0
M  V30 59 C 5.1404 1.65999 3.95908 0
M  V30 60 C 4.3734 1.2428 5.19028 0
M  V30 61 O 4.5964 0.114196 5.70286 0
M  V30 62 O 3.5304 2.05271 5.65816 0
M  V30 63 H 7.3564 1.91913 2.35379 0
M  V30 64 H 4.9414 0.994099 1.11526 0
M  V30 65 H 6.8234 0.30744 4.20277 0
M  V30 66 H 5.4984 -0.36815 3.216 0
M  V30 67 H 4.4054 1.94906 3.19316 0
M  V30 68 H 5.7384 2.54753 4.21143 0
M  V30 69 N 7.3905 -1.2043 1.01659 0
M  V30 70 C 8.8015 -1.71517 0.737482 0
M  V30 71 C 9.1525 -1.81547 -0.743973 0
M  V30 72 O 8.2775 -1.47803 -1.58061 0
M  V30 73 C 8.8725 -3.11515 1.33206 0
M  V30 74 C 7.4315 -3.59912 1.10183 0
M  V30 75 C 6.5785 -2.37116 1.43776 0
M  V30 76 H 9.5295 -1.05444 1.18606 0
M  V30 77 H 9.5505 -3.73575 0.722636 0
M  V30 78 H 9.0625 -3.04182 2.41028 0
M  V30 79 H 7.1635 -3.72577 0.0412756 0
M  V30 80 H 7.2765 -4.44731 1.78188 0
M  V30 81 H 5.6405 -2.39857 0.856778 0
M  V30 82 H 6.4235 -2.32424 2.52654 0
M  V30 83 N 8.8686 -0.792821 -1.36206 0
M  V30 84 C 9.7986 -0.207853 -2.32573 0
M  V30 85 C 10.7796 0.659055 -1.56813 0
M  V30 86 O 11.9646 0.592176 -1.84951 0
M  V30 87 C 9.0946 0.655449 -3.41059 0
M  V30 88 C 8.0486 -0.111842 -4.27854 0
M  V30 89 C 7.3746 0.872274 -5.27537 0
M  V30 90 C 8.6746 -1.30299 -5.05786 0
M  V30 91 H 10.3686 -1.01294 -2.81744 0
M  V30 92 H 7.9146 -0.48854 -1.3546 0
M  V30 93 H 9.8676 1.07464 -4.07467 0
M  V30 94 H 8.5916 1.49328 -2.90463 0
M  V30 95 H 7.2506 -0.512053 -3.63006 0
M  V30 96 H 6.8986 1.70523 -4.73214 0
M  V30 97 H 6.5986 0.363291 -5.86476 0
M  V30 98 H 8.1226 1.28996 -5.96818 0
M  V30 99 H 9.5366 -0.959379 -5.65216 0
M  V30 100 H 7.9336 -1.7455 -5.74154 0
M  V30 101 H 9.0036 -2.09663 -4.37229 0
M  V30 102 N 10.3467 1.47872 -0.545128 0
M  V30 103 C 11.2967 2.26842 0.229456 0
M  V30 104 C 12.2807 1.33626 0.896267 0
M  V30 105 O 13.4727 1.58063 0.79657 0
M  V30 106 C 10.6017 3.19089 1.26638 0
M  V30 107 C 9.6877 4.19783 0.603598 0
M  V30 108 N 10.0787 5.0479 -0.319405 0
M  V30 109 C 8.3767 4.3765 0.858989 0
M  V30 110 C 9.0777 5.77433 -0.703241 0
M  V30 111 N 8.0537 5.43566 -0.0608309 0
M  V30 112 H 11.8557 2.89947 -0.480391 0
M  V30 113 H 9.3697 1.58263 -0.364209 0
M  V30 114 H 11.3667 3.74337 1.83515 0
M  V30 115 H 10.0267 2.5754 1.97745 0
M  V30 116 H 11.0377 5.13244 -0.692889 0
M  V30 117 H 7.7147 3.87281 1.55948 0
M  V30 118 H 9.1047 6.55824 -1.46098 0
M  V30 119 N 11.8248 0.280983 1.55075 0
M  V30 120 C 13.0708 -0.33461 2.00021 0
M  V30 121 C 13.4038 -1.55063 1.16915 0
M  V30 122 O 12.6788 -1.93006 0.240646 0
M  V30 123 C 12.9618 -0.711007 3.53011 0
M  V30 124 C 12.8148 0.512766 4.46868 0
M  V30 125 C 14.1338 -1.54522 4.12081 0
M  V30 126 H 11.2528 -0.120147 0.727141 0
M  V30 127 H 13.8948 0.389097 1.85973 0
M  V30 128 H 12.0448 -1.32761 3.65112 0
M  V30 129 H 13.7168 1.15131 4.46702 0
M  V30 130 H 11.9598 1.14975 4.18286 0
M  V30 131 H 12.6308 0.205556 5.51617 0
M  V30 132 H 15.1068 -1.02442 4.03293 0
M  V30 133 H 13.9828 -1.77739 5.19327 0
M  V30 134 H 14.2438 -2.52813 3.62682 0
M  V30 135 N 13.3029 -1.57598 0.00835791 0
M  V30 136 C 14.2499 -2.08945 -0.980346 0
M  V30 137 C 15.2199 -0.986738 -1.33614 0
M  V30 138 O 16.4049 -1.25968 -1.43306 0
M  V30 139 C 13.5449 -2.60425 -2.26435 0
M  V30 140 C 12.6579 -3.84628 -1.96685 0
M  V30 141 C 11.7929 -4.24579 -3.19228 0
M  V30 142 C 10.8319 -5.41596 -2.85202 0
M  V30 143 N 9.9689 -5.768 -4.00307 0
M  V30 144 H 14.8089 -2.93148 -0.535551 0
M  V30 145 H 12.3459 -1.44912 -0.252776 0
M  V30 146 H 14.3039 -2.88354 -3.01509 0
M  V30 147 H 12.9339 -1.79083 -2.68568 0
M  V30 148 H 11.9859 -3.63556 -1.11942 0
M  V30 149 H 13.2979 -4.69796 -1.67611 0
M  V30 150 H 12.4519 -4.53834 -4.02641 0
M  V30 151 H 11.1909 -3.38137 -3.51447 0
M  V30 152 H 10.1959 -5.12056 -2.00198 0
M  V30 153 H 11.4209 -6.29721 -2.54222 0
M  V30 154 H 9.3669 -4.93316 -4.32407 0
M  V30 155 H 9.2839 -6.5656 -3.74786 0
M  V30 156 H 10.5519 -6.10652 -4.84484 0
M  V30 157 N 14.781 0.264519 -1.55364 0
M  V30 158 C 16.009 1.013 -1.80405 0
M  V30 159 C 16.424 1.79618 -0.581622 0
M  V30 160 O 15.781 1.76879 0.449468 0
M  V30 161 C 15.832 1.96487 -3.03439 0
M  V30 162 O 15.553 1.21341 -4.20961 0
M  V30 163 C 17.054 2.83079 -3.41147 0
M  V30 164 H 14.274 0.298875 -0.600762 0
M  V30 165 H 16.818 0.292736 -2.02394 0
M  V30 166 H 14.973 2.63965 -2.83551 0
M  V30 167 H 15.387 1.85573 -4.90574 0
M  V30 168 H 16.861 3.4565 -4.30384 0
M  V30 169 H 17.338 3.53286 -2.60932 0
M  V30 170 H 17.944 2.2108 -3.63323 0
M  V30 171 N 16.2591 1.48442 0.529413 0
M  V30 172 C 17.6701 1.5002 1.11134 0
M  V30 173 C 18.0211 0.27031 1.94329 0
M  V30 174 O 17.1461 -0.622507 2.07253 0
M  V30 175 C 17.7411 2.71834 2.02217 0
M  V30 176 C 16.3001 2.76283 2.55627 0
M  V30 177 C 15.4471 2.43542 1.326 0
M  V30 178 H 18.3981 1.5555 0.314641 0
M  V30 179 H 18.4191 2.50384 2.8651 0
M  V30 180 H 17.9311 3.61331 1.41639 0
M  V30 181 H 16.0321 1.90995 3.19924 0
M  V30 182 H 16.1451 3.77725 2.94721 0
M  V30 183 H 14.5091 1.94709 1.64196 0
M  V30 184 H 15.2921 3.3528 0.737734 0
M  V30 185 N 17.7372 -0.778329 1.37039 0
M  V30 186 C 18.9862 -1.53189 1.3121 0
M  V30 187 C 19.2992 -1.95328 -0.103095 0
M  V30 188 O 20.5052 -2.70012 -0.283826 0
M  V30 189 C 18.9612 -2.76591 2.30272 0
M  V30 190 C 18.5692 -2.41577 3.77286 0
M  V30 191 C 20.3132 -3.5455 2.33441 0
M  V30 192 C 18.2202 -3.61441 4.68096 0
M  V30 193 H 17.1502 -0.5751 0.487622 0
M  V30 194 H 19.8012 -0.853101 1.62464 0
M  V30 195 H 18.1832 -3.46326 1.92027 0
M  V30 196 H 19.3572 -1.79668 4.2433 0
M  V30 197 H 17.6722 -1.76806 3.76999 0
M  V30 198 H 20.2692 -4.43628 2.98493 0
M  V30 199 H 20.6122 -3.93936 1.34611 0
M  V30 200 H 21.1452 -2.91805 2.7036 0
M  V30 201 H 17.8842 -3.27142 5.6803 0
M  V30 202 H 17.4042 -4.22478 4.25761 0
M  V30 203 H 19.0832 -4.28335 4.8491 0
M  V30 204 N 19.2153 -1.21501 -1.00376 0
M  V30 205 C 20.6313 -0.972629 -1.26539 0
M  V30 206 C 20.8313 0.340257 -1.98606 0
M  V30 207 O 19.8873 1.06561 -2.28913 0
M  V30 208 C 21.2003 -2.16404 -2.08781 0
M  V30 209 C 22.7483 -2.20643 -2.22004 0
M  V30 210 C 23.2233 -3.39306 -3.07629 0
M  V30 211 N 24.7143 -3.39401 -3.15217 0
M  V30 212 C 25.4493 -4.27867 -3.81729 0
M  V30 213 N 24.9453 -5.26533 -4.5026 0
M  V30 214 N 26.7383 -4.15672 -3.78382 0
M  V30 215 H 18.8893 -2.05929 -0.520281 0
M  V30 216 H 21.1523 -0.901803 -0.292328 0
M  V30 217 H 20.8583 -3.11554 -1.63178 0
M  V30 218 H 20.7323 -2.15567 -3.09533 0
M  V30 219 H 23.1193 -1.26048 -2.66825 0
M  V30 220 H 23.2003 -2.25523 -1.20718 0
M  V30 221 H 22.8443 -4.34195 -2.63509 0
M  V30 222 H 22.7743 -3.31665 -4.09031 0
M  V30 223 H 25.2653 -2.67997 -2.66432 0
M  V30 224 H 25.5783 -5.90337 -4.98721 0
M  V30 225 H 23.9233 -5.30457 -4.49044 0
M  V30 226 H 27.1143 -3.3785 -3.23998 0
M  V30 227 H 27.2873 -4.84825 -4.2994 0
M  V30 228 N 20.6934 1.19889 -1.02296 0
M  V30 229 C 21.9704 1.85148 -0.630832 0
M  V30 230 C 22.3504 1.91385 0.890782 0
M  V30 231 O 21.6984 1.42642 1.78509 0
M  V30 232 C 21.9084 3.24442 -1.28602 0
M  V30 233 C 23.2564 4.00663 -1.4055 0
M  V30 234 O 24.2804 3.33818 -1.24273 0
M  V30 235 O 23.1394 5.20387 -1.66913 0
M  V30 236 H 20.2334 0.797613 -0.218499 0
M  V30 237 H 22.7794 1.27427 -1.12074 0
M  V30 238 H 21.5514 3.14704 -2.32545 0
M  V30 239 H 21.1744 3.89802 -0.7836 0
M  V30 240 N 22.1715 0.800033 1.35784 0
M  V30 241 C 23.3965 0.388511 2.03729 0
M  V30 242 C 23.8215 -0.990481 1.5991 0
M  V30 243 O 23.1795 -1.64013 0.772612 0
M  V30 244 C 23.2275 0.4726 3.5749 0
M  V30 245 O 22.3315 -0.51646 4.09153 0
M  V30 246 H 21.6725 0.163271 0.643614 0
M  V30 247 H 24.2025 1.0841 1.73518 0
M  V30 248 H 24.2125 0.34003 4.06581 0
M  V30 249 H 22.8875 1.47848 3.88734 0
M  V30 250 H 21.4645 -0.344673 3.71304 0
M  V30 251 N 23.6496 -1.47581 0.552962 0
M  V30 252 C 24.5826 -2.26883 -0.244857 0
M  V30 253 C 25.5606 -1.33784 -0.924147 0
M  V30 254 O 26.7446 -1.6316 -0.943981 0
M  V30 255 C 23.8716 -3.10695 -1.34856 0
M  V30 256 C 22.9176 -4.19339 -0.778268 0
M  V30 257 S 23.7506 -5.34207 0.37184 0
M  V30 258 C 24.9066 -6.21584 -0.733779 0
M  V30 259 H 25.1396 -2.94202 0.428087 0
M  V30 260 H 22.6726 -1.50628 0.339197 0
M  V30 261 H 24.6306 -3.59555 -1.98066 0
M  V30 262 H 23.2916 -2.42746 -1.99332 0
M  V30 263 H 22.4846 -4.77695 -1.60696 0
M  V30 264 H 22.0866 -3.73338 -0.222422 0
M  V30 265 H 24.3786 -6.57676 -1.62692 0
M  V30 266 H 25.3216 -7.07851 -0.187668 0
M  V30 267 H 25.7296 -5.55125 -1.02454 0
M  V30 268 N 25.1277 -0.289203 -1.54924 0
M  V30 269 C 26.0907 0.579144 -2.21762 0
M  V30 270 C 27.0907 1.07047 -1.1999 0
M  V30 271 O 28.2807 0.968384 -1.44803 0
M  V30 272 C 25.4127 1.80055 -2.8947 0
M  V30 273 H 26.6057 -0.00464908 -2.999 0
M  V30 274 H 24.1587 -0.0399306 -1.56249 0
M  V30 275 H 24.8937 2.42449 -2.15381 0
M  V30 276 H 24.6787 1.45602 -3.64064 0
M  V30 277 H 26.1687 2.41773 -3.40493 0
M  V30 278 N 26.6058 1.57591 -0.0167156 0
M  V30 279 C 27.5358 2.12496 0.967858 0
M  V30 280 C 28.5168 1.03807 1.34752 0
M  V30 281 O 29.7018 1.31577 1.42833 0
M  V30 282 C 26.8318 2.64194 2.25431 0
M  V30 283 C 25.7858 3.77559 2.01576 0
M  V30 284 C 25.1118 4.15636 3.36379 0
M  V30 285 C 26.4118 5.04151 1.36489 0
M  V30 286 H 28.1058 2.95013 0.510643 0
M  V30 287 H 25.6518 1.41915 0.244181 0
M  V30 288 H 27.6048 3.01236 2.94678 0
M  V30 289 H 26.3288 1.78821 2.73296 0
M  V30 290 H 24.9878 3.40937 1.34751 0
M  V30 291 H 24.6358 3.27263 3.81979 0
M  V30 292 H 24.3358 4.92022 3.21229 0
M  V30 293 H 25.8598 4.5525 4.06915 0
M  V30 294 H 27.2738 5.38857 1.95718 0
M  V30 295 H 25.6708 5.85453 1.31776 0
M  V30 296 H 26.7408 4.83733 0.336219 0
M  V30 297 N 28.0839 -0.256276 1.55502 0
M  V30 298 C 29.3089 -1.00766 1.81276 0
M  V30 299 C 29.7339 -1.78524 0.59252 0
M  V30 300 O 29.0919 -1.75413 -0.45827 0
M  V30 301 C 29.1399 -1.92869 3.04687 0
M  V30 302 O 28.2439 -3.019 2.80945 0
M  V30 303 H 27.5849 -0.287224 0.598664 0
M  V30 304 H 30.1149 -0.280109 2.02674 0
M  V30 305 H 30.1249 -2.34511 3.33869 0
M  V30 306 H 28.7999 -1.35689 3.93143 0
M  V30 307 H 27.3769 -2.64454 2.62904 0
M  V30 308 N 29.562 -1.4872 -0.521534 0
M  V30 309 C 30.509 -1.63871 -1.62527 0
M  V30 310 C 31.479 -0.480559 -1.58996 0
M  V30 311 O 32.664 -0.705085 -1.77294 0
M  V30 312 C 29.804 -1.69227 -3.00759 0
M  V30 313 C 28.917 -2.96207 -3.14461 0
M  V30 314 C 28.052 -2.92671 -4.43303 0
M  V30 315 C 27.091 -4.14318 -4.50563 0
M  V30 316 N 26.228 -4.0881 -5.70805 0
M  V30 317 H 31.068 -2.58123 -1.48918 0
M  V30 318 H 28.605 -1.28 -0.724878 0
M  V30 319 H 30.563 -1.70314 -3.80853 0
M  V30 320 H 29.193 -0.784586 -3.1312 0
M  V30 321 H 28.245 -3.04826 -2.27564 0
M  V30 322 H 29.557 -3.86192 -3.15686 0
M  V30 323 H 28.711 -2.92206 -5.31696 0
M  V30 324 H 27.45 -2.00429 -4.44612 0
M  V30 325 H 26.455 -4.15049 -3.60575 0
M  V30 326 H 27.68 -5.07729 -4.50986 0
M  V30 327 H 25.626 -3.19394 -5.72995 0
M  V30 328 H 25.543 -4.92509 -5.7356 0
M  V30 329 H 26.811 -4.12418 -6.61462 0
M  V30 330 N 31.0401 0.771051 -1.3745 0
M  V30 331 C 31.9731 1.89166 -1.27638 0
M  V30 332 C 32.9511 1.61842 -0.156782 0
M  V30 333 O 34.1351 1.85569 -0.331111 0
M  V30 334 C 31.2621 3.24405 -0.973621 0
M  V30 335 C 30.3081 3.70638 -2.1102 0
M  V30 336 S 31.1411 3.84228 -3.73 0
M  V30 337 C 32.2971 5.22313 -3.44876 0
M  V30 338 H 32.5301 1.972 -2.22485 0
M  V30 339 H 30.0631 0.932224 -1.23081 0
M  V30 340 H 32.0211 4.02514 -0.805766 0
M  V30 341 H 30.6821 3.14071 -0.0426279 0
M  V30 342 H 29.8751 4.68685 -1.85338 0
M  V30 343 H 29.4771 2.99632 -2.23822 0
M  V30 344 H 31.7691 6.07505 -2.99908 0
M  V30 345 H 32.7121 5.53008 -4.42253 0
M  V30 346 H 33.1201 4.90284 -2.79789 0
M  V30 347 N 32.5182 1.22032 0.997298 0
M  V30 348 C 33.4812 0.987909 2.06816 0
M  V30 349 C 34.4812 -0.0440084 1.6074 0
M  V30 350 O 35.6712 0.194053 1.73116 0
M  V30 351 C 32.8032 0.49132 3.37341 0
M  V30 352 H 33.9962 1.93803 2.28868 0
M  V30 353 H 31.5492 1.03838 1.16822 0
M  V30 354 H 32.2842 -0.463364 3.20973 0
M  V30 355 H 32.0692 1.23575 3.72118 0
M  V30 356 H 33.5592 0.348824 4.16141 0
M  V30 357 N 33.9963 -1.19345 1.0293 0
M  V30 358 C 35.2443 -1.88665 0.724574 0
M  V30 359 C 35.5653 -1.80036 -0.749144 0
M  V30 360 O 34.8353 -1.2111 -1.53978 0
M  V30 361 H 33.4153 -0.698406 0.265025 0
M  V30 362 H 36.0773 -1.44885 1.30362 0
M  V30 363 H 35.1733 -2.94987 1.01926 0
M  V30 364 N 35.4744 -0.807222 -1.35358 0
M  V30 365 C 36.7024 -0.400377 -2.02989 0
M  V30 366 C 37.1174 0.988859 -1.60832 0
M  V30 367 O 36.4744 1.63729 -0.806175 0
M  V30 368 C 36.5254 -0.474867 -3.58368 0
M  V30 369 O 36.2464 -1.80933 -3.98992 0
M  V30 370 C 37.7474 -0.0609112 -4.43258 0
M  V30 371 H 34.9674 -0.162587 -0.651004 0
M  V30 372 H 37.5114 -1.09102 -1.72965 0
M  V30 373 H 35.6664 0.167534 -3.87038 0
M  V30 374 H 36.0804 -1.77256 -4.9364 0
M  V30 375 H 37.5544 -0.164145 -5.51756 0
M  V30 376 H 38.0314 0.993831 -4.27808 0
M  V30 377 H 38.6374 -0.676492 -4.19885 0
M  V30 378 N 36.9525 1.47285 -0.560781 0
M  V30 379 C 38.1775 2.07359 -0.0410566 0
M  V30 380 C 38.6025 1.41017 1.24483 0
M  V30 381 O 37.9605 0.486368 1.74654 0
M  V30 382 C 38.0085 3.6035 0.134123 0
M  V30 383 O 37.1125 3.94681 1.19587 0
M  V30 384 H 36.4535 0.661887 -0.0529291 0
M  V30 385 H 38.9835 1.89252 -0.777482 0
M  V30 386 H 38.9935 4.0652 0.347207 0
M  V30 387 H 37.6685 4.08034 -0.805047 0
M  V30 388 H 36.2455 3.60251 0.962987 0
M  V30 389 N 38.4306 0.297415 1.54768 0
M  V30 390 C 39.6766 -0.313376 2.00364 0
M  V30 391 C 40.0096 -1.53815 1.18553 0
M  V30 392 O 39.2846 -1.92739 0.261103 0
M  V30 393 C 39.5676 -0.673525 3.53745 0
M  V30 394 C 39.4206 0.560133 4.46299 0
M  V30 395 C 40.7396 -1.50143 4.13697 0
M  V30 396 H 37.8586 -0.112428 0.728374 0
M  V30 397 H 40.5006 0.4088 1.8555 0
M  V30 398 H 38.6506 -1.28881 3.665 0
M  V30 399 H 40.3226 1.19863 4.45455 0
M  V30 400 H 38.5656 1.19405 4.17043 0
M  V30 401 H 39.2366 0.26405 5.51368 0
M  V30 402 H 41.7126 -0.981588 4.04356 0
M  V30 403 H 40.5886 -1.72221 5.21182 0
M  V30 404 H 40.8496 -2.48952 3.65343 0
M  V30 405 N 39.9087 -1.5758 0.0250728 0
M  V30 406 C 41.1387 -1.95646 -0.663783 0
M  V30 407 C 41.5467 -0.899935 -1.66427 0
M  V30 408 O 40.8897 0.127191 -1.83259 0
M  V30 409 C 40.9517 -3.29835 -1.43 0
M  V30 410 C 40.6157 -4.53197 -0.588305 0
M  V30 411 C 41.6127 -5.19726 0.13469 0
M  V30 412 C 39.2977 -4.99529 -0.526897 0
M  V30 413 C 41.2917 -6.30902 0.90781 0
M  V30 414 C 38.9787 -6.10589 0.24993 0
M  V30 415 C 39.9767 -6.76134 0.965994 0
M  V30 416 O 39.6647 -7.85062 1.7301 0
M  V30 417 H 39.3967 -0.649282 -0.188174 0
M  V30 418 H 41.9507 -2.05245 0.0799006 0
M  V30 419 H 40.1807 -3.16716 -2.21873 0
M  V30 420 H 41.8697 -3.52833 -2.00658 0
M  V30 421 H 42.6357 -4.84904 0.0965562 0
M  V30 422 H 38.5147 -4.48319 -1.07381 0
M  V30 423 H 42.0587 -6.81995 1.46724 0
M  V30 424 H 37.9557 -6.44849 0.289795 0
M  V30 425 H 38.7237 -8.01708 1.64944 0
M  V30 426 N 41.3868 0.248026 -1.55636 0
M  V30 427 C 42.3168 1.31079 -1.93237 0
M  V30 428 C 43.2978 1.50264 -0.797174 0
M  V30 429 O 44.4828 1.62891 -1.05737 0
M  V30 430 C 41.6128 2.66575 -2.22609 0
M  V30 431 C 40.5668 2.62087 -3.3837 0
M  V30 432 C 39.8928 4.01369 -3.53281 0
M  V30 433 C 41.1928 2.19171 -4.7409 0
M  V30 434 H 42.8868 0.998556 -2.82257 0
M  V30 435 H 40.4328 0.47891 -1.35803 0
M  V30 436 H 42.3858 3.41057 -2.47503 0
M  V30 437 H 41.1098 2.99432 -1.30414 0
M  V30 438 H 39.7688 1.90063 -3.13483 0
M  V30 439 H 39.4168 4.31489 -2.58508 0
M  V30 440 H 39.1168 3.99254 -4.31127 0
M  V30 441 H 40.6408 4.77552 -3.80495 0
M  V30 442 H 42.0548 2.83384 -4.98363 0
M  V30 443 H 40.4518 2.2817 -5.5503 0
M  V30 444 H 41.5218 1.14336 -4.71227 0
M  V30 445 N 42.8649 1.48995 0.513639 0
M  V30 446 C 43.8119 1.6473 1.61656 0
M  V30 447 C 44.7819 0.488984 1.58739 0
M  V30 448 O 45.9669 0.714478 1.76918 0
M  V30 449 C 43.1069 1.7082 2.99858 0
M  V30 450 C 42.2199 2.9787 3.12885 0
M  V30 451 C 41.3549 2.95017 4.41744 0
M  V30 452 C 40.3939 4.16702 4.48359 0
M  V30 453 N 39.5309 4.11832 5.68629 0
M  V30 454 H 44.3709 2.58909 1.47547 0
M  V30 455 H 41.9079 1.28382 0.71808 0
M  V30 456 H 43.8659 1.72331 3.79944 0
M  V30 457 H 42.4959 0.801181 3.12699 0
M  V30 458 H 41.5479 3.06029 2.25944 0
M  V30 459 H 42.8599 3.8786 3.13633 0
M  V30 460 H 42.0139 2.95021 5.30139 0
M  V30 461 H 40.7529 2.02784 4.43542 0
M  V30 462 H 39.7579 4.16955 3.58369 0
M  V30 463 H 40.9829 5.10113 4.48287 0
M  V30 464 H 38.9289 3.22428 5.71293 0
M  V30 465 H 38.8459 4.95543 5.7094 0
M  V30 466 H 40.1139 4.1592 6.59266 0
M  V30 467 N 44.343 -0.763751 1.37857 0
M  V30 468 C 45.276 -1.88486 1.28639 0
M  V30 469 C 46.254 -1.61757 0.165363 0
M  V30 470 O 47.438 -1.85391 0.340948 0
M  V30 471 C 44.565 -3.23884 0.990811 0
M  V30 472 C 43.611 -3.69514 2.12983 0
M  V30 473 S 44.444 -3.82244 3.75033 0
M  V30 474 C 45.6 -5.20477 3.47641 0
M  V30 475 H 45.833 -1.96017 2.23527 0
M  V30 476 H 43.366 -0.925684 1.23574 0
M  V30 477 H 45.324 -4.02081 0.827101 0
M  V30 478 H 43.985 -3.14044 0.0592832 0
M  V30 479 H 43.178 -4.67696 1.87821 0
M  V30 480 H 42.78 -2.98441 2.25408 0
M  V30 481 H 45.072 -6.05905 3.03125 0
M  V30 482 H 46.015 -5.50655 4.4518 0
M  V30 483 H 46.423 -4.88793 2.82385 0
M  V30 484 N 45.8211 -1.22559 -0.990812 0
M  V30 485 C 47.0981 -0.959875 -1.70428 0
M  V30 486 C 47.4781 0.524455 -2.04481 0
M  V30 487 O 46.8261 1.49302 -1.72977 0
M  V30 488 C 47.0361 -1.85955 -2.95333 0
M  V30 489 C 48.3841 -2.11687 -3.68068 0
M  V30 490 O 49.4081 -1.8342 -3.05345 0
M  V30 491 O 48.2671 -2.59572 -4.80921 0
M  V30 492 H 45.3611 -0.361154 -0.743974 0
M  V30 493 H 47.9071 -1.33554 -1.04697 0
M  V30 494 H 46.6791 -2.86346 -2.66687 0
M  V30 495 H 46.3021 -1.4856 -3.68803 0
M  V30 496 N 47.2992 1.18797 -1.03562 0
M  V30 497 C 48.5242 1.9314 -0.755764 0
M  V30 498 C 48.9492 1.7537 0.68022 0
M  V30 499 O 48.3072 1.06046 1.47051 0
M  V30 500 C 48.3552 3.42747 -1.12058 0
M  V30 501 O 47.4592 4.11683 -0.243124 0
M  V30 502 H 46.8002 0.602724 -0.278604 0
M  V30 503 H 49.3302 1.50678 -1.3841 0
M  V30 504 H 49.3402 3.93437 -1.08035 0
M  V30 505 H 48.0152 3.55002 -2.16672 0
M  V30 506 H 46.5922 3.71323 -0.342539 0
M  V30 507 N 48.7773 0.814389 1.34928 0
M  V30 508 C 49.7403 0.235759 2.27984 0
M  V30 509 C 50.7403 -0.581412 1.49921 0
M  V30 510 O 51.9303 -0.398758 1.69575 0
M  V30 511 C 49.0623 -0.670433 3.34242 0
M  V30 512 H 50.2553 1.05659 2.80671 0
M  V30 513 H 47.8083 0.585614 1.44915 0
M  V30 514 H 48.5433 -1.51466 2.86755 0
M  V30 515 H 48.3283 -0.0860822 3.92005 0
M  V30 516 H 49.8183 -1.06935 4.03676 0
M  V30 517 N 50.2554 -1.46986 0.568584 0
M  V30 518 C 51.1874 -2.28233 -0.210337 0
M  V30 519 C 52.2004 -1.37682 -0.868767 0
M  V30 520 O 53.3894 -1.62406 -0.740705 0
M  V30 521 C 50.4894 -3.12293 -1.3163 0
M  V30 522 C 49.6624 -4.30878 -0.7525 0
M  V30 523 C 48.7214 -4.96445 -1.74439 0
M  V30 524 O 47.7474 -5.54482 -1.286 0
M  V30 525 N 48.9494 -4.92171 -3.07812 0
M  V30 526 H 51.7144 -2.95723 0.486648 0
M  V30 527 H 49.2754 -1.56742 0.405409 0
M  V30 528 H 51.2674 -3.53022 -1.97883 0
M  V30 529 H 49.8374 -2.46971 -1.91636 0
M  V30 530 H 49.0574 -3.94104 0.0871128 0
M  V30 531 H 50.3454 -5.07558 -0.35536 0
M  V30 532 H 49.7434 -4.46239 -3.47688 0
M  V30 533 H 48.3004 -5.36884 -3.69592 0
M  V30 534 N 51.7335 -0.305618 -1.54608 0
M  V30 535 C 53.1445 0.186098 -1.8577 0
M  V30 536 C 53.4955 1.53058 -1.22751 0
M  V30 537 O 52.6205 2.09888 -0.526893 0
M  V30 538 C 53.2155 0.344449 -3.37044 0
M  V30 539 C 51.7745 0.780384 -3.68221 0
M  V30 540 C 50.9215 -0.108554 -2.77087 0
M  V30 541 H 53.8725 -0.526485 -1.49712 0
M  V30 542 H 53.8935 1.17828 -3.61796 0
M  V30 543 H 53.4055 -0.634235 -3.82883 0
M  V30 544 H 51.5065 1.76945 -3.27904 0
M  V30 545 H 51.6195 0.596572 -4.75371 0
M  V30 546 H 49.9835 0.412931 -2.5133 0
M  V30 547 H 50.7665 -1.08368 -3.25747 0
M  V30 548 N 53.2116 1.57565 -0.0334293 0
M  V30 549 C 54.4366 1.96689 0.657895 0
M  V30 550 C 54.8616 0.910057 1.64619 0
M  V30 551 O 54.2196 -0.128598 1.80843 0
M  V30 552 C 54.2676 3.34905 1.33683 0
M  V30 553 O 53.3716 3.31574 2.45219 0
M  V30 554 H 52.7126 0.641205 0.172489 0
M  V30 555 H 55.2426 2.04372 -0.0965621 0
M  V30 556 H 55.2526 3.71234 1.69262 0
M  V30 557 H 53.9276 4.11366 0.612411 0
M  V30 558 H 52.5046 3.06968 2.11719 0
M  V30 559 N 54.6897 -0.239769 1.55765 0
M  V30 560 C 55.9377 -0.964892 1.77579 0
M  V30 561 C 56.2587 -1.85582 0.598699 0
M  V30 562 O 55.5287 -1.92075 -0.385226 0
M  V30 563 H 54.1087 -0.359265 0.654933 0
M  V30 564 H 56.7707 -0.256001 1.93211 0
M  V30 565 H 55.8667 -1.58243 2.69009 0
M  V30 566 N 56.1678 -1.49265 -0.50573 0
M  V30 567 C 57.3928 -1.62478 -1.28902 0
M  V30 568 C 57.8178 -0.294332 -1.85783 0
M  V30 569 O 57.1758 0.737412 -1.65626 0
M  V30 570 C 57.2238 -2.69268 -2.39848 0
M  V30 571 O 56.3278 -2.28113 -3.43567 0
M  V30 572 H 55.6688 -0.54399 -0.380751 0
M  V30 573 H 58.1988 -1.95421 -0.605952 0
M  V30 574 H 58.2088 -2.91291 -2.85681 0
M  V30 575 H 56.8838 -3.65846 -1.97812 0
M  V30 576 H 55.4608 -2.16401 -3.03685 0
M  V30 577 N 57.6459 0.756429 -1.3826 0
M  V30 578 C 58.8929 1.51547 -1.34312 0
M  V30 579 C 59.2209 1.94382 0.0677144 0
M  V30 580 O 58.4759 1.65514 1.04421 0
M  V30 581 C 58.7749 2.78313 -2.24224 0
M  V30 582 C 58.4409 2.54455 -3.72241 0
M  V30 583 C 57.1029 2.47657 -4.12576 0
M  V30 584 C 59.4549 2.3354 -4.65949 0
M  V30 585 C 56.7829 2.17956 -5.44713 0
M  V30 586 C 59.1349 2.05359 -5.9834 0
M  V30 587 C 57.7989 1.97016 -6.37762 0
M  V30 588 H 57.0689 0.55455 -0.491482 0
M  V30 589 H 59.7159 0.870039 -1.70595 0
M  V30 590 H 58.0209 3.47492 -1.80987 0
M  V30 591 H 59.7179 3.36259 -2.18474 0
M  V30 592 H 56.3079 2.60616 -3.40261 0
M  V30 593 H 60.4919 2.37772 -4.35635 0
M  V30 594 H 55.7479 2.10003 -5.74203 0
M  V30 595 H 59.9219 1.88179 -6.70494 0
M  V30 596 H 57.5489 1.73766 -7.40074 0
M  V30 597 N 59.124 1.23083 0.984299 0
M  V30 598 C 60.071 1.00854 2.07598 0
M  V30 599 C 61.041 -0.0726709 1.65941 0
M  V30 600 O 62.226 0.0786535 1.90638 0
M  V30 601 C 59.366 0.601645 3.39815 0
M  V30 602 C 58.479 1.75456 3.94765 0
M  V30 603 C 57.614 1.29482 5.15177 0
M  V30 604 C 56.653 2.41873 5.62284 0
M  V30 605 N 55.79 1.96885 6.73929 0
M  V30 606 H 60.63 1.943 2.25946 0
M  V30 607 H 58.167 0.968001 1.10762 0
M  V30 608 H 60.125 0.346854 4.15756 0
M  V30 609 H 58.755 -0.295803 3.21442 0
M  V30 610 H 57.807 2.12346 3.15616 0
M  V30 611 H 59.119 2.59965 4.25699 0
M  V30 612 H 58.273 0.997923 5.98437 0
M  V30 613 H 57.012 0.420046 4.85888 0
M  V30 614 H 56.017 2.72342 4.77608 0
M  V30 615 H 57.242 3.29881 5.93595 0
M  V30 616 H 55.188 1.11782 6.46406 0
M  V30 617 H 55.105 2.74956 7.04227 0
M  V30 618 H 56.373 1.70289 7.60672 0
M  V30 619 N 60.6021 -1.18246 1.0419 0
M  V30 620 C 61.8511 -1.87588 0.741194 0
M  V30 621 C 62.1641 -1.81303 -0.734066 0
M  V30 622 O 63.3701 -2.46019 -1.14834 0
M  V30 623 C 61.8261 -3.36538 1.27555 0
M  V30 624 C 61.4341 -3.51349 2.77953 0
M  V30 625 C 63.1781 -4.11273 1.05143 0
M  V30 626 C 61.0851 -4.94265 3.2474 0
M  V30 627 H 60.0151 -0.702622 0.273565 0
M  V30 628 H 62.6661 -1.33601 1.25789 0
M  V30 629 H 61.0481 -3.9 0.686703 0
M  V30 630 H 62.2221 -3.08153 3.42605 0
M  V30 631 H 60.5371 -2.90022 2.98791 0
M  V30 632 H 63.1341 -5.16689 1.37611 0
M  V30 633 H 63.4771 -4.16298 -0.0112774 0
M  V30 634 H 64.0101 -3.63987 1.60495 0
M  V30 635 H 60.7491 -4.94408 4.30396 0
M  V30 636 H 60.2691 -5.38172 2.64823 0
M  V30 637 H 61.9481 -5.62987 3.18834 0
M  V30 638 N 62.0802 -0.821533 -1.34494 0
M  V30 639 C 63.4962 -0.507117 -1.51329 0
M  V30 640 C 63.6962 0.968964 -1.76673 0
M  V30 641 O 62.7522 1.75348 -1.81685 0
M  V30 642 C 64.0652 -1.36544 -2.67911 0
M  V30 643 C 65.6132 -1.36242 -2.81793 0
M  V30 644 C 66.0882 -2.2052 -4.01416 0
M  V30 645 N 67.5792 -2.18136 -4.08621 0
M  V30 646 C 68.3142 -2.80095 -5.00334 0
M  V30 647 N 67.8102 -3.51039 -5.9728 0
M  V30 648 N 69.6032 -2.69656 -4.93196 0
M  V30 649 H 61.7542 -1.77729 -1.16302 0
M  V30 650 H 64.0172 -0.757291 -0.570276 0
M  V30 651 H 63.7232 -2.41361 -2.55808 0
M  V30 652 H 63.5972 -1.02917 -3.62888 0
M  V30 653 H 65.9842 -0.322041 -2.93338 0
M  V30 654 H 66.0652 -1.73866 -1.87628 0
M  V30 655 H 65.7092 -3.24607 -3.90631 0
M  V30 656 H 65.6392 -1.80247 -4.94791 0
M  V30 657 H 68.1302 -1.6653 -3.39229 0
M  V30 658 H 68.4432 -3.95565 -6.63889 0
M  V30 659 H 66.7882 -3.55145 -5.97409 0
M  V30 660 H 69.9792 -2.13808 -4.16418 0
M  V30 661 H 70.1522 -3.1823 -5.64476 0
M  V30 662 N 63.5583 1.46682 -0.576371 0
M  V30 663 C 64.8063 2.02013 -0.0594163 0
M  V30 664 C 65.1273 1.45101 1.30271 0
M  V30 665 O 64.3973 0.633317 1.8538 0
M  V30 666 H 62.9773 0.746759 -0.0189745 0
M  V30 667 H 65.6393 1.79862 -0.750717 0
M  V30 668 H 64.7353 3.12097 0.014345 0
M  V30 669 N 65.0364 0.313813 1.54444 0
M  V30 670 C 66.2854 -0.292519 1.99568 0
M  V30 671 C 66.5984 -1.54011 1.20582 0
M  V30 672 O 67.8044 -2.22183 1.56035 0
M  V30 673 C 66.2604 -0.571752 3.55329 0
M  V30 674 C 65.8684 0.658229 4.43138 0
M  V30 675 C 67.6124 -1.13857 4.08946 0
M  V30 676 C 65.5194 0.351439 5.90355 0
M  V30 677 H 64.4494 -0.113079 0.745472 0
M  V30 678 H 67.1004 0.424518 1.78522 0
M  V30 679 H 65.4824 -1.34872 3.72325 0
M  V30 680 H 66.6564 1.43403 4.37918 0
M  V30 681 H 64.9714 1.14458 4.0036 0
M  V30 682 H 67.5684 -1.38257 5.16516 0
M  V30 683 H 67.9114 -2.08489 3.6033 0
M  V30 684 H 68.4444 -0.423015 3.95544 0
M  V30 685 H 65.1834 1.26667 6.43145 0
M  V30 686 H 64.7034 -0.386842 5.98551 0
M  V30 687 H 66.3824 -0.0423134 6.46986 0
M  V30 688 N 66.5145 -1.57545 0.0417849 0
M  V30 689 C 67.7625 -1.91937 -0.632829 0
M  V30 690 C 68.0835 -0.919978 -1.71934 0
M  V30 691 O 67.3535 0.0366064 -1.95866 0
M  V30 692 H 65.9335 -0.708493 -0.236742 0
M  V30 693 H 68.5955 -1.9468 0.0925745 0
M  V30 694 H 67.6915 -2.92912 -1.07746 0
M  V30 695 N 67.9926 0.231505 -1.5589 0
M  V30 696 C 68.9426 1.29007 -1.87993 0
M  V30 697 C 69.9266 1.42764 -0.742102 0
M  V30 698 O 71.1186 1.45747 -1.00433 0
M  V30 699 C 68.2476 2.6425 -2.1915 0
M  V30 700 C 67.3336 2.54435 -3.39299 0
M  V30 701 N 67.7246 2.14262 -4.58176 0
M  V30 702 C 66.0226 2.85416 -3.42715 0
M  V30 703 C 66.7236 2.15455 -5.40328 0
M  V30 704 N 65.6996 2.55558 -4.79783 0
M  V30 705 H 69.5016 0.970213 -2.77424 0
M  V30 706 H 67.0156 0.440097 -1.56323 0
M  V30 707 H 69.0126 3.40665 -2.40319 0
M  V30 708 H 67.6726 2.9709 -1.31025 0
M  V30 709 H 68.6836 1.85554 -4.83518 0
M  V30 710 H 65.3606 3.22693 -2.64906 0
M  V30 711 H 66.7506 1.86605 -6.45467 0
M  V30 712 N 69.4707 1.49531 0.497807 0
M  V30 713 C 70.7177 1.59179 1.25173 0
M  V30 714 C 71.0457 0.279932 1.92475 0
M  V30 715 O 70.3007 -0.732383 1.81479 0
M  V30 716 C 70.5997 2.70252 2.33878 0
M  V30 717 C 70.2657 4.11644 1.84012 0
M  V30 718 C 68.9277 4.50121 1.70132 0
M  V30 719 C 71.2797 5.00121 1.46725 0
M  V30 720 C 68.6077 5.74845 1.17348 0
M  V30 721 C 70.9597 6.25366 0.95392 0
M  V30 722 C 69.6237 6.6267 0.801538 0
M  V30 723 H 68.8937 0.582478 0.45804 0
M  V30 724 H 71.5407 1.83373 0.551948 0
M  V30 725 H 69.8457 2.40041 3.09657 0
M  V30 726 H 71.5427 2.74925 2.9192 0
M  V30 727 H 68.1327 3.81274 1.95775 0
M  V30 728 H 72.3167 4.71048 1.56294 0
M  V30 729 H 67.5727 6.02444 1.04264 0
M  V30 730 H 71.7467 6.93301 0.656225 0
M  V30 731 H 69.3737 7.59197 0.390351 0
M  V30 732 N 70.9488 -0.749086 1.3866 0
M  V30 733 C 72.1888 -1.52112 1.36534 0
M  V30 734 C 72.5528 -1.91951 -0.0432316 0
M  V30 735 O 73.7538 -2.68132 -0.189396 0
M  V30 736 C 72.0248 -2.73704 2.29828 0
M  V30 737 S 73.5838 -3.63519 2.45763 0
M  V30 738 H 70.4018 -0.520482 0.484375 0
M  V30 739 H 73.0038 -0.878963 1.74627 0
M  V30 740 H 71.7078 -2.42552 3.31054 0
M  V30 741 H 71.2388 -3.4286 1.929 0
M  V30 742 H 73.2538 -4.66712 1.68505 0
M  V30 743 N 72.4269 -1.23603 -0.977757 0
M  V30 744 C 73.3739 -1.01954 -2.07061 0
M  V30 745 C 74.3439 0.0638697 -1.65977 0
M  V30 746 O 75.5289 -0.0887624 -1.90593 0
M  V30 747 C 72.6689 -0.619658 -3.39491 0
M  V30 748 C 71.7819 -1.77547 -3.93829 0
M  V30 749 C 70.9169 -1.32212 -5.14484 0
M  V30 750 C 69.9559 -2.44852 -5.60994 0
M  V30 751 N 69.0929 -2.00456 -6.72876 0
M  V30 752 H 73.9329 -1.95495 -2.24913 0
M  V30 753 H 71.4699 -0.973861 -1.10247 0
M  V30 754 H 73.4279 -0.368898 -4.15566 0
M  V30 755 H 72.0579 0.278752 -3.21594 0
M  V30 756 H 71.1099 -2.14016 -3.14486 0
M  V30 757 H 72.4219 -2.62219 -4.24314 0
M  V30 758 H 71.5759 -1.02965 -5.97899 0
M  V30 759 H 70.3149 -0.445808 -4.85658 0
M  V30 760 H 69.3199 -2.74871 -4.76157 0
M  V30 761 H 70.5449 -3.33024 -5.91837 0
M  V30 762 H 68.4909 -1.15208 -6.45804 0
M  V30 763 H 68.4079 -2.78687 -7.02759 0
M  V30 764 H 69.6759 -1.7432 -7.59758 0
M  V30 765 N 73.905 1.17692 -1.04816 0
M  V30 766 C 75.321 1.39863 -0.768794 0
M  V30 767 C 75.521 1.91118 0.638451 0
M  V30 768 O 74.577 2.10036 1.40146 0
M  V30 769 C 75.89 2.39274 -1.82122 0
M  V30 770 C 77.438 2.52987 -1.843 0
M  V30 771 C 77.913 3.55669 -2.88555 0
M  V30 772 N 79.404 3.63183 -2.87493 0
M  V30 773 C 80.139 4.42381 -3.64811 0
M  V30 774 N 79.635 5.25125 -4.51903 0
M  V30 775 N 81.428 4.37217 -3.53267 0
M  V30 776 H 73.579 0.82752 -1.95617 0
M  V30 777 H 75.842 0.426123 -0.846831 0
M  V30 778 H 75.548 2.08678 -2.83102 0
M  V30 779 H 75.422 3.38725 -1.65967 0
M  V30 780 H 77.809 2.82896 -0.839869 0
M  V30 781 H 77.89 1.53623 -2.04532 0
M  V30 782 H 77.534 3.26499 -3.89051 0
M  V30 783 H 77.464 4.54728 -2.65575 0
M  V30 784 H 79.955 3.04103 -2.24343 0
M  V30 785 H 80.268 5.82728 -5.07591 0
M  V30 786 H 78.613 5.24519 -4.55966 0
M  V30 787 H 81.804 3.71626 -2.84625 0
M  V30 788 H 81.977 4.98696 -4.13771 0
M  V30 789 N 75.3831 0.828654 1.34056 0
M  V30 790 C 76.6291 0.429279 1.98818 0
M  V30 791 C 76.9841 -0.998011 1.64492 0
M  V30 792 O 76.2771 -1.68652 0.909228 0
M  V30 793 C 76.4711 0.575226 3.52741 0
M  V30 794 C 76.3001 2.01515 4.02022 0
M  V30 795 C 75.0701 2.64825 4.30344 0
M  V30 796 C 77.2681 2.98261 4.18981 0
M  V30 797 N 75.2501 3.99998 4.65698 0
M  V30 798 C 76.6211 4.18356 4.57578 0
M  V30 799 C 78.6761 2.94802 4.01243 0
M  V30 800 C 77.3791 5.35454 4.80293 0
M  V30 801 C 79.4051 4.11121 4.25128 0
M  V30 802 C 78.7671 5.29969 4.64018 0
M  V30 803 H 74.8661 0.205304 0.754569 0
M  V30 804 H 77.4501 1.07457 1.62361 0
M  V30 805 H 75.6211 -0.0401962 3.88379 0
M  V30 806 H 77.3531 0.148292 4.04428 0
M  V30 807 H 74.1081 2.16027 4.21461 0
M  V30 808 H 74.5321 4.69653 4.87601 0
M  V30 809 H 79.1741 2.04054 3.70299 0
M  V30 810 H 76.8921 6.26755 5.10102 0
M  V30 811 H 80.4781 4.0985 4.12934 0
M  V30 812 H 79.3581 6.18479 4.82134 0
M  V30 813 N 76.8612 -1.46375 0.584142 0
M  V30 814 C 77.8242 -2.28784 -0.138108 0
M  V30 815 C 78.8242 -1.38471 -0.817462 0
M  V30 816 O 80.0142 -1.60833 -0.669199 0
M  V30 817 C 77.1462 -3.18892 -1.20503 0
M  V30 818 H 78.3392 -2.94117 0.586127 0
M  V30 819 H 75.8922 -1.52509 0.342171 0
M  V30 820 H 76.6272 -2.58309 -1.96079 0
M  V30 821 H 76.4122 -3.85388 -0.722384 0
M  V30 822 H 77.9022 -3.80914 -1.71155 0
M  V30 823 N 78.3393 -0.321999 -1.54275 0
M  V30 824 C 79.2863 0.544664 -2.24281 0
M  V30 825 C 80.2563 1.1129 -1.23303 0
M  V30 826 O 81.4413 1.15354 -1.51981 0
M  V30 827 C 78.5813 1.70045 -3.00298 0
M  V30 828 C 77.6943 1.16159 -4.1609 0
M  V30 829 C 76.8293 2.28293 -4.79641 0
M  V30 830 C 75.8683 1.71648 -5.8754 0
M  V30 831 N 75.0053 2.77438 -6.44959 0
M  V30 832 H 79.8453 -0.0588907 -2.97942 0
M  V30 833 H 77.3823 -0.0408345 -1.47043 0
M  V30 834 H 79.3403 2.38054 -3.42616 0
M  V30 835 H 77.9703 2.27531 -2.28975 0
M  V30 836 H 77.0223 0.373092 -3.78566 0
M  V30 837 H 78.3343 0.707087 -4.93763 0
M  V30 838 H 77.4883 3.0421 -5.2492 0
M  V30 839 H 76.2273 2.77079 -4.01346 0
M  V30 840 H 75.2323 0.942282 -5.41665 0
M  V30 841 H 76.4573 1.23741 -6.67731 0
M  V30 842 H 74.4033 3.25519 -5.69538 0
M  V30 843 H 74.3203 2.36547 -7.1804 0
M  V30 844 H 75.5883 3.53189 -6.94894 0
M  V30 845 N 79.8174 1.5752 -0.0501392 0
M  V30 846 C 80.7494 2.08413 0.95376 0
M  V30 847 C 81.7624 1.01175 1.27544 0
M  V30 848 O 82.9514 1.28744 1.23641 0
M  V30 849 C 80.0514 2.51138 2.27559 0
M  V30 850 C 79.2244 3.817 2.13598 0
M  V30 851 C 78.2834 4.10749 3.28895 0
M  V30 852 O 77.3094 4.80685 3.04845 0
M  V30 853 N 78.5114 3.62579 4.5334 0
M  V30 854 H 81.2764 2.95165 0.519383 0
M  V30 855 H 78.8374 1.61327 0.136127 0
M  V30 856 H 80.8294 2.67648 3.03557 0
M  V30 857 H 79.3994 1.6964 2.62567 0
M  V30 858 H 78.6194 3.74782 1.22197 0
M  V30 859 H 79.9074 4.67201 2.01496 0
M  V30 860 H 79.3054 3.06039 4.75769 0
M  V30 861 H 77.8624 3.84329 5.26436 0
M  V30 862 N 81.2955 -0.223234 1.56011 0
M  V30 863 C 82.5435 -0.946003 1.78592 0
M  V30 864 C 82.8645 -1.84936 0.618349 0
M  V30 865 O 82.1345 -1.92473 -0.364833 0
M  V30 866 H 80.7145 -0.352298 0.658707 0
M  V30 867 H 83.3765 -0.235494 1.93472 0
M  V30 868 H 82.4725 -1.55381 2.70672 0
M  V30 869 N 82.7736 -1.49793 -0.48987 0
M  V30 870 C 84.0136 -1.61466 -1.25332 0
M  V30 871 C 84.3776 -0.299688 -1.89647 0
M  V30 872 O 85.5786 -0.291687 -2.67213 0
M  V30 873 C 83.8496 -2.74944 -2.28343 0
M  V30 874 S 85.4086 -3.06637 -3.13878 0
M  V30 875 H 82.2266 -0.569411 -0.425784 0
M  V30 876 H 84.8286 -1.875 -0.553541 0
M  V30 877 H 83.5326 -3.68994 -1.79643 0
M  V30 878 H 83.0636 -2.50938 -3.02975 0
M  V30 879 H 85.0786 -2.49015 -4.29192 0
M  V30 880 N 84.2517 0.741722 -1.39055 0
M  V30 881 C 85.2147 1.83733 -1.37021 0
M  V30 882 C 86.2147 1.58542 -0.268534 0
M  V30 883 O 87.4047 1.66067 -0.526076 0
M  V30 884 C 84.5367 3.2141 -1.13617 0
M  V30 885 H 85.7297 1.86941 -2.34506 0
M  V30 886 H 83.2827 0.944676 -1.24521 0
M  V30 887 H 84.0177 3.23865 -0.167863 0
M  V30 888 H 83.8027 3.4109 -1.93391 0
M  V30 889 H 85.2927 4.01477 -1.14918 0
M  V30 890 N 85.7298 1.2412 0.971189 0
M  V30 891 C 86.6798 0.997551 2.05019 0
M  V30 892 C 87.6638 -0.0597747 1.60789 0
M  V30 893 O 88.8558 0.153516 1.76333 0
M  V30 894 C 85.9848 0.600557 3.38006 0
M  V30 895 C 85.0708 1.69377 3.88809 0
M  V30 896 N 85.4618 2.92586 4.12586 0
M  V30 897 C 83.7598 1.57048 4.17435 0
M  V30 898 C 84.4608 3.63431 4.54195 0
M  V30 899 N 83.4368 2.90979 4.59165 0
M  V30 900 H 87.2388 1.93316 2.21374 0
M  V30 901 H 84.7528 1.14194 1.1547 0
M  V30 902 H 86.7498 0.40725 4.14906 0
M  V30 903 H 85.4098 -0.327903 3.2304 0
M  V30 904 H 86.4208 3.288 4.00139 0
M  V30 905 H 83.0978 0.709798 4.11422 0
M  V30 906 H 84.4878 4.69102 4.81033 0
M  V30 907 N 87.2079 -1.17134 1.05439 0
M  V30 908 C 88.4549 -1.87456 0.765942 0
M  V30 909 C 88.7829 -1.81189 -0.707153 0
M  V30 910 O 88.0379 -1.21633 -1.5331 0
M  V30 911 C 88.3369 -3.36833 1.19491 0
M  V30 912 C 88.0029 -3.63301 2.67063 0
M  V30 913 C 86.6649 -3.70234 3.07376 0
M  V30 914 C 89.0169 -3.74575 3.62413 0
M  V30 915 C 86.3449 -3.85933 4.41896 0
M  V30 916 C 88.6969 -3.91793 4.9667 0
M  V30 917 C 87.3609 -3.96966 5.36633 0
M  V30 918 H 86.6309 -0.685948 0.280278 0
M  V30 919 H 89.2779 -1.38556 1.32192 0
M  V30 920 H 87.5829 -3.87807 0.557969 0
M  V30 921 H 89.2799 -3.89611 0.948893 0
M  V30 922 H 85.8699 -3.58532 2.34846 0
M  V30 923 H 90.0539 -3.68537 3.32406 0
M  V30 924 H 85.3099 -3.88187 4.72357 0
M  V30 925 H 89.4839 -3.99458 5.70444 0
M  V30 926 H 87.1109 -4.08883 6.40874 0
M  V30 927 N 88.686 -0.835752 -1.33615 0
M  V30 928 C 89.932 -0.430596 -1.98176 0
M  V30 929 C 90.265 1.00684 -1.66061 0
M  V30 930 O 89.54 1.70339 -0.938877 0
M  V30 931 C 89.823 -0.648065 -3.5422 0
M  V30 932 C 89.676 -2.13255 -3.96033 0
M  V30 933 C 90.995 -0.0922113 -4.40003 0
M  V30 934 H 88.114 -0.157924 -0.719881 0
M  V30 935 H 90.756 -1.05069 -1.58305 0
M  V30 936 H 88.906 -0.120237 -3.88314 0
M  V30 937 H 90.578 -2.725 -3.72211 0
M  V30 938 H 88.821 -2.61823 -3.45878 0
M  V30 939 H 89.492 -2.23547 -5.04708 0
M  V30 940 H 91.968 -0.543343 -4.12537 0
M  V30 941 H 90.844 -0.274083 -5.48215 0
M  V30 942 H 91.105 1.00378 -4.30554 0
M  V30 943 N 90.1641 1.46063 -0.591896 0
M  V30 944 C 91.4041 2.04228 -0.0838014 0
M  V30 945 C 91.7681 1.45231 1.25587 0
M  V30 946 O 92.9691 1.94653 1.85375 0
M  V30 947 C 91.2401 3.57389 -0.0286282 0
M  V30 948 S 92.7991 4.3678 0.420557 0
M  V30 949 H 89.6171 0.709762 -0.0419319 0
M  V30 950 H 92.2191 1.78983 -0.786465 0
M  V30 951 H 90.9231 3.97843 -1.00743 0
M  V30 952 H 90.4541 3.87185 0.69652 0
M  V30 953 H 92.4691 4.67131 1.67341 0
M  V30 954 N 91.6422 0.330177 1.54103 0
M  V30 955 C 92.8672 -0.274893 2.0557 0
M  V30 956 C 93.2922 -1.44487 1.20437 0
M  V30 957 O 92.6502 -1.80021 0.214991 0
M  V30 958 C 92.6982 -0.68079 3.54115 0
M  V30 959 O 91.8022 -1.7824 3.71893 0
M  V30 960 H 91.1432 -0.0483849 0.662235 0
M  V30 961 H 93.6732 0.480508 1.98878 0
M  V30 962 H 93.6832 -0.961635 3.96505 0
M  V30 963 H 92.3582 0.174903 4.15532 0
M  V30 964 H 90.9352 -1.49985 3.41407 0
M  V30 965 N 93.1203 -1.57491 0.0584922 0
M  V30 966 C 94.3453 -1.97711 -0.62652 0
M  V30 967 C 94.7703 -0.936132 -1.63151 0
M  V30 968 O 94.1283 0.099811 -1.81025 0
M  V30 969 C 94.1763 -3.36989 -1.28338 0
M  V30 970 O 93.2803 -3.35433 -2.39913 0
M  V30 971 H 92.6213 -0.643868 -0.162266 0
M  V30 972 H 95.1513 -2.04193 0.129064 0
M  V30 973 H 95.1613 -3.73879 -1.63335 0
M  V30 974 H 93.8363 -4.12289 -0.546889 0
M  V30 975 H 92.4133 -3.10298 -2.06809 0
M  V30 976 N 94.5984 0.214957 -1.56127 0
M  V30 977 C 95.5614 1.24997 -1.92116 0
M  V30 978 C 96.5614 1.39467 -0.800344 0
M  V30 979 O 97.7514 1.37619 -1.06802 0
M  V30 980 C 94.8834 2.62271 -2.17777 0
M  V30 981 H 96.0764 0.942875 -2.84693 0
M  V30 982 H 93.6294 0.455654 -1.49511 0
M  V30 983 H 94.3644 2.98068 -1.27773 0
M  V30 984 H 94.1494 2.53143 -2.99434 0
M  V30 985 H 95.6394 3.36946 -2.46693 0
M  V30 986 N 96.0765 1.50051 0.48192 0
M  V30 987 C 97.3245 1.60181 1.23234 0
M  V30 988 C 97.6455 0.299176 1.92691 0
M  V30 989 O 96.9155 -0.682708 1.83619 0
M  V30 990 H 95.4955 0.590232 0.457859 0
M  V30 991 H 98.1575 1.86775 0.556881 0
M  V30 992 H 97.2535 2.40753 1.98607 0
M  V30 993 N 97.5546 -0.734337 1.39446 0
M  V30 994 C 98.5026 -1.86971 1.38364 0
M  V30 995 C 99.4966 -1.67288 0.266687 0
M  V30 996 O 100.703 -1.74621 0.436755 0
M  V30 997 H 97.0776 -0.615474 0.432082 0
M  V30 998 H 99.0486 -1.85 2.34132 0
M  V30 999 C 97.7976 -3.2466 1.24465 0
M  V30 1000 H 97.1206 -3.40402 2.09682 0
M  V30 1001 H 98.5606 -4.04292 1.27764 0
M  V30 1002 C 97.0196 -3.36867 -0.0468674 0
M  V30 1003 O 97.5496 -3.88618 -1.01681 0
M  V30 1004 N 95.7556 -2.90391 -0.110145 0
M  V30 1005 H 95.3026 -2.48466 0.679868 0
M  V30 1006 H 95.2606 -2.98939 -0.973799 0
M  V30 1007 N 99.0327 -1.24633 -0.964593 0
M  V30 1008 C 99.9957 -1.0424 -2.04124 0
M  V30 1009 C 100.996 0.00137563 -1.608 0
M  V30 1010 O 102.186 -0.239883 -1.7254 0
M  V30 1011 C 99.3177 -0.580588 -3.3592 0
M  V30 1012 H 100.511 -1.99803 -2.23649 0
M  V30 1013 H 98.0637 -1.06899 -1.14027 0
M  V30 1014 H 98.7987 0.3781 -3.22088 0
M  V30 1015 H 98.5837 -1.33398 -3.6871 0
M  V30 1016 H 100.074 -0.459034 -4.15069 0
M  V30 1017 N 100.511 1.16574 -1.06058 0
M  V30 1018 C 101.759 1.86677 -0.77434 0
M  V30 1019 C 102.08 1.81959 0.701147 0
M  V30 1020 O 101.35 1.2515 1.50713 0
M  V30 1021 H 99.9298 0.691134 -0.283449 0
M  V30 1022 H 102.592 1.41378 -1.34158 0
M  V30 1023 H 101.688 2.92181 -1.09711 0
M  V30 1024 N 101.989 0.842826 1.3317 0
M  V30 1025 C 102.922 0.223862 2.27099 0
M  V30 1026 C 103.9 -0.631311 1.49844 0
M  V30 1027 O 105.084 -0.590708 1.79005 0
M  V30 1028 C 102.211 -0.685313 3.31694 0
M  V30 1029 C 101.257 0.094919 4.26394 0
M  V30 1030 S 102.09 1.45546 5.15341 0
M  V30 1031 C 103.246 0.551685 6.23464 0
M  V30 1032 H 103.479 1.02015 2.79249 0
M  V30 1033 H 101.012 0.639797 1.4052 0
M  V30 1034 H 102.97 -1.20426 3.92438 0
M  V30 1035 H 101.631 -1.4553 2.78352 0
M  V30 1036 H 100.824 -0.597059 5.00451 0
M  V30 1037 H 100.426 0.545054 3.70007 0
M  V30 1038 H 102.718 -0.248877 6.77043 0
M  V30 1039 H 103.661 1.26253 6.96754 0
M  V30 1040 H 104.069 0.131275 5.64347 0
M  V30 1041 N 103.467 -1.45747 0.599634 0
M  V30 1042 C 104.43 -2.28917 -0.113835 0
M  V30 1043 C 105.43 -1.3933 -0.802729 0
M  V30 1044 O 106.62 -1.61534 -0.652103 0
M  V30 1045 C 103.752 -3.20152 -1.17114 0
M  V30 1046 H 104.945 -2.93478 0.617289 0
M  V30 1047 H 102.498 -1.52137 0.358327 0
M  V30 1048 H 103.233 -2.60374 -1.93329 0
M  V30 1049 H 103.018 -3.86133 -0.681468 0
M  V30 1050 H 104.508 -3.82708 -1.67105 0
M  V30 1051 N 104.945 -0.338344 -1.53925 0
M  V30 1052 C 105.908 0.508299 -2.23493 0
M  V30 1053 C 106.908 1.03175 -1.23335 0
M  V30 1054 O 108.098 0.921826 -1.47811 0
M  V30 1055 C 105.23 1.70754 -2.95052 0
M  V30 1056 H 106.423 -0.100058 -2.99733 0
M  V30 1057 H 103.976 -0.0896198 -1.56043 0
M  V30 1058 H 104.711 2.35474 -2.22986 0
M  V30 1059 H 104.496 1.33946 -3.68512 0
M  V30 1060 H 105.986 2.30818 -3.48013 0
M  V30 1061 N 106.423 1.57458 -0.0668435 0
M  V30 1062 C 107.386 2.11323 0.887422 0
M  V30 1063 C 108.386 1.03618 1.22964 0
M  V30 1064 O 109.576 1.29626 1.16373 0
M  V30 1065 C 106.708 2.61048 2.19242 0
M  V30 1066 H 107.901 2.96942 0.420194 0
M  V30 1067 H 105.454 1.55239 0.181793 0
M  V30 1068 H 106.189 1.78868 2.70512 0
M  V30 1069 H 105.974 3.39769 1.95702 0
M  V30 1070 H 107.464 3.02814 2.87565 0
M  V30 1071 N 107.901 -0.206675 1.56239 0
M  V30 1072 C 109.131 -0.943975 1.83773 0
M  V30 1073 C 109.539 -1.77841 0.645703 0
M  V30 1074 O 108.882 -1.79403 -0.395008 0
M  V30 1075 C 108.944 -1.899 3.05251 0
M  V30 1076 C 108.608 -1.24764 4.39639 0
M  V30 1077 C 109.605 -0.630216 5.16066 0
M  V30 1078 C 107.29 -1.25496 4.8637 0
M  V30 1079 C 109.284 -0.0287946 6.37393 0
M  V30 1080 C 106.971 -0.649698 6.07637 0
M  V30 1081 C 107.969 -0.0376845 6.8299 0
M  V30 1082 O 107.657 0.55812 8.0196 0
M  V30 1083 H 107.389 -0.281508 0.614597 0
M  V30 1084 H 109.943 -0.222458 2.04192 0
M  V30 1085 H 108.173 -2.6599 2.80689 0
M  V30 1086 H 109.862 -2.5031 3.1953 0
M  V30 1087 H 110.628 -0.616785 4.81062 0
M  V30 1088 H 106.507 -1.72072 4.27683 0
M  V30 1089 H 110.051 0.449518 6.9615 0
M  V30 1090 H 105.948 -0.660592 6.42111 0
M  V30 1091 H 106.716 0.453891 8.17241 0
M  V30 1092 N 109.379 -1.50304 -0.473955 0
M  V30 1093 C 110.342 -1.6841 -1.55469 0
M  V30 1094 C 111.342 -0.554905 -1.50922 0
M  V30 1095 O 112.532 -0.821882 -1.53593 0
M  V30 1096 C 109.664 -1.70667 -2.95102 0
M  V30 1097 H 110.857 -2.64828 -1.40733 0
M  V30 1098 H 108.41 -1.39742 -0.700132 0
M  V30 1099 H 109.145 -0.75932 -3.15285 0
M  V30 1100 H 108.93 -2.52698 -2.9981 0
M  V30 1101 H 110.42 -1.8664 -3.73571 0
M  V30 1102 N 110.857 0.726932 -1.39834 0
M  V30 1103 C 111.82 1.82269 -1.38962 0
M  V30 1104 C 112.82 1.58248 -0.285334 0
M  V30 1105 O 114.01 1.65499 -0.54366 0
M  V30 1106 C 111.142 3.20186 -1.17019 0
M  V30 1107 H 112.335 1.84443 -2.36476 0
M  V30 1108 H 109.888 0.931416 -1.25516 0
M  V30 1109 H 110.623 3.23669 -0.202204 0
M  V30 1110 H 110.408 3.3902 -1.96998 0
M  V30 1111 H 111.898 4.00235 -1.1917 0
M  V30 1112 N 112.336 1.25143 0.95797 0
M  V30 1113 C 113.752 1.01892 1.22842 0
M  V30 1114 C 113.952 -0.266311 1.99732 0
M  V30 1115 O 113.008 -0.979913 2.3271 0
M  V30 1116 C 114.321 2.24004 2.00606 0
M  V30 1117 C 115.869 2.28731 2.13662 0
M  V30 1118 C 116.344 3.5049 2.94823 0
M  V30 1119 N 117.835 3.50866 3.02403 0
M  V30 1120 C 118.57 4.4174 3.65586 0
M  V30 1121 N 118.066 5.42882 4.30408 0
M  V30 1122 N 119.859 4.29429 3.62694 0
M  V30 1123 H 112.01 2.07718 0.443493 0
M  V30 1124 H 114.273 0.912031 0.258657 0
M  V30 1125 H 113.979 3.17395 1.51503 0
M  V30 1126 H 113.853 2.26907 3.01319 0
M  V30 1127 H 116.24 1.35865 2.61963 0
M  V30 1128 H 116.321 2.29848 1.12265 0
M  V30 1129 H 115.965 4.43676 2.47213 0
M  V30 1130 H 115.895 3.46617 3.96439 0
M  V30 1131 H 118.386 2.777 2.56302 0
M  V30 1132 H 118.699 6.0844 4.76467 0
M  V30 1133 H 117.044 5.46758 4.29047 0
M  V30 1134 H 120.235 3.49643 3.11236 0
M  V30 1135 H 120.408 5.00448 4.1165 0
M  V30 1136 N 113.814 -1.1601 1.06675 0
M  V30 1137 C 114.746 -2.20115 0.638921 0
M  V30 1138 C 115.759 -1.59916 -0.305057 0
M  V30 1139 O 116.948 -1.78245 -0.0954446 0
M  V30 1140 C 114.048 -3.38798 -0.0830083 0
M  V30 1141 C 113.221 -4.2855 0.875426 0
M  V30 1142 C 112.28 -5.25849 0.192042 0
M  V30 1143 O 111.306 -5.63102 0.830921 0
M  V30 1144 N 112.508 -5.70648 -1.06493 0
M  V30 1145 H 115.273 -2.57439 1.53444 0
M  V30 1146 H 112.834 -1.31057 0.950557 0
M  V30 1147 H 114.826 -4.00936 -0.550685 0
M  V30 1148 H 113.396 -2.99947 -0.880386 0
M  V30 1149 H 112.616 -3.63617 1.52238 0
M  V30 1150 H 113.904 -4.85393 1.52548 0
M  V30 1151 H 113.302 -5.42482 -1.60405 0
M  V30 1152 H 111.859 -6.34859 -1.47641 0
M  V30 1153 N 115.292 -0.849877 -1.32721 0
M  V30 1154 C 116.222 -0.306308 -2.31482 0
M  V30 1155 C 117.203 0.591952 -1.59468 0
M  V30 1156 O 118.388 0.513199 -1.87296 0
M  V30 1157 C 115.518 0.510204 -3.43532 0
M  V30 1158 C 114.472 -0.293209 -4.26994 0
M  V30 1159 C 113.798 0.647743 -5.30762 0
M  V30 1160 C 115.098 -1.51634 -4.99804 0
M  V30 1161 H 116.792 -1.13153 -2.77195 0
M  V30 1162 H 114.338 -0.545553 -1.33266 0
M  V30 1163 H 116.291 0.900856 -4.11658 0
M  V30 1164 H 115.015 1.36874 -2.96535 0
M  V30 1165 H 113.674 -0.665555 -3.60508 0
M  V30 1166 H 113.322 1.50299 -4.8002 0
M  V30 1167 H 113.022 0.11422 -5.87489 0
M  V30 1168 H 114.546 1.03567 -6.01753 0
M  V30 1169 H 115.96 -1.19824 -5.60638 0
M  V30 1170 H 114.357 -1.98745 -5.66234 0
M  V30 1171 H 115.427 -2.28018 -4.27943 0
M  V30 1172 N 116.77 1.45427 -0.607355 0
M  V30 1173 C 118.018 2.01841 -0.102253 0
M  V30 1174 C 118.339 1.47832 1.27164 0
M  V30 1175 O 117.609 0.672497 1.83995 0
M  V30 1176 H 116.189 0.746188 -0.0348101 0
M  V30 1177 H 118.851 1.78229 -0.7887 0
M  V30 1178 H 117.947 3.12057 -0.0518585 0
M  V30 1179 N 118.248 0.346503 1.53744 0
M  V30 1180 C 119.494 -0.249473 2.0126 0
M  V30 1181 C 119.827 -1.49965 1.23386 0
M  V30 1182 O 119.102 -1.91811 0.32229 0
M  V30 1183 C 119.385 -0.560643 3.55709 0
M  V30 1184 C 119.238 0.701836 4.44291 0
M  V30 1185 C 120.557 -1.36905 4.18264 0
M  V30 1186 H 117.676 -0.0891987 0.731582 0
M  V30 1187 H 120.318 0.467624 1.84156 0
M  V30 1188 H 118.468 -1.17156 3.70414 0
M  V30 1189 H 120.14 1.33974 4.41417 0
M  V30 1190 H 118.383 1.32612 4.13033 0
M  V30 1191 H 119.054 0.43933 5.50249 0
M  V30 1192 H 121.53 -0.852448 4.07275 0
M  V30 1193 H 120.406 -1.55553 5.26398 0
M  V30 1194 H 120.667 -2.37203 3.73078 0
M  V30 1195 N 119.726 -1.57421 0.075193 0
M  V30 1196 C 121.137 -1.81021 -0.456964 0
M  V30 1197 C 121.488 -0.98936 -1.69429 0
M  V30 1198 O 120.613 -0.212865 -2.15351 0
M  V30 1199 C 121.208 -3.28329 -0.83581 0
M  V30 1200 C 119.767 -3.52764 -1.31281 0
M  V30 1201 C 118.914 -2.75676 -0.299648 0
M  V30 1202 H 121.865 -1.55822 0.300856 0
M  V30 1203 H 121.886 -3.40564 -1.69696 0
M  V30 1204 H 121.398 -3.88046 0.0649238 0
M  V30 1205 H 119.499 -2.98355 -2.23193 0
M  V30 1206 H 119.612 -4.61451 -1.28839 0
M  V30 1207 H 117.976 -2.42538 -0.777641 0
M  V30 1208 H 118.759 -3.38132 0.593417 0
M  V30 1209 N 121.204 0.198386 -1.56346 0
M  V30 1210 C 122.167 1.22952 -1.93431 0
M  V30 1211 C 123.167 1.38611 -0.815092 0
M  V30 1212 O 124.357 1.36479 -1.08255 0
M  V30 1213 C 121.489 2.59946 -2.20546 0
M  V30 1214 H 122.682 0.912626 -2.85677 0
M  V30 1215 H 120.235 0.43977 -1.49986 0
M  V30 1216 H 120.97 2.96696 -1.30927 0
M  V30 1217 H 120.755 2.49953 -3.02102 0
M  V30 1218 H 122.245 3.3431 -2.50253 0
M  V30 1219 N 122.682 1.50554 0.465978 0
M  V30 1220 C 123.91 1.65563 1.24083 0
M  V30 1221 C 124.325 0.341051 1.85694 0
M  V30 1222 O 123.682 -0.677543 1.69457 0
M  V30 1223 C 123.733 2.75051 2.34583 0
M  V30 1224 O 123.454 4.01413 1.75497 0
M  V30 1225 C 124.955 3.01078 3.25372 0
M  V30 1226 H 122.175 0.55638 0.375077 0
M  V30 1227 H 124.719 1.96807 0.555624 0
M  V30 1228 H 122.874 2.46486 2.9887 0
M  V30 1229 H 123.288 4.62002 2.48303 0
M  V30 1230 H 124.762 3.81339 3.99105 0
M  V30 1231 H 125.239 2.12349 3.84453 0
M  V30 1232 H 125.845 3.31194 2.66816 0
M  V30 1233 N 124.16 -0.719506 1.40217 0
M  V30 1234 C 125.409 -1.47486 1.37589 0
M  V30 1235 C 125.722 -1.9559 -0.0201568 0
M  V30 1236 O 126.928 -2.70973 -0.169049 0
M  V30 1237 C 125.384 -2.66575 2.41796 0
M  V30 1238 C 124.992 -2.25358 3.87192 0
M  V30 1239 C 126.736 -3.4433 2.48269 0
M  V30 1240 C 124.643 -3.41262 4.83005 0
M  V30 1241 H 123.573 -0.553901 0.511576 0
M  V30 1242 H 126.224 -0.783427 1.65936 0
M  V30 1243 H 124.606 -3.3787 2.06543 0
M  V30 1244 H 125.78 -1.61509 4.31569 0
M  V30 1245 H 124.095 -1.60657 3.84159 0
M  V30 1246 H 126.692 -4.30569 3.17041 0
M  V30 1247 H 127.035 -3.87872 1.51198 0
M  V30 1248 H 127.568 -2.80076 2.82493 0
M  V30 1249 H 124.307 -3.02755 5.81394 0
M  V30 1250 H 123.827 -4.0404 4.43297 0
M  V30 1251 H 125.506 -4.07383 5.02641 0
M  V30 1252 N 125.638 -1.25649 -0.95132 0
M  V30 1253 C 126.884 -1.10757 -1.69884 0
M  V30 1254 C 127.217 0.350061 -1.91019 0
M  V30 1255 O 126.492 1.25783 -1.48354 0
M  V30 1256 C 126.775 -1.86606 -3.07978 0
M  V30 1257 C 126.628 -3.40217 -2.94232 0
M  V30 1258 C 127.947 -1.65182 -4.07925 0
M  V30 1259 H 125.066 -0.40374 -0.616574 0
M  V30 1260 H 127.708 -1.54521 -1.10558 0
M  V30 1261 H 125.858 -1.49409 -3.58621 0
M  V30 1262 H 127.53 -3.87108 -2.50889 0
M  V30 1263 H 125.773 -3.67759 -2.30078 0
M  V30 1264 H 126.444 -3.88505 -3.92133 0
M  V30 1265 H 128.92 -1.9757 -3.66204 0
M  V30 1266 H 127.796 -2.20683 -5.02583 0
M  V30 1267 H 128.057 -0.593933 -4.38092 0
M  V30 1268 N 127.117 1.15442 -1.07289 0
M  V30 1269 C 128.363 1.86489 -0.796846 0
M  V30 1270 C 128.696 1.82078 0.675371 0
M  V30 1271 O 127.971 1.24346 1.4956 0
M  V30 1272 C 128.254 3.35626 -1.30489 0
M  V30 1273 C 128.107 3.48673 -2.84161 0
M  V30 1274 C 129.426 4.30357 -0.920907 0
M  V30 1275 H 126.545 0.677144 -0.290939 0
M  V30 1276 H 129.187 1.35633 -1.33056 0
M  V30 1277 H 127.337 3.79068 -0.850883 0
M  V30 1278 H 129.009 3.14099 -3.37846 0
M  V30 1279 H 127.252 2.90253 -3.22391 0
M  V30 1280 H 127.923 4.53453 -3.14777 0
M  V30 1281 H 130.399 3.94871 -1.3121 0
M  V30 1282 H 129.275 5.33193 -1.30372 0
M  V30 1283 H 129.536 4.4176 0.173226 0
M  V30 1284 N 128.595 0.856903 1.32268 0
M  V30 1285 C 130.006 0.515711 1.79436 0
M  V30 1286 C 130.357 -0.966586 1.70738 0
M  V30 1287 O 129.482 -1.75409 1.26731 0
M  V30 1288 C 130.077 0.929335 3.25805 0
M  V30 1289 C 128.636 0.640006 3.70919 0
M  V30 1290 C 127.783 1.12784 2.53328 0
M  V30 1291 H 130.734 1.04389 1.19535 0
M  V30 1292 H 130.755 0.246633 3.797 0
M  V30 1293 H 130.267 2.00821 3.32103 0
M  V30 1294 H 128.368 -0.428051 3.70133 0
M  V30 1295 H 128.481 1.20788 4.63624 0
M  V30 1296 H 126.845 0.548033 2.48734 0
M  V30 1297 H 127.628 2.21387 2.62379 0
M  V30 1298 N 130.073 -1.45103 0.615059 0
M  V30 1299 C 131.298 -2.07064 0.117988 0
M  V30 1300 C 131.723 -1.4554 -1.19163 0
M  V30 1301 O 131.081 -0.550855 -1.72729 0
M  V30 1302 C 131.129 -3.606 -0.000288387 0
M  V30 1303 O 130.233 -3.98847 -1.04856 0
M  V30 1304 H 129.574 -0.659467 0.0774581 0
M  V30 1305 H 132.104 -1.86236 0.847186 0
M  V30 1306 H 132.114 -4.07529 -0.196091 0
M  V30 1307 H 130.789 -4.04765 0.955932 0
M  V30 1308 H 129.366 -3.63577 -0.828619 0
M  V30 1309 N 131.551 -0.354651 -1.53558 0
M  V30 1310 C 132.779 0.239515 -2.05509 0
M  V30 1311 C 133.194 1.4333 -1.2289 0
M  V30 1312 O 132.551 1.80538 -0.266899 0
M  V30 1313 C 132.602 0.643719 -3.55723 0
M  V30 1314 O 132.323 -0.502602 -4.35207 0
M  V30 1315 C 133.824 1.29743 -4.23889 0
M  V30 1316 H 131.044 0.0442697 -0.669538 0
M  V30 1317 H 133.588 -0.509856 -1.98042 0
M  V30 1318 H 131.743 1.34302 -3.63376 0
M  V30 1319 H 132.157 -0.178172 -5.24197 0
M  V30 1320 H 133.631 1.53091 -5.30346 0
M  V30 1321 H 134.108 2.25441 -3.76926 0
M  V30 1322 H 134.714 0.639865 -4.20459 0
M  V30 1323 N 133.029 1.57378 -0.0835403 0
M  V30 1324 C 134.257 1.98263 0.59157 0
M  V30 1325 C 134.672 0.962302 1.62435 0
M  V30 1326 O 134.029 -0.049581 1.82433 0
M  V30 1327 C 134.08 3.39214 1.24965 0
M  V30 1328 O 133.801 4.37339 0.258186 0
M  V30 1329 C 135.302 3.95038 2.01147 0
M  V30 1330 H 132.522 0.651773 0.159477 0
M  V30 1331 H 135.066 2.03878 -0.159415 0
M  V30 1332 H 133.221 3.34649 1.95164 0
M  V30 1333 H 133.635 5.19371 0.731734 0
M  V30 1334 H 135.109 4.95848 2.42567 0
M  V30 1335 H 135.586 3.32222 2.87272 0
M  V30 1336 H 136.192 4.0304 1.35789 0
M  V30 1337 N 134.507 -0.190092 1.56449 0
M  V30 1338 C 135.918 -0.754312 1.70784 0
M  V30 1339 C 136.269 -1.83631 0.690951 0
M  V30 1340 O 135.394 -2.15868 -0.151604 0
M  V30 1341 C 135.989 -1.37503 3.09642 0
M  V30 1342 C 134.548 -1.88628 3.25725 0
M  V30 1343 C 133.695 -0.758098 2.66736 0
M  V30 1344 H 136.646 0.0350524 1.58661 0
M  V30 1345 H 136.667 -2.2445 3.0725 0
M  V30 1346 H 136.179 -0.587302 3.83631 0
M  V30 1347 H 134.28 -2.70103 2.56661 0
M  V30 1348 H 134.393 -2.04462 4.3328 0
M  V30 1349 H 132.757 -1.17369 2.26046 0
M  V30 1350 H 133.54 0.0174705 3.43296 0
M  V30 1351 N 135.985 -1.50799 -0.457987 0
M  V30 1352 C 136.948 -1.7005 -1.53674 0
M  V30 1353 C 137.948 -0.570881 -1.50325 0
M  V30 1354 O 139.138 -0.838126 -1.52712 0
M  V30 1355 C 136.27 -1.73788 -2.93276 0
M  V30 1356 H 137.463 -2.66306 -1.37917 0
M  V30 1357 H 135.016 -1.40477 -0.685271 0
M  V30 1358 H 135.751 -0.792717 -3.14462 0
M  V30 1359 H 135.536 -2.55864 -2.97113 0
M  V30 1360 H 137.026 -1.90591 -3.71571 0
M  V30 1361 N 137.463 0.71206 -1.40597 0
M  V30 1362 C 138.393 1.83889 -1.43899 0
M  V30 1363 C 139.374 1.67442 -0.299504 0
M  V30 1364 O 140.559 1.87421 -0.508624 0
M  V30 1365 C 137.689 3.21877 -1.30431 0
M  V30 1366 C 136.643 3.53002 -2.42019 0
M  V30 1367 C 135.969 4.90172 -2.13626 0
M  V30 1368 C 137.269 3.53643 -3.84362 0
M  V30 1369 H 138.963 1.81383 -2.38203 0
M  V30 1370 H 136.509 0.871237 -1.14654 0
M  V30 1371 H 138.462 4.00404 -1.31357 0
M  V30 1372 H 137.186 3.24968 -0.326049 0
M  V30 1373 H 135.845 2.76818 -2.40349 0
M  V30 1374 H 135.493 4.89869 -1.14182 0
M  V30 1375 H 135.193 5.11962 -2.88389 0
M  V30 1376 H 136.717 5.71028 -2.1624 0
M  V30 1377 H 138.131 4.22203 -3.87837 0
M  V30 1378 H 136.528 3.86961 -4.58673 0
M  V30 1379 H 137.598 2.52954 -4.13693 0
M  V30 1380 N 138.941 1.26152 0.944643 0
M  V30 1381 C 140.169 1.14259 1.72489 0
M  V30 1382 C 140.584 -0.302555 1.8636 0
M  V30 1383 O 139.941 -1.20741 1.36849 0
M  V30 1384 C 139.992 1.80266 3.13347 0
M  V30 1385 O 139.713 3.19133 3.00143 0
M  V30 1386 C 141.214 1.74283 4.07603 0
M  V30 1387 H 138.434 0.398051 0.540181 0
M  V30 1388 H 140.978 1.66706 1.18446 0
M  V30 1389 H 139.133 1.31766 3.64303 0
M  V30 1390 H 139.547 3.51744 3.89071 0
M  V30 1391 H 141.021 2.25111 5.04013 0
M  V30 1392 H 141.498 0.708631 4.33446 0
M  V30 1393 H 142.104 2.22319 3.62567 0
M  V30 1394 N 140.419 -1.14872 1.07899 0
M  V30 1395 C 141.668 -1.85135 0.800499 0
M  V30 1396 C 141.981 -1.83547 -0.676014 0
M  V30 1397 O 143.187 -2.49548 -1.06948 0
M  V30 1398 C 141.643 -3.3231 1.38197 0
M  V30 1399 C 141.251 -3.42329 2.8899 0
M  V30 1400 C 142.995 -4.0772 1.18174 0
M  V30 1401 C 140.902 -4.83684 3.403 0
M  V30 1402 H 139.832 -0.693563 0.29578 0
M  V30 1403 H 142.483 -1.29532 1.29976 0
M  V30 1404 H 140.865 -3.87618 0.810431 0
M  V30 1405 H 142.039 -2.97097 3.52236 0
M  V30 1406 H 140.354 -2.80369 3.07867 0
M  V30 1407 H 142.951 -5.12049 1.5398 0
M  V30 1408 H 143.294 -4.16124 0.12117 0
M  V30 1409 H 143.827 -3.58696 1.71994 0
M  V30 1410 H 140.566 -4.80465 4.45907 0
M  V30 1411 H 140.086 -5.29474 2.81811 0
M  V30 1412 H 141.765 -5.52558 3.36584 0
M  V30 1413 N 141.898 -0.863906 -1.31812 0
M  V30 1414 C 142.808 -0.318461 -2.32428 0
M  V30 1415 C 143.824 0.568496 -1.64451 0
M  V30 1416 O 145 0.46666 -1.95919 0
M  V30 1417 C 142.065 0.476355 -3.43412 0
M  V30 1418 C 141.126 -0.43784 -4.27061 0
M  V30 1419 C 140.359 0.319138 -5.32745 0
M  V30 1420 O 140.582 1.54799 -5.48993 0
M  V30 1421 O 139.516 -0.319861 -6.01049 0
M  V30 1422 H 143.342 -1.15229 -2.80991 0
M  V30 1423 H 140.927 -0.627103 -1.35602 0
M  V30 1424 H 142.809 0.927156 -4.11074 0
M  V30 1425 H 141.484 1.28683 -2.97022 0
M  V30 1426 H 140.391 -0.937013 -3.62175 0
M  V30 1427 H 141.724 -1.21375 -4.77 0
M  V30 1428 N 143.376 1.44774 -0.622745 0
M  V30 1429 C 144.792 1.56986 -0.287652 0
M  V30 1430 C 144.992 1.61167 1.20944 0
M  V30 1431 O 144.048 1.55015 1.99315 0
M  V30 1432 C 145.361 2.84551 -0.972188 0
M  V30 1433 C 146.909 2.9825 -0.949536 0
M  V30 1434 C 147.384 4.28605 -1.61437 0
M  V30 1435 N 148.875 4.35399 -1.58057 0
M  V30 1436 C 149.61 5.34964 -2.064 0
M  V30 1437 N 149.106 6.40981 -2.62897 0
M  V30 1438 N 150.899 5.26419 -1.97078 0
M  V30 1439 H 143.05 1.40304 -1.59463 0
M  V30 1440 H 145.313 0.671794 -0.668878 0
M  V30 1441 H 145.019 2.87417 -2.02693 0
M  V30 1442 H 144.893 3.73807 -0.504771 0
M  V30 1443 H 147.28 2.94941 0.0967067 0
M  V30 1444 H 147.361 2.10364 -1.45536 0
M  V30 1445 H 147.005 4.32672 -2.66002 0
M  V30 1446 H 146.935 5.15334 -1.08344 0
M  V30 1447 H 149.426 3.59397 -1.16801 0
M  V30 1448 H 149.739 7.13225 -2.97539 0
M  V30 1449 H 148.084 6.4169 -2.66943 0
M  V30 1450 H 151.275 4.42504 -1.52669 0
M  V30 1451 H 151.448 6.03861 -2.35066 0
M  V30 1452 N 144.854 0.36279 1.53368 0
M  V30 1453 C 145.784 -0.476976 2.28576 0
M  V30 1454 C 146.765 -1.08631 1.30894 0
M  V30 1455 O 147.95 -1.10409 1.59761 0
M  V30 1456 C 145.08 -1.61828 3.07293 0
M  V30 1457 C 144.034 -1.13633 4.1264 0
M  V30 1458 C 143.36 -2.36766 4.79423 0
M  V30 1459 C 144.66 -0.223061 5.21823 0
M  V30 1460 H 146.354 0.150474 2.99022 0
M  V30 1461 H 143.9 0.0738103 1.43811 0
M  V30 1462 H 145.853 -2.21237 3.58653 0
M  V30 1463 H 144.577 -2.27292 2.34533 0
M  V30 1464 H 143.236 -0.564945 3.62221 0
M  V30 1465 H 142.884 -3.0068 4.03238 0
M  V30 1466 H 142.584 -2.05192 5.50609 0
M  V30 1467 H 144.108 -2.96865 5.33576 0
M  V30 1468 H 145.522 -0.724545 5.68703 0
M  V30 1469 H 143.919 0.001678 6.001 0
M  V30 1470 H 144.989 0.735553 4.79289 0
M  V30 1471 N 146.332 -1.57332 0.0918853 0
M  V30 1472 C 147.279 -2.13847 -0.868211 0
M  V30 1473 C 148.249 -1.05618 -1.28196 0
M  V30 1474 O 149.434 -1.33387 -1.36427 0
M  V30 1475 C 146.574 -2.72062 -2.12312 0
M  V30 1476 C 145.687 -3.94514 -1.7602 0
M  V30 1477 C 144.822 -4.40903 -2.96273 0
M  V30 1478 C 143.861 -5.55953 -2.56092 0
M  V30 1479 N 142.998 -5.97209 -3.69169 0
M  V30 1480 H 147.838 -2.95575 -0.379406 0
M  V30 1481 H 145.375 -1.46048 -0.175606 0
M  V30 1482 H 147.333 -3.03931 -2.858 0
M  V30 1483 H 145.963 -1.93068 -2.58698 0
M  V30 1484 H 145.015 -3.68979 -0.925135 0
M  V30 1485 H 146.327 -4.7802 -1.42472 0
M  V30 1486 H 145.481 -4.74539 -3.78018 0
M  V30 1487 H 144.22 -3.56291 -3.33029 0
M  V30 1488 H 143.225 -5.21948 -1.72773 0
M  V30 1489 H 144.45 -6.42311 -2.20484 0
M  V30 1490 H 142.396 -5.15543 -4.05649 0
M  V30 1491 H 142.313 -6.75504 -3.39456 0
M  V30 1492 H 143.581 -6.35475 -4.51434 0
M  V30 1493 N 147.81 0.181792 -1.56548 0
M  V30 1494 C 148.758 1.24461 -1.965 0
M  V30 1495 C 149.752 1.464 -0.852261 0
M  V30 1496 O 150.958 1.47103 -1.03733 0
M  V30 1497 H 147.333 0.418138 -0.625031 0
M  V30 1498 H 149.304 0.880714 -2.85107 0
M  V30 1499 C 148.053 2.57891 -2.33212 0
M  V30 1500 H 147.376 2.41829 -3.18369 0
M  V30 1501 H 148.816 3.3097 -2.65019 0
M  V30 1502 C 147.275 3.15871 -1.17163 0
M  V30 1503 O 147.805 3.9913 -0.453708 0
M  V30 1504 N 146.011 2.74808 -0.944936 0
M  V30 1505 H 145.558 2.07205 -1.53049 0
M  V30 1506 H 145.516 3.13939 -0.170286 0
M  V30 1507 N 149.288 1.51039 0.449983 0
M  V30 1508 C 150.198 1.74261 1.57067 0
M  V30 1509 C 151.214 0.626363 1.62335 0
M  V30 1510 O 152.39 0.907162 1.79812 0
M  V30 1511 C 149.455 1.85114 2.93144 0
M  V30 1512 C 148.516 3.0893 2.98095 0
M  V30 1513 C 147.749 3.19256 4.27681 0
M  V30 1514 O 147.972 2.35835 5.19363 0
M  V30 1515 O 146.906 4.12144 4.38658 0
M  V30 1516 H 150.732 2.69303 1.40391 0
M  V30 1517 H 148.317 1.35389 0.631688 0
M  V30 1518 H 150.199 1.94311 3.73926 0
M  V30 1519 H 148.874 0.932588 3.09975 0
M  V30 1520 H 147.781 3.0522 2.16314 0
M  V30 1521 H 149.114 4.00433 2.86206 0
M  V30 1522 N 150.766 -0.704594 1.40972 0
M  V30 1523 C 152.014 -1.46169 1.39568 0
M  V30 1524 C 152.335 -1.95 0.00253745 0
M  V30 1525 O 151.605 -1.71095 -0.954114 0
M  V30 1526 H 150.185 -0.542326 0.513704 0
M  V30 1527 H 152.847 -0.834553 1.76128 0
M  V30 1528 H 151.943 -2.32922 2.07735 0
M  V30 1529 N 152.244 -1.26651 -0.937939 0
M  V30 1530 C 153.207 -1.08546 -2.01867 0
M  V30 1531 C 154.207 -0.0327327 -1.60767 0
M  V30 1532 O 155.397 -0.276427 -1.71993 0
M  V30 1533 C 152.529 -0.651711 -3.34613 0
M  V30 1534 H 153.722 -2.04502 -2.1936 0
M  V30 1535 H 151.275 -1.09294 -1.11734 0
M  V30 1536 H 152.01 0.309696 -3.22818 0
M  V30 1537 H 151.795 -1.41189 -3.65798 0
M  V30 1538 H 153.285 -0.546973 -4.14002 0
M  V30 1539 N 153.722 1.14298 -1.08507 0
M  V30 1540 C 154.95 1.89219 -0.836876 0
M  V30 1541 C 155.365 1.78638 0.611054 0
M  V30 1542 O 154.722 1.14643 1.41998 0
M  V30 1543 C 154.773 3.39158 -1.25116 0
M  V30 1544 O 154.494 3.49449 -2.64229 0
M  V30 1545 C 155.995 4.31073 -1.03398 0
M  V30 1546 H 153.215 0.599328 -0.301739 0
M  V30 1547 H 155.759 1.44746 -1.44461 0
M  V30 1548 H 153.914 3.81251 -0.687514 0
M  V30 1549 H 154.328 4.42589 -2.81452 0
M  V30 1550 H 155.802 5.34646 -1.37323 0
M  V30 1551 H 156.279 4.3919 0.0289259 0
M  V30 1552 H 156.885 3.94738 -1.58311 0
M  V30 1553 N 155.201 0.870884 1.31352 0
M  V30 1554 C 156.447 0.482987 1.96965 0
M  V30 1555 C 156.78 -0.962462 1.68672 0
M  V30 1556 O 156.055 -1.6779 0.98371 0
M  V30 1557 C 156.338 0.741752 3.52378 0
M  V30 1558 C 156.191 2.2368 3.9024 0
M  V30 1559 C 157.51 0.208838 4.39604 0
M  V30 1560 H 154.629 0.176955 0.715441 0
M  V30 1561 H 157.271 1.09229 1.55464 0
M  V30 1562 H 155.421 0.223149 3.87859 0
M  V30 1563 H 157.093 2.82273 3.64856 0
M  V30 1564 H 155.336 2.70901 3.38814 0
M  V30 1565 H 156.007 2.3685 4.98604 0
M  V30 1566 H 158.483 0.652529 4.10952 0
M  V30 1567 H 157.359 0.419336 5.47296 0
M  V30 1568 H 157.62 -0.889275 4.33064 0
M  V30 1569 N 156.679 -1.44442 0.630414 0
M  V30 1570 C 157.626 -2.30678 -0.0749355 0
M  V30 1571 C 158.596 -1.4344 -0.837502 0
M  V30 1572 O 159.781 -1.72343 -0.818684 0
M  V30 1573 C 156.921 -3.28706 -1.05103 0
M  V30 1574 C 156.034 -4.31046 -0.286954 0
M  V30 1575 C 155.169 -5.16167 -1.2548 0
M  V30 1576 C 154.208 -6.10216 -0.479843 0
M  V30 1577 N 153.345 -6.88039 -1.39811 0
M  V30 1578 H 158.185 -2.90454 0.666386 0
M  V30 1579 H 155.722 -1.43107 0.340404 0
M  V30 1580 H 157.68 -3.84027 -1.63031 0
M  V30 1581 H 156.31 -2.70632 -1.75949 0
M  V30 1582 H 155.362 -3.78203 0.408243 0
M  V30 1583 H 156.674 -4.97794 0.316657 0
M  V30 1584 H 155.828 -5.76002 -1.90544 0
M  V30 1585 H 154.567 -4.49491 -1.89233 0
M  V30 1586 H 153.572 -5.49491 0.184295 0
M  V30 1587 H 154.797 -6.78928 0.152965 0
M  V30 1588 H 152.743 -6.24032 -2.02287 0
M  V30 1589 H 152.66 -7.51223 -0.848508 0
M  V30 1590 H 153.928 -7.52397 -2.03762 0
M  V30 1591 N 158.157 -0.370918 -1.53173 0
M  V30 1592 C 159.403 0.217423 -2.01631 0
M  V30 1593 C 159.736 1.47983 -1.25756 0
M  V30 1594 O 159.011 1.91274 -0.352764 0
M  V30 1595 C 159.294 0.503982 -3.56556 0
M  V30 1596 C 159.147 -0.77243 -4.43118 0
M  V30 1597 C 160.466 1.30234 -4.20389 0
M  V30 1598 H 157.585 0.0775486 -0.732909 0
M  V30 1599 H 160.227 -0.496863 -1.83388 0
M  V30 1600 H 158.377 1.11248 -3.72231 0
M  V30 1601 H 160.049 -1.4098 -4.39229 0
M  V30 1602 H 158.292 -1.39167 -4.10871 0
M  V30 1603 H 158.963 -0.526815 -5.4948 0
M  V30 1604 H 161.439 0.787546 -4.08579 0
M  V30 1605 H 160.315 1.47158 -5.28806 0
M  V30 1606 H 160.576 2.31237 -3.76805 0
M  V30 1607 N 159.635 1.57281 -0.100228 0
M  V30 1608 C 160.881 1.94826 0.563101 0
M  V30 1609 C 161.214 0.982475 1.67514 0
M  V30 1610 O 160.489 0.0164069 1.94493 0
M  V30 1611 C 160.772 3.42453 1.11346 0
M  V30 1612 C 160.625 4.498 0.00612081 0
M  V30 1613 C 161.944 3.91506 2.01024 0
M  V30 1614 H 159.063 0.708428 0.203221 0
M  V30 1615 H 161.705 1.8922 -0.171979 0
M  V30 1616 H 159.855 3.47361 1.7399 0
M  V30 1617 H 161.527 4.57 -0.628357 0
M  V30 1618 H 159.77 4.28756 -0.659581 0
M  V30 1619 H 160.441 5.50306 0.432109 0
M  V30 1620 H 162.917 3.88784 1.48278 0
M  V30 1621 H 161.793 4.95358 2.36457 0
M  V30 1622 H 162.054 3.31099 2.92961 0
M  V30 1623 N 161.113 -0.173488 1.56642 0
M  V30 1624 C 162.361 -0.888706 1.81512 0
M  V30 1625 C 162.682 -1.82875 0.676872 0
M  V30 1626 O 161.952 -1.93536 -0.303414 0
M  V30 1627 H 160.532 -0.331164 0.669582 0
M  V30 1628 H 163.194 -0.173823 1.94123 0
M  V30 1629 H 162.29 -1.46691 2.75478 0
M  V30 1630 N 162.591 -1.51276 -0.441967 0
M  V30 1631 C 163.501 -1.75092 -1.56141 0
M  V30 1632 C 164.517 -0.634963 -1.62001 0
M  V30 1633 O 165.693 -0.916686 -1.79329 0
M  V30 1634 C 162.758 -1.86666 -2.92158 0
M  V30 1635 C 161.819 -3.10506 -2.96453 0
M  V30 1636 C 161.052 -3.21519 -4.25982 0
M  V30 1637 O 161.275 -2.38586 -5.18105 0
M  V30 1638 O 160.209 -4.14465 -4.36466 0
M  V30 1639 H 164.035 -2.70044 -1.38961 0
M  V30 1640 H 161.62 -1.35722 -0.624499 0
M  V30 1641 H 163.502 -1.96292 -3.72891 0
M  V30 1642 H 162.177 -0.949014 -3.09476 0
M  V30 1643 H 161.084 -3.06363 -2.14692 0
M  V30 1644 H 162.417 -4.01945 -2.84079 0
M  V30 1645 N 164.069 0.697108 -1.41344 0
M  V30 1646 C 164.999 1.82353 -1.45841 0
M  V30 1647 C 165.98 1.67115 -0.317247 0
M  V30 1648 O 167.165 1.86871 -0.528474 0
M  V30 1649 C 164.295 3.20476 -1.33838 0
M  V30 1650 C 163.249 3.50415 -2.4575 0
M  V30 1651 C 162.575 4.87878 -2.18813 0
M  V30 1652 C 163.875 3.49546 -3.88091 0
M  V30 1653 H 165.569 1.78846 -2.40113 0
M  V30 1654 H 163.115 0.859028 -1.15571 0
M  V30 1655 H 165.068 3.98988 -1.35596 0
M  V30 1656 H 163.792 3.24604 -0.360498 0
M  V30 1657 H 162.451 2.74253 -2.43271 0
M  V30 1658 H 162.099 4.8863 -1.19371 0
M  V30 1659 H 161.799 5.08875 -2.93803 0
M  V30 1660 H 163.323 5.68702 -2.22284 0
M  V30 1661 H 164.737 4.18066 -3.92293 0
M  V30 1662 H 163.134 3.82075 -4.62751 0
M  V30 1663 H 164.204 2.48552 -4.16353 0
M  V30 1664 N 165.547 1.27147 0.931209 0
M  V30 1665 C 166.477 1.12081 2.04842 0
M  V30 1666 C 167.458 0.0232364 1.70084 0
M  V30 1667 O 168.643 0.197085 1.93197 0
M  V30 1668 C 165.773 0.76354 3.38803 0
M  V30 1669 C 164.727 1.81396 3.87659 0
M  V30 1670 C 164.053 1.31075 5.18385 0
M  V30 1671 C 165.353 3.21739 4.11438 0
M  V30 1672 H 167.047 2.05537 2.17703 0
M  V30 1673 H 164.593 0.989603 1.04608 0
M  V30 1674 H 166.546 0.644982 4.16435 0
M  V30 1675 H 165.27 -0.206727 3.25945 0
M  V30 1676 H 163.929 1.92136 3.12217 0
M  V30 1677 H 163.577 0.330037 5.01916 0
M  V30 1678 H 163.277 2.013 5.52044 0
M  V30 1679 H 164.801 1.20506 5.98591 0
M  V30 1680 H 166.215 3.14019 4.79651 0
M  V30 1681 H 164.612 3.89644 4.56397 0
M  V30 1682 H 165.682 3.67054 3.16859 0
M  V30 1683 N 167.025 -1.13721 1.09112 0
M  V30 1684 C 168.302 -1.81155 0.737706 0
M  V30 1685 C 168.682 -1.96253 -0.777683 0
M  V30 1686 O 168.03 -1.52807 -1.69889 0
M  V30 1687 C 168.24 -3.16392 1.47299 0
M  V30 1688 C 169.588 -3.91787 1.63671 0
M  V30 1689 O 170.612 -3.26005 1.43524 0
M  V30 1690 O 169.471 -5.0977 1.96969 0
M  V30 1691 H 166.565 -0.783518 0.26463 0
M  V30 1692 H 169.111 -1.20676 1.19312 0
M  V30 1693 H 167.883 -3.0061 2.50498 0
M  V30 1694 H 167.506 -3.8457 1.00953 0
M  V30 1695 N 168.503 -0.877838 -1.30888 0
M  V30 1696 C 169.413 -0.343096 -2.32078 0
M  V30 1697 C 170.429 0.551022 -1.65045 0
M  V30 1698 O 171.605 0.445854 -1.96403 0
M  V30 1699 C 168.67 0.439905 -3.43898 0
M  V30 1700 C 167.731 -0.483111 -4.26573 0
M  V30 1701 C 166.964 0.262616 -5.33053 0
M  V30 1702 O 167.187 1.48967 -5.50604 0
M  V30 1703 O 166.121 -0.383593 -6.00676 0
M  V30 1704 H 169.947 -1.18203 -2.79753 0
M  V30 1705 H 167.532 -0.64145 -1.34929 0
M  V30 1706 H 169.414 0.883504 -4.12034 0
M  V30 1707 H 168.089 1.25526 -2.98371 0
M  V30 1708 H 166.996 -0.975374 -3.61161 0
M  V30 1709 H 168.329 -1.26427 -4.75686 0
M  V30 1710 N 169.982 1.44106 -0.638065 0
M  V30 1711 C 170.945 2.29138 0.0531013 0
M  V30 1712 C 171.945 1.41409 0.765506 0
M  V30 1713 O 173.135 1.63206 0.609046 0
M  V30 1714 C 170.267 3.23144 1.08584 0
M  V30 1715 H 171.46 2.91739 -0.694883 0
M  V30 1716 H 169.013 1.51134 -0.398538 0
M  V30 1717 H 169.748 2.65408 1.86357 0
M  V30 1718 H 169.533 3.87804 0.578852 0
M  V30 1719 H 171.023 3.87004 1.56899 0
M  V30 1720 N 171.46 0.379036 1.52974 0
M  V30 1721 C 172.707 -0.206421 2.01445 0
M  V30 1722 C 173.035 -1.47668 1.26587 0
M  V30 1723 O 172.29 -1.92514 0.351675 0
M  V30 1724 C 172.589 -0.53096 3.53434 0
M  V30 1725 C 172.255 0.646546 4.46241 0
M  V30 1726 C 170.917 0.969604 4.7133 0
M  V30 1727 C 173.269 1.43479 5.01062 0
M  V30 1728 C 170.597 2.08263 5.48492 0
M  V30 1729 C 172.949 2.53834 5.7944 0
M  V30 1730 C 171.613 2.86659 6.02812 0
M  V30 1731 H 170.883 -0.0755349 0.73714 0
M  V30 1732 H 173.53 0.514271 1.84465 0
M  V30 1733 H 171.835 -1.33285 3.68432 0
M  V30 1734 H 173.532 -0.996417 3.88423 0
M  V30 1735 H 170.122 0.384734 4.2687 0
M  V30 1736 H 174.306 1.19844 4.81613 0
M  V30 1737 H 169.562 2.34078 5.64816 0
M  V30 1738 H 173.736 3.15319 6.20924 0
M  V30 1739 H 171.363 3.73026 6.62387 0
M  V30 1740 N 172.938 -1.57226 0.108567 0
M  V30 1741 C 173.848 -2.18292 -0.859401 0
M  V30 1742 C 174.864 -1.15612 -1.30038 0
M  V30 1743 O 176.04 -1.48039 -1.36552 0
M  V30 1744 C 173.105 -2.762 -2.09558 0
M  V30 1745 C 172.166 -3.93881 -1.70752 0
M  V30 1746 C 171.399 -4.49018 -2.88477 0
M  V30 1747 O 171.622 -4.03068 -4.036 0
M  V30 1748 O 170.556 -5.39852 -2.66164 0
M  V30 1749 H 174.382 -3.01441 -0.369769 0
M  V30 1750 H 171.967 -1.48945 -0.1165 0
M  V30 1751 H 173.849 -3.13156 -2.81978 0
M  V30 1752 H 172.524 -1.96089 -2.57548 0
M  V30 1753 H 171.431 -3.61713 -0.954714 0
M  V30 1754 H 172.764 -4.75396 -1.27513 0
M  V30 1755 N 174.416 0.165178 -1.56732 0
M  V30 1756 C 175.346 1.20651 -1.99914 0
M  V30 1757 C 176.327 1.45827 -0.875705 0
M  V30 1758 O 177.512 1.57057 -1.14223 0
M  V30 1759 C 174.642 2.54401 -2.36427 0
M  V30 1760 C 173.596 2.43782 -3.51787 0
M  V30 1761 C 172.922 3.82078 -3.7406 0
M  V30 1762 C 174.222 1.93732 -4.85041 0
M  V30 1763 H 175.916 0.847534 -2.87154 0
M  V30 1764 H 173.462 0.40625 -1.38151 0
M  V30 1765 H 175.415 3.27458 -2.65234 0
M  V30 1766 H 174.139 2.92098 -1.46103 0
M  V30 1767 H 172.798 1.73178 -3.23117 0
M  V30 1768 H 172.446 4.17179 -2.81017 0
M  V30 1769 H 172.146 3.7584 -4.51684 0
M  V30 1770 H 173.67 4.56712 -4.05274 0
M  V30 1771 H 175.084 2.56569 -5.12684 0
M  V30 1772 H 173.481 1.98428 -5.66345 0
M  V30 1773 H 174.551 0.891962 -4.76626 0
M  V30 1774 N 175.894 1.51508 0.433938 0
M  V30 1775 C 176.857 1.72473 1.50949 0
M  V30 1776 C 177.857 0.594725 1.49398 0
M  V30 1777 O 179.047 0.862315 1.5136 0
M  V30 1778 C 176.179 1.78431 2.90474 0
M  V30 1779 H 177.372 2.68467 1.33662 0
M  V30 1780 H 174.925 1.41549 0.662836 0
M  V30 1781 H 175.66 0.842645 3.13161 0
M  V30 1782 H 175.445 2.60558 2.93005 0
M  V30 1783 H 176.935 1.96479 3.68491 0
M  V30 1784 N 177.372 -0.689602 1.41712 0
M  V30 1785 C 178.319 -1.80345 1.44029 0
M  V30 1786 C 179.289 -1.63478 0.293948 0
M  V30 1787 O 180.474 -1.84244 0.495869 0
M  V30 1788 C 177.614 -3.18272 1.33405 0
M  V30 1789 C 176.727 -3.46529 2.57956 0
M  V30 1790 C 175.862 -4.74103 2.39582 0
M  V30 1791 C 174.901 -4.95347 3.5958 0
M  V30 1792 N 174.038 -6.14151 3.40239 0
M  V30 1793 H 178.878 -1.77698 2.39222 0
M  V30 1794 H 176.415 -0.867688 1.18784 0
M  V30 1795 H 178.373 -3.97956 1.25246 0
M  V30 1796 H 177.003 -3.2008 0.418164 0
M  V30 1797 H 176.055 -2.61207 2.76542 0
M  V30 1798 H 177.367 -3.58126 3.47199 0
M  V30 1799 H 176.521 -5.61853 2.28924 0
M  V30 1800 H 175.26 -4.64763 1.47805 0
M  V30 1801 H 174.265 -4.06044 3.70686 0
M  V30 1802 H 175.49 -5.06542 4.52318 0
M  V30 1803 H 173.436 -6.06013 2.51167 0
M  V30 1804 H 173.353 -6.26543 4.23061 0
M  V30 1805 H 174.621 -7.04619 3.33365 0
M  V30 1806 N 178.85 -1.27639 -0.924453 0
M  V30 1807 C 179.813 -1.10681 -2.00705 0
M  V30 1808 C 180.813 -0.0497823 -1.60723 0
M  V30 1809 O 182.003 -0.294654 -1.7169 0
M  V30 1810 C 179.135 -0.687164 -3.33902 0
M  V30 1811 H 180.328 -2.06817 -2.17179 0
M  V30 1812 H 177.881 -1.10473 -1.10569 0
M  V30 1813 H 178.616 0.275439 -3.23128 0
M  V30 1814 H 178.401 -1.45061 -3.6428 0
M  V30 1815 H 179.891 -0.590853 -4.13399 0
M  V30 1816 N 180.328 1.1314 -1.09713 0
M  V30 1817 C 181.258 2.20748 -0.761102 0
M  V30 1818 C 182.239 1.68061 0.262566 0
M  V30 1819 O 183.424 1.93765 0.129977 0
M  V30 1820 C 180.554 3.46812 -0.184054 0
M  V30 1821 C 179.508 4.12606 -1.13757 0
M  V30 1822 C 178.834 5.33031 -0.422083 0
M  V30 1823 C 180.134 4.59603 -2.48118 0
M  V30 1824 H 181.828 2.49113 -1.66082 0
M  V30 1825 H 179.374 1.19734 -0.799987 0
M  V30 1826 H 181.327 4.21353 0.0631215 0
M  V30 1827 H 180.051 3.17851 0.750868 0
M  V30 1828 H 178.71 3.40036 -1.37007 0
M  V30 1829 H 178.358 5.00335 0.517072 0
M  V30 1830 H 178.058 5.77999 -1.05788 0
M  V30 1831 H 179.582 6.10325 -0.183277 0
M  V30 1832 H 180.996 5.25552 -2.29059 0
M  V30 1833 H 179.393 5.15321 -3.07514 0
M  V30 1834 H 180.463 3.73971 -3.08665 0
M  V30 1835 N 181.806 0.884767 1.30421 0
M  V30 1836 C 182.769 0.356277 2.26414 0
M  V30 1837 C 183.769 -0.501124 1.52792 0
M  V30 1838 O 184.959 -0.30831 1.7145 0
M  V30 1839 C 182.091 -0.492316 3.37326 0
M  V30 1840 H 183.284 1.20389 2.74675 0
M  V30 1841 H 180.837 0.661607 1.41607 0
M  V30 1842 H 181.572 -1.36052 2.94381 0
M  V30 1843 H 181.357 0.121832 3.91911 0
M  V30 1844 H 182.847 -0.853871 4.08777 0
M  V30 1845 N 183.284 -1.43765 0.645699 0
M  V30 1846 C 184.231 -2.30745 -0.0504648 0
M  V30 1847 C 185.201 -1.4432 -0.822241 0
M  V30 1848 O 186.386 -1.73202 -0.800358 0
M  V30 1849 C 183.526 -3.29802 -1.0161 0
M  V30 1850 C 182.639 -4.31326 -0.241219 0
M  V30 1851 C 181.774 -5.17469 -1.19998 0
M  V30 1852 C 180.813 -6.10691 -0.415094 0
M  V30 1853 N 179.95 -6.89483 -1.32506 0
M  V30 1854 H 184.79 -2.8973 0.697155 0
M  V30 1855 H 182.327 -1.42738 0.355563 0
M  V30 1856 H 184.285 -3.85734 -1.58949 0
M  V30 1857 H 182.915 -2.72483 -1.73069 0
M  V30 1858 H 181.967 -3.77749 0.448334 0
M  V30 1859 H 183.279 -4.9743 0.369437 0
M  V30 1860 H 182.433 -5.7799 -1.84424 0
M  V30 1861 H 181.172 -4.51473 -1.84455 0
M  V30 1862 H 180.177 -5.49265 0.242565 0
M  V30 1863 H 181.402 -6.78727 0.224966 0
M  V30 1864 H 179.348 -6.26142 -1.95657 0
M  V30 1865 H 179.265 -7.52081 -0.768783 0
M  V30 1866 H 180.533 -7.54516 -1.9577 0
M  V30 1867 N 184.763 -0.387143 -1.52771 0
M  V30 1868 C 185.711 0.463953 -2.27926 0
M  V30 1869 C 186.705 1.06493 -1.31741 0
M  V30 1870 O 187.911 1.00565 -1.49287 0
M  V30 1871 H 184.286 0.16837 -0.732909 0
M  V30 1872 H 186.257 -0.19141 -2.97785 0
M  V30 1873 C 185.006 1.5803 -3.09713 0
M  V30 1874 H 184.329 1.12718 -3.83581 0
M  V30 1875 H 185.769 2.15008 -3.65442 0
M  V30 1876 C 184.228 2.53509 -2.2189 0
M  V30 1877 O 184.758 3.56863 -1.84422 0
M  V30 1878 N 182.964 2.23199 -1.86093 0
M  V30 1879 H 182.511 1.39185 -2.16761 0
M  V30 1880 H 182.469 2.87333 -1.27621 0
M  V30 1881 N 186.241 1.57166 -0.116904 0
M  V30 1882 C 187.189 2.16457 0.851418 0
M  V30 1883 C 188.183 1.11323 1.27686 0
M  V30 1884 O 189.389 1.2963 1.24884 0
M  V30 1885 H 185.764 0.69271 0.292672 0
M  V30 1886 H 187.735 2.96605 0.32685 0
M  V30 1887 C 186.484 2.77689 2.09246 0
M  V30 1888 H 185.807 3.58285 1.77402 0
M  V30 1889 H 187.247 3.22716 2.7501 0
M  V30 1890 C 185.706 1.74667 2.88085 0
M  V30 1891 O 186.236 1.19877 3.83396 0
M  V30 1892 N 184.442 1.44656 2.52038 0
M  V30 1893 H 183.989 1.89402 1.74599 0
M  V30 1894 H 183.947 0.759675 3.05084 0
M  V30 1895 N 187.719 -0.156864 1.56817 0
M  V30 1896 C 189.13 -0.717916 1.72345 0
M  V30 1897 C 189.481 -1.82124 0.729747 0
M  V30 1898 O 188.606 -2.16141 -0.105781 0
M  V30 1899 C 189.201 -1.30904 3.12489 0
M  V30 1900 C 187.76 -1.81676 3.29653 0
M  V30 1901 C 186.907 -0.701349 2.68284 0
M  V30 1902 H 189.858 0.0686989 1.58551 0
M  V30 1903 H 189.879 -2.17882 3.11942 0
M  V30 1904 H 189.391 -0.505796 3.8479 0
M  V30 1905 H 187.492 -2.64598 2.62333 0
M  V30 1906 H 187.605 -1.95226 4.3752 0
M  V30 1907 H 185.969 -1.12548 2.28484 0
M  V30 1908 H 186.752 0.0902846 3.43181 0
M  V30 1909 N 189.197 -1.51736 -0.425897 0
M  V30 1910 C 190.445 -1.64644 -1.17204 0
M  V30 1911 C 190.766 -0.370486 -1.91448 0
M  V30 1912 O 190.036 0.614088 -1.86026 0
M  V30 1913 H 188.616 -0.606819 -0.435638 0
M  V30 1914 H 191.278 -1.88713 -0.487177 0
M  V30 1915 H 190.374 -2.47958 -1.89534 0
M  V30 1916 N 190.675 0.682077 -1.42076 0
M  V30 1917 C 191.921 1.44283 -1.43366 0
M  V30 1918 C 192.276 1.92344 -0.0465775 0
M  V30 1919 O 191.569 1.67517 0.929973 0
M  V30 1920 C 191.763 2.66036 -2.38662 0
M  V30 1921 C 191.592 2.29889 -3.86499 0
M  V30 1922 C 190.362 2.19599 -4.55087 0
M  V30 1923 C 192.56 1.91999 -4.77117 0
M  V30 1924 N 190.542 1.76478 -5.87987 0
M  V30 1925 C 191.913 1.59741 -5.99068 0
M  V30 1926 C 193.968 1.78927 -4.64639 0
M  V30 1927 C 192.671 1.15723 -7.0993 0
M  V30 1928 C 194.697 1.36314 -5.75476 0
M  V30 1929 C 194.059 1.04975 -6.96534 0
M  V30 1930 H 190.158 0.524739 -0.579805 0
M  V30 1931 H 192.742 0.787834 -1.78048 0
M  V30 1932 H 190.913 3.29237 -2.06053 0
M  V30 1933 H 192.645 3.32588 -2.30581 0
M  V30 1934 H 189.4 2.38433 -4.09202 0
M  V30 1935 H 189.824 1.57362 -6.58458 0
M  V30 1936 H 194.466 2.01805 -3.7153 0
M  V30 1937 H 192.184 0.91591 -8.02893 0
M  V30 1938 H 195.77 1.26731 -5.6783 0
M  V30 1939 H 194.65 0.725017 -7.80841 0
M  V30 1940 N 192.153 1.28127 0.917671 0
M  V30 1941 C 193.399 1.15223 1.66888 0
M  V30 1942 C 193.732 -0.299293 1.9188 0
M  V30 1943 O 193.007 -1.21805 1.51637 0
M  V30 1944 C 193.29 1.94706 3.02922 0
M  V30 1945 C 193.143 3.47898 2.85109 0
M  V30 1946 C 194.462 1.75939 4.03402 0
M  V30 1947 H 191.581 0.419946 0.605652 0
M  V30 1948 H 194.223 1.57398 1.06423 0
M  V30 1949 H 192.373 1.58864 3.54534 0
M  V30 1950 H 194.045 3.93624 2.40537 0
M  V30 1951 H 192.288 3.7373 2.20246 0
M  V30 1952 H 192.959 3.98765 3.81694 0
M  V30 1953 H 195.435 2.07209 3.60837 0
M  V30 1954 H 194.311 2.33931 4.96556 0
M  V30 1955 H 194.572 0.709877 4.36364 0
M  V30 1956 N 193.631 -1.12557 1.10312 0
M  V30 1957 C 194.861 -1.87592 0.865617 0
M  V30 1958 C 195.269 -1.79851 -0.587389 0
M  V30 1959 O 194.612 -1.16949 -1.41664 0
M  V30 1960 C 194.674 -3.37665 1.23381 0
M  V30 1961 C 194.338 -3.69181 2.69359 0
M  V30 1962 C 195.335 -3.67652 3.67597 0
M  V30 1963 C 193.02 -3.98555 3.05711 0
M  V30 1964 C 195.014 -3.95053 5.00212 0
M  V30 1965 C 192.701 -4.25616 4.38514 0
M  V30 1966 C 193.699 -4.23851 5.35574 0
M  V30 1967 O 193.387 -4.50242 6.65986 0
M  V30 1968 H 193.119 -0.600442 0.310557 0
M  V30 1969 H 195.673 -1.4335 1.47105 0
M  V30 1970 H 193.903 -3.82454 0.571467 0
M  V30 1971 H 195.592 -3.94041 0.973994 0
M  V30 1972 H 196.358 -3.45024 3.40857 0
M  V30 1973 H 192.237 -3.99071 2.30789 0
M  V30 1974 H 195.781 -3.93591 5.75962 0
M  V30 1975 H 191.678 -4.47718 4.64994 0
M  V30 1976 H 192.446 -4.67867 6.71597 0
M  V30 1977 N 195.109 -0.891671 -1.2995 0
M  V30 1978 C 196.358 -0.509521 -1.95158 0
M  V30 1979 C 196.671 0.947388 -1.71125 0
M  V30 1980 O 197.877 1.43669 -2.30372 0
M  V30 1981 C 196.333 -0.860315 -3.49466 0
M  V30 1982 C 195.941 -2.33545 -3.8231 0
M  V30 1983 C 197.685 -0.547687 -4.20952 0
M  V30 1984 C 195.592 -2.62752 -5.29826 0
M  V30 1985 H 194.522 -0.18682 -0.730489 0
M  V30 1986 H 197.173 -1.08756 -1.47798 0
M  V30 1987 H 195.555 -0.211285 -3.95436 0
M  V30 1988 H 196.729 -3.02936 -3.47227 0
M  V30 1989 H 195.044 -2.61629 -3.23944 0
M  V30 1990 H 197.641 -0.742854 -5.29515 0
M  V30 1991 H 197.984 0.51332 -4.13123 0
M  V30 1992 H 198.517 -1.1542 -3.80688 0
M  V30 1993 H 195.256 -3.6762 -5.42712 0
M  V30 1994 H 194.776 -1.97977 -5.66185 0
M  V30 1995 H 196.455 -2.48601 -5.97333 0
M  V30 1996 N 196.587 1.43421 -0.653314 0
M  V30 1997 C 197.998 1.85065 -0.246537 0
M  V30 1998 C 198.349 1.54688 1.2069 0
M  V30 1999 O 197.474 0.995896 1.92122 0
M  V30 2000 C 198.069 3.35922 -0.440666 0
M  V30 2001 C 196.628 3.76297 -0.0882064 0
M  V30 2002 C 195.775 2.67147 -0.743484 0
M  V30 2003 H 198.726 1.33572 -0.856979 0
M  V30 2004 H 198.747 3.79204 0.313798 0
M  V30 2005 H 198.259 3.58 -1.49858 0
M  V30 2006 H 196.36 3.5983 0.96711 0
M  V30 2007 H 196.473 4.76338 -0.513738 0
M  V30 2008 H 194.837 2.54086 -0.176712 0
M  V30 2009 H 195.62 2.92053 -1.80443 0
M  V30 2010 N 198.065 0.39524 1.52563 0
M  V30 2011 C 199.476 -0.0774719 1.86539 0
M  V30 2012 C 199.827 -1.45641 1.31466 0
M  V30 2013 O 198.952 -2.06459 0.648367 0
M  V30 2014 C 199.547 -0.147356 3.38479 0
M  V30 2015 C 198.106 -0.564373 3.72145 0
M  V30 2016 C 197.253 0.269919 2.75983 0
M  V30 2017 H 200.204 0.612876 1.46388 0
M  V30 2018 H 200.225 -0.965343 3.68051 0
M  V30 2019 H 199.737 0.856387 3.78534 0
M  V30 2020 H 197.838 -1.57527 3.37663 0
M  V30 2021 H 197.951 -0.318402 4.78041 0
M  V30 2022 H 196.315 -0.265696 2.5331 0
M  V30 2023 H 197.098 1.27175 3.18875 0
M  V30 2024 N 199.544 -1.57102 0.125237 0
M  V30 2025 C 200.791 -1.95407 -0.531248 0
M  V30 2026 C 201.119 -1.0089 -1.66287 0
M  V30 2027 O 200.374 -0.0339431 -1.95671 0
M  V30 2028 C 200.673 -3.40096 -1.09862 0
M  V30 2029 C 200.339 -4.50815 -0.0876989 0
M  V30 2030 C 199.001 -4.80824 0.19026 0
M  V30 2031 C 201.353 -5.17724 0.600902 0
M  V30 2032 C 198.681 -5.75058 1.163 0
M  V30 2033 C 201.033 -6.13005 1.56231 0
M  V30 2034 C 199.697 -6.41403 1.8482 0
M  V30 2035 H 198.967 -0.715046 -0.194397 0
M  V30 2036 H 201.614 -1.90373 0.207463 0
M  V30 2037 H 199.919 -3.41855 -1.91422 0
M  V30 2038 H 201.616 -3.6705 -1.61478 0
M  V30 2039 H 198.206 -4.27444 -0.314528 0
M  V30 2040 H 202.39 -4.94691 0.399333 0
M  V30 2041 H 197.646 -5.95362 1.39117 0
M  V30 2042 H 201.82 -6.63934 2.10153 0
M  V30 2043 H 199.447 -7.14229 2.60349 0
M  V30 2044 N 201.022 0.148545 -1.56898 0
M  V30 2045 C 202.299 0.890019 -1.74178 0
M  V30 2046 C 202.679 1.99407 -0.692839 0
M  V30 2047 O 202.027 2.26671 0.288505 0
M  V30 2048 C 202.237 1.43389 -3.18183 0
M  V30 2049 C 203.585 1.89791 -3.79822 0
M  V30 2050 O 204.609 1.53134 -3.21603 0
M  V30 2051 O 203.468 2.57387 -4.82093 0
M  V30 2052 H 200.562 0.420496 -0.712118 0
M  V30 2053 H 203.108 0.134591 -1.69165 0
M  V30 2054 H 201.88 0.640383 -3.86024 0
M  V30 2055 H 201.503 2.25287 -3.27615 0
M  V30 2056 N 202.5 1.5196 0.417844 0
M  V30 2057 C 203.777 1.56146 1.17803 0
M  V30 2058 C 204.157 0.337275 2.08388 0
M  V30 2059 O 203.505 -0.676447 2.18258 0
M  V30 2060 C 203.715 2.88566 1.96293 0
M  V30 2061 C 205.063 3.41244 2.52662 0
M  V30 2062 O 206.087 2.90247 2.06483 0
M  V30 2063 O 204.946 4.30273 3.36938 0
M  V30 2064 H 202.04 0.628598 0.537395 0
M  V30 2065 H 204.586 1.64283 0.425331 0
M  V30 2066 H 203.358 3.69116 1.2988 0
M  V30 2067 H 202.981 2.83681 2.78587 0
M  V30 2068 N 203.978 -0.674533 1.42435 0
M  V30 2069 C 205.389 -1.25514 1.38214 0
M  V30 2070 C 205.74 -1.96055 0.0755464 0
M  V30 2071 O 204.865 -2.00028 -0.8257 0
M  V30 2072 C 205.46 -2.28269 2.50357 0
M  V30 2073 C 204.019 -2.81856 2.49467 0
M  V30 2074 C 203.166 -1.56182 2.29134 0
M  V30 2075 H 206.117 -0.467902 1.51646 0
M  V30 2076 H 206.138 -3.10009 2.20624 0
M  V30 2077 H 205.65 -1.769 3.45439 0
M  V30 2078 H 203.751 -3.37346 1.58204 0
M  V30 2079 H 203.864 -3.30854 3.46515 0
M  V30 2080 H 202.228 -1.82761 1.774 0
M  V30 2081 H 203.011 -1.06778 3.26272 0
M  V30 2082 N 205.456 -1.28612 -0.910864 0
M  V30 2083 C 206.386 -1.15326 -2.03032 0
M  V30 2084 C 207.367 -0.0502924 -1.70026 0
M  V30 2085 O 208.552 -0.227797 -1.92859 0
M  V30 2086 C 205.682 -0.817343 -3.37545 0
M  V30 2087 C 204.636 -1.8754 -3.84724 0
M  V30 2088 C 203.962 -1.39305 -5.16235 0
M  V30 2089 C 205.262 -3.28244 -4.06267 0
M  V30 2090 H 206.956 -2.08975 -2.14406 0
M  V30 2091 H 204.502 -1.00612 -1.03021 0
M  V30 2092 H 206.455 -0.711151 -4.15356 0
M  V30 2093 H 205.179 0.154846 -3.26233 0
M  V30 2094 H 203.838 -1.97079 -3.09121 0
M  V30 2095 H 203.486 -0.409846 -5.01328 0
M  V30 2096 H 203.186 -2.10057 -5.48771 0
M  V30 2097 H 204.71 -1.30014 -5.96598 0
M  V30 2098 H 206.124 -3.21611 -4.74594 0
M  V30 2099 H 204.521 -3.96855 -4.5014 0
M  V30 2100 H 205.591 -3.72048 -3.10979 0
M  V30 2101 N 206.934 1.1197 -1.10907 0
M  V30 2102 C 208.183 1.82947 -0.849302 0
M  V30 2103 C 208.496 1.85275 0.627112 0
M  V30 2104 O 209.702 2.52296 1.00295 0
M  V30 2105 C 208.158 3.28529 -1.46959 0
M  V30 2106 C 207.766 3.34546 -2.97965 0
M  V30 2107 C 209.51 4.04443 -1.28942 0
M  V30 2108 C 207.417 4.74491 -3.53004 0
M  V30 2109 H 206.347 0.685477 -0.314065 0
M  V30 2110 H 208.998 1.2604 -1.33365 0
M  V30 2111 H 207.38 3.85333 -0.912917 0
M  V30 2112 H 208.554 2.87654 -3.59989 0
M  V30 2113 H 206.869 2.72108 -3.15192 0
M  V30 2114 H 209.466 5.07787 -1.67502 0
M  V30 2115 H 209.809 4.15656 -0.231456 0
M  V30 2116 H 210.342 3.5401 -1.81443 0
M  V30 2117 H 207.081 4.68474 -4.58489 0
M  V30 2118 H 206.601 5.21816 -2.9575 0
M  V30 2119 H 208.28 5.4344 -3.51115 0
M  V30 2120 N 208.412 0.89855 1.29475 0
M  V30 2121 C 209.658 0.534065 1.96263 0
M  V30 2122 C 210.013 -0.909415 1.69551 0
M  V30 2123 O 209.306 -1.63596 0.997349 0
M  V30 2124 C 209.5 0.761398 3.49195 0
M  V30 2125 C 209.329 2.22542 3.90775 0
M  V30 2126 C 208.099 2.87264 4.15701 0
M  V30 2127 C 210.297 3.20051 4.02581 0
M  V30 2128 N 208.279 4.24121 4.4384 0
M  V30 2129 C 209.65 4.42023 4.34759 0
M  V30 2130 C 211.705 3.15657 3.85052 0
M  V30 2131 C 210.408 5.60161 4.51235 0
M  V30 2132 C 212.434 4.33078 4.02737 0
M  V30 2133 C 211.796 5.5382 4.35273 0
M  V30 2134 H 207.895 0.245013 0.742625 0
M  V30 2135 H 210.479 1.15912 1.56437 0
M  V30 2136 H 208.65 0.165732 3.88046 0
M  V30 2137 H 210.382 0.362462 4.03074 0
M  V30 2138 H 207.137 2.38064 4.09417 0
M  V30 2139 H 207.561 4.94839 4.6202 0
M  V30 2140 H 212.203 2.23396 3.58962 0
M  V30 2141 H 209.921 6.52913 4.76162 0
M  V30 2142 H 213.507 4.31163 3.90628 0
M  V30 2143 H 212.387 6.43166 4.48672 0
M  V30 2144 N 209.89 -1.43072 0.660911 0
M  V30 2145 C 210.8 -2.34585 -0.0264163 0
M  V30 2146 C 211.816 -1.54316 -0.803898 0
M  V30 2147 O 212.992 -1.86939 -0.749391 0
M  V30 2148 C 210.057 -3.32689 -0.975639 0
M  V30 2149 C 209.118 -4.2886 -0.194236 0
M  V30 2150 C 208.351 -5.22278 -1.09825 0
M  V30 2151 O 208.574 -5.20299 -2.33763 0
M  V30 2152 O 207.508 -5.99228 -0.566513 0
M  V30 2153 H 211.334 -2.94869 0.727034 0
M  V30 2154 H 208.919 -1.43342 0.42111 0
M  V30 2155 H 210.801 -3.92995 -1.52094 0
M  V30 2156 H 209.476 -2.74898 -1.70918 0
M  V30 2157 H 208.383 -3.72011 0.394835 0
M  V30 2158 H 209.716 -4.89655 0.499899 0
M  V30 2159 N 211.368 -0.403325 -1.52352 0
M  V30 2160 C 212.616 0.174003 -2.0135 0
M  V30 2161 C 212.937 1.46139 -1.29106 0
M  V30 2162 O 212.207 1.91448 -0.415253 0
M  V30 2163 H 210.787 0.0672911 -0.743963 0
M  V30 2164 H 213.449 -0.538235 -1.87321 0
M  V30 2165 H 212.545 0.374254 -3.09848 0
M  V30 2166 N 212.846 1.57033 -0.133567 0
M  V30 2167 C 213.796 2.12641 0.822671 0
M  V30 2168 C 214.78 1.05081 1.21847 0
M  V30 2169 O 215.972 1.31287 1.18713 0
M  V30 2170 C 213.101 2.74094 2.06706 0
M  V30 2171 C 212.187 3.88757 1.69497 0
M  V30 2172 N 212.578 4.95194 1.03037 0
M  V30 2173 C 210.876 3.99213 1.98859 0
M  V30 2174 C 211.577 5.75414 0.852873 0
M  V30 2175 N 210.553 5.25726 1.3825 0
M  V30 2176 H 214.355 2.92308 0.305537 0
M  V30 2177 H 211.869 1.62256 0.0684276 0
M  V30 2178 H 213.866 3.12285 2.76195 0
M  V30 2179 H 212.526 1.95896 2.5895 0
M  V30 2180 H 213.537 5.13247 0.692669 0
M  V30 2181 H 210.214 3.32075 2.53047 0
M  V30 2182 H 211.604 6.71089 0.330091 0
M  V30 2183 N 214.325 -0.140222 1.56975 0
M  V30 2184 C 215.288 -1.15689 1.97861 0
M  V30 2185 C 216.288 -1.3549 0.865974 0
M  V30 2186 O 217.478 -1.32367 1.13246 0
M  V30 2187 C 214.61 -2.51582 2.30042 0
M  V30 2188 H 215.803 -0.805971 2.88867 0
M  V30 2189 H 213.356 -0.383801 1.51515 0
M  V30 2190 H 214.091 -2.91632 1.41849 0
M  V30 2191 H 213.876 -2.38569 3.11171 0
M  V30 2192 H 215.366 -3.24792 2.62488 0
M  V30 2193 N 215.803 -1.52179 -0.40978 0
M  V30 2194 C 217.028 -1.70347 -1.18308 0
M  V30 2195 C 217.453 -0.411887 -1.83535 0
M  V30 2196 O 216.811 0.630587 -1.6998 0
M  V30 2197 C 216.859 -2.83977 -2.22238 0
M  V30 2198 O 215.963 -2.495 -3.28365 0
M  V30 2199 H 215.304 -0.567103 -0.345384 0
M  V30 2200 H 217.834 -1.98879 -0.480445 0
M  V30 2201 H 217.844 -3.0887 -2.66577 0
M  V30 2202 H 216.519 -3.77685 -1.74146 0
M  V30 2203 H 215.096 -2.35277 -2.89308 0
M  V30 2204 N 217.281 0.66697 -1.42791 0
M  V30 2205 C 218.53 1.42278 -1.42968 0
M  V30 2206 C 218.843 1.9553 -0.0524489 0
M  V30 2207 O 220.049 2.71414 0.068363 0
M  V30 2208 C 218.505 2.57418 -2.51524 0
M  V30 2209 C 218.113 2.10832 -3.9529 0
M  V30 2210 C 219.857 3.34878 -2.60877 0
M  V30 2211 C 217.764 3.23101 -4.95338 0
M  V30 2212 H 216.694 0.534533 -0.531781 0
M  V30 2213 H 219.345 0.721302 -1.68729 0
M  V30 2214 H 217.727 3.29971 -2.18941 0
M  V30 2215 H 218.901 1.4538 -4.37266 0
M  V30 2216 H 217.216 1.46289 -3.89857 0
M  V30 2217 H 219.813 4.18505 -3.32802 0
M  V30 2218 H 220.156 3.81993 -1.6549 0
M  V30 2219 H 220.689 2.69398 -2.92693 0
M  V30 2220 H 217.428 2.80969 -5.9223 0
M  V30 2221 H 216.948 3.87309 -4.57987 0
M  V30 2222 H 218.627 3.88447 -5.17415 0
M  V30 2223 N 218.759 1.29093 0.90403 0
M  V30 2224 C 220.005 1.16986 1.65656 0
M  V30 2225 C 220.338 -0.278925 1.92186 0
M  V30 2226 O 219.613 -1.2019 1.5292 0
M  V30 2227 C 219.896 1.97908 3.0084 0
M  V30 2228 C 219.749 3.50903 2.81403 0
M  V30 2229 C 221.068 1.80208 4.01513 0
M  V30 2230 H 218.187 0.426346 0.601164 0
M  V30 2231 H 220.829 1.58518 1.04747 0
M  V30 2232 H 218.979 1.62616 3.52829 0
M  V30 2233 H 220.651 3.96153 2.36348 0
M  V30 2234 H 218.894 3.76045 2.1627 0
M  V30 2235 H 219.565 4.02791 3.77443 0
M  V30 2236 H 222.041 2.11025 3.58619 0
M  V30 2237 H 220.917 2.39184 4.94047 0
M  V30 2238 H 221.178 0.756119 4.35586 0
M  V30 2239 N 220.237 -1.11381 1.11499 0
M  V30 2240 C 221.184 -2.17439 0.773887 0
M  V30 2241 C 222.154 -1.64132 -0.254899 0
M  V30 2242 O 223.339 -1.90345 -0.13168 0
M  V30 2243 C 220.479 -3.44373 0.223917 0
M  V30 2244 C 219.592 -4.1168 1.30934 0
M  V30 2245 C 218.727 -5.263 0.71984 0
M  V30 2246 C 217.766 -5.85493 1.78507 0
M  V30 2247 N 216.903 -6.91507 1.21502 0
M  V30 2248 H 221.743 -2.45962 1.68246 0
M  V30 2249 H 219.28 -1.20744 0.840191 0
M  V30 2250 H 221.238 -4.17047 -0.112921 0
M  V30 2251 H 219.868 -3.16232 -0.647851 0
M  V30 2252 H 218.92 -3.37073 1.76312 0
M  V30 2253 H 220.232 -4.51729 2.11524 0
M  V30 2254 H 219.386 -6.05785 0.333094 0
M  V30 2255 H 218.125 -4.87559 -0.117377 0
M  V30 2256 H 217.13 -5.04686 2.18111 0
M  V30 2257 H 218.355 -6.26301 2.62533 0
M  V30 2258 H 216.301 -6.54783 0.399455 0
M  V30 2259 H 216.218 -7.30214 1.95763 0
M  V30 2260 H 217.486 -7.74795 0.855181 0
M  V30 2261 N 221.715 -0.905404 -1.28997 0
M  V30 2262 C 222.625 -0.392246 -2.31298 0
M  V30 2263 C 223.641 0.515889 -1.66176 0
M  V30 2264 O 224.817 0.404093 -1.97304 0
M  V30 2265 C 221.882 0.36686 -3.44754 0
M  V30 2266 C 220.943 -0.573485 -4.25452 0
M  V30 2267 C 220.176 0.149488 -5.33491 0
M  V30 2268 O 220.399 1.37255 -5.5364 0
M  V30 2269 O 219.333 -0.510919 -5.99728 0
M  V30 2270 H 223.159 -1.2411 -2.77183 0
M  V30 2271 H 220.744 -0.669926 -1.33538 0
M  V30 2272 H 222.626 0.795907 -4.13816 0
M  V30 2273 H 221.301 1.19169 -3.00966 0
M  V30 2274 H 220.208 -1.05176 -3.59011 0
M  V30 2275 H 221.541 -1.36489 -4.72897 0
M  V30 2276 N 223.193 1.4272 -0.668489 0
M  V30 2277 C 224.123 2.335 -0.000100175 0
M  V30 2278 C 225.104 1.50328 0.795964 0
M  V30 2279 O 226.289 1.78949 0.754385 0
M  V30 2280 C 223.419 3.33874 0.956302 0
M  V30 2281 C 222.373 4.27152 0.269278 0
M  V30 2282 C 221.699 5.17684 1.33818 0
M  V30 2283 C 222.999 5.15373 -0.847805 0
M  V30 2284 H 224.693 2.89639 -0.758244 0
M  V30 2285 H 222.239 1.39269 -0.366079 0
M  V30 2286 H 224.192 3.9629 1.43292 0
M  V30 2287 H 222.916 2.76025 1.74579 0
M  V30 2288 H 221.575 3.66123 -0.187042 0
M  V30 2289 H 221.223 4.56165 2.1195 0
M  V30 2290 H 220.923 5.80918 0.883659 0
M  V30 2291 H 222.447 5.82974 1.81586 0
M  V30 2292 H 223.861 5.7151 -0.452681 0
M  V30 2293 H 222.258 5.87407 -1.22773 0
M  V30 2294 H 223.328 4.5415 -1.69929 0
M  V30 2295 N 224.671 0.411399 1.52136 0
M  V30 2296 C 225.618 -0.412975 2.27075 0
M  V30 2297 C 226.588 -1.03912 1.29582 0
M  V30 2298 O 227.773 -1.06296 1.58448 0
M  V30 2299 C 224.913 -1.52247 3.09701 0
M  V30 2300 C 224.026 -0.917021 4.22155 0
M  V30 2301 C 223.161 -1.9994 4.92135 0
M  V30 2302 C 222.2 -1.37101 5.96548 0
M  V30 2303 N 221.337 -2.39364 6.60038 0
M  V30 2304 H 226.177 0.232499 2.97092 0
M  V30 2305 H 223.714 0.126496 1.46555 0
M  V30 2306 H 225.672 -2.17674 3.55913 0
M  V30 2307 H 224.302 -2.13794 2.41851 0
M  V30 2308 H 223.354 -0.151742 3.80097 0
M  V30 2309 H 224.666 -0.418006 4.97045 0
M  V30 2310 H 223.82 -2.73088 5.41763 0
M  V30 2311 H 222.559 -2.53208 4.16818 0
M  V30 2312 H 221.564 -0.624873 5.46237 0
M  V30 2313 H 222.789 -0.845998 6.7381 0
M  V30 2314 H 220.735 -2.91759 5.87548 0
M  V30 2315 H 220.652 -1.9428 7.3061 0
M  V30 2316 H 221.92 -3.12074 7.14304 0
M  V30 2317 N 226.149 -1.5696 0.141893 0
M  V30 2318 C 227.059 -2.20066 -0.812905 0
M  V30 2319 C 228.075 -1.18344 -1.27557 0
M  V30 2320 O 229.251 -1.50902 -1.33381 0
M  V30 2321 C 226.316 -2.80583 -2.03652 0
M  V30 2322 C 225.377 -3.97414 -1.62359 0
M  V30 2323 C 224.61 -4.55036 -2.78887 0
M  V30 2324 O 224.833 -4.11538 -3.94959 0
M  V30 2325 O 223.767 -5.45376 -2.54653 0
M  V30 2326 H 227.593 -3.02157 -0.305746 0
M  V30 2327 H 225.178 -1.49159 -0.0848799 0
M  V30 2328 H 227.06 -3.19067 -2.75272 0
M  V30 2329 H 225.735 -2.01508 -2.5333 0
M  V30 2330 H 224.642 -3.63656 -0.877775 0
M  V30 2331 H 225.975 -4.77994 -1.17401 0
M  V30 2332 N 227.627 0.131896 -1.57047 0
M  V30 2333 C 228.855 0.856461 -1.88341 0
M  V30 2334 C 229.27 1.74042 -0.731757 0
M  V30 2335 O 228.627 1.80051 0.297945 0
M  V30 2336 C 228.678 1.70064 -3.18999 0
M  V30 2337 O 228.399 0.852278 -4.2973 0
M  V30 2338 C 229.9 2.53148 -3.63911 0
M  V30 2339 H 227.12 0.246885 -0.62393 0
M  V30 2340 H 229.664 0.120152 -2.04147 0
M  V30 2341 H 227.819 2.38984 -3.04902 0
M  V30 2342 H 228.233 1.43329 -5.04537 0
M  V30 2343 H 229.707 3.07931 -4.58129 0
M  V30 2344 H 230.184 3.29901 -2.89935 0
M  V30 2345 H 230.79 1.89492 -3.80753 0
M  V30 2346 N 229.106 1.52395 0.401703 0
M  V30 2347 C 230.036 1.79231 1.49661 0
M  V30 2348 C 231.017 0.643654 1.57452 0
M  V30 2349 O 232.202 0.889989 1.72606 0
M  V30 2350 C 229.332 1.94971 2.87409 0
M  V30 2351 C 228.286 3.10604 2.94465 0
M  V30 2352 C 227.612 3.11577 4.34538 0
M  V30 2353 C 228.912 4.49921 2.6527 0
M  V30 2354 H 230.606 2.70917 1.27454 0
M  V30 2355 H 228.152 1.30362 0.6117 0
M  V30 2356 H 230.105 2.12328 3.63999 0
M  V30 2357 H 228.829 0.999632 3.10926 0
M  V30 2358 H 227.488 2.93009 2.20321 0
M  V30 2359 H 227.136 2.14277 4.55076 0
M  V30 2360 H 226.836 3.89247 4.40183 0
M  V30 2361 H 228.36 3.31073 5.13053 0
M  V30 2362 H 229.774 4.67683 3.31581 0
M  V30 2363 H 228.171 5.29564 2.82281 0
M  V30 2364 H 229.241 4.57507 1.60671 0
M  V30 2365 N 230.584 -0.659388 1.43143 0
M  V30 2366 C 231.83 -1.41984 1.45644 0
M  V30 2367 C 232.185 -1.92245 0.0771718 0
M  V30 2368 O 231.478 -1.68976 -0.903205 0
M  V30 2369 C 231.672 -2.62206 2.42864 0
M  V30 2370 C 231.501 -2.23711 3.90107 0
M  V30 2371 C 230.271 -2.12332 4.58523 0
M  V30 2372 C 232.469 -1.84384 4.80112 0
M  V30 2373 N 230.451 -1.67102 5.9072 0
M  V30 2374 C 231.822 -1.5019 6.01534 0
M  V30 2375 C 233.877 -1.71512 4.67427 0
M  V30 2376 C 232.58 -1.04414 7.11681 0
M  V30 2377 C 234.606 -1.27142 5.77572 0
M  V30 2378 C 233.968 -0.938808 6.98116 0
M  V30 2379 H 230.067 -0.515448 0.588079 0
M  V30 2380 H 232.651 -0.759409 1.79279 0
M  V30 2381 H 230.822 -3.25917 2.11265 0
M  V30 2382 H 232.554 -3.28877 2.35843 0
M  V30 2383 H 229.309 -2.31893 4.12944 0
M  V30 2384 H 229.733 -1.46866 6.60878 0
M  V30 2385 H 234.375 -1.95868 3.74694 0
M  V30 2386 H 232.093 -0.788061 8.04248 0
M  V30 2387 H 235.679 -1.17681 5.69774 0
M  V30 2388 H 234.559 -0.6007 7.81896 0
M  V30 2389 N 232.062 -1.29571 -0.897171 0
M  V30 2390 C 232.972 -1.16808 -2.03453 0
M  V30 2391 C 233.988 -0.0907471 -1.73763 0
M  V30 2392 O 235.164 -0.303312 -1.99103 0
M  V30 2393 C 232.229 -0.848264 -3.36163 0
M  V30 2394 C 231.29 -2.0097 -3.79354 0
M  V30 2395 C 230.523 -1.70505 -5.05731 0
M  V30 2396 O 230.746 -0.62718 -5.66941 0
M  V30 2397 O 229.68 -2.5538 -5.45036 0
M  V30 2398 H 233.506 -2.12325 -2.17144 0
M  V30 2399 H 231.091 -1.09047 -1.02123 0
M  V30 2400 H 232.973 -0.684581 -4.15802 0
M  V30 2401 H 231.648 0.0771071 -3.23608 0
M  V30 2402 H 230.555 -2.22863 -3.00471 0
M  V30 2403 H 231.888 -2.91636 -3.96496 0
M  V30 2404 N 233.54 1.10788 -1.12088 0
M  V30 2405 C 234.487 2.17025 -0.785407 0
M  V30 2406 C 235.457 1.64265 0.246191 0
M  V30 2407 O 236.642 1.90412 0.121584 0
M  V30 2408 C 233.782 3.44249 -0.242177 0
M  V30 2409 C 232.895 4.1098 -1.33115 0
M  V30 2410 C 232.03 5.25911 -0.747741 0
M  V30 2411 C 231.069 5.84538 -1.81609 0
M  V30 2412 N 230.206 6.90853 -1.25167 0
M  V30 2413 H 235.046 2.45066 -1.69548 0
M  V30 2414 H 232.583 1.20297 -0.846582 0
M  V30 2415 H 234.541 4.17101 0.0908026 0
M  V30 2416 H 233.171 3.16571 0.631072 0
M  V30 2417 H 232.223 3.36133 -1.78097 0
M  V30 2418 H 233.535 4.50601 -2.13917 0
M  V30 2419 H 232.689 6.056 -0.365216 0
M  V30 2420 H 231.428 4.87614 0.0915188 0
M  V30 2421 H 230.433 5.03522 -2.20785 0
M  V30 2422 H 231.658 6.249 -2.6585 0
M  V30 2423 H 229.604 6.54562 -0.434174 0
M  V30 2424 H 229.521 7.29166 -1.99633 0
M  V30 2425 H 230.789 7.7433 -0.896259 0
M  V30 2426 N 235.018 0.912232 1.28515 0
M  V30 2427 C 236.429 0.591352 1.77087 0
M  V30 2428 C 236.78 -0.8933 1.74684 0
M  V30 2429 O 235.905 -1.69876 1.34056 0
M  V30 2430 C 236.5 1.06668 3.2157 0
M  V30 2431 C 235.059 0.79675 3.67871 0
M  V30 2432 C 234.206 1.23427 2.48316 0
M  V30 2433 H 237.157 1.09365 1.15 0
M  V30 2434 H 237.178 0.407455 3.78312 0
M  V30 2435 H 236.69 2.14726 3.23287 0
M  V30 2436 H 234.791 -0.270679 3.71616 0
M  V30 2437 H 234.904 1.40343 4.58084 0
M  V30 2438 H 233.268 0.653036 2.46186 0
M  V30 2439 H 234.051 2.32316 2.52753 0
M  V30 2440 N 236.496 -1.42363 0.676048 0
M  V30 2441 C 237.744 -2.01123 0.198437 0
M  V30 2442 C 238.065 -1.53731 -1.19966 0
M  V30 2443 O 237.335 -0.759518 -1.80577 0
M  V30 2444 H 235.915 -0.743678 0.0703721 0
M  V30 2445 H 238.577 -1.74263 0.872837 0
M  V30 2446 H 237.673 -3.11454 0.200686 0
M  V30 2447 N 237.974 -0.419461 -1.51915 0
M  V30 2448 C 238.937 0.389116 -2.25873 0
M  V30 2449 C 239.937 0.964924 -1.28631 0
M  V30 2450 O 241.127 0.842179 -1.52489 0
M  V30 2451 C 238.259 1.54874 -3.03689 0
M  V30 2452 H 239.452 -0.258799 -2.98781 0
M  V30 2453 H 237.005 -0.172209 -1.55348 0
M  V30 2454 H 237.74 2.23323 -2.35154 0
M  V30 2455 H 237.525 1.14223 -3.75094 0
M  V30 2456 H 239.015 2.12046 -3.59759 0
M  V30 2457 N 239.452 1.56882 -0.150215 0
M  V30 2458 C 240.701 1.95403 0.500071 0
M  V30 2459 C 241.014 1.03777 1.658 0
M  V30 2460 O 242.22 1.31889 2.37313 0
M  V30 2461 C 240.676 3.4738 0.941018 0
M  V30 2462 C 240.284 4.47596 -0.190158 0
M  V30 2463 C 242.028 3.9476 1.56091 0
M  V30 2464 C 239.935 5.90787 0.269237 0
M  V30 2465 H 238.865 0.729515 0.190588 0
M  V30 2466 H 241.516 1.81988 -0.235074 0
M  V30 2467 H 239.898 3.56138 1.73152 0
M  V30 2468 H 241.072 4.50536 -0.967157 0
M  V30 2469 H 239.387 4.10151 -0.718666 0
M  V30 2470 H 241.984 4.99181 1.9163 0
M  V30 2471 H 242.327 3.36494 2.45107 0
M  V30 2472 H 242.86 3.88932 0.835249 0
M  V30 2473 H 239.599 6.52879 -0.585621 0
M  V30 2474 H 239.119 5.912 1.01204 0
M  V30 2475 H 240.798 6.42979 0.720176 0
M  V30 2476 N 240.93 -0.123565 1.57115 0
M  V30 2477 C 241.893 -1.13583 1.99076 0
M  V30 2478 C 242.893 -1.34564 0.880296 0
M  V30 2479 O 244.083 -1.31158 1.14644 0
M  V30 2480 C 241.215 -2.49128 2.32698 0
M  V30 2481 H 242.408 -0.775287 2.89706 0
M  V30 2482 H 239.961 -0.36771 1.51913 0
M  V30 2483 H 240.696 -2.90111 1.44934 0
M  V30 2484 H 240.481 -2.35255 3.13684 0
M  V30 2485 H 241.971 -3.2199 2.65918 0
M  V30 2486 N 242.408 -1.52605 -0.393616 0
M  V30 2487 C 243.338 -1.80022 -1.48709 0
M  V30 2488 C 244.319 -0.651995 -1.57108 0
M  V30 2489 O 245.504 -0.89913 -1.72132 0
M  V30 2490 C 242.634 -1.96492 -2.86371 0
M  V30 2491 C 241.588 -3.12161 -2.92813 0
M  V30 2492 C 240.914 -3.13877 -4.3288 0
M  V30 2493 C 242.214 -4.51322 -2.6288 0
M  V30 2494 H 243.908 -2.71589 -1.26015 0
M  V30 2495 H 241.454 -1.30684 -0.604778 0
M  V30 2496 H 243.407 -2.14255 -3.62867 0
M  V30 2497 H 242.131 -1.01611 -3.10391 0
M  V30 2498 H 240.79 -2.94173 -2.18764 0
M  V30 2499 H 240.438 -2.16687 -4.53933 0
M  V30 2500 H 240.138 -3.91576 -4.38112 0
M  V30 2501 H 241.662 -3.33789 -5.1129 0
M  V30 2502 H 243.076 -4.69435 -3.29096 0
M  V30 2503 H 241.473 -5.31053 -2.79468 0
M  V30 2504 H 242.543 -4.58353 -1.58242 0
M  V30 2505 N 243.887 0.651787 -1.4349 0
M  V30 2506 C 245.112 1.44434 -1.48841 0
M  V30 2507 C 245.537 1.8779 -0.107955 0
M  V30 2508 O 244.895 1.57464 0.898602 0
M  V30 2509 C 244.943 2.65458 -2.44059 0
M  V30 2510 O 244.047 3.64566 -1.92784 0
M  V30 2511 H 243.388 0.433005 -0.503391 0
M  V30 2512 H 245.918 0.797451 -1.88419 0
M  V30 2513 H 245.928 3.13255 -2.6141 0
M  V30 2514 H 244.603 2.33244 -3.4434 0
M  V30 2515 H 243.18 3.23716 -1.851 0
M  V30 2516 N 245.365 1.30045 0.890287 0
M  V30 2517 C 246.611 1.18737 1.64406 0
M  V30 2518 C 246.944 -0.258525 1.92472 0
M  V30 2519 O 246.219 -1.18562 1.54186 0
M  V30 2520 C 246.502 2.01087 2.98724 0
M  V30 2521 C 246.355 3.53867 2.77665 0
M  V30 2522 C 247.674 1.84457 3.9958 0
M  V30 2523 H 244.793 0.432698 0.596608 0
M  V30 2524 H 247.435 1.5962 1.0306 0
M  V30 2525 H 245.585 1.66349 3.51084 0
M  V30 2526 H 247.257 3.98637 2.32133 0
M  V30 2527 H 245.5 3.78318 2.12269 0
M  V30 2528 H 246.171 4.06772 3.7315 0
M  V30 2529 H 248.647 2.14817 3.56361 0
M  V30 2530 H 247.523 2.44411 4.91482 0
M  V30 2531 H 247.784 0.802276 4.3476 0
M  V30 2532 N 246.843 -1.10192 1.12674 0
M  V30 2533 C 248.091 -1.81845 0.881861 0
M  V30 2534 C 248.412 -1.85737 -0.593867 0
M  V30 2535 O 247.682 -1.33724 -1.4316 0
M  V30 2536 H 246.262 -0.673432 0.323261 0
M  V30 2537 H 248.924 -1.33316 1.42172 0
M  V30 2538 H 248.02 -2.85288 1.2656 0
M  V30 2539 N 248.321 -0.919034 -1.28029 0
M  V30 2540 C 249.569 -0.553838 -1.94363 0
M  V30 2541 C 249.89 0.906357 -1.72656 0
M  V30 2542 O 249.16 1.64143 -1.0693 0
M  V30 2543 H 247.74 -0.201834 -0.719216 0
M  V30 2544 H 250.402 -1.16954 -1.55909 0
M  V30 2545 H 249.498 -0.752758 -3.02886 0
M  V30 2546 N 249.799 1.42003 -0.683588 0
M  V30 2547 C 251.047 2.01015 -0.209101 0
M  V30 2548 C 251.368 1.54365 1.19149 0
M  V30 2549 O 250.638 0.769083 1.80172 0
M  V30 2550 H 249.218 0.743294 -0.074315 0
M  V30 2551 H 251.88 1.73798 -0.882066 0
M  V30 2552 H 250.976 3.11343 -0.2172 0
M  V30 2553 N 251.277 0.427512 1.51691 0
M  V30 2554 C 252.525 -0.141948 2.01601 0
M  V30 2555 C 252.846 -1.44067 1.31414 0
M  V30 2556 O 252.116 -1.90763 0.445658 0
M  V30 2557 H 250.696 -0.0554468 0.744939 0
M  V30 2558 H 253.358 0.567968 1.86441 0
M  V30 2559 H 252.454 -0.324913 3.10404 0
M  V30 2560 N 252.755 -1.56801 0.158532 0
M  V30 2561 C 253.685 -2.20347 -0.772609 0
M  V30 2562 C 254.666 -1.15518 -1.24859 0
M  V30 2563 O 255.851 -1.43902 -1.30406 0
M  V30 2564 C 252.981 -2.83417 -2.00729 0
M  V30 2565 C 251.935 -3.94174 -1.66765 0
M  V30 2566 C 251.261 -4.44233 -2.97592 0
M  V30 2567 C 252.561 -5.14392 -0.905447 0
M  V30 2568 H 254.255 -2.98413 -0.242959 0
M  V30 2569 H 251.801 -1.43537 -0.115419 0
M  V30 2570 H 253.754 -3.26543 -2.6636 0
M  V30 2571 H 252.478 -2.02701 -2.56086 0
M  V30 2572 H 251.137 -3.51684 -1.03508 0
M  V30 2573 H 250.785 -3.60325 -3.50963 0
M  V30 2574 H 250.485 -5.18945 -2.75626 0
M  V30 2575 H 252.009 -4.90037 -3.64274 0
M  V30 2576 H 253.423 -5.5429 -1.46408 0
M  V30 2577 H 251.82 -5.9494 -0.7853 0
M  V30 2578 H 252.89 -4.84795 0.100668 0
M  V30 2579 N 254.233 0.115231 -1.57178 0
M  V30 2580 C 255.163 1.1423 -2.03651 0
M  V30 2581 C 256.144 1.42967 -0.921655 0
M  V30 2582 O 257.329 1.53343 -1.19162 0
M  V30 2583 C 254.459 2.4675 -2.44401 0
M  V30 2584 C 253.413 2.32467 -3.59365 0
M  V30 2585 C 252.739 3.69984 -3.86026 0
M  V30 2586 C 254.039 1.78203 -4.90959 0
M  V30 2587 H 255.733 0.755749 -2.89705 0
M  V30 2588 H 253.279 0.362093 -1.39373 0
M  V30 2589 H 255.232 3.18854 -2.75517 0
M  V30 2590 H 253.956 2.87302 -1.55322 0
M  V30 2591 H 252.615 1.62811 -3.28463 0
M  V30 2592 H 252.263 4.08028 -2.94147 0
M  V30 2593 H 251.963 3.61279 -4.63412 0
M  V30 2594 H 253.487 4.43587 -4.19599 0
M  V30 2595 H 254.901 2.40128 -5.20587 0
M  V30 2596 H 253.298 1.8031 -5.72371 0
M  V30 2597 H 254.368 0.739876 -4.79222 0
M  V30 2598 N 255.711 1.52812 0.385517 0
M  V30 2599 C 256.951 1.69716 1.13911 0
M  V30 2600 C 257.315 0.42962 1.87132 0
M  V30 2601 O 258.516 0.475071 2.64569 0
M  V30 2602 C 256.787 2.90021 2.0886 0
M  V30 2603 S 258.346 3.27531 2.92009 0
M  V30 2604 H 255.164 0.59739 0.385547 0
M  V30 2605 H 257.766 1.90868 0.423061 0
M  V30 2606 H 256.47 3.80493 1.53797 0
M  V30 2607 H 256.001 2.71213 2.84969 0
M  V30 2608 H 258.016 2.77989 4.11019 0
M  V30 2609 N 257.189 -0.644168 1.43834 0
M  V30 2610 C 258.437 -1.40117 1.45642 0
M  V30 2611 C 258.758 -1.94814 0.0852413 0
M  V30 2612 O 258.028 -1.74988 -0.880688 0
M  V30 2613 H 256.608 -0.52005 0.536243 0
M  V30 2614 H 259.27 -0.7591 1.7951 0
M  V30 2615 H 258.366 -2.23902 2.17427 0
M  V30 2616 N 258.668 -1.30515 -0.883378 0
M  V30 2617 C 259.914 -1.19607 -1.63774 0
M  V30 2618 C 260.247 0.248314 -1.92606 0
M  V30 2619 O 259.522 1.17742 -1.54813 0
M  V30 2620 C 259.805 -2.02669 -2.97653 0
M  V30 2621 C 259.658 -3.55335 -2.75784 0
M  V30 2622 C 260.977 -1.86573 -3.98596 0
M  V30 2623 H 258.096 -0.435856 -0.594305 0
M  V30 2624 H 260.738 -1.60165 -1.02212 0
M  V30 2625 H 258.888 -1.68208 -3.50197 0
M  V30 2626 H 260.56 -3.99863 -2.30016 0
M  V30 2627 H 258.803 -3.79438 -2.1026 0
M  V30 2628 H 259.474 -4.08745 -3.70988 0
M  V30 2629 H 261.95 -2.16703 -3.55217 0
M  V30 2630 H 260.826 -2.47014 -4.90179 0
M  V30 2631 H 261.087 -0.825321 -4.34328 0
M  V30 2632 N 260.146 1.09593 -1.13257 0
M  V30 2633 C 261.392 1.82003 -0.89458 0
M  V30 2634 C 261.725 1.85402 0.577906 0
M  V30 2635 O 261 1.32099 1.42759 0
M  V30 2636 C 261.283 3.28237 -1.48096 0
M  V30 2637 C 261.136 3.3312 -3.02244 0
M  V30 2638 C 262.455 4.24871 -1.14774 0
M  V30 2639 H 259.574 0.66077 -0.326424 0
M  V30 2640 H 262.216 1.28389 -1.40058 0
M  V30 2641 H 260.366 3.74024 -1.05062 0
M  V30 2642 H 262.038 2.95748 -3.54021 0
M  V30 2643 H 260.281 2.72756 -3.37323 0
M  V30 2644 H 260.952 4.3613 -3.38371 0
M  V30 2645 H 263.428 3.87361 -1.51957 0
M  V30 2646 H 262.304 5.25532 -1.58452 0
M  V30 2647 H 262.565 4.42058 -0.0611849 0
M  V30 2648 N 261.624 0.925811 1.2754 0
M  V30 2649 C 262.556 0.380753 2.26015 0
M  V30 2650 C 263.569 -0.487485 1.5533 0
M  V30 2651 O 264.758 -0.300413 1.75954 0
M  V30 2652 C 261.858 -0.473259 3.35579 0
M  V30 2653 C 261.031 0.375249 4.35787 0
M  V30 2654 C 260.09 -0.415809 5.24555 0
M  V30 2655 O 259.116 0.175834 5.68928 0
M  V30 2656 N 260.318 -1.71607 5.54555 0
M  V30 2657 H 263.083 1.22725 2.73421 0
M  V30 2658 H 260.644 0.793037 1.41147 0
M  V30 2659 H 262.636 -1.00949 3.91907 0
M  V30 2660 H 261.206 -1.2205 2.87789 0
M  V30 2661 H 260.426 1.09279 3.7875 0
M  V30 2662 H 261.714 0.955399 4.99749 0
M  V30 2663 H 261.112 -2.2191 5.20358 0
M  V30 2664 H 259.669 -2.19887 6.1359 0
M  V30 2665 N 263.102 -1.41638 0.69111 0
M  V30 2666 C 264.35 -2.00902 0.219758 0
M  V30 2667 C 264.671 -1.54994 -1.18329 0
M  V30 2668 O 263.941 -0.778628 -1.79762 0
M  V30 2669 H 262.521 -0.74289 0.0782558 0
M  V30 2670 H 265.183 -1.73327 0.891271 0
M  V30 2671 H 264.279 -3.11224 0.233708 0
M  V30 2672 N 264.58 -0.43555 -1.51462 0
M  V30 2673 C 265.51 0.367376 -2.30592 0
M  V30 2674 C 266.491 1.02263 -1.35928 0
M  V30 2675 O 267.676 1.02661 -1.64847 0
M  V30 2676 C 264.806 1.46983 -3.14664 0
M  V30 2677 C 263.76 0.938161 -4.17591 0
M  V30 2678 C 263.086 2.13622 -4.90173 0
M  V30 2679 C 264.386 -0.0261621 -5.22293 0
M  V30 2680 H 266.08 -0.292969 -2.97963 0
M  V30 2681 H 263.626 -0.14234 -1.43295 0
M  V30 2682 H 265.579 2.03873 -3.688 0
M  V30 2683 H 264.303 2.15843 -2.4511 0
M  V30 2684 H 262.962 0.391481 -3.64504 0
M  V30 2685 H 262.61 2.81098 -4.17124 0
M  V30 2686 H 262.31 1.78688 -5.59772 0
M  V30 2687 H 263.834 2.7107 -5.47132 0
M  V30 2688 H 265.248 0.452384 -5.71512 0
M  V30 2689 H 263.645 -0.287992 -5.99409 0
M  V30 2690 H 264.715 -0.963391 -4.75233 0
M  V30 2691 N 266.058 1.56714 -0.166846 0
M  V30 2692 C 266.99 2.14914 0.796537 0
M  V30 2693 C 268.003 1.10357 1.19688 0
M  V30 2694 O 269.192 1.37561 1.13751 0
M  V30 2695 C 266.292 2.67326 2.08303 0
M  V30 2696 C 265.465 3.96493 1.84696 0
M  V30 2697 C 264.524 4.34014 2.97521 0
M  V30 2698 O 263.55 5.01973 2.6835 0
M  V30 2699 N 264.752 3.95208 4.25196 0
M  V30 2700 H 267.517 2.98205 0.299006 0
M  V30 2701 H 265.078 1.61892 0.0160839 0
M  V30 2702 H 267.07 2.89428 2.82867 0
M  V30 2703 H 265.64 1.88649 2.4926 0
M  V30 2704 H 264.86 3.82814 0.940602 0
M  V30 2705 H 266.148 4.8086 1.66285 0
M  V30 2706 H 265.546 3.40487 4.51758 0
M  V30 2707 H 264.103 4.2232 4.96477 0
M  V30 2708 N 267.536 -0.106894 1.57237 0
M  V30 2709 C 268.446 -1.14911 2.0453 0
M  V30 2710 C 269.462 -1.44592 0.96795 0
M  V30 2711 O 270.638 -1.55468 1.2803 0
M  V30 2712 C 267.703 -2.45272 2.45036 0
M  V30 2713 C 266.764 -2.22879 3.66911 0
M  V30 2714 C 265.997 -3.47024 4.05475 0
M  V30 2715 O 266.22 -4.54804 3.44252 0
M  V30 2716 O 265.154 -3.3731 4.98504 0
M  V30 2717 H 268.98 -0.777461 2.9358 0
M  V30 2718 H 266.565 -0.318563 1.45964 0
M  V30 2719 H 268.447 -3.22055 2.71769 0
M  V30 2720 H 267.122 -2.81886 1.59129 0
M  V30 2721 H 266.029 -1.43915 3.45311 0
M  V30 2722 H 267.362 -1.91163 4.53561 0
M  V30 2723 N 269.014 -1.53014 -0.377408 0
M  V30 2724 C 270.26 -1.68872 -1.12294 0
M  V30 2725 C 270.593 -0.433224 -1.89306 0
M  V30 2726 O 269.868 0.569258 -1.85983 0
M  V30 2727 C 270.151 -2.93115 -2.09179 0
M  V30 2728 C 270.004 -4.28794 -1.35853 0
M  V30 2729 C 271.323 -3.12928 -3.09458 0
M  V30 2730 H 268.442 -0.614518 -0.406862 0
M  V30 2731 H 271.084 -1.85633 -0.40503 0
M  V30 2732 H 269.234 -2.78956 -2.70399 0
M  V30 2733 H 270.906 -4.54742 -0.775082 0
M  V30 2734 H 269.149 -4.28744 -0.660364 0
M  V30 2735 H 269.82 -5.11837 -2.06706 0
M  V30 2736 H 272.296 -3.26194 -2.58334 0
M  V30 2737 H 271.172 -4.01316 -3.74482 0
M  V30 2738 H 271.433 -2.27669 -3.78971 0
M  V30 2739 N 270.492 0.636531 -1.44174 0
M  V30 2740 C 271.74 1.39343 -1.46383 0
M  V30 2741 C 272.061 1.94766 -0.0955715 0
M  V30 2742 O 271.331 1.75452 0.871395 0
M  V30 2743 H 269.911 0.517199 -0.538994 0
M  V30 2744 H 272.573 0.74957 -1.7991 0
M  V30 2745 H 271.669 2.22746 -2.18611 0
M  V30 2746 N 271.97 1.30982 0.876444 0
M  V30 2747 C 273.216 1.21484 1.63136 0
M  V30 2748 C 273.571 -0.226339 1.91064 0
M  V30 2749 O 272.864 -1.15788 1.52656 0
M  V30 2750 C 273.058 1.98572 2.9716 0
M  V30 2751 C 272.887 3.50039 2.82317 0
M  V30 2752 C 271.657 4.19393 2.81847 0
M  V30 2753 C 273.855 4.45111 2.57644 0
M  V30 2754 N 271.837 5.57061 2.57985 0
M  V30 2755 C 273.208 5.70402 2.42986 0
M  V30 2756 C 275.263 4.3461 2.42937 0
M  V30 2757 C 273.966 6.8638 2.15115 0
M  V30 2758 C 275.992 5.50365 2.16454 0
M  V30 2759 C 275.354 6.74642 2.02578 0
M  V30 2760 H 271.453 0.499632 0.601575 0
M  V30 2761 H 274.037 1.65094 1.03209 0
M  V30 2762 H 272.208 1.5734 3.55104 0
M  V30 2763 H 273.94 1.81146 3.61895 0
M  V30 2764 H 270.695 3.71303 2.93991 0
M  V30 2765 H 271.119 6.29529 2.49043 0
M  V30 2766 H 275.761 3.39199 2.52396 0
M  V30 2767 H 273.479 7.81824 2.04394 0
M  V30 2768 H 277.065 5.44154 2.05884 0
M  V30 2769 H 275.945 7.62699 1.82374 0
M  V30 2770 N 273.449 -1.08991 1.13837 0
M  V30 2771 C 274.697 -1.80899 0.901098 0
M  V30 2772 C 275.018 -1.86356 -0.574134 0
M  V30 2773 O 274.288 -1.35235 -1.41733 0
M  V30 2774 H 272.868 -0.669966 0.330386 0
M  V30 2775 H 275.53 -1.318 1.43578 0
M  V30 2776 H 274.626 -2.83929 1.29578 0
M  V30 2777 N 274.927 -0.932562 -1.27047 0
M  V30 2778 C 276.204 -0.49377 -1.89265 0
M  V30 2779 C 276.584 1.02833 -1.8436 0
M  V30 2780 O 275.932 1.88461 -1.29209 0
M  V30 2781 C 276.142 -1.04536 -3.32976 0
M  V30 2782 C 277.49 -1.10879 -4.09867 0
M  V30 2783 O 278.514 -0.995327 -3.42011 0
M  V30 2784 O 277.373 -1.28417 -5.31198 0
M  V30 2785 H 274.467 -0.159596 -0.811454 0
M  V30 2786 H 277.013 -1.02457 -1.3528 0
M  V30 2787 H 275.785 -2.08913 -3.30864 0
M  V30 2788 H 275.408 -0.496494 -3.94488 0
M  V30 2789 N 276.405 1.4127 -0.698611 0
M  V30 2790 C 277.651 2.01478 -0.231207 0
M  V30 2791 C 277.984 1.55215 1.16713 0
M  V30 2792 O 277.259 0.764672 1.78838 0
M  V30 2793 C 277.542 3.58912 -0.292281 0
M  V30 2794 C 277.395 4.15293 -1.72778 0
M  V30 2795 C 278.714 4.38736 0.346194 0
M  V30 2796 H 275.833 0.732025 -0.0854878 0
M  V30 2797 H 278.475 1.67977 -0.887906 0
M  V30 2798 H 276.625 3.87582 0.26686 0
M  V30 2799 H 278.297 3.97486 -2.341 0
M  V30 2800 H 276.54 3.7022 -2.26096 0
M  V30 2801 H 277.211 5.24452 -1.72202 0
M  V30 2802 H 279.687 4.15897 -0.130035 0
M  V30 2803 H 278.563 5.48221 0.272932 0
M  V30 2804 H 278.824 4.18425 1.42734 0
M  V30 2805 N 277.883 0.443576 1.51229 0
M  V30 2806 C 279.294 -0.0180867 1.86691 0
M  V30 2807 C 279.645 -1.41384 1.36033 0
M  V30 2808 O 278.77 -2.04291 0.713722 0
M  V30 2809 C 279.365 -0.039597 3.38777 0
M  V30 2810 C 277.924 -0.445692 3.73752 0
M  V30 2811 C 277.071 0.357584 2.74985 0
M  V30 2812 H 280.022 0.659138 1.44364 0
M  V30 2813 H 280.043 -0.847761 3.70936 0
M  V30 2814 H 279.555 0.976382 3.75617 0
M  V30 2815 H 277.656 -1.46704 3.42503 0
M  V30 2816 H 277.769 -0.166155 4.78812 0
M  V30 2817 H 276.133 -0.184973 2.54027 0
M  V30 2818 H 276.916 1.37256 3.14668 0
M  V30 2819 N 279.361 -1.56624 0.175154 0
M  V30 2820 C 280.607 -1.9729 -0.469506 0
M  V30 2821 C 280.94 -1.06128 -1.62636 0
M  V30 2822 O 280.215 -0.109183 -1.94193 0
M  V30 2823 C 280.498 -3.47375 -0.948804 0
M  V30 2824 C 280.351 -4.49317 0.208491 0
M  V30 2825 C 281.67 -4.00652 -1.82116 0
M  V30 2826 H 278.789 -0.717317 -0.16919 0
M  V30 2827 H 281.431 -1.88184 0.262062 0
M  V30 2828 H 279.581 -3.55267 -1.57219 0
M  V30 2829 H 281.253 -4.53482 0.845682 0
M  V30 2830 H 279.496 -4.25121 0.863395 0
M  V30 2831 H 280.167 -5.51741 -0.169059 0
M  V30 2832 H 282.643 -3.95416 -1.2956 0
M  V30 2833 H 281.519 -5.06075 -2.12554 0
M  V30 2834 H 281.78 -3.44699 -2.7683 0
M  V30 2835 N 280.839 0.0985539 -1.57292 0
M  V30 2836 C 282.088 0.801358 -1.85098 0
M  V30 2837 C 282.401 1.80066 -0.763902 0
M  V30 2838 O 283.607 2.55112 -0.928981 0
M  V30 2839 C 282.063 1.47599 -3.28242 0
M  V30 2840 C 281.671 0.516624 -4.45011 0
M  V30 2841 C 283.415 2.16272 -3.65276 0
M  V30 2842 C 281.322 1.19564 -5.79188 0
M  V30 2843 H 280.252 0.303022 -0.69043 0
M  V30 2844 H 282.903 0.0542623 -1.8342 0
M  V30 2845 H 281.285 2.27042 -3.2445 0
M  V30 2846 H 282.459 -0.246065 -4.60143 0
M  V30 2847 H 280.774 -0.064227 -4.1635 0
M  V30 2848 H 283.371 2.67802 -4.62803 0
M  V30 2849 H 283.714 2.95009 -2.93727 0
M  V30 2850 H 284.247 1.43693 -3.70941 0
M  V30 2851 H 280.986 0.449157 -6.53959 0
M  V30 2852 H 280.506 1.92984 -5.67906 0
M  V30 2853 H 282.185 1.7231 -6.23633 0
M  V30 2854 N 282.317 1.53212 0.369288 0
M  V30 2855 C 283.28 1.7872 1.43498 0
M  V30 2856 C 284.28 0.657554 1.46741 0
M  V30 2857 O 285.47 0.925736 1.47566 0
M  V30 2858 C 282.602 1.90591 2.82645 0
M  V30 2859 H 283.795 2.73894 1.22156 0
M  V30 2860 H 281.348 1.44233 0.602203 0
M  V30 2861 H 282.083 0.974709 3.09306 0
M  V30 2862 H 281.868 2.72751 2.8169 0
M  V30 2863 H 283.358 2.11931 3.59826 0
M  V30 2864 N 283.795 -0.628877 1.44509 0
M  V30 2865 C 284.728 -1.75367 1.46019 0
M  V30 2866 C 285.706 -1.59444 0.318787 0
M  V30 2867 O 286.89 -1.81297 0.516099 0
M  V30 2868 C 284.017 -3.12965 1.29501 0
M  V30 2869 C 283.063 -3.47532 2.47233 0
M  V30 2870 S 283.896 -3.44758 4.09758 0
M  V30 2871 C 285.052 -4.84973 3.95667 0
M  V30 2872 H 285.285 -1.7382 2.41193 0
M  V30 2873 H 282.818 -0.803686 1.31834 0
M  V30 2874 H 284.776 -3.92367 1.20658 0
M  V30 2875 H 283.437 -3.12049 0.358341 0
M  V30 2876 H 282.63 -4.47664 2.31544 0
M  V30 2877 H 282.232 -2.75598 2.52828 0
M  V30 2878 H 284.524 -5.74255 3.59496 0
M  V30 2879 H 285.467 -5.05716 4.95638 0
M  V30 2880 H 285.875 -4.59653 3.27688 0
M  V30 2881 N 285.273 -1.31445 -0.869486 0
M  V30 2882 C 286.183 -1.21097 -2.0093 0
M  V30 2883 C 287.199 -0.127584 -1.73532 0
M  V30 2884 O 288.375 -0.345477 -1.98415 0
M  V30 2885 C 285.44 -0.919378 -3.34288 0
M  V30 2886 C 284.501 -2.08971 -3.75006 0
M  V30 2887 C 283.734 -1.81194 -5.02001 0
M  V30 2888 O 283.957 -0.747296 -5.65484 0
M  V30 2889 O 282.891 -2.66883 -5.39497 0
M  V30 2890 H 286.717 -2.16883 -2.12592 0
M  V30 2891 H 284.302 -1.11189 -0.997868 0
M  V30 2892 H 286.184 -0.772625 -4.14257 0
M  V30 2893 H 284.859 0.00844772 -3.23699 0
M  V30 2894 H 283.766 -2.29187 -2.95676 0
M  V30 2895 H 285.099 -2.9998 -3.90221 0
M  V30 2896 N 286.751 1.08385 -1.14413 0
M  V30 2897 C 287.979 1.84517 -0.936001 0
M  V30 2898 C 288.394 1.81626 0.515503 0
M  V30 2899 O 287.751 1.22008 1.35721 0
M  V30 2900 C 287.802 3.32049 -1.42918 0
M  V30 2901 O 287.523 3.34951 -2.82381 0
M  V30 2902 C 289.024 4.24986 -1.26103 0
M  V30 2903 H 286.244 0.582491 -0.333084 0
M  V30 2904 H 288.788 1.36885 -1.5193 0
M  V30 2905 H 286.943 3.7707 -0.888641 0
M  V30 2906 H 287.357 4.27048 -3.04517 0
M  V30 2907 H 288.831 5.26615 -1.6547 0
M  V30 2908 H 289.308 4.38726 -0.20392 0
M  V30 2909 H 289.914 3.85791 -1.79012 0
M  V30 2910 N 288.23 0.939286 1.26551 0
M  V30 2911 C 289.477 0.585847 1.9384 0
M  V30 2912 C 289.805 -0.874784 1.73718 0
M  V30 2913 O 289.06 -1.64092 1.06642 0
M  V30 2914 C 289.359 0.872106 3.46596 0
M  V30 2915 C 289.025 2.31632 3.86856 0
M  V30 2916 C 287.687 2.71111 3.97558 0
M  V30 2917 C 290.039 3.25494 4.07066 0
M  V30 2918 C 287.367 4.03553 4.25866 0
M  V30 2919 C 289.719 4.57531 4.36862 0
M  V30 2920 C 288.383 4.96828 4.45778 0
M  V30 2921 H 287.653 0.214377 0.709312 0
M  V30 2922 H 290.3 1.18544 1.50398 0
M  V30 2923 H 288.605 0.18996 3.91339 0
M  V30 2924 H 290.302 0.577442 3.96821 0
M  V30 2925 H 286.892 2.00008 3.79071 0
M  V30 2926 H 291.076 2.9619 3.98227 0
M  V30 2927 H 286.332 4.33665 4.30981 0
M  V30 2928 H 290.506 5.30254 4.51446 0
M  V30 2929 H 288.133 5.99482 4.67468 0
M  V30 2930 N 289.708 -1.40897 0.706093 0
M  V30 2931 C 290.956 -2.00657 0.241054 0
M  V30 2932 C 291.277 -1.56241 -1.16678 0
M  V30 2933 O 290.547 -0.79765 -1.78926 0
M  V30 2934 H 289.127 -0.742018 0.0861308 0
M  V30 2935 H 291.789 -1.72372 0.909604 0
M  V30 2936 H 290.885 -3.10958 0.266705 0
M  V30 2937 N 291.186 -0.45159 -1.50991 0
M  V30 2938 C 292.149 0.341117 -2.26647 0
M  V30 2939 C 293.149 0.937422 -1.30649 0
M  V30 2940 O 294.339 0.809644 -1.54241 0
M  V30 2941 C 291.471 1.48398 -3.06905 0
M  V30 2942 H 292.664 -0.322117 -2.98165 0
M  V30 2943 H 290.217 -0.205122 -1.54948 0
M  V30 2944 H 290.952 2.18284 -2.39838 0
M  V30 2945 H 290.737 1.06241 -3.77432 0
M  V30 2946 H 292.227 2.04367 -3.64176 0
M  V30 2947 N 292.664 1.56529 -0.183458 0
M  V30 2948 C 293.614 2.1515 0.754605 0
M  V30 2949 C 294.598 1.08904 1.18443 0
M  V30 2950 O 295.79 1.34997 1.14476 0
M  V30 2951 C 292.919 2.80531 1.97881 0
M  V30 2952 C 292.005 3.93952 1.57043 0
M  V30 2953 N 292.396 4.98221 0.87231 0
M  V30 2954 C 290.694 4.05338 1.86057 0
M  V30 2955 C 291.395 5.77836 0.669377 0
M  V30 2956 N 290.371 5.29858 1.21454 0
M  V30 2957 H 294.173 2.93132 0.212387 0
M  V30 2958 H 291.687 1.62391 0.0167725 0
M  V30 2959 H 293.684 3.20914 2.6612 0
M  V30 2960 H 292.344 2.04035 2.52586 0
M  V30 2961 H 293.355 5.15191 0.529033 0
M  V30 2962 H 290.032 3.39957 2.42354 0
M  V30 2963 H 291.422 6.71799 0.116422 0
M  V30 2964 N 294.142 -0.090211 1.57342 0
M  V30 2965 C 295.367 -0.810082 1.90925 0
M  V30 2966 C 295.792 -1.71248 0.778187 0
M  V30 2967 O 295.15 -1.79278 -0.269991 0
M  V30 2968 C 295.198 -1.59529 3.23393 0
M  V30 2969 O 294.302 -2.70461 3.11327 0
M  V30 2970 H 293.643 -0.222231 0.625707 0
M  V30 2971 H 296.173 -0.0639716 2.045 0
M  V30 2972 H 296.183 -1.97847 3.5682 0
M  V30 2973 H 294.858 -0.933055 4.05299 0
M  V30 2974 H 293.435 -2.35135 2.89423 0
M  V30 2975 N 295.62 -1.53406 -0.361157 0
M  V30 2976 C 296.867 -1.69802 -1.10333 0
M  V30 2977 C 297.195 -0.452087 -1.89173 0
M  V30 2978 O 296.45 0.566017 -1.87336 0
M  V30 2979 C 296.749 -2.90211 -2.08596 0
M  V30 2980 C 296.415 -4.26539 -1.46203 0
M  V30 2981 C 295.077 -4.6361 -1.28915 0
M  V30 2982 C 297.429 -5.113 -1.01101 0
M  V30 2983 C 294.757 -5.83075 -0.651157 0
M  V30 2984 C 297.109 -6.31415 -0.387007 0
M  V30 2985 C 295.773 -6.67195 -0.201657 0
M  V30 2986 H 295.043 -0.621351 -0.403737 0
M  V30 2987 H 297.69 -1.87598 -0.384609 0
M  V30 2988 H 295.995 -2.66946 -2.86788 0
M  V30 2989 H 297.692 -3.00091 -2.65982 0
M  V30 2990 H 294.282 -3.97352 -1.60653 0
M  V30 2991 H 298.466 -4.83206 -1.13249 0
M  V30 2992 H 293.722 -6.09385 -0.496006 0
M  V30 2993 H 297.896 -6.96394 -0.0293563 0
M  V30 2994 H 295.523 -7.59628 0.294766 0
M  V30 2995 N 297.098 0.621204 -1.44841 0
M  V30 2996 C 298.048 1.72663 -1.48901 0
M  V30 2997 C 299.032 1.56964 -0.353702 0
M  V30 2998 O 300.224 1.66532 -0.599669 0
M  V30 2999 C 297.353 3.11381 -1.44557 0
M  V30 3000 C 296.439 3.32514 -2.6324 0
M  V30 3001 N 296.83 3.23969 -3.8843 0
M  V30 3002 C 295.128 3.63343 -2.58647 0
M  V30 3003 C 295.829 3.46062 -4.67564 0
M  V30 3004 N 294.805 3.69407 -3.98797 0
M  V30 3005 H 298.607 1.64529 -2.43531 0
M  V30 3006 H 296.121 0.82401 -1.39942 0
M  V30 3007 H 298.118 3.90667 -1.4555 0
M  V30 3008 H 296.778 3.20674 -0.509731 0
M  V30 3009 H 297.789 3.02669 -4.20252 0
M  V30 3010 H 294.466 3.79556 -1.73906 0
M  V30 3011 H 295.856 3.44963 -5.76585 0
M  V30 3012 N 298.576 1.31904 0.862503 0
M  V30 3013 C 299.539 1.20131 1.95195 0
M  V30 3014 C 300.539 0.126409 1.60302 0
M  V30 3015 O 301.729 0.376234 1.70089 0
M  V30 3016 C 298.861 0.845691 3.30244 0
M  V30 3017 H 300.054 2.16943 2.07064 0
M  V30 3018 H 297.607 1.15622 1.05172 0
M  V30 3019 H 298.342 -0.120957 3.24074 0
M  V30 3020 H 298.127 1.62276 3.56944 0
M  V30 3021 H 299.617 0.787418 4.10109 0
M  V30 3022 N 300.054 -1.07777 1.14986 0
M  V30 3023 C 301.017 -2.13041 0.845358 0
M  V30 3024 C 302.017 -1.60071 -0.152931 0
M  V30 3025 O 303.207 -1.74033 0.0761879 0
M  V30 3026 C 300.339 -3.39896 0.261383 0
M  V30 3027 H 301.532 -2.41485 1.77834 0
M  V30 3028 H 299.085 -1.23595 0.956757 0
M  V30 3029 H 299.82 -3.17091 -0.68 0
M  V30 3030 H 299.605 -3.79642 0.980514 0
M  V30 3031 H 301.095 -4.17548 0.0657687 0
M  V30 3032 N 301.532 -0.945985 -1.26051 0
M  V30 3033 C 302.76 -0.613025 -1.9761 0
M  V30 3034 C 303.175 0.813035 -1.70397 0
M  V30 3035 O 302.532 1.54274 -0.974979 0
M  V30 3036 C 302.583 -0.85159 -3.51326 0
M  V30 3037 O 302.304 -2.22157 -3.77595 0
M  V30 3038 C 303.805 -0.529831 -4.40122 0
M  V30 3039 H 301.025 -0.230593 -0.630133 0
M  V30 3040 H 303.569 -1.268 -1.60443 0
M  V30 3041 H 301.724 -0.243151 -3.86636 0
M  V30 3042 H 302.138 -2.2852 -4.721 0
M  V30 3043 H 303.612 -0.747348 -5.46917 0
M  V30 3044 H 304.089 0.535341 -4.35925 0
M  V30 3045 H 304.695 -1.11721 -4.10364 0
M  V30 3046 N 303.011 1.40521 -0.713556 0
M  V30 3047 C 304.239 2.05237 -0.261775 0
M  V30 3048 C 304.654 1.53755 1.09567 0
M  V30 3049 O 304.011 0.693268 1.6882 0
M  V30 3050 C 304.062 3.60763 -0.230706 0
M  V30 3051 O 303.783 4.10345 -1.53455 0
M  V30 3052 C 305.284 4.42651 0.239874 0
M  V30 3053 H 302.504 0.660533 -0.118057 0
M  V30 3054 H 305.048 1.79967 -0.971192 0
M  V30 3055 H 303.203 3.8501 0.429661 0
M  V30 3056 H 303.617 5.04526 -1.43366 0
M  V30 3057 H 305.091 5.51599 0.210468 0
M  V30 3058 H 305.568 4.20082 1.28171 0
M  V30 3059 H 306.174 4.23507 -0.390142 0
M  V30 3060 N 304.489 0.459591 1.5075 0
M  V30 3061 C 305.452 -0.329093 2.26825 0
M  V30 3062 C 306.452 -0.930481 1.31144 0
M  V30 3063 O 307.642 -0.801453 1.54669 0
M  V30 3064 C 304.774 -1.46768 3.07688 0
M  V30 3065 H 305.967 0.337924 2.9799 0
M  V30 3066 H 303.52 0.213336 1.54837 0
M  V30 3067 H 304.255 -2.17009 2.40993 0
M  V30 3068 H 304.04 -1.04238 3.77991 0
M  V30 3069 H 305.53 -2.02433 3.65254 0
M  V30 3070 N 305.967 -1.56429 0.191757 0
M  V30 3071 C 307.215 -1.97095 -0.447006 0
M  V30 3072 C 307.536 -1.07967 -1.62383 0
M  V30 3073 O 306.806 -0.150248 -1.95323 0
M  V30 3074 H 305.386 -0.727832 -0.168135 0
M  V30 3075 H 308.048 -1.92911 0.27771 0
M  V30 3076 H 307.144 -3.01848 -0.793371 0
M  V30 3077 N 307.445 0.0818655 -1.57387 0
M  V30 3078 C 308.392 1.09834 -2.0299 0
M  V30 3079 C 309.362 1.39043 -0.908639 0
M  V30 3080 O 310.547 1.50282 -1.17559 0
M  V30 3081 C 307.687 2.40971 -2.47037 0
M  V30 3082 C 306.8 2.18379 -3.7274 0
M  V30 3083 C 305.935 3.43008 -4.0561 0
M  V30 3084 C 304.974 3.15736 -5.24383 0
M  V30 3085 N 304.111 4.32667 -5.52941 0
M  V30 3086 H 308.951 0.702472 -2.89602 0
M  V30 3087 H 306.488 0.33531 -1.43227 0
M  V30 3088 H 308.446 3.1752 -2.70623 0
M  V30 3089 H 307.076 2.78379 -1.63417 0
M  V30 3090 H 306.128 1.32569 -3.56552 0
M  V30 3091 H 307.44 1.94227 -4.59431 0
M  V30 3092 H 306.594 4.27958 -4.30043 0
M  V30 3093 H 305.333 3.70225 -3.17466 0
M  V30 3094 H 304.338 2.2918 -4.99757 0
M  V30 3095 H 305.563 2.8985 -6.14136 0
M  V30 3096 H 303.509 4.59935 -4.67756 0
M  V30 3097 H 303.426 4.11753 -6.34031 0
M  V30 3098 H 304.694 5.18644 -5.81918 0
M  V30 3099 N 308.923 1.53595 0.353017 0
M  V30 3100 C 309.853 1.83902 1.43883 0
M  V30 3101 C 310.834 0.693421 1.55324 0
M  V30 3102 O 312.019 0.944452 1.69687 0
M  V30 3103 C 309.149 2.04016 2.8106 0
M  V30 3104 C 308.103 3.19814 2.84434 0
M  V30 3105 C 307.429 3.25244 4.24406 0
M  V30 3106 C 308.729 4.58133 2.50822 0
M  V30 3107 H 310.423 2.74835 1.1877 0
M  V30 3108 H 307.969 1.32242 0.569917 0
M  V30 3109 H 309.922 2.238 3.57059 0
M  V30 3110 H 308.646 1.09804 3.07588 0
M  V30 3111 H 307.305 2.9987 2.10887 0
M  V30 3112 H 306.953 2.28646 4.48029 0
M  V30 3113 H 306.653 4.03054 4.27576 0
M  V30 3114 H 308.177 3.47228 5.0226 0
M  V30 3115 H 309.591 4.77995 3.16534 0
M  V30 3116 H 307.988 5.38276 2.6529 0
M  V30 3117 H 309.058 4.62387 1.46034 0
M  V30 3118 N 310.401 -0.613514 1.45168 0
M  V30 3119 C 311.647 -1.37471 1.49096 0
M  V30 3120 C 311.98 -1.93765 0.129901 0
M  V30 3121 O 311.255 -1.74707 -0.854858 0
M  V30 3122 C 311.538 -2.52701 2.56542 0
M  V30 3123 C 311.391 -2.01643 4.0207 0
M  V30 3124 C 312.71 -3.54849 2.60327 0
M  V30 3125 H 309.829 -0.498502 0.54283 0
M  V30 3126 H 312.471 -0.692125 1.76945 0
M  V30 3127 H 310.621 -3.10931 2.32926 0
M  V30 3128 H 312.293 -1.48108 4.36877 0
M  V30 3129 H 310.536 -1.32688 4.13009 0
M  V30 3130 H 311.207 -2.84681 4.72928 0
M  V30 3131 H 313.683 -3.0645 2.81474 0
M  V30 3132 H 312.559 -4.32973 3.37381 0
M  V30 3133 H 312.82 -4.10079 1.6519 0
M  V30 3134 N 311.879 -1.3236 -0.855495 0
M  V30 3135 C 313.104 -1.2601 -1.64731 0
M  V30 3136 C 313.529 0.169068 -1.87339 0
M  V30 3137 O 312.887 1.12016 -1.42556 0
M  V30 3138 C 312.935 -2.02417 -2.98429 0
M  V30 3139 O 312.039 -1.3714 -3.8893 0
M  V30 3140 H 311.38 -0.434325 -0.502253 0
M  V30 3141 H 313.91 -1.74661 -1.06558 0
M  V30 3142 H 313.92 -2.12559 -3.48257 0
M  V30 3143 H 312.595 -3.06343 -2.81295 0
M  V30 3144 H 311.172 -1.3554 -3.47395 0
M  V30 3145 N 313.357 1.07166 -1.15556 0
M  V30 3146 C 314.287 2.16403 -0.877046 0
M  V30 3147 C 315.268 1.69217 0.173111 0
M  V30 3148 O 316.453 1.94181 0.027084 0
M  V30 3149 C 313.583 3.45349 -0.367632 0
M  V30 3150 C 312.537 4.05995 -1.35468 0
M  V30 3151 C 311.863 5.30045 -0.704038 0
M  V30 3152 C 313.163 4.45804 -2.72132 0
M  V30 3153 H 314.857 2.39959 -1.79053 0
M  V30 3154 H 312.403 1.15325 -0.862331 0
M  V30 3155 H 314.356 4.21095 -0.160317 0
M  V30 3156 H 313.08 3.21385 0.581326 0
M  V30 3157 H 311.739 3.32296 -1.54839 0
M  V30 3158 H 311.387 5.02373 0.251128 0
M  V30 3159 H 311.087 5.71579 -1.36277 0
M  V30 3160 H 312.611 6.08495 -0.50654 0
M  V30 3161 H 314.025 5.12671 -2.56595 0
M  V30 3162 H 312.422 4.98296 -3.34397 0
M  V30 3163 H 313.492 3.57083 -3.28054 0
M  V30 3164 N 314.835 0.952656 1.25548 0
M  V30 3165 C 316.246 0.647392 1.75116 0
M  V30 3166 C 316.597 -0.837274 1.77438 0
M  V30 3167 O 315.722 -1.65525 1.39393 0
M  V30 3168 C 316.317 1.16845 3.18014 0
M  V30 3169 C 314.876 0.913382 3.6515 0
M  V30 3170 C 314.023 1.31265 2.44264 0
M  V30 3171 H 316.974 1.12968 1.11462 0
M  V30 3172 H 316.995 0.527606 3.76824 0
M  V30 3173 H 316.507 2.24902 3.16292 0
M  V30 3174 H 314.608 -0.152316 3.72289 0
M  V30 3175 H 314.721 1.54845 4.53387 0
M  V30 3176 H 313.085 0.731028 2.43984 0
M  V30 3177 H 313.868 2.40239 2.45234 0
M  V30 3178 N 316.313 -1.40141 0.720998 0
M  V30 3179 C 317.26 -2.30688 0.071919 0
M  V30 3180 C 318.23 -1.48476 -0.744584 0
M  V30 3181 O 319.415 -1.77201 -0.707423 0
M  V30 3182 C 316.555 -3.34724 -0.839855 0
M  V30 3183 C 315.668 -4.31998 -0.0122438 0
M  V30 3184 C 314.803 -5.23102 -0.923995 0
M  V30 3185 C 313.842 -6.12033 -0.0907969 0
M  V30 3186 N 312.979 -6.95537 -0.957718 0
M  V30 3187 H 317.819 -2.85628 0.849755 0
M  V30 3188 H 315.356 -1.40653 0.430726 0
M  V30 3189 H 317.314 -3.93618 -1.38279 0
M  V30 3190 H 315.944 -2.81274 -1.58381 0
M  V30 3191 H 314.996 -3.74841 0.64794 0
M  V30 3192 H 316.308 -4.94772 0.632595 0
M  V30 3193 H 315.462 -5.86953 -1.53527 0
M  V30 3194 H 314.201 -4.60615 -1.60264 0
M  V30 3195 H 313.206 -5.47207 0.533377 0
M  V30 3196 H 314.431 -6.76581 0.584428 0
M  V30 3197 H 312.377 -6.35633 -1.62192 0
M  V30 3198 H 312.294 -7.55099 -0.36904 0
M  V30 3199 H 313.562 -7.63832 -1.555 0
M  V30 3200 N 317.792 -0.46758 -1.50504 0
M  V30 3201 C 319.041 0.0902868 -2.01498 0
M  V30 3202 C 319.354 1.411 -1.35463 0
M  V30 3203 O 320.56 2.0536 -1.77594 0
M  V30 3204 C 319.016 0.21142 -3.59278 0
M  V30 3205 C 318.624 -1.10065 -4.34269 0
M  V30 3206 C 320.368 0.721433 -4.18325 0
M  V30 3207 C 318.275 -0.943505 -5.83825 0
M  V30 3208 H 317.205 0.037517 -0.753066 0
M  V30 3209 H 319.856 -0.601943 -1.73346 0
M  V30 3210 H 318.238 0.967352 -3.84003 0
M  V30 3211 H 319.412 -1.86726 -4.21272 0
M  V30 3212 H 317.727 -1.5415 -3.86816 0
M  V30 3213 H 320.324 0.85598 -5.27804 0
M  V30 3214 H 320.667 1.71186 -3.79475 0
M  V30 3215 H 321.2 0.0229843 -3.97793 0
M  V30 3216 H 317.939 -1.90719 -6.27141 0
M  V30 3217 H 317.459 -0.217213 -5.99407 0
M  V30 3218 H 319.138 -0.608715 -6.4413 0
M  V30 3219 N 319.27 1.56325 -0.20005 0
M  V30 3220 C 320.498 2.02105 0.442874 0
M  V30 3221 C 320.913 1.08014 1.5485 0
M  V30 3222 O 320.27 0.0858797 1.82298 0
M  V30 3223 C 320.321 3.47549 0.994583 0
M  V30 3224 O 320.042 4.38049 -0.0669322 0
M  V30 3225 C 321.543 4.0887 1.7129 0
M  V30 3226 H 318.763 0.661807 0.110691 0
M  V30 3227 H 321.307 2.02134 -0.310207 0
M  V30 3228 H 319.462 3.48204 1.69803 0
M  V30 3229 H 319.876 5.23368 0.344462 0
M  V30 3230 H 321.35 5.12475 2.05118 0
M  V30 3231 H 321.827 3.52615 2.61838 0
M  V30 3232 H 322.433 4.12002 1.05518 0
M  V30 3233 N 320.748 -0.0735177 1.57428 0
M  V30 3234 C 321.973 -0.789787 1.91774 0
M  V30 3235 C 322.398 -1.70413 0.796306 0
M  V30 3236 O 321.756 -1.79555 -0.250961 0
M  V30 3237 C 321.804 -1.5609 3.25067 0
M  V30 3238 O 320.908 -2.67144 3.14178 0
M  V30 3239 H 320.249 -0.215582 0.628029 0
M  V30 3240 H 322.779 -0.0422781 2.04556 0
M  V30 3241 H 322.789 -1.94052 3.58898 0
M  V30 3242 H 321.464 -0.890015 4.06265 0
M  V30 3243 H 320.041 -2.32052 2.91901 0
M  V30 3244 N 322.226 -1.5378 -0.344866 0
M  V30 3245 C 323.472 -1.71216 -1.08687 0
M  V30 3246 C 323.805 -0.473281 -1.88345 0
M  V30 3247 O 323.08 0.52968 -1.87149 0
M  V30 3248 C 323.363 -2.97486 -2.02914 0
M  V30 3249 C 323.216 -4.31579 -1.26727 0
M  V30 3250 C 324.535 -3.19422 -3.0275 0
M  V30 3251 H 321.654 -0.62301 -0.393735 0
M  V30 3252 H 324.296 -1.8645 -0.365563 0
M  V30 3253 H 322.446 -2.84629 -2.64421 0
M  V30 3254 H 324.118 -4.56284 -0.67845 0
M  V30 3255 H 322.361 -4.30049 -0.569273 0
M  V30 3256 H 323.032 -5.16106 -1.95803 0
M  V30 3257 H 325.508 -3.316 -2.51357 0
M  V30 3258 H 324.384 -4.09169 -3.65885 0
M  V30 3259 H 324.645 -2.35656 -3.74057 0
M  V30 3260 N 323.704 0.605807 -1.45491 0
M  V30 3261 C 324.667 1.69836 -1.5391 0
M  V30 3262 C 325.667 1.55261 -0.418424 0
M  V30 3263 O 326.857 1.60296 -0.681965 0
M  V30 3264 C 323.989 3.09117 -1.43734 0
M  V30 3265 H 325.182 1.63738 -2.51257 0
M  V30 3266 H 322.735 0.821689 -1.32959 0
M  V30 3267 H 323.47 3.20791 -0.475788 0
M  V30 3268 H 323.255 3.21104 -2.25021 0
M  V30 3269 H 324.745 3.88696 -1.52661 0
M  V30 3270 N 325.182 1.32811 0.848464 0
M  V30 3271 C 326.129 1.22265 1.95755 0
M  V30 3272 C 327.099 0.103413 1.65778 0
M  V30 3273 O 328.284 0.280033 1.88734 0
M  V30 3274 C 325.424 0.958014 3.31536 0
M  V30 3275 C 324.537 2.16262 3.73971 0
M  V30 3276 C 323.672 1.83295 4.98575 0
M  V30 3277 C 322.711 3.00041 5.33518 0
M  V30 3278 N 321.848 2.67125 6.49299 0
M  V30 3279 H 326.688 2.17128 2.04107 0
M  V30 3280 H 324.225 1.07982 0.998913 0
M  V30 3281 H 326.183 0.785052 4.09747 0
M  V30 3282 H 324.813 0.046159 3.22767 0
M  V30 3283 H 323.865 2.44565 2.91362 0
M  V30 3284 H 325.177 3.03572 3.95785 0
M  V30 3285 H 324.331 1.62586 5.84509 0
M  V30 3286 H 323.07 0.932078 4.7871 0
M  V30 3287 H 322.075 3.21374 4.46093 0
M  V30 3288 H 323.3 3.90869 5.55336 0
M  V30 3289 H 321.246 1.79586 6.3094 0
M  V30 3290 H 321.163 3.47965 6.71161 0
M  V30 3291 H 322.431 2.49861 7.3837 0
M  V30 3292 N 326.66 -1.06551 1.16123 0
M  V30 3293 C 327.623 -2.12132 0.867906 0
M  V30 3294 C 328.623 -1.60224 -0.135944 0
M  V30 3295 O 329.813 -1.73943 0.0946422 0
M  V30 3296 C 326.945 -3.396 0.297419 0
M  V30 3297 H 328.138 -2.39586 1.80385 0
M  V30 3298 H 325.691 -1.22574 0.969812 0
M  V30 3299 H 326.426 -3.17794 -0.64633 0
M  V30 3300 H 326.211 -3.78581 1.02073 0
M  V30 3301 H 327.701 -4.17455 0.110052 0
M  V30 3302 N 328.138 -0.959301 -1.25041 0
M  V30 3303 C 329.068 -0.501388 -2.28053 0
M  V30 3304 C 330.049 0.454673 -1.63911 0
M  V30 3305 O 331.234 0.352618 -1.90972 0
M  V30 3306 C 328.364 0.217224 -3.4662 0
M  V30 3307 C 327.318 -0.654034 -4.22973 0
M  V30 3308 C 326.644 0.195589 -5.34342 0
M  V30 3309 C 327.944 -1.93447 -4.85155 0
M  V30 3310 H 329.638 -1.36238 -2.66608 0
M  V30 3311 H 327.184 -0.656534 -1.28163 0
M  V30 3312 H 329.137 0.548732 -4.17812 0
M  V30 3313 H 327.861 1.1125 -3.07068 0
M  V30 3314 H 326.52 -0.968693 -3.5357 0
M  V30 3315 H 326.168 1.09076 -4.91031 0
M  V30 3316 H 325.868 -0.384091 -5.86343 0
M  V30 3317 H 327.392 0.521958 -6.08365 0
M  V30 3318 H 328.806 -1.66908 -5.48466 0
M  V30 3319 H 327.203 -2.46018 -5.47353 0
M  V30 3320 H 328.273 -2.63466 -4.07079 0
M  V30 3321 N 329.616 1.39756 -0.72842 0
M  V30 3322 C 330.864 2.00248 -0.272946 0
M  V30 3323 C 331.185 1.58077 1.14178 0
M  V30 3324 O 330.455 0.826014 1.77634 0
M  V30 3325 H 329.035 0.740554 -0.0979247 0
M  V30 3326 H 331.697 1.70903 -0.936912 0
M  V30 3327 H 330.793 3.10495 -0.316142 0
M  V30 3328 N 331.094 0.475555 1.50254 0
M  V30 3329 C 332.34 -0.0780073 2.0265 0
M  V30 3330 C 332.673 -1.38968 1.35652 0
M  V30 3331 O 331.948 -1.8839 0.483691 0
M  V30 3332 C 332.231 -0.257161 3.59181 0
M  V30 3333 C 332.084 1.07585 4.36744 0
M  V30 3334 C 333.403 -1.00965 4.28362 0
M  V30 3335 H 330.522 -0.0268758 0.73651 0
M  V30 3336 H 333.164 0.622015 1.7953 0
M  V30 3337 H 331.314 -0.853412 3.79011 0
M  V30 3338 H 332.986 1.70902 4.28474 0
M  V30 3339 H 331.229 1.6714 4.00308 0
M  V30 3340 H 331.9 0.904088 5.44546 0
M  V30 3341 H 334.376 -0.504214 4.13034 0
M  V30 3342 H 333.252 -1.10381 5.37687 0
M  V30 3343 H 333.513 -2.04731 3.91839 0
M  V30 3344 N 332.573 -1.56217 0.208337 0
M  V30 3345 C 333.52 -2.19699 -0.707192 0
M  V30 3346 C 334.49 -1.14836 -1.20008 0
M  V30 3347 O 335.675 -1.4314 -1.26157 0
M  V30 3348 C 332.815 -2.87061 -1.91546 0
M  V30 3349 C 331.928 -4.06483 -1.46271 0
M  V30 3350 C 331.063 -4.61665 -2.62752 0
M  V30 3351 C 330.102 -5.73417 -2.14147 0
M  V30 3352 N 329.239 -6.22948 -3.23853 0
M  V30 3353 H 334.079 -2.97575 -0.159111 0
M  V30 3354 H 331.616 -1.46948 -0.0667874 0
M  V30 3355 H 333.574 -3.24294 -2.62468 0
M  V30 3356 H 332.204 -2.11725 -2.43664 0
M  V30 3357 H 331.256 -3.74825 -0.648886 0
M  V30 3358 H 332.568 -4.87271 -1.06622 0
M  V30 3359 H 331.722 -5.01272 -3.41776 0
M  V30 3360 H 330.461 -3.80013 -3.05682 0
M  V30 3361 H 329.466 -5.33326 -1.33581 0
M  V30 3362 H 330.691 -6.56897 -1.72232 0
M  V30 3363 H 328.637 -5.44213 -3.6629 0
M  V30 3364 H 328.554 -6.98823 -2.88414 0
M  V30 3365 H 329.822 -6.6721 -4.03052 0
M  V30 3366 N 334.051 0.0651679 -1.57465 0
M  V30 3367 C 335.279 0.775808 -1.91804 0
M  V30 3368 C 335.694 1.70782 -0.804916 0
M  V30 3369 O 335.051 1.81153 0.221311 0
M  V30 3370 C 335.102 1.56381 -3.25925 0
M  V30 3371 O 334.823 0.669248 -4.32958 0
M  V30 3372 C 336.324 2.37485 -3.7432 0
M  V30 3373 H 333.544 0.2202 -0.63384 0
M  V30 3374 H 336.088 0.0334587 -2.04473 0
M  V30 3375 H 334.243 2.25837 -3.14764 0
M  V30 3376 H 334.657 1.21801 -5.10162 0
M  V30 3377 H 336.131 2.88223 -4.70778 0
M  V30 3378 H 336.608 3.17307 -3.03666 0
M  V30 3379 H 337.214 1.73173 -3.88447 0
M  V30 3380 N 335.529 1.53961 0.336706 0
M  V30 3381 C 336.775 1.7179 1.07777 0
M  V30 3382 C 337.108 0.483263 1.88091 0
M  V30 3383 O 336.383 -0.519747 1.87427 0
M  V30 3384 C 336.666 2.98558 2.01334 0
M  V30 3385 C 336.519 4.32245 1.24437 0
M  V30 3386 C 337.838 3.21023 3.01052 0
M  V30 3387 H 334.957 0.625089 0.390426 0
M  V30 3388 H 337.599 1.86641 0.35567 0
M  V30 3389 H 335.749 2.86028 2.62908 0
M  V30 3390 H 337.421 4.56637 0.654243 0
M  V30 3391 H 335.664 4.30344 0.546458 0
M  V30 3392 H 336.335 5.17137 1.93063 0
M  V30 3393 H 338.811 3.32929 2.49595 0
M  V30 3394 H 337.687 4.11104 3.6371 0
M  V30 3395 H 337.948 2.37637 3.72802 0
M  V30 3396 N 337.007 -0.598083 1.45811 0
M  V30 3397 C 338.255 -1.35413 1.50026 0
M  V30 3398 C 338.576 -1.94444 0.147177 0
M  V30 3399 O 337.846 -1.77701 -0.824571 0
M  V30 3400 H 336.426 -0.502727 0.552517 0
M  V30 3401 H 339.088 -0.701606 1.81834 0
M  V30 3402 H 338.184 -2.16871 2.2444 0
M  V30 3403 N 338.485 -1.33259 -0.841409 0
M  V30 3404 C 339.448 -1.23221 -1.9326 0
M  V30 3405 C 340.448 -0.151895 -1.60081 0
M  V30 3406 O 341.638 -0.403246 -1.69468 0
M  V30 3407 C 338.77 -0.898123 -3.28856 0
M  V30 3408 H 339.963 -2.2021 -2.03587 0
M  V30 3409 H 337.516 -1.17281 -1.03319 0
M  V30 3410 H 338.251 0.0693841 -3.24226 0
M  V30 3411 H 338.036 -1.67934 -3.54317 0
M  V30 3412 H 339.526 -0.852563 -4.08805 0
M  V30 3413 N 339.963 1.05934 -1.16686 0
M  V30 3414 C 340.895 2.13468 -0.834503 0
M  V30 3415 C 341.908 1.62013 0.15984 0
M  V30 3416 O 343.097 1.7838 -0.0654228 0
M  V30 3417 C 340.197 3.3817 -0.222361 0
M  V30 3418 C 339.37 4.18928 -1.25771 0
M  V30 3419 C 338.429 5.21985 -0.664703 0
M  V30 3420 O 337.455 5.53334 -1.33453 0
M  V30 3421 N 338.657 5.77919 0.546834 0
M  V30 3422 H 341.422 2.42578 -1.75999 0
M  V30 3423 H 338.983 1.21967 -1.06469 0
M  V30 3424 H 340.975 4.04266 0.187472 0
M  V30 3425 H 339.545 3.06655 0.606758 0
M  V30 3426 H 338.765 3.48433 -1.84358 0
M  V30 3427 H 340.053 4.69687 -1.95631 0
M  V30 3428 H 339.451 5.54721 1.10912 0
M  V30 3429 H 338.008 6.45573 0.898829 0
M  V30 3430 N 341.441 0.965919 1.2453 0
M  V30 3431 C 342.404 0.499547 2.2369 0
M  V30 3432 C 343.404 -0.40294 1.5567 0
M  V30 3433 O 344.594 -0.19865 1.73064 0
M  V30 3434 C 341.726 -0.276792 3.39774 0
M  V30 3435 H 342.919 1.37613 2.66463 0
M  V30 3436 H 340.472 0.750324 1.37112 0
M  V30 3437 H 341.207 -1.17055 3.02438 0
M  V30 3438 H 340.992 0.370826 3.90343 0
M  V30 3439 H 342.482 -0.592175 4.1338 0
M  V30 3440 N 342.919 -1.39368 0.735821 0
M  V30 3441 C 343.849 -2.33234 0.111506 0
M  V30 3442 C 344.83 -1.53954 -0.723334 0
M  V30 3443 O 346.015 -1.82344 -0.668147 0
M  V30 3444 C 343.145 -3.38057 -0.795917 0
M  V30 3445 C 342.099 -4.2795 -0.065172 0
M  V30 3446 C 341.425 -5.23479 -1.08967 0
M  V30 3447 C 342.725 -5.10741 1.09273 0
M  V30 3448 H 344.419 -2.85692 0.895571 0
M  V30 3449 H 341.965 -1.37364 0.432109 0
M  V30 3450 H 343.918 -4.02675 -1.24221 0
M  V30 3451 H 342.642 -2.8404 -1.61211 0
M  V30 3452 H 341.301 -3.64813 0.361511 0
M  V30 3453 H 340.949 -4.65758 -1.89944 0
M  V30 3454 H 340.649 -5.84472 -0.605489 0
M  V30 3455 H 342.173 -5.90974 -1.53565 0
M  V30 3456 H 343.587 -5.68699 0.724841 0
M  V30 3457 H 341.984 -5.8088 1.50659 0
M  V30 3458 H 343.054 -4.45525 1.91404 0
M  V30 3459 N 344.397 -0.483516 -1.5 0
M  V30 3460 C 345.344 0.304164 -2.28787 0
M  V30 3461 C 346.314 0.976114 -1.34392 0
M  V30 3462 O 347.499 0.986156 -1.63339 0
M  V30 3463 C 344.639 1.37298 -3.16612 0
M  V30 3464 C 343.752 0.714561 -4.26049 0
M  V30 3465 C 342.887 1.76232 -5.01114 0
M  V30 3466 C 341.926 1.08483 -6.0241 0
M  V30 3467 N 341.063 2.076 -6.70706 0
M  V30 3468 H 345.903 -0.373981 -2.95644 0
M  V30 3469 H 343.44 -0.196275 -1.45785 0
M  V30 3470 H 345.398 2.00445 -3.65893 0
M  V30 3471 H 344.028 2.02012 -2.51776 0
M  V30 3472 H 343.08 -0.0297798 -3.80388 0
M  V30 3473 H 344.392 0.180383 -4.98474 0
M  V30 3474 H 343.546 2.46929 -5.54176 0
M  V30 3475 H 342.285 2.33033 -4.28424 0
M  V30 3476 H 341.29 0.363545 -5.48597 0
M  V30 3477 H 342.515 0.523551 -6.77079 0
M  V30 3478 H 340.461 2.63394 -6.00799 0
M  V30 3479 H 340.378 1.59201 -7.39047 0
M  V30 3480 H 341.646 2.77639 -7.2838 0
M  V30 3481 N 345.875 1.56104 -0.216619 0
M  V30 3482 C 346.805 2.23063 0.690296 0
M  V30 3483 C 347.786 1.20072 1.20485 0
M  V30 3484 O 348.971 1.48643 1.24976 0
M  V30 3485 C 346.101 2.90672 1.90072 0
M  V30 3486 C 345.055 4.00092 1.5202 0
M  V30 3487 C 344.381 4.54972 2.80899 0
M  V30 3488 C 345.681 5.17398 0.71391 0
M  V30 3489 H 347.375 2.99109 0.132038 0
M  V30 3490 H 344.921 1.43866 0.0620664 0
M  V30 3491 H 346.874 3.36204 2.54057 0
M  V30 3492 H 345.598 2.12066 2.48386 0
M  V30 3493 H 344.257 3.55283 0.903839 0
M  V30 3494 H 343.905 3.73102 3.37348 0
M  V30 3495 H 343.605 5.28817 2.56176 0
M  V30 3496 H 345.129 5.0322 3.45836 0
M  V30 3497 H 346.543 5.59342 1.25735 0
M  V30 3498 H 344.94 5.97444 0.563951 0
M  V30 3499 H 346.01 4.84088 -0.280527 0
M  V30 3500 N 347.353 -0.0568162 1.57498 0
M  V30 3501 C 348.6 -0.753104 1.87975 0
M  V30 3502 C 348.928 -1.76815 0.81035 0
M  V30 3503 O 348.183 -1.94756 -0.19199 0
M  V30 3504 C 348.482 -1.48359 3.25153 0
M  V30 3505 C 348.148 -0.60713 4.46794 0
M  V30 3506 C 346.81 -0.365642 4.79809 0
M  V30 3507 C 349.162 -0.000305978 5.212 0
M  V30 3508 C 346.49 0.491905 5.84634 0
M  V30 3509 C 348.842 0.844781 6.26934 0
M  V30 3510 C 347.506 1.096 6.58441 0
M  V30 3511 H 346.776 -0.27558 0.687849 0
M  V30 3512 H 349.423 -0.0135173 1.91495 0
M  V30 3513 H 347.728 -2.29577 3.17492 0
M  V30 3514 H 349.425 -2.02739 3.45974 0
M  V30 3515 H 346.015 -0.805487 4.20963 0
M  V30 3516 H 350.199 -0.173961 4.95995 0
M  V30 3517 H 345.455 0.695131 6.07436 0
M  V30 3518 H 349.629 1.32165 6.83744 0
M  V30 3519 H 347.256 1.76224 7.39492 0
M  V30 3520 N 348.832 -1.54138 -0.328536 0
M  V30 3521 C 349.764 -1.79509 -1.4251 0
M  V30 3522 C 350.777 -0.67688 -1.48061 0
M  V30 3523 O 351.966 -0.953898 -1.50874 0
M  V30 3524 C 349.066 -1.89337 -2.81078 0
M  V30 3525 C 348.239 -3.19443 -2.98789 0
M  V30 3526 C 347.298 -3.20036 -4.17688 0
M  V30 3527 O 346.324 -3.93697 -4.11086 0
M  V30 3528 N 347.526 -2.43467 -5.26976 0
M  V30 3529 H 350.291 -2.74139 -1.21111 0
M  V30 3530 H 347.852 -1.53373 -0.518499 0
M  V30 3531 H 349.844 -1.87167 -3.58818 0
M  V30 3532 H 348.414 -1.01826 -2.95551 0
M  V30 3533 H 347.634 -3.34614 -2.08391 0
M  V30 3534 H 348.922 -4.05354 -3.07515 0
M  V30 3535 H 348.32 -1.83201 -5.35214 0
M  V30 3536 H 346.877 -2.4708 -6.03154 0
M  V30 3537 N 350.31 0.590341 -1.46126 0
M  V30 3538 C 351.22 1.72793 -1.58681 0
M  V30 3539 C 352.236 1.67516 -0.470566 0
M  V30 3540 O 353.412 1.87562 -0.733642 0
M  V30 3541 C 350.477 3.09287 -1.5666 0
M  V30 3542 C 349.538 3.25886 -2.79458 0
M  V30 3543 C 348.771 4.55869 -2.77524 0
M  V30 3544 O 348.994 5.3928 -1.85832 0
M  V30 3545 O 347.928 4.75552 -3.68964 0
M  V30 3546 H 351.754 1.65149 -2.54872 0
M  V30 3547 H 349.339 0.756486 -1.28832 0
M  V30 3548 H 351.221 3.90577 -1.58202 0
M  V30 3549 H 349.896 3.17385 -0.636271 0
M  V30 3550 H 348.803 2.44119 -2.83472 0
M  V30 3551 H 350.136 3.22675 -3.71674 0
M  V30 3552 N 351.788 1.33704 0.83433 0
M  V30 3553 C 352.738 1.20899 1.93306 0
M  V30 3554 C 353.722 0.110783 1.60518 0
M  V30 3555 O 354.914 0.339331 1.73717 0
M  V30 3556 C 352.043 0.955018 3.29749 0
M  V30 3557 C 351.129 2.09587 3.68692 0
M  V30 3558 N 351.52 3.34621 3.79292 0
M  V30 3559 C 349.818 2.00358 3.98463 0
M  V30 3560 C 350.519 4.09472 4.13167 0
M  V30 3561 N 349.495 3.37954 4.25779 0
M  V30 3562 H 353.297 2.15665 1.99664 0
M  V30 3563 H 350.811 1.25777 1.02732 0
M  V30 3564 H 352.808 0.844208 4.08263 0
M  V30 3565 H 351.468 0.0159317 3.24696 0
M  V30 3566 H 352.479 3.69313 3.63082 0
M  V30 3567 H 349.156 1.14137 4.01596 0
M  V30 3568 H 350.546 5.17391 4.28668 0
M  V30 3569 N 353.266 -1.05314 1.17247 0
M  V30 3570 C 354.677 -1.59753 0.96623 0
M  V30 3571 C 355.028 -1.9005 -0.487378 0
M  V30 3572 O 354.153 -1.68126 -1.36245 0
M  V30 3573 C 354.748 -2.90249 1.74759 0
M  V30 3574 C 353.307 -3.41352 1.58606 0
M  V30 3575 C 352.454 -2.15103 1.75002 0
M  V30 3576 H 355.405 -0.881406 1.31973 0
M  V30 3577 H 355.426 -3.60097 1.22925 0
M  V30 3578 H 354.938 -2.68166 2.8055 0
M  V30 3579 H 353.039 -3.68474 0.552985 0
M  V30 3580 H 353.152 -4.16019 2.37624 0
M  V30 3581 H 351.516 -2.25804 1.17833 0
M  V30 3582 H 352.299 -1.95491 2.82202 0
M  V30 3583 N 354.744 -0.972509 -1.24016 0
M  V30 3584 C 355.993 -0.632603 -1.91523 0
M  V30 3585 C 356.306 0.836641 -1.76804 0
M  V30 3586 O 357.512 1.28728 -2.39043 0
M  V30 3587 C 355.968 -1.08082 -3.43287 0
M  V30 3588 C 355.576 -2.57386 -3.66683 0
M  V30 3589 C 357.32 -0.814288 -4.16617 0
M  V30 3590 C 355.227 -2.95915 -5.12043 0
M  V30 3591 H 354.157 -0.232898 -0.717129 0
M  V30 3592 H 356.808 -1.17936 -1.40582 0
M  V30 3593 H 355.19 -0.462339 -3.93292 0
M  V30 3594 H 356.364 -3.24405 -3.27258 0
M  V30 3595 H 354.679 -2.81701 -3.06649 0
M  V30 3596 H 357.276 -1.0781 -5.23718 0
M  V30 3597 H 357.619 0.24955 -4.15551 0
M  V30 3598 H 358.152 -1.39397 -3.72577 0
M  V30 3599 H 354.891 -4.0139 -5.18234 0
M  V30 3600 H 354.411 -2.33584 -5.52448 0
M  V30 3601 H 356.09 -2.86086 -5.80314 0
M  V30 3602 N 356.222 1.38976 -0.743202 0
M  V30 3603 C 357.469 2.00343 -0.294752 0
M  V30 3604 C 357.797 1.58983 1.12047 0
M  V30 3605 O 357.052 0.813809 1.77977 0
M  V30 3606 C 357.351 3.55647 -0.353517 0
M  V30 3607 C 357.017 4.16685 -1.72292 0
M  V30 3608 C 355.679 4.3307 -2.09771 0
M  V30 3609 C 358.031 4.50464 -2.62168 0
M  V30 3610 C 355.359 4.80526 -3.36618 0
M  V30 3611 C 357.711 4.99332 -3.88395 0
M  V30 3612 C 356.375 5.13924 -4.25956 0
M  V30 3613 H 355.645 0.733108 -0.107857 0
M  V30 3614 H 358.292 1.6618 -0.951651 0
M  V30 3615 H 356.597 3.89884 0.386954 0
M  V30 3616 H 358.294 4.00998 0.0117269 0
M  V30 3617 H 354.884 4.04339 -1.42155 0
M  V30 3618 H 359.068 4.37416 -2.3448 0
M  V30 3619 H 354.324 4.90008 -3.65653 0
M  V30 3620 H 358.498 5.2444 -4.58187 0
M  V30 3621 H 356.125 5.50457 -5.2431 0
M  V30 3622 N 357.7 0.491464 1.49741 0
M  V30 3623 C 358.925 -0.0557177 2.07325 0
M  V30 3624 C 359.35 -1.30925 1.35056 0
M  V30 3625 O 358.708 -1.76733 0.404365 0
M  V30 3626 C 358.756 -0.302074 3.59333 0
M  V30 3627 O 357.86 -1.37868 3.88672 0
M  V30 3628 H 357.201 0.0219956 0.663636 0
M  V30 3629 H 359.731 0.688352 1.92673 0
M  V30 3630 H 359.741 -0.536464 4.04458 0
M  V30 3631 H 358.416 0.61383 4.11345 0
M  V30 3632 H 356.993 -1.12999 3.55367 0
M  V30 3633 N 359.178 -1.55987 0.224894 0
M  V30 3634 C 360.088 -2.24066 -0.69511 0
M  V30 3635 C 361.104 -1.24939 -1.21104 0
M  V30 3636 O 362.28 -1.5776 -1.25195 0
M  V30 3637 C 359.345 -2.90983 -1.88493 0
M  V30 3638 C 358.406 -4.05462 -1.41064 0
M  V30 3639 C 357.639 -4.69179 -2.54375 0
M  V30 3640 O 357.862 -4.31895 -3.72589 0
M  V30 3641 O 356.796 -5.58108 -2.25386 0
M  V30 3642 H 360.622 -3.03353 -0.145149 0
M  V30 3643 H 358.207 -1.49399 -0.00569476 0
M  V30 3644 H 360.089 -3.33209 -2.57972 0
M  V30 3645 H 358.764 -2.14653 -2.42293 0
M  V30 3646 H 357.671 -3.67798 -0.683774 0
M  V30 3647 H 359.004 -4.83545 -0.918985 0
M  V30 3648 N 360.656 0.0484629 -1.57525 0
M  V30 3649 C 361.902 0.744226 -1.88651 0
M  V30 3650 C 362.235 1.76029 -0.820212 0
M  V30 3651 O 361.51 1.93782 0.166985 0
M  V30 3652 C 361.793 1.43128 -3.30434 0
M  V30 3653 C 361.646 0.43005 -4.47739 0
M  V30 3654 C 362.965 2.37031 -3.70816 0
M  V30 3655 H 360.084 0.269089 -0.68612 0
M  V30 3656 H 362.726 0.00713532 -1.89999 0
M  V30 3657 H 360.876 2.05956 -3.29415 0
M  V30 3658 H 362.548 -0.194816 -4.60888 0
M  V30 3659 H 360.791 -0.252522 -4.33064 0
M  V30 3660 H 361.462 0.948874 -5.43783 0
M  V30 3661 H 363.938 1.84263 -3.73077 0
M  V30 3662 H 362.814 2.82094 -4.70865 0
M  V30 3663 H 363.075 3.22864 -3.02012 0
M  V30 3664 N 362.134 1.5431 0.320358 0
M  V30 3665 C 363.383 1.7188 1.05546 0
M  V30 3666 C 363.696 0.501143 1.89071 0
M  V30 3667 O 364.902 0.558258 2.65699 0
M  V30 3668 C 363.358 3.04025 1.92605 0
M  V30 3669 C 362.966 4.33207 1.14176 0
M  V30 3670 C 364.71 3.30959 2.65832 0
M  V30 3671 C 362.617 5.56412 2.00399 0
M  V30 3672 H 361.547 0.640547 0.397763 0
M  V30 3673 H 364.198 1.80802 0.313522 0
M  V30 3674 H 362.58 2.89019 2.7071 0
M  V30 3675 H 363.754 4.58989 0.40819 0
M  V30 3676 H 362.069 4.13062 0.526165 0
M  V30 3677 H 364.666 4.20203 3.30656 0
M  V30 3678 H 365.009 2.48979 3.33639 0
M  V30 3679 H 365.542 3.46847 1.94787 0
M  V30 3680 H 362.281 6.41004 1.37094 0
M  V30 3681 H 361.801 5.34844 2.7148 0
M  V30 3682 H 363.48 5.92938 2.58908 0
M  V30 3683 N 363.613 -0.582584 1.46437 0
M  V30 3684 C 364.838 -1.37168 1.55563 0
M  V30 3685 C 365.263 -1.87061 0.19743 0
M  V30 3686 O 364.621 -1.61572 -0.822451 0
M  V30 3687 C 364.669 -2.53511 2.56446 0
M  V30 3688 O 363.773 -3.54953 2.09958 0
M  V30 3689 H 363.114 -0.408494 0.523477 0
M  V30 3690 H 365.644 -0.706646 1.9201 0
M  V30 3691 H 365.654 -3.00426 2.76058 0
M  V30 3692 H 364.329 -2.16549 3.55076 0
M  V30 3693 H 362.906 -3.14516 2.00334 0
M  V30 3694 N 365.091 -1.34144 -0.827227 0
M  V30 3695 C 366.368 -1.16844 -1.56865 0
M  V30 3696 C 366.748 0.260654 -2.09485 0
M  V30 3697 O 366.096 1.26138 -1.9053 0
M  V30 3698 C 366.306 -2.21939 -2.6934 0
M  V30 3699 C 367.654 -2.56695 -3.3822 0
M  V30 3700 O 368.678 -2.20695 -2.79593 0
M  V30 3701 O 367.537 -3.18518 -4.44082 0
M  V30 3702 H 364.631 -0.452669 -0.692112 0
M  V30 3703 H 367.177 -1.45763 -0.868973 0
M  V30 3704 H 365.949 -3.17882 -2.28182 0
M  V30 3705 H 365.572 -1.94172 -3.46962 0
M  V30 3706 N 366.569 1.04691 -1.17803 0
M  V30 3707 C 367.501 2.12571 -0.857097 0
M  V30 3708 C 368.514 1.62174 0.142647 0
M  V30 3709 O 369.703 1.78301 -0.0843387 0
M  V30 3710 C 366.803 3.37915 -0.258216 0
M  V30 3711 C 365.976 4.1757 -1.30207 0
M  V30 3712 C 365.035 5.2125 -0.720029 0
M  V30 3713 O 364.061 5.51888 -1.39314 0
M  V30 3714 N 365.263 5.78466 0.485507 0
M  V30 3715 H 368.028 2.40698 -1.78562 0
M  V30 3716 H 365.589 1.20831 -1.07757 0
M  V30 3717 H 367.581 4.04442 0.144584 0
M  V30 3718 H 366.151 3.07281 0.574199 0
M  V30 3719 H 365.371 3.46458 -1.88043 0
M  V30 3720 H 366.659 4.67586 -2.00601 0
M  V30 3721 H 366.057 5.55866 1.05022 0
M  V30 3722 H 364.614 6.4649 0.830307 0
M  V30 3723 N 368.047 0.979072 1.23499 0
M  V30 3724 C 368.957 0.526431 2.28617 0
M  V30 3725 C 369.973 -0.418126 1.68901 0
M  V30 3726 O 371.149 -0.288372 1.99325 0
M  V30 3727 C 368.214 -0.165235 3.46306 0
M  V30 3728 C 367.275 0.82056 4.21385 0
M  V30 3729 C 366.508 0.161807 5.33455 0
M  V30 3730 O 366.731 -1.04742 5.60701 0
M  V30 3731 O 365.665 0.859708 5.95729 0
M  V30 3732 H 369.491 1.4006 2.69475 0
M  V30 3733 H 367.076 0.746643 1.29405 0
M  V30 3734 H 368.958 -0.553287 4.17752 0
M  V30 3735 H 367.633 -1.01419 3.07402 0
M  V30 3736 H 366.54 1.25929 3.52268 0
M  V30 3737 H 367.873 1.63828 4.64135 0
M  V30 3738 N 369.525 -1.3858 0.750561 0
M  V30 3739 C 370.488 -2.28836 0.129152 0
M  V30 3740 C 371.488 -1.47045 -0.650714 0
M  V30 3741 O 372.678 -1.6753 -0.477428 0
M  V30 3742 C 369.81 -3.30751 -0.825622 0
M  V30 3743 H 371.003 -2.85294 0.924516 0
M  V30 3744 H 368.556 -1.47489 0.517376 0
M  V30 3745 H 369.291 -2.79378 -1.64677 0
M  V30 3746 H 369.076 -3.91177 -0.268852 0
M  V30 3747 H 370.566 -3.98249 -1.2565 0
M  V30 3748 N 371.003 -0.499398 -1.49478 0
M  V30 3749 C 372.249 0.0457576 -2.02748 0
M  V30 3750 C 372.582 1.36793 -1.37846 0
M  V30 3751 O 371.857 1.87596 -0.513601 0
M  V30 3752 C 372.14 0.199986 -3.59544 0
M  V30 3753 C 371.993 -1.1452 -4.34977 0
M  V30 3754 C 373.312 0.94137 -4.29914 0
M  V30 3755 H 370.431 0.0151552 -0.736844 0
M  V30 3756 H 373.073 -0.650498 -1.78518 0
M  V30 3757 H 371.223 0.793007 -3.8032 0
M  V30 3758 H 372.895 -1.77697 -4.25701 0
M  V30 3759 H 371.138 -1.73488 -3.97598 0
M  V30 3760 H 371.809 -0.990607 -5.43039 0
M  V30 3761 H 374.285 0.43844 -4.13784 0
M  V30 3762 H 373.161 1.01812 -5.39375 0
M  V30 3763 H 373.422 1.98471 -3.95046 0
M  V30 3764 N 372.481 1.55866 -0.233164 0
M  V30 3765 C 373.444 2.1953 0.658715 0
M  V30 3766 C 374.444 1.16053 1.11303 0
M  V30 3767 O 375.634 1.41218 1.01996 0
M  V30 3768 C 372.766 2.82791 1.90373 0
M  V30 3769 H 373.959 2.99721 0.10347 0
M  V30 3770 H 371.512 1.56291 0.0164245 0
M  V30 3771 H 372.247 2.06501 2.50056 0
M  V30 3772 H 372.032 3.58578 1.58632 0
M  V30 3773 H 373.522 3.31556 2.53891 0
M  V30 3774 N 373.959 -0.0401083 1.57549 0
M  V30 3775 C 374.922 -1.02871 2.04817 0
M  V30 3776 C 375.922 -1.29708 0.950388 0
M  V30 3777 O 377.112 -1.24897 1.21435 0
M  V30 3778 C 374.244 -2.36443 2.45576 0
M  V30 3779 H 375.437 -0.620631 2.93408 0
M  V30 3780 H 372.99 -0.286667 1.53649 0
M  V30 3781 H 373.725 -2.82021 1.60108 0
M  V30 3782 H 373.51 -2.18296 3.25713 0
M  V30 3783 H 375 -3.07441 2.82612 0
M  V30 3784 N 375.437 -1.54477 -0.31217 0
M  V30 3785 C 376.686 -1.72438 -1.04633 0
M  V30 3786 C 376.999 -0.511163 -1.88803 0
M  V30 3787 O 378.205 -0.572341 -2.65399 0
M  V30 3788 C 376.661 -3.05043 -1.9099 0
M  V30 3789 C 376.269 -4.33806 -1.11877 0
M  V30 3790 C 378.013 -3.32364 -2.64073 0
M  V30 3791 C 375.92 -5.57467 -1.97445 0
M  V30 3792 H 374.85 -0.642647 -0.394361 0
M  V30 3793 H 377.501 -1.80966 -0.303929 0
M  V30 3794 H 375.883 -2.90451 -2.69173 0
M  V30 3795 H 377.057 -4.59199 -0.383843 0
M  V30 3796 H 375.372 -4.13336 -0.504252 0
M  V30 3797 H 377.969 -4.21951 -3.28423 0
M  V30 3798 H 378.312 -2.50745 -3.32314 0
M  V30 3799 H 378.845 -3.47875 -1.92944 0
M  V30 3800 H 375.584 -6.41722 -1.33692 0
M  V30 3801 H 375.104 -5.36277 -2.6864 0
M  V30 3802 H 376.783 -5.94303 -2.5576 0
M  V30 3803 N 376.915 0.57481 -1.46744 0
M  V30 3804 C 377.825 1.711 -1.60505 0
M  V30 3805 C 378.841 1.67008 -0.488307 0
M  V30 3806 O 380.017 1.86774 -0.753495 0
M  V30 3807 C 377.082 3.07608 -1.59932 0
M  V30 3808 C 376.143 3.22904 -2.82898 0
M  V30 3809 C 375.376 4.529 -2.82343 0
M  V30 3810 O 375.599 5.37278 -1.91542 0
M  V30 3811 O 374.533 4.71611 -3.73987 0
M  V30 3812 H 378.359 1.62436 -2.56609 0
M  V30 3813 H 375.944 0.742779 -1.29627 0
M  V30 3814 H 377.826 3.88877 -1.62336 0
M  V30 3815 H 376.501 3.16692 -0.669898 0
M  V30 3816 H 375.408 2.41099 -2.86046 0
M  V30 3817 H 376.741 3.18715 -3.75076 0
M  V30 3818 N 378.394 1.34581 0.820102 0
M  V30 3819 C 379.341 1.2639 1.93117 0
M  V30 3820 C 380.311 0.138554 1.65521 0
M  V30 3821 O 381.496 0.320004 1.88097 0
M  V30 3822 C 378.636 1.02812 3.29429 0
M  V30 3823 C 377.749 2.24146 3.693 0
M  V30 3824 C 376.884 1.93829 4.94574 0
M  V30 3825 C 375.923 3.1129 5.27034 0
M  V30 3826 N 375.06 2.80838 6.43486 0
M  V30 3827 H 379.9 2.21408 1.99455 0
M  V30 3828 H 377.437 1.10077 0.975784 0
M  V30 3829 H 379.395 0.871788 4.0799 0
M  V30 3830 H 378.025 0.114612 3.22596 0
M  V30 3831 H 377.077 2.50691 2.86109 0
M  V30 3832 H 378.389 3.11899 3.89257 0
M  V30 3833 H 377.543 1.74948 5.80929 0
M  V30 3834 H 376.282 1.03341 4.76626 0
M  V30 3835 H 375.287 3.30764 4.39175 0
M  V30 3836 H 376.512 4.02561 5.4692 0
M  V30 3837 H 374.458 1.92929 6.26988 0
M  V30 3838 H 374.375 3.62123 6.63629 0
M  V30 3839 H 375.643 2.65467 7.32903 0
M  V30 3840 N 379.872 -1.04064 1.18357 0
M  V30 3841 C 381.119 -1.77265 0.978947 0
M  V30 3842 C 381.447 -1.88189 -0.491428 0
M  V30 3843 O 380.702 -1.38653 -1.38108 0
M  V30 3844 C 381.001 -3.20634 1.57888 0
M  V30 3845 C 380.667 -3.29743 3.07539 0
M  V30 3846 C 379.329 -3.31937 3.48384 0
M  V30 3847 C 381.681 -3.29841 4.03552 0
M  V30 3848 C 379.009 -3.3187 4.83818 0
M  V30 3849 C 381.361 -3.31313 5.38901 0
M  V30 3850 C 380.025 -3.31799 5.79194 0
M  V30 3851 H 379.295 -0.648659 0.358222 0
M  V30 3852 H 381.942 -1.22225 1.47422 0
M  V30 3853 H 380.247 -3.78675 1.00561 0
M  V30 3854 H 381.944 -3.75917 1.39598 0
M  V30 3855 H 378.534 -3.28757 2.74986 0
M  V30 3856 H 382.718 -3.27337 3.73047 0
M  V30 3857 H 377.974 -3.30562 5.14333 0
M  V30 3858 H 382.148 -3.30338 6.13066 0
M  V30 3859 H 379.775 -3.315 6.84114 0
M  V30 3860 N 381.35 -0.985608 -1.22978 0
M  V30 3861 C 382.596 -0.65836 -1.91816 0
M  V30 3862 C 382.929 0.806692 -1.76653 0
M  V30 3863 O 382.204 1.58252 -1.13078 0
M  V30 3864 C 382.487 -1.056 -3.44268 0
M  V30 3865 C 382.34 -2.57906 -3.68516 0
M  V30 3866 C 383.659 -0.603781 -4.35939 0
M  V30 3867 H 380.778 -0.24065 -0.696604 0
M  V30 3868 H 383.42 -1.22783 -1.44998 0
M  V30 3869 H 381.57 -0.571445 -3.84274 0
M  V30 3870 H 383.242 -3.13976 -3.3796 0
M  V30 3871 H 381.485 -3.00305 -3.13048 0
M  V30 3872 H 382.156 -2.80779 -4.75255 0
M  V30 3873 H 384.632 -1.01987 -4.03408 0
M  V30 3874 H 383.508 -0.910383 -5.41298 0
M  V30 3875 H 383.769 0.495761 -4.39312 0
M  V30 3876 N 382.828 1.3818 -0.7579 0
M  V30 3877 C 384.105 1.94106 -0.241306 0
M  V30 3878 C 384.485 1.69282 1.26122 0
M  V30 3879 O 383.833 1.03378 2.03777 0
M  V30 3880 C 384.043 3.43809 -0.59967 0
M  V30 3881 C 385.391 4.20868 -0.561717 0
M  V30 3882 O 386.415 3.5211 -0.538222 0
M  V30 3883 O 385.274 5.43451 -0.576478 0
M  V30 3884 H 382.368 0.825376 -0.0518042 0
M  V30 3885 H 384.914 1.47548 -0.838315 0
M  V30 3886 H 383.686 3.55403 -1.6372 0
M  V30 3887 H 383.309 3.97592 0.0251197 0
M  V30 3888 N 384.306 0.507319 1.49211 0
M  V30 3889 C 385.583 -0.0982702 1.95353 0
M  V30 3890 C 385.963 -1.53516 1.449 0
M  V30 3891 O 385.311 -2.18594 0.66551 0
M  V30 3892 C 385.521 -0.00440283 3.49 0
M  V30 3893 C 386.869 -0.175147 4.24239 0
M  V30 3894 O 387.893 -0.0792891 3.56112 0
M  V30 3895 O 386.752 -0.37276 5.45227 0
M  V30 3896 H 383.846 -0.0918236 0.821887 0
M  V30 3897 H 386.392 0.570307 1.5983 0
M  V30 3898 H 385.164 0.997402 3.78375 0
M  V30 3899 H 384.787 -0.712845 3.91158 0
M  V30 3900 N 385.784 -1.5574 0.241426 0
M  V30 3901 C 386.694 -2.2479 -0.671305 0
M  V30 3902 C 387.71 -1.26217 -1.19772 0
M  V30 3903 O 388.886 -1.59079 -1.23514 0
M  V30 3904 C 385.951 -2.92966 -1.85396 0
M  V30 3905 C 385.012 -4.06935 -1.36756 0
M  V30 3906 C 384.245 -4.71851 -2.49384 0
M  V30 3907 O 384.468 -4.35823 -3.67987 0
M  V30 3908 O 383.402 -5.60467 -2.19454 0
M  V30 3909 H 387.228 -3.0349 -0.112966 0
M  V30 3910 H 384.813 -1.49397 0.0101513 0
M  V30 3911 H 386.695 -3.35927 -2.54423 0
M  V30 3912 H 385.37 -2.17211 -2.40002 0
M  V30 3913 H 384.277 -3.68503 -0.644726 0
M  V30 3914 H 385.61 -4.84492 -0.867647 0
M  V30 3915 N 387.262 0.0317525 -1.57568 0
M  V30 3916 C 388.209 1.0332 -2.06382 0
M  V30 3917 C 389.179 1.36082 -0.952414 0
M  V30 3918 O 390.364 1.46466 -1.2228 0
M  V30 3919 C 387.504 2.32989 -2.54578 0
M  V30 3920 C 386.617 2.0641 -3.79498 0
M  V30 3921 C 385.752 3.2993 -4.16317 0
M  V30 3922 C 384.791 2.98893 -5.34162 0
M  V30 3923 N 383.928 4.14857 -5.66426 0
M  V30 3924 H 388.768 0.609982 -2.9169 0
M  V30 3925 H 386.305 0.289573 -1.44222 0
M  V30 3926 H 388.263 3.0875 -2.80587 0
M  V30 3927 H 386.893 2.73039 -1.7219 0
M  V30 3928 H 385.945 1.21158 -3.6059 0
M  V30 3929 H 387.257 1.79513 -4.65378 0
M  V30 3930 H 386.411 4.1406 -4.4344 0
M  V30 3931 H 385.15 3.59938 -3.29083 0
M  V30 3932 H 384.155 2.13164 -5.06795 0
M  V30 3933 H 385.38 2.70165 -6.23047 0
M  V30 3934 H 383.326 4.44821 -4.82151 0
M  V30 3935 H 383.243 3.91374 -6.4681 0
M  V30 3936 H 384.511 4.99868 -5.98124 0
M  V30 3937 N 388.74 1.54641 0.303973 0
M  V30 3938 C 389.989 1.7299 1.03717 0
M  V30 3939 C 390.302 0.521168 1.88529 0
M  V30 3940 O 391.508 0.586408 2.65092 0
M  V30 3941 C 389.964 3.06051 1.89369 0
M  V30 3942 C 389.572 4.34393 1.09574 0
M  V30 3943 C 391.316 3.3376 2.62306 0
M  V30 3944 C 389.223 5.58506 1.94486 0
M  V30 3945 H 388.153 0.64473 0.390947 0
M  V30 3946 H 390.804 1.81124 0.294328 0
M  V30 3947 H 389.186 2.91874 2.67629 0
M  V30 3948 H 390.36 4.59396 0.359485 0
M  V30 3949 H 388.675 4.13597 0.482324 0
M  V30 3950 H 391.272 4.23687 3.26181 0
M  V30 3951 H 391.615 2.52503 3.3098 0
M  V30 3952 H 392.148 3.48894 1.91097 0
M  V30 3953 H 388.887 6.42422 1.30287 0
M  V30 3954 H 388.407 5.37694 2.65792 0
M  V30 3955 H 390.086 5.95651 2.52605 0
M  V30 3956 N 390.218 -0.567019 1.47046 0
M  V30 3957 C 391.148 -1.68482 1.61667 0
M  V30 3958 C 392.129 -1.6358 0.466418 0
M  V30 3959 O 393.314 -1.81354 0.694574 0
M  V30 3960 C 390.444 -3.07124 1.62148 0
M  V30 3961 C 389.398 -3.26867 2.76301 0
M  V30 3962 C 388.724 -4.66196 2.61849 0
M  V30 3963 C 390.024 -3.13186 4.17986 0
M  V30 3964 H 391.718 -1.56502 2.5524 0
M  V30 3965 H 389.264 -0.751486 1.22836 0
M  V30 3966 H 391.217 -3.8516 1.70968 0
M  V30 3967 H 389.941 -3.2004 0.651287 0
M  V30 3968 H 388.6 -2.51237 2.66975 0
M  V30 3969 H 388.248 -4.75898 1.62879 0
M  V30 3970 H 387.948 -4.80356 3.38425 0
M  V30 3971 H 389.472 -5.46379 2.72584 0
M  V30 3972 H 390.886 -3.81049 4.2834 0
M  V30 3973 H 389.283 -3.3886 4.95272 0
M  V30 3974 H 390.353 -2.10057 4.3704 0
M  V30 3975 N 391.696 -1.35014 -0.812953 0
M  V30 3976 C 392.942 -1.2812 -1.57204 0
M  V30 3977 C 393.275 0.145869 -1.93651 0
M  V30 3978 O 392.55 1.0937 -1.60836 0
M  V30 3979 C 392.833 -2.18162 -2.86492 0
M  V30 3980 C 392.686 -3.69454 -2.56561 0
M  V30 3981 C 394.005 -2.07439 -3.88145 0
M  V30 3982 H 391.124 -0.466746 -0.570366 0
M  V30 3983 H 393.766 -1.65357 -0.935783 0
M  V30 3984 H 391.916 -1.86535 -3.40789 0
M  V30 3985 H 393.588 -4.11493 -2.08497 0
M  V30 3986 H 391.831 -3.9005 -1.89851 0
M  V30 3987 H 392.502 -4.27835 -3.48799 0
M  V30 3988 H 394.978 -2.35228 -3.4323 0
M  V30 3989 H 393.854 -2.7265 -4.76396 0
M  V30 3990 H 394.115 -1.05439 -4.29343 0
M  V30 3991 N 393.175 1.03435 -1.18907 0
M  V30 3992 C 394.085 2.15075 -0.937015 0
M  V30 3993 C 395.101 1.73706 0.101085 0
M  V30 3994 O 396.277 2.01232 -0.0822948 0
M  V30 3995 C 393.342 3.43458 -0.473057 0
M  V30 3996 C 392.403 3.99172 -1.57989 0
M  V30 3997 C 391.636 5.21427 -1.13797 0
M  V30 3998 O 391.859 5.704 0.000725941 0
M  V30 3999 O 390.793 5.69837 -1.9383 0
M  V30 4000 H 394.619 2.39198 -1.87131 0
M  V30 4001 H 392.204 1.13506 -0.971427 0
M  V30 4002 H 394.086 4.20811 -0.222702 0
M  V30 4003 H 392.761 3.20793 0.432869 0
M  V30 4004 H 391.668 3.23178 -1.88433 0
M  V30 4005 H 393.001 4.2619 -2.46217 0
M  V30 4006 N 394.653 0.992116 1.22453 0
M  V30 4007 C 396.064 0.702776 1.72968 0
M  V30 4008 C 396.415 -0.780399 1.80012 0
M  V30 4009 O 395.54 -1.61007 1.44589 0
M  V30 4010 C 396.135 1.26903 3.14135 0
M  V30 4011 C 394.694 1.02909 3.62059 0
M  V30 4012 C 393.841 1.38969 2.39964 0
M  V30 4013 H 396.792 1.16457 1.07812 0
M  V30 4014 H 396.813 0.647223 3.74955 0
M  V30 4015 H 396.325 2.34851 3.08977 0
M  V30 4016 H 394.426 -0.0337979 3.72585 0
M  V30 4017 H 394.539 1.69191 4.48231 0
M  V30 4018 H 392.903 0.808279 2.41535 0
M  V30 4019 H 393.686 2.4792 2.37467 0
M  V30 4020 N 396.131 -1.37776 0.765217 0
M  V30 4021 C 397.094 -2.28686 0.153416 0
M  V30 4022 C 398.094 -1.47727 -0.635081 0
M  V30 4023 O 399.284 -1.68027 -0.459632 0
M  V30 4024 C 396.416 -3.31608 -0.790495 0
M  V30 4025 H 397.609 -2.84297 0.954723 0
M  V30 4026 H 395.162 -1.46932 0.53299 0
M  V30 4027 H 395.897 -2.81109 -1.61705 0
M  V30 4028 H 395.682 -3.9144 -0.227348 0
M  V30 4029 H 397.172 -3.99559 -1.21419 0
M  V30 4030 N 397.609 -0.515225 -1.4894 0
M  V30 4031 C 398.849 0.0223983 -2.04388 0
M  V30 4032 C 399.213 1.32961 -1.38511 0
M  V30 4033 O 400.414 1.95236 -1.8476 0
M  V30 4034 C 398.685 0.157056 -3.57055 0
M  V30 4035 S 400.244 0.646875 -4.34006 0
M  V30 4036 H 397.062 -0.00500662 -0.710982 0
M  V30 4037 H 399.664 -0.69243 -1.82827 0
M  V30 4038 H 398.368 -0.799412 -4.02539 0
M  V30 4039 H 397.899 0.896704 -3.83044 0
M  V30 4040 H 399.914 1.91381 -4.57808 0
M  V30 4041 N 399.087 1.5561 -0.249682 0
M  V30 4042 C 400.335 1.98618 0.373548 0
M  V30 4043 C 400.656 1.13919 1.58264 0
M  V30 4044 O 399.926 0.222637 1.94631 0
M  V30 4045 H 398.506 0.733571 0.141006 0
M  V30 4046 H 401.168 1.91748 -0.349117 0
M  V30 4047 H 400.264 3.04584 0.680796 0
M  V30 4048 N 400.565 -0.0233959 1.57583 0
M  V30 4049 C 401.528 -1.00693 2.05897 0
M  V30 4050 C 402.528 -1.28693 0.964092 0
M  V30 4051 O 403.718 -1.23602 1.22753 0
M  V30 4052 C 400.85 -2.33825 2.4807 0
M  V30 4053 H 402.043 -0.589476 2.9405 0
M  V30 4054 H 399.596 -0.270354 1.53944 0
M  V30 4055 H 400.331 -2.80307 1.6309 0
M  V30 4056 H 400.116 -2.1483 3.2801 0
M  V30 4057 H 401.606 -3.04426 2.85857 0
M  V30 4058 N 402.043 -1.548 -0.295768 0
M  V30 4059 C 403.006 -1.85363 -1.34808 0
M  V30 4060 C 404.006 -0.726817 -1.43436 0
M  V30 4061 O 405.196 -0.995088 -1.42981 0
M  V30 4062 C 402.328 -2.03859 -2.73229 0
M  V30 4063 H 403.521 -2.7941 -1.08949 0
M  V30 4064 H 401.074 -1.46942 -0.532702 0
M  V30 4065 H 401.809 -1.12117 -3.04303 0
M  V30 4066 H 401.594 -2.8588 -2.68356 0
M  V30 4067 H 403.084 -2.28857 -3.49305 0
M  V30 4068 N 403.521 0.559213 -1.47345 0
M  V30 4069 C 404.451 1.67622 -1.62558 0
M  V30 4070 C 405.432 1.63331 -0.475087 0
M  V30 4071 O 406.617 1.80983 -0.704182 0
M  V30 4072 C 403.747 3.0626 -1.63774 0
M  V30 4073 C 402.701 3.25397 -2.7803 0
M  V30 4074 C 402.027 4.64801 -2.64318 0
M  V30 4075 C 403.327 3.10965 -4.19641 0
M  V30 4076 H 405.021 1.55146 -2.56067 0
M  V30 4077 H 402.567 0.744961 -1.23233 0
M  V30 4078 H 404.52 3.84247 -1.73008 0
M  V30 4079 H 403.244 3.1969 -0.66825 0
M  V30 4080 H 401.903 2.49817 -2.68304 0
M  V30 4081 H 401.551 4.75028 -1.65401 0
M  V30 4082 H 401.251 4.78555 -3.40968 0
M  V30 4083 H 402.775 5.44926 -2.75478 0
M  V30 4084 H 404.189 3.78772 -4.30354 0
M  V30 4085 H 402.586 3.36229 -4.97062 0
M  V30 4086 H 403.656 2.07736 -4.38148 0
M  V30 4087 N 404.999 1.35443 0.805782 0
M  V30 4088 C 405.962 1.28301 1.89925 0
M  V30 4089 C 406.962 0.194285 1.59622 0
M  V30 4090 O 408.152 0.448036 1.6834 0
M  V30 4091 C 405.284 0.984997 3.2636 0
M  V30 4092 H 406.477 2.2553 1.97677 0
M  V30 4093 H 404.03 1.19979 1.00173 0
M  V30 4094 H 404.765 0.016603 3.24296 0
M  V30 4095 H 404.55 1.77269 3.4974 0
M  V30 4096 H 406.04 0.960651 4.064 0
M  V30 4097 N 406.477 -1.02803 1.19454 0
M  V30 4098 C 407.44 -2.09264 0.934955 0
M  V30 4099 C 408.44 -1.60576 -0.0849015 0
M  V30 4100 O 409.63 -1.73554 0.149933 0
M  V30 4101 C 406.762 -3.38482 0.40531 0
M  V30 4102 H 407.955 -2.33726 1.87916 0
M  V30 4103 H 405.508 -1.19426 1.00832 0
M  V30 4104 H 406.243 -3.19689 -0.544899 0
M  V30 4105 H 406.028 -3.75142 1.14065 0
M  V30 4106 H 407.518 -4.16894 0.242806 0
M  V30 4107 N 407.956 -0.998596 -1.21925 0
M  V30 4108 C 409.202 -0.678667 -1.91107 0
M  V30 4109 C 409.535 0.78791 -1.77498 0
M  V30 4110 O 408.81 1.57043 -1.1475 0
M  V30 4111 C 409.093 -1.09245 -3.43129 0
M  V30 4112 C 408.946 -2.61801 -3.6576 0
M  V30 4113 C 410.265 -0.649984 -4.35274 0
M  V30 4114 H 407.384 -0.248025 -0.694012 0
M  V30 4115 H 410.026 -1.24314 -1.43688 0
M  V30 4116 H 408.176 -0.612171 -3.83647 0
M  V30 4117 H 409.848 -3.17543 -3.34611 0
M  V30 4118 H 408.091 -3.03609 -3.09845 0
M  V30 4119 H 408.762 -2.85804 -4.7225 0
M  V30 4120 H 411.238 -1.0626 -4.02303 0
M  V30 4121 H 410.114 -0.967743 -5.40302 0
M  V30 4122 H 410.375 0.449139 -4.39813 0
M  V30 4123 N 409.434 1.37368 -0.772513 0
M  V30 4124 C 410.664 2.03647 -0.348082 0
M  V30 4125 C 411.072 1.58392 1.03482 0
M  V30 4126 O 410.415 0.760921 1.672 0
M  V30 4127 C 410.477 3.58131 -0.313404 0
M  V30 4128 C 410.141 4.2652 -1.64102 0
M  V30 4129 C 411.138 4.50587 -2.5936 0
M  V30 4130 C 408.823 4.64335 -1.91567 0
M  V30 4131 C 410.817 5.11526 -3.80289 0
M  V30 4132 C 408.504 5.24996 -3.12766 0
M  V30 4133 C 409.502 5.48529 -4.06946 0
M  V30 4134 O 409.19 6.07921 -5.26011 0
M  V30 4135 H 408.922 0.660538 -0.143753 0
M  V30 4136 H 411.476 1.76669 -1.04772 0
M  V30 4137 H 409.706 3.84159 0.442617 0
M  V30 4138 H 411.395 4.05813 0.0840613 0
M  V30 4139 H 412.161 4.21784 -2.39423 0
M  V30 4140 H 408.04 4.45353 -1.19088 0
M  V30 4141 H 411.584 5.29811 -4.53813 0
M  V30 4142 H 407.481 5.53223 -3.32588 0
M  V30 4143 H 408.249 6.26398 -5.26847 0
M  V30 4144 N 410.912 0.523116 1.48665 0
M  V30 4145 C 412.137 -0.0117284 2.07397 0
M  V30 4146 C 412.562 -1.28031 1.37803 0
M  V30 4147 O 411.92 -1.75836 0.441762 0
M  V30 4148 C 411.968 -0.225786 3.59892 0
M  V30 4149 O 411.072 -1.29592 3.91509 0
M  V30 4150 H 410.413 0.0360673 0.66302 0
M  V30 4151 H 412.943 0.729066 1.9117 0
M  V30 4152 H 412.953 -0.450552 4.05505 0
M  V30 4153 H 411.628 0.700944 4.09951 0
M  V30 4154 H 410.205 -1.05436 3.57684 0
M  V30 4155 N 412.39 -1.55475 0.257931 0
M  V30 4156 C 413.34 -2.18506 -0.651094 0
M  V30 4157 C 414.324 -1.14431 -1.13112 0
M  V30 4158 O 415.516 -1.40305 -1.07905 0
M  V30 4159 C 412.645 -2.89653 -1.84272 0
M  V30 4160 C 411.731 -4.00996 -1.38068 0
M  V30 4161 N 412.122 -5.01816 -0.633609 0
M  V30 4162 C 410.42 -4.13753 -1.66506 0
M  V30 4163 C 411.121 -5.80371 -0.392922 0
M  V30 4164 N 410.097 -5.3505 -0.960359 0
M  V30 4165 H 413.899 -2.93811 -0.0722883 0
M  V30 4166 H 411.413 -1.62286 0.0607256 0
M  V30 4167 H 413.41 -3.33245 -2.50506 0
M  V30 4168 H 412.07 -2.15854 -2.42564 0
M  V30 4169 H 413.081 -5.17128 -0.282626 0
M  V30 4170 H 409.758 -3.51133 -2.25858 0
M  V30 4171 H 411.148 -6.7159 0.204235 0
M  V30 4172 N 413.868 0.0150385 -1.57593 0
M  V30 4173 C 415.114 0.704043 -1.90187 0
M  V30 4174 C 415.447 1.74249 -0.857366 0
M  V30 4175 O 414.722 1.94092 0.125843 0
M  V30 4176 C 415.005 1.36087 -3.33395 0
M  V30 4177 C 414.858 0.334981 -4.48551 0
M  V30 4178 C 416.177 2.29112 -3.7576 0
M  V30 4179 H 413.296 0.254475 -0.691673 0
M  V30 4180 H 415.938 -0.0331678 -1.89971 0
M  V30 4181 H 414.088 1.98922 -3.3371 0
M  V30 4182 H 415.76 -0.292534 -4.60372 0
M  V30 4183 H 414.003 -0.344325 -4.32431 0
M  V30 4184 H 414.674 0.833316 -5.45674 0
M  V30 4185 H 417.15 1.76308 -3.76902 0
M  V30 4186 H 416.026 2.72043 -4.76743 0
M  V30 4187 H 416.287 3.16385 -3.08793 0
M  V30 4188 N 415.346 1.54954 0.287554 0
M  V30 4189 C 416.595 1.74081 1.01877 0
M  V30 4190 C 416.908 0.541135 1.87966 0
M  V30 4191 O 418.114 0.614491 2.64455 0
M  V30 4192 C 416.57 3.08042 1.86113 0
M  V30 4193 C 416.178 4.35531 1.04961 0
M  V30 4194 C 417.922 3.36523 2.58752 0
M  V30 4195 C 415.829 5.60538 1.88551 0
M  V30 4196 H 414.759 0.64884 0.384087 0
M  V30 4197 H 417.41 1.81426 0.275101 0
M  V30 4198 H 415.792 2.94696 2.64519 0
M  V30 4199 H 416.966 4.59751 0.31074 0
M  V30 4200 H 415.281 4.14085 0.43843 0
M  V30 4201 H 417.878 4.27122 3.21668 0
M  V30 4202 H 418.221 2.56 3.28283 0
M  V30 4203 H 418.754 3.50901 1.87386 0
M  V30 4204 H 415.493 6.43767 1.23466 0
M  V30 4205 H 415.013 5.40483 2.60074 0
M  V30 4206 H 416.692 5.98297 2.46273 0
M  V30 4207 N 416.824 -0.551391 1.4764 0
M  V30 4208 C 417.756 -1.67333 1.56628 0
M  V30 4209 C 418.769 -1.56398 0.452045 0
M  V30 4210 O 419.958 -1.6325 0.721926 0
M  V30 4211 C 417.058 -3.05841 1.45994 0
M  V30 4212 C 416.231 -3.42472 2.72088 0
M  V30 4213 C 415.29 -4.60168 2.55209 0
M  V30 4214 O 414.316 -4.64458 3.2904 0
M  V30 4215 N 415.518 -5.57024 1.63416 0
M  V30 4216 H 418.283 -1.60066 2.53375 0
M  V30 4217 H 415.844 -0.738169 1.44093 0
M  V30 4218 H 417.836 -3.8242 1.32428 0
M  V30 4219 H 416.406 -3.07302 0.573071 0
M  V30 4220 H 415.626 -2.55284 3.00373 0
M  V30 4221 H 416.914 -3.63723 3.55785 0
M  V30 4222 H 416.312 -5.56319 1.02594 0
M  V30 4223 H 414.869 -6.32906 1.558 0
M  V30 4224 N 418.302 -1.35869 -0.798587 0
M  V30 4225 C 419.249 -1.29446 -1.91082 0
M  V30 4226 C 420.219 -0.16487 -1.6528 0
M  V30 4227 O 421.404 -0.349888 -1.87564 0
M  V30 4228 C 418.544 -1.0804 -3.27752 0
M  V30 4229 C 417.657 -2.29993 -3.65687 0
M  V30 4230 C 416.792 -2.01673 -4.91428 0
M  V30 4231 C 415.831 -3.19636 -5.22015 0
M  V30 4232 N 414.968 -2.91039 -6.38937 0
M  V30 4233 H 419.808 -2.24553 -1.95907 0
M  V30 4234 H 417.345 -1.11615 -0.958148 0
M  V30 4235 H 419.303 -0.936586 -4.06551 0
M  V30 4236 H 417.933 -0.16592 -3.22373 0
M  V30 4237 H 416.985 -2.55211 -2.82085 0
M  V30 4238 H 418.297 -3.18052 -3.84245 0
M  V30 4239 H 417.451 -1.84168 -5.78072 0
M  V30 4240 H 416.19 -1.10911 -4.74921 0
M  V30 4241 H 415.195 -3.37709 -4.33858 0
M  V30 4242 H 416.42 -4.11211 -5.40447 0
M  V30 4243 H 414.366 -2.0288 -6.2384 0
M  V30 4244 H 414.283 -3.72635 -6.57784 0
M  V30 4245 H 415.551 -2.77093 -7.28587 0
M  V30 4246 N 419.78 1.02168 -1.19998 0
M  V30 4247 C 420.71 2.12488 -0.96804 0
M  V30 4248 C 421.691 1.69799 0.101185 0
M  V30 4249 O 422.876 1.94121 -0.0552993 0
M  V30 4250 C 420.006 3.43479 -0.513776 0
M  V30 4251 C 418.96 3.99884 -1.52566 0
M  V30 4252 C 418.286 5.26582 -0.928214 0
M  V30 4253 C 419.586 4.33861 -2.90795 0
M  V30 4254 H 421.28 2.32149 -1.89069 0
M  V30 4255 H 418.826 1.11564 -0.910468 0
M  V30 4256 H 420.779 4.20036 -0.338774 0
M  V30 4257 H 419.503 3.23561 0.444493 0
M  V30 4258 H 418.162 3.25429 -1.68794 0
M  V30 4259 H 417.81 5.02986 0.0378289 0
M  V30 4260 H 417.51 5.65284 -1.60397 0
M  V30 4261 H 419.034 6.05799 -0.764167 0
M  V30 4262 H 420.448 5.01327 -2.78109 0
M  V30 4263 H 418.845 4.83664 -3.55231 0
M  V30 4264 H 419.915 3.42848 -3.42904 0
M  V30 4265 N 421.258 1.00505 1.21394 0
M  V30 4266 C 422.19 0.52372 2.23136 0
M  V30 4267 C 423.203 -0.387714 1.58116 0
M  V30 4268 O 424.392 -0.187905 1.77508 0
M  V30 4269 C 421.492 -0.258885 3.3791 0
M  V30 4270 C 420.665 0.651634 4.32519 0
M  V30 4271 C 419.724 -0.0813705 5.26137 0
M  V30 4272 O 418.75 0.537295 5.66658 0
M  V30 4273 N 419.952 -1.35992 5.64346 0
M  V30 4274 H 422.717 1.39865 2.65062 0
M  V30 4275 H 420.278 0.881196 1.35818 0
M  V30 4276 H 422.27 -0.758208 3.97534 0
M  V30 4277 H 420.84 -1.035 2.94968 0
M  V30 4278 H 420.06 1.33145 3.71034 0
M  V30 4279 H 421.348 1.27129 4.92662 0
M  V30 4280 H 420.746 -1.88368 5.33417 0
M  V30 4281 H 419.303 -1.8042 6.26332 0
M  V30 4282 N 422.737 -1.36956 0.779787 0
M  V30 4283 C 423.667 -2.32761 0.185651 0
M  V30 4284 C 424.648 -1.56177 -0.673989 0
M  V30 4285 O 425.833 -1.84378 -0.609797 0
M  V30 4286 C 422.963 -3.40418 -0.687964 0
M  V30 4287 C 421.917 -4.27941 0.0710102 0
M  V30 4288 C 421.243 -5.26681 -0.922573 0
M  V30 4289 C 422.543 -5.07006 1.25467 0
M  V30 4290 H 424.237 -2.82698 0.986008 0
M  V30 4291 H 421.783 -1.3592 0.475592 0
M  V30 4292 H 423.736 -4.06423 -1.11348 0
M  V30 4293 H 422.46 -2.89025 -1.52093 0
M  V30 4294 H 421.119 -3.63478 0.47739 0
M  V30 4295 H 420.767 -4.71565 -1.7503 0
M  V30 4296 H 420.467 -5.86103 -0.419237 0
M  V30 4297 H 421.991 -5.9556 -1.34686 0
M  V30 4298 H 423.405 -5.66105 0.905401 0
M  V30 4299 H 421.802 -5.75793 1.69063 0
M  V30 4300 H 422.872 -4.3921 2.05481 0
M  V30 4301 N 424.215 -0.530993 -1.48385 0
M  V30 4302 C 425.125 0.23503 -2.3342 0
M  V30 4303 C 426.141 0.93801 -1.46552 0
M  V30 4304 O 427.317 0.912745 -1.7953 0
M  V30 4305 C 424.382 1.26778 -3.22689 0
M  V30 4306 C 423.443 0.575038 -4.25431 0
M  V30 4307 C 422.676 1.55858 -5.10435 0
M  V30 4308 O 422.899 2.79129 -4.97437 0
M  V30 4309 O 421.833 1.09742 -5.91811 0
M  V30 4310 H 425.659 -0.461794 -3.00169 0
M  V30 4311 H 423.244 -0.291903 -1.46521 0
M  V30 4312 H 425.126 1.86457 -3.77904 0
M  V30 4313 H 423.801 1.94699 -2.586 0
M  V30 4314 H 422.708 -0.0622782 -3.74048 0
M  V30 4315 H 424.041 -0.062253 -4.92161 0
M  V30 4316 N 425.693 1.55336 -0.266172 0
M  V30 4317 C 426.941 1.99003 0.35246 0
M  V30 4318 C 427.262 1.15591 1.57047 0
M  V30 4319 O 426.532 0.243268 1.94384 0
M  V30 4320 H 425.112 0.735025 0.133217 0
M  V30 4321 H 427.774 1.91367 -0.369434 0
M  V30 4322 H 426.87 3.05289 0.648453 0
M  V30 4323 N 427.171 -0.0066808 1.57599 0
M  V30 4324 C 428.119 -1.01851 2.09115 0
M  V30 4325 C 429.113 -1.36021 1.00969 0
M  V30 4326 O 430.319 -1.34663 1.19439 0
M  V30 4327 H 426.694 -0.346083 0.667631 0
M  V30 4328 H 428.665 -0.558394 2.93129 0
M  V30 4329 C 427.414 -2.30374 2.60429 0
M  V30 4330 H 426.737 -2.04947 3.43273 0
M  V30 4331 H 428.177 -2.99466 3.00161 0
M  V30 4332 C 426.636 -3.00893 1.51542 0
M  V30 4333 O 427.166 -3.91614 0.894484 0
M  V30 4334 N 425.372 -2.62603 1.2445 0
M  V30 4335 H 424.919 -1.88911 1.75129 0
M  V30 4336 H 424.877 -3.10101 0.518137 0
M  V30 4337 N 428.649 -1.55105 -0.279332 0
M  V30 4338 C 429.579 -1.90557 -1.34945 0
M  V30 4339 C 430.56 -0.766738 -1.51839 0
M  V30 4340 O 431.745 -1.02434 -1.64988 0
M  V30 4341 C 428.875 -2.17193 -2.71006 0
M  V30 4342 C 427.829 -3.33021 -2.68851 0
M  V30 4343 C 427.155 -3.45123 -4.08405 0
M  V30 4344 C 428.455 -4.69578 -2.28678 0
M  V30 4345 H 430.149 -2.80188 -1.05522 0
M  V30 4346 H 427.695 -1.34811 -0.506173 0
M  V30 4347 H 429.648 -2.40581 -3.45975 0
M  V30 4348 H 428.372 -1.24355 -3.01999 0
M  V30 4349 H 427.031 -3.0959 -1.9634 0
M  V30 4350 H 426.679 -2.49762 -4.3661 0
M  V30 4351 H 426.379 -4.22995 -4.07859 0
M  V30 4352 H 427.903 -3.70796 -4.85121 0
M  V30 4353 H 429.317 -4.92553 -2.93368 0
M  V30 4354 H 427.714 -5.5032 -2.39306 0
M  V30 4355 H 428.784 -4.68828 -1.23807 0
M  V30 4356 N 430.127 0.543554 -1.4793 0
M  V30 4357 C 431.543 0.870806 -1.3375 0
M  V30 4358 C 431.743 1.9864 -0.338261 0
M  V30 4359 O 430.799 2.51305 0.245371 0
M  V30 4360 C 432.112 1.25114 -2.73435 0
M  V30 4361 C 433.66 1.3618 -2.81823 0
M  V30 4362 C 434.135 1.77563 -4.22179 0
M  V30 4363 N 435.626 1.8469 -4.24787 0
M  V30 4364 C 436.361 2.18067 -5.30315 0
M  V30 4365 N 435.857 2.49963 -6.46135 0
M  V30 4366 N 437.65 2.18958 -5.17701 0
M  V30 4367 H 429.801 -0.19275 -2.11524 0
M  V30 4368 H 432.064 -0.0235777 -0.947707 0
M  V30 4369 H 431.77 0.50514 -3.48053 0
M  V30 4370 H 431.644 2.20431 -3.06088 0
M  V30 4371 H 434.031 2.09859 -2.07468 0
M  V30 4372 H 434.112 0.390169 -2.52807 0
M  V30 4373 H 433.756 1.04449 -4.97044 0
M  V30 4374 H 433.686 2.75753 -4.48629 0
M  V30 4375 H 436.177 1.62372 -3.41239 0
M  V30 4376 H 436.49 2.74497 -7.22406 0
M  V30 4377 H 434.835 2.47513 -6.49432 0
M  V30 4378 H 438.026 1.93488 -4.2624 0
M  V30 4379 H 438.199 2.44639 -6.00047 0
M  V30 4380 N 431.605 1.3629 0.791371 0
M  V30 4381 C 432.833 1.33562 1.58016 0
M  V30 4382 C 433.248 -0.0835616 1.88615 0
M  V30 4383 O 432.605 -1.0399 1.49974 0
M  V30 4384 C 432.656 2.15517 2.90232 0
M  V30 4385 O 432.377 3.51902 2.60953 0
M  V30 4386 C 433.878 2.20546 3.84544 0
M  V30 4387 H 431.098 0.458226 0.490173 0
M  V30 4388 H 433.642 1.79361 0.982345 0
M  V30 4389 H 431.797 1.73278 3.46487 0
M  V30 4390 H 432.211 3.94644 3.4548 0
M  V30 4391 H 433.685 2.82252 4.74382 0
M  V30 4392 H 434.162 1.20838 4.2225 0
M  V30 4393 H 434.768 2.63013 3.34222 0
M  V30 4394 N 433.083 -1.0153 1.20538 0
M  V30 4395 C 434.494 -1.56598 1.01657 0
M  V30 4396 C 434.845 -1.91505 -0.426668 0
M  V30 4397 O 433.97 -1.72375 -1.30827 0
M  V30 4398 C 434.565 -2.84542 1.83905 0
M  V30 4399 C 433.124 -3.36133 1.69386 0
M  V30 4400 C 432.271 -2.09427 1.81757 0
M  V30 4401 H 435.222 -0.838974 1.34711 0
M  V30 4402 H 435.243 -3.56004 1.34319 0
M  V30 4403 H 434.755 -2.59105 2.8894 0
M  V30 4404 H 432.856 -3.66528 0.669933 0
M  V30 4405 H 432.969 -4.08248 2.50739 0
M  V30 4406 H 431.333 -2.21941 1.24957 0
M  V30 4407 H 432.116 -1.86414 2.88279 0
M  V30 4408 N 434.561 -1.01147 -1.20859 0
M  V30 4409 C 435.491 -0.597663 -2.25722 0
M  V30 4410 C 436.472 0.384744 -1.65692 0
M  V30 4411 O 437.657 0.271303 -1.92296 0
M  V30 4412 C 434.787 0.0700149 -3.47229 0
M  V30 4413 C 433.741 -0.832843 -4.19819 0
M  V30 4414 C 433.067 -0.0312202 -5.34691 0
M  V30 4415 C 434.367 -2.1385 -4.76514 0
M  V30 4416 H 436.061 -1.47423 -2.60589 0
M  V30 4417 H 433.607 -0.710301 -1.25263 0
M  V30 4418 H 435.56 0.37103 -4.19763 0
M  V30 4419 H 434.284 0.981259 -3.11511 0
M  V30 4420 H 432.943 -1.11778 -3.49144 0
M  V30 4421 H 432.591 0.881515 -4.95215 0
M  V30 4422 H 432.291 -0.632434 -5.84187 0
M  V30 4423 H 433.815 0.26346 -6.10031 0
M  V30 4424 H 435.229 -1.9002 -5.40893 0
M  V30 4425 H 433.626 -2.69012 -5.36426 0
M  V30 4426 H 434.696 -2.80495 -3.95538 0
M  V30 4427 N 436.039 1.36541 -0.78704 0
M  V30 4428 C 437.45 1.81873 -0.421807 0
M  V30 4429 C 437.801 1.65487 1.05397 0
M  V30 4430 O 436.926 1.17448 1.81755 0
M  V30 4431 C 437.521 3.30192 -0.758841 0
M  V30 4432 C 436.08 3.73743 -0.446468 0
M  V30 4433 C 435.227 2.58844 -0.994728 0
M  V30 4434 H 438.178 1.24796 -0.98039 0
M  V30 4435 H 438.199 3.80468 -0.0490648 0
M  V30 4436 H 437.711 3.42087 -1.83299 0
M  V30 4437 H 435.812 3.6741 0.619739 0
M  V30 4438 H 435.925 4.69272 -0.965415 0
M  V30 4439 H 434.289 2.51245 -0.418087 0
M  V30 4440 H 435.072 2.73525 -2.07458 0
M  V30 4441 N 437.518 0.538854 1.48102 0
M  V30 4442 C 438.743 0.0102694 2.07397 0
M  V30 4443 C 439.168 -1.26562 1.39153 0
M  V30 4444 O 438.526 -1.75357 0.460387 0
M  V30 4445 C 438.574 -0.187602 3.60112 0
M  V30 4446 O 437.678 -1.25432 3.92862 0
M  V30 4447 H 437.019 0.0430975 0.6626 0
M  V30 4448 H 439.549 0.749301 1.90385 0
M  V30 4449 H 439.559 -0.407517 4.0596 0
M  V30 4450 H 438.234 0.744386 4.09184 0
M  V30 4451 H 436.811 -1.01636 3.58782 0
M  V30 4452 N 438.996 -1.55193 0.274407 0
M  V30 4453 C 439.926 -2.25471 -0.607032 0
M  V30 4454 C 440.907 -1.24461 -1.15946 0
M  V30 4455 O 442.092 -1.53179 -1.19373 0
M  V30 4456 C 439.222 -2.97526 -1.79153 0
M  V30 4457 C 438.176 -4.05459 -1.37067 0
M  V30 4458 C 437.502 -4.65084 -2.6382 0
M  V30 4459 C 438.802 -5.19691 -0.521389 0
M  V30 4460 H 440.496 -2.99393 -0.0209343 0
M  V30 4461 H 438.042 -1.43997 -0.00862866 0
M  V30 4462 H 439.995 -3.45402 -2.41404 0
M  V30 4463 H 438.719 -2.21138 -2.40344 0
M  V30 4464 H 437.378 -3.58393 -0.771355 0
M  V30 4465 H 437.026 -3.85365 -3.23268 0
M  V30 4466 H 436.726 -5.37961 -2.36372 0
M  V30 4467 H 438.25 -5.15708 -3.26921 0
M  V30 4468 H 439.664 -5.63623 -1.04889 0
M  V30 4469 H 438.061 -5.99126 -0.341825 0
M  V30 4470 H 439.131 -4.82713 0.46 0
M  V30 4471 N 440.474 -0.00167713 -1.576 0
M  V30 4472 C 441.72 0.683832 -1.90923 0
M  V30 4473 C 442.053 1.7333 -0.875799 0
M  V30 4474 O 441.328 1.94215 0.10525 0
M  V30 4475 C 441.611 1.32543 -3.3482 0
M  V30 4476 C 441.464 0.287387 -4.48881 0
M  V30 4477 C 442.783 2.25114 -3.78169 0
M  V30 4478 H 439.902 0.247125 -0.694333 0
M  V30 4479 H 442.544 -0.0533149 -1.89925 0
M  V30 4480 H 440.694 1.95372 -3.35801 0
M  V30 4481 H 442.366 -0.341346 -4.60035 0
M  V30 4482 H 440.609 -0.39017 -4.32042 0
M  V30 4483 H 441.28 0.775393 -5.46527 0
M  V30 4484 H 443.756 1.723 -3.7875 0
M  V30 4485 H 442.632 2.66971 -4.79602 0
M  V30 4486 H 442.893 3.13092 -3.12131 0
M  V30 4487 N 441.952 1.55251 0.271103 0
M  V30 4488 C 443.198 1.76207 1.00394 0
M  V30 4489 C 443.531 0.562604 1.85872 0
M  V30 4490 O 442.806 -0.439785 1.89463 0
M  V30 4491 C 443.089 3.06828 1.8849 0
M  V30 4492 C 442.942 4.37134 1.05992 0
M  V30 4493 C 444.261 3.33503 2.87165 0
M  V30 4494 H 441.38 0.641086 0.363562 0
M  V30 4495 H 444.022 1.87982 0.276189 0
M  V30 4496 H 442.172 2.96921 2.5054 0
M  V30 4497 H 443.844 4.59001 0.459978 0
M  V30 4498 H 442.087 4.32275 0.363443 0
M  V30 4499 H 442.758 5.2486 1.70955 0
M  V30 4500 H 445.234 3.43215 2.3525 0
M  V30 4501 H 444.11 4.2616 3.45946 0
M  V30 4502 H 444.371 2.53235 3.62387 0
M  V30 4503 N 443.43 -0.535701 1.48216 0
M  V30 4504 C 444.679 -1.28828 1.55197 0
M  V30 4505 C 444.992 -1.94263 0.228278 0
M  V30 4506 O 446.198 -2.70927 0.176278 0
M  V30 4507 C 444.654 -2.33727 2.73678 0
M  V30 4508 C 444.262 -1.74386 4.12666 0
M  V30 4509 C 446.006 -3.1003 2.89968 0
M  V30 4510 C 443.913 -2.77192 5.22416 0
M  V30 4511 H 442.843 -0.484484 0.577747 0
M  V30 4512 H 445.494 -0.56646 1.74538 0
M  V30 4513 H 443.876 -3.08919 2.4776 0
M  V30 4514 H 445.05 -1.05421 4.48579 0
M  V30 4515 H 443.365 -1.10595 4.01445 0
M  V30 4516 H 445.962 -3.86842 3.6913 0
M  V30 4517 H 446.305 -3.65542 1.9921 0
M  V30 4518 H 446.838 -2.41952 3.15759 0
M  V30 4519 H 443.577 -2.26507 6.15122 0
M  V30 4520 H 443.097 -3.44502 4.90998 0
M  V30 4521 H 444.776 -3.40285 5.50286 0
M  V30 4522 N 444.908 -1.36708 -0.784132 0
M  V30 4523 C 446.154 -1.31426 -1.54451 0
M  V30 4524 C 446.487 0.10476 -1.93917 0
M  V30 4525 O 445.762 1.05934 -1.6312 0
M  V30 4526 C 446.045 -2.24189 -2.818 0
M  V30 4527 C 445.898 -3.74813 -2.48667 0
M  V30 4528 C 447.217 -2.15626 -3.83658 0
M  V30 4529 H 444.336 -0.478739 -0.560337 0
M  V30 4530 H 446.978 -1.67305 -0.900498 0
M  V30 4531 H 445.128 -1.93722 -3.36755 0
M  V30 4532 H 446.8 -4.15823 -1.99722 0
M  V30 4533 H 445.043 -3.93989 -1.81535 0
M  V30 4534 H 445.714 -4.35138 -3.39646 0
M  V30 4535 H 448.19 -2.42456 -3.38163 0
M  V30 4536 H 447.066 -2.82694 -4.70506 0
M  V30 4537 H 447.327 -1.14522 -4.27009 0
M  V30 4538 N 446.386 1.0089 -1.21074 0
M  V30 4539 C 447.626 1.76142 -1.03699 0
M  V30 4540 C 447.99 1.87292 0.422587 0
M  V30 4541 O 449.191 2.59068 0.716752 0
M  V30 4542 C 447.462 3.13805 -1.7106 0
M  V30 4543 S 449.021 4.04996 -1.68889 0
M  V30 4544 H 445.839 0.606113 -0.371683 0
M  V30 4545 H 448.441 1.20744 -1.53756 0
M  V30 4546 H 447.145 3.0332 -2.76451 0
M  V30 4547 H 446.676 3.74276 -1.21166 0
M  V30 4548 H 448.691 4.90842 -0.727211 0
M  V30 4549 N 447.864 1.01787 1.20321 0
M  V30 4550 C 449.112 0.706538 1.89347 0
M  V30 4551 C 449.433 -0.766289 1.79313 0
M  V30 4552 O 448.703 -1.55126 1.19635 0
M  V30 4553 H 447.283 0.258348 0.700903 0
M  V30 4554 H 449.945 1.28974 1.46122 0
M  V30 4555 H 449.041 0.991066 2.95946 0
M  V30 4556 N 449.342 -1.36122 0.79427 0
M  V30 4557 C 450.59 -1.98718 0.368177 0
M  V30 4558 C 450.911 -1.63345 -1.06506 0
M  V30 4559 O 450.181 -0.909825 -1.73491 0
M  V30 4560 H 448.761 -0.735038 0.133146 0
M  V30 4561 H 451.423 -1.66239 1.01739 0
M  V30 4562 H 450.519 -3.08633 0.463923 0
M  V30 4563 N 450.82 -0.546701 -1.47814 0
M  V30 4564 C 452.045 -0.021268 -2.07389 0
M  V30 4565 C 452.47 1.25822 -1.39822 0
M  V30 4566 O 451.828 1.75111 -0.46968 0
M  V30 4567 C 451.876 0.168502 -3.60206 0
M  V30 4568 O 450.98 1.23347 -3.93522 0
M  V30 4569 H 450.321 -0.0466108 -0.662362 0
M  V30 4570 H 452.851 -0.759387 -1.89985 0
M  V30 4571 H 452.861 0.385982 -4.0617 0
M  V30 4572 H 451.536 -0.766075 -4.08784 0
M  V30 4573 H 450.113 0.997319 -3.59316 0
M  V30 4574 N 452.299 1.55045 -0.282633 0
M  V30 4575 C 453.247 2.24254 0.617478 0
M  V30 4576 C 454.241 1.24215 1.15183 0
M  V30 4577 O 455.447 1.42123 1.10459 0
M  V30 4578 H 451.822 0.719801 0.217693 0
M  V30 4579 H 453.793 2.98398 0.0110076 0
M  V30 4580 C 452.542 2.98281 1.78672 0
M  V30 4581 H 451.865 3.75053 1.38475 0
M  V30 4582 H 453.305 3.50017 2.393 0
M  V30 4583 C 451.764 2.04184 2.67975 0
M  V30 4584 O 452.294 1.59792 3.6855 0
M  V30 4585 N 450.5 1.70526 2.35307 0
M  V30 4586 H 450.047 2.06821 1.53567 0
M  V30 4587 H 450.005 1.07839 2.95327 0
M  V30 4588 N 453.777 0.010035 1.57597 0
M  V30 4589 C 455.026 -0.671945 1.90178 0
M  V30 4590 C 455.339 -1.74376 0.886131 0
M  V30 4591 O 456.545 -2.48107 1.10252 0
M  V30 4592 C 455.001 -1.24636 3.3763 0
M  V30 4593 C 454.609 -0.208838 4.47513 0
M  V30 4594 C 456.353 -1.90595 3.79307 0
M  V30 4595 C 454.26 -0.793814 5.86048 0
M  V30 4596 H 453.19 -0.25474 0.709665 0
M  V30 4597 H 455.841 0.0722206 1.83358 0
M  V30 4598 H 454.223 -2.04152 3.3932 0
M  V30 4599 H 455.397 0.562463 4.57354 0
M  V30 4600 H 453.712 0.350889 4.14919 0
M  V30 4601 H 456.309 -2.35284 4.80151 0
M  V30 4602 H 456.652 -2.74074 3.13352 0
M  V30 4603 H 457.185 -1.17798 3.79958 0
M  V30 4604 H 453.924 0.00240855 6.555 0
M  V30 4605 H 453.444 -1.53404 5.79851 0
M  V30 4606 H 455.123 -1.2894 6.34022 0
M  V30 4607 N 455.255 -1.55392 -0.262866 0
M  V30 4608 C 456.48 -1.80847 -1.01533 0
M  V30 4609 C 456.905 -0.584946 -1.78774 0
M  V30 4610 O 456.263 0.465701 -1.75217 0
M  V30 4611 C 456.311 -3.03866 -1.94159 0
M  V30 4612 O 455.415 -2.79662 -3.03089 0
M  V30 4613 H 454.756 -0.597441 -0.289759 0
M  V30 4614 H 457.286 -2.02553 -0.288698 0
M  V30 4615 H 457.296 -3.32872 -2.35924 0
M  V30 4616 H 455.971 -3.92564 -1.37354 0
M  V30 4617 H 454.548 -2.61781 -2.65566 0
M  V30 4618 N 456.733 0.527833 -1.48498 0
M  V30 4619 C 457.663 1.64136 -1.66077 0
M  V30 4620 C 458.644 1.62286 -0.509625 0
M  V30 4621 O 459.829 1.79449 -0.742413 0
M  V30 4622 C 456.959 3.02717 -1.70234 0
M  V30 4623 C 455.913 3.19426 -2.8487 0
M  V30 4624 C 455.239 4.5909 -2.74118 0
M  V30 4625 C 456.539 3.01993 -4.26142 0
M  V30 4626 H 458.233 1.4968 -2.593 0
M  V30 4627 H 455.779 0.718654 -1.24785 0
M  V30 4628 H 457.732 3.80491 -1.8112 0
M  V30 4629 H 456.456 3.18201 -0.735911 0
M  V30 4630 H 455.115 2.4407 -2.73542 0
M  V30 4631 H 454.763 4.71413 -1.7544 0
M  V30 4632 H 454.463 4.71214 -3.51042 0
M  V30 4633 H 455.987 5.3896 -2.86974 0
M  V30 4634 H 457.401 3.69558 -4.38292 0
M  V30 4635 H 455.798 3.2561 -5.04082 0
M  V30 4636 H 456.868 1.98396 -4.42456 0
M  V30 4637 N 458.211 1.37122 0.776871 0
M  V30 4638 C 459.174 1.32301 1.8716 0
M  V30 4639 C 460.174 0.228099 1.59174 0
M  V30 4640 O 461.364 0.483642 1.67352 0
M  V30 4641 C 458.496 1.054 3.24197 0
M  V30 4642 H 459.689 2.29673 1.92848 0
M  V30 4643 H 457.242 1.22077 0.97606 0
M  V30 4644 H 457.977 0.0853872 3.24188 0
M  V30 4645 H 457.762 1.84648 3.45901 0
M  V30 4646 H 459.252 1.04664 4.04271 0
M  V30 4647 N 459.689 -1.00246 1.21608 0
M  V30 4648 C 460.621 -2.09244 0.935401 0
M  V30 4649 C 461.634 -1.62592 -0.0823594 0
M  V30 4650 O 462.823 -1.77865 0.150456 0
M  V30 4651 C 459.923 -3.36724 0.383453 0
M  V30 4652 C 459.096 -4.1245 1.45615 0
M  V30 4653 C 458.155 -5.18219 0.912991 0
M  V30 4654 O 457.181 -5.46337 1.59701 0
M  V30 4655 N 458.383 -5.7987 -0.270478 0
M  V30 4656 H 461.148 -2.33905 1.87373 0
M  V30 4657 H 458.709 -1.16748 1.12167 0
M  V30 4658 H 460.701 -4.047 0.00562157 0
M  V30 4659 H 459.271 -3.09201 -0.459758 0
M  V30 4660 H 458.491 -3.39241 2.00772 0
M  V30 4661 H 459.779 -4.59819 2.17817 0
M  V30 4662 H 459.177 -5.59381 -0.843195 0
M  V30 4663 H 457.734 -6.49126 -0.589794 0
M  V30 4664 N 461.167 -1.02423 -1.1978 0
M  V30 4665 C 462.097 -0.62157 -2.25075 0
M  V30 4666 C 463.078 0.367148 -1.6609 0
M  V30 4667 O 464.263 0.250892 -1.92573 0
M  V30 4668 C 461.393 0.0331826 -3.47284 0
M  V30 4669 C 460.347 -0.877323 -4.18912 0
M  V30 4670 C 459.673 -0.0879296 -5.34628 0
M  V30 4671 C 460.973 -2.18892 -4.74219 0
M  V30 4672 H 462.667 -1.50179 -2.59011 0
M  V30 4673 H 460.213 -0.723547 -1.24502 0
M  V30 4674 H 462.166 0.326488 -4.20133 0
M  V30 4675 H 460.89 0.948164 -3.12534 0
M  V30 4676 H 459.549 -1.15475 -3.47938 0
M  V30 4677 H 459.197 0.828941 -4.96123 0
M  V30 4678 H 458.897 -0.694359 -5.83483 0
M  V30 4679 H 460.421 0.198743 -6.10276 0
M  V30 4680 H 461.835 -1.95746 -5.38847 0
M  V30 4681 H 460.232 -2.74686 -5.33542 0
M  V30 4682 H 461.302 -2.84674 -3.92541 0
M  V30 4683 N 462.645 1.35699 -0.801477 0
M  V30 4684 C 464.061 1.52065 -0.484596 0
M  V30 4685 C 464.261 1.75215 0.995084 0
M  V30 4686 O 463.317 1.79061 1.78026 0
M  V30 4687 C 464.63 2.69908 -1.32552 0
M  V30 4688 C 466.178 2.83784 -1.32044 0
M  V30 4689 C 466.653 4.04646 -2.14536 0
M  V30 4690 N 468.144 4.11814 -2.12046 0
M  V30 4691 C 468.879 5.04437 -2.72636 0
M  V30 4692 N 468.375 6.02426 -3.42133 0
M  V30 4693 N 470.168 4.97144 -2.62305 0
M  V30 4694 H 462.319 1.18928 -1.75983 0
M  V30 4695 H 464.582 0.581455 -0.748741 0
M  V30 4696 H 464.288 2.59363 -2.37537 0
M  V30 4697 H 464.162 3.64376 -0.975181 0
M  V30 4698 H 466.549 2.93783 -0.27846 0
M  V30 4699 H 466.63 1.90188 -1.71062 0
M  V30 4700 H 466.274 3.95407 -3.18772 0
M  V30 4701 H 466.204 4.97413 -1.72882 0
M  V30 4702 H 468.695 3.41664 -1.61476 0
M  V30 4703 H 469.008 6.69688 -3.85666 0
M  V30 4704 H 467.353 6.02615 -3.46237 0
M  V30 4705 H 470.544 4.19546 -2.07603 0
M  V30 4706 H 470.717 5.69138 -3.09815 0
M  V30 4707 N 464.123 0.554532 1.47522 0
M  V30 4708 C 465.086 -0.184174 2.28459 0
M  V30 4709 C 466.086 -0.845195 1.36796 0
M  V30 4710 O 467.276 -0.701467 1.59452 0
M  V30 4711 C 464.408 -1.26903 3.16399 0
M  V30 4712 H 465.601 0.526751 2.95238 0
M  V30 4713 H 463.154 0.311375 1.53167 0
M  V30 4714 H 463.889 -2.01244 2.54306 0
M  V30 4715 H 463.674 -0.799883 3.83854 0
M  V30 4716 H 465.164 -1.78794 3.77389 0
M  V30 4717 N 465.601 -1.54893 0.290851 0
M  V30 4718 C 466.531 -2.26103 -0.583084 0
M  V30 4719 C 467.512 -1.25684 -1.14619 0
M  V30 4720 O 468.697 -1.54436 -1.17741 0
M  V30 4721 C 465.827 -2.99409 -1.75987 0
M  V30 4722 C 464.781 -4.0689 -1.32758 0
M  V30 4723 C 464.107 -4.67856 -2.58872 0
M  V30 4724 C 465.407 -5.20215 -0.46624 0
M  V30 4725 H 467.101 -2.99398 0.0108214 0
M  V30 4726 H 464.647 -1.43998 0.00664468 0
M  V30 4727 H 466.6 -3.47943 -2.37727 0
M  V30 4728 H 465.324 -2.23675 -2.37985 0
M  V30 4729 H 463.983 -3.59191 -0.733299 0
M  V30 4730 H 463.631 -3.88772 -3.19163 0
M  V30 4731 H 463.331 -5.40438 -2.30653 0
M  V30 4732 H 464.855 -5.19147 -3.21433 0
M  V30 4733 H 466.269 -5.64704 -0.989047 0
M  V30 4734 H 464.666 -5.99455 -0.27826 0
M  V30 4735 H 465.736 -4.82198 0.511173 0
M  V30 4736 N 467.08 -0.0183926 -1.57589 0
M  V30 4737 C 468.027 0.967022 -2.09565 0
M  V30 4738 C 468.997 1.32983 -0.995225 0
M  V30 4739 O 470.182 1.42501 -1.26878 0
M  V30 4740 C 467.322 2.24772 -2.61861 0
M  V30 4741 C 466.435 1.94232 -3.85873 0
M  V30 4742 C 465.57 3.16518 -4.26603 0
M  V30 4743 C 464.609 2.81748 -5.43401 0
M  V30 4744 N 463.746 3.96626 -5.79338 0
M  V30 4745 H 468.586 0.516874 -2.93483 0
M  V30 4746 H 466.123 0.243544 -1.4507 0
M  V30 4747 H 468.081 2.99667 -2.90268 0
M  V30 4748 H 466.711 2.67423 -1.8079 0
M  V30 4749 H 465.763 1.09625 -3.64262 0
M  V30 4750 H 467.075 1.64616 -4.70853 0
M  V30 4751 H 466.229 3.99743 -4.56389 0
M  V30 4752 H 464.968 3.49286 -3.40368 0
M  V30 4753 H 463.973 1.96933 -5.1332 0
M  V30 4754 H 465.198 2.50207 -6.31327 0
M  V30 4755 H 463.144 4.29257 -4.96059 0
M  V30 4756 H 463.061 3.70598 -6.58933 0
M  V30 4757 H 464.329 4.80586 -6.13724 0
M  V30 4758 N 468.558 1.5553 0.254621 0
M  V30 4759 C 469.468 1.92789 1.33677 0
M  V30 4760 C 470.484 0.827356 1.53071 0
M  V30 4761 O 471.66 1.12807 1.66843 0
M  V30 4762 C 468.725 2.20827 2.67275 0
M  V30 4763 C 467.786 3.4427 2.5647 0
M  V30 4764 C 467.019 3.70961 3.83697 0
M  V30 4765 O 467.242 2.99852 4.85227 0
M  V30 4766 O 466.176 4.64491 3.82794 0
M  V30 4767 H 470.002 2.84945 1.05071 0
M  V30 4768 H 467.587 1.42312 0.454723 0
M  V30 4769 H 469.469 2.40204 3.46237 0
M  V30 4770 H 468.144 1.31851 2.9563 0
M  V30 4771 H 467.051 3.30209 1.75821 0
M  V30 4772 H 468.384 4.33524 2.33062 0
M  V30 4773 N 470.036 -0.519951 1.48776 0
M  V30 4774 C 470.968 -1.63973 1.60142 0
M  V30 4775 C 471.981 -1.55404 0.485117 0
M  V30 4776 O 473.17 -1.61682 0.756391 0
M  V30 4777 C 470.27 -3.02676 1.52449 0
M  V30 4778 C 469.443 -3.36624 2.79291 0
M  V30 4779 C 468.502 -4.54652 2.64912 0
M  V30 4780 O 467.528 -4.57374 3.38818 0
M  V30 4781 N 468.73 -5.53432 1.75195 0
M  V30 4782 H 471.495 -1.54656 2.56713 0
M  V30 4783 H 469.056 -0.707439 1.45626 0
M  V30 4784 H 471.048 -3.79525 1.4051 0
M  V30 4785 H 469.618 -3.06018 0.638125 0
M  V30 4786 H 468.838 -2.48855 3.0572 0
M  V30 4787 H 470.126 -3.56094 3.6342 0
M  V30 4788 H 469.524 -5.54018 1.14371 0
M  V30 4789 H 468.081 -6.29459 1.69189 0
M  V30 4790 N 471.514 -1.37532 -0.769588 0
M  V30 4791 C 472.444 -1.36172 -1.89682 0
M  V30 4792 C 473.425 -0.23001 -1.68538 0
M  V30 4793 O 474.61 -0.43069 -1.89364 0
M  V30 4794 C 471.74 -1.1701 -3.26995 0
M  V30 4795 C 470.694 -2.27216 -3.62708 0
M  V30 4796 C 470.02 -1.93174 -4.98586 0
M  V30 4797 C 471.32 -3.6941 -3.69234 0
M  V30 4798 H 473.014 -2.30499 -1.91078 0
M  V30 4799 H 470.56 -1.10953 -0.917902 0
M  V30 4800 H 472.513 -1.14688 -4.05493 0
M  V30 4801 H 471.237 -0.191395 -3.26039 0
M  V30 4802 H 469.896 -2.28697 -2.86519 0
M  V30 4803 H 469.544 -0.938281 -4.94171 0
M  V30 4804 H 469.244 -2.66973 -5.23449 0
M  V30 4805 H 470.768 -1.92443 -5.79481 0
M  V30 4806 H 472.182 -3.70047 -4.37879 0
M  V30 4807 H 470.579 -4.4228 -4.05597 0
M  V30 4808 H 471.649 -4.0288 -2.69844 0
M  V30 4809 N 472.992 0.995999 -1.22138 0
M  V30 4810 C 474.24 1.73167 -1.042 0
M  V30 4811 C 474.561 1.90329 0.42423 0
M  V30 4812 O 473.831 1.4607 1.30539 0
M  V30 4813 H 472.411 0.641593 -0.38258 0
M  V30 4814 H 475.073 1.19974 -1.53598 0
M  V30 4815 H 474.169 2.72734 -1.51731 0
M  V30 4816 N 474.47 1.03057 1.19235 0
M  V30 4817 C 475.403 0.557384 2.21288 0
M  V30 4818 C 476.381 -0.402675 1.57535 0
M  V30 4819 O 477.565 -0.319376 1.85775 0
M  V30 4820 C 474.692 -0.187041 3.38183 0
M  V30 4821 C 473.738 0.72471 4.20298 0
M  V30 4822 S 474.571 2.20187 4.88137 0
M  V30 4823 C 475.727 1.46801 6.08441 0
M  V30 4824 H 475.96 1.42207 2.61083 0
M  V30 4825 H 473.493 0.840651 1.29508 0
M  V30 4826 H 475.451 -0.610405 4.05936 0
M  V30 4827 H 474.112 -1.02748 2.96819 0
M  V30 4828 H 473.305 0.149911 5.03777 0
M  V30 4829 H 472.907 1.08647 3.57871 0
M  V30 4830 H 475.199 0.755522 6.73274 0
M  V30 4831 H 476.142 2.27946 6.70407 0
M  V30 4832 H 476.55 0.964762 5.56195 0
M  V30 4833 N 475.948 -1.35272 0.808662 0
M  V30 4834 C 477.176 -2.02946 0.402537 0
M  V30 4835 C 477.591 -1.60937 -0.987147 0
M  V30 4836 O 476.948 -0.807917 -1.63643 0
M  V30 4837 C 476.999 -3.58317 0.47868 0
M  V30 4838 O 476.72 -3.98799 1.81358 0
M  V30 4839 C 478.221 -4.43251 0.0656281 0
M  V30 4840 H 475.441 -0.650831 0.163279 0
M  V30 4841 H 477.985 -1.72849 1.09286 0
M  V30 4842 H 476.14 -3.87055 -0.163415 0
M  V30 4843 H 476.554 -4.93451 1.77781 0
M  V30 4844 H 478.028 -5.51738 0.170017 0
M  V30 4845 H 478.505 -4.27913 -0.989278 0
M  V30 4846 H 479.111 -4.19813 0.68096 0
M  V30 4847 N 477.426 -0.562348 -1.47226 0
M  V30 4848 C 478.374 0.195476 -2.31777 0
M  V30 4849 C 479.368 0.90433 -1.43242 0
M  V30 4850 O 480.574 0.825031 -1.59979 0
M  V30 4851 H 476.949 0.0819095 -0.747526 0
M  V30 4852 H 478.92 -0.536753 -2.93533 0
M  V30 4853 C 477.669 1.20902 -3.26003 0
M  V30 4854 H 476.992 0.672997 -3.94095 0
M  V30 4855 H 478.432 1.71006 -3.87986 0
M  V30 4856 C 476.891 2.25955 -2.49891 0
M  V30 4857 O 477.421 3.32969 -2.2471 0
M  V30 4858 N 475.627 2.00019 -2.1081 0
M  V30 4859 H 475.174 1.13006 -2.31489 0
M  V30 4860 H 475.132 2.70523 -1.60201 0
M  V30 4861 N 478.904 1.54736 -0.299062 0
M  V30 4862 C 480.32 1.59507 0.0543849 0
M  V30 4863 C 480.52 1.31606 1.52585 0
M  V30 4864 O 479.576 1.08853 2.27832 0
M  V30 4865 C 480.889 2.98751 -0.34181 0
M  V30 4866 C 482.437 3.1165 -0.290414 0
M  V30 4867 C 482.912 4.53199 -0.661402 0
M  V30 4868 N 484.403 4.59114 -0.613863 0
M  V30 4869 C 485.138 5.66709 -0.873417 0
M  V30 4870 N 484.634 6.82349 -1.19884 0
M  V30 4871 N 486.427 5.56369 -0.800608 0
M  V30 4872 H 478.578 1.71133 -1.25806 0
M  V30 4873 H 480.841 0.799186 -0.509908 0
M  V30 4874 H 480.547 3.24085 -1.36608 0
M  V30 4875 H 480.421 3.75961 0.305508 0
M  V30 4876 H 482.808 2.86066 0.724605 0
M  V30 4877 H 482.889 2.366 -0.972327 0
M  V30 4878 H 482.533 4.79513 -1.67422 0
M  V30 4879 H 482.463 5.26583 0.0425612 0
M  V30 4880 H 484.954 3.76053 -0.3732 0
M  V30 4881 H 485.267 7.60326 -1.38291 0
M  V30 4882 H 483.612 6.83906 -1.23685 0
M  V30 4883 H 486.803 4.64904 -0.546045 0
M  V30 4884 H 486.976 6.40139 -1.00626 0
M  V30 4885 N 480.382 0.0267497 1.57577 0
M  V30 4886 C 481.312 -0.954308 2.13108 0
M  V30 4887 C 482.293 -1.34088 1.04663 0
M  V30 4888 O 483.478 -1.41992 1.32484 0
M  V30 4889 C 480.608 -2.23744 2.65624 0
M  V30 4890 C 479.562 -1.99168 3.78835 0
M  V30 4891 C 478.888 -3.33726 4.17769 0
M  V30 4892 C 480.188 -1.33277 5.0501 0
M  V30 4893 H 481.882 -0.491848 2.95332 0
M  V30 4894 H 479.428 -0.23514 1.42067 0
M  V30 4895 H 481.381 -2.92754 3.03106 0
M  V30 4896 H 480.105 -2.72151 1.80558 0
M  V30 4897 H 478.764 -1.32577 3.41788 0
M  V30 4898 H 478.412 -3.79888 3.29688 0
M  V30 4899 H 478.112 -3.18089 4.94058 0
M  V30 4900 H 479.636 -4.04008 4.57832 0
M  V30 4901 H 481.05 -1.92283 5.40093 0
M  V30 4902 H 479.447 -1.28045 5.8628 0
M  V30 4903 H 480.517 -0.305411 4.83937 0
M  V30 4904 N 481.861 -1.55662 -0.24637 0
M  V30 4905 C 483.272 -1.67953 -0.81539 0
M  V30 4906 C 483.623 -0.624302 -1.86002 0
M  V30 4907 O 482.748 0.229328 -2.15181 0
M  V30 4908 C 483.343 -3.04484 -1.48576 0
M  V30 4909 C 481.902 -3.18713 -2.00248 0
M  V30 4910 C 481.049 -2.6383 -0.853766 0
M  V30 4911 H 484 -1.58685 -0.0221692 0
M  V30 4912 H 484.021 -2.98959 -2.3538 0
M  V30 4913 H 483.533 -3.81264 -0.725222 0
M  V30 4914 H 481.634 -2.46757 -2.79181 0
M  V30 4915 H 481.747 -4.25628 -2.1995 0
M  V30 4916 H 480.111 -2.21667 -1.25442 0
M  V30 4917 H 480.894 -3.43135 -0.106302 0
M  V30 4918 N 483.339 0.512053 -1.4905 0
M  V30 4919 C 484.286 1.6148 -1.64902 0
M  V30 4920 C 485.256 1.58687 -0.490673 0
M  V30 4921 O 486.441 1.76842 -0.71636 0
M  V30 4922 C 483.581 2.99676 -1.71139 0
M  V30 4923 C 482.694 3.12568 -2.98203 0
M  V30 4924 C 481.829 4.4143 -2.95487 0
M  V30 4925 C 480.868 4.47916 -4.17179 0
M  V30 4926 N 480.005 5.68191 -4.12437 0
M  V30 4927 H 484.845 1.47271 -2.59066 0
M  V30 4928 H 482.382 0.716713 -1.28459 0
M  V30 4929 H 484.34 3.79761 -1.72736 0
M  V30 4930 H 482.97 3.12614 -0.804508 0
M  V30 4931 H 482.022 2.25618 -3.06269 0
M  V30 4932 H 483.334 3.1322 -3.88194 0
M  V30 4933 H 482.488 5.29825 -2.95585 0
M  V30 4934 H 481.227 4.43326 -2.03256 0
M  V30 4935 H 480.232 3.57925 -4.17337 0
M  V30 4936 H 481.457 4.47744 -5.1059 0
M  V30 4937 H 479.403 5.7095 -3.23036 0
M  V30 4938 H 479.32 5.70413 -4.96151 0
M  V30 4939 H 480.588 6.58823 -4.16621 0
M  V30 4940 O 484.856 1.47522 0.657231 0
M  V30 4941 H 485.547 1.42634 1.31055 0
M  V30 END ATOM
M  V30 BEGIN BOND
M  V30 END BOND
M  V30 END CTAB
M  END
$$$$
