drugbank_target|P35568 Insulin receptor substrate 1 (DB08513)
 OpenBabel12092119443D

  0  0  0     0  0            999 V3000
M  V30 BEGIN CTAB
M  V30 COUNTS 18106 18352 0 0 0
M  V30 BEGIN ATOM
M  V30 1 H -0.908 1.98254 -0.117106 0
M  V30 2 N 0 1.576 0 0
M  V30 3 C 0.933 2.03868 1.02534 0
M  V30 4 C 1.911 0.928543 1.3348 0
M  V30 5 O 3.095 1.19667 1.45644 0
M  V30 6 C 0.222 2.43627 2.35294 0
M  V30 7 C -0.732 3.65373 2.2001 0
M  V30 8 S 0.101 5.13292 1.52614 0
M  V30 9 C 1.257 5.56322 2.86805 0
M  V30 10 H 1.49 2.90518 0.631377 0
M  V30 11 H -0.977 1.52953 0.210867 0
M  V30 12 H 0.981 2.67203 3.11629 0
M  V30 13 H -0.358 1.57376 2.7183 0
M  V30 14 H -1.165 3.90944 3.18086 0
M  V30 15 H -1.563 3.418 1.51819 0
M  V30 16 H 0.729 5.58782 3.83104 0
M  V30 17 H 1.672 6.56266 2.65933 0
M  V30 18 H 2.08 4.83886 2.90714 0
M  V30 19 N 1.4781 -0.272755 1.55222 0
M  V30 20 C 2.4411 -1.32041 1.87344 0
M  V30 21 C 3.4411 -1.42342 0.74803 0
M  V30 22 O 4.6311 -1.41488 1.0162 0
M  V30 23 C 1.7631 -2.70173 2.07893 0
M  V30 24 H 2.9561 -1.04789 2.80997 0
M  V30 25 H 0.5091 -0.51083 1.47717 0
M  V30 26 H 1.2441 -3.02605 1.16622 0
M  V30 27 H 1.0291 -2.64082 2.89833 0
M  V30 28 H 2.5191 -3.45869 2.34017 0
M  V30 29 N 2.9562 -1.48159 -0.537278 0
M  V30 30 C 4.1812 -1.59707 -1.32319 0
M  V30 31 C 4.6062 -0.254859 -1.86365 0
M  V30 32 O 3.9642 0.772378 -1.64024 0
M  V30 33 C 4.0122 -2.6412 -2.45505 0
M  V30 34 O 3.1162 -2.20774 -3.48328 0
M  V30 35 H 2.4572 -0.535791 -0.392204 0
M  V30 36 H 4.9872 -1.94092 -0.647268 0
M  V30 37 H 4.9972 -2.85166 -2.91795 0
M  V30 38 H 3.6722 -3.61567 -2.05528 0
M  V30 39 H 2.2492 -2.09911 -3.08207 0
M  V30 40 N 4.4343 0.785586 -1.36625 0
M  V30 41 C 5.8453 1.36101 -1.27803 0
M  V30 42 C 6.1963 1.96035 0.0804875 0
M  V30 43 O 5.3213 1.92834 0.982042 0
M  V30 44 C 5.9163 2.47442 -2.31426 0
M  V30 45 C 4.4753 3.00789 -2.26281 0
M  V30 46 C 3.6223 1.73896 -2.15999 0
M  V30 47 H 6.5733 0.586928 -1.47448 0
M  V30 48 H 6.5943 3.2656 -1.95291 0
M  V30 49 H 6.1063 2.03791 -3.30289 0
M  V30 50 H 4.2073 3.48851 -1.30896 0
M  V30 51 H 4.3203 3.57343 -3.19128 0
M  V30 52 H 2.6843 1.9628 -1.62316 0
M  V30 53 H 3.4673 1.32368 -3.16755 0
M  V30 54 N 5.9124 1.20967 1.01018 0
M  V30 55 C 7.3234 1.02319 1.56165 0
M  V30 56 C 7.6744 -0.418546 1.91684 0
M  V30 57 O 6.7994 -1.30096 1.72928 0
M  V30 58 C 7.3944 1.85109 2.8376 0
M  V30 59 C 5.9534 1.70809 3.35412 0
M  V30 60 C 5.1004 1.82643 2.08655 0
M  V30 61 H 8.0514 1.35065 0.833255 0
M  V30 62 H 8.0724 1.35827 3.55431 0
M  V30 63 H 7.5844 2.90035 2.57878 0
M  V30 64 H 5.6854 0.685464 3.66241 0
M  V30 65 H 5.7984 2.52467 4.07182 0
M  V30 66 H 4.1624 1.25896 2.21409 0
M  V30 67 H 4.9454 2.89066 1.85191 0
M  V30 68 N 7.3905 -1.2043 1.01659 0
M  V30 69 C 8.3005 -2.2689 0.596484 0
M  V30 70 C 9.3165 -1.70107 -0.36599 0
M  V30 71 O 10.4925 -2.00117 -0.226942 0
M  V30 72 C 7.5575 -3.4665 -0.0586659 0
M  V30 73 C 6.6185 -4.18662 0.949751 0
M  V30 74 C 5.8515 -5.32705 0.32577 0
M  V30 75 O 6.0745 -5.63656 -0.874509 0
M  V30 76 O 5.0085 -5.92803 1.04249 0
M  V30 77 H 8.8345 -2.65041 1.4828 0
M  V30 78 H 6.4195 -1.27048 0.786082 0
M  V30 79 H 8.3015 -4.19256 -0.424564 0
M  V30 80 H 6.9765 -3.10375 -0.91918 0
M  V30 81 H 5.8835 -3.48229 1.36702 0
M  V30 82 H 7.2165 -4.58878 1.78023 0
M  V30 83 N 8.8686 -0.792821 -1.36206 0
M  V30 84 C 10.0936 -0.377701 -2.03932 0
M  V30 85 C 10.5186 0.998947 -1.59382 0
M  V30 86 O 9.8766 1.64421 -0.763903 0
M  V30 87 C 9.9246 -0.453635 -3.57735 0
M  V30 88 O 9.0286 0.538151 -4.08874 0
M  V30 89 H 8.3696 -0.159855 -0.644471 0
M  V30 90 H 10.8996 -1.07488 -1.7409 0
M  V30 91 H 10.9096 -0.318464 -4.06755 0
M  V30 92 H 9.5846 -1.45784 -3.89512 0
M  V30 93 H 8.1616 0.364359 -3.71116 0
M  V30 94 N 10.3467 1.47872 -0.545128 0
M  V30 95 C 11.6237 1.9554 0.0485222 0
M  V30 96 C 12.0037 1.4876 1.49779 0
M  V30 97 O 11.3517 0.720925 2.16829 0
M  V30 98 C 11.5617 3.48898 -0.084417 0
M  V30 99 C 12.9097 4.24547 0.0671239 0
M  V30 100 O 13.9337 3.56198 -0.0113649 0
M  V30 101 O 12.7927 5.45999 0.233882 0
M  V30 102 H 9.8867 0.823957 0.0708773 0
M  V30 103 H 12.4327 1.58327 -0.610798 0
M  V30 104 H 11.2047 3.75714 -1.09337 0
M  V30 105 H 10.8277 3.92845 0.613066 0
M  V30 106 N 11.8248 0.280983 1.55075 0
M  V30 107 C 13.0728 -0.333455 1.9933 0
M  V30 108 C 13.3938 -1.55937 1.17085 0
M  V30 109 O 12.6638 -1.94143 0.261805 0
M  V30 110 H 11.2438 -0.126197 0.736263 0
M  V30 111 H 13.9058 0.387678 1.91005 0
M  V30 112 H 13.0018 -0.619292 3.05894 0
M  V30 113 N 13.3029 -1.57598 0.00835791 0
M  V30 114 C 14.5499 -1.90928 -0.674732 0
M  V30 115 C 14.8779 -0.88277 -1.73313 0
M  V30 116 O 14.1329 0.111294 -1.95383 0
M  V30 117 C 14.4319 -3.3101 -1.34787 0
M  V30 118 C 14.0979 -4.48922 -0.421861 0
M  V30 119 C 12.7599 -4.8091 -0.166927 0
M  V30 120 C 15.1119 -5.20755 0.215211 0
M  V30 121 C 12.4399 -5.821 0.733232 0
M  V30 122 C 14.7919 -6.22905 1.1033 0
M  V30 123 C 13.4559 -6.53346 1.36733 0
M  V30 124 H 12.7259 -0.698656 -0.246902 0
M  V30 125 H 15.3729 -1.91387 0.0656779 0
M  V30 126 H 13.6779 -3.26714 -2.16253 0
M  V30 127 H 15.3749 -3.54061 -1.8826 0
M  V30 128 H 11.9649 -4.23934 -0.630729 0
M  V30 129 H 16.1489 -4.9629 0.0312829 0
M  V30 130 H 11.4049 -6.04042 0.945712 0
M  V30 131 H 15.5789 -6.77694 1.60325 0
M  V30 132 H 13.2059 -7.31573 2.06652 0
M  V30 133 N 14.781 0.264519 -1.55364 0
M  V30 134 C 16.006 1.01726 -1.80739 0
M  V30 135 C 16.431 1.78836 -0.583044 0
M  V30 136 O 15.789 1.75167 0.467566 0
M  V30 137 C 15.837 1.94482 -3.03659 0
M  V30 138 O 14.941 3.03386 -2.7934 0
M  V30 139 H 14.282 0.290395 -0.597132 0
M  V30 140 H 16.812 0.290854 -2.02522 0
M  V30 141 H 16.822 2.36278 -3.32621 0
M  V30 142 H 15.497 1.37772 -3.92418 0
M  V30 143 H 14.074 2.65844 -2.61498 0
M  V30 144 N 16.2591 1.48442 0.529413 0
M  V30 145 C 17.5361 1.46978 1.29062 0
M  V30 146 C 17.9161 0.181769 2.10316 0
M  V30 147 O 17.2641 -0.836481 2.12639 0
M  V30 148 C 17.4741 2.7321 2.17157 0
M  V30 149 C 18.8221 3.21562 2.77278 0
M  V30 150 O 19.8461 2.74131 2.27444 0
M  V30 151 O 18.7051 4.04094 3.67927 0
M  V30 152 H 15.7991 0.587003 0.582543 0
M  V30 153 H 18.3451 1.60676 0.546021 0
M  V30 154 H 17.1171 3.58465 1.56903 0
M  V30 155 H 16.7401 2.62235 2.98862 0
M  V30 156 N 17.7372 -0.778329 1.37039 0
M  V30 157 C 18.9832 -1.53892 1.32079 0
M  V30 158 C 19.3162 -1.9396 -0.0965386 0
M  V30 159 O 18.5912 -1.63568 -1.05242 0
M  V30 160 C 18.8742 -2.80847 2.25382 0
M  V30 161 C 18.7272 -2.47076 3.75864 0
M  V30 162 C 20.0462 -3.82741 2.1725 0
M  V30 163 H 17.1652 -0.558303 0.48111 0
M  V30 164 H 19.8072 -0.893397 1.67685 0
M  V30 165 H 17.9572 -3.35931 1.95148 0
M  V30 166 H 19.6292 -1.97957 4.16666 0
M  V30 167 H 17.8722 -1.79863 3.94755 0
M  V30 168 H 18.5432 -3.37798 4.36574 0
M  V30 169 H 21.0192 -3.37133 2.43887 0
M  V30 170 H 19.8952 -4.69303 2.84686 0
M  V30 171 H 20.1562 -4.2652 1.16331 0
M  V30 172 N 19.2153 -1.21501 -1.00376 0
M  V30 173 C 20.6313 -0.972629 -1.26539 0
M  V30 174 C 20.8313 0.340257 -1.98606 0
M  V30 175 O 19.8873 1.06561 -2.28913 0
M  V30 176 C 21.2003 -2.16404 -2.08781 0
M  V30 177 C 22.7483 -2.20643 -2.22004 0
M  V30 178 C 23.2233 -3.39306 -3.07629 0
M  V30 179 N 24.7143 -3.39401 -3.15217 0
M  V30 180 C 25.4493 -4.27867 -3.81729 0
M  V30 181 N 24.9453 -5.26533 -4.5026 0
M  V30 182 N 26.7383 -4.15672 -3.78382 0
M  V30 183 H 18.8893 -2.05929 -0.520281 0
M  V30 184 H 21.1523 -0.901803 -0.292328 0
M  V30 185 H 20.8583 -3.11554 -1.63178 0
M  V30 186 H 20.7323 -2.15567 -3.09533 0
M  V30 187 H 23.1193 -1.26048 -2.66825 0
M  V30 188 H 23.2003 -2.25523 -1.20718 0
M  V30 189 H 22.8443 -4.34195 -2.63509 0
M  V30 190 H 22.7743 -3.31665 -4.09031 0
M  V30 191 H 25.2653 -2.67997 -2.66432 0
M  V30 192 H 25.5783 -5.90337 -4.98721 0
M  V30 193 H 23.9233 -5.30457 -4.49044 0
M  V30 194 H 27.1143 -3.3785 -3.23998 0
M  V30 195 H 27.2873 -4.84825 -4.2994 0
M  V30 196 N 20.6934 1.19889 -1.02296 0
M  V30 197 C 21.6404 2.22901 -0.598651 0
M  V30 198 C 22.6104 1.61588 0.384521 0
M  V30 199 O 23.7954 1.88697 0.282522 0
M  V30 200 C 20.9354 3.45063 0.0504476 0
M  V30 201 C 20.0484 4.20783 -0.978053 0
M  V30 202 C 19.1834 5.30356 -0.299338 0
M  V30 203 C 18.2224 5.97826 -1.31416 0
M  V30 204 N 17.3594 6.98975 -0.661667 0
M  V30 205 H 22.1994 2.58554 -1.48169 0
M  V30 206 H 19.7364 1.27039 -0.741584 0
M  V30 207 H 21.6944 4.14831 0.443971 0
M  V30 208 H 20.3244 3.10084 0.897097 0
M  V30 209 H 19.3764 3.50018 -1.48969 0
M  V30 210 H 20.6884 4.67109 -1.74958 0
M  V30 211 H 19.8424 6.06516 0.149347 0
M  V30 212 H 18.5814 4.85084 0.504445 0
M  V30 213 H 17.5864 5.20422 -1.77317 0
M  V30 214 H 18.8114 6.45183 -2.11933 0
M  V30 215 H 16.7574 6.55886 0.122132 0
M  V30 216 H 16.6744 7.43461 -1.37117 0
M  V30 217 H 17.9424 7.7914 -0.236785 0
M  V30 218 N 22.1715 0.800033 1.35784 0
M  V30 219 C 23.4175 0.377901 1.99248 0
M  V30 220 C 23.7505 -1.05052 1.63333 0
M  V30 221 O 23.0255 -1.72768 0.893385 0
M  V30 222 C 23.3085 0.553922 3.55814 0
M  V30 223 C 23.1615 2.0268 4.01548 0
M  V30 224 C 24.4805 -0.0244802 4.40093 0
M  V30 225 H 21.5995 0.138782 0.723815 0
M  V30 226 H 24.2415 1.00835 1.61035 0
M  V30 227 H 22.3915 0.0172398 3.88496 0
M  V30 228 H 24.0635 2.62536 3.79305 0
M  V30 229 H 22.3065 2.5256 3.52698 0
M  V30 230 H 22.9775 2.10087 5.10458 0
M  V30 231 H 25.4535 0.433775 4.13833 0
M  V30 232 H 24.3295 0.128637 5.48749 0
M  V30 233 H 24.5905 -1.11758 4.27741 0
M  V30 234 N 23.6496 -1.47581 0.552962 0
M  V30 235 C 24.8976 -2.02082 0.0272703 0
M  V30 236 C 25.2186 -1.4301 -1.32563 0
M  V30 237 O 24.4886 -0.603745 -1.86365 0
M  V30 238 H 23.0686 -0.746966 0.00709182 0
M  V30 239 H 25.7306 -1.81033 0.722008 0
M  V30 240 H 24.8266 -3.12034 -0.0639951 0
M  V30 241 N 25.1277 -0.289203 -1.54924 0
M  V30 242 C 26.3577 0.325989 -2.04012 0
M  V30 243 C 26.7657 1.48961 -1.1665 0
M  V30 244 O 26.1087 1.82794 -0.1822 0
M  V30 245 C 26.1707 0.856112 -3.49158 0
M  V30 246 C 25.8347 -0.180697 -4.56643 0
M  V30 247 C 26.8317 -1.0051 -5.10092 0
M  V30 248 C 24.5167 -0.318998 -5.01286 0
M  V30 249 C 26.5107 -1.95385 -6.06715 0
M  V30 250 C 24.1977 -1.27121 -5.97732 0
M  V30 251 C 25.1957 -2.08713 -6.50329 0
M  V30 252 O 24.8837 -3.02322 -7.44887 0
M  V30 253 H 24.6157 0.0765276 -0.671654 0
M  V30 254 H 27.1697 -0.423254 -2.00992 0
M  V30 255 H 25.3997 1.65567 -3.49463 0
M  V30 256 H 27.0887 1.38591 -3.81507 0
M  V30 257 H 27.8547 -0.90906 -4.76404 0
M  V30 258 H 23.7337 0.306108 -4.59983 0
M  V30 259 H 27.2777 -2.59111 -6.47694 0
M  V30 260 H 23.1747 -1.36801 -6.30837 0
M  V30 261 H 23.9427 -2.97165 -7.6265 0
M  V30 262 N 26.6058 1.57591 -0.0167156 0
M  V30 263 C 27.5358 2.12496 0.967858 0
M  V30 264 C 28.5168 1.03807 1.34752 0
M  V30 265 O 29.7018 1.31577 1.42833 0
M  V30 266 C 26.8318 2.64194 2.25431 0
M  V30 267 C 25.7858 3.77559 2.01576 0
M  V30 268 C 25.1118 4.15636 3.36379 0
M  V30 269 C 26.4118 5.04151 1.36489 0
M  V30 270 H 28.1058 2.95013 0.510643 0
M  V30 271 H 25.6518 1.41915 0.244181 0
M  V30 272 H 27.6048 3.01236 2.94678 0
M  V30 273 H 26.3288 1.78821 2.73296 0
M  V30 274 H 24.9878 3.40937 1.34751 0
M  V30 275 H 24.6358 3.27263 3.81979 0
M  V30 276 H 24.3358 4.92022 3.21229 0
M  V30 277 H 25.8598 4.5525 4.06915 0
M  V30 278 H 27.2738 5.38857 1.95718 0
M  V30 279 H 25.6708 5.85453 1.31776 0
M  V30 280 H 26.7408 4.83733 0.336219 0
M  V30 281 N 28.0839 -0.256276 1.55502 0
M  V30 282 C 29.4999 -0.604325 1.47716 0
M  V30 283 C 29.6999 -1.88763 0.705039 0
M  V30 284 O 28.7559 -2.51445 0.230613 0
M  V30 285 C 30.0689 -0.715756 2.92057 0
M  V30 286 C 31.6169 -0.808706 3.02372 0
M  V30 287 C 32.0919 -0.951777 4.48001 0
M  V30 288 N 33.5829 -1.01688 4.519 0
M  V30 289 C 34.3179 -1.14668 5.61817 0
M  V30 290 N 33.8139 -1.24261 6.81565 0
M  V30 291 N 35.6069 -1.1791 5.49594 0
M  V30 292 H 27.7579 0.586291 2.04148 0
M  V30 293 H 30.0209 0.201015 0.926443 0
M  V30 294 H 29.7269 0.157027 3.51349 0
M  V30 295 H 29.6009 -1.59071 3.42018 0
M  V30 296 H 31.9879 -1.67195 2.43166 0
M  V30 297 H 32.0689 0.0912063 2.55637 0
M  V30 298 H 31.7129 -0.0931291 5.07815 0
M  V30 299 H 31.6429 -1.86659 4.92408 0
M  V30 300 H 34.1339 -0.954468 3.65648 0
M  V30 301 H 34.4469 -1.34046 7.61086 0
M  V30 302 H 32.7919 -1.21236 6.84344 0
M  V30 303 H 35.9829 -1.10057 4.54978 0
M  V30 304 H 36.1559 -1.27681 6.35296 0
M  V30 305 N 29.562 -1.4872 -0.521534 0
M  V30 306 C 30.509 -1.63871 -1.62527 0
M  V30 307 C 31.479 -0.480559 -1.58996 0
M  V30 308 O 32.664 -0.705085 -1.77294 0
M  V30 309 C 29.804 -1.69227 -3.00759 0
M  V30 310 C 28.917 -2.96207 -3.14461 0
M  V30 311 C 28.052 -2.92671 -4.43303 0
M  V30 312 C 27.091 -4.14318 -4.50563 0
M  V30 313 N 26.228 -4.0881 -5.70805 0
M  V30 314 H 31.068 -2.58123 -1.48918 0
M  V30 315 H 28.605 -1.28 -0.724878 0
M  V30 316 H 30.563 -1.70314 -3.80853 0
M  V30 317 H 29.193 -0.784586 -3.1312 0
M  V30 318 H 28.245 -3.04826 -2.27564 0
M  V30 319 H 29.557 -3.86192 -3.15686 0
M  V30 320 H 28.711 -2.92206 -5.31696 0
M  V30 321 H 27.45 -2.00429 -4.44612 0
M  V30 322 H 26.455 -4.15049 -3.60575 0
M  V30 323 H 27.68 -5.07729 -4.50986 0
M  V30 324 H 25.626 -3.19394 -5.72995 0
M  V30 325 H 25.543 -4.92509 -5.7356 0
M  V30 326 H 26.811 -4.12418 -6.61462 0
M  V30 327 N 31.0401 0.771051 -1.3745 0
M  V30 328 C 32.4511 1.34737 -1.29239 0
M  V30 329 C 32.8021 1.96109 0.0596908 0
M  V30 330 O 31.9271 1.93865 0.961534 0
M  V30 331 C 32.5221 2.44973 -2.34037 0
M  V30 332 C 31.0811 2.98372 -2.29458 0
M  V30 333 C 30.2281 1.71595 -2.17831 0
M  V30 334 H 33.1791 0.571256 -1.48062 0
M  V30 335 H 33.2001 3.24471 -1.98744 0
M  V30 336 H 32.7121 2.00276 -3.32432 0
M  V30 337 H 30.8131 3.47443 -1.34589 0
M  V30 338 H 30.9261 3.53939 -3.229 0
M  V30 339 H 29.2901 1.94547 -1.64388 0
M  V30 340 H 30.0731 1.29001 -3.18141 0
M  V30 341 N 32.5182 1.22032 0.997298 0
M  V30 342 C 33.4652 0.986467 2.08656 0
M  V30 343 C 34.4352 -0.0902671 1.65855 0
M  V30 344 O 35.6202 0.0584294 1.90711 0
M  V30 345 C 32.7602 0.565569 3.40434 0
M  V30 346 C 31.8732 1.71259 3.96604 0
M  V30 347 C 31.0082 1.24011 5.16522 0
M  V30 348 C 30.0472 2.35896 5.64818 0
M  V30 349 N 29.1842 1.89726 6.7598 0
M  V30 350 H 34.0242 1.91892 2.27994 0
M  V30 351 H 31.5612 0.956199 1.11782 0
M  V30 352 H 33.5192 0.302738 4.161 0
M  V30 353 H 32.1492 -0.329879 3.2111 0
M  V30 354 H 31.2012 2.08986 3.17851 0
M  V30 355 H 32.5132 2.55436 4.28432 0
M  V30 356 H 31.6672 0.934395 5.99461 0
M  V30 357 H 30.4062 0.368487 4.86306 0
M  V30 358 H 29.4112 2.67261 4.8047 0
M  V30 359 H 30.6362 3.23567 5.97061 0
M  V30 360 H 28.5822 1.0492 6.47555 0
M  V30 361 H 28.4992 2.67471 7.07103 0
M  V30 362 H 29.7672 1.62211 7.62435 0
M  V30 363 N 33.9963 -1.19345 1.0293 0
M  V30 364 C 35.2213 -1.93538 0.745511 0
M  V30 365 C 35.6463 -1.75007 -0.689511 0
M  V30 366 O 35.0043 -1.05265 -1.47611 0
M  V30 367 C 35.0523 -3.43336 1.10239 0
M  V30 368 O 34.1563 -4.11806 0.221289 0
M  V30 369 H 33.4973 -0.604193 0.275404 0
M  V30 370 H 36.0273 -1.5141 1.37609 0
M  V30 371 H 36.0373 -3.94004 1.05947 0
M  V30 372 H 34.7123 -3.56146 2.14786 0
M  V30 373 H 33.2893 -3.715 0.322842 0
M  V30 374 N 35.4744 -0.807222 -1.35358 0
M  V30 375 C 36.4074 -0.163572 -2.27613 0
M  V30 376 C 37.3854 0.670817 -1.48118 0
M  V30 377 O 38.5694 0.63796 -1.77376 0
M  V30 378 C 35.6964 0.773015 -3.29761 0
M  V30 379 C 34.7424 0.0181653 -4.26496 0
M  V30 380 S 35.5754 -1.31831 -5.19019 0
M  V30 381 C 36.7314 -0.38619 -6.24707 0
M  V30 382 H 36.9644 -0.945757 -2.81856 0
M  V30 383 H 34.4974 -0.602315 -1.42167 0
M  V30 384 H 36.4554 1.30788 -3.89108 0
M  V30 385 H 35.1164 1.52859 -2.74396 0
M  V30 386 H 34.3094 0.729534 -4.98692 0
M  V30 387 H 33.9114 -0.446761 -3.71322 0
M  V30 388 H 36.2034 0.428295 -6.76145 0
M  V30 389 H 37.1464 -1.07736 -6.99856 0
M  V30 390 H 37.5544 0.018398 -5.64497 0
M  V30 391 N 36.9525 1.47285 -0.560781 0
M  V30 392 C 37.9025 2.27073 0.205384 0
M  V30 393 C 38.8865 1.34569 0.882044 0
M  V30 394 O 40.0785 1.58899 0.77976 0
M  V30 395 C 37.2075 3.20414 1.23247 0
M  V30 396 C 36.2935 4.20399 0.559041 0
M  V30 397 N 36.6845 5.04423 -0.372927 0
M  V30 398 C 34.9825 4.38536 0.812522 0
M  V30 399 C 35.6835 5.76655 -0.764446 0
M  V30 400 N 34.6595 5.43471 -0.11848 0
M  V30 401 H 38.4615 2.89422 -0.511117 0
M  V30 402 H 35.9755 1.57868 -0.380975 0
M  V30 403 H 37.9725 3.76262 1.79534 0
M  V30 404 H 36.6325 2.59623 1.95002 0
M  V30 405 H 37.6435 5.1248 -0.747287 0
M  V30 406 H 34.3205 3.88913 1.51832 0
M  V30 407 H 35.7105 6.54238 -1.53045 0
M  V30 408 N 38.4306 0.297415 1.54768 0
M  V30 409 C 39.3776 -0.580276 2.23386 0
M  V30 410 C 40.3476 -1.13238 1.21517 0
M  V30 411 O 41.5326 -1.17757 1.50126 0
M  V30 412 C 38.6726 -1.74801 2.97555 0
M  V30 413 C 37.7856 -1.22764 4.1419 0
M  V30 414 C 36.9206 -2.35895 4.75949 0
M  V30 415 C 35.9596 -1.80974 5.84735 0
M  V30 416 N 35.0966 -2.87664 6.40464 0
M  V30 417 H 39.9366 0.0114833 2.97998 0
M  V30 418 H 37.4736 0.0174361 1.4709 0
M  V30 419 H 39.4316 -2.43475 3.38786 0
M  V30 420 H 38.0616 -2.31145 2.25326 0
M  V30 421 H 37.1136 -0.433271 3.77924 0
M  V30 422 H 38.4256 -0.785551 4.92575 0
M  V30 423 H 37.5796 -3.12523 5.20014 0
M  V30 424 H 36.3186 -2.83429 3.96887 0
M  V30 425 H 35.3236 -1.02834 5.40097 0
M  V30 426 H 36.5486 -1.34348 6.65678 0
M  V30 427 H 34.4946 -3.34538 5.64287 0
M  V30 428 H 34.4116 -2.4794 7.14186 0
M  V30 429 H 35.6796 -3.642 6.89187 0
M  V30 430 N 39.9087 -1.5758 0.0250728 0
M  V30 431 C 41.3247 -1.56124 -0.331282 0
M  V30 432 C 41.5247 -1.03029 -1.73169 0
M  V30 433 O 40.5807 -0.675215 -2.43305 0
M  V30 434 C 41.8937 -3.00139 -0.183584 0
M  V30 435 C 43.4417 -3.11946 -0.256654 0
M  V30 436 C 43.9167 -4.57793 -0.137792 0
M  V30 437 N 45.4077 -4.6279 -0.194904 0
M  V30 438 C 46.1427 -5.7326 -0.126655 0
M  V30 439 N 45.6387 -6.928 -0.00755288 0
M  V30 440 N 47.4317 -5.61811 -0.180348 0
M  V30 441 H 39.5827 -1.90424 0.94087 0
M  V30 442 H 41.8457 -0.875761 0.362968 0
M  V30 443 H 41.5517 -3.4292 0.780927 0
M  V30 444 H 41.4257 -3.64899 -0.955448 0
M  V30 445 H 43.8127 -2.69079 -1.21162 0
M  V30 446 H 43.8937 -2.49915 0.545517 0
M  V30 447 H 43.5377 -5.01339 0.813739 0
M  V30 448 H 43.4677 -5.17798 -0.958775 0
M  V30 449 H 45.9587 -3.76807 -0.287267 0
M  V30 450 H 46.2717 -7.72791 0.0379428 0
M  V30 451 H 44.6167 -6.94995 0.0271731 0
M  V30 452 H 47.8077 -4.6731 -0.271767 0
M  V30 453 H 47.9807 -6.47882 -0.123697 0
M  V30 454 N 41.3868 0.248026 -1.55636 0
M  V30 455 C 42.6338 0.976224 -1.77415 0
M  V30 456 C 42.9618 1.85361 -0.589193 0
M  V30 457 O 42.2168 1.90973 0.427529 0
M  V30 458 C 42.5158 1.86819 -3.04686 0
M  V30 459 C 42.1818 1.14625 -4.36087 0
M  V30 460 C 40.8438 0.946723 -4.71795 0
M  V30 461 C 43.1958 0.634463 -5.17324 0
M  V30 462 C 40.5238 0.223091 -5.86276 0
M  V30 463 C 42.8758 -0.0756959 -6.32555 0
M  V30 464 C 41.5398 -0.286711 -6.66884 0
M  V30 465 H 40.8098 0.357226 -0.649208 0
M  V30 466 H 43.4568 0.246415 -1.89908 0
M  V30 467 H 41.7618 2.66502 -2.872 0
M  V30 468 H 43.4588 2.43329 -3.18735 0
M  V30 469 H 40.0488 1.3117 -4.08035 0
M  V30 470 H 44.2328 0.77616 -4.90193 0
M  V30 471 H 39.4888 0.0491185 -6.1138 0
M  V30 472 H 43.6628 -0.479899 -6.94745 0
M  V30 473 H 41.2898 -0.849389 -7.5544 0
M  V30 474 N 42.8649 1.48995 0.513639 0
M  V30 475 C 44.1119 1.57843 1.26854 0
M  V30 476 C 44.4399 0.259501 1.92761 0
M  V30 477 O 43.6949 -0.75159 1.80692 0
M  V30 478 C 43.9939 2.67756 2.36731 0
M  V30 479 C 43.6599 4.09669 1.88368 0
M  V30 480 C 42.3219 4.48291 1.74896 0
M  V30 481 C 44.6739 4.98537 1.52021 0
M  V30 482 C 42.0019 5.73568 1.23438 0
M  V30 483 C 44.3539 6.24319 1.0202 0
M  V30 484 C 43.0179 6.61783 0.871778 0
M  V30 485 H 42.2879 0.577587 0.464192 0
M  V30 486 H 44.9349 1.82778 0.571366 0
M  V30 487 H 43.2399 2.36743 3.12185 0
M  V30 488 H 44.9369 2.71813 2.9482 0
M  V30 489 H 41.5269 3.79176 1.99808 0
M  V30 490 H 45.7109 4.69363 1.61281 0
M  V30 491 H 40.9669 6.01304 1.10648 0
M  V30 492 H 45.1409 6.92566 0.729722 0
M  V30 493 H 42.7679 7.5874 0.470852 0
M  V30 494 N 44.343 -0.763751 1.37857 0
M  V30 495 C 45.589 -1.52483 1.33704 0
M  V30 496 C 45.922 -1.94051 -0.0759612 0
M  V30 497 O 45.197 -1.64675 -1.03501 0
M  V30 498 C 45.48 -2.78441 2.28348 0
M  V30 499 C 45.333 -2.43075 3.78463 0
M  V30 500 C 46.652 -3.80415 2.21298 0
M  V30 501 H 43.771 -0.553169 0.487005 0
M  V30 502 H 46.413 -0.875562 1.68624 0
M  V30 503 H 44.563 -3.33842 1.987 0
M  V30 504 H 46.235 -1.93527 4.18742 0
M  V30 505 H 44.478 -1.75666 3.96641 0
M  V30 506 H 45.149 -3.33149 4.40132 0
M  V30 507 H 47.625 -3.34527 2.47449 0
M  V30 508 H 46.501 -4.66257 2.89647 0
M  V30 509 H 46.762 -4.25262 1.20849 0
M  V30 510 N 45.8211 -1.22559 -0.990812 0
M  V30 511 C 46.7511 -1.0218 -2.09956 0
M  V30 512 C 47.7321 0.0579394 -1.70001 0
M  V30 513 O 48.9171 -0.104684 -1.93918 0
M  V30 514 C 46.0471 -0.601023 -3.4206 0
M  V30 515 C 45.0011 -1.62694 -3.95872 0
M  V30 516 C 44.3271 -1.06193 -5.24049 0
M  V30 517 C 45.6271 -3.01743 -4.2632 0
M  V30 518 H 47.3211 -1.94916 -2.27262 0
M  V30 519 H 44.8671 -0.938566 -1.09211 0
M  V30 520 H 46.8201 -0.445561 -4.19038 0
M  V30 521 H 45.5441 0.362005 -3.24588 0
M  V30 522 H 44.2031 -1.77021 -3.21028 0
M  V30 523 H 43.8511 -0.0901903 -5.02919 0
M  V30 524 H 43.5511 -1.74732 -5.61019 0
M  V30 525 H 45.0751 -0.918092 -6.03658 0
M  V30 526 H 46.4891 -2.90777 -4.94087 0
M  V30 527 H 44.8861 -3.67425 -4.74467 0
M  V30 528 H 45.9561 -3.51518 -3.34011 0
M  V30 529 N 47.2992 1.18797 -1.03562 0
M  V30 530 C 48.7152 1.40671 -0.753917 0
M  V30 531 C 48.9152 1.9043 0.658686 0
M  V30 532 O 47.9712 2.08538 1.42366 0
M  V30 533 C 49.2842 2.41192 -1.79574 0
M  V30 534 C 50.8322 2.54928 -1.81606 0
M  V30 535 C 51.3072 3.58709 -2.84766 0
M  V30 536 N 52.7982 3.66212 -2.83625 0
M  V30 537 C 53.5332 4.46225 -3.60098 0
M  V30 538 N 53.0292 5.29888 -4.46308 0
M  V30 539 N 54.8222 4.40939 -3.4861 0
M  V30 540 H 46.9732 0.848221 -1.94728 0
M  V30 541 H 49.2362 0.435081 -0.842264 0
M  V30 542 H 48.9422 2.11669 -2.80872 0
M  V30 543 H 48.8162 3.40467 -1.62365 0
M  V30 544 H 51.2032 2.83771 -0.809817 0
M  V30 545 H 51.2842 1.55784 -2.02891 0
M  V30 546 H 50.9282 3.30607 -3.85566 0
M  V30 547 H 50.8582 4.57519 -2.60737 0
M  V30 548 H 53.3492 3.06466 -2.21105 0
M  V30 549 H 53.6622 5.88078 -5.01382 0
M  V30 550 H 52.0072 5.29326 -4.50377 0
M  V30 551 H 55.1982 3.74624 -2.80668 0
M  V30 552 H 55.3712 5.03056 -4.08459 0
M  V30 553 N 48.7773 0.814389 1.34928 0
M  V30 554 C 49.7403 0.235759 2.27984 0
M  V30 555 C 50.7403 -0.581412 1.49921 0
M  V30 556 O 51.9303 -0.398758 1.69575 0
M  V30 557 C 49.0623 -0.670433 3.34242 0
M  V30 558 H 50.2553 1.05659 2.80671 0
M  V30 559 H 47.8083 0.585614 1.44915 0
M  V30 560 H 48.5433 -1.51466 2.86755 0
M  V30 561 H 48.3283 -0.0860822 3.92005 0
M  V30 562 H 49.8183 -1.06935 4.03676 0
M  V30 563 N 50.2554 -1.46986 0.568584 0
M  V30 564 C 51.2184 -2.28624 -0.162366 0
M  V30 565 C 52.2184 -1.37596 -0.832103 0
M  V30 566 O 53.4084 -1.60115 -0.68622 0
M  V30 567 C 50.5404 -3.17596 -1.23878 0
M  V30 568 H 51.7334 -2.94722 0.554899 0
M  V30 569 H 49.2864 -1.52863 0.325976 0
M  V30 570 H 50.0214 -2.56214 -1.98808 0
M  V30 571 H 49.8064 -3.846 -0.763219 0
M  V30 572 H 51.2964 -3.79078 -1.75185 0
M  V30 573 N 51.7335 -0.305618 -1.54608 0
M  V30 574 C 52.9585 0.307562 -2.05107 0
M  V30 575 C 53.3835 1.46385 -1.18123 0
M  V30 576 O 52.7415 1.8034 -0.186324 0
M  V30 577 C 52.7895 0.73704 -3.52987 0
M  V30 578 O 51.8935 1.84134 -3.6901 0
M  V30 579 H 51.2345 0.0589143 -0.661381 0
M  V30 580 H 53.7645 -0.448807 -1.99617 0
M  V30 581 H 53.7745 1.02459 -3.94925 0
M  V30 582 H 52.4495 -0.108773 -4.15758 0
M  V30 583 H 51.0265 1.55398 -3.38978 0
M  V30 584 N 53.2116 1.57565 -0.0334293 0
M  V30 585 C 54.1216 2.13943 0.962572 0
M  V30 586 C 55.1376 1.09276 1.35406 0
M  V30 587 O 56.3136 1.41355 1.4346 0
M  V30 588 C 53.3786 2.65887 2.22497 0
M  V30 589 C 52.4396 3.85286 1.8935 0
M  V30 590 C 51.6726 4.34743 3.09571 0
M  V30 591 O 51.8956 3.83352 4.22371 0
M  V30 592 O 50.8296 5.26538 2.91618 0
M  V30 593 H 54.6556 2.99333 0.513169 0
M  V30 594 H 52.2406 1.4822 0.18743 0
M  V30 595 H 54.1226 2.99346 2.96598 0
M  V30 596 H 52.7976 1.83578 2.6661 0
M  V30 597 H 51.7046 3.56746 1.1262 0
M  V30 598 H 53.0376 4.68771 1.5005 0
M  V30 599 N 54.6897 -0.239769 1.55765 0
M  V30 600 C 55.6527 -1.28038 1.90103 0
M  V30 601 C 56.6527 -1.40723 0.778055 0
M  V30 602 O 57.8427 -1.39301 1.04599 0
M  V30 603 C 54.9747 -2.65702 2.13577 0
M  V30 604 H 56.1677 -0.988048 2.83157 0
M  V30 605 H 53.7207 -0.479382 1.48767 0
M  V30 606 H 54.4557 -3.00063 1.23015 0
M  V30 607 H 54.2407 -2.57875 2.95369 0
M  V30 608 H 55.7307 -3.40828 2.41301 0
M  V30 609 N 56.1678 -1.49265 -0.50573 0
M  V30 610 C 57.4158 -1.582 -1.25766 0
M  V30 611 C 57.7368 -0.268482 -1.93143 0
M  V30 612 O 57.0068 0.711833 -1.8251 0
M  V30 613 H 55.5868 -0.582873 -0.467191 0
M  V30 614 H 58.2488 -1.85865 -0.586525 0
M  V30 615 H 57.3448 -2.37563 -2.02412 0
M  V30 616 N 57.6459 0.756429 -1.3826 0
M  V30 617 C 58.8939 1.51248 -1.34047 0
M  V30 618 C 59.2149 1.94875 0.0698372 0
M  V30 619 O 58.4849 1.67436 1.01696 0
M  V30 620 H 57.0649 0.561018 -0.493222 0
M  V30 621 H 59.7269 0.899347 -1.7291 0
M  V30 622 H 58.8229 2.40472 -1.98947 0
M  V30 623 N 59.124 1.23083 0.984299 0
M  V30 624 C 60.535 1.05609 1.5396 0
M  V30 625 C 60.886 -0.377793 1.92528 0
M  V30 626 O 60.011 -1.26398 1.75649 0
M  V30 627 C 60.606 1.91087 2.7977 0
M  V30 628 C 59.165 1.77885 3.31713 0
M  V30 629 C 58.312 1.87028 2.04733 0
M  V30 630 H 61.263 1.36802 0.804419 0
M  V30 631 H 61.284 1.43336 3.5247 0
M  V30 632 H 60.796 2.9544 2.51668 0
M  V30 633 H 58.897 0.762995 3.64704 0
M  V30 634 H 59.01 2.61047 4.01735 0
M  V30 635 H 57.374 1.30565 2.18689 0
M  V30 636 H 58.157 2.92929 1.79017 0
M  V30 637 N 60.6021 -1.18246 1.0419 0
M  V30 638 C 61.5651 -2.20128 0.638452 0
M  V30 639 C 62.5651 -1.57885 -0.304805 0
M  V30 640 O 63.7551 -1.73967 -0.0900369 0
M  V30 641 C 60.8871 -3.4084 -0.0637751 0
M  V30 642 H 62.0801 -2.57336 1.54007 0
M  V30 643 H 59.6331 -1.32152 0.834598 0
M  V30 644 H 60.3681 -3.09166 -0.979136 0
M  V30 645 H 60.1531 -3.8726 0.614198 0
M  V30 646 H 61.6431 -4.16274 -0.332512 0
M  V30 647 N 62.0802 -0.821533 -1.34494 0
M  V30 648 C 63.4962 -0.507117 -1.51329 0
M  V30 649 C 63.6962 0.968964 -1.76673 0
M  V30 650 O 62.7522 1.75348 -1.81685 0
M  V30 651 C 64.0652 -1.36544 -2.67911 0
M  V30 652 C 65.6132 -1.36242 -2.81793 0
M  V30 653 C 66.0882 -2.2052 -4.01416 0
M  V30 654 N 67.5792 -2.18136 -4.08621 0
M  V30 655 C 68.3142 -2.80095 -5.00334 0
M  V30 656 N 67.8102 -3.51039 -5.9728 0
M  V30 657 N 69.6032 -2.69656 -4.93196 0
M  V30 658 H 61.7542 -1.77729 -1.16302 0
M  V30 659 H 64.0172 -0.757291 -0.570276 0
M  V30 660 H 63.7232 -2.41361 -2.55808 0
M  V30 661 H 63.5972 -1.02917 -3.62888 0
M  V30 662 H 65.9842 -0.322041 -2.93338 0
M  V30 663 H 66.0652 -1.73866 -1.87628 0
M  V30 664 H 65.7092 -3.24607 -3.90631 0
M  V30 665 H 65.6392 -1.80247 -4.94791 0
M  V30 666 H 68.1302 -1.6653 -3.39229 0
M  V30 667 H 68.4432 -3.95565 -6.63889 0
M  V30 668 H 66.7882 -3.55145 -5.97409 0
M  V30 669 H 69.9792 -2.13808 -4.16418 0
M  V30 670 H 70.1522 -3.1823 -5.64476 0
M  V30 671 N 63.5583 1.46682 -0.576371 0
M  V30 672 C 64.4883 2.33028 0.148397 0
M  V30 673 C 65.4693 1.44961 0.889956 0
M  V30 674 O 66.6543 1.73789 0.866662 0
M  V30 675 C 63.7843 3.27117 1.1667 0
M  V30 676 C 62.7383 4.24575 0.540386 0
M  V30 677 C 62.0643 5.08126 1.6647 0
M  V30 678 C 63.3643 5.19722 -0.518331 0
M  V30 679 H 65.0583 2.93875 -0.572509 0
M  V30 680 H 62.6043 1.41315 -0.276768 0
M  V30 681 H 64.5573 3.86374 1.68204 0
M  V30 682 H 63.2813 2.64364 1.9178 0
M  V30 683 H 61.9403 3.66571 0.0461769 0
M  V30 684 H 61.5883 4.41762 2.40531 0
M  V30 685 H 61.2883 5.74122 1.25131 0
M  V30 686 H 62.8123 5.70246 2.18293 0
M  V30 687 H 64.2263 5.73232 -0.0883058 0
M  V30 688 H 62.6233 5.94026 -0.851679 0
M  V30 689 H 63.6933 4.64037 -1.40703 0
M  V30 690 N 65.0364 0.313813 1.54444 0
M  V30 691 C 65.9464 -0.565714 2.27677 0
M  V30 692 C 66.9624 -1.13754 1.31666 0
M  V30 693 O 68.1384 -1.15959 1.64668 0
M  V30 694 C 65.2034 -1.71528 3.01296 0
M  V30 695 C 64.2644 -1.17624 4.12872 0
M  V30 696 C 63.4974 -2.27102 4.8297 0
M  V30 697 O 63.7204 -3.47256 4.52514 0
M  V30 698 O 62.6544 -1.9307 5.70094 0
M  V30 699 H 66.4804 0.0287296 3.03686 0
M  V30 700 H 64.0654 0.0798312 1.49187 0
M  V30 701 H 65.9474 -2.38476 3.4743 0
M  V30 702 H 64.6224 -2.29608 2.2817 0
M  V30 703 H 63.5294 -0.472124 3.71109 0
M  V30 704 H 64.8624 -0.640695 4.88012 0
M  V30 705 N 66.5145 -1.57545 0.0417849 0
M  V30 706 C 67.7445 -1.96339 -0.642995 0
M  V30 707 C 68.1525 -0.917536 -1.65463 0
M  V30 708 O 67.4955 0.107747 -1.83384 0
M  V30 709 C 67.5575 -3.31333 -1.39494 0
M  V30 710 C 67.2215 -4.53796 -0.540204 0
M  V30 711 C 68.2185 -5.19553 0.189806 0
M  V30 712 C 65.9035 -5.0006 -0.473886 0
M  V30 713 C 67.8975 -6.29904 0.974674 0
M  V30 714 C 65.5845 -6.10289 0.314677 0
M  V30 715 C 66.5825 -6.75072 1.03765 0
M  V30 716 O 66.2705 -7.83183 1.81327 0
M  V30 717 H 66.0025 -0.651241 -0.181277 0
M  V30 718 H 68.5565 -2.05148 0.101665 0
M  V30 719 H 66.7865 -3.19052 -2.18502 0
M  V30 720 H 68.4755 -3.54942 -1.96904 0
M  V30 721 H 69.2415 -4.84774 0.147981 0
M  V30 722 H 65.1205 -4.49433 -1.0262 0
M  V30 723 H 68.6645 -6.80401 1.5395 0
M  V30 724 H 64.5615 -6.44506 0.358174 0
M  V30 725 H 65.3295 -7.99913 1.73438 0
M  V30 726 N 67.9926 0.231505 -1.5589 0
M  V30 727 C 69.2226 0.973092 -1.82248 0
M  V30 728 C 69.6306 1.78845 -0.617328 0
M  V30 729 O 68.9736 1.78752 0.423499 0
M  V30 730 C 69.0356 1.94732 -3.02192 0
M  V30 731 C 68.6996 1.31743 -4.37599 0
M  V30 732 C 69.6966 0.712238 -5.14998 0
M  V30 733 C 67.3816 1.33218 -4.84312 0
M  V30 734 C 69.3756 0.130195 -6.37267 0
M  V30 735 C 67.0626 0.746286 -6.06526 0
M  V30 736 C 68.0606 0.146337 -6.82843 0
M  V30 737 O 67.7486 -0.430465 -8.02747 0
M  V30 738 H 67.4806 0.29125 -0.61004 0
M  V30 739 H 70.0346 0.254915 -2.03812 0
M  V30 740 H 68.2646 2.70422 -2.76422 0
M  V30 741 H 69.9536 2.55362 -3.15508 0
M  V30 742 H 70.7196 0.69324 -4.8002 0
M  V30 743 H 66.5986 1.78854 -4.24891 0
M  V30 744 H 70.1426 -0.33871 -6.96777 0
M  V30 745 H 66.0396 0.762663 -6.40979 0
M  V30 746 H 66.8076 -0.323818 -8.17859 0
M  V30 747 N 69.4707 1.49531 0.497807 0
M  V30 748 C 70.3807 1.69176 1.62532 0
M  V30 749 C 71.3967 0.5744 1.64246 0
M  V30 750 O 72.5727 0.849497 1.82608 0
M  V30 751 C 69.6377 1.75695 2.98885 0
M  V30 752 C 68.6987 2.9929 3.07773 0
M  V30 753 C 67.9317 3.05488 4.37622 0
M  V30 754 O 68.1547 2.19192 5.26603 0
M  V30 755 O 67.0887 3.9798 4.51548 0
M  V30 756 H 70.9147 2.647 1.48887 0
M  V30 757 H 68.4997 1.3331 0.674441 0
M  V30 758 H 70.3817 1.82317 3.79919 0
M  V30 759 H 69.0567 0.8335 3.12785 0
M  V30 760 H 67.9637 2.98183 2.25915 0
M  V30 761 H 69.2967 3.91125 2.98801 0
M  V30 762 N 70.9488 -0.749086 1.3866 0
M  V30 763 C 71.8968 -1.88428 1.36373 0
M  V30 764 C 72.8908 -1.67561 0.248929 0
M  V30 765 O 74.0968 -1.75074 0.41821 0
M  V30 766 H 70.4718 -0.620023 0.42553 0
M  V30 767 H 72.4428 -1.87473 2.32156 0
M  V30 768 C 71.1918 -3.25961 1.21014 0
M  V30 769 H 70.5148 -3.42607 2.06059 0
M  V30 770 H 71.9548 -4.05625 1.23469 0
M  V30 771 C 70.4138 -3.36799 -0.0825941 0
M  V30 772 O 70.9438 -3.87517 -1.05797 0
M  V30 773 N 69.1498 -2.90258 -0.140939 0
M  V30 774 H 68.6968 -2.49174 0.653477 0
M  V30 775 H 68.6548 -2.97889 -1.00545 0
M  V30 776 N 72.4269 -1.23603 -0.977757 0
M  V30 777 C 73.3369 -1.03632 -2.1047 0
M  V30 778 C 74.3529 0.0199435 -1.73989 0
M  V30 779 O 75.5289 -0.176076 -2.00629 0
M  V30 780 C 72.5939 -0.63276 -3.40877 0
M  V30 781 C 71.6549 -1.76437 -3.91367 0
M  V30 782 C 70.8879 -1.37997 -5.15551 0
M  V30 783 O 71.1109 -0.265357 -5.69782 0
M  V30 784 O 70.0449 -2.20201 -5.60174 0
M  V30 785 H 73.8709 -1.98086 -2.30208 0
M  V30 786 H 71.4559 -1.02332 -1.08851 0
M  V30 787 H 73.3379 -0.418761 -4.19314 0
M  V30 788 H 72.0129 0.282754 -3.22463 0
M  V30 789 H 70.9199 -2.03304 -3.14036 0
M  V30 790 H 72.2529 -2.6583 -4.14241 0
M  V30 791 N 73.905 1.17692 -1.04816 0
M  V30 792 C 74.852 2.21581 -0.645797 0
M  V30 793 C 75.822 1.62367 0.350159 0
M  V30 794 O 77.007 1.89254 0.242433 0
M  V30 795 C 74.147 3.45092 -0.0227568 0
M  V30 796 C 73.26 4.18613 -1.06709 0
M  V30 797 C 72.395 5.29602 -0.411767 0
M  V30 798 C 71.434 5.94904 -1.44067 0
M  V30 799 N 70.571 6.97414 -0.809781 0
M  V30 800 H 75.411 2.55353 -1.5362 0
M  V30 801 H 72.948 1.25438 -0.768364 0
M  V30 802 H 74.906 4.15679 0.35588 0
M  V30 803 H 73.536 3.11917 0.831122 0
M  V30 804 H 72.588 3.46779 -1.5636 0
M  V30 805 H 73.9 4.63293 -1.84827 0
M  V30 806 H 73.054 6.06696 0.0206623 0
M  V30 807 H 71.793 4.86045 0.401438 0
M  V30 808 H 70.798 5.16544 -1.88316 0
M  V30 809 H 72.023 6.40542 -2.25571 0
M  V30 810 H 69.969 6.55998 -0.0170186 0
M  V30 811 H 69.886 7.40386 -1.52856 0
M  V30 812 H 71.154 7.78463 -0.401999 0
M  V30 813 N 75.3831 0.828654 1.34056 0
M  V30 814 C 76.3301 0.252567 2.29414 0
M  V30 815 C 77.3001 -0.62588 1.53857 0
M  V30 816 O 78.4851 -0.566312 1.82202 0
M  V30 817 C 75.6251 -0.574831 3.40279 0
M  V30 818 C 74.7381 0.326499 4.30764 0
M  V30 819 C 73.8731 -0.511016 5.28736 0
M  V30 820 C 72.9121 0.389342 6.1086 0
M  V30 821 N 72.0491 -0.409439 7.00905 0
M  V30 822 H 76.8891 1.07108 2.78086 0
M  V30 823 H 74.4261 0.539677 1.36843 0
M  V30 824 H 76.3841 -1.06992 4.03248 0
M  V30 825 H 75.0141 -1.35841 2.92826 0
M  V30 826 H 74.0661 0.939837 3.68607 0
M  V30 827 H 75.3781 1.01857 4.88289 0
M  V30 828 H 74.5321 -1.07035 5.97184 0
M  V30 829 H 73.2711 -1.23657 4.71763 0
M  V30 830 H 72.2761 0.960769 5.4134 0
M  V30 831 H 73.5011 1.1131 6.69916 0
M  V30 832 H 71.4471 -1.11856 6.46393 0
M  V30 833 H 71.3641 0.224126 7.55668 0
M  V30 834 H 72.6321 -0.951336 7.73673 0
M  V30 835 N 76.8612 -1.46375 0.584142 0
M  V30 836 C 78.1072 -2.03248 0.0787103 0
M  V30 837 C 78.4622 -1.44737 -1.26763 0
M  V30 838 O 77.7552 -0.603625 -1.81843 0
M  V30 839 C 77.9492 -3.57373 -0.0439342 0
M  V30 840 C 77.7782 -4.30831 1.28897 0
M  V30 841 C 76.5482 -4.69683 1.8635 0
M  V30 842 C 78.7462 -4.64278 2.21248 0
M  V30 843 N 76.7282 -5.27898 3.13365 0
M  V30 844 C 78.0992 -5.23078 3.32851 0
M  V30 845 C 80.1542 -4.46209 2.20911 0
M  V30 846 C 78.8572 -5.65715 4.44251 0
M  V30 847 C 80.8832 -4.89864 3.31341 0
M  V30 848 C 80.2452 -5.48736 4.41665 0
M  V30 849 H 76.3442 -0.778714 0.0716144 0
M  V30 850 H 78.9282 -1.78509 0.777355 0
M  V30 851 H 77.0992 -3.81823 -0.711749 0
M  V30 852 H 78.8312 -4.00892 -0.553881 0
M  V30 853 H 75.5862 -4.52488 1.39826 0
M  V30 854 H 76.0102 -5.61525 3.78178 0
M  V30 855 H 80.6522 -4.00027 1.36888 0
M  V30 856 H 78.3702 -6.10875 5.29015 0
M  V30 857 H 81.9562 -4.77634 3.322 0
M  V30 858 H 80.8362 -5.81898 5.25704 0
M  V30 859 N 78.3393 -0.321999 -1.54275 0
M  V30 860 C 79.7553 0.0306999 -1.5957 0
M  V30 861 C 79.9553 1.50614 -1.33857 0
M  V30 862 O 79.0113 2.2619 -1.12223 0
M  V30 863 C 80.3243 -0.386122 -2.98211 0
M  V30 864 C 81.8723 -0.336647 -3.11184 0
M  V30 865 C 82.3473 -0.728607 -4.52167 0
M  V30 866 N 83.8383 -0.681952 -4.58152 0
M  V30 867 C 84.5733 -0.957449 -5.6535 0
M  V30 868 N 84.0693 -1.3 -6.80494 0
M  V30 869 N 85.8623 -0.883113 -5.55119 0
M  V30 870 H 78.0133 -1.28332 -1.69247 0
M  V30 871 H 80.2763 -0.521716 -0.791528 0
M  V30 872 H 79.9823 -1.41404 -3.22022 0
M  V30 873 H 79.8563 0.249662 -3.76373 0
M  V30 874 H 82.2433 0.682058 -2.8711 0
M  V30 875 H 82.3243 -1.00734 -2.3513 0
M  V30 876 H 81.9683 -1.74522 -4.76974 0
M  V30 877 H 81.8983 -0.0356152 -5.26588 0
M  V30 878 H 84.3893 -0.428985 -3.75457 0
M  V30 879 H 84.7023 -1.49563 -7.58189 0
M  V30 880 H 83.0473 -1.33824 -6.81994 0
M  V30 881 H 86.2383 -0.615001 -4.64042 0
M  V30 882 H 86.4113 -1.10118 -6.38575 0
M  V30 883 N 79.8174 1.5752 -0.0501392 0
M  V30 884 C 80.7674 2.07981 0.934231 0
M  V30 885 C 81.7514 0.984745 1.27246 0
M  V30 886 O 82.9434 1.24809 1.25506 0
M  V30 887 C 80.0724 2.62751 2.20945 0
M  V30 888 C 79.1584 3.79225 1.89865 0
M  V30 889 N 79.5494 4.89036 1.29142 0
M  V30 890 C 77.8474 3.88111 2.19741 0
M  V30 891 C 78.5484 5.70084 1.15669 0
M  V30 892 N 77.5244 5.17659 1.65923 0
M  V30 893 H 81.3264 2.90277 0.460053 0
M  V30 894 H 78.8404 1.61665 0.15434 0
M  V30 895 H 80.8374 2.97205 2.9236 0
M  V30 896 H 79.4974 1.81894 2.6897 0
M  V30 897 H 80.5084 5.08854 0.963756 0
M  V30 898 H 77.1854 3.18194 2.70293 0
M  V30 899 H 78.5754 6.68395 0.685356 0
M  V30 900 N 81.2955 -0.223234 1.56011 0
M  V30 901 C 82.2425 -1.27664 1.92277 0
M  V30 902 C 83.2125 -1.46659 0.779763 0
M  V30 903 O 84.3975 -1.60256 1.03551 0
M  V30 904 C 81.5375 -2.62234 2.24338 0
M  V30 905 C 80.6505 -2.51051 3.51564 0
M  V30 906 C 79.7855 -3.78133 3.7308 0
M  V30 907 C 78.8245 -3.61665 4.93827 0
M  V30 908 N 77.9615 -4.80693 5.11741 0
M  V30 909 H 82.8015 -0.960358 2.82101 0
M  V30 910 H 80.3385 -0.462901 1.39627 0
M  V30 911 H 82.2965 -3.40596 2.40936 0
M  V30 912 H 80.9265 -2.91961 1.3769 0
M  V30 913 H 79.9785 -1.64132 3.43169 0
M  V30 914 H 81.2905 -2.34803 4.40079 0
M  V30 915 H 80.4445 -4.64938 3.89766 0
M  V30 916 H 79.1835 -3.97304 2.82844 0
M  V30 917 H 78.1885 -2.73244 4.77093 0
M  V30 918 H 79.4135 -3.43966 5.85546 0
M  V30 919 H 77.3595 -5.00181 4.24446 0
M  V30 920 H 77.2765 -4.67165 5.94384 0
M  V30 921 H 78.5445 -5.6893 5.3286 0
M  V30 922 N 82.7736 -1.49793 -0.48987 0
M  V30 923 C 83.9986 -1.63836 -1.27172 0
M  V30 924 C 84.4236 -0.31402 -1.8546 0
M  V30 925 O 83.7816 0.719803 -1.66399 0
M  V30 926 C 83.8296 -2.71797 -2.36978 0
M  V30 927 O 82.9336 -2.31744 -3.41128 0
M  V30 928 H 82.2746 -0.547997 -0.37496 0
M  V30 929 H 84.8046 -1.96053 -0.585191 0
M  V30 930 H 84.8146 -2.94305 -2.82575 0
M  V30 931 H 83.4896 -3.67923 -1.93921 0
M  V30 932 H 82.0666 -2.1961 -3.01373 0
M  V30 933 N 84.2517 0.741722 -1.39055 0
M  V30 934 C 85.4767 1.53607 -1.39354 0
M  V30 935 C 85.9017 1.88096 0.0116905 0
M  V30 936 O 85.2597 1.5143 0.996924 0
M  V30 937 C 85.3077 2.80441 -2.26682 0
M  V30 938 O 84.4117 3.76088 -1.69208 0
M  V30 939 H 83.7527 0.464142 -0.474835 0
M  V30 940 H 86.2827 0.915665 -1.82967 0
M  V30 941 H 86.2927 3.29246 -2.40959 0
M  V30 942 H 84.9677 2.5467 -3.2881 0
M  V30 943 H 83.5447 3.34833 -1.64138 0
M  V30 944 N 85.7298 1.2412 0.971189 0
M  V30 945 C 86.6928 1.03156 2.04674 0
M  V30 946 C 87.6928 -0.00990322 1.60797 0
M  V30 947 O 88.8828 0.230729 1.72665 0
M  V30 948 C 86.0148 0.562765 3.36223 0
M  V30 949 H 87.2078 1.98614 2.24705 0
M  V30 950 H 84.7608 1.06293 1.14593 0
M  V30 951 H 85.4958 -0.395176 3.21883 0
M  V30 952 H 85.2808 1.31441 3.69413 0
M  V30 953 H 86.7708 0.437015 4.15307 0
M  V30 954 N 87.2079 -1.17134 1.05439 0
M  V30 955 C 88.6189 -1.69084 0.791676 0
M  V30 956 C 88.9699 -1.83822 -0.685839 0
M  V30 957 O 88.0949 -1.52757 -1.53278 0
M  V30 958 C 88.6899 -3.07119 1.4305 0
M  V30 959 C 87.2489 -3.56225 1.21577 0
M  V30 960 C 86.3959 -2.32421 1.51247 0
M  V30 961 H 89.3469 -1.01617 1.219 0
M  V30 962 H 89.3679 -3.71087 0.84112 0
M  V30 963 H 88.8799 -2.9636 2.50584 0
M  V30 964 H 86.9809 -3.72257 0.159787 0
M  V30 965 H 87.0939 -4.38837 1.92246 0
M  V30 966 H 85.4579 -2.3701 0.932653 0
M  V30 967 H 86.2409 -2.24268 2.5992 0
M  V30 968 N 88.686 -0.835752 -1.33615 0
M  V30 969 C 89.633 -0.26473 -2.29277 0
M  V30 970 C 90.603 0.617712 -1.54187 0
M  V30 971 O 91.788 0.556641 -1.825 0
M  V30 972 C 88.928 0.556777 -3.40579 0
M  V30 973 C 88.041 -0.349339 -4.30585 0
M  V30 974 C 87.176 0.482969 -5.29 0
M  V30 975 C 86.215 -0.421732 -6.10645 0
M  V30 976 N 85.352 0.372262 -7.01112 0
M  V30 977 H 90.192 -1.08582 -2.77514 0
M  V30 978 H 87.729 -0.546927 -1.36554 0
M  V30 979 H 89.687 1.04852 -4.03809 0
M  V30 980 H 88.317 1.34286 -2.93542 0
M  V30 981 H 87.369 -0.959372 -3.68104 0
M  V30 982 H 88.681 -1.04445 -4.87742 0
M  V30 983 H 87.835 1.03866 -5.97743 0
M  V30 984 H 86.574 1.21153 -4.72412 0
M  V30 985 H 85.579 -0.989464 -5.40823 0
M  V30 986 H 86.804 -1.14861 -6.69316 0
M  V30 987 H 84.75 1.08426 -6.46977 0
M  V30 988 H 84.667 -0.264198 -7.55538 0
M  V30 989 H 85.935 0.910293 -7.74167 0
M  V30 990 N 90.1641 1.46063 -0.591896 0
M  V30 991 C 91.5801 1.57561 -0.254288 0
M  V30 992 C 91.7801 1.58565 1.24336 0
M  V30 993 O 90.8361 1.50753 2.02558 0
M  V30 994 C 92.1491 2.86549 -0.911611 0
M  V30 995 C 93.6971 3.00197 -0.886059 0
M  V30 996 C 94.1721 4.31933 -1.5231 0
M  V30 997 N 95.6631 4.38654 -1.48786 0
M  V30 998 C 96.3981 5.39222 -1.95006 0
M  V30 999 N 95.8941 6.46414 -2.49241 0
M  V30 1000 N 97.6871 5.3048 -1.85868 0
M  V30 1001 H 89.8381 1.43655 -1.56451 0
M  V30 1002 H 92.1011 0.68583 -0.654478 0
M  V30 1003 H 91.8071 2.91651 -1.96551 0
M  V30 1004 H 91.6811 3.74794 -0.425368 0
M  V30 1005 H 94.0681 2.9467 0.159246 0
M  V30 1006 H 94.1491 2.13403 -1.41041 0
M  V30 1007 H 93.7931 4.38217 -2.56765 0
M  V30 1008 H 93.7231 5.17516 -0.973891 0
M  V30 1009 H 96.2141 3.61793 -1.09151 0
M  V30 1010 H 96.5271 7.19376 -2.82344 0
M  V30 1011 H 94.8721 6.47208 -2.53272 0
M  V30 1012 H 98.0631 4.45643 -1.43248 0
M  V30 1013 H 98.2361 6.08711 -2.22204 0
M  V30 1014 N 91.6422 0.330177 1.54103 0
M  V30 1015 C 92.8672 -0.274893 2.0557 0
M  V30 1016 C 93.2922 -1.44487 1.20437 0
M  V30 1017 O 92.6502 -1.80021 0.214991 0
M  V30 1018 C 92.6982 -0.68079 3.54115 0
M  V30 1019 O 91.8022 -1.7824 3.71893 0
M  V30 1020 H 91.1432 -0.0483849 0.662235 0
M  V30 1021 H 93.6732 0.480508 1.98878 0
M  V30 1022 H 93.6832 -0.961635 3.96505 0
M  V30 1023 H 92.3582 0.174903 4.15532 0
M  V30 1024 H 90.9352 -1.49985 3.41407 0
M  V30 1025 N 93.1203 -1.57491 0.0584922 0
M  V30 1026 C 94.3693 -1.92155 -0.613146 0
M  V30 1027 C 94.6823 -0.939334 -1.71569 0
M  V30 1028 O 95.8883 -1.17829 -2.44599 0
M  V30 1029 C 94.3443 -3.41303 -1.14195 0
M  V30 1030 C 93.9523 -4.47944 -0.0711265 0
M  V30 1031 C 95.6963 -3.84988 -1.78841 0
M  V30 1032 C 93.6033 -5.88212 -0.613225 0
M  V30 1033 H 92.5333 -0.717162 -0.232796 0
M  V30 1034 H 95.1843 -1.83049 0.12857 0
M  V30 1035 H 93.5663 -3.45437 -1.93621 0
M  V30 1036 H 94.7403 -4.55408 0.702836 0
M  V30 1037 H 93.0553 -4.13644 0.478313 0
M  V30 1038 H 95.6523 -4.87159 -2.20408 0
M  V30 1039 H 95.9953 -3.21632 -2.64308 0
M  V30 1040 H 96.5283 -3.83401 -1.06059 0
M  V30 1041 H 93.2673 -6.55183 0.203978 0
M  V30 1042 H 92.7873 -5.84294 -1.35501 0
M  V30 1043 H 94.4663 -6.37687 -1.09383 0
M  V30 1044 N 94.5984 0.214957 -1.56127 0
M  V30 1045 C 96.0094 0.781386 -1.69562 0
M  V30 1046 C 96.3604 1.84707 -0.66165 0
M  V30 1047 O 95.4854 2.156 0.185927 0
M  V30 1048 C 96.0804 1.42411 -3.07416 0
M  V30 1049 C 94.6394 1.93786 -3.22683 0
M  V30 1050 C 93.7864 0.800438 -2.65496 0
M  V30 1051 H 96.7374 -0.00980633 -1.58697 0
M  V30 1052 H 96.7584 2.29309 -3.0364 0
M  V30 1053 H 96.2704 0.64826 -3.82648 0
M  V30 1054 H 94.3714 2.74152 -2.52332 0
M  V30 1055 H 94.4844 2.1133 -4.29973 0
M  V30 1056 H 92.8484 1.2095 -2.2415 0
M  V30 1057 H 93.6314 0.0371471 -3.4328 0
M  V30 1058 N 96.0765 1.50051 0.48192 0
M  V30 1059 C 97.0065 1.71046 1.58951 0
M  V30 1060 C 97.9875 0.559288 1.60642 0
M  V30 1061 O 99.1725 0.797243 1.77081 0
M  V30 1062 C 96.3025 1.79462 2.97339 0
M  V30 1063 C 95.2565 2.94558 3.10515 0
M  V30 1064 C 94.5825 2.88105 4.50444 0
M  V30 1065 C 95.8825 4.35227 2.88747 0
M  V30 1066 H 97.5765 2.6378 1.41635 0
M  V30 1067 H 95.1225 1.26936 0.679942 0
M  V30 1068 H 97.0755 1.92734 3.74742 0
M  V30 1069 H 95.7995 0.833412 3.15788 0
M  V30 1070 H 94.4585 2.80918 2.35543 0
M  V30 1071 H 94.1065 1.89853 4.65795 0
M  V30 1072 H 93.8065 3.65366 4.60197 0
M  V30 1073 H 95.3305 3.03412 5.29881 0
M  V30 1074 H 96.7445 4.49449 3.55905 0
M  V30 1075 H 95.1415 5.13856 3.09955 0
M  V30 1076 H 96.2115 4.48347 1.84696 0
M  V30 1077 N 97.5546 -0.734337 1.39446 0
M  V30 1078 C 98.4646 -1.87879 1.40495 0
M  V30 1079 C 99.4806 -1.714 0.299672 0
M  V30 1080 O 100.657 -1.93991 0.541249 0
M  V30 1081 C 97.7216 -3.23477 1.24754 0
M  V30 1082 C 96.7826 -3.52344 2.45259 0
M  V30 1083 C 96.0156 -4.81473 2.30259 0
M  V30 1084 O 96.2386 -5.55237 1.30643 0
M  V30 1085 O 95.1726 -5.10254 3.19256 0
M  V30 1086 H 98.9986 -1.89949 2.36966 0
M  V30 1087 H 96.5836 -0.882243 1.20569 0
M  V30 1088 H 98.4656 -4.04509 1.18111 0
M  V30 1089 H 97.1406 -3.22176 0.313781 0
M  V30 1090 H 96.0476 -2.71396 2.57478 0
M  V30 1091 H 97.3806 -3.58426 3.37331 0
M  V30 1092 N 99.0327 -1.24633 -0.964593 0
M  V30 1093 C 100.258 -1.11596 -1.74818 0
M  V30 1094 C 100.683 0.32723 -1.85232 0
M  V30 1095 O 100.041 1.23695 -1.32549 0
M  V30 1096 C 100.089 -1.76397 -3.1451 0
M  V30 1097 O 99.1927 -1.03685 -3.99153 0
M  V30 1098 H 98.5337 -0.390196 -0.537255 0
M  V30 1099 H 101.064 -1.65002 -1.20977 0
M  V30 1100 H 101.074 -1.8228 -3.65018 0
M  V30 1101 H 99.7487 -2.81401 -3.06246 0
M  V30 1102 H 98.3257 -1.05611 -3.57632 0
M  V30 1103 N 100.511 1.16574 -1.06058 0
M  V30 1104 C 101.751 1.88723 -0.78504 0
M  V30 1105 C 102.115 1.79706 0.676006 0
M  V30 1106 O 103.316 2.46757 1.06603 0
M  V30 1107 C 101.587 3.34338 -1.26304 0
M  V30 1108 S 103.146 4.24366 -1.1162 0
M  V30 1109 H 99.9638 0.651448 -0.284846 0
M  V30 1110 H 102.566 1.40732 -1.35701 0
M  V30 1111 H 101.27 3.38439 -2.32136 0
M  V30 1112 H 100.801 3.87378 -0.685719 0
M  V30 1113 H 102.816 4.96179 -0.0456539 0
M  V30 1114 N 101.989 0.842826 1.3317 0
M  V30 1115 C 103.236 0.440447 1.97652 0
M  V30 1116 C 103.564 -1.00123 1.6675 0
M  V30 1117 O 102.819 -1.7155 0.941761 0
M  V30 1118 C 103.118 0.612607 3.52111 0
M  V30 1119 C 102.784 2.02297 4.02972 0
M  V30 1120 C 101.446 2.40874 4.16573 0
M  V30 1121 C 103.798 2.94402 4.30089 0
M  V30 1122 C 101.126 3.70852 4.54627 0
M  V30 1123 C 103.478 4.23865 4.69597 0
M  V30 1124 C 102.142 4.62392 4.81404 0
M  V30 1125 H 101.412 0.161171 0.72326 0
M  V30 1126 H 104.059 1.07061 1.58777 0
M  V30 1127 H 102.364 -0.100849 3.9167 0
M  V30 1128 H 104.061 0.2815 4.00011 0
M  V30 1129 H 100.651 1.71338 3.92863 0
M  V30 1130 H 104.835 2.65835 4.19101 0
M  V30 1131 H 100.091 4.00501 4.61962 0
M  V30 1132 H 104.265 4.95306 4.89536 0
M  V30 1133 H 101.892 5.63154 5.10648 0
M  V30 1134 N 103.467 -1.45747 0.599634 0
M  V30 1135 C 104.415 -2.322 -0.136426 0
M  V30 1136 C 105.409 -1.45497 -0.867583 0
M  V30 1137 O 106.615 -1.62027 -0.78405 0
M  V30 1138 H 102.99 -0.749368 -0.0628588 0
M  V30 1139 H 104.961 -2.92072 0.611281 0
M  V30 1140 C 103.71 -3.28974 -1.12567 0
M  V30 1141 H 103.033 -3.9568 -0.572484 0
M  V30 1142 H 104.473 -3.92212 -1.61077 0
M  V30 1143 C 102.932 -2.55561 -2.19523 0
M  V30 1144 O 103.462 -2.33111 -3.27143 0
M  V30 1145 N 101.668 -2.15832 -1.94589 0
M  V30 1146 H 101.215 -2.3429 -1.07078 0
M  V30 1147 H 101.173 -1.67034 -2.66359 0
M  V30 1148 N 104.945 -0.338344 -1.53925 0
M  V30 1149 C 106.194 0.260732 -2.00008 0
M  V30 1150 C 106.507 1.52073 -1.23017 0
M  V30 1151 O 107.713 2.19672 -1.5955 0
M  V30 1152 C 106.169 0.51515 -3.56194 0
M  V30 1153 C 105.777 -0.728645 -4.42035 0
M  V30 1154 C 107.521 1.07337 -4.10706 0
M  V30 1155 C 105.428 -0.445315 -5.89721 0
M  V30 1156 H 104.358 0.101205 -0.747177 0
M  V30 1157 H 107.009 -0.452866 -1.77824 0
M  V30 1158 H 105.391 1.28932 -3.74423 0
M  V30 1159 H 106.565 -1.50352 -4.35581 0
M  V30 1160 H 104.88 -1.20813 -3.98489 0
M  V30 1161 H 107.477 1.30022 -5.18651 0
M  V30 1162 H 107.82 2.0273 -3.63602 0
M  V30 1163 H 108.353 0.360034 -3.96167 0
M  V30 1164 H 105.092 -1.36883 -6.41049 0
M  V30 1165 H 104.612 0.291569 -5.99091 0
M  V30 1166 H 106.291 -0.0606218 -6.46972 0
M  V30 1167 N 106.423 1.57458 -0.0668435 0
M  V30 1168 C 107.371 2.13639 0.919851 0
M  V30 1169 C 108.365 1.07204 1.31163 0
M  V30 1170 O 109.571 1.25591 1.28945 0
M  V30 1171 H 105.946 0.683048 0.314562 0
M  V30 1172 H 107.917 2.95415 0.421047 0
M  V30 1173 C 106.666 2.70892 2.17975 0
M  V30 1174 H 105.989 3.5246 1.88711 0
M  V30 1175 H 107.429 3.13803 2.85138 0
M  V30 1176 C 105.888 1.65414 2.93496 0
M  V30 1177 O 106.418 1.07619 3.87015 0
M  V30 1178 N 104.624 1.36564 2.56512 0
M  V30 1179 H 104.171 1.83751 1.80536 0
M  V30 1180 H 104.129 0.66223 3.07347 0
M  V30 1181 N 107.901 -0.206675 1.56239 0
M  V30 1182 C 108.848 -1.25617 1.93621 0
M  V30 1183 C 109.818 -1.45824 0.795274 0
M  V30 1184 O 111.003 -1.59148 1.05245 0
M  V30 1185 C 108.143 -2.59839 2.27107 0
M  V30 1186 C 107.256 -2.47308 3.54207 0
M  V30 1187 C 106.391 -3.74155 3.7707 0
M  V30 1188 C 105.43 -3.56407 4.97635 0
M  V30 1189 N 104.567 -4.75238 5.1681 0
M  V30 1190 H 109.407 -0.930383 2.83104 0
M  V30 1191 H 106.944 -0.448065 1.4011 0
M  V30 1192 H 108.902 -3.38021 2.44535 0
M  V30 1193 H 107.532 -2.90485 1.40778 0
M  V30 1194 H 106.584 -1.60483 3.4489 0
M  V30 1195 H 107.896 -2.30122 4.42544 0
M  V30 1196 H 107.05 -4.60778 3.94675 0
M  V30 1197 H 105.789 -3.94282 2.87042 0
M  V30 1198 H 104.794 -2.68168 4.79964 0
M  V30 1199 H 106.019 -3.37736 5.89161 0
M  V30 1200 H 103.965 -4.95651 4.29728 0
M  V30 1201 H 103.882 -4.60835 5.99306 0
M  V30 1202 H 105.15 -5.63246 5.38864 0
M  V30 1203 N 109.379 -1.50304 -0.473955 0
M  V30 1204 C 110.795 -1.37667 -0.807466 0
M  V30 1205 C 110.995 -0.430555 -1.96846 0
M  V30 1206 O 110.051 0.127874 -2.52176 0
M  V30 1207 C 111.364 -2.78974 -1.12223 0
M  V30 1208 C 112.912 -2.87868 -1.22885 0
M  V30 1209 C 113.387 -4.30003 -1.57676 0
M  V30 1210 N 114.878 -4.3294 -1.64673 0
M  V30 1211 C 115.613 -5.3991 -1.93091 0
M  V30 1212 N 115.109 -6.57092 -2.1955 0
M  V30 1213 N 116.902 -5.27351 -1.94569 0
M  V30 1214 H 109.053 -2.10394 0.291212 0
M  V30 1215 H 111.316 -0.945575 0.0677609 0
M  V30 1216 H 111.022 -3.50031 -0.342229 0
M  V30 1217 H 110.896 -3.16038 -2.05913 0
M  V30 1218 H 113.283 -2.17032 -1.99953 0
M  V30 1219 H 113.364 -2.54352 -0.271814 0
M  V30 1220 H 113.008 -5.01375 -0.81149 0
M  V30 1221 H 112.938 -4.61004 -2.54525 0
M  V30 1222 H 115.429 -3.48441 -1.46277 0
M  V30 1223 H 115.742 -7.34425 -2.405 0
M  V30 1224 H 114.087 -6.60272 -2.16948 0
M  V30 1225 H 117.278 -4.34801 -1.73394 0
M  V30 1226 H 117.451 -6.10805 -2.16381 0
M  V30 1227 N 110.857 0.726932 -1.39834 0
M  V30 1228 C 111.82 1.82269 -1.38962 0
M  V30 1229 C 112.82 1.58248 -0.285334 0
M  V30 1230 O 114.01 1.65499 -0.54366 0
M  V30 1231 C 111.142 3.20186 -1.17019 0
M  V30 1232 H 112.335 1.84443 -2.36476 0
M  V30 1233 H 109.888 0.931416 -1.25516 0
M  V30 1234 H 110.623 3.23669 -0.202204 0
M  V30 1235 H 110.408 3.3902 -1.96998 0
M  V30 1236 H 111.898 4.00235 -1.1917 0
M  V30 1237 N 112.336 1.25143 0.95797 0
M  V30 1238 C 113.613 1.00472 1.67823 0
M  V30 1239 C 113.993 -0.470056 2.058 0
M  V30 1240 O 113.341 -1.44663 1.76875 0
M  V30 1241 C 113.551 1.9372 2.90299 0
M  V30 1242 C 114.899 2.21371 3.62326 0
M  V30 1243 O 115.923 1.91451 3.00375 0
M  V30 1244 O 114.782 2.72231 4.7387 0
M  V30 1245 H 111.876 0.380752 0.734137 0
M  V30 1246 H 114.422 1.36283 1.01119 0
M  V30 1247 H 113.194 2.93316 2.59001 0
M  V30 1248 H 112.817 1.58286 3.64735 0
M  V30 1249 N 113.814 -1.1601 1.06675 0
M  V30 1250 C 115.039 -1.91068 0.806706 0
M  V30 1251 C 115.464 -1.77112 -0.633485 0
M  V30 1252 O 114.822 -1.09908 -1.44187 0
M  V30 1253 C 114.87 -3.39655 1.21106 0
M  V30 1254 O 113.974 -4.10893 0.352189 0
M  V30 1255 H 113.315 -0.595125 0.294486 0
M  V30 1256 H 115.845 -1.46955 1.42356 0
M  V30 1257 H 115.855 -3.90434 1.18428 0
M  V30 1258 H 114.53 -3.49132 2.26008 0
M  V30 1259 H 113.107 -3.70285 0.440868 0
M  V30 1260 N 115.292 -0.849877 -1.32721 0
M  V30 1261 C 116.239 -0.289033 -2.28983 0
M  V30 1262 C 117.209 0.601324 -1.54833 0
M  V30 1263 O 118.394 0.537253 -1.8308 0
M  V30 1264 C 115.534 0.520623 -3.4115 0
M  V30 1265 C 114.647 -0.394989 -4.3019 0
M  V30 1266 C 113.782 0.426834 -5.29482 0
M  V30 1267 C 112.821 -0.486476 -6.10164 0
M  V30 1268 N 111.958 0.297879 -7.01468 0
M  V30 1269 H 116.798 -1.11519 -2.76347 0
M  V30 1270 H 114.335 -0.56138 -1.35967 0
M  V30 1271 H 116.293 1.00563 -4.04899 0
M  V30 1272 H 114.923 1.31165 -2.9495 0
M  V30 1273 H 113.975 -0.99836 -3.67065 0
M  V30 1274 H 115.287 -1.09612 -4.86607 0
M  V30 1275 H 114.441 0.975205 -5.98811 0
M  V30 1276 H 113.18 1.16136 -4.73671 0
M  V30 1277 H 112.185 -1.04677 -5.39743 0
M  V30 1278 H 113.41 -1.21953 -6.6806 0
M  V30 1279 H 111.356 1.01558 -6.48091 0
M  V30 1280 H 111.273 -0.344318 -7.55216 0
M  V30 1281 H 112.541 0.828131 -7.75089 0
M  V30 1282 N 116.77 1.45427 -0.607355 0
M  V30 1283 C 117.718 2.32269 0.12411 0
M  V30 1284 C 118.712 1.45955 0.859854 0
M  V30 1285 O 119.918 1.6244 0.775447 0
M  V30 1286 H 116.293 0.749691 0.0588839 0
M  V30 1287 H 118.264 2.91743 -0.626762 0
M  V30 1288 C 117.013 3.29567 1.1082 0
M  V30 1289 H 116.336 3.95978 0.551492 0
M  V30 1290 H 117.776 3.93061 1.58995 0
M  V30 1291 C 116.235 2.56722 2.18164 0
M  V30 1292 O 116.765 2.34842 3.25902 0
M  V30 1293 N 114.971 2.16861 1.93442 0
M  V30 1294 H 114.518 2.34855 1.05834 0
M  V30 1295 H 114.476 1.68444 2.65469 0
M  V30 1296 N 118.248 0.346503 1.53744 0
M  V30 1297 C 119.195 -0.508914 2.25119 0
M  V30 1298 C 120.165 -1.09315 1.25058 0
M  V30 1299 O 121.35 -1.12921 1.53797 0
M  V30 1300 C 118.49 -1.65246 3.02965 0
M  V30 1301 C 117.603 -1.09525 4.17886 0
M  V30 1302 C 116.738 -2.20634 4.83212 0
M  V30 1303 C 115.777 -1.62279 5.90196 0
M  V30 1304 N 114.914 -2.67143 6.49291 0
M  V30 1305 H 119.754 0.106283 2.9781 0
M  V30 1306 H 117.291 0.0642227 1.4696 0
M  V30 1307 H 119.249 -2.32574 3.4636 0
M  V30 1308 H 117.879 -2.2386 2.32565 0
M  V30 1309 H 116.931 -0.312818 3.79112 0
M  V30 1310 H 118.243 -0.628444 4.94825 0
M  V30 1311 H 117.397 -2.95821 5.29693 0
M  V30 1312 H 116.136 -2.70659 4.05703 0
M  V30 1313 H 115.141 -0.855989 5.43096 0
M  V30 1314 H 116.366 -1.13102 6.69615 0
M  V30 1315 H 114.312 -3.16417 5.74645 0
M  V30 1316 H 114.229 -2.25093 7.21713 0
M  V30 1317 H 115.497 -3.4209 7.00425 0
M  V30 1318 N 119.726 -1.57421 0.075193 0
M  V30 1319 C 120.676 -2.09441 -0.901025 0
M  V30 1320 C 121.66 -1.00486 -1.25663 0
M  V30 1321 O 122.852 -1.2679 -1.23504 0
M  V30 1322 C 119.981 -2.66233 -2.16737 0
M  V30 1323 C 119.067 -3.82198 -1.83808 0
M  V30 1324 N 119.458 -4.91028 -1.21345 0
M  V30 1325 C 117.756 -3.91558 -2.13538 0
M  V30 1326 C 118.457 -5.71852 -1.06585 0
M  V30 1327 N 117.433 -5.20233 -1.57667 0
M  V30 1328 H 121.235 -2.90972 -0.413815 0
M  V30 1329 H 118.749 -1.6189 -0.128601 0
M  V30 1330 H 120.746 -3.01819 -2.87595 0
M  V30 1331 H 119.406 -1.8615 -2.66042 0
M  V30 1332 H 120.417 -5.10323 -0.88268 0
M  V30 1333 H 117.094 -3.22454 -2.65197 0
M  V30 1334 H 118.484 -6.69401 -0.578933 0
M  V30 1335 N 121.204 0.198386 -1.56346 0
M  V30 1336 C 122.134 1.24865 -1.9731 0
M  V30 1337 C 123.115 1.47651 -0.844576 0
M  V30 1338 O 124.3 1.59444 -1.10866 0
M  V30 1339 C 121.43 2.59358 -2.30977 0
M  V30 1340 C 120.384 2.5119 -3.46537 0
M  V30 1341 C 119.71 3.89926 -3.65871 0
M  V30 1342 C 121.01 2.03977 -4.80823 0
M  V30 1343 H 122.704 0.908252 -2.85291 0
M  V30 1344 H 120.25 0.435462 -1.37258 0
M  V30 1345 H 122.203 3.33011 -2.58228 0
M  V30 1346 H 120.927 2.95132 -1.39874 0
M  V30 1347 H 119.586 1.79993 -3.19371 0
M  V30 1348 H 119.234 4.23046 -2.72105 0
M  V30 1349 H 118.934 3.85336 -4.4361 0
M  V30 1350 H 120.458 4.65205 -3.95495 0
M  V30 1351 H 121.872 2.67386 -5.07127 0
M  V30 1352 H 120.269 2.10397 -5.62008 0
M  V30 1353 H 121.339 0.992861 -4.74626 0
M  V30 1354 N 122.682 1.50554 0.465978 0
M  V30 1355 C 123.928 1.62038 1.21949 0
M  V30 1356 C 124.261 0.322116 1.9151 0
M  V30 1357 O 123.536 -0.676723 1.82348 0
M  V30 1358 C 123.819 2.80421 2.25912 0
M  V30 1359 C 123.672 4.20144 1.60622 0
M  V30 1360 C 124.991 2.94354 3.27176 0
M  V30 1361 H 122.11 0.589752 0.441998 0
M  V30 1362 H 124.752 1.82956 0.51257 0
M  V30 1363 H 122.902 2.62717 2.86203 0
M  V30 1364 H 124.574 4.49449 1.03889 0
M  V30 1365 H 122.817 4.24165 0.909211 0
M  V30 1366 H 123.488 4.98914 2.36196 0
M  V30 1367 H 125.964 3.10578 2.76913 0
M  V30 1368 H 124.84 3.788 3.97242 0
M  V30 1369 H 125.101 2.05186 3.916 0
M  V30 1370 N 124.16 -0.719506 1.40217 0
M  V30 1371 C 125.123 -1.8153 1.39927 0
M  V30 1372 C 126.123 -1.58095 0.293723 0
M  V30 1373 O 127.313 -1.65209 0.552429 0
M  V30 1374 C 124.445 -3.19561 1.18716 0
M  V30 1375 H 125.638 -1.83186 2.37451 0
M  V30 1376 H 123.191 -0.924746 1.26008 0
M  V30 1377 H 123.926 -3.23557 0.219366 0
M  V30 1378 H 123.711 -3.3797 1.98793 0
M  V30 1379 H 125.201 -3.99598 1.21291 0
M  V30 1380 N 125.638 -1.25649 -0.95132 0
M  V30 1381 C 126.568 -1.08808 -2.06599 0
M  V30 1382 C 127.549 0.00382547 -1.701 0
M  V30 1383 O 128.734 -0.166325 -1.93486 0
M  V30 1384 C 125.864 -0.709542 -3.39975 0
M  V30 1385 C 124.818 -1.75206 -3.90496 0
M  V30 1386 C 124.144 -1.22811 -5.20405 0
M  V30 1387 C 125.444 -3.15153 -4.16504 0
M  V30 1388 H 127.138 -2.02048 -2.20946 0
M  V30 1389 H 124.684 -0.972835 -1.06169 0
M  V30 1390 H 126.637 -0.578649 -4.17408 0
M  V30 1391 H 125.361 0.258556 -3.25575 0
M  V30 1392 H 124.02 -1.87145 -3.15234 0
M  V30 1393 H 123.668 -0.250145 -5.02378 0
M  V30 1394 H 123.368 -1.92492 -5.55176 0
M  V30 1395 H 124.892 -1.10968 -6.00432 0
M  V30 1396 H 126.306 -3.06349 -4.84586 0
M  V30 1397 H 124.703 -3.82333 -4.62538 0
M  V30 1398 H 125.773 -3.61966 -3.22658 0
M  V30 1399 N 127.117 1.15442 -1.07289 0
M  V30 1400 C 128.347 1.89821 -0.815576 0
M  V30 1401 C 128.755 1.7823 0.634867 0
M  V30 1402 O 128.098 1.13152 1.44715 0
M  V30 1403 C 128.16 3.40817 -1.14385 0
M  V30 1404 C 127.824 3.76193 -2.59476 0
M  V30 1405 C 128.821 3.77269 -3.57721 0
M  V30 1406 C 126.506 4.0652 -2.95037 0
M  V30 1407 C 128.5 4.08176 -4.89562 0
M  V30 1408 C 126.187 4.37092 -4.27076 0
M  V30 1409 C 127.185 4.37902 -5.24148 0
M  V30 1410 O 126.873 4.67741 -6.53815 0
M  V30 1411 H 126.605 0.608465 -0.294528 0
M  V30 1412 H 129.159 1.472 -1.43252 0
M  V30 1413 H 127.389 3.83835 -0.469865 0
M  V30 1414 H 129.078 3.96485 -0.869179 0
M  V30 1415 H 129.844 3.5394 -3.3159 0
M  V30 1416 H 125.723 4.05049 -2.20128 0
M  V30 1417 H 129.267 4.08723 -5.65324 0
M  V30 1418 H 125.164 4.59889 -4.5296 0
M  V30 1419 H 125.932 4.85509 -6.58957 0
M  V30 1420 N 128.595 0.856903 1.32268 0
M  V30 1421 C 129.823 0.475439 2.01363 0
M  V30 1422 C 130.238 -0.928486 1.64392 0
M  V30 1423 O 129.595 -1.60624 0.866387 0
M  V30 1424 C 129.646 0.607545 3.56358 0
M  V30 1425 O 129.367 1.95617 3.92002 0
M  V30 1426 C 130.868 0.225382 4.42727 0
M  V30 1427 H 128.088 0.186636 0.644521 0
M  V30 1428 H 130.632 1.15446 1.68797 0
M  V30 1429 H 128.787 -0.0237719 3.87393 0
M  V30 1430 H 129.201 1.95455 4.86721 0
M  V30 1431 H 130.675 0.368813 5.50767 0
M  V30 1432 H 131.152 -0.834369 4.31202 0
M  V30 1433 H 131.758 0.831864 4.17085 0
M  V30 1434 N 130.073 -1.45103 0.615059 0
M  V30 1435 C 131.489 -1.57137 0.279322 0
M  V30 1436 C 131.689 -1.60523 -1.21797 0
M  V30 1437 O 130.745 -1.53956 -2.00134 0
M  V30 1438 C 132.058 -2.85062 0.957083 0
M  V30 1439 C 133.606 -2.98749 0.933706 0
M  V30 1440 C 134.081 -4.29455 1.59162 0
M  V30 1441 N 135.572 -4.36231 1.55746 0
M  V30 1442 C 136.307 -5.36051 2.0356 0
M  V30 1443 N 135.803 -6.42367 2.59494 0
M  V30 1444 N 137.596 -5.27456 1.94284 0
M  V30 1445 H 129.747 -1.41148 1.58717 0
M  V30 1446 H 132.01 -0.675331 0.665306 0
M  V30 1447 H 131.716 -2.88488 2.01166 0
M  V30 1448 H 131.59 -3.7407 0.48494 0
M  V30 1449 H 133.977 -2.94886 -0.112347 0
M  V30 1450 H 134.058 -2.11132 1.44419 0
M  V30 1451 H 133.702 -4.34077 2.63704 0
M  V30 1452 H 133.632 -5.15901 1.0561 0
M  V30 1453 H 136.123 -3.60011 1.14893 0
M  V30 1454 H 136.436 -7.14793 2.93752 0
M  V30 1455 H 134.781 -6.43097 2.63537 0
M  V30 1456 H 137.972 -4.43308 1.5032 0
M  V30 1457 H 138.145 -6.05099 2.3186 0
M  V30 1458 N 131.551 -0.354651 -1.53558 0
M  V30 1459 C 132.828 0.294281 -1.93374 0
M  V30 1460 C 133.208 1.67313 -1.28723 0
M  V30 1461 O 132.556 2.24179 -0.442247 0
M  V30 1462 C 132.766 0.355445 -3.47185 0
M  V30 1463 C 134.114 0.601007 -4.20325 0
M  V30 1464 O 135.138 0.437106 -3.53508 0
M  V30 1465 O 133.997 0.919322 -5.38712 0
M  V30 1466 H 131.091 0.174033 -0.808481 0
M  V30 1467 H 133.637 -0.406638 -1.64756 0
M  V30 1468 H 132.409 -0.611729 -3.86489 0
M  V30 1469 H 132.032 1.1027 -3.82003 0
M  V30 1470 N 133.029 1.57378 -0.0835403 0
M  V30 1471 C 133.939 2.16897 0.894021 0
M  V30 1472 C 134.955 1.13528 1.31861 0
M  V30 1473 O 136.131 1.45848 1.3889 0
M  V30 1474 C 133.196 2.72831 2.13925 0
M  V30 1475 C 132.257 3.91115 1.76997 0
M  V30 1476 C 131.49 4.44371 2.95584 0
M  V30 1477 O 131.713 3.96596 4.09961 0
M  V30 1478 O 130.647 5.35549 2.74719 0
M  V30 1479 H 134.473 3.00814 0.417679 0
M  V30 1480 H 132.058 1.48741 0.140181 0
M  V30 1481 H 133.94 3.0863 2.86924 0
M  V30 1482 H 132.615 1.91967 2.60635 0
M  V30 1483 H 131.522 3.60148 1.01214 0
M  V30 1484 H 132.855 4.73307 1.3506 0
M  V30 1485 N 134.507 -0.190092 1.56449 0
M  V30 1486 C 135.457 -1.23977 1.91347 0
M  V30 1487 C 136.441 -1.40747 0.779693 0
M  V30 1488 O 137.633 -1.43033 1.04262 0
M  V30 1489 C 134.762 -2.58347 2.26079 0
M  V30 1490 C 133.848 -2.4535 3.45925 0
M  V30 1491 N 134.239 -2.02039 4.63696 0
M  V30 1492 C 132.537 -2.76229 3.50162 0
M  V30 1493 C 133.238 -2.01053 5.4585 0
M  V30 1494 N 132.214 -2.42747 4.8639 0
M  V30 1495 H 136.016 -0.896318 2.79899 0
M  V30 1496 H 133.53 -0.398496 1.57435 0
M  V30 1497 H 135.527 -3.34173 2.49267 0
M  V30 1498 H 134.187 -2.93512 1.38856 0
M  V30 1499 H 135.198 -1.7267 4.88268 0
M  V30 1500 H 131.875 -3.15556 2.73369 0
M  V30 1501 H 133.265 -1.69426 6.50188 0
M  V30 1502 N 135.985 -1.50799 -0.457987 0
M  V30 1503 C 137.232 -1.62442 -1.20908 0
M  V30 1504 C 137.56 -0.330865 -1.91665 0
M  V30 1505 O 136.815 0.68401 -1.83357 0
M  V30 1506 C 137.114 -2.76358 -2.2663 0
M  V30 1507 C 136.78 -4.16378 -1.73033 0
M  V30 1508 C 135.442 -4.54473 -1.58138 0
M  V30 1509 C 137.794 -5.03836 -1.33413 0
M  V30 1510 C 135.122 -5.77754 -1.02065 0
M  V30 1511 C 137.474 -6.27676 -0.78778 0
M  V30 1512 C 136.138 -6.64562 -0.625561 0
M  V30 1513 H 135.408 -0.594417 -0.442435 0
M  V30 1514 H 138.055 -1.84772 -0.503136 0
M  V30 1515 H 136.36 -2.48167 -3.03184 0
M  V30 1516 H 138.057 -2.82568 -2.84528 0
M  V30 1517 H 134.647 -3.86331 -1.85598 0
M  V30 1518 H 138.831 -4.75026 -1.4375 0
M  V30 1519 H 134.087 -6.04997 -0.882547 0
M  V30 1520 H 138.261 -6.94797 -0.472177 0
M  V30 1521 H 135.888 -7.59965 -0.188926 0
M  V30 1522 N 137.463 0.71206 -1.40597 0
M  V30 1523 C 138.426 1.80785 -1.40888 0
M  V30 1524 C 139.426 1.57937 -0.302103 0
M  V30 1525 O 140.616 1.64913 -0.561182 0
M  V30 1526 C 137.748 3.18927 -1.20409 0
M  V30 1527 H 138.941 1.81924 -2.38419 0
M  V30 1528 H 136.494 0.91805 -1.26497 0
M  V30 1529 H 137.229 3.23436 -0.236522 0
M  V30 1530 H 137.014 3.36911 -2.00582 0
M  V30 1531 H 138.504 3.98949 -1.23408 0
M  V30 1532 N 138.941 1.26152 0.944643 0
M  V30 1533 C 140.19 1.10883 1.68487 0
M  V30 1534 C 140.503 -0.348153 1.92477 0
M  V30 1535 O 141.709 -0.621459 2.64292 0
M  V30 1536 C 140.165 1.93624 3.03377 0
M  V30 1537 C 139.773 3.43875 2.87148 0
M  V30 1538 C 141.517 1.86954 3.81115 0
M  V30 1539 C 139.424 4.18875 4.1749 0
M  V30 1540 H 138.354 0.41135 0.631907 0
M  V30 1541 H 141.005 1.50433 1.05082 0
M  V30 1542 H 139.387 1.46904 3.67743 0
M  V30 1543 H 140.561 3.98338 2.31653 0
M  V30 1544 H 138.876 3.51744 2.22856 0
M  V30 1545 H 141.473 2.40275 4.77673 0
M  V30 1546 H 141.816 0.839518 4.07747 0
M  V30 1547 H 142.349 2.31477 3.23517 0
M  V30 1548 H 139.088 5.22332 3.96043 0
M  V30 1549 H 138.608 3.69193 4.72712 0
M  V30 1550 H 140.287 4.27134 4.85968 0
M  V30 1551 N 140.419 -1.14872 1.07899 0
M  V30 1552 C 141.382 -2.17986 0.708161 0
M  V30 1553 C 142.382 -1.58775 -0.25442 0
M  V30 1554 O 143.572 -1.74166 -0.034645 0
M  V30 1555 C 140.704 -3.40871 0.0446929 0
M  V30 1556 H 141.897 -2.52306 1.62116 0
M  V30 1557 H 139.45 -1.2943 0.876218 0
M  V30 1558 H 140.185 -3.12124 -0.880281 0
M  V30 1559 H 139.97 -3.8511 0.737091 0
M  V30 1560 H 141.46 -4.17121 -0.19991 0
M  V30 1561 N 141.898 -0.863906 -1.31812 0
M  V30 1562 C 142.861 -0.320212 -2.26952 0
M  V30 1563 C 143.861 0.525369 -1.51975 0
M  V30 1564 O 145.051 0.335547 -1.70938 0
M  V30 1565 C 142.183 0.545919 -3.365 0
M  V30 1566 H 143.376 -1.16004 -2.76556 0
M  V30 1567 H 140.929 -0.638995 -1.42641 0
M  V30 1568 H 141.664 1.40718 -2.92179 0
M  V30 1569 H 141.449 -0.0594674 -3.92055 0
M  V30 1570 H 142.939 0.918796 -4.07367 0
M  V30 1571 N 143.376 1.44774 -0.622745 0
M  V30 1572 C 144.653 1.95522 -0.0551974 0
M  V30 1573 C 145.033 1.5649 1.41683 0
M  V30 1574 O 144.381 0.834848 2.12703 0
M  V30 1575 C 144.591 3.4796 -0.269242 0
M  V30 1576 C 145.939 4.24306 -0.158014 0
M  V30 1577 O 146.963 3.55637 -0.200162 0
M  V30 1578 O 145.822 5.46471 -0.0558693 0
M  V30 1579 H 142.916 0.826556 0.0271015 0
M  V30 1580 H 145.462 1.54866 -0.693864 0
M  V30 1581 H 144.234 3.6939 -1.29099 0
M  V30 1582 H 143.857 3.95543 0.403966 0
M  V30 1583 N 144.854 0.36279 1.53368 0
M  V30 1584 C 146.079 -0.231226 2.06107 0
M  V30 1585 C 146.504 -1.419 1.23474 0
M  V30 1586 O 145.862 -1.79524 0.253128 0
M  V30 1587 C 145.91 -0.605523 3.5548 0
M  V30 1588 O 145.014 -1.70312 3.7559 0
M  V30 1589 H 144.355 -0.034327 0.663112 0
M  V30 1590 H 146.885 0.522584 1.97814 0
M  V30 1591 H 146.895 -0.877314 3.98456 0
M  V30 1592 H 145.57 0.263004 4.15068 0
M  V30 1593 H 144.147 -1.4271 3.44512 0
M  V30 1594 N 146.332 -1.57332 0.0918853 0
M  V30 1595 C 147.242 -2.17368 -0.882505 0
M  V30 1596 C 148.258 -1.14226 -1.31257 0
M  V30 1597 O 149.434 -1.46582 -1.38115 0
M  V30 1598 C 146.499 -2.73962 -2.12476 0
M  V30 1599 C 145.56 -3.92048 -1.7492 0
M  V30 1600 C 144.793 -4.45933 -2.93223 0
M  V30 1601 O 145.016 -3.98764 -4.07852 0
M  V30 1602 O 143.95 -5.36999 -2.71875 0
M  V30 1603 H 147.776 -3.01031 -0.40172 0
M  V30 1604 H 145.361 -1.48813 -0.132291 0
M  V30 1605 H 147.243 -3.10147 -2.85283 0
M  V30 1606 H 145.918 -1.93347 -2.59613 0
M  V30 1607 H 144.825 -3.6068 -0.993025 0
M  V30 1608 H 146.158 -4.74017 -1.32548 0
M  V30 1609 N 147.81 0.181792 -1.56548 0
M  V30 1610 C 148.773 1.20894 -1.94724 0
M  V30 1611 C 149.773 1.37738 -0.829747 0
M  V30 1612 O 150.963 1.35323 -1.09697 0
M  V30 1613 C 148.095 2.57593 -2.23291 0
M  V30 1614 H 149.288 0.882275 -2.86629 0
M  V30 1615 H 146.841 0.423838 -1.50444 0
M  V30 1616 H 147.576 2.95291 -1.34067 0
M  V30 1617 H 147.361 2.46735 -3.04736 0
M  V30 1618 H 148.851 3.31637 -2.53785 0
M  V30 1619 N 149.288 1.51039 0.449983 0
M  V30 1620 C 150.198 1.74261 1.57067 0
M  V30 1621 C 151.214 0.626363 1.62335 0
M  V30 1622 O 152.39 0.907162 1.79812 0
M  V30 1623 C 149.455 1.85114 2.93144 0
M  V30 1624 C 148.516 3.0893 2.98095 0
M  V30 1625 C 147.749 3.19256 4.27681 0
M  V30 1626 O 147.972 2.35835 5.19363 0
M  V30 1627 O 146.906 4.12144 4.38658 0
M  V30 1628 H 150.732 2.69303 1.40391 0
M  V30 1629 H 148.317 1.35389 0.631688 0
M  V30 1630 H 150.199 1.94311 3.73926 0
M  V30 1631 H 148.874 0.932588 3.09975 0
M  V30 1632 H 147.781 3.0522 2.16314 0
M  V30 1633 H 149.114 4.00433 2.86206 0
M  V30 1634 N 150.766 -0.704594 1.40972 0
M  V30 1635 C 151.698 -1.82974 1.38033 0
M  V30 1636 C 152.711 -1.60305 0.283931 0
M  V30 1637 O 153.9 -1.69975 0.545042 0
M  V30 1638 C 151 -3.19578 1.12795 0
M  V30 1639 C 150.173 -3.69352 2.34302 0
M  V30 1640 C 149.232 -4.84601 2.05058 0
M  V30 1641 O 148.258 -4.96682 2.7802 0
M  V30 1642 N 149.46 -5.71194 1.03528 0
M  V30 1643 H 152.225 -1.85991 2.35005 0
M  V30 1644 H 149.786 -0.886567 1.35468 0
M  V30 1645 H 151.778 -3.9429 0.911987 0
M  V30 1646 H 150.348 -3.11642 0.24452 0
M  V30 1647 H 149.568 -2.85649 2.71659 0
M  V30 1648 H 150.856 -3.99345 3.1528 0
M  V30 1649 H 150.254 -5.64054 0.431217 0
M  V30 1650 H 148.811 -6.45843 0.879205 0
M  V30 1651 N 152.244 -1.26651 -0.937939 0
M  V30 1652 C 153.521 -1.0313 -1.66204 0
M  V30 1653 C 153.901 0.437256 -2.06522 0
M  V30 1654 O 153.249 1.41831 -1.79154 0
M  V30 1655 C 153.459 -1.98314 -2.87181 0
M  V30 1656 C 154.807 -2.27107 -3.58758 0
M  V30 1657 O 155.831 -1.96205 -2.97291 0
M  V30 1658 O 154.69 -2.79736 -4.69479 0
M  V30 1659 H 151.784 -0.392384 -0.727986 0
M  V30 1660 H 154.33 -1.37874 -0.989382 0
M  V30 1661 H 153.102 -2.97399 -2.54302 0
M  V30 1662 H 152.725 -1.64068 -3.6217 0
M  V30 1663 N 153.722 1.14298 -1.08507 0
M  V30 1664 C 154.947 1.8976 -0.837001 0
M  V30 1665 C 155.372 1.78097 0.605228 0
M  V30 1666 O 154.73 1.12188 1.4242 0
M  V30 1667 C 154.778 3.37685 -1.26495 0
M  V30 1668 O 153.882 4.10281 -0.417514 0
M  V30 1669 H 153.223 0.590365 -0.303917 0
M  V30 1670 H 155.753 1.44672 -1.44676 0
M  V30 1671 H 155.763 3.88501 -1.24625 0
M  V30 1672 H 154.438 3.45492 -2.31534 0
M  V30 1673 H 153.015 3.69536 -0.499722 0
M  V30 1674 N 155.201 0.870884 1.31352 0
M  V30 1675 C 156.447 0.492314 1.97352 0
M  V30 1676 C 156.802 -0.945174 1.67583 0
M  V30 1677 O 156.095 -1.65674 0.962423 0
M  V30 1678 C 156.289 0.687157 3.50732 0
M  V30 1679 C 156.118 2.14203 3.95407 0
M  V30 1680 C 154.888 2.78382 4.21701 0
M  V30 1681 C 157.086 3.1144 4.09279 0
M  V30 1682 N 155.068 4.14611 4.52737 0
M  V30 1683 C 156.439 4.32702 4.44037 0
M  V30 1684 C 158.494 3.07418 3.91661 0
M  V30 1685 C 157.197 5.50463 4.63015 0
M  V30 1686 C 159.223 4.24438 4.11833 0
M  V30 1687 C 158.585 5.44463 4.46923 0
M  V30 1688 H 154.684 0.229206 0.747655 0
M  V30 1689 H 157.268 1.12568 1.5886 0
M  V30 1690 H 155.439 0.083384 3.8831 0
M  V30 1691 H 157.171 0.276883 4.03752 0
M  V30 1692 H 153.926 2.29326 4.14375 0
M  V30 1693 H 154.35 4.84928 4.72413 0
M  V30 1694 H 158.992 2.15732 3.6362 0
M  V30 1695 H 156.71 6.42666 4.89904 0
M  V30 1696 H 160.296 4.2278 3.99685 0
M  V30 1697 H 159.176 6.33504 4.62214 0
M  V30 1698 N 156.679 -1.44442 0.630414 0
M  V30 1699 C 157.909 -2.06115 0.141465 0
M  V30 1700 C 158.317 -1.47179 -1.1889 0
M  V30 1701 O 157.66 -0.588873 -1.74006 0
M  V30 1702 C 157.722 -3.59467 -0.0484355 0
M  V30 1703 C 157.386 -4.40864 1.20366 0
M  V30 1704 C 158.383 -4.74391 2.12719 0
M  V30 1705 C 156.068 -4.8125 1.43887 0
M  V30 1706 C 158.062 -5.47186 3.26904 0
M  V30 1707 C 155.749 -5.53795 2.5837 0
M  V30 1708 C 156.747 -5.86682 3.49705 0
M  V30 1709 O 156.435 -6.57749 4.62191 0
M  V30 1710 H 156.167 -0.671648 0.0765792 0
M  V30 1711 H 158.721 -1.86312 0.864695 0
M  V30 1712 H 156.951 -3.77758 -0.826803 0
M  V30 1713 H 158.64 -4.02909 -0.491849 0
M  V30 1714 H 159.406 -4.43728 1.95781 0
M  V30 1715 H 155.285 -4.55073 0.736853 0
M  V30 1716 H 158.829 -5.72773 3.98217 0
M  V30 1717 H 154.726 -5.83872 2.75251 0
M  V30 1718 H 155.494 -6.76217 4.61164 0
M  V30 1719 N 158.157 -0.370918 -1.53173 0
M  V30 1720 C 159.089 0.507823 -2.23503 0
M  V30 1721 C 160.102 1.04182 -1.251 0
M  V30 1722 O 161.291 0.947286 -1.5129 0
M  V30 1723 C 158.391 1.71447 -2.92334 0
M  V30 1724 C 157.564 1.31105 -4.17289 0
M  V30 1725 C 156.623 2.38035 -4.69282 0
M  V30 1726 O 155.649 2.00204 -5.32829 0
M  V30 1727 N 156.851 3.69697 -4.47554 0
M  V30 1728 H 159.616 -0.0946382 -2.99551 0
M  V30 1729 H 157.177 -0.196358 -1.60705 0
M  V30 1730 H 159.169 2.42469 -3.24023 0
M  V30 1731 H 157.739 2.22368 -2.19707 0
M  V30 1732 H 156.959 0.430462 -3.91843 0
M  V30 1733 H 158.247 1.0179 -4.98514 0
M  V30 1734 H 157.645 4.03205 -3.9679 0
M  V30 1735 H 156.202 4.36807 -4.8378 0
M  V30 1736 N 159.635 1.57281 -0.100228 0
M  V30 1737 C 160.598 2.13158 0.842398 0
M  V30 1738 C 161.598 1.06202 1.20738 0
M  V30 1739 O 162.788 1.32066 1.13597 0
M  V30 1740 C 159.92 2.65639 2.13655 0
M  V30 1741 H 161.113 2.97766 0.357114 0
M  V30 1742 H 158.666 1.5559 0.148823 0
M  V30 1743 H 159.401 1.84566 2.66657 0
M  V30 1744 H 159.186 3.43844 1.88451 0
M  V30 1745 H 160.676 3.08846 2.81077 0
M  V30 1746 N 161.113 -0.173488 1.56642 0
M  V30 1747 C 162.043 -1.2171 1.99271 0
M  V30 1748 C 163.024 -1.46289 0.867959 0
M  V30 1749 O 164.209 -1.5766 1.13388 0
M  V30 1750 C 161.339 -2.55651 2.35074 0
M  V30 1751 C 160.293 -2.45645 3.50489 0
M  V30 1752 C 159.619 -3.84056 3.72028 0
M  V30 1753 C 160.919 -1.96302 4.84007 0
M  V30 1754 H 162.613 -0.86275 2.867 0
M  V30 1755 H 160.159 -0.413571 1.37933 0
M  V30 1756 H 162.112 -3.2886 2.63494 0
M  V30 1757 H 160.836 -2.92869 1.44552 0
M  V30 1758 H 159.495 -1.7489 3.22194 0
M  V30 1759 H 159.143 -4.18664 2.788 0
M  V30 1760 H 158.843 -3.7823 4.49684 0
M  V30 1761 H 160.367 -4.58854 4.02846 0
M  V30 1762 H 161.781 -2.59284 5.11317 0
M  V30 1763 H 160.178 -2.01429 5.65284 0
M  V30 1764 H 161.248 -0.917226 4.76146 0
M  V30 1765 N 162.591 -1.51276 -0.441967 0
M  V30 1766 C 163.521 -1.752 -1.54361 0
M  V30 1767 C 164.502 -0.601682 -1.59103 0
M  V30 1768 O 165.687 -0.843913 -1.74905 0
M  V30 1769 C 162.817 -1.87282 -2.92477 0
M  V30 1770 C 161.771 -3.02687 -3.02596 0
M  V30 1771 C 161.097 -2.99947 -4.42647 0
M  V30 1772 C 162.397 -4.4273 -2.77106 0
M  V30 1773 H 164.091 -2.67442 -1.34592 0
M  V30 1774 H 161.637 -1.28694 -0.646048 0
M  V30 1775 H 163.59 -2.02602 -3.695 0
M  V30 1776 H 162.314 -0.916844 -3.13467 0
M  V30 1777 H 160.973 -2.87065 -2.28012 0
M  V30 1778 H 160.621 -2.02136 -4.60597 0
M  V30 1779 H 160.321 -3.77439 -4.50348 0
M  V30 1780 H 161.845 -3.17354 -5.2165 0
M  V30 1781 H 163.259 -4.58727 -3.43864 0
M  V30 1782 H 161.656 -5.21893 -2.96222 0
M  V30 1783 H 162.726 -4.53087 -1.72744 0
M  V30 1784 N 164.069 0.697108 -1.41344 0
M  V30 1785 C 165.001 1.8224 -1.39001 0
M  V30 1786 C 166.014 1.60152 -0.292428 0
M  V30 1787 O 167.203 1.69684 -0.554048 0
M  V30 1788 C 164.303 3.18976 -1.14489 0
M  V30 1789 C 163.476 3.68105 -2.36258 0
M  V30 1790 C 162.535 4.83506 -2.07625 0
M  V30 1791 O 161.561 4.95201 -2.8065 0
M  V30 1792 N 162.763 5.70637 -1.06555 0
M  V30 1793 H 165.528 1.84742 -2.35988 0
M  V30 1794 H 163.089 0.87937 -1.35936 0
M  V30 1795 H 165.081 3.93801 -0.932885 0
M  V30 1796 H 163.651 3.11508 -0.261043 0
M  V30 1797 H 162.871 2.84204 -2.7317 0
M  V30 1798 H 164.159 3.97667 -3.17393 0
M  V30 1799 H 163.557 5.63817 -0.461125 0
M  V30 1800 H 162.114 6.45368 -0.913444 0
M  V30 1801 N 165.547 1.27147 0.931209 0
M  V30 1802 C 166.477 1.12081 2.04842 0
M  V30 1803 C 167.458 0.0232364 1.70084 0
M  V30 1804 O 168.643 0.197085 1.93197 0
M  V30 1805 C 165.773 0.76354 3.38803 0
M  V30 1806 C 164.727 1.81396 3.87659 0
M  V30 1807 C 164.053 1.31075 5.18385 0
M  V30 1808 C 165.353 3.21739 4.11438 0
M  V30 1809 H 167.047 2.05537 2.17703 0
M  V30 1810 H 164.593 0.989603 1.04608 0
M  V30 1811 H 166.546 0.644982 4.16435 0
M  V30 1812 H 165.27 -0.206727 3.25945 0
M  V30 1813 H 163.929 1.92136 3.12217 0
M  V30 1814 H 163.577 0.330037 5.01916 0
M  V30 1815 H 163.277 2.013 5.52044 0
M  V30 1816 H 164.801 1.20506 5.98591 0
M  V30 1817 H 166.215 3.14019 4.79651 0
M  V30 1818 H 164.612 3.89644 4.56397 0
M  V30 1819 H 165.682 3.67054 3.16859 0
M  V30 1820 N 167.025 -1.13721 1.09112 0
M  V30 1821 C 167.975 -2.17082 0.697091 0
M  V30 1822 C 168.959 -1.58321 -0.286923 0
M  V30 1823 O 170.151 -1.7673 -0.0978008 0
M  V30 1824 C 167.28 -3.43105 0.115729 0
M  V30 1825 C 166.366 -4.0888 1.12596 0
M  V30 1826 N 166.757 -4.4987 2.31195 0
M  V30 1827 C 165.055 -4.35471 0.963366 0
M  V30 1828 C 165.756 -5.01094 2.95431 0
M  V30 1829 N 164.732 -4.95751 2.23006 0
M  V30 1830 H 168.534 -2.46524 1.6001 0
M  V30 1831 H 166.048 -1.30481 0.966869 0
M  V30 1832 H 168.045 -4.16491 -0.184555 0
M  V30 1833 H 166.705 -3.15138 -0.78217 0
M  V30 1834 H 167.716 -4.42678 2.68806 0
M  V30 1835 H 164.393 -4.17328 0.119878 0
M  V30 1836 H 165.783 -5.4263 3.96236 0
M  V30 1837 N 168.503 -0.877838 -1.30888 0
M  V30 1838 C 169.451 -0.328662 -2.30266 0
M  V30 1839 C 170.445 0.560496 -1.59859 0
M  V30 1840 O 171.651 0.445722 -1.74394 0
M  V30 1841 H 168.026 -0.0876142 -0.746879 0
M  V30 1842 H 169.997 -1.18061 -2.74051 0
M  V30 1843 C 168.746 0.448071 -3.44801 0
M  V30 1844 H 168.069 -0.226859 -3.99156 0
M  V30 1845 H 169.509 0.797541 -4.16432 0
M  V30 1846 C 167.968 1.64239 -2.94155 0
M  V30 1847 O 168.498 2.74175 -2.93583 0
M  V30 1848 N 166.704 1.47716 -2.50256 0
M  V30 1849 H 166.251 0.582821 -2.5092 0
M  V30 1850 H 166.209 2.27765 -2.16727 0
M  V30 1851 N 169.982 1.44106 -0.638065 0
M  V30 1852 C 171.398 1.56672 -0.304286 0
M  V30 1853 C 171.598 1.6244 1.19228 0
M  V30 1854 O 170.654 1.57121 1.9766 0
M  V30 1855 C 171.967 2.83503 -1.00231 0
M  V30 1856 C 173.515 2.97226 -0.981116 0
M  V30 1857 C 173.99 4.26868 -1.65974 0
M  V30 1858 N 175.481 4.33698 -1.62666 0
M  V30 1859 C 176.216 5.32745 -2.12063 0
M  V30 1860 N 175.712 6.38157 -2.6968 0
M  V30 1861 N 177.505 5.24299 -2.02651 0
M  V30 1862 H 169.656 1.38605 -1.60942 0
M  V30 1863 H 171.919 0.664661 -0.675965 0
M  V30 1864 H 171.625 2.85251 -2.0573 0
M  V30 1865 H 171.499 3.73251 -0.54439 0
M  V30 1866 H 173.886 2.95027 0.0654188 0
M  V30 1867 H 173.967 2.08808 -1.47759 0
M  V30 1868 H 173.611 4.29826 -2.70576 0
M  V30 1869 H 173.541 5.14156 -1.13804 0
M  V30 1870 H 176.032 3.58138 -1.20606 0
M  V30 1871 H 176.345 7.10029 -3.05087 0
M  V30 1872 H 174.69 6.38823 -2.73734 0
M  V30 1873 H 177.881 4.4086 -1.57353 0
M  V30 1874 H 178.054 6.01334 -2.41457 0
M  V30 1875 N 171.46 0.379036 1.52974 0
M  V30 1876 C 172.423 -0.448865 2.24762 0
M  V30 1877 C 173.423 -0.998689 1.26027 0
M  V30 1878 O 174.613 -0.882313 1.50203 0
M  V30 1879 C 171.745 -1.62872 2.99476 0
M  V30 1880 H 172.938 0.179491 2.99362 0
M  V30 1881 H 170.491 0.13096 1.5575 0
M  V30 1882 H 171.226 -2.29479 2.29151 0
M  V30 1883 H 171.011 -1.24128 3.71934 0
M  V30 1884 H 172.501 -2.2151 3.5401 0
M  V30 1885 N 172.938 -1.57226 0.108567 0
M  V30 1886 C 173.885 -2.14756 -0.845481 0
M  V30 1887 C 174.855 -1.06971 -1.27068 0
M  V30 1888 O 176.04 -1.34827 -1.35005 0
M  V30 1889 C 173.18 -2.74298 -2.09415 0
M  V30 1890 C 172.293 -3.96358 -1.71826 0
M  V30 1891 C 171.428 -4.44021 -2.9158 0
M  V30 1892 C 170.467 -5.58637 -2.50181 0
M  V30 1893 N 169.604 -6.01091 -3.62814 0
M  V30 1894 H 174.444 -2.95961 -0.348035 0
M  V30 1895 H 171.981 -1.46226 -0.160106 0
M  V30 1896 H 173.939 -3.06945 -2.82561 0
M  V30 1897 H 172.569 -1.95801 -2.56636 0
M  V30 1898 H 171.621 -3.69939 -0.885947 0
M  V30 1899 H 172.933 -4.79504 -1.37394 0
M  V30 1900 H 172.087 -4.78522 -3.72963 0
M  V30 1901 H 170.826 -3.59803 -3.29231 0
M  V30 1902 H 169.831 -5.23751 -1.67228 0
M  V30 1903 H 171.056 -6.44613 -2.13659 0
M  V30 1904 H 169.002 -5.19817 -4.00158 0
M  V30 1905 H 168.919 -6.79066 -3.32273 0
M  V30 1906 H 170.187 -6.40227 -4.44668 0
M  V30 1907 N 174.416 0.165178 -1.56732 0
M  V30 1908 C 175.664 0.879068 -1.8198 0
M  V30 1909 C 175.985 1.82514 -0.686561 0
M  V30 1910 O 175.255 1.93694 0.293146 0
M  V30 1911 H 173.835 0.327608 -0.671329 0
M  V30 1912 H 176.497 0.163526 -1.94213 0
M  V30 1913 H 175.593 1.45228 -2.76252 0
M  V30 1914 N 175.894 1.51508 0.433938 0
M  V30 1915 C 176.844 1.69451 1.52546 0
M  V30 1916 C 177.828 0.548474 1.51263 0
M  V30 1917 O 179.02 0.804529 1.57659 0
M  V30 1918 C 176.149 1.82604 2.90707 0
M  V30 1919 C 175.235 3.03002 2.96733 0
M  V30 1920 N 175.626 4.26121 2.72496 0
M  V30 1921 C 173.924 3.02327 3.27894 0
M  V30 1922 C 174.625 5.07407 2.84452 0
M  V30 1923 N 173.601 4.42126 3.16269 0
M  V30 1924 H 177.403 2.62305 1.32564 0
M  V30 1925 H 174.917 1.49202 0.641297 0
M  V30 1926 H 176.914 1.93569 3.69238 0
M  V30 1927 H 175.574 0.909339 3.11707 0
M  V30 1928 H 176.585 4.55009 2.4736 0
M  V30 1929 H 173.262 2.20301 3.54646 0
M  V30 1930 H 174.652 6.15422 2.69639 0
M  V30 1931 N 177.372 -0.689602 1.41712 0
M  V30 1932 C 178.322 -1.79571 1.40493 0
M  V30 1933 C 179.306 -1.58473 0.278409 0
M  V30 1934 O 180.498 -1.69204 0.519532 0
M  V30 1935 C 177.627 -3.17923 1.29536 0
M  V30 1936 C 176.713 -3.44695 2.47075 0
M  V30 1937 N 177.104 -3.42132 3.72531 0
M  V30 1938 C 175.402 -3.75269 2.41017 0
M  V30 1939 C 176.103 -3.67976 4.50521 0
M  V30 1940 N 175.079 -3.88014 3.80718 0
M  V30 1941 H 178.881 -1.75961 2.35404 0
M  V30 1942 H 176.395 -0.889839 1.35851 0
M  V30 1943 H 178.392 -3.97167 1.26745 0
M  V30 1944 H 177.052 -3.22741 0.356153 0
M  V30 1945 H 178.063 -3.22375 4.05333 0
M  V30 1946 H 174.74 -3.87421 1.55599 0
M  V30 1947 H 176.13 -3.7208 5.59469 0
M  V30 1948 N 178.85 -1.27639 -0.924453 0
M  V30 1949 C 180.127 -1.04887 -1.651 0
M  V30 1950 C 180.507 0.415327 -2.06974 0
M  V30 1951 O 179.855 1.39923 -1.80648 0
M  V30 1952 C 180.065 -2.01348 -2.85061 0
M  V30 1953 C 181.413 -2.30899 -3.56329 0
M  V30 1954 O 182.437 -1.99348 -2.95193 0
M  V30 1955 O 181.296 -2.84699 -4.66485 0
M  V30 1956 H 178.39 -0.400083 -0.723784 0
M  V30 1957 H 180.936 -1.38916 -0.974703 0
M  V30 1958 H 179.708 -3.0008 -2.51133 0
M  V30 1959 H 179.331 -1.679 -3.6041 0
M  V30 1960 N 180.328 1.1314 -1.09713 0
M  V30 1961 C 181.576 1.84119 -0.833338 0
M  V30 1962 C 181.897 1.84097 0.642904 0
M  V30 1963 O 181.167 1.29881 1.46655 0
M  V30 1964 H 179.747 0.681766 -0.305293 0
M  V30 1965 H 182.409 1.37038 -1.38588 0
M  V30 1966 H 181.505 2.88543 -1.18951 0
M  V30 1967 N 181.806 0.884767 1.30421 0
M  V30 1968 C 182.769 0.356277 2.26414 0
M  V30 1969 C 183.769 -0.501124 1.52792 0
M  V30 1970 O 184.959 -0.30831 1.7145 0
M  V30 1971 C 182.091 -0.492316 3.37326 0
M  V30 1972 H 183.284 1.20389 2.74675 0
M  V30 1973 H 180.837 0.661607 1.41607 0
M  V30 1974 H 181.572 -1.36052 2.94381 0
M  V30 1975 H 181.357 0.121832 3.91911 0
M  V30 1976 H 182.847 -0.853871 4.08777 0
M  V30 1977 N 183.284 -1.43765 0.645699 0
M  V30 1978 C 184.247 -2.29163 -0.0409488 0
M  V30 1979 C 185.247 -1.41813 -0.757996 0
M  V30 1980 O 186.437 -1.63527 -0.600382 0
M  V30 1981 C 183.569 -3.23716 -1.06869 0
M  V30 1982 H 184.762 -2.91366 0.710345 0
M  V30 1983 H 182.315 -1.5092 0.406547 0
M  V30 1984 H 183.05 -2.66393 -1.84947 0
M  V30 1985 H 182.835 -3.88105 -0.558277 0
M  V30 1986 H 184.325 -3.87831 -1.54845 0
M  V30 1987 N 184.763 -0.387143 -1.52771 0
M  V30 1988 C 185.726 0.436939 -2.24997 0
M  V30 1989 C 186.726 0.991991 -1.26555 0
M  V30 1990 O 187.916 0.874335 -1.50669 0
M  V30 1991 C 185.048 1.61281 -3.00335 0
M  V30 1992 H 186.241 -0.195365 -2.99263 0
M  V30 1993 H 183.794 -0.139218 -1.55679 0
M  V30 1994 H 184.529 2.2826 -2.30364 0
M  V30 1995 H 184.314 1.22154 -3.72587 0
M  V30 1996 H 185.804 2.19629 -3.5518 0
M  V30 1997 N 186.241 1.57166 -0.116904 0
M  V30 1998 C 187.171 2.18222 0.830759 0
M  V30 1999 C 188.152 1.12167 1.27877 0
M  V30 2000 O 189.337 1.40394 1.34176 0
M  V30 2001 C 186.467 2.77996 2.08172 0
M  V30 2002 C 185.421 3.89614 1.77157 0
M  V30 2003 C 184.747 4.36187 3.09265 0
M  V30 2004 C 186.047 5.1181 1.04151 0
M  V30 2005 H 187.741 2.97664 0.321992 0
M  V30 2006 H 185.287 1.4318 0.153434 0
M  V30 2007 H 187.24 3.19366 2.74924 0
M  V30 2008 H 185.964 1.9584 2.6137 0
M  V30 2009 H 184.623 3.48816 1.12796 0
M  V30 2010 H 184.271 3.50893 3.60393 0
M  V30 2011 H 183.971 5.11455 2.89288 0
M  V30 2012 H 185.495 4.80207 3.77139 0
M  V30 2013 H 186.909 5.50214 1.61052 0
M  V30 2014 H 185.306 5.92648 0.942762 0
M  V30 2015 H 186.376 4.84892 0.0279022 0
M  V30 2016 N 187.719 -0.156864 1.56817 0
M  V30 2017 C 188.967 -0.869404 1.82444 0
M  V30 2018 C 189.288 -1.82147 0.69623 0
M  V30 2019 O 188.558 -1.93847 -0.28287 0
M  V30 2020 H 187.138 -0.324043 0.673056 0
M  V30 2021 H 189.8 -0.153224 1.94297 0
M  V30 2022 H 188.896 -1.43761 2.77019 0
M  V30 2023 N 189.197 -1.51736 -0.425897 0
M  V30 2024 C 190.16 -1.73271 -1.50032 0
M  V30 2025 C 191.16 -0.602639 -1.4908 0
M  V30 2026 O 192.35 -0.87033 -1.509 0
M  V30 2027 C 189.482 -1.79969 -2.89523 0
M  V30 2028 H 190.675 -2.69172 -1.32237 0
M  V30 2029 H 188.228 -1.41899 -0.65532 0
M  V30 2030 H 188.963 -0.859241 -3.1271 0
M  V30 2031 H 188.748 -2.62109 -2.91619 0
M  V30 2032 H 190.238 -1.9843 -3.67444 0
M  V30 2033 N 190.675 0.682077 -1.42076 0
M  V30 2034 C 191.923 1.4393 -1.41876 0
M  V30 2035 C 192.244 1.94971 -0.0335599 0
M  V30 2036 O 191.514 1.72591 0.926773 0
M  V30 2037 H 190.094 0.534085 -0.522267 0
M  V30 2038 H 192.756 0.806427 -1.77434 0
M  V30 2039 H 191.852 2.29588 -2.11414 0
M  V30 2040 N 192.153 1.28127 0.917671 0
M  V30 2041 C 193.401 1.14825 1.66312 0
M  V30 2042 C 193.722 -0.304379 1.9261 0
M  V30 2043 O 192.992 -1.21149 1.53947 0
M  V30 2044 H 191.572 0.421953 0.616413 0
M  V30 2045 H 194.234 1.608 1.10134 0
M  V30 2046 H 193.33 1.68489 2.62712 0
M  V30 2047 N 193.631 -1.12557 1.10312 0
M  V30 2048 C 194.879 -1.83675 0.843091 0
M  V30 2049 C 195.2 -1.84435 -0.633131 0
M  V30 2050 O 194.47 -1.30657 -1.45964 0
M  V30 2051 H 193.05 -0.680138 0.308904 0
M  V30 2052 H 195.712 -1.36301 1.39313 0
M  V30 2053 H 194.808 -2.87908 1.2048 0
M  V30 2054 N 195.109 -0.891671 -1.2995 0
M  V30 2055 C 196.357 -0.512486 -1.95494 0
M  V30 2056 C 196.678 0.942776 -1.70695 0
M  V30 2057 O 195.948 1.66374 -1.03424 0
M  V30 2058 H 194.528 -0.186533 -0.723336 0
M  V30 2059 H 197.19 -1.13621 -1.58355 0
M  V30 2060 H 196.286 -0.688342 -3.04415 0
M  V30 2061 N 196.587 1.43421 -0.653314 0
M  V30 2062 C 197.835 2.01414 -0.166415 0
M  V30 2063 C 198.156 1.51803 1.22397 0
M  V30 2064 O 197.426 0.730693 1.81763 0
M  V30 2065 H 196.006 0.744703 -0.0585319 0
M  V30 2066 H 198.668 1.75629 -0.845003 0
M  V30 2067 H 197.764 3.11734 -0.151111 0
M  V30 2068 N 198.065 0.39524 1.52563 0
M  V30 2069 C 199.29 -0.187456 2.06551 0
M  V30 2070 C 199.715 -1.39249 1.26457 0
M  V30 2071 O 199.073 -1.78947 0.291151 0
M  V30 2072 C 199.121 -0.529985 3.56684 0
M  V30 2073 O 198.225 -1.62307 3.79118 0
M  V30 2074 H 197.566 -0.0202537 0.663691 0
M  V30 2075 H 200.096 0.564426 1.96661 0
M  V30 2076 H 200.106 -0.792598 4.00227 0
M  V30 2077 H 198.781 0.350987 4.14416 0
M  V30 2078 H 197.358 -1.3537 3.47461 0
M  V30 2079 N 199.544 -1.57102 0.125237 0
M  V30 2080 C 200.784 -1.97294 -0.534259 0
M  V30 2081 C 201.148 -1.0074 -1.63449 0
M  V30 2082 O 202.349 -1.29893 -2.35332 0
M  V30 2083 C 200.62 -3.41705 -1.04748 0
M  V30 2084 S 202.179 -4.03913 -1.71463 0
M  V30 2085 H 198.997 -0.689517 -0.173458 0
M  V30 2086 H 201.599 -1.94349 0.211797 0
M  V30 2087 H 200.303 -4.09723 -0.235649 0
M  V30 2088 H 199.834 -3.48315 -1.82867 0
M  V30 2089 H 201.849 -3.95182 -3.00077 0
M  V30 2090 N 201.022 0.148545 -1.56898 0
M  V30 2091 C 202.247 0.880385 -1.87787 0
M  V30 2092 C 202.672 1.74018 -0.714093 0
M  V30 2093 O 202.03 1.78153 0.336343 0
M  V30 2094 C 202.078 1.71422 -3.17249 0
M  V30 2095 O 201.182 2.8183 -3.01074 0
M  V30 2096 H 200.523 0.245301 -0.617028 0
M  V30 2097 H 203.053 0.139826 -2.04122 0
M  V30 2098 H 203.063 2.10954 -3.49231 0
M  V30 2099 H 201.738 1.08284 -4.01556 0
M  V30 2100 H 200.315 2.45715 -2.80497 0
M  V30 2101 N 202.5 1.5196 0.417844 0
M  V30 2102 C 203.748 1.65263 1.16329 0
M  V30 2103 C 204.069 0.380634 1.91249 0
M  V30 2104 O 203.339 -0.604214 1.86349 0
M  V30 2105 H 201.919 0.60912 0.432414 0
M  V30 2106 H 204.581 1.88969 0.477162 0
M  V30 2107 H 203.677 2.4896 1.88217 0
M  V30 2108 N 203.978 -0.674533 1.42435 0
M  V30 2109 C 205.203 -1.46784 1.46524 0
M  V30 2110 C 205.628 -1.87938 0.078066 0
M  V30 2111 O 204.986 -1.56014 -0.92354 0
M  V30 2112 C 205.034 -2.69307 2.39805 0
M  V30 2113 O 204.138 -3.67587 1.86959 0
M  V30 2114 H 203.479 -0.440959 0.496439 0
M  V30 2115 H 206.009 -0.827326 1.87127 0
M  V30 2116 H 206.019 -3.17374 2.56393 0
M  V30 2117 H 204.694 -2.38692 3.40586 0
M  V30 2118 H 203.271 -3.2662 1.79927 0
M  V30 2119 N 205.456 -1.28612 -0.910864 0
M  V30 2120 C 206.681 -1.1891 -1.69927 0
M  V30 2121 C 207.106 0.248372 -1.86453 0
M  V30 2122 O 206.464 1.17961 -1.37676 0
M  V30 2123 C 206.512 -1.89578 -3.06745 0
M  V30 2124 O 205.616 -1.20521 -3.94396 0
M  V30 2125 H 204.957 -0.412632 -0.520222 0
M  V30 2126 H 207.487 -1.69985 -1.1387 0
M  V30 2127 H 207.497 -1.97597 -3.56958 0
M  V30 2128 H 206.172 -2.94136 -2.94035 0
M  V30 2129 H 204.749 -1.20684 -3.52831 0
M  V30 2130 N 206.934 1.1197 -1.10907 0
M  V30 2131 C 208.182 1.83225 -0.852819 0
M  V30 2132 C 208.503 1.84769 0.623341 0
M  V30 2133 O 207.773 1.3143 1.45269 0
M  V30 2134 H 206.353 0.67849 -0.312507 0
M  V30 2135 H 209.015 1.3556 -1.40033 0
M  V30 2136 H 208.111 2.87265 -1.22005 0
M  V30 2137 N 208.412 0.89855 1.29475 0
M  V30 2138 C 209.342 0.39201 2.30186 0
M  V30 2139 C 210.323 -0.532359 1.61555 0
M  V30 2140 O 211.508 -0.443331 1.89072 0
M  V30 2141 C 208.638 -0.382353 3.45189 0
M  V30 2142 C 207.592 0.451483 4.25612 0
M  V30 2143 C 206.918 -0.450307 5.328 0
M  V30 2144 C 208.218 1.70079 4.93832 0
M  V30 2145 H 209.912 1.23362 2.72804 0
M  V30 2146 H 207.458 0.594638 1.31149 0
M  V30 2147 H 209.411 -0.747451 4.14718 0
M  V30 2148 H 208.135 -1.25774 3.01411 0
M  V30 2149 H 206.794 0.798897 3.57789 0
M  V30 2150 H 206.442 -1.32379 4.85268 0
M  V30 2151 H 206.142 0.103902 5.87508 0
M  V30 2152 H 207.666 -0.811623 6.05182 0
M  V30 2153 H 209.08 1.40549 5.55805 0
M  V30 2154 H 207.477 2.19623 5.58467 0
M  V30 2155 H 208.547 2.43744 4.19186 0
M  V30 2156 N 209.89 -1.43072 0.660911 0
M  V30 2157 C 211.138 -2.01323 0.177094 0
M  V30 2158 C 211.459 -1.5245 -1.2159 0
M  V30 2159 O 210.729 -0.740322 -1.81373 0
M  V30 2160 H 209.309 -0.744382 0.0624804 0
M  V30 2161 H 211.971 -1.75179 0.854305 0
M  V30 2162 H 211.067 -3.11649 0.167641 0
M  V30 2163 N 211.368 -0.403325 -1.52352 0
M  V30 2164 C 212.278 0.432009 -2.30588 0
M  V30 2165 C 213.294 1.05884 -1.38075 0
M  V30 2166 O 214.47 1.06161 -1.71148 0
M  V30 2167 C 211.535 1.53669 -3.10784 0
M  V30 2168 C 210.596 0.933525 -4.19027 0
M  V30 2169 C 209.829 1.98557 -4.9539 0
M  V30 2170 O 210.052 3.20283 -4.71991 0
M  V30 2171 O 208.986 1.59504 -5.80381 0
M  V30 2172 H 212.812 -0.205739 -3.03002 0
M  V30 2173 H 210.397 -0.166675 -1.48467 0
M  V30 2174 H 212.279 2.17814 -3.60742 0
M  V30 2175 H 210.954 2.15915 -2.41169 0
M  V30 2176 H 209.861 0.254954 -3.7323 0
M  V30 2177 H 211.194 0.35508 -4.90918 0
M  V30 2178 N 212.846 1.57033 -0.133567 0
M  V30 2179 C 213.809 2.14897 0.796995 0
M  V30 2180 C 214.809 1.0874 1.18458 0
M  V30 2181 O 215.999 1.34446 1.1077 0
M  V30 2182 C 213.131 2.70112 2.07973 0
M  V30 2183 H 214.324 2.98457 0.293873 0
M  V30 2184 H 211.877 1.55871 0.115787 0
M  V30 2185 H 212.612 1.9018 2.62682 0
M  V30 2186 H 212.397 3.47764 1.81115 0
M  V30 2187 H 213.887 3.14738 2.74462 0
M  V30 2188 N 214.325 -0.140222 1.56975 0
M  V30 2189 C 215.573 -0.850005 1.83356 0
M  V30 2190 C 215.894 -1.81399 0.71551 0
M  V30 2191 O 215.164 -1.94136 -0.262294 0
M  V30 2192 H 213.744 -0.316886 0.676456 0
M  V30 2193 H 216.406 -0.132608 1.94448 0
M  V30 2194 H 215.502 -1.40814 2.78528 0
M  V30 2195 N 215.803 -1.52179 -0.40978 0
M  V30 2196 C 216.713 -1.78364 -1.52392 0
M  V30 2197 C 217.729 -0.669183 -1.60617 0
M  V30 2198 O 218.905 -0.954518 -1.77344 0
M  V30 2199 C 215.97 -1.92822 -2.88133 0
M  V30 2200 C 215.031 -3.16725 -2.898 0
M  V30 2201 C 214.264 -3.30483 -4.19067 0
M  V30 2202 O 214.487 -2.49522 -5.12928 0
M  V30 2203 O 213.421 -4.2363 -4.27576 0
M  V30 2204 H 217.247 -2.72931 -1.33201 0
M  V30 2205 H 214.832 -1.37016 -0.59557 0
M  V30 2206 H 216.714 -2.04157 -3.68643 0
M  V30 2207 H 215.389 -1.01444 -3.07393 0
M  V30 2208 H 214.296 -3.10848 -2.08146 0
M  V30 2209 H 215.629 -4.07881 -2.75489 0
M  V30 2210 N 217.281 0.66697 -1.42791 0
M  V30 2211 C 218.558 1.4234 -1.34159 0
M  V30 2212 C 218.938 2.11093 0.0172729 0
M  V30 2213 O 218.286 2.03808 1.03318 0
M  V30 2214 C 218.496 2.41942 -2.51526 0
M  V30 2215 C 219.844 3.06353 -2.93995 0
M  V30 2216 O 220.868 2.52269 -2.51473 0
M  V30 2217 O 219.727 4.04376 -3.67617 0
M  V30 2218 H 216.821 0.635277 -0.529483 0
M  V30 2219 H 219.367 0.695034 -1.54814 0
M  V30 2220 H 218.139 1.89991 -3.42081 0
M  V30 2221 H 217.762 3.22249 -2.32898 0
M  V30 2222 N 218.759 1.29093 0.90403 0
M  V30 2223 C 219.689 1.16401 2.02418 0
M  V30 2224 C 220.67 0.0593085 1.69997 0
M  V30 2225 O 221.855 0.238021 1.92736 0
M  V30 2226 C 218.985 0.835233 3.37107 0
M  V30 2227 C 217.939 1.89578 3.83724 0
M  V30 2228 C 217.265 1.42041 5.15489 0
M  V30 2229 C 218.565 3.30394 4.04521 0
M  V30 2230 H 220.259 2.10109 2.13295 0
M  V30 2231 H 217.805 1.01157 1.02486 0
M  V30 2232 H 219.758 0.733169 4.14973 0
M  V30 2233 H 218.482 -0.137543 3.2631 0
M  V30 2234 H 217.141 1.98715 3.08071 0
M  V30 2235 H 216.789 0.436426 5.01103 0
M  V30 2236 H 216.489 2.12964 5.4765 0
M  V30 2237 H 218.013 1.33176 5.959 0
M  V30 2238 H 219.427 3.24123 4.72882 0
M  V30 2239 H 217.824 3.99237 4.48029 0
M  V30 2240 H 218.894 3.73692 3.09002 0
M  V30 2241 N 220.237 -1.11381 1.11499 0
M  V30 2242 C 221.462 -1.87475 0.887019 0
M  V30 2243 C 221.887 -1.79639 -0.557796 0
M  V30 2244 O 221.245 -1.15924 -1.39396 0
M  V30 2245 C 221.293 -3.34213 1.35403 0
M  V30 2246 O 220.397 -4.0903 0.526146 0
M  V30 2247 H 219.738 -0.582099 0.319463 0
M  V30 2248 H 222.268 -1.40785 1.48461 0
M  V30 2249 H 222.278 -3.8506 1.34881 0
M  V30 2250 H 220.953 -3.39232 2.40612 0
M  V30 2251 H 219.53 -3.68082 0.597522 0
M  V30 2252 N 221.715 -0.905404 -1.28997 0
M  V30 2253 C 222.945 -0.549049 -1.99171 0
M  V30 2254 C 223.353 0.87203 -1.67906 0
M  V30 2255 O 222.696 1.58796 -0.923561 0
M  V30 2256 C 222.758 -0.668306 -3.53234 0
M  V30 2257 C 222.422 -2.0574 -4.08069 0
M  V30 2258 C 223.419 -3.0292 -4.22534 0
M  V30 2259 C 221.104 -2.36833 -4.42962 0
M  V30 2260 C 223.098 -4.29314 -4.71135 0
M  V30 2261 C 220.785 -3.63467 -4.91258 0
M  V30 2262 C 221.783 -4.59522 -5.053 0
M  V30 2263 O 221.471 -5.83907 -5.52546 0
M  V30 2264 H 221.203 -0.208784 -0.64295 0
M  V30 2265 H 223.757 -1.21836 -1.65363 0
M  V30 2266 H 221.987 0.0580547 -3.86656 0
M  V30 2267 H 223.676 -0.320273 -4.04634 0
M  V30 2268 H 224.442 -2.80216 -3.95859 0
M  V30 2269 H 220.321 -1.62824 -4.31288 0
M  V30 2270 H 223.865 -5.04293 -4.8201 0
M  V30 2271 H 219.762 -3.86 -5.17372 0
M  V30 2272 H 220.53 -5.86578 -5.70849 0
M  V30 2273 N 223.193 1.4272 -0.668489 0
M  V30 2274 C 224.441 2.01226 -0.187769 0
M  V30 2275 C 224.762 1.53092 1.2078 0
M  V30 2276 O 224.032 0.74993 1.80977 0
M  V30 2277 H 222.612 0.744041 -0.0664272 0
M  V30 2278 H 225.274 1.74723 -0.863583 0
M  V30 2279 H 224.37 3.11556 -0.184166 0
M  V30 2280 N 224.671 0.411399 1.52136 0
M  V30 2281 C 225.948 -0.222308 1.94333 0
M  V30 2282 C 226.328 -1.6242 1.34844 0
M  V30 2283 O 225.676 -2.22384 0.525145 0
M  V30 2284 C 225.886 -0.226345 3.48265 0
M  V30 2285 C 227.234 -0.444592 4.22266 0
M  V30 2286 O 228.258 -0.305602 3.54887 0
M  V30 2287 O 227.117 -0.718749 5.41753 0
M  V30 2288 H 224.211 -0.143907 0.814383 0
M  V30 2289 H 226.757 0.467506 1.63133 0
M  V30 2290 H 225.529 0.75475 3.83952 0
M  V30 2291 H 225.152 -0.960163 3.85832 0
M  V30 2292 N 226.149 -1.5696 0.141893 0
M  V30 2293 C 227.395 -1.9625 -0.511248 0
M  V30 2294 C 227.728 -1.02654 -1.64851 0
M  V30 2295 O 227.003 -0.0679676 -1.94381 0
M  V30 2296 C 227.286 -3.45285 -1.02227 0
M  V30 2297 C 227.139 -4.49658 0.113138 0
M  V30 2298 C 228.458 -3.96698 -1.90574 0
M  V30 2299 H 225.577 -0.713567 -0.184367 0
M  V30 2300 H 228.219 -1.88698 0.222087 0
M  V30 2301 H 226.369 -3.51852 -1.64719 0
M  V30 2302 H 228.041 -4.55174 0.749302 0
M  V30 2303 H 226.284 -4.26857 0.773026 0
M  V30 2304 H 226.955 -5.51258 -0.286053 0
M  V30 2305 H 229.431 -3.92578 -1.37918 0
M  V30 2306 H 228.307 -5.01453 -2.2324 0
M  V30 2307 H 228.568 -3.3875 -2.84079 0
M  V30 2308 N 227.627 0.131896 -1.57047 0
M  V30 2309 C 229.038 0.690407 -1.73465 0
M  V30 2310 C 229.389 1.8094 -0.758629 0
M  V30 2311 O 228.514 2.16282 0.0713813 0
M  V30 2312 C 229.109 1.25916 -3.14532 0
M  V30 2313 C 227.668 1.76409 -3.32501 0
M  V30 2314 C 226.815 0.658579 -2.69366 0
M  V30 2315 H 229.766 -0.0939144 -1.58422 0
M  V30 2316 H 229.787 2.12892 -3.15369 0
M  V30 2317 H 229.299 0.444515 -3.85546 0
M  V30 2318 H 227.4 2.60391 -2.66509 0
M  V30 2319 H 227.513 1.88241 -4.4057 0
M  V30 2320 H 225.877 1.08899 -2.30246 0
M  V30 2321 H 226.66 -0.14487 -3.42994 0
M  V30 2322 N 229.106 1.52395 0.401703 0
M  V30 2323 C 230.517 1.58899 0.980202 0
M  V30 2324 C 230.868 0.434032 1.91339 0
M  V30 2325 O 229.993 -0.444619 2.11783 0
M  V30 2326 C 230.588 2.87994 1.78451 0
M  V30 2327 C 229.147 2.96953 2.31292 0
M  V30 2328 C 228.294 2.53903 1.11483 0
M  V30 2329 H 231.245 1.57657 0.18168 0
M  V30 2330 H 231.266 2.73765 2.64259 0
M  V30 2331 H 230.778 3.72035 1.10506 0
M  V30 2332 H 228.879 2.17422 3.02586 0
M  V30 2333 H 228.992 4.01344 2.61649 0
M  V30 2334 H 227.356 2.07925 1.47104 0
M  V30 2335 H 228.139 3.40326 0.450928 0
M  V30 2336 N 230.584 -0.659388 1.43143 0
M  V30 2337 C 231.832 -1.41654 1.44147 0
M  V30 2338 C 232.153 -1.94893 0.0645739 0
M  V30 2339 O 231.423 -1.74044 -0.899198 0
M  V30 2340 H 230.003 -0.525708 0.530697 0
M  V30 2341 H 232.665 -0.778097 1.78694 0
M  V30 2342 H 231.761 -2.26195 2.1504 0
M  V30 2343 N 232.062 -1.29571 -0.897171 0
M  V30 2344 C 233.473 -1.15964 -1.46319 0
M  V30 2345 C 233.824 0.244267 -1.94674 0
M  V30 2346 O 232.949 1.13998 -1.83939 0
M  V30 2347 C 233.544 -2.09906 -2.65942 0
M  V30 2348 C 232.103 -2.00314 -3.18671 0
M  V30 2349 C 231.25 -2.00687 -1.91363 0
M  V30 2350 H 234.201 -1.42019 -0.708268 0
M  V30 2351 H 234.222 -1.67276 -3.41759 0
M  V30 2352 H 233.734 -3.12075 -2.30718 0
M  V30 2353 H 231.835 -1.01242 -3.58582 0
M  V30 2354 H 231.948 -2.88102 -3.82798 0
M  V30 2355 H 230.312 -1.45319 -2.09175 0
M  V30 2356 H 231.095 -3.04566 -1.58413 0
M  V30 2357 N 233.54 1.10788 -1.12088 0
M  V30 2358 C 234.503 2.15207 -0.788577 0
M  V30 2359 C 235.503 1.59609 0.195317 0
M  V30 2360 O 236.693 1.74174 -0.0300193 0
M  V30 2361 C 233.825 3.4047 -0.171174 0
M  V30 2362 H 235.018 2.46116 -1.71368 0
M  V30 2363 H 232.571 1.26089 -0.923652 0
M  V30 2364 H 233.306 3.15176 0.763832 0
M  V30 2365 H 233.091 3.82109 -0.879514 0
M  V30 2366 H 234.581 4.17576 0.04496 0
M  V30 2367 N 235.018 0.912232 1.28515 0
M  V30 2368 C 236.265 0.544599 1.95039 0
M  V30 2369 C 236.593 -0.911435 1.71823 0
M  V30 2370 O 235.848 -1.66317 1.03137 0
M  V30 2371 C 236.147 0.798392 3.48368 0
M  V30 2372 C 235.813 2.23374 3.91682 0
M  V30 2373 C 234.475 2.62617 4.03219 0
M  V30 2374 C 236.827 3.16786 4.13879 0
M  V30 2375 C 234.155 3.94429 4.3433 0
M  V30 2376 C 236.507 4.48161 4.46469 0
M  V30 2377 C 235.171 4.8726 4.56217 0
M  V30 2378 H 234.441 0.199283 0.7137 0
M  V30 2379 H 237.088 1.15327 1.52879 0
M  V30 2380 H 235.393 0.106908 3.91654 0
M  V30 2381 H 237.09 0.493141 3.97956 0
M  V30 2382 H 233.68 1.91922 3.83228 0
M  V30 2383 H 237.864 2.87677 4.0442 0
M  V30 2384 H 233.12 4.24426 4.40082 0
M  V30 2385 H 237.294 5.20559 4.62592 0
M  V30 2386 H 234.921 5.89431 4.80078 0
M  V30 2387 N 236.496 -1.42363 0.676048 0
M  V30 2388 C 237.443 -2.308 -0.00150904 0
M  V30 2389 C 238.413 -1.46032 -0.791444 0
M  V30 2390 O 239.598 -1.74861 -0.76344 0
M  V30 2391 C 236.738 -3.31883 -0.945919 0
M  V30 2392 C 235.851 -4.31741 -0.149675 0
M  V30 2393 C 234.986 -5.19898 -1.08995 0
M  V30 2394 C 234.025 -6.11434 -0.285465 0
M  V30 2395 N 233.162 -6.92138 -1.17851 0
M  V30 2396 H 238.002 -2.88187 0.758455 0
M  V30 2397 H 235.539 -1.41952 0.38576 0
M  V30 2398 H 237.497 -3.89019 -1.50731 0
M  V30 2399 H 236.127 -2.76093 -1.6725 0
M  V30 2400 H 235.179 -3.76713 0.528359 0
M  V30 2401 H 236.491 -4.96534 0.474866 0
M  V30 2402 H 235.645 -5.81772 -1.72123 0
M  V30 2403 H 234.384 -4.55284 -1.74837 0
M  V30 2404 H 233.389 -5.48627 0.359018 0
M  V30 2405 H 234.614 -6.78097 0.368883 0
M  V30 2406 H 232.56 -6.30152 -1.82332 0
M  V30 2407 H 232.477 -7.53542 -0.609082 0
M  V30 2408 H 233.745 -7.58499 -1.79722 0
M  V30 2409 N 237.974 -0.419461 -1.51915 0
M  V30 2410 C 238.884 0.407528 -2.31033 0
M  V30 2411 C 239.9 1.04413 -1.3919 0
M  V30 2412 O 241.076 1.0434 -1.72265 0
M  V30 2413 C 238.141 1.50365 -3.12396 0
M  V30 2414 C 237.202 0.889029 -4.19994 0
M  V30 2415 C 236.435 1.93291 -4.97468 0
M  V30 2416 O 236.658 3.15259 -4.75361 0
M  V30 2417 O 235.592 1.53339 -5.8204 0
M  V30 2418 H 239.418 -0.237865 -3.02767 0
M  V30 2419 H 237.003 -0.182413 -1.48282 0
M  V30 2420 H 238.885 2.13975 -3.63032 0
M  V30 2421 H 237.56 2.13345 -2.43445 0
M  V30 2422 H 236.467 0.215353 -3.7348 0
M  V30 2423 H 237.8 0.302991 -4.91267 0
M  V30 2424 N 239.452 1.56882 -0.150215 0
M  V30 2425 C 240.698 1.96518 0.500834 0
M  V30 2426 C 241.031 1.03527 1.64304 0
M  V30 2427 O 240.306 0.0782751 1.94342 0
M  V30 2428 C 240.589 3.45822 1.00395 0
M  V30 2429 C 240.442 4.49591 -0.136983 0
M  V30 2430 C 241.761 3.97704 1.88467 0
M  V30 2431 H 238.88 0.714535 0.18058 0
M  V30 2432 H 241.522 1.88577 -0.232091 0
M  V30 2433 H 239.672 3.5272 1.62851 0
M  V30 2434 H 241.344 4.5477 -0.77343 0
M  V30 2435 H 239.587 4.26441 -0.795652 0
M  V30 2436 H 240.258 5.51402 0.256815 0
M  V30 2437 H 242.734 3.93304 1.35834 0
M  V30 2438 H 241.61 5.0263 2.20578 0
M  V30 2439 H 241.871 3.40252 2.82279 0
M  V30 2440 N 240.93 -0.123565 1.57115 0
M  V30 2441 C 242.176 -0.828428 1.85765 0
M  V30 2442 C 242.531 -1.77709 0.737371 0
M  V30 2443 O 241.824 -1.89787 -0.262978 0
M  V30 2444 C 242.018 -1.62016 3.18568 0
M  V30 2445 C 241.847 -0.749663 4.43407 0
M  V30 2446 C 240.617 -0.406251 5.03664 0
M  V30 2447 C 242.815 -0.0693505 5.14253 0
M  V30 2448 N 240.797 0.475389 6.12057 0
M  V30 2449 C 242.168 0.671474 6.16353 0
M  V30 2450 C 244.223 0.00754393 4.97899 0
M  V30 2451 C 242.926 1.48197 7.03868 0
M  V30 2452 C 244.952 0.804845 5.85898 0
M  V30 2453 C 244.314 1.53388 6.87497 0
M  V30 2454 H 240.413 -0.280219 0.73007 0
M  V30 2455 H 242.997 -0.0924183 1.94481 0
M  V30 2456 H 241.168 -2.32724 3.10957 0
M  V30 2457 H 242.9 -2.27 3.35042 0
M  V30 2458 H 239.655 -0.747446 4.67665 0
M  V30 2459 H 240.079 0.907924 6.70884 0
M  V30 2460 H 244.721 -0.541741 4.19315 0
M  V30 2461 H 242.439 2.04242 7.81864 0
M  V30 2462 H 246.025 0.866642 5.75309 0
M  V30 2463 H 244.905 2.1409 7.5441 0
M  V30 2464 N 242.408 -1.52605 -0.393616 0
M  V30 2465 C 243.34 -1.73303 -1.49995 0
M  V30 2466 C 244.353 -0.613473 -1.50799 0
M  V30 2467 O 245.542 -0.889049 -1.54784 0
M  V30 2468 C 242.642 -1.77245 -2.88855 0
M  V30 2469 C 241.815 -3.06483 -3.12069 0
M  V30 2470 C 240.874 -3.02033 -4.30886 0
M  V30 2471 O 239.9 -3.75907 -4.27414 0
M  V30 2472 N 241.102 -2.20897 -5.36828 0
M  V30 2473 H 243.867 -2.68756 -1.32629 0
M  V30 2474 H 241.428 -1.51036 -0.583083 0
M  V30 2475 H 243.42 -1.7178 -3.66434 0
M  V30 2476 H 241.99 -0.891993 -2.99603 0
M  V30 2477 H 241.21 -3.25474 -2.22396 0
M  V30 2478 H 242.498 -3.91947 -3.2443 0
M  V30 2479 H 241.896 -1.60336 -5.42502 0
M  V30 2480 H 240.453 -2.21275 -6.13091 0
M  V30 2481 N 243.887 0.651787 -1.4349 0
M  V30 2482 C 245.133 1.41376 -1.45398 0
M  V30 2483 C 245.466 1.94041 -0.0784823 0
M  V30 2484 O 244.741 1.72379 0.900878 0
M  V30 2485 C 245.024 2.59414 -2.49752 0
M  V30 2486 C 244.877 2.12232 -3.96582 0
M  V30 2487 C 246.196 3.61626 -2.50827 0
M  V30 2488 H 243.315 0.512719 -0.529422 0
M  V30 2489 H 245.957 0.738796 -1.75048 0
M  V30 2490 H 244.107 3.16997 -2.246 0
M  V30 2491 H 245.779 1.59639 -4.32797 0
M  V30 2492 H 244.022 1.43592 -4.09346 0
M  V30 2493 H 244.693 2.9712 -4.65214 0
M  V30 2494 H 247.169 3.13805 -2.7325 0
M  V30 2495 H 246.045 4.41766 -3.25783 0
M  V30 2496 H 246.306 4.14314 -1.5426 0
M  V30 2497 N 245.365 1.30045 0.890287 0
M  V30 2498 C 246.614 1.17929 1.63633 0
M  V30 2499 C 246.927 -0.266204 1.9378 0
M  V30 2500 O 248.133 -0.508804 2.6669 0
M  V30 2501 C 246.589 2.06317 2.94892 0
M  V30 2502 C 246.197 3.55745 2.72305 0
M  V30 2503 C 247.941 2.0295 3.72843 0
M  V30 2504 C 245.848 4.36205 3.99348 0
M  V30 2505 H 244.778 0.437782 0.613892 0
M  V30 2506 H 247.429 1.54754 0.986075 0
M  V30 2507 H 245.811 1.6237 3.61182 0
M  V30 2508 H 246.985 4.07805 2.1455 0
M  V30 2509 H 245.3 3.6088 2.07737 0
M  V30 2510 H 247.897 2.60319 4.67053 0
M  V30 2511 H 248.24 1.0117 4.0382 0
M  V30 2512 H 248.773 2.4499 3.13408 0
M  V30 2513 H 245.512 5.38659 3.73533 0
M  V30 2514 H 245.032 3.8891 4.56628 0
M  V30 2515 H 246.711 4.47362 4.67415 0
M  V30 2516 N 246.843 -1.10192 1.12674 0
M  V30 2517 C 247.773 -2.18652 0.819362 0
M  V30 2518 C 248.754 -1.68698 -0.217915 0
M  V30 2519 O 249.939 -1.94041 -0.0785581 0
M  V30 2520 C 247.069 -3.46202 0.27594 0
M  V30 2521 C 246.023 -4.09444 1.24656 0
M  V30 2522 C 245.349 -5.31725 0.563258 0
M  V30 2523 C 246.649 -4.52863 2.60217 0
M  V30 2524 H 248.343 -2.44622 1.72628 0
M  V30 2525 H 245.889 -1.17571 0.831451 0
M  V30 2526 H 247.842 -4.21372 0.0486149 0
M  V30 2527 H 246.566 -3.1973 -0.666331 0
M  V30 2528 H 245.225 -3.36284 1.45974 0
M  V30 2529 H 244.873 -5.0153 -0.384235 0
M  V30 2530 H 244.573 -5.74991 1.21075 0
M  V30 2531 H 246.097 -6.09624 0.34503 0
M  V30 2532 H 247.511 -5.19294 2.42913 0
M  V30 2533 H 245.908 -5.06986 3.21068 0
M  V30 2534 H 246.978 -3.65656 3.18471 0
M  V30 2535 N 248.321 -0.919034 -1.28029 0
M  V30 2536 C 249.268 -0.410005 -2.27129 0
M  V30 2537 C 250.238 0.518405 -1.57803 0
M  V30 2538 O 251.423 0.439451 -1.8567 0
M  V30 2539 C 248.563 0.339054 -3.4343 0
M  V30 2540 C 247.676 -0.622468 -4.27492 0
M  V30 2541 C 246.811 0.145567 -5.31001 0
M  V30 2542 C 245.85 -0.809226 -6.06727 0
M  V30 2543 N 244.987 -0.0743728 -7.02061 0
M  V30 2544 H 249.827 -1.26011 -2.70047 0
M  V30 2545 H 247.364 -0.632663 -1.328 0
M  V30 2546 H 249.322 0.789586 -4.0966 0
M  V30 2547 H 247.952 1.15346 -3.01488 0
M  V30 2548 H 247.004 -1.19153 -3.61257 0
M  V30 2549 H 248.316 -1.35252 -4.80113 0
M  V30 2550 H 247.47 0.656417 -6.03139 0
M  V30 2551 H 246.209 0.908643 -4.79161 0
M  V30 2552 H 245.214 -1.3314 -5.33436 0
M  V30 2553 H 246.439 -1.57194 -6.60656 0
M  V30 2554 H 244.385 0.670616 -6.52563 0
M  V30 2555 H 244.302 -0.744157 -7.52329 0
M  V30 2556 H 245.57 0.416109 -7.78389 0
M  V30 2557 N 249.799 1.42003 -0.683588 0
M  V30 2558 C 251.21 1.84501 -0.285736 0
M  V30 2559 C 251.561 1.57213 1.17382 0
M  V30 2560 O 250.686 1.03642 1.89966 0
M  V30 2561 C 251.281 3.34912 -0.511821 0
M  V30 2562 C 249.84 3.76025 -0.168005 0
M  V30 2563 C 248.987 2.6551 -0.799983 0
M  V30 2564 H 251.938 1.31724 -0.885119 0
M  V30 2565 H 251.959 3.79784 0.233292 0
M  V30 2566 H 251.471 3.54741 -1.57418 0
M  V30 2567 H 249.572 3.61801 0.890567 0
M  V30 2568 H 249.685 4.75141 -0.614661 0
M  V30 2569 H 248.049 2.53654 -0.230568 0
M  V30 2570 H 248.832 2.8816 -1.86597 0
M  V30 2571 N 251.277 0.427512 1.51691 0
M  V30 2572 C 252.224 -0.388867 2.275 0
M  V30 2573 C 253.194 -1.02532 1.30677 0
M  V30 2574 O 254.379 -1.0461 1.59566 0
M  V30 2575 C 251.519 -1.48954 3.11298 0
M  V30 2576 C 250.632 -0.872194 4.23104 0
M  V30 2577 C 249.767 -1.94709 4.94228 0
M  V30 2578 C 248.806 -1.30766 5.97969 0
M  V30 2579 N 247.943 -2.32349 6.62539 0
M  V30 2580 H 252.783 0.263997 2.96828 0
M  V30 2581 H 250.32 0.142033 1.46413 0
M  V30 2582 H 252.278 -2.13887 3.58201 0
M  V30 2583 H 250.908 -2.11217 2.44105 0
M  V30 2584 H 249.96 -0.111419 3.80237 0
M  V30 2585 H 251.272 -0.365264 4.97461 0
M  V30 2586 H 250.426 -2.67327 5.44629 0
M  V30 2587 H 249.165 -2.48773 4.1948 0
M  V30 2588 H 248.17 -0.566902 5.4687 0
M  V30 2589 H 249.395 -0.774483 6.74669 0
M  V30 2590 H 247.341 -2.85511 5.90609 0
M  V30 2591 H 247.258 -1.8652 7.3263 0
M  V30 2592 H 248.526 -3.04481 7.17574 0
M  V30 2593 N 252.755 -1.56801 0.158532 0
M  V30 2594 C 254.003 -1.96102 -0.488712 0
M  V30 2595 C 254.324 -1.04498 -1.64636 0
M  V30 2596 O 253.594 -0.108783 -1.95598 0
M  V30 2597 H 252.174 -0.724102 -0.183535 0
M  V30 2598 H 254.836 -1.93457 0.236728 0
M  V30 2599 H 253.932 -3.00097 -0.857219 0
M  V30 2600 N 254.233 0.115231 -1.57178 0
M  V30 2601 C 255.163 1.1423 -2.03651 0
M  V30 2602 C 256.144 1.42967 -0.921655 0
M  V30 2603 O 257.329 1.53343 -1.19162 0
M  V30 2604 C 254.459 2.4675 -2.44401 0
M  V30 2605 C 253.413 2.32467 -3.59365 0
M  V30 2606 C 252.739 3.69984 -3.86026 0
M  V30 2607 C 254.039 1.78203 -4.90959 0
M  V30 2608 H 255.733 0.755749 -2.89705 0
M  V30 2609 H 253.279 0.362093 -1.39373 0
M  V30 2610 H 255.232 3.18854 -2.75517 0
M  V30 2611 H 253.956 2.87302 -1.55322 0
M  V30 2612 H 252.615 1.62811 -3.28463 0
M  V30 2613 H 252.263 4.08028 -2.94147 0
M  V30 2614 H 251.963 3.61279 -4.63412 0
M  V30 2615 H 253.487 4.43587 -4.19599 0
M  V30 2616 H 254.901 2.40128 -5.20587 0
M  V30 2617 H 253.298 1.8031 -5.72371 0
M  V30 2618 H 254.368 0.739876 -4.79222 0
M  V30 2619 N 255.711 1.52812 0.385517 0
M  V30 2620 C 256.959 1.67694 1.12797 0
M  V30 2621 C 257.28 0.421115 1.90399 0
M  V30 2622 O 256.55 -0.564551 1.87589 0
M  V30 2623 H 255.13 0.618155 0.419396 0
M  V30 2624 H 257.792 1.89938 0.436972 0
M  V30 2625 H 256.888 2.52896 1.82894 0
M  V30 2626 N 257.189 -0.644168 1.43834 0
M  V30 2627 C 258.121 -1.76955 1.45669 0
M  V30 2628 C 259.134 -1.58956 0.351666 0
M  V30 2629 O 260.323 -1.6751 0.616644 0
M  V30 2630 C 257.423 -3.14507 1.26248 0
M  V30 2631 C 256.596 -3.59083 2.49757 0
M  V30 2632 C 255.655 -4.75467 2.25427 0
M  V30 2633 O 254.681 -4.84444 2.98836 0
M  V30 2634 N 255.883 -5.66289 1.27661 0
M  V30 2635 H 258.648 -1.75856 2.42682 0
M  V30 2636 H 256.209 -0.828312 1.39106 0
M  V30 2637 H 258.201 -3.90067 1.0784 0
M  V30 2638 H 256.771 -3.10325 0.376478 0
M  V30 2639 H 255.991 -2.7387 2.8353 0
M  V30 2640 H 257.279 -3.85613 3.31934 0
M  V30 2641 H 256.677 -5.61718 0.670064 0
M  V30 2642 H 255.234 -6.41533 1.15234 0
M  V30 2643 N 258.668 -1.30515 -0.883378 0
M  V30 2644 C 259.896 -1.22359 -1.66841 0
M  V30 2645 C 260.311 0.213296 -1.87591 0
M  V30 2646 O 259.668 1.14075 -1.42454 0
M  V30 2647 C 259.719 -1.95011 -3.04389 0
M  V30 2648 O 259.44 -3.3309 -2.84575 0
M  V30 2649 C 260.941 -1.93532 -3.98824 0
M  V30 2650 H 258.161 -0.423371 -0.520575 0
M  V30 2651 H 260.705 -1.72167 -1.10357 0
M  V30 2652 H 258.86 -1.48997 -3.57601 0
M  V30 2653 H 259.274 -3.69907 -3.71846 0
M  V30 2654 H 260.748 -2.48902 -4.92699 0
M  V30 2655 H 261.225 -0.914627 -4.29571 0
M  V30 2656 H 261.831 -2.39364 -3.51547 0
M  V30 2657 N 260.146 1.09593 -1.13257 0
M  V30 2658 C 261.093 2.1618 -0.808381 0
M  V30 2659 C 262.063 1.64517 0.228754 0
M  V30 2660 O 263.248 1.9053 0.101381 0
M  V30 2661 C 260.388 3.43973 -0.278675 0
M  V30 2662 C 259.501 4.09545 -1.37466 0
M  V30 2663 C 258.636 5.25088 -0.803479 0
M  V30 2664 C 257.675 5.82579 -1.87799 0
M  V30 2665 N 256.812 6.89486 -1.32488 0
M  V30 2666 H 261.652 2.43254 -1.72138 0
M  V30 2667 H 259.189 1.19392 -0.859294 0
M  V30 2668 H 261.147 4.17174 0.0465583 0
M  V30 2669 H 259.777 3.17223 0.597459 0
M  V30 2670 H 258.829 3.34226 -1.81652 0
M  V30 2671 H 260.141 4.48307 -2.18684 0
M  V30 2672 H 259.295 6.05178 -0.429427 0
M  V30 2673 H 258.034 4.87684 0.0397956 0
M  V30 2674 H 257.039 5.01152 -2.26113 0
M  V30 2675 H 258.264 6.22045 -2.72463 0
M  V30 2676 H 256.21 6.54064 -0.503575 0
M  V30 2677 H 256.127 7.27007 -2.07355 0
M  V30 2678 H 257.395 7.73336 -0.978336 0
M  V30 2679 N 261.624 0.925811 1.2754 0
M  V30 2680 C 262.572 0.413897 2.28888 0
M  V30 2681 C 263.566 -0.500779 1.61829 0
M  V30 2682 O 264.772 -0.38069 1.75928 0
M  V30 2683 H 261.147 0.115274 0.743112 0
M  V30 2684 H 263.118 1.28151 2.69481 0
M  V30 2685 C 261.867 -0.319792 3.46226 0
M  V30 2686 H 261.19 0.374846 3.98039 0
M  V30 2687 H 262.63 -0.642435 4.19105 0
M  V30 2688 C 261.089 -1.53209 3.00048 0
M  V30 2689 O 261.619 -2.6309 3.03557 0
M  V30 2690 N 259.825 -1.38326 2.55566 0
M  V30 2691 H 259.372 -0.489292 2.5291 0
M  V30 2692 H 259.33 -2.19564 2.25031 0
M  V30 2693 N 263.102 -1.41638 0.69111 0
M  V30 2694 C 264.032 -2.3347 0.037248 0
M  V30 2695 C 265.013 -1.51575 -0.771947 0
M  V30 2696 O 266.198 -1.80126 -0.72582 0
M  V30 2697 C 263.328 -3.35354 -0.903064 0
M  V30 2698 C 262.282 -4.27526 -0.201288 0
M  V30 2699 C 261.608 -5.19747 -1.25565 0
M  V30 2700 C 262.908 -5.13959 0.929689 0
M  V30 2701 H 264.602 -2.88397 0.804227 0
M  V30 2702 H 262.148 -1.38669 0.388189 0
M  V30 2703 H 264.101 -3.98519 -1.36969 0
M  V30 2704 H 262.825 -2.78767 -1.70166 0
M  V30 2705 H 261.484 -3.65779 0.245265 0
M  V30 2706 H 261.132 -4.59479 -2.04666 0
M  V30 2707 H 260.832 -5.8225 -0.791128 0
M  V30 2708 H 262.356 -5.85789 -1.72288 0
M  V30 2709 H 263.77 -5.70718 0.543546 0
M  V30 2710 H 262.167 -5.85379 1.32103 0
M  V30 2711 H 263.237 -4.51389 1.77133 0
M  V30 2712 N 264.58 -0.43555 -1.51462 0
M  V30 2713 C 265.829 0.133007 -2.01261 0
M  V30 2714 C 266.142 1.43942 -1.32439 0
M  V30 2715 O 267.348 2.09081 -1.73198 0
M  V30 2716 C 265.804 0.287581 -3.58749 0
M  V30 2717 C 265.412 -1.00829 -4.36506 0
M  V30 2718 C 267.156 0.810004 -4.167 0
M  V30 2719 C 265.063 -0.819454 -5.85695 0
M  V30 2720 H 263.993 0.0534822 -0.752101 0
M  V30 2721 H 266.644 -0.565038 -1.74584 0
M  V30 2722 H 265.026 1.04859 -3.81865 0
M  V30 2723 H 266.2 -1.77749 -4.25138 0
M  V30 2724 H 264.515 -1.45911 -3.89999 0
M  V30 2725 H 267.112 0.967743 -5.2587 0
M  V30 2726 H 267.455 1.79196 -3.75758 0
M  V30 2727 H 267.988 0.107357 -3.97655 0
M  V30 2728 H 264.727 -1.77374 -6.31046 0
M  V30 2729 H 264.247 -0.0900208 -5.99732 0
M  V30 2730 H 265.926 -0.471949 -6.45276 0
M  V30 2731 N 266.058 1.56714 -0.166846 0
M  V30 2732 C 267.306 1.96358 0.478305 0
M  V30 2733 C 267.627 1.0537 1.6408 0
M  V30 2734 O 266.897 0.119154 1.95537 0
M  V30 2735 H 265.477 0.725065 0.179692 0
M  V30 2736 H 268.139 1.93329 -0.246985 0
M  V30 2737 H 267.235 3.00547 0.841292 0
M  V30 2738 N 267.536 -0.106894 1.57237 0
M  V30 2739 C 268.785 -0.811163 1.8467 0
M  V30 2740 C 269.098 -1.80469 0.754342 0
M  V30 2741 O 270.304 -2.55601 0.915439 0
M  V30 2742 C 268.76 -1.49337 3.27454 0
M  V30 2743 C 268.368 -0.540217 4.44731 0
M  V30 2744 C 270.112 -2.18206 3.64124 0
M  V30 2745 C 268.019 -1.22634 5.78545 0
M  V30 2746 H 266.949 -0.306679 0.688813 0
M  V30 2747 H 269.6 -0.0639887 1.83388 0
M  V30 2748 H 267.982 -2.2876 3.23241 0
M  V30 2749 H 269.156 0.221659 4.60267 0
M  V30 2750 H 267.471 0.042146 4.16379 0
M  V30 2751 H 270.068 -2.70253 4.61376 0
M  V30 2752 H 270.411 -2.96562 2.92158 0
M  V30 2753 H 270.944 -1.45658 3.70174 0
M  V30 2754 H 267.683 -0.483832 6.53712 0
M  V30 2755 H 267.203 -1.95993 5.66874 0
M  V30 2756 H 268.882 -1.75615 6.2271 0
M  V30 2757 N 269.014 -1.53014 -0.377408 0
M  V30 2758 C 270.244 -1.72265 -1.14054 0
M  V30 2759 C 270.652 -0.44601 -1.83868 0
M  V30 2760 O 269.995 0.590095 -1.73964 0
M  V30 2761 C 270.057 -2.82492 -2.22348 0
M  V30 2762 C 269.721 -4.23233 -1.72402 0
M  V30 2763 C 270.718 -5.05992 -1.19448 0
M  V30 2764 C 268.403 -4.696 -1.78273 0
M  V30 2765 C 270.397 -6.33203 -0.730268 0
M  V30 2766 C 268.084 -5.96792 -1.31464 0
M  V30 2767 C 269.082 -6.78424 -0.789297 0
M  V30 2768 O 268.77 -8.0323 -0.328077 0
M  V30 2769 H 268.502 -0.579873 -0.347453 0
M  V30 2770 H 271.056 -2.00502 -0.445882 0
M  V30 2771 H 269.286 -2.49702 -2.95272 0
M  V30 2772 H 270.975 -2.90034 -2.83963 0
M  V30 2773 H 271.741 -4.71349 -1.14259 0
M  V30 2774 H 267.62 -4.06142 -2.18106 0
M  V30 2775 H 271.164 -6.96868 -0.319542 0
M  V30 2776 H 267.061 -6.30937 -1.36342 0
M  V30 2777 H 267.829 -8.1727 -0.448493 0
M  V30 2778 N 270.492 0.636531 -1.44174 0
M  V30 2779 C 271.908 0.954104 -1.27941 0
M  V30 2780 C 272.108 2.0039 -0.211248 0
M  V30 2781 O 271.164 2.49236 0.404695 0
M  V30 2782 C 272.477 1.4225 -2.64925 0
M  V30 2783 C 274.025 1.53827 -2.72592 0
M  V30 2784 C 274.5 2.04053 -4.10032 0
M  V30 2785 N 275.991 2.11331 -4.12182 0
M  V30 2786 C 276.726 2.51352 -5.15374 0
M  V30 2787 N 276.222 2.90549 -6.2893 0
M  V30 2788 N 278.015 2.51438 -5.02728 0
M  V30 2789 H 270.166 -0.0578386 -2.12321 0
M  V30 2790 H 272.429 0.0367406 -0.947288 0
M  V30 2791 H 272.135 0.725466 -3.44136 0
M  V30 2792 H 272.009 2.39451 -2.9145 0
M  V30 2793 H 274.396 2.22628 -1.93702 0
M  V30 2794 H 274.477 0.550154 -2.49814 0
M  V30 2795 H 274.121 1.35848 -4.89395 0
M  V30 2796 H 274.051 3.03726 -4.30184 0
M  V30 2797 H 276.542 1.83745 -3.30222 0
M  V30 2798 H 276.855 3.19884 -7.03487 0
M  V30 2799 H 275.2 2.88313 -6.32377 0
M  V30 2800 H 278.391 2.20203 -4.13072 0
M  V30 2801 H 278.564 2.82304 -5.83274 0
M  V30 2802 N 271.97 1.30982 0.876444 0
M  V30 2803 C 272.9 1.20668 1.99903 0
M  V30 2804 C 273.881 0.095354 1.69833 0
M  V30 2805 O 275.066 0.27885 1.92188 0
M  V30 2806 C 272.196 0.90655 3.3526 0
M  V30 2807 C 271.15 1.97675 3.79617 0
M  V30 2808 C 270.476 1.52943 5.1236 0
M  V30 2809 C 271.776 3.389 3.97422 0
M  V30 2810 H 273.47 2.14586 2.0879 0
M  V30 2811 H 271.016 1.03308 1.00317 0
M  V30 2812 H 272.969 0.821025 4.13324 0
M  V30 2813 H 271.693 -0.0682969 3.26529 0
M  V30 2814 H 270.352 2.05205 3.03787 0
M  V30 2815 H 270 0.54262 5.00065 0
M  V30 2816 H 269.7 2.24532 5.43009 0
M  V30 2817 H 271.224 1.45786 5.92941 0
M  V30 2818 H 272.638 3.34081 4.659 0
M  V30 2819 H 271.035 4.0865 4.3946 0
M  V30 2820 H 272.105 3.80163 3.01006 0
M  V30 2821 N 273.449 -1.08991 1.13837 0
M  V30 2822 C 274.689 -1.82867 0.913183 0
M  V30 2823 C 275.053 -1.83936 -0.550604 0
M  V30 2824 O 276.254 -2.53515 -0.893515 0
M  V30 2825 C 274.525 -3.24843 1.49036 0
M  V30 2826 S 276.084 -4.15669 1.40588 0
M  V30 2827 H 272.902 -0.630278 0.329046 0
M  V30 2828 H 275.504 -1.31049 1.45073 0
M  V30 2829 H 274.208 -3.21644 2.54899 0
M  V30 2830 H 273.739 -3.81734 0.950947 0
M  V30 2831 H 275.754 -4.94686 0.387353 0
M  V30 2832 N 274.927 -0.932562 -1.27047 0
M  V30 2833 C 275.857 -0.452902 -2.29066 0
M  V30 2834 C 276.838 0.489338 -1.62909 0
M  V30 2835 O 278.023 0.393046 -1.90181 0
M  V30 2836 C 275.153 0.290698 -3.46081 0
M  V30 2837 C 274.107 -0.564168 -4.24265 0
M  V30 2838 C 273.433 0.308886 -5.33807 0
M  V30 2839 C 274.733 -1.83112 -4.89149 0
M  V30 2840 H 276.427 -1.30552 -2.69437 0
M  V30 2841 H 273.973 -0.629201 -1.29526 0
M  V30 2842 H 275.926 0.637233 -4.16554 0
M  V30 2843 H 274.65 1.17738 -3.0464 0
M  V30 2844 H 273.309 -0.893477 -3.55545 0
M  V30 2845 H 272.957 1.19467 -4.88607 0
M  V30 2846 H 272.657 -0.259633 -5.87026 0
M  V30 2847 H 274.181 0.650884 -6.07121 0
M  V30 2848 H 275.595 -1.55236 -5.51883 0
M  V30 2849 H 273.992 -2.34353 -5.52448 0
M  V30 2850 H 275.062 -2.54772 -4.12576 0
M  V30 2851 N 276.405 1.4127 -0.698611 0
M  V30 2852 C 277.633 2.05503 -0.239992 0
M  V30 2853 C 278.048 1.52584 1.11191 0
M  V30 2854 O 277.405 0.675323 1.69545 0
M  V30 2855 C 277.456 3.60987 -0.192429 0
M  V30 2856 O 277.177 4.1195 -1.49094 0
M  V30 2857 C 278.678 4.42371 0.28681 0
M  V30 2858 H 275.898 0.661748 -0.111045 0
M  V30 2859 H 278.442 1.80987 -0.95205 0
M  V30 2860 H 276.597 3.84533 0.470472 0
M  V30 2861 H 277.011 5.06018 -1.38007 0
M  V30 2862 H 278.485 5.51344 0.26896 0
M  V30 2863 H 278.962 4.18699 1.32619 0
M  V30 2864 H 279.568 4.23897 -0.345201 0
M  V30 2865 N 277.883 0.443576 1.51229 0
M  V30 2866 C 279.108 -0.121648 2.07043 0
M  V30 2867 C 279.533 -1.35156 1.30823 0
M  V30 2868 O 278.891 -1.7793 0.347934 0
M  V30 2869 C 278.939 -0.41624 3.5819 0
M  V30 2870 O 278.043 -1.50163 3.8409 0
M  V30 2871 H 277.384 0.000871367 0.663999 0
M  V30 2872 H 279.914 0.626706 1.94765 0
M  V30 2873 H 279.924 -0.664867 4.02546 0
M  V30 2874 H 278.599 0.482653 4.1309 0
M  V30 2875 H 277.176 -1.24248 3.51592 0
M  V30 2876 N 279.361 -1.56624 0.175154 0
M  V30 2877 C 280.308 -2.18149 -0.753634 0
M  V30 2878 C 281.278 -1.12265 -1.22417 0
M  V30 2879 O 282.463 -1.40432 -1.29165 0
M  V30 2880 C 279.603 -2.82933 -1.97592 0
M  V30 2881 C 278.716 -4.03289 -1.5486 0
M  V30 2882 C 277.851 -4.55988 -2.72485 0
M  V30 2883 C 276.89 -5.68746 -2.26262 0
M  V30 2884 N 276.027 -6.15938 -3.36994 0
M  V30 2885 H 280.867 -2.9717 -0.222195 0
M  V30 2886 H 278.404 -1.46774 -0.0979422 0
M  V30 2887 H 280.362 -3.18653 -2.69288 0
M  V30 2888 H 278.992 -2.06509 -2.481 0
M  V30 2889 H 278.044 -3.73364 -0.728246 0
M  V30 2890 H 279.356 -4.849 -1.16933 0
M  V30 2891 H 278.51 -4.9391 -3.52332 0
M  V30 2892 H 277.249 -3.73443 -3.13674 0
M  V30 2893 H 276.254 -5.30372 -1.44863 0
M  V30 2894 H 277.479 -6.53095 -1.86127 0
M  V30 2895 H 275.425 -5.36321 -3.77751 0
M  V30 2896 H 275.342 -6.92548 -3.03172 0
M  V30 2897 H 276.61 -6.58511 -4.17114 0
M  V30 2898 N 280.839 0.0985539 -1.57292 0
M  V30 2899 C 282.067 0.816318 -1.90115 0
M  V30 2900 C 282.482 1.72451 -0.768509 0
M  V30 2901 O 281.839 1.80643 0.259687 0
M  V30 2902 C 281.89 1.63259 -3.22535 0
M  V30 2903 O 281.611 0.760934 -4.31441 0
M  V30 2904 C 283.112 2.45372 -3.69199 0
M  V30 2905 H 280.332 0.233595 -0.629027 0
M  V30 2906 H 282.876 0.0768229 -2.04356 0
M  V30 2907 H 281.031 2.32463 -3.09903 0
M  V30 2908 H 281.445 1.32595 -5.07463 0
M  V30 2909 H 282.919 2.98144 -4.64558 0
M  V30 2910 H 283.396 3.23677 -2.96867 0
M  V30 2911 H 284.002 1.81373 -3.84687 0
M  V30 2912 N 282.317 1.53212 0.369288 0
M  V30 2913 C 283.566 1.68436 1.10961 0
M  V30 2914 C 283.879 0.440738 1.9057 0
M  V30 2915 O 285.085 0.473446 2.6734 0
M  V30 2916 C 283.541 2.97744 2.0218 0
M  V30 2917 C 283.149 4.29355 1.279 0
M  V30 2918 C 284.893 3.22334 2.76226 0
M  V30 2919 C 282.8 5.49755 2.17999 0
M  V30 2920 H 281.73 0.627568 0.41794 0
M  V30 2921 H 284.381 1.79713 0.370884 0
M  V30 2922 H 282.763 2.8026 2.79768 0
M  V30 2923 H 283.937 4.57458 0.554007 0
M  V30 2924 H 282.252 4.11179 0.657311 0
M  V30 2925 H 284.849 4.09471 3.43857 0
M  V30 2926 H 285.192 2.38238 3.41392 0
M  V30 2927 H 285.725 3.40475 2.05723 0
M  V30 2928 H 282.464 6.36318 1.57417 0
M  V30 2929 H 281.984 5.25937 2.88359 0
M  V30 2930 H 283.663 5.84401 2.77641 0
M  V30 2931 N 283.795 -0.628877 1.44509 0
M  V30 2932 C 285.02 -1.42048 1.5112 0
M  V30 2933 C 285.445 -1.87594 0.137818 0
M  V30 2934 O 284.803 -1.58873 -0.873437 0
M  V30 2935 C 284.851 -2.61541 2.48251 0
M  V30 2936 O 283.955 -3.61453 1.98559 0
M  V30 2937 H 283.296 -0.424942 0.510216 0
M  V30 2938 H 285.826 -0.767374 1.89664 0
M  V30 2939 H 285.836 -3.09057 2.66361 0
M  V30 2940 H 284.511 -2.27736 3.48007 0
M  V30 2941 H 283.088 -3.20731 1.90227 0
M  V30 2942 N 285.273 -1.31445 -0.869486 0
M  V30 2943 C 286.52 -1.21158 -1.62256 0
M  V30 2944 C 286.848 0.230155 -1.93133 0
M  V30 2945 O 286.103 1.17906 -1.56194 0
M  V30 2946 C 286.402 -2.00145 -2.96102 0
M  V30 2947 C 286.068 -3.4964 -2.84715 0
M  V30 2948 C 284.73 -3.90403 -2.81317 0
M  V30 2949 C 287.082 -4.44769 -2.71716 0
M  V30 2950 C 284.41 -5.24561 -2.62778 0
M  V30 2951 C 286.762 -5.79054 -2.54714 0
M  V30 2952 C 285.426 -6.19037 -2.49699 0
M  V30 2953 H 284.696 -0.443348 -0.593737 0
M  V30 2954 H 287.343 -1.62715 -1.00976 0
M  V30 2955 H 285.648 -1.5127 -3.6142 0
M  V30 2956 H 287.345 -1.89566 -3.53363 0
M  V30 2957 H 283.935 -3.17256 -2.88178 0
M  V30 2958 H 288.119 -4.14208 -2.73397 0
M  V30 2959 H 283.375 -5.54613 -2.57321 0
M  V30 2960 H 287.549 -6.52393 -2.43632 0
M  V30 2961 H 285.176 -7.22935 -2.35093 0
M  V30 2962 N 286.751 1.08385 -1.14413 0
M  V30 2963 C 287.997 1.81044 -0.913834 0
M  V30 2964 C 288.33 1.86004 0.558209 0
M  V30 2965 O 287.605 1.33606 1.4135 0
M  V30 2966 C 287.888 3.26648 -1.51569 0
M  V30 2967 C 287.741 3.29895 -3.0576 0
M  V30 2968 C 289.06 4.23629 -1.19273 0
M  V30 2969 H 286.179 0.65727 -0.333414 0
M  V30 2970 H 288.821 1.26896 -1.41412 0
M  V30 2971 H 286.971 3.72889 -1.09023 0
M  V30 2972 H 288.643 2.91977 -3.57137 0
M  V30 2973 H 286.886 2.69163 -3.40197 0
M  V30 2974 H 287.557 4.32516 -3.42977 0
M  V30 2975 H 290.033 3.85727 -1.56057 0
M  V30 2976 H 288.909 5.23822 -1.64017 0
M  V30 2977 H 289.17 4.41968 -0.108068 0
M  V30 2978 N 288.23 0.939286 1.26551 0
M  V30 2979 C 289.177 0.446088 2.26448 0
M  V30 2980 C 290.147 -0.493234 1.58608 0
M  V30 2981 O 291.332 -0.409857 1.86346 0
M  V30 2982 C 288.472 -0.284375 3.43926 0
M  V30 2983 C 287.585 0.690399 4.26448 0
M  V30 2984 C 286.72 -0.0610712 5.31165 0
M  V30 2985 C 285.759 0.905649 6.05363 0
M  V30 2986 N 284.896 0.186055 7.01853 0
M  V30 2987 H 289.736 1.30291 2.68008 0
M  V30 2988 H 287.273 0.65371 1.31776 0
M  V30 2989 H 289.231 -0.724313 4.10864 0
M  V30 2990 H 287.861 -1.10535 3.03285 0
M  V30 2991 H 286.913 1.24885 3.59316 0
M  V30 2992 H 288.225 1.42873 4.779 0
M  V30 2993 H 287.379 -0.56038 6.04106 0
M  V30 2994 H 286.118 -0.832297 4.80546 0
M  V30 2995 H 285.123 1.4161 5.3125 0
M  V30 2996 H 286.348 1.67685 6.58072 0
M  V30 2997 H 284.294 -0.566714 6.53548 0
M  V30 2998 H 284.211 0.863752 7.51049 0
M  V30 2999 H 285.479 -0.292221 7.78952 0
M  V30 3000 N 289.708 -1.40897 0.706093 0
M  V30 3001 C 290.638 -2.33418 0.0620085 0
M  V30 3002 C 291.619 -1.52385 -0.755827 0
M  V30 3003 O 292.804 -1.80886 -0.706674 0
M  V30 3004 C 289.934 -3.36293 -0.867445 0
M  V30 3005 C 288.888 -4.27716 -0.155932 0
M  V30 3006 C 288.214 -5.2105 -1.20046 0
M  V30 3007 C 289.514 -5.12944 0.984149 0
M  V30 3008 H 291.208 -2.87527 0.83477 0
M  V30 3009 H 288.754 -1.38249 0.402875 0
M  V30 3010 H 290.707 -3.99949 -1.32735 0
M  V30 3011 H 289.431 -2.80556 -1.67199 0
M  V30 3012 H 288.09 -3.65498 0.284047 0
M  V30 3013 H 287.738 -4.61624 -1.99781 0
M  V30 3014 H 287.438 -5.83056 -0.729328 0
M  V30 3015 H 288.962 -5.87584 -1.66066 0
M  V30 3016 H 290.376 -5.70109 0.604048 0
M  V30 3017 H 288.773 -5.83945 1.38304 0
M  V30 3018 H 289.843 -4.49485 1.81911 0
M  V30 3019 N 291.186 -0.45159 -1.50991 0
M  V30 3020 C 292.134 0.366864 -2.29689 0
M  V30 3021 C 293.128 1.00809 -1.36139 0
M  V30 3022 O 294.334 0.941427 -1.53418 0
M  V30 3023 H 290.709 0.137133 -0.739391 0
M  V30 3024 H 292.68 -0.317538 -2.96706 0
M  V30 3025 C 291.429 1.44751 -3.16137 0
M  V30 3026 H 290.752 0.963473 -3.88017 0
M  V30 3027 H 292.192 1.99315 -3.74232 0
M  V30 3028 C 290.651 2.43869 -2.32442 0
M  V30 3029 O 291.181 3.4872 -1.99392 0
M  V30 3030 N 289.387 2.15105 -1.95392 0
M  V30 3031 H 288.934 1.29866 -2.22469 0
M  V30 3032 H 288.892 2.81661 -1.39693 0
M  V30 3033 N 292.664 1.56529 -0.183458 0
M  V30 3034 C 293.889 2.02064 0.467428 0
M  V30 3035 C 294.314 1.06282 1.55196 0
M  V30 3036 O 293.672 0.0443565 1.81246 0
M  V30 3037 C 293.72 3.46122 1.01153 0
M  V30 3038 O 292.824 3.53437 2.12499 0
M  V30 3039 H 292.165 0.654726 0.110588 0
M  V30 3040 H 294.695 2.02521 -0.290917 0
M  V30 3041 H 294.705 3.85676 1.33108 0
M  V30 3042 H 293.38 4.15331 0.217533 0
M  V30 3043 H 291.957 3.2575 1.81497 0
M  V30 3044 N 294.142 -0.090211 1.57342 0
M  V30 3045 C 295.052 -1.12735 2.05738 0
M  V30 3046 C 296.068 -1.43557 0.983231 0
M  V30 3047 O 297.244 -1.54101 1.29672 0
M  V30 3048 C 294.309 -2.42659 2.47624 0
M  V30 3049 C 293.37 -2.18975 3.69254 0
M  V30 3050 C 292.603 -3.42704 4.09133 0
M  V30 3051 O 292.826 -4.51127 3.49057 0
M  V30 3052 O 291.76 -3.32003 5.02053 0
M  V30 3053 H 295.586 -0.746279 2.94388 0
M  V30 3054 H 293.171 -0.303064 1.46294 0
M  V30 3055 H 295.053 -3.19155 2.7517 0
M  V30 3056 H 293.728 -2.80182 1.62109 0
M  V30 3057 H 292.635 -1.40244 3.46818 0
M  V30 3058 H 293.968 -1.86342 4.55563 0
M  V30 3059 N 295.62 -1.53406 -0.361157 0
M  V30 3060 C 296.583 -1.79479 -1.42548 0
M  V30 3061 C 297.583 -0.665327 -1.4639 0
M  V30 3062 O 298.773 -0.933549 -1.47073 0
M  V30 3063 C 295.905 -1.92087 -2.8163 0
M  V30 3064 H 297.098 -2.74538 -1.20701 0
M  V30 3065 H 294.651 -1.4455 -0.594546 0
M  V30 3066 H 295.386 -0.991099 -3.08784 0
M  V30 3067 H 295.171 -2.74241 -2.80239 0
M  V30 3068 H 296.661 -2.13836 -3.58697 0
M  V30 3069 N 297.098 0.621204 -1.44841 0
M  V30 3070 C 298.061 1.71459 -1.521 0
M  V30 3071 C 299.061 1.55696 -0.401933 0
M  V30 3072 O 300.251 1.61011 -0.664925 0
M  V30 3073 C 297.383 3.10624 -1.40447 0
M  V30 3074 H 298.576 1.66394 -2.49506 0
M  V30 3075 H 296.129 0.835745 -1.3208 0
M  V30 3076 H 296.864 3.21277 -0.441737 0
M  V30 3077 H 296.649 3.23473 -2.21602 0
M  V30 3078 H 298.139 3.90293 -1.4853 0
M  V30 3079 N 298.576 1.31904 0.862503 0
M  V30 3080 C 299.539 1.20131 1.95195 0
M  V30 3081 C 300.539 0.126409 1.60302 0
M  V30 3082 O 301.729 0.376234 1.70089 0
M  V30 3083 C 298.861 0.845691 3.30244 0
M  V30 3084 H 300.054 2.16943 2.07064 0
M  V30 3085 H 297.607 1.15622 1.05172 0
M  V30 3086 H 298.342 -0.120957 3.24074 0
M  V30 3087 H 298.127 1.62276 3.56944 0
M  V30 3088 H 299.617 0.787418 4.10109 0
M  V30 3089 N 300.054 -1.07777 1.14986 0
M  V30 3090 C 301.3 -1.80557 0.923422 0
M  V30 3091 C 301.633 -1.86298 -0.548337 0
M  V30 3092 O 300.908 -1.34354 -1.40639 0
M  V30 3093 C 301.191 -3.25839 1.53299 0
M  V30 3094 C 301.044 -3.28269 3.07505 0
M  V30 3095 C 302.363 -4.22991 1.21518 0
M  V30 3096 H 299.482 -0.655493 0.336894 0
M  V30 3097 H 302.124 -1.26144 1.42083 0
M  V30 3098 H 300.274 -3.72306 1.10999 0
M  V30 3099 H 301.946 -2.90079 3.58681 0
M  V30 3100 H 300.189 -2.67355 3.4162 0
M  V30 3101 H 300.86 -4.30691 3.45266 0
M  V30 3102 H 303.336 -3.84894 1.581 0
M  V30 3103 H 302.212 -5.22945 1.66793 0
M  V30 3104 H 302.473 -4.41904 0.131505 0
M  V30 3105 N 301.532 -0.945985 -1.26051 0
M  V30 3106 C 302.778 -0.597002 -1.93814 0
M  V30 3107 C 303.111 0.862484 -1.73997 0
M  V30 3108 O 302.386 1.61769 -1.07986 0
M  V30 3109 C 302.669 -0.945937 -3.47454 0
M  V30 3110 C 302.522 -2.46052 -3.76535 0
M  V30 3111 C 303.841 -0.464785 -4.37639 0
M  V30 3112 H 300.96 -0.218366 -0.703907 0
M  V30 3113 H 303.602 -1.18107 -1.48831 0
M  V30 3114 H 301.752 -0.448902 -3.85898 0
M  V30 3115 H 303.424 -3.03065 -3.47778 0
M  V30 3116 H 301.667 -2.90194 -3.22444 0
M  V30 3117 H 302.338 -2.65517 -4.83947 0
M  V30 3118 H 304.814 -0.891016 -4.06448 0
M  V30 3119 H 303.69 -0.737712 -5.4392 0
M  V30 3120 H 303.951 0.635274 -4.37512 0
M  V30 3121 N 303.011 1.40521 -0.713556 0
M  V30 3122 C 303.941 2.33381 -0.0743864 0
M  V30 3123 C 304.922 1.52784 0.747735 0
M  V30 3124 O 306.107 1.81258 0.697071 0
M  V30 3125 C 303.237 3.36748 0.849598 0
M  V30 3126 C 302.191 4.27793 0.133247 0
M  V30 3127 C 301.517 5.21679 1.17281 0
M  V30 3128 C 302.817 5.12415 -1.01134 0
M  V30 3129 H 304.511 2.87081 -0.850007 0
M  V30 3130 H 302.057 1.38034 -0.410201 0
M  V30 3131 H 304.01 4.00648 1.30612 0
M  V30 3132 H 302.734 2.81439 1.65709 0
M  V30 3133 H 301.393 3.65342 -0.303426 0
M  V30 3134 H 301.041 4.62677 1.9733 0
M  V30 3135 H 300.741 5.83435 0.698397 0
M  V30 3136 H 302.265 5.88456 1.62947 0
M  V30 3137 H 303.679 5.69781 -0.634274 0
M  V30 3138 H 302.076 5.83203 -1.41399 0
M  V30 3139 H 303.146 4.48514 -1.84292 0
M  V30 3140 N 304.489 0.459591 1.5075 0
M  V30 3141 C 305.421 -0.37665 2.26084 0
M  V30 3142 C 306.434 -0.967109 1.30961 0
M  V30 3143 O 307.623 -0.857468 1.56556 0
M  V30 3144 C 304.723 -1.54112 3.01832 0
M  V30 3145 C 303.896 -1.06553 4.24223 0
M  V30 3146 C 302.955 -2.1027 4.82362 0
M  V30 3147 O 301.981 -1.68798 5.43595 0
M  V30 3148 N 303.183 -3.42974 4.68347 0
M  V30 3149 H 305.948 0.269124 2.98489 0
M  V30 3150 H 303.509 0.28972 1.59287 0
M  V30 3151 H 305.501 -2.23165 3.37608 0
M  V30 3152 H 304.071 -2.0918 2.32298 0
M  V30 3153 H 303.291 -0.201274 3.93686 0
M  V30 3154 H 304.579 -0.725516 5.03601 0
M  V30 3155 H 303.977 -3.79385 4.19623 0
M  V30 3156 H 302.534 -4.07858 5.08424 0
M  V30 3157 N 305.967 -1.56429 0.191757 0
M  V30 3158 C 306.897 -2.21937 -0.725696 0
M  V30 3159 C 307.878 -1.1814 -1.2238 0
M  V30 3160 O 309.063 -1.46636 -1.27325 0
M  V30 3161 C 306.193 -2.87611 -1.94672 0
M  V30 3162 C 305.147 -3.97623 -1.58366 0
M  V30 3163 C 304.473 -4.50446 -2.88102 0
M  V30 3164 C 305.773 -5.16197 -0.796133 0
M  V30 3165 H 307.467 -2.98861 -0.179606 0
M  V30 3166 H 305.013 -1.43749 -0.0849464 0
M  V30 3167 H 306.966 -3.3212 -2.59373 0
M  V30 3168 H 305.69 -2.08087 -2.51728 0
M  V30 3169 H 304.349 -3.53801 -0.960247 0
M  V30 3170 H 303.997 -3.67688 -3.43241 0
M  V30 3171 H 303.697 -5.24675 -2.64556 0
M  V30 3172 H 305.221 -4.97654 -3.53798 0
M  V30 3173 H 306.635 -5.57271 -1.34618 0
M  V30 3174 H 305.032 -5.96471 -0.658928 0
M  V30 3175 H 306.102 -4.84473 0.203478 0
M  V30 3176 N 307.445 0.0818655 -1.57387 0
M  V30 3177 C 308.378 1.12986 -1.98266 0
M  V30 3178 C 309.356 1.38123 -0.857954 0
M  V30 3179 O 310.54 1.51663 -1.1194 0
M  V30 3180 C 307.667 2.47632 -2.31076 0
M  V30 3181 C 306.713 2.38693 -3.53452 0
M  V30 3182 S 307.546 1.79071 -5.04672 0
M  V30 3183 C 308.702 3.15316 -5.40673 0
M  V30 3184 H 308.935 0.781435 -2.86846 0
M  V30 3185 H 306.468 0.290034 -1.51651 0
M  V30 3186 H 308.426 3.25089 -2.50654 0
M  V30 3187 H 307.087 2.79638 -1.43043 0
M  V30 3188 H 306.28 3.37964 -3.73893 0
M  V30 3189 H 305.882 1.69369 -3.33452 0
M  V30 3190 H 308.174 4.11613 -5.38127 0
M  V30 3191 H 309.117 2.99664 -6.41566 0
M  V30 3192 H 309.525 3.15457 -4.68132 0
M  V30 3193 N 308.923 1.53595 0.353017 0
M  V30 3194 C 309.871 1.81605 1.45335 0
M  V30 3195 C 310.865 0.685923 1.54892 0
M  V30 3196 O 312.071 0.869095 1.57628 0
M  V30 3197 H 308.446 0.575204 0.484401 0
M  V30 3198 H 310.417 2.73679 1.18921 0
M  V30 3199 C 309.166 2.03406 2.81995 0
M  V30 3200 H 308.489 2.89814 2.75405 0
M  V30 3201 H 309.929 2.26975 3.58132 0
M  V30 3202 C 308.388 0.816794 3.26849 0
M  V30 3203 O 308.918 0.0115856 4.01698 0
M  V30 3204 N 307.124 0.636682 2.8354 0
M  V30 3205 H 306.671 1.2931 2.22793 0
M  V30 3206 H 306.629 -0.176336 3.13905 0
M  V30 3207 N 310.401 -0.613514 1.45168 0
M  V30 3208 C 311.65 -1.36874 1.4815 0
M  V30 3209 C 311.963 -1.952 0.124982 0
M  V30 3210 O 313.169 -2.71481 0.0324176 0
M  V30 3211 C 311.625 -2.47905 2.60904 0
M  V30 3212 C 311.233 -1.96016 4.02842 0
M  V30 3213 C 312.977 -3.24965 2.73126 0
M  V30 3214 C 310.884 -3.04494 5.06988 0
M  V30 3215 H 309.814 -0.514428 0.551253 0
M  V30 3216 H 312.465 -0.658182 1.7129 0
M  V30 3217 H 310.847 -3.21618 2.31037 0
M  V30 3218 H 312.021 -1.29051 4.4236 0
M  V30 3219 H 310.336 -1.31719 3.95018 0
M  V30 3220 H 312.933 -4.05865 3.48106 0
M  V30 3221 H 313.276 -3.75588 1.79553 0
M  V30 3222 H 313.809 -2.5835 3.0249 0
M  V30 3223 H 310.548 -2.58795 6.0225 0
M  V30 3224 H 310.068 -3.70044 4.72046 0
M  V30 3225 H 311.747 -3.68976 5.31475 0
M  V30 3226 N 311.879 -1.3236 -0.855495 0
M  V30 3227 C 313.295 -1.11332 -1.14356 0
M  V30 3228 C 313.495 0.106751 -2.01217 0
M  V30 3229 O 312.551 0.791891 -2.39761 0
M  V30 3230 C 313.864 -2.39237 -1.82171 0
M  V30 3231 C 315.412 -2.44986 -1.9481 0
M  V30 3232 C 315.887 -3.7281 -2.66039 0
M  V30 3233 N 317.378 -3.73787 -2.73565 0
M  V30 3234 C 318.113 -4.69394 -3.29327 0
M  V30 3235 N 317.609 -5.75367 -3.85907 0
M  V30 3236 N 319.402 -4.56893 -3.27423 0
M  V30 3237 H 311.553 -2.10586 -0.277027 0
M  V30 3238 H 313.816 -0.929701 -0.185364 0
M  V30 3239 H 313.522 -3.28431 -1.25802 0
M  V30 3240 H 313.396 -2.50134 -2.82335 0
M  V30 3241 H 315.783 -1.56252 -2.50338 0
M  V30 3242 H 315.864 -2.38043 -0.936448 0
M  V30 3243 H 315.508 -4.61918 -2.11174 0
M  V30 3244 H 315.438 -3.77024 -3.67642 0
M  V30 3245 H 317.929 -2.97189 -2.33424 0
M  V30 3246 H 318.242 -6.44378 -4.26611 0
M  V30 3247 H 316.587 -5.79123 -3.84242 0
M  V30 3248 H 319.778 -3.73269 -2.82467 0
M  V30 3249 H 319.951 -5.31577 -3.7058 0
M  V30 3250 N 313.357 1.07166 -1.15556 0
M  V30 3251 C 314.773 1.31899 -0.898603 0
M  V30 3252 C 314.973 1.96333 0.453383 0
M  V30 3253 O 314.029 2.22438 1.19489 0
M  V30 3254 C 315.342 2.20826 -2.04099 0
M  V30 3255 C 316.89 2.34269 -2.07574 0
M  V30 3256 C 317.365 3.26546 -3.21141 0
M  V30 3257 N 318.856 3.34127 -3.20801 0
M  V30 3258 C 319.591 4.05595 -4.05315 0
M  V30 3259 N 319.087 4.79661 -4.99897 0
M  V30 3260 N 320.88 4.01555 -3.93332 0
M  V30 3261 H 313.031 0.637302 -2.02613 0
M  V30 3262 H 315.294 0.343468 -0.883591 0
M  V30 3263 H 315 1.80744 -3.01703 0
M  V30 3264 H 314.874 3.21364 -1.97496 0
M  V30 3265 H 317.261 2.73603 -1.10568 0
M  V30 3266 H 317.342 1.33429 -2.18244 0
M  V30 3267 H 316.986 2.87931 -4.184 0
M  V30 3268 H 316.916 4.27345 -3.07708 0
M  V30 3269 H 319.407 2.81336 -2.52306 0
M  V30 3270 H 319.72 5.31694 -5.60822 0
M  V30 3271 H 318.065 4.78671 -5.03884 0
M  V30 3272 H 321.256 3.42806 -3.18751 0
M  V30 3273 H 321.429 4.56987 -4.5942 0
M  V30 3274 N 314.835 0.952656 1.25548 0
M  V30 3275 C 316.075 0.614013 1.9496 0
M  V30 3276 C 316.439 -0.833215 1.72978 0
M  V30 3277 O 317.64 -1.28135 2.36294 0
M  V30 3278 C 315.911 0.960562 3.4425 0
M  V30 3279 S 317.47 0.734195 4.32614 0
M  V30 3280 H 314.288 0.225754 0.674208 0
M  V30 3281 H 316.89 1.22641 1.52248 0
M  V30 3282 H 315.594 2.01103 3.57751 0
M  V30 3283 H 315.125 0.338336 3.91942 0
M  V30 3284 H 317.14 -0.395995 4.94617 0
M  V30 3285 N 316.313 -1.40141 0.720998 0
M  V30 3286 C 317.561 -2.0039 0.262323 0
M  V30 3287 C 317.882 -1.57469 -1.15015 0
M  V30 3288 O 317.152 -0.816582 -1.78069 0
M  V30 3289 H 315.732 -0.741063 0.093996 0
M  V30 3290 H 318.394 -1.71398 0.927835 0
M  V30 3291 H 317.49 -3.10658 0.299671 0
M  V30 3292 N 317.792 -0.46758 -1.50504 0
M  V30 3293 C 318.742 0.34698 -2.25344 0
M  V30 3294 C 319.726 0.964469 -1.2879 0
M  V30 3295 O 320.918 0.8776 -1.53711 0
M  V30 3296 C 318.047 1.43042 -3.1208 0
M  V30 3297 C 317.133 0.82084 -4.16081 0
M  V30 3298 N 317.524 -0.0567602 -5.05768 0
M  V30 3299 C 315.822 1.08517 -4.32597 0
M  V30 3300 C 316.523 -0.402343 -5.80307 0
M  V30 3301 N 315.499 0.221607 -5.43148 0
M  V30 3302 H 319.301 -0.329129 -2.92051 0
M  V30 3303 H 316.815 -0.281508 -1.59942 0
M  V30 3304 H 318.812 2.02712 -3.64299 0
M  V30 3305 H 317.472 2.10856 -2.46921 0
M  V30 3306 H 318.483 -0.425349 -5.1615 0
M  V30 3307 H 315.16 1.75855 -3.78657 0
M  V30 3308 H 316.55 -1.11834 -6.62528 0
M  V30 3309 N 319.27 1.56325 -0.20005 0
M  V30 3310 C 320.495 2.02548 0.44597 0
M  V30 3311 C 320.92 1.07922 1.5406 0
M  V30 3312 O 320.278 0.0635775 1.81188 0
M  V30 3313 C 320.326 3.47175 0.974761 0
M  V30 3314 O 319.43 3.55671 2.08739 0
M  V30 3315 H 318.771 0.655862 0.103638 0
M  V30 3316 H 321.301 2.02201 -0.312381 0
M  V30 3317 H 321.311 3.87067 1.2901 0
M  V30 3318 H 319.986 4.15538 0.17347 0
M  V30 3319 H 318.563 3.27657 1.78032 0
M  V30 3320 N 320.748 -0.0735177 1.57428 0
M  V30 3321 C 321.658 -1.10547 2.06922 0
M  V30 3322 C 322.674 -1.42506 0.998402 0
M  V30 3323 O 323.85 -1.52717 1.31299 0
M  V30 3324 C 320.915 -2.40019 2.50184 0
M  V30 3325 C 319.976 -2.15046 3.71556 0
M  V30 3326 C 319.209 -3.38345 4.12745 0
M  V30 3327 O 319.432 -4.47399 3.53822 0
M  V30 3328 O 318.366 -3.2666 5.05546 0
M  V30 3329 H 322.192 -0.715013 2.95163 0
M  V30 3330 H 319.777 -0.287531 1.46607 0
M  V30 3331 H 321.659 -3.16218 2.78539 0
M  V30 3332 H 320.334 -2.78447 1.65072 0
M  V30 3333 H 319.241 -1.36558 3.48285 0
M  V30 3334 H 320.574 -1.81499 4.57514 0
M  V30 3335 N 322.226 -1.5378 -0.344866 0
M  V30 3336 C 323.174 -1.82373 -1.4437 0
M  V30 3337 C 324.168 -0.694128 -1.54526 0
M  V30 3338 O 325.374 -0.877442 -1.57165 0
M  V30 3339 H 321.749 -0.577765 -0.481344 0
M  V30 3340 H 323.72 -2.74306 -1.17468 0
M  V30 3341 C 322.469 -2.04898 -2.80913 0
M  V30 3342 H 321.792 -2.9127 -2.73865 0
M  V30 3343 H 323.232 -2.28871 -3.56923 0
M  V30 3344 C 321.691 -0.834116 -3.26411 0
M  V30 3345 O 322.221 -0.0328885 -4.01687 0
M  V30 3346 N 320.427 -0.65171 -2.83198 0
M  V30 3347 H 319.974 -1.30489 -2.22104 0
M  V30 3348 H 319.932 0.159686 -3.13994 0
M  V30 3349 N 323.704 0.605807 -1.45491 0
M  V30 3350 C 324.951 1.36476 -1.49601 0
M  V30 3351 C 325.279 1.94007 -0.138452 0
M  V30 3352 O 324.534 1.75638 0.863114 0
M  V30 3353 C 324.833 2.53012 -2.52428 0
M  V30 3354 C 324.499 2.13617 -3.97087 0
M  V30 3355 C 323.161 2.02587 -4.36477 0
M  V30 3356 C 325.513 1.82899 -4.88055 0
M  V30 3357 C 322.841 1.59064 -5.64726 0
M  V30 3358 C 325.193 1.40861 -6.16718 0
M  V30 3359 C 323.857 1.28391 -6.55036 0
M  V30 3360 H 323.127 0.499402 -0.547429 0
M  V30 3361 H 325.774 0.684546 -1.78847 0
M  V30 3362 H 324.079 3.26379 -2.16758 0
M  V30 3363 H 325.776 3.1124 -2.52845 0
M  V30 3364 H 322.366 2.23129 -3.65939 0
M  V30 3365 H 326.55 1.90317 -4.58359 0
M  V30 3366 H 321.806 1.48034 -5.93208 0
M  V30 3367 H 325.98 1.16138 -6.86648 0
M  V30 3368 H 323.607 0.944403 -7.54311 0
M  V30 3369 N 325.182 1.32811 0.848464 0
M  V30 3370 C 326.429 1.23724 1.60308 0
M  V30 3371 C 326.757 -0.1994 1.93475 0
M  V30 3372 O 326.012 -1.15406 1.5805 0
M  V30 3373 C 326.311 2.04831 2.92881 0
M  V30 3374 C 325.977 3.54125 2.79117 0
M  V30 3375 C 324.639 3.94829 2.7507 0
M  V30 3376 C 326.991 4.49036 2.64606 0
M  V30 3377 C 324.319 5.28675 2.544 0
M  V30 3378 C 326.671 5.83033 2.4547 0
M  V30 3379 C 325.335 6.22931 2.39819 0
M  V30 3380 H 324.605 0.452737 0.586609 0
M  V30 3381 H 327.252 1.64301 0.983743 0
M  V30 3382 H 325.557 1.57001 3.58968 0
M  V30 3383 H 327.254 1.95164 3.50303 0
M  V30 3384 H 323.844 3.21801 2.83094 0
M  V30 3385 H 328.028 4.18505 2.66772 0
M  V30 3386 H 323.284 5.58637 2.48465 0
M  V30 3387 H 327.458 6.56186 2.33222 0
M  V30 3388 H 325.085 7.26584 2.23562 0
M  V30 3389 N 326.66 -1.06551 1.16123 0
M  V30 3390 C 327.907 -1.79302 0.941126 0
M  V30 3391 C 328.235 -1.87105 -0.531235 0
M  V30 3392 O 327.49 -1.35692 -1.41018 0
M  V30 3393 C 327.789 -3.23911 1.51052 0
M  V30 3394 C 327.455 -3.36193 3.00475 0
M  V30 3395 C 326.117 -3.39252 3.41265 0
M  V30 3396 C 328.469 -3.38326 3.96465 0
M  V30 3397 C 325.797 -3.42057 4.76669 0
M  V30 3398 C 328.149 -3.4267 5.31752 0
M  V30 3399 C 326.813 -3.4401 5.72026 0
M  V30 3400 H 326.083 -0.656111 0.344382 0
M  V30 3401 H 328.73 -1.25325 1.44796 0
M  V30 3402 H 327.035 -3.80723 0.925063 0
M  V30 3403 H 328.732 -3.78793 1.31593 0
M  V30 3404 H 325.322 -3.34516 2.6795 0
M  V30 3405 H 329.506 -3.35176 3.6602 0
M  V30 3406 H 324.762 -3.41398 5.07206 0
M  V30 3407 H 328.936 -3.43268 6.05921 0
M  V30 3408 H 326.563 -3.45937 6.76928 0
M  V30 3409 N 328.138 -0.959301 -1.25041 0
M  V30 3410 C 329.387 -0.612254 -1.92183 0
M  V30 3411 C 329.7 0.855347 -1.75907 0
M  V30 3412 O 330.906 1.31256 -2.37664 0
M  V30 3413 C 329.362 -1.04435 -3.44414 0
M  V30 3414 C 328.97 -2.53482 -3.69393 0
M  V30 3415 C 330.714 -0.770055 -4.17457 0
M  V30 3416 C 328.621 -2.90468 -5.15153 0
M  V30 3417 H 327.551 -0.225279 -0.719559 0
M  V30 3418 H 330.202 -1.16438 -1.41825 0
M  V30 3419 H 328.584 -0.4206 -3.9376 0
M  V30 3420 H 329.758 -3.20916 -3.30681 0
M  V30 3421 H 328.073 -2.78432 -3.0962 0
M  V30 3422 H 330.67 -1.02249 -5.24832 0
M  V30 3423 H 331.013 0.293611 -4.15263 0
M  V30 3424 H 331.546 -1.35437 -3.74034 0
M  V30 3425 H 328.285 -3.95871 -5.22462 0
M  V30 3426 H 327.805 -2.27711 -5.54894 0
M  V30 3427 H 329.484 -2.79914 -5.83315 0
M  V30 3428 N 329.616 1.39756 -0.72842 0
M  V30 3429 C 330.526 2.34444 -0.0855374 0
M  V30 3430 C 331.542 1.57976 0.729356 0
M  V30 3431 O 332.718 1.90301 0.659346 0
M  V30 3432 C 329.783 3.36965 0.815798 0
M  V30 3433 C 328.844 4.29299 -0.0105996 0
M  V30 3434 C 328.077 5.26923 0.84781 0
M  V30 3435 O 328.3 5.30859 2.08673 0
M  V30 3436 O 327.234 6.01249 0.279969 0
M  V30 3437 H 331.06 2.91065 -0.866892 0
M  V30 3438 H 328.645 1.4117 -0.48902 0
M  V30 3439 H 330.527 3.99804 1.33171 0
M  V30 3440 H 329.202 2.82739 1.57608 0
M  V30 3441 H 328.109 3.69703 -0.571877 0
M  V30 3442 H 329.442 4.86712 -0.73295 0
M  V30 3443 N 331.094 0.475555 1.50254 0
M  V30 3444 C 332.34 -0.0780073 2.0265 0
M  V30 3445 C 332.673 -1.38968 1.35652 0
M  V30 3446 O 331.948 -1.8839 0.483691 0
M  V30 3447 C 332.231 -0.257161 3.59181 0
M  V30 3448 C 332.084 1.07585 4.36744 0
M  V30 3449 C 333.403 -1.00965 4.28362 0
M  V30 3450 H 330.522 -0.0268758 0.73651 0
M  V30 3451 H 333.164 0.622015 1.7953 0
M  V30 3452 H 331.314 -0.853412 3.79011 0
M  V30 3453 H 332.986 1.70902 4.28474 0
M  V30 3454 H 331.229 1.6714 4.00308 0
M  V30 3455 H 331.9 0.904088 5.44546 0
M  V30 3456 H 334.376 -0.504214 4.13034 0
M  V30 3457 H 333.252 -1.10381 5.37687 0
M  V30 3458 H 333.513 -2.04731 3.91839 0
M  V30 3459 N 332.573 -1.56217 0.208337 0
M  V30 3460 C 333.821 -1.97558 -0.426076 0
M  V30 3461 C 334.142 -1.09683 -1.61229 0
M  V30 3462 O 333.412 -0.170956 -1.95153 0
M  V30 3463 H 331.992 -0.729575 -0.160405 0
M  V30 3464 H 334.654 -1.92606 0.298155 0
M  V30 3465 H 333.75 -3.02672 -0.761312 0
M  V30 3466 N 334.051 0.0651679 -1.57465 0
M  V30 3467 C 335.467 0.420105 -1.53972 0
M  V30 3468 C 335.667 1.78782 -0.929474 0
M  V30 3469 O 334.723 2.46771 -0.534839 0
M  V30 3470 C 336.036 0.355084 -2.98596 0
M  V30 3471 C 337.584 0.434792 -3.09965 0
M  V30 3472 C 338.059 0.399609 -4.56253 0
M  V30 3473 N 339.55 0.459488 -4.60915 0
M  V30 3474 C 340.285 0.454584 -5.71595 0
M  V30 3475 N 339.781 0.404102 -6.9162 0
M  V30 3476 N 341.574 0.501635 -5.59857 0
M  V30 3477 H 333.725 -0.830328 -1.95498 0
M  V30 3478 H 335.988 -0.312244 -0.895102 0
M  V30 3479 H 335.694 -0.583357 -3.46828 0
M  V30 3480 H 335.568 1.16275 -3.58831 0
M  V30 3481 H 337.955 1.36366 -2.61703 0
M  V30 3482 H 338.036 -0.40157 -2.52628 0
M  V30 3483 H 337.68 -0.525436 -5.05175 0
M  V30 3484 H 337.61 1.25359 -5.11461 0
M  V30 3485 H 340.101 0.502482 -3.74544 0
M  V30 3486 H 340.414 0.404468 -7.71741 0
M  V30 3487 H 338.759 0.37069 -6.94011 0
M  V30 3488 H 341.95 0.538812 -4.64989 0
M  V30 3489 H 342.123 0.494345 -6.46112 0
M  V30 3490 N 335.529 1.53961 0.336706 0
M  V30 3491 C 336.754 1.75797 1.10046 0
M  V30 3492 C 337.179 0.498985 1.81361 0
M  V30 3493 O 336.537 -0.548769 1.72795 0
M  V30 3494 C 336.585 2.94257 2.08436 0
M  V30 3495 O 335.689 2.64883 3.16087 0
M  V30 3496 H 335.03 0.582936 0.317934 0
M  V30 3497 H 337.56 2.00945 0.38501 0
M  V30 3498 H 337.57 3.21237 2.51537 0
M  V30 3499 H 336.245 3.85564 1.55927 0
M  V30 3500 H 334.822 2.48812 2.77753 0
M  V30 3501 N 337.007 -0.598083 1.45811 0
M  V30 3502 C 337.97 -1.69018 1.54808 0
M  V30 3503 C 338.97 -1.55037 0.426652 0
M  V30 3504 O 340.16 -1.59932 0.690456 0
M  V30 3505 C 337.292 -3.0835 1.45371 0
M  V30 3506 H 338.485 -1.62403 2.52121 0
M  V30 3507 H 336.038 -0.814626 1.33392 0
M  V30 3508 H 336.773 -3.20534 0.492793 0
M  V30 3509 H 336.558 -3.19907 2.26721 0
M  V30 3510 H 338.048 -3.8788 1.54721 0
M  V30 3511 N 338.485 -1.33259 -0.841409 0
M  V30 3512 C 339.731 -1.24757 -1.59886 0
M  V30 3513 C 340.064 0.186913 -1.93298 0
M  V30 3514 O 339.339 1.12757 -1.5848 0
M  V30 3515 C 339.622 -2.12036 -2.91055 0
M  V30 3516 C 339.475 -3.63929 -2.6434 0
M  V30 3517 C 340.794 -1.9916 -3.92458 0
M  V30 3518 H 337.913 -0.454542 -0.580138 0
M  V30 3519 H 340.555 -1.63335 -0.970647 0
M  V30 3520 H 338.705 -1.79265 -3.44669 0
M  V30 3521 H 340.377 -4.06978 -2.17178 0
M  V30 3522 H 338.62 -3.85935 -1.98082 0
M  V30 3523 H 339.291 -4.20341 -3.57796 0
M  V30 3524 H 341.767 -2.27895 -3.48143 0
M  V30 3525 H 340.643 -2.62484 -4.82072 0
M  V30 3526 H 340.904 -0.963082 -4.31482 0
M  V30 3527 N 339.963 1.05934 -1.16686 0
M  V30 3528 C 341.191 1.8249 -0.974929 0
M  V30 3529 C 341.606 1.82679 0.476861 0
M  V30 3530 O 340.963 1.2486 1.33103 0
M  V30 3531 C 341.014 3.28943 -1.49929 0
M  V30 3532 O 340.735 3.28886 -2.89423 0
M  V30 3533 C 342.236 4.22215 -1.35089 0
M  V30 3534 H 339.456 0.575295 -0.345365 0
M  V30 3535 H 342 1.33631 -1.548 0
M  V30 3536 H 340.155 3.751 -0.968423 0
M  V30 3537 H 340.569 4.20493 -3.13506 0
M  V30 3538 H 342.043 5.22987 -1.76603 0
M  V30 3539 H 342.52 4.38195 -0.296935 0
M  V30 3540 H 343.126 3.81907 -1.87155 0
M  V30 3541 N 341.441 0.965919 1.2453 0
M  V30 3542 C 342.689 0.625593 1.92174 0
M  V30 3543 C 343.01 -0.841652 1.75901 0
M  V30 3544 O 342.28 -1.60061 1.12948 0
M  V30 3545 H 340.86 0.228388 0.71123 0
M  V30 3546 H 343.522 1.2266 1.51461 0
M  V30 3547 H 342.618 0.864653 2.99884 0
M  V30 3548 N 342.919 -1.39368 0.735821 0
M  V30 3549 C 344.33 -1.83313 0.354015 0
M  V30 3550 C 344.681 -1.61461 -1.11466 0
M  V30 3551 O 343.806 -1.10621 -1.85989 0
M  V30 3552 C 344.401 -3.32781 0.635769 0
M  V30 3553 C 342.96 -3.75142 0.307448 0
M  V30 3554 C 342.107 -2.62358 0.897974 0
M  V30 3555 H 345.058 -1.28349 0.933398 0
M  V30 3556 H 345.079 -3.80388 -0.0921773 0
M  V30 3557 H 344.591 -3.48654 1.70476 0
M  V30 3558 H 342.692 -3.64857 -0.755674 0
M  V30 3559 H 342.805 -4.72532 0.790583 0
M  V30 3560 H 341.169 -2.52624 0.324551 0
M  V30 3561 H 341.952 -2.81036 1.97164 0
M  V30 3562 N 344.397 -0.483516 -1.5 0
M  V30 3563 C 345.645 0.067027 -2.01989 0
M  V30 3564 C 345.966 1.3909 -1.36671 0
M  V30 3565 O 345.236 1.88978 -0.516152 0
M  V30 3566 H 343.816 0.0277606 -0.746484 0
M  V30 3567 H 346.478 -0.636773 -1.84204 0
M  V30 3568 H 345.574 0.209484 -3.11396 0
M  V30 3569 N 345.875 1.56104 -0.216619 0
M  V30 3570 C 346.785 2.23694 0.706982 0
M  V30 3571 C 347.801 1.24295 1.21765 0
M  V30 3572 O 348.977 1.57094 1.2603 0
M  V30 3573 C 346.042 2.8998 1.90033 0
M  V30 3574 C 345.103 4.04708 1.43213 0
M  V30 3575 C 344.336 4.67824 2.56859 0
M  V30 3576 O 344.559 4.29913 3.74874 0
M  V30 3577 O 343.493 5.56905 2.28343 0
M  V30 3578 H 347.319 3.03272 0.161235 0
M  V30 3579 H 344.904 1.49394 0.0136177 0
M  V30 3580 H 346.786 3.31837 2.59735 0
M  V30 3581 H 345.461 2.13365 2.43428 0
M  V30 3582 H 344.368 3.6743 0.70327 0
M  V30 3583 H 345.701 4.83051 0.944615 0
M  V30 3584 N 347.353 -0.0568162 1.57498 0
M  V30 3585 C 348.6 -0.753104 1.87975 0
M  V30 3586 C 348.928 -1.76815 0.81035 0
M  V30 3587 O 348.183 -1.94756 -0.19199 0
M  V30 3588 C 348.482 -1.48359 3.25153 0
M  V30 3589 C 348.148 -0.60713 4.46794 0
M  V30 3590 C 346.81 -0.365642 4.79809 0
M  V30 3591 C 349.162 -0.000305978 5.212 0
M  V30 3592 C 346.49 0.491905 5.84634 0
M  V30 3593 C 348.842 0.844781 6.26934 0
M  V30 3594 C 347.506 1.096 6.58441 0
M  V30 3595 H 346.776 -0.27558 0.687849 0
M  V30 3596 H 349.423 -0.0135173 1.91495 0
M  V30 3597 H 347.728 -2.29577 3.17492 0
M  V30 3598 H 349.425 -2.02739 3.45974 0
M  V30 3599 H 346.015 -0.805487 4.20963 0
M  V30 3600 H 350.199 -0.173961 4.95995 0
M  V30 3601 H 345.455 0.695131 6.07436 0
M  V30 3602 H 349.629 1.32165 6.83744 0
M  V30 3603 H 347.256 1.76224 7.39492 0
M  V30 3604 N 348.832 -1.54138 -0.328536 0
M  V30 3605 C 350.078 -1.73297 -1.06488 0
M  V30 3606 C 350.433 -0.497958 -1.85844 0
M  V30 3607 O 349.726 0.509591 -1.84699 0
M  V30 3608 C 349.92 -2.9457 -2.02393 0
M  V30 3609 C 349.749 -4.29747 -1.32467 0
M  V30 3610 C 348.519 -4.93987 -1.06324 0
M  V30 3611 C 350.717 -5.08903 -0.743137 0
M  V30 3612 N 348.699 -6.13005 -0.331359 0
M  V30 3613 C 350.07 -6.19836 -0.142602 0
M  V30 3614 C 352.125 -4.93699 -0.64546 0
M  V30 3615 C 350.828 -7.17224 0.546125 0
M  V30 3616 C 352.854 -5.91393 0.0295558 0
M  V30 3617 C 352.216 -7.01674 0.619056 0
M  V30 3618 H 348.315 -0.687017 -0.373539 0
M  V30 3619 H 350.899 -1.91589 -0.346659 0
M  V30 3620 H 349.07 -2.77752 -2.71493 0
M  V30 3621 H 350.802 -3.0238 -2.68977 0
M  V30 3622 H 347.557 -4.53824 -1.35428 0
M  V30 3623 H 347.981 -6.76997 0.0202939 0
M  V30 3624 H 352.623 -4.08589 -1.08695 0
M  V30 3625 H 350.341 -8.01896 0.999459 0
M  V30 3626 H 353.927 -5.81706 0.104705 0
M  V30 3627 H 352.807 -7.75971 1.13309 0
M  V30 3628 N 350.31 0.590341 -1.46126 0
M  V30 3629 C 351.243 1.71434 -1.50617 0
M  V30 3630 C 352.221 1.58543 -0.360948 0
M  V30 3631 O 353.405 1.79865 -0.563985 0
M  V30 3632 C 350.532 3.09422 -1.37753 0
M  V30 3633 C 349.578 3.40854 -2.5636 0
M  V30 3634 S 350.411 3.33773 -4.18755 0
M  V30 3635 C 351.567 4.74312 -4.08386 0
M  V30 3636 H 351.8 1.67364 -2.45717 0
M  V30 3637 H 349.333 0.76845 -1.33919 0
M  V30 3638 H 351.291 3.8903 -1.31018 0
M  V30 3639 H 349.952 3.10989 -0.440949 0
M  V30 3640 H 349.145 4.41368 -2.43332 0
M  V30 3641 H 348.747 2.68798 -2.60046 0
M  V30 3642 H 351.039 5.64522 -3.74595 0
M  V30 3643 H 351.982 4.92397 -5.08872 0
M  V30 3644 H 352.39 4.50803 -3.3976 0
M  V30 3645 N 351.788 1.33704 0.83433 0
M  V30 3646 C 352.72 1.20172 1.9517 0
M  V30 3647 C 353.733 0.131572 1.62267 0
M  V30 3648 O 354.922 0.382406 1.74356 0
M  V30 3649 C 352.022 0.821716 3.28787 0
M  V30 3650 C 351.195 1.98446 3.89792 0
M  V30 3651 C 350.254 1.58469 5.01771 0
M  V30 3652 O 349.28 2.29968 5.20676 0
M  V30 3653 N 350.482 0.492291 5.78409 0
M  V30 3654 H 353.247 2.16429 2.07313 0
M  V30 3655 H 350.808 1.26509 1.0103 0
M  V30 3656 H 352.8 0.536291 4.01131 0
M  V30 3657 H 351.37 -0.0503058 3.1256 0
M  V30 3658 H 350.59 2.43526 3.09982 0
M  V30 3659 H 351.878 2.76236 4.27283 0
M  V30 3660 H 351.276 -0.102349 5.65607 0
M  V30 3661 H 349.833 0.266555 6.51255 0
M  V30 3662 N 353.266 -1.05314 1.17247 0
M  V30 3663 C 354.512 -1.78557 0.961513 0
M  V30 3664 C 354.845 -1.87419 -0.508697 0
M  V30 3665 O 354.12 -1.37307 -1.37757 0
M  V30 3666 C 354.403 -3.22514 1.60176 0
M  V30 3667 C 354.256 -3.21673 3.14399 0
M  V30 3668 C 355.575 -4.20318 1.30463 0
M  V30 3669 H 352.694 -0.6482 0.350723 0
M  V30 3670 H 355.336 -1.23102 1.44727 0
M  V30 3671 H 353.486 -3.69867 1.18871 0
M  V30 3672 H 355.158 -2.82405 3.64753 0
M  V30 3673 H 353.401 -2.60048 3.47214 0
M  V30 3674 H 354.072 -4.23271 3.54324 0
M  V30 3675 H 356.548 -3.81454 1.66229 0
M  V30 3676 H 355.424 -5.19289 1.77848 0
M  V30 3677 H 355.685 -4.41526 0.22521 0
M  V30 3678 N 354.744 -0.972509 -1.24016 0
M  V30 3679 C 356.021 -0.553733 -1.87598 0
M  V30 3680 C 356.401 0.969158 -1.87538 0
M  V30 3681 O 355.749 1.84255 -1.35139 0
M  V30 3682 C 355.959 -1.15076 -3.29482 0
M  V30 3683 C 357.307 -1.23862 -4.06132 0
M  V30 3684 O 358.331 -1.10363 -3.38672 0
M  V30 3685 O 357.19 -1.45252 -5.26844 0
M  V30 3686 H 354.284 -0.185331 -0.805966 0
M  V30 3687 H 356.83 -1.06709 -1.31952 0
M  V30 3688 H 355.602 -2.19333 -3.2405 0
M  V30 3689 H 355.225 -0.621746 -3.92709 0
M  V30 3690 N 356.222 1.38976 -0.743202 0
M  V30 3691 C 357.499 1.94351 -0.220705 0
M  V30 3692 C 357.879 1.67935 1.2791 0
M  V30 3693 O 357.227 1.01211 2.04862 0
M  V30 3694 C 357.437 3.44426 -0.563171 0
M  V30 3695 C 358.785 4.2144 -0.517046 0
M  V30 3696 O 359.809 3.52661 -0.500846 0
M  V30 3697 O 358.668 5.44032 -0.518806 0
M  V30 3698 H 355.762 0.825879 -0.043047 0
M  V30 3699 H 358.308 1.48429 -0.822618 0
M  V30 3700 H 357.08 3.5712 -1.59941 0
M  V30 3701 H 356.703 3.97543 0.0672883 0
M  V30 3702 N 357.7 0.491464 1.49741 0
M  V30 3703 C 358.925 -0.0557177 2.07325 0
M  V30 3704 C 359.35 -1.30925 1.35056 0
M  V30 3705 O 358.708 -1.76733 0.404365 0
M  V30 3706 C 358.756 -0.302074 3.59333 0
M  V30 3707 O 357.86 -1.37868 3.88672 0
M  V30 3708 H 357.201 0.0219956 0.663636 0
M  V30 3709 H 359.731 0.688352 1.92673 0
M  V30 3710 H 359.741 -0.536464 4.04458 0
M  V30 3711 H 358.416 0.61383 4.11345 0
M  V30 3712 H 356.993 -1.12999 3.55367 0
M  V30 3713 N 359.178 -1.55987 0.224894 0
M  V30 3714 C 360.424 -1.98684 -0.406502 0
M  V30 3715 C 360.757 -1.11248 -1.59177 0
M  V30 3716 O 360.032 -0.170909 -1.93748 0
M  V30 3717 C 360.315 -3.50218 -0.837808 0
M  V30 3718 C 360.168 -4.48426 0.351332 0
M  V30 3719 C 361.487 -4.06243 -1.69278 0
M  V30 3720 H 358.606 -0.722337 -0.146283 0
M  V30 3721 H 361.248 -1.87255 0.321799 0
M  V30 3722 H 359.398 -3.60089 -1.45837 0
M  V30 3723 H 361.07 -4.50562 0.989526 0
M  V30 3724 H 359.313 -4.22159 0.998207 0
M  V30 3725 H 359.984 -5.52 0.00655905 0
M  V30 3726 H 362.46 -3.99337 -1.16914 0
M  V30 3727 H 361.336 -5.12581 -1.96346 0
M  V30 3728 H 361.597 -3.53332 -2.65723 0
M  V30 3729 N 360.656 0.0484629 -1.57525 0
M  V30 3730 C 361.902 0.744226 -1.88651 0
M  V30 3731 C 362.235 1.76029 -0.820212 0
M  V30 3732 O 361.51 1.93782 0.166985 0
M  V30 3733 C 361.793 1.43128 -3.30434 0
M  V30 3734 C 361.646 0.43005 -4.47739 0
M  V30 3735 C 362.965 2.37031 -3.70816 0
M  V30 3736 H 360.084 0.269089 -0.68612 0
M  V30 3737 H 362.726 0.00713532 -1.89999 0
M  V30 3738 H 360.876 2.05956 -3.29415 0
M  V30 3739 H 362.548 -0.194816 -4.60888 0
M  V30 3740 H 360.791 -0.252522 -4.33064 0
M  V30 3741 H 361.462 0.948874 -5.43783 0
M  V30 3742 H 363.938 1.84263 -3.73077 0
M  V30 3743 H 362.814 2.82094 -4.70865 0
M  V30 3744 H 363.075 3.22864 -3.02012 0
M  V30 3745 N 362.134 1.5431 0.320358 0
M  V30 3746 C 363.097 1.83195 1.3774 0
M  V30 3747 C 364.097 0.703906 1.44575 0
M  V30 3748 O 365.287 0.972214 1.44546 0
M  V30 3749 C 362.419 1.99487 2.76438 0
M  V30 3750 H 363.612 2.77642 1.1338 0
M  V30 3751 H 361.165 1.46076 0.556012 0
M  V30 3752 H 361.9 1.07262 3.06048 0
M  V30 3753 H 361.685 2.81575 2.7287 0
M  V30 3754 H 363.175 2.23271 3.52902 0
M  V30 3755 N 363.613 -0.582584 1.46437 0
M  V30 3756 C 364.545 -1.70618 1.53043 0
M  V30 3757 C 365.558 -1.57322 0.418769 0
M  V30 3758 O 366.747 -1.64744 0.687136 0
M  V30 3759 C 363.847 -3.08869 1.39474 0
M  V30 3760 C 363.02 -3.48166 2.64762 0
M  V30 3761 C 362.079 -4.65478 2.4539 0
M  V30 3762 O 361.105 -4.71333 3.19114 0
M  V30 3763 N 362.307 -5.60365 1.51564 0
M  V30 3764 H 365.072 -1.65405 2.49923 0
M  V30 3765 H 362.633 -0.768567 1.42494 0
M  V30 3766 H 364.625 -3.85143 1.24287 0
M  V30 3767 H 363.195 -3.08449 0.507758 0
M  V30 3768 H 362.415 -2.61598 2.9489 0
M  V30 3769 H 363.703 -3.71188 3.4799 0
M  V30 3770 H 363.101 -5.5837 0.907705 0
M  V30 3771 H 361.658 -6.36068 1.4234 0
M  V30 3772 N 365.091 -1.34144 -0.827227 0
M  V30 3773 C 366.039 -1.25364 -1.95925 0
M  V30 3774 C 367.033 -0.152608 -1.68711 0
M  V30 3775 O 368.239 -0.317311 -1.77181 0
M  V30 3776 H 364.614 -0.389342 -0.643364 0
M  V30 3777 H 366.585 -2.21045 -2.00454 0
M  V30 3778 C 365.334 -1.02158 -3.32354 0
M  V30 3779 H 364.657 -1.86111 -3.5384 0
M  V30 3780 H 366.097 -1.00048 -4.12027 0
M  V30 3781 C 364.556 0.275244 -3.35774 0
M  V30 3782 O 365.086 1.27806 -3.80826 0
M  V30 3783 N 363.292 0.306853 -2.88975 0
M  V30 3784 H 362.839 -0.509777 -2.52506 0
M  V30 3785 H 362.797 1.17432 -2.91646 0
M  V30 3786 N 366.569 1.04691 -1.17803 0
M  V30 3787 C 367.502 2.12068 -0.842765 0
M  V30 3788 C 368.48 1.61455 0.192608 0
M  V30 3789 O 369.664 1.88359 0.072995 0
M  V30 3790 C 366.791 3.37715 -0.258063 0
M  V30 3791 C 365.837 4.07164 -1.26962 0
M  V30 3792 S 366.67 4.55047 -2.82299 0
M  V30 3793 C 367.826 5.83935 -2.25323 0
M  V30 3794 H 368.059 2.4018 -1.75217 0
M  V30 3795 H 365.592 1.17366 -1.00323 0
M  V30 3796 H 367.55 4.10435 0.0727935 0
M  V30 3797 H 366.211 3.0773 0.629357 0
M  V30 3798 H 365.404 4.9746 -0.809263 0
M  V30 3799 H 365.006 3.40533 -1.54639 0
M  V30 3800 H 367.298 6.57552 -1.63192 0
M  V30 3801 H 368.241 6.34725 -3.13894 0
M  V30 3802 H 368.649 5.3874 -1.68582 0
M  V30 3803 N 368.047 0.979072 1.23499 0
M  V30 3804 C 368.997 0.489378 2.22686 0
M  V30 3805 C 369.981 -0.434871 1.54912 0
M  V30 3806 O 371.173 -0.263941 1.75021 0
M  V30 3807 C 368.302 -0.208178 3.42668 0
M  V30 3808 C 367.388 0.735563 4.17672 0
M  V30 3809 N 367.779 1.87763 4.69658 0
M  V30 3810 C 366.077 0.548625 4.42613 0
M  V30 3811 C 366.778 2.46886 5.26709 0
M  V30 3812 N 365.754 1.75287 5.14563 0
M  V30 3813 H 369.556 1.36062 2.60508 0
M  V30 3814 H 367.07 0.83958 1.39014 0
M  V30 3815 H 369.067 -0.576295 4.12898 0
M  V30 3816 H 367.727 -1.07572 3.06363 0
M  V30 3817 H 368.738 2.25885 4.66043 0
M  V30 3818 H 365.415 -0.274006 4.166 0
M  V30 3819 H 366.805 3.43326 5.77561 0
M  V30 3820 N 369.525 -1.3858 0.750561 0
M  V30 3821 C 370.435 -2.34278 0.122825 0
M  V30 3822 C 371.451 -1.59116 -0.704131 0
M  V30 3823 O 372.627 -1.91326 -0.628987 0
M  V30 3824 C 369.692 -3.38221 -0.762086 0
M  V30 3825 C 368.753 -4.29227 0.078896 0
M  V30 3826 C 367.986 -5.28205 -0.763874 0
M  V30 3827 O 368.209 -5.34112 -2.00201 0
M  V30 3828 O 367.143 -6.01618 -0.18428 0
M  V30 3829 H 370.969 -2.89649 0.913088 0
M  V30 3830 H 368.554 -1.40374 0.511417 0
M  V30 3831 H 370.436 -4.01872 -1.26793 0
M  V30 3832 H 369.111 -2.85211 -1.5309 0
M  V30 3833 H 368.018 -3.68747 0.630621 0
M  V30 3834 H 369.351 -4.85484 0.810289 0
M  V30 3835 N 371.003 -0.499398 -1.49478 0
M  V30 3836 C 372.231 0.0425456 -2.06856 0
M  V30 3837 C 372.646 1.30964 -1.35992 0
M  V30 3838 O 372.003 1.77172 -0.437762 0
M  V30 3839 C 372.054 0.301735 -3.60239 0
M  V30 3840 O 371.775 -0.915127 -4.28436 0
M  V30 3841 C 373.276 0.887499 -4.34325 0
M  V30 3842 H 370.496 -0.0197482 -0.670709 0
M  V30 3843 H 373.04 -0.696297 -1.92281 0
M  V30 3844 H 371.195 0.990556 -3.74522 0
M  V30 3845 H 371.609 -0.676993 -5.20113 0
M  V30 3846 H 373.083 1.01845 -5.42523 0
M  V30 3847 H 373.56 1.88488 -3.96698 0
M  V30 3848 H 374.166 0.236196 -4.24644 0
M  V30 3849 N 372.481 1.55866 -0.233164 0
M  V30 3850 C 373.73 1.97779 0.39579 0
M  V30 3851 C 374.043 1.12419 1.60066 0
M  V30 3852 O 375.249 1.44283 2.29988 0
M  V30 3853 C 373.705 3.5188 0.755556 0
M  V30 3854 C 373.313 4.45959 -0.427152 0
M  V30 3855 C 375.057 4.02479 1.34946 0
M  V30 3856 C 372.964 5.91383 -0.0443043 0
M  V30 3857 H 371.894 0.738592 0.15165 0
M  V30 3858 H 374.545 1.80486 -0.331212 0
M  V30 3859 H 372.927 3.64816 1.5403 0
M  V30 3860 H 374.101 4.44776 -1.20462 0
M  V30 3861 H 372.416 4.05765 -0.935068 0
M  V30 3862 H 375.013 5.08637 1.649 0
M  V30 3863 H 375.356 3.49014 2.26925 0
M  V30 3864 H 375.889 3.92813 0.62791 0
M  V30 3865 H 372.628 6.48857 -0.930874 0
M  V30 3866 H 372.148 5.95734 0.697238 0
M  V30 3867 H 373.827 6.45893 0.378334 0
M  V30 3868 N 373.959 -0.0401083 1.57549 0
M  V30 3869 C 374.889 -1.04384 2.08869 0
M  V30 3870 C 375.87 -1.38407 0.988817 0
M  V30 3871 O 377.055 -1.47483 1.26342 0
M  V30 3872 C 374.185 -2.34808 2.55895 0
M  V30 3873 C 373.139 -2.15057 3.70047 0
M  V30 3874 C 372.465 -3.51145 4.03239 0
M  V30 3875 C 373.765 -1.54576 4.98902 0
M  V30 3876 H 375.459 -0.616666 2.92981 0
M  V30 3877 H 373.005 -0.295184 1.40942 0
M  V30 3878 H 374.958 -3.05346 2.90417 0
M  V30 3879 H 373.682 -2.79565 1.68853 0
M  V30 3880 H 372.341 -1.46954 3.35857 0
M  V30 3881 H 371.989 -3.93529 3.13279 0
M  V30 3882 H 371.689 -3.38758 4.80122 0
M  V30 3883 H 373.213 -4.23062 4.40285 0
M  V30 3884 H 374.627 -2.15017 5.31451 0
M  V30 3885 H 373.024 -1.52796 5.80322 0
M  V30 3886 H 374.094 -0.51039 4.82206 0
M  V30 3887 N 375.437 -1.54477 -0.31217 0
M  V30 3888 C 376.347 -1.87695 -1.4074 0
M  V30 3889 C 377.363 -0.769975 -1.56036 0
M  V30 3890 O 378.539 -1.06537 -1.70915 0
M  V30 3891 C 375.604 -2.10755 -2.75287 0
M  V30 3892 C 374.665 -3.34514 -2.69071 0
M  V30 3893 C 373.898 -3.56465 -3.97201 0
M  V30 3894 O 374.121 -2.81637 -4.96021 0
M  V30 3895 O 373.055 -4.49964 -3.9977 0
M  V30 3896 H 376.881 -2.80849 -1.15574 0
M  V30 3897 H 374.466 -1.40526 -0.507228 0
M  V30 3898 H 376.348 -2.27188 -3.54913 0
M  V30 3899 H 375.023 -1.20788 -3.0032 0
M  V30 3900 H 373.93 -3.23456 -1.87955 0
M  V30 3901 H 375.263 -4.24575 -2.48992 0
M  V30 3902 N 376.915 0.57481 -1.46744 0
M  V30 3903 C 377.878 1.66533 -1.57478 0
M  V30 3904 C 378.878 1.54338 -0.451263 0
M  V30 3905 O 380.068 1.58814 -0.715813 0
M  V30 3906 C 377.2 3.05999 -1.50259 0
M  V30 3907 H 378.393 1.58372 -2.54673 0
M  V30 3908 H 375.946 0.793301 -1.34672 0
M  V30 3909 H 376.681 3.19709 -0.543725 0
M  V30 3910 H 376.466 3.16259 -2.31781 0
M  V30 3911 H 377.956 3.8537 -1.60872 0
M  V30 3912 N 378.394 1.34581 0.820102 0
M  V30 3913 C 379.327 1.20735 1.93644 0
M  V30 3914 C 380.305 0.0983343 1.62302 0
M  V30 3915 O 381.489 0.263997 1.86642 0
M  V30 3916 C 378.616 0.856037 3.27704 0
M  V30 3917 C 377.662 1.97521 3.78005 0
M  V30 3918 S 378.495 3.58906 3.97425 0
M  V30 3919 C 379.651 3.25822 5.34407 0
M  V30 3920 H 379.884 2.15231 2.05093 0
M  V30 3921 H 377.417 1.1964 0.97599 0
M  V30 3922 H 379.375 0.660133 4.05157 0
M  V30 3923 H 378.036 -0.0706253 3.14021 0
M  V30 3924 H 377.229 1.68321 4.75062 0
M  V30 3925 H 376.831 2.12875 3.07507 0
M  V30 3926 H 379.123 2.77812 6.17922 0
M  V30 3927 H 380.066 4.22029 5.68592 0
M  V30 3928 H 380.474 2.61932 5.00052 0
M  V30 3929 N 379.872 -1.04064 1.18357 0
M  V30 3930 C 381.288 -1.2947 0.933258 0
M  V30 3931 C 381.488 -1.97466 -0.401169 0
M  V30 3932 O 380.544 -2.25528 -1.13549 0
M  V30 3933 C 381.857 -2.15337 2.09882 0
M  V30 3934 C 383.405 -2.28683 2.13712 0
M  V30 3935 C 383.88 -3.17917 3.29686 0
M  V30 3936 N 385.371 -3.25504 3.29547 0
M  V30 3937 C 386.106 -3.94706 4.15926 0
M  V30 3938 N 385.602 -4.66239 5.12439 0
M  V30 3939 N 387.395 -3.90986 4.0384 0
M  V30 3940 H 379.546 -0.583359 2.04232 0
M  V30 3941 H 381.809 -0.319921 0.892387 0
M  V30 3942 H 381.515 -1.72682 3.06389 0
M  V30 3943 H 381.389 -3.16015 2.05947 0
M  V30 3944 H 383.776 -2.70575 1.17784 0
M  V30 3945 H 383.857 -1.27596 2.21705 0
M  V30 3946 H 383.501 -2.76736 4.25887 0
M  V30 3947 H 383.431 -4.19036 3.1893 0
M  V30 3948 H 385.922 -2.74547 2.59677 0
M  V30 3949 H 386.235 -5.16638 5.74722 0
M  V30 3950 H 384.58 -4.65143 5.16398 0
M  V30 3951 H 387.771 -3.34234 3.27727 0
M  V30 3952 H 387.944 -4.44646 4.71375 0
M  V30 3953 N 381.35 -0.985608 -1.22978 0
M  V30 3954 C 382.313 -0.535071 -2.22867 0
M  V30 3955 C 383.313 0.378123 -1.56291 0
M  V30 3956 O 384.503 0.171092 -1.73358 0
M  V30 3957 C 381.635 0.222702 -3.40172 0
M  V30 3958 H 382.828 -1.41835 -2.6424 0
M  V30 3959 H 380.381 -0.772042 -1.35901 0
M  V30 3960 H 381.116 1.12229 -3.04262 0
M  V30 3961 H 380.901 -0.43288 -3.89703 0
M  V30 3962 H 382.391 0.526335 -4.1427 0
M  V30 3963 N 382.828 1.3818 -0.7579 0
M  V30 3964 C 383.761 2.28055 -0.0814093 0
M  V30 3965 C 384.739 1.45603 0.723779 0
M  V30 3966 O 385.923 1.74961 0.701491 0
M  V30 3967 C 383.05 3.2676 0.891394 0
M  V30 3968 C 382.096 4.26153 0.171909 0
M  V30 3969 S 382.929 5.23434 -1.13035 0
M  V30 3970 C 384.085 6.25694 -0.160727 0
M  V30 3971 H 384.318 2.85082 -0.84353 0
M  V30 3972 H 381.851 1.44246 -0.550671 0
M  V30 3973 H 383.809 3.8414 1.44731 0
M  V30 3974 H 382.47 2.68706 1.62652 0
M  V30 3975 H 381.663 4.95738 0.908843 0
M  V30 3976 H 381.265 3.72691 -0.312606 0
M  V30 3977 H 383.557 6.74161 0.671773 0
M  V30 3978 H 384.5 7.03285 -0.824353 0
M  V30 3979 H 384.908 5.64064 0.221892 0
M  V30 3980 N 384.306 0.507319 1.49211 0
M  V30 3981 C 385.531 -0.033725 2.07373 0
M  V30 3982 C 385.956 -1.29485 1.36437 0
M  V30 3983 O 385.314 -1.76294 0.423087 0
M  V30 3984 C 385.362 -0.263945 3.59633 0
M  V30 3985 O 384.466 -1.33737 3.90113 0
M  V30 3986 H 383.807 0.0290331 0.663365 0
M  V30 3987 H 386.337 0.708749 1.91932 0
M  V30 3988 H 386.347 -0.493536 4.05004 0
M  V30 3989 H 385.022 0.657424 4.10671 0
M  V30 3990 H 383.599 -1.09224 3.56545 0
M  V30 3991 N 385.784 -1.5574 0.241426 0
M  V30 3992 C 387.061 -1.90704 -0.434881 0
M  V30 3993 C 387.441 -1.16145 -1.76277 0
M  V30 3994 O 386.789 -0.277152 -2.26813 0
M  V30 3995 C 386.999 -3.43657 -0.608343 0
M  V30 3996 C 388.347 -4.14806 -0.906725 0
M  V30 3997 O 389.371 -3.49366 -0.694408 0
M  V30 3998 O 388.23 -5.30548 -1.31075 0
M  V30 3999 H 385.324 -0.793592 -0.23268 0
M  V30 4000 H 387.87 -1.67288 0.285086 0
M  V30 4001 H 386.642 -3.89927 0.327505 0
M  V30 4002 H 386.265 -3.72918 -1.37906 0
M  V30 4003 N 387.262 0.0317525 -1.57568 0
M  V30 4004 C 388.172 1.05021 -2.0978 0
M  V30 4005 C 389.188 1.39809 -1.03583 0
M  V30 4006 O 390.364 1.49182 -1.35302 0
M  V30 4007 C 387.429 2.33301 -2.56459 0
M  V30 4008 C 386.49 2.0512 -3.77127 0
M  V30 4009 C 385.723 3.27283 -4.2157 0
M  V30 4010 O 385.946 4.37861 -3.65559 0
M  V30 4011 O 384.88 3.13141 -5.14029 0
M  V30 4012 H 388.706 0.636505 -2.96955 0
M  V30 4013 H 386.291 0.248559 -1.47318 0
M  V30 4014 H 388.173 3.08722 -2.86825 0
M  V30 4015 H 386.848 2.73973 -1.72397 0
M  V30 4016 H 385.755 1.27276 -3.51784 0
M  V30 4017 H 387.088 1.69305 -4.62165 0
M  V30 4018 N 388.74 1.54641 0.303973 0
M  V30 4019 C 389.987 1.7378 1.03955 0
M  V30 4020 C 390.315 0.521986 1.87365 0
M  V30 4021 O 389.57 -0.496099 1.89308 0
M  V30 4022 C 389.869 2.97753 1.97681 0
M  V30 4023 C 389.535 4.31671 1.30271 0
M  V30 4024 C 388.197 4.68075 1.11619 0
M  V30 4025 C 390.549 5.147 0.82055 0
M  V30 4026 C 387.877 5.8509 0.434304 0
M  V30 4027 C 390.229 6.32416 0.152395 0
M  V30 4028 C 388.893 6.67484 -0.0461067 0
M  V30 4029 H 388.163 0.635908 0.380398 0
M  V30 4030 H 390.81 1.88896 0.314718 0
M  V30 4031 H 389.115 2.77406 2.76682 0
M  V30 4032 H 390.812 3.09756 2.54661 0
M  V30 4033 H 387.402 4.03041 1.45795 0
M  V30 4034 H 391.586 4.87077 0.952374 0
M  V30 4035 H 386.842 6.10806 0.269495 0
M  V30 4036 H 391.016 6.96023 -0.229126 0
M  V30 4037 H 388.643 7.58011 -0.576494 0
M  V30 4038 N 390.218 -0.567019 1.47046 0
M  V30 4039 C 391.634 -0.891975 1.32348 0
M  V30 4040 C 391.834 -1.99154 0.306616 0
M  V30 4041 O 390.89 -2.50883 -0.28532 0
M  V30 4042 C 392.203 -1.29449 2.7141 0
M  V30 4043 C 393.751 -1.40646 2.79621 0
M  V30 4044 C 394.226 -1.84257 4.19301 0
M  V30 4045 N 395.717 -1.91424 4.21795 0
M  V30 4046 C 396.452 -2.26476 5.26779 0
M  V30 4047 N 395.948 -2.60211 6.42077 0
M  V30 4048 N 397.741 -2.27166 5.14152 0
M  V30 4049 H 389.892 0.159074 2.11803 0
M  V30 4050 H 392.155 0.00849752 0.947962 0
M  V30 4051 H 391.861 -0.560448 3.47206 0
M  V30 4052 H 391.735 -2.25273 3.02542 0
M  V30 4053 H 394.122 -2.13133 2.04104 0
M  V30 4054 H 394.203 -0.430339 2.52154 0
M  V30 4055 H 393.847 -1.12343 4.95319 0
M  V30 4056 H 393.777 -2.82855 4.44185 0
M  V30 4057 H 396.268 -1.6778 3.38612 0
M  V30 4058 H 396.581 -2.85956 7.17948 0
M  V30 4059 H 394.926 -2.57813 6.45413 0
M  V30 4060 H 398.117 -2.00244 4.23107 0
M  V30 4061 H 398.29 -2.54154 5.96079 0
M  V30 4062 N 391.696 -1.35014 -0.812953 0
M  V30 4063 C 393.107 -1.25035 -1.38648 0
M  V30 4064 C 393.458 0.119967 -1.95833 0
M  V30 4065 O 392.583 1.02069 -1.90816 0
M  V30 4066 C 393.178 -2.26394 -2.52054 0
M  V30 4067 C 391.737 -2.20175 -3.05287 0
M  V30 4068 C 390.884 -2.12451 -1.78213 0
M  V30 4069 H 393.835 -1.46235 -0.616516 0
M  V30 4070 H 393.856 -1.88672 -3.30429 0
M  V30 4071 H 393.368 -3.26116 -2.10404 0
M  V30 4072 H 391.469 -1.23841 -3.51417 0
M  V30 4073 H 391.582 -3.11863 -3.63701 0
M  V30 4074 H 389.946 -1.58328 -1.9951 0
M  V30 4075 H 390.729 -3.14024 -1.38723 0
M  V30 4076 N 393.175 1.03435 -1.18907 0
M  V30 4077 C 394.591 1.28973 -0.940111 0
M  V30 4078 C 394.791 1.97676 0.390691 0
M  V30 4079 O 393.847 2.26127 1.12352 0
M  V30 4080 C 395.16 2.14221 -2.11021 0
M  V30 4081 C 396.708 2.27547 -2.14922 0
M  V30 4082 C 397.183 3.16164 -3.31367 0
M  V30 4083 N 398.674 3.23752 -3.31269 0
M  V30 4084 C 399.409 3.92495 -4.18014 0
M  V30 4085 N 398.905 4.63515 -5.14904 0
M  V30 4086 N 400.698 3.88838 -4.05908 0
M  V30 4087 H 392.849 0.57252 -2.04538 0
M  V30 4088 H 395.112 0.315184 -0.894071 0
M  V30 4089 H 394.818 1.71054 -3.073 0
M  V30 4090 H 394.692 3.14919 -2.0762 0
M  V30 4091 H 397.079 2.69947 -1.19217 0
M  V30 4092 H 397.16 1.26418 -2.22378 0
M  V30 4093 H 396.804 2.74474 -4.27348 0
M  V30 4094 H 396.734 4.17339 -3.21148 0
M  V30 4095 H 399.225 2.73167 -2.61129 0
M  V30 4096 H 399.538 5.13583 -5.77453 0
M  V30 4097 H 397.883 4.62398 -5.18857 0
M  V30 4098 H 401.074 3.32491 -3.29495 0
M  V30 4099 H 401.247 4.4214 -4.73726 0
M  V30 4100 N 394.653 0.992116 1.22453 0
M  V30 4101 C 395.878 0.685644 1.95739 0
M  V30 4102 C 396.303 -0.743 1.72804 0
M  V30 4103 O 395.661 -1.50778 1.00676 0
M  V30 4104 C 395.709 0.996293 3.46564 0
M  V30 4105 O 394.813 0.0945512 4.12292 0
M  V30 4106 H 394.154 0.256694 0.612376 0
M  V30 4107 H 396.684 1.32888 1.5557 0
M  V30 4108 H 396.694 0.93781 3.97076 0
M  V30 4109 H 395.369 2.03733 3.62582 0
M  V30 4110 H 393.946 0.208451 3.72317 0
M  V30 4111 N 396.131 -1.37776 0.765217 0
M  V30 4112 C 397.078 -2.30342 0.145274 0
M  V30 4113 C 398.048 -1.5077 -0.696971 0
M  V30 4114 O 399.233 -1.79362 -0.650689 0
M  V30 4115 C 396.373 -3.37227 -0.732939 0
M  V30 4116 C 395.486 -4.31819 0.125199 0
M  V30 4117 C 394.621 -5.25777 -0.757107 0
M  V30 4118 C 393.66 -6.12012 0.103963 0
M  V30 4119 N 392.797 -6.98232 -0.735953 0
M  V30 4120 H 397.637 -2.8278 0.940195 0
M  V30 4121 H 395.174 -1.39211 0.475255 0
M  V30 4122 H 397.132 -3.97818 -1.25686 0
M  V30 4123 H 395.762 -2.86171 -1.49353 0
M  V30 4124 H 394.814 -3.7259 0.766865 0
M  V30 4125 H 396.126 -4.92509 0.789683 0
M  V30 4126 H 395.28 -5.91541 -1.34776 0
M  V30 4127 H 394.019 -4.65481 -1.45529 0
M  V30 4128 H 393.024 -5.45233 0.707197 0
M  V30 4129 H 394.249 -6.74379 0.799381 0
M  V30 4130 H 392.195 -6.40472 -1.41887 0
M  V30 4131 H 392.112 -7.55891 -0.128624 0
M  V30 4132 H 393.38 -7.68393 -1.31121 0
M  V30 4133 N 397.609 -0.515225 -1.4894 0
M  V30 4134 C 398.834 0.022727 -2.07388 0
M  V30 4135 C 399.259 1.2876 -1.37122 0
M  V30 4136 O 398.617 1.76067 -0.432431 0
M  V30 4137 C 398.665 0.244869 -3.59768 0
M  V30 4138 O 397.769 1.31667 -3.90817 0
M  V30 4139 H 397.11 -0.0325506 -0.663202 0
M  V30 4140 H 399.64 -0.718918 -1.91553 0
M  V30 4141 H 399.65 0.47205 -4.0526 0
M  V30 4142 H 398.325 -0.679194 -4.10317 0
M  V30 4143 H 396.902 1.07331 -3.5712 0
M  V30 4144 N 399.087 1.5561 -0.249682 0
M  V30 4145 C 400.019 2.18834 0.681496 0
M  V30 4146 C 401.032 1.16546 1.1367 0
M  V30 4147 O 402.221 1.43397 1.06299 0
M  V30 4148 C 399.321 2.77992 1.9384 0
M  V30 4149 C 398.494 4.05725 1.63419 0
M  V30 4150 C 397.553 4.49174 2.74096 0
M  V30 4151 O 396.579 5.15492 2.41364 0
M  V30 4152 N 397.781 4.17191 4.03649 0
M  V30 4153 H 400.546 2.9937 0.140514 0
M  V30 4154 H 398.107 1.6175 -0.0697541 0
M  V30 4155 H 400.099 3.04015 2.67127 0
M  V30 4156 H 398.669 2.01596 2.38909 0
M  V30 4157 H 397.889 3.87261 0.736358 0
M  V30 4158 H 399.177 4.88999 1.40562 0
M  V30 4159 H 398.575 3.63955 4.33074 0
M  V30 4160 H 397.132 4.48043 4.73393 0
M  V30 4161 N 400.565 -0.0233959 1.57583 0
M  V30 4162 C 401.79 -0.728376 1.94189 0
M  V30 4163 C 402.215 -1.67793 0.850119 0
M  V30 4164 O 401.573 -1.80262 -0.19371 0
M  V30 4165 C 401.621 -1.45669 3.29868 0
M  V30 4166 O 400.725 -2.57013 3.22518 0
M  V30 4167 H 400.066 -0.195493 0.63457 0
M  V30 4168 H 402.596 0.0228214 2.04587 0
M  V30 4169 H 402.606 -1.82535 3.6489 0
M  V30 4170 H 401.281 -0.760314 4.08891 0
M  V30 4171 H 399.858 -2.22648 2.99136 0
M  V30 4172 N 402.043 -1.548 -0.295768 0
M  V30 4173 C 403.268 -1.78653 -1.05346 0
M  V30 4174 C 403.693 -0.546894 -1.79974 0
M  V30 4175 O 403.051 0.502763 -1.7419 0
M  V30 4176 C 403.099 -2.99679 -2.00561 0
M  V30 4177 O 402.203 -2.7317 -3.08953 0
M  V30 4178 H 401.544 -0.59116 -0.302367 0
M  V30 4179 H 404.074 -2.01895 -0.331598 0
M  V30 4180 H 404.084 -3.27793 -2.42932 0
M  V30 4181 H 402.759 -3.89562 -1.4565 0
M  V30 4182 H 401.336 -2.56089 -2.71059 0
M  V30 4183 N 403.521 0.559213 -1.47345 0
M  V30 4184 C 404.746 1.34676 -1.57725 0
M  V30 4185 C 405.171 1.86723 -0.227164 0
M  V30 4186 O 404.529 1.6286 0.796642 0
M  V30 4187 C 404.577 2.49399 -2.60447 0
M  V30 4188 O 403.681 3.51567 -2.15578 0
M  V30 4189 H 403.022 0.400115 -0.52991 0
M  V30 4190 H 405.552 0.676009 -1.93109 0
M  V30 4191 H 405.562 2.95996 -2.80803 0
M  V30 4192 H 404.237 2.10873 -3.58477 0
M  V30 4193 H 402.814 3.11289 -2.05313 0
M  V30 4194 N 404.999 1.35443 0.805782 0
M  V30 4195 C 405.947 1.28465 1.93906 0
M  V30 4196 C 406.941 0.17943 1.68447 0
M  V30 4197 O 408.147 0.345459 1.76654 0
M  V30 4198 H 404.522 0.399528 0.637088 0
M  V30 4199 H 406.493 2.24206 1.96912 0
M  V30 4200 C 405.242 1.07432 3.30687 0
M  V30 4201 H 404.565 1.91716 3.50835 0
M  V30 4202 H 406.005 1.06591 4.10383 0
M  V30 4203 C 404.464 -0.22179 3.36169 0
M  V30 4204 O 404.994 -1.21731 3.82811 0
M  V30 4205 N 403.2 -0.260841 2.89427 0
M  V30 4206 H 402.747 0.549884 2.51663 0
M  V30 4207 H 402.705 -1.12777 2.93477 0
M  V30 4208 N 406.477 -1.02803 1.19454 0
M  V30 4209 C 407.717 -1.77769 1.00883 0
M  V30 4210 C 408.081 -1.86596 -0.45233 0
M  V30 4211 O 409.282 -2.57895 -0.757877 0
M  V30 4212 C 407.553 -3.16486 1.66046 0
M  V30 4213 S 409.112 -4.07632 1.62424 0
M  V30 4214 H 405.93 -0.611949 0.361993 0
M  V30 4215 H 408.532 -1.23175 1.51816 0
M  V30 4216 H 407.236 -3.0768 2.7159 0
M  V30 4217 H 406.767 -3.76156 1.15196 0
M  V30 4218 H 408.782 -4.91937 0.64903 0
M  V30 4219 N 407.956 -0.998596 -1.21925 0
M  V30 4220 C 409.181 -0.696015 -1.95372 0
M  V30 4221 C 409.606 0.733826 -1.73195 0
M  V30 4222 O 408.964 1.50242 -1.01474 0
M  V30 4223 C 409.012 -1.01466 -3.4603 0
M  V30 4224 O 408.116 -0.116415 -4.12236 0
M  V30 4225 H 407.457 -0.259938 -0.611006 0
M  V30 4226 H 409.987 -1.33711 -1.54863 0
M  V30 4227 H 409.997 -0.958855 -3.96573 0
M  V30 4228 H 408.672 -2.05653 -3.61497 0
M  V30 4229 H 407.249 -0.228193 -3.72201 0
M  V30 4230 N 409.434 1.37368 -0.772513 0
M  V30 4231 C 410.382 2.32134 -0.147111 0
M  V30 4232 C 411.376 1.54972 0.684106 0
M  V30 4233 O 412.582 1.70363 0.581083 0
M  V30 4234 H 408.957 0.751449 -0.028786 0
M  V30 4235 H 410.928 2.82464 -0.962112 0
M  V30 4236 C 409.677 3.40226 0.71703 0
M  V30 4237 H 409 3.99706 0.0867951 0
M  V30 4238 H 410.44 4.08897 1.12159 0
M  V30 4239 C 408.899 2.80372 1.86797 0
M  V30 4240 O 409.429 2.71183 2.96349 0
M  V30 4241 N 407.635 2.37904 1.66883 0
M  V30 4242 H 407.182 2.45578 0.777759 0
M  V30 4243 H 407.14 1.98202 2.44056 0
M  V30 4244 N 410.912 0.523116 1.48665 0
M  V30 4245 C 412.323 0.0808997 1.86525 0
M  V30 4246 C 412.674 -1.33975 1.43336 0
M  V30 4247 O 411.799 -2.00221 0.821009 0
M  V30 4248 C 412.394 0.140037 3.3851 0
M  V30 4249 C 410.953 -0.246948 3.75589 0
M  V30 4250 C 410.1 0.502845 2.72703 0
M  V30 4251 H 413.051 0.734736 1.40667 0
M  V30 4252 H 413.072 -0.649945 3.74908 0
M  V30 4253 H 412.584 1.17412 3.69914 0
M  V30 4254 H 410.685 -1.28343 3.49798 0
M  V30 4255 H 410.798 0.0878859 4.79019 0
M  V30 4256 H 409.162 -0.0500581 2.54651 0
M  V30 4257 H 409.945 1.53743 3.0695 0
M  V30 4258 N 412.39 -1.55475 0.257931 0
M  V30 4259 C 413.639 -1.98383 -0.364275 0
M  V30 4260 C 413.952 -1.14952 -1.58258 0
M  V30 4261 O 415.158 -1.47924 -2.27664 0
M  V30 4262 C 413.614 -3.53037 -0.699479 0
M  V30 4263 C 413.222 -4.45223 0.498046 0
M  V30 4264 C 414.966 -4.04575 -1.28526 0
M  V30 4265 C 412.873 -5.91238 0.138383 0
M  V30 4266 H 411.803 -0.740911 -0.13988 0
M  V30 4267 H 414.454 -1.79936 0.359883 0
M  V30 4268 H 412.836 -3.6722 -1.48207 0
M  V30 4269 H 414.01 -4.42803 1.27522 0
M  V30 4270 H 412.325 -4.04226 0.999503 0
M  V30 4271 H 414.922 -5.11196 -1.56788 0
M  V30 4272 H 415.265 -3.5258 -2.21344 0
M  V30 4273 H 415.798 -3.93762 -0.565337 0
M  V30 4274 H 412.537 -6.47294 1.03398 0
M  V30 4275 H 412.057 -5.96768 -0.602374 0
M  V30 4276 H 413.736 -6.46413 -0.27553 0
M  V30 4277 N 413.868 0.0150385 -1.57593 0
M  V30 4278 C 415.093 0.718067 -1.94573 0
M  V30 4279 C 415.518 1.6734 -0.859005 0
M  V30 4280 O 414.876 1.80362 0.184147 0
M  V30 4281 C 414.924 1.43918 -3.30636 0
M  V30 4282 O 414.028 2.55299 -3.23876 0
M  V30 4283 H 413.369 0.192125 -0.635597 0
M  V30 4284 H 415.899 -0.0336708 -2.04572 0
M  V30 4285 H 415.909 1.80598 -3.65853 0
M  V30 4286 H 414.584 0.738619 -4.09289 0
M  V30 4287 H 413.161 2.21058 -3.00312 0
M  V30 4288 N 415.346 1.54954 0.287554 0
M  V30 4289 C 416.592 1.75132 1.02257 0
M  V30 4290 C 416.925 0.542858 1.86458 0
M  V30 4291 O 416.2 -0.459856 1.88986 0
M  V30 4292 C 416.483 3.04812 1.91733 0
M  V30 4293 C 416.336 4.35985 1.10622 0
M  V30 4294 C 417.655 3.30438 2.90687 0
M  V30 4295 H 414.774 0.637194 0.370341 0
M  V30 4296 H 417.416 1.87678 0.296111 0
M  V30 4297 H 415.566 2.94247 2.53675 0
M  V30 4298 H 417.238 4.58487 0.508636 0
M  V30 4299 H 415.481 4.31865 0.409271 0
M  V30 4300 H 416.152 5.23017 1.76513 0
M  V30 4301 H 418.628 3.40701 2.38877 0
M  V30 4302 H 417.504 4.22467 3.50447 0
M  V30 4303 H 417.765 2.49377 3.65053 0
M  V30 4304 N 416.824 -0.551391 1.4764 0
M  V30 4305 C 418.235 -1.13349 1.48354 0
M  V30 4306 C 418.586 -1.94709 0.241432 0
M  V30 4307 O 417.711 -2.06306 -0.653205 0
M  V30 4308 C 418.306 -2.0623 2.68802 0
M  V30 4309 C 416.865 -2.597 2.72457 0
M  V30 4310 C 416.012 -1.36201 2.41546 0
M  V30 4311 H 418.963 -0.337698 1.55065 0
M  V30 4312 H 418.984 -2.90196 2.46103 0
M  V30 4313 H 418.496 -1.46987 3.59188 0
M  V30 4314 H 416.597 -3.22724 1.86225 0
M  V30 4315 H 416.71 -3.00296 3.73308 0
M  V30 4316 H 415.074 -1.67068 1.9225 0
M  V30 4317 H 415.857 -0.787425 3.34147 0
M  V30 4318 N 418.302 -1.35869 -0.798587 0
M  V30 4319 C 419.232 -1.32118 -1.92528 0
M  V30 4320 C 420.213 -0.194209 -1.68988 0
M  V30 4321 O 421.398 -0.390426 -1.90235 0
M  V30 4322 C 418.528 -1.10047 -3.29404 0
M  V30 4323 C 417.482 -2.19471 -3.67446 0
M  V30 4324 C 416.808 -1.82555 -5.02571 0
M  V30 4325 C 418.108 -3.61495 -3.76987 0
M  V30 4326 H 419.802 -2.26394 -1.95924 0
M  V30 4327 H 417.348 -1.08981 -0.94123 0
M  V30 4328 H 419.301 -1.06061 -4.07835 0
M  V30 4329 H 418.025 -0.122195 -3.26371 0
M  V30 4330 H 416.684 -2.22568 -2.91306 0
M  V30 4331 H 416.332 -0.833249 -4.9605 0
M  V30 4332 H 416.032 -2.5581 -5.28995 0
M  V30 4333 H 417.556 -1.80108 -5.83432 0
M  V30 4334 H 418.97 -3.60676 -4.4563 0
M  V30 4335 H 417.367 -4.33577 -4.14887 0
M  V30 4336 H 418.437 -3.97065 -2.78329 0
M  V30 4337 N 419.78 1.02168 -1.19998 0
M  V30 4338 C 421.196 1.27969 -0.953737 0
M  V30 4339 C 421.396 1.98079 0.369703 0
M  V30 4340 O 420.452 2.27306 1.09947 0
M  V30 4341 C 421.765 2.11971 -2.13281 0
M  V30 4342 C 423.313 2.25255 -2.17323 0
M  V30 4343 C 423.788 3.12632 -3.34702 0
M  V30 4344 N 425.279 3.2022 -3.34684 0
M  V30 4345 C 426.014 3.88039 -4.22153 0
M  V30 4346 N 425.51 4.58027 -5.19791 0
M  V30 4347 N 427.303 3.84511 -4.10009 0
M  V30 4348 H 419.454 0.550794 -2.05134 0
M  V30 4349 H 421.717 0.305683 -0.897364 0
M  V30 4350 H 421.423 1.67785 -3.09097 0
M  V30 4351 H 421.297 3.12699 -2.10949 0
M  V30 4352 H 423.684 2.68667 -1.22073 0
M  V30 4353 H 423.765 1.24053 -2.23706 0
M  V30 4354 H 423.409 2.69926 -4.30235 0
M  V30 4355 H 423.339 4.13909 -3.25556 0
M  V30 4356 H 425.83 2.70382 -2.64012 0
M  V30 4357 H 426.143 5.07429 -5.82868 0
M  V30 4358 H 424.488 4.56869 -5.23733 0
M  V30 4359 H 427.679 3.28978 -3.33003 0
M  V30 4360 H 427.852 4.3709 -4.78389 0
M  V30 4361 N 421.258 1.00505 1.21394 0
M  V30 4362 C 422.674 0.717873 1.42544 0
M  V30 4363 C 422.874 -0.706936 1.88692 0
M  V30 4364 O 421.93 -1.47627 2.04847 0
M  V30 4365 C 423.243 1.73377 2.45684 0
M  V30 4366 C 424.791 1.75059 2.59467 0
M  V30 4367 C 425.266 2.75545 3.6584 0
M  V30 4368 N 426.757 2.74213 3.73311 0
M  V30 4369 C 427.492 3.48626 4.55245 0
M  V30 4370 N 426.988 4.32678 5.41075 0
M  V30 4371 N 428.781 3.37276 4.49668 0
M  V30 4372 H 420.932 1.92506 0.897503 0
M  V30 4373 H 423.195 0.830919 0.456375 0
M  V30 4374 H 422.901 2.75395 2.18748 0
M  V30 4375 H 422.775 1.53647 3.44489 0
M  V30 4376 H 425.162 0.737337 2.8574 0
M  V30 4377 H 425.243 1.98861 1.60897 0
M  V30 4378 H 424.887 3.77028 3.40313 0
M  V30 4379 H 424.817 2.49009 4.64007 0
M  V30 4380 H 427.308 2.13234 3.11993 0
M  V30 4381 H 427.621 4.86253 6.00648 0
M  V30 4382 H 425.966 4.3676 5.40616 0
M  V30 4383 H 429.157 2.71043 3.81646 0
M  V30 4384 H 429.33 3.95524 5.13288 0
M  V30 4385 N 422.737 -1.36956 0.779787 0
M  V30 4386 C 423.687 -2.27539 0.144892 0
M  V30 4387 C 424.671 -1.46493 -0.665488 0
M  V30 4388 O 425.863 -1.68968 -0.527141 0
M  V30 4389 C 422.992 -3.35512 -0.727082 0
M  V30 4390 C 422.078 -4.24001 0.0915642 0
M  V30 4391 N 422.469 -4.92757 1.14125 0
M  V30 4392 C 420.767 -4.45807 -0.131141 0
M  V30 4393 C 421.468 -5.58138 1.6388 0
M  V30 4394 N 420.444 -5.35241 0.94962 0
M  V30 4395 H 424.246 -2.78176 0.948446 0
M  V30 4396 H 421.76 -1.50169 0.618315 0
M  V30 4397 H 423.757 -3.99324 -1.19776 0
M  V30 4398 H 422.417 -2.86431 -1.52929 0
M  V30 4399 H 423.428 -4.94984 1.52353 0
M  V30 4400 H 420.105 -4.07582 -0.904621 0
M  V30 4401 H 421.495 -6.23071 2.51461 0
M  V30 4402 N 424.215 -0.530993 -1.48385 0
M  V30 4403 C 425.165 0.251092 -2.26613 0
M  V30 4404 C 426.149 0.908977 -1.32765 0
M  V30 4405 O 427.341 0.811616 -1.57295 0
M  V30 4406 C 424.47 1.29677 -3.17866 0
M  V30 4407 C 423.556 0.643627 -4.19188 0
M  V30 4408 N 423.947 -0.271223 -5.05072 0
M  V30 4409 C 422.245 0.900711 -4.3681 0
M  V30 4410 C 422.946 -0.648109 -5.78078 0
M  V30 4411 N 421.922 -0.00895987 -5.43599 0
M  V30 4412 H 425.724 -0.452702 -2.90393 0
M  V30 4413 H 423.238 -0.349091 -1.58604 0
M  V30 4414 H 425.235 1.87079 -3.72568 0
M  V30 4415 H 423.895 2.00193 -2.55642 0
M  V30 4416 H 424.906 -0.643883 -5.13882 0
M  V30 4417 H 421.583 1.59636 -3.85775 0
M  V30 4418 H 422.973 -1.39833 -6.57188 0
M  V30 4419 N 425.693 1.55336 -0.266172 0
M  V30 4420 C 426.623 2.25146 0.618981 0
M  V30 4421 C 427.604 1.23845 1.16604 0
M  V30 4422 O 428.789 1.52544 1.20183 0
M  V30 4423 C 425.919 2.96572 1.80728 0
M  V30 4424 C 424.873 4.04726 1.39215 0
M  V30 4425 C 424.199 4.63678 2.66283 0
M  V30 4426 C 425.499 5.19407 0.548942 0
M  V30 4427 H 427.193 2.99377 0.0368116 0
M  V30 4428 H 424.739 1.43991 0.0162651 0
M  V30 4429 H 426.692 3.44116 2.43232 0
M  V30 4430 H 425.416 2.19861 2.41514 0
M  V30 4431 H 424.075 3.57979 0.790351 0
M  V30 4432 H 423.723 3.83646 3.25308 0
M  V30 4433 H 423.423 5.367 2.39222 0
M  V30 4434 H 424.947 5.13967 3.29651 0
M  V30 4435 H 426.361 5.63059 1.07876 0
M  V30 4436 H 424.758 5.98936 0.373593 0
M  V30 4437 H 425.828 4.8295 -0.434394 0
M  V30 4438 N 427.171 -0.0066808 1.57599 0
M  V30 4439 C 428.119 -1.01851 2.09115 0
M  V30 4440 C 429.113 -1.36021 1.00969 0
M  V30 4441 O 430.319 -1.34663 1.19439 0
M  V30 4442 H 426.694 -0.346083 0.667631 0
M  V30 4443 H 428.665 -0.558394 2.93129 0
M  V30 4444 C 427.414 -2.30374 2.60429 0
M  V30 4445 H 426.737 -2.04947 3.43273 0
M  V30 4446 H 428.177 -2.99466 3.00161 0
M  V30 4447 C 426.636 -3.00893 1.51542 0
M  V30 4448 O 427.166 -3.91614 0.894484 0
M  V30 4449 N 425.372 -2.62603 1.2445 0
M  V30 4450 H 424.919 -1.88911 1.75129 0
M  V30 4451 H 424.877 -3.10101 0.518137 0
M  V30 4452 N 428.649 -1.55105 -0.279332 0
M  V30 4453 C 429.597 -1.88333 -1.36505 0
M  V30 4454 C 430.591 -0.759043 -1.51443 0
M  V30 4455 O 431.797 -0.943312 -1.53302 0
M  V30 4456 H 428.172 -0.59766 -0.456406 0
M  V30 4457 H 430.143 -2.79041 -1.05728 0
M  V30 4458 C 428.892 -2.16628 -2.7197 0
M  V30 4459 H 428.215 -3.02624 -2.61264 0
M  V30 4460 H 429.655 -2.43803 -3.46895 0
M  V30 4461 C 428.114 -0.971807 -3.22579 0
M  V30 4462 O 428.644 -0.203228 -4.01186 0
M  V30 4463 N 426.85 -0.771238 -2.80179 0
M  V30 4464 H 426.397 -1.39792 -2.1637 0
M  V30 4465 H 426.355 0.0263667 -3.14389 0
M  V30 4466 N 430.127 0.543554 -1.4793 0
M  V30 4467 C 431.538 1.12561 -1.48953 0
M  V30 4468 C 431.889 1.94578 -0.251754 0
M  V30 4469 O 431.014 2.0665 0.642255 0
M  V30 4470 C 431.609 2.04801 -2.69892 0
M  V30 4471 C 430.168 2.58251 -2.73831 0
M  V30 4472 C 429.315 1.34918 -2.42265 0
M  V30 4473 H 432.266 0.32947 -1.55242 0
M  V30 4474 H 432.287 2.88886 -2.47639 0
M  V30 4475 H 431.799 1.4508 -3.59963 0
M  V30 4476 H 429.9 3.21732 -1.87934 0
M  V30 4477 H 430.013 2.98312 -3.74895 0
M  V30 4478 H 428.377 1.66046 -1.93134 0
M  V30 4479 H 429.16 0.769693 -3.3456 0
M  V30 4480 N 431.605 1.3629 0.791371 0
M  V30 4481 C 433.016 1.27225 1.36641 0
M  V30 4482 C 433.367 -0.0887968 1.95999 0
M  V30 4483 O 432.492 -0.990207 1.92416 0
M  V30 4484 C 433.087 2.30375 2.48421 0
M  V30 4485 C 431.646 2.25004 3.01746 0
M  V30 4486 C 430.793 2.15259 1.7481 0
M  V30 4487 H 433.744 1.47198 0.593173 0
M  V30 4488 H 433.765 1.93905 3.27385 0
M  V30 4489 H 433.277 3.29422 2.05189 0
M  V30 4490 H 431.378 1.29417 3.49403 0
M  V30 4491 H 431.491 3.1761 3.58693 0
M  V30 4492 H 429.855 1.61482 1.96966 0
M  V30 4493 H 430.638 3.16191 1.33709 0
M  V30 4494 N 433.083 -1.0153 1.20538 0
M  V30 4495 C 434.494 -1.56598 1.01657 0
M  V30 4496 C 434.845 -1.91505 -0.426668 0
M  V30 4497 O 433.97 -1.72375 -1.30827 0
M  V30 4498 C 434.565 -2.84542 1.83905 0
M  V30 4499 C 433.124 -3.36133 1.69386 0
M  V30 4500 C 432.271 -2.09427 1.81757 0
M  V30 4501 H 435.222 -0.838974 1.34711 0
M  V30 4502 H 435.243 -3.56004 1.34319 0
M  V30 4503 H 434.755 -2.59105 2.8894 0
M  V30 4504 H 432.856 -3.66528 0.669933 0
M  V30 4505 H 432.969 -4.08248 2.50739 0
M  V30 4506 H 431.333 -2.21941 1.24957 0
M  V30 4507 H 432.116 -1.86414 2.88279 0
M  V30 4508 N 434.561 -1.01147 -1.20859 0
M  V30 4509 C 435.786 -0.716698 -1.94623 0
M  V30 4510 C 436.211 0.715415 -1.73964 0
M  V30 4511 O 435.569 1.49157 -1.03062 0
M  V30 4512 C 435.617 -1.0513 -3.44935 0
M  V30 4513 O 434.721 -0.160131 -4.12089 0
M  V30 4514 H 434.062 -0.266404 -0.608214 0
M  V30 4515 H 436.592 -1.35346 -1.53436 0
M  V30 4516 H 436.602 -1.00086 -3.95533 0
M  V30 4517 H 435.277 -2.09475 -3.59295 0
M  V30 4518 H 433.854 -0.267657 -3.71938 0
M  V30 4519 N 436.039 1.36541 -0.78704 0
M  V30 4520 C 436.971 2.28761 -0.141773 0
M  V30 4521 C 437.984 1.49365 0.647599 0
M  V30 4522 O 439.173 1.71836 0.483173 0
M  V30 4523 C 436.273 3.28771 0.822368 0
M  V30 4524 C 435.446 4.3732 0.0835594 0
M  V30 4525 C 434.505 5.17307 0.963296 0
M  V30 4526 O 433.531 5.67638 0.421419 0
M  V30 4527 N 434.733 5.33515 2.28784 0
M  V30 4528 H 437.498 2.84777 -0.933919 0
M  V30 4529 H 435.059 1.48682 -0.640735 0
M  V30 4530 H 437.051 3.79169 1.41468 0
M  V30 4531 H 435.621 2.73412 1.5154 0
M  V30 4532 H 434.841 3.88118 -0.689809 0
M  V30 4533 H 436.129 5.0701 -0.426358 0
M  V30 4534 H 435.527 4.94234 2.75226 0
M  V30 4535 H 434.084 5.87165 2.82985 0
M  V30 4536 N 437.518 0.538854 1.48102 0
M  V30 4537 C 438.764 0.00801365 2.02798 0
M  V30 4538 C 439.097 -1.3309 1.41424 0
M  V30 4539 O 438.372 -1.86169 0.563158 0
M  V30 4540 C 438.655 -0.104589 3.59948 0
M  V30 4541 C 438.508 1.26012 4.31788 0
M  V30 4542 C 439.827 -0.827055 4.32259 0
M  V30 4543 H 436.946 0.00438624 0.736987 0
M  V30 4544 H 439.588 0.6976 1.7673 0
M  V30 4545 H 437.738 -0.691893 3.82289 0
M  V30 4546 H 439.41 1.88922 4.2084 0
M  V30 4547 H 437.653 1.83968 3.92859 0
M  V30 4548 H 438.324 1.13424 5.40221 0
M  V30 4549 H 440.8 -0.328578 4.14801 0
M  V30 4550 H 439.676 -0.87476 5.41885 0
M  V30 4551 H 439.937 -1.87927 4.0017 0
M  V30 4552 N 438.996 -1.55193 0.274407 0
M  V30 4553 C 440.244 -1.99187 -0.341902 0
M  V30 4554 C 440.565 -1.16422 -1.56431 0
M  V30 4555 O 439.835 -0.253573 -1.94252 0
M  V30 4556 H 438.415 -0.735721 -0.129317 0
M  V30 4557 H 441.077 -1.91168 0.379578 0
M  V30 4558 H 440.173 -3.05629 -0.632253 0
M  V30 4559 N 440.474 -0.00167713 -1.576 0
M  V30 4560 C 441.404 0.988091 -2.11563 0
M  V30 4561 C 442.385 1.35736 -1.02517 0
M  V30 4562 O 443.57 1.44082 -1.30208 0
M  V30 4563 C 440.7 2.27941 -2.62031 0
M  V30 4564 C 439.654 2.0517 -3.75619 0
M  V30 4565 C 438.98 3.4033 -4.12407 0
M  V30 4566 C 440.28 1.41294 -5.02825 0
M  V30 4567 H 441.974 0.538771 -2.94513 0
M  V30 4568 H 439.52 0.257712 -1.41675 0
M  V30 4569 H 441.473 2.97539 -2.9841 0
M  V30 4570 H 440.197 2.74989 -1.76205 0
M  V30 4571 H 438.856 1.37998 -3.39635 0
M  V30 4572 H 438.504 3.85085 -3.23603 0
M  V30 4573 H 438.204 3.25909 -4.88935 0
M  V30 4574 H 439.728 4.1124 -4.51347 0
M  V30 4575 H 441.142 2.00851 -5.36965 0
M  V30 4576 H 439.539 1.37356 -5.84169 0
M  V30 4577 H 440.609 0.382362 -4.8339 0
M  V30 4578 N 441.952 1.55251 0.271103 0
M  V30 4579 C 443.18 1.79974 1.02064 0
M  V30 4580 C 443.595 0.574003 1.79863 0
M  V30 4581 O 442.952 -0.456962 1.76686 0
M  V30 4582 C 443.003 3.02603 1.97772 0
M  V30 4583 O 442.724 4.20443 1.23124 0
M  V30 4584 C 444.225 3.39944 2.84522 0
M  V30 4585 H 441.445 0.599489 0.301419 0
M  V30 4586 H 443.989 2.02268 0.301313 0
M  V30 4587 H 442.144 2.8243 2.65165 0
M  V30 4588 H 442.558 4.89783 1.87651 0
M  V30 4589 H 444.032 4.28915 3.47471 0
M  V30 4590 H 444.509 2.59432 3.54389 0
M  V30 4591 H 445.115 3.62383 2.22618 0
M  V30 4592 N 443.43 -0.535701 1.48216 0
M  V30 4593 C 444.846 -0.863701 1.3421 0
M  V30 4594 C 445.046 -1.98458 0.34879 0
M  V30 4595 O 444.102 -2.51432 -0.23204 0
M  V30 4596 C 445.415 -1.23662 2.74095 0
M  V30 4597 C 446.963 -1.34683 2.82541 0
M  V30 4598 C 447.438 -1.75322 4.23115 0
M  V30 4599 N 448.929 -1.82434 4.2576 0
M  V30 4600 C 449.664 -2.15252 5.31464 0
M  V30 4601 N 449.16 -2.46533 6.47452 0
M  V30 4602 N 450.953 -2.16209 5.18855 0
M  V30 4603 H 443.104 0.203965 2.11418 0
M  V30 4604 H 445.367 0.0286033 0.947568 0
M  V30 4605 H 445.073 -0.486674 3.48316 0
M  V30 4606 H 444.947 -2.18805 3.07253 0
M  V30 4607 H 447.334 -2.08756 2.08579 0
M  V30 4608 H 447.415 -0.376756 2.5301 0
M  V30 4609 H 447.059 -1.01812 4.97591 0
M  V30 4610 H 446.989 -2.7337 4.50085 0
M  V30 4611 H 449.48 -1.6056 3.42095 0
M  V30 4612 H 449.793 -2.70662 7.23852 0
M  V30 4613 H 448.138 -2.44065 6.50736 0
M  V30 4614 H 451.329 -1.91224 4.2726 0
M  V30 4615 H 451.502 -2.41453 6.01335 0
M  V30 4616 N 444.908 -1.36708 -0.784132 0
M  V30 4617 C 446.324 -1.17237 -1.08294 0
M  V30 4618 C 446.524 -5.93947e-05 -2.015 0
M  V30 4619 O 445.58 0.663686 -2.43622 0
M  V30 4620 C 446.893 -2.48557 -1.69233 0
M  V30 4621 C 448.441 -2.54968 -1.8155 0
M  V30 4622 C 448.916 -3.86388 -2.45904 0
M  V30 4623 N 450.407 -3.87762 -2.53367 0
M  V30 4624 C 451.142 -4.86191 -3.03983 0
M  V30 4625 N 450.638 -5.95015 -3.54866 0
M  V30 4626 N 452.431 -4.73606 -3.02743 0
M  V30 4627 H 444.582 -2.11758 -0.16501 0
M  V30 4628 H 446.845 -0.93822 -0.135822 0
M  V30 4629 H 446.551 -3.34638 -1.08215 0
M  V30 4630 H 446.425 -2.64748 -2.68679 0
M  V30 4631 H 448.812 -1.69302 -2.41704 0
M  V30 4632 H 448.893 -2.42672 -0.80895 0
M  V30 4633 H 448.537 -4.72462 -1.86392 0
M  V30 4634 H 448.467 -3.95982 -3.4714 0
M  V30 4635 H 450.958 -3.09145 -2.17343 0
M  V30 4636 H 451.271 -6.66086 -3.91854 0
M  V30 4637 H 449.616 -5.98676 -3.53003 0
M  V30 4638 H 452.807 -3.87717 -2.62284 0
M  V30 4639 H 452.98 -5.50473 -3.41881 0
M  V30 4640 N 446.386 1.0089 -1.21074 0
M  V30 4641 C 447.611 1.78727 -1.05221 0
M  V30 4642 C 448.036 1.83932 0.393795 0
M  V30 4643 O 447.394 1.28004 1.28393 0
M  V30 4644 C 447.442 3.20665 -1.64944 0
M  V30 4645 O 446.546 4.02632 -0.892273 0
M  V30 4646 H 445.887 0.550973 -0.370574 0
M  V30 4647 H 448.417 1.26847 -1.60534 0
M  V30 4648 H 448.427 3.71352 -1.69002 0
M  V30 4649 H 447.102 3.16191 -2.70177 0
M  V30 4650 H 445.679 3.61207 -0.926492 0
M  V30 4651 N 447.864 1.01787 1.20321 0
M  V30 4652 C 449.28 0.732951 1.41774 0
M  V30 4653 C 449.48 -0.686883 1.89431 0
M  V30 4654 O 448.536 -1.45446 2.06402 0
M  V30 4655 C 449.849 1.75973 2.43832 0
M  V30 4656 C 451.397 1.77802 2.57596 0
M  V30 4657 C 451.872 2.7941 3.62897 0
M  V30 4658 N 453.363 2.78157 3.70382 0
M  V30 4659 C 454.098 3.53434 4.51521 0
M  V30 4660 N 453.594 4.38392 5.36455 0
M  V30 4661 N 455.387 3.42026 4.46066 0
M  V30 4662 H 447.538 1.93447 0.877035 0
M  V30 4663 H 449.801 0.835712 0.447536 0
M  V30 4664 H 449.507 2.77699 2.15815 0
M  V30 4665 H 449.381 1.57292 3.4284 0
M  V30 4666 H 451.768 0.767602 2.84942 0
M  V30 4667 H 451.849 2.00557 1.58779 0
M  V30 4668 H 451.493 3.80616 3.36295 0
M  V30 4669 H 451.423 2.53916 4.61339 0
M  V30 4670 H 453.914 2.16531 3.09714 0
M  V30 4671 H 454.227 4.92596 5.95457 0
M  V30 4672 H 452.572 4.4247 5.35953 0
M  V30 4673 H 455.763 2.75075 3.78749 0
M  V30 4674 H 455.936 4.00946 5.09064 0
M  V30 4675 N 449.342 -1.36122 0.79427 0
M  V30 4676 C 450.57 -2.03362 0.380989 0
M  V30 4677 C 450.985 -1.59881 -1.00416 0
M  V30 4678 O 450.342 -0.790515 -1.6449 0
M  V30 4679 C 450.393 -3.58804 0.440649 0
M  V30 4680 O 450.114 -4.007 1.77118 0
M  V30 4681 C 451.615 -4.43296 0.0186117 0
M  V30 4682 H 448.835 -0.652526 0.156367 0
M  V30 4683 H 451.379 -1.73998 1.07447 0
M  V30 4684 H 449.534 -3.8686 -0.204458 0
M  V30 4685 H 449.948 -4.95309 1.72538 0
M  V30 4686 H 451.422 -5.51887 0.111488 0
M  V30 4687 H 451.899 -4.2684 -1.03461 0
M  V30 4688 H 452.505 -4.20512 0.636395 0
M  V30 4689 N 450.82 -0.546701 -1.47814 0
M  V30 4690 C 451.73 0.21026 -2.33656 0
M  V30 4691 C 452.746 0.922413 -1.47538 0
M  V30 4692 O 453.922 0.893652 -1.80488 0
M  V30 4693 C 450.987 1.23348 -3.24016 0
M  V30 4694 C 450.048 0.529883 -4.26017 0
M  V30 4695 C 449.281 1.50435 -5.12059 0
M  V30 4696 O 449.504 2.73837 -5.00369 0
M  V30 4697 O 448.438 1.03459 -5.92942 0
M  V30 4698 H 452.264 -0.493605 -2.99662 0
M  V30 4699 H 449.849 -0.307427 -1.46203 0
M  V30 4700 H 451.731 1.82438 -3.79861 0
M  V30 4701 H 450.406 1.91945 -2.60651 0
M  V30 4702 H 449.313 -0.101948 -3.73961 0
M  V30 4703 H 450.646 -0.11445 -4.92067 0
M  V30 4704 N 452.299 1.55045 -0.282633 0
M  V30 4705 C 453.524 2.04628 0.337977 0
M  V30 4706 C 453.949 1.15937 1.48123 0
M  V30 4707 O 453.307 0.159532 1.80597 0
M  V30 4708 C 453.355 3.51854 0.78936 0
M  V30 4709 O 452.459 3.66236 1.89592 0
M  V30 4710 H 451.8 0.660434 0.0687261 0
M  V30 4711 H 454.33 2.00261 -0.419124 0
M  V30 4712 H 454.34 3.93361 1.08311 0
M  V30 4713 H 453.015 4.15873 -0.0470419 0
M  V30 4714 H 451.592 3.36633 1.60413 0
M  V30 4715 N 453.777 0.010035 1.57597 0
M  V30 4716 C 455.026 -0.671945 1.90178 0
M  V30 4717 C 455.339 -1.74376 0.886131 0
M  V30 4718 O 456.545 -2.48107 1.10252 0
M  V30 4719 C 455.001 -1.24636 3.3763 0
M  V30 4720 C 454.609 -0.208838 4.47513 0
M  V30 4721 C 456.353 -1.90595 3.79307 0
M  V30 4722 C 454.26 -0.793814 5.86048 0
M  V30 4723 H 453.19 -0.25474 0.709665 0
M  V30 4724 H 455.841 0.0722206 1.83358 0
M  V30 4725 H 454.223 -2.04152 3.3932 0
M  V30 4726 H 455.397 0.562463 4.57354 0
M  V30 4727 H 453.712 0.350889 4.14919 0
M  V30 4728 H 456.309 -2.35284 4.80151 0
M  V30 4729 H 456.652 -2.74074 3.13352 0
M  V30 4730 H 457.185 -1.17798 3.79958 0
M  V30 4731 H 453.924 0.00240855 6.555 0
M  V30 4732 H 453.444 -1.53404 5.79851 0
M  V30 4733 H 455.123 -1.2894 6.34022 0
M  V30 4734 N 455.255 -1.55392 -0.262866 0
M  V30 4735 C 456.483 -1.80513 -1.01108 0
M  V30 4736 C 456.898 -0.583533 -1.79556 0
M  V30 4737 O 456.255 0.447585 -1.76926 0
M  V30 4738 C 456.306 -3.03648 -1.96164 0
M  V30 4739 O 456.027 -4.2109 -1.20893 0
M  V30 4740 C 457.528 -3.41448 -2.82715 0
M  V30 4741 H 454.748 -0.601079 -0.298236 0
M  V30 4742 H 457.292 -2.02425 -0.290582 0
M  V30 4743 H 455.447 -2.83832 -2.63663 0
M  V30 4744 H 455.861 -4.90771 -1.85051 0
M  V30 4745 H 457.335 -4.30751 -3.45192 0
M  V30 4746 H 457.812 -2.61308 -3.53008 0
M  V30 4747 H 458.418 -3.63559 -2.20693 0
M  V30 4748 N 456.733 0.527833 -1.48498 0
M  V30 4749 C 457.696 1.61439 -1.62696 0
M  V30 4750 C 458.696 1.52824 -0.500136 0
M  V30 4751 O 459.886 1.56456 -0.765976 0
M  V30 4752 C 457.018 3.01063 -1.59918 0
M  V30 4753 H 458.211 1.50189 -2.59583 0
M  V30 4754 H 455.764 0.750055 -1.37127 0
M  V30 4755 H 456.499 3.17818 -0.645163 0
M  V30 4756 H 456.284 3.08725 -2.41726 0
M  V30 4757 H 457.774 3.80057 -1.73051 0
M  V30 4758 N 458.211 1.37122 0.776871 0
M  V30 4759 C 459.439 1.3523 1.5659 0
M  V30 4760 C 459.854 -0.0635518 1.88693 0
M  V30 4761 O 459.211 -1.02394 1.51069 0
M  V30 4762 C 459.262 2.18583 2.8793 0
M  V30 4763 O 458.983 3.5465 2.57206 0
M  V30 4764 C 460.484 2.24612 3.82183 0
M  V30 4765 H 457.704 0.4634 0.485285 0
M  V30 4766 H 460.248 1.80392 0.963266 0
M  V30 4767 H 458.403 1.76943 3.4463 0
M  V30 4768 H 458.817 3.98286 3.41275 0
M  V30 4769 H 460.291 2.87267 4.71361 0
M  V30 4770 H 460.768 1.25309 4.20944 0
M  V30 4771 H 461.374 2.66543 3.31414 0
M  V30 4772 N 459.689 -1.00246 1.21608 0
M  V30 4773 C 460.914 -1.78167 1.06167 0
M  V30 4774 C 461.339 -1.84138 -0.384035 0
M  V30 4775 O 460.697 -1.28683 -1.27712 0
M  V30 4776 C 460.745 -3.19786 1.66642 0
M  V30 4777 O 459.849 -4.02153 0.913613 0
M  V30 4778 H 459.19 -0.549 0.37349 0
M  V30 4779 H 461.72 -1.25994 1.61204 0
M  V30 4780 H 461.73 -3.70451 1.70969 0
M  V30 4781 H 460.405 -3.14754 2.7185 0
M  V30 4782 H 458.982 -3.60711 0.945635 0
M  V30 4783 N 461.167 -1.02423 -1.1978 0
M  V30 4784 C 462.578 -0.748389 -1.71044 0
M  V30 4785 C 462.929 0.732398 -1.82017 0
M  V30 4786 O 462.054 1.57116 -1.48807 0
M  V30 4787 C 462.649 -1.35187 -3.1066 0
M  V30 4788 C 461.208 -1.12472 -3.59203 0
M  V30 4789 C 460.355 -1.45283 -2.36195 0
M  V30 4790 H 463.306 -1.19275 -1.04686 0
M  V30 4791 H 463.327 -0.746408 -3.73107 0
M  V30 4792 H 462.839 -2.4296 -3.02642 0
M  V30 4793 H 460.94 -0.0649983 -3.72543 0
M  V30 4794 H 461.053 -1.81016 -4.43588 0
M  V30 4795 H 459.417 -0.872034 -2.39307 0
M  V30 4796 H 460.2 -2.54129 -2.30811 0
M  V30 4797 N 462.645 1.35699 -0.801477 0
M  V30 4798 C 463.608 2.28199 -0.213994 0
M  V30 4799 C 464.608 1.49359 0.595691 0
M  V30 4800 O 465.798 1.69186 0.414921 0
M  V30 4801 C 462.93 3.33587 0.702297 0
M  V30 4802 H 464.123 2.81666 -1.02976 0
M  V30 4803 H 461.676 1.45467 -0.571759 0
M  V30 4804 H 462.411 2.85297 1.54195 0
M  V30 4805 H 462.196 3.91906 0.123484 0
M  V30 4806 H 463.686 4.02638 1.10783 0
M  V30 4807 N 464.123 0.554532 1.47522 0
M  V30 4808 C 465.348 0.0322661 2.07375 0
M  V30 4809 C 465.773 -1.25079 1.40488 0
M  V30 4810 O 465.131 -1.74859 0.47896 0
M  V30 4811 C 465.179 -0.149397 3.6029 0
M  V30 4812 O 464.283 -1.21259 3.9417 0
M  V30 4813 H 463.624 0.0501228 0.662106 0
M  V30 4814 H 466.154 0.769452 1.8958 0
M  V30 4815 H 466.164 -0.364437 4.06369 0
M  V30 4816 H 464.839 0.787743 4.08372 0
M  V30 4817 H 463.416 -0.97825 3.5984 0
M  V30 4818 N 465.601 -1.54893 0.290851 0
M  V30 4819 C 466.534 -2.19289 -0.631489 0
M  V30 4820 C 467.512 -1.15893 -1.14051 0
M  V30 4821 O 468.696 -1.4449 -1.21058 0
M  V30 4822 C 465.823 -2.82866 -1.86291 0
M  V30 4823 C 464.869 -3.997 -1.48801 0
M  V30 4824 S 465.702 -5.32641 -0.552644 0
M  V30 4825 C 466.858 -5.99696 -1.79209 0
M  V30 4826 H 467.091 -2.9718 -0.0843791 0
M  V30 4827 H 464.624 -1.54218 0.075031 0
M  V30 4828 H 466.582 -3.20124 -2.56964 0
M  V30 4829 H 465.243 -2.04839 -2.38117 0
M  V30 4830 H 464.436 -4.42932 -2.40473 0
M  V30 4831 H 464.038 -3.63947 -0.861321 0
M  V30 4832 H 466.33 -6.19886 -2.734 0
M  V30 4833 H 467.273 -6.94071 -1.40251 0
M  V30 4834 H 467.681 -5.29226 -1.96419 0
M  V30 4835 N 467.08 -0.0183926 -1.57589 0
M  V30 4836 C 468.326 0.663543 -1.91638 0
M  V30 4837 C 468.659 1.72392 -0.894134 0
M  V30 4838 O 467.934 1.94316 0.0846449 0
M  V30 4839 C 468.217 1.28984 -3.36207 0
M  V30 4840 C 468.07 0.239761 -4.49161 0
M  V30 4841 C 469.389 2.2109 -3.80536 0
M  V30 4842 H 466.508 0.239746 -0.696915 0
M  V30 4843 H 469.15 -0.073456 -1.89858 0
M  V30 4844 H 467.3 1.91799 -3.37854 0
M  V30 4845 H 468.972 -0.390119 -4.59647 0
M  V30 4846 H 467.215 -0.435972 -4.31604 0
M  V30 4847 H 467.886 0.717383 -5.47319 0
M  V30 4848 H 470.362 1.68273 -3.80557 0
M  V30 4849 H 469.238 2.61869 -4.82406 0
M  V30 4850 H 469.499 3.09764 -3.15434 0
M  V30 4851 N 468.558 1.5553 0.254621 0
M  V30 4852 C 469.806 1.7665 0.981793 0
M  V30 4853 C 470.127 0.580963 1.86145 0
M  V30 4854 O 469.397 -0.403537 1.91699 0
M  V30 4855 H 467.977 0.651475 0.365498 0
M  V30 4856 H 470.639 1.92958 0.274426 0
M  V30 4857 H 469.735 2.67486 1.60802 0
M  V30 4858 N 470.036 -0.519951 1.48776 0
M  V30 4859 C 471.284 -1.2727 1.56993 0
M  V30 4860 C 471.605 -1.9339 0.25004 0
M  V30 4861 O 470.875 -1.81822 -0.729216 0
M  V30 4862 H 469.455 -0.472732 0.578389 0
M  V30 4863 H 472.117 -0.604234 1.85297 0
M  V30 4864 H 471.213 -2.04669 2.3562 0
M  V30 4865 N 471.514 -1.37532 -0.769588 0
M  V30 4866 C 472.461 -1.3347 -1.88293 0
M  V30 4867 C 473.431 -0.199891 -1.64893 0
M  V30 4868 O 474.616 -0.389594 -1.8678 0
M  V30 4869 C 471.756 -1.14968 -3.25387 0
M  V30 4870 C 470.869 -2.37698 -3.60727 0
M  V30 4871 C 470.004 -2.12051 -4.8704 0
M  V30 4872 C 469.043 -3.30636 -5.15117 0
M  V30 4873 N 468.18 -3.04527 -6.3262 0
M  V30 4874 H 473.02 -2.28658 -1.911 0
M  V30 4875 H 470.557 -1.13622 -0.934257 0
M  V30 4876 H 472.515 -1.02261 -4.04473 0
M  V30 4877 H 471.145 -0.234263 -3.21949 0
M  V30 4878 H 470.197 -2.61137 -2.76608 0
M  V30 4879 H 471.509 -3.26131 -3.77413 0
M  V30 4880 H 470.663 -1.96388 -5.74035 0
M  V30 4881 H 469.402 -1.20959 -4.72462 0
M  V30 4882 H 468.407 -3.46836 -4.26597 0
M  V30 4883 H 469.632 -4.22582 -5.31603 0
M  V30 4884 H 467.578 -2.16067 -6.19396 0
M  V30 4885 H 467.495 -3.86503 -6.49732 0
M  V30 4886 H 468.763 -2.92485 -7.22546 0
M  V30 4887 N 472.992 0.995999 -1.22138 0
M  V30 4888 C 474.403 1.54961 -1.04135 0
M  V30 4889 C 474.754 1.92159 0.396147 0
M  V30 4890 O 473.879 1.74435 1.28069 0
M  V30 4891 C 474.474 2.81581 -1.88408 0
M  V30 4892 C 473.033 3.33396 -1.74712 0
M  V30 4893 C 472.18 2.06509 -1.85066 0
M  V30 4894 H 475.131 0.817436 -1.36028 0
M  V30 4895 H 475.152 3.53822 -1.39966 0
M  V30 4896 H 474.664 2.54476 -2.93025 0
M  V30 4897 H 472.765 3.65416 -0.728159 0
M  V30 4898 H 472.878 4.04208 -2.57202 0
M  V30 4899 H 471.242 2.19925 -1.28472 0
M  V30 4900 H 472.025 1.81804 -2.91208 0
M  V30 4901 N 474.47 1.03057 1.19235 0
M  V30 4902 C 475.718 0.726581 1.88587 0
M  V30 4903 C 476.039 -0.747227 1.80115 0
M  V30 4904 O 475.309 -1.53849 1.21274 0
M  V30 4905 H 473.889 0.265768 0.698124 0
M  V30 4906 H 476.551 1.30516 1.44746 0
M  V30 4907 H 475.647 1.0224 2.94879 0
M  V30 4908 N 475.948 -1.35272 0.808662 0
M  V30 4909 C 477.173 -2.03477 0.401475 0
M  V30 4910 C 477.598 -1.60537 -0.980279 0
M  V30 4911 O 476.956 -0.78304 -1.63518 0
M  V30 4912 C 477.004 -3.57181 0.495354 0
M  V30 4913 O 476.108 -4.09474 -0.490397 0
M  V30 4914 H 475.449 -0.642561 0.167366 0
M  V30 4915 H 477.979 -1.72824 1.09512 0
M  V30 4916 H 477.989 -4.06356 0.365912 0
M  V30 4917 H 476.664 -3.87784 1.5032 0
M  V30 4918 H 475.241 -3.71516 -0.321023 0
M  V30 4919 N 477.426 -0.562348 -1.47226 0
M  V30 4920 C 478.673 -0.0402165 -2.0246 0
M  V30 4921 C 479.001 1.31169 -1.43614 0
M  V30 4922 O 478.256 1.86805 -0.5833 0
M  V30 4923 C 478.555 0.0969817 -3.57268 0
M  V30 4924 C 478.221 -1.1847 -4.35058 0
M  V30 4925 C 476.883 -1.53588 -4.56031 0
M  V30 4926 C 479.235 -2.03378 -4.79882 0
M  V30 4927 C 476.563 -2.73452 -5.19077 0
M  V30 4928 C 478.915 -3.2245 -5.44251 0
M  V30 4929 C 477.579 -3.57876 -5.63455 0
M  V30 4930 H 476.849 -0.0147163 -0.740854 0
M  V30 4931 H 479.496 -0.734895 -1.76838 0
M  V30 4932 H 477.801 0.87466 -3.81912 0
M  V30 4933 H 479.498 0.516408 -3.97661 0
M  V30 4934 H 476.088 -0.90126 -4.19017 0
M  V30 4935 H 480.272 -1.77553 -4.63453 0
M  V30 4936 H 475.528 -3.01062 -5.32139 0
M  V30 4937 H 479.702 -3.88526 -5.77945 0
M  V30 4938 H 477.329 -4.50849 -6.12078 0
M  V30 4939 N 478.904 1.54736 -0.299062 0
M  V30 4940 C 480.32 1.59507 0.0543849 0
M  V30 4941 C 480.52 1.31606 1.52585 0
M  V30 4942 O 479.576 1.08853 2.27832 0
M  V30 4943 C 480.889 2.98751 -0.34181 0
M  V30 4944 C 482.437 3.1165 -0.290414 0
M  V30 4945 C 482.912 4.53199 -0.661402 0
M  V30 4946 N 484.403 4.59114 -0.613863 0
M  V30 4947 C 485.138 5.66709 -0.873417 0
M  V30 4948 N 484.634 6.82349 -1.19884 0
M  V30 4949 N 486.427 5.56369 -0.800608 0
M  V30 4950 H 478.578 1.71133 -1.25806 0
M  V30 4951 H 480.841 0.799186 -0.509908 0
M  V30 4952 H 480.547 3.24085 -1.36608 0
M  V30 4953 H 480.421 3.75961 0.305508 0
M  V30 4954 H 482.808 2.86066 0.724605 0
M  V30 4955 H 482.889 2.366 -0.972327 0
M  V30 4956 H 482.533 4.79513 -1.67422 0
M  V30 4957 H 482.463 5.26583 0.0425612 0
M  V30 4958 H 484.954 3.76053 -0.3732 0
M  V30 4959 H 485.267 7.60326 -1.38291 0
M  V30 4960 H 483.612 6.83906 -1.23685 0
M  V30 4961 H 486.803 4.64904 -0.546045 0
M  V30 4962 H 486.976 6.40139 -1.00626 0
M  V30 4963 N 480.382 0.0267497 1.57577 0
M  V30 4964 C 481.628 -0.653371 1.91987 0
M  V30 4965 C 481.961 -1.71915 0.903263 0
M  V30 4966 O 481.236 -1.94358 -0.0743387 0
M  V30 4967 C 481.519 -1.272 3.36886 0
M  V30 4968 C 481.372 -0.215938 4.49281 0
M  V30 4969 C 482.691 -2.19069 3.81703 0
M  V30 4970 H 479.81 -0.236047 0.698177 0
M  V30 4971 H 482.452 0.0835236 1.89816 0
M  V30 4972 H 480.602 -1.90005 3.38866 0
M  V30 4973 H 482.274 0.41449 4.59434 0
M  V30 4974 H 480.517 0.458855 4.31366 0
M  V30 4975 H 481.188 -0.688347 5.47691 0
M  V30 4976 H 483.664 -1.66253 3.81444 0
M  V30 4977 H 482.54 -2.59307 4.83788 0
M  V30 4978 H 482.801 -3.08087 3.17072 0
M  V30 4979 N 481.861 -1.55662 -0.24637 0
M  V30 4980 C 483.277 -1.48098 -0.594907 0
M  V30 4981 C 483.477 -0.717044 -1.8831 0
M  V30 4982 O 482.533 -0.246618 -2.51293 0
M  V30 4983 C 483.846 -2.92507 -0.697146 0
M  V30 4984 C 485.394 -3.02881 -0.789436 0
M  V30 4985 C 485.869 -4.48598 -0.923232 0
M  V30 4986 N 487.36 -4.52538 -0.988088 0
M  V30 4987 C 488.095 -5.62536 -1.11089 0
M  V30 4988 N 487.591 -6.82342 -1.19919 0
M  V30 4989 N 489.384 -5.50334 -1.14408 0
M  V30 4990 H 481.535 -2.0377 0.599278 0
M  V30 4991 H 483.798 -0.925145 0.20691 0
M  V30 4992 H 483.504 -3.51242 0.179396 0
M  V30 4993 H 483.378 -3.43024 -1.5689 0
M  V30 4994 H 485.765 -2.44226 -1.65643 0
M  V30 4995 H 485.846 -2.55574 0.107482 0
M  V30 4996 H 485.49 -5.07864 -0.0607927 0
M  V30 4997 H 485.42 -4.93587 -1.8352 0
M  V30 4998 H 487.911 -3.66248 -0.931167 0
M  V30 4999 H 488.224 -7.61924 -1.29197 0
M  V30 5000 H 486.569 -6.85102 -1.16876 0
M  V30 5001 H 489.76 -4.5567 -1.07158 0
M  V30 5002 H 489.933 -6.36096 -1.23634 0
M  V30 5003 N 483.339 0.512053 -1.4905 0
M  V30 5004 C 484.302 1.59704 -1.64399 0
M  V30 5005 C 485.302 1.52285 -0.516317 0
M  V30 5006 O 486.492 1.55635 -0.782527 0
M  V30 5007 C 483.624 2.9935 -1.63102 0
M  V30 5008 H 484.817 1.47428 -2.61161 0
M  V30 5009 H 482.37 0.735469 -1.37915 0
M  V30 5010 H 483.105 3.17116 -0.678836 0
M  V30 5011 H 482.89 3.06144 -2.44986 0
M  V30 5012 H 484.38 3.782 -1.77072 0
M  V30 5013 N 484.817 1.37938 0.762283 0
M  V30 5014 C 486.042 1.37059 1.55659 0
M  V30 5015 C 486.467 -0.0396123 1.88058 0
M  V30 5016 O 485.825 -1.01929 1.49934 0
M  V30 5017 C 485.873 2.22494 2.83776 0
M  V30 5018 O 484.977 1.63607 3.78559 0
M  V30 5019 H 484.318 0.467892 0.47114 0
M  V30 5020 H 486.848 1.81587 0.942725 0
M  V30 5021 H 486.858 2.36045 3.32786 0
M  V30 5022 H 485.533 3.24993 2.59524 0
M  V30 5023 H 484.11 1.5915 3.37233 0
M  V30 5024 N 486.295 -0.989507 1.22664 0
M  V30 5025 C 487.52 -1.77031 1.08051 0
M  V30 5026 C 487.945 -1.84535 -0.364483 0
M  V30 5027 O 487.303 -1.3003 -1.2634 0
M  V30 5028 C 487.351 -3.18 1.70024 0
M  V30 5029 O 486.455 -4.01161 0.956216 0
M  V30 5030 H 485.796 -0.545008 0.379292 0
M  V30 5031 H 488.326 -1.24277 1.62531 0
M  V30 5032 H 488.336 -3.68616 1.74888 0
M  V30 5033 H 487.011 -3.11853 2.75174 0
M  V30 5034 H 485.588 -3.59687 0.98384 0
M  V30 5035 N 487.773 -1.03688 -1.18687 0
M  V30 5036 C 489.05 -0.652397 -1.84399 0
M  V30 5037 C 489.43 0.868386 -1.92412 0
M  V30 5038 O 488.778 1.76832 -1.44716 0
M  V30 5039 C 488.988 -1.3238 -3.22919 0
M  V30 5040 C 490.336 -1.45216 -3.98996 0
M  V30 5041 O 491.36 -1.2816 -3.32345 0
M  V30 5042 O 490.219 -1.72975 -5.18403 0
M  V30 5043 H 487.313 -0.227793 -0.795009 0
M  V30 5044 H 489.859 -1.13553 -1.2611 0
M  V30 5045 H 488.631 -2.36202 -3.11968 0
M  V30 5046 H 488.254 -0.829039 -3.88861 0
M  V30 5047 N 489.251 1.34841 -0.815825 0
M  V30 5048 C 490.499 1.98107 -0.399744 0
M  V30 5049 C 490.82 1.65019 1.03894 0
M  V30 5050 O 490.09 0.937311 1.72021 0
M  V30 5051 H 488.67 0.732827 -0.144823 0
M  V30 5052 H 491.332 1.64599 -1.0437 0
M  V30 5053 H 490.428 3.07856 -0.512965 0
M  V30 5054 N 490.729 0.570148 1.46925 0
M  V30 5055 C 491.639 -0.173061 2.33961 0
M  V30 5056 C 492.655 -0.898825 1.48987 0
M  V30 5057 O 493.831 -0.864825 1.81887 0
M  V30 5058 C 490.896 -1.18177 3.25937 0
M  V30 5059 C 489.957 -0.462041 4.26806 0
M  V30 5060 C 489.19 -1.4227 5.14388 0
M  V30 5061 O 489.413 -2.65842 5.04662 0
M  V30 5062 O 488.347 -0.940127 5.94513 0
M  V30 5063 H 492.173 0.541216 2.98839 0
M  V30 5064 H 489.758 0.330647 1.45695 0
M  V30 5065 H 491.64 -1.76372 3.82715 0
M  V30 5066 H 490.315 -1.87774 2.63671 0
M  V30 5067 H 489.222 0.161429 3.73752 0
M  V30 5068 H 490.555 0.192719 4.91823 0
M  V30 5069 N 492.207 -1.54576 0.307264 0
M  V30 5070 C 493.455 -1.99867 -0.299574 0
M  V30 5071 C 493.776 -1.19714 -1.53927 0
M  V30 5072 O 493.046 -0.29472 -1.9367 0
M  V30 5073 H 491.626 -0.738299 -0.113683 0
M  V30 5074 H 494.288 -1.9032 0.420042 0
M  V30 5075 H 493.384 -3.06901 -0.567283 0
M  V30 5076 N 493.685 -0.035106 -1.57561 0
M  V30 5077 C 494.913 0.652258 -1.9635 0
M  V30 5078 C 495.328 1.65317 -0.911897 0
M  V30 5079 O 494.685 1.82194 0.105657 0
M  V30 5080 C 494.736 1.35337 -3.35211 0
M  V30 5081 O 494.457 0.392548 -4.36338 0
M  V30 5082 C 495.958 2.13199 -3.88666 0
M  V30 5083 H 493.178 0.179444 -0.646561 0
M  V30 5084 H 495.722 -0.0966459 -2.04271 0
M  V30 5085 H 493.877 2.05362 -3.28489 0
M  V30 5086 H 494.291 0.891097 -5.16875 0
M  V30 5087 H 495.765 2.577 -4.88154 0
M  V30 5088 H 496.242 2.97353 -3.23231 0
M  V30 5089 H 496.848 1.48118 -3.98674 0
M  V30 5090 N 495.163 1.55791 0.238111 0
M  V30 5091 C 496.096 1.86036 1.32158 0
M  V30 5092 C 497.074 0.716216 1.45976 0
M  V30 5093 O 498.258 0.962882 1.62052 0
M  V30 5094 C 495.385 2.05281 2.69402 0
M  V30 5095 C 494.431 3.27939 2.72687 0
M  V30 5096 S 495.264 4.84342 2.28413 0
M  V30 5097 C 496.42 5.06604 3.67565 0
M  V30 5098 H 496.653 2.77644 1.06306 0
M  V30 5099 H 494.186 1.48012 0.439537 0
M  V30 5100 H 496.144 2.17053 3.48423 0
M  V30 5101 H 494.805 1.14499 2.92487 0
M  V30 5102 H 493.998 3.38398 3.73501 0
M  V30 5103 H 493.6 3.14938 2.01717 0
M  V30 5104 H 495.892 4.94486 4.6313 0
M  V30 5105 H 496.835 6.08554 3.62033 0
M  V30 5106 H 497.243 4.34409 3.60485 0
M  V30 5107 N 496.642 -0.504142 1.49319 0
M  V30 5108 C 497.867 -1.28729 1.62615 0
M  V30 5109 C 498.292 -1.85752 0.296309 0
M  V30 5110 O 497.65 -1.65704 -0.735649 0
M  V30 5111 C 497.698 -2.39561 2.69524 0
M  V30 5112 O 496.802 -3.43324 2.28478 0
M  V30 5113 H 496.143 -0.380172 0.544395 0
M  V30 5114 H 498.673 -0.603872 1.95485 0
M  V30 5115 H 498.683 -2.8537 2.91595 0
M  V30 5116 H 497.358 -1.97423 3.66056 0
M  V30 5117 H 495.935 -3.03455 2.16725 0
M  V30 5118 N 498.12 -1.38341 -0.754957 0
M  V30 5119 C 499.536 -1.19508 -1.05783 0
M  V30 5120 C 499.736 -0.0428005 -2.01455 0
M  V30 5121 O 498.792 0.611861 -2.44975 0
M  V30 5122 C 500.105 -2.52091 -1.63923 0
M  V30 5123 C 501.653 -2.58762 -1.76101 0
M  V30 5124 C 502.128 -3.91517 -2.37652 0
M  V30 5125 N 503.619 -3.93049 -2.45085 0
M  V30 5126 C 504.354 -4.9253 -2.93602 0
M  V30 5127 N 503.85 -6.02408 -3.42165 0
M  V30 5128 N 505.643 -4.79921 -2.92629 0
M  V30 5129 H 497.794 -2.1206 -0.120056 0
M  V30 5130 H 500.057 -0.94089 -0.11589 0
M  V30 5131 H 499.763 -3.36858 -1.01093 0
M  V30 5132 H 499.637 -2.70388 -2.63003 0
M  V30 5133 H 502.024 -1.74391 -2.38058 0
M  V30 5134 H 502.105 -2.44333 -0.757294 0
M  V30 5135 H 501.749 -4.76309 -1.76329 0
M  V30 5136 H 501.679 -4.03256 -3.38662 0
M  V30 5137 H 504.17 -3.13685 -2.10736 0
M  V30 5138 H 504.483 -6.74248 -3.77637 0
M  V30 5139 H 502.828 -6.0603 -3.40225 0
M  V30 5140 H 506.019 -3.93194 -2.54001 0
M  V30 5141 H 506.192 -5.57601 -3.30128 0
M  V30 5142 N 499.598 0.982988 -1.23187 0
M  V30 5143 C 501.009 1.53847 -1.05773 0
M  V30 5144 C 501.36 1.92568 0.375744 0
M  V30 5145 O 500.485 1.75783 1.26211 0
M  V30 5146 C 501.08 2.79567 -1.91384 0
M  V30 5147 C 499.639 3.31524 -1.78238 0
M  V30 5148 C 498.786 2.04534 -1.87246 0
M  V30 5149 H 501.737 0.802962 -1.36888 0
M  V30 5150 H 501.758 3.52317 -1.43711 0
M  V30 5151 H 501.27 2.51353 -2.95708 0
M  V30 5152 H 499.371 3.64623 -0.766875 0
M  V30 5153 H 499.484 4.01457 -2.61475 0
M  V30 5154 H 497.848 2.1855 -1.30797 0
M  V30 5155 H 498.631 1.78706 -2.9312 0
M  V30 5156 N 501.076 1.04316 1.18135 0
M  V30 5157 C 502.039 0.640794 2.2006 0
M  V30 5158 C 503.039 -0.303124 1.57917 0
M  V30 5159 O 504.229 -0.0881855 1.73977 0
M  V30 5160 C 501.361 -0.060148 3.40847 0
M  V30 5161 H 502.554 1.54281 2.57172 0
M  V30 5162 H 500.107 0.836004 1.32063 0
M  V30 5163 H 500.842 -0.975845 3.0927 0
M  V30 5164 H 500.627 0.618319 3.87194 0
M  V30 5165 H 502.117 -0.328082 4.16309 0
M  V30 5166 N 502.554 -1.34406 0.822964 0
M  V30 5167 C 503.779 -2.0304 0.423034 0
M  V30 5168 C 504.204 -1.61568 -0.963196 0
M  V30 5169 O 503.562 -0.800339 -1.62678 0
M  V30 5170 C 503.61 -3.56636 0.53321 0
M  V30 5171 O 502.714 -4.09971 -0.446939 0
M  V30 5172 H 502.055 -0.64075 0.174171 0
M  V30 5173 H 504.585 -1.71653 1.11339 0
M  V30 5174 H 504.595 -4.05945 0.408991 0
M  V30 5175 H 503.27 -3.86168 1.54425 0
M  V30 5176 H 501.847 -3.71835 -0.281601 0
M  V30 5177 N 504.032 -0.577932 -1.46621 0
M  V30 5178 C 505.278 -0.0617793 -2.02706 0
M  V30 5179 C 505.611 1.29294 -1.44903 0
M  V30 5180 O 504.886 1.8461 -0.61232 0
M  V30 5181 C 505.169 0.00911824 -3.60099 0
M  V30 5182 C 505.022 -1.37416 -4.28295 0
M  V30 5183 C 506.341 0.712159 -4.343 0
M  V30 5184 H 503.46 -0.0239246 -0.736612 0
M  V30 5185 H 506.102 -0.744211 -1.74818 0
M  V30 5186 H 504.252 0.590292 -3.83989 0
M  V30 5187 H 505.924 -2.00013 -4.15683 0
M  V30 5188 H 504.167 -1.94319 -3.87843 0
M  V30 5189 H 504.838 -1.27707 -5.37024 0
M  V30 5190 H 507.314 0.218486 -4.15526 0
M  V30 5191 H 506.19 0.730782 -5.44014 0
M  V30 5192 H 506.451 1.77251 -4.05012 0
M  V30 5193 N 505.51 1.54411 -0.315457 0
M  V30 5194 C 506.787 1.92562 0.343398 0
M  V30 5195 C 507.167 1.24423 1.70535 0
M  V30 5196 O 506.515 0.385051 2.25232 0
M  V30 5197 C 506.725 3.46168 0.443687 0
M  V30 5198 C 508.073 4.18659 0.707783 0
M  V30 5199 O 509.097 3.52281 0.52693 0
M  V30 5200 O 507.956 5.36198 1.05612 0
M  V30 5201 H 505.05 0.80379 0.194552 0
M  V30 5202 H 507.596 1.65738 -0.364577 0
M  V30 5203 H 506.368 3.8792 -0.513172 0
M  V30 5204 H 505.991 3.79073 1.19956 0
M  V30 5205 N 506.988 0.0434614 1.5754 0
M  V30 5206 C 508.236 -0.630786 1.92004 0
M  V30 5207 C 508.557 -1.71836 0.921807 0
M  V30 5208 O 507.827 -1.9587 -0.034522 0
M  V30 5209 H 506.407 -0.235988 0.708745 0
M  V30 5210 H 509.069 0.0946462 1.9467 0
M  V30 5211 H 508.165 -1.07434 2.93026 0
M  V30 5212 N 508.466 -1.55915 -0.229846 0
M  V30 5213 C 509.691 -1.8296 -0.976743 0
M  V30 5214 C 510.116 -0.622735 -1.77493 0
M  V30 5215 O 509.474 0.428431 -1.76165 0
M  V30 5216 C 509.522 -3.07916 -1.8767 0
M  V30 5217 O 508.626 -2.86028 -2.97088 0
M  V30 5218 H 507.967 -0.603453 -0.277021 0
M  V30 5219 H 510.497 -2.0312 -0.245669 0
M  V30 5220 H 510.507 -3.37802 -2.2881 0
M  V30 5221 H 509.182 -3.95389 -1.28996 0
M  V30 5222 H 507.759 -2.67355 -2.59954 0
M  V30 5223 N 509.944 0.496216 -1.49584 0
M  V30 5224 C 511.355 1.07765 -1.52459 0
M  V30 5225 C 511.706 1.93679 -0.31353 0
M  V30 5226 O 510.831 2.08588 0.576186 0
M  V30 5227 C 511.426 1.96111 -2.76271 0
M  V30 5228 C 509.985 2.49409 -2.81908 0
M  V30 5229 C 509.132 1.27142 -2.46435 0
M  V30 5230 H 512.083 0.279914 -1.56212 0
M  V30 5231 H 512.104 2.80862 -2.56704 0
M  V30 5232 H 511.616 1.33555 -3.64396 0
M  V30 5233 H 509.717 3.1559 -1.98074 0
M  V30 5234 H 509.83 2.86234 -3.84196 0
M  V30 5235 H 508.194 1.59818 -1.98319 0
M  V30 5236 H 508.977 0.662866 -3.3684 0
M  V30 5237 N 511.423 1.38739 0.74761 0
M  V30 5238 C 512.669 1.35475 1.50912 0
M  V30 5239 C 513.002 -0.0533093 1.94127 0
M  V30 5240 O 512.277 -1.01572 1.65871 0
M  V30 5241 C 512.56 2.31582 2.75757 0
M  V30 5242 C 512.413 3.81274 2.38642 0
M  V30 5243 C 513.732 2.25722 3.77806 0
M  V30 5244 H 510.851 0.493427 0.547447 0
M  V30 5245 H 513.493 1.69634 0.855823 0
M  V30 5246 H 511.643 2.02582 3.31501 0
M  V30 5247 H 513.315 4.20972 1.88626 0
M  V30 5248 H 511.558 3.98664 1.71025 0
M  V30 5249 H 512.229 4.4399 3.27989 0
M  V30 5250 H 514.705 2.51336 3.31616 0
M  V30 5251 H 513.581 2.95069 4.62845 0
M  V30 5252 H 513.842 1.25803 4.23823 0
M  V30 5253 N 512.901 -0.976442 1.23707 0
M  V30 5254 C 514.126 -1.75875 1.09922 0
M  V30 5255 C 514.551 -1.84911 -0.34489 0
M  V30 5256 O 513.909 -1.31363 -1.24954 0
M  V30 5257 C 513.957 -3.16179 1.73388 0
M  V30 5258 O 513.061 -4.00124 0.99871 0
M  V30 5259 H 512.402 -0.540954 0.385052 0
M  V30 5260 H 514.932 -1.22546 1.6384 0
M  V30 5261 H 514.942 -3.66741 1.78788 0
M  V30 5262 H 513.617 -3.08917 2.78466 0
M  V30 5263 H 512.194 -3.58624 1.02193 0
M  V30 5264 N 514.379 -1.04941 -1.1758 0
M  V30 5265 C 515.79 -0.784501 -1.69418 0
M  V30 5266 C 516.141 0.693625 -1.8353 0
M  V30 5267 O 515.266 1.53925 -1.52106 0
M  V30 5268 C 515.861 -1.41746 -3.07723 0
M  V30 5269 C 514.42 -1.20066 -3.56737 0
M  V30 5270 C 513.567 -1.5026 -2.33061 0
M  V30 5271 H 516.518 -1.21469 -1.02133 0
M  V30 5272 H 516.539 -0.825381 -3.7144 0
M  V30 5273 H 516.051 -2.49325 -2.9742 0
M  V30 5274 H 514.152 -0.144006 -3.72322 0
M  V30 5275 H 514.265 -1.90384 -4.39648 0
M  V30 5276 H 512.629 -0.922598 -2.37403 0
M  V30 5277 H 513.412 -2.58967 -2.25368 0
M  V30 5278 N 515.857 1.33968 -0.830081 0
M  V30 5279 C 517.082 2.02813 -0.433796 0
M  V30 5280 C 517.507 1.62076 0.954614 0
M  V30 5281 O 516.865 0.808955 1.62252 0
M  V30 5282 C 516.913 3.56348 -0.552115 0
M  V30 5283 O 516.017 4.10202 0.425191 0
M  V30 5284 H 515.358 0.639817 -0.177567 0
M  V30 5285 H 517.888 1.7106 -1.12248 0
M  V30 5286 H 517.898 4.05722 -0.430513 0
M  V30 5287 H 516.573 3.85344 -1.56471 0
M  V30 5288 H 515.15 3.71979 0.261878 0
M  V30 5289 N 517.335 0.585699 1.46312 0
M  V30 5290 C 518.563 0.0781299 2.06752 0
M  V30 5291 C 518.978 -1.22812 1.43396 0
M  V30 5292 O 518.335 -1.74318 0.540314 0
M  V30 5293 C 518.386 -0.0911927 3.61385 0
M  V30 5294 O 518.107 1.16336 4.22371 0
M  V30 5295 C 519.608 -0.632765 4.38761 0
M  V30 5296 H 516.828 0.0588188 0.668417 0
M  V30 5297 H 519.372 0.807218 1.87894 0
M  V30 5298 H 517.527 -0.770514 3.7966 0
M  V30 5299 H 517.941 0.979082 5.15281 0
M  V30 5300 H 519.415 -0.70041 5.47538 0
M  V30 5301 H 519.892 -1.65039 4.07012 0
M  V30 5302 H 520.498 0.0117856 4.25298 0
M  V30 5303 N 518.813 -1.54241 0.323641 0
M  V30 5304 C 519.761 -2.25813 -0.557804 0
M  V30 5305 C 520.755 -1.27225 -1.11849 0
M  V30 5306 O 521.961 -1.45001 -1.06652 0
M  V30 5307 H 518.336 -0.72532 -0.198532 0
M  V30 5308 H 520.307 -2.98322 0.0681112 0
M  V30 5309 C 519.056 -3.02913 -1.70701 0
M  V30 5310 H 518.379 -3.78593 -1.28482 0
M  V30 5311 H 519.819 -3.56238 -2.29935 0
M  V30 5312 C 518.278 -2.11217 -2.62467 0
M  V30 5313 O 518.808 -1.69508 -3.64184 0
M  V30 5314 N 517.014 -1.76704 -2.30703 0
M  V30 5315 H 516.561 -2.1082 -1.48029 0
M  V30 5316 H 516.519 -1.15631 -2.92364 0
M  V30 5317 N 520.291 -0.0518155 -1.57515 0
M  V30 5318 C 521.707 0.304735 -1.56664 0
M  V30 5319 C 521.907 1.71395 -1.05953 0
M  V30 5320 O 520.963 2.42123 -0.716414 0
M  V30 5321 C 522.276 0.132614 -3.00407 0
M  V30 5322 C 523.824 0.20367 -3.12337 0
M  V30 5323 C 524.299 0.0600706 -4.57961 0
M  V30 5324 N 525.79 0.116326 -4.63054 0
M  V30 5325 C 526.525 0.0293363 -5.73392 0
M  V30 5326 N 526.021 -0.110038 -6.92713 0
M  V30 5327 N 527.814 0.0849651 -5.62036 0
M  V30 5328 H 519.965 -0.973056 -1.888 0
M  V30 5329 H 522.228 -0.377781 -0.869474 0
M  V30 5330 H 521.934 -0.839019 -3.41546 0
M  V30 5331 H 521.808 0.893376 -3.66468 0
M  V30 5332 H 524.195 1.16578 -2.71097 0
M  V30 5333 H 524.276 -0.587857 -2.48954 0
M  V30 5334 H 523.92 -0.898715 -4.99886 0
M  V30 5335 H 523.85 0.87075 -5.19351 0
M  V30 5336 H 526.341 0.22327 -3.7724 0
M  V30 5337 H 526.654 -0.169104 -7.72615 0
M  V30 5338 H 524.999 -0.145132 -6.94848 0
M  V30 5339 H 528.19 0.192411 -4.67704 0
M  V30 5340 H 528.363 0.0137131 -6.47999 0
M  V30 5341 N 521.769 1.56035 0.221574 0
M  V30 5342 C 522.997 1.8313 0.962864 0
M  V30 5343 C 523.412 0.630934 1.77946 0
M  V30 5344 O 522.769 -0.400519 1.78051 0
M  V30 5345 C 522.82 3.08742 1.88045 0
M  V30 5346 O 522.541 4.24147 1.09686 0
M  V30 5347 C 524.042 3.48824 2.73563 0
M  V30 5348 H 521.262 0.608775 0.282194 0
M  V30 5349 H 523.806 2.03124 0.23681 0
M  V30 5350 H 521.961 2.90723 2.56045 0
M  V30 5351 H 522.375 4.95505 1.71974 0
M  V30 5352 H 523.849 4.39752 3.3365 0
M  V30 5353 H 524.326 2.70575 3.45956 0
M  V30 5354 H 524.932 3.69282 2.10976 0
M  V30 5355 N 523.247 -0.488276 1.49845 0
M  V30 5356 C 524.197 -1.58556 1.63842 0
M  V30 5357 C 525.181 -1.53142 0.493586 0
M  V30 5358 O 526.373 -1.60457 0.747169 0
M  V30 5359 C 523.502 -2.97101 1.72005 0
M  V30 5360 C 522.588 -3.07463 2.92108 0
M  V30 5361 N 522.979 -2.87681 4.16021 0
M  V30 5362 C 521.277 -3.3858 2.90309 0
M  V30 5363 C 521.978 -3.0256 4.96822 0
M  V30 5364 N 520.954 -3.32002 4.30437 0
M  V30 5365 H 524.756 -1.41935 2.57355 0
M  V30 5366 H 522.27 -0.694668 1.46793 0
M  V30 5367 H 524.267 -3.75976 1.80132 0
M  V30 5368 H 522.927 -3.14782 0.796375 0
M  V30 5369 H 523.938 -2.63603 4.45796 0
M  V30 5370 H 520.615 -3.62357 2.07372 0
M  V30 5371 H 522.005 -2.9165 6.05301 0
M  V30 5372 N 524.725 -1.39134 -0.740242 0
M  V30 5373 C 525.688 -1.37217 -1.83587 0
M  V30 5374 C 526.688 -0.270221 -1.58513 0
M  V30 5375 O 527.878 -0.527843 -1.6601 0
M  V30 5376 C 525.01 -1.13959 -3.21288 0
M  V30 5377 H 526.203 -2.34705 -1.86691 0
M  V30 5378 H 523.756 -1.24622 -0.94335 0
M  V30 5379 H 524.491 -0.17131 -3.23847 0
M  V30 5380 H 524.276 -1.93754 -3.40884 0
M  V30 5381 H 525.766 -1.15346 -4.01354 0
M  V30 5382 N 526.204 0.969867 -1.24223 0
M  V30 5383 C 527.154 2.04913 -0.999732 0
M  V30 5384 C 528.138 1.60795 0.0580636 0
M  V30 5385 O 529.33 1.76317 -0.155392 0
M  V30 5386 C 526.459 3.37942 -0.604154 0
M  V30 5387 C 525.545 3.88628 -1.69791 0
M  V30 5388 N 525.936 4.12274 -2.93025 0
M  V30 5389 C 524.234 4.17268 -1.57492 0
M  V30 5390 C 524.935 4.53808 -3.63914 0
M  V30 5391 N 523.911 4.58855 -2.91468 0
M  V30 5392 H 527.713 2.21168 -1.93551 0
M  V30 5393 H 525.227 1.15349 -1.14317 0
M  V30 5394 H 527.224 4.14863 -0.411665 0
M  V30 5395 H 525.884 3.23075 0.324465 0
M  V30 5396 H 526.895 3.99789 -3.29225 0
M  V30 5397 H 523.572 4.11346 -0.714175 0
M  V30 5398 H 524.962 4.80534 -4.69614 0
M  V30 5399 N 527.682 1.05563 1.17022 0
M  V30 5400 C 529.098 0.777684 1.39371 0
M  V30 5401 C 529.298 -0.626269 1.91521 0
M  V30 5402 O 528.354 -1.38806 2.10924 0
M  V30 5403 C 529.667 1.83642 2.3811 0
M  V30 5404 C 531.215 1.85907 2.51809 0
M  V30 5405 C 531.69 2.90813 3.53824 0
M  V30 5406 N 533.181 2.898 3.61345 0
M  V30 5407 C 533.916 3.6762 4.40049 0
M  V30 5408 N 533.412 4.55237 5.22237 0
M  V30 5409 N 535.205 3.56044 4.34959 0
M  V30 5410 H 527.356 1.9614 0.815047 0
M  V30 5411 H 529.619 0.849527 0.420722 0
M  V30 5412 H 529.325 2.84425 2.06871 0
M  V30 5413 H 529.199 1.6812 3.37662 0
M  V30 5414 H 531.586 0.857865 2.82356 0
M  V30 5415 H 531.667 2.05506 1.52318 0
M  V30 5416 H 531.311 3.91122 3.24015 0
M  V30 5417 H 531.241 2.68465 4.53028 0
M  V30 5418 H 533.732 2.26274 3.02669 0
M  V30 5419 H 534.045 5.11291 5.79484 0
M  V30 5420 H 532.39 4.59296 5.21605 0
M  V30 5421 H 535.581 2.86986 3.69806 0
M  V30 5422 H 535.754 4.16938 4.96051 0
M  V30 5423 N 529.16 -1.33526 0.837174 0
M  V30 5424 C 530.11 -2.2672 0.241269 0
M  V30 5425 C 531.094 -1.49183 -0.602756 0
M  V30 5426 O 532.286 -1.71052 -0.455002 0
M  V30 5427 C 529.415 -3.38294 -0.584125 0
M  V30 5428 C 528.501 -4.23231 0.271315 0
M  V30 5429 N 528.892 -4.87473 1.34922 0
M  V30 5430 C 527.19 -4.45962 0.0580589 0
M  V30 5431 C 527.891 -5.50685 1.87405 0
M  V30 5432 N 526.867 -5.30732 1.17578 0
M  V30 5433 H 530.669 -2.73903 1.06558 0
M  V30 5434 H 528.183 -1.47411 0.68145 0
M  V30 5435 H 530.18 -4.04044 -1.02731 0
M  V30 5436 H 528.84 -2.9266 -1.40643 0
M  V30 5437 H 529.851 -4.88077 1.7321 0
M  V30 5438 H 526.528 -4.11052 -0.730938 0
M  V30 5439 H 527.918 -6.11845 2.77661 0
M  V30 5440 N 530.638 -0.59345 -1.46 0
M  V30 5441 C 532.054 -0.255965 -1.57534 0
M  V30 5442 C 532.254 1.24167 -1.58697 0
M  V30 5443 O 531.31 2.02398 -1.50968 0
M  V30 5444 C 532.623 -0.91466 -2.86451 0
M  V30 5445 C 534.171 -0.889253 -3.00102 0
M  V30 5446 C 534.646 -1.52769 -4.3177 0
M  V30 5447 N 536.137 -1.49253 -4.38495 0
M  V30 5448 C 536.872 -1.9558 -5.39014 0
M  V30 5449 N 536.368 -2.49929 -6.46148 0
M  V30 5450 N 538.161 -1.86432 -5.30282 0
M  V30 5451 H 530.312 -1.56604 -1.43489 0
M  V30 5452 H 532.575 -0.655207 -0.685133 0
M  V30 5453 H 532.281 -1.96861 -2.91442 0
M  V30 5454 H 532.155 -0.429356 -3.74748 0
M  V30 5455 H 534.542 0.156111 -2.94687 0
M  V30 5456 H 534.623 -1.41268 -2.13253 0
M  V30 5457 H 534.267 -2.57231 -4.37944 0
M  V30 5458 H 534.197 -0.979398 -5.17412 0
M  V30 5459 H 536.688 -1.09536 -3.61677 0
M  V30 5460 H 537.001 -2.83109 -7.19075 0
M  V30 5461 H 535.346 -2.53961 -6.46938 0
M  V30 5462 H 538.537 -1.43722 -4.4549 0
M  V30 5463 H 538.71 -2.22852 -6.08474 0
M  V30 5464 N 532.116 1.54067 -0.331816 0
M  V30 5465 C 533.364 2.00319 0.267739 0
M  V30 5466 C 533.685 1.22148 1.52003 0
M  V30 5467 O 532.955 0.325494 1.93177 0
M  V30 5468 H 531.535 0.740014 0.101922 0
M  V30 5469 H 534.197 1.89628 -0.450267 0
M  V30 5470 H 533.293 3.07765 0.518385 0
M  V30 5471 N 533.594 0.0601682 1.57485 0
M  V30 5472 C 534.819 -0.624416 1.97777 0
M  V30 5473 C 535.244 -1.63051 0.937867 0
M  V30 5474 O 534.602 -1.81036 -0.0978845 0
M  V30 5475 C 534.65 -1.27979 3.37126 0
M  V30 5476 O 533.754 -2.39556 3.35688 0
M  V30 5477 H 533.095 -0.161581 0.64404 0
M  V30 5478 H 535.625 0.131237 2.04179 0
M  V30 5479 H 535.635 -1.62937 3.74053 0
M  V30 5480 H 534.31 -0.542501 4.12347 0
M  V30 5481 H 532.887 -2.06478 3.10517 0
M  V30 5482 N 535.072 -1.5615 -0.213296 0
M  V30 5483 C 536.035 -1.92249 -1.24792 0
M  V30 5484 C 537.035 -0.801828 -1.39382 0
M  V30 5485 O 538.225 -1.06948 -1.37506 0
M  V30 5486 C 535.357 -2.18056 -2.62039 0
M  V30 5487 H 536.55 -2.84793 -0.939845 0
M  V30 5488 H 534.103 -1.49559 -0.454062 0
M  V30 5489 H 534.838 -1.2809 -2.97932 0
M  V30 5490 H 534.623 -2.99703 -2.52825 0
M  V30 5491 H 536.113 -2.47051 -3.36683 0
M  V30 5492 N 536.55 0.480323 -1.50102 0
M  V30 5493 C 537.966 0.813295 -1.37323 0
M  V30 5494 C 538.166 1.97027 -0.422206 0
M  V30 5495 O 537.222 2.5212 0.138563 0
M  V30 5496 C 538.535 1.13404 -2.78496 0
M  V30 5497 C 540.083 1.24104 -2.87345 0
M  V30 5498 C 540.558 1.59497 -4.29331 0
M  V30 5499 N 542.049 1.66507 -4.32238 0
M  V30 5500 C 542.784 1.95378 -5.39087 0
M  V30 5501 N 542.28 2.22333 -6.56155 0
M  V30 5502 N 544.073 1.96803 -5.26522 0
M  V30 5503 H 536.224 -0.282291 -2.10516 0
M  V30 5504 H 538.487 -0.063752 -0.945854 0
M  V30 5505 H 538.193 0.357064 -3.49883 0
M  V30 5506 H 538.067 2.07251 -3.15162 0
M  V30 5507 H 540.454 2.00871 -2.16183 0
M  V30 5508 H 540.535 0.282593 -2.54234 0
M  V30 5509 H 540.179 0.832736 -5.01027 0
M  V30 5510 H 540.109 2.56477 -4.59921 0
M  V30 5511 H 542.6 1.47753 -3.47818 0
M  V30 5512 H 542.913 2.43611 -7.33399 0
M  V30 5513 H 541.258 2.19745 -6.59346 0
M  V30 5514 H 544.449 1.75235 -4.34062 0
M  V30 5515 H 544.622 2.18969 -6.09883 0
M  V30 5516 N 538.028 1.39524 0.732853 0
M  V30 5517 C 538.958 1.41153 1.86005 0
M  V30 5518 C 539.939 0.274614 1.67869 0
M  V30 5519 O 541.124 0.480745 1.88155 0
M  V30 5520 C 538.254 1.25638 3.23778 0
M  V30 5521 C 537.208 2.36752 3.56556 0
M  V30 5522 C 536.534 2.06326 4.93289 0
M  V30 5523 C 537.834 3.79069 3.5931 0
M  V30 5524 H 539.528 2.35484 1.84899 0
M  V30 5525 H 537.074 1.13348 0.888162 0
M  V30 5526 H 539.027 1.25398 4.0231 0
M  V30 5527 H 537.751 0.277772 3.25417 0
M  V30 5528 H 536.41 2.36213 2.80355 0
M  V30 5529 H 536.058 1.06897 4.9151 0
M  V30 5530 H 535.758 2.80757 5.16187 0
M  V30 5531 H 537.282 2.07739 5.74175 0
M  V30 5532 H 538.696 3.81526 4.27914 0
M  V30 5533 H 537.093 4.52878 3.93728 0
M  V30 5534 H 538.163 4.09893 2.59068 0
M  V30 5535 N 539.506 -0.963266 1.24736 0
M  V30 5536 C 540.456 -2.0438 1.01058 0
M  V30 5537 C 541.44 -1.60824 -0.0495354 0
M  V30 5538 O 542.632 -1.76232 0.164741 0
M  V30 5539 C 539.761 -3.37617 0.622067 0
M  V30 5540 C 538.847 -3.87722 1.7185 0
M  V30 5541 N 539.238 -4.10715 2.95207 0
M  V30 5542 C 537.536 -4.16426 1.59703 0
M  V30 5543 C 538.237 -4.51872 3.66315 0
M  V30 5544 N 537.213 -4.57302 2.93897 0
M  V30 5545 H 541.015 -2.20138 1.94721 0
M  V30 5546 H 538.529 -1.14741 1.14927 0
M  V30 5547 H 540.526 -4.14638 0.43366 0
M  V30 5548 H 539.186 -3.23242 -0.307327 0
M  V30 5549 H 540.197 -3.98037 3.31341 0
M  V30 5550 H 536.874 -4.10962 0.73598 0
M  V30 5551 H 538.264 -4.78037 4.72155 0
M  V30 5552 N 540.985 -1.06182 -1.16461 0
M  V30 5553 C 542.396 -0.802426 -1.68576 0
M  V30 5554 C 542.747 0.67412 -1.84255 0
M  V30 5555 O 541.872 1.52303 -1.5373 0
M  V30 5556 C 542.467 -1.45002 -3.06202 0
M  V30 5557 C 541.026 -1.23843 -3.55443 0
M  V30 5558 C 540.173 -1.52724 -2.31454 0
M  V30 5559 H 543.124 -1.22545 -1.00839 0
M  V30 5560 H 543.145 -0.864731 -3.70544 0
M  V30 5561 H 542.657 -2.52466 -2.94759 0
M  V30 5562 H 540.758 -0.183487 -3.72148 0
M  V30 5563 H 540.871 -1.95036 -4.37604 0
M  V30 5564 H 539.235 -0.947726 -2.36411 0
M  V30 5565 H 540.018 -2.61343 -2.22609 0
M  V30 5566 N 542.463 1.3308 -0.844243 0
M  V30 5567 C 543.874 1.7992 -0.498566 0
M  V30 5568 C 544.225 1.69808 0.982834 0
M  V30 5569 O 543.35 1.25051 1.7661 0
M  V30 5570 C 543.945 3.26677 -0.898204 0
M  V30 5571 C 542.504 3.71513 -0.604583 0
M  V30 5572 C 541.651 2.54393 -1.10362 0
M  V30 5573 H 544.602 1.20526 -1.03244 0
M  V30 5574 H 544.623 3.79918 -0.21039 0
M  V30 5575 H 544.135 3.34004 -1.97643 0
M  V30 5576 H 542.236 3.69708 0.46335 0
M  V30 5577 H 542.349 4.64755 -1.16358 0
M  V30 5578 H 540.713 2.49246 -0.524273 0
M  V30 5579 H 541.496 2.6448 -2.18873 0
M  V30 5580 N 543.941 0.601185 1.45683 0
M  V30 5581 C 544.871 -0.108824 2.33246 0
M  V30 5582 C 545.852 -0.865223 1.46451 0
M  V30 5583 O 547.037 -0.83704 1.75235 0
M  V30 5584 C 544.167 -1.11101 3.2905 0
M  V30 5585 C 543.121 -0.468244 4.25431 0
M  V30 5586 C 542.447 -1.57822 5.10878 0
M  V30 5587 C 543.747 0.606469 5.18767 0
M  V30 5588 H 545.441 0.622306 2.92861 0
M  V30 5589 H 542.987 0.300714 1.40825 0
M  V30 5590 H 544.94 -1.61622 3.89174 0
M  V30 5591 H 543.664 -1.87265 2.67581 0
M  V30 5592 H 542.323 0.0160484 3.66596 0
M  V30 5593 H 541.971 -2.32998 4.45781 0
M  V30 5594 H 541.671 -1.15369 5.76163 0
M  V30 5595 H 543.195 -2.08583 5.73869 0
M  V30 5596 H 544.609 0.185589 5.73 0
M  V30 5597 H 543.006 0.952381 5.92494 0
M  V30 5598 H 544.076 1.48559 4.61582 0
M  V30 5599 N 545.419 -1.53889 0.339982 0
M  V30 5600 C 546.367 -2.26391 -0.533822 0
M  V30 5601 C 547.361 -1.28404 -1.10493 0
M  V30 5602 O 548.567 -1.46124 -1.05108 0
M  V30 5603 H 544.942 -0.727385 -0.190828 0
M  V30 5604 H 546.913 -2.98233 0.0997484 0
M  V30 5605 C 545.662 -3.04707 -1.67479 0
M  V30 5606 H 544.985 -3.79934 -1.2446 0
M  V30 5607 H 546.425 -3.58657 -2.26144 0
M  V30 5608 C 544.884 -2.13989 -2.60212 0
M  V30 5609 O 545.414 -1.73361 -3.62366 0
M  V30 5610 N 543.62 -1.79141 -2.28816 0
M  V30 5611 H 543.167 -2.12378 -1.45785 0
M  V30 5612 H 543.125 -1.18725 -2.91121 0
M  V30 5613 N 546.897 -0.0685191 -1.57451 0
M  V30 5614 C 547.847 0.909895 -2.09057 0
M  V30 5615 C 548.831 1.26088 -0.999528 0
M  V30 5616 O 550.023 1.24041 -1.26265 0
M  V30 5617 C 547.152 2.17863 -2.65312 0
M  V30 5618 C 546.238 1.85427 -3.81415 0
M  V30 5619 N 546.629 1.23426 -4.9051 0
M  V30 5620 C 544.927 2.15196 -3.90649 0
M  V30 5621 C 545.628 1.09008 -5.71395 0
M  V30 5622 N 544.604 1.59871 -5.1956 0
M  V30 5623 H 548.406 0.426145 -2.90794 0
M  V30 5624 H 545.92 0.135462 -1.61834 0
M  V30 5625 H 547.917 2.88872 -3.00597 0
M  V30 5626 H 546.577 2.66829 -1.85021 0
M  V30 5627 H 547.588 0.904305 -5.09944 0
M  V30 5628 H 544.265 2.66562 -3.21327 0
M  V30 5629 H 545.655 0.607305 -6.6915 0
M  V30 5630 N 548.375 1.56261 0.205012 0
M  V30 5631 C 549.6 1.84491 0.947512 0
M  V30 5632 C 550.025 0.650894 1.76479 0
M  V30 5633 O 549.383 -0.40035 1.76824 0
M  V30 5634 C 549.431 3.10863 1.82747 0
M  V30 5635 O 548.535 2.90719 2.925 0
M  V30 5636 H 547.876 0.607783 0.267386 0
M  V30 5637 H 550.406 2.03485 0.213323 0
M  V30 5638 H 550.416 3.41399 2.23407 0
M  V30 5639 H 549.091 3.97392 1.2269 0
M  V30 5640 H 547.668 2.71457 2.55667 0
M  V30 5641 N 549.853 -0.472356 1.50355 0
M  V30 5642 C 551.269 -0.806001 1.37753 0
M  V30 5643 C 551.469 -1.968 0.432649 0
M  V30 5644 O 550.525 -2.52189 -0.12519 0
M  V30 5645 C 551.838 -1.11926 2.79093 0
M  V30 5646 C 553.386 -1.22579 2.87999 0
M  V30 5647 C 553.861 -1.57218 4.3017 0
M  V30 5648 N 555.352 -1.64212 4.33115 0
M  V30 5649 C 556.087 -1.92517 5.40116 0
M  V30 5650 N 555.583 -2.1885 6.57325 0
M  V30 5651 N 557.376 -1.94008 5.27558 0
M  V30 5652 H 549.527 0.293451 2.10363 0
M  V30 5653 H 551.79 0.0687672 0.945503 0
M  V30 5654 H 551.496 -0.338504 3.50067 0
M  V30 5655 H 551.37 -2.05577 3.16256 0
M  V30 5656 H 553.757 -1.99722 2.17245 0
M  V30 5657 H 553.838 -0.269107 2.54381 0
M  V30 5658 H 553.482 -0.806154 5.01461 0
M  V30 5659 H 553.412 -2.54034 4.61275 0
M  V30 5660 H 555.903 -1.45906 3.48597 0
M  V30 5661 H 556.216 -2.39718 7.3468 0
M  V30 5662 H 554.561 -2.16245 6.60502 0
M  V30 5663 H 557.752 -1.72931 4.34986 0
M  V30 5664 H 557.925 -2.15731 6.11035 0
M  V30 5665 N 551.331 -1.39911 -0.725443 0
M  V30 5666 C 552.556 -1.41137 -1.5197 0
M  V30 5667 C 552.981 -0.010262 -1.88097 0
M  V30 5668 O 552.339 0.979184 -1.52583 0
M  V30 5669 C 552.387 -2.2994 -2.77777 0
M  V30 5670 O 551.491 -1.73586 -3.74088 0
M  V30 5671 H 550.832 -0.480219 -0.458569 0
M  V30 5672 H 553.362 -1.84023 -0.894249 0
M  V30 5673 H 553.372 -2.44785 -3.26411 0
M  V30 5674 H 552.047 -3.31759 -2.50816 0
M  V30 5675 H 550.624 -1.68035 -3.32894 0
M  V30 5676 N 552.809 0.956637 -1.25245 0
M  V30 5677 C 554.058 1.69537 -1.0927 0
M  V30 5678 C 554.371 1.92136 0.366503 0
M  V30 5679 O 555.577 2.63687 0.64665 0
M  V30 5680 C 554.033 3.05211 -1.9072 0
M  V30 5681 C 553.641 2.90416 -3.41119 0
M  V30 5682 C 555.385 3.82882 -1.83308 0
M  V30 5683 C 553.292 4.21468 -4.14872 0
M  V30 5684 H 552.222 0.635804 -0.405302 0
M  V30 5685 H 554.873 1.06513 -1.49423 0
M  V30 5686 H 553.255 3.69128 -1.43389 0
M  V30 5687 H 554.429 2.35444 -3.9611 0
M  V30 5688 H 552.744 2.26203 -3.49602 0
M  V30 5689 H 555.341 4.79944 -2.35706 0
M  V30 5690 H 555.684 4.0853 -0.800572 0
M  V30 5691 H 556.217 3.25711 -2.28379 0
M  V30 5692 H 552.956 4.01009 -5.18529 0
M  V30 5693 H 552.476 4.76213 -3.64665 0
M  V30 5694 H 554.155 4.90022 -4.22478 0
M  V30 5695 N 554.287 1.06798 1.15896 0
M  V30 5696 C 555.698 0.811355 1.68149 0
M  V30 5697 C 556.049 -0.664339 1.8461 0
M  V30 5698 O 555.174 -1.51485 1.54535 0
M  V30 5699 C 555.769 1.46624 3.05429 0
M  V30 5700 C 554.328 1.25726 3.54781 0
M  V30 5701 C 553.475 1.53949 2.3064 0
M  V30 5702 H 556.426 1.23078 1.00187 0
M  V30 5703 H 556.447 0.88437 3.7008 0
M  V30 5704 H 555.959 2.54025 2.93416 0
M  V30 5705 H 554.06 0.20322 3.72045 0
M  V30 5706 H 554.173 1.97354 4.36564 0
M  V30 5707 H 552.537 0.96025 2.35905 0
M  V30 5708 H 553.32 2.6252 2.2122 0
M  V30 5709 N 555.766 -1.3263 0.851289 0
M  V30 5710 C 556.699 -2.26952 0.238318 0
M  V30 5711 C 557.677 -1.50243 -0.621757 0
M  V30 5712 O 558.861 -1.79378 -0.579298 0
M  V30 5713 C 555.988 -3.32124 -0.664178 0
M  V30 5714 C 555.034 -4.26325 0.122067 0
M  V30 5715 S 555.867 -5.14404 1.48824 0
M  V30 5716 C 557.023 -6.231 0.591372 0
M  V30 5717 H 557.256 -2.78594 1.03791 0
M  V30 5718 H 554.789 -1.4011 0.648731 0
M  V30 5719 H 556.747 -3.93197 -1.17924 0
M  V30 5720 H 555.408 -2.79273 -1.43755 0
M  V30 5721 H 554.601 -5.00821 -0.565181 0
M  V30 5722 H 554.203 -3.69652 0.568602 0
M  V30 5723 H 556.495 -6.77187 -0.205762 0
M  V30 5724 H 557.438 -6.95936 1.30687 0
M  V30 5725 H 557.846 -5.64252 0.167206 0
M  V30 5726 N 557.244 -0.608902 -1.45362 0
M  V30 5727 C 558.655 -0.189511 -1.85736 0
M  V30 5728 C 559.006 1.2539 -1.50903 0
M  V30 5729 O 558.131 1.95094 -0.936347 0
M  V30 5730 C 558.726 -0.33716 -3.37118 0
M  V30 5731 C 557.285 0.0275487 -3.7639 0
M  V30 5732 C 556.432 -0.660983 -2.69307 0
M  V30 5733 H 559.383 -0.815499 -1.36144 0
M  V30 5734 H 559.404 0.430257 -3.7806 0
M  V30 5735 H 558.916 -1.38779 -3.62439 0
M  V30 5736 H 557.017 1.0773 -3.56686 0
M  V30 5737 H 557.13 -0.367018 -4.77692 0
M  V30 5738 H 555.494 -0.0984958 -2.54509 0
M  V30 5739 H 556.277 -1.71377 -2.97464 0
M  V30 5740 N 558.722 1.53707 -0.348139 0
M  V30 5741 C 559.685 2.23812 0.494058 0
M  V30 5742 C 560.685 1.23989 1.02388 0
M  V30 5743 O 561.875 1.48395 0.912396 0
M  V30 5744 C 559.007 2.96133 1.68872 0
M  V30 5745 H 560.2 2.99663 -0.119141 0
M  V30 5746 H 557.753 1.55983 -0.0995539 0
M  V30 5747 H 558.488 2.24481 2.34049 0
M  V30 5748 H 558.273 3.69357 1.31596 0
M  V30 5749 H 559.763 3.49475 2.28597 0
M  V30 5750 N 560.2 0.0768682 1.57412 0
M  V30 5751 C 561.425 -0.603404 1.98428 0
M  V30 5752 C 561.85 -1.62047 0.955108 0
M  V30 5753 O 561.208 -1.81129 -0.0786778 0
M  V30 5754 C 561.256 -1.24396 3.38464 0
M  V30 5755 O 560.36 -2.35982 3.3821 0
M  V30 5756 H 559.701 -0.154741 0.645718 0
M  V30 5757 H 562.231 0.152885 2.04028 0
M  V30 5758 H 562.241 -1.5896 3.7576 0
M  V30 5759 H 560.916 -0.498735 4.12899 0
M  V30 5760 H 559.493 -2.03173 3.1269 0
M  V30 5761 N 561.678 -1.56367 -0.196722 0
M  V30 5762 C 563.094 -1.49916 -0.54749 0
M  V30 5763 C 563.294 -0.77659 -1.85934 0
M  V30 5764 O 562.35 -0.32644 -2.50381 0
M  V30 5765 C 563.663 -2.94577 -0.603734 0
M  V30 5766 C 565.211 -3.05239 -0.692677 0
M  V30 5767 C 565.686 -4.51308 -0.780046 0
M  V30 5768 N 567.177 -4.55453 -0.843616 0
M  V30 5769 C 567.912 -5.65786 -0.931358 0
M  V30 5770 N 567.408 -6.85812 -0.981503 0
M  V30 5771 N 569.201 -5.53695 -0.968421 0
M  V30 5772 H 561.352 -2.01761 0.663803 0
M  V30 5773 H 563.615 -0.918094 0.236238 0
M  V30 5774 H 563.321 -3.50494 0.29105 0
M  V30 5775 H 563.195 -3.47841 -1.45898 0
M  V30 5776 H 565.582 -2.49372 -1.57789 0
M  V30 5777 H 565.663 -2.55103 0.188736 0
M  V30 5778 H 565.307 -5.078 0.100811 0
M  V30 5779 H 565.237 -4.99176 -1.67724 0
M  V30 5780 H 567.728 -3.69025 -0.814176 0
M  V30 5781 H 568.041 -7.65648 -1.04892 0
M  V30 5782 H 566.386 -6.88474 -0.950208 0
M  V30 5783 H 569.577 -4.58848 -0.926072 0
M  V30 5784 H 569.75 -6.39708 -1.03334 0
M  V30 5785 N 563.156 0.464375 -1.50603 0
M  V30 5786 C 564.396 1.22573 -1.6357 0
M  V30 5787 C 564.76 1.89111 -0.331834 0
M  V30 5788 O 565.961 2.66679 -0.336999 0
M  V30 5789 C 564.232 2.23643 -2.7878 0
M  V30 5790 S 565.791 3.08628 -3.1192 0
M  V30 5791 H 562.609 0.416058 -0.576556 0
M  V30 5792 H 565.211 0.521637 -1.88412 0
M  V30 5793 H 563.915 1.73354 -3.7199 0
M  V30 5794 H 563.446 2.98672 -2.56044 0
M  V30 5795 H 565.461 4.24904 -2.56264 0
M  V30 5796 N 564.634 1.40294 0.718013 0
M  V30 5797 C 565.859 1.41941 1.5122 0
M  V30 5798 C 566.284 0.0202371 1.88089 0
M  V30 5799 O 565.642 -0.971078 1.53101 0
M  V30 5800 C 565.69 2.3141 2.76554 0
M  V30 5801 O 564.794 1.75567 3.73162 0
M  V30 5802 H 564.135 0.482644 0.456016 0
M  V30 5803 H 566.665 1.84494 0.884478 0
M  V30 5804 H 566.675 2.46513 3.25108 0
M  V30 5805 H 565.35 3.33085 2.49053 0
M  V30 5806 H 563.927 1.69798 3.31999 0
M  V30 5807 N 566.112 -0.949982 1.2575 0
M  V30 5808 C 567.523 -1.50989 1.09815 0
M  V30 5809 C 567.874 -1.93497 -0.324556 0
M  V30 5810 O 566.999 -1.79068 -1.21506 0
M  V30 5811 C 567.594 -2.74394 1.98729 0
M  V30 5812 C 566.153 -3.26682 1.86965 0
M  V30 5813 C 565.3 -1.99498 1.92603 0
M  V30 5814 H 568.251 -0.766387 1.38968 0
M  V30 5815 H 568.272 -3.48383 1.53001 0
M  V30 5816 H 567.784 -2.43425 3.02268 0
M  V30 5817 H 565.885 -3.62461 0.863279 0
M  V30 5818 H 565.998 -3.94383 2.72027 0
M  V30 5819 H 564.362 -2.15005 1.36546 0
M  V30 5820 H 565.145 -1.70871 2.97755 0
M  V30 5821 N 567.59 -1.07411 -1.15328 0
M  V30 5822 C 568.815 -0.818856 -1.90551 0
M  V30 5823 C 569.24 0.622194 -1.77512 0
M  V30 5824 O 568.598 1.43484 -1.10824 0
M  V30 5825 C 568.646 -1.23267 -3.38877 0
M  V30 5826 O 567.75 -0.378345 -4.10661 0
M  V30 5827 H 567.091 -0.29827 -0.593238 0
M  V30 5828 H 569.621 -1.43289 -1.46046 0
M  V30 5829 H 569.631 -1.20912 -3.89672 0
M  V30 5830 H 568.306 -2.28226 -3.47686 0
M  V30 5831 H 566.883 -0.464437 -3.69996 0
M  V30 5832 N 569.068 1.32177 -0.85831 0
M  V30 5833 C 570.031 2.27086 -0.310588 0
M  V30 5834 C 571.031 1.51751 0.531806 0
M  V30 5835 O 572.221 1.70794 0.34279 0
M  V30 5836 C 569.353 3.36266 0.560179 0
M  V30 5837 H 570.546 2.77045 -1.1483 0
M  V30 5838 H 568.099 1.42911 -0.632942 0
M  V30 5839 H 568.834 2.9158 1.41956 0
M  V30 5840 H 568.619 3.92077 -0.0428473 0
M  V30 5841 H 570.109 4.06974 0.936056 0
M  V30 5842 N 570.547 0.616602 1.45037 0
M  V30 5843 C 571.775 0.121968 2.0654 0
M  V30 5844 C 572.19 -1.19743 1.45969 0
M  V30 5845 O 571.547 -1.73133 0.577168 0
M  V30 5846 C 571.598 -0.0145171 3.61497 0
M  V30 5847 O 571.319 1.25269 4.19809 0
M  V30 5848 C 572.82 -0.539555 4.40004 0
M  V30 5849 H 570.04 0.0729837 0.667019 0
M  V30 5850 H 572.584 0.846891 1.8614 0
M  V30 5851 H 570.739 -0.689809 3.81209 0
M  V30 5852 H 571.153 1.08816 5.13088 0
M  V30 5853 H 572.627 -0.584112 5.48901 0
M  V30 5854 H 573.104 -1.56368 4.10421 0
M  V30 5855 H 573.71 0.101995 4.25178 0
M  V30 5856 N 572.025 -1.5352 0.356285 0
M  V30 5857 C 573.25 -2.06007 -0.239961 0
M  V30 5858 C 573.675 -1.22872 -1.42422 0
M  V30 5859 O 573.033 -0.245516 -1.7963 0
M  V30 5860 C 573.081 -3.5522 -0.620587 0
M  V30 5861 O 572.185 -3.74864 -1.71902 0
M  V30 5862 H 571.526 -0.662961 -0.0371377 0
M  V30 5863 H 574.056 -1.98033 0.514194 0
M  V30 5864 H 574.066 -3.98081 -0.894197 0
M  V30 5865 H 572.741 -4.15175 0.245407 0
M  V30 5866 H 571.318 -3.43904 -1.44169 0
M  V30 5867 N 573.503 -0.0852151 -1.57369 0
M  V30 5868 C 574.914 0.445428 -1.81309 0
M  V30 5869 C 575.265 1.68795 -1.00013 0
M  V30 5870 O 574.39 2.15211 -0.226573 0
M  V30 5871 C 574.985 0.814887 -3.28854 0
M  V30 5872 C 573.544 1.29032 -3.53592 0
M  V30 5873 C 572.691 0.282089 -2.75861 0
M  V30 5874 H 575.642 -0.310771 -1.55627 0
M  V30 5875 H 575.663 1.67524 -3.41637 0
M  V30 5876 H 575.175 -0.0896309 -3.87996 0
M  V30 5877 H 573.276 2.21289 -2.9977 0
M  V30 5878 H 573.389 1.25898 -4.62262 0
M  V30 5879 H 571.753 0.762182 -2.43029 0
M  V30 5880 H 572.536 -0.614936 -3.37748 0
M  V30 5881 N 574.981 1.5647 0.188427 0
M  V30 5882 C 576.227 1.81281 0.909124 0
M  V30 5883 C 576.56 0.66034 1.82628 0
M  V30 5884 O 575.835 -0.338737 1.91528 0
M  V30 5885 C 576.118 3.16388 1.7196 0
M  V30 5886 C 575.971 4.42137 0.826714 0
M  V30 5887 C 577.29 3.48256 2.69083 0
M  V30 5888 H 574.409 0.659457 0.329068 0
M  V30 5889 H 577.051 1.89182 0.176156 0
M  V30 5890 H 575.201 3.09784 2.34448 0
M  V30 5891 H 576.873 4.60794 0.216025 0
M  V30 5892 H 575.116 4.33594 0.133792 0
M  V30 5893 H 575.787 5.33184 1.42893 0
M  V30 5894 H 578.263 3.55203 2.16726 0
M  V30 5895 H 577.139 4.43899 3.2287 0
M  V30 5896 H 577.4 2.72088 3.48455 0
M  V30 5897 N 576.459 -0.456382 1.50847 0
M  V30 5898 C 577.684 -1.2349 1.66628 0
M  V30 5899 C 578.109 -1.84715 0.355254 0
M  V30 5900 O 577.467 -1.67961 -0.682559 0
M  V30 5901 C 577.515 -2.30865 2.77009 0
M  V30 5902 O 576.619 -3.35882 2.39285 0
M  V30 5903 H 575.96 -0.36266 0.556214 0
M  V30 5904 H 578.49 -0.541374 1.97308 0
M  V30 5905 H 578.5 -2.75949 3.00526 0
M  V30 5906 H 577.175 -1.85677 3.72152 0
M  V30 5907 H 575.752 -2.96406 2.26269 0
M  V30 5908 N 577.937 -1.40673 -0.710563 0
M  V30 5909 C 578.867 -1.44095 -1.83736 0
M  V30 5910 C 579.848 -0.301286 -1.67411 0
M  V30 5911 O 581.033 -0.510618 -1.87367 0
M  V30 5912 C 578.163 -1.30773 -3.21738 0
M  V30 5913 C 577.117 -2.42395 -3.52745 0
M  V30 5914 C 576.443 -2.14147 -4.89944 0
M  V30 5915 C 577.743 -3.84738 -3.53234 0
M  V30 5916 H 579.437 -2.38396 -1.81129 0
M  V30 5917 H 576.983 -1.14746 -0.870017 0
M  V30 5918 H 578.936 -1.31783 -4.00264 0
M  V30 5919 H 577.66 -0.329507 -3.24934 0
M  V30 5920 H 576.319 -2.40643 -2.76562 0
M  V30 5921 H 575.967 -1.14703 -4.89747 0
M  V30 5922 H 575.667 -2.88934 -5.11655 0
M  V30 5923 H 577.191 -2.16848 -5.70797 0
M  V30 5924 H 578.605 -3.88286 -4.2179 0
M  V30 5925 H 577.002 -4.59085 -3.86473 0
M  V30 5926 H 578.072 -4.13962 -2.52514 0
M  V30 5927 N 579.415 0.9433 -1.26252 0
M  V30 5928 C 580.64 1.72898 -1.14547 0
M  V30 5929 C 581.065 1.85761 0.295743 0
M  V30 5930 O 580.423 1.3463 1.21427 0
M  V30 5931 C 580.471 3.11471 -1.8171 0
M  V30 5932 O 579.575 3.97336 -1.10445 0
M  V30 5933 H 578.916 0.530555 -0.399259 0
M  V30 5934 H 581.446 1.18159 -1.67032 0
M  V30 5935 H 581.456 3.61872 -1.88449 0
M  V30 5936 H 580.131 3.01425 -2.86558 0
M  V30 5937 H 578.708 3.55788 -1.11666 0
M  V30 5938 N 580.893 1.08022 1.14757 0
M  V30 5939 C 582.118 0.82895 1.90114 0
M  V30 5940 C 582.543 -0.612772 1.77839 0
M  V30 5941 O 581.901 -1.42895 1.11583 0
M  V30 5942 C 581.949 1.25062 3.38219 0
M  V30 5943 O 581.053 0.400119 4.10454 0
M  V30 5944 H 580.394 0.301412 0.591648 0
M  V30 5945 H 582.924 1.44062 1.45284 0
M  V30 5946 H 582.934 1.22977 3.89025 0
M  V30 5947 H 581.609 2.30067 3.46471 0
M  V30 5948 H 580.186 0.484052 3.69745 0
M  V30 5949 N 582.371 -1.3172 0.865308 0
M  V30 5950 C 583.596 -2.01591 0.487415 0
M  V30 5951 C 584.021 -1.6455 -0.911307 0
M  V30 5952 O 583.379 -0.851689 -1.6005 0
M  V30 5953 C 583.427 -3.54759 0.646401 0
M  V30 5954 O 582.531 -4.11185 -0.316284 0
M  V30 5955 H 581.872 -0.634884 0.194468 0
M  V30 5956 H 584.402 -1.68024 1.16744 0
M  V30 5957 H 584.412 -4.04438 0.537932 0
M  V30 5958 H 583.087 -3.8106 1.66632 0
M  V30 5959 H 581.664 -3.72543 -0.163162 0
M  V30 5960 N 583.85 -0.624285 -1.44708 0
M  V30 5961 C 585.075 -0.131171 -2.06985 0
M  V30 5962 C 585.5 1.18234 -1.46295 0
M  V30 5963 O 584.858 1.72375 -0.561842 0
M  V30 5964 C 584.906 -0.0226724 -3.60593 0
M  V30 5965 O 584.01 1.02314 -3.99507 0
M  V30 5966 H 583.351 -0.0816556 -0.65896 0
M  V30 5967 H 585.88 -0.859027 -1.85693 0
M  V30 5968 H 585.891 0.170138 -4.07645 0
M  V30 5969 H 584.566 -0.981685 -4.04148 0
M  V30 5970 H 583.143 0.805452 -3.64097 0
M  V30 5971 N 585.328 1.53329 -0.364422 0
M  V30 5972 C 586.556 2.05657 0.226424 0
M  V30 5973 C 586.971 1.23801 1.42544 0
M  V30 5974 O 586.328 0.27839 1.80364 0
M  V30 5975 C 586.379 3.56125 0.621056 0
M  V30 5976 O 586.1 4.34879 -0.530304 0
M  V30 5977 C 587.601 4.24706 1.27041 0
M  V30 5978 H 584.821 0.669806 0.0400056 0
M  V30 5979 H 587.365 1.97714 -0.522456 0
M  V30 5980 H 585.52 3.64223 1.31985 0
M  V30 5981 H 585.934 5.24073 -0.211546 0
M  V30 5982 H 587.408 5.3131 1.49711 0
M  V30 5983 H 587.885 3.78354 2.23036 0
M  V30 5984 H 588.491 4.20858 0.613079 0
M  V30 5985 N 586.806 0.0935595 1.57322 0
M  V30 5986 C 588.031 -0.582324 1.99057 0
M  V30 5987 C 588.456 -1.61025 0.972242 0
M  V30 5988 O 587.814 -1.81202 -0.0594622 0
M  V30 5989 C 587.862 -1.20799 3.39765 0
M  V30 5990 O 586.966 -2.32382 3.40694 0
M  V30 5991 H 586.307 -0.147884 0.647323 0
M  V30 5992 H 588.837 0.174516 2.03854 0
M  V30 5993 H 588.847 -1.54966 3.77425 0
M  V30 5994 H 587.522 -0.454914 4.13405 0
M  V30 5995 H 586.099 -1.99845 3.14827 0
M  V30 5996 N 588.284 -1.56567 -0.180126 0
M  V30 5997 C 589.532 -1.81133 -0.896392 0
M  V30 5998 C 589.853 -0.669114 -1.83161 0
M  V30 5999 O 589.123 0.311616 -1.93406 0
M  V30 6000 H 587.703 -0.668172 -0.333999 0
M  V30 6001 H 590.365 -1.94048 -0.182051 0
M  V30 6002 H 589.461 -2.74854 -1.47857 0
M  V30 6003 N 589.762 0.448376 -1.51087 0
M  V30 6004 C 590.712 1.54156 -1.67988 0
M  V30 6005 C 591.696 1.5178 -0.534015 0
M  V30 6006 O 592.888 1.58419 -0.789448 0
M  V30 6007 C 590.017 2.92437 -1.79822 0
M  V30 6008 C 589.103 2.99611 -3.00157 0
M  V30 6009 N 589.494 2.7655 -4.23502 0
M  V30 6010 C 587.792 3.30764 -2.99184 0
M  V30 6011 C 588.493 2.89281 -5.0467 0
M  V30 6012 N 587.469 3.20473 -4.39088 0
M  V30 6013 H 591.271 1.35061 -2.61028 0
M  V30 6014 H 588.785 0.655504 -1.48583 0
M  V30 6015 H 590.782 3.71068 -1.90037 0
M  V30 6016 H 589.442 3.1256 -0.879554 0
M  V30 6017 H 590.453 2.5169 -4.52628 0
M  V30 6018 H 587.13 3.56732 -2.16907 0
M  V30 6019 H 588.52 2.75499 -6.12821 0
M  V30 6020 N 591.24 1.41047 0.703093 0
M  V30 6021 C 592.488 1.39723 1.4602 0
M  V30 6022 C 592.809 0.00461257 1.94999 0
M  V30 6023 O 592.079 -0.952292 1.71196 0
M  V30 6024 H 590.659 0.514281 0.541779 0
M  V30 6025 H 593.321 1.76217 0.832678 0
M  V30 6026 H 592.417 2.07982 2.32701 0
M  V30 6027 N 592.718 -0.936591 1.26751 0
M  V30 6028 C 593.943 -1.72288 1.15462 0
M  V30 6029 C 594.368 -1.85915 -0.285887 0
M  V30 6030 O 593.726 -1.35272 -1.20711 0
M  V30 6031 C 593.774 -3.10503 1.83359 0
M  V30 6032 O 592.878 -3.96745 1.1255 0
M  V30 6033 H 592.219 -0.52843 0.402067 0
M  V30 6034 H 594.749 -1.17271 1.67656 0
M  V30 6035 H 594.759 -3.60867 1.90365 0
M  V30 6036 H 593.434 -2.99901 2.88153 0
M  V30 6037 H 592.011 -3.55191 1.13551 0
M  V30 6038 N 594.196 -1.08629 -1.14182 0
M  V30 6039 C 595.424 -0.838889 -1.8913 0
M  V30 6040 C 595.839 0.609153 -1.78703 0
M  V30 6041 O 595.196 1.41876 -1.14794 0
M  V30 6042 C 595.247 -1.25477 -3.39025 0
M  V30 6043 O 594.968 -2.64601 -3.49167 0
M  V30 6044 C 596.469 -1.03856 -4.30963 0
M  V30 6045 H 593.689 -0.302377 -0.599007 0
M  V30 6046 H 596.233 -1.44615 -1.44592 0
M  V30 6047 H 594.388 -0.691571 -3.81177 0
M  V30 6048 H 594.802 -2.81922 -4.42289 0
M  V30 6049 H 596.276 -1.37892 -5.345 0
M  V30 6050 H 596.753 0.0242522 -4.39193 0
M  V30 6051 H 597.359 -1.58731 -3.94569 0
M  V30 6052 N 595.674 1.31259 -0.872281 0
M  V30 6053 C 596.899 2.0133 -0.498099 0
M  V30 6054 C 597.324 1.65031 0.902568 0
M  V30 6055 O 596.682 0.860164 1.59596 0
M  V30 6056 C 596.73 3.54411 -0.665205 0
M  V30 6057 O 595.834 4.11347 0.294473 0
M  V30 6058 H 595.175 0.633844 -0.197832 0
M  V30 6059 H 597.705 1.67402 -1.17633 0
M  V30 6060 H 597.715 4.04147 -0.559373 0
M  V30 6061 H 596.39 3.80171 -1.68651 0
M  V30 6062 H 594.967 3.72624 0.143403 0
M  V30 6063 N 597.152 0.631951 1.44375 0
M  V30 6064 C 598.429 0.067646 1.95483 0
M  V30 6065 C 598.809 -1.40683 1.57389 0
M  V30 6066 O 598.157 -2.12167 0.848375 0
M  V30 6067 C 598.367 0.291392 3.47781 0
M  V30 6068 C 599.715 0.185028 4.24197 0
M  V30 6069 O 600.739 0.222803 3.55503 0
M  V30 6070 O 599.598 0.0906642 5.46425 0
M  V30 6071 H 596.692 -0.0218379 0.826712 0
M  V30 6072 H 599.238 0.703711 1.54421 0
M  V30 6073 H 598.01 1.31449 3.68561 0
M  V30 6074 H 597.633 -0.378772 3.95792 0
M  V30 6075 N 598.631 -1.53133 0.372548 0
M  V30 6076 C 599.871 -2.03267 -0.214943 0
M  V30 6077 C 600.235 -1.25362 -1.45425 0
M  V30 6078 O 601.436 -1.65536 -2.11781 0
M  V30 6079 C 599.707 -3.53985 -0.492897 0
M  V30 6080 S 601.266 -4.25977 -1.05307 0
M  V30 6081 H 598.084 -0.708289 -0.062029 0
M  V30 6082 H 600.686 -1.88539 0.517025 0
M  V30 6083 H 599.39 -4.08282 0.416442 0
M  V30 6084 H 598.921 -3.72887 -1.25375 0
M  V30 6085 H 600.936 -4.37731 -2.33679 0
M  V30 6086 N 600.109 -0.101901 -1.5727 0
M  V30 6087 C 601.039 0.851544 -2.17419 0
M  V30 6088 C 602.02 1.28942 -1.10941 0
M  V30 6089 O 603.205 1.35509 -1.39107 0
M  V30 6090 C 600.335 2.10816 -2.75996 0
M  V30 6091 C 599.289 1.80867 -3.87906 0
M  V30 6092 C 598.615 3.13413 -4.33216 0
M  V30 6093 C 599.915 1.0903 -5.10793 0
M  V30 6094 H 601.609 0.350381 -2.97343 0
M  V30 6095 H 599.155 0.16709 -1.43027 0
M  V30 6096 H 601.108 2.77959 -3.16729 0
M  V30 6097 H 599.832 2.63227 -1.93337 0
M  V30 6098 H 598.491 1.16119 -3.47724 0
M  V30 6099 H 598.139 3.63725 -3.47438 0
M  V30 6100 H 597.839 2.94155 -5.08671 0
M  V30 6101 H 599.363 3.81704 -4.76586 0
M  V30 6102 H 600.777 1.66295 -5.48652 0
M  V30 6103 H 599.174 0.99927 -5.91722 0
M  V30 6104 H 600.244 0.0741704 -4.84843 0
M  V30 6105 N 601.587 1.56661 0.17182 0
M  V30 6106 C 602.834 1.81965 0.888529 0
M  V30 6107 C 603.162 0.6789 1.82267 0
M  V30 6108 O 602.417 -0.333875 1.92831 0
M  V30 6109 C 602.716 3.13435 1.71736 0
M  V30 6110 C 602.382 4.41159 0.932184 0
M  V30 6111 C 601.044 4.75851 0.715481 0
M  V30 6112 C 603.396 5.19803 0.381387 0
M  V30 6113 C 600.724 5.86666 -0.063126 0
M  V30 6114 C 603.076 6.31433 -0.384129 0
M  V30 6115 C 601.74 6.64692 -0.611637 0
M  V30 6116 H 601.01 0.665859 0.325136 0
M  V30 6117 H 603.657 1.90884 0.153495 0
M  V30 6118 H 601.962 2.99857 2.52177 0
M  V30 6119 H 603.659 3.30224 2.27493 0
M  V30 6120 H 600.249 4.13947 1.11112 0
M  V30 6121 H 604.433 4.93396 0.536148 0
M  V30 6122 H 599.689 6.10892 -0.249136 0
M  V30 6123 H 603.863 6.91577 -0.818185 0
M  V30 6124 H 601.49 7.50398 -1.21684 0
M  V30 6125 N 603.065 -0.440357 1.51323 0
M  V30 6126 C 604.476 -1.02032 1.56353 0
M  V30 6127 C 604.827 -1.92382 0.385197 0
M  V30 6128 O 603.952 -2.10583 -0.498373 0
M  V30 6129 C 604.547 -1.85723 2.83359 0
M  V30 6130 C 603.106 -2.38774 2.90971 0
M  V30 6131 C 602.253 -1.17908 2.50984 0
M  V30 6132 H 605.204 -0.221744 1.57143 0
M  V30 6133 H 605.225 -2.71141 2.66951 0
M  V30 6134 H 604.737 -1.19939 3.69102 0
M  V30 6135 H 602.838 -3.08021 2.09651 0
M  V30 6136 H 602.951 -2.71778 3.94555 0
M  V30 6137 H 601.315 -1.52347 2.04114 0
M  V30 6138 H 602.098 -0.537393 3.39068 0
M  V30 6139 N 604.543 -1.41418 -0.695603 0
M  V30 6140 C 605.959 -1.23887 -1.00619 0
M  V30 6141 C 606.159 -0.128206 -2.01092 0
M  V30 6142 O 605.215 0.507408 -2.47349 0
M  V30 6143 C 606.528 -2.58816 -1.53083 0
M  V30 6144 C 608.076 -2.65998 -1.64967 0
M  V30 6145 C 608.551 -4.01244 -2.20833 0
M  V30 6146 N 610.042 -4.0309 -2.28194 0
M  V30 6147 C 610.777 -5.04539 -2.72448 0
M  V30 6148 N 610.273 -6.16378 -3.16306 0
M  V30 6149 N 612.066 -4.91901 -2.72011 0
M  V30 6150 H 604.217 -2.12379 -0.0300061 0
M  V30 6151 H 606.48 -0.944958 -0.0758797 0
M  V30 6152 H 606.186 -3.40842 -0.867147 0
M  V30 6153 H 606.06 -2.81299 -2.51298 0
M  V30 6154 H 608.447 -1.84331 -2.30448 0
M  V30 6155 H 608.528 -2.47325 -0.652982 0
M  V30 6156 H 608.172 -4.83359 -1.55968 0
M  V30 6157 H 608.102 -4.17257 -3.21254 0
M  V30 6158 H 610.593 -3.22341 -1.97242 0
M  V30 6159 H 610.906 -6.89658 -3.487 0
M  V30 6160 H 609.251 -6.19914 -3.14215 0
M  V30 6161 H 612.442 -4.03613 -2.37095 0
M  V30 6162 H 612.615 -5.71102 -3.06181 0
M  V30 6163 N 606.021 0.929856 -1.27246 0
M  V30 6164 C 607.437 1.20542 -1.04603 0
M  V30 6165 C 607.637 2.00276 0.221754 0
M  V30 6166 O 606.693 2.34835 0.927833 0
M  V30 6167 C 608.006 1.95566 -2.28417 0
M  V30 6168 C 609.554 2.08513 -2.33433 0
M  V30 6169 C 610.029 2.86943 -3.5697 0
M  V30 6170 N 611.52 2.94512 -3.57515 0
M  V30 6171 C 612.255 3.55656 -4.49774 0
M  V30 6172 N 611.751 4.18209 -5.52334 0
M  V30 6173 N 613.544 3.53038 -4.37402 0
M  V30 6174 H 605.695 0.397113 -2.08655 0
M  V30 6175 H 607.958 0.238277 -0.917566 0
M  V30 6176 H 607.664 1.44395 -3.20691 0
M  V30 6177 H 607.538 2.9619 -2.33563 0
M  V30 6178 H 609.925 2.58872 -1.41666 0
M  V30 6179 H 610.006 1.07117 -2.32292 0
M  V30 6180 H 609.65 2.37268 -4.49072 0
M  V30 6181 H 609.58 3.8862 -3.55362 0
M  V30 6182 H 612.071 2.50053 -2.83341 0
M  V30 6183 H 612.384 4.62796 -6.18902 0
M  V30 6184 H 610.729 4.16761 -5.56179 0
M  V30 6185 H 613.92 3.0337 -3.56489 0
M  V30 6186 H 614.093 4.004 -5.09493 0
M  V30 6187 N 607.499 1.09233 1.13605 0
M  V30 6188 C 608.724 0.849067 1.89224 0
M  V30 6189 C 609.149 -0.593875 1.78479 0
M  V30 6190 O 608.507 -1.41703 1.13092 0
M  V30 6191 C 608.555 1.28642 3.36873 0
M  V30 6192 O 607.659 0.44363 4.10007 0
M  V30 6193 H 607 0.30767 0.588417 0
M  V30 6194 H 609.53 1.45595 1.43748 0
M  V30 6195 H 609.54 1.27096 3.87699 0
M  V30 6196 H 608.215 2.33729 3.44011 0
M  V30 6197 H 606.792 0.523241 3.69211 0
M  V30 6198 N 608.977 -1.30795 0.87923 0
M  V30 6199 C 610.202 -2.01063 0.508769 0
M  V30 6200 C 610.627 -1.65508 -0.893803 0
M  V30 6201 O 609.985 -0.868616 -1.59138 0
M  V30 6202 C 610.033 -3.54054 0.683991 0
M  V30 6203 O 609.137 -4.11498 -0.272654 0
M  V30 6204 H 608.478 -0.632786 0.201191 0
M  V30 6205 H 611.008 -1.66776 1.18519 0
M  V30 6206 H 611.018 -4.03845 0.580798 0
M  V30 6207 H 609.693 -3.79271 1.70665 0
M  V30 6208 H 608.27 -3.72695 -0.12364 0
M  V30 6209 N 610.455 -0.639598 -1.44038 0
M  V30 6210 C 611.418 0.0506628 -2.29144 0
M  V30 6211 C 612.418 0.764001 -1.41491 0
M  V30 6212 O 613.608 0.607309 -1.63271 0
M  V30 6213 C 610.74 1.0824 -3.2326 0
M  V30 6214 H 611.933 -0.697987 -2.91664 0
M  V30 6215 H 609.486 -0.400146 -1.51091 0
M  V30 6216 H 610.221 1.86075 -2.65606 0
M  V30 6217 H 610.006 0.574725 -3.87865 0
M  V30 6218 H 611.496 1.56487 -3.87171 0
M  V30 6219 N 611.933 1.52934 -0.380664 0
M  V30 6220 C 613.158 2.06363 0.207157 0
M  V30 6221 C 613.583 1.25122 1.4045 0
M  V30 6222 O 612.941 0.274062 1.79217 0
M  V30 6223 C 612.989 3.56162 0.563996 0
M  V30 6224 O 612.093 3.77552 1.65917 0
M  V30 6225 H 611.434 0.663468 0.0265859 0
M  V30 6226 H 613.964 1.9719 -0.545635 0
M  V30 6227 H 613.974 3.99453 0.830752 0
M  V30 6228 H 612.649 4.14732 -0.311427 0
M  V30 6229 H 611.226 3.46154 1.3868 0
M  V30 6230 N 613.412 0.11024 1.57214 0
M  V30 6231 C 614.658 -0.550684 1.9518 0
M  V30 6232 C 614.991 -1.66885 0.993122 0
M  V30 6233 O 614.266 -1.94479 0.0287907 0
M  V30 6234 C 614.549 -1.09163 3.43155 0
M  V30 6235 C 614.402 0.0225198 4.49794 0
M  V30 6236 C 615.721 -1.98527 3.92778 0
M  V30 6237 H 612.84 -0.198706 0.709708 0
M  V30 6238 H 615.482 0.184024 1.89107 0
M  V30 6239 H 613.632 -1.71775 3.48462 0
M  V30 6240 H 615.304 0.657443 4.56591 0
M  V30 6241 H 613.547 0.686868 4.28328 0
M  V30 6242 H 614.218 -0.39706 5.5057 0
M  V30 6243 H 616.694 -1.458 3.8972 0
M  V30 6244 H 615.57 -2.33298 4.96853 0
M  V30 6245 H 615.831 -2.90846 3.32958 0
M  V30 6246 N 614.89 -1.56749 -0.16351 0
M  V30 6247 C 616.115 -1.86938 -0.898264 0
M  V30 6248 C 616.54 -0.697456 -1.74692 0
M  V30 6249 O 615.898 0.353327 -1.77824 0
M  V30 6250 C 615.946 -3.15599 -1.74441 0
M  V30 6251 O 615.05 -2.98371 -2.8469 0
M  V30 6252 H 614.391 -0.614659 -0.251178 0
M  V30 6253 H 616.921 -2.03979 -0.159298 0
M  V30 6254 H 616.931 -3.47202 -2.14277 0
M  V30 6255 H 615.606 -4.00505 -1.1211 0
M  V30 6256 H 614.183 -2.7814 -2.4838 0
M  V30 6257 N 616.368 0.432326 -1.51554 0
M  V30 6258 C 617.616 1.17901 -1.64146 0
M  V30 6259 C 617.937 1.91604 -0.362367 0
M  V30 6260 O 617.207 1.85764 0.621968 0
M  V30 6261 H 615.787 0.438206 -0.604966 0
M  V30 6262 H 618.449 0.495172 -1.88505 0
M  V30 6263 H 617.545 1.90584 -2.47152 0
M  V30 6264 N 617.846 1.41785 0.688094 0
M  V30 6265 C 619.071 1.45117 1.48175 0
M  V30 6266 C 619.496 0.060129 1.88004 0
M  V30 6267 O 618.854 -0.938385 1.55126 0
M  V30 6268 C 618.902 2.37224 2.71583 0
M  V30 6269 O 618.006 1.83443 3.69354 0
M  V30 6270 H 617.347 0.492208 0.445676 0
M  V30 6271 H 619.877 1.86329 0.845145 0
M  V30 6272 H 619.887 2.53353 3.19806 0
M  V30 6273 H 618.562 3.38293 2.41931 0
M  V30 6274 H 617.139 1.76802 3.28322 0
M  V30 6275 N 619.324 -0.923095 1.27737 0
M  V30 6276 C 620.735 -1.48626 1.12993 0
M  V30 6277 C 621.086 -1.94142 -0.283439 0
M  V30 6278 O 620.211 -1.81605 -1.17681 0
M  V30 6279 C 620.806 -2.70117 2.04505 0
M  V30 6280 C 619.365 -3.22642 1.93853 0
M  V30 6281 C 618.512 -1.95368 1.96791 0
M  V30 6282 H 621.463 -0.736737 1.40563 0
M  V30 6283 H 621.484 -3.4506 1.60356 0
M  V30 6284 H 620.996 -2.36959 3.07363 0
M  V30 6285 H 619.097 -3.60549 0.939968 0
M  V30 6286 H 619.21 -3.88525 2.80331 0
M  V30 6287 H 617.574 -2.12061 1.41076 0
M  V30 6288 H 618.357 -1.64517 3.01312 0
M  V30 6289 N 620.802 -1.09834 -1.13024 0
M  V30 6290 C 622.027 -0.85909 -1.88771 0
M  V30 6291 C 622.452 0.584402 -1.78791 0
M  V30 6292 O 621.81 1.41101 -1.13842 0
M  V30 6293 C 621.858 -1.30427 -3.36186 0
M  V30 6294 O 620.962 -0.465368 -4.09766 0
M  V30 6295 H 620.303 -0.310786 -0.586778 0
M  V30 6296 H 622.833 -1.46355 -1.42973 0
M  V30 6297 H 622.843 -1.2915 -3.8702 0
M  V30 6298 H 621.518 -2.3555 -3.42767 0
M  V30 6299 H 620.095 -0.542814 -3.68928 0
M  V30 6300 N 622.28 1.30327 -0.886154 0
M  V30 6301 C 623.557 1.90922 -0.425217 0
M  V30 6302 C 623.937 1.80533 1.09413 0
M  V30 6303 O 623.285 1.2233 1.92996 0
M  V30 6304 C 623.495 3.36529 -0.924638 0
M  V30 6305 C 624.843 4.13598 -0.960305 0
M  V30 6306 O 625.867 3.45377 -0.871382 0
M  V30 6307 O 624.726 5.35482 -1.09184 0
M  V30 6308 H 621.82 0.81668 -0.130238 0
M  V30 6309 H 624.366 1.38886 -0.975132 0
M  V30 6310 H 623.138 3.38181 -1.96849 0
M  V30 6311 H 622.761 3.96021 -0.353955 0
M  V30 6312 N 623.758 0.647228 1.43697 0
M  V30 6313 C 625.006 0.157876 2.01482 0
M  V30 6314 C 625.327 -1.23039 1.51282 0
M  V30 6315 O 624.597 -1.82071 0.722982 0
M  V30 6316 H 623.177 0.0553745 0.744945 0
M  V30 6317 H 625.839 0.83755 1.75986 0
M  V30 6318 H 624.935 0.137895 3.11795 0
M  V30 6319 N 625.236 -1.5273 0.388769 0
M  V30 6320 C 626.484 -2.01174 -0.193208 0
M  V30 6321 C 626.805 -1.27705 -1.47365 0
M  V30 6322 O 626.075 -0.396966 -1.91836 0
M  V30 6323 H 624.655 -0.743287 -0.0743871 0
M  V30 6324 H 627.317 -1.87826 0.520336 0
M  V30 6325 H 626.413 -3.09477 -0.403803 0
M  V30 6326 N 626.714 -0.118576 -1.57153 0
M  V30 6327 C 627.961 0.539526 -1.9518 0
M  V30 6328 C 628.289 1.66714 -1.00184 0
M  V30 6329 O 627.544 1.95683 -0.0256482 0
M  V30 6330 C 627.843 1.11303 -3.39627 0
M  V30 6331 C 627.509 0.106809 -4.50773 0
M  V30 6332 C 626.171 -0.169876 -4.809 0
M  V30 6333 C 628.523 -0.57895 -5.17975 0
M  V30 6334 C 625.851 -1.13861 -5.75545 0
M  V30 6335 C 628.203 -1.53631 -6.13661 0
M  V30 6336 C 626.867 -1.82099 -6.42181 0
M  V30 6337 H 626.137 0.197427 -0.714215 0
M  V30 6338 H 628.784 -0.199391 -1.90459 0
M  V30 6339 H 627.089 1.92869 -3.4104 0
M  V30 6340 H 628.786 1.63032 -3.66363 0
M  V30 6341 H 625.376 0.332645 -4.27307 0
M  V30 6342 H 629.56 -0.378359 -4.94856 0
M  V30 6343 H 624.816 -1.36592 -5.95947 0
M  V30 6344 H 628.99 -2.07337 -6.64819 0
M  V30 6345 H 626.617 -2.57319 -7.15326 0
M  V30 6346 N 628.193 1.56834 0.155195 0
M  V30 6347 C 629.442 1.82088 0.867567 0
M  V30 6348 C 629.755 0.69849 1.82703 0
M  V30 6349 O 630.961 0.836407 2.58295 0
M  V30 6350 C 629.417 3.22707 1.59336 0
M  V30 6351 C 629.025 4.42859 0.676719 0
M  V30 6352 C 630.769 3.57242 2.293 0
M  V30 6353 C 628.676 5.74501 1.40367 0
M  V30 6354 H 627.606 0.679057 0.327715 0
M  V30 6355 H 630.257 1.83105 0.120351 0
M  V30 6356 H 628.639 3.16054 2.38591 0
M  V30 6357 H 629.813 4.60731 -0.0800196 0
M  V30 6358 H 628.128 4.16311 0.0859129 0
M  V30 6359 H 630.725 4.52847 2.84312 0
M  V30 6360 H 631.068 2.82901 3.05406 0
M  V30 6361 H 631.601 3.6552 1.56972 0
M  V30 6362 H 628.34 6.51915 0.684623 0
M  V30 6363 H 627.86 5.60579 2.13332 0
M  V30 6364 H 629.539 6.17016 1.94681 0
M  V30 6365 N 629.671 -0.424282 1.51781 0
M  V30 6366 C 630.896 -1.19928 1.6921 0
M  V30 6367 C 631.321 -1.8392 0.394355 0
M  V30 6368 O 630.679 -1.69371 -0.646778 0
M  V30 6369 C 630.727 -2.24937 2.81843 0
M  V30 6370 O 629.831 -3.3073 2.46356 0
M  V30 6371 H 629.172 -0.35078 0.563781 0
M  V30 6372 H 631.702 -0.499401 1.98412 0
M  V30 6373 H 631.712 -2.69512 3.06312 0
M  V30 6374 H 630.387 -1.77742 3.76006 0
M  V30 6375 H 628.964 -2.9154 2.32505 0
M  V30 6376 N 631.149 -1.42148 -0.680565 0
M  V30 6377 C 632.374 -1.45901 -1.47403 0
M  V30 6378 C 632.799 -0.0700985 -1.87969 0
M  V30 6379 O 632.157 0.930145 -1.55621 0
M  V30 6380 C 632.205 -2.38661 -2.70321 0
M  V30 6381 O 631.309 -1.85399 -3.68376 0
M  V30 6382 H 630.65 -0.494565 -0.443059 0
M  V30 6383 H 633.18 -1.86774 -0.835251 0
M  V30 6384 H 633.19 -2.55046 -3.18458 0
M  V30 6385 H 631.865 -3.39571 -2.40134 0
M  V30 6386 H 630.442 -1.78541 -3.2738 0
M  V30 6387 N 632.627 0.916307 -1.28225 0
M  V30 6388 C 633.904 1.64429 -1.05936 0
M  V30 6389 C 634.284 2.07234 0.402139 0
M  V30 6390 O 633.632 1.81535 1.3877 0
M  V30 6391 C 633.842 2.83773 -2.03159 0
M  V30 6392 C 635.19 3.54852 -2.33164 0
M  V30 6393 O 636.214 2.93918 -2.01223 0
M  V30 6394 O 635.073 4.64663 -2.87664 0
M  V30 6395 H 632.167 0.721221 -0.404683 0
M  V30 6396 H 634.713 0.965838 -1.39534 0
M  V30 6397 H 633.485 2.49217 -3.01673 0
M  V30 6398 H 633.108 3.59333 -1.70192 0
M  V30 6399 N 634.105 1.10431 1.1244 0
M  V30 6400 C 635.015 0.765502 2.21759 0
M  V30 6401 C 636.031 -0.236966 1.72379 0
M  V30 6402 O 637.207 -0.0757329 2.01258 0
M  V30 6403 C 634.272 0.202316 3.46109 0
M  V30 6404 C 633.333 1.26205 4.1033 0
M  V30 6405 C 632.566 0.725648 5.28744 0
M  V30 6406 O 632.789 -0.447942 5.68638 0
M  V30 6407 O 631.723 1.48555 5.83279 0
M  V30 6408 H 635.549 1.67801 2.53133 0
M  V30 6409 H 633.134 0.879443 1.20773 0
M  V30 6410 H 635.016 -0.107918 4.21262 0
M  V30 6411 H 633.691 -0.683052 3.16411 0
M  V30 6412 H 632.598 1.62514 3.36957 0
M  V30 6413 H 633.931 2.12044 4.44183 0
M  V30 6414 N 635.583 -1.29855 0.893053 0
M  V30 6415 C 636.813 -1.99686 0.530019 0
M  V30 6416 C 637.221 -1.67066 -0.888012 0
M  V30 6417 O 636.564 -0.908366 -1.5967 0
M  V30 6418 C 636.626 -3.53855 0.63457 0
M  V30 6419 C 636.29 -4.10013 2.01837 0
M  V30 6420 C 637.287 -4.25406 2.98874 0
M  V30 6421 C 634.972 -4.45202 2.32595 0
M  V30 6422 C 636.966 -4.7521 4.24799 0
M  V30 6423 C 634.653 -4.94704 3.58763 0
M  V30 6424 C 635.651 -5.09662 4.5468 0
M  V30 6425 O 635.339 -5.58093 5.78608 0
M  V30 6426 H 635.071 -0.644913 0.20264 0
M  V30 6427 H 637.625 -1.66518 1.20253 0
M  V30 6428 H 635.855 -3.86583 -0.0949477 0
M  V30 6429 H 637.544 -4.04922 0.281648 0
M  V30 6430 H 638.31 -3.98515 2.76425 0
M  V30 6431 H 634.189 -4.32822 1.58701 0
M  V30 6432 H 637.733 -4.86801 4.99671 0
M  V30 6433 H 633.63 -5.21032 3.81046 0
M  V30 6434 H 634.398 -5.7642 5.81104 0
M  V30 6435 N 637.061 -0.65484 -1.43351 0
M  V30 6436 C 638.309 -0.168559 -2.01396 0
M  V30 6437 C 638.63 1.22235 -1.51933 0
M  V30 6438 O 637.9 1.81685 -0.732627 0
M  V30 6439 H 636.48 -0.0593244 -0.744641 0
M  V30 6440 H 639.142 -0.846871 -1.75539 0
M  V30 6441 H 638.238 -0.154428 -3.11718 0
M  V30 6442 N 638.539 1.52521 -0.396863 0
M  V30 6443 C 639.764 2.06571 0.185258 0
M  V30 6444 C 640.189 1.26605 1.39115 0
M  V30 6445 O 639.547 0.293055 1.78916 0
M  V30 6446 C 639.595 3.5674 0.526189 0
M  V30 6447 O 638.699 3.7929 1.61903 0
M  V30 6448 H 638.04 0.663712 0.0195474 0
M  V30 6449 H 640.57 1.966 -0.566519 0
M  V30 6450 H 640.58 4.00311 0.788338 0
M  V30 6451 H 639.255 4.14379 -0.355397 0
M  V30 6452 H 637.832 3.47605 1.35 0
M  V30 6453 N 640.017 0.126909 1.57088 0
M  V30 6454 C 641.242 -0.53997 2.00248 0
M  V30 6455 C 641.667 -1.58927 1.00618 0
M  V30 6456 O 641.025 -1.81288 -0.0210131 0
M  V30 6457 C 641.073 -1.13565 3.4225 0
M  V30 6458 O 640.177 -2.25103 3.45547 0
M  V30 6459 H 639.518 -0.13412 0.650314 0
M  V30 6460 H 642.048 0.217718 2.03438 0
M  V30 6461 H 642.058 -1.46925 3.80627 0
M  V30 6462 H 640.733 -0.367122 4.14277 0
M  V30 6463 H 639.31 -1.93123 3.18995 0
M  V30 6464 N 641.495 -1.56914 -0.146875 0
M  V30 6465 C 642.906 -1.72799 -0.706928 0
M  V30 6466 C 643.257 -0.741329 -1.81656 0
M  V30 6467 O 642.382 0.0920162 -2.16204 0
M  V30 6468 C 642.977 -3.13317 -1.28911 0
M  V30 6469 C 641.536 -3.30803 -1.79573 0
M  V30 6470 C 640.683 -2.68725 -0.684252 0
M  V30 6471 H 643.634 -1.58504 0.0787931 0
M  V30 6472 H 643.655 -3.13323 -2.15891 0
M  V30 6473 H 643.167 -3.85104 -0.481284 0
M  V30 6474 H 641.268 -2.64012 -2.62923 0
M  V30 6475 H 641.381 -4.38754 -1.92436 0
M  V30 6476 H 639.745 -2.29196 -1.11091 0
M  V30 6477 H 640.528 -3.43117 0.112134 0
M  V30 6478 N 642.974 0.416227 -1.52004 0
M  V30 6479 C 644.214 1.17307 -1.67387 0
M  V30 6480 C 644.578 1.87959 -0.39183 0
M  V30 6481 O 645.779 2.65472 -0.421671 0
M  V30 6482 C 644.05 2.14661 -2.85754 0
M  V30 6483 S 645.609 2.98549 -3.21581 0
M  V30 6484 H 642.427 0.397505 -0.5895 0
M  V30 6485 H 645.029 0.461431 -1.89976 0
M  V30 6486 H 643.733 1.61431 -3.77317 0
M  V30 6487 H 643.264 2.90375 -2.65417 0
M  V30 6488 H 645.279 4.16536 -2.69652 0
M  V30 6489 N 644.452 1.42507 0.673017 0
M  V30 6490 C 645.729 1.33554 1.42908 0
M  V30 6491 C 646.109 -0.0262211 2.11084 0
M  V30 6492 O 645.457 -1.04181 2.03368 0
M  V30 6493 C 645.667 2.50498 2.43006 0
M  V30 6494 C 647.015 2.92694 3.07596 0
M  V30 6495 O 648.039 2.50401 2.53333 0
M  V30 6496 O 646.898 3.65899 4.05931 0
M  V30 6497 H 643.992 0.526785 0.637516 0
M  V30 6498 H 646.538 1.54518 0.701591 0
M  V30 6499 H 645.31 3.41272 1.9144 0
M  V30 6500 H 644.933 2.3153 3.23233 0
M  V30 6501 N 645.93 -0.909495 1.28709 0
M  V30 6502 C 647.177 -1.65905 1.16111 0
M  V30 6503 C 647.505 -1.92334 -0.289436 0
M  V30 6504 O 646.76 -1.52495 -1.22653 0
M  V30 6505 C 647.059 -3.02117 1.90945 0
M  V30 6506 C 646.725 -2.95332 3.40719 0
M  V30 6507 C 645.387 -2.93189 3.81567 0
M  V30 6508 C 647.739 -2.85264 4.36204 0
M  V30 6509 C 645.067 -2.78784 5.16233 0
M  V30 6510 C 647.419 -2.724 5.70948 0
M  V30 6511 C 646.083 -2.68617 6.11066 0
M  V30 6512 H 645.353 -0.60709 0.42488 0
M  V30 6513 H 648 -1.05932 1.59533 0
M  V30 6514 H 646.305 -3.65901 1.40085 0
M  V30 6515 H 648.002 -3.59026 1.7861 0
M  V30 6516 H 644.592 -2.97797 3.08245 0
M  V30 6517 H 648.776 -2.86005 4.05605 0
M  V30 6518 H 644.032 -2.74254 5.46438 0
M  V30 6519 H 648.206 -2.63579 6.44592 0
M  V30 6520 H 645.833 -2.57213 7.15364 0
M  V30 6521 N 647.408 -1.11026 -1.11852 0
M  V30 6522 C 648.824 -0.843294 -1.35502 0
M  V30 6523 C 649.024 0.534179 -1.9429 0
M  V30 6524 O 648.08 1.28585 -2.17307 0
M  V30 6525 C 649.393 -1.94793 -2.29077 0
M  V30 6526 C 650.941 -1.97709 -2.42652 0
M  V30 6527 C 651.416 -3.07364 -3.39546 0
M  V30 6528 N 652.907 -3.0671 -3.47107 0
M  V30 6529 C 653.642 -3.88197 -4.22008 0
M  V30 6530 N 653.138 -4.79635 -4.99922 0
M  V30 6531 N 654.931 -3.76391 -4.17476 0
M  V30 6532 H 647.082 -1.99805 -0.720538 0
M  V30 6533 H 649.345 -0.868633 -0.379711 0
M  V30 6534 H 649.051 -2.93971 -1.93065 0
M  V30 6535 H 648.925 -1.84039 -3.29256 0
M  V30 6536 H 651.312 -0.991604 -2.77941 0
M  V30 6537 H 651.393 -2.1254 -1.4234 0
M  V30 6538 H 651.037 -4.06136 -3.04985 0
M  V30 6539 H 650.967 -2.89774 -4.39703 0
M  V30 6540 H 653.458 -2.40457 -2.91528 0
M  V30 6541 H 653.771 -5.38357 -5.54429 0
M  V30 6542 H 652.116 -4.8366 -4.99097 0
M  V30 6543 H 655.307 -3.04303 -3.55693 0
M  V30 6544 H 655.48 -4.40131 -4.75593 0
M  V30 6545 N 648.886 1.2938 -0.899927 0
M  V30 6546 C 650.111 2.00228 -0.540692 0
M  V30 6547 C 650.536 1.66909 0.867359 0
M  V30 6548 O 649.894 0.893824 1.57735 0
M  V30 6549 C 649.942 3.52921 -0.740232 0
M  V30 6550 O 649.046 4.11879 0.207154 0
M  V30 6551 H 648.387 0.629505 -0.211233 0
M  V30 6552 H 650.917 1.6487 -1.21158 0
M  V30 6553 H 650.927 4.0287 -0.644973 0
M  V30 6554 H 649.602 3.76508 -1.76677 0
M  V30 6555 H 648.179 3.72845 0.0643315 0
M  V30 6556 N 650.364 0.662433 1.43002 0
M  V30 6557 C 651.589 0.186003 2.06564 0
M  V30 6558 C 652.014 -1.14314 1.49379 0
M  V30 6559 O 651.372 -1.70824 0.607346 0
M  V30 6560 C 651.42 0.118269 3.60406 0
M  V30 6561 O 650.524 -0.916859 4.02079 0
M  V30 6562 H 649.865 0.0990981 0.656563 0
M  V30 6563 H 652.395 0.907958 1.8335 0
M  V30 6564 H 652.405 -0.0619981 4.07953 0
M  V30 6565 H 651.08 1.08849 4.01403 0
M  V30 6566 H 649.657 -0.708635 3.66105 0
M  V30 6567 N 651.842 -1.52309 0.404946 0
M  V30 6568 C 653.089 -2.01767 -0.1722 0
M  V30 6569 C 653.417 -1.29075 -1.45498 0
M  V30 6570 O 652.672 -0.3843 -1.9189 0
M  V30 6571 C 652.971 -3.54284 -0.470895 0
M  V30 6572 C 652.637 -4.45079 0.722194 0
M  V30 6573 C 651.299 -4.69617 1.04946 0
M  V30 6574 C 653.651 -4.98555 1.51962 0
M  V30 6575 C 650.979 -5.44878 2.17543 0
M  V30 6576 C 653.331 -5.75049 2.63632 0
M  V30 6577 C 651.995 -5.9786 2.9685 0
M  V30 6578 H 651.265 -0.738316 -0.0630125 0
M  V30 6579 H 653.912 -1.83566 0.545506 0
M  V30 6580 H 652.217 -3.70642 -1.27012 0
M  V30 6581 H 653.914 -3.90058 -0.930346 0
M  V30 6582 H 650.504 -4.26155 0.457131 0
M  V30 6583 H 654.688 -4.79509 1.28002 0
M  V30 6584 H 649.944 -5.60762 2.43631 0
M  V30 6585 H 654.118 -6.15483 3.25813 0
M  V30 6586 H 651.745 -6.5596 3.84215 0
M  V30 6587 N 653.32 -0.135238 -1.57019 0
M  V30 6588 C 654.736 0.221262 -1.58059 0
M  V30 6589 C 654.936 1.65538 -1.14889 0
M  V30 6590 O 653.992 2.37985 -0.843751 0
M  V30 6591 C 655.305 -0.0268114 -3.00688 0
M  V30 6592 C 656.853 0.0378206 -3.12977 0
M  V30 6593 C 657.328 -0.182769 -4.57635 0
M  V30 6594 N 658.819 -0.129292 -4.6302 0
M  V30 6595 C 659.554 -0.274648 -5.72742 0
M  V30 6596 N 659.05 -0.477075 -6.91155 0
M  V30 6597 N 660.843 -0.213077 -5.61696 0
M  V30 6598 H 652.994 -1.07177 -1.83376 0
M  V30 6599 H 655.257 -0.423338 -0.848227 0
M  V30 6600 H 654.963 -1.01889 -3.36618 0
M  V30 6601 H 654.837 0.697863 -3.70688 0
M  V30 6602 H 657.224 1.02043 -2.76896 0
M  V30 6603 H 657.305 -0.718996 -2.45487 0
M  V30 6604 H 656.949 -1.16243 -4.94419 0
M  V30 6605 H 656.879 0.59423 -5.23237 0
M  V30 6606 H 659.37 0.0229896 -3.77893 0
M  V30 6607 H 659.683 -0.578413 -7.70632 0
M  V30 6608 H 658.028 -0.513252 -6.93102 0
M  V30 6609 H 661.219 -0.0557796 -4.68067 0
M  V30 6610 H 661.392 -0.329796 -6.4716 0
M  V30 6611 N 654.798 1.5699 0.138552 0
M  V30 6612 C 656.023 1.88344 0.86841 0
M  V30 6613 C 656.448 0.725159 1.7356 0
M  V30 6614 O 655.806 -0.324992 1.78363 0
M  V30 6615 C 655.854 3.18334 1.69398 0
M  V30 6616 O 654.958 3.02863 2.79907 0
M  V30 6617 H 654.299 0.618577 0.241367 0
M  V30 6618 H 656.829 2.04207 0.126826 0
M  V30 6619 H 656.839 3.50567 2.08726 0
M  V30 6620 H 655.514 4.02238 1.05725 0
M  V30 6621 H 654.091 2.82056 2.43924 0
M  V30 6622 N 656.276 -0.40816 1.52223 0
M  V30 6623 C 657.522 -1.15673 1.66576 0
M  V30 6624 C 657.855 -1.90141 0.394996 0
M  V30 6625 O 657.13 -1.84798 -0.606613 0
M  V30 6626 C 657.413 -2.15042 2.88841 0
M  V30 6627 C 657.266 -1.44465 4.25969 0
M  V30 6628 C 658.585 -3.15699 3.0663 0
M  V30 6629 H 655.704 -0.41916 0.606196 0
M  V30 6630 H 658.346 -0.442348 1.84779 0
M  V30 6631 H 656.496 -2.75964 2.73452 0
M  V30 6632 H 658.168 -0.866544 4.53088 0
M  V30 6633 H 656.411 -0.746612 4.27327 0
M  V30 6634 H 657.082 -2.16976 5.07568 0
M  V30 6635 H 659.558 -2.64854 3.20923 0
M  V30 6636 H 658.434 -3.82491 3.9369 0
M  V30 6637 H 658.695 -3.83481 2.19987 0
M  V30 6638 N 657.755 -1.42862 -0.66545 0
M  V30 6639 C 658.983 -1.47246 -1.45349 0
M  V30 6640 C 659.398 -0.0865944 -1.88601 0
M  V30 6641 O 658.755 0.900652 -1.58728 0
M  V30 6642 C 658.806 -2.40772 -2.6965 0
M  V30 6643 O 658.527 -3.73968 -2.2821 0
M  V30 6644 C 660.028 -2.54272 -3.63126 0
M  V30 6645 H 657.248 -0.500497 -0.446927 0
M  V30 6646 H 659.792 -1.87477 -0.816871 0
M  V30 6647 H 657.947 -2.0377 -3.29479 0
M  V30 6648 H 658.361 -4.24146 -3.08546 0
M  V30 6649 H 659.835 -3.23815 -4.47043 0
M  V30 6650 H 660.312 -1.58364 -4.09656 0
M  V30 6651 H 660.918 -2.92036 -3.09185 0
M  V30 6652 N 659.233 0.902656 -1.29189 0
M  V30 6653 C 660.644 1.46809 -1.15343 0
M  V30 6654 C 660.995 1.94568 0.252517 0
M  V30 6655 O 660.12 1.83454 1.14777 0
M  V30 6656 C 660.715 2.66829 -2.08776 0
M  V30 6657 C 659.274 3.19518 -1.98961 0
M  V30 6658 C 658.421 1.92212 -1.99874 0
M  V30 6659 H 661.372 0.714282 -1.41717 0
M  V30 6660 H 661.393 3.42465 -1.65826 0
M  V30 6661 H 660.905 2.32039 -3.11094 0
M  V30 6662 H 659.006 3.59008 -0.99721 0
M  V30 6663 H 659.119 3.84016 -2.86477 0
M  V30 6664 H 657.483 2.0979 -1.44431 0
M  V30 6665 H 658.266 1.59702 -3.03891 0
M  V30 6666 N 660.711 1.11618 1.11262 0
M  V30 6667 C 661.988 0.777876 1.79467 0
M  V30 6668 C 662.368 -0.733774 1.97937 0
M  V30 6669 O 661.716 -1.66443 1.56554 0
M  V30 6670 C 661.926 1.5431 3.13032 0
M  V30 6671 C 663.274 1.72357 3.88044 0
M  V30 6672 O 664.298 1.5075 3.22727 0
M  V30 6673 O 663.157 2.08276 5.05256 0
M  V30 6674 H 660.251 0.282018 0.777428 0
M  V30 6675 H 662.797 1.21971 1.17988 0
M  V30 6676 H 661.569 2.57132 2.94956 0
M  V30 6677 H 661.192 1.09495 3.82226 0
M  V30 6678 N 662.189 -1.289 0.906776 0
M  V30 6679 C 663.414 -1.99939 0.551303 0
M  V30 6680 C 663.839 -1.67366 -0.858496 0
M  V30 6681 O 663.197 -0.902176 -1.57259 0
M  V30 6682 C 663.245 -3.52523 0.758937 0
M  V30 6683 O 662.349 -4.11983 -0.185308 0
M  V30 6684 H 661.69 -0.628376 0.214568 0
M  V30 6685 H 664.22 -1.64225 1.2203 0
M  V30 6686 H 664.23 -4.02522 0.666329 0
M  V30 6687 H 662.905 -3.75566 1.78671 0
M  V30 6688 H 661.482 -3.72873 -0.0445577 0
M  V30 6689 N 663.667 -0.670007 -1.42649 0
M  V30 6690 C 664.597 -0.00258501 -2.335 0
M  V30 6691 C 665.578 0.794364 -1.50412 0
M  V30 6692 O 666.763 0.75248 -1.79029 0
M  V30 6693 C 663.893 0.952748 -3.33976 0
M  V30 6694 C 662.847 0.264733 -4.2718 0
M  V30 6695 C 662.173 1.33267 -5.17826 0
M  V30 6696 C 663.473 -0.853289 -5.15283 0
M  V30 6697 H 665.167 -0.761326 -2.89559 0
M  V30 6698 H 662.713 -0.367561 -1.3923 0
M  V30 6699 H 664.666 1.4287 -3.96442 0
M  V30 6700 H 663.39 1.74285 -2.7621 0
M  V30 6701 H 662.049 -0.190938 -3.66102 0
M  V30 6702 H 661.697 2.11464 -4.5639 0
M  V30 6703 H 661.397 0.877476 -5.81011 0
M  V30 6704 H 662.921 1.80965 -5.83167 0
M  V30 6705 H 664.335 -0.458763 -5.71462 0
M  V30 6706 H 662.732 -1.23398 -5.87276 0
M  V30 6707 H 663.802 -1.70412 -4.53969 0
M  V30 6708 N 665.145 1.52092 -0.413018 0
M  V30 6709 C 666.393 2.01456 0.161178 0
M  V30 6710 C 666.714 1.30034 1.45314 0
M  V30 6711 O 665.984 0.427435 1.9118 0
M  V30 6712 H 664.564 0.744376 0.0625526 0
M  V30 6713 H 667.226 1.86974 -0.550151 0
M  V30 6714 H 666.322 3.1008 0.354517 0
M  V30 6715 N 666.623 0.143563 1.56945 0
M  V30 6716 C 667.573 -0.809115 2.1316 0
M  V30 6717 C 668.557 -1.21176 1.05855 0
M  V30 6718 O 669.749 -1.17875 1.3204 0
M  V30 6719 C 666.878 -2.04957 2.75405 0
M  V30 6720 C 665.964 -1.67018 3.89828 0
M  V30 6721 N 666.355 -0.998822 4.9584 0
M  V30 6722 C 664.653 -1.96313 4.00471 0
M  V30 6723 C 665.354 -0.816217 5.75945 0
M  V30 6724 N 664.33 -1.349 5.26596 0
M  V30 6725 H 668.132 -0.286919 2.92496 0
M  V30 6726 H 665.646 -0.0580948 1.62296 0
M  V30 6727 H 667.643 -2.74201 3.14037 0
M  V30 6728 H 666.303 -2.57697 1.97541 0
M  V30 6729 H 667.314 -0.659975 5.13678 0
M  V30 6730 H 663.991 -2.50927 3.33679 0
M  V30 6731 H 665.381 -0.287353 6.71285 0
M  V30 6732 N 668.101 -1.57061 -0.130224 0
M  V30 6733 C 669.329 -1.88432 -0.854456 0
M  V30 6734 C 669.744 -0.733608 -1.73964 0
M  V30 6735 O 669.101 0.296029 -1.80083 0
M  V30 6736 C 669.152 -3.1918 -1.69724 0
M  V30 6737 O 668.873 -4.2982 -0.847705 0
M  V30 6738 C 670.374 -3.6418 -2.5276 0
M  V30 6739 H 667.594 -0.624193 -0.246221 0
M  V30 6740 H 670.138 -2.04159 -0.11798 0
M  V30 6741 H 668.293 -3.05156 -2.3866 0
M  V30 6742 H 668.707 -5.04689 -1.42792 0
M  V30 6743 H 670.181 -4.58457 -3.07443 0
M  V30 6744 H 670.658 -2.90285 -3.29592 0
M  V30 6745 H 671.264 -3.80954 -1.89087 0
M  V30 6746 N 669.579 0.400081 -1.52437 0
M  V30 6747 C 670.99 0.97851 -1.59003 0
M  V30 6748 C 671.341 1.91293 -0.436068 0
M  V30 6749 O 670.466 2.1183 0.442365 0
M  V30 6750 C 671.061 1.78145 -2.88184 0
M  V30 6751 C 669.62 2.30976 -2.97199 0
M  V30 6752 C 668.767 1.11212 -2.54022 0
M  V30 6753 H 671.718 0.180002 -1.57676 0
M  V30 6754 H 671.739 2.63968 -2.74046 0
M  V30 6755 H 671.251 1.1011 -3.72152 0
M  V30 6756 H 669.352 3.02355 -2.17744 0
M  V30 6757 H 669.465 2.61221 -4.01622 0
M  V30 6758 H 667.829 1.46882 -2.08081 0
M  V30 6759 H 668.612 0.447307 -3.40373 0
M  V30 6760 N 671.057 1.43213 0.657864 0
M  V30 6761 C 672.468 1.39669 1.23893 0
M  V30 6762 C 672.819 0.0984217 1.95953 0
M  V30 6763 O 671.944 -0.8023 2.00978 0
M  V30 6764 C 672.539 2.53004 2.25332 0
M  V30 6765 C 671.098 2.5274 2.78926 0
M  V30 6766 C 670.245 2.30941 1.53497 0
M  V30 6767 H 673.196 1.52181 0.450172 0
M  V30 6768 H 673.217 2.24226 3.07413 0
M  V30 6769 H 672.729 3.4748 1.72856 0
M  V30 6770 H 670.83 1.6213 3.35477 0
M  V30 6771 H 670.943 3.50352 3.26787 0
M  V30 6772 H 669.307 1.7952 1.80678 0
M  V30 6773 H 670.09 3.27496 1.02963 0
M  V30 6774 N 672.536 -0.895792 1.29666 0
M  V30 6775 C 673.499 -1.98189 1.15124 0
M  V30 6776 C 674.499 -1.60572 0.0855717 0
M  V30 6777 O 675.689 -1.70991 0.332826 0
M  V30 6778 C 672.821 -3.32289 0.761372 0
M  V30 6779 H 674.014 -2.12518 2.11603 0
M  V30 6780 H 671.567 -1.0808 1.12908 0
M  V30 6781 H 672.302 -3.23662 -0.203393 0
M  V30 6782 H 672.087 -3.60958 1.53139 0
M  V30 6783 H 673.577 -4.1198 0.682792 0
M  V30 6784 N 674.014 -1.12206 -1.10668 0
M  V30 6785 C 675.43 -0.857619 -1.346 0
M  V30 6786 C 675.63 0.513542 -1.94846 0
M  V30 6787 O 674.686 1.26273 -2.18658 0
M  V30 6788 C 675.999 -1.97212 -2.26998 0
M  V30 6789 C 677.547 -2.00272 -2.40542 0
M  V30 6790 C 678.022 -3.10948 -3.36267 0
M  V30 6791 N 679.513 -3.10375 -3.43834 0
M  V30 6792 C 680.248 -3.92651 -4.17867 0
M  V30 6793 N 679.744 -4.84911 -4.94807 0
M  V30 6794 N 681.537 -3.80798 -4.1346 0
M  V30 6795 H 673.688 -2.00558 -0.699306 0
M  V30 6796 H 675.951 -0.872612 -0.370477 0
M  V30 6797 H 675.657 -2.96002 -1.89936 0
M  V30 6798 H 675.531 -1.87521 -3.27286 0
M  V30 6799 H 677.918 -1.02103 -2.76874 0
M  V30 6800 H 677.999 -2.14037 -1.40077 0
M  V30 6801 H 677.643 -4.09348 -3.00661 0
M  V30 6802 H 677.573 -2.94421 -4.36605 0
M  V30 6803 H 680.064 -2.43536 -2.88961 0
M  V30 6804 H 680.377 -5.44207 -5.48688 0
M  V30 6805 H 678.722 -4.88926 -4.93939 0
M  V30 6806 H 681.913 -3.08058 -3.52445 0
M  V30 6807 H 682.086 -4.4515 -4.70898 0
M  V30 6808 N 675.492 1.28418 -0.913599 0
M  V30 6809 C 676.74 1.94596 -0.545594 0
M  V30 6810 C 677.061 1.7227 0.913668 0
M  V30 6811 O 676.331 1.06233 1.64595 0
M  V30 6812 H 674.911 0.720065 -0.198783 0
M  V30 6813 H 677.573 1.56404 -1.16292 0
M  V30 6814 H 676.669 3.03202 -0.739911 0
M  V30 6815 N 676.97 0.677563 1.42291 0
M  V30 6816 C 677.88 0.000962654 2.346 0
M  V30 6817 C 678.896 -0.785833 1.55244 0
M  V30 6818 O 680.072 -0.727523 1.87801 0
M  V30 6819 C 677.137 -0.936746 3.33805 0
M  V30 6820 C 676.198 -0.144173 4.29058 0
M  V30 6821 C 675.431 -1.03722 5.23524 0
M  V30 6822 O 675.654 -2.27675 5.22992 0
M  V30 6823 O 674.588 -0.496542 5.99848 0
M  V30 6824 H 678.414 0.761397 2.94001 0
M  V30 6825 H 675.999 0.43781 1.42841 0
M  V30 6826 H 677.881 -1.47497 3.94744 0
M  V30 6827 H 676.556 -1.67698 2.76874 0
M  V30 6828 H 675.463 0.438224 3.71524 0
M  V30 6829 H 676.796 0.55701 4.89038 0
M  V30 6830 N 678.448 -1.51871 0.421078 0
M  V30 6831 C 679.358 -2.31077 -0.405069 0
M  V30 6832 C 680.374 -1.39301 -1.04265 0
M  V30 6833 O 681.55 -1.72376 -1.04157 0
M  V30 6834 C 678.615 -3.12556 -1.50032 0
M  V30 6835 C 677.676 -4.20088 -0.884559 0
M  V30 6836 C 676.909 -4.97673 -1.92762 0
M  V30 6837 O 677.132 -4.75696 -3.14753 0
M  V30 6838 O 676.066 -5.82203 -1.52719 0
M  V30 6839 H 679.892 -3.02742 0.241086 0
M  V30 6840 H 677.477 -1.48263 0.183991 0
M  V30 6841 H 679.359 -3.6326 -2.13589 0
M  V30 6842 H 678.034 -2.43672 -2.13086 0
M  V30 6843 H 676.941 -3.73502 -0.211379 0
M  V30 6844 H 678.274 -4.91298 -0.297763 0
M  V30 6845 N 679.926 -0.151884 -1.56866 0
M  V30 6846 C 680.836 0.798876 -2.20579 0
M  V30 6847 C 681.852 1.268 -1.19154 0
M  V30 6848 O 683.028 1.32418 -1.51748 0
M  V30 6849 C 680.093 2.01861 -2.81874 0
M  V30 6850 C 679.154 1.59825 -3.9844 0
M  V30 6851 C 678.387 2.75984 -4.56802 0
M  V30 6852 O 678.61 3.92331 -4.14044 0
M  V30 6853 O 677.544 2.51175 -5.46987 0
M  V30 6854 H 681.37 0.2865 -3.02346 0
M  V30 6855 H 678.955 0.0753806 -1.4921 0
M  V30 6856 H 680.837 2.73235 -3.20813 0
M  V30 6857 H 679.512 2.52042 -2.03117 0
M  V30 6858 H 678.419 0.854601 -3.64208 0
M  V30 6859 H 679.752 1.14355 -4.78731 0
M  V30 6860 N 681.404 1.57128 0.121893 0
M  V30 6861 C 682.334 2.03165 1.15092 0
M  V30 6862 C 683.315 0.915587 1.43356 0
M  V30 6863 O 684.5 1.1851 1.53847 0
M  V30 6864 C 681.63 2.43352 2.47784 0
M  V30 6865 C 680.584 3.58376 2.33989 0
M  V30 6866 C 679.91 3.84454 3.71617 0
M  V30 6867 C 681.21 4.90199 1.80283 0
M  V30 6868 H 682.904 2.89382 0.768023 0
M  V30 6869 H 680.45 1.39218 0.367998 0
M  V30 6870 H 682.403 2.74163 3.20019 0
M  V30 6871 H 681.127 1.54103 2.87958 0
M  V30 6872 H 679.786 3.2777 1.64202 0
M  V30 6873 H 679.434 2.92414 4.09271 0
M  V30 6874 H 679.134 4.61877 3.6324 0
M  V30 6875 H 680.658 4.17714 4.45362 0
M  V30 6876 H 682.072 5.19565 2.42333 0
M  V30 6877 H 680.469 5.71601 1.82735 0
M  V30 6878 H 681.539 4.78904 0.760184 0
M  V30 6879 N 682.882 -0.391992 1.52647 0
M  V30 6880 C 684.107 -1.16312 1.71716 0
M  V30 6881 C 684.532 -1.83042 0.433279 0
M  V30 6882 O 683.89 -1.70705 -0.610707 0
M  V30 6883 C 683.938 -2.18908 2.86551 0
M  V30 6884 O 683.042 -3.2543 2.53316 0
M  V30 6885 H 682.383 -0.338743 0.571095 0
M  V30 6886 H 684.913 -0.457202 1.99426 0
M  V30 6887 H 684.923 -2.62954 3.1196 0
M  V30 6888 H 683.598 -1.69726 3.79692 0
M  V30 6889 H 682.175 -2.86543 2.38637 0
M  V30 6890 N 684.36 -1.4356 -0.65026 0
M  V30 6891 C 685.308 -1.49219 -1.78427 0
M  V30 6892 C 686.302 -0.365528 -1.65409 0
M  V30 6893 O 687.508 -0.539649 -1.7172 0
M  V30 6894 H 683.883 -0.467858 -0.588738 0
M  V30 6895 H 685.854 -2.44701 -1.70774 0
M  V30 6896 C 684.603 -1.43519 -3.16698 0
M  V30 6897 H 683.926 -2.2952 -3.27354 0
M  V30 6898 H 685.366 -1.5154 -3.95995 0
M  V30 6899 C 683.825 -0.153197 -3.36552 0
M  V30 6900 O 684.355 0.784317 -3.93969 0
M  V30 6901 N 682.561 -0.0624402 -2.90533 0
M  V30 6902 H 682.108 -0.826172 -2.43992 0
M  V30 6903 H 682.066 0.794616 -3.04193 0
M  V30 6904 N 685.838 0.888903 -1.30139 0
M  V30 6905 C 687.068 1.67115 -1.21474 0
M  V30 6906 C 687.476 1.87852 0.225472 0
M  V30 6907 O 686.819 1.42324 1.16145 0
M  V30 6908 C 686.881 3.0713 -1.86846 0
M  V30 6909 C 686.545 3.09582 -3.36167 0
M  V30 6910 C 687.542 2.88929 -4.32222 0
M  V30 6911 C 685.227 3.31304 -3.77549 0
M  V30 6912 C 687.221 2.89949 -5.67634 0
M  V30 6913 C 684.908 3.31954 -5.13079 0
M  V30 6914 C 685.906 3.113 -6.07932 0
M  V30 6915 O 685.594 3.11758 -7.40987 0
M  V30 6916 H 685.326 0.528372 -0.421662 0
M  V30 6917 H 687.88 1.11919 -1.7223 0
M  V30 6918 H 686.11 3.63973 -1.30615 0
M  V30 6919 H 687.799 3.6749 -1.72354 0
M  V30 6920 H 688.565 2.71948 -4.01584 0
M  V30 6921 H 684.444 3.46417 -3.04165 0
M  V30 6922 H 687.988 2.73746 -6.41645 0
M  V30 6923 H 683.885 3.48469 -5.43359 0
M  V30 6924 H 684.653 3.27951 -7.49927 0
M  V30 6925 N 687.317 1.12792 1.10072 0
M  V30 6926 C 688.566 0.880232 1.81479 0
M  V30 6927 C 688.879 -0.595575 1.86312 0
M  V30 6928 O 690.085 -0.959979 2.53962 0
M  V30 6929 C 688.541 1.52514 3.25987 0
M  V30 6930 C 688.149 3.036 3.29441 0
M  V30 6931 C 689.893 1.35788 4.02196 0
M  V30 6932 C 687.8 3.61007 4.68431 0
M  V30 6933 H 686.73 0.325654 0.680048 0
M  V30 6934 H 689.381 1.35485 1.23758 0
M  V30 6935 H 687.763 0.978188 3.83728 0
M  V30 6936 H 688.937 3.64819 2.81502 0
M  V30 6937 H 687.252 3.19765 2.66719 0
M  V30 6938 H 689.849 1.76096 5.0487 0
M  V30 6939 H 690.192 0.301972 4.15203 0
M  V30 6940 H 690.725 1.87426 3.50879 0
M  V30 6941 H 687.464 4.66375 4.60625 0
M  V30 6942 H 686.984 3.04564 5.16721 0
M  V30 6943 H 688.663 3.60289 5.37402 0
M  V30 6944 N 688.795 -1.27931 0.920396 0
M  V30 6945 C 690.035 -1.96459 0.564198 0
M  V30 6946 C 690.399 -1.70802 -0.876967 0
M  V30 6947 O 691.6 -2.32956 -1.34107 0
M  V30 6948 C 689.871 -3.46583 0.872641 0
M  V30 6949 S 691.43 -4.34343 0.623859 0
M  V30 6950 H 688.248 -0.679735 0.208523 0
M  V30 6951 H 690.85 -1.55319 1.18727 0
M  V30 6952 H 689.554 -3.62753 1.91933 0
M  V30 6953 H 689.085 -3.92677 0.238479 0
M  V30 6954 H 691.1 -4.93449 -0.521744 0
M  V30 6955 N 690.273 -0.685099 -1.4193 0
M  V30 6956 C 691.206 0.0371639 -2.2817 0
M  V30 6957 C 692.184 0.798436 -1.41647 0
M  V30 6958 O 693.368 0.791428 -1.71081 0
M  V30 6959 C 690.495 1.05993 -3.21688 0
M  V30 6960 C 689.541 0.393043 -4.24685 0
M  V30 6961 S 690.374 -0.856921 -5.28599 0
M  V30 6962 C 691.53 0.164508 -6.25684 0
M  V30 6963 H 691.763 -0.694305 -2.89079 0
M  V30 6964 H 689.296 -0.474999 -1.46912 0
M  V30 6965 H 691.254 1.64489 -3.76103 0
M  V30 6966 H 689.915 1.7639 -2.59895 0
M  V30 6967 H 689.108 1.16513 -4.90348 0
M  V30 6968 H 688.71 -0.118589 -3.73812 0
M  V30 6969 H 691.002 1.02106 -6.69762 0
M  V30 6970 H 691.945 -0.457917 -7.06618 0
M  V30 6971 H 692.353 0.514596 -5.6215 0
M  V30 6972 N 691.751 1.51645 -0.429126 0
M  V30 6973 C 692.999 2.01616 0.139802 0
M  V30 6974 C 693.32 1.31568 1.43927 0
M  V30 6975 O 692.59 0.447688 1.90716 0
M  V30 6976 H 691.17 0.744998 0.054654 0
M  V30 6977 H 693.832 1.8638 -0.569952 0
M  V30 6978 H 692.928 3.10439 0.321609 0
M  V30 6979 N 693.229 0.160201 1.56784 0
M  V30 6980 C 694.477 -0.486625 1.96154 0
M  V30 6981 C 694.798 -1.64525 1.04673 0
M  V30 6982 O 694.068 -1.95586 0.110864 0
M  V30 6983 H 692.648 -0.182764 0.724297 0
M  V30 6984 H 695.31 0.238787 1.93432 0
M  V30 6985 H 694.406 -0.854025 3.00188 0
M  V30 6986 N 694.707 -1.5719 -0.113559 0
M  V30 6987 C 695.654 -2.00736 -1.13901 0
M  V30 6988 C 696.624 -0.88044 -1.40846 0
M  V30 6989 O 697.809 -1.14507 -1.5262 0
M  V30 6990 C 694.949 -2.42132 -2.45899 0
M  V30 6991 C 694.062 -3.68264 -2.25844 0
M  V30 6992 C 693.197 -3.98617 -3.5111 0
M  V30 6993 C 692.236 -5.17915 -3.26236 0
M  V30 6994 N 691.373 -5.44111 -4.4372 0
M  V30 6995 H 696.213 -2.88128 -0.760677 0
M  V30 6996 H 693.75 -1.42523 -0.364099 0
M  V30 6997 H 695.708 -2.6417 -3.22908 0
M  V30 6998 H 694.338 -1.57775 -2.81615 0
M  V30 6999 H 693.39 -3.53809 -1.39726 0
M  V30 7000 H 694.702 -4.55425 -2.03444 0
M  V30 7001 H 693.856 -4.21333 -4.36536 0
M  V30 7002 H 692.595 -3.09942 -3.76546 0
M  V30 7003 H 691.6 -4.95038 -2.39202 0
M  V30 7004 H 692.825 -6.08172 -3.02165 0
M  V30 7005 H 690.771 -4.58394 -4.69266 0
M  V30 7006 H 690.688 -6.25606 -4.24444 0
M  V30 7007 H 691.956 -5.71351 -5.30263 0
M  V30 7008 N 696.185 0.383891 -1.52853 0
M  V30 7009 C 697.433 1.12619 -1.67814 0
M  V30 7010 C 697.754 1.90354 -0.423141 0
M  V30 7011 O 697.024 1.87649 0.562554 0
M  V30 7012 H 695.604 0.418738 -0.618601 0
M  V30 7013 H 698.266 0.43495 -1.89985 0
M  V30 7014 H 697.362 1.82624 -2.5309 0
M  V30 7015 N 697.663 1.43903 0.642637 0
M  V30 7016 C 699.074 1.40975 1.22404 0
M  V30 7017 C 699.425 0.1192 1.95838 0
M  V30 7018 O 698.55 -0.780939 2.01818 0
M  V30 7019 C 699.145 2.5538 2.22636 0
M  V30 7020 C 697.704 2.55684 2.76229 0
M  V30 7021 C 696.851 2.32556 1.51039 0
M  V30 7022 H 699.802 1.5265 0.434006 0
M  V30 7023 H 699.823 2.27474 3.05017 0
M  V30 7024 H 699.335 3.49294 1.69161 0
M  V30 7025 H 697.436 1.65679 3.33738 0
M  V30 7026 H 697.549 3.53799 3.23053 0
M  V30 7027 H 695.913 1.81427 1.78764 0
M  V30 7028 H 696.696 3.28569 0.99484 0
M  V30 7029 N 699.141 -0.881989 1.30609 0
M  V30 7030 C 700.366 -1.67236 1.22665 0
M  V30 7031 C 700.791 -1.8696 -0.206777 0
M  V30 7032 O 700.149 -1.4027 -1.14865 0
M  V30 7033 C 700.197 -3.02446 1.96363 0
M  V30 7034 O 699.301 -3.91614 1.29276 0
M  V30 7035 H 698.642 -0.510902 0.424117 0
M  V30 7036 H 701.172 -1.10055 1.72479 0
M  V30 7037 H 701.182 -3.52468 2.055 0
M  V30 7038 H 699.857 -2.8741 3.00613 0
M  V30 7039 H 698.434 -3.50055 1.28514 0
M  V30 7040 N 700.619 -1.13374 -1.09472 0
M  V30 7041 C 701.847 -0.918351 -1.85402 0
M  V30 7042 C 702.262 0.53281 -1.81126 0
M  V30 7043 O 701.619 1.36879 -1.20708 0
M  V30 7044 C 701.67 -1.39743 -3.33398 0
M  V30 7045 O 701.391 -2.79172 -3.37631 0
M  V30 7046 C 702.892 -1.22042 -4.2617 0
M  V30 7047 H 700.112 -0.327511 -0.585643 0
M  V30 7048 H 702.656 -1.50617 -1.38328 0
M  V30 7049 H 700.811 -0.852619 -3.77901 0
M  V30 7050 H 701.225 -3.00428 -4.29934 0
M  V30 7051 H 702.699 -1.60438 -5.2817 0
M  V30 7052 H 703.176 -0.162047 -4.38901 0
M  V30 7053 H 703.782 -1.75323 -3.87482 0
M  V30 7054 N 702.098 1.27442 -0.927168 0
M  V30 7055 C 703.028 2.29256 -0.443188 0
M  V30 7056 C 704.009 1.62701 0.49624 0
M  V30 7057 O 705.194 1.90013 0.401105 0
M  V30 7058 C 702.324 3.45955 0.305366 0
M  V30 7059 C 701.278 4.24501 -0.546178 0
M  V30 7060 C 700.604 5.33671 0.331512 0
M  V30 7061 C 701.904 4.89921 -1.81037 0
M  V30 7062 H 703.598 2.69988 -1.29409 0
M  V30 7063 H 701.144 1.29792 -0.623705 0
M  V30 7064 H 703.097 4.1628 0.654885 0
M  V30 7065 H 701.821 3.04138 1.19029 0
M  V30 7066 H 700.48 3.55921 -0.878398 0
M  V30 7067 H 700.128 4.88096 1.21537 0
M  V30 7068 H 699.828 5.87131 -0.234746 0
M  V30 7069 H 701.352 6.0684 0.676614 0
M  V30 7070 H 702.766 5.52536 -1.52895 0
M  V30 7071 H 701.163 5.53436 -2.32009 0
M  V30 7072 H 702.233 4.13652 -2.53021 0
M  V30 7073 N 703.576 0.692616 1.41565 0
M  V30 7074 C 704.804 0.231279 2.05603 0
M  V30 7075 C 705.219 -1.11837 1.52111 0
M  V30 7076 O 704.576 -1.6983 0.66813 0
M  V30 7077 C 704.627 0.177125 3.61066 0
M  V30 7078 O 704.348 1.47346 4.12578 0
M  V30 7079 C 705.849 -0.30556 4.42246 0
M  V30 7080 H 703.069 0.108238 0.662213 0
M  V30 7081 H 705.613 0.944369 1.81389 0
M  V30 7082 H 703.768 -0.486769 3.8433 0
M  V30 7083 H 704.182 1.35861 5.06599 0
M  V30 7084 H 705.656 -0.29233 5.51225 0
M  V30 7085 H 706.133 -1.34393 4.18133 0
M  V30 7086 H 706.739 0.327229 4.24039 0
M  V30 7087 N 705.054 -1.51416 0.437162 0
M  V30 7088 C 706.017 -2.26312 -0.362729 0
M  V30 7089 C 707.017 -1.29748 -0.949847 0
M  V30 7090 O 708.207 -1.53462 -0.824325 0
M  V30 7091 C 705.339 -3.05475 -1.5132 0
M  V30 7092 H 706.532 -2.98459 0.29365 0
M  V30 7093 H 704.085 -1.55137 0.190327 0
M  V30 7094 H 704.82 -2.37744 -2.20563 0
M  V30 7095 H 704.605 -3.76401 -1.09838 0
M  V30 7096 H 706.095 -3.62209 -2.07833 0
M  V30 7097 N 706.532 -0.168513 -1.56696 0
M  V30 7098 C 707.943 0.348694 -1.83415 0
M  V30 7099 C 708.294 1.63257 -1.0882 0
M  V30 7100 O 707.419 2.13707 -0.340333 0
M  V30 7101 C 708.014 0.639423 -3.32711 0
M  V30 7102 C 706.573 1.10108 -3.59935 0
M  V30 7103 C 705.72 0.135464 -2.76969 0
M  V30 7104 H 708.671 -0.392829 -1.53761 0
M  V30 7105 H 708.692 1.49179 -3.50037 0
M  V30 7106 H 708.204 -0.295173 -3.86976 0
M  V30 7107 H 706.305 2.05088 -3.11079 0
M  V30 7108 H 706.418 1.01218 -4.68286 0
M  V30 7109 H 704.782 0.632286 -2.46727 0
M  V30 7110 H 705.565 -0.793104 -3.34013 0
M  V30 7111 N 708.01 1.57248 0.105221 0
M  V30 7112 C 708.958 2.02337 1.14728 0
M  V30 7113 C 709.952 0.922652 1.42069 0
M  V30 7114 O 711.158 1.10785 1.41869 0
M  V30 7115 H 707.533 0.644682 0.387155 0
M  V30 7116 H 709.504 2.89063 0.740607 0
M  V30 7117 C 708.253 2.45513 2.46209 0
M  V30 7118 H 707.576 3.29785 2.26013 0
M  V30 7119 H 709.016 2.80846 3.1765 0
M  V30 7120 C 707.475 1.3243 3.09781 0
M  V30 7121 O 708.005 0.647841 3.96442 0
M  V30 7122 N 706.211 1.07785 2.69872 0
M  V30 7123 H 705.758 1.62973 1.99493 0
M  V30 7124 H 705.716 0.323204 3.12734 0
M  V30 7125 N 709.488 -0.375779 1.53054 0
M  V30 7126 C 710.736 -1.11727 1.68409 0
M  V30 7127 C 711.057 -1.90127 0.43323 0
M  V30 7128 O 710.327 -1.87945 -0.552595 0
M  V30 7129 H 708.907 -0.415451 0.620813 0
M  V30 7130 H 711.569 -0.424869 1.90213 0
M  V30 7131 H 710.665 -1.8128 2.54055 0
M  V30 7132 N 710.966 -1.44241 -0.634997 0
M  V30 7133 C 711.916 -1.47247 -1.74076 0
M  V30 7134 C 712.9 -0.338708 -1.57295 0
M  V30 7135 O 714.092 -0.583751 -1.67097 0
M  V30 7136 C 711.221 -1.41579 -3.12746 0
M  V30 7137 C 710.307 -2.60055 -3.35011 0
M  V30 7138 N 710.698 -3.85321 -3.27661 0
M  V30 7139 C 708.996 -2.55168 -3.65794 0
M  V30 7140 C 709.697 -4.64241 -3.50508 0
M  V30 7141 N 708.673 -3.95254 -3.73196 0
M  V30 7142 H 712.475 -2.4195 -1.66845 0
M  V30 7143 H 709.989 -1.3915 -0.837326 0
M  V30 7144 H 711.986 -1.41816 -3.92038 0
M  V30 7145 H 710.646 -0.479108 -3.21146 0
M  V30 7146 H 711.657 -4.17345 -3.06665 0
M  V30 7147 H 708.334 -1.70276 -3.81198 0
M  V30 7148 H 709.724 -5.73267 -3.50449 0
M  V30 7149 N 712.444 0.87505 -1.31075 0
M  V30 7150 C 713.674 1.65818 -1.2324 0
M  V30 7151 C 714.082 1.8808 0.205536 0
M  V30 7152 O 713.425 1.43548 1.14628 0
M  V30 7153 C 713.487 3.05131 -1.90093 0
M  V30 7154 C 713.151 3.05999 -3.39432 0
M  V30 7155 C 714.148 2.84328 -4.35263 0
M  V30 7156 C 711.833 3.27281 -3.81041 0
M  V30 7157 C 713.827 2.83912 -5.70678 0
M  V30 7158 C 711.514 3.26493 -5.16571 0
M  V30 7159 C 712.512 3.04834 -6.112 0
M  V30 7160 O 712.2 3.03882 -7.44252 0
M  V30 7161 H 711.932 0.52387 -0.427242 0
M  V30 7162 H 714.486 1.10086 -1.73408 0
M  V30 7163 H 712.716 3.62568 -1.34468 0
M  V30 7164 H 714.405 3.65641 -1.76242 0
M  V30 7165 H 715.171 2.67673 -4.04445 0
M  V30 7166 H 711.05 3.43171 -3.07822 0
M  V30 7167 H 714.594 2.66925 -6.44513 0
M  V30 7168 H 710.491 3.42687 -5.47025 0
M  V30 7169 H 711.259 3.19979 -7.53363 0
M  V30 7170 N 713.922 1.13953 1.08869 0
M  V30 7171 C 715.171 0.899431 1.80536 0
M  V30 7172 C 715.484 -0.575781 1.86933 0
M  V30 7173 O 716.69 -0.932988 2.54966 0
M  V30 7174 C 715.146 1.55963 3.24351 0
M  V30 7175 C 714.754 3.07077 3.26202 0
M  V30 7176 C 716.498 1.40046 4.00733 0
M  V30 7177 C 714.405 3.65955 4.64576 0
M  V30 7178 H 713.335 0.332849 0.676556 0
M  V30 7179 H 715.986 1.3679 1.22314 0
M  V30 7180 H 714.368 1.01883 3.82669 0
M  V30 7181 H 715.542 3.67785 2.77617 0
M  V30 7182 H 713.857 3.22576 2.63312 0
M  V30 7183 H 716.454 1.81441 5.02974 0
M  V30 7184 H 716.797 0.345993 4.1486 0
M  V30 7185 H 717.33 1.91137 3.48872 0
M  V30 7186 H 714.069 4.71234 4.55652 0
M  V30 7187 H 713.589 3.10027 5.13462 0
M  V30 7188 H 715.268 3.65968 5.33551 0
M  V30 7189 N 715.4 -1.26948 0.933913 0
M  V30 7190 C 716.33 -2.29017 0.45534 0
M  V30 7191 C 717.311 -1.62961 -0.487605 0
M  V30 7192 O 718.496 -1.90223 -0.391022 0
M  V30 7193 C 715.626 -3.46112 -0.287015 0
M  V30 7194 C 714.58 -4.24205 0.568682 0
M  V30 7195 C 713.906 -5.3384 -0.303206 0
M  V30 7196 C 715.206 -4.88954 1.83633 0
M  V30 7197 H 716.9 -2.69298 1.30839 0
M  V30 7198 H 714.446 -1.29459 0.630579 0
M  V30 7199 H 716.399 -4.16622 -0.6328 0
M  V30 7200 H 715.123 -3.04765 -1.17414 0
M  V30 7201 H 713.782 -3.5545 0.897261 0
M  V30 7202 H 713.43 -4.88734 -1.18947 0
M  V30 7203 H 713.13 -5.86998 0.265879 0
M  V30 7204 H 714.654 -6.0719 -0.644423 0
M  V30 7205 H 716.068 -5.51717 1.55823 0
M  V30 7206 H 714.465 -5.52198 2.34941 0
M  V30 7207 H 715.535 -4.12305 2.55211 0
M  V30 7208 N 716.879 -0.700114 -1.41195 0
M  V30 7209 C 718.104 -0.240704 -2.05998 0
M  V30 7210 C 718.529 1.10313 -1.52357 0
M  V30 7211 O 717.887 1.69154 -0.652424 0
M  V30 7212 C 717.935 -0.213783 -3.59966 0
M  V30 7213 O 717.039 0.809933 -4.04368 0
M  V30 7214 H 716.38 -0.116471 -0.653705 0
M  V30 7215 H 718.91 -0.956251 -1.80878 0
M  V30 7216 H 718.92 -0.0461852 -4.07974 0
M  V30 7217 H 717.595 -1.19454 -3.98376 0
M  V30 7218 H 716.172 0.611319 -3.67855 0
M  V30 7219 N 718.357 1.51182 -0.445186 0
M  V30 7220 C 719.773 1.59299 -0.0978954 0
M  V30 7221 C 719.973 1.4555 1.39346 0
M  V30 7222 O 719.029 1.30073 2.16419 0
M  V30 7223 C 720.342 2.94133 -0.625005 0
M  V30 7224 C 721.89 3.07463 -0.586137 0
M  V30 7225 C 722.365 4.44832 -1.09035 0
M  V30 7226 N 723.856 4.51173 -1.04867 0
M  V30 7227 C 724.591 5.55804 -1.40959 0
M  V30 7228 N 724.087 6.67816 -1.84375 0
M  V30 7229 N 725.88 5.46205 -1.32726 0
M  V30 7230 H 718.031 1.58363 -1.41544 0
M  V30 7231 H 720.294 0.746946 -0.58376 0
M  V30 7232 H 720 3.09589 -1.66876 0
M  V30 7233 H 719.874 3.77161 -0.0542262 0
M  V30 7234 H 722.261 2.9167 0.448646 0
M  V30 7235 H 722.342 2.26255 -1.19341 0
M  V30 7236 H 721.986 4.61372 -2.12364 0
M  V30 7237 H 721.916 5.24591 -0.459539 0
M  V30 7238 H 724.407 3.70783 -0.729932 0
M  V30 7239 H 724.72 7.43683 -2.10131 0
M  V30 7240 H 723.065 6.69003 -1.88308 0
M  V30 7241 H 726.256 4.57583 -0.986678 0
M  V30 7242 H 726.429 6.27634 -1.61182 0
M  V30 7243 N 719.835 0.176821 1.56605 0
M  V30 7244 C 721.083 -0.465793 1.96659 0
M  V30 7245 C 721.404 -1.63406 1.06412 0
M  V30 7246 O 720.674 -1.95457 0.131603 0
M  V30 7247 H 719.254 -0.175072 0.726195 0
M  V30 7248 H 721.916 0.25929 1.93168 0
M  V30 7249 H 721.012 -0.822138 3.01077 0
M  V30 7250 N 721.313 -1.57302 -0.09688 0
M  V30 7251 C 722.561 -1.8563 -0.799117 0
M  V30 7252 C 722.882 -0.765263 -1.79356 0
M  V30 7253 O 722.152 0.208657 -1.94786 0
M  V30 7254 H 720.732 -0.684937 -0.298111 0
M  V30 7255 H 723.394 -1.9474 -0.0789341 0
M  V30 7256 H 722.49 -2.82305 -1.3308 0
M  V30 7257 N 722.791 0.367657 -1.53252 0
M  V30 7258 C 723.739 1.47061 -1.8021 0
M  V30 7259 C 724.733 1.55539 -0.671112 0
M  V30 7260 O 725.939 1.58451 -0.854014 0
M  V30 7261 H 722.314 0.489868 -0.570555 0
M  V30 7262 H 724.285 1.21527 -2.72532 0
M  V30 7263 C 723.034 2.83924 -2.00706 0
M  V30 7264 H 722.357 2.78158 -2.87172 0
M  V30 7265 H 723.797 3.60281 -2.23547 0
M  V30 7266 C 722.256 3.27613 -0.785568 0
M  V30 7267 O 722.786 4.01691 0.0267459 0
M  V30 7268 N 720.992 2.84134 -0.609597 0
M  V30 7269 H 720.539 2.24017 -1.27178 0
M  V30 7270 H 720.497 3.13723 0.206281 0
M  V30 7271 N 724.269 1.44576 0.627338 0
M  V30 7272 C 725.517 1.47267 1.38408 0
M  V30 7273 C 725.838 0.107971 1.94701 0
M  V30 7274 O 725.108 -0.860206 1.76004 0
M  V30 7275 H 723.688 0.542276 0.513756 0
M  V30 7276 H 726.35 1.80383 0.738099 0
M  V30 7277 H 725.446 2.20025 2.21349 0
M  V30 7278 N 725.747 -0.868086 1.31537 0
M  V30 7279 C 726.697 -1.96321 1.1594 0
M  V30 7280 C 727.681 -1.60748 0.0698962 0
M  V30 7281 O 728.873 -1.74524 0.295011 0
M  V30 7282 C 726.002 -3.32073 0.870789 0
M  V30 7283 C 725.088 -3.73907 2.00136 0
M  V30 7284 N 725.479 -3.87685 3.24859 0
M  V30 7285 C 723.777 -4.03433 1.90152 0
M  V30 7286 C 724.478 -4.23454 3.98825 0
M  V30 7287 N 723.454 -4.34242 3.27009 0
M  V30 7288 H 727.256 -2.05088 2.10514 0
M  V30 7289 H 724.77 -1.059 1.23122 0
M  V30 7290 H 726.767 -4.10279 0.740034 0
M  V30 7291 H 725.427 -3.24631 -0.0667068 0
M  V30 7292 H 726.438 -3.72363 3.59953 0
M  V30 7293 H 723.115 -4.0437 1.03879 0
M  V30 7294 H 724.505 -4.41696 5.06314 0
M  V30 7295 N 727.225 -1.14528 -1.08264 0
M  V30 7296 C 728.641 -0.885976 -1.3275 0
M  V30 7297 C 728.841 0.472096 -1.95892 0
M  V30 7298 O 727.897 1.21606 -2.21288 0
M  V30 7299 C 729.21 -2.01982 -2.22764 0
M  V30 7300 C 730.758 -2.05329 -2.36239 0
M  V30 7301 C 731.233 -3.1801 -3.29596 0
M  V30 7302 N 732.724 -3.17598 -3.37173 0
M  V30 7303 C 733.459 -4.01426 -4.09444 0
M  V30 7304 N 732.955 -4.95297 -4.8441 0
M  V30 7305 N 734.748 -3.89482 -4.0529 0
M  V30 7306 H 726.899 -2.01996 -0.656607 0
M  V30 7307 H 729.162 -0.880274 -0.351884 0
M  V30 7308 H 728.868 -2.99964 -1.83615 0
M  V30 7309 H 728.742 -1.94421 -3.23234 0
M  V30 7310 H 731.129 -1.07953 -2.74646 0
M  V30 7311 H 731.21 -2.1696 -1.35506 0
M  V30 7312 H 730.854 -4.15633 -2.9191 0
M  V30 7313 H 730.784 -3.03616 -4.30261 0
M  V30 7314 H 733.275 -2.4961 -2.83731 0
M  V30 7315 H 733.588 -5.55723 -5.37021 0
M  V30 7316 H 731.933 -4.99293 -4.83457 0
M  V30 7317 H 735.124 -3.15465 -3.45832 0
M  V30 7318 H 735.297 -4.55039 -4.6135 0
M  V30 7319 N 728.703 1.26451 -0.940633 0
M  V30 7320 C 729.943 1.95537 -0.595381 0
M  V30 7321 C 730.307 1.72175 0.849683 0
M  V30 7322 O 731.508 2.3506 1.30384 0
M  V30 7323 C 729.779 3.45151 -0.927669 0
M  V30 7324 S 731.338 4.33295 -0.69288 0
M  V30 7325 H 728.156 0.676331 -0.219311 0
M  V30 7326 H 730.758 1.53411 -1.21183 0
M  V30 7327 H 729.462 3.59654 -1.9768 0
M  V30 7328 H 728.993 3.92247 -0.300921 0
M  V30 7329 H 731.008 4.94217 0.443175 0
M  V30 7330 N 730.181 0.707592 1.40822 0
M  V30 7331 C 731.409 0.253073 2.05346 0
M  V30 7332 C 731.824 -1.10218 1.53289 0
M  V30 7333 O 731.181 -1.69112 0.686105 0
M  V30 7334 C 731.232 0.215411 3.60858 0
M  V30 7335 O 730.953 1.51714 4.10992 0
M  V30 7336 C 732.454 -0.258636 4.42545 0
M  V30 7337 H 729.674 0.115256 0.661027 0
M  V30 7338 H 732.218 0.963555 1.80377 0
M  V30 7339 H 730.373 -0.445978 3.84824 0
M  V30 7340 H 730.787 1.41226 5.05129 0
M  V30 7341 H 732.261 -0.233849 5.51504 0
M  V30 7342 H 732.738 -1.2995 4.19535 0
M  V30 7343 H 733.344 0.372186 4.23668 0
M  V30 7344 N 731.66 -1.50943 0.453197 0
M  V30 7345 C 733.071 -1.86699 -0.00619892 0
M  V30 7346 C 733.422 -1.3693 -1.40515 0
M  V30 7347 O 732.547 -0.726715 -2.03833 0
M  V30 7348 C 733.142 -3.38795 -0.018025 0
M  V30 7349 C 731.701 -3.74028 -0.421885 0
M  V30 7350 C 730.848 -2.74752 0.375087 0
M  V30 7351 H 733.799 -1.43942 0.668317 0
M  V30 7352 H 733.82 -3.71468 -0.824125 0
M  V30 7353 H 733.332 -3.74988 1.00028 0
M  V30 7354 H 731.433 -3.43431 -1.44521 0
M  V30 7355 H 731.546 -4.78908 -0.135664 0
M  V30 7356 H 729.91 -2.5414 -0.168794 0
M  V30 7357 H 730.693 -3.13787 1.39256 0
M  V30 7358 N 733.138 -0.185124 -1.56509 0
M  V30 7359 C 734.386 0.455357 -1.96903 0
M  V30 7360 C 734.707 1.62839 -1.07277 0
M  V30 7361 O 733.977 1.95385 -0.141966 0
M  V30 7362 H 732.557 0.171218 -0.727113 0
M  V30 7363 H 735.219 -0.26953 -1.93027 0
M  V30 7364 H 734.315 0.80616 -3.01509 0
M  V30 7365 N 734.616 1.57351 0.0885366 0
M  V30 7366 C 735.844 1.90631 0.804196 0
M  V30 7367 C 736.259 0.779474 1.71958 0
M  V30 7368 O 735.616 -0.248179 1.80805 0
M  V30 7369 C 735.667 3.23568 1.61202 0
M  V30 7370 O 735.388 4.31917 0.733447 0
M  V30 7371 C 736.889 3.70753 2.43016 0
M  V30 7372 H 734.109 0.630501 0.229585 0
M  V30 7373 H 736.653 2.044 0.0638092 0
M  V30 7374 H 734.808 3.11377 2.30485 0
M  V30 7375 H 735.222 5.08297 1.29361 0
M  V30 7376 H 736.696 4.66447 2.9518 0
M  V30 7377 H 737.173 2.98922 3.2178 0
M  V30 7378 H 737.779 3.85834 1.7892 0
M  V30 7379 N 736.094 -0.359525 1.53444 0
M  V30 7380 C 737.342 -1.09935 1.69584 0
M  V30 7381 C 737.663 -1.89656 0.453371 0
M  V30 7382 O 736.933 -1.8852 -0.53263 0
M  V30 7383 H 735.513 -0.408843 0.625185 0
M  V30 7384 H 738.175 -0.40467 1.90653 0
M  V30 7385 H 737.271 -1.78575 2.55964 0
M  V30 7386 N 737.572 -1.44907 -0.619662 0
M  V30 7387 C 738.502 -1.55488 -1.742 0
M  V30 7388 C 739.483 -0.407143 -1.65156 0
M  V30 7389 O 740.668 -0.628743 -1.8374 0
M  V30 7390 C 737.798 -1.5097 -3.1277 0
M  V30 7391 C 736.752 -2.64337 -3.36615 0
M  V30 7392 C 736.078 -2.44872 -4.75333 0
M  V30 7393 C 737.378 -4.06423 -3.28051 0
M  V30 7394 H 739.072 -2.49432 -1.65602 0
M  V30 7395 H 736.618 -1.20047 -0.795281 0
M  V30 7396 H 738.571 -1.56971 -3.91073 0
M  V30 7397 H 737.295 -0.535486 -3.2218 0
M  V30 7398 H 735.954 -2.57744 -2.60698 0
M  V30 7399 H 735.602 -1.45617 -4.81461 0
M  V30 7400 H 735.302 -3.20888 -4.92244 0
M  V30 7401 H 736.826 -2.52709 -5.55851 0
M  V30 7402 H 738.24 -4.14324 -3.96243 0
M  V30 7403 H 736.637 -4.82733 -3.56495 0
M  V30 7404 H 737.707 -4.29183 -2.25676 0
M  V30 7405 N 739.05 0.861098 -1.31996 0
M  V30 7406 C 740.298 1.61162 -1.21947 0
M  V30 7407 C 740.619 1.93751 0.220351 0
M  V30 7408 O 739.889 1.59069 1.14341 0
M  V30 7409 H 738.469 0.597485 -0.448353 0
M  V30 7410 H 741.131 1.03039 -1.65436 0
M  V30 7411 H 740.227 2.55138 -1.79752 0
M  V30 7412 N 740.528 1.15101 1.07655 0
M  V30 7413 C 741.756 0.947731 1.83918 0
M  V30 7414 C 742.171 -0.503927 1.81951 0
M  V30 7415 O 741.528 -1.34941 1.2287 0
M  V30 7416 C 741.579 1.4503 3.31132 0
M  V30 7417 O 741.3 2.84508 3.33146 0
M  V30 7418 C 742.801 1.28806 4.24174 0
M  V30 7419 H 740.021 0.336786 0.580358 0
M  V30 7420 H 742.565 1.52799 1.35914 0
M  V30 7421 H 740.72 0.912632 3.76497 0
M  V30 7422 H 741.134 3.0723 4.251 0
M  V30 7423 H 742.608 1.6882 5.25551 0
M  V30 7424 H 743.085 0.231851 4.38588 0
M  V30 7425 H 743.691 1.81465 3.84643 0
M  V30 7426 N 742.006 -1.2595 0.947325 0
M  V30 7427 C 743.231 -1.98083 0.614633 0
M  V30 7428 C 743.656 -1.70013 -0.804815 0
M  V30 7429 O 743.014 -0.95175 -1.54309 0
M  V30 7430 C 743.062 -3.4993 0.870706 0
M  V30 7431 O 742.166 -4.12364 -0.0541451 0
M  V30 7432 H 741.507 -0.621232 0.234451 0
M  V30 7433 H 744.037 -1.60259 1.27193 0
M  V30 7434 H 744.047 -4.00198 0.794051 0
M  V30 7435 H 742.722 -3.69691 1.90529 0
M  V30 7436 H 741.299 -3.72826 0.0740917 0
M  V30 7437 N 743.484 -0.715051 -1.40445 0
M  V30 7438 C 744.895 -0.326763 -1.83818 0
M  V30 7439 C 745.246 1.13851 -1.59789 0
M  V30 7440 O 744.371 1.87611 -1.07848 0
M  V30 7441 C 744.966 -0.586297 -3.33688 0
M  V30 7442 C 743.525 -0.251724 -3.75557 0
M  V30 7443 C 742.672 -0.858928 -2.63662 0
M  V30 7444 H 745.623 -0.914241 -1.2972 0
M  V30 7445 H 745.644 0.148636 -3.8021 0
M  V30 7446 H 745.156 -1.65281 -3.51146 0
M  V30 7447 H 743.257 0.809754 -3.63695 0
M  V30 7448 H 743.37 -0.720348 -4.73654 0
M  V30 7449 H 741.734 -0.287013 -2.53078 0
M  V30 7450 H 742.517 -1.9297 -2.83932 0
M  V30 7451 N 744.962 1.50701 -0.461195 0
M  V30 7452 C 745.925 2.2686 0.326679 0
M  V30 7453 C 746.925 1.31243 0.929085 0
M  V30 7454 O 748.115 1.54754 0.799807 0
M  V30 7455 C 745.247 3.07844 1.46441 0
M  V30 7456 H 746.44 2.97954 -0.341095 0
M  V30 7457 H 743.993 1.54814 -0.214984 0
M  V30 7458 H 744.728 2.41223 2.16753 0
M  V30 7459 H 744.513 3.78101 1.03836 0
M  V30 7460 H 746.003 3.65469 2.02044 0
M  V30 7461 N 746.441 0.193421 1.56409 0
M  V30 7462 C 747.371 -0.723334 2.22014 0
M  V30 7463 C 748.352 -1.22254 1.1827 0
M  V30 7464 O 749.537 -1.27168 1.46771 0
M  V30 7465 C 746.667 -1.94366 2.87818 0
M  V30 7466 C 745.621 -1.57943 3.97791 0
M  V30 7467 C 744.947 -2.87623 4.50752 0
M  V30 7468 C 746.247 -0.790639 5.16281 0
M  V30 7469 H 747.941 -0.176426 2.9888 0
M  V30 7470 H 745.487 -0.0834166 1.43758 0
M  V30 7471 H 747.44 -2.5902 3.32396 0
M  V30 7472 H 746.164 -2.51507 2.08355 0
M  V30 7473 H 744.823 -0.956482 3.53903 0
M  V30 7474 H 744.471 -3.4285 3.68053 0
M  V30 7475 H 744.171 -2.63998 5.24956 0
M  V30 7476 H 745.695 -3.53268 4.9803 0
M  V30 7477 H 747.109 -1.34024 5.57414 0
M  V30 7478 H 745.506 -0.65258 5.96541 0
M  V30 7479 H 746.576 0.208633 4.84451 0
M  V30 7480 N 747.919 -1.57396 -0.0801906 0
M  V30 7481 C 748.882 -2.02133 -1.0805 0
M  V30 7482 C 749.882 -0.91707 -1.32085 0
M  V30 7483 O 751.072 -1.18217 -1.27947 0
M  V30 7484 C 748.204 -2.39479 -2.42616 0
M  V30 7485 H 749.397 -2.91733 -0.6951 0
M  V30 7486 H 746.95 -1.52869 -0.325677 0
M  V30 7487 H 747.685 -1.52879 -2.86004 0
M  V30 7488 H 747.47 -3.20052 -2.26515 0
M  V30 7489 H 748.96 -2.74697 -3.14534 0
M  V30 7490 N 749.397 0.351382 -1.53633 0
M  V30 7491 C 750.645 1.09034 -1.70165 0
M  V30 7492 C 750.966 1.89413 -0.463422 0
M  V30 7493 O 750.236 1.888 0.522624 0
M  V30 7494 H 748.816 0.405522 -0.627344 0
M  V30 7495 H 751.478 0.394554 -1.90865 0
M  V30 7496 H 750.574 1.77215 -2.56907 0
M  V30 7497 N 750.875 1.45233 0.611969 0
M  V30 7498 C 752.152 1.39495 1.37115 0
M  V30 7499 C 752.532 0.0633303 2.11005 0
M  V30 7500 O 751.88 -0.954617 2.07604 0
M  V30 7501 C 752.09 2.60579 2.32163 0
M  V30 7502 C 753.438 3.05477 2.94905 0
M  V30 7503 O 754.462 2.60921 2.42485 0
M  V30 7504 O 753.321 3.82787 3.90047 0
M  V30 7505 H 750.415 0.55335 0.614599 0
M  V30 7506 H 752.961 1.57355 0.635423 0
M  V30 7507 H 751.733 3.49085 1.76793 0
M  V30 7508 H 751.356 2.45031 3.13122 0
M  V30 7509 N 752.353 -0.854086 1.3245 0
M  V30 7510 C 753.263 -1.99503 1.23434 0
M  V30 7511 C 754.279 -1.73371 0.147828 0
M  V30 7512 O 755.455 -1.97998 0.368609 0
M  V30 7513 C 752.52 -3.33192 0.958328 0
M  V30 7514 C 751.581 -3.72542 2.13333 0
M  V30 7515 C 750.814 -4.99852 1.8704 0
M  V30 7516 O 751.037 -5.64573 0.813239 0
M  V30 7517 O 749.971 -5.36345 2.73161 0
M  V30 7518 H 753.797 -2.10046 2.1935 0
M  V30 7519 H 751.382 -0.984823 1.12346 0
M  V30 7520 H 753.264 -4.13327 0.820918 0
M  V30 7521 H 751.939 -3.23687 0.0293299 0
M  V30 7522 H 750.846 -2.92981 2.32622 0
M  V30 7523 H 752.179 -3.86694 3.04514 0
M  V30 7524 N 753.831 -1.1567 -1.07043 0
M  V30 7525 C 754.794 -0.858906 -2.12498 0
M  V30 7526 C 755.794 0.142735 -1.60165 0
M  V30 7527 O 756.984 -0.0872678 -1.73981 0
M  V30 7528 C 754.116 -0.283021 -3.39723 0
M  V30 7529 H 755.309 -1.79368 -2.40348 0
M  V30 7530 H 752.862 -0.964608 -1.22984 0
M  V30 7531 H 753.597 0.659796 -3.17517 0
M  V30 7532 H 753.382 -1.00467 -3.7901 0
M  V30 7533 H 754.872 -0.0923543 -4.17498 0
M  V30 7534 N 755.309 1.25446 -0.953992 0
M  V30 7535 C 756.272 2.24156 -0.478179 0
M  V30 7536 C 757.272 1.55278 0.417776 0
M  V30 7537 O 758.462 1.72866 0.215155 0
M  V30 7538 C 755.594 3.39495 0.309202 0
M  V30 7539 H 756.787 2.67764 -1.35064 0
M  V30 7540 H 754.34 1.37822 -0.737206 0
M  V30 7541 H 755.075 3.01307 1.19936 0
M  V30 7542 H 754.86 3.90679 -0.333562 0
M  V30 7543 H 756.35 4.12796 0.631594 0
M  V30 7544 N 756.787 0.722489 1.40064 0
M  V30 7545 C 758.012 0.273446 2.05589 0
M  V30 7546 C 758.437 -1.07875 1.54093 0
M  V30 7547 O 757.795 -1.68095 0.679252 0
M  V30 7548 C 757.843 0.271023 3.5958 0
M  V30 7549 O 756.947 -0.745499 4.05606 0
M  V30 7550 H 756.288 0.126856 0.65177 0
M  V30 7551 H 758.818 0.984906 1.79334 0
M  V30 7552 H 758.828 0.111084 4.07849 0
M  V30 7553 H 757.503 1.25776 3.96425 0
M  V30 7554 H 756.08 -0.552719 3.68781 0
M  V30 7555 N 758.265 -1.50454 0.469181 0
M  V30 7556 C 759.228 -2.2703 -0.314643 0
M  V30 7557 C 760.228 -1.31734 -0.922111 0
M  V30 7558 O 761.418 -1.55176 -0.791588 0
M  V30 7559 C 758.55 -3.08616 -1.44806 0
M  V30 7560 H 759.743 -2.97769 0.356892 0
M  V30 7561 H 757.296 -1.54698 0.223191 0
M  V30 7562 H 758.031 -2.42369 -2.1547 0
M  V30 7563 H 757.816 -3.78647 -1.01829 0
M  V30 7564 H 759.306 -3.66536 -2.00103 0
M  V30 7565 N 759.743 -0.201713 -1.56304 0
M  V30 7566 C 760.706 0.702811 -2.18159 0
M  V30 7567 C 761.706 1.13619 -1.13787 0
M  V30 7568 O 762.896 1.0482 -1.39134 0
M  V30 7569 C 760.028 1.96032 -2.78898 0
M  V30 7570 H 761.221 0.163836 -2.99452 0
M  V30 7571 H 758.774 0.04791 -1.56227 0
M  V30 7572 H 759.509 2.54165 -2.01421 0
M  V30 7573 H 759.294 1.65824 -3.55309 0
M  V30 7574 H 760.784 2.60519 -3.26373 0
M  V30 7575 N 761.222 1.57436 0.0718424 0
M  V30 7576 C 762.499 1.78312 0.804006 0
M  V30 7577 C 762.879 0.789273 1.9579 0
M  V30 7578 O 762.227 -0.177605 2.27809 0
M  V30 7579 C 762.437 3.24798 1.277 0
M  V30 7580 C 763.785 3.88627 1.71039 0
M  V30 7581 O 764.809 3.28689 1.37266 0
M  V30 7582 O 763.668 4.94073 2.33567 0
M  V30 7583 H 760.762 0.73178 0.385262 0
M  V30 7584 H 763.308 1.69621 0.0519219 0
M  V30 7585 H 762.08 3.88688 0.45134 0
M  V30 7586 H 761.703 3.38213 2.0904 0
M  V30 7587 N 762.7 -0.34323 1.53817 0
M  V30 7588 C 763.63 -1.42709 1.84814 0
M  V30 7589 C 764.611 -1.5488 0.703297 0
M  V30 7590 O 765.796 -1.69082 0.955237 0
M  V30 7591 C 762.926 -2.79756 2.05801 0
M  V30 7592 C 761.88 -2.82392 3.21619 0
M  V30 7593 C 761.206 -4.22326 3.2794 0
M  V30 7594 C 762.506 -2.479 4.59721 0
M  V30 7595 H 764.2 -1.17018 2.75585 0
M  V30 7596 H 761.746 -0.561485 1.32602 0
M  V30 7597 H 763.699 -3.55627 2.26069 0
M  V30 7598 H 762.423 -3.06883 1.11761 0
M  V30 7599 H 761.082 -2.08974 3.01207 0
M  V30 7600 H 760.73 -4.46564 2.31494 0
M  V30 7601 H 760.43 -4.25001 4.05768 0
M  V30 7602 H 761.954 -5.00039 3.50419 0
M  V30 7603 H 763.368 -3.13484 4.80001 0
M  V30 7604 H 761.765 -2.61857 5.39954 0
M  V30 7605 H 762.835 -1.43087 4.63308 0
M  V30 7606 N 764.178 -1.45556 -0.604258 0
M  V30 7607 C 765.455 -1.40221 -1.36373 0
M  V30 7608 C 765.835 -0.0745195 -2.10968 0
M  V30 7609 O 765.183 0.943594 -2.08107 0
M  V30 7610 C 765.393 -2.61807 -2.30777 0
M  V30 7611 C 766.741 -3.07037 -2.93281 0
M  V30 7612 O 767.765 -2.62203 -2.41097 0
M  V30 7613 O 766.624 -3.8485 -3.88011 0
M  V30 7614 H 763.718 -0.556602 -0.611656 0
M  V30 7615 H 766.264 -1.57689 -0.627069 0
M  V30 7616 H 765.036 -3.50017 -1.74939 0
M  V30 7617 H 764.659 -2.46688 -3.11818 0
M  V30 7618 N 765.656 0.84705 -1.32902 0
M  V30 7619 C 766.604 1.97765 -1.22441 0
M  V30 7620 C 767.598 1.68919 -0.127546 0
M  V30 7621 O 768.804 1.77633 -0.290973 0
M  V30 7622 H 765.179 0.649072 -0.379748 0
M  V30 7623 H 767.15 2.03713 -2.18044 0
M  V30 7624 C 765.899 3.33834 -0.972125 0
M  V30 7625 H 765.222 3.56564 -1.80837 0
M  V30 7626 H 766.662 4.13467 -0.939209 0
M  V30 7627 C 765.121 3.35328 0.325059 0
M  V30 7628 O 765.651 3.78887 1.33445 0
M  V30 7629 N 763.857 2.88488 0.349718 0
M  V30 7630 H 763.404 2.53234 -0.472236 0
M  V30 7631 H 763.362 2.8987 1.21748 0
M  V30 7632 N 767.134 1.16236 1.06428 0
M  V30 7633 C 768.55 0.906983 1.31324 0
M  V30 7634 C 768.75 -0.440872 1.96618 0
M  V30 7635 O 767.806 -1.1807 2.23194 0
M  V30 7636 C 769.119 2.05501 2.19522 0
M  V30 7637 C 770.667 2.09061 2.32943 0
M  V30 7638 C 771.142 3.23214 3.24495 0
M  V30 7639 N 772.633 3.22922 3.32078 0
M  V30 7640 C 773.368 4.07889 4.03006 0
M  V30 7641 N 772.864 5.02941 4.76469 0
M  V30 7642 N 774.657 3.95881 3.99043 0
M  V30 7643 H 766.808 2.03015 0.624388 0
M  V30 7644 H 769.071 0.88576 0.337835 0
M  V30 7645 H 768.777 3.02847 1.78819 0
M  V30 7646 H 768.651 1.99538 3.201 0
M  V30 7647 H 771.038 1.12308 2.72893 0
M  V30 7648 H 771.119 2.19089 1.32037 0
M  V30 7649 H 770.763 4.20225 2.85261 0
M  V30 7650 H 770.693 3.10423 4.25377 0
M  V30 7651 H 773.184 2.54093 2.79724 0
M  V30 7652 H 773.497 5.64196 5.28112 0
M  V30 7653 H 771.842 5.06922 4.75453 0
M  V30 7654 H 775.033 3.20927 3.40769 0
M  V30 7655 H 775.206 4.62321 4.54052 0
M  V30 7656 N 768.612 -1.24939 0.960631 0
M  V30 7657 C 769.859 -1.92818 0.618663 0
M  V30 7658 C 770.187 -1.75177 -0.845173 0
M  V30 7659 O 769.442 -1.09412 -1.62258 0
M  V30 7660 C 769.741 -3.45066 0.930809 0
M  V30 7661 C 769.407 -3.82869 2.38164 0
M  V30 7662 C 768.069 -3.92899 2.7782 0
M  V30 7663 C 770.421 -4.01483 3.32356 0
M  V30 7664 C 767.749 -4.18955 4.10723 0
M  V30 7665 C 770.101 -4.29033 4.6488 0
M  V30 7666 C 768.765 -4.37282 5.04322 0
M  V30 7667 H 768.035 -0.705571 0.226385 0
M  V30 7668 H 770.682 -1.48365 1.21079 0
M  V30 7669 H 768.987 -3.9096 0.256355 0
M  V30 7670 H 770.684 -3.95783 0.644712 0
M  V30 7671 H 767.274 -3.75622 2.06413 0
M  V30 7672 H 771.458 -3.93143 3.02907 0
M  V30 7673 H 766.714 -4.23558 4.40918 0
M  V30 7674 H 770.888 -4.42381 5.3784 0
M  V30 7675 H 768.515 -4.57225 6.0733 0
M  V30 7676 N 770.09 -0.729906 -1.39679 0
M  V30 7677 C 771.506 -0.404951 -1.54377 0
M  V30 7678 C 771.706 1.08476 -1.6981 0
M  V30 7679 O 770.762 1.87087 -1.69572 0
M  V30 7680 C 772.075 -1.18352 -2.76429 0
M  V30 7681 C 773.623 -1.17124 -2.9026 0
M  V30 7682 C 774.098 -1.93227 -4.15244 0
M  V30 7683 N 775.589 -1.90368 -4.22273 0
M  V30 7684 C 776.324 -2.46065 -5.17918 0
M  V30 7685 N 775.82 -3.10378 -6.19385 0
M  V30 7686 N 777.613 -2.36127 -5.10099 0
M  V30 7687 H 769.764 -1.69567 -1.27909 0
M  V30 7688 H 772.027 -0.717527 -0.619564 0
M  V30 7689 H 771.733 -2.23743 -2.71352 0
M  V30 7690 H 771.607 -0.784589 -3.6895 0
M  V30 7691 H 773.994 -0.125478 -2.94833 0
M  V30 7692 H 774.075 -1.60951 -1.98817 0
M  V30 7693 H 773.719 -2.97802 -4.11432 0
M  V30 7694 H 773.649 -1.4681 -5.05722 0
M  V30 7695 H 776.14 -1.4351 -3.4959 0
M  V30 7696 H 776.453 -3.50358 -6.88817 0
M  V30 7697 H 774.798 -3.14467 -6.19787 0
M  V30 7698 H 777.989 -1.85529 -4.29763 0
M  V30 7699 H 778.162 -2.79833 -5.84463 0
M  V30 7700 N 771.568 1.50203 -0.477153 0
M  V30 7701 C 772.515 2.28656 0.31386 0
M  V30 7702 C 773.485 1.33977 0.981802 0
M  V30 7703 O 774.67 1.62919 0.993072 0
M  V30 7704 C 771.81 3.16027 1.38639 0
M  V30 7705 C 770.923 4.25743 0.732615 0
M  V30 7706 C 770.058 5.00363 1.78355 0
M  V30 7707 C 769.097 6.01945 1.11035 0
M  V30 7708 N 768.234 6.6982 2.10441 0
M  V30 7709 H 773.074 2.958 -0.361445 0
M  V30 7710 H 770.611 1.45867 -0.190093 0
M  V30 7711 H 772.569 3.6504 2.01994 0
M  V30 7712 H 771.199 2.50917 2.03077 0
M  V30 7713 H 770.251 3.80398 -0.0136546 0
M  V30 7714 H 771.563 4.98393 0.201513 0
M  V30 7715 H 770.717 5.53124 2.49276 0
M  V30 7716 H 769.456 4.27432 2.34847 0
M  V30 7717 H 768.461 5.48438 0.386797 0
M  V30 7718 H 769.686 6.76851 0.552248 0
M  V30 7719 H 767.632 5.99677 2.65939 0
M  V30 7720 H 767.549 7.38366 1.62332 0
M  V30 7721 H 768.817 7.27196 2.80724 0
M  V30 7722 N 773.046 0.209999 1.56195 0
M  V30 7723 C 774.462 -0.145598 1.58934 0
M  V30 7724 C 774.662 -1.59868 1.22656 0
M  V30 7725 O 773.718 -2.33689 0.956336 0
M  V30 7726 C 775.031 0.170243 3.00218 0
M  V30 7727 C 776.579 0.111548 3.12801 0
M  V30 7728 C 777.054 0.400904 4.56242 0
M  V30 7729 N 778.545 0.350058 4.61875 0
M  V30 7730 C 779.28 0.547598 5.70779 0
M  V30 7731 N 778.776 0.806291 6.88092 0
M  V30 7732 N 780.569 0.480827 5.6004 0
M  V30 7733 H 772.72 1.15804 1.78054 0
M  V30 7734 H 774.983 0.463326 0.827063 0
M  V30 7735 H 774.689 1.17833 3.31373 0
M  V30 7736 H 774.563 -0.520208 3.73596 0
M  V30 7737 H 776.95 -0.887162 2.81449 0
M  V30 7738 H 777.031 0.835302 2.41777 0
M  V30 7739 H 776.675 1.397 4.8831 0
M  V30 7740 H 776.605 -0.34391 5.25476 0
M  V30 7741 H 779.096 0.157334 3.77572 0
M  V30 7742 H 779.409 0.945433 7.66995 0
M  V30 7743 H 777.754 0.843355 6.89864 0
M  V30 7744 H 780.945 0.279037 4.67268 0
M  V30 7745 H 781.118 0.638189 6.4485 0
M  V30 7746 N 774.524 -1.57472 -0.0634922 0
M  V30 7747 C 775.752 -1.91887 -0.773767 0
M  V30 7748 C 776.167 -0.806733 -1.70696 0
M  V30 7749 O 775.524 0.219383 -1.81177 0
M  V30 7750 C 775.575 -3.26092 -1.56034 0
M  V30 7751 O 775.296 -4.33029 -0.66464 0
M  V30 7752 C 776.797 -3.74573 -2.37087 0
M  V30 7753 H 774.017 -0.634074 -0.219525 0
M  V30 7754 H 776.561 -2.04476 -0.0312828 0
M  V30 7755 H 774.716 -3.15004 -2.25502 0
M  V30 7756 H 775.13 -5.10291 -1.21258 0
M  V30 7757 H 776.604 -4.71084 -2.87722 0
M  V30 7758 H 777.081 -3.04003 -3.16984 0
M  V30 7759 H 777.687 -3.88631 -1.72759 0
M  V30 7760 N 776.003 0.335068 -1.53997 0
M  V30 7761 C 776.953 1.4127 -1.7896 0
M  V30 7762 C 777.937 1.474 -0.64513 0
M  V30 7763 O 779.129 1.52127 -0.904785 0
M  V30 7764 C 776.258 2.78292 -2.01018 0
M  V30 7765 C 775.344 2.7652 -3.21555 0
M  V30 7766 N 775.735 2.44374 -4.42849 0
M  V30 7767 C 774.033 3.0766 -3.22895 0
M  V30 7768 C 774.734 2.51049 -5.24737 0
M  V30 7769 N 773.71 2.8702 -4.6165 0
M  V30 7770 H 777.512 1.15327 -2.70327 0
M  V30 7771 H 775.026 0.543483 -1.53036 0
M  V30 7772 H 777.023 3.55949 -2.17039 0
M  V30 7773 H 775.683 3.05175 -1.10898 0
M  V30 7774 H 776.694 2.17422 -4.70051 0
M  V30 7775 H 773.371 3.3966 -2.42771 0
M  V30 7776 H 774.761 2.29283 -6.31569 0
M  V30 7777 N 777.481 1.45874 0.596531 0
M  V30 7778 C 778.706 1.54247 1.38646 0
M  V30 7779 C 779.131 0.179571 1.87241 0
M  V30 7780 O 778.489 -0.837831 1.6078 0
M  V30 7781 C 778.537 2.54015 2.55946 0
M  V30 7782 O 777.641 2.06561 3.5694 0
M  V30 7783 H 776.982 0.519555 0.413471 0
M  V30 7784 H 779.512 1.91327 0.724936 0
M  V30 7785 H 779.522 2.73179 3.03047 0
M  V30 7786 H 778.197 3.52994 2.19928 0
M  V30 7787 H 776.774 1.97324 3.16414 0
M  V30 7788 N 778.959 -0.83999 1.33349 0
M  V30 7789 C 779.922 -1.93128 1.23426 0
M  V30 7790 C 780.922 -1.60065 0.153599 0
M  V30 7791 O 782.112 -1.69425 0.405049 0
M  V30 7792 C 779.244 -3.28761 0.901622 0
M  V30 7793 H 780.437 -2.03352 2.20427 0
M  V30 7794 H 777.99 -1.03194 1.17391 0
M  V30 7795 H 778.725 -3.24233 -0.0659337 0
M  V30 7796 H 778.51 -3.54138 1.68311 0
M  V30 7797 H 780 -4.08714 0.856913 0
M  V30 7798 N 780.437 -1.16799 -1.0581 0
M  V30 7799 C 781.685 -0.950642 -1.78346 0
M  V30 7800 C 782.006 0.522524 -1.87869 0
M  V30 7801 O 781.276 1.3795 -1.39092 0
M  V30 7802 H 779.856 -0.348736 -0.6606 0
M  V30 7803 H 782.518 -1.47158 -1.27791 0
M  V30 7804 H 781.614 -1.37359 -2.80248 0
M  V30 7805 N 781.915 1.24427 -0.967243 0
M  V30 7806 C 783.143 1.96541 -0.646477 0
M  V30 7807 C 783.558 1.71753 0.783996 0
M  V30 7808 O 782.915 1.00102 1.52597 0
M  V30 7809 C 782.966 3.4983 -0.911098 0
M  V30 7810 O 782.687 3.7377 -2.28534 0
M  V30 7811 C 784.188 4.3916 -0.604458 0
M  V30 7812 H 781.408 0.626129 -0.241255 0
M  V30 7813 H 783.952 1.58268 -1.29505 0
M  V30 7814 H 782.107 3.86168 -0.308741 0
M  V30 7815 H 782.521 4.68154 -2.365 0
M  V30 7816 H 783.995 5.4557 -0.840069 0
M  V30 7817 H 784.472 4.36771 0.461273 0
M  V30 7818 H 785.078 4.08409 -1.1867 0
M  V30 7819 N 783.393 0.737304 1.3929 0
M  V30 7820 C 784.618 0.295237 2.05288 0
M  V30 7821 C 785.043 -1.06235 1.55228 0
M  V30 7822 O 784.401 -1.67365 0.697043 0
M  V30 7823 C 784.449 0.309146 3.59272 0
M  V30 7824 O 783.553 -0.702437 4.06374 0
M  V30 7825 H 782.894 0.133762 0.650387 0
M  V30 7826 H 785.424 1.00387 1.78279 0
M  V30 7827 H 785.434 0.154336 4.07708 0
M  V30 7828 H 784.109 1.29974 3.95069 0
M  V30 7829 H 782.686 -0.513574 3.69346 0
M  V30 7830 N 784.871 -1.49948 0.485112 0
M  V30 7831 C 786.282 -1.8667 0.0334041 0
M  V30 7832 C 786.633 -1.3988 -1.37579 0
M  V30 7833 O 785.758 -0.769788 -2.02245 0
M  V30 7834 C 786.353 -3.38757 0.0538426 0
M  V30 7835 C 784.912 -3.74839 -0.342453 0
M  V30 7836 C 784.059 -2.73894 0.433281 0
M  V30 7837 H 787.01 -1.42492 0.698699 0
M  V30 7838 H 787.031 -3.73132 -0.745146 0
M  V30 7839 H 786.543 -3.72782 1.07959 0
M  V30 7840 H 784.644 -3.46419 -1.37203 0
M  V30 7841 H 784.757 -4.79088 -0.0340503 0
M  V30 7842 H 783.121 -2.54441 -0.114849 0
M  V30 7843 H 783.904 -3.10763 1.45881 0
M  V30 7844 N 786.349 -0.21828 -1.56081 0
M  V30 7845 C 787.577 0.419258 -2.02608 0
M  V30 7846 C 787.992 1.53578 -1.09814 0
M  V30 7847 O 787.349 1.82185 -0.107149 0
M  V30 7848 C 787.4 0.953955 -3.48686 0
M  V30 7849 O 787.121 -0.11805 -4.37941 0
M  V30 7850 C 788.622 1.66506 -4.10841 0
M  V30 7851 H 785.842 0.10296 -0.663054 0
M  V30 7852 H 788.386 -0.333776 -2.01758 0
M  V30 7853 H 786.541 1.65727 -3.50162 0
M  V30 7854 H 786.955 0.283359 -5.23734 0
M  V30 7855 H 788.429 1.99123 -5.14834 0
M  V30 7856 H 788.906 2.57705 -3.55647 0
M  V30 7857 H 789.512 1.00703 -4.13206 0
M  V30 7858 N 787.827 1.57504 0.0551401 0
M  V30 7859 C 789.076 1.87237 0.750009 0
M  V30 7860 C 789.389 0.813268 1.77891 0
M  V30 7861 O 790.595 0.99898 2.52453 0
M  V30 7862 C 789.051 3.32187 1.38491 0
M  V30 7863 C 788.659 4.46267 0.393707 0
M  V30 7864 C 790.403 3.71101 2.06117 0
M  V30 7865 C 788.31 5.82265 1.03547 0
M  V30 7866 H 787.24 0.698524 0.283866 0
M  V30 7867 H 789.891 1.835 0.00365997 0
M  V30 7868 H 788.273 3.30588 2.18008 0
M  V30 7869 H 789.447 4.59289 -0.372865 0
M  V30 7870 H 787.762 4.16015 -0.17902 0
M  V30 7871 H 790.359 4.70012 2.54937 0
M  V30 7872 H 790.702 3.01751 2.86796 0
M  V30 7873 H 791.235 3.74762 1.33409 0
M  V30 7874 H 787.974 6.54949 0.268644 0
M  V30 7875 H 787.494 5.73012 1.7725 0
M  V30 7876 H 789.173 6.28148 1.55047 0
M  V30 7877 N 789.305 -0.326896 1.54172 0
M  V30 7878 C 790.533 -1.08486 1.76177 0
M  V30 7879 C 790.948 -1.81815 0.508788 0
M  V30 7880 O 790.305 -1.74924 -0.520362 0
M  V30 7881 C 790.356 -2.08552 2.95276 0
M  V30 7882 O 790.077 -1.38202 4.15731 0
M  V30 7883 C 791.578 -2.96593 3.29466 0
M  V30 7884 H 788.798 -0.322835 0.588233 0
M  V30 7885 H 791.342 -0.374036 2.0105 0
M  V30 7886 H 789.497 -2.75174 2.72687 0
M  V30 7887 H 789.911 -2.05186 4.827 0
M  V30 7888 H 791.385 -3.62708 4.16109 0
M  V30 7889 H 791.862 -3.63511 2.46487 0
M  V30 7890 H 792.468 -2.35537 3.54122 0
M  V30 7891 N 790.784 -1.46188 -0.588786 0
M  V30 7892 C 791.734 -1.5271 -1.69303 0
M  V30 7893 C 792.718 -0.388578 -1.56137 0
M  V30 7894 O 793.91 -0.636616 -1.65155 0
M  V30 7895 C 791.039 -1.51457 -3.08084 0
M  V30 7896 C 790.125 -2.70581 -3.26568 0
M  V30 7897 N 790.516 -3.9555 -3.15236 0
M  V30 7898 C 788.814 -2.66676 -3.57491 0
M  V30 7899 C 789.515 -4.75157 -3.35561 0
M  V30 7900 N 788.491 -4.06927 -3.60432 0
M  V30 7901 H 792.293 -2.47136 -1.59063 0
M  V30 7902 H 789.807 -1.41743 -0.792632 0
M  V30 7903 H 791.804 -1.54216 -3.87328 0
M  V30 7904 H 790.464 -0.581036 -3.19459 0
M  V30 7905 H 791.475 -4.2689 -2.93232 0
M  V30 7906 H 788.152 -1.82317 -3.75588 0
M  V30 7907 H 789.542 -5.84126 -3.32034 0
M  V30 7908 N 792.262 0.832906 -1.33792 0
M  V30 7909 C 793.194 1.95042 -1.2038 0
M  V30 7910 C 794.207 1.62253 -0.133299 0
M  V30 7911 O 795.396 1.74315 -0.384261 0
M  V30 7912 C 792.496 3.287 -0.825215 0
M  V30 7913 C 791.669 3.89581 -1.98861 0
M  V30 7914 C 790.728 5.01602 -1.59003 0
M  V30 7915 O 789.754 5.20431 -2.30522 0
M  V30 7916 N 790.956 5.78356 -0.498446 0
M  V30 7917 H 793.721 2.07083 -2.16649 0
M  V30 7918 H 791.282 1.00896 -1.26616 0
M  V30 7919 H 793.274 4.01074 -0.540559 0
M  V30 7920 H 791.844 3.12565 0.0469796 0
M  V30 7921 H 791.064 3.09723 -2.43856 0
M  V30 7922 H 792.352 4.26989 -2.76691 0
M  V30 7923 H 791.75 5.65618 0.0963297 0
M  V30 7924 H 790.307 6.51226 -0.273485 0
M  V30 7925 N 793.74 1.17359 1.05189 0
M  V30 7926 C 794.687 0.890325 2.12936 0
M  V30 7927 C 795.657 -0.165779 1.65271 0
M  V30 7928 O 796.842 -0.0285672 1.90779 0
M  V30 7929 C 793.982 0.409793 3.42658 0
M  V30 7930 C 793.095 1.53002 4.03998 0
M  V30 7931 C 792.23 1.00336 5.21638 0
M  V30 7932 C 791.269 2.09903 5.74984 0
M  V30 7933 N 790.406 1.58714 6.83926 0
M  V30 7934 H 795.246 1.81299 2.36505 0
M  V30 7935 H 792.783 0.904249 1.16025 0
M  V30 7936 H 794.741 0.112743 4.17048 0
M  V30 7937 H 793.371 -0.475915 3.19272 0
M  V30 7938 H 792.423 1.9428 3.27047 0
M  V30 7939 H 793.735 2.3564 4.39631 0
M  V30 7940 H 792.889 0.660158 6.03098 0
M  V30 7941 H 791.628 0.14642 4.8748 0
M  V30 7942 H 790.633 2.45081 4.92154 0
M  V30 7943 H 791.858 2.96013 6.1119 0
M  V30 7944 H 789.804 0.752915 6.51665 0
M  V30 7945 H 789.721 2.34959 7.18561 0
M  V30 7946 H 790.989 1.27287 7.69037 0
M  V30 7947 N 795.218 -1.23913 0.973828 0
M  V30 7948 C 796.446 -1.96195 0.656891 0
M  V30 7949 C 796.861 -1.72166 -0.774876 0
M  V30 7950 O 796.218 -1.0091 -1.52064 0
M  V30 7951 C 796.269 -3.49342 0.929638 0
M  V30 7952 O 795.99 -3.72553 2.30512 0
M  V30 7953 C 797.491 -4.38833 0.627739 0
M  V30 7954 H 794.711 -0.624841 0.244572 0
M  V30 7955 H 797.255 -1.57579 1.30343 0
M  V30 7956 H 795.41 -3.85999 0.329216 0
M  V30 7957 H 795.824 -4.66893 2.3898 0
M  V30 7958 H 797.298 -5.45117 0.868991 0
M  V30 7959 H 797.775 -4.37009 -0.438104 0
M  V30 7960 H 798.381 -4.07773 1.20834 0
M  V30 7961 N 796.696 -0.74468 -1.38897 0
M  V30 7962 C 798.107 -0.36568 -1.83084 0
M  V30 7963 C 798.458 1.10436 -1.62168 0
M  V30 7964 O 797.583 1.85281 -1.11804 0
M  V30 7965 C 798.178 -0.656946 -3.3237 0
M  V30 7966 C 796.737 -0.331329 -3.74939 0
M  V30 7967 C 795.884 -0.914661 -2.61781 0
M  V30 7968 H 798.835 -0.941551 -1.27752 0
M  V30 7969 H 798.856 0.0679546 -3.80439 0
M  V30 7970 H 798.368 -1.72693 -3.47561 0
M  V30 7971 H 796.469 0.732426 -3.6533 0
M  V30 7972 H 796.582 -0.820655 -4.72019 0
M  V30 7973 H 794.946 -0.34063 -2.52412 0
M  V30 7974 H 795.729 -1.98949 -2.79775 0
M  V30 7975 N 798.174 1.49689 -0.493057 0
M  V30 7976 C 799.399 2.07331 0.0535114 0
M  V30 7977 C 799.824 1.35196 1.30781 0
M  V30 7978 O 799.182 0.406246 1.7669 0
M  V30 7979 C 799.23 3.59364 0.29825 0
M  V30 7980 O 798.334 3.88819 1.37454 0
M  V30 7981 H 797.675 0.663612 -0.0227018 0
M  V30 7982 H 800.205 1.926 -0.690402 0
M  V30 7983 H 800.215 4.04515 0.532159 0
M  V30 7984 H 798.89 4.1128 -0.618207 0
M  V30 7985 H 797.467 3.55487 1.12621 0
M  V30 7986 N 799.652 0.226554 1.55963 0
M  V30 7987 C 800.584 -0.713907 2.17798 0
M  V30 7988 C 801.597 -1.15387 1.14846 0
M  V30 7989 O 802.786 -1.08416 1.41804 0
M  V30 7990 C 799.886 -1.97945 2.75084 0
M  V30 7991 C 799.059 -1.69424 4.03255 0
M  V30 7992 C 798.118 -2.80734 4.45056 0
M  V30 7993 O 797.144 -2.4899 5.11852 0
M  V30 7994 N 798.346 -4.09797 4.11152 0
M  V30 7995 H 801.111 -0.18494 2.99129 0
M  V30 7996 H 798.672 0.0457346 1.61835 0
M  V30 7997 H 800.664 -2.71611 3.00016 0
M  V30 7998 H 799.234 -2.41876 1.98027 0
M  V30 7999 H 798.454 -0.793767 3.86126 0
M  V30 8000 H 799.742 -1.47806 4.86858 0
M  V30 8001 H 799.14 -4.38429 3.57486 0
M  V30 8002 H 797.697 -4.79992 4.40966 0
M  V30 8003 N 801.13 -1.57531 -0.0467866 0
M  V30 8004 C 802.355 -1.93087 -0.757123 0
M  V30 8005 C 802.78 -0.825116 -1.69037 0
M  V30 8006 O 802.138 0.220449 -1.79955 0
M  V30 8007 C 802.186 -3.27669 -1.5055 0
M  V30 8008 O 801.29 -3.18667 -2.61773 0
M  V30 8009 H 800.631 -0.631597 -0.204892 0
M  V30 8010 H 803.161 -2.04599 -0.00755232 0
M  V30 8011 H 803.171 -3.6214 -1.87932 0
M  V30 8012 H 801.846 -4.07717 -0.820931 0
M  V30 8013 H 800.423 -2.95798 -2.27064 0
M  V30 8014 N 802.608 0.318715 -1.54344 0
M  V30 8015 C 803.833 1.07987 -1.77069 0
M  V30 8016 C 804.258 1.80766 -0.520117 0
M  V30 8017 O 803.616 1.73424 0.528566 0
M  V30 8018 C 803.664 2.04987 -2.96669 0
M  V30 8019 O 802.768 3.12974 -2.68554 0
M  V30 8020 H 802.109 0.311109 -0.586606 0
M  V30 8021 H 804.639 0.361533 -2.0138 0
M  V30 8022 H 804.649 2.47771 -3.2415 0
M  V30 8023 H 803.324 1.51417 -3.87357 0
M  V30 8024 H 801.901 2.74831 -2.52037 0
M  V30 8025 N 804.086 1.46499 0.581025 0
M  V30 8026 C 805.332 1.52121 1.34116 0
M  V30 8027 C 805.665 0.173031 1.93428 0
M  V30 8028 O 804.94 -0.815729 1.76568 0
M  V30 8029 C 805.223 2.62108 2.46924 0
M  V30 8030 C 805.076 4.06462 1.92636 0
M  V30 8031 C 806.395 2.68167 3.48962 0
M  V30 8032 H 803.514 0.5538 0.486287 0
M  V30 8033 H 806.156 1.78443 0.652538 0
M  V30 8034 H 804.306 2.39794 3.05665 0
M  V30 8035 H 805.978 4.40068 1.3834 0
M  V30 8036 H 804.221 4.15862 1.23455 0
M  V30 8037 H 804.892 4.79152 2.74076 0
M  V30 8038 H 807.368 2.8823 3.00104 0
M  V30 8039 H 806.244 3.46942 4.2535 0
M  V30 8040 H 806.505 1.74284 4.06297 0
M  V30 8041 N 805.565 -0.825799 1.34232 0
M  V30 8042 C 806.528 -1.91808 1.25468 0
M  V30 8043 C 807.528 -1.59893 0.170567 0
M  V30 8044 O 808.718 -1.68986 0.422996 0
M  V30 8045 C 805.85 -3.27786 0.93644 0
M  V30 8046 H 807.043 -2.01003 2.22571 0
M  V30 8047 H 804.596 -1.01944 1.18479 0
M  V30 8048 H 805.331 -3.24285 -0.0315408 0
M  V30 8049 H 805.116 -3.52333 1.72057 0
M  V30 8050 H 806.606 -4.07782 0.900214 0
M  V30 8051 N 807.043 -1.17915 -1.04565 0
M  V30 8052 C 808.268 -0.996749 -1.81878 0
M  V30 8053 C 808.693 0.450169 -1.82634 0
M  V30 8054 O 808.051 1.32268 -1.23995 0
M  V30 8055 C 808.099 -1.55005 -3.25585 0
M  V30 8056 O 807.203 -0.76804 -4.05185 0
M  V30 8057 H 806.544 -0.353456 -0.562108 0
M  V30 8058 H 809.074 -1.56557 -1.31723 0
M  V30 8059 H 809.084 -1.57503 -3.76373 0
M  V30 8060 H 807.759 -2.60327 -3.2435 0
M  V30 8061 H 806.336 -0.81498 -3.63885 0
M  V30 8062 N 808.521 1.23394 -0.980386 0
M  V30 8063 C 809.77 1.91116 -0.644785 0
M  V30 8064 C 810.083 1.77333 0.825367 0
M  V30 8065 O 811.289 2.39858 1.27203 0
M  V30 8066 C 809.745 3.42592 -1.10266 0
M  V30 8067 C 809.353 3.65037 -2.59715 0
M  V30 8068 C 811.097 4.1609 -0.8408 0
M  V30 8069 C 809.004 5.10148 -2.9917 0
M  V30 8070 H 807.934 0.715632 -0.23746 0
M  V30 8071 H 810.585 1.39829 -1.18828 0
M  V30 8072 H 808.967 3.92989 -0.487372 0
M  V30 8073 H 810.141 3.25186 -3.26482 0
M  V30 8074 H 808.456 3.04849 -2.83647 0
M  V30 8075 H 811.053 5.23021 -1.11143 0
M  V30 8076 H 811.396 4.15702 0.223085 0
M  V30 8077 H 811.929 3.71681 -1.41767 0
M  V30 8078 H 808.668 5.15668 -4.04682 0
M  V30 8079 H 808.188 5.50949 -2.37097 0
M  V30 8080 H 809.867 5.7848 -2.89775 0
M  V30 8081 N 809.999 0.752036 1.385 0
M  V30 8082 C 810.909 0.125318 2.34265 0
M  V30 8083 C 811.925 -0.702437 1.59191 0
M  V30 8084 O 813.101 -0.626951 1.91393 0
M  V30 8085 C 810.166 -0.758486 3.38301 0
M  V30 8086 C 809.227 0.0834636 4.29219 0
M  V30 8087 C 808.46 -0.758252 5.28286 0
M  V30 8088 O 808.683 -1.99632 5.34325 0
M  V30 8089 O 807.617 -0.177878 6.01637 0
M  V30 8090 H 811.443 0.91617 2.89551 0
M  V30 8091 H 809.028 0.512911 1.4032 0
M  V30 8092 H 810.91 -1.26365 4.02007 0
M  V30 8093 H 809.585 -1.52786 2.85374 0
M  V30 8094 H 808.492 0.634545 3.68679 0
M  V30 8095 H 809.825 0.815455 4.85398 0
M  V30 8096 N 811.477 -1.49425 0.500989 0
M  V30 8097 C 812.387 -2.32899 -0.282011 0
M  V30 8098 C 813.403 -1.44632 -0.967346 0
M  V30 8099 O 814.579 -1.77654 -0.94873 0
M  V30 8100 C 811.644 -3.20069 -1.33253 0
M  V30 8101 C 810.705 -4.24186 -0.660636 0
M  V30 8102 C 809.938 -5.07191 -1.6611 0
M  V30 8103 O 810.161 -4.91712 -2.89094 0
M  V30 8104 O 809.095 -5.8948 -1.21643 0
M  V30 8105 H 812.921 -3.01038 0.401224 0
M  V30 8106 H 810.506 -1.47079 0.262323 0
M  V30 8107 H 812.388 -3.74071 -1.94033 0
M  V30 8108 H 811.063 -2.54625 -1.9987 0
M  V30 8109 H 809.97 -3.74098 -0.0130959 0
M  V30 8110 H 811.303 -4.92186 -0.0369179 0
M  V30 8111 N 812.955 -0.234822 -1.55841 0
M  V30 8112 C 814.185 0.397168 -2.02746 0
M  V30 8113 C 814.593 1.52951 -1.11367 0
M  V30 8114 O 813.936 1.8332 -0.118133 0
M  V30 8115 C 813.998 0.977748 -3.45948 0
M  V30 8116 C 813.662 -0.0208193 -4.56995 0
M  V30 8117 C 814.659 -0.826015 -5.13296 0
M  V30 8118 C 812.344 -0.143416 -5.02095 0
M  V30 8119 C 814.338 -1.74038 -6.1318 0
M  V30 8120 C 812.025 -1.0613 -6.01814 0
M  V30 8121 C 813.023 -1.85832 -6.57233 0
M  V30 8122 O 812.711 -2.76075 -7.55008 0
M  V30 8123 H 812.443 0.0999802 -0.668566 0
M  V30 8124 H 814.997 -0.352673 -2.0235 0
M  V30 8125 H 813.227 1.77693 -3.43456 0
M  V30 8126 H 814.916 1.51854 -3.76424 0
M  V30 8127 H 815.682 -0.741822 -4.79293 0
M  V30 8128 H 811.561 0.466857 -4.5863 0
M  V30 8129 H 815.105 -2.36291 -6.56363 0
M  V30 8130 H 811.002 -1.14646 -6.35237 0
M  V30 8131 H 811.77 -2.703 -7.7258 0
M  V30 8132 N 814.433 1.57553 0.0384317 0
M  V30 8133 C 815.661 1.93093 0.743141 0
M  V30 8134 C 816.076 0.833787 1.69391 0
M  V30 8135 O 815.433 -0.190532 1.81503 0
M  V30 8136 C 815.484 3.28533 1.50826 0
M  V30 8137 O 815.205 4.34032 0.595665 0
M  V30 8138 C 816.706 3.78297 2.31098 0
M  V30 8139 H 813.926 0.637486 0.20941 0
M  V30 8140 H 816.47 2.045 -0.00125154 0
M  V30 8141 H 814.625 3.18552 2.20462 0
M  V30 8142 H 815.039 5.12155 1.13124 0
M  V30 8143 H 816.513 4.75602 2.80191 0
M  V30 8144 H 816.99 3.09008 3.12107 0
M  V30 8145 H 817.596 3.91331 1.66555 0
M  V30 8146 N 815.911 -0.310526 1.54511 0
M  V30 8147 C 816.821 -1.4054 1.87844 0
M  V30 8148 C 817.837 -1.55954 0.771635 0
M  V30 8149 O 819.013 -1.70801 1.06719 0
M  V30 8150 C 816.078 -2.75063 2.11048 0
M  V30 8151 C 815.139 -2.68715 3.348 0
M  V30 8152 C 814.372 -3.96821 3.56887 0
M  V30 8153 O 814.595 -4.95721 2.82165 0
M  V30 8154 O 813.529 -3.99291 4.50389 0
M  V30 8155 H 817.355 -1.15275 2.80972 0
M  V30 8156 H 814.94 -0.505732 1.4058 0
M  V30 8157 H 816.822 -3.54671 2.27566 0
M  V30 8158 H 815.497 -3.00191 1.21108 0
M  V30 8159 H 814.404 -1.87611 3.23655 0
M  V30 8160 H 815.737 -2.4854 4.2484 0
M  V30 8161 N 817.389 -1.46805 -0.573248 0
M  V30 8162 C 818.322 -1.52608 -1.69665 0
M  V30 8163 C 819.3 -0.379426 -1.58111 0
M  V30 8164 O 820.484 -0.584938 -1.79195 0
M  V30 8165 C 817.611 -1.41355 -3.07793 0
M  V30 8166 C 816.657 -2.60321 -3.37839 0
M  V30 8167 S 817.49 -4.22622 -3.28863 0
M  V30 8168 C 818.646 -4.13894 -4.69513 0
M  V30 8169 H 818.879 -2.47653 -1.64485 0
M  V30 8170 H 816.412 -1.34806 -0.752769 0
M  V30 8171 H 818.37 -1.35549 -3.87475 0
M  V30 8172 H 817.031 -0.477213 -3.10454 0
M  V30 8173 H 816.224 -2.48466 -4.38498 0
M  V30 8174 H 815.826 -2.63165 -2.65745 0
M  V30 8175 H 818.118 -3.81158 -5.60111 0
M  V30 8176 H 819.061 -5.14584 -4.86425 0
M  V30 8177 H 819.469 -3.44998 -4.46807 0
M  V30 8178 N 818.867 0.818669 -1.34668 0
M  V30 8179 C 819.8 1.93516 -1.20941 0
M  V30 8180 C 820.778 1.62292 -0.100061 0
M  V30 8181 O 821.962 1.86614 -0.265983 0
M  V30 8182 C 819.089 3.27612 -0.859524 0
M  V30 8183 C 818.135 3.77794 -1.97923 0
M  V30 8184 S 818.968 3.97043 -3.59329 0
M  V30 8185 C 820.124 5.3406 -3.2639 0
M  V30 8186 H 820.357 2.04864 -2.15449 0
M  V30 8187 H 817.89 0.974716 -1.19744 0
M  V30 8188 H 819.848 4.05087 -0.664444 0
M  V30 8189 H 818.509 3.14028 0.0672835 0
M  V30 8190 H 817.702 4.74883 -1.68827 0
M  V30 8191 H 817.304 3.0728 -2.13202 0
M  V30 8192 H 819.596 6.17626 -2.78469 0
M  V30 8193 H 820.539 5.68143 -4.22634 0
M  V30 8194 H 820.947 4.99773 -2.62464 0
M  V30 8195 N 820.346 1.18468 1.03938 0
M  V30 8196 C 821.757 0.984808 1.58614 0
M  V30 8197 C 822.108 -0.465165 1.90606 0
M  V30 8198 O 821.233 -1.34274 1.69704 0
M  V30 8199 C 821.828 1.78135 2.8819 0
M  V30 8200 C 820.387 1.62579 3.39478 0
M  V30 8201 C 819.534 1.77501 2.13046 0
M  V30 8202 H 822.485 1.32993 0.865944 0
M  V30 8203 H 822.506 1.27119 3.58638 0
M  V30 8204 H 822.018 2.83661 2.64874 0
M  V30 8205 H 820.119 0.59595 3.67803 0
M  V30 8206 H 820.232 2.42463 4.13217 0
M  V30 8207 H 818.596 1.2046 2.24414 0
M  V30 8208 H 819.379 2.84464 1.92185 0
M  V30 8209 N 821.824 -1.22873 0.986916 0
M  V30 8210 C 822.787 -2.2281 0.537442 0
M  V30 8211 C 823.787 -1.56331 -0.37646 0
M  V30 8212 O 824.977 -1.73376 -0.169247 0
M  V30 8213 C 822.109 -3.40195 -0.219082 0
M  V30 8214 H 823.302 -2.64089 1.42116 0
M  V30 8215 H 820.855 -1.35819 0.773488 0
M  V30 8216 H 821.59 -3.04381 -1.11905 0
M  V30 8217 H 821.375 -3.89657 0.437026 0
M  V30 8218 H 822.865 -4.14326 -0.521926 0
M  V30 8219 N 823.302 -0.75937 -1.38099 0
M  V30 8220 C 824.532 -0.328634 -2.0397 0
M  V30 8221 C 824.94 1.04989 -1.57398 0
M  V30 8222 O 824.283 1.67918 -0.744932 0
M  V30 8223 C 824.345 -0.279216 -3.58414 0
M  V30 8224 C 824.009 -1.60025 -4.28067 0
M  V30 8225 C 825.006 -2.55048 -4.53041 0
M  V30 8226 C 822.691 -1.87128 -4.66142 0
M  V30 8227 C 824.685 -3.7539 -5.15132 0
M  V30 8228 C 822.372 -3.07742 -5.27956 0
M  V30 8229 C 823.37 -4.01694 -5.52387 0
M  V30 8230 O 823.058 -5.20186 -6.12912 0
M  V30 8231 H 822.79 -0.137443 -0.66188 0
M  V30 8232 H 825.344 -1.03082 -1.77661 0
M  V30 8233 H 823.574 0.479254 -3.83719 0
M  V30 8234 H 825.263 0.122781 -4.05714 0
M  V30 8235 H 826.029 -2.35387 -4.24049 0
M  V30 8236 H 821.908 -1.14833 -4.46469 0
M  V30 8237 H 825.452 -4.48737 -5.34117 0
M  V30 8238 H 821.349 -3.27294 -5.56371 0
M  V30 8239 H 822.117 -5.20846 -6.31397 0
M  V30 8240 N 824.78 1.49157 -0.508906 0
M  V30 8241 C 826.191 1.86593 -0.0630975 0
M  V30 8242 C 826.542 1.42051 1.35337 0
M  V30 8243 O 825.667 0.801866 2.00995 0
M  V30 8244 C 826.262 3.38629 -0.107729 0
M  V30 8245 C 824.821 3.75336 0.282776 0
M  V30 8246 C 823.968 2.7317 -0.4768 0
M  V30 8247 H 826.919 1.41362 -0.72128 0
M  V30 8248 H 826.94 3.74271 0.685689 0
M  V30 8249 H 826.452 3.71017 -1.13876 0
M  V30 8250 H 824.553 3.48558 1.31675 0
M  V30 8251 H 824.666 4.79081 -0.0421728 0
M  V30 8252 H 823.03 2.54591 0.0743552 0
M  V30 8253 H 823.813 3.08403 -1.50807 0
M  V30 8254 N 826.258 0.243083 1.55714 0
M  V30 8255 C 827.669 -0.260788 1.8487 0
M  V30 8256 C 828.02 -1.57879 1.16485 0
M  V30 8257 O 827.145 -2.1184 0.441908 0
M  V30 8258 C 827.74 -0.479954 3.35383 0
M  V30 8259 C 826.299 -0.928096 3.64778 0
M  V30 8260 C 825.446 -0.00316416 2.773 0
M  V30 8261 H 828.397 0.465743 1.51712 0
M  V30 8262 H 828.418 -1.32308 3.56756 0
M  V30 8263 H 827.93 0.479468 3.85127 0
M  V30 8264 H 826.031 -1.90012 3.20509 0
M  V30 8265 H 826.144 -0.7876 4.72582 0
M  V30 8266 H 824.508 -0.513849 2.49463 0
M  V30 8267 H 825.291 0.951562 3.29849 0
M  V30 8268 N 827.736 -1.57571 -0.0300757 0
M  V30 8269 C 828.984 -1.88852 -0.719666 0
M  V30 8270 C 829.305 -0.840645 -1.75949 0
M  V30 8271 O 828.575 0.125854 -1.95495 0
M  V30 8272 H 827.155 -0.696965 -0.268792 0
M  V30 8273 H 829.817 -1.949 0.00373285 0
M  V30 8274 H 828.913 -2.87695 -1.20987 0
M  V30 8275 N 829.214 0.302327 -1.54673 0
M  V30 8276 C 830.462 1.03565 -1.73547 0
M  V30 8277 C 830.783 1.87843 -0.523448 0
M  V30 8278 O 830.053 1.90367 0.462295 0
M  V30 8279 H 828.633 0.385358 -0.639928 0
M  V30 8280 H 831.295 0.333632 -1.92023 0
M  V30 8281 H 830.391 1.68952 -2.62415 0
M  V30 8282 N 830.692 1.47107 0.565454 0
M  V30 8283 C 831.94 1.53005 1.32038 0
M  V30 8284 C 832.261 0.190453 1.94068 0
M  V30 8285 O 831.531 -0.784783 1.79494 0
M  V30 8286 H 830.111 0.563578 0.490294 0
M  V30 8287 H 832.773 1.83351 0.660928 0
M  V30 8288 H 831.869 2.29215 2.11818 0
M  V30 8289 N 832.17 -0.811516 1.35101 0
M  V30 8290 C 833.395 -1.60499 1.31358 0
M  V30 8291 C 833.82 -1.87793 -0.107383 0
M  V30 8292 O 833.178 -1.46161 -1.07268 0
M  V30 8293 C 833.226 -2.91612 2.12119 0
M  V30 8294 O 832.33 -3.84211 1.49853 0
M  V30 8295 H 831.671 -0.487702 0.450603 0
M  V30 8296 H 834.201 -1.00758 1.7807 0
M  V30 8297 H 834.211 -3.4108 2.23894 0
M  V30 8298 H 832.886 -2.71071 3.15426 0
M  V30 8299 H 831.463 -3.42751 1.46889 0
M  V30 8300 N 833.648 -1.19017 -1.03309 0
M  V30 8301 C 834.896 -0.988258 -1.76289 0
M  V30 8302 C 835.217 0.482557 -1.88935 0
M  V30 8303 O 834.487 1.34969 -1.41987 0
M  V30 8304 H 833.067 -0.36267 -0.653054 0
M  V30 8305 H 835.729 -1.49836 -1.2464 0
M  V30 8306 H 834.825 -1.43273 -2.77271 0
M  V30 8307 N 835.127 1.22348 -0.993418 0
M  V30 8308 C 836.375 1.90733 -0.668246 0
M  V30 8309 C 836.696 1.77732 0.802261 0
M  V30 8310 O 835.966 1.16486 1.57505 0
M  V30 8311 H 834.546 0.705966 -0.244174 0
M  V30 8312 H 837.208 1.48691 -1.26004 0
M  V30 8313 H 836.304 2.97883 -0.931239 0
M  V30 8314 N 836.605 0.766683 1.37694 0
M  V30 8315 C 838.021 0.445739 1.53249 0
M  V30 8316 C 838.221 -1.03935 1.72626 0
M  V30 8317 O 837.277 -1.82525 1.74473 0
M  V30 8318 C 838.59 1.2564 2.73194 0
M  V30 8319 C 840.138 1.24779 2.87053 0
M  V30 8320 C 840.613 2.04169 4.09974 0
M  V30 8321 N 842.104 2.01497 4.17077 0
M  V30 8322 C 842.839 2.5971 5.11212 0
M  V30 8323 N 842.335 3.26691 6.10938 0
M  V30 8324 N 844.128 2.49568 5.03659 0
M  V30 8325 H 836.279 1.72899 1.23368 0
M  V30 8326 H 838.542 0.733701 0.600322 0
M  V30 8327 H 838.248 2.30859 2.65324 0
M  V30 8328 H 838.122 0.882133 3.6674 0
M  V30 8329 H 840.509 0.203603 2.94397 0
M  V30 8330 H 840.59 1.66166 1.9448 0
M  V30 8331 H 840.234 3.08606 4.03392 0
M  V30 8332 H 840.164 1.60167 5.01651 0
M  V30 8333 H 842.655 1.52728 3.45662 0
M  V30 8334 H 842.968 3.68497 6.79286 0
M  V30 8335 H 841.313 3.30789 6.11231 0
M  V30 8336 H 844.504 1.96859 4.24693 0
M  V30 8337 H 844.677 2.95231 5.76839 0
M  V30 8338 N 838.083 -1.48885 0.516809 0
M  V30 8339 C 839.013 -2.32241 -0.242157 0
M  V30 8340 C 839.994 -1.41258 -0.947633 0
M  V30 8341 O 841.179 -1.70156 -0.935973 0
M  V30 8342 C 838.309 -3.22151 -1.29754 0
M  V30 8343 C 837.263 -4.22053 -0.710995 0
M  V30 8344 C 836.589 -5.01007 -1.86806 0
M  V30 8345 C 837.889 -5.21388 0.30853 0
M  V30 8346 H 839.583 -2.95943 0.453651 0
M  V30 8347 H 837.129 -1.42316 0.219612 0
M  V30 8348 H 839.082 -3.79284 -1.83634 0
M  V30 8349 H 837.806 -2.56423 -2.02274 0
M  V30 8350 H 836.465 -3.66087 -0.193819 0
M  V30 8351 H 836.113 -4.31713 -2.58133 0
M  V30 8352 H 835.813 -5.68615 -1.48159 0
M  V30 8353 H 837.337 -5.60989 -2.4109 0
M  V30 8354 H 838.751 -5.73122 -0.142703 0
M  V30 8355 H 837.148 -5.96975 0.611673 0
M  V30 8356 H 838.218 -4.69329 1.21894 0
M  V30 8357 N 839.561 -0.251338 -1.55583 0
M  V30 8358 C 840.972 0.25098 -1.85005 0
M  V30 8359 C 841.323 1.57259 -1.17321 0
M  V30 8360 O 840.448 2.11603 -0.453136 0
M  V30 8361 C 841.043 0.462161 -3.35633 0
M  V30 8362 C 839.602 0.908737 -3.65266 0
M  V30 8363 C 838.749 -0.0115418 -2.77298 0
M  V30 8364 H 841.7 -0.473782 -1.51463 0
M  V30 8365 H 841.721 1.30415 -3.57452 0
M  V30 8366 H 841.233 -0.499886 -3.84867 0
M  V30 8367 H 839.334 1.8831 -3.21512 0
M  V30 8368 H 839.447 0.762526 -4.72993 0
M  V30 8369 H 837.811 0.500612 -2.49732 0
M  V30 8370 H 838.594 -0.969042 -3.29339 0
M  V30 8371 N 841.039 1.57585 0.0217189 0
M  V30 8372 C 842.287 1.89231 0.709641 0
M  V30 8373 C 842.608 0.849964 1.75501 0
M  V30 8374 O 841.878 -0.115485 1.95559 0
M  V30 8375 H 840.458 0.69838 0.265092 0
M  V30 8376 H 843.12 1.94895 -0.0140688 0
M  V30 8377 H 842.216 2.88333 1.19459 0
M  V30 8378 N 842.517 -0.29412 1.54831 0
M  V30 8379 C 843.467 -1.36476 1.82643 0
M  V30 8380 C 844.451 -1.45638 0.683984 0
M  V30 8381 O 845.643 -1.49675 0.944801 0
M  V30 8382 C 842.772 -2.72865 2.08326 0
M  V30 8383 C 841.858 -2.67898 3.28773 0
M  V30 8384 N 842.249 -2.32547 4.49172 0
M  V30 8385 C 840.547 -2.98991 3.30939 0
M  V30 8386 C 841.248 -2.37048 5.31209 0
M  V30 8387 N 840.224 -2.74679 4.69097 0
M  V30 8388 H 844.026 -1.08119 2.7329 0
M  V30 8389 H 841.54 -0.502718 1.54423 0
M  V30 8390 H 843.537 -3.5007 2.264 0
M  V30 8391 H 842.197 -3.02127 1.1895 0
M  V30 8392 H 843.208 -2.04883 4.7565 0
M  V30 8393 H 839.885 -3.33104 2.51691 0
M  V30 8394 H 841.275 -2.12457 6.37426 0
M  V30 8395 N 843.995 -1.47404 -0.557645 0
M  V30 8396 C 845.411 -1.32913 -0.88353 0
M  V30 8397 C 845.611 -0.31929 -1.98954 0
M  V30 8398 O 844.667 0.26934 -2.51059 0
M  V30 8399 C 845.98 -2.72229 -1.27718 0
M  V30 8400 C 847.528 -2.8051 -1.38863 0
M  V30 8401 C 848.003 -4.20466 -1.81583 0
M  V30 8402 N 849.494 -4.23005 -1.88735 0
M  V30 8403 C 850.229 -5.2821 -2.23118 0
M  V30 8404 N 849.725 -6.4372 -2.56117 0
M  V30 8405 N 851.518 -5.15588 -2.23888 0
M  V30 8406 H 843.669 -2.11698 0.172557 0
M  V30 8407 H 845.932 -0.947889 0.0145334 0
M  V30 8408 H 845.638 -3.47556 -0.538329 0
M  V30 8409 H 845.512 -3.03971 -2.23342 0
M  V30 8410 H 847.899 -2.05457 -2.11829 0
M  V30 8411 H 847.98 -2.52423 -0.414274 0
M  V30 8412 H 847.624 -4.96025 -1.09187 0
M  V30 8413 H 847.554 -4.45977 -2.80021 0
M  V30 8414 H 850.045 -3.39674 -1.65621 0
M  V30 8415 H 850.358 -7.19754 -2.81378 0
M  V30 8416 H 848.703 -6.47041 -2.53698 0
M  V30 8417 H 851.894 -4.24374 -1.97546 0
M  V30 8418 H 852.067 -5.97685 -2.50353 0
M  V30 8419 N 845.473 0.80434 -1.35529 0
M  V30 8420 C 846.423 1.90565 -1.25175 0
M  V30 8421 C 847.407 1.60232 -0.146512 0
M  V30 8422 O 848.599 1.72918 -0.377943 0
M  V30 8423 C 845.728 3.2754 -1.02823 0
M  V30 8424 C 844.814 3.63932 -2.17748 0
M  V30 8425 N 845.205 3.71744 -3.42986 0
M  V30 8426 C 843.503 3.93901 -2.09184 0
M  V30 8427 C 844.204 4.03944 -4.18574 0
M  V30 8428 N 843.18 4.18146 -3.47355 0
M  V30 8429 H 846.982 1.9481 -2.20059 0
M  V30 8430 H 844.496 0.99905 -1.28034 0
M  V30 8431 H 846.493 4.06281 -0.934941 0
M  V30 8432 H 845.153 3.2458 -0.0882551 0
M  V30 8433 H 846.164 3.54765 -3.77309 0
M  V30 8434 H 842.841 3.98954 -1.23054 0
M  V30 8435 H 844.231 4.17036 -5.26811 0
M  V30 8436 N 846.951 1.19563 1.02676 0
M  V30 8437 C 848.176 1.02556 1.80269 0
M  V30 8438 C 848.601 -0.421056 1.83327 0
M  V30 8439 O 847.959 -1.30279 1.26084 0
M  V30 8440 C 848.007 1.60165 3.23078 0
M  V30 8441 O 847.111 0.832404 4.03912 0
M  V30 8442 H 846.452 0.362354 0.556413 0
M  V30 8443 H 848.982 1.58633 1.29216 0
M  V30 8444 H 848.992 1.6347 3.7382 0
M  V30 8445 H 847.667 2.65454 3.20167 0
M  V30 8446 H 846.244 0.872768 3.62543 0
M  V30 8447 N 848.429 -1.21819 0.999893 0
M  V30 8448 C 849.392 -2.22227 0.561044 0
M  V30 8449 C 850.392 -1.56722 -0.359858 0
M  V30 8450 O 851.582 -1.73546 -0.150848 0
M  V30 8451 C 848.714 -3.40409 -0.182987 0
M  V30 8452 H 849.907 -2.62567 1.44909 0
M  V30 8453 H 847.46 -1.34991 0.78785 0
M  V30 8454 H 848.195 -3.05551 -1.08671 0
M  V30 8455 H 847.98 -3.89171 0.47833 0
M  V30 8456 H 849.47 -4.14856 -0.477952 0
M  V30 8457 N 849.908 -0.773975 -1.37286 0
M  V30 8458 C 851.155 -0.339306 -1.99637 0
M  V30 8459 C 851.483 1.08478 -1.61439 0
M  V30 8460 O 850.738 1.7612 -0.853252 0
M  V30 8461 C 851.037 -0.432651 -3.54772 0
M  V30 8462 C 850.703 -1.81531 -4.12744 0
M  V30 8463 C 849.365 -2.19366 -4.2829 0
M  V30 8464 C 851.717 -2.72137 -4.44512 0
M  V30 8465 C 849.045 -3.47239 -4.72908 0
M  V30 8466 C 851.397 -3.99421 -4.90556 0
M  V30 8467 C 850.061 -4.37298 -5.04308 0
M  V30 8468 H 849.331 -0.124161 -0.730524 0
M  V30 8469 H 851.978 -0.988432 -1.64019 0
M  V30 8470 H 850.283 0.30001 -3.9065 0
M  V30 8471 H 851.98 -0.0776 -4.00925 0
M  V30 8472 H 848.57 -1.51126 -4.01072 0
M  V30 8473 H 852.754 -2.44165 -4.32084 0
M  V30 8474 H 848.01 -3.76477 -4.81742 0
M  V30 8475 H 852.184 -4.69756 -5.14104 0
M  V30 8476 H 849.811 -5.36442 -5.38641 0
M  V30 8477 N 851.386 1.48609 -0.524698 0
M  V30 8478 C 852.632 2.02797 0.0113382 0
M  V30 8479 C 852.965 1.40147 1.34433 0
M  V30 8480 O 852.24 0.545368 1.86698 0
M  V30 8481 C 852.523 3.59832 0.138931 0
M  V30 8482 C 852.376 4.32971 -1.21886 0
M  V30 8483 C 853.695 4.3145 0.868265 0
M  V30 8484 H 850.814 0.736995 0.00264645 0
M  V30 8485 H 853.456 1.77388 -0.680704 0
M  V30 8486 H 851.606 3.81612 0.72834 0
M  V30 8487 H 853.278 4.22624 -1.84897 0
M  V30 8488 H 851.521 3.94597 -1.80211 0
M  V30 8489 H 852.192 5.41279 -1.08263 0
M  V30 8490 H 854.668 4.14468 0.368145 0
M  V30 8491 H 853.544 5.41025 0.926428 0
M  V30 8492 H 853.805 3.98358 1.91737 0
M  V30 8493 N 852.864 0.259585 1.55447 0
M  V30 8494 C 854.275 -0.241165 1.85136 0
M  V30 8495 C 854.626 -1.56634 1.18153 0
M  V30 8496 O 853.751 -2.11359 0.464351 0
M  V30 8497 C 854.346 -0.444355 3.35873 0
M  V30 8498 C 852.905 -0.889354 3.65742 0
M  V30 8499 C 852.052 0.0262474 2.77288 0
M  V30 8500 H 855.003 0.481808 1.51209 0
M  V30 8501 H 855.024 -1.28517 3.58139 0
M  V30 8502 H 854.536 0.520289 3.84597 0
M  V30 8503 H 852.637 -1.86602 3.22507 0
M  V30 8504 H 852.75 -0.737432 4.73391 0
M  V30 8505 H 851.114 -0.487361 2.49994 0
M  V30 8506 H 851.897 0.986494 3.28821 0
M  V30 8507 N 854.342 -1.57594 -0.0133615 0
M  V30 8508 C 855.57 -1.94251 -0.712328 0
M  V30 8509 C 855.985 -0.86063 -1.68043 0
M  V30 8510 O 855.342 0.161632 -1.81783 0
M  V30 8511 C 855.393 -3.30891 -1.45581 0
M  V30 8512 O 855.114 -4.34924 -0.526539 0
M  V30 8513 C 856.615 -3.81926 -2.2505 0
M  V30 8514 H 853.835 -0.640737 -0.199241 0
M  V30 8515 H 856.379 -2.04472 0.0337855 0
M  V30 8516 H 854.534 -3.22019 -2.15366 0
M  V30 8517 H 854.948 -5.1389 -1.04962 0
M  V30 8518 H 856.422 -4.79999 -2.72589 0
M  V30 8519 H 856.899 -3.13934 -3.07152 0
M  V30 8520 H 857.505 -3.93931 -1.60308 0
M  V30 8521 N 855.82 0.285905 -1.54985 0
M  V30 8522 C 857.236 0.632405 -1.46536 0
M  V30 8523 C 857.436 1.90074 -0.668888 0
M  V30 8524 O 856.492 2.51839 -0.182586 0
M  V30 8525 C 857.805 0.771361 -2.90638 0
M  V30 8526 C 859.353 0.866262 -3.00774 0
M  V30 8527 C 859.828 1.0371 -4.46103 0
M  V30 8528 N 861.319 1.10294 -4.49877 0
M  V30 8529 C 862.054 1.25369 -5.59527 0
M  V30 8530 N 861.55 1.37246 -6.7907 0
M  V30 8531 N 863.343 1.28377 -5.47244 0
M  V30 8532 H 855.494 -0.547226 -2.0523 0
M  V30 8533 H 857.757 -0.183298 -0.930111 0
M  V30 8534 H 857.463 -0.0899485 -3.51585 0
M  V30 8535 H 857.337 1.65569 -3.3892 0
M  V30 8536 H 859.724 1.71805 -2.39931 0
M  V30 8537 H 859.805 -0.0424049 -2.55765 0
M  V30 8538 H 859.449 0.190021 -5.07544 0
M  V30 8539 H 859.379 1.96022 -4.88757 0
M  V30 8540 H 861.87 1.02407 -3.6376 0
M  V30 8541 H 862.183 1.48546 -7.58389 0
M  V30 8542 H 860.528 1.34274 -6.81906 0
M  V30 8543 H 863.719 1.1872 -4.52795 0
M  V30 8544 H 863.892 1.39782 -6.32744 0
M  V30 8545 N 857.298 1.47698 0.54982 0
M  V30 8546 C 858.523 1.58579 1.33669 0
M  V30 8547 C 858.948 0.239049 1.86575 0
M  V30 8548 O 858.306 -0.786256 1.63364 0
M  V30 8549 C 858.354 2.62029 2.47736 0
M  V30 8550 O 857.458 2.17813 3.50188 0
M  V30 8551 H 856.799 0.532447 0.396732 0
M  V30 8552 H 859.329 1.93536 0.6637 0
M  V30 8553 H 859.339 2.82682 2.94202 0
M  V30 8554 H 858.014 3.59812 2.08586 0
M  V30 8555 H 856.591 2.07291 3.09976 0
M  V30 8556 N 858.776 -0.797141 1.35954 0
M  V30 8557 C 860.006 -1.5835 1.32698 0
M  V30 8558 C 860.414 -1.88959 -0.0955298 0
M  V30 8559 O 859.757 -1.49987 -1.06064 0
M  V30 8560 C 859.819 -2.93529 2.0756 0
M  V30 8561 C 859.483 -2.85688 3.56695 0
M  V30 8562 C 860.48 -2.58467 4.51099 0
M  V30 8563 C 858.165 -3.04508 3.99475 0
M  V30 8564 C 860.159 -2.50157 5.8626 0
M  V30 8565 C 857.846 -2.9582 5.34728 0
M  V30 8566 C 858.844 -2.68681 6.27933 0
M  V30 8567 O 858.532 -2.59973 7.60703 0
M  V30 8568 H 858.264 -0.49807 0.457059 0
M  V30 8569 H 860.818 -0.997889 1.79531 0
M  V30 8570 H 859.048 -3.54111 1.55378 0
M  V30 8571 H 860.737 -3.54744 1.9726 0
M  V30 8572 H 861.503 -2.43638 4.19363 0
M  V30 8573 H 857.382 -3.24641 3.27306 0
M  V30 8574 H 860.926 -2.28894 6.58979 0
M  V30 8575 H 856.823 -3.10211 5.66074 0
M  V30 8576 H 857.591 -2.75511 7.70737 0
M  V30 8577 N 860.254 -1.20106 -1.0204 0
M  V30 8578 C 861.665 -1.00992 -1.57027 0
M  V30 8579 C 862.016 0.434782 -1.91322 0
M  V30 8580 O 861.141 1.31557 -1.71819 0
M  V30 8581 C 861.736 -1.82697 -2.85319 0
M  V30 8582 C 860.295 -1.67959 -3.36848 0
M  V30 8583 C 859.442 -1.80868 -2.10195 0
M  V30 8584 H 862.393 -1.34354 -0.844676 0
M  V30 8585 H 862.414 -1.32809 -3.5657 0
M  V30 8586 H 861.926 -2.87839 -2.60328 0
M  V30 8587 H 860.027 -0.654389 -3.66809 0
M  V30 8588 H 860.14 -2.49006 -4.09308 0
M  V30 8589 H 858.504 -1.24015 -2.22469 0
M  V30 8590 H 859.287 -2.87486 -1.87635 0
M  V30 8591 N 861.732 1.21287 -1.00634 0
M  V30 8592 C 862.642 2.27388 -0.577226 0
M  V30 8593 C 863.658 1.69791 0.380399 0
M  V30 8594 O 864.834 1.99918 0.2439 0
M  V30 8595 C 861.899 3.46588 0.0880532 0
M  V30 8596 C 860.96 4.19453 -0.914222 0
M  V30 8597 C 860.193 5.32962 -0.280596 0
M  V30 8598 O 860.416 5.62895 0.922265 0
M  V30 8599 O 859.35 5.93666 -0.992196 0
M  V30 8600 H 863.176 2.66289 -1.46028 0
M  V30 8601 H 860.761 1.2771 -0.775283 0
M  V30 8602 H 862.643 4.18881 0.460094 0
M  V30 8603 H 861.318 3.09585 0.945461 0
M  V30 8604 H 860.225 3.49376 -1.33744 0
M  V30 8605 H 861.558 4.6037 -1.74126 0
M  V30 8606 N 863.21 0.781244 1.36873 0
M  V30 8607 C 864.12 0.174981 2.33947 0
M  V30 8608 C 865.136 -0.668512 1.60645 0
M  V30 8609 O 866.312 -0.586213 1.9268 0
M  V30 8610 C 863.377 -0.686557 3.39834 0
M  V30 8611 C 862.438 0.174489 4.28945 0
M  V30 8612 C 861.671 -0.646024 5.29776 0
M  V30 8613 O 861.894 -1.88254 5.38439 0
M  V30 8614 O 860.828 -0.0502214 6.01879 0
M  V30 8615 H 864.654 0.977382 2.87543 0
M  V30 8616 H 862.239 0.542559 1.392 0
M  V30 8617 H 864.121 -1.1781 4.04597 0
M  V30 8618 H 862.796 -1.46699 2.8855 0
M  V30 8619 H 861.703 0.712604 3.6725 0
M  V30 8620 H 863.036 0.918232 4.83559 0
M  V30 8621 N 864.689 -1.48329 0.532571 0
M  V30 8622 C 865.937 -2.021 -0.000581206 0
M  V30 8623 C 866.258 -1.4117 -1.34522 0
M  V30 8624 O 865.528 -0.578005 -1.87179 0
M  V30 8625 H 864.108 -0.746993 -0.00320281 0
M  V30 8626 H 866.77 -1.82011 0.696991 0
M  V30 8627 H 865.866 -3.11917 -0.106991 0
M  V30 8628 N 866.167 -0.267825 -1.55308 0
M  V30 8629 C 867.097 0.616585 -2.25212 0
M  V30 8630 C 868.078 1.16472 -1.23969 0
M  V30 8631 O 869.263 1.20021 -1.52672 0
M  V30 8632 C 866.393 1.80412 -2.96764 0
M  V30 8633 C 865.347 1.38784 -4.04874 0
M  V30 8634 C 864.673 2.65789 -4.63961 0
M  V30 8635 C 865.973 0.543415 -5.19465 0
M  V30 8636 H 867.667 0.0336257 -2.99381 0
M  V30 8637 H 865.213 0.0147328 -1.43992 0
M  V30 8638 H 867.166 2.42866 -3.44375 0
M  V30 8639 H 865.89 2.4128 -2.20118 0
M  V30 8640 H 864.549 0.786541 -3.58063 0
M  V30 8641 H 864.197 3.24899 -3.83992 0
M  V30 8642 H 863.897 2.38651 -5.36954 0
M  V30 8643 H 865.421 3.29104 -5.14318 0
M  V30 8644 H 866.835 1.07277 -5.63174 0
M  V30 8645 H 865.232 0.367219 -5.98975 0
M  V30 8646 H 866.302 -0.439534 -4.82904 0
M  V30 8647 N 867.645 1.57599 0.00500368 0
M  V30 8648 C 868.555 2.11532 1.01446 0
M  V30 8649 C 869.571 1.05941 1.3803 0
M  V30 8650 O 870.747 1.37815 1.46864 0
M  V30 8651 C 867.812 2.60382 2.28915 0
M  V30 8652 C 866.873 3.80554 1.98689 0
M  V30 8653 C 866.106 4.27064 3.20081 0
M  V30 8654 O 866.329 3.72939 4.31593 0
M  V30 8655 O 865.263 5.1927 3.04371 0
M  V30 8656 H 869.089 2.97993 0.586011 0
M  V30 8657 H 866.674 1.47718 0.223519 0
M  V30 8658 H 868.556 2.92024 3.03809 0
M  V30 8659 H 867.231 1.77022 2.71007 0
M  V30 8660 H 866.138 3.53893 1.21286 0
M  V30 8661 H 867.471 4.64972 1.61437 0
M  V30 8662 N 869.123 -0.277682 1.55134 0
M  V30 8663 C 870.056 -1.3685 1.82612 0
M  V30 8664 C 871.034 -1.47752 0.678833 0
M  V30 8665 O 872.218 -1.6445 0.921329 0
M  V30 8666 C 869.345 -2.74539 1.98359 0
M  V30 8667 C 868.391 -2.80945 3.20893 0
M  V30 8668 S 869.224 -2.40666 4.78373 0
M  V30 8669 C 870.38 -3.80338 4.97085 0
M  V30 8670 H 870.613 -1.13338 2.74849 0
M  V30 8671 H 868.146 -0.477063 1.46845 0
M  V30 8672 H 870.104 -3.53834 2.08115 0
M  V30 8673 H 868.765 -2.95306 1.07019 0
M  V30 8674 H 867.958 -3.81992 3.28783 0
M  V30 8675 H 867.56 -2.09667 3.09703 0
M  V30 8676 H 869.852 -4.75565 4.8254 0
M  V30 8677 H 870.795 -3.77403 5.99143 0
M  V30 8678 H 871.203 -3.71424 4.25094 0
M  V30 8679 N 870.601 -1.47988 -0.541979 0
M  V30 8680 C 871.551 -1.58019 -1.64359 0
M  V30 8681 C 872.535 -0.438056 -1.54822 0
M  V30 8682 O 873.727 -0.688837 -1.63046 0
M  V30 8683 C 870.856 -1.61182 -3.03109 0
M  V30 8684 C 869.942 -2.80834 -3.17794 0
M  V30 8685 N 870.333 -4.05379 -3.02492 0
M  V30 8686 C 868.631 -2.77914 -3.48826 0
M  V30 8687 C 869.332 -4.85592 -3.20274 0
M  V30 8688 N 868.308 -4.18188 -3.47304 0
M  V30 8689 H 872.11 -2.52071 -1.5112 0
M  V30 8690 H 869.624 -1.44193 -0.747137 0
M  V30 8691 H 871.621 -1.66461 -3.82226 0
M  V30 8692 H 870.281 -0.682375 -3.17449 0
M  V30 8693 H 871.292 -4.36003 -2.79503 0
M  V30 8694 H 867.969 -1.94174 -3.69598 0
M  V30 8695 H 869.359 -5.94394 -3.13282 0
M  V30 8696 N 872.079 0.78992 -1.36375 0
M  V30 8697 C 873.49 1.36506 -1.2737 0
M  V30 8698 C 873.841 1.96008 0.086711 0
M  V30 8699 O 872.966 1.92521 0.988159 0
M  V30 8700 C 873.561 2.48175 -2.30639 0
M  V30 8701 C 872.12 3.01506 -2.25325 0
M  V30 8702 C 871.267 1.74581 -2.15445 0
M  V30 8703 H 874.218 0.591606 -1.47261 0
M  V30 8704 H 874.239 3.27179 -1.94253 0
M  V30 8705 H 873.751 2.04838 -3.2964 0
M  V30 8706 H 871.852 3.49265 -1.29788 0
M  V30 8707 H 871.965 3.58355 -3.17992 0
M  V30 8708 H 870.329 1.96794 -1.61692 0
M  V30 8709 H 871.112 1.33373 -3.16333 0
M  V30 8710 N 873.557 1.20646 1.01402 0
M  V30 8711 C 874.487 0.98155 2.11867 0
M  V30 8712 C 875.468 -0.0903712 1.6986 0
M  V30 8713 O 876.653 0.0676586 1.94082 0
M  V30 8714 C 873.783 0.535636 3.43145 0
M  V30 8715 C 872.737 1.55109 3.98905 0
M  V30 8716 C 872.063 0.961725 5.2598 0
M  V30 8717 C 873.363 2.93552 4.32001 0
M  V30 8718 H 875.057 1.90544 2.3094 0
M  V30 8719 H 872.603 0.917554 1.10982 0
M  V30 8720 H 874.556 0.365512 4.19812 0
M  V30 8721 H 873.28 -0.423882 3.23838 0
M  V30 8722 H 871.939 1.70862 3.24348 0
M  V30 8723 H 871.587 -0.00580108 5.03 0
M  V30 8724 H 871.287 1.63993 5.64252 0
M  V30 8725 H 872.811 0.802726 6.053 0
M  V30 8726 H 874.225 2.81295 4.99546 0
M  V30 8727 H 872.622 3.58303 4.81393 0
M  V30 8728 H 873.692 3.4508 3.40658 0
M  V30 8729 N 875.035 -1.20752 1.01276 0
M  V30 8730 C 875.945 -2.27079 0.589277 0
M  V30 8731 C 876.961 -1.6999 -0.371389 0
M  V30 8732 O 878.137 -2.00044 -0.233294 0
M  V30 8733 C 875.202 -3.4663 -0.0696715 0
M  V30 8734 C 874.263 -4.18962 0.936454 0
M  V30 8735 C 873.496 -5.32806 0.308856 0
M  V30 8736 O 873.719 -5.63376 -0.8924 0
M  V30 8737 O 872.653 -5.93131 1.02367 0
M  V30 8738 H 876.479 -2.6551 1.47438 0
M  V30 8739 H 874.064 -1.27297 0.782045 0
M  V30 8740 H 875.946 -4.19119 -0.437873 0
M  V30 8741 H 874.621 -3.10082 -0.929029 0
M  V30 8742 H 873.528 -3.48661 1.35595 0
M  V30 8743 H 874.861 -4.59441 1.76565 0
M  V30 8744 N 876.513 -0.788492 -1.36457 0
M  V30 8745 C 877.929 -0.470063 -1.52521 0
M  V30 8746 C 878.129 1.01176 -1.74258 0
M  V30 8747 O 877.185 1.79726 -1.77355 0
M  V30 8748 C 878.498 -1.2997 -2.71161 0
M  V30 8749 C 880.046 -1.2933 -2.85031 0
M  V30 8750 C 880.521 -2.10665 -4.06674 0
M  V30 8751 N 882.012 -2.08107 -4.13819 0
M  V30 8752 C 882.747 -2.6781 -5.07016 0
M  V30 8753 N 882.243 -3.36369 -6.05663 0
M  V30 8754 N 884.036 -2.57549 -4.99625 0
M  V30 8755 H 876.187 -1.7484 -1.20602 0
M  V30 8756 H 878.45 -0.743159 -0.588574 0
M  V30 8757 H 878.156 -2.35051 -2.61618 0
M  V30 8758 H 878.03 -0.940367 -3.6529 0
M  V30 8759 H 880.417 -0.250414 -2.94036 0
M  V30 8760 H 880.498 -1.69239 -1.91812 0
M  V30 8761 H 880.142 -3.14984 -3.98431 0
M  V30 8762 H 880.072 -1.68128 -4.9904 0
M  V30 8763 H 882.563 -1.58208 -3.43189 0
M  V30 8764 H 882.876 -3.79258 -6.73338 0
M  V30 8765 H 881.221 -3.40471 -6.05891 0
M  V30 8766 H 884.412 -2.0359 -4.21508 0
M  V30 8767 H 884.585 -3.0437 -5.72069 0
M  V30 8768 N 877.991 1.48044 -0.54043 0
M  V30 8769 C 879.407 1.58354 -0.199006 0
M  V30 8770 C 879.607 1.54118 1.29807 0
M  V30 8771 O 878.663 1.43573 2.07709 0
M  V30 8772 C 879.976 2.89563 -0.810797 0
M  V30 8773 C 881.524 3.03113 -0.780486 0
M  V30 8774 C 881.999 4.36997 -1.37104 0
M  V30 8775 N 883.49 4.43591 -1.33347 0
M  V30 8776 C 884.225 5.45714 -1.76021 0
M  V30 8777 N 883.721 6.54738 -2.26473 0
M  V30 8778 N 885.514 5.36659 -1.67194 0
M  V30 8779 H 877.665 1.49041 -1.51329 0
M  V30 8780 H 879.928 0.708309 -0.630081 0
M  V30 8781 H 879.634 2.9835 -1.86227 0
M  V30 8782 H 879.508 3.76053 -0.293977 0
M  V30 8783 H 881.895 2.93932 0.262246 0
M  V30 8784 H 881.976 2.18207 -1.33489 0
M  V30 8785 H 881.62 4.46932 -2.41276 0
M  V30 8786 H 881.55 5.20607 -0.792229 0
M  V30 8787 H 884.041 3.65391 -0.964259 0
M  V30 8788 H 884.354 7.28814 -2.57002 0
M  V30 8789 H 882.699 6.55673 -2.30473 0
M  V30 8790 H 885.89 4.50382 -1.27569 0
M  V30 8791 H 886.063 6.16113 -2.00771 0
M  V30 8792 N 879.47 0.276058 1.55163 0
M  V30 8793 C 880.718 -0.339782 1.99223 0
M  V30 8794 C 881.039 -1.56307 1.16589 0
M  V30 8795 O 880.309 -1.94225 0.25564 0
M  V30 8796 H 878.889 -0.128534 0.735859 0
M  V30 8797 H 881.551 0.381612 1.91128 0
M  V30 8798 H 880.647 -0.629 3.05696 0
M  V30 8799 N 880.948 -1.576 0.00335426 0
M  V30 8800 C 882.196 -1.90336 -0.679446 0
M  V30 8801 C 882.517 -0.877777 -1.74127 0
M  V30 8802 O 881.787 0.0843585 -1.95718 0
M  V30 8803 H 880.367 -0.702509 -0.253948 0
M  V30 8804 H 883.029 -1.94848 0.0450731 0
M  V30 8805 H 882.125 -2.90197 -1.14857 0
M  V30 8806 N 882.426 0.269451 -1.5528 0
M  V30 8807 C 883.376 1.33553 -1.84791 0
M  V30 8808 C 884.36 1.44532 -0.707067 0
M  V30 8809 O 885.552 1.48153 -0.968493 0
M  V30 8810 C 882.681 2.69516 -2.12641 0
M  V30 8811 C 881.767 2.62633 -3.32993 0
M  V30 8812 N 882.158 2.25371 -4.52815 0
M  V30 8813 C 880.456 2.93688 -3.35654 0
M  V30 8814 C 881.157 2.28567 -5.34913 0
M  V30 8815 N 880.133 2.67181 -4.73408 0
M  V30 8816 H 883.935 1.03758 -2.74976 0
M  V30 8817 H 881.449 0.478087 -1.55203 0
M  V30 8818 H 883.446 3.46424 -2.3194 0
M  V30 8819 H 882.106 3.00197 -1.23742 0
M  V30 8820 H 883.117 1.9729 -4.7885 0
M  V30 8821 H 879.794 3.29057 -2.56958 0
M  V30 8822 H 881.184 2.02289 -6.40725 0
M  V30 8823 N 883.904 1.48273 0.534124 0
M  V30 8824 C 884.854 1.58889 1.63519 0
M  V30 8825 C 885.838 0.44626 1.54588 0
M  V30 8826 O 887.03 0.697474 1.62679 0
M  V30 8827 C 884.159 1.62787 3.0225 0
M  V30 8828 C 883.245 2.82515 3.16301 0
M  V30 8829 N 883.636 4.06977 3.00338 0
M  V30 8830 C 881.934 2.7976 3.47347 0
M  V30 8831 C 882.635 4.87283 3.17694 0
M  V30 8832 N 881.611 4.20024 3.45081 0
M  V30 8833 H 885.413 2.52869 1.49781 0
M  V30 8834 H 882.927 1.44587 0.739479 0
M  V30 8835 H 884.924 1.68486 3.81337 0
M  V30 8836 H 883.584 0.699201 3.17082 0
M  V30 8837 H 884.595 4.37479 2.77186 0
M  V30 8838 H 881.272 1.96132 3.68563 0
M  V30 8839 H 882.662 5.96047 3.10126 0
M  V30 8840 N 885.382 -0.782676 1.36792 0
M  V30 8841 C 886.798 -1.08169 1.17352 0
M  V30 8842 C 886.998 -2.015 0.0022037 0
M  V30 8843 O 886.054 -2.43692 -0.661093 0
M  V30 8844 C 887.367 -1.68969 2.48737 0
M  V30 8845 C 888.915 -1.81278 2.55161 0
M  V30 8846 C 889.39 -2.45492 3.86649 0
M  V30 8847 N 890.881 -2.52954 3.88032 0
M  V30 8848 C 891.616 -3.03465 4.86515 0
M  V30 8849 N 891.112 -3.54232 5.95392 0
M  V30 8850 N 892.905 -3.02239 4.73928 0
M  V30 8851 H 885.056 -0.162757 2.11775 0
M  V30 8852 H 887.319 -0.134823 0.938364 0
M  V30 8853 H 887.025 -1.07859 3.34753 0
M  V30 8854 H 886.899 -2.68397 2.65034 0
M  V30 8855 H 889.286 -2.41524 1.69559 0
M  V30 8856 H 889.367 -0.806367 2.42758 0
M  V30 8857 H 889.011 -1.85889 4.7266 0
M  V30 8858 H 888.941 -3.46718 3.96351 0
M  V30 8859 H 891.432 -2.17014 3.09376 0
M  V30 8860 H 891.745 -3.91145 6.66503 0
M  V30 8861 H 890.09 -3.52366 5.99052 0
M  V30 8862 H 893.281 -2.61871 3.87996 0
M  V30 8863 H 893.454 -3.41295 5.50837 0
M  V30 8864 N 886.86 -1.21182 -1.00761 0
M  V30 8865 C 888.271 -1.02652 -1.55947 0
M  V30 8866 C 888.622 0.414466 -1.91772 0
M  V30 8867 O 887.747 1.29727 -1.73204 0
M  V30 8868 C 888.342 -1.85713 -2.83366 0
M  V30 8869 C 886.901 -1.71523 -3.35048 0
M  V30 8870 C 886.048 -1.83087 -2.08265 0
M  V30 8871 H 888.999 -1.35242 -0.830379 0
M  V30 8872 H 889.02 -1.36583 -3.55141 0
M  V30 8873 H 888.532 -2.90584 -2.5726 0
M  V30 8874 H 886.633 -0.693257 -3.66094 0
M  V30 8875 H 886.746 -2.53333 -4.06644 0
M  V30 8876 H 885.11 -1.26367 -2.21141 0
M  V30 8877 H 885.893 -2.8946 -1.84575 0
M  V30 8878 N 888.338 1.20213 -1.01915 0
M  V30 8879 C 889.615 1.85348 -0.62495 0
M  V30 8880 C 889.995 1.91101 0.896854 0
M  V30 8881 O 889.343 1.42075 1.78961 0
M  V30 8882 C 889.553 3.24849 -1.27571 0
M  V30 8883 C 890.901 4.01107 -1.39277 0
M  V30 8884 O 891.925 3.34211 -1.23212 0
M  V30 8885 O 890.784 5.20914 -1.6526 0
M  V30 8886 H 887.878 0.798303 -0.215965 0
M  V30 8887 H 890.424 1.27782 -1.11669 0
M  V30 8888 H 889.196 3.1544 -2.31545 0
M  V30 8889 H 888.819 3.90049 -0.77122 0
M  V30 8890 N 889.816 0.795718 1.36037 0
M  V30 8891 C 891.041 0.38204 2.03851 0
M  V30 8892 C 891.466 -0.995553 1.59594 0
M  V30 8893 O 890.824 -1.64258 0.767401 0
M  V30 8894 C 890.872 0.461248 3.57638 0
M  V30 8895 O 889.976 -0.529448 4.08987 0
M  V30 8896 H 889.317 0.161227 0.644129 0
M  V30 8897 H 891.847 1.07858 1.73861 0
M  V30 8898 H 891.857 0.32712 4.06687 0
M  V30 8899 H 890.532 1.46613 3.89201 0
M  V30 8900 H 889.109 -0.35646 3.71192 0
M  V30 8901 N 891.294 -1.47756 0.548274 0
M  V30 8902 C 892.519 -2.07387 0.023475 0
M  V30 8903 C 892.944 -1.39956 -1.25674 0
M  V30 8904 O 892.302 -0.471543 -1.7506 0
M  V30 8905 C 892.35 -3.60224 -0.164669 0
M  V30 8906 O 891.454 -3.93653 -1.22928 0
M  V30 8907 H 890.795 -0.662312 0.0473156 0
M  V30 8908 H 893.325 -1.89905 0.761409 0
M  V30 8909 H 893.335 -4.06211 -0.38166 0
M  V30 8910 H 892.01 -4.08702 0.770425 0
M  V30 8911 H 890.587 -3.59422 -0.993495 0
M  V30 8912 N 892.772 -0.284283 -1.55015 0
M  V30 8913 C 894 0.332948 -2.04203 0
M  V30 8914 C 894.415 1.48783 -1.16229 0
M  V30 8915 O 893.772 1.81567 -0.184323 0
M  V30 8916 C 893.823 0.805207 -3.52418 0
M  V30 8917 O 893.544 -0.303689 -4.37046 0
M  V30 8918 C 895.045 1.48931 -4.17534 0
M  V30 8919 H 892.265 0.0747447 -0.666824 0
M  V30 8920 H 894.809 -0.419048 -2.00161 0
M  V30 8921 H 892.964 1.50727 -3.56876 0
M  V30 8922 H 893.378 0.0609703 -5.24465 0
M  V30 8923 H 894.852 1.77108 -5.22816 0
M  V30 8924 H 895.329 2.42389 -3.66257 0
M  V30 8925 H 895.935 0.830867 -4.17105 0
M  V30 8926 N 894.251 1.57596 -0.0117121 0
M  V30 8927 C 895.181 2.12188 0.9746 0
M  V30 8928 C 896.162 1.03379 1.35081 0
M  V30 8929 O 897.347 1.31123 1.4325 0
M  V30 8930 C 894.477 2.63477 2.26268 0
M  V30 8931 C 893.431 3.76917 2.02774 0
M  V30 8932 C 892.757 4.14566 3.37697 0
M  V30 8933 C 894.057 5.03715 1.38089 0
M  V30 8934 H 895.751 2.9485 0.520007 0
M  V30 8935 H 893.297 1.41836 0.248685 0
M  V30 8936 H 895.25 3.00299 2.95633 0
M  V30 8937 H 893.974 1.77953 2.73862 0
M  V30 8938 H 892.633 3.40507 1.35832 0
M  V30 8939 H 892.281 3.26048 3.83016 0
M  V30 8940 H 891.981 4.91 3.22789 0
M  V30 8941 H 893.505 4.53956 4.08358 0
M  V30 8942 H 894.919 5.38233 1.97428 0
M  V30 8943 H 893.316 5.85032 1.33634 0
M  V30 8944 H 894.386 4.83624 0.351575 0
M  V30 8945 N 895.729 -0.261212 1.5542 0
M  V30 8946 C 896.679 -1.32571 1.85496 0
M  V30 8947 C 897.663 -1.44155 0.714722 0
M  V30 8948 O 898.855 -1.47637 0.976336 0
M  V30 8949 C 895.984 -2.68384 2.14067 0
M  V30 8950 C 895.07 -2.60864 3.34381 0
M  V30 8951 N 895.461 -2.22967 4.54004 0
M  V30 8952 C 893.759 -2.91904 3.37206 0
M  V30 8953 C 894.46 -2.25727 5.36118 0
M  V30 8954 N 893.436 -2.64667 4.74818 0
M  V30 8955 H 897.238 -1.02298 2.75522 0
M  V30 8956 H 894.752 -0.469849 1.55455 0
M  V30 8957 H 896.749 -3.45189 2.33774 0
M  V30 8958 H 895.409 -2.99536 1.25332 0
M  V30 8959 H 896.42 -1.94748 4.79889 0
M  V30 8960 H 893.097 -3.2769 2.587 0
M  V30 8961 H 894.487 -1.98889 6.41789 0
M  V30 8962 N 897.207 -1.48554 -0.526253 0
M  V30 8963 C 898.435 -1.60429 -1.30652 0
M  V30 8964 C 898.85 -0.265963 -1.86917 0
M  V30 8965 O 898.207 0.745262 -1.6659 0
M  V30 8966 C 898.258 -2.65377 -2.45473 0
M  V30 8967 O 897.979 -3.94017 -1.91527 0
M  V30 8968 C 899.48 -2.87726 -3.37237 0
M  V30 8969 H 896.7 -0.540817 -0.397187 0
M  V30 8970 H 899.244 -1.94409 -0.634461 0
M  V30 8971 H 897.399 -2.34246 -3.08557 0
M  V30 8972 H 897.813 -4.51623 -2.66715 0
M  V30 8973 H 899.287 -3.64951 -4.14144 0
M  V30 8974 H 899.764 -1.96688 -3.92696 0
M  V30 8975 H 900.37 -3.20176 -2.79942 0
M  V30 8976 N 898.685 0.775411 -1.37205 0
M  V30 8977 C 899.962 1.5229 -1.22748 0
M  V30 8978 C 900.342 2.10327 0.180487 0
M  V30 8979 O 899.69 1.95206 1.18772 0
M  V30 8980 C 899.9 2.60671 -2.3206 0
M  V30 8981 C 901.248 3.28173 -2.6942 0
M  V30 8982 O 902.272 2.70963 -2.31208 0
M  V30 8983 O 901.131 4.31598 -3.3524 0
M  V30 8984 H 898.225 0.674326 -0.478762 0
M  V30 8985 H 900.771 0.812691 -1.48975 0
M  V30 8986 H 899.543 2.1588 -3.26361 0
M  V30 8987 H 899.166 3.39296 -2.07277 0
M  V30 8988 N 900.163 1.21714 1.00117 0
M  V30 8989 C 901.44 0.945391 1.71236 0
M  V30 8990 C 901.82 -0.541772 2.0403 0
M  V30 8991 O 901.168 -1.50763 1.71705 0
M  V30 8992 C 901.378 1.83444 2.96899 0
M  V30 8993 C 902.726 2.08558 3.69849 0
M  V30 8994 O 903.75 1.80824 3.06889 0
M  V30 8995 O 902.609 2.55485 4.83104 0
M  V30 8996 H 899.703 0.354834 0.747009 0
M  V30 8997 H 902.249 1.32661 1.05825 0
M  V30 8998 H 901.021 2.84075 2.69105 0
M  V30 8999 H 900.644 1.45428 3.70049 0
M  V30 9000 N 901.641 -1.19671 1.02551 0
M  V30 9001 C 902.889 -1.88894 0.71858 0
M  V30 9002 C 903.21 -1.79797 -0.754856 0
M  V30 9003 O 902.48 -1.20621 -1.54362 0
M  V30 9004 H 901.06 -0.699244 0.262806 0
M  V30 9005 H 903.722 -1.45298 1.29902 0
M  V30 9006 H 902.818 -2.95309 1.00989 0
M  V30 9007 N 903.119 -0.802921 -1.35613 0
M  V30 9008 C 904.349 -0.393359 -2.02821 0
M  V30 9009 C 904.757 0.999282 -1.60658 0
M  V30 9010 O 904.1 1.65463 -0.797977 0
M  V30 9011 C 904.162 -0.393102 -3.57344 0
M  V30 9012 C 903.826 -1.73563 -4.22759 0
M  V30 9013 C 904.823 -2.69333 -4.44698 0
M  V30 9014 C 902.508 -2.01863 -4.59953 0
M  V30 9015 C 904.502 -3.91589 -5.02928 0
M  V30 9016 C 902.189 -3.24383 -5.17898 0
M  V30 9017 C 903.187 -4.19064 -5.39328 0
M  V30 9018 O 902.875 -5.39422 -5.96053 0
M  V30 9019 H 902.607 -0.158431 -0.657172 0
M  V30 9020 H 905.161 -1.08682 -1.74291 0
M  V30 9021 H 903.391 0.356934 -3.85049 0
M  V30 9022 H 905.08 -0.00635596 -4.059 0
M  V30 9023 H 905.846 -2.48759 -4.16346 0
M  V30 9024 H 901.725 -1.28979 -4.42589 0
M  V30 9025 H 905.269 -4.65502 -5.1957 0
M  V30 9026 H 901.166 -3.44829 -5.45677 0
M  V30 9027 H 901.934 -5.40669 -6.14507 0
M  V30 9028 N 904.597 1.47463 -0.556102 0
M  V30 9029 C 905.53 2.26934 0.240027 0
M  V30 9030 C 906.508 1.33981 0.921297 0
M  V30 9031 O 907.692 1.63361 0.940506 0
M  V30 9032 C 904.819 3.10982 1.34194 0
M  V30 9033 C 903.865 4.19504 0.769342 0
M  V30 9034 S 904.698 5.34127 -0.383209 0
M  V30 9035 C 905.854 6.21739 0.720548 0
M  V30 9036 H 906.087 2.9411 -0.434348 0
M  V30 9037 H 903.62 1.50556 -0.342402 0
M  V30 9038 H 905.578 3.59976 1.973 0
M  V30 9039 H 904.239 2.4317 1.98814 0
M  V30 9040 H 903.432 4.78036 1.59679 0
M  V30 9041 H 903.034 3.73385 0.214475 0
M  V30 9042 H 905.326 6.58021 1.61292 0
M  V30 9043 H 906.269 7.0789 0.172602 0
M  V30 9044 H 906.677 5.55342 1.01272 0
M  V30 9045 N 906.075 0.2925 1.54862 0
M  V30 9046 C 907.486 -0.201841 1.85606 0
M  V30 9047 C 907.837 -1.54093 1.21449 0
M  V30 9048 O 906.962 -2.10327 0.509079 0
M  V30 9049 C 907.557 -0.373011 3.3674 0
M  V30 9050 C 906.116 -0.811574 3.67547 0
M  V30 9051 C 905.263 0.0850583 2.7717 0
M  V30 9052 H 908.214 0.513774 1.50153 0
M  V30 9053 H 908.235 -1.20892 3.60785 0
M  V30 9054 H 907.747 0.601751 3.83407 0
M  V30 9055 H 905.848 -1.79719 3.26392 0
M  V30 9056 H 905.961 -0.636853 4.74848 0
M  V30 9057 H 904.325 -0.434224 2.50971 0
M  V30 9058 H 905.108 1.05602 3.26654 0
M  V30 9059 N 907.553 -1.57587 0.0200696 0
M  V30 9060 C 908.486 -2.05157 -0.999295 0
M  V30 9061 C 909.464 -0.945466 -1.32286 0
M  V30 9062 O 910.648 -1.21512 -1.44108 0
M  V30 9063 C 907.775 -2.46604 -2.32173 0
M  V30 9064 C 906.821 -3.68146 -2.15339 0
M  V30 9065 S 907.654 -5.15194 -1.46065 0
M  V30 9066 C 908.81 -5.59929 -2.79697 0
M  V30 9067 H 909.043 -2.91299 -0.59433 0
M  V30 9068 H 906.576 -1.53209 -0.191372 0
M  V30 9069 H 908.534 -2.7115 -3.08201 0
M  V30 9070 H 907.195 -1.60825 -2.69804 0
M  V30 9071 H 906.388 -3.94963 -3.13082 0
M  V30 9072 H 905.99 -3.43705 -1.47454 0
M  V30 9073 H 908.282 -5.63615 -3.75957 0
M  V30 9074 H 909.225 -6.59599 -2.57555 0
M  V30 9075 H 909.633 -4.87549 -2.84528 0
M  V30 9076 N 909.032 0.252966 -1.55557 0
M  V30 9077 C 910.257 1.0038 -1.8149 0
M  V30 9078 C 910.682 1.78397 -0.596318 0
M  V30 9079 O 910.04 1.7551 0.454535 0
M  V30 9080 C 910.088 1.9222 -3.05096 0
M  V30 9081 O 909.192 3.01302 -2.81587 0
M  V30 9082 H 908.533 0.285949 -0.599274 0
M  V30 9083 H 911.063 0.275795 -2.02733 0
M  V30 9084 H 911.073 2.338 -3.34368 0
M  V30 9085 H 909.748 1.34852 -3.93431 0
M  V30 9086 H 908.325 2.63894 -2.63466 0
M  V30 9087 N 910.51 1.48831 0.518367 0
M  V30 9088 C 911.921 1.50842 1.10016 0
M  V30 9089 C 912.272 0.284744 1.94123 0
M  V30 9090 O 911.397 -0.607088 2.0771 0
M  V30 9091 C 911.992 2.73329 2.00191 0
M  V30 9092 C 910.551 2.78175 2.53566 0
M  V30 9093 C 909.698 2.4452 1.30786 0
M  V30 9094 H 912.649 1.55779 0.303073 0
M  V30 9095 H 912.67 2.52506 2.84642 0
M  V30 9096 H 912.182 3.62374 1.3895 0
M  V30 9097 H 910.283 1.93368 3.18496 0
M  V30 9098 H 910.396 3.79905 2.91906 0
M  V30 9099 H 908.76 1.95924 1.62744 0
M  V30 9100 H 909.543 3.35819 0.712797 0
M  V30 9101 N 911.988 -0.768124 1.37614 0
M  V30 9102 C 913.236 -1.52379 1.3276 0
M  V30 9103 C 913.557 -1.94809 -0.0863564 0
M  V30 9104 O 912.827 -1.66568 -1.03112 0
M  V30 9105 H 911.407 -0.565179 0.488448 0
M  V30 9106 H 914.069 -0.913974 1.72141 0
M  V30 9107 H 913.165 -2.4215 1.96901 0
M  V30 9108 N 913.466 -1.22244 -0.994698 0
M  V30 9109 C 914.712 -1.04746 -1.73655 0
M  V30 9110 C 915.045 0.41668 -1.89677 0
M  V30 9111 O 914.32 1.30897 -1.43862 0
M  V30 9112 C 914.603 -1.75716 -3.14318 0
M  V30 9113 C 914.456 -3.29714 -3.05955 0
M  V30 9114 C 915.775 -1.50809 -4.13455 0
M  V30 9115 H 912.894 -0.381921 -0.630322 0
M  V30 9116 H 915.536 -1.50559 -1.15897 0
M  V30 9117 H 913.686 -1.3677 -3.63629 0
M  V30 9118 H 915.358 -3.78093 -2.64279 0
M  V30 9119 H 913.601 -3.59484 -2.42804 0
M  V30 9120 H 914.272 -3.74547 -4.05485 0
M  V30 9121 H 916.748 -1.84636 -3.72892 0
M  V30 9122 H 915.624 -2.02964 -5.09997 0
M  V30 9123 H 915.885 -0.440292 -4.39902 0
M  V30 9124 N 914.944 1.19125 -1.03184 0
M  V30 9125 C 915.907 2.20662 -0.619766 0
M  V30 9126 C 916.907 1.57621 0.318179 0
M  V30 9127 O 918.097 1.73885 0.104783 0
M  V30 9128 C 915.229 3.40774 0.0926696 0
M  V30 9129 H 916.422 2.58633 -1.5182 0
M  V30 9130 H 913.975 1.32855 -0.823364 0
M  V30 9131 H 914.71 3.08324 1.00531 0
M  V30 9132 H 914.495 3.87766 -0.581344 0
M  V30 9133 H 915.985 4.15977 0.367792 0
M  V30 9134 N 916.422 0.810101 1.35185 0
M  V30 9135 C 917.833 0.452616 1.81131 0
M  V30 9136 C 918.184 -1.02573 1.67252 0
M  V30 9137 O 917.309 -1.79735 1.20516 0
M  V30 9138 C 917.904 0.814775 3.28857 0
M  V30 9139 C 916.463 0.509839 3.72931 0
M  V30 9140 C 915.61 1.03852 2.57119 0
M  V30 9141 H 918.561 1.00143 1.23114 0
M  V30 9142 H 918.582 0.113635 3.8033 0
M  V30 9143 H 918.094 1.89078 3.38926 0
M  V30 9144 H 916.195 -0.557289 3.68409 0
M  V30 9145 H 916.308 1.04493 4.67566 0
M  V30 9146 H 914.672 0.460671 2.50499 0
M  V30 9147 H 915.455 2.12071 2.69964 0
M  V30 9148 N 917.9 -1.47166 0.563914 0
M  V30 9149 C 919.146 -2.02756 0.0424338 0
M  V30 9150 C 919.479 -1.43662 -1.3067 0
M  V30 9151 O 918.754 -0.594676 -1.85186 0
M  V30 9152 C 919.037 -3.60074 -0.0434793 0
M  V30 9153 C 918.89 -4.29587 1.33323 0
M  V30 9154 C 920.209 -4.336 -0.753568 0
M  V30 9155 H 917.328 -0.736806 0.0168946 0
M  V30 9156 H 919.97 -1.75521 0.727496 0
M  V30 9157 H 918.12 -3.83409 -0.626906 0
M  V30 9158 H 919.792 -4.17573 1.96037 0
M  V30 9159 H 918.035 -3.8968 1.9061 0
M  V30 9160 H 918.706 -5.38218 1.22576 0
M  V30 9161 H 921.182 -4.15299 -0.258126 0
M  V30 9162 H 920.058 -5.43291 -0.782659 0
M  V30 9163 H 920.319 -4.03302 -1.81108 0
M  V30 9164 N 919.378 -0.300708 -1.54705 0
M  V30 9165 C 920.789 0.191995 -1.8571 0
M  V30 9166 C 921.14 1.53447 -1.22264 0
M  V30 9167 O 920.265 2.10054 -0.520226 0
M  V30 9168 C 920.86 0.355148 -3.36933 0
M  V30 9169 C 919.419 0.792071 -3.67972 0
M  V30 9170 C 918.566 -0.099756 -2.77121 0
M  V30 9171 H 921.517 -0.521729 -1.49879 0
M  V30 9172 H 921.538 1.18977 -3.61421 0
M  V30 9173 H 921.05 -0.622075 -3.83082 0
M  V30 9174 H 919.151 1.77986 -3.27341 0
M  V30 9175 H 919.264 0.611661 -4.75179 0
M  V30 9176 H 917.628 0.420909 -2.51198 0
M  V30 9177 H 918.411 -1.07333 -3.2609 0
M  V30 9178 N 920.856 1.57574 -0.0284266 0
M  V30 9179 C 922.081 1.96479 0.664137 0
M  V30 9180 C 922.506 0.904826 1.64908 0
M  V30 9181 O 921.864 -0.134339 1.80802 0
M  V30 9182 C 921.912 3.34479 1.34745 0
M  V30 9183 O 921.016 3.30794 2.46271 0
M  V30 9184 H 920.357 0.640654 0.174524 0
M  V30 9185 H 922.887 2.04402 -0.0900729 0
M  V30 9186 H 922.897 3.70694 1.7044 0
M  V30 9187 H 921.572 4.1117 0.625468 0
M  V30 9188 H 920.149 3.06294 2.12693 0
M  V30 9189 N 922.334 -0.244713 1.55689 0
M  V30 9190 C 923.582 -0.970525 1.77272 0
M  V30 9191 C 923.903 -1.85771 0.592804 0
M  V30 9192 O 923.173 -1.91952 -0.391323 0
M  V30 9193 H 921.753 -0.361342 0.653789 0
M  V30 9194 H 924.415 -0.262134 1.93129 0
M  V30 9195 H 923.511 -1.59096 2.68505 0
M  V30 9196 N 923.813 -1.49104 -0.510467 0
M  V30 9197 C 925.229 -1.35657 -0.840797 0
M  V30 9198 C 925.429 -0.382425 -1.97838 0
M  V30 9199 O 924.485 0.189331 -2.51789 0
M  V30 9200 C 925.798 -2.76155 -1.18992 0
M  V30 9201 C 927.346 -2.84786 -1.29868 0
M  V30 9202 C 927.821 -4.2603 -1.68115 0
M  V30 9203 N 929.312 -4.28796 -1.75181 0
M  V30 9204 C 930.047 -5.35041 -2.062 0
M  V30 9205 N 929.543 -6.51543 -2.35508 0
M  V30 9206 N 931.336 -5.2245 -2.07371 0
M  V30 9207 H 923.487 -2.11042 0.23982 0
M  V30 9208 H 925.75 -0.946946 0.0446824 0
M  V30 9209 H 925.456 -3.49092 -0.427484 0
M  V30 9210 H 925.33 -3.10922 -2.13558 0
M  V30 9211 H 927.717 -2.12092 -2.05186 0
M  V30 9212 H 927.798 -2.53613 -0.333758 0
M  V30 9213 H 927.442 -4.99247 -0.933512 0
M  V30 9214 H 927.372 -4.5466 -2.65691 0
M  V30 9215 H 929.863 -3.44771 -1.5473 0
M  V30 9216 H 930.176 -7.28342 -2.58337 0
M  V30 9217 H 928.521 -6.54785 -2.32985 0
M  V30 9218 H 931.712 -4.30444 -1.83945 0
M  V30 9219 H 931.885 -6.05347 -2.31212 0
M  V30 9220 N 925.291 0.760815 -1.38019 0
M  V30 9221 C 926.238 1.8744 -1.34666 0
M  V30 9222 C 927.208 1.64762 -0.210386 0
M  V30 9223 O 928.393 1.86528 -0.401479 0
M  V30 9224 C 925.533 3.24648 -1.17037 0
M  V30 9225 C 924.646 3.59206 -2.3999 0
M  V30 9226 C 923.781 4.8568 -2.15148 0
M  V30 9227 C 922.82 5.13002 -3.3391 0
M  V30 9228 N 921.957 6.30668 -3.08549 0
M  V30 9229 H 926.797 1.8964 -2.29871 0
M  V30 9230 H 924.334 0.927004 -1.14215 0
M  V30 9231 H 926.292 4.03814 -1.04834 0
M  V30 9232 H 924.922 3.21793 -0.254758 0
M  V30 9233 H 923.974 2.74939 -2.62893 0
M  V30 9234 H 925.286 3.75328 -3.28527 0
M  V30 9235 H 924.44 5.72773 -2.00039 0
M  V30 9236 H 923.179 4.71682 -1.23965 0
M  V30 9237 H 922.184 4.2438 -3.49545 0
M  V30 9238 H 923.409 5.28901 -4.25958 0
M  V30 9239 H 921.355 6.18008 -2.20006 0
M  V30 9240 H 921.272 6.47257 -3.90633 0
M  V30 9241 H 922.54 7.20669 -2.9708 0
M  V30 9242 N 926.769 1.22769 0.988202 0
M  V30 9243 C 928.017 1.05301 1.725 0
M  V30 9244 C 928.338 -0.412103 1.90596 0
M  V30 9245 O 927.608 -1.29606 1.46898 0
M  V30 9246 H 926.188 0.386658 0.639144 0
M  V30 9247 H 928.85 1.54359 1.18993 0
M  V30 9248 H 927.946 1.53465 2.71763 0
M  V30 9249 N 928.247 -1.18576 1.03814 0
M  V30 9250 C 929.472 -1.92978 0.759873 0
M  V30 9251 C 929.897 -1.75514 -0.676486 0
M  V30 9252 O 929.255 -1.06359 -1.46824 0
M  V30 9253 C 929.303 -3.42507 1.12788 0
M  V30 9254 O 928.407 -4.1163 0.251886 0
M  V30 9255 H 927.748 -0.602129 0.279886 0
M  V30 9256 H 930.278 -1.50383 1.3873 0
M  V30 9257 H 930.288 -3.93206 1.08872 0
M  V30 9258 H 928.963 -3.5454 2.17427 0
M  V30 9259 H 927.54 -3.7125 0.350441 0
M  V30 9260 N 929.725 -0.817259 -1.34754 0
M  V30 9261 C 930.973 -0.401852 -1.98065 0
M  V30 9262 C 931.294 1.03718 -1.65129 0
M  V30 9263 O 930.564 1.71921 -0.939141 0
M  V30 9264 H 929.144 -0.145603 -0.732672 0
M  V30 9265 H 931.806 -1.04545 -1.64488 0
M  V30 9266 H 930.902 -0.516241 -3.07801 0
M  V30 9267 N 931.203 1.46865 -0.571711 0
M  V30 9268 C 932.48 1.95596 0.0132445 0
M  V30 9269 C 932.86 1.51438 1.47071 0
M  V30 9270 O 932.208 0.759917 2.15494 0
M  V30 9271 C 932.418 3.48689 -0.147335 0
M  V30 9272 C 933.766 4.24599 -0.00946329 0
M  V30 9273 O 934.79 3.5612 -0.0756112 0
M  V30 9274 O 933.649 5.46332 0.135361 0
M  V30 9275 H 930.743 0.825102 0.0560039 0
M  V30 9276 H 933.289 1.57199 -0.639256 0
M  V30 9277 H 932.061 3.73681 -1.16096 0
M  V30 9278 H 931.684 3.93887 0.542109 0
M  V30 9279 N 932.681 0.308908 1.54543 0
M  V30 9280 C 933.911 -0.299983 2.04411 0
M  V30 9281 C 934.319 -1.47463 1.18538 0
M  V30 9282 O 933.662 -1.82547 0.205463 0
M  V30 9283 C 933.724 -0.811579 3.50219 0
M  V30 9284 C 933.388 0.238834 4.56375 0
M  V30 9285 C 934.385 1.06997 5.08771 0
M  V30 9286 C 932.07 0.382808 5.00839 0
M  V30 9287 C 934.064 2.03096 6.04178 0
M  V30 9288 C 931.751 1.34723 5.96065 0
M  V30 9289 C 932.749 2.16978 6.47618 0
M  V30 9290 O 932.437 3.11783 7.40977 0
M  V30 9291 H 932.169 -0.0679682 0.672574 0
M  V30 9292 H 934.723 0.448815 2.00437 0
M  V30 9293 H 932.953 -1.61104 3.51543 0
M  V30 9294 H 934.642 -1.33721 3.83241 0
M  V30 9295 H 935.408 0.969654 4.75208 0
M  V30 9296 H 931.287 -0.247507 4.60335 0
M  V30 9297 H 934.831 2.67338 6.44342 0
M  V30 9298 H 930.728 1.44824 6.29044 0
M  V30 9299 H 931.496 3.06853 7.58804 0
M  V30 9300 N 934.159 -1.57557 0.0367827 0
M  V30 9301 C 935.092 -2.06205 -0.977479 0
M  V30 9302 C 936.07 -0.959444 -1.31276 0
M  V30 9303 O 937.254 -1.23033 -1.42811 0
M  V30 9304 C 934.381 -2.49053 -2.29544 0
M  V30 9305 C 933.427 -3.70409 -2.11423 0
M  V30 9306 S 934.26 -5.16715 -1.40593 0
M  V30 9307 C 935.416 -5.62864 -2.73742 0
M  V30 9308 H 935.649 -2.91913 -0.5634 0
M  V30 9309 H 933.182 -1.53404 -0.175111 0
M  V30 9310 H 935.14 -2.74403 -3.05308 0
M  V30 9311 H 933.801 -1.63677 -2.68083 0
M  V30 9312 H 932.994 -3.98262 -3.08875 0
M  V30 9313 H 932.596 -3.4525 -1.438 0
M  V30 9314 H 934.888 -5.67571 -3.69958 0
M  V30 9315 H 935.831 -6.62294 -2.50544 0
M  V30 9316 H 936.239 -4.90539 -2.79341 0
M  V30 9317 N 935.637 0.236453 -1.55816 0
M  V30 9318 C 937.048 0.80468 -1.68469 0
M  V30 9319 C 937.399 1.85601 -0.636133 0
M  V30 9320 O 936.524 2.15323 0.215622 0
M  V30 9321 C 937.119 1.46634 -3.05424 0
M  V30 9322 C 935.678 1.98214 -3.19981 0
M  V30 9323 C 934.825 0.83695 -2.64368 0
M  V30 9324 H 937.776 0.0120647 -1.58695 0
M  V30 9325 H 937.797 2.33472 -3.00451 0
M  V30 9326 H 937.309 0.700931 -3.81718 0
M  V30 9327 H 935.41 2.77604 -2.4853 0
M  V30 9328 H 935.523 2.17235 -4.2702 0
M  V30 9329 H 933.887 1.24028 -2.22462 0
M  V30 9330 H 934.67 0.084451 -3.43196 0
M  V30 9331 N 937.115 1.49373 0.502552 0
M  V30 9332 C 938.048 1.60529 1.6219 0
M  V30 9333 C 939.026 0.454431 1.56121 0
M  V30 9334 O 940.21 0.669768 1.762 0
M  V30 9335 C 937.337 1.55879 3.00698 0
M  V30 9336 C 936.383 2.76143 3.25034 0
M  V30 9337 S 937.216 4.37831 3.08325 0
M  V30 9338 C 938.372 4.35824 4.49231 0
M  V30 9339 H 938.605 2.55219 1.52482 0
M  V30 9340 H 936.138 1.38244 0.687594 0
M  V30 9341 H 938.096 1.53882 3.80566 0
M  V30 9342 H 936.757 0.624791 3.07823 0
M  V30 9343 H 935.95 2.69104 4.26144 0
M  V30 9344 H 935.552 2.75544 2.52886 0
M  V30 9345 H 937.844 4.07447 5.41288 0
M  V30 9346 H 938.787 5.37206 4.6132 0
M  V30 9347 H 939.195 3.65923 4.29838 0
M  V30 9348 N 938.594 -0.753485 1.38421 0
M  V30 9349 C 939.819 -1.54783 1.38047 0
M  V30 9350 C 940.244 -1.8808 -0.0276371 0
M  V30 9351 O 939.602 -1.5058 -1.00973 0
M  V30 9352 C 939.65 -2.82353 2.24297 0
M  V30 9353 O 938.754 -3.77509 1.66014 0
M  V30 9354 H 938.095 -0.468151 0.470883 0
M  V30 9355 H 940.625 -0.931144 1.82184 0
M  V30 9356 H 940.635 -3.31277 2.38159 0
M  V30 9357 H 939.31 -2.57449 3.26639 0
M  V30 9358 H 937.887 -3.36212 1.61294 0
M  V30 9359 N 940.072 -1.23292 -0.981677 0
M  V30 9360 C 941.483 -1.05936 -1.53735 0
M  V30 9361 C 941.834 0.373695 -1.92608 0
M  V30 9362 O 940.959 1.26024 -1.75917 0
M  V30 9363 C 941.554 -1.91682 -2.79363 0
M  V30 9364 C 940.113 -1.78591 -3.31334 0
M  V30 9365 C 939.26 -1.87463 -2.04335 0
M  V30 9366 H 942.211 -1.36973 -0.801505 0
M  V30 9367 H 942.232 -1.44085 -3.52164 0
M  V30 9368 H 941.744 -2.95975 -2.51039 0
M  V30 9369 H 939.845 -0.770755 -3.64541 0
M  V30 9370 H 939.958 -2.61902 -4.01179 0
M  V30 9371 H 938.322 -1.3103 -2.18411 0
M  V30 9372 H 939.105 -2.9331 -1.78394 0
M  V30 9373 N 941.55 1.18024 -1.04442 0
M  V30 9374 C 942.497 2.21785 -0.638759 0
M  V30 9375 C 943.467 1.62255 0.355312 0
M  V30 9376 O 944.652 1.89176 0.24844 0
M  V30 9377 C 941.792 3.45098 -0.0118002 0
M  V30 9378 C 940.905 4.1895 -1.05379 0
M  V30 9379 C 940.04 5.2973 -0.394951 0
M  V30 9380 C 939.079 5.95359 -1.42178 0
M  V30 9381 N 938.216 6.97668 -0.787635 0
M  V30 9382 H 943.056 2.55839 -1.52808 0
M  V30 9383 H 940.593 1.25681 -0.764378 0
M  V30 9384 H 942.551 4.15564 0.369075 0
M  V30 9385 H 941.181 3.11652 0.84102 0
M  V30 9386 H 940.233 3.47274 -1.55258 0
M  V30 9387 H 941.545 4.63877 -1.83355 0
M  V30 9388 H 940.699 6.06687 0.0399244 0
M  V30 9389 H 939.438 4.85915 0.416867 0
M  V30 9390 H 938.443 5.17139 -1.86675 0
M  V30 9391 H 939.668 6.41255 -2.23536 0
M  V30 9392 H 937.614 6.56 0.00380893 0
M  V30 9393 H 937.531 7.40867 -1.50505 0
M  V30 9394 H 938.799 7.78586 -0.377282 0
M  V30 9395 N 943.028 0.824394 1.34319 0
M  V30 9396 C 944.253 0.425194 2.02995 0
M  V30 9397 C 944.678 -0.961476 1.6167 0
M  V30 9398 O 944.036 -1.62593 0.80207 0
M  V30 9399 C 944.084 0.537004 3.56579 0
M  V30 9400 O 943.188 -0.442576 4.10018 0
M  V30 9401 H 942.529 0.174853 0.640564 0
M  V30 9402 H 945.059 1.11522 1.71534 0
M  V30 9403 H 945.069 0.413311 4.05901 0
M  V30 9404 H 943.744 1.54836 3.86004 0
M  V30 9405 H 942.321 -0.277644 3.71865 0
M  V30 9406 N 944.506 -1.46559 0.579492 0
M  V30 9407 C 945.752 -2.02699 0.0639363 0
M  V30 9408 C 946.085 -1.4504 -1.29139 0
M  V30 9409 O 945.36 -0.614284 -1.84545 0
M  V30 9410 C 945.643 -3.601 -0.00528618 0
M  V30 9411 C 945.496 -4.28149 1.37871 0
M  V30 9412 C 946.815 -4.34375 -0.707537 0
M  V30 9413 H 943.934 -0.736586 0.0247085 0
M  V30 9414 H 946.576 -1.74739 0.746071 0
M  V30 9415 H 944.726 -3.84052 -0.586206 0
M  V30 9416 H 946.398 -4.1547 2.00455 0
M  V30 9417 H 944.641 -3.87636 1.94732 0
M  V30 9418 H 945.312 -5.36888 1.28278 0
M  V30 9419 H 947.788 -4.15549 -0.214064 0
M  V30 9420 H 946.664 -5.44091 -0.724992 0
M  V30 9421 H 946.925 -4.052 -1.7682 0
M  V30 9422 N 945.984 -0.3171 -1.54377 0
M  V30 9423 C 947.209 0.292311 -2.0533 0
M  V30 9424 C 947.634 1.45503 -1.19207 0
M  V30 9425 O 946.992 1.80197 -0.199721 0
M  V30 9426 C 947.04 0.710787 -3.53525 0
M  V30 9427 O 946.144 1.81387 -3.70368 0
M  V30 9428 H 945.485 0.0539976 -0.661801 0
M  V30 9429 H 948.015 -0.463629 -1.99278 0
M  V30 9430 H 948.025 0.995216 -3.95676 0
M  V30 9431 H 946.7 -0.139668 -4.15665 0
M  V30 9432 H 945.277 1.52875 -3.40123 0
M  V30 9433 N 947.462 1.57535 -0.0451378 0
M  V30 9434 C 948.425 2.1008 0.916461 0
M  V30 9435 C 949.425 1.01913 1.2438 0
M  V30 9436 O 950.615 1.2801 1.18148 0
M  V30 9437 C 947.747 2.58001 2.22818 0
M  V30 9438 H 948.94 2.96334 0.461076 0
M  V30 9439 H 946.493 1.54974 0.203169 0
M  V30 9440 H 947.228 1.75123 2.72951 0
M  V30 9441 H 947.013 3.3704 2.00366 0
M  V30 9442 H 948.503 2.98822 2.9171 0
M  V30 9443 N 948.94 -0.228186 1.55939 0
M  V30 9444 C 950.351 -0.795734 1.68893 0
M  V30 9445 C 950.702 -1.85261 0.645967 0
M  V30 9446 O 949.827 -2.15434 -0.2042 0
M  V30 9447 C 950.422 -1.45013 3.06197 0
M  V30 9448 C 948.981 -1.96514 3.21028 0
M  V30 9449 C 948.128 -0.822918 2.64808 0
M  V30 9450 H 951.079 -0.0036485 1.587 0
M  V30 9451 H 951.1 -2.31875 3.01685 0
M  V30 9452 H 950.612 -0.680678 3.82084 0
M  V30 9453 H 948.713 -2.76282 2.49998 0
M  V30 9454 H 948.826 -2.14967 4.28166 0
M  V30 9455 H 947.19 -1.22846 2.23116 0
M  V30 9456 H 947.973 -0.0662493 3.43236 0
M  V30 9457 N 950.418 -1.49637 -0.494624 0
M  V30 9458 C 951.35 -1.62902 -1.61231 0
M  V30 9459 C 952.363 -0.511425 -1.54558 0
M  V30 9460 O 953.552 -0.783724 -1.60375 0
M  V30 9461 C 950.652 -1.57564 -3.00045 0
M  V30 9462 C 949.825 -2.84964 -3.31835 0
M  V30 9463 C 948.884 -2.72591 -4.5009 0
M  V30 9464 O 947.91 -3.46532 -4.51558 0
M  V30 9465 N 949.112 -1.84563 -5.50379 0
M  V30 9466 H 951.877 -2.59301 -1.50276 0
M  V30 9467 H 949.438 -1.46806 -0.68262 0
M  V30 9468 H 951.43 -1.46932 -3.77085 0
M  V30 9469 H 950 -0.689974 -3.0489 0
M  V30 9470 H 949.22 -3.099 -2.4363 0
M  V30 9471 H 950.508 -3.69412 -3.49875 0
M  V30 9472 H 949.906 -1.23758 -5.51997 0
M  V30 9473 H 948.463 -1.79849 -6.26496 0
M  V30 9474 N 951.896 0.746133 -1.38819 0
M  V30 9475 C 952.828 1.86991 -1.3254 0
M  V30 9476 C 953.841 1.61077 -0.236216 0
M  V30 9477 O 955.03 1.71518 -0.494341 0
M  V30 9478 C 952.13 3.22786 -1.03258 0
M  V30 9479 C 951.303 3.76145 -2.23234 0
M  V30 9480 C 950.362 4.90474 -1.90581 0
M  V30 9481 O 949.388 5.04717 -2.63153 0
M  V30 9482 N 950.59 5.74015 -0.86525 0
M  V30 9483 H 953.355 1.92885 -2.2938 0
M  V30 9484 H 950.916 0.926392 -1.32776 0
M  V30 9485 H 952.908 3.96824 -0.794533 0
M  V30 9486 H 951.478 3.12231 -0.151895 0
M  V30 9487 H 950.698 2.93587 -2.63059 0
M  V30 9488 H 951.986 4.08528 -3.03285 0
M  V30 9489 H 951.384 5.65086 -0.263577 0
M  V30 9490 H 949.941 6.48168 -0.687087 0
M  V30 9491 N 953.375 1.23811 0.975125 0
M  V30 9492 C 954.624 1.06741 1.71141 0
M  V30 9493 C 954.937 -0.394986 1.9157 0
M  V30 9494 O 956.143 -0.685723 2.62698 0
M  V30 9495 C 954.599 1.86168 3.08009 0
M  V30 9496 C 954.207 3.36771 2.95448 0
M  V30 9497 C 955.951 1.77604 3.85561 0
M  V30 9498 C 953.858 4.0857 4.2758 0
M  V30 9499 H 952.788 0.395819 0.64175 0
M  V30 9500 H 955.439 1.47825 1.0872 0
M  V30 9501 H 953.821 1.37893 3.71216 0
M  V30 9502 H 954.995 3.92571 2.41298 0
M  V30 9503 H 953.31 3.46205 2.31368 0
M  V30 9504 H 955.907 2.28556 4.83391 0
M  V30 9505 H 956.25 0.739837 4.09673 0
M  V30 9506 H 956.783 2.23519 3.29065 0
M  V30 9507 H 953.522 5.12518 4.08663 0
M  V30 9508 H 953.042 3.57556 4.81574 0
M  V30 9509 H 954.721 4.15157 4.9624 0
M  V30 9510 N 954.853 -1.17469 1.05066 0
M  V30 9511 C 956.102 -1.87032 0.755114 0
M  V30 9512 C 956.415 -1.81844 -0.720572 0
M  V30 9513 O 957.621 -2.46866 -1.13002 0
M  V30 9514 C 956.077 -3.35581 1.30052 0
M  V30 9515 C 955.685 -3.49274 2.80556 0
M  V30 9516 C 957.429 -4.1048 1.08196 0
M  V30 9517 C 955.336 -4.91838 3.28404 0
M  V30 9518 H 954.266 -0.70057 0.278779 0
M  V30 9519 H 956.917 -1.32663 1.26779 0
M  V30 9520 H 955.299 -3.89479 0.715667 0
M  V30 9521 H 956.473 -3.05598 3.44886 0
M  V30 9522 H 954.788 -2.87793 3.00939 0
M  V30 9523 H 957.385 -5.15652 1.41447 0
M  V30 9524 H 957.728 -4.16295 0.0196603 0
M  V30 9525 H 958.261 -3.62784 1.63195 0
M  V30 9526 H 955 -4.91196 4.34058 0
M  V30 9527 H 954.52 -5.36189 2.68815 0
M  V30 9528 H 956.199 -5.60602 3.23009 0
M  V30 9529 N 956.331 -0.831506 -1.3388 0
M  V30 9530 C 957.279 -0.247896 -2.31275 0
M  V30 9531 C 958.273 0.616083 -1.578 0
M  V30 9532 O 959.479 0.506465 -1.72728 0
M  V30 9533 H 955.854 -0.0614293 -0.749487 0
M  V30 9534 H 957.825 -1.08401 -2.78014 0
M  V30 9535 C 956.574 0.568434 -3.43022 0
M  V30 9536 H 955.897 -0.0870654 -3.99705 0
M  V30 9537 H 957.337 0.942751 -4.13386 0
M  V30 9538 C 955.796 1.74431 -2.88228 0
M  V30 9539 O 956.326 2.84278 -2.83811 0
M  V30 9540 N 954.532 1.56382 -2.44935 0
M  V30 9541 H 954.079 0.670255 -2.48727 0
M  V30 9542 H 954.037 2.35208 -2.08625 0
M  V30 9543 N 957.809 1.4625 -0.587256 0
M  V30 9544 C 959.22 1.85997 -0.161918 0
M  V30 9545 C 959.571 1.49025 1.27616 0
M  V30 9546 O 958.696 0.907282 1.96462 0
M  V30 9547 C 959.291 3.37582 -0.287077 0
M  V30 9548 C 957.85 3.76308 0.0834211 0
M  V30 9549 C 956.997 2.70259 -0.620932 0
M  V30 9550 H 959.948 1.3734 -0.795199 0
M  V30 9551 H 959.969 3.77379 0.486333 0
M  V30 9552 H 959.481 3.64459 -1.33383 0
M  V30 9553 H 957.582 3.55047 1.13013 0
M  V30 9554 H 957.695 4.78184 -0.296064 0
M  V30 9555 H 956.059 2.54628 -0.0607027 0
M  V30 9556 H 956.842 2.99975 -1.66942 0
M  V30 9557 N 959.287 0.325282 1.54207 0
M  V30 9558 C 960.536 -0.27768 1.99779 0
M  V30 9559 C 960.849 -1.5311 1.21723 0
M  V30 9560 O 962.055 -2.21017 1.57682 0
M  V30 9561 C 960.511 -0.545329 3.55745 0
M  V30 9562 C 960.119 0.691143 4.42637 0
M  V30 9563 C 961.863 -1.10815 4.09781 0
M  V30 9564 C 959.77 0.395302 5.90077 0
M  V30 9565 H 958.7 -0.107536 0.746292 0
M  V30 9566 H 961.351 0.437773 1.78202 0
M  V30 9567 H 959.733 -1.32101 3.73317 0
M  V30 9568 H 960.907 1.46653 4.3684 0
M  V30 9569 H 959.222 1.1743 3.99499 0
M  V30 9570 H 961.819 -1.34414 5.1753 0
M  V30 9571 H 962.162 -2.05806 3.6187 0
M  V30 9572 H 962.695 -0.393608 3.95848 0
M  V30 9573 H 959.434 1.31443 6.42186 0
M  V30 9574 H 958.954 -0.34235 5.98822 0
M  V30 9575 H 960.633 0.00576877 6.47 0
M  V30 9576 N 960.765 -1.57509 0.0534917 0
M  V30 9577 C 962.181 -1.56696 -0.303067 0
M  V30 9578 C 962.381 -1.06135 -1.71282 0
M  V30 9579 O 961.437 -0.71899 -2.42047 0
M  V30 9580 C 962.75 -3.00421 -0.129418 0
M  V30 9581 C 964.298 -3.12358 -0.200346 0
M  V30 9582 C 964.773 -4.57967 -0.0551971 0
M  V30 9583 N 966.264 -4.63066 -0.111398 0
M  V30 9584 C 966.999 -5.73395 -0.0232344 0
M  V30 9585 N 966.495 -6.92701 0.11741 0
M  V30 9586 N 968.288 -5.62045 -0.078984 0
M  V30 9587 H 960.439 -1.88696 0.975064 0
M  V30 9588 H 962.702 -0.869072 0.378706 0
M  V30 9589 H 962.408 -3.41456 0.842653 0
M  V30 9590 H 962.282 -3.66563 -0.889476 0
M  V30 9591 H 964.669 -2.71221 -1.16289 0
M  V30 9592 H 964.75 -2.48891 0.590506 0
M  V30 9593 H 964.394 -4.9979 0.904034 0
M  V30 9594 H 964.324 -5.19443 -0.865223 0
M  V30 9595 H 966.815 -3.77263 -0.219256 0
M  V30 9596 H 967.128 -7.72597 0.177326 0
M  V30 9597 H 965.473 -6.94833 0.152526 0
M  V30 9598 H 968.664 -4.67725 -0.187434 0
M  V30 9599 H 968.837 -6.48 -0.00681731 0
M  V30 9600 N 962.243 0.219913 -1.56058 0
M  V30 9601 C 963.659 0.569685 -1.49086 0
M  V30 9602 C 963.859 1.87066 -0.748903 0
M  V30 9603 O 962.915 2.50838 -0.289235 0
M  V30 9604 C 964.228 0.647397 -2.93648 0
M  V30 9605 C 965.776 0.737914 -3.04177 0
M  V30 9606 C 966.251 0.846957 -4.50101 0
M  V30 9607 N 967.742 0.911136 -4.5415 0
M  V30 9608 C 968.477 1.01525 -5.64341 0
M  V30 9609 N 967.973 1.0832 -6.8428 0
M  V30 9610 N 969.766 1.05051 -5.52196 0
M  V30 9611 H 961.917 -0.633778 -2.02724 0
M  V30 9612 H 964.18 -0.222583 -0.921499 0
M  V30 9613 H 963.886 -0.238987 -3.50887 0
M  V30 9614 H 963.76 1.51046 -3.45637 0
M  V30 9615 H 966.147 1.61474 -2.47002 0
M  V30 9616 H 966.228 -0.150845 -2.55355 0
M  V30 9617 H 965.872 -0.0254166 -5.07894 0
M  V30 9618 H 965.802 1.75116 -4.96631 0
M  V30 9619 H 968.293 0.868869 -3.67776 0
M  V30 9620 H 968.606 1.16247 -7.64007 0
M  V30 9621 H 966.951 1.05231 -6.86987 0
M  V30 9622 H 970.142 0.994086 -4.57423 0
M  V30 9623 H 970.315 1.12819 -6.38103 0
M  V30 9624 N 963.721 1.49897 0.486681 0
M  V30 9625 C 964.671 1.6401 1.58381 0
M  V30 9626 C 965.655 0.495215 1.5309 0
M  V30 9627 O 966.847 0.748876 1.60377 0
M  V30 9628 C 963.976 1.72321 2.96918 0
M  V30 9629 C 963.062 2.92435 3.07152 0
M  V30 9630 N 963.453 4.16326 2.87238 0
M  V30 9631 C 961.751 2.90669 3.38271 0
M  V30 9632 C 962.452 4.97144 3.02031 0
M  V30 9633 N 961.428 4.3079 3.31544 0
M  V30 9634 H 965.23 2.57506 1.41661 0
M  V30 9635 H 962.744 1.46867 0.693106 0
M  V30 9636 H 964.741 1.80532 3.75784 0
M  V30 9637 H 963.401 0.799724 3.14697 0
M  V30 9638 H 964.412 4.46076 2.63128 0
M  V30 9639 H 961.089 2.07758 3.62137 0
M  V30 9640 H 962.479 6.05611 2.91006 0
M  V30 9641 N 965.199 -0.738761 1.39212 0
M  V30 9642 C 966.61 -1.31684 1.32348 0
M  V30 9643 C 966.961 -1.96195 -0.0139041 0
M  V30 9644 O 966.086 -1.96056 -0.916025 0
M  V30 9645 C 966.681 -2.39444 2.39691 0
M  V30 9646 C 965.24 -2.92935 2.36359 0
M  V30 9647 C 964.387 -1.66465 2.21776 0
M  V30 9648 H 967.338 -0.536543 1.49355 0
M  V30 9649 H 967.359 -3.19744 2.06262 0
M  V30 9650 H 966.871 -1.92463 3.37016 0
M  V30 9651 H 964.972 -3.44207 1.42662 0
M  V30 9652 H 965.085 -3.46306 3.31073 0
M  V30 9653 H 963.449 -1.90657 1.68884 0
M  V30 9654 H 964.232 -1.21541 3.21065 0
M  V30 9655 N 966.677 -1.24326 -0.968545 0
M  V30 9656 C 967.609 -0.992749 -2.06584 0
M  V30 9657 C 968.622 0.0374902 -1.62757 0
M  V30 9658 O 969.811 -0.199448 -1.77382 0
M  V30 9659 C 966.911 -0.476165 -3.35538 0
M  V30 9660 C 966.084 -1.56934 -4.08277 0
M  V30 9661 C 965.143 -1.05555 -5.15504 0
M  V30 9662 O 964.169 -1.74707 -5.41725 0
M  V30 9663 N 965.371 0.110465 -5.80395 0
M  V30 9664 H 968.136 -1.93752 -2.28649 0
M  V30 9665 H 965.697 -1.15344 -1.13611 0
M  V30 9666 H 967.689 -0.117223 -4.0453 0
M  V30 9667 H 966.259 0.374315 -3.10351 0
M  V30 9668 H 965.479 -2.10051 -3.33575 0
M  V30 9669 H 966.767 -2.30415 -4.53637 0
M  V30 9670 H 966.165 0.688614 -5.61493 0
M  V30 9671 H 964.722 0.41056 -6.50506 0
M  V30 9672 N 968.156 1.1691 -1.05688 0
M  V30 9673 C 969.572 1.39288 -0.779167 0
M  V30 9674 C 969.772 1.91587 0.624231 0
M  V30 9675 O 968.828 2.11072 1.38582 0
M  V30 9676 C 970.141 2.37914 -1.83895 0
M  V30 9677 C 971.689 2.51611 -1.86175 0
M  V30 9678 C 972.164 3.53514 -2.9119 0
M  V30 9679 N 973.655 3.61036 -2.90184 0
M  V30 9680 C 974.39 4.39657 -3.68088 0
M  V30 9681 N 973.886 5.21752 -4.55793 0
M  V30 9682 N 975.679 4.3458 -3.56507 0
M  V30 9683 H 967.83 0.81296 -1.96226 0
M  V30 9684 H 970.093 0.419818 -0.849975 0
M  V30 9685 H 969.799 2.06568 -2.84645 0
M  V30 9686 H 969.673 3.37483 -1.68479 0
M  V30 9687 H 972.06 2.82264 -0.86087 0
M  V30 9688 H 972.141 1.52099 -2.05668 0
M  V30 9689 H 971.785 3.23599 -3.91467 0
M  V30 9690 H 971.715 4.52742 -2.68947 0
M  V30 9691 H 974.206 3.02428 -2.26596 0
M  V30 9692 H 974.519 5.78939 -5.11907 0
M  V30 9693 H 972.864 5.21116 -4.59851 0
M  V30 9694 H 976.055 3.69501 -2.87379 0
M  V30 9695 H 976.228 4.95607 -4.17466 0
M  V30 9696 N 969.634 0.838594 1.33437 0
M  V30 9697 C 970.88 0.434813 1.98084 0
M  V30 9698 C 971.213 -1.00331 1.66275 0
M  V30 9699 O 970.488 -1.70139 0.942501 0
M  V30 9700 C 970.771 0.655602 3.54082 0
M  V30 9701 C 970.624 2.14097 3.95578 0
M  V30 9702 C 971.943 0.101576 4.39983 0
M  V30 9703 H 969.062 0.159456 0.719544 0
M  V30 9704 H 971.704 1.05406 1.58081 0
M  V30 9705 H 969.854 0.128501 3.88287 0
M  V30 9706 H 971.526 2.73292 3.71631 0
M  V30 9707 H 969.769 2.62558 3.4532 0
M  V30 9708 H 970.44 2.24621 5.04231 0
M  V30 9709 H 972.916 0.552122 4.12421 0
M  V30 9710 H 971.792 0.28575 5.48156 0
M  V30 9711 H 972.053 -0.994616 4.30767 0
M  V30 9712 N 971.112 -1.45937 0.595003 0
M  V30 9713 C 972.389 -1.95592 0.0178748 0
M  V30 9714 C 972.769 -1.53758 -1.44643 0
M  V30 9715 O 972.117 -0.794104 -2.14257 0
M  V30 9716 C 972.327 -3.4841 0.202789 0
M  V30 9717 C 973.675 -4.2453 0.0770121 0
M  V30 9718 O 974.699 -3.55954 0.132257 0
M  V30 9719 O 973.558 -5.46479 -0.0484271 0
M  V30 9720 H 970.652 -0.825888 -0.0428702 0
M  V30 9721 H 973.198 -1.56162 0.664184 0
M  V30 9722 H 971.97 -3.71787 1.22027 0
M  V30 9723 H 971.593 -3.947 -0.479376 0
M  V30 9724 N 972.59 -0.333456 -1.54032 0
M  V30 9725 C 974.001 0.15256 -1.86076 0
M  V30 9726 C 974.352 1.50819 -1.25492 0
M  V30 9727 O 973.477 2.08903 -0.564665 0
M  V30 9728 C 974.072 0.283599 -3.37611 0
M  V30 9729 C 972.631 0.713841 -3.69569 0
M  V30 9730 C 971.778 -0.158515 -2.76847 0
M  V30 9731 H 974.729 -0.553404 -1.48738 0
M  V30 9732 H 974.75 1.11284 -3.63863 0
M  V30 9733 H 974.262 -0.703193 -3.81676 0
M  V30 9734 H 972.363 1.71002 -3.31042 0
M  V30 9735 H 972.476 0.510731 -4.7637 0
M  V30 9736 H 970.84 0.367531 -2.52034 0
M  V30 9737 H 971.623 -1.14226 -3.2374 0
M  V30 9738 N 974.068 1.57479 -0.061844 0
M  V30 9739 C 975.016 2.13346 0.926629 0
M  V30 9740 C 976.01 1.06787 1.31502 0
M  V30 9741 O 977.216 1.25181 1.29343 0
M  V30 9742 H 973.591 0.682046 0.316729 0
M  V30 9743 H 975.562 2.95279 0.430424 0
M  V30 9744 C 974.311 2.70198 2.18834 0
M  V30 9745 H 973.634 3.51859 1.89829 0
M  V30 9746 H 975.074 3.12897 2.86132 0
M  V30 9747 C 973.533 1.64481 2.9402 0
M  V30 9748 O 974.063 1.0639 3.87355 0
M  V30 9749 N 972.269 1.35749 2.56944 0
M  V30 9750 H 971.816 1.83177 1.81119 0
M  V30 9751 H 971.774 0.652469 3.07555 0
M  V30 9752 N 975.546 -0.211634 1.56173 0
M  V30 9753 C 976.794 -0.932704 1.7929 0
M  V30 9754 C 977.115 -1.84472 0.632076 0
M  V30 9755 O 976.385 -1.92739 -0.350519 0
M  V30 9756 H 974.965 -0.347393 0.661307 0
M  V30 9757 H 977.627 -0.22111 1.93642 0
M  V30 9758 H 976.723 -1.53365 2.71819 0
M  V30 9759 N 977.024 -1.50153 -0.478725 0
M  V30 9760 C 978.254 -1.64266 -1.253 0
M  V30 9761 C 978.662 -0.322256 -1.86435 0
M  V30 9762 O 978.005 0.704925 -1.69636 0
M  V30 9763 C 978.067 -2.67017 -2.40712 0
M  V30 9764 C 977.731 -4.10779 -2.00274 0
M  V30 9765 C 978.728 -4.96889 -1.52963 0
M  V30 9766 C 976.413 -4.5665 -2.09228 0
M  V30 9767 C 978.407 -6.26914 -1.15139 0
M  V30 9768 C 976.094 -5.86683 -1.71015 0
M  V30 9769 C 977.092 -6.71641 -1.24048 0
M  V30 9770 O 976.78 -7.99248 -0.863617 0
M  V30 9771 H 976.512 -0.555382 -0.385392 0
M  V30 9772 H 979.066 -1.97078 -0.578751 0
M  V30 9773 H 977.296 -2.29432 -3.11284 0
M  V30 9774 H 978.985 -2.70428 -3.02694 0
M  V30 9775 H 979.751 -4.62669 -1.45474 0
M  V30 9776 H 975.63 -3.90674 -2.44735 0
M  V30 9777 H 979.174 -6.93179 -0.784089 0
M  V30 9778 H 975.071 -6.20426 -1.78162 0
M  V30 9779 H 975.839 -8.12452 -0.993139 0
M  V30 9780 N 978.502 0.731368 -1.39602 0
M  V30 9781 C 979.435 1.85433 -1.33004 0
M  V30 9782 C 980.413 1.61327 -0.20307 0
M  V30 9783 O 981.597 1.84545 -0.384124 0
M  V30 9784 C 978.724 3.21483 -1.06613 0
M  V30 9785 C 977.77 3.64443 -2.21549 0
M  V30 9786 S 978.603 3.73387 -3.83852 0
M  V30 9787 C 979.759 5.12222 -3.59694 0
M  V30 9788 H 979.992 1.90747 -2.28041 0
M  V30 9789 H 977.525 0.89659 -1.25701 0
M  V30 9790 H 979.483 4.00041 -0.920719 0
M  V30 9791 H 978.144 3.1382 -0.132563 0
M  V30 9792 H 977.337 4.63185 -1.98686 0
M  V30 9793 H 976.939 2.93099 -2.32312 0
M  V30 9794 H 979.231 5.98666 -3.17184 0
M  V30 9795 H 980.174 5.40115 -4.5791 0
M  V30 9796 H 980.582 4.8207 -2.93716 0
M  V30 9797 N 979.98 1.24838 0.961938 0
M  V30 9798 C 980.913 0.989041 2.05653 0
M  V30 9799 C 981.891 -0.079199 1.62407 0
M  V30 9800 O 983.075 0.0589397 1.88408 0
M  V30 9801 C 980.202 0.493661 3.35083 0
M  V30 9802 C 979.248 1.55132 3.97286 0
M  V30 9803 S 980.081 3.13438 4.34185 0
M  V30 9804 C 981.237 2.65617 5.66744 0
M  V30 9805 H 981.47 1.91588 2.27335 0
M  V30 9806 H 979.003 1.08287 1.10061 0
M  V30 9807 H 980.961 0.214482 4.09939 0
M  V30 9808 H 979.622 -0.412559 3.11379 0
M  V30 9809 H 978.815 1.15525 4.90581 0
M  V30 9810 H 978.417 1.78081 3.28882 0
M  V30 9811 H 980.709 2.08788 6.44526 0
M  V30 9812 H 981.652 3.57524 6.11214 0
M  V30 9813 H 982.06 2.05853 5.25628 0
M  V30 9814 N 981.458 -1.16348 1.06306 0
M  V30 9815 C 982.391 -2.19667 0.618197 0
M  V30 9816 C 983.369 -1.58586 -0.359078 0
M  V30 9817 O 984.553 -1.86585 -0.268023 0
M  V30 9818 C 981.68 -3.3857 -0.0937091 0
M  V30 9819 C 980.726 -4.18139 0.840339 0
M  V30 9820 S 981.559 -4.81879 2.33565 0
M  V30 9821 C 982.715 -6.04161 1.63524 0
M  V30 9822 H 982.948 -2.57063 1.49352 0
M  V30 9823 H 980.481 -1.27141 0.876046 0
M  V30 9824 H 982.439 -4.07465 -0.498227 0
M  V30 9825 H 981.1 -2.9954 -0.94523 0
M  V30 9826 H 980.293 -5.03172 0.288781 0
M  V30 9827 H 979.895 -3.54739 1.18474 0
M  V30 9828 H 982.187 -6.70935 0.940904 0
M  V30 9829 H 983.13 -6.63866 2.46347 0
M  V30 9830 H 983.538 -5.53323 1.11778 0
M  V30 9831 N 982.937 -0.845659 -1.3299 0
M  V30 9832 C 984.162 -0.457435 -2.02293 0
M  V30 9833 C 984.587 0.935634 -1.63179 0
M  V30 9834 O 983.945 1.61297 -0.827835 0
M  V30 9835 C 983.993 -0.593665 -3.5568 0
M  V30 9836 O 983.097 0.37729 -4.10671 0
M  V30 9837 H 982.438 -0.185022 -0.637701 0
M  V30 9838 H 984.968 -1.14237 -1.69738 0
M  V30 9839 H 984.978 -0.477834 -4.05192 0
M  V30 9840 H 983.653 -1.60957 -3.83491 0
M  V30 9841 H 982.23 0.218448 -3.7226 0
M  V30 9842 N 984.415 1.45619 -0.602734 0
M  V30 9843 C 985.826 1.85814 -0.181636 0
M  V30 9844 C 986.177 1.5037 1.26029 0
M  V30 9845 O 985.302 0.928068 1.95489 0
M  V30 9846 C 985.897 3.37258 -0.322866 0
M  V30 9847 C 984.456 3.76375 0.043504 0
M  V30 9848 C 983.603 2.69585 -0.649561 0
M  V30 9849 H 986.554 1.36489 -0.809721 0
M  V30 9850 H 986.575 3.77874 0.446279 0
M  V30 9851 H 986.087 3.63024 -1.37241 0
M  V30 9852 H 984.188 3.56226 1.09241 0
M  V30 9853 H 984.301 4.77843 -0.346765 0
M  V30 9854 H 982.665 2.54549 -0.087706 0
M  V30 9855 H 983.448 2.98188 -1.70115 0
M  V30 9856 N 985.893 0.34162 1.53853 0
M  V30 9857 C 987.118 -0.259608 2.05769 0
M  V30 9858 C 987.543 -1.43588 1.21507 0
M  V30 9859 O 986.901 -1.79856 0.228364 0
M  V30 9860 C 986.949 -0.654455 3.54611 0
M  V30 9861 O 986.053 -1.75472 3.73207 0
M  V30 9862 H 985.394 -0.0434621 0.662576 0
M  V30 9863 H 987.924 0.495274 1.98515 0
M  V30 9864 H 987.934 -0.932142 3.97209 0
M  V30 9865 H 986.609 0.205779 4.15391 0
M  V30 9866 H 985.186 -1.47444 3.42512 0
M  V30 9867 N 987.371 -1.57444 0.0701946 0
M  V30 9868 C 988.619 -1.93047 -0.598106 0
M  V30 9869 C 988.94 -0.950841 -1.70247 0
M  V30 9870 O 988.21 0.00127177 -1.959 0
M  V30 9871 H 986.79 -0.712648 -0.223924 0
M  V30 9872 H 989.452 -1.94481 0.127674 0
M  V30 9873 H 988.548 -2.94807 -1.02445 0
M  V30 9874 N 988.849 0.203349 -1.56283 0
M  V30 9875 C 990.097 0.923183 -1.79782 0
M  V30 9876 C 990.418 1.84134 -0.64185 0
M  V30 9877 O 989.688 1.92922 0.340292 0
M  V30 9878 H 988.268 0.343881 -0.66314 0
M  V30 9879 H 990.93 0.210837 -1.93756 0
M  V30 9880 H 990.026 1.51921 -2.72629 0
M  V30 9881 N 990.327 1.50405 0.470755 0
M  V30 9882 C 991.567 1.63049 1.23266 0
M  V30 9883 C 991.931 0.323815 1.8925 0
M  V30 9884 O 993.132 0.325692 2.6682 0
M  V30 9885 C 991.403 2.7783 2.24823 0
M  V30 9886 S 992.962 3.10609 3.09948 0
M  V30 9887 H 989.78 0.574787 0.418499 0
M  V30 9888 H 992.382 1.8819 0.529619 0
M  V30 9889 H 991.086 3.71252 1.74929 0
M  V30 9890 H 990.617 2.54776 2.99755 0
M  V30 9891 H 992.632 2.5446 4.25987 0
M  V30 9892 N 991.805 -0.723954 1.39988 0
M  V30 9893 C 993.03 -1.5182 1.41299 0
M  V30 9894 C 993.455 -1.88096 0.0122636 0
M  V30 9895 O 992.813 -1.52687 -0.977559 0
M  V30 9896 C 992.861 -2.77532 2.30235 0
M  V30 9897 O 991.965 -3.73903 1.73984 0
M  V30 9898 H 991.306 -0.458058 0.480707 0
M  V30 9899 H 993.836 -0.892291 1.84118 0
M  V30 9900 H 993.846 -3.2615 2.45132 0
M  V30 9901 H 992.521 -2.50462 3.32026 0
M  V30 9902 H 991.098 -3.32715 1.68389 0
M  V30 9903 N 993.283 -1.25346 -0.955304 0
M  V30 9904 C 994.694 -1.09173 -1.51453 0
M  V30 9905 C 995.045 0.332755 -1.93358 0
M  V30 9906 O 994.17 1.22264 -1.78551 0
M  V30 9907 C 994.765 -1.97564 -2.75234 0
M  V30 9908 C 993.324 -1.85579 -3.27471 0
M  V30 9909 C 992.471 -1.91755 -2.00313 0
M  V30 9910 H 995.422 -1.38642 -0.772271 0
M  V30 9911 H 995.443 -1.51523 -3.49029 0
M  V30 9912 H 994.955 -3.01233 -2.44704 0
M  V30 9913 H 993.056 -0.847906 -3.62824 0
M  V30 9914 H 993.169 -2.70353 -3.95533 0
M  V30 9915 H 991.533 -1.35633 -2.15582 0
M  V30 9916 H 992.316 -2.97028 -1.72132 0
M  V30 9917 N 994.761 1.15782 -1.06922 0
M  V30 9918 C 996.038 1.8253 -0.703 0
M  V30 9919 C 996.418 1.94733 0.814994 0
M  V30 9920 O 995.766 1.49537 1.72774 0
M  V30 9921 C 995.976 3.19145 -1.41234 0
M  V30 9922 C 997.324 3.94839 -1.56164 0
M  V30 9923 O 998.348 3.28685 -1.37277 0
M  V30 9924 O 997.207 5.13436 -1.87205 0
M  V30 9925 H 994.301 0.788425 -0.24963 0
M  V30 9926 H 996.847 1.22931 -1.16988 0
M  V30 9927 H 995.619 3.05336 -2.44715 0
M  V30 9928 H 995.242 3.86427 -0.935959 0
M  V30 9929 N 996.239 0.8527 1.3254 0
M  V30 9930 C 997.488 0.45136 1.96585 0
M  V30 9931 C 997.801 -0.997773 1.68237 0
M  V30 9932 O 999.007 -1.50445 2.26006 0
M  V30 9933 C 997.463 0.75619 3.51866 0
M  V30 9934 C 997.071 2.22092 3.89075 0
M  V30 9935 C 998.815 0.422478 4.22392 0
M  V30 9936 C 996.722 2.46908 5.37392 0
M  V30 9937 H 995.652 0.165052 0.735713 0
M  V30 9938 H 998.303 1.04321 1.50962 0
M  V30 9939 H 996.685 0.0937988 3.95889 0
M  V30 9940 H 997.859 2.92494 3.56067 0
M  V30 9941 H 996.174 2.51896 3.31568 0
M  V30 9942 H 998.771 0.58533 5.31487 0
M  V30 9943 H 999.114 -0.635737 4.11417 0
M  V30 9944 H 999.647 1.04068 3.83946 0
M  V30 9945 H 996.386 3.51346 5.53386 0
M  V30 9946 H 995.906 1.81082 5.71812 0
M  V30 9947 H 997.585 2.30758 6.0445 0
M  V30 9948 N 997.718 -1.45297 0.610449 0
M  V30 9949 C 998.966 -2.01819 0.106548 0
M  V30 9950 C 999.287 -1.48102 -1.26849 0
M  V30 9951 O 998.557 -0.676411 -1.83852 0
M  V30 9952 H 997.137 -0.746113 0.0363982 0
M  V30 9953 H 999.799 -1.78061 0.792491 0
M  V30 9954 H 998.895 -3.12045 0.0585 0
M  V30 9955 N 999.196 -0.349774 -1.5367 0
M  V30 9956 C 1000.44 0.244343 -2.00617 0
M  V30 9957 C 1000.76 1.50567 -1.23914 0
M  V30 9958 O 1000.03 1.92784 -0.348016 0
M  V30 9959 H 998.615 0.0932792 -0.741153 0
M  V30 9960 H 1001.28 -0.472367 -1.89089 0
M  V30 9961 H 1000.37 0.482433 -3.08349 0
M  V30 9962 N 1000.67 1.57404 -0.0785433 0
M  V30 9963 C 1001.92 1.93361 0.58786 0
M  V30 9964 C 1002.24 0.959856 1.6974 0
M  V30 9965 O 1001.51 0.0091173 1.95898 0
M  V30 9966 H 1000.09 0.713825 0.220141 0
M  V30 9967 H 1002.75 1.94411 -0.137986 0
M  V30 9968 H 1001.85 2.95346 1.00881 0
M  V30 9969 N 1002.15 -0.195058 1.56388 0
M  V30 9970 C 1003.56 -0.75973 1.70543 0
M  V30 9971 C 1003.91 -1.83849 0.685118 0
M  V30 9972 O 1003.04 -2.15819 -0.158457 0
M  V30 9973 C 1003.63 -1.38485 3.09204 0
M  V30 9974 C 1002.19 -1.89661 3.25124 0
M  V30 9975 C 1001.34 -0.766563 2.66494 0
M  V30 9976 H 1004.29 0.0300148 1.58672 0
M  V30 9977 H 1004.31 -2.25424 3.06536 0
M  V30 9978 H 1003.82 -0.599479 3.83442 0
M  V30 9979 H 1001.92 -2.70917 2.55802 0
M  V30 9980 H 1002.04 -2.05837 4.32629 0
M  V30 9981 H 1000.4 -1.18086 2.25672 0
M  V30 9982 H 1001.18 0.00657102 3.43299 0
M  V30 9983 N 1003.63 -1.50653 -0.462772 0
M  V30 9984 C 1004.85 -1.66103 -1.24196 0
M  V30 9985 C 1005.28 -0.347421 -1.84864 0
M  V30 9986 O 1004.64 0.689673 -1.6767 0
M  V30 9987 C 1004.69 -2.76027 -2.32037 0
M  V30 9988 O 1003.79 -2.37859 -3.36893 0
M  V30 9989 H 1003.13 -0.554672 -0.365014 0
M  V30 9990 H 1005.66 -1.97076 -0.549734 0
M  V30 9991 H 1005.67 -2.99354 -2.77221 0
M  V30 9992 H 1004.35 -3.71361 -1.87253 0
M  V30 9993 H 1002.92 -2.2501 -2.97363 0
M  V30 9994 N 1005.11 0.71652 -1.4037 0
M  V30 9995 C 1006.33 1.51069 -1.42102 0
M  V30 9996 C 1006.76 1.88087 -0.0222387 0
M  V30 9997 O 1006.12 1.53204 0.969448 0
M  V30 9998 C 1006.16 2.76307 -2.31704 0
M  V30 9999 O 1005.27 3.72975 -1.75964 0
M  V30 10000 H 1004.61 0.455502 -0.483129 0
M  V30 10001 H 1007.14 0.882514 -1.84588 0
M  V30 10002 H 1007.15 3.24846 -2.46859 0
M  V30 10003 H 1005.82 2.48698 -3.3335 0
M  V30 10004 H 1004.4 3.31818 -1.70151 0
M  V30 10005 N 1006.59 1.25851 0.948643 0
M  V30 10006 C 1007.81 1.13813 1.73382 0
M  V30 10007 C 1008.24 -0.303615 1.85633 0
M  V30 10008 O 1007.59 -1.21997 1.34114 0
M  V30 10009 C 1007.64 1.80388 3.12238 0
M  V30 10010 O 1006.75 1.08759 3.978 0
M  V30 10011 H 1006.09 0.397006 0.532243 0
M  V30 10012 H 1008.62 1.66529 1.18866 0
M  V30 10013 H 1008.63 1.86913 3.62667 0
M  V30 10014 H 1007.3 2.85278 3.02637 0
M  V30 10015 H 1005.88 1.10157 3.56258 0
M  V30 10016 N 1008.06 -1.15214 1.07534 0
M  V30 10017 C 1009.29 -1.90463 0.820883 0
M  V30 10018 C 1009.71 -1.77578 -0.620305 0
M  V30 10019 O 1009.07 -1.10976 -1.43366 0
M  V30 10020 C 1009.12 -3.38746 1.23627 0
M  V30 10021 O 1008.22 -4.1062 0.382715 0
M  V30 10022 H 1007.57 -0.59292 0.298901 0
M  V30 10023 H 1010.1 -1.45893 1.43445 0
M  V30 10024 H 1010.11 -3.89543 1.21327 0
M  V30 10025 H 1008.78 -3.47443 2.28596 0
M  V30 10026 H 1007.36 -3.69947 0.468374 0
M  V30 10027 N 1009.54 -0.859717 -1.32086 0
M  V30 10028 C 1010.77 -0.478865 -2.01796 0
M  V30 10029 C 1011.19 0.918274 -1.64163 0
M  V30 10030 O 1010.55 1.60409 -0.844896 0
M  V30 10031 C 1010.6 -0.631356 -3.5503 0
M  V30 10032 O 1009.7 0.333712 -4.11048 0
M  V30 10033 H 1009.04 -0.191775 -0.635703 0
M  V30 10034 H 1011.57 -1.16031 -1.68517 0
M  V30 10035 H 1011.58 -0.520783 -4.04663 0
M  V30 10036 H 1010.26 -1.65015 -3.81763 0
M  V30 10037 H 1008.84 0.178953 -3.7247 0
M  V30 10038 N 1011.02 1.44971 -0.618145 0
M  V30 10039 C 1012.25 2.07039 -0.122395 0
M  V30 10040 C 1012.67 1.45793 1.18853 0
M  V30 10041 O 1012.03 0.55453 1.72611 0
M  V30 10042 C 1012.08 3.60599 -0.0073864 0
M  V30 10043 O 1011.18 3.99069 1.04007 0
M  V30 10044 H 1010.52 0.6593 -0.0788615 0
M  V30 10045 H 1013.05 1.86055 -0.851147 0
M  V30 10046 H 1013.06 4.07569 0.187417 0
M  V30 10047 H 1011.74 4.04561 -0.964544 0
M  V30 10048 H 1010.31 3.63753 0.820879 0
M  V30 10049 N 1012.5 0.357919 1.53482 0
M  V30 10050 C 1013.72 -0.237769 2.06033 0
M  V30 10051 C 1014.15 -1.42292 1.23023 0
M  V30 10052 O 1013.51 -1.79604 0.247427 0
M  V30 10053 C 1013.55 -0.616806 3.55286 0
M  V30 10054 O 1012.66 -1.71503 3.75047 0
M  V30 10055 H 1012 -0.0364322 0.663 0
M  V30 10056 H 1014.53 0.516301 1.97979 0
M  V30 10057 H 1014.54 -0.88996 3.98175 0
M  V30 10058 H 1013.21 0.249825 4.15149 0
M  V30 10059 H 1011.79 -1.43803 3.44057 0
M  V30 10060 N 1013.98 -1.5736 0.0868897 0
M  V30 10061 C 1014.92 -2.14793 -0.892571 0
M  V30 10062 C 1015.92 -1.08866 -1.29787 0
M  V30 10063 O 1017.12 -1.27223 -1.27335 0
M  V30 10064 H 1013.5 -0.686998 -0.305838 0
M  V30 10065 H 1015.47 -2.95927 -0.383393 0
M  V30 10066 C 1014.22 -2.73646 -2.14507 0
M  V30 10067 H 1013.54 -3.54835 -1.84207 0
M  V30 10068 H 1014.98 -3.17409 -2.81118 0
M  V30 10069 C 1013.44 -1.69138 -2.91366 0
M  V30 10070 O 1013.97 -1.12539 -3.85614 0
M  V30 10071 N 1012.18 -1.3982 -2.54752 0
M  V30 10072 H 1011.72 -1.86035 -1.78182 0
M  V30 10073 H 1011.68 -0.701316 -3.06478 0
M  V30 10074 N 1015.45 0.186762 -1.56489 0
M  V30 10075 C 1016.42 1.21511 -1.94339 0
M  V30 10076 C 1017.42 1.38001 -0.82537 0
M  V30 10077 O 1018.61 1.3567 -1.09266 0
M  V30 10078 C 1015.74 2.583 -2.22472 0
M  V30 10079 H 1016.93 0.891371 -2.86347 0
M  V30 10080 H 1014.49 0.428612 -1.50308 0
M  V30 10081 H 1015.22 2.95715 -1.33129 0
M  V30 10082 H 1015.01 2.47701 -3.03951 0
M  V30 10083 H 1016.5 3.32441 -2.5273 0
M  V30 10084 N 1016.93 1.50896 0.454776 0
M  V30 10085 C 1018.18 1.6294 1.20741 0
M  V30 10086 C 1018.51 0.336339 1.91265 0
M  V30 10087 O 1017.79 -0.663153 1.82846 0
M  V30 10088 C 1018.07 2.82092 2.23822 0
M  V30 10089 C 1017.92 4.21326 1.57495 0
M  V30 10090 C 1019.24 2.96777 3.24979 0
M  V30 10091 H 1016.36 0.59302 0.437603 0
M  V30 10092 H 1019 1.83331 0.498959 0
M  V30 10093 H 1017.15 2.64837 2.84243 0
M  V30 10094 H 1018.82 4.50209 1.00546 0
M  V30 10095 H 1017.07 4.24829 0.877664 0
M  V30 10096 H 1017.74 5.00656 2.32482 0
M  V30 10097 H 1020.21 3.12627 2.74597 0
M  V30 10098 H 1019.09 3.81742 3.94416 0
M  V30 10099 H 1019.35 2.08091 3.90065 0
M  V30 10100 N 1018.41 -0.709066 1.40748 0
M  V30 10101 C 1019.82 -1.28847 1.35112 0
M  V30 10102 C 1020.17 -1.9618 0.0277149 0
M  V30 10103 O 1019.3 -1.97955 -0.874233 0
M  V30 10104 C 1019.89 -2.34306 2.44716 0
M  V30 10105 C 1018.45 -2.87856 2.4252 0
M  V30 10106 C 1017.6 -1.61723 2.25257 0
M  V30 10107 H 1020.55 -0.504742 1.50459 0
M  V30 10108 H 1020.57 -3.15297 2.12998 0
M  V30 10109 H 1020.08 -1.85271 3.41022 0
M  V30 10110 H 1018.18 -3.41103 1.49931 0
M  V30 10111 H 1018.3 -3.39205 3.38344 0
M  V30 10112 H 1016.66 -1.87032 1.7289 0
M  V30 10113 H 1017.44 -1.14703 3.23571 0
M  V30 10114 N 1019.89 -1.26353 -0.941956 0
M  V30 10115 C 1021.11 -1.14731 -1.72776 0
M  V30 10116 C 1021.54 0.293766 -1.85792 0
M  V30 10117 O 1020.9 1.21284 -1.34759 0
M  V30 10118 C 1020.95 -1.82041 -3.11277 0
M  V30 10119 O 1020.05 -1.10867 -3.97218 0
M  V30 10120 H 1019.39 -0.399823 -0.53013 0
M  V30 10121 H 1021.92 -1.67157 -1.17981 0
M  V30 10122 H 1021.93 -1.88834 -3.61671 0
M  V30 10123 H 1020.61 -2.86879 -3.0112 0
M  V30 10124 H 1019.18 -1.12044 -3.55669 0
M  V30 10125 N 1021.37 1.14642 -1.08144 0
M  V30 10126 C 1022.62 1.8525 -0.807885 0
M  V30 10127 C 1022.94 1.83194 0.668213 0
M  V30 10128 O 1022.21 1.27848 1.48431 0
M  V30 10129 H 1020.79 0.685909 -0.295868 0
M  V30 10130 H 1023.45 1.38935 -1.36686 0
M  V30 10131 H 1022.54 2.90155 -1.14964 0
M  V30 10132 N 1022.85 0.866709 1.31628 0
M  V30 10133 C 1024.07 0.49039 2.01004 0
M  V30 10134 C 1024.49 -0.916244 1.65077 0
M  V30 10135 O 1023.85 -1.59975 0.8783 0
M  V30 10136 C 1023.9 0.634011 3.55897 0
M  V30 10137 O 1023.62 1.98525 3.90537 0
M  V30 10138 C 1025.12 0.258277 4.42547 0
M  V30 10139 H 1022.34 0.191421 0.643117 0
M  V30 10140 H 1024.88 1.16698 1.67934 0
M  V30 10141 H 1023.04 0.00501801 3.874 0
M  V30 10142 H 1023.45 1.99067 4.85255 0
M  V30 10143 H 1024.93 0.409733 5.50477 0
M  V30 10144 H 1025.4 -0.802301 4.3181 0
M  V30 10145 H 1026.01 0.862837 4.16456 0
M  V30 10146 N 1024.32 -1.44642 0.625825 0
M  V30 10147 C 1025.55 -2.06971 0.133373 0
M  V30 10148 C 1025.97 -1.46421 -1.18078 0
M  V30 10149 O 1025.33 -0.563676 -1.72315 0
M  V30 10150 C 1025.38 -3.6059 0.0265097 0
M  V30 10151 O 1024.48 -3.99615 -1.01889 0
M  V30 10152 H 1023.82 -0.658873 0.0823568 0
M  V30 10153 H 1026.35 -1.85601 0.861002 0
M  V30 10154 H 1026.36 -4.07663 -0.1658 0
M  V30 10155 H 1025.04 -4.04043 0.985986 0
M  V30 10156 H 1023.62 -3.64183 -0.801577 0
M  V30 10157 N 1025.8 -0.366053 -1.5329 0
M  V30 10158 C 1027.03 0.22391 -2.05383 0
M  V30 10159 C 1027.44 1.42962 -1.23929 0
M  V30 10160 O 1026.78 1.81659 -0.273072 0
M  V30 10161 C 1026.84 0.681038 -3.5299 0
M  V30 10162 C 1026.51 -0.40805 -4.55175 0
M  V30 10163 C 1027.51 -1.25806 -5.04449 0
M  V30 10164 C 1025.19 -0.568428 -4.99073 0
M  V30 10165 C 1027.18 -2.25379 -5.96224 0
M  V30 10166 C 1024.87 -1.56752 -5.90654 0
M  V30 10167 C 1025.87 -2.40864 -6.39119 0
M  V30 10168 O 1025.56 -3.39069 -7.28895 0
M  V30 10169 H 1025.29 0.0429593 -0.674634 0
M  V30 10170 H 1027.84 -0.522897 -1.98633 0
M  V30 10171 H 1026.07 1.47945 -3.5728 0
M  V30 10172 H 1027.76 1.19406 -3.8794 0
M  V30 10173 H 1028.53 -1.14536 -4.71282 0
M  V30 10174 H 1024.41 0.0764858 -4.60937 0
M  V30 10175 H 1027.95 -2.91068 -6.33976 0
M  V30 10176 H 1023.85 -1.6807 -6.23236 0
M  V30 10177 H 1024.62 -3.34804 -7.46893 0
M  V30 10178 N 1027.28 1.57312 -0.0952337 0
M  V30 10179 C 1028.53 1.93974 0.567319 0
M  V30 10180 C 1028.85 0.977805 1.68713 0
M  V30 10181 O 1028.12 0.0298944 1.95877 0
M  V30 10182 H 1026.7 0.71612 0.212558 0
M  V30 10183 H 1029.36 1.94254 -0.158598 0
M  V30 10184 H 1028.46 2.964 0.977423 0
M  V30 10185 N 1028.76 -0.17846 1.56586 0
M  V30 10186 C 1029.7 -1.22104 1.95855 0
M  V30 10187 C 1030.67 -1.44366 0.821447 0
M  V30 10188 O 1031.86 -1.57224 1.08098 0
M  V30 10189 C 1029 -2.55701 2.31757 0
M  V30 10190 C 1028.11 -2.40879 3.5861 0
M  V30 10191 C 1027.25 -3.67293 3.83757 0
M  V30 10192 C 1026.29 -3.47373 5.03982 0
M  V30 10193 N 1025.42 -4.65839 5.25298 0
M  V30 10194 H 1030.26 -0.879168 2.84736 0
M  V30 10195 H 1027.8 -0.422721 1.40895 0
M  V30 10196 H 1029.76 -3.33556 2.50592 0
M  V30 10197 H 1028.39 -2.87898 1.45995 0
M  V30 10198 H 1027.44 -1.54236 3.47729 0
M  V30 10199 H 1028.75 -2.22102 4.46623 0
M  V30 10200 H 1027.91 -4.53584 4.02922 0
M  V30 10201 H 1026.65 -3.89041 2.94107 0
M  V30 10202 H 1025.65 -2.59467 4.84723 0
M  V30 10203 H 1026.88 -3.27055 5.95157 0
M  V30 10204 H 1024.82 -4.8782 4.38598 0
M  V30 10205 H 1024.74 -4.4995 6.0752 0
M  V30 10206 H 1026.01 -5.53435 5.48936 0
M  V30 10207 N 1030.24 -1.51135 -0.446768 0
M  V30 10208 C 1031.17 -1.74709 -1.54916 0
M  V30 10209 C 1032.15 -0.596628 -1.59293 0
M  V30 10210 O 1033.33 -0.838356 -1.75172 0
M  V30 10211 C 1030.46 -1.86353 -2.9307 0
M  V30 10212 C 1029.42 -3.01725 -3.03556 0
M  V30 10213 C 1028.74 -2.9854 -4.43597 0
M  V30 10214 C 1030.04 -4.41848 -2.7851 0
M  V30 10215 H 1031.74 -2.67014 -1.3544 0
M  V30 10216 H 1029.28 -1.28489 -0.650131 0
M  V30 10217 H 1031.23 -2.01428 -3.70141 0
M  V30 10218 H 1029.96 -0.906887 -3.13756 0
M  V30 10219 H 1028.62 -2.86339 -2.28922 0
M  V30 10220 H 1028.27 -2.00673 -4.61237 0
M  V30 10221 H 1027.97 -3.76008 -4.51544 0
M  V30 10222 H 1029.49 -3.15696 -5.22655 0
M  V30 10223 H 1030.9 -4.57633 -3.45319 0
M  V30 10224 H 1029.3 -5.2095 -2.97877 0
M  V30 10225 H 1030.37 -4.52536 -1.74182 0
M  V30 10226 N 1031.71 0.701592 -1.41122 0
M  V30 10227 C 1032.96 1.46245 -1.41364 0
M  V30 10228 C 1033.31 1.9239 -0.0200662 0
M  V30 10229 O 1032.61 1.6622 0.952971 0
M  V30 10230 C 1032.8 2.693 -2.34973 0
M  V30 10231 C 1032.63 2.35193 -3.83294 0
M  V30 10232 C 1031.4 2.2585 -4.52018 0
M  V30 10233 C 1033.6 1.98555 -4.74426 0
M  V30 10234 N 1031.58 1.84565 -5.85499 0
M  V30 10235 C 1032.95 1.67981 -5.9681 0
M  V30 10236 C 1035.01 1.85313 -4.62129 0
M  V30 10237 C 1033.71 1.25496 -7.08268 0
M  V30 10238 C 1035.74 1.44232 -5.73543 0
M  V30 10239 C 1035.1 1.14564 -6.95021 0
M  V30 10240 H 1031.2 0.532679 -0.572518 0
M  V30 10241 H 1033.78 0.812296 -1.76946 0
M  V30 10242 H 1031.95 3.32045 -2.01496 0
M  V30 10243 H 1033.68 3.35734 -2.25976 0
M  V30 10244 H 1030.44 2.4405 -4.05878 0
M  V30 10245 H 1030.86 1.66421 -6.56226 0
M  V30 10246 H 1035.5 2.06905 -3.68714 0
M  V30 10247 H 1033.22 1.02647 -8.01554 0
M  V30 10248 H 1036.81 1.34544 -5.66029 0
M  V30 10249 H 1035.69 0.832556 -7.79768 0
M  V30 10250 N 1033.19 1.2685 0.935242 0
M  V30 10251 C 1034.42 1.15538 1.71635 0
M  V30 10252 C 1034.83 -0.288698 1.8658 0
M  V30 10253 O 1034.19 -1.19721 1.37743 0
M  V30 10254 C 1034.24 1.8259 3.11999 0
M  V30 10255 O 1033.96 3.21355 2.97763 0
M  V30 10256 C 1035.46 1.77307 4.06297 0
M  V30 10257 H 1032.68 0.402055 0.537208 0
M  V30 10258 H 1035.23 1.67582 1.17203 0
M  V30 10259 H 1033.38 1.3447 3.63313 0
M  V30 10260 H 1033.8 3.54626 3.86446 0
M  V30 10261 H 1035.27 2.28851 5.02326 0
M  V30 10262 H 1035.75 0.740823 4.32907 0
M  V30 10263 H 1036.35 2.25007 3.60904 0
M  V30 10264 N 1034.67 -1.14067 1.0875 0
M  V30 10265 C 1035.62 -2.21332 0.715195 0
M  V30 10266 C 1036.61 -1.67059 -0.280679 0
M  V30 10267 O 1037.82 -1.79432 -0.142874 0
M  V30 10268 H 1034.19 -0.721126 0.213264 0
M  V30 10269 H 1036.16 -2.50002 1.62916 0
M  V30 10270 C 1034.91 -3.474 0.144401 0
M  V30 10271 H 1034.24 -3.89495 0.901884 0
M  V30 10272 H 1035.68 -4.23928 -0.0782564 0
M  V30 10273 C 1034.14 -3.17787 -1.11862 0
M  V30 10274 O 1034.67 -3.35906 -2.20295 0
M  V30 10275 N 1032.87 -2.71719 -1.03039 0
M  V30 10276 H 1032.42 -2.57175 -0.14793 0
M  V30 10277 H 1032.38 -2.52281 -1.87621 0
M  V30 10278 N 1036.15 -0.873678 -1.31166 0
M  V30 10279 C 1037.4 -0.485497 -1.96182 0
M  V30 10280 C 1037.72 0.96621 -1.69379 0
M  V30 10281 O 1036.99 1.67783 -1.01121 0
M  V30 10282 H 1035.57 -0.176547 -0.725838 0
M  V30 10283 H 1038.23 -1.11428 -1.59906 0
M  V30 10284 H 1037.33 -0.646325 -3.05334 0
M  V30 10285 N 1037.63 1.44308 -0.633487 0
M  V30 10286 C 1038.87 2.02322 -0.139123 0
M  V30 10287 C 1039.21 1.49733 1.23667 0
M  V30 10288 O 1038.48 0.682353 1.82138 0
M  V30 10289 C 1038.76 3.59871 -0.128366 0
M  V30 10290 C 1038.62 4.22737 -1.53667 0
M  V30 10291 C 1039.94 4.36702 0.545834 0
M  V30 10292 H 1037.05 0.735161 -0.0520293 0
M  V30 10293 H 1039.7 1.7185 -0.810411 0
M  V30 10294 H 1037.85 3.85963 0.443263 0
M  V30 10295 H 1039.52 4.07744 -2.15737 0
M  V30 10296 H 1037.76 3.80142 -2.08985 0
M  V30 10297 H 1038.43 5.31757 -1.48116 0
M  V30 10298 H 1040.91 4.16057 0.0596879 0
M  V30 10299 H 1039.78 5.46407 0.522557 0
M  V30 10300 H 1040.05 4.11483 1.6166 0
M  V30 10301 N 1039.1 0.374177 1.53094 0
M  V30 10302 C 1040.35 -0.212396 2.00981 0
M  V30 10303 C 1040.67 -1.48576 1.26293 0
M  V30 10304 O 1039.94 -1.92206 0.378642 0
M  V30 10305 H 1038.52 -0.0814763 0.742543 0
M  V30 10306 H 1041.19 0.502389 1.88314 0
M  V30 10307 H 1040.28 -0.433316 3.09077 0
M  V30 10308 N 1040.58 -1.57259 0.103575 0
M  V30 10309 C 1041.83 -1.94272 -0.557024 0
M  V30 10310 C 1042.15 -0.986739 -1.68192 0
M  V30 10311 O 1041.42 -0.0402818 -1.95859 0
M  V30 10312 H 1040 -0.717237 -0.208757 0
M  V30 10313 H 1042.66 -1.94167 0.168898 0
M  V30 10314 H 1041.76 -2.96914 -0.961691 0
M  V30 10315 N 1042.06 0.170153 -1.56679 0
M  V30 10316 C 1043.01 1.21531 -1.9291 0
M  V30 10317 C 1043.99 1.39742 -0.797553 0
M  V30 10318 O 1045.19 1.41693 -1.06075 0
M  V30 10319 C 1042.32 2.55447 -2.29351 0
M  V30 10320 C 1041.4 2.40925 -3.49022 0
M  V30 10321 N 1041.79 1.96118 -4.66231 0
M  V30 10322 C 1040.09 2.71747 -3.53652 0
M  V30 10323 C 1040.79 1.94086 -5.48366 0
M  V30 10324 N 1039.77 2.36533 -4.89441 0
M  V30 10325 H 1043.57 0.860602 -2.81018 0
M  V30 10326 H 1041.08 0.378415 -1.5793 0
M  V30 10327 H 1043.08 3.30972 -2.53502 0
M  V30 10328 H 1041.74 2.9172 -1.42583 0
M  V30 10329 H 1042.75 1.66438 -4.90427 0
M  V30 10330 H 1039.43 3.1205 -2.77365 0
M  V30 10331 H 1040.82 1.61132 -6.52293 0
M  V30 10332 N 1043.54 1.5137 0.438746 0
M  V30 10333 C 1044.49 1.68966 1.53083 0
M  V30 10334 C 1045.47 0.543669 1.51437 0
M  V30 10335 O 1046.66 0.799519 1.57914 0
M  V30 10336 C 1043.79 1.8168 2.91286 0
M  V30 10337 C 1042.88 3.02059 2.97693 0
M  V30 10338 N 1043.27 4.25254 2.73848 0
M  V30 10339 C 1041.57 3.01284 3.28852 0
M  V30 10340 C 1042.27 5.06501 2.86062 0
M  V30 10341 N 1041.25 4.41119 3.17671 0
M  V30 10342 H 1045.05 2.61883 1.33397 0
M  V30 10343 H 1042.56 1.48997 0.64603 0
M  V30 10344 H 1044.56 1.92396 3.6985 0
M  V30 10345 H 1043.22 0.899438 3.11994 0
M  V30 10346 H 1044.23 4.54222 2.48803 0
M  V30 10347 H 1040.91 2.19174 3.55344 0
M  V30 10348 H 1042.3 6.14563 2.71592 0
M  V30 10349 N 1045.02 -0.694098 1.41492 0
M  V30 10350 C 1046.24 -1.48789 1.44488 0
M  V30 10351 C 1046.67 -1.88028 0.0521588 0
M  V30 10352 O 1046.02 -1.54727 -0.944952 0
M  V30 10353 C 1046.07 -2.72586 2.3607 0
M  V30 10354 O 1045.18 -3.70128 1.81876 0
M  V30 10355 H 1044.52 -0.447758 0.490315 0
M  V30 10356 H 1047.05 -0.853036 1.85969 0
M  V30 10357 H 1047.06 -3.20877 2.51995 0
M  V30 10358 H 1045.73 -2.43363 3.37264 0
M  V30 10359 H 1044.31 -3.29069 1.75408 0
M  V30 10360 N 1046.49 -1.27344 -0.928501 0
M  V30 10361 C 1047.44 -1.06656 -2.01515 0
M  V30 10362 C 1048.43 0.00516619 -1.60899 0
M  V30 10363 O 1049.62 -0.213277 -1.7571 0
M  V30 10364 C 1046.75 -0.714935 -3.35773 0
M  V30 10365 C 1045.84 -1.82476 -3.82836 0
M  V30 10366 N 1046.23 -3.06421 -4.02417 0
M  V30 10367 C 1044.52 -1.71126 -4.11864 0
M  V30 10368 C 1045.23 -3.78637 -4.41598 0
M  V30 10369 N 1044.2 -3.06396 -4.49024 0
M  V30 10370 H 1048 -2.00718 -2.14685 0
M  V30 10371 H 1045.52 -1.18048 -1.11528 0
M  V30 10372 H 1047.51 -0.54784 -4.13285 0
M  V30 10373 H 1046.17 0.218069 -3.23967 0
M  V30 10374 H 1047.19 -3.42191 -3.88749 0
M  V30 10375 H 1043.86 -0.849031 -4.08776 0
M  V30 10376 H 1045.25 -4.85159 -4.64834 0
M  V30 10377 N 1047.97 1.13488 -1.09353 0
M  V30 10378 C 1049.22 1.85022 -0.830354 0
M  V30 10379 C 1049.55 1.83266 0.64242 0
M  V30 10380 O 1048.83 1.27024 1.47293 0
M  V30 10381 C 1049.11 3.33218 -1.36521 0
M  V30 10382 C 1048.96 3.43491 -2.90404 0
M  V30 10383 C 1050.28 4.28626 -0.998381 0
M  V30 10384 H 1047.4 0.671786 -0.303105 0
M  V30 10385 H 1050.04 1.33211 -1.3548 0
M  V30 10386 H 1048.19 3.77471 -0.919117 0
M  V30 10387 H 1049.86 3.07954 -3.43456 0
M  V30 10388 H 1048.11 2.84391 -3.27573 0
M  V30 10389 H 1048.78 4.47702 -3.22905 0
M  V30 10390 H 1051.25 3.9244 -1.38311 0
M  V30 10391 H 1050.13 5.30754 -1.39968 0
M  V30 10392 H 1050.39 4.42001 0.093517 0
M  V30 10393 N 1049.45 0.880621 1.30701 0
M  V30 10394 C 1050.38 0.360251 2.30704 0
M  V30 10395 C 1051.36 -0.554572 1.60806 0
M  V30 10396 O 1052.55 -0.469345 1.88443 0
M  V30 10397 C 1049.68 -0.429888 3.44629 0
M  V30 10398 C 1048.63 0.392786 4.26194 0
M  V30 10399 C 1047.96 -0.52369 5.32129 0
M  V30 10400 C 1049.26 1.63258 4.96129 0
M  V30 10401 H 1050.95 1.19591 2.74478 0
M  V30 10402 H 1048.5 0.576508 1.31956 0
M  V30 10403 H 1050.45 -0.804532 4.13649 0
M  V30 10404 H 1049.17 -1.29916 2.99649 0
M  V30 10405 H 1047.83 0.749514 3.58856 0
M  V30 10406 H 1047.48 -1.39054 4.83397 0
M  V30 10407 H 1047.18 0.0229272 5.87596 0
M  V30 10408 H 1048.71 -0.894946 6.04006 0
M  V30 10409 H 1050.12 1.32877 5.57689 0
M  V30 10410 H 1048.52 2.11906 5.61441 0
M  V30 10411 H 1049.59 2.37944 4.22505 0
M  V30 10412 N 1050.93 -1.4397 0.641131 0
M  V30 10413 C 1052.34 -1.85267 0.230838 0
M  V30 10414 C 1052.69 -1.53659 -1.21998 0
M  V30 10415 O 1051.82 -0.979572 -1.92959 0
M  V30 10416 C 1052.41 -3.36284 0.412171 0
M  V30 10417 C 1050.97 -3.76358 0.0563004 0
M  V30 10418 C 1050.12 -2.67768 0.720809 0
M  V30 10419 H 1053.07 -1.34294 0.845624 0
M  V30 10420 H 1053.09 -3.78924 -0.345936 0
M  V30 10421 H 1052.6 -3.59258 1.46818 0
M  V30 10422 H 1050.7 -3.58997 -0.997582 0
M  V30 10423 H 1050.82 -4.76756 0.473335 0
M  V30 10424 H 1049.18 -2.54227 0.155164 0
M  V30 10425 H 1049.96 -2.93573 1.77961 0
M  V30 10426 N 1052.41 -0.382291 -1.52893 0
M  V30 10427 C 1053.36 0.473026 -2.23039 0
M  V30 10428 C 1054.34 1.0353 -1.23168 0
M  V30 10429 O 1055.53 0.962566 -1.48538 0
M  V30 10430 C 1052.66 1.60349 -3.03551 0
M  V30 10431 C 1051.75 1.05329 -4.10812 0
M  V30 10432 N 1052.14 0.22746 -5.05288 0
M  V30 10433 C 1050.44 1.32648 -4.25818 0
M  V30 10434 C 1051.14 -0.0757032 -5.81651 0
M  V30 10435 N 1050.11 0.526387 -5.41045 0
M  V30 10436 H 1053.92 -0.164541 -2.93439 0
M  V30 10437 H 1051.43 -0.191211 -1.6127 0
M  V30 10438 H 1053.43 2.22858 -3.52335 0
M  V30 10439 H 1052.09 2.24394 -2.34685 0
M  V30 10440 H 1053.1 -0.134714 -5.17725 0
M  V30 10441 H 1049.78 1.96849 -3.6818 0
M  V30 10442 H 1051.17 -0.744375 -6.67764 0
M  V30 10443 N 1053.89 1.57202 -0.111913 0
M  V30 10444 C 1055.3 1.82039 0.414591 0
M  V30 10445 C 1055.65 1.02863 1.67074 0
M  V30 10446 O 1054.77 0.263068 2.14795 0
M  V30 10447 C 1055.37 3.3019 0.758953 0
M  V30 10448 C 1053.93 3.55732 1.23012 0
M  V30 10449 C 1053.07 2.76301 0.235226 0
M  V30 10450 H 1056.02 1.55078 -0.337142 0
M  V30 10451 H 1056.05 3.44431 1.61701 0
M  V30 10452 H 1055.56 3.87788 -0.155473 0
M  V30 10453 H 1053.66 3.03483 2.16169 0
M  V30 10454 H 1053.77 4.64333 1.18034 0
M  V30 10455 H 1052.14 2.44287 0.720822 0
M  V30 10456 H 1052.92 3.36655 -0.672173 0
M  V30 10457 N 1055.36 -0.161842 1.56767 0
M  V30 10458 C 1056.31 -1.2002 1.97139 0
M  V30 10459 C 1057.28 -1.43486 0.836713 0
M  V30 10460 O 1058.47 -1.56069 1.0976 0
M  V30 10461 C 1055.61 -2.53228 2.34456 0
M  V30 10462 C 1054.72 -2.37062 3.61145 0
M  V30 10463 C 1053.85 -3.63202 3.87631 0
M  V30 10464 C 1052.89 -3.42008 5.07638 0
M  V30 10465 N 1052.03 -4.60242 5.30209 0
M  V30 10466 H 1056.87 -0.848918 2.85653 0
M  V30 10467 H 1054.41 -0.407753 1.41336 0
M  V30 10468 H 1056.36 -3.30879 2.54116 0
M  V30 10469 H 1054.99 -2.86333 1.4904 0
M  V30 10470 H 1054.05 -1.50539 3.49345 0
M  V30 10471 H 1055.36 -2.17353 4.48953 0
M  V30 10472 H 1054.51 -4.49285 4.0771 0
M  V30 10473 H 1053.25 -3.85899 2.98216 0
M  V30 10474 H 1052.26 -2.54312 4.87448 0
M  V30 10475 H 1053.48 -3.20724 5.98593 0
M  V30 10476 H 1051.43 -4.8314 4.43747 0
M  V30 10477 H 1051.34 -4.43481 6.12259 0
M  V30 10478 H 1052.61 -5.47581 5.54775 0
M  V30 10479 N 1056.84 -1.516 -0.430713 0
M  V30 10480 C 1058.25 -1.57 -1.01035 0
M  V30 10481 C 1058.6 -0.397439 -1.92132 0
M  V30 10482 O 1057.73 0.484954 -2.10896 0
M  V30 10483 C 1058.32 -2.84536 -1.83915 0
M  V30 10484 C 1056.88 -2.92485 -2.36917 0
M  V30 10485 C 1056.03 -2.5173 -1.16308 0
M  V30 10486 H 1058.98 -1.57281 -0.211734 0
M  V30 10487 H 1059 -2.68672 -2.69435 0
M  V30 10488 H 1058.51 -3.69858 -1.17586 0
M  V30 10489 H 1056.61 -2.11608 -3.0668 0
M  V30 10490 H 1056.73 -3.96277 -2.6926 0
M  V30 10491 H 1055.09 -2.05079 -1.51045 0
M  V30 10492 H 1055.87 -3.39403 -0.515793 0
M  V30 10493 N 1058.32 0.686584 -1.41858 0
M  V30 10494 C 1059.73 1.26682 -1.37145 0
M  V30 10495 C 1060.08 1.96112 -0.058922 0
M  V30 10496 O 1059.21 1.99321 0.842629 0
M  V30 10497 C 1059.8 2.30383 -2.48413 0
M  V30 10498 C 1058.36 2.83961 -2.47069 0
M  V30 10499 C 1057.51 1.58119 -2.27802 0
M  V30 10500 H 1060.46 0.480742 -1.51243 0
M  V30 10501 H 1060.48 3.11868 -2.17987 0
M  V30 10502 H 1059.99 1.79822 -3.43927 0
M  V30 10503 H 1058.09 3.38675 -1.55338 0
M  V30 10504 H 1058.21 3.3378 -3.43697 0
M  V30 10505 H 1056.57 1.84258 -1.75844 0
M  V30 10506 H 1057.35 1.09541 -3.25355 0
M  V30 10507 N 1059.8 1.27835 0.921735 0
M  V30 10508 C 1061.04 1.14692 1.67253 0
M  V30 10509 C 1061.38 -0.305384 1.91784 0
M  V30 10510 O 1060.65 -1.22286 1.51249 0
M  V30 10511 C 1060.93 1.93743 3.03539 0
M  V30 10512 C 1060.79 3.46991 2.86212 0
M  V30 10513 C 1062.11 1.74658 4.03959 0
M  V30 10514 H 1059.23 0.418021 0.606983 0
M  V30 10515 H 1061.87 1.5706 1.06922 0
M  V30 10516 H 1060.02 1.57738 3.55037 0
M  V30 10517 H 1061.69 3.92858 2.41785 0
M  V30 10518 H 1059.93 3.73029 2.21432 0
M  V30 10519 H 1060.6 3.97551 3.82958 0
M  V30 10520 H 1063.08 2.06063 3.61493 0
M  V30 10521 H 1061.96 2.32353 4.97296 0
M  V30 10522 H 1062.22 0.696019 4.36587 0
M  V30 10523 N 1061.28 -1.12907 1.09954 0
M  V30 10524 C 1062.19 -2.22082 0.756095 0
M  V30 10525 C 1063.2 -1.72277 -0.244272 0
M  V30 10526 O 1064.38 -2.01224 -0.0842637 0
M  V30 10527 C 1061.44 -3.46192 0.187642 0
M  V30 10528 C 1060.5 -4.10861 1.24465 0
M  V30 10529 C 1059.74 -5.29047 0.703227 0
M  V30 10530 O 1059.96 -5.68443 -0.472043 0
M  V30 10531 O 1058.89 -5.83904 1.46082 0
M  V30 10532 H 1062.72 -2.53842 1.66727 0
M  V30 10533 H 1060.3 -1.21145 0.874316 0
M  V30 10534 H 1062.19 -4.21212 -0.125774 0
M  V30 10535 H 1060.86 -3.16119 -0.696459 0
M  V30 10536 H 1059.77 -3.37643 1.61085 0
M  V30 10537 H 1061.1 -4.45078 2.10159 0
M  V30 10538 N 1062.75 -0.88754 -1.30232 0
M  V30 10539 C 1063.98 -0.521562 -2.00735 0
M  V30 10540 C 1064.4 0.883247 -1.66073 0
M  V30 10541 O 1063.76 1.58581 -0.878731 0
M  V30 10542 C 1063.81 -0.706521 -3.53611 0
M  V30 10543 O 1062.91 0.246447 -4.11663 0
M  V30 10544 H 1062.25 -0.205216 -0.631492 0
M  V30 10545 H 1064.78 -1.19579 -1.66018 0
M  V30 10546 H 1064.79 -0.606501 -4.03467 0
M  V30 10547 H 1063.47 -1.73076 -3.78177 0
M  V30 10548 H 1062.05 0.0999062 -3.72766 0
M  V30 10549 N 1064.23 1.43628 -0.648757 0
M  V30 10550 C 1065.46 2.06732 -0.166284 0
M  V30 10551 C 1065.88 1.48281 1.15734 0
M  V30 10552 O 1065.24 0.591018 1.71396 0
M  V30 10553 C 1065.29 3.60502 -0.0838732 0
M  V30 10554 O 1064.39 4.01186 0.955185 0
M  V30 10555 H 1063.73 0.657479 -0.0928285 0
M  V30 10556 H 1066.26 1.84208 -0.890421 0
M  V30 10557 H 1066.27 4.07875 0.100923 0
M  V30 10558 H 1064.95 4.02424 -1.05014 0
M  V30 10559 H 1063.53 3.65412 0.743537 0
M  V30 10560 N 1065.71 0.390394 1.52688 0
M  V30 10561 C 1066.96 -0.191067 2.01195 0
M  V30 10562 C 1067.28 -1.47229 1.27862 0
M  V30 10563 O 1066.55 -1.91793 0.399007 0
M  V30 10564 H 1065.13 -0.073596 0.743366 0
M  V30 10565 H 1067.79 0.522334 1.8777 0
M  V30 10566 H 1066.89 -0.40051 3.0952 0
M  V30 10567 N 1067.19 -1.57141 0.120249 0
M  V30 10568 C 1068.44 -1.94852 -0.536387 0
M  V30 10569 C 1068.76 -1.00452 -1.67136 0
M  V30 10570 O 1068.03 -0.061053 -1.95805 0
M  V30 10571 H 1066.61 -0.719411 -0.201138 0
M  V30 10572 H 1069.27 -1.93977 0.189482 0
M  V30 10573 H 1068.37 -2.97917 -0.930145 0
M  V30 10574 N 1068.67 0.153526 -1.5685 0
M  V30 10575 C 1069.61 1.18973 -1.97773 0
M  V30 10576 C 1070.58 1.43041 -0.844311 0
M  V30 10577 O 1071.77 1.55484 -1.10586 0
M  V30 10578 C 1068.91 2.51981 -2.35795 0
M  V30 10579 C 1068.02 2.35143 -3.62397 0
M  V30 10580 C 1067.16 3.61141 -3.89552 0
M  V30 10581 C 1066.2 3.39311 -5.09445 0
M  V30 10582 N 1065.33 4.57423 -5.32643 0
M  V30 10583 H 1070.17 0.833758 -2.86099 0
M  V30 10584 H 1067.71 0.400252 -1.4155 0
M  V30 10585 H 1069.67 3.29527 -2.55867 0
M  V30 10586 H 1068.3 2.85539 -1.50557 0
M  V30 10587 H 1067.35 1.48684 -3.50139 0
M  V30 10588 H 1068.66 2.14969 -4.501 0
M  V30 10589 H 1067.82 4.47117 -4.10087 0
M  V30 10590 H 1066.55 3.84312 -3.00259 0
M  V30 10591 H 1065.56 2.51723 -4.8879 0
M  V30 10592 H 1066.78 3.17545 -6.00285 0
M  V30 10593 H 1064.73 4.8078 -4.46303 0
M  V30 10594 H 1064.65 4.40228 -6.14602 0
M  V30 10595 H 1065.92 5.44632 -5.57671 0
M  V30 10596 N 1070.14 1.51827 0.422667 0
M  V30 10597 C 1071.07 1.77152 1.52117 0
M  V30 10598 C 1072.06 0.621895 1.58324 0
M  V30 10599 O 1073.24 0.866118 1.73816 0
M  V30 10600 C 1070.37 1.90991 2.90068 0
M  V30 10601 C 1069.32 3.06516 2.98717 0
M  V30 10602 C 1068.65 3.05559 4.38791 0
M  V30 10603 C 1069.95 4.46223 2.71445 0
M  V30 10604 H 1071.64 2.69135 1.31175 0
M  V30 10605 H 1069.19 1.29507 0.629607 0
M  V30 10606 H 1071.14 2.07291 3.6689 0
M  V30 10607 H 1069.87 0.956688 3.12274 0
M  V30 10608 H 1068.53 2.89945 2.24338 0
M  V30 10609 H 1068.17 2.07985 4.57986 0
M  V30 10610 H 1067.87 3.83144 4.45505 0
M  V30 10611 H 1069.4 3.23971 5.17566 0
M  V30 10612 H 1070.81 4.63069 3.37994 0
M  V30 10613 H 1069.21 5.25623 2.89552 0
M  V30 10614 H 1070.28 4.5525 1.6696 0
M  V30 10615 N 1071.62 -0.679052 1.4222 0
M  V30 10616 C 1072.55 -1.80481 1.48152 0
M  V30 10617 C 1073.53 -1.66698 0.338502 0
M  V30 10618 O 1074.72 -1.86183 0.552228 0
M  V30 10619 C 1071.85 -3.18746 1.37908 0
M  V30 10620 C 1070.8 -3.47258 2.50192 0
M  V30 10621 C 1070.13 -4.85052 2.25008 0
M  V30 10622 C 1071.43 -3.44576 3.92511 0
M  V30 10623 H 1073.12 -1.75774 2.42371 0
M  V30 10624 H 1070.67 -0.844241 1.16656 0
M  V30 10625 H 1072.62 -3.97229 1.40666 0
M  V30 10626 H 1071.35 -3.24119 0.401806 0
M  V30 10627 H 1070 -2.71133 2.46744 0
M  V30 10628 H 1069.65 -4.8707 1.25584 0
M  V30 10629 H 1069.35 -5.05092 3.00259 0
M  V30 10630 H 1070.88 -5.65825 2.29508 0
M  V30 10631 H 1072.29 -4.13036 3.97585 0
M  V30 10632 H 1070.69 -3.76151 4.67579 0
M  V30 10633 H 1071.76 -2.4323 4.19484 0
M  V30 10634 N 1073.1 -1.28322 -0.914942 0
M  V30 10635 C 1074.51 -1.13937 -1.47903 0
M  V30 10636 C 1074.86 0.271072 -1.94318 0
M  V30 10637 O 1073.99 1.16522 -1.8235 0
M  V30 10638 C 1074.58 -2.06221 -2.68809 0
M  V30 10639 C 1073.14 -1.95903 -3.21402 0
M  V30 10640 C 1072.29 -1.98031 -1.94111 0
M  V30 10641 H 1075.24 -1.41029 -0.727772 0
M  V30 10642 H 1075.26 -1.6255 -3.44031 0
M  V30 10643 H 1074.77 -3.08866 -2.34997 0
M  V30 10644 H 1072.87 -0.962907 -3.59943 0
M  V30 10645 H 1072.99 -2.82799 -3.86732 0
M  V30 10646 H 1071.35 -1.42423 -2.11158 0
M  V30 10647 H 1072.13 -3.02354 -1.62595 0
M  V30 10648 N 1074.58 1.12322 -1.10551 0
M  V30 10649 C 1075.82 1.85497 -0.858492 0
M  V30 10650 C 1076.18 1.8222 0.604966 0
M  V30 10651 O 1077.38 2.5075 0.968382 0
M  V30 10652 C 1075.65 3.29124 -1.39327 0
M  V30 10653 S 1077.21 4.19659 -1.28186 0
M  V30 10654 H 1074.03 0.639768 -0.31019 0
M  V30 10655 H 1076.63 1.35298 -1.41119 0
M  V30 10656 H 1075.34 3.29069 -2.45238 0
M  V30 10657 H 1074.87 3.84388 -0.837203 0
M  V30 10658 H 1076.88 4.95618 -0.240325 0
M  V30 10659 N 1076.06 0.894434 1.2976 0
M  V30 10660 C 1077.28 0.532916 1.99919 0
M  V30 10661 C 1077.7 -0.881022 1.66983 0
M  V30 10662 O 1077.06 -1.58076 0.912035 0
M  V30 10663 C 1077.11 0.70936 3.54472 0
M  V30 10664 O 1076.83 2.06764 3.86239 0
M  V30 10665 C 1078.33 0.352089 4.419 0
M  V30 10666 H 1075.55 0.205019 0.638912 0
M  V30 10667 H 1078.09 1.20233 1.65421 0
M  V30 10668 H 1076.25 0.0871901 3.87302 0
M  V30 10669 H 1076.66 2.09315 4.80924 0
M  V30 10670 H 1078.14 0.526405 5.49484 0
M  V30 10671 H 1078.61 -0.710527 4.33415 0
M  V30 10672 H 1079.22 0.950979 4.14532 0
M  V30 10673 N 1077.53 -1.43282 0.656365 0
M  V30 10674 C 1078.78 -2.01378 0.170702 0
M  V30 10675 C 1079.1 -1.52063 -1.22073 0
M  V30 10676 O 1078.37 -0.73456 -1.81607 0
M  V30 10677 H 1076.95 -0.744577 0.0601168 0
M  V30 10678 H 1079.62 -1.75449 0.848739 0
M  V30 10679 H 1078.71 -3.11701 0.157745 0
M  V30 10680 N 1079.01 -0.398486 -1.52479 0
M  V30 10681 C 1080.29 0.238776 -1.94137 0
M  V30 10682 C 1080.67 1.63558 -1.33462 0
M  V30 10683 O 1080.02 2.22821 -0.506272 0
M  V30 10684 C 1080.23 0.255863 -3.48061 0
M  V30 10685 C 1081.58 0.480376 -4.21874 0
M  V30 10686 O 1082.6 0.335679 -3.54615 0
M  V30 10687 O 1081.46 0.764654 -5.41124 0
M  V30 10688 H 1078.55 0.150806 -0.813134 0
M  V30 10689 H 1081.1 -0.453659 -1.63524 0
M  V30 10690 H 1079.87 -0.722171 -3.84578 0
M  V30 10691 H 1079.49 0.99284 -3.85004 0
M  V30 10692 N 1080.49 1.57075 -0.12858 0
M  V30 10693 C 1081.72 1.99586 0.533769 0
M  V30 10694 C 1082.13 1.00737 1.60152 0
M  V30 10695 O 1081.47 -0.00647783 1.83699 0
M  V30 10696 C 1081.53 3.3852 1.21014 0
M  V30 10697 C 1081.2 4.56084 0.289191 0
M  V30 10698 C 1082.2 5.17717 -0.475963 0
M  V30 10699 C 1079.88 5.01912 0.197467 0
M  V30 10700 C 1081.87 6.23572 -1.32048 0
M  V30 10701 C 1079.56 6.07626 -0.65067 0
M  V30 10702 C 1080.56 6.68324 -1.40826 0
M  V30 10703 O 1080.25 7.71995 -2.2423 0
M  V30 10704 H 1079.98 0.660245 0.145096 0
M  V30 10705 H 1082.53 2.04276 -0.214615 0
M  V30 10706 H 1080.76 3.30613 2.00579 0
M  V30 10707 H 1082.45 3.65258 1.77036 0
M  V30 10708 H 1083.22 4.83221 -0.415027 0
M  V30 10709 H 1079.1 4.54407 0.776853 0
M  V30 10710 H 1082.64 6.70878 -1.91228 0
M  V30 10711 H 1078.54 6.41551 -0.712965 0
M  V30 10712 H 1079.31 7.89135 -2.17276 0
M  V30 10713 N 1081.97 -0.145205 1.5693 0
M  V30 10714 C 1082.9 -1.20881 1.93553 0
M  V30 10715 C 1083.88 -1.41467 0.801612 0
M  V30 10716 O 1085.06 -1.5605 1.05739 0
M  V30 10717 C 1082.19 -2.5674 2.20912 0
M  V30 10718 C 1081.24 -2.52738 3.43549 0
M  V30 10719 S 1082.07 -1.99257 4.97048 0
M  V30 10720 C 1083.23 -3.36842 5.27531 0
M  V30 10721 H 1083.46 -0.896362 2.83465 0
M  V30 10722 H 1080.99 -0.350894 1.5036 0
M  V30 10723 H 1082.95 -3.34923 2.37354 0
M  V30 10724 H 1081.61 -2.85174 1.31661 0
M  V30 10725 H 1080.8 -3.52753 3.59974 0
M  V30 10726 H 1080.41 -1.82665 3.26358 0
M  V30 10727 H 1082.7 -4.32958 5.21108 0
M  V30 10728 H 1083.64 -3.25268 6.28973 0
M  V30 10729 H 1084.05 -3.3406 4.55043 0
M  V30 10730 N 1083.45 -1.52049 -0.414609 0
M  V30 10731 C 1084.4 -1.75603 -1.52533 0
M  V30 10732 C 1085.39 -0.622965 -1.57529 0
M  V30 10733 O 1086.6 -0.804886 -1.61002 0
M  V30 10734 H 1082.97 -0.555222 -0.507181 0
M  V30 10735 H 1084.94 -2.68666 -1.2985 0
M  V30 10736 C 1083.69 -1.9188 -2.89961 0
M  V30 10737 H 1083.01 -2.78483 -2.86857 0
M  V30 10738 H 1084.45 -2.12363 -3.66985 0
M  V30 10739 C 1082.91 -0.684453 -3.29874 0
M  V30 10740 O 1083.44 0.150256 -4.01419 0
M  V30 10741 N 1081.65 -0.521936 -2.85874 0
M  V30 10742 H 1081.2 -1.20229 -2.27822 0
M  V30 10743 H 1081.15 0.302655 -3.1294 0
M  V30 10744 N 1084.93 0.6715 -1.42579 0
M  V30 10745 C 1085.86 1.79625 -1.40749 0
M  V30 10746 C 1086.84 1.6032 -0.271312 0
M  V30 10747 O 1088.02 1.82749 -0.46205 0
M  V30 10748 C 1085.15 3.16672 -1.20153 0
M  V30 10749 C 1084.19 3.54718 -2.36807 0
M  V30 10750 S 1085.03 3.56771 -3.99343 0
M  V30 10751 C 1086.18 4.96505 -3.81095 0
M  V30 10752 H 1086.42 1.80903 -2.35926 0
M  V30 10753 H 1083.95 0.842469 -1.2939 0
M  V30 10754 H 1085.91 3.95776 -1.08956 0
M  V30 10755 H 1084.57 3.12976 -0.265545 0
M  V30 10756 H 1083.76 4.54341 -2.18152 0
M  V30 10757 H 1083.36 2.82982 -2.44535 0
M  V30 10758 H 1085.65 5.84674 -3.4229 0
M  V30 10759 H 1086.6 5.20207 -4.80406 0
M  V30 10760 H 1087.01 4.69178 -3.13898 0
M  V30 10761 N 1086.4 1.28806 0.908124 0
M  V30 10762 C 1087.63 1.19271 1.69674 0
M  V30 10763 C 1088.05 -0.244403 1.86505 0
M  V30 10764 O 1087.41 -1.17668 1.37927 0
M  V30 10765 C 1087.46 1.9023 3.06341 0
M  V30 10766 O 1086.56 1.2136 3.94139 0
M  V30 10767 H 1085.9 0.413738 0.519343 0
M  V30 10768 H 1088.43 1.70227 1.13508 0
M  V30 10769 H 1088.44 1.98356 3.56537 0
M  V30 10770 H 1087.12 2.94762 2.93408 0
M  V30 10771 H 1085.7 1.21435 3.52573 0
M  V30 10772 N 1087.88 -1.11734 1.11145 0
M  V30 10773 C 1089.29 -1.64928 0.874959 0
M  V30 10774 C 1089.64 -1.87012 -0.593375 0
M  V30 10775 O 1088.77 -1.60206 -1.45475 0
M  V30 10776 C 1089.36 -2.99608 1.58178 0
M  V30 10777 C 1087.92 -3.49723 1.39179 0
M  V30 10778 C 1087.07 -2.24595 1.62642 0
M  V30 10779 H 1090.02 -0.954154 1.26813 0
M  V30 10780 H 1090.04 -3.66434 1.02501 0
M  V30 10781 H 1089.55 -2.83504 2.65042 0
M  V30 10782 H 1087.65 -3.70998 0.345111 0
M  V30 10783 H 1087.77 -4.28711 2.13878 0
M  V30 10784 H 1086.13 -2.32067 1.04961 0
M  V30 10785 H 1086.91 -2.11036 2.70774 0
M  V30 10786 N 1089.36 -0.901303 -1.29284 0
M  V30 10787 C 1090.61 -0.528826 -1.95784 0
M  V30 10788 C 1090.94 0.922833 -1.70873 0
M  V30 10789 O 1090.21 1.65448 -1.0226 0
M  V30 10790 C 1090.5 -0.823793 -3.50551 0
M  V30 10791 C 1090.35 -2.32727 -3.84913 0
M  V30 10792 C 1091.67 -0.311382 -4.38997 0
M  V30 10793 H 1088.79 -0.193604 -0.711116 0
M  V30 10794 H 1091.43 -1.12828 -1.52872 0
M  V30 10795 H 1089.58 -0.313612 -3.87232 0
M  V30 10796 H 1091.25 -2.90712 -3.58168 0
M  V30 10797 H 1089.49 -2.78735 -3.32399 0
M  V30 10798 H 1090.17 -2.48423 -4.9294 0
M  V30 10799 H 1092.64 -0.748265 -4.09317 0
M  V30 10800 H 1091.52 -0.546957 -5.46168 0
M  V30 10801 H 1091.78 0.787959 -4.35021 0
M  V30 10802 N 1090.84 1.42931 -0.663954 0
M  V30 10803 C 1092.09 2.01284 -0.181379 0
M  V30 10804 C 1092.41 1.52708 1.21265 0
M  V30 10805 O 1091.68 0.744181 1.81215 0
M  V30 10806 H 1090.26 0.744248 -0.0640646 0
M  V30 10807 H 1092.92 1.74997 -0.858031 0
M  V30 10808 H 1092.01 3.11613 -0.174273 0
M  V30 10809 N 1092.32 0.406567 1.52266 0
M  V30 10810 C 1093.59 -0.228477 1.94261 0
M  V30 10811 C 1093.97 -1.62848 1.34328 0
M  V30 10812 O 1093.32 -2.22549 0.518082 0
M  V30 10813 C 1093.53 -0.237401 3.48192 0
M  V30 10814 C 1094.88 -0.457997 4.22123 0
M  V30 10815 O 1095.9 -0.316868 3.54788 0
M  V30 10816 O 1094.76 -0.735946 5.41522 0
M  V30 10817 H 1091.86 -0.146492 0.813922 0
M  V30 10818 H 1094.4 0.462325 1.63281 0
M  V30 10819 H 1093.17 0.742556 3.8419 0
M  V30 10820 H 1092.8 -0.972408 3.85526 0
M  V30 10821 N 1093.79 -1.57004 0.136909 0
M  V30 10822 C 1095.02 -2.00587 -0.527209 0
M  V30 10823 C 1095.44 -1.01628 -1.58283 0
M  V30 10824 O 1094.8 0.00946934 -1.81298 0
M  V30 10825 C 1094.85 -3.42967 -1.11384 0
M  V30 10826 O 1093.95 -3.46973 -2.22898 0
M  V30 10827 H 1093.3 -0.651155 -0.129976 0
M  V30 10828 H 1095.83 -2.03296 0.230667 0
M  V30 10829 H 1095.84 -3.81555 -1.44499 0
M  V30 10830 H 1094.51 -4.14502 -0.340736 0
M  V30 10831 H 1093.09 -3.20219 -1.91087 0
M  V30 10832 N 1095.27 0.136881 -1.57004 0
M  V30 10833 C 1096.22 1.18782 -1.99984 0
M  V30 10834 C 1097.21 1.43899 -0.893841 0
M  V30 10835 O 1098.42 1.44072 -1.07904 0
M  V30 10836 H 1094.8 0.400065 -0.636751 0
M  V30 10837 H 1096.77 0.798696 -2.87512 0
M  V30 10838 C 1095.52 2.51105 -2.40502 0
M  V30 10839 H 1094.84 2.32611 -3.25165 0
M  V30 10840 H 1096.28 3.23244 -2.74389 0
M  V30 10841 C 1094.74 3.12386 -1.26161 0
M  V30 10842 O 1095.27 3.97666 -0.567836 0
M  V30 10843 N 1093.47 2.71989 -1.02326 0
M  V30 10844 H 1093.02 2.02736 -1.58921 0
M  V30 10845 H 1092.98 3.13322 -0.26013 0
M  V30 10846 N 1096.75 1.52266 0.40654 0
M  V30 10847 C 1097.98 1.70304 1.17491 0
M  V30 10848 C 1098.39 0.413656 1.84213 0
M  V30 10849 O 1097.75 -0.610524 1.71985 0
M  V30 10850 C 1097.8 2.84045 2.23609 0
M  V30 10851 O 1097.52 4.0799 1.5961 0
M  V30 10852 C 1099.02 3.13614 3.13306 0
M  V30 10853 H 1096.24 0.570669 0.352955 0
M  V30 10854 H 1098.79 1.98836 0.477967 0
M  V30 10855 H 1096.94 2.58025 2.88967 0
M  V30 10856 H 1097.36 4.7139 2.29983 0
M  V30 10857 H 1098.83 3.96707 3.83833 0
M  V30 10858 H 1099.31 2.27272 3.75824 0
M  V30 10859 H 1099.91 3.41409 2.53614 0
M  V30 10860 N 1098.23 -0.663929 1.42933 0
M  V30 10861 C 1099.45 -1.45691 1.47611 0
M  V30 10862 C 1099.88 -1.87875 0.0920305 0
M  V30 10863 O 1099.24 -1.56696 -0.91192 0
M  V30 10864 C 1099.28 -2.67517 2.41799 0
M  V30 10865 O 1098.39 -3.66187 1.89686 0
M  V30 10866 H 1097.73 -0.437257 0.499702 0
M  V30 10867 H 1100.26 -0.813397 1.87737 0
M  V30 10868 H 1100.27 -3.1546 2.58745 0
M  V30 10869 H 1098.94 -2.36155 3.4235 0
M  V30 10870 H 1097.52 -3.25274 1.82349 0
M  V30 10871 N 1099.71 -1.29285 -0.901281 0
M  V30 10872 C 1100.93 -1.20169 -1.69039 0
M  V30 10873 C 1101.36 0.234509 -1.86632 0
M  V30 10874 O 1100.71 1.16935 -1.38549 0
M  V30 10875 C 1100.76 -1.91852 -3.05328 0
M  V30 10876 O 1099.87 -1.23448 -3.9349 0
M  V30 10877 H 1099.21 -0.416486 -0.517141 0
M  V30 10878 H 1101.74 -1.70826 -1.12603 0
M  V30 10879 H 1101.75 -2.00244 -3.5548 0
M  V30 10880 H 1100.42 -2.96313 -2.91841 0
M  V30 10881 H 1099 -1.23303 -3.51924 0
M  V30 10882 N 1101.18 1.11143 -1.11736 0
M  V30 10883 C 1102.6 1.64462 -0.883693 0
M  V30 10884 C 1102.95 1.87324 0.583448 0
M  V30 10885 O 1102.07 1.60975 1.44623 0
M  V30 10886 C 1102.67 2.98765 -1.59764 0
M  V30 10887 C 1101.23 3.4898 -1.41032 0
M  V30 10888 C 1100.37 2.23729 -1.63831 0
M  V30 10889 H 1103.32 0.947415 -1.27317 0
M  V30 10890 H 1103.34 3.65885 -1.04443 0
M  V30 10891 H 1102.86 2.82094 -2.66542 0
M  V30 10892 H 1100.96 3.7081 -0.364781 0
M  V30 10893 H 1101.07 4.27571 -2.16148 0
M  V30 10894 H 1099.43 2.31507 -1.06191 0
M  V30 10895 H 1100.22 2.09597 -2.7189 0
M  V30 10896 N 1102.66 0.908147 1.28804 0
M  V30 10897 C 1103.89 0.553431 1.9988 0
M  V30 10898 C 1104.31 -0.856714 1.67458 0
M  V30 10899 O 1103.67 -1.57163 0.903849 0
M  V30 10900 C 1103.72 0.762688 3.52442 0
M  V30 10901 O 1102.82 -0.180924 4.12003 0
M  V30 10902 H 1102.16 0.215237 0.628147 0
M  V30 10903 H 1104.69 1.22205 1.64095 0
M  V30 10904 H 1104.7 0.670612 4.02451 0
M  V30 10905 H 1103.38 1.79071 3.75375 0
M  V30 10906 H 1101.96 -0.0405897 3.72878 0
M  V30 10907 N 1104.14 -1.42577 0.671525 0
M  V30 10908 C 1105.42 -1.95222 0.121529 0
M  V30 10909 C 1105.8 -1.61209 -1.36289 0
M  V30 10910 O 1105.15 -0.906561 -2.09747 0
M  V30 10911 C 1105.36 -3.46846 0.387189 0
M  V30 10912 C 1106.7 -4.23525 0.301938 0
M  V30 10913 O 1107.73 -3.54753 0.320755 0
M  V30 10914 O 1106.59 -5.45967 0.241317 0
M  V30 10915 H 1103.68 -0.826999 0.000968615 0
M  V30 10916 H 1106.23 -1.52422 0.746029 0
M  V30 10917 H 1105 -3.64795 1.41563 0
M  V30 10918 H 1104.62 -3.96686 -0.26948 0
M  V30 10919 N 1105.62 -0.414636 -1.52048 0
M  V30 10920 C 1106.86 0.158807 -2.03782 0
M  V30 10921 C 1107.22 1.41912 -1.29325 0
M  V30 10922 O 1108.42 2.07136 -1.71313 0
M  V30 10923 C 1106.69 0.395092 -3.55209 0
M  V30 10924 S 1108.25 0.935193 -4.28719 0
M  V30 10925 H 1105.07 0.0424729 -0.70973 0
M  V30 10926 H 1107.67 -0.568822 -1.87042 0
M  V30 10927 H 1106.38 -0.528875 -4.06978 0
M  V30 10928 H 1105.91 1.15044 -3.76203 0
M  V30 10929 H 1107.92 2.21519 -4.44009 0
M  V30 10930 N 1107.1 1.56929 -0.145233 0
M  V30 10931 C 1108.33 2.00141 0.51257 0
M  V30 10932 C 1108.73 1.0243 1.59075 0
M  V30 10933 O 1108.08 0.0130063 1.83695 0
M  V30 10934 C 1108.14 3.39785 1.17417 0
M  V30 10935 C 1107.8 4.56365 0.240801 0
M  V30 10936 C 1108.8 5.17183 -0.530847 0
M  V30 10937 C 1106.49 5.02093 0.144221 0
M  V30 10938 C 1108.48 6.22136 -1.38654 0
M  V30 10939 C 1106.17 6.06902 -0.71508 0
M  V30 10940 C 1107.16 6.66793 -1.47907 0
M  V30 10941 O 1106.85 7.69573 -2.32405 0
M  V30 10942 H 1106.58 0.661747 0.138085 0
M  V30 10943 H 1109.14 2.04037 -0.236269 0
M  V30 10944 H 1107.37 3.32722 1.97061 0
M  V30 10945 H 1109.06 3.67115 1.73152 0
M  V30 10946 H 1109.82 4.82754 -0.466256 0
M  V30 10947 H 1105.7 4.55206 0.728613 0
M  V30 10948 H 1109.25 6.68812 -1.98333 0
M  V30 10949 H 1105.14 6.40758 -0.78097 0
M  V30 10950 H 1105.91 7.86786 -2.25634 0
M  V30 10951 N 1108.58 -0.128553 1.57075 0
M  V30 10952 C 1109.81 -0.851214 1.8825 0
M  V30 10953 C 1110.21 -1.74402 0.733531 0
M  V30 10954 O 1109.56 -1.81149 -0.305108 0
M  V30 10955 C 1109.62 -1.74451 3.14336 0
M  V30 10956 C 1109.28 -1.02699 4.45311 0
M  V30 10957 C 1110.28 -0.37224 5.18566 0
M  V30 10958 C 1107.96 -1.01101 4.9202 0
M  V30 10959 C 1109.96 0.2889 6.36745 0
M  V30 10960 C 1107.65 -0.346063 6.10119 0
M  V30 10961 C 1108.64 0.302744 6.82329 0
M  V30 10962 O 1108.33 0.9571 7.98182 0
M  V30 10963 H 1108.06 -0.250529 0.627863 0
M  V30 10964 H 1110.62 -0.120418 2.05047 0
M  V30 10965 H 1108.85 -2.51671 2.93596 0
M  V30 10966 H 1110.54 -2.34075 3.31608 0
M  V30 10967 H 1111.3 -0.376271 4.83538 0
M  V30 10968 H 1107.18 -1.50543 4.35727 0
M  V30 10969 H 1110.73 0.795901 6.93045 0
M  V30 10970 H 1106.62 -0.339762 6.44605 0
M  V30 10971 H 1107.39 0.860616 8.13963 0
M  V30 10972 N 1110.05 -1.5248 -0.398459 0
M  V30 10973 C 1111.3 -1.66731 -1.14215 0
M  V30 10974 C 1111.62 -0.404957 -1.90749 0
M  V30 10975 O 1110.89 0.580434 -1.87104 0
M  V30 10976 H 1109.47 -0.614577 -0.424622 0
M  V30 10977 H 1112.13 -1.89561 -0.453059 0
M  V30 10978 H 1111.23 -2.51336 -1.85031 0
M  V30 10979 N 1111.53 0.65634 -1.43283 0
M  V30 10980 C 1112.94 1.23744 -1.39801 0
M  V30 10981 C 1113.29 1.95942 -0.100507 0
M  V30 10982 O 1112.42 2.01063 0.800161 0
M  V30 10983 C 1113.01 2.25062 -2.53244 0
M  V30 10984 C 1111.57 2.78657 -2.53036 0
M  V30 10985 C 1110.72 1.53251 -2.31105 0
M  V30 10986 H 1113.67 0.448553 -1.52229 0
M  V30 10987 H 1113.69 3.07174 -2.24553 0
M  V30 10988 H 1113.2 1.72487 -3.47664 0
M  V30 10989 H 1111.3 3.35304 -1.62487 0
M  V30 10990 H 1111.42 3.26414 -3.507 0
M  V30 10991 H 1109.78 1.80487 -1.79713 0
M  V30 10992 H 1110.56 1.02615 -3.27605 0
M  V30 10993 N 1113.01 1.29761 0.894412 0
M  V30 10994 C 1113.92 1.1724 2.03204 0
M  V30 10995 C 1114.94 0.0944452 1.73743 0
M  V30 10996 O 1116.11 0.307549 1.99038 0
M  V30 10997 C 1113.18 0.855416 3.35981 0
M  V30 10998 C 1112.24 2.01777 3.78926 0
M  V30 10999 C 1111.47 1.71581 5.05367 0
M  V30 11000 O 1111.69 0.639245 5.66807 0
M  V30 11001 O 1110.63 2.56539 5.44492 0
M  V30 11002 H 1114.45 2.12787 2.16692 0
M  V30 11003 H 1112.04 1.09264 1.0189 0
M  V30 11004 H 1113.92 0.693429 4.15656 0
M  V30 11005 H 1112.6 -0.0702195 3.23624 0
M  V30 11006 H 1111.5 2.23502 2.99996 0
M  V30 11007 H 1112.84 2.92479 3.95875 0
M  V30 11008 N 1114.49 -1.10549 1.12324 0
M  V30 11009 C 1115.76 -1.78968 0.789287 0
M  V30 11010 C 1116.14 -1.984 -0.721156 0
M  V30 11011 O 1115.49 -1.5761 -1.65443 0
M  V30 11012 C 1115.7 -3.12044 1.563 0
M  V30 11013 C 1117.05 -3.86939 1.74825 0
M  V30 11014 O 1118.07 -3.21761 1.52802 0
M  V30 11015 O 1116.93 -5.0392 2.11488 0
M  V30 11016 H 1114.03 -0.775617 0.286962 0
M  V30 11017 H 1116.57 -1.17209 1.2272 0
M  V30 11018 H 1115.35 -2.93313 2.59005 0
M  V30 11019 H 1114.97 -3.81521 1.11926 0
M  V30 11020 N 1115.97 -0.914965 -1.28321 0
M  V30 11021 C 1117.38 -0.59512 -1.76961 0
M  V30 11022 C 1117.73 0.88958 -1.74874 0
M  V30 11023 O 1116.85 1.6959 -1.34418 0
M  V30 11024 C 1117.45 -1.07353 -3.21342 0
M  V30 11025 C 1116.01 -0.804577 -3.677 0
M  V30 11026 C 1115.15 -1.23955 -2.48053 0
M  V30 11027 H 1118.1 -1.0961 -1.14767 0
M  V30 11028 H 1118.13 -0.415506 -3.78225 0
M  V30 11029 H 1117.64 -2.15413 -3.22829 0
M  V30 11030 H 1115.74 0.26277 -3.71672 0
M  V30 11031 H 1115.85 -1.41317 -4.57784 0
M  V30 11032 H 1114.22 -0.658274 -2.46046 0
M  V30 11033 H 1115 -2.32853 -2.52258 0
M  V30 11034 N 1117.44 1.42219 -0.679077 0
M  V30 11035 C 1118.38 2.29172 0.035583 0
M  V30 11036 C 1119.39 1.43909 0.761183 0
M  V30 11037 O 1120.58 1.67584 0.61463 0
M  V30 11038 C 1117.68 3.21426 1.07419 0
M  V30 11039 C 1116.85 4.35364 0.421547 0
M  V30 11040 C 1115.91 5.08307 1.36051 0
M  V30 11041 O 1114.94 5.62678 0.859186 0
M  V30 11042 N 1116.14 5.14222 2.69362 0
M  V30 11043 H 1118.9 2.91147 -0.710865 0
M  V30 11044 H 1116.46 1.53192 -0.523821 0
M  V30 11045 H 1118.46 3.67091 1.70371 0
M  V30 11046 H 1117.03 2.60873 1.72233 0
M  V30 11047 H 1116.25 3.9229 -0.387559 0
M  V30 11048 H 1117.53 5.08789 -0.0329421 0
M  V30 11049 H 1116.93 4.71467 3.12627 0
M  V30 11050 H 1115.49 5.63519 3.27551 0
M  V30 11051 N 1118.92 0.422693 1.51826 0
M  V30 11052 C 1119.87 -0.413725 2.24215 0
M  V30 11053 C 1120.86 -1.00228 1.2587 0
M  V30 11054 O 1122.05 -0.922845 1.51038 0
M  V30 11055 C 1119.18 -1.52244 3.07696 0
M  V30 11056 C 1118.26 -0.943999 4.1346 0
M  V30 11057 N 1118.65 -0.0934117 5.05714 0
M  V30 11058 C 1116.95 -1.21311 4.29185 0
M  V30 11059 C 1117.65 0.229891 5.81246 0
M  V30 11060 N 1116.63 -0.382753 5.42251 0
M  V30 11061 H 1120.43 0.242283 2.929 0
M  V30 11062 H 1117.94 0.233902 1.60707 0
M  V30 11063 H 1119.94 -2.13438 3.5812 0
M  V30 11064 H 1118.6 -2.18093 2.40552 0
M  V30 11065 H 1119.61 0.271932 5.17186 0
M  V30 11066 H 1116.29 -1.87018 3.7327 0
M  V30 11067 H 1117.68 0.921159 6.65556 0
M  V30 11068 N 1120.4 -1.5685 0.153553 0
M  V30 11069 C 1121.35 -2.1709 -0.783626 0
M  V30 11070 C 1122.32 -1.10567 -1.23952 0
M  V30 11071 O 1123.5 -1.38638 -1.31088 0
M  V30 11072 C 1120.64 -2.80183 -2.01473 0
M  V30 11073 C 1119.75 -4.01117 -1.60403 0
M  V30 11074 C 1118.89 -4.5219 -2.78743 0
M  V30 11075 C 1117.93 -5.65574 -2.34079 0
M  V30 11076 N 1117.07 -6.11235 -3.4545 0
M  V30 11077 H 1121.91 -2.96836 -0.263127 0
M  V30 11078 H 1119.44 -1.46625 -0.11816 0
M  V30 11079 H 1121.4 -3.14912 -2.73654 0
M  V30 11080 H 1120.03 -2.03071 -2.50923 0
M  V30 11081 H 1119.08 -3.72325 -0.779631 0
M  V30 11082 H 1120.39 -4.83243 -1.23605 0
M  V30 11083 H 1119.55 -4.89008 -3.59105 0
M  V30 11084 H 1118.29 -3.69085 -3.18791 0
M  V30 11085 H 1117.29 -5.28326 -1.52158 0
M  V30 11086 H 1118.52 -6.50468 -1.95109 0
M  V30 11087 H 1116.46 -5.31064 -3.85106 0
M  V30 11088 H 1116.38 -6.88304 -3.12687 0
M  V30 11089 H 1117.65 -6.527 -4.26149 0
M  V30 11090 N 1121.88 0.120221 -1.57141 0
M  V30 11091 C 1123.29 0.677497 -1.73974 0
M  V30 11092 C 1123.64 1.80371 -0.772055 0
M  V30 11093 O 1122.76 2.16329 0.0553062 0
M  V30 11094 C 1123.36 1.23575 -3.1546 0
M  V30 11095 C 1121.92 1.73933 -3.33803 0
M  V30 11096 C 1121.07 0.638542 -2.69848 0
M  V30 11097 H 1124.02 -0.105685 -1.58348 0
M  V30 11098 H 1124.04 2.10542 -3.16942 0
M  V30 11099 H 1123.55 0.415851 -3.85866 0
M  V30 11100 H 1121.65 2.58404 -2.68437 0
M  V30 11101 H 1121.76 1.84961 -4.41957 0
M  V30 11102 H 1120.13 1.07185 -2.31049 0
M  V30 11103 H 1120.91 -0.170356 -3.42877 0
M  V30 11104 N 1123.36 1.52689 0.390367 0
M  V30 11105 C 1124.6 1.67914 1.13722 0
M  V30 11106 C 1124.94 0.417159 1.89667 0
M  V30 11107 O 1124.21 -0.585005 1.85494 0
M  V30 11108 C 1124.49 2.91331 2.11656 0
M  V30 11109 C 1124.35 4.27626 1.39484 0
M  V30 11110 C 1125.67 3.10293 3.12099 0
M  V30 11111 H 1122.78 0.611047 0.412057 0
M  V30 11112 H 1125.43 1.85283 0.420753 0
M  V30 11113 H 1123.58 2.76654 2.72754 0
M  V30 11114 H 1125.25 4.54068 0.813607 0
M  V30 11115 H 1123.49 4.28169 0.69669 0
M  V30 11116 H 1124.16 5.10066 2.11038 0
M  V30 11117 H 1126.64 3.23992 2.6109 0
M  V30 11118 H 1125.51 3.98127 3.7787 0
M  V30 11119 H 1125.78 2.24448 3.80888 0
M  V30 11120 N 1124.83 -0.648732 1.43629 0
M  V30 11121 C 1125.76 -1.77298 1.51947 0
M  V30 11122 C 1126.75 -1.65942 0.373785 0
M  V30 11123 O 1127.93 -1.8497 0.591596 0
M  V30 11124 C 1125.06 -3.15749 1.44638 0
M  V30 11125 C 1124.01 -3.41872 2.57502 0
M  V30 11126 C 1123.34 -4.8017 2.35246 0
M  V30 11127 C 1124.64 -3.36173 3.99731 0
M  V30 11128 H 1126.33 -1.70594 2.46045 0
M  V30 11129 H 1123.88 -0.819306 1.1842 0
M  V30 11130 H 1125.83 -3.94156 1.4906 0
M  V30 11131 H 1124.56 -3.23194 0.470466 0
M  V30 11132 H 1123.22 -2.65838 2.5244 0
M  V30 11133 H 1122.86 -4.84297 1.35887 0
M  V30 11134 H 1122.56 -4.9861 3.10906 0
M  V30 11135 H 1124.09 -5.6083 2.41459 0
M  V30 11136 H 1125.5 -4.0451 4.06257 0
M  V30 11137 H 1123.9 -3.66148 4.75453 0
M  V30 11138 H 1124.97 -2.34277 4.24549 0
M  V30 11139 N 1126.31 -1.30234 -0.887518 0
M  V30 11140 C 1127.54 -1.21955 -1.67755 0
M  V30 11141 C 1127.96 0.214701 -1.86871 0
M  V30 11142 O 1127.32 1.15459 -1.39782 0
M  V30 11143 C 1127.37 -1.95079 -3.03276 0
M  V30 11144 O 1126.47 -1.27615 -3.92158 0
M  V30 11145 H 1125.81 -0.421948 -0.512695 0
M  V30 11146 H 1128.34 -1.72011 -1.10785 0
M  V30 11147 H 1128.35 -2.04004 -3.53336 0
M  V30 11148 H 1127.03 -2.99392 -2.88682 0
M  V30 11149 H 1125.61 -1.27029 -3.50597 0
M  V30 11150 N 1127.79 1.09952 -1.12909 0
M  V30 11151 C 1129.02 1.8552 -0.909163 0
M  V30 11152 C 1129.43 1.81173 0.545253 0
M  V30 11153 O 1128.77 1.20223 1.38896 0
M  V30 11154 C 1128.83 3.34693 -1.31228 0
M  V30 11155 C 1128.5 3.62794 -2.77902 0
M  V30 11156 C 1129.49 3.58973 -3.76078 0
M  V30 11157 C 1127.18 3.91311 -3.1493 0
M  V30 11158 C 1129.17 3.83271 -5.09296 0
M  V30 11159 C 1126.86 4.15265 -4.48328 0
M  V30 11160 C 1127.86 4.11236 -5.4532 0
M  V30 11161 O 1127.55 4.34576 -6.76313 0
M  V30 11162 H 1127.28 0.59303 -0.324486 0
M  V30 11163 H 1129.83 1.39878 -1.5041 0
M  V30 11164 H 1128.06 3.81016 -0.660573 0
M  V30 11165 H 1129.75 3.9166 -1.06569 0
M  V30 11166 H 1130.52 3.36974 -3.48817 0
M  V30 11167 H 1126.4 3.93575 -2.40041 0
M  V30 11168 H 1129.94 3.80041 -5.84991 0
M  V30 11169 H 1125.84 4.36743 -4.75316 0
M  V30 11170 H 1126.61 4.52065 -6.82334 0
M  V30 11171 N 1129.27 0.921757 1.27833 0
M  V30 11172 C 1130.5 0.574368 1.98455 0
M  V30 11173 C 1130.91 -0.850577 1.69002 0
M  V30 11174 O 1130.25 -1.57607 0.943708 0
M  V30 11175 C 1130.31 0.713235 3.52354 0
M  V30 11176 C 1129.98 2.1092 4.05415 0
M  V30 11177 C 1130.97 3.08276 4.18643 0
M  V30 11178 C 1128.66 2.42454 4.3991 0
M  V30 11179 C 1130.65 4.35279 4.6563 0
M  V30 11180 C 1128.34 3.69694 4.8659 0
M  V30 11181 C 1129.34 4.6592 4.99407 0
M  V30 11182 O 1129.02 5.90896 5.45066 0
M  V30 11183 H 1128.76 0.216955 0.640239 0
M  V30 11184 H 1131.31 1.23932 1.63798 0
M  V30 11185 H 1129.54 -0.00881115 3.86699 0
M  V30 11186 H 1131.23 0.371776 4.04194 0
M  V30 11187 H 1132 2.85234 3.92258 0
M  V30 11188 H 1127.87 1.68303 4.2918 0
M  V30 11189 H 1131.42 5.10391 4.75549 0
M  V30 11190 H 1127.32 3.92557 5.12415 0
M  V30 11191 H 1128.08 5.938 5.63333 0
M  V30 11192 N 1130.75 -1.41857 0.686609 0
M  V30 11193 C 1131.97 -2.06219 0.221037 0
M  V30 11194 C 1132.4 -1.51298 -1.11762 0
M  V30 11195 O 1131.75 -0.636253 -1.69769 0
M  V30 11196 C 1131.8 -3.60153 0.179425 0
M  V30 11197 O 1130.91 -4.03577 -0.848481 0
M  V30 11198 H 1130.25 -0.654787 0.110228 0
M  V30 11199 H 1132.78 -1.81783 0.938948 0
M  V30 11200 H 1132.79 -4.07999 0.00725332 0
M  V30 11201 H 1131.46 -3.99498 1.15647 0
M  V30 11202 H 1130.04 -3.67255 -0.646393 0
M  V30 11203 N 1132.22 -0.430739 -1.51599 0
M  V30 11204 C 1133.15 0.374695 -2.30474 0
M  V30 11205 C 1134.14 1.02694 -1.35602 0
M  V30 11206 O 1135.32 1.03184 -1.6452 0
M  V30 11207 C 1132.45 1.47981 -3.14196 0
M  V30 11208 C 1131.4 0.951415 -4.17291 0
M  V30 11209 C 1130.73 2.15177 -4.89492 0
M  V30 11210 C 1132.03 -0.00957951 -5.22299 0
M  V30 11211 H 1133.72 -0.283508 -2.98055 0
M  V30 11212 H 1131.27 -0.13779 -1.43339 0
M  V30 11213 H 1133.22 2.05043 -3.68151 0
M  V30 11214 H 1131.95 2.16621 -2.44424 0
M  V30 11215 H 1130.61 0.403052 -3.64378 0
M  V30 11216 H 1130.25 2.82421 -4.1623 0
M  V30 11217 H 1129.95 1.80464 -5.59202 0
M  V30 11218 H 1131.48 2.72806 -5.46269 0
M  V30 11219 H 1132.89 0.470527 -5.71366 0
M  V30 11220 H 1131.29 -0.268959 -5.99497 0
M  V30 11221 H 1132.36 -0.948297 -4.75537 0
M  V30 11222 N 1133.7 1.56767 -0.161869 0
M  V30 11223 C 1135.11 1.83265 0.356466 0
M  V30 11224 C 1135.46 1.08127 1.63716 0
M  V30 11225 O 1134.59 0.33127 2.13849 0
M  V30 11226 C 1135.18 3.32437 0.653521 0
M  V30 11227 C 1133.74 3.59465 1.11633 0
M  V30 11228 C 1132.89 2.76909 0.147204 0
M  V30 11229 H 1135.84 1.53926 -0.386308 0
M  V30 11230 H 1135.86 3.49401 1.50662 0
M  V30 11231 H 1135.37 3.87098 -0.278766 0
M  V30 11232 H 1133.48 3.10206 2.06404 0
M  V30 11233 H 1133.59 4.67853 1.03202 0
M  V30 11234 H 1131.95 2.46457 0.642739 0
M  V30 11235 H 1132.74 3.34346 -0.778938 0
M  V30 11236 N 1135.18 -0.111886 1.57202 0
M  V30 11237 C 1136.6 -0.465629 1.52657 0
M  V30 11238 C 1136.8 -1.81463 0.875989 0
M  V30 11239 O 1135.85 -2.4825 0.461345 0
M  V30 11240 C 1137.17 -0.443571 2.9741 0
M  V30 11241 C 1138.71 -0.52662 3.08538 0
M  V30 11242 C 1139.19 -0.53488 4.54866 0
M  V30 11243 N 1140.68 -0.596117 4.59348 0
M  V30 11244 C 1141.41 -0.624073 5.69994 0
M  V30 11245 N 1140.91 -0.609245 6.90116 0
M  V30 11246 N 1142.7 -0.667619 5.58121 0
M  V30 11247 H 1134.85 0.771925 1.97876 0
M  V30 11248 H 1137.12 0.285534 0.903977 0
M  V30 11249 H 1136.82 0.480138 3.48407 0
M  V30 11250 H 1136.7 -1.26876 3.55221 0
M  V30 11251 H 1139.08 -1.44075 2.57539 0
M  V30 11252 H 1139.17 0.326396 2.53709 0
M  V30 11253 H 1138.81 0.375233 5.06512 0
M  V30 11254 H 1138.74 -1.40488 5.07514 0
M  V30 11255 H 1141.23 -0.613452 3.72888 0
M  V30 11256 H 1141.54 -0.633396 7.702 0
M  V30 11257 H 1139.89 -0.576557 6.92604 0
M  V30 11258 H 1143.08 -0.676616 4.63184 0
M  V30 11259 H 1143.25 -0.685938 6.44359 0
M  V30 11260 N 1136.66 -1.52894 -0.382264 0
M  V30 11261 C 1137.88 -1.72453 -1.15216 0
M  V30 11262 C 1138.31 -0.444925 -1.82762 0
M  V30 11263 O 1137.67 0.599825 -1.7109 0
M  V30 11264 C 1137.71 -2.87939 -2.17079 0
M  V30 11265 O 1136.82 -2.55383 -3.23811 0
M  V30 11266 H 1136.16 -0.57324 -0.335099 0
M  V30 11267 H 1138.69 -1.99713 -0.444495 0
M  V30 11268 H 1138.7 -3.13628 -2.60963 0
M  V30 11269 H 1137.37 -3.80765 -1.67305 0
M  V30 11270 H 1135.95 -2.40457 -2.85018 0
M  V30 11271 N 1138.14 0.641106 -1.43971 0
M  V30 11272 C 1139.38 1.40084 -1.46228 0
M  V30 11273 C 1139.71 1.94287 -0.0911011 0
M  V30 11274 O 1138.97 1.73481 0.905688 0
M  V30 11275 C 1139.27 2.59092 -2.46183 0
M  V30 11276 C 1138.93 2.23237 -3.9176 0
M  V30 11277 C 1137.59 2.13171 -4.31407 0
M  V30 11278 C 1139.95 1.94746 -4.83449 0
M  V30 11279 C 1137.27 1.72788 -5.60679 0
M  V30 11280 C 1139.63 1.55858 -6.13099 0
M  V30 11281 C 1138.29 1.44326 -6.5171 0
M  V30 11282 H 1137.56 0.512603 -0.535088 0
M  V30 11283 H 1140.21 0.727956 -1.77124 0
M  V30 11284 H 1138.51 3.31568 -2.08734 0
M  V30 11285 H 1140.21 3.17313 -2.4518 0
M  V30 11286 H 1136.8 2.31986 -3.60389 0
M  V30 11287 H 1140.98 2.01438 -4.53582 0
M  V30 11288 H 1136.24 1.62455 -5.89422 0
M  V30 11289 H 1140.41 1.32848 -6.83611 0
M  V30 11290 H 1138.04 1.12806 -7.51784 0
M  V30 11291 N 1139.62 1.30703 0.880598 0
M  V30 11292 C 1140.56 1.17455 1.98678 0
M  V30 11293 C 1141.53 0.0629569 1.65981 0
M  V30 11294 O 1142.72 0.233926 1.89361 0
M  V30 11295 C 1139.86 0.876882 3.33774 0
M  V30 11296 C 1138.97 2.07078 3.79134 0
M  V30 11297 C 1138.11 1.71082 5.02896 0
M  V30 11298 C 1137.14 2.86942 5.40676 0
M  V30 11299 N 1136.28 2.51212 6.55619 0
M  V30 11300 H 1141.12 2.12086 2.09341 0
M  V30 11301 H 1138.66 1.05514 1.02495 0
M  V30 11302 H 1140.62 0.684899 4.1154 0
M  V30 11303 H 1139.25 -0.0325633 3.22784 0
M  V30 11304 H 1138.3 2.37388 2.97239 0
M  V30 11305 H 1139.61 2.9383 4.0307 0
M  V30 11306 H 1138.76 1.48284 5.883 0
M  V30 11307 H 1137.5 0.815064 4.80841 0
M  V30 11308 H 1136.51 3.10401 4.53797 0
M  V30 11309 H 1137.73 3.77211 5.64703 0
M  V30 11310 H 1135.68 1.64147 6.35131 0
M  V30 11311 H 1135.6 3.31495 6.79446 0
M  V30 11312 H 1136.86 2.31781 7.44243 0
M  V30 11313 N 1141.09 -1.09351 1.1349 0
M  V30 11314 C 1142.04 -2.14179 0.781739 0
M  V30 11315 C 1143.03 -1.59325 -0.224575 0
M  V30 11316 O 1144.22 -1.76977 -0.0283747 0
M  V30 11317 C 1141.35 -3.42386 0.250278 0
M  V30 11318 C 1140.43 -4.04147 1.28555 0
M  V30 11319 N 1140.83 -4.40451 2.4867 0
M  V30 11320 C 1139.12 -4.31356 1.13351 0
M  V30 11321 C 1139.82 -4.89115 3.14867 0
M  V30 11322 N 1138.8 -4.86618 2.42289 0
M  V30 11323 H 1142.6 -2.40055 1.69561 0
M  V30 11324 H 1140.12 -1.26587 1.01733 0
M  V30 11325 H 1142.11 -4.16895 -0.0209767 0
M  V30 11326 H 1140.77 -3.17965 -0.657904 0
M  V30 11327 H 1141.78 -4.31789 2.8597 0
M  V30 11328 H 1138.46 -4.16536 0.28355 0
M  V30 11329 H 1139.85 -5.26663 4.17224 0
M  V30 11330 N 1142.57 -0.928524 -1.27343 0
M  V30 11331 C 1143.8 -0.585734 -1.98436 0
M  V30 11332 C 1144.21 0.83644 -1.69261 0
M  V30 11333 O 1143.57 1.55603 -0.953626 0
M  V30 11334 C 1143.62 -0.803092 -3.52467 0
M  V30 11335 O 1143.34 -2.16932 -3.80621 0
M  V30 11336 C 1144.84 -0.469127 -4.40811 0
M  V30 11337 H 1142.06 -0.221887 -0.633251 0
M  V30 11338 H 1144.61 -1.24577 -1.62175 0
M  V30 11339 H 1142.76 -0.189846 -3.86935 0
M  V30 11340 H 1143.18 -2.21992 -4.75205 0
M  V30 11341 H 1144.65 -0.671906 -5.47895 0
M  V30 11342 H 1145.13 0.595365 -4.35146 0
M  V30 11343 H 1145.73 -1.06055 -4.11865 0
M  V30 11344 N 1144.05 1.41491 -0.694123 0
M  V30 11345 C 1144.98 2.29197 0.0112742 0
M  V30 11346 C 1145.99 1.44708 0.745877 0
M  V30 11347 O 1147.18 1.68227 0.596821 0
M  V30 11348 C 1144.28 3.22547 1.04004 0
M  V30 11349 C 1143.46 4.35787 0.375347 0
M  V30 11350 C 1142.52 5.09722 1.30652 0
M  V30 11351 O 1141.54 5.63558 0.799459 0
M  V30 11352 N 1142.74 5.1705 2.63893 0
M  V30 11353 H 1145.51 2.90377 -0.741705 0
M  V30 11354 H 1143.07 1.52628 -0.540039 0
M  V30 11355 H 1145.06 3.68878 1.66468 0
M  V30 11356 H 1143.63 2.62685 1.69456 0
M  V30 11357 H 1142.85 3.91857 -0.429145 0
M  V30 11358 H 1144.14 5.08726 -0.0869041 0
M  V30 11359 H 1143.54 4.74756 3.07609 0
M  V30 11360 H 1142.09 5.66962 3.21555 0
M  V30 11361 N 1145.53 0.438773 1.51369 0
M  V30 11362 C 1146.94 0.0911416 1.5934 0
M  V30 11363 C 1147.14 -1.39962 1.44958 0
M  V30 11364 O 1146.2 -2.16968 1.29155 0
M  V30 11365 C 1147.51 0.612531 2.94395 0
M  V30 11366 C 1149.06 0.573098 3.07709 0
M  V30 11367 C 1149.54 1.07149 4.4529 0
M  V30 11368 N 1151.03 1.02953 4.51614 0
M  V30 11369 C 1151.76 1.38602 5.56397 0
M  V30 11370 N 1151.26 1.81543 6.68591 0
M  V30 11371 N 1153.05 1.30409 5.46763 0
M  V30 11372 H 1145.2 1.40872 1.58962 0
M  V30 11373 H 1147.46 0.580589 0.749414 0
M  V30 11374 H 1147.17 1.65562 3.10294 0
M  V30 11375 H 1147.04 0.0382375 3.77181 0
M  V30 11376 H 1149.43 -0.461006 2.91477 0
M  V30 11377 H 1149.51 1.18381 2.26759 0
M  V30 11378 H 1149.16 2.10406 4.62268 0
M  V30 11379 H 1149.09 0.437297 5.24781 0
M  V30 11380 H 1151.58 0.714208 3.7109 0
M  V30 11381 H 1151.89 2.06977 7.44567 0
M  V30 11382 H 1150.24 1.8547 6.69795 0
M  V30 11383 H 1153.43 0.967272 4.57997 0
M  V30 11384 H 1153.6 1.5852 6.28312 0
M  V30 11385 N 1147.01 -1.56678 0.170181 0
M  V30 11386 C 1148.42 -1.83452 -0.346742 0
M  V30 11387 C 1148.77 -1.08993 -1.63141 0
M  V30 11388 O 1147.89 -0.342607 -2.13671 0
M  V30 11389 C 1148.49 -3.32779 -0.635882 0
M  V30 11390 C 1147.05 -3.60052 -1.09725 0
M  V30 11391 C 1146.19 -2.76983 -0.132516 0
M  V30 11392 H 1149.14 -1.53719 0.394465 0
M  V30 11393 H 1149.17 -3.50195 -1.48806 0
M  V30 11394 H 1148.68 -3.86944 0.299291 0
M  V30 11395 H 1146.78 -3.11297 -2.04756 0
M  V30 11396 H 1146.89 -4.68393 -1.00719 0
M  V30 11397 H 1145.26 -2.46794 -0.62966 0
M  V30 11398 H 1146.04 -3.33929 0.796658 0
M  V30 11399 N 1148.48 0.103547 -1.57259 0
M  V30 11400 C 1149.73 0.806979 -1.8529 0
M  V30 11401 C 1150.05 1.79679 -0.757653 0
M  V30 11402 O 1149.32 1.94695 0.216913 0
M  V30 11403 H 1147.9 0.301012 -0.683667 0
M  V30 11404 H 1150.56 0.0871886 -1.94705 0
M  V30 11405 H 1149.66 1.34275 -2.81738 0
M  V30 11406 N 1149.96 1.53094 0.37415 0
M  V30 11407 C 1150.87 1.81872 1.48188 0
M  V30 11408 C 1151.89 0.706487 1.59012 0
M  V30 11409 O 1153.06 0.995648 1.75068 0
M  V30 11410 C 1150.13 1.99494 2.83554 0
M  V30 11411 C 1149.19 3.23402 2.82329 0
M  V30 11412 C 1148.42 3.40174 4.11239 0
M  V30 11413 O 1148.65 2.61425 5.06965 0
M  V30 11414 O 1147.58 4.33493 4.17573 0
M  V30 11415 H 1151.41 2.75965 1.26795 0
M  V30 11416 H 1148.99 1.38368 0.56343 0
M  V30 11417 H 1150.87 2.12705 3.63778 0
M  V30 11418 H 1149.55 1.08591 3.04942 0
M  V30 11419 H 1148.45 3.15621 2.00834 0
M  V30 11420 H 1149.79 4.14199 2.65894 0
M  V30 11421 N 1151.44 -0.633461 1.44309 0
M  V30 11422 C 1152.85 -1.21504 1.41752 0
M  V30 11423 C 1153.2 -1.95758 0.131667 0
M  V30 11424 O 1152.33 -2.02311 -0.768072 0
M  V30 11425 C 1152.92 -2.21005 2.56792 0
M  V30 11426 C 1151.48 -2.74596 2.57438 0
M  V30 11427 C 1150.63 -1.49555 2.33513 0
M  V30 11428 H 1153.58 -0.424277 1.52923 0
M  V30 11429 H 1153.6 -3.03563 2.29412 0
M  V30 11430 H 1153.11 -1.66934 3.50364 0
M  V30 11431 H 1151.21 -3.32676 1.67801 0
M  V30 11432 H 1151.33 -3.20794 3.55849 0
M  V30 11433 H 1149.69 -1.77605 1.82561 0
M  V30 11434 H 1150.47 -0.973899 3.29196 0
M  V30 11435 N 1152.92 -1.31168 -0.873655 0
M  V30 11436 C 1153.83 -1.20458 -2.01313 0
M  V30 11437 C 1154.84 -0.122074 -1.73571 0
M  V30 11438 O 1156.02 -0.339176 -1.98523 0
M  V30 11439 C 1153.09 -0.90876 -3.34578 0
M  V30 11440 C 1152.15 -2.07779 -3.75668 0
M  V30 11441 C 1151.38 -1.79599 -5.02573 0
M  V30 11442 O 1151.6 -0.729338 -5.65718 0
M  V30 11443 O 1150.54 -2.65169 -5.40341 0
M  V30 11444 H 1154.36 -2.16207 -2.13279 0
M  V30 11445 H 1151.95 -1.10871 -1.00139 0
M  V30 11446 H 1153.83 -0.759469 -4.145 0
M  V30 11447 H 1152.5 0.0187249 -3.23695 0
M  V30 11448 H 1151.41 -2.28247 -2.96402 0
M  V30 11449 H 1152.74 -2.9874 -3.91172 0
M  V30 11450 N 1154.4 1.08748 -1.14068 0
M  V30 11451 C 1155.31 2.19123 -0.837998 0
M  V30 11452 C 1156.32 1.73065 0.180164 0
M  V30 11453 O 1157.5 2.01398 0.00952285 0
M  V30 11454 C 1154.56 3.45257 -0.316 0
M  V30 11455 C 1153.62 4.05959 -1.39628 0
M  V30 11456 C 1152.86 5.26072 -0.899095 0
M  V30 11457 O 1153.08 5.69804 0.260744 0
M  V30 11458 O 1152.01 5.7808 -1.67652 0
M  V30 11459 H 1155.84 2.4748 -1.76033 0
M  V30 11460 H 1153.43 1.17816 -0.918675 0
M  V30 11461 H 1155.31 4.21389 -0.0306425 0
M  V30 11462 H 1153.98 3.18486 0.578654 0
M  V30 11463 H 1152.89 3.31432 -1.73505 0
M  V30 11464 H 1154.22 4.36971 -2.26533 0
M  V30 11465 N 1155.87 0.935264 1.26849 0
M  V30 11466 C 1157.12 0.578545 1.93642 0
M  V30 11467 C 1157.44 -0.884296 1.73796 0
M  V30 11468 O 1156.71 -1.62768 1.09011 0
M  V30 11469 H 1155.29 0.210976 0.716588 0
M  V30 11470 H 1157.96 1.1893 1.54407 0
M  V30 11471 H 1157.05 0.791268 3.01903 0
M  V30 11472 N 1157.35 -1.41121 0.701616 0
M  V30 11473 C 1158.32 -2.29148 0.0490091 0
M  V30 11474 C 1159.32 -1.44679 -0.701763 0
M  V30 11475 O 1160.51 -1.65757 -0.53575 0
M  V30 11476 C 1157.64 -3.2766 -0.940837 0
M  V30 11477 H 1158.83 -2.88354 0.824133 0
M  V30 11478 H 1156.38 -1.49209 0.465457 0
M  V30 11479 H 1157.12 -2.73445 -1.74351 0
M  V30 11480 H 1156.9 -3.89997 -0.405551 0
M  V30 11481 H 1158.39 -3.93609 -1.39507 0
M  V30 11482 N 1158.83 -0.446794 -1.51134 0
M  V30 11483 C 1160.25 -0.0995905 -1.59289 0
M  V30 11484 C 1160.45 1.39191 -1.45699 0
M  V30 11485 O 1159.5 2.1628 -1.30303 0
M  V30 11486 C 1160.82 -0.628135 -2.94066 0
M  V30 11487 C 1162.36 -0.589409 -3.074 0
M  V30 11488 C 1162.84 -1.09509 -4.44715 0
M  V30 11489 N 1164.33 -1.05347 -4.51061 0
M  V30 11490 C 1165.06 -1.41551 -5.55654 0
M  V30 11491 N 1164.56 -1.85086 -6.67619 0
M  V30 11492 N 1166.35 -1.33307 -5.46064 0
M  V30 11493 H 1158.5 -1.41713 -1.58213 0
M  V30 11494 H 1160.77 -0.584555 -0.746324 0
M  V30 11495 H 1160.47 -1.67205 -3.09411 0
M  V30 11496 H 1160.35 -0.0582398 -3.77155 0
M  V30 11497 H 1162.73 0.445541 -2.91717 0
M  V30 11498 H 1162.82 -1.19582 -2.26128 0
M  V30 11499 H 1162.46 -2.12855 -4.61146 0
M  V30 11500 H 1162.39 -0.465122 -5.24542 0
M  V30 11501 H 1164.88 -0.733877 -3.70706 0
M  V30 11502 H 1165.19 -2.10923 -7.43459 0
M  V30 11503 H 1163.54 -1.8902 -6.68802 0
M  V30 11504 H 1166.73 -0.991547 -4.57478 0
M  V30 11505 H 1166.9 -1.6185 -6.27462 0
M  V30 11506 N 1160.31 1.56586 -0.178487 0
M  V30 11507 C 1161.26 2.1491 0.761432 0
M  V30 11508 C 1162.24 1.08528 1.18788 0
M  V30 11509 O 1163.43 1.34633 1.14904 0
M  V30 11510 C 1160.56 2.79902 1.98771 0
M  V30 11511 C 1159.65 3.93452 1.58293 0
M  V30 11512 N 1160.04 4.97942 0.888124 0
M  V30 11513 C 1158.34 4.04745 1.87343 0
M  V30 11514 C 1159.04 5.7762 0.68772 0
M  V30 11515 N 1158.02 5.2947 1.23136 0
M  V30 11516 H 1161.82 2.93063 0.221693 0
M  V30 11517 H 1159.33 1.62385 0.0219283 0
M  V30 11518 H 1161.33 3.20067 2.67138 0
M  V30 11519 H 1159.99 2.03232 2.53233 0
M  V30 11520 H 1161 5.1502 0.545387 0
M  V30 11521 H 1157.68 3.39186 2.43432 0
M  V30 11522 H 1159.07 6.71759 0.13775 0
M  V30 11523 N 1161.79 -0.095206 1.57312 0
M  V30 11524 C 1162.72 -1.14173 1.98739 0
M  V30 11525 C 1163.73 -1.36323 0.889934 0
M  V30 11526 O 1164.92 -1.34977 1.16805 0
M  V30 11527 C 1162.02 -2.49729 2.29104 0
M  V30 11528 C 1161.19 -2.47857 3.60396 0
M  V30 11529 C 1160.25 -3.65341 3.78699 0
M  V30 11530 O 1159.28 -3.47837 4.50553 0
M  V30 11531 N 1160.48 -4.84818 3.19268 0
M  V30 11532 H 1163.25 -0.789126 2.89124 0
M  V30 11533 H 1160.81 -0.284187 1.59386 0
M  V30 11534 H 1162.8 -3.26925 2.38541 0
M  V30 11535 H 1161.37 -2.7708 1.44726 0
M  V30 11536 H 1160.59 -1.56208 3.61929 0
M  V30 11537 H 1161.88 -2.43685 4.46649 0
M  V30 11538 H 1161.27 -5.01943 2.60902 0
M  V30 11539 H 1159.83 -5.59607 3.34191 0
M  V30 11540 N 1163.26 -1.53291 -0.366026 0
M  V30 11541 C 1164.21 -1.76077 -1.44847 0
M  V30 11542 C 1165.2 -0.615302 -1.4867 0
M  V30 11543 O 1166.39 -0.873952 -1.53919 0
M  V30 11544 C 1163.52 -1.95371 -2.82286 0
M  V30 11545 C 1162.61 -3.15918 -2.82943 0
M  V30 11546 N 1163 -4.37835 -2.53247 0
M  V30 11547 C 1161.29 -3.16631 -3.14103 0
M  V30 11548 C 1162 -5.19573 -2.6157 0
M  V30 11549 N 1160.97 -4.55773 -2.96263 0
M  V30 11550 H 1164.77 -2.67949 -1.2075 0
M  V30 11551 H 1162.29 -1.5191 -0.574206 0
M  V30 11552 H 1164.28 -2.09823 -3.6025 0
M  V30 11553 H 1162.94 -1.04727 -3.07347 0
M  V30 11554 H 1163.96 -4.65575 -2.26848 0
M  V30 11555 H 1160.63 -2.35878 -3.44482 0
M  V30 11556 H 1162.02 -6.26821 -2.41961 0
M  V30 11557 N 1164.74 0.6258 -1.44643 0
M  V30 11558 C 1165.67 1.74858 -1.54748 0
M  V30 11559 C 1166.65 1.65327 -0.400138 0
M  V30 11560 O 1167.84 1.84005 -0.620948 0
M  V30 11561 C 1164.97 3.13408 -1.49643 0
M  V30 11562 C 1163.92 3.37733 -2.62908 0
M  V30 11563 C 1163.25 4.76367 -2.42855 0
M  V30 11564 C 1164.55 3.29771 -4.05029 0
M  V30 11565 H 1166.24 1.66658 -2.48728 0
M  V30 11566 H 1163.79 0.800363 -1.19709 0
M  V30 11567 H 1165.74 3.91735 -1.55312 0
M  V30 11568 H 1164.47 3.22404 -0.521824 0
M  V30 11569 H 1163.12 2.61788 -2.56637 0
M  V30 11570 H 1162.77 4.82074 -1.43575 0
M  V30 11571 H 1162.47 4.936 -3.18799 0
M  V30 11572 H 1164 5.56917 -2.50351 0
M  V30 11573 H 1165.41 3.97996 -4.12641 0
M  V30 11574 H 1163.81 3.58538 -4.81218 0
M  V30 11575 H 1164.88 2.27493 -4.28223 0
M  V30 11576 N 1166.22 1.31629 0.866686 0
M  V30 11577 C 1167.64 1.10358 1.15296 0
M  V30 11578 C 1167.84 -0.123807 2.01119 0
M  V30 11579 O 1166.89 -0.81219 2.39081 0
M  V30 11580 C 1168.21 2.37684 1.84193 0
M  V30 11581 C 1169.75 2.43326 1.9688 0
M  V30 11582 C 1170.23 3.70541 2.69191 0
M  V30 11583 N 1171.72 3.71454 2.76724 0
M  V30 11584 C 1172.45 4.66585 3.33295 0
M  V30 11585 N 1171.95 5.72075 3.90771 0
M  V30 11586 N 1173.74 4.541 3.31284 0
M  V30 11587 H 1165.89 2.10343 0.29487 0
M  V30 11588 H 1168.16 0.928096 0.193239 0
M  V30 11589 H 1167.86 3.27352 1.28582 0
M  V30 11590 H 1167.74 2.47731 2.84445 0
M  V30 11591 H 1170.12 1.54124 2.51654 0
M  V30 11592 H 1170.21 2.3724 0.956596 0
M  V30 11593 H 1169.85 4.60111 2.15083 0
M  V30 11594 H 1169.78 3.73894 3.70825 0
M  V30 11595 H 1172.27 2.952 2.35936 0
M  V30 11596 H 1172.58 6.40738 4.32058 0
M  V30 11597 H 1170.93 5.75844 3.89138 0
M  V30 11598 H 1174.12 3.70861 2.85622 0
M  V30 11599 H 1174.29 5.28416 3.75074 0
M  V30 11600 N 1167.7 -1.08142 1.14644 0
M  V30 11601 C 1168.63 -2.17139 0.858667 0
M  V30 11602 C 1169.61 -1.69064 -0.187452 0
M  V30 11603 O 1170.8 -1.94151 -0.0435458 0
M  V30 11604 C 1167.93 -3.45648 0.33834 0
M  V30 11605 C 1166.88 -4.07129 1.32021 0
M  V30 11606 C 1166.21 -5.30623 0.659075 0
M  V30 11607 C 1167.51 -4.48095 2.68343 0
M  V30 11608 H 1169.2 -2.41468 1.77012 0
M  V30 11609 H 1166.75 -1.16052 0.852523 0
M  V30 11610 H 1168.7 -4.21216 0.124611 0
M  V30 11611 H 1167.42 -3.2088 -0.608553 0
M  V30 11612 H 1166.08 -3.33596 1.52016 0
M  V30 11613 H 1165.73 -5.02142 -0.293711 0
M  V30 11614 H 1165.43 -5.72714 1.31427 0
M  V30 11615 H 1166.95 -6.08903 0.454933 0
M  V30 11616 H 1168.37 -5.14828 2.5224 0
M  V30 11617 H 1166.76 -5.01113 3.30161 0
M  V30 11618 H 1167.83 -3.59852 3.25015 0
M  V30 11619 N 1169.18 -0.941978 -1.26351 0
M  V30 11620 C 1170.4 -0.606231 -1.98342 0
M  V30 11621 C 1170.83 0.812014 -1.6967 0
M  V30 11622 O 1170.19 1.54712 -0.9452 0
M  V30 11623 C 1170.23 -0.855864 -3.50296 0
M  V30 11624 O 1169.34 0.0716251 -4.12338 0
M  V30 11625 H 1168.68 -0.231815 -0.62222 0
M  V30 11626 H 1171.21 -1.26513 -1.60797 0
M  V30 11627 H 1171.22 -0.777079 -4.00531 0
M  V30 11628 H 1169.89 -1.8896 -3.70496 0
M  V30 11629 H 1168.47 -0.0582866 -3.72854 0
M  V30 11630 N 1170.66 1.40747 -0.709091 0
M  V30 11631 C 1171.88 2.05319 -0.255258 0
M  V30 11632 C 1172.3 1.53406 1.10054 0
M  V30 11633 O 1171.66 0.687905 1.69039 0
M  V30 11634 C 1171.71 3.60835 -0.219251 0
M  V30 11635 O 1171.43 4.1083 -1.52151 0
M  V30 11636 C 1172.93 4.42572 0.253927 0
M  V30 11637 H 1170.15 0.660904 -0.115959 0
M  V30 11638 H 1172.69 1.80274 -0.965474 0
M  V30 11639 H 1170.85 3.84872 0.441882 0
M  V30 11640 H 1171.26 5.04979 -1.41764 0
M  V30 11641 H 1172.74 5.51529 0.22798 0
M  V30 11642 H 1173.21 4.19673 1.29504 0
M  V30 11643 H 1173.82 4.23629 -0.376694 0
M  V30 11644 N 1172.13 0.454803 1.50895 0
M  V30 11645 C 1173.36 -0.106259 2.07128 0
M  V30 11646 C 1173.78 -1.3418 1.31823 0
M  V30 11647 O 1173.14 -1.77667 0.361147 0
M  V30 11648 C 1173.19 -0.389609 3.58489 0
M  V30 11649 O 1172.29 -1.47305 3.85195 0
M  V30 11650 H 1171.63 0.00580588 0.663975 0
M  V30 11651 H 1174.16 0.641163 1.94294 0
M  V30 11652 H 1174.17 -0.634934 4.03029 0
M  V30 11653 H 1172.85 0.513338 4.1272 0
M  V30 11654 H 1171.43 -1.21631 3.52506 0
M  V30 11655 N 1173.61 -1.56489 0.186789 0
M  V30 11656 C 1174.84 -2.02163 -0.463126 0
M  V30 11657 C 1175.26 -1.06612 -1.54969 0
M  V30 11658 O 1174.62 -0.0482139 -1.81236 0
M  V30 11659 C 1174.67 -3.46337 -1.00416 0
M  V30 11660 O 1173.77 -3.53889 -2.11747 0
M  V30 11661 H 1173.11 -0.65496 -0.109194 0
M  V30 11662 H 1175.64 -2.02459 0.295227 0
M  V30 11663 H 1175.65 -3.85959 -1.32287 0
M  V30 11664 H 1174.33 -4.15376 -0.208693 0
M  V30 11665 H 1172.9 -3.26136 -1.80803 0
M  V30 11666 N 1175.09 0.086862 -1.5736 0
M  V30 11667 C 1176.34 0.787281 -1.86135 0
M  V30 11668 C 1176.66 1.78866 -0.776667 0
M  V30 11669 O 1175.93 1.94915 0.19625 0
M  V30 11670 H 1174.51 0.293744 -0.686821 0
M  V30 11671 H 1177.17 0.0665326 -1.94786 0
M  V30 11672 H 1176.27 1.3128 -2.83147 0
M  V30 11673 N 1176.57 1.53483 0.357892 0
M  V30 11674 C 1177.98 1.43426 0.700073 0
M  V30 11675 C 1178.18 0.579493 1.92987 0
M  V30 11676 O 1177.24 0.0649086 2.52417 0
M  V30 11677 C 1178.55 2.86723 0.906099 0
M  V30 11678 C 1180.1 2.96405 1.00563 0
M  V30 11679 C 1180.58 4.4078 1.24407 0
M  V30 11680 N 1182.07 4.44243 1.3116 0
M  V30 11681 C 1182.8 5.53069 1.51333 0
M  V30 11682 N 1182.3 6.71928 1.68774 0
M  V30 11683 N 1184.09 5.40659 1.53765 0
M  V30 11684 H 1176.24 2.07559 -0.450894 0
M  V30 11685 H 1178.5 0.937649 -0.139711 0
M  V30 11686 H 1178.21 3.51622 0.0741579 0
M  V30 11687 H 1178.08 3.30827 1.81199 0
M  V30 11688 H 1180.47 2.31656 1.8281 0
M  V30 11689 H 1180.55 2.55684 0.0769512 0
M  V30 11690 H 1180.2 5.06105 0.426575 0
M  V30 11691 H 1180.13 4.7908 2.18608 0
M  V30 11692 H 1182.62 3.58587 1.19265 0
M  V30 11693 H 1182.93 7.50634 1.83762 0
M  V30 11694 H 1181.28 6.749 1.65937 0
M  V30 11695 H 1184.47 4.46764 1.39713 0
M  V30 11696 H 1184.64 6.25535 1.69146 0
M  V30 11697 N 1178.05 -0.61812 1.44973 0
M  V30 11698 C 1178.98 -1.74035 1.55673 0
M  V30 11699 C 1179.96 -1.65112 0.4089 0
M  V30 11700 O 1181.14 -1.83673 0.630698 0
M  V30 11701 C 1178.27 -3.1261 1.51303 0
M  V30 11702 C 1177.23 -3.36334 2.64696 0
M  V30 11703 C 1176.55 -4.75072 2.45378 0
M  V30 11704 C 1177.85 -3.27618 4.06772 0
M  V30 11705 H 1179.55 -1.65336 2.49608 0
M  V30 11706 H 1177.09 -0.794003 1.20132 0
M  V30 11707 H 1179.04 -3.90906 1.57388 0
M  V30 11708 H 1177.77 -3.22123 0.538914 0
M  V30 11709 H 1176.43 -2.60423 2.58022 0
M  V30 11710 H 1176.08 -4.81306 1.46129 0
M  V30 11711 H 1175.78 -4.91903 3.21412 0
M  V30 11712 H 1177.3 -5.55582 2.53301 0
M  V30 11713 H 1178.71 -3.95802 4.14746 0
M  V30 11714 H 1177.11 -3.55981 4.83113 0
M  V30 11715 H 1178.18 -2.25219 4.29423 0
M  V30 11716 N 1179.52 -1.32087 -0.859693 0
M  V30 11717 C 1180.45 -1.23204 -1.98351 0
M  V30 11718 C 1181.43 -0.116974 -1.69697 0
M  V30 11719 O 1182.62 -0.303301 -1.91817 0
M  V30 11720 C 1179.75 -0.949171 -3.34078 0
M  V30 11721 C 1178.7 -2.02493 -3.77069 0
M  V30 11722 C 1178.03 -1.59455 -5.1037 0
M  V30 11723 C 1179.33 -3.43934 -3.93074 0
M  V30 11724 H 1181.02 -2.17227 -2.0604 0
M  V30 11725 H 1178.57 -1.04577 -0.989931 0
M  V30 11726 H 1180.52 -0.873594 -4.12245 0
M  V30 11727 H 1179.25 0.0267095 -3.26589 0
M  V30 11728 H 1177.91 -2.09057 -3.01149 0
M  V30 11729 H 1177.55 -0.606256 -4.99333 0
M  V30 11730 H 1177.25 -2.31429 -5.40106 0
M  V30 11731 H 1178.78 -1.53325 -5.91036 0
M  V30 11732 H 1180.19 -3.39986 -4.61608 0
M  V30 11733 H 1178.59 -4.14214 -4.3422 0
M  V30 11734 H 1179.66 -3.83965 -2.9614 0
M  V30 11735 N 1181 1.07532 -1.15215 0
M  V30 11736 C 1182.23 1.8355 -0.94831 0
M  V30 11737 C 1182.64 1.82289 0.506701 0
M  V30 11738 O 1181.98 1.23142 1.36314 0
M  V30 11739 C 1182.04 3.31834 -1.38298 0
M  V30 11740 C 1181.71 3.56818 -2.85535 0
M  V30 11741 C 1182.71 3.50915 -3.83608 0
M  V30 11742 C 1180.39 3.84543 -3.23159 0
M  V30 11743 C 1182.38 3.72382 -5.17311 0
M  V30 11744 C 1180.07 4.05662 -4.57036 0
M  V30 11745 C 1181.07 3.99576 -5.53921 0
M  V30 11746 O 1180.76 4.20132 -6.85379 0
M  V30 11747 H 1180.49 0.586014 -0.336992 0
M  V30 11748 H 1183.04 1.36656 -1.53344 0
M  V30 11749 H 1181.27 3.79529 -0.741244 0
M  V30 11750 H 1182.96 3.89312 -1.14853 0
M  V30 11751 H 1183.73 3.295 -3.55886 0
M  V30 11752 H 1179.61 3.88395 -2.48335 0
M  V30 11753 H 1183.15 3.67547 -5.92921 0
M  V30 11754 H 1179.05 4.26563 -4.84473 0
M  V30 11755 H 1179.82 4.3749 -6.91769 0
M  V30 11756 N 1182.48 0.948665 1.2585 0
M  V30 11757 C 1183.44 0.468673 2.24357 0
M  V30 11758 C 1184.44 -0.424355 1.551 0
M  V30 11759 O 1185.63 -0.222481 1.72773 0
M  V30 11760 C 1182.77 -0.32359 3.39361 0
M  V30 11761 H 1183.96 1.33928 2.68334 0
M  V30 11762 H 1181.51 0.731357 1.38133 0
M  V30 11763 H 1182.25 -1.21212 3.00796 0
M  V30 11764 H 1182.03 0.316998 3.90816 0
M  V30 11765 H 1183.52 -0.649087 4.12525 0
M  V30 11766 N 1183.96 -1.40369 0.716545 0
M  V30 11767 C 1184.92 -2.29083 0.0733105 0
M  V30 11768 C 1185.92 -1.45415 -0.686378 0
M  V30 11769 O 1187.11 -1.66316 -0.518139 0
M  V30 11770 C 1184.24 -3.28639 -0.906032 0
M  V30 11771 H 1185.44 -2.87464 0.85467 0
M  V30 11772 H 1182.99 -1.48706 0.481256 0
M  V30 11773 H 1183.72 -2.75279 -1.71441 0
M  V30 11774 H 1183.51 -3.90405 -0.364163 0
M  V30 11775 H 1185 -3.95066 -1.35324 0
M  V30 11776 N 1185.44 -0.462799 -1.50652 0
M  V30 11777 C 1186.66 0.0929761 -2.06691 0
M  V30 11778 C 1187.08 1.34241 -1.32758 0
M  V30 11779 O 1186.44 1.78187 -0.394427 0
M  V30 11780 C 1186.49 0.389492 -3.59396 0
M  V30 11781 O 1186.21 -0.810379 -4.3054 0
M  V30 11782 C 1187.71 0.993147 -4.32032 0
M  V30 11783 H 1184.93 -0.00338664 -0.670991 0
M  V30 11784 H 1187.47 -0.649201 -1.93922 0
M  V30 11785 H 1185.63 1.08159 -3.71995 0
M  V30 11786 H 1186.04 -0.54996 -5.21609 0
M  V30 11787 H 1187.52 1.15044 -5.39878 0
M  V30 11788 H 1187.99 1.98106 -3.91983 0
M  V30 11789 H 1188.6 0.339677 -4.23941 0
M  V30 11790 N 1186.91 1.56388 -0.195085 0
M  V30 11791 C 1187.88 2.17859 0.712053 0
M  V30 11792 C 1188.88 1.13304 1.141 0
M  V30 11793 O 1190.07 1.38689 1.05409 0
M  V30 11794 C 1187.2 2.78065 1.97213 0
M  V30 11795 H 1188.39 2.9938 0.176529 0
M  V30 11796 H 1185.95 1.56205 0.0545322 0
M  V30 11797 H 1186.68 2.00342 2.55017 0
M  V30 11798 H 1186.47 3.54603 1.67329 0
M  V30 11799 H 1187.96 3.25266 2.619 0
M  V30 11800 N 1188.39 -0.0785156 1.57404 0
M  V30 11801 C 1189.67 -0.811557 1.77969 0
M  V30 11802 C 1190.05 -1.96123 0.780966 0
M  V30 11803 O 1189.4 -2.27731 -0.18726 0
M  V30 11804 C 1189.61 -1.29075 3.24254 0
M  V30 11805 C 1190.96 -1.72685 3.87898 0
M  V30 11806 O 1191.98 -1.38658 3.28104 0
M  V30 11807 O 1190.84 -2.3566 4.93079 0
M  V30 11808 H 1187.93 -0.388361 0.73014 0
M  V30 11809 H 1190.48 -0.0591118 1.69597 0
M  V30 11810 H 1189.25 -0.467813 3.88494 0
M  V30 11811 H 1188.87 -2.10472 3.37324 0
M  V30 11812 N 1189.87 -1.5367 -0.349747 0
M  V30 11813 C 1191.15 -1.61238 -1.10732 0
M  V30 11814 C 1191.53 -0.429756 -2.06679 0
M  V30 11815 O 1190.88 0.578564 -2.21054 0
M  V30 11816 C 1191.09 -2.97022 -1.83245 0
M  V30 11817 C 1192.43 -3.52158 -2.37212 0
M  V30 11818 O 1193.46 -2.99156 -1.9335 0
M  V30 11819 O 1192.32 -4.44853 -3.1744 0
M  V30 11820 H 1189.41 -0.65191 -0.508864 0
M  V30 11821 H 1191.96 -1.66015 -0.351738 0
M  V30 11822 H 1190.73 -3.74535 -1.13311 0
M  V30 11823 H 1190.35 -2.95808 -2.65675 0
M  V30 11824 N 1191.35 0.610423 -1.45298 0
M  V30 11825 C 1192.57 1.40112 -1.52917 0
M  V30 11826 C 1193 1.87404 -0.161696 0
M  V30 11827 O 1192.36 1.59973 0.853135 0
M  V30 11828 C 1192.4 2.58359 -2.51561 0
M  V30 11829 O 1191.51 3.58895 -2.03146 0
M  V30 11830 H 1190.85 0.41841 -0.515586 0
M  V30 11831 H 1193.38 0.743159 -1.90626 0
M  V30 11832 H 1193.39 3.0564 -2.70275 0
M  V30 11833 H 1192.06 2.23286 -3.50879 0
M  V30 11834 H 1190.64 3.18282 -1.94296 0
M  V30 11835 N 1192.83 1.32541 0.852676 0
M  V30 11836 C 1194.05 1.2636 1.64462 0
M  V30 11837 C 1194.48 -0.16508 1.87374 0
M  V30 11838 O 1193.83 -1.11712 1.42794 0
M  V30 11839 C 1193.88 2.03052 2.97997 0
M  V30 11840 O 1192.99 1.37967 3.88637 0
M  V30 11841 H 1192.33 0.435393 0.501327 0
M  V30 11842 H 1194.86 1.74888 1.06186 0
M  V30 11843 H 1194.87 2.133 3.47803 0
M  V30 11844 H 1193.54 3.06941 2.80642 0
M  V30 11845 H 1192.12 1.36279 3.47106 0
M  V30 11846 N 1194.3 -1.0692 1.15784 0
M  V30 11847 C 1195.53 -1.83849 0.959903 0
M  V30 11848 C 1195.95 -1.8169 -0.486873 0
M  V30 11849 O 1195.31 -1.21305 -1.34739 0
M  V30 11850 C 1195.36 -3.28642 1.48414 0
M  V30 11851 O 1194.46 -4.0665 0.686249 0
M  V30 11852 H 1193.81 -0.569115 0.342059 0
M  V30 11853 H 1196.34 -1.34851 1.53871 0
M  V30 11854 H 1196.35 -3.7947 1.49888 0
M  V30 11855 H 1195.02 -3.29529 2.53739 0
M  V30 11856 H 1193.6 -3.65453 0.741501 0
M  V30 11857 N 1195.78 -0.955326 -1.25345 0
M  V30 11858 C 1197.01 -0.627233 -1.97688 0
M  V30 11859 C 1197.43 0.793973 -1.70522 0
M  V30 11860 O 1196.79 1.537 -0.961556 0
M  V30 11861 C 1196.84 -0.892969 -3.49369 0
M  V30 11862 O 1195.94 0.0278871 -4.12391 0
M  V30 11863 H 1195.28 -0.238402 -0.619726 0
M  V30 11864 H 1197.81 -1.28211 -1.59446 0
M  V30 11865 H 1197.82 -0.819517 -3.99685 0
M  V30 11866 H 1196.5 -1.92879 -3.6847 0
M  V30 11867 H 1195.08 -0.0978295 -3.72772 0
M  V30 11868 N 1197.26 1.39987 -0.723979 0
M  V30 11869 C 1198.49 2.05037 -0.27702 0
M  V30 11870 C 1198.9 1.54565 1.08421 0
M  V30 11871 O 1198.26 0.705795 1.683 0
M  V30 11872 C 1198.31 3.60582 -0.25751 0
M  V30 11873 O 1198.03 4.09194 -1.565 0
M  V30 11874 C 1199.53 4.42817 0.206972 0
M  V30 11875 H 1196.75 0.659637 -0.122963 0
M  V30 11876 H 1199.3 1.7924 -0.98454 0
M  V30 11877 H 1197.45 3.85319 0.401037 0
M  V30 11878 H 1197.87 5.03447 -1.47112 0
M  V30 11879 H 1199.34 5.5174 0.16947 0
M  V30 11880 H 1199.82 4.21023 1.25045 0
M  V30 11881 H 1200.42 4.23205 -0.421604 0
M  V30 11882 N 1198.74 0.470782 1.50404 0
M  V30 11883 C 1199.96 -0.084284 2.07229 0
M  V30 11884 C 1200.39 -1.32774 1.33239 0
M  V30 11885 O 1199.75 -1.77274 0.379971 0
M  V30 11886 C 1199.8 -0.351565 3.58882 0
M  V30 11887 O 1198.9 -1.43211 3.86736 0
M  V30 11888 H 1198.24 0.0128479 0.663876 0
M  V30 11889 H 1200.77 0.661735 1.93603 0
M  V30 11890 H 1200.78 -0.592151 4.0368 0
M  V30 11891 H 1199.46 0.557084 4.12152 0
M  V30 11892 H 1198.03 -1.17886 3.53776 0
M  V30 11893 N 1200.22 -1.56282 0.203376 0
M  V30 11894 C 1201.44 -2.02643 -0.441658 0
M  V30 11895 C 1201.87 -1.0825 -1.5383 0
M  V30 11896 O 1201.23 -0.0674337 -1.81175 0
M  V30 11897 C 1201.27 -3.47382 -0.967369 0
M  V30 11898 O 1200.38 -3.56115 -2.07981 0
M  V30 11899 H 1199.72 -0.656081 -0.102242 0
M  V30 11900 H 1202.25 -2.02134 0.316684 0
M  V30 11901 H 1202.26 -3.8734 -1.28186 0
M  V30 11902 H 1200.93 -4.15574 -0.164625 0
M  V30 11903 H 1199.51 -3.28035 -1.77334 0
M  V30 11904 N 1201.7 0.070167 -1.57444 0
M  V30 11905 C 1202.97 0.802108 -1.78397 0
M  V30 11906 C 1203.35 1.95706 -0.791356 0
M  V30 11907 O 1202.7 2.27827 0.17518 0
M  V30 11908 C 1202.91 1.27354 -3.24934 0
M  V30 11909 C 1204.26 1.70626 -3.88808 0
M  V30 11910 O 1205.28 1.36916 -3.28835 0
M  V30 11911 O 1204.14 2.33041 -4.94322 0
M  V30 11912 H 1201.24 0.384483 -0.73219 0
M  V30 11913 H 1203.78 0.0501168 -1.69626 0
M  V30 11914 H 1202.55 0.447204 -3.88736 0
M  V30 11915 H 1202.18 2.0868 -3.38435 0
M  V30 11916 N 1203.17 1.53854 0.341593 0
M  V30 11917 C 1204.4 1.75447 1.10604 0
M  V30 11918 C 1204.82 0.493225 1.81518 0
M  V30 11919 O 1204.18 -0.554253 1.7262 0
M  V30 11920 C 1204.23 2.93593 2.09369 0
M  V30 11921 O 1203.33 2.63878 3.16926 0
M  V30 11922 H 1202.67 0.581923 0.319783 0
M  V30 11923 H 1205.2 2.00822 0.391388 0
M  V30 11924 H 1205.21 3.20437 2.52556 0
M  V30 11925 H 1203.89 3.85067 1.57151 0
M  V30 11926 H 1202.47 2.47929 2.78542 0
M  V30 11927 N 1204.65 -0.602709 1.4562 0
M  V30 11928 C 1205.58 -1.72374 1.5751 0
M  V30 11929 C 1206.56 -1.64669 0.426389 0
M  V30 11930 O 1207.75 -1.82994 0.650143 0
M  V30 11931 C 1204.88 -3.10987 1.5461 0
M  V30 11932 C 1203.83 -3.33507 2.68248 0
M  V30 11933 C 1203.16 -4.72443 2.50403 0
M  V30 11934 C 1204.46 -3.23285 4.10224 0
M  V30 11935 H 1206.15 -1.62679 2.51348 0
M  V30 11936 H 1203.7 -0.781217 1.20967 0
M  V30 11937 H 1205.65 -3.89214 1.61525 0
M  V30 11938 H 1204.37 -3.21533 0.573049 0
M  V30 11939 H 1203.03 -2.57672 2.60769 0
M  V30 11940 H 1202.68 -4.79729 1.51226 0
M  V30 11941 H 1202.38 -4.88466 3.26611 0
M  V30 11942 H 1203.91 -5.52864 2.59179 0
M  V30 11943 H 1205.32 -3.91381 4.1892 0
M  V30 11944 H 1203.72 -3.50837 4.86861 0
M  V30 11945 H 1204.79 -2.20652 4.31788 0
M  V30 11946 N 1206.13 -1.32992 -0.845635 0
M  V30 11947 C 1207.38 -1.2382 -1.59728 0
M  V30 11948 C 1207.7 0.197724 -1.93995 0
M  V30 11949 O 1206.97 1.12477 -1.60392 0
M  V30 11950 H 1205.55 -0.455296 -0.592212 0
M  V30 11951 H 1208.21 -1.66627 -1.01101 0
M  V30 11952 H 1207.31 -1.82717 -2.53023 0
M  V30 11953 N 1207.61 1.06304 -1.1635 0
M  V30 11954 C 1208.86 1.78747 -0.943074 0
M  V30 11955 C 1209.18 1.87646 0.530483 0
M  V30 11956 O 1208.45 1.38506 1.38538 0
M  V30 11957 H 1207.03 0.662072 -0.345932 0
M  V30 11958 H 1209.69 1.28413 -1.46615 0
M  V30 11959 H 1208.78 2.80828 -1.3617 0
M  V30 11960 N 1209.09 0.96196 1.24836 0
M  V30 11961 C 1210.33 0.619489 1.92371 0
M  V30 11962 C 1210.65 -0.847233 1.75633 0
M  V30 11963 O 1209.92 -1.60419 1.12439 0
M  V30 11964 H 1208.5 0.226129 0.711951 0
M  V30 11965 H 1211.17 1.22179 1.5185 0
M  V30 11966 H 1210.26 0.855128 3.00157 0
M  V30 11967 N 1210.56 -1.39601 0.731392 0
M  V30 11968 C 1211.79 -2.0459 0.287472 0
M  V30 11969 C 1212.2 -1.5525 -1.08139 0
M  V30 11970 O 1211.54 -0.710949 -1.69385 0
M  V30 11971 C 1211.61 -3.58904 0.206948 0
M  V30 11972 C 1211.27 -4.31204 1.51368 0
M  V30 11973 C 1212.27 -4.58088 2.45869 0
M  V30 11974 C 1209.95 -4.69818 1.77698 0
M  V30 11975 C 1211.95 -5.22591 3.64935 0
M  V30 11976 C 1209.63 -5.34049 2.97043 0
M  V30 11977 C 1210.63 -5.60368 3.90483 0
M  V30 11978 O 1210.32 -6.23268 5.07732 0
M  V30 11979 H 1210.05 -0.664515 0.12408 0
M  V30 11980 H 1212.61 -1.79701 0.994814 0
M  V30 11981 H 1210.84 -3.82675 -0.556466 0
M  V30 11982 H 1212.52 -4.05385 -0.204498 0
M  V30 11983 H 1213.29 -4.28706 2.26796 0
M  V30 11984 H 1209.17 -4.48692 1.05815 0
M  V30 11985 H 1212.71 -5.43049 4.37885 0
M  V30 11986 H 1208.61 -5.62852 3.16018 0
M  V30 11987 H 1209.38 -6.41763 5.08019 0
M  V30 11988 N 1212.04 -0.478751 -1.50152 0
M  V30 11989 C 1213.28 0.0722328 -2.04272 0
M  V30 11990 C 1213.65 1.36299 -1.35227 0
M  V30 11991 O 1214.85 1.99683 -1.79945 0
M  V30 11992 C 1213.12 0.24408 -3.56566 0
M  V30 11993 S 1214.68 0.752517 -4.32299 0
M  V30 11994 H 1211.5 0.0123326 -0.710893 0
M  V30 11995 H 1214.1 -0.647641 -1.84461 0
M  V30 11996 H 1212.8 -0.701012 -4.04369 0
M  V30 11997 H 1212.33 0.989845 -3.80744 0
M  V30 11998 H 1214.35 2.02488 -4.53005 0
M  V30 11999 N 1213.52 1.56172 -0.211661 0
M  V30 12000 C 1214.77 1.97648 0.421871 0
M  V30 12001 C 1215.09 1.10026 1.60995 0
M  V30 12002 O 1214.36 0.175109 1.95116 0
M  V30 12003 H 1212.94 0.729914 0.158852 0
M  V30 12004 H 1215.6 1.92542 -0.302254 0
M  V30 12005 H 1214.7 3.02834 0.754868 0
M  V30 12006 N 1215 -0.0618163 1.57479 0
M  V30 12007 C 1215.96 -1.05684 2.0338 0
M  V30 12008 C 1216.96 -1.31006 0.932423 0
M  V30 12009 O 1218.15 -1.26559 1.19702 0
M  V30 12010 C 1215.28 -2.39805 2.42294 0
M  V30 12011 H 1216.48 -0.661006 2.92525 0
M  V30 12012 H 1214.03 -0.307814 1.53239 0
M  V30 12013 H 1214.76 -2.84201 1.56207 0
M  V30 12014 H 1214.55 -2.22764 3.22674 0
M  V30 12015 H 1216.04 -3.11307 2.78349 0
M  V30 12016 N 1216.48 -1.54033 -0.333429 0
M  V30 12017 C 1217.89 -1.44522 -0.677166 0
M  V30 12018 C 1218.09 -0.610122 -1.92041 0
M  V30 12019 O 1217.15 -0.105058 -2.52281 0
M  V30 12020 C 1218.46 -2.88129 -0.860369 0
M  V30 12021 C 1220.01 -2.97968 -0.958342 0
M  V30 12022 C 1220.48 -4.42703 -1.17379 0
M  V30 12023 N 1221.98 -4.46273 -1.24075 0
M  V30 12024 C 1222.71 -5.55407 -1.42515 0
M  V30 12025 N 1222.21 -6.74528 -1.58062 0
M  V30 12026 N 1224 -5.43037 -1.45144 0
M  V30 12027 H 1216.15 -2.06815 0.483858 0
M  V30 12028 H 1218.41 -0.935307 0.15461 0
M  V30 12029 H 1218.12 -3.51695 -0.0182085 0
M  V30 12030 H 1217.99 -3.33668 -1.75913 0
M  V30 12031 H 1220.38 -2.34535 -1.79102 0
M  V30 12032 H 1220.46 -2.55774 -0.0362643 0
M  V30 12033 H 1220.11 -5.0672 -0.346004 0
M  V30 12034 H 1220.04 -4.82498 -2.10959 0
M  V30 12035 H 1222.53 -3.60439 -1.13545 0
M  V30 12036 H 1222.84 -7.53462 -1.71797 0
M  V30 12037 H 1221.18 -6.77454 -1.55179 0
M  V30 12038 H 1224.38 -4.4893 -1.32588 0
M  V30 12039 H 1224.55 -6.28146 -1.59173 0
M  V30 12040 N 1217.95 0.594978 -1.45938 0
M  V30 12041 C 1218.88 1.71536 -1.58422 0
M  V30 12042 C 1219.87 1.64441 -0.435116 0
M  V30 12043 O 1221.05 1.82647 -0.659839 0
M  V30 12044 C 1218.18 3.10163 -1.56257 0
M  V30 12045 C 1217.13 3.3208 -2.70013 0
M  V30 12046 C 1216.46 4.71108 -2.52905 0
M  V30 12047 C 1217.76 3.21105 -4.11933 0
M  V30 12048 H 1219.45 1.61344 -2.52207 0
M  V30 12049 H 1217 0.774791 -1.2138 0
M  V30 12050 H 1218.95 3.88352 -1.63587 0
M  V30 12051 H 1217.68 3.21225 -0.590093 0
M  V30 12052 H 1216.34 2.56286 -2.62132 0
M  V30 12053 H 1215.98 4.7892 -1.53768 0
M  V30 12054 H 1215.68 4.86727 -3.29197 0
M  V30 12055 H 1217.21 5.51482 -2.62107 0
M  V30 12056 H 1218.62 3.89153 -4.2099 0
M  V30 12057 H 1217.02 3.4825 -4.88715 0
M  V30 12058 H 1218.09 2.18359 -4.32952 0
M  V30 12059 N 1219.43 1.33438 0.838571 0
M  V30 12060 C 1220.34 1.25753 1.98049 0
M  V30 12061 C 1221.36 0.168051 1.73187 0
M  V30 12062 O 1222.53 0.391691 1.97554 0
M  V30 12063 C 1219.6 0.997148 3.32051 0
M  V30 12064 C 1218.66 2.17667 3.70027 0
M  V30 12065 C 1217.89 1.92861 4.97635 0
M  V30 12066 O 1218.12 0.879072 5.63585 0
M  V30 12067 O 1217.05 2.79402 5.33121 0
M  V30 12068 H 1220.88 2.21786 2.07472 0
M  V30 12069 H 1218.46 1.13488 0.971645 0
M  V30 12070 H 1220.34 0.869099 4.1234 0
M  V30 12071 H 1219.02 0.0671036 3.2363 0
M  V30 12072 H 1217.93 2.36025 2.90246 0
M  V30 12073 H 1219.26 3.09006 3.83114 0
M  V30 12074 N 1220.91 -1.05686 1.16912 0
M  V30 12075 C 1222.32 -1.60059 0.961153 0
M  V30 12076 C 1222.67 -1.89894 -0.493409 0
M  V30 12077 O 1221.8 -1.67692 -1.36778 0
M  V30 12078 C 1222.39 -2.90803 1.73837 0
M  V30 12079 C 1220.95 -3.41854 1.57522 0
M  V30 12080 C 1220.1 -2.15658 1.74319 0
M  V30 12081 H 1223.05 -0.885592 1.31693 0
M  V30 12082 H 1223.07 -3.60485 1.21781 0
M  V30 12083 H 1222.58 -2.69056 2.79697 0
M  V30 12084 H 1220.68 -3.68647 0.541284 0
M  V30 12085 H 1220.8 -4.16771 2.36302 0
M  V30 12086 H 1219.16 -2.26177 1.17115 0
M  V30 12087 H 1219.94 -1.96386 2.8158 0
M  V30 12088 N 1222.39 -0.968567 -1.24324 0
M  V30 12089 C 1223.61 -0.648166 -1.97012 0
M  V30 12090 C 1224.04 0.775842 -1.71354 0
M  V30 12091 O 1223.4 1.52672 -0.977804 0
M  V30 12092 C 1223.44 -0.929974 -3.48402 0
M  V30 12093 O 1222.55 -0.015854 -4.12397 0
M  V30 12094 H 1221.89 -0.244961 -0.617163 0
M  V30 12095 H 1224.42 -1.29895 -1.58077 0
M  V30 12096 H 1224.43 -0.861863 -3.98793 0
M  V30 12097 H 1223.1 -1.96776 -3.66404 0
M  V30 12098 H 1221.68 -0.137361 -3.72647 0
M  V30 12099 N 1223.87 1.39211 -0.738786 0
M  V30 12100 C 1224.8 2.33209 -0.11647 0
M  V30 12101 C 1225.78 1.54108 0.720056 0
M  V30 12102 O 1226.96 1.82486 0.664264 0
M  V30 12103 C 1224.09 3.38226 0.78872 0
M  V30 12104 C 1223.05 4.27963 0.0560636 0
M  V30 12105 C 1222.37 5.2371 1.07852 0
M  V30 12106 C 1223.67 5.10508 -1.1036 0
M  V30 12107 H 1225.37 2.85501 -0.901649 0
M  V30 12108 H 1222.91 1.37272 -0.435032 0
M  V30 12109 H 1224.87 4.02938 1.23364 0
M  V30 12110 H 1223.59 2.84382 1.60606 0
M  V30 12111 H 1222.25 3.64735 -0.369274 0
M  V30 12112 H 1221.9 4.66161 1.88953 0
M  V30 12113 H 1221.6 5.846 0.593048 0
M  V30 12114 H 1223.12 5.91299 1.52307 0
M  V30 12115 H 1224.53 5.68544 -0.736943 0
M  V30 12116 H 1222.93 5.80558 -1.51895 0
M  V30 12117 H 1224 4.45117 -1.92352 0
M  V30 12118 N 1225.34 0.486708 1.49896 0
M  V30 12119 C 1226.76 0.0353906 1.86666 0
M  V30 12120 C 1227.11 -1.3743 1.40026 0
M  V30 12121 O 1226.23 -2.02163 0.77194 0
M  V30 12122 C 1226.83 0.0574475 3.38751 0
M  V30 12123 C 1225.39 -0.338464 3.74875 0
M  V30 12124 C 1224.53 0.436196 2.73848 0
M  V30 12125 H 1227.48 0.700215 1.42417 0
M  V30 12126 H 1227.5 -0.741175 3.73212 0
M  V30 12127 H 1227.02 1.08356 3.72667 0
M  V30 12128 H 1225.12 -1.36835 3.46565 0
M  V30 12129 H 1225.23 -0.0289519 4.79091 0
M  V30 12130 H 1223.59 -0.112141 2.54453 0
M  V30 12131 H 1224.38 1.46212 3.10608 0
M  V30 12132 N 1226.82 -1.56058 0.219941 0
M  V30 12133 C 1227.77 -2.16853 -0.704185 0
M  V30 12134 C 1228.76 -1.11639 -1.15869 0
M  V30 12135 O 1229.95 -1.37632 -1.11295 0
M  V30 12136 C 1227.08 -2.85073 -1.9128 0
M  V30 12137 C 1226.16 -3.9751 -1.47805 0
M  V30 12138 N 1226.56 -5.00121 -0.755792 0
M  V30 12139 C 1224.85 -4.0957 -1.76546 0
M  V30 12140 C 1225.55 -5.79241 -0.534332 0
M  V30 12141 N 1224.53 -5.32549 -1.09055 0
M  V30 12142 H 1228.33 -2.93547 -0.143914 0
M  V30 12143 H 1225.85 -1.62386 0.021133 0
M  V30 12144 H 1227.84 -3.27037 -2.58558 0
M  V30 12145 H 1226.5 -2.09874 -2.47756 0
M  V30 12146 H 1227.51 -5.16285 -0.408647 0
M  V30 12147 H 1224.19 -3.45521 -2.34353 0
M  V30 12148 H 1225.58 -6.71888 0.0404032 0
M  V30 12149 N 1228.3 0.053464 -1.57509 0
M  V30 12150 C 1229.71 0.603099 -1.76691 0
M  V30 12151 C 1230.06 1.76934 -0.847861 0
M  V30 12152 O 1229.19 2.16369 -0.0364962 0
M  V30 12153 C 1229.78 1.10084 -3.20417 0
M  V30 12154 C 1228.34 1.59618 -3.4088 0
M  V30 12155 C 1227.49 0.523516 -2.72313 0
M  V30 12156 H 1230.44 -0.172751 -1.57757 0
M  V30 12157 H 1230.46 1.9691 -3.25587 0
M  V30 12158 H 1229.97 0.251818 -3.87282 0
M  V30 12159 H 1228.07 2.46786 -2.79155 0
M  V30 12160 H 1228.19 1.6605 -4.49404 0
M  V30 12161 H 1226.55 0.972886 -2.35387 0
M  V30 12162 H 1227.33 -0.315629 -3.41846 0
M  V30 12163 N 1229.78 1.54207 0.325255 0
M  V30 12164 C 1230.73 1.79856 1.40128 0
M  V30 12165 C 1231.71 0.654503 1.46987 0
M  V30 12166 O 1232.91 0.914453 1.51548 0
M  V30 12167 C 1230.03 2.02786 2.77007 0
M  V30 12168 C 1229.12 3.23309 2.74467 0
M  V30 12169 N 1229.51 4.44396 2.41549 0
M  V30 12170 C 1227.81 3.24848 3.05598 0
M  V30 12171 C 1228.51 5.26325 2.47703 0
M  V30 12172 N 1227.49 4.63468 2.84074 0
M  V30 12173 H 1231.29 2.71056 1.13603 0
M  V30 12174 H 1228.8 1.53379 0.533728 0
M  V30 12175 H 1230.8 2.19301 3.5456 0
M  V30 12176 H 1229.46 1.12839 3.04463 0
M  V30 12177 H 1230.47 4.71426 2.14425 0
M  V30 12178 H 1227.15 2.44929 3.38107 0
M  V30 12179 H 1228.54 6.33016 2.25257 0
M  V30 12180 N 1231.26 -0.58723 1.46251 0
M  V30 12181 C 1232.21 -1.69141 1.5289 0
M  V30 12182 C 1233.19 -1.56096 0.39024 0
M  V30 12183 O 1234.38 -1.65087 0.638373 0
M  V30 12184 C 1231.51 -3.07922 1.51785 0
M  V30 12185 C 1230.6 -3.2628 2.70928 0
M  V30 12186 N 1230.99 -3.14815 3.95885 0
M  V30 12187 C 1229.29 -3.57207 2.67056 0
M  V30 12188 C 1229.99 -3.35055 4.75514 0
M  V30 12189 N 1228.96 -3.59999 4.0731 0
M  V30 12190 H 1232.77 -1.588 2.47305 0
M  V30 12191 H 1230.28 -0.791124 1.41827 0
M  V30 12192 H 1232.28 -3.87164 1.54628 0
M  V30 12193 H 1230.94 -3.19397 0.584435 0
M  V30 12194 H 1231.95 -2.92778 4.27202 0
M  V30 12195 H 1228.63 -3.75394 1.82717 0
M  V30 12196 H 1230.02 -3.31412 5.84479 0
M  V30 12197 N 1232.74 -1.33881 -0.831482 0
M  V30 12198 C 1233.67 -1.20587 -1.94914 0
M  V30 12199 C 1234.68 -0.135026 -1.62239 0
M  V30 12200 O 1235.87 -0.386116 -1.74274 0
M  V30 12201 C 1232.97 -0.828712 -3.28612 0
M  V30 12202 C 1232.14 -1.99275 -3.89369 0
M  V30 12203 C 1231.2 -1.59537 -5.01432 0
M  V30 12204 O 1230.23 -2.31076 -5.20185 0
M  V30 12205 N 1231.43 -0.5046 -5.78303 0
M  V30 12206 H 1234.19 -2.16869 -2.06852 0
M  V30 12207 H 1231.76 -1.26723 -1.00761 0
M  V30 12208 H 1233.75 -0.544827 -4.01016 0
M  V30 12209 H 1232.32 0.0436534 -3.1257 0
M  V30 12210 H 1231.54 -2.44185 -3.09463 0
M  V30 12211 H 1232.83 -2.77145 -4.26694 0
M  V30 12212 H 1232.22 0.0903105 -5.65628 0
M  V30 12213 H 1230.78 -0.280415 -6.51197 0
M  V30 12214 N 1234.21 1.05064 -1.1747 0
M  V30 12215 C 1235.46 1.78352 -0.965311 0
M  V30 12216 C 1235.79 1.87527 0.504707 0
M  V30 12217 O 1235.07 1.376 1.37465 0
M  V30 12218 C 1235.35 3.22173 -1.60862 0
M  V30 12219 C 1235.2 3.21003 -3.15083 0
M  V30 12220 C 1236.52 4.2004 -1.31358 0
M  V30 12221 H 1233.64 0.647452 -0.352101 0
M  V30 12222 H 1236.28 1.22794 -1.44988 0
M  V30 12223 H 1234.43 3.69613 -1.19658 0
M  V30 12224 H 1236.11 2.81629 -3.65353 0
M  V30 12225 H 1234.35 2.59309 -3.47766 0
M  V30 12226 H 1235.02 4.22516 -3.55224 0
M  V30 12227 H 1237.5 3.81099 -1.6704 0
M  V30 12228 H 1236.37 5.1891 -1.78953 0
M  V30 12229 H 1236.63 4.41477 -0.234606 0
M  V30 12230 N 1235.69 0.975146 1.23809 0
M  V30 12231 C 1236.62 0.530389 2.27396 0
M  V30 12232 C 1237.6 -0.433763 1.64476 0
M  V30 12233 O 1238.79 -0.32827 1.91405 0
M  V30 12234 C 1235.92 -0.173066 3.46869 0
M  V30 12235 C 1234.87 0.707844 4.22106 0
M  V30 12236 C 1234.2 -0.127527 5.34548 0
M  V30 12237 C 1235.5 1.99609 4.82652 0
M  V30 12238 H 1237.19 1.39622 2.64851 0
M  V30 12239 H 1234.74 0.672802 1.27316 0
M  V30 12240 H 1236.69 -0.495481 4.18477 0
M  V30 12241 H 1235.41 -1.0733 3.0846 0
M  V30 12242 H 1234.07 1.01364 3.52308 0
M  V30 12243 H 1233.72 -1.02814 4.9238 0
M  V30 12244 H 1233.42 0.458728 5.85807 0
M  V30 12245 H 1234.95 -0.444443 6.0898 0
M  V30 12246 H 1236.36 1.73878 5.46296 0
M  V30 12247 H 1234.76 2.52969 5.44175 0
M  V30 12248 H 1235.83 2.68629 4.03691 0
M  V30 12249 N 1237.17 -1.38817 0.746158 0
M  V30 12250 C 1238.1 -2.29081 0.0737986 0
M  V30 12251 C 1239.11 -1.47377 -0.691656 0
M  V30 12252 O 1240.3 -1.70326 -0.533973 0
M  V30 12253 C 1237.4 -3.26185 -0.919607 0
M  V30 12254 C 1236.58 -4.36879 -0.213349 0
M  V30 12255 C 1235.64 -5.1422 -1.11644 0
M  V30 12256 O 1234.66 -5.66137 -0.589747 0
M  V30 12257 N 1235.86 -5.26488 -2.44521 0
M  V30 12258 H 1238.63 -2.87424 0.848966 0
M  V30 12259 H 1236.19 -1.50518 0.596314 0
M  V30 12260 H 1238.18 -3.74802 -1.52662 0
M  V30 12261 H 1236.75 -2.68793 -1.5959 0
M  V30 12262 H 1235.97 -3.89994 0.574285 0
M  V30 12263 H 1237.26 -5.08053 0.275655 0
M  V30 12264 H 1236.66 -4.85846 -2.89777 0
M  V30 12265 H 1235.21 -5.78505 -3.00291 0
M  V30 12266 N 1238.65 -0.49465 -1.49636 0
M  V30 12267 C 1240.06 -0.0452894 -1.86645 0
M  V30 12268 C 1240.41 1.36686 -1.40753 0
M  V30 12269 O 1239.53 2.01751 -0.78265 0
M  V30 12270 C 1240.13 -0.0754115 -3.38716 0
M  V30 12271 C 1238.69 0.318579 -3.75049 0
M  V30 12272 C 1237.84 -0.450712 -2.73613 0
M  V30 12273 H 1240.79 -0.707758 -1.42044 0
M  V30 12274 H 1240.81 0.721372 -3.73599 0
M  V30 12275 H 1240.32 -1.10331 -3.72087 0
M  V30 12276 H 1238.42 1.34995 -3.47285 0
M  V30 12277 H 1238.53 0.00354416 -4.791 0
M  V30 12278 H 1236.9 0.0986455 -2.54509 0
M  V30 12279 H 1237.68 -1.47857 -3.09828 0
M  V30 12280 N 1240.13 1.55939 -0.228214 0
M  V30 12281 C 1241.08 2.17223 0.692674 0
M  V30 12282 C 1242.06 1.12252 1.15275 0
M  V30 12283 O 1243.25 1.3822 1.10563 0
M  V30 12284 C 1240.38 2.86084 1.89766 0
M  V30 12285 C 1239.47 3.98288 1.45695 0
M  V30 12286 N 1239.86 5.00515 0.729258 0
M  V30 12287 C 1238.16 4.105 1.74372 0
M  V30 12288 C 1238.86 5.79516 0.503606 0
M  V30 12289 N 1237.83 5.33119 1.06229 0
M  V30 12290 H 1241.63 2.9362 0.128345 0
M  V30 12291 H 1239.15 1.62373 -0.0297445 0
M  V30 12292 H 1241.15 3.28404 2.5682 0
M  V30 12293 H 1239.81 2.11185 2.46639 0
M  V30 12294 H 1240.82 5.16495 0.381261 0
M  V30 12295 H 1237.49 3.46759 2.32518 0
M  V30 12296 H 1238.88 6.71857 -0.0760344 0
M  V30 12297 N 1241.6 -0.0451101 1.57535 0
M  V30 12298 C 1242.53 -1.05046 2.08537 0
M  V30 12299 C 1243.52 -1.3872 0.984418 0
M  V30 12300 O 1244.7 -1.47884 1.25873 0
M  V30 12301 C 1241.83 -2.3562 2.55148 0
M  V30 12302 C 1240.78 -2.16231 3.69362 0
M  V30 12303 C 1240.11 -3.52423 4.02122 0
M  V30 12304 C 1241.41 -1.56159 4.98409 0
M  V30 12305 H 1243.1 -0.625965 2.92783 0
M  V30 12306 H 1240.65 -0.299657 1.40848 0
M  V30 12307 H 1242.6 -3.06266 2.89446 0
M  V30 12308 H 1241.33 -2.80099 1.67964 0
M  V30 12309 H 1239.99 -1.4802 3.35389 0
M  V30 12310 H 1239.63 -3.94522 3.12028 0
M  V30 12311 H 1239.33 -3.4028 4.79044 0
M  V30 12312 H 1240.86 -4.24458 4.38939 0
M  V30 12313 H 1242.27 -2.16703 5.30766 0
M  V30 12314 H 1240.67 -1.54638 5.79834 0
M  V30 12315 H 1241.74 -0.525698 4.82042 0
M  V30 12316 N 1243.08 -1.54377 -0.317073 0
M  V30 12317 C 1244.49 -1.64062 -0.891105 0
M  V30 12318 C 1244.84 -0.538863 -1.88655 0
M  V30 12319 O 1243.97 0.32718 -2.13912 0
M  V30 12320 C 1244.56 -2.97395 -1.62302 0
M  V30 12321 C 1243.12 -3.09253 -2.14568 0
M  V30 12322 C 1242.27 -2.59664 -0.973146 0
M  V30 12323 H 1245.22 -1.58418 -0.0944829 0
M  V30 12324 H 1245.24 -2.87918 -2.48764 0
M  V30 12325 H 1244.75 -3.77562 -0.898268 0
M  V30 12326 H 1242.86 -2.33774 -2.90139 0
M  V30 12327 H 1242.97 -4.15159 -2.39123 0
M  V30 12328 H 1241.33 -2.15719 -1.35416 0
M  V30 12329 H 1242.12 -3.42294 -0.262611 0
M  V30 12330 N 1244.56 0.579466 -1.4656 0
M  V30 12331 C 1245.98 0.903163 -1.31587 0
M  V30 12332 C 1246.18 1.99406 -0.28972 0
M  V30 12333 O 1245.23 2.50632 0.30658 0
M  V30 12334 C 1246.55 1.31745 -2.70303 0
M  V30 12335 C 1248.09 1.43012 -2.78418 0
M  V30 12336 C 1248.57 1.87805 -4.17724 0
M  V30 12337 N 1250.06 1.94993 -4.20157 0
M  V30 12338 C 1250.79 2.30934 -5.2484 0
M  V30 12339 N 1250.29 2.65645 -6.39847 0
M  V30 12340 N 1252.08 2.31517 -5.12207 0
M  V30 12341 H 1244.23 -0.141111 -2.11931 0
M  V30 12342 H 1246.5 -0.000460304 -0.948 0
M  V30 12343 H 1246.2 0.589864 -3.46718 0
M  V30 12344 H 1246.08 2.2783 -3.00622 0
M  V30 12345 H 1248.46 2.14856 -2.02289 0
M  V30 12346 H 1248.55 0.451701 -2.5178 0
M  V30 12347 H 1248.19 1.16539 -4.94349 0
M  V30 12348 H 1248.12 2.86611 -4.41771 0
M  V30 12349 H 1250.61 1.70645 -3.37178 0
M  V30 12350 H 1250.92 2.92032 -7.15498 0
M  V30 12351 H 1249.27 2.63276 -6.43204 0
M  V30 12352 H 1252.46 2.03824 -4.21394 0
M  V30 12353 H 1252.63 2.59199 -5.93902 0
M  V30 12354 N 1246.04 1.3432 0.824371 0
M  V30 12355 C 1246.99 1.25776 1.93517 0
M  V30 12356 C 1247.96 0.133298 1.65564 0
M  V30 12357 O 1249.14 0.31403 1.88198 0
M  V30 12358 C 1246.28 1.01766 3.29754 0
M  V30 12359 C 1245.39 2.22973 3.7001 0
M  V30 12360 C 1244.53 1.92258 4.95187 0
M  V30 12361 C 1243.57 3.09616 5.2802 0
M  V30 12362 N 1242.7 2.78793 6.44375 0
M  V30 12363 H 1247.54 2.20774 2.00157 0
M  V30 12364 H 1245.08 1.09766 0.979274 0
M  V30 12365 H 1247.04 0.858831 4.08265 0
M  V30 12366 H 1245.67 0.10437 3.22631 0
M  V30 12367 H 1244.72 2.49781 2.86903 0
M  V30 12368 H 1246.03 3.10661 3.90245 0
M  V30 12369 H 1245.19 1.73102 5.81481 0
M  V30 12370 H 1243.93 1.01827 4.76951 0
M  V30 12371 H 1242.93 3.29368 4.40223 0
M  V30 12372 H 1244.16 4.00822 5.48196 0
M  V30 12373 H 1242.1 1.90938 6.27598 0
M  V30 12374 H 1242.02 3.60014 6.64775 0
M  V30 12375 H 1243.29 2.63139 7.33743 0
M  V30 12376 N 1247.52 -1.0444 1.18026 0
M  V30 12377 C 1248.76 -1.77838 0.974756 0
M  V30 12378 C 1249.1 -1.87792 -0.494755 0
M  V30 12379 O 1248.37 -1.38327 -1.36733 0
M  V30 12380 C 1248.65 -3.21315 1.62569 0
M  V30 12381 C 1248.51 -3.19327 3.16781 0
M  V30 12382 C 1249.83 -4.19337 1.33583 0
M  V30 12383 H 1246.94 -0.645575 0.35553 0
M  V30 12384 H 1249.59 -1.22023 1.45638 0
M  V30 12385 H 1247.74 -3.68974 1.21617 0
M  V30 12386 H 1249.41 -2.79687 3.66842 0
M  V30 12387 H 1247.65 -2.57461 3.49137 0
M  V30 12388 H 1248.32 -4.20626 3.5746 0
M  V30 12389 H 1250.8 -3.80208 1.69059 0
M  V30 12390 H 1249.67 -5.17953 1.81702 0
M  V30 12391 H 1249.94 -4.41346 0.258016 0
M  V30 12392 N 1248.99 -0.981699 -1.2329 0
M  V30 12393 C 1250.27 -0.567659 -1.87182 0
M  V30 12394 C 1250.65 0.955194 -1.88253 0
M  V30 12395 O 1250 1.83245 -1.36504 0
M  V30 12396 C 1250.21 -1.17522 -3.28618 0
M  V30 12397 C 1251.56 -1.26877 -4.052 0
M  V30 12398 O 1252.58 -1.12877 -3.37842 0
M  V30 12399 O 1251.44 -1.49163 -5.2575 0
M  V30 12400 H 1248.53 -0.191315 -0.804567 0
M  V30 12401 H 1251.08 -1.07686 -1.31155 0
M  V30 12402 H 1249.85 -2.21735 -3.22411 0
M  V30 12403 H 1249.48 -0.650913 -3.92236 0
M  V30 12404 N 1250.47 1.3842 -0.753509 0
M  V30 12405 C 1251.7 2.04403 -0.320449 0
M  V30 12406 C 1252.12 1.5683 1.05118 0
M  V30 12407 O 1251.47 0.741335 1.66765 0
M  V30 12408 C 1251.52 3.59954 -0.333937 0
M  V30 12409 O 1251.24 4.05782 -1.65144 0
M  V30 12410 C 1252.75 4.43156 0.112997 0
M  V30 12411 H 1249.97 0.656881 -0.136927 0
M  V30 12412 H 1252.51 1.77112 -1.02234 0
M  V30 12413 H 1250.66 3.86083 0.319215 0
M  V30 12414 H 1251.08 5.00213 -1.57757 0
M  V30 12415 H 1252.55 5.51975 0.0523995 0
M  V30 12416 H 1253.03 4.23581 1.16087 0
M  V30 12417 H 1253.64 4.22216 -0.511278 0
M  V30 12418 N 1251.95 0.502579 1.49372 0
M  V30 12419 C 1252.91 -0.263993 2.27675 0
M  V30 12420 C 1253.91 -0.892538 1.33755 0
M  V30 12421 O 1255.1 -0.756826 1.56901 0
M  V30 12422 C 1252.24 -1.37895 3.11765 0
M  V30 12423 H 1253.43 0.423132 2.969 0
M  V30 12424 H 1250.98 0.257595 1.54163 0
M  V30 12425 H 1251.72 -2.10018 2.47109 0
M  V30 12426 H 1251.5 -0.933694 3.80821 0
M  V30 12427 H 1252.99 -1.91889 3.70902 0
M  V30 12428 N 1253.43 -1.55816 0.23648 0
M  V30 12429 C 1254.39 -2.1967 -0.654041 0
M  V30 12430 C 1255.39 -1.1629 -1.11056 0
M  V30 12431 O 1256.58 -1.41435 -1.01695 0
M  V30 12432 C 1253.71 -2.83196 -1.89771 0
M  V30 12433 H 1254.91 -2.99743 -0.0970911 0
M  V30 12434 H 1252.46 -1.56295 -0.013098 0
M  V30 12435 H 1253.19 -2.07033 -2.49616 0
M  V30 12436 H 1252.98 -3.58915 -1.57868 0
M  V30 12437 H 1254.47 -3.32095 -2.53184 0
M  V30 12438 N 1254.91 0.036755 -1.57557 0
M  V30 12439 C 1255.84 1.06718 -2.0284 0
M  V30 12440 C 1256.85 1.32926 -0.939917 0
M  V30 12441 O 1258.04 1.30549 -1.21734 0
M  V30 12442 C 1255.14 2.41054 -2.38214 0
M  V30 12443 C 1254.31 2.3431 -3.69347 0
M  V30 12444 C 1253.37 3.51034 -3.91997 0
M  V30 12445 O 1252.4 3.30875 -4.63152 0
M  V30 12446 N 1253.6 4.72634 -3.37042 0
M  V30 12447 H 1256.37 0.681275 -2.91854 0
M  V30 12448 H 1253.93 0.224836 -1.60331 0
M  V30 12449 H 1255.92 3.17847 -2.5051 0
M  V30 12450 H 1254.49 2.71517 -1.5491 0
M  V30 12451 H 1253.71 1.42668 -3.67477 0
M  V30 12452 H 1255 2.2694 -4.55385 0
M  V30 12453 H 1254.39 4.91914 -2.79352 0
M  V30 12454 H 1252.95 5.46818 -3.5473 0
M  V30 12455 N 1256.39 1.54543 0.308881 0
M  V30 12456 C 1257.61 1.77431 1.06422 0
M  V30 12457 C 1258.03 0.529972 1.81209 0
M  V30 12458 O 1257.39 -0.499912 1.7552 0
M  V30 12459 C 1257.44 2.9769 2.05092 0
M  V30 12460 O 1257.16 4.17315 1.33341 0
M  V30 12461 C 1258.66 3.32905 2.92727 0
M  V30 12462 H 1255.88 0.591961 0.315948 0
M  V30 12463 H 1258.42 2.01473 0.350547 0
M  V30 12464 H 1256.58 2.7588 2.71973 0
M  V30 12465 H 1256.99 4.85061 1.99539 0
M  V30 12466 H 1258.47 4.20314 3.57827 0
M  V30 12467 H 1258.94 2.50713 3.6061 0
M  V30 12468 H 1259.55 3.56847 2.31388 0
M  V30 12469 N 1257.86 -0.571685 1.46866 0
M  V30 12470 C 1258.81 -1.70098 1.58649 0
M  V30 12471 C 1259.81 -1.63191 0.45443 0
M  V30 12472 O 1261.01 -1.68551 0.63171 0
M  V30 12473 H 1257.39 -0.56258 0.499007 0
M  V30 12474 H 1259.36 -1.57293 2.53577 0
M  V30 12475 C 1258.11 -3.08475 1.60433 0
M  V30 12476 H 1257.43 -3.14465 2.46884 0
M  V30 12477 H 1258.87 -3.87221 1.7273 0
M  V30 12478 C 1257.33 -3.35231 0.334948 0
M  V30 12479 O 1257.86 -3.97633 -0.570149 0
M  V30 12480 N 1256.06 -2.8977 0.219441 0
M  V30 12481 H 1255.61 -2.39168 0.956891 0
M  V30 12482 H 1255.57 -3.08044 -0.628975 0
M  V30 12483 N 1259.34 -1.34755 -0.817236 0
M  V30 12484 C 1260.57 -1.30676 -1.61054 0
M  V30 12485 C 1260.99 0.115343 -1.87746 0
M  V30 12486 O 1260.35 1.07887 -1.45705 0
M  V30 12487 C 1260.4 -2.10881 -2.92509 0
M  V30 12488 O 1259.5 -1.48223 -3.84842 0
M  V30 12489 H 1258.84 -0.448531 -0.489608 0
M  V30 12490 H 1261.37 -1.77642 -1.01512 0
M  V30 12491 H 1261.38 -2.22446 -3.42026 0
M  V30 12492 H 1260.06 -3.14274 -2.72406 0
M  V30 12493 H 1258.63 -1.45434 -3.4337 0
M  V30 12494 N 1260.82 1.03812 -1.18578 0
M  V30 12495 C 1262.24 1.29271 -0.936011 0
M  V30 12496 C 1262.44 1.97551 0.396965 0
M  V30 12497 O 1261.49 2.25769 1.13069 0
M  V30 12498 C 1262.8 2.1489 -2.1034 0
M  V30 12499 C 1264.35 2.28228 -2.14198 0
M  V30 12500 C 1264.83 3.17214 -3.30362 0
M  V30 12501 N 1266.32 3.24802 -3.30239 0
M  V30 12502 C 1267.05 3.9382 -4.16765 0
M  V30 12503 N 1266.55 4.65147 -5.1343 0
M  V30 12504 N 1268.34 3.90125 -4.04671 0
M  V30 12505 H 1260.49 0.579011 -2.04356 0
M  V30 12506 H 1262.76 0.318021 -0.893066 0
M  V30 12507 H 1262.46 1.72029 -3.06755 0
M  V30 12508 H 1262.34 3.15576 -2.06619 0
M  V30 12509 H 1264.72 2.70324 -1.18359 0
M  V30 12510 H 1264.8 1.27124 -2.21976 0
M  V30 12511 H 1264.45 2.75829 -4.26475 0
M  V30 12512 H 1264.38 4.18356 -3.19821 0
M  V30 12513 H 1266.87 2.73994 -2.60261 0
M  V30 12514 H 1267.18 5.15414 -5.7582 0
M  V30 12515 H 1265.53 4.64043 -5.17387 0
M  V30 12516 H 1268.72 3.33536 -3.28438 0
M  V30 12517 H 1268.89 4.43641 -4.7232 0
M  V30 12518 N 1262.3 0.988223 1.22768 0
M  V30 12519 C 1263.23 0.554478 2.26821 0
M  V30 12520 C 1264.21 -0.416293 1.64927 0
M  V30 12521 O 1265.39 -0.30795 1.91743 0
M  V30 12522 C 1262.52 -0.136266 3.47033 0
M  V30 12523 C 1261.48 0.752575 4.21332 0
M  V30 12524 C 1260.8 -0.0708236 5.34653 0
M  V30 12525 C 1262.1 2.04717 4.80508 0
M  V30 12526 H 1263.8 1.42423 2.63355 0
M  V30 12527 H 1261.34 0.686267 1.26595 0
M  V30 12528 H 1263.3 -0.451068 4.18979 0
M  V30 12529 H 1262.02 -1.04053 3.09581 0
M  V30 12530 H 1260.68 1.05095 3.51213 0
M  V30 12531 H 1260.33 -0.975859 4.93443 0
M  V30 12532 H 1260.03 0.520835 5.85287 0
M  V30 12533 H 1261.55 -0.379828 6.09417 0
M  V30 12534 H 1262.97 1.79663 5.44421 0
M  V30 12535 H 1261.36 2.58726 5.41462 0
M  V30 12536 H 1262.43 2.72896 4.00819 0
M  V30 12537 N 1263.78 -1.38018 0.760839 0
M  V30 12538 C 1264.74 -2.28734 0.146154 0
M  V30 12539 C 1265.74 -1.47525 -0.639768 0
M  V30 12540 O 1266.93 -1.6788 -0.464964 0
M  V30 12541 C 1264.06 -3.31356 -0.801019 0
M  V30 12542 H 1265.25 -2.84599 0.945692 0
M  V30 12543 H 1262.81 -1.471 0.528323 0
M  V30 12544 H 1263.54 -2.80594 -1.62597 0
M  V30 12545 H 1263.33 -3.91366 -0.239775 0
M  V30 12546 H 1264.82 -3.99171 -1.22687 0
M  V30 12547 N 1265.25 -0.510493 -1.49103 0
M  V30 12548 C 1266.67 -0.167061 -1.58723 0
M  V30 12549 C 1266.87 1.32886 -1.51471 0
M  V30 12550 O 1265.93 2.10559 -1.39359 0
M  V30 12551 C 1267.24 -0.752293 -2.91137 0
M  V30 12552 C 1268.79 -0.719258 -3.04624 0
M  V30 12553 C 1269.26 -1.28272 -4.39671 0
M  V30 12554 N 1270.75 -1.24383 -4.46187 0
M  V30 12555 C 1271.49 -1.6499 -5.4915 0
M  V30 12556 N 1270.98 -2.13235 -6.59168 0
M  V30 12557 N 1272.78 -1.56348 -5.39918 0
M  V30 12558 H 1264.93 -1.48296 -1.5206 0
M  V30 12559 H 1267.19 -0.615683 -0.72086 0
M  V30 12560 H 1266.9 -1.80178 -3.02041 0
M  V30 12561 H 1266.77 -0.218152 -3.76569 0
M  V30 12562 H 1269.16 0.321413 -2.93344 0
M  V30 12563 H 1269.24 -1.29065 -2.20852 0
M  V30 12564 H 1268.88 -2.32222 -4.51703 0
M  V30 12565 H 1268.81 -0.687179 -5.22097 0
M  V30 12566 H 1271.3 -0.890446 -3.67259 0
M  V30 12567 H 1271.62 -2.42266 -7.33844 0
M  V30 12568 H 1269.96 -2.17216 -6.60183 0
M  V30 12569 H 1273.15 -1.18469 -4.52861 0
M  V30 12570 H 1273.33 -1.88317 -6.20033 0
M  V30 12571 N 1266.73 1.55688 -0.24474 0
M  V30 12572 C 1268.14 1.84897 0.25882 0
M  V30 12573 C 1268.49 1.16653 1.57755 0
M  V30 12574 O 1267.62 0.444162 2.11793 0
M  V30 12575 C 1268.21 3.35434 0.476385 0
M  V30 12576 C 1266.77 3.64877 0.924213 0
M  V30 12577 C 1265.92 2.773 0.00021322 0
M  V30 12578 H 1268.87 1.51662 -0.467358 0
M  V30 12579 H 1268.89 3.56896 1.31929 0
M  V30 12580 H 1268.4 3.85076 -0.483567 0
M  V30 12581 H 1266.5 3.20711 1.89671 0
M  V30 12582 H 1266.62 4.72665 0.78257 0
M  V30 12583 H 1264.98 2.49517 0.511194 0
M  V30 12584 H 1265.76 3.29747 -0.955072 0
M  V30 12585 N 1268.21 -0.0283989 1.57574 0
M  V30 12586 C 1269.44 -0.730831 1.93563 0
M  V30 12587 C 1269.85 -1.68857 0.844556 0
M  V30 12588 O 1269.21 -1.8162 -0.178971 0
M  V30 12589 C 1269.26 -1.48731 3.29486 0
M  V30 12590 O 1268.98 -0.568017 4.34402 0
M  V30 12591 C 1270.48 -2.28684 3.79761 0
M  V30 12592 H 1267.7 -0.205346 0.638807 0
M  V30 12593 H 1270.25 0.0142728 2.04495 0
M  V30 12594 H 1268.4 -2.18429 3.19949 0
M  V30 12595 H 1268.82 -1.09861 5.12865 0
M  V30 12596 H 1270.29 -2.77157 4.77376 0
M  V30 12597 H 1270.77 -3.10133 3.10989 0
M  V30 12598 H 1271.37 -1.64059 3.92383 0
M  V30 12599 N 1269.69 -1.54705 -0.300681 0
M  V30 12600 C 1271.1 -1.45926 -0.646359 0
M  V30 12601 C 1271.3 -0.65072 -1.90704 0
M  V30 12602 O 1270.36 -0.158547 -2.52002 0
M  V30 12603 C 1271.67 -2.89889 -0.799059 0
M  V30 12604 C 1273.22 -2.99934 -0.894923 0
M  V30 12605 C 1273.7 -4.45093 -1.07962 0
M  V30 12606 N 1275.19 -4.48804 -1.14581 0
M  V30 12607 C 1275.92 -5.58305 -1.30702 0
M  V30 12608 N 1275.42 -6.77729 -1.43719 0
M  V30 12609 N 1277.21 -5.45994 -1.33593 0
M  V30 12610 H 1269.36 -2.05742 0.527617 0
M  V30 12611 H 1271.62 -0.931817 0.174415 0
M  V30 12612 H 1271.33 -3.51655 0.0563954 0
M  V30 12613 H 1271.2 -3.37325 -1.68796 0
M  V30 12614 H 1273.59 -2.38281 -1.74086 0
M  V30 12615 H 1273.67 -2.55794 0.0179973 0
M  V30 12616 H 1273.32 -5.0734 -0.238444 0
M  V30 12617 H 1273.25 -4.86864 -2.00677 0
M  V30 12618 H 1275.74 -3.62766 -1.05874 0
M  V30 12619 H 1276.05 -7.56937 -1.55776 0
M  V30 12620 H 1274.4 -6.80594 -1.40774 0
M  V30 12621 H 1277.59 -4.51641 -1.23035 0
M  V30 12622 H 1277.76 -6.31381 -1.45813 0
M  V30 12623 N 1271.17 0.563888 -1.47167 0
M  V30 12624 C 1272.1 1.68137 -1.62025 0
M  V30 12625 C 1273.08 1.63481 -0.469899 0
M  V30 12626 O 1274.26 1.81206 -0.698432 0
M  V30 12627 C 1271.39 3.06779 -1.62801 0
M  V30 12628 C 1270.35 3.26278 -2.76996 0
M  V30 12629 C 1269.67 4.65638 -2.62841 0
M  V30 12630 C 1270.97 3.12295 -4.18651 0
M  V30 12631 H 1272.67 1.55958 -2.55573 0
M  V30 12632 H 1270.21 0.74887 -1.22996 0
M  V30 12633 H 1272.17 3.84795 -1.71787 0
M  V30 12634 H 1270.89 3.19901 -0.658097 0
M  V30 12635 H 1269.55 2.50668 -2.67509 0
M  V30 12636 H 1269.2 4.75551 -1.63892 0
M  V30 12637 H 1268.9 4.79635 -3.39447 0
M  V30 12638 H 1270.42 5.45798 -2.73746 0
M  V30 12639 H 1271.83 3.80136 -4.2915 0
M  V30 12640 H 1270.23 3.37805 -4.95992 0
M  V30 12641 H 1271.3 2.09126 -4.37486 0
M  V30 12642 N 1272.64 1.35187 0.810078 0
M  V30 12643 C 1273.87 1.31528 1.60359 0
M  V30 12644 C 1274.29 -0.105385 1.87805 0
M  V30 12645 O 1273.65 -1.07113 1.46276 0
M  V30 12646 C 1273.7 2.12429 2.91386 0
M  V30 12647 O 1272.8 1.50262 3.84051 0
M  V30 12648 H 1272.15 0.451122 0.487222 0
M  V30 12649 H 1274.68 1.78178 1.00568 0
M  V30 12650 H 1274.69 2.24257 3.40841 0
M  V30 12651 H 1273.36 3.15714 2.70735 0
M  V30 12652 H 1271.94 1.47253 3.42594 0
M  V30 12653 N 1274.12 -1.03182 1.19127 0
M  V30 12654 C 1275.05 -2.13301 0.94999 0
M  V30 12655 C 1276.03 -1.69707 -0.115577 0
M  V30 12656 O 1277.22 -1.94161 0.0388395 0
M  V30 12657 C 1274.35 -3.43902 0.484637 0
M  V30 12658 C 1273.3 -4.01164 1.4917 0
M  V30 12659 C 1272.63 -5.2735 0.883537 0
M  V30 12660 C 1273.93 -4.36311 2.87107 0
M  V30 12661 H 1275.62 -2.33743 1.87095 0
M  V30 12662 H 1273.17 -1.12332 0.900977 0
M  V30 12663 H 1275.12 -4.20308 0.30315 0
M  V30 12664 H 1273.85 -3.23173 -0.471909 0
M  V30 12665 H 1272.5 -3.26849 1.66028 0
M  V30 12666 H 1272.15 -5.02936 -0.0804712 0
M  V30 12667 H 1271.85 -5.66624 1.55599 0
M  V30 12668 H 1273.38 -6.06425 0.71278 0
M  V30 12669 H 1274.79 -5.03666 2.73848 0
M  V30 12670 H 1273.19 -4.86659 3.51117 0
M  V30 12671 H 1274.26 -3.45743 3.39985 0
M  V30 12672 N 1275.6 -0.99472 -1.22242 0
M  V30 12673 C 1276.85 -0.670275 -1.90661 0
M  V30 12674 C 1277.17 0.800369 -1.77818 0
M  V30 12675 O 1276.44 1.57381 -1.16653 0
M  V30 12676 H 1275.02 -0.244925 -0.705706 0
M  V30 12677 H 1277.68 -1.26162 -1.48557 0
M  V30 12678 H 1276.78 -0.934408 -2.97784 0
M  V30 12679 N 1277.08 1.37613 -0.768148 0
M  V30 12680 C 1278.36 1.93921 -0.255724 0
M  V30 12681 C 1278.74 1.70215 1.2486 0
M  V30 12682 O 1278.08 1.0489 2.03003 0
M  V30 12683 C 1278.29 3.43354 -0.625204 0
M  V30 12684 C 1279.64 4.20439 -0.592978 0
M  V30 12685 O 1280.67 3.51701 -0.564375 0
M  V30 12686 O 1279.52 5.43008 -0.616849 0
M  V30 12687 H 1276.62 0.824968 -0.0579366 0
M  V30 12688 H 1279.16 1.46921 -0.849257 0
M  V30 12689 H 1277.94 3.54177 -1.66356 0
M  V30 12690 H 1277.56 3.976 -0.00442816 0
M  V30 12691 N 1278.56 0.518393 1.4883 0
M  V30 12692 C 1279.97 0.0749773 1.86549 0
M  V30 12693 C 1280.32 -1.34429 1.4291 0
M  V30 12694 O 1279.44 -2.00481 0.814648 0
M  V30 12695 C 1280.04 0.129289 3.38553 0
M  V30 12696 C 1278.6 -0.258871 3.75509 0
M  V30 12697 C 1277.74 0.494185 2.72861 0
M  V30 12698 H 1280.7 0.730266 1.409 0
M  V30 12699 H 1280.72 -0.661844 3.747 0
M  V30 12700 H 1280.23 1.16237 3.70285 0
M  V30 12701 H 1278.33 -1.29453 3.49389 0
M  V30 12702 H 1278.44 0.0726769 4.79045 0
M  V30 12703 H 1276.81 -0.0581428 2.54634 0
M  V30 12704 H 1277.59 1.52767 3.07436 0
M  V30 12705 N 1280.03 -1.55556 0.252993 0
M  V30 12706 C 1280.98 -2.21634 -0.643979 0
M  V30 12707 C 1281.95 -1.18226 -1.1667 0
M  V30 12708 O 1283.14 -1.46694 -1.22006 0
M  V30 12709 C 1280.28 -2.92429 -1.83246 0
M  V30 12710 C 1279.39 -4.10506 -1.34569 0
M  V30 12711 C 1278.52 -4.69001 -2.49421 0
M  V30 12712 C 1277.56 -5.79315 -1.97636 0
M  V30 12713 N 1276.7 -6.31967 -3.05878 0
M  V30 12714 H 1281.54 -2.97909 -0.0738178 0
M  V30 12715 H 1279.08 -1.47079 -0.0246728 0
M  V30 12716 H 1281.04 -3.31678 -2.53072 0
M  V30 12717 H 1279.67 -2.18617 -2.375 0
M  V30 12718 H 1278.72 -3.76529 -0.541268 0
M  V30 12719 H 1280.03 -4.90125 -0.92622 0
M  V30 12720 H 1279.18 -5.10855 -3.27279 0
M  V30 12721 H 1277.92 -3.88612 -2.94673 0
M  V30 12722 H 1276.93 -5.36933 -1.18251 0
M  V30 12723 H 1278.15 -6.6156 -1.53347 0
M  V30 12724 H 1276.1 -5.5448 -3.50553 0
M  V30 12725 H 1276.02 -7.06797 -2.68281 0
M  V30 12726 H 1277.28 -6.7848 -3.83777 0
M  V30 12727 N 1281.51 0.0200419 -1.57587 0
M  V30 12728 C 1282.48 1.00255 -2.06111 0
M  V30 12729 C 1283.48 1.28488 -0.966829 0
M  V30 12730 O 1284.67 1.2334 -1.23015 0
M  V30 12731 C 1281.8 2.33296 -2.48567 0
M  V30 12732 H 1282.99 0.583216 -2.94174 0
M  V30 12733 H 1280.54 0.267077 -1.54001 0
M  V30 12734 H 1281.28 2.79959 -1.63687 0
M  V30 12735 H 1281.06 2.14131 -3.28467 0
M  V30 12736 H 1282.55 3.03817 -2.86505 0
M  V30 12737 N 1282.99 1.54862 0.292472 0
M  V30 12738 C 1284.22 1.78877 1.04966 0
M  V30 12739 C 1284.64 0.550724 1.79857 0
M  V30 12740 O 1284 -0.499054 1.74296 0
M  V30 12741 C 1284.05 3.00106 1.99922 0
M  V30 12742 O 1283.15 2.73827 3.0837 0
M  V30 12743 H 1282.49 0.591802 0.301108 0
M  V30 12744 H 1285.02 2.01965 0.3273 0
M  V30 12745 H 1285.03 3.28309 2.42233 0
M  V30 12746 H 1283.71 3.89872 1.44821 0
M  V30 12747 H 1282.28 2.56665 2.70513 0
M  V30 12748 N 1284.47 -0.556076 1.47464 0
M  V30 12749 C 1285.7 -1.33858 1.57764 0
M  V30 12750 C 1286.11 -1.87415 0.22825 0
M  V30 12751 O 1285.47 -1.65054 -0.778674 0
M  V30 12752 C 1285.52 -2.5077 2.60378 0
M  V30 12753 O 1285.24 -1.99426 3.90078 0
M  V30 12754 C 1286.74 -3.42965 2.80873 0
M  V30 12755 H 1283.96 -0.408003 0.532705 0
M  V30 12756 H 1286.51 -0.673501 1.93091 0
M  V30 12757 H 1284.66 -3.13214 2.27982 0
M  V30 12758 H 1285.07 -2.75759 4.46158 0
M  V30 12759 H 1286.55 -4.21412 3.56533 0
M  V30 12760 H 1287.03 -3.96579 1.88737 0
M  V30 12761 H 1287.63 -2.86336 3.14471 0
M  V30 12762 N 1285.95 -1.35615 -0.802897 0
M  V30 12763 C 1286.88 -1.31506 -1.92947 0
M  V30 12764 C 1287.86 -0.188843 -1.69048 0
M  V30 12765 O 1289.04 -0.384384 -1.90358 0
M  V30 12766 C 1286.17 -1.09001 -3.29752 0
M  V30 12767 C 1285.13 -2.18303 -3.68141 0
M  V30 12768 C 1284.45 -1.80959 -5.03148 0
M  V30 12769 C 1285.75 -3.60296 -3.78132 0
M  V30 12770 H 1287.45 -2.25771 -1.96642 0
M  V30 12771 H 1284.99 -1.08682 -0.944685 0
M  V30 12772 H 1286.95 -1.04766 -4.08169 0
M  V30 12773 H 1285.67 -0.111832 -3.26408 0
M  V30 12774 H 1284.33 -2.21642 -2.92011 0
M  V30 12775 H 1283.98 -0.817495 -4.96312 0
M  V30 12776 H 1283.68 -2.54129 -5.29804 0
M  V30 12777 H 1285.2 -1.78255 -5.84001 0
M  V30 12778 H 1286.62 -3.59259 -4.46773 0
M  V30 12779 H 1285.01 -4.32258 -4.16261 0
M  V30 12780 H 1286.08 -3.9618 -2.79588 0
M  V30 12781 N 1287.43 1.02549 -1.19673 0
M  V30 12782 C 1288.84 1.57454 -1.00325 0
M  V30 12783 C 1289.19 1.91136 0.442889 0
M  V30 12784 O 1288.31 1.7126 1.32284 0
M  V30 12785 C 1288.91 2.86091 -1.81486 0
M  V30 12786 C 1287.47 3.37557 -1.6653 0
M  V30 12787 C 1286.61 2.1096 -1.79975 0
M  V30 12788 H 1289.56 0.850364 -1.33994 0
M  V30 12789 H 1289.59 3.5713 -1.31296 0
M  V30 12790 H 1289.1 2.61546 -2.86733 0
M  V30 12791 H 1287.2 3.67083 -0.638834 0
M  V30 12792 H 1287.31 4.1036 -2.47269 0
M  V30 12793 H 1285.68 2.22993 -1.23071 0
M  V30 12794 H 1286.46 1.88852 -2.86688 0
M  V30 12795 N 1288.9 1.00119 1.21713 0
M  V30 12796 C 1290.32 0.713343 1.42771 0
M  V30 12797 C 1290.52 -0.712923 1.88467 0
M  V30 12798 O 1289.58 -1.48277 2.04378 0
M  V30 12799 C 1290.89 1.72596 2.46234 0
M  V30 12800 C 1292.44 1.74235 2.60022 0
M  V30 12801 C 1292.91 2.74382 3.66713 0
M  V30 12802 N 1294.4 2.73027 3.7418 0
M  V30 12803 C 1295.14 3.47178 4.56349 0
M  V30 12804 N 1294.63 4.30958 5.42446 0
M  V30 12805 N 1296.43 3.35846 4.50737 0
M  V30 12806 H 1288.58 1.9222 0.903611 0
M  V30 12807 H 1290.84 0.829466 0.459011 0
M  V30 12808 H 1290.55 2.74699 2.19621 0
M  V30 12809 H 1290.42 1.52553 3.44975 0
M  V30 12810 H 1292.81 0.728261 2.85973 0
M  V30 12811 H 1292.89 1.98349 1.61528 0
M  V30 12812 H 1292.53 3.75945 3.41508 0
M  V30 12813 H 1292.46 2.47534 4.64795 0
M  V30 12814 H 1294.95 2.12242 3.12669 0
M  V30 12815 H 1295.27 4.84344 6.02189 0
M  V30 12816 H 1293.61 4.35042 5.42 0
M  V30 12817 H 1296.8 2.6983 3.82504 0
M  V30 12818 H 1296.98 3.93892 5.14541 0
M  V30 12819 N 1290.38 -1.37203 0.775435 0
M  V30 12820 C 1291.34 -2.28566 0.170406 0
M  V30 12821 C 1292.34 -1.48195 -0.624085 0
M  V30 12822 O 1293.53 -1.68364 -0.447132 0
M  V30 12823 C 1290.67 -3.32186 -0.765829 0
M  V30 12824 H 1291.86 -2.8358 0.975824 0
M  V30 12825 H 1289.41 -1.46531 0.543895 0
M  V30 12826 H 1290.15 -2.82303 -1.59611 0
M  V30 12827 H 1289.93 -3.91598 -0.198251 0
M  V30 12828 H 1291.42 -4.0045 -1.18446 0
M  V30 12829 N 1291.86 -0.526279 -1.48553 0
M  V30 12830 C 1293.28 -0.183886 -1.58537 0
M  V30 12831 C 1293.48 1.31272 -1.52872 0
M  V30 12832 O 1292.53 2.09069 -1.41585 0
M  V30 12833 C 1293.84 -0.78313 -2.90323 0
M  V30 12834 C 1295.39 -0.751527 -3.03844 0
M  V30 12835 C 1295.87 -1.32928 -4.38285 0
M  V30 12836 N 1297.36 -1.29109 -4.44843 0
M  V30 12837 C 1298.09 -1.70806 -5.47369 0
M  V30 12838 N 1297.59 -2.20215 -6.56869 0
M  V30 12839 N 1299.38 -1.62065 -5.3823 0
M  V30 12840 H 1291.53 -1.499 -1.50478 0
M  V30 12841 H 1293.8 -0.623294 -0.714289 0
M  V30 12842 H 1293.5 -1.83371 -3.00113 0
M  V30 12843 H 1293.38 -0.25808 -3.76316 0
M  V30 12844 H 1295.76 0.290282 -2.93669 0
M  V30 12845 H 1295.84 -1.314 -2.19471 0
M  V30 12846 H 1295.49 -2.37 -4.49214 0
M  V30 12847 H 1295.42 -0.742516 -5.21339 0
M  V30 12848 H 1297.91 -0.929348 -3.66294 0
M  V30 12849 H 1298.22 -2.50035 -7.31233 0
M  V30 12850 H 1296.57 -2.24206 -6.57842 0
M  V30 12851 H 1299.76 -1.23265 -4.51579 0
M  V30 12852 H 1299.93 -1.94883 -6.18001 0
M  V30 12853 N 1293.34 1.5542 -0.261239 0
M  V30 12854 C 1294.25 2.25627 0.642625 0
M  V30 12855 C 1295.26 1.27732 1.18155 0
M  V30 12856 O 1296.44 1.60639 1.21479 0
M  V30 12857 C 1293.5 2.95303 1.8165 0
M  V30 12858 C 1292.57 4.08644 1.31563 0
M  V30 12859 C 1291.8 4.74988 2.43355 0
M  V30 12860 O 1292.02 4.40474 3.62407 0
M  V30 12861 O 1290.96 5.63217 2.12299 0
M  V30 12862 H 1294.78 3.03609 0.0743091 0
M  V30 12863 H 1292.37 1.49372 -0.0291754 0
M  V30 12864 H 1294.25 3.3914 2.50125 0
M  V30 12865 H 1292.92 2.2025 2.37217 0
M  V30 12866 H 1291.83 3.69294 0.597746 0
M  V30 12867 H 1293.16 4.85558 0.805878 0
M  V30 12868 N 1294.82 -0.0116844 1.57596 0
M  V30 12869 C 1295.75 -1.03477 2.04512 0
M  V30 12870 C 1296.76 -1.31414 0.960945 0
M  V30 12871 O 1297.95 -1.28596 1.23796 0
M  V30 12872 C 1295.05 -2.37234 2.42019 0
M  V30 12873 C 1294.22 -2.28405 3.73028 0
M  V30 12874 C 1293.28 -3.44753 3.97532 0
M  V30 12875 O 1292.31 -3.23465 4.68358 0
M  V30 12876 N 1293.51 -4.67212 3.44518 0
M  V30 12877 H 1296.27 -0.634758 2.92901 0
M  V30 12878 H 1293.84 -0.1993 1.60669 0
M  V30 12879 H 1295.83 -3.13821 2.55535 0
M  V30 12880 H 1294.4 -2.69018 1.5921 0
M  V30 12881 H 1293.62 -1.36804 3.697 0
M  V30 12882 H 1294.91 -2.19666 4.58938 0
M  V30 12883 H 1294.3 -4.87407 2.87142 0
M  V30 12884 H 1292.86 -5.41105 3.63384 0
M  V30 12885 N 1296.29 -1.55015 -0.284256 0
M  V30 12886 C 1297.23 -1.83517 -1.3731 0
M  V30 12887 C 1298.24 -0.719009 -1.46062 0
M  V30 12888 O 1299.43 -0.996719 -1.4808 0
M  V30 12889 C 1296.53 -1.97309 -2.7554 0
M  V30 12890 C 1295.7 -3.2787 -2.89517 0
M  V30 12891 C 1294.76 -3.31868 -4.08351 0
M  V30 12892 O 1293.79 -4.05309 -3.99642 0
M  V30 12893 N 1294.99 -2.5846 -5.19787 0
M  V30 12894 H 1297.75 -2.77495 -1.1321 0
M  V30 12895 H 1295.31 -1.54795 -0.474359 0
M  V30 12896 H 1297.31 -1.97367 -3.53311 0
M  V30 12897 H 1295.88 -1.10249 -2.92513 0
M  V30 12898 H 1295.1 -3.40445 -1.98722 0
M  V30 12899 H 1296.38 -4.13996 -2.95779 0
M  V30 12900 H 1295.78 -1.98455 -5.29747 0
M  V30 12901 H 1294.34 -2.64253 -5.9583 0
M  V30 12902 N 1297.77 0.548248 -1.47757 0
M  V30 12903 C 1298.7 1.66999 -1.56984 0
M  V30 12904 C 1299.72 1.56302 -0.455372 0
M  V30 12905 O 1300.91 1.63096 -0.725399 0
M  V30 12906 C 1298.01 3.0553 -1.46645 0
M  V30 12907 C 1297.18 3.41892 -2.72816 0
M  V30 12908 C 1296.24 4.59624 -2.56187 0
M  V30 12909 O 1295.26 4.63757 -3.30028 0
M  V30 12910 N 1296.47 5.56675 -1.64601 0
M  V30 12911 H 1299.23 1.59527 -2.53715 0
M  V30 12912 H 1296.79 0.735101 -1.44249 0
M  V30 12913 H 1298.78 3.82137 -1.33242 0
M  V30 12914 H 1297.35 3.0718 -0.57961 0
M  V30 12915 H 1296.57 2.54644 -3.00916 0
M  V30 12916 H 1297.86 3.62965 -3.56559 0
M  V30 12917 H 1297.26 5.561 -1.03778 0
M  V30 12918 H 1295.82 6.32573 -1.57146 0
M  V30 12919 N 1299.25 1.36039 0.795694 0
M  V30 12920 C 1300.18 1.25713 1.91648 0
M  V30 12921 C 1301.19 0.177993 1.61824 0
M  V30 12922 O 1302.38 0.432186 1.73189 0
M  V30 12923 C 1299.48 0.915546 3.26299 0
M  V30 12924 C 1298.66 2.09528 3.83949 0
M  V30 12925 C 1297.72 1.72775 4.97026 0
M  V30 12926 O 1296.74 2.44786 5.13876 0
M  V30 12927 N 1297.94 0.65775 5.76762 0
M  V30 12928 H 1300.71 2.22277 2.01029 0
M  V30 12929 H 1298.27 1.2935 0.973657 0
M  V30 12930 H 1300.26 0.650958 3.9943 0
M  V30 12931 H 1298.83 0.0392343 3.12575 0
M  V30 12932 H 1298.05 2.52304 3.0288 0
M  V30 12933 H 1299.34 2.88361 4.19196 0
M  V30 12934 H 1298.74 0.0596875 5.65669 0
M  V30 12935 H 1297.29 0.45297 6.50224 0
M  V30 12936 N 1300.73 -1.01913 1.20215 0
M  V30 12937 C 1301.66 -2.10513 0.906476 0
M  V30 12938 C 1302.67 -1.62463 -0.104758 0
M  V30 12939 O 1303.86 -1.78055 0.12593 0
M  V30 12940 C 1300.96 -3.3722 0.337012 0
M  V30 12941 C 1300.14 -4.14417 1.39917 0
M  V30 12942 C 1299.19 -5.19428 0.841489 0
M  V30 12943 O 1298.22 -5.48486 1.52157 0
M  V30 12944 N 1299.42 -5.79442 -0.350365 0
M  V30 12945 H 1302.19 -2.36465 1.84132 0
M  V30 12946 H 1299.75 -1.18283 1.10548 0
M  V30 12947 H 1301.74 -4.04669 -0.0501507 0
M  V30 12948 H 1300.31 -3.08538 -0.502325 0
M  V30 12949 H 1299.53 -3.41975 1.96078 0
M  V30 12950 H 1300.82 -4.62777 2.1146 0
M  V30 12951 H 1300.22 -5.58166 -0.920204 0
M  V30 12952 H 1298.77 -6.48252 -0.679194 0
M  V30 12953 N 1302.21 -1.00763 -1.2118 0
M  V30 12954 C 1303.14 -0.528468 -2.23024 0
M  V30 12955 C 1304.15 0.384348 -1.58198 0
M  V30 12956 O 1305.34 0.184127 -1.77548 0
M  V30 12957 C 1302.44 0.251693 -3.37964 0
M  V30 12958 C 1301.61 -0.660838 -4.32379 0
M  V30 12959 C 1300.67 0.0701723 -5.26153 0
M  V30 12960 O 1299.7 -0.549355 -5.66543 0
M  V30 12961 N 1300.9 1.34791 -5.64634 0
M  V30 12962 H 1303.67 -1.40428 -2.64764 0
M  V30 12963 H 1301.23 -0.884085 -1.3563 0
M  V30 12964 H 1303.22 0.749746 -3.97694 0
M  V30 12965 H 1301.79 1.02872 -2.95188 0
M  V30 12966 H 1301.01 -1.33934 -3.7075 0
M  V30 12967 H 1302.3 -1.28177 -4.9239 0
M  V30 12968 H 1301.69 1.87232 -5.33817 0
M  V30 12969 H 1300.25 1.79086 -6.26715 0
M  V30 12970 N 1303.68 1.3679 -0.7827 0
M  V30 12971 C 1305.1 1.82006 -0.41603 0
M  V30 12972 C 1305.45 1.65151 1.05922 0
M  V30 12973 O 1304.57 1.1687 1.82127 0
M  V30 12974 C 1305.17 3.30432 -0.748353 0
M  V30 12975 C 1303.73 3.73883 -0.4346 0
M  V30 12976 C 1302.87 2.59159 -0.986505 0
M  V30 12977 H 1305.82 1.25107 -0.976423 0
M  V30 12978 H 1305.84 3.80482 -0.036985 0
M  V30 12979 H 1305.36 3.42667 -1.82212 0
M  V30 12980 H 1303.46 3.67211 0.631401 0
M  V30 12981 H 1303.57 4.69577 -0.950511 0
M  V30 12982 H 1301.93 2.51377 -0.410108 0
M  V30 12983 H 1302.72 2.74182 -2.06589 0
M  V30 12984 N 1305.16 0.53415 1.48272 0
M  V30 12985 C 1306.09 -0.215037 2.32508 0
M  V30 12986 C 1307.07 -0.931083 1.42355 0
M  V30 12987 O 1308.26 -0.916051 1.71237 0
M  V30 12988 C 1305.39 -1.25985 3.23643 0
M  V30 12989 C 1304.34 -0.661692 4.22854 0
M  V30 12990 C 1303.67 -1.80946 5.03153 0
M  V30 12991 C 1304.97 0.369358 5.20992 0
M  V30 12992 H 1306.66 0.488158 2.95394 0
M  V30 12993 H 1304.21 0.236206 1.4205 0
M  V30 12994 H 1306.16 -1.79195 3.81402 0
M  V30 12995 H 1304.89 -1.99268 2.58766 0
M  V30 12996 H 1303.54 -0.151082 3.66289 0
M  V30 12997 H 1303.19 -2.53077 4.34696 0
M  V30 12998 H 1302.89 -1.41513 5.70305 0
M  V30 12999 H 1304.42 -2.34526 5.63764 0
M  V30 13000 H 1305.83 -0.0758076 5.7325 0
M  V30 13001 H 1304.23 0.681301 5.9622 0
M  V30 13002 H 1305.3 1.27363 4.67875 0
M  V30 13003 N 1306.64 -1.55279 0.269478 0
M  V30 13004 C 1307.57 -2.25278 -0.614188 0
M  V30 13005 C 1308.55 -1.24092 -1.1634 0
M  V30 13006 O 1309.74 -1.52799 -1.19858 0
M  V30 13007 C 1306.87 -2.96956 -1.80096 0
M  V30 13008 C 1305.82 -4.05021 -1.38353 0
M  V30 13009 C 1305.15 -4.64244 -2.65295 0
M  V30 13010 C 1306.45 -5.19523 -0.537886 0
M  V30 13011 H 1308.14 -2.99385 -0.0304397 0
M  V30 13012 H 1305.69 -1.43994 -0.0132004 0
M  V30 13013 H 1307.64 -3.44633 -2.42499 0
M  V30 13014 H 1306.36 -2.20374 -2.41045 0
M  V30 13015 H 1305.02 -3.58146 -0.78273 0
M  V30 13016 H 1304.67 -3.84337 -3.2449 0
M  V30 13017 H 1304.37 -5.37208 -2.38079 0
M  V30 13018 H 1305.89 -5.14668 -3.28557 0
M  V30 13019 H 1307.31 -5.63287 -1.06677 0
M  V30 13020 H 1305.71 -5.99014 -0.360845 0
M  V30 13021 H 1306.78 -4.82857 0.444672 0
M  V30 13022 N 1308.12 0.00332656 -1.576 0
M  V30 13023 C 1309.07 1.00425 -2.04692 0
M  V30 13024 C 1310.05 1.30514 -0.941011 0
M  V30 13025 O 1311.24 1.29667 -1.2048 0
M  V30 13026 C 1308.37 2.29731 -2.55105 0
M  V30 13027 C 1307.46 2.02621 -3.72566 0
M  V30 13028 N 1307.85 1.45657 -4.84373 0
M  V30 13029 C 1306.15 2.3278 -3.80433 0
M  V30 13030 C 1306.85 1.34942 -5.65832 0
M  V30 13031 N 1305.83 1.83389 -5.11732 0
M  V30 13032 H 1309.63 0.558262 -2.88549 0
M  V30 13033 H 1307.14 0.209094 -1.61048 0
M  V30 13034 H 1309.14 3.02274 -2.87116 0
M  V30 13035 H 1307.8 2.74985 -1.72665 0
M  V30 13036 H 1308.81 1.13582 -5.05291 0
M  V30 13037 H 1305.49 2.80932 -3.08842 0
M  V30 13038 H 1306.88 0.911707 -6.65686 0
M  V30 13039 N 1309.6 1.55164 0.276031 0
M  V30 13040 C 1311.01 1.66367 0.847293 0
M  V30 13041 C 1311.36 0.588692 1.8716 0
M  V30 13042 O 1310.48 -0.27035 2.14705 0
M  V30 13043 C 1311.08 3.01593 1.5436 0
M  V30 13044 C 1309.64 3.14833 2.06293 0
M  V30 13045 C 1308.78 2.62152 0.903959 0
M  V30 13046 H 1311.74 1.58613 0.0524478 0
M  V30 13047 H 1311.76 2.94412 2.41043 0
M  V30 13048 H 1311.27 3.7981 0.797849 0
M  V30 13049 H 1309.37 2.41384 2.83839 0
M  V30 13050 H 1309.48 4.21353 2.28032 0
M  V30 13051 H 1307.85 2.19233 1.29649 0
M  V30 13052 H 1308.63 3.4287 0.171765 0
M  V30 13053 N 1311.07 -0.540404 1.48045 0
M  V30 13054 C 1312.49 -1.12243 1.49192 0
M  V30 13055 C 1312.84 -1.94524 0.255895 0
M  V30 13056 O 1311.96 -2.06786 -0.637855 0
M  V30 13057 C 1312.56 -2.04227 2.70327 0
M  V30 13058 C 1311.12 -2.57668 2.7438 0
M  V30 13059 C 1310.26 -1.34402 2.42552 0
M  V30 13060 H 1313.21 -0.326165 1.55312 0
M  V30 13061 H 1313.23 -2.88359 2.48253 0
M  V30 13062 H 1312.75 -1.44314 3.60271 0
M  V30 13063 H 1310.85 -3.21331 1.88618 0
M  V30 13064 H 1310.96 -2.97514 3.7553 0
M  V30 13065 H 1309.32 -1.65635 1.93487 0
M  V30 13066 H 1310.11 -0.762571 3.34723 0
M  V30 13067 N 1312.55 -1.36459 -0.788468 0
M  V30 13068 C 1313.46 -1.33017 -1.93245 0
M  V30 13069 C 1314.48 -0.232212 -1.72444 0
M  V30 13070 O 1315.65 -0.464743 -1.95965 0
M  V30 13071 C 1312.72 -1.1197 -3.28121 0
M  V30 13072 C 1311.78 -2.3125 -3.61693 0
M  V30 13073 C 1311.01 -2.11197 -4.90134 0
M  V30 13074 O 1311.24 -1.08764 -5.59934 0
M  V30 13075 O 1310.17 -2.98996 -5.22384 0
M  V30 13076 H 1314 -2.29333 -1.99098 0
M  V30 13077 H 1311.58 -1.17016 -0.928856 0
M  V30 13078 H 1313.46 -1.02154 -4.08831 0
M  V30 13079 H 1312.14 -0.187171 -3.23158 0
M  V30 13080 H 1311.05 -2.46635 -2.81286 0
M  V30 13081 H 1312.38 -3.23012 -3.71381 0
M  V30 13082 N 1314.03 1.01274 -1.20754 0
M  V30 13083 C 1315.44 1.56381 -1.0199 0
M  V30 13084 C 1315.79 1.91595 0.422591 0
M  V30 13085 O 1314.92 1.72653 1.3046 0
M  V30 13086 C 1315.51 2.8415 -1.8451 0
M  V30 13087 C 1314.07 3.35772 -1.70101 0
M  V30 13088 C 1313.22 2.0904 -1.82202 0
M  V30 13089 H 1316.17 0.836105 -1.34889 0
M  V30 13090 H 1316.19 3.55717 -1.35076 0
M  V30 13091 H 1315.7 2.5849 -2.8949 0
M  V30 13092 H 1313.8 3.66384 -0.677732 0
M  V30 13093 H 1313.92 4.07714 -2.51607 0
M  V30 13094 H 1312.28 2.21675 -1.25429 0
M  V30 13095 H 1313.06 1.858 -2.88675 0
M  V30 13096 N 1315.51 1.01404 1.20644 0
M  V30 13097 C 1316.46 0.582109 2.23339 0
M  V30 13098 C 1317.43 -0.39649 1.61298 0
M  V30 13099 O 1318.61 -0.296504 1.88482 0
M  V30 13100 C 1315.75 -0.076029 3.45016 0
M  V30 13101 C 1314.86 0.946829 4.21496 0
M  V30 13102 C 1314 0.26001 5.30563 0
M  V30 13103 C 1313.04 1.2698 5.98784 0
M  V30 13104 N 1312.18 0.609827 6.99447 0
M  V30 13105 H 1317.02 1.46248 2.59645 0
M  V30 13106 H 1314.55 0.732145 1.27585 0
M  V30 13107 H 1316.51 -0.474714 4.1449 0
M  V30 13108 H 1315.14 -0.920062 3.0941 0
M  V30 13109 H 1314.19 1.4637 3.51113 0
M  V30 13110 H 1315.5 1.71491 4.68393 0
M  V30 13111 H 1314.66 -0.19431 6.06389 0
M  V30 13112 H 1313.4 -0.540395 4.84697 0
M  V30 13113 H 1312.4 1.73453 5.21722 0
M  V30 13114 H 1313.63 2.07144 6.46737 0
M  V30 13115 H 1311.57 -0.170756 6.55778 0
M  V30 13116 H 1311.49 1.31601 7.44458 0
M  V30 13117 H 1312.76 0.179014 7.79294 0
M  V30 13118 N 1316.99 -1.36373 0.789944 0
M  V30 13119 C 1318.21 -2.04011 0.373396 0
M  V30 13120 C 1318.64 -1.59171 -1.00231 0
M  V30 13121 O 1318 -0.760431 -1.64582 0
M  V30 13122 C 1318.04 -3.5783 0.446083 0
M  V30 13123 O 1317.15 -4.08759 -0.54678 0
M  V30 13124 H 1316.49 -0.644807 0.158495 0
M  V30 13125 H 1319.02 -1.74317 1.0712 0
M  V30 13126 H 1319.03 -4.06822 0.309877 0
M  V30 13127 H 1317.7 -3.89819 1.44962 0
M  V30 13128 H 1316.28 -3.71038 -0.372192 0
M  V30 13129 N 1318.47 -0.542005 -1.47987 0
M  V30 13130 C 1319.88 -0.104646 -1.86406 0
M  V30 13131 C 1320.23 1.32139 -1.4503 0
M  V30 13132 O 1319.35 1.99159 -0.846439 0
M  V30 13133 C 1319.95 -0.183133 -3.38305 0
M  V30 13134 C 1318.51 0.199098 -3.75873 0
M  V30 13135 C 1317.65 -0.537532 -2.7204 0
M  V30 13136 H 1320.6 -0.75259 -1.3972 0
M  V30 13137 H 1320.63 0.602149 -3.75705 0
M  V30 13138 H 1320.14 -1.22113 -3.68389 0
M  V30 13139 H 1318.24 1.23878 -3.51404 0
M  V30 13140 H 1318.35 -0.14888 -4.78869 0
M  V30 13141 H 1316.72 0.0176255 -2.54694 0
M  V30 13142 H 1317.5 -1.57639 -3.04967 0
M  V30 13143 N 1319.94 1.55134 -0.277709 0
M  V30 13144 C 1321.19 1.99259 0.337662 0
M  V30 13145 C 1321.51 1.16755 1.56183 0
M  V30 13146 O 1320.78 0.257707 1.94198 0
M  V30 13147 H 1319.36 0.735995 0.127751 0
M  V30 13148 H 1322.02 1.91087 -0.383646 0
M  V30 13149 H 1321.12 3.05763 0.625747 0
M  V30 13150 N 1321.42 0.00503138 1.57599 0
M  V30 13151 C 1322.33 -1.00097 2.12174 0
M  V30 13152 C 1323.35 -1.37353 1.06818 0
M  V30 13153 O 1324.52 -1.45984 1.38747 0
M  V30 13154 C 1321.59 -2.27252 2.61835 0
M  V30 13155 C 1320.65 -1.96262 3.81811 0
M  V30 13156 C 1319.88 -3.17355 4.29094 0
M  V30 13157 O 1320.11 -4.2921 3.75679 0
M  V30 13158 O 1319.04 -3.01059 5.21198 0
M  V30 13159 H 1322.87 -0.567024 2.9836 0
M  V30 13160 H 1320.45 -0.214109 1.47858 0
M  V30 13161 H 1322.33 -3.01944 2.93952 0
M  V30 13162 H 1321.01 -2.69875 1.78744 0
M  V30 13163 H 1319.91 -1.19031 3.54658 0
M  V30 13164 H 1321.25 -1.58473 4.65991 0
M  V30 13165 N 1322.9 -1.55308 -0.267798 0
M  V30 13166 C 1324.13 -1.79929 -1.01533 0
M  V30 13167 C 1324.54 -0.57545 -1.80237 0
M  V30 13168 O 1323.88 0.465072 -1.77715 0
M  V30 13169 C 1323.94 -2.97568 -2.01726 0
M  V30 13170 C 1323.61 -4.34407 -1.41912 0
M  V30 13171 C 1324.6 -5.13197 -0.832151 0
M  V30 13172 C 1322.29 -4.81074 -1.44476 0
M  V30 13173 C 1324.28 -6.3679 -0.278781 0
M  V30 13174 C 1321.97 -6.04621 -0.887535 0
M  V30 13175 C 1322.97 -6.82316 -0.305548 0
M  V30 13176 O 1322.66 -8.03532 0.243133 0
M  V30 13177 H 1322.39 -0.603082 -0.305398 0
M  V30 13178 H 1324.94 -2.03162 -0.302378 0
M  V30 13179 H 1323.17 -2.7004 -2.76795 0
M  V30 13180 H 1324.86 -3.09466 -2.62651 0
M  V30 13181 H 1325.63 -4.78273 -0.805 0
M  V30 13182 H 1321.51 -4.20604 -1.88714 0
M  V30 13183 H 1325.05 -6.97378 0.176117 0
M  V30 13184 H 1320.95 -6.39026 -0.911943 0
M  V30 13185 H 1321.71 -8.18392 0.132991 0
M  V30 13186 N 1324.38 0.532545 -1.4833 0
M  V30 13187 C 1325.62 1.29042 -1.56448 0
M  V30 13188 C 1325.96 1.92754 -0.236532 0
M  V30 13189 O 1325.23 1.79154 0.757237 0
M  V30 13190 C 1325.51 2.38173 -2.70084 0
M  V30 13191 C 1325.37 1.79169 -4.12576 0
M  V30 13192 C 1326.69 3.39957 -2.79495 0
M  V30 13193 H 1323.81 0.467816 -0.569488 0
M  V30 13194 H 1326.45 0.593517 -1.80492 0
M  V30 13195 H 1324.6 2.97616 -2.49714 0
M  V30 13196 H 1326.27 1.23797 -4.44378 0
M  V30 13197 H 1324.51 1.09716 -4.19696 0
M  V30 13198 H 1325.18 2.58174 -4.87904 0
M  V30 13199 H 1327.66 2.90466 -2.97941 0
M  V30 13200 H 1326.54 4.13714 -3.60739 0
M  V30 13201 H 1326.8 4.00347 -1.87548 0
M  V30 13202 N 1325.86 1.36875 0.78122 0
M  V30 13203 C 1326.8 1.31941 1.91557 0
M  V30 13204 C 1327.8 0.209783 1.68096 0
M  V30 13205 O 1329 0.377266 1.76002 0
M  V30 13206 H 1325.38 0.410955 0.629778 0
M  V30 13207 H 1327.35 2.27721 1.92836 0
M  V30 13208 C 1326.1 1.13379 3.28695 0
M  V30 13209 H 1325.42 1.98013 3.47319 0
M  V30 13210 H 1326.86 1.13976 4.08394 0
M  V30 13211 C 1325.32 -0.161119 3.36515 0
M  V30 13212 O 1325.85 -1.14806 3.84945 0
M  V30 13213 N 1324.06 -0.208594 2.8985 0
M  V30 13214 H 1323.6 0.595187 2.5063 0
M  V30 13215 H 1323.56 -1.07465 2.95463 0
M  V30 13216 N 1327.33 -1.00632 1.21289 0
M  V30 13217 C 1328.58 -1.73802 1.02351 0
M  V30 13218 C 1328.9 -1.90503 -0.443611 0
M  V30 13219 O 1330.1 -2.60868 -0.752356 0
M  V30 13220 C 1328.56 -3.12647 1.78269 0
M  V30 13221 C 1328.17 -3.03923 3.29142 0
M  V30 13222 C 1329.91 -3.89956 1.67735 0
M  V30 13223 C 1327.82 -4.3784 3.97556 0
M  V30 13224 H 1326.75 -0.651616 0.379358 0
M  V30 13225 H 1329.4 -1.12446 1.45011 0
M  V30 13226 H 1327.78 -3.74605 1.28401 0
M  V30 13227 H 1328.95 -2.51211 3.86303 0
M  V30 13228 H 1327.27 -2.40103 3.40205 0
M  V30 13229 H 1329.87 -4.89051 2.1618 0
M  V30 13230 H 1330.21 -4.11423 0.635338 0
M  V30 13231 H 1330.74 -3.34647 2.15072 0
M  V30 13232 H 1327.48 -4.21573 5.01952 0
M  V30 13233 H 1327 -4.90518 3.45184 0
M  V30 13234 H 1328.68 -5.06644 4.02393 0
M  V30 13235 N 1328.81 -1.02043 -1.20104 0
M  V30 13236 C 1329.72 -0.603724 -2.26699 0
M  V30 13237 C 1330.74 0.360558 -1.70223 0
M  V30 13238 O 1331.91 0.220552 -2.00189 0
M  V30 13239 C 1328.98 0.0475988 -3.46667 0
M  V30 13240 C 1328.04 -0.963111 -4.18357 0
M  V30 13241 C 1327.27 -0.342775 -5.32598 0
M  V30 13242 O 1327.5 0.856509 -5.63933 0
M  V30 13243 O 1326.43 -1.06141 -5.92467 0
M  V30 13244 H 1330.26 -1.49125 -2.64566 0
M  V30 13245 H 1327.84 -0.790134 -1.26796 0
M  V30 13246 H 1329.72 0.411177 -4.19389 0
M  V30 13247 H 1328.4 0.909266 -3.10667 0
M  V30 13248 H 1327.3 -1.37813 -3.47791 0
M  V30 13249 H 1328.64 -1.79487 -4.58307 0
M  V30 13250 N 1330.29 1.35952 -0.797165 0
M  V30 13251 C 1331.54 1.99032 -0.373142 0
M  V30 13252 C 1331.87 1.63257 1.05723 0
M  V30 13253 O 1331.12 0.883022 1.74646 0
M  V30 13254 C 1331.42 3.53986 -0.492805 0
M  V30 13255 C 1331.09 4.09603 -1.88511 0
M  V30 13256 C 1329.75 4.24505 -2.26604 0
M  V30 13257 C 1332.1 4.39829 -2.79643 0
M  V30 13258 C 1329.43 4.66946 -3.55215 0
M  V30 13259 C 1331.78 4.83706 -4.0769 0
M  V30 13260 C 1330.44 4.96813 -4.45795 0
M  V30 13261 H 1329.71 0.728311 -0.136542 0
M  V30 13262 H 1332.36 1.62318 -1.01613 0
M  V30 13263 H 1330.67 3.91103 0.233661 0
M  V30 13264 H 1332.36 4.00735 -0.145638 0
M  V30 13265 H 1328.95 3.98449 -1.57912 0
M  V30 13266 H 1333.14 4.27878 -2.51464 0
M  V30 13267 H 1328.39 4.75282 -3.84599 0
M  V30 13268 H 1332.57 5.06057 -4.78414 0
M  V30 13269 H 1330.19 5.29458 -5.45507 0
M  V30 13270 N 1331.77 0.549846 1.47697 0
M  V30 13271 C 1333.02 0.0230048 2.02087 0
M  V30 13272 C 1333.34 -1.32865 1.4273 0
M  V30 13273 O 1332.61 -1.86492 0.59981 0
M  V30 13274 H 1331.19 0.00551514 0.74698 0
M  V30 13275 H 1333.85 0.718185 1.81185 0
M  V30 13276 H 1332.95 -0.0705813 3.1202 0
M  V30 13277 N 1333.25 -1.54984 0.285932 0
M  V30 13278 C 1334.47 -2.04699 -0.333621 0
M  V30 13279 C 1334.9 -1.16252 -1.47875 0
M  V30 13280 O 1334.25 -0.163376 -1.80562 0
M  V30 13281 C 1334.3 -3.52022 -0.78187 0
M  V30 13282 O 1333.41 -3.66639 -1.88812 0
M  V30 13283 H 1332.75 -0.660579 -0.0673203 0
M  V30 13284 H 1335.28 -2.00171 0.423386 0
M  V30 13285 H 1335.29 -3.93591 -1.07473 0
M  V30 13286 H 1333.96 -4.15862 0.055893 0
M  V30 13287 H 1332.54 -3.36974 -1.59696 0
M  V30 13288 N 1334.72 -0.0133892 -1.57594 0
M  V30 13289 C 1336 0.706416 -1.82398 0
M  V30 13290 C 1336.38 1.91236 -0.893983 0
M  V30 13291 O 1335.73 2.28436 0.0541675 0
M  V30 13292 C 1335.94 1.09951 -3.31228 0
M  V30 13293 C 1337.29 1.49776 -3.97306 0
M  V30 13294 O 1338.31 1.19293 -3.3563 0
M  V30 13295 O 1337.17 2.06511 -5.0598 0
M  V30 13296 H 1334.26 0.345131 -0.751541 0
M  V30 13297 H 1336.81 -0.0398687 -1.69653 0
M  V30 13298 H 1335.58 0.240514 -3.9056 0
M  V30 13299 H 1335.21 1.90447 -3.49021 0
M  V30 13300 N 1336.2 1.55448 0.259558 0
M  V30 13301 C 1337.13 1.85678 1.34373 0
M  V30 13302 C 1338.15 0.742155 1.449 0
M  V30 13303 O 1339.34 1.02015 1.46476 0
M  V30 13304 C 1336.44 2.01668 2.72366 0
M  V30 13305 C 1335.61 3.32434 2.84265 0
M  V30 13306 C 1334.67 3.38322 4.03019 0
M  V30 13307 O 1333.69 4.11616 3.93143 0
M  V30 13308 N 1334.9 2.66697 5.1561 0
M  V30 13309 H 1337.66 2.79261 1.08781 0
M  V30 13310 H 1335.22 1.5553 0.449672 0
M  V30 13311 H 1337.21 2.02963 3.50126 0
M  V30 13312 H 1335.78 1.14889 2.90722 0
M  V30 13313 H 1335 3.43564 1.93281 0
M  V30 13314 H 1336.29 4.18649 2.89155 0
M  V30 13315 H 1335.69 2.06857 5.26523 0
M  V30 13316 H 1334.25 2.73699 5.91551 0
M  V30 13317 N 1337.68 -0.524672 1.4861 0
M  V30 13318 C 1338.91 -1.30958 1.60825 0
M  V30 13319 C 1339.33 -1.86142 0.270682 0
M  V30 13320 O 1338.69 -1.64675 -0.758415 0
M  V30 13321 C 1338.74 -2.43252 2.66197 0
M  V30 13322 O 1337.84 -3.4644 2.23725 0
M  V30 13323 H 1337.18 -0.387638 0.539104 0
M  V30 13324 H 1339.71 -0.630755 1.94635 0
M  V30 13325 H 1339.72 -2.89362 2.87635 0
M  V30 13326 H 1338.4 -2.02449 3.63301 0
M  V30 13327 H 1336.97 -3.06413 2.12522 0
M  V30 13328 N 1339.16 -1.37287 -0.77395 0
M  V30 13329 C 1340.41 -1.32112 -1.5294 0
M  V30 13330 C 1340.73 0.0946137 -1.9477 0
M  V30 13331 O 1340 1.03817 -1.66129 0
M  V30 13332 H 1338.58 -0.486047 -0.567245 0
M  V30 13333 H 1341.24 -1.71752 -0.921263 0
M  V30 13334 H 1340.34 -1.95873 -2.42982 0
M  V30 13335 N 1340.64 0.999871 -1.21821 0
M  V30 13336 C 1341.87 1.77148 -1.06312 0
M  V30 13337 C 1342.27 1.85142 0.389747 0
M  V30 13338 O 1341.62 1.31562 1.28207 0
M  V30 13339 C 1341.68 3.22367 -1.59122 0
M  V30 13340 C 1341.34 3.37937 -3.07649 0
M  V30 13341 C 1342.34 3.25808 -4.05148 0
M  V30 13342 C 1340.03 3.63213 -3.46961 0
M  V30 13343 C 1342.02 3.38729 -5.39946 0
M  V30 13344 C 1339.71 3.75775 -4.81909 0
M  V30 13345 C 1340.7 3.6354 -5.78211 0
M  V30 13346 O 1340.39 3.75694 -7.1071 0
M  V30 13347 H 1340.12 0.563396 -0.373578 0
M  V30 13348 H 1342.68 1.26627 -1.61724 0
M  V30 13349 H 1340.91 3.74047 -0.98111 0
M  V30 13350 H 1342.6 3.81219 -1.39379 0
M  V30 13351 H 1343.36 3.062 -3.76121 0
M  V30 13352 H 1339.24 3.71816 -2.72533 0
M  V30 13353 H 1342.79 3.29096 -6.15095 0
M  V30 13354 H 1338.68 3.94889 -5.1062 0
M  V30 13355 H 1339.45 3.9261 -7.18192 0
M  V30 13356 N 1342.11 1.02678 1.19562 0
M  V30 13357 C 1343.04 0.626359 2.24942 0
M  V30 13358 C 1344.03 -0.363612 1.66168 0
M  V30 13359 O 1345.21 -0.246793 1.92625 0
M  V30 13360 C 1342.34 -0.0257912 3.4729 0
M  V30 13361 C 1341.29 0.886237 4.18724 0
M  V30 13362 C 1340.62 0.0993081 5.34608 0
M  V30 13363 C 1341.92 2.19901 4.73752 0
M  V30 13364 H 1343.61 1.50729 2.58691 0
M  V30 13365 H 1341.16 0.726195 1.24348 0
M  V30 13366 H 1343.11 -0.317545 4.20202 0
M  V30 13367 H 1341.84 -0.941511 3.12735 0
M  V30 13368 H 1340.5 1.16215 3.47692 0
M  V30 13369 H 1340.14 -0.81838 4.96298 0
M  V30 13370 H 1339.84 0.706776 5.83334 0
M  V30 13371 H 1341.37 -0.185754 6.10317 0
M  V30 13372 H 1342.78 1.96892 5.3843 0
M  V30 13373 H 1341.18 2.75821 5.32956 0
M  V30 13374 H 1342.25 2.85509 3.91934 0
M  V30 13375 N 1343.59 -1.35528 0.804364 0
M  V30 13376 C 1344.82 -2.03604 0.395013 0
M  V30 13377 C 1345.24 -1.60225 -0.985371 0
M  V30 13378 O 1344.6 -0.777844 -1.63766 0
M  V30 13379 C 1344.65 -3.57337 0.484011 0
M  V30 13380 O 1343.75 -4.09316 -0.503395 0
M  V30 13381 H 1343.09 -0.643089 0.165325 0
M  V30 13382 H 1345.62 -1.73171 1.08963 0
M  V30 13383 H 1345.63 -4.0647 0.353009 0
M  V30 13384 H 1344.31 -3.8826 1.49088 0
M  V30 13385 H 1342.89 -3.71412 -0.332817 0
M  V30 13386 N 1345.07 -0.557671 -1.47404 0
M  V30 13387 C 1346.32 -0.0337216 -2.02072 0
M  V30 13388 C 1346.64 1.32106 -1.43433 0
M  V30 13389 O 1345.91 1.86171 -0.609692 0
M  V30 13390 H 1344.49 -0.00947648 -0.74694 0
M  V30 13391 H 1347.15 -0.727784 -1.80802 0
M  V30 13392 H 1346.25 0.0540331 -3.12053 0
M  V30 13393 N 1346.55 1.54831 -0.294147 0
M  V30 13394 C 1347.96 1.85627 0.199866 0
M  V30 13395 C 1348.31 1.21613 1.53964 0
M  V30 13396 O 1347.44 0.511317 2.10272 0
M  V30 13397 C 1348.03 3.3678 0.369428 0
M  V30 13398 C 1346.59 3.67633 0.807663 0
M  V30 13399 C 1345.74 2.7716 -0.0880078 0
M  V30 13400 H 1348.69 1.50099 -0.515371 0
M  V30 13401 H 1348.71 3.60913 1.20508 0
M  V30 13402 H 1348.22 3.83342 -0.605831 0
M  V30 13403 H 1346.32 3.26583 1.79372 0
M  V30 13404 H 1346.44 4.74916 0.631799 0
M  V30 13405 H 1344.8 2.51017 0.431553 0
M  V30 13406 H 1345.58 3.26542 -1.0595 0
M  V30 13407 N 1348.03 0.0217466 1.57585 0
M  V30 13408 C 1349.27 -0.659463 1.91778 0
M  V30 13409 C 1349.61 -1.72201 0.897801 0
M  V30 13410 O 1348.88 -1.94333 -0.080509 0
M  V30 13411 C 1349.16 -1.28269 3.36481 0
M  V30 13412 C 1349.02 -0.230201 4.49211 0
M  V30 13413 C 1350.34 -2.20279 3.81005 0
M  V30 13414 H 1347.46 -0.238263 0.697424 0
M  V30 13415 H 1350.1 0.0774967 1.89842 0
M  V30 13416 H 1348.25 -1.9108 3.38262 0
M  V30 13417 H 1349.92 0.399901 4.59563 0
M  V30 13418 H 1348.16 0.445157 4.3151 0
M  V30 13419 H 1348.83 -0.705732 5.4747 0
M  V30 13420 H 1351.31 -1.67463 3.80914 0
M  V30 13421 H 1350.19 -2.60842 4.82962 0
M  V30 13422 H 1350.45 -3.09092 3.16093 0
M  V30 13423 N 1349.51 -1.55583 -0.251311 0
M  V30 13424 C 1350.47 -1.89148 -1.29443 0
M  V30 13425 C 1351.47 -0.7676 -1.41296 0
M  V30 13426 O 1352.66 -1.03563 -1.40073 0
M  V30 13427 C 1349.79 -2.11601 -2.67279 0
M  V30 13428 H 1350.98 -2.82416 -1.00901 0
M  V30 13429 H 1348.54 -1.48407 -0.490398 0
M  V30 13430 H 1349.27 -1.20787 -3.00967 0
M  V30 13431 H 1349.06 -2.93449 -2.60058 0
M  V30 13432 H 1350.55 -2.38768 -3.42607 0
M  V30 13433 N 1350.98 0.516783 -1.48886 0
M  V30 13434 C 1352.23 1.27187 -1.57574 0
M  V30 13435 C 1352.56 1.92815 -0.255432 0
M  V30 13436 O 1351.81 1.80533 0.755403 0
M  V30 13437 C 1352.11 2.37296 -2.67256 0
M  V30 13438 C 1351.78 1.89232 -4.0927 0
M  V30 13439 C 1350.44 1.75842 -4.47921 0
M  V30 13440 C 1352.79 1.53073 -4.98215 0
M  V30 13441 C 1350.12 1.24648 -5.73306 0
M  V30 13442 C 1352.47 1.03337 -6.24103 0
M  V30 13443 C 1351.14 0.885744 -6.61597 0
M  V30 13444 H 1350.41 0.46541 -0.576606 0
M  V30 13445 H 1353.05 0.575223 -1.82657 0
M  V30 13446 H 1351.36 3.12685 -2.36084 0
M  V30 13447 H 1353.06 2.95393 -2.7119 0
M  V30 13448 H 1349.65 2.00608 -3.78754 0
M  V30 13449 H 1353.83 1.62272 -4.69022 0
M  V30 13450 H 1349.09 1.11917 -6.0107 0
M  V30 13451 H 1353.26 0.744338 -6.92411 0
M  V30 13452 H 1350.89 0.486866 -7.58639 0
M  V30 13453 N 1352.46 1.37696 0.766659 0
M  V30 13454 C 1353.41 1.30383 1.87041 0
M  V30 13455 C 1354.4 0.190643 1.59767 0
M  V30 13456 O 1355.59 0.425485 1.7181 0
M  V30 13457 C 1352.72 1.11817 3.2458 0
M  V30 13458 C 1351.8 2.27701 3.57789 0
M  V30 13459 N 1352.19 3.53108 3.62144 0
M  V30 13460 C 1350.49 2.19967 3.87983 0
M  V30 13461 C 1351.19 4.29555 3.92247 0
M  V30 13462 N 1350.17 3.58754 4.08408 0
M  V30 13463 H 1353.97 2.25348 1.88668 0
M  V30 13464 H 1351.48 1.30741 0.963362 0
M  V30 13465 H 1353.48 1.04663 4.03548 0
M  V30 13466 H 1352.14 0.177731 3.24213 0
M  V30 13467 H 1353.15 3.86949 3.44225 0
M  V30 13468 H 1349.83 1.34009 3.95408 0
M  V30 13469 H 1351.22 5.38112 4.0235 0
M  V30 13470 N 1353.94 -0.993397 1.22349 0
M  V30 13471 C 1355.16 -1.77373 1.07488 0
M  V30 13472 C 1355.59 -1.84418 -0.37034 0
M  V30 13473 O 1354.95 -1.29629 -1.26752 0
M  V30 13474 C 1355 -3.18538 1.69014 0
M  V30 13475 O 1354.1 -4.01463 0.943474 0
M  V30 13476 H 1353.44 -0.546209 0.37756 0
M  V30 13477 H 1355.97 -1.24792 1.62136 0
M  V30 13478 H 1355.98 -3.6917 1.73717 0
M  V30 13479 H 1354.66 -3.12725 2.74182 0
M  V30 13480 H 1353.23 -3.59998 0.972415 0
M  V30 13481 N 1355.42 -1.03311 -1.19015 0
M  V30 13482 C 1356.64 -0.751686 -1.93299 0
M  V30 13483 C 1357.07 0.68392 -1.75226 0
M  V30 13484 O 1356.43 1.47274 -1.05736 0
M  V30 13485 C 1356.47 -1.11335 -3.42982 0
M  V30 13486 O 1355.58 -0.234434 -4.11733 0
M  V30 13487 H 1354.92 -0.277331 -0.60331 0
M  V30 13488 H 1357.45 -1.38092 -1.5097 0
M  V30 13489 H 1357.46 -1.07204 -3.93664 0
M  V30 13490 H 1356.13 -2.15922 -3.55458 0
M  V30 13491 H 1354.71 -0.3347 -3.71395 0
M  V30 13492 N 1356.9 1.35099 -0.81154 0
M  V30 13493 C 1358.31 1.81082 -0.454543 0
M  V30 13494 C 1358.66 1.67361 1.02395 0
M  V30 13495 O 1357.78 1.20707 1.79607 0
M  V30 13496 C 1358.38 3.2877 -0.818274 0
M  V30 13497 C 1356.94 3.72877 -0.513808 0
M  V30 13498 C 1356.08 2.57008 -1.04125 0
M  V30 13499 H 1359.03 1.23007 -1.00274 0
M  V30 13500 H 1359.06 3.80318 -0.117683 0
M  V30 13501 H 1358.57 3.38725 -1.89439 0
M  V30 13502 H 1356.67 3.68468 0.553368 0
M  V30 13503 H 1356.78 4.67455 -1.0499 0
M  V30 13504 H 1355.15 2.5045 -0.463337 0
M  V30 13505 H 1355.93 2.69738 -2.12358 0
M  V30 13506 N 1358.37 0.56548 1.47106 0
M  V30 13507 C 1359.6 0.0476763 2.07345 0
M  V30 13508 C 1360.02 -1.24032 1.41413 0
M  V30 13509 O 1359.38 -1.74498 0.491941 0
M  V30 13510 C 1359.43 -0.122618 3.60391 0
M  V30 13511 O 1358.53 -1.18326 3.9506 0
M  V30 13512 H 1357.87 0.0550419 0.661715 0
M  V30 13513 H 1360.4 0.78352 1.89003 0
M  V30 13514 H 1360.41 -0.334227 4.06629 0
M  V30 13515 H 1359.09 0.81807 4.07775 0
M  V30 13516 H 1357.67 -0.951481 3.60557 0
M  V30 13517 N 1359.85 -1.54672 0.302354 0
M  V30 13518 C 1361.1 -2.00463 -0.306978 0
M  V30 13519 C 1361.43 -1.19043 -1.53435 0
M  V30 13520 O 1360.71 -0.267255 -1.92655 0
M  V30 13521 C 1360.99 -3.53958 -0.662229 0
M  V30 13522 C 1360.84 -4.46118 0.574378 0
M  V30 13523 C 1362.16 -4.14174 -1.48821 0
M  V30 13524 H 1359.28 -0.728729 -0.110102 0
M  V30 13525 H 1361.92 -1.85419 0.414722 0
M  V30 13526 H 1360.07 -3.66909 -1.2771 0
M  V30 13527 H 1361.74 -4.45071 1.21284 0
M  V30 13528 H 1359.99 -4.1666 1.20736 0
M  V30 13529 H 1360.66 -5.51281 0.281651 0
M  V30 13530 H 1363.13 -4.04668 -0.968674 0
M  V30 13531 H 1362.01 -5.2173 -1.70556 0
M  V30 13532 H 1362.27 -3.66136 -2.47784 0
M  V30 13533 N 1361.33 -0.0301034 -1.57571 0
M  V30 13534 C 1362.75 0.326296 -1.56229 0
M  V30 13535 C 1362.95 1.72839 -1.03581 0
M  V30 13536 O 1362 2.43088 -0.682979 0
M  V30 13537 C 1363.32 0.174001 -3.00196 0
M  V30 13538 C 1364.86 0.246694 -3.12026 0
M  V30 13539 C 1365.34 0.123177 -4.57834 0
M  V30 13540 N 1366.83 0.180129 -4.6285 0
M  V30 13541 C 1367.56 0.108353 -5.73298 0
M  V30 13542 N 1367.06 -0.0145648 -6.92798 0
M  V30 13543 N 1368.85 0.162411 -5.61865 0
M  V30 13544 H 1361 -0.946945 -1.90123 0
M  V30 13545 H 1363.27 -0.365762 -0.874598 0
M  V30 13546 H 1362.97 -0.791871 -3.42669 0
M  V30 13547 H 1362.85 0.943794 -3.65202 0
M  V30 13548 H 1365.23 1.20303 -2.69465 0
M  V30 13549 H 1365.32 -0.553493 -2.4974 0
M  V30 13550 H 1364.96 -0.82974 -5.01077 0
M  V30 13551 H 1364.89 0.94224 -5.18102 0
M  V30 13552 H 1367.38 0.275236 -3.76896 0
M  V30 13553 H 1367.69 -0.062614 -7.72775 0
M  V30 13554 H 1366.04 -0.0493606 -6.94982 0
M  V30 13555 H 1369.23 0.256847 -4.67395 0
M  V30 13556 H 1369.4 0.103013 -6.47918 0
M  V30 13557 N 1362.81 1.55714 0.243056 0
M  V30 13558 C 1364.05 1.79491 0.977867 0
M  V30 13559 C 1364.41 0.600239 1.82376 0
M  V30 13560 O 1365.61 0.716857 2.59065 0
M  V30 13561 C 1363.88 3.08034 1.81245 0
M  V30 13562 S 1365.44 3.53046 2.60583 0
M  V30 13563 H 1362.26 0.630377 0.328855 0
M  V30 13564 H 1364.86 1.93954 0.245371 0
M  V30 13565 H 1363.57 3.93047 1.18079 0
M  V30 13566 H 1363.1 2.9632 2.58763 0
M  V30 13567 H 1365.11 3.14683 3.83652 0
M  V30 13568 N 1364.29 -0.50888 1.49158 0
M  V30 13569 C 1365.7 -1.09054 1.51539 0
M  V30 13570 C 1366.05 -1.93938 0.297099 0
M  V30 13571 O 1365.17 -2.08092 -0.593849 0
M  V30 13572 C 1365.77 -1.98447 2.74599 0
M  V30 13573 C 1364.33 -2.5179 2.79783 0
M  V30 13574 C 1363.47 -1.29227 2.45348 0
M  V30 13575 H 1366.43 -0.293148 1.55969 0
M  V30 13576 H 1366.45 -2.83028 2.54314 0
M  V30 13577 H 1365.96 -1.3664 3.63251 0
M  V30 13578 H 1364.06 -3.17258 1.95392 0
M  V30 13579 H 1364.17 -2.89481 3.81756 0
M  V30 13580 H 1362.54 -1.61494 1.96957 0
M  V30 13581 H 1363.32 -0.6914 3.36266 0
M  V30 13582 N 1365.76 -1.381 -0.759346 0
M  V30 13583 C 1366.99 -1.37389 -1.55367 0
M  V30 13584 C 1367.41 0.0356097 -1.88066 0
M  V30 13585 O 1366.77 1.0161 -1.5015 0
M  V30 13586 C 1366.82 -2.23098 -2.83302 0
M  V30 13587 O 1365.92 -1.64412 -3.7821 0
M  V30 13588 H 1365.27 -0.468894 -0.470143 0
M  V30 13589 H 1367.8 -1.81787 -0.938858 0
M  V30 13590 H 1367.81 -2.36753 -3.32283 0
M  V30 13591 H 1366.48 -3.25544 -2.58831 0
M  V30 13592 H 1365.06 -1.59867 -3.36893 0
M  V30 13593 N 1367.24 0.986894 -1.22875 0
M  V30 13594 C 1368.17 2.08035 -0.961971 0
M  V30 13595 C 1369.19 1.62683 0.0616475 0
M  V30 13596 O 1370.38 1.77659 -0.173094 0
M  V30 13597 C 1367.48 3.36208 -0.426302 0
M  V30 13598 C 1366.65 4.10562 -1.50856 0
M  V30 13599 C 1365.71 5.17014 -0.97891 0
M  V30 13600 O 1364.73 5.44259 -1.66645 0
M  V30 13601 N 1365.94 5.80167 0.196613 0
M  V30 13602 H 1368.7 2.315 -1.90336 0
M  V30 13603 H 1366.26 1.1531 -1.13645 0
M  V30 13604 H 1368.25 4.0466 -0.0571577 0
M  V30 13605 H 1366.82 3.09761 0.420345 0
M  V30 13606 H 1366.04 3.36656 -2.05076 0
M  V30 13607 H 1367.33 4.57007 -2.23655 0
M  V30 13608 H 1366.73 5.60409 0.771892 0
M  V30 13609 H 1365.29 6.49825 0.507083 0
M  V30 13610 N 1368.72 1.0394 1.18466 0
M  V30 13611 C 1369.65 0.650182 2.24265 0
M  V30 13612 C 1370.63 -0.345968 1.66545 0
M  V30 13613 O 1371.82 -0.226348 1.92876 0
M  V30 13614 C 1368.95 0.0110451 3.47298 0
M  V30 13615 C 1367.9 0.930599 4.17761 0
M  V30 13616 C 1367.23 0.156005 5.34472 0
M  V30 13617 C 1368.53 2.24913 4.71393 0
M  V30 13618 H 1370.22 1.53465 2.57078 0
M  V30 13619 H 1367.77 0.739343 1.23571 0
M  V30 13620 H 1369.72 -0.272959 4.20515 0
M  V30 13621 H 1368.44 -0.908288 3.13716 0
M  V30 13622 H 1367.1 1.19897 3.4644 0
M  V30 13623 H 1366.75 -0.765695 4.97138 0
M  V30 13624 H 1366.45 0.768606 5.82551 0
M  V30 13625 H 1367.97 -0.121011 6.1048 0
M  V30 13626 H 1369.39 2.02592 5.36311 0
M  V30 13627 H 1367.79 2.81459 5.30001 0
M  V30 13628 H 1368.86 2.8965 3.88884 0
M  V30 13629 N 1370.2 -1.34667 0.818693 0
M  V30 13630 C 1371.13 -2.28368 0.195126 0
M  V30 13631 C 1372.14 -1.50836 -0.612562 0
M  V30 13632 O 1373.33 -1.72917 -0.442936 0
M  V30 13633 C 1370.43 -3.30601 -0.745411 0
M  V30 13634 C 1369.61 -4.37396 0.0185308 0
M  V30 13635 C 1368.66 -5.19415 -0.842298 0
M  V30 13636 O 1367.69 -5.68467 -0.288821 0
M  V30 13637 N 1368.89 -5.38709 -2.1627 0
M  V30 13638 H 1371.66 -2.8252 1.00013 0
M  V30 13639 H 1369.22 -1.47146 0.675262 0
M  V30 13640 H 1371.21 -3.82367 -1.3258 0
M  V30 13641 H 1369.78 -2.76875 -1.45118 0
M  V30 13642 H 1369 -3.86402 0.780205 0
M  V30 13643 H 1370.29 -5.05877 0.544575 0
M  V30 13644 H 1369.69 -5.00523 -2.63616 0
M  V30 13645 H 1368.24 -5.9361 -2.69204 0
M  V30 13646 N 1371.68 -0.573274 -1.46804 0
M  V30 13647 C 1373.09 -0.144162 -1.86143 0
M  V30 13648 C 1373.44 1.29033 -1.47801 0
M  V30 13649 O 1372.56 1.97319 -0.888494 0
M  V30 13650 C 1373.16 -0.254851 -3.3784 0
M  V30 13651 C 1371.72 0.119325 -3.76211 0
M  V30 13652 C 1370.86 -0.595115 -2.70839 0
M  V30 13653 H 1373.82 -0.782057 -1.38093 0
M  V30 13654 H 1373.84 0.522321 -3.76898 0
M  V30 13655 H 1373.35 -1.29899 -3.65715 0
M  V30 13656 H 1371.45 1.16396 -3.53953 0
M  V30 13657 H 1371.56 -0.250421 -4.78445 0
M  V30 13658 H 1369.93 -0.0364028 -2.54674 0
M  V30 13659 H 1370.71 -1.64072 -3.01555 0
M  V30 13660 N 1373.15 1.5451 -0.310553 0
M  V30 13661 C 1374.12 2.2254 0.548489 0
M  V30 13662 C 1375.12 1.21456 1.05381 0
M  V30 13663 O 1376.31 1.46126 0.948311 0
M  V30 13664 C 1373.44 2.91927 1.76043 0
M  V30 13665 H 1374.63 2.99865 -0.0460306 0
M  V30 13666 H 1372.19 1.56179 -0.061487 0
M  V30 13667 H 1372.92 2.18706 2.39454 0
M  V30 13668 H 1372.71 3.66038 1.40564 0
M  V30 13669 H 1374.2 3.43797 2.37051 0
M  V30 13670 N 1374.63 0.0384594 1.57553 0
M  V30 13671 C 1376.04 -0.499057 1.79906 0
M  V30 13672 C 1376.4 -1.7169 0.949577 0
M  V30 13673 O 1375.52 -2.15788 0.162584 0
M  V30 13674 C 1376.12 -0.912155 3.2629 0
M  V30 13675 C 1374.67 -1.39473 3.49606 0
M  V30 13676 C 1373.82 -0.363859 2.74902 0
M  V30 13677 H 1376.77 0.264433 1.56481 0
M  V30 13678 H 1376.79 -1.77592 3.36513 0
M  V30 13679 H 1376.31 -0.0255928 3.88092 0
M  V30 13680 H 1374.41 -2.3009 2.93068 0
M  V30 13681 H 1374.52 -1.39566 4.58321 0
M  V30 13682 H 1372.88 -0.833993 2.40659 0
M  V30 13683 H 1373.67 0.514398 3.39424 0
M  V30 13684 N 1376.11 -1.55841 -0.234795 0
M  V30 13685 C 1377.53 -1.48536 -0.583885 0
M  V30 13686 C 1377.73 -0.731018 -1.87772 0
M  V30 13687 O 1376.78 -0.265287 -2.51103 0
M  V30 13688 C 1378.1 -2.93017 -0.675389 0
M  V30 13689 C 1379.64 -3.03459 -0.766906 0
M  V30 13690 C 1380.12 -4.49272 -0.889868 0
M  V30 13691 N 1381.61 -4.5326 -0.95443 0
M  V30 13692 C 1382.35 -5.63346 -1.06905 0
M  V30 13693 N 1381.84 -6.83215 -1.14845 0
M  V30 13694 N 1383.63 -5.51169 -1.10315 0
M  V30 13695 H 1375.79 -2.0332 0.614405 0
M  V30 13696 H 1378.05 -0.923581 0.213779 0
M  V30 13697 H 1377.75 -3.51099 0.205493 0
M  V30 13698 H 1377.63 -3.4418 -1.54337 0
M  V30 13699 H 1380.02 -2.4545 -1.63823 0
M  V30 13700 H 1380.1 -2.55487 0.126472 0
M  V30 13701 H 1379.74 -5.07895 -0.0230489 0
M  V30 13702 H 1379.67 -4.94937 -1.79847 0
M  V30 13703 H 1382.16 -3.6693 -0.903923 0
M  V30 13704 H 1382.47 -7.62863 -1.23532 0
M  V30 13705 H 1380.82 -6.85952 -1.11781 0
M  V30 13706 H 1384.01 -4.56453 -1.03769 0
M  V30 13707 H 1384.18 -6.36998 -1.18903 0
M  V30 13708 N 1377.59 0.500963 -1.49426 0
M  V30 13709 C 1378.5 1.62889 -1.68833 0
M  V30 13710 C 1379.52 1.64367 -0.570932 0
M  V30 13711 O 1380.69 1.82786 -0.845641 0
M  V30 13712 C 1377.76 2.99255 -1.75063 0
M  V30 13713 C 1376.82 3.08404 -2.9864 0
M  V30 13714 C 1376.05 4.38266 -3.04564 0
M  V30 13715 O 1376.27 5.27065 -2.1808 0
M  V30 13716 O 1375.21 4.52387 -3.97026 0
M  V30 13717 H 1379.03 1.49446 -2.64385 0
M  V30 13718 H 1376.62 0.677254 -1.33168 0
M  V30 13719 H 1378.5 3.80303 -1.81515 0
M  V30 13720 H 1377.18 3.1296 -0.826896 0
M  V30 13721 H 1376.08 2.26544 -2.97706 0
M  V30 13722 H 1377.42 2.99626 -3.90494 0
M  V30 13723 N 1379.07 1.38501 0.752011 0
M  V30 13724 C 1379.98 1.38094 1.8965 0
M  V30 13725 C 1380.99 0.277851 1.71767 0
M  V30 13726 O 1382.17 0.516536 1.94663 0
M  V30 13727 C 1379.23 1.2063 3.25037 0
M  V30 13728 C 1378.3 2.40758 3.55435 0
M  V30 13729 C 1377.53 2.24118 4.84362 0
M  V30 13730 O 1377.75 1.23571 5.56854 0
M  V30 13731 O 1376.69 3.12741 5.14273 0
M  V30 13732 H 1380.51 2.34532 1.92947 0
M  V30 13733 H 1378.1 1.19437 0.897504 0
M  V30 13734 H 1379.98 1.12957 4.05979 0
M  V30 13735 H 1378.65 0.272785 3.22549 0
M  V30 13736 H 1377.56 2.54006 2.74648 0
M  V30 13737 H 1378.89 3.32745 3.62686 0
M  V30 13738 N 1380.55 -0.980364 1.23396 0
M  V30 13739 C 1381.46 -2.10688 1.03188 0
M  V30 13740 C 1382.47 -1.73984 -0.0236159 0
M  V30 13741 O 1383.65 -2.00666 0.171841 0
M  V30 13742 C 1380.71 -3.4101 0.625563 0
M  V30 13743 C 1379.77 -3.91739 1.75611 0
M  V30 13744 C 1379.01 -5.15841 1.36908 0
M  V30 13745 O 1379.23 -5.69837 0.253329 0
M  V30 13746 O 1378.16 -5.60638 2.19018 0
M  V30 13747 H 1381.99 -2.30626 1.97599 0
M  V30 13748 H 1379.57 -1.09067 1.02102 0
M  V30 13749 H 1381.46 -4.19402 0.409909 0
M  V30 13750 H 1380.13 -3.22402 -0.28956 0
M  V30 13751 H 1379.04 -3.14464 2.0264 0
M  V30 13752 H 1380.37 -4.14801 2.64955 0
M  V30 13753 N 1382.02 -1.04567 -1.17913 0
M  V30 13754 C 1383.25 -0.772204 -1.9195 0
M  V30 13755 C 1383.67 0.671303 -1.76462 0
M  V30 13756 O 1383.02 1.45805 -1.0976 0
M  V30 13757 C 1383.07 -1.13539 -3.43207 0
M  V30 13758 O 1382.8 -2.52223 -3.58211 0
M  V30 13759 C 1384.3 -0.887146 -4.34332 0
M  V30 13760 H 1381.52 -0.281234 -0.609219 0
M  V30 13761 H 1384.06 -1.39467 -1.49563 0
M  V30 13762 H 1382.22 -0.557784 -3.83363 0
M  V30 13763 H 1382.63 -2.66275 -4.51882 0
M  V30 13764 H 1384.1 -1.19107 -5.38997 0
M  V30 13765 H 1384.58 0.1779 -4.3884 0
M  V30 13766 H 1385.19 -1.44829 -3.99881 0
M  V30 13767 N 1383.5 1.34231 -0.825823 0
M  V30 13768 C 1384.75 1.97805 -0.414456 0
M  V30 13769 C 1385.07 1.65786 1.02664 0
M  V30 13770 O 1384.34 0.950069 1.7132 0
M  V30 13771 H 1382.92 0.73173 -0.150265 0
M  V30 13772 H 1385.58 1.63819 -1.05591 0
M  V30 13773 H 1384.68 3.07466 -0.535829 0
M  V30 13774 N 1384.98 0.581051 1.46498 0
M  V30 13775 C 1386.21 0.0715652 2.06776 0
M  V30 13776 C 1386.62 -1.23267 1.43006 0
M  V30 13777 O 1385.98 -1.74489 0.534776 0
M  V30 13778 C 1386.03 -0.102666 3.61354 0
M  V30 13779 O 1385.75 1.14995 4.22739 0
M  V30 13780 C 1387.25 -0.646692 4.38558 0
M  V30 13781 H 1384.47 0.0566964 0.6686 0
M  V30 13782 H 1387.02 0.801248 1.8815 0
M  V30 13783 H 1385.17 -0.782564 3.79414 0
M  V30 13784 H 1385.59 0.962718 5.15589 0
M  V30 13785 H 1387.06 -0.717791 5.47313 0
M  V30 13786 H 1387.54 -1.6633 4.06486 0
M  V30 13787 H 1388.14 -0.00171739 4.253 0
M  V30 13788 N 1386.46 -1.54343 0.318742 0
M  V30 13789 C 1387.37 -2.27856 -0.558442 0
M  V30 13790 C 1388.38 -1.32029 -1.13333 0
M  V30 13791 O 1389.56 -1.65037 -1.15433 0
M  V30 13792 C 1386.62 -3.01842 -1.70565 0
M  V30 13793 C 1385.69 -4.13245 -1.16305 0
M  V30 13794 C 1384.92 -4.83693 -2.25559 0
M  V30 13795 O 1385.14 -4.53621 -3.4581 0
M  V30 13796 O 1384.08 -5.70708 -1.91249 0
M  V30 13797 H 1387.9 -3.03676 0.0384247 0
M  V30 13798 H 1385.49 -1.4916 0.0845936 0
M  V30 13799 H 1387.37 -3.48189 -2.37365 0
M  V30 13800 H 1386.04 -2.28902 -2.28879 0
M  V30 13801 H 1384.95 -3.71258 -0.460274 0
M  V30 13802 H 1386.28 -4.88214 -0.625111 0
M  V30 13803 N 1387.94 -0.0468143 -1.5753 0
M  V30 13804 C 1388.85 0.944362 -2.14753 0
M  V30 13805 C 1389.86 1.34473 -1.10422 0
M  V30 13806 O 1391.04 1.42254 -1.42569 0
M  V30 13807 C 1388.1 2.2023 -2.67768 0
M  V30 13808 C 1387.16 1.8607 -3.8688 0
M  V30 13809 C 1386.4 3.05867 -4.37357 0
M  V30 13810 O 1386.62 4.19099 -3.86927 0
M  V30 13811 O 1385.55 2.87134 -5.28997 0
M  V30 13812 H 1389.38 0.48772 -2.99758 0
M  V30 13813 H 1386.96 0.174831 -1.48374 0
M  V30 13814 H 1388.85 2.94044 -3.01855 0
M  V30 13815 H 1387.52 2.65041 -1.85836 0
M  V30 13816 H 1386.43 1.09586 -3.5769 0
M  V30 13817 H 1387.76 1.46062 -4.70028 0
M  V30 13818 N 1389.41 1.55964 0.226527 0
M  V30 13819 C 1390.64 1.82558 0.967269 0
M  V30 13820 C 1391.05 0.623034 1.78647 0
M  V30 13821 O 1390.4 -0.41779 1.78886 0
M  V30 13822 C 1390.46 3.02812 1.93766 0
M  V30 13823 C 1390.12 4.38017 1.30345 0
M  V30 13824 C 1391.12 5.15223 0.695793 0
M  V30 13825 C 1388.8 4.84735 1.31671 0
M  V30 13826 C 1390.8 6.37305 0.109849 0
M  V30 13827 C 1388.48 6.06761 0.726919 0
M  V30 13828 C 1389.48 6.82886 0.124537 0
M  V30 13829 O 1389.17 8.02605 -0.45609 0
M  V30 13830 H 1388.9 0.610967 0.289301 0
M  V30 13831 H 1391.46 2.03892 0.248407 0
M  V30 13832 H 1389.69 2.77283 2.69538 0
M  V30 13833 H 1391.38 3.16321 2.54353 0
M  V30 13834 H 1392.14 4.80239 0.677912 0
M  V30 13835 H 1388.02 4.2546 1.77496 0
M  V30 13836 H 1391.56 6.96666 -0.360953 0
M  V30 13837 H 1387.46 6.41219 0.742196 0
M  V30 13838 H 1388.23 8.17752 -0.349926 0
M  V30 13839 N 1390.89 -0.493031 1.4969 0
M  V30 13840 C 1391.83 -1.61165 1.61558 0
M  V30 13841 C 1392.8 -1.55828 0.464363 0
M  V30 13842 O 1393.99 -1.7577 0.680973 0
M  V30 13843 C 1391.11 -2.997 1.5779 0
M  V30 13844 C 1390.16 -3.2327 2.78207 0
M  V30 13845 S 1390.99 -3.05531 4.39785 0
M  V30 13846 C 1392.15 -4.46447 4.38675 0
M  V30 13847 H 1392.38 -1.50854 2.56185 0
M  V30 13848 H 1389.92 -0.678777 1.38679 0
M  V30 13849 H 1391.87 -3.79579 1.56302 0
M  V30 13850 H 1390.53 -3.07419 0.644379 0
M  V30 13851 H 1389.73 -4.24422 2.71812 0
M  V30 13852 H 1389.33 -2.51126 2.77149 0
M  V30 13853 H 1391.62 -5.38683 4.10886 0
M  V30 13854 H 1392.56 -4.5789 5.40132 0
M  V30 13855 H 1392.97 -4.27499 3.68652 0
M  V30 13856 N 1392.37 -1.38898 -0.744656 0
M  V30 13857 C 1393.32 -1.36845 -1.85855 0
M  V30 13858 C 1394.29 -0.2296 -1.64505 0
M  V30 13859 O 1395.47 -0.423221 -1.86047 0
M  V30 13860 C 1392.61 -1.20818 -3.2326 0
M  V30 13861 C 1391.73 -2.44166 -3.5638 0
M  V30 13862 C 1390.86 -2.20801 -4.83136 0
M  V30 13863 C 1389.9 -3.39874 -5.0907 0
M  V30 13864 N 1389.04 -3.15888 -6.27024 0
M  V30 13865 H 1393.88 -2.32068 -1.86945 0
M  V30 13866 H 1391.41 -1.15289 -0.913611 0
M  V30 13867 H 1393.37 -1.0954 -4.02563 0
M  V30 13868 H 1392 -0.292295 -3.21474 0
M  V30 13869 H 1391.05 -2.66083 -2.71852 0
M  V30 13870 H 1392.37 -3.32885 -3.71469 0
M  V30 13871 H 1391.52 -2.0671 -5.704 0
M  V30 13872 H 1390.26 -1.29462 -4.70203 0
M  V30 13873 H 1389.26 -3.54474 -4.20271 0
M  V30 13874 H 1390.49 -4.32102 -5.23894 0
M  V30 13875 H 1388.43 -2.27204 -6.15398 0
M  V30 13876 H 1388.35 -3.9816 -6.42655 0
M  V30 13877 H 1389.62 -3.0547 -7.17153 0
M  V30 13878 N 1393.85 0.973806 -1.23914 0
M  V30 13879 C 1394.78 2.06588 -0.969372 0
M  V30 13880 C 1395.76 1.62324 0.0946926 0
M  V30 13881 O 1396.94 1.88455 -0.0409587 0
M  V30 13882 C 1394.07 3.35539 -0.461665 0
M  V30 13883 C 1393.12 3.98748 -1.51334 0
M  V30 13884 S 1393.95 4.37156 -3.09281 0
M  V30 13885 C 1395.11 5.69252 -2.60197 0
M  V30 13886 H 1395.34 2.29153 -1.8941 0
M  V30 13887 H 1392.87 1.11089 -1.07231 0
M  V30 13888 H 1394.83 4.10125 -0.175355 0
M  V30 13889 H 1393.49 3.10971 0.442253 0
M  V30 13890 H 1392.68 4.91661 -1.10839 0
M  V30 13891 H 1392.29 3.30566 -1.74934 0
M  V30 13892 H 1394.58 6.46489 -2.02628 0
M  V30 13893 H 1395.52 6.14598 -3.51675 0
M  V30 13894 H 1395.93 5.27568 -2.00828 0
M  V30 13895 N 1395.33 1.05191 1.17357 0
M  V30 13896 C 1396.6 0.675826 1.83554 0
M  V30 13897 C 1396.98 -0.843812 1.93502 0
M  V30 13898 O 1396.33 -1.74975 1.46956 0
M  V30 13899 C 1396.54 1.36481 3.21207 0
M  V30 13900 C 1397.89 1.50285 3.97114 0
M  V30 13901 O 1398.91 1.32382 3.30686 0
M  V30 13902 O 1397.77 1.79562 5.16159 0
M  V30 13903 H 1394.87 0.237898 0.792044 0
M  V30 13904 H 1397.41 1.1515 1.24654 0
M  V30 13905 H 1396.18 2.40156 3.08935 0
M  V30 13906 H 1395.81 0.878491 3.87774 0
M  V30 13907 N 1396.8 -1.33791 0.83293 0
M  V30 13908 C 1397.73 -2.31853 0.276846 0
M  V30 13909 C 1398.72 -1.58702 -0.612184 0
M  V30 13910 O 1399.9 -1.86629 -0.536975 0
M  V30 13911 C 1397.03 -3.42855 -0.55385 0
M  V30 13912 C 1395.98 -4.27333 0.238884 0
M  V30 13913 C 1395.31 -5.29895 -0.715187 0
M  V30 13914 C 1396.61 -5.01692 1.45265 0
M  V30 13915 H 1398.3 -2.78611 1.09618 0
M  V30 13916 H 1395.85 -1.33949 0.528562 0
M  V30 13917 H 1397.8 -4.10479 -0.953133 0
M  V30 13918 H 1396.53 -2.94771 -1.40634 0
M  V30 13919 H 1395.19 -3.61325 0.619656 0
M  V30 13920 H 1394.83 -4.7807 -1.56391 0
M  V30 13921 H 1394.53 -5.87296 -0.188921 0
M  V30 13922 H 1396.06 -6.00387 -1.11211 0
M  V30 13923 H 1397.47 -5.62117 1.12685 0
M  V30 13924 H 1395.87 -5.68715 1.91528 0
M  V30 13925 H 1396.94 -4.30809 2.22558 0
M  V30 13926 N 1398.28 -0.588812 -1.46187 0
M  V30 13927 C 1399.53 -0.0765765 -2.01955 0
M  V30 13928 C 1399.85 1.29034 -1.46203 0
M  V30 13929 O 1399.12 1.84836 -0.649044 0
M  V30 13930 H 1397.7 -0.025318 -0.746571 0
M  V30 13931 H 1400.36 -0.765971 -1.79217 0
M  V30 13932 H 1399.46 -0.0121702 -3.12098 0
M  V30 13933 N 1399.76 1.54172 -0.326923 0
M  V30 13934 C 1401.17 1.86009 0.160446 0
M  V30 13935 C 1401.52 1.24851 1.51349 0
M  V30 13936 O 1400.65 0.555804 2.09141 0
M  V30 13937 C 1401.24 3.37488 0.297909 0
M  V30 13938 C 1399.8 3.69263 0.7295 0
M  V30 13939 C 1398.95 2.76911 -0.146778 0
M  V30 13940 H 1401.9 1.48972 -0.547093 0
M  V30 13941 H 1401.92 3.63388 1.12825 0
M  V30 13942 H 1401.43 3.81971 -0.687007 0
M  V30 13943 H 1399.53 3.30314 1.72404 0
M  V30 13944 H 1399.65 4.76149 0.53092 0
M  V30 13945 H 1398.01 2.51876 0.378212 0
M  V30 13946 H 1398.79 3.24221 -1.12852 0
M  V30 13947 N 1401.24 0.0551678 1.57503 0
M  V30 13948 C 1402.49 -0.6165 1.92467 0
M  V30 13949 C 1402.81 -1.71147 0.934552 0
M  V30 13950 O 1402.08 -1.9589 -0.0199649 0
M  V30 13951 H 1400.66 -0.230714 0.710479 0
M  V30 13952 H 1403.32 0.109111 1.94594 0
M  V30 13953 H 1402.42 -1.05254 2.93816 0
M  V30 13954 N 1402.72 -1.56081 -0.218252 0
M  V30 13955 C 1404.13 -1.49147 -0.568098 0
M  V30 13956 C 1404.33 -0.750893 -1.86986 0
M  V30 13957 O 1403.39 -0.291904 -2.50807 0
M  V30 13958 C 1404.7 -2.93717 -0.644272 0
M  V30 13959 C 1406.25 -3.04256 -0.734677 0
M  V30 13960 C 1406.72 -4.50191 -0.842167 0
M  V30 13961 N 1408.22 -4.54247 -0.906302 0
M  V30 13962 C 1408.95 -5.64448 -1.00924 0
M  V30 13963 N 1408.45 -6.84394 -1.07592 0
M  V30 13964 N 1410.24 -5.52308 -1.04463 0
M  V30 13965 H 1402.39 -2.02656 0.635935 0
M  V30 13966 H 1404.65 -0.921262 0.223563 0
M  V30 13967 H 1404.36 -3.50861 0.242721 0
M  V30 13968 H 1404.23 -3.45798 -1.50678 0
M  V30 13969 H 1406.62 -2.47174 -1.61211 0
M  V30 13970 H 1406.7 -2.55339 0.153563 0
M  V30 13971 H 1406.35 -5.07891 0.0308214 0
M  V30 13972 H 1406.28 -4.96817 -1.74587 0
M  V30 13973 H 1408.77 -3.67868 -0.864954 0
M  V30 13974 H 1409.08 -7.6413 -1.15433 0
M  V30 13975 H 1407.42 -6.87099 -1.045 0
M  V30 13976 H 1410.62 -4.57528 -0.989218 0
M  V30 13977 H 1410.79 -6.38223 -1.1214 0
M  V30 13978 N 1404.2 0.485086 -1.49949 0
M  V30 13979 C 1405.61 0.817651 -1.37064 0
M  V30 13980 C 1405.81 1.9716 -0.415949 0
M  V30 13981 O 1404.87 2.52074 0.146567 0
M  V30 13982 C 1406.18 1.14288 -2.78134 0
M  V30 13983 C 1407.73 1.25016 -2.8695 0
M  V30 13984 C 1408.2 1.60859 -4.28822 0
M  V30 13985 N 1409.69 1.67878 -4.31707 0
M  V30 13986 C 1410.43 1.97089 -5.38464 0
M  V30 13987 N 1409.93 2.24415 -6.55446 0
M  V30 13988 N 1411.72 1.98474 -5.25894 0
M  V30 13989 H 1403.87 -0.275606 -2.10604 0
M  V30 13990 H 1406.13 -0.0607486 -0.946052 0
M  V30 13991 H 1405.84 0.36817 -3.49768 0
M  V30 13992 H 1405.71 2.0825 -3.14502 0
M  V30 13993 H 1408.1 2.01556 -2.15544 0
M  V30 13994 H 1408.18 0.290664 -2.54143 0
M  V30 13995 H 1407.82 0.848639 -5.0076 0
M  V30 13996 H 1407.75 2.57936 -4.59104 0
M  V30 13997 H 1410.25 1.48856 -3.47347 0
M  V30 13998 H 1410.56 2.45938 -7.32622 0
M  V30 13999 H 1408.9 2.21837 -6.58645 0
M  V30 14000 H 1412.09 1.76612 -4.33504 0
M  V30 14001 H 1412.27 2.20904 -6.09184 0
M  V30 14002 N 1405.67 1.39291 0.737279 0
M  V30 14003 C 1406.64 1.37607 1.83294 0
M  V30 14004 C 1407.64 0.273594 1.58455 0
M  V30 14005 O 1408.83 0.531375 1.65898 0
M  V30 14006 C 1405.96 1.14642 3.21045 0
M  V30 14007 H 1407.15 2.35102 1.86191 0
M  V30 14008 H 1404.7 1.24822 0.940696 0
M  V30 14009 H 1405.44 0.178202 3.2381 0
M  V30 14010 H 1405.22 1.94479 3.40471 0
M  V30 14011 H 1406.71 1.162 4.01108 0
M  V30 14012 N 1407.15 -0.967221 1.24429 0
M  V30 14013 C 1408.11 -2.04344 1.03808 0
M  V30 14014 C 1409.11 -1.60799 -0.00476972 0
M  V30 14015 O 1410.3 -1.72591 0.236241 0
M  V30 14016 C 1407.44 -3.36041 0.573496 0
M  V30 14017 H 1408.63 -2.2407 1.9933 0
M  V30 14018 H 1406.18 -1.14253 1.06658 0
M  V30 14019 H 1406.92 -3.22008 -0.384898 0
M  V30 14020 H 1406.7 -3.68991 1.32619 0
M  V30 14021 H 1408.19 -4.15165 0.450272 0
M  V30 14022 N 1408.63 -1.05812 -1.16797 0
M  V30 14023 C 1409.88 -0.782869 -1.8773 0
M  V30 14024 C 1410.23 0.683013 -1.79869 0
M  V30 14025 O 1409.52 1.49357 -1.20012 0
M  V30 14026 C 1409.72 -1.20565 -3.3645 0
M  V30 14027 C 1409.55 -2.71109 -3.58789 0
M  V30 14028 C 1408.32 -3.38506 -3.75155 0
M  V30 14029 C 1410.51 -3.69327 -3.57914 0
M  V30 14030 N 1408.5 -4.77851 -3.85398 0
M  V30 14031 C 1409.87 -4.94431 -3.74082 0
M  V30 14032 C 1411.92 -3.62707 -3.41099 0
M  V30 14033 C 1410.63 -6.13707 -3.75175 0
M  V30 14034 C 1412.65 -4.81429 -3.43483 0
M  V30 14035 C 1412.01 -6.0536 -3.60165 0
M  V30 14036 H 1408.11 -0.338798 -0.704798 0
M  V30 14037 H 1410.7 -1.3513 -1.40171 0
M  V30 14038 H 1408.87 -0.665104 -3.82663 0
M  V30 14039 H 1410.6 -0.879581 -3.95026 0
M  V30 14040 H 1407.35 -2.88907 -3.75273 0
M  V30 14041 H 1407.78 -5.50324 -3.943 0
M  V30 14042 H 1412.42 -2.67851 -3.27133 0
M  V30 14043 H 1410.14 -7.08901 -3.87925 0
M  V30 14044 H 1413.72 -4.77966 -3.31722 0
M  V30 14045 H 1412.6 -6.95688 -3.61923 0
M  V30 14046 N 1410.11 1.33347 -0.840014 0
M  V30 14047 C 1411.04 2.28029 -0.231432 0
M  V30 14048 C 1412.05 1.51792 0.588488 0
M  V30 14049 O 1413.24 1.736 0.415371 0
M  V30 14050 C 1410.34 3.31745 0.692721 0
M  V30 14051 C 1409.51 4.37311 -0.0881144 0
M  V30 14052 C 1408.57 5.20689 0.759557 0
M  V30 14053 O 1407.6 5.68854 0.198347 0
M  V30 14054 N 1408.8 5.42082 2.07672 0
M  V30 14055 H 1411.57 2.80893 -1.04495 0
M  V30 14056 H 1409.13 1.46053 -0.698586 0
M  V30 14057 H 1411.12 3.84428 1.2648 0
M  V30 14058 H 1409.69 2.79148 1.40695 0
M  V30 14059 H 1408.91 3.85112 -0.841579 0
M  V30 14060 H 1410.2 5.04947 -0.624986 0
M  V30 14061 H 1409.6 5.04654 2.55619 0
M  V30 14062 H 1408.15 5.97817 2.59726 0
M  V30 14063 N 1411.59 0.596556 1.45873 0
M  V30 14064 C 1412.5 -0.130832 2.34235 0
M  V30 14065 C 1413.51 -0.871805 1.50584 0
M  V30 14066 O 1414.69 -0.831877 1.83417 0
M  V30 14067 C 1411.75 -1.12279 3.28016 0
M  V30 14068 C 1410.81 -0.384982 4.2757 0
M  V30 14069 C 1410.05 -1.32969 5.1687 0
M  V30 14070 O 1410.27 -2.56696 5.09375 0
M  V30 14071 O 1409.2 -0.832741 5.96112 0
M  V30 14072 H 1413.03 0.59503 2.97814 0
M  V30 14073 H 1410.61 0.356873 1.45075 0
M  V30 14074 H 1412.5 -1.6944 3.85834 0
M  V30 14075 H 1411.17 -1.82988 2.67015 0
M  V30 14076 H 1410.08 0.228816 3.734 0
M  V30 14077 H 1411.41 0.281398 4.91395 0
M  V30 14078 N 1413.06 -1.53996 0.335095 0
M  V30 14079 C 1414.29 -2.05657 -0.268328 0
M  V30 14080 C 1414.71 -1.20897 -1.44102 0
M  V30 14081 O 1414.07 -0.220737 -1.79951 0
M  V30 14082 C 1414.12 -3.54331 -0.669481 0
M  V30 14083 O 1413.22 -3.7246 -1.77052 0
M  V30 14084 H 1412.56 -0.662386 -0.0462705 0
M  V30 14085 H 1415.09 -1.98723 0.486854 0
M  V30 14086 H 1415.1 -3.9681 -0.948971 0
M  V30 14087 H 1413.78 -4.15474 0.188168 0
M  V30 14088 H 1412.36 -3.41884 -1.48895 0
M  V30 14089 N 1414.54 -0.0635198 -1.57472 0
M  V30 14090 C 1415.77 0.616735 -1.97494 0
M  V30 14091 C 1416.18 1.63646 -0.941568 0
M  V30 14092 O 1415.54 1.82355 0.0727768 0
M  V30 14093 C 1415.59 1.29268 -3.37597 0
M  V30 14094 O 1415.31 0.313781 -4.36975 0
M  V30 14095 C 1416.81 2.06154 -3.92448 0
M  V30 14096 H 1414.03 0.167753 -0.649692 0
M  V30 14097 H 1416.58 -0.133475 -2.04064 0
M  V30 14098 H 1414.73 1.99404 -3.3214 0
M  V30 14099 H 1415.15 0.797723 -5.18398 0
M  V30 14100 H 1416.62 2.48853 -4.92723 0
M  V30 14101 H 1417.1 2.91474 -3.28541 0
M  V30 14102 H 1417.7 1.40903 -4.01281 0
M  V30 14103 N 1416.02 1.56195 0.209972 0
M  V30 14104 C 1417.27 1.7939 0.930796 0
M  V30 14105 C 1417.59 0.634038 1.84404 0
M  V30 14106 O 1416.86 -0.348467 1.92776 0
M  V30 14107 H 1415.44 0.661676 0.346689 0
M  V30 14108 H 1418.1 1.93665 0.219049 0
M  V30 14109 H 1417.2 2.71982 1.53075 0
M  V30 14110 N 1417.5 -0.477127 1.50204 0
M  V30 14111 C 1418.74 -1.23147 1.6113 0
M  V30 14112 C 1419.08 -1.91743 0.307909 0
M  V30 14113 O 1418.35 -1.81841 -0.690223 0
M  V30 14114 C 1418.63 -2.27985 2.78738 0
M  V30 14115 C 1418.49 -1.63733 4.18941 0
M  V30 14116 C 1419.81 -3.29349 2.9192 0
M  V30 14117 H 1416.93 -0.446358 0.586459 0
M  V30 14118 H 1419.57 -0.52612 1.8257 0
M  V30 14119 H 1417.72 -2.88143 2.60588 0
M  V30 14120 H 1419.39 -1.07218 4.48667 0
M  V30 14121 H 1417.63 -0.940634 4.23479 0
M  V30 14122 H 1418.3 -2.39888 4.9715 0
M  V30 14123 H 1420.78 -2.79208 3.08516 0
M  V30 14124 H 1419.66 -4.0004 3.75845 0
M  V30 14125 H 1419.92 -3.93111 2.02278 0
M  V30 14126 N 1418.98 -1.3968 -0.729882 0
M  V30 14127 C 1419.89 -1.41094 -1.87429 0
M  V30 14128 C 1420.9 -0.305142 -1.71303 0
M  V30 14129 O 1422.08 -0.54744 -1.93817 0
M  V30 14130 C 1419.14 -1.25786 -3.23077 0
M  V30 14131 C 1418.2 -2.46382 -3.5156 0
M  V30 14132 C 1417.44 -2.31795 -4.80735 0
M  V30 14133 O 1417.66 -1.32415 -5.54818 0
M  V30 14134 O 1416.59 -3.20883 -5.09232 0
M  V30 14135 H 1420.42 -2.37571 -1.89192 0
M  V30 14136 H 1418.01 -1.2085 -0.878389 0
M  V30 14137 H 1419.89 -1.19402 -4.0413 0
M  V30 14138 H 1418.56 -0.324065 -3.22074 0
M  V30 14139 H 1417.47 -2.58343 -2.70573 0
M  V30 14140 H 1418.8 -3.38473 -3.57347 0
M  V30 14141 N 1420.45 0.960609 -1.2494 0
M  V30 14142 C 1421.39 2.05548 -0.991229 0
M  V30 14143 C 1422.37 1.62415 0.0774707 0
M  V30 14144 O 1423.55 1.88401 -0.0609447 0
M  V30 14145 C 1420.68 3.3503 -0.497227 0
M  V30 14146 C 1419.72 3.97121 -1.55555 0
M  V30 14147 S 1420.56 4.33851 -3.139 0
M  V30 14148 C 1421.71 5.66461 -2.6622 0
M  V30 14149 H 1421.94 2.27131 -1.9183 0
M  V30 14150 H 1419.48 1.09945 -1.08404 0
M  V30 14151 H 1421.44 4.09916 -0.218845 0
M  V30 14152 H 1420.1 3.11423 0.409246 0
M  V30 14153 H 1419.29 4.90458 -1.16047 0
M  V30 14154 H 1418.89 3.28692 -1.7843 0
M  V30 14155 H 1421.18 6.44304 -2.09474 0
M  V30 14156 H 1422.13 6.10833 -3.58174 0
M  V30 14157 H 1422.53 5.25409 -2.06413 0
M  V30 14158 N 1421.93 1.0643 1.16234 0
M  V30 14159 C 1423.18 0.780296 1.86429 0
M  V30 14160 C 1423.5 -0.695335 1.82181 0
M  V30 14161 O 1422.77 -1.50312 1.2563 0
M  V30 14162 H 1421.35 0.285654 0.690225 0
M  V30 14163 H 1424.01 1.34609 1.40949 0
M  V30 14164 H 1423.11 1.10644 2.91829 0
M  V30 14165 N 1423.41 -1.329 0.847073 0
M  V30 14166 C 1424.83 -1.50333 0.53593 0
M  V30 14167 C 1425.03 -1.78492 -0.93504 0
M  V30 14168 O 1424.08 -1.85001 -1.71846 0
M  V30 14169 C 1425.4 -2.65254 1.41636 0
M  V30 14170 C 1426.94 -2.79139 1.416 0
M  V30 14171 C 1427.42 -3.97131 2.28147 0
M  V30 14172 N 1428.91 -4.0438 2.25901 0
M  V30 14173 C 1429.64 -4.94893 2.89601 0
M  V30 14174 N 1429.14 -5.90466 3.62383 0
M  V30 14175 N 1430.93 -4.87955 2.79028 0
M  V30 14176 H 1423.08 -1.12886 1.79918 0
M  V30 14177 H 1425.35 -0.555707 0.768045 0
M  V30 14178 H 1425.05 -2.51151 2.46203 0
M  V30 14179 H 1424.93 -3.60856 1.09829 0
M  V30 14180 H 1427.31 -2.92669 0.378013 0
M  V30 14181 H 1427.4 -1.84273 1.77418 0
M  V30 14182 H 1427.04 -3.8436 3.32009 0
M  V30 14183 H 1426.97 -4.91258 1.89665 0
M  V30 14184 H 1429.46 -3.35986 1.72979 0
M  V30 14185 H 1429.77 -6.56212 4.08174 0
M  V30 14186 H 1428.12 -5.90516 3.66491 0
M  V30 14187 H 1431.31 -4.12258 2.21723 0
M  V30 14188 H 1431.48 -5.58295 3.28954 0
M  V30 14189 N 1424.89 -0.604284 -1.45555 0
M  V30 14190 C 1425.82 0.103859 -2.33269 0
M  V30 14191 C 1426.8 0.862104 -1.46635 0
M  V30 14192 O 1427.98 0.833308 -1.75413 0
M  V30 14193 C 1425.11 1.104 -3.29286 0
M  V30 14194 C 1424.07 0.459189 -4.2553 0
M  V30 14195 C 1423.39 1.56734 -5.11213 0
M  V30 14196 C 1424.69 -0.617509 -5.18637 0
M  V30 14197 H 1426.39 -0.628538 -2.92728 0
M  V30 14198 H 1423.93 -0.303711 -1.40761 0
M  V30 14199 H 1425.89 1.60794 -3.89517 0
M  V30 14200 H 1424.61 1.86695 -2.67979 0
M  V30 14201 H 1423.27 -0.0238508 -3.66592 0
M  V30 14202 H 1422.92 2.32049 -4.46276 0
M  V30 14203 H 1422.62 1.14142 -5.76407 0
M  V30 14204 H 1424.14 2.07361 -5.74312 0
M  V30 14205 H 1425.56 -0.197784 -5.72959 0
M  V30 14206 H 1423.95 -0.96499 -5.9229 0
M  V30 14207 H 1425.02 -1.49541 -4.61265 0
M  V30 14208 N 1426.37 1.53816 -0.343257 0
M  V30 14209 C 1427.61 2.00512 0.252845 0
M  V30 14210 C 1427.94 1.23274 1.51091 0
M  V30 14211 O 1427.21 0.339841 1.9293 0
M  V30 14212 H 1425.79 0.740751 0.0964202 0
M  V30 14213 H 1428.45 1.89288 -0.464347 0
M  V30 14214 H 1427.54 3.08142 0.495499 0
M  V30 14215 N 1427.84 0.0718701 1.57436 0
M  V30 14216 C 1429.26 -0.460784 1.80924 0
M  V30 14217 C 1429.61 -1.69637 0.985781 0
M  V30 14218 O 1428.73 -2.15395 0.208319 0
M  V30 14219 C 1429.33 -0.842738 3.28151 0
M  V30 14220 C 1427.89 -1.32026 3.52486 0
M  V30 14221 C 1427.03 -0.305466 2.75612 0
M  V30 14222 H 1429.98 0.297566 1.55885 0
M  V30 14223 H 1430 -1.70414 3.40205 0
M  V30 14224 H 1429.52 0.056733 3.88059 0
M  V30 14225 H 1427.62 -2.23822 2.97883 0
M  V30 14226 H 1427.73 -1.29813 4.61178 0
M  V30 14227 H 1426.09 -0.782758 2.42374 0
M  V30 14228 H 1426.88 0.586279 3.38257 0
M  V30 14229 N 1429.32 -1.56304 -0.201686 0
M  V30 14230 C 1430.29 -1.93171 -1.2336 0
M  V30 14231 C 1431.29 -0.812164 -1.38782 0
M  V30 14232 O 1432.48 -1.07967 -1.36707 0
M  V30 14233 C 1429.61 -2.19997 -2.60411 0
M  V30 14234 H 1430.8 -2.85483 -0.918654 0
M  V30 14235 H 1428.35 -1.49893 -0.442935 0
M  V30 14236 H 1429.09 -1.30301 -2.96972 0
M  V30 14237 H 1428.87 -3.01574 -2.5059 0
M  V30 14238 H 1430.36 -2.49547 -3.34838 0
M  V30 14239 N 1430.8 0.469154 -1.50455 0
M  V30 14240 C 1432.21 1.04997 -1.54378 0
M  V30 14241 C 1432.56 1.93082 -0.348414 0
M  V30 14242 O 1431.69 2.09594 0.538469 0
M  V30 14243 C 1432.28 1.91096 -2.79764 0
M  V30 14244 C 1430.84 2.44283 -2.86361 0
M  V30 14245 C 1429.99 1.22676 -2.48688 0
M  V30 14246 H 1432.94 0.251692 -1.56691 0
M  V30 14247 H 1432.96 2.76186 -2.61728 0
M  V30 14248 H 1432.47 1.26961 -3.66746 0
M  V30 14249 H 1430.57 3.11966 -2.03735 0
M  V30 14250 H 1430.69 2.79258 -3.89297 0
M  V30 14251 H 1429.05 1.56215 -2.01169 0
M  V30 14252 H 1429.83 0.602002 -3.37981 0
M  V30 14253 N 1432.28 1.40065 0.722464 0
M  V30 14254 C 1433.69 1.33876 1.30131 0
M  V30 14255 C 1434.04 0.00899369 1.96198 0
M  V30 14256 O 1433.17 -0.893082 1.97112 0
M  V30 14257 C 1433.76 2.42469 2.36631 0
M  V30 14258 C 1432.32 2.39762 2.90157 0
M  V30 14259 C 1431.47 2.23704 1.63865 0
M  V30 14260 H 1434.42 1.49971 0.519077 0
M  V30 14261 H 1434.44 2.0998 3.17315 0
M  V30 14262 H 1433.95 3.39239 1.88517 0
M  V30 14263 H 1432.05 1.46669 3.42519 0
M  V30 14264 H 1432.16 3.35092 3.42419 0
M  V30 14265 H 1430.53 1.71098 1.88674 0
M  V30 14266 H 1431.31 3.22462 1.17785 0
M  V30 14267 N 1433.76 -0.95397 1.25448 0
M  V30 14268 C 1435.01 -1.6953 1.10018 0
M  V30 14269 C 1435.33 -1.9166 -0.359385 0
M  V30 14270 O 1434.6 -1.50417 -1.25506 0
M  V30 14271 H 1433.18 -0.628238 0.404136 0
M  V30 14272 H 1435.84 -1.14691 1.57581 0
M  V30 14273 H 1434.93 -2.67427 1.60901 0
M  V30 14274 N 1435.24 -1.07045 -1.15668 0
M  V30 14275 C 1436.2 -0.69198 -2.18505 0
M  V30 14276 C 1437.2 0.266185 -1.58582 0
M  V30 14277 O 1438.39 0.0475566 -1.74135 0
M  V30 14278 C 1435.52 -0.0194196 -3.40894 0
M  V30 14279 H 1436.71 -1.60241 -2.53501 0
M  V30 14280 H 1434.27 -0.866598 -1.30076 0
M  V30 14281 H 1435 0.903398 -3.11463 0
M  V30 14282 H 1434.79 -0.708519 -3.85645 0
M  V30 14283 H 1436.28 0.230829 -4.16962 0
M  V30 14284 N 1436.71 1.32449 -0.85411 0
M  V30 14285 C 1437.68 2.27183 -0.303377 0
M  V30 14286 C 1438.68 1.51582 0.536622 0
M  V30 14287 O 1439.87 1.70684 0.348211 0
M  V30 14288 C 1437 3.36086 0.570852 0
M  V30 14289 H 1438.19 2.77408 -1.1395 0
M  V30 14290 H 1435.74 1.43111 -0.628402 0
M  V30 14291 H 1436.48 2.91128 1.42881 0
M  V30 14292 H 1436.26 3.92088 -0.030399 0
M  V30 14293 H 1437.75 4.06675 0.948972 0
M  V30 14294 N 1438.19 0.611994 1.45232 0
M  V30 14295 C 1439.42 0.113618 2.07089 0
M  V30 14296 C 1439.84 -1.1947 1.45288 0
M  V30 14297 O 1439.2 -1.72845 0.547207 0
M  V30 14298 C 1439.25 -0.00789978 3.60599 0
M  V30 14299 O 1438.35 -1.05697 3.98625 0
M  V30 14300 H 1437.69 0.076066 0.659629 0
M  V30 14301 H 1440.22 0.843253 1.86415 0
M  V30 14302 H 1440.23 -0.204692 4.07486 0
M  V30 14303 H 1438.91 0.947386 4.04966 0
M  V30 14304 H 1437.48 -0.836291 3.63401 0
M  V30 14305 N 1439.67 -1.53632 0.351409 0
M  V30 14306 C 1440.92 -2.00222 -0.243731 0
M  V30 14307 C 1441.23 -1.24305 -1.51022 0
M  V30 14308 O 1442.44 -1.61411 -2.18309 0
M  V30 14309 C 1440.89 -3.56619 -0.48487 0
M  V30 14310 C 1440.5 -4.414 0.766173 0
M  V30 14311 C 1442.25 -4.11603 -1.03844 0
M  V30 14312 C 1440.15 -5.89321 0.4954 0
M  V30 14313 H 1439.08 -0.74801 -0.0948534 0
M  V30 14314 H 1441.73 -1.77433 0.467957 0
M  V30 14315 H 1440.12 -3.75505 -1.25746 0
M  V30 14316 H 1441.29 -4.34288 1.54047 0
M  V30 14317 H 1439.6 -3.97448 1.24194 0
M  V30 14318 H 1442.2 -5.19736 -1.25611 0
M  V30 14319 H 1442.54 -3.65311 -1.99634 0
M  V30 14320 H 1443.08 -3.96459 -0.326363 0
M  V30 14321 H 1439.82 -6.39863 1.42324 0
M  V30 14322 H 1439.34 -5.99317 -0.240662 0
M  V30 14323 H 1441.02 -6.46897 0.115584 0
M  V30 14324 N 1441.15 -0.0802183 -1.57396 0
M  V30 14325 C 1442.39 0.590512 -1.95684 0
M  V30 14326 C 1442.75 1.66265 -0.960199 0
M  V30 14327 O 1443.95 2.38954 -1.23104 0
M  V30 14328 C 1442.22 1.14486 -3.38567 0
M  V30 14329 S 1443.78 1.82954 -3.9884 0
M  V30 14330 H 1440.6 0.193123 -0.684269 0
M  V30 14331 H 1443.2 -0.156081 -1.94876 0
M  V30 14332 H 1441.91 0.352828 -4.08881 0
M  V30 14333 H 1441.44 1.92762 -3.42938 0
M  V30 14334 H 1443.45 3.11265 -3.86431 0
M  V30 14335 N 1442.63 1.56409 0.193394 0
M  V30 14336 C 1444.04 1.50032 0.544298 0
M  V30 14337 C 1444.24 0.780546 1.85768 0
M  V30 14338 O 1443.3 0.331769 2.50311 0
M  V30 14339 C 1444.61 2.94705 0.597463 0
M  V30 14340 C 1446.16 3.05386 0.686179 0
M  V30 14341 C 1446.63 4.51473 0.770439 0
M  V30 14342 N 1448.12 4.55631 0.833921 0
M  V30 14343 C 1448.86 5.65982 0.919314 0
M  V30 14344 N 1448.36 6.8602 0.966904 0
M  V30 14345 N 1450.15 5.539 0.956634 0
M  V30 14346 H 1442.3 2.01619 -0.668096 0
M  V30 14347 H 1444.56 0.917589 -0.238191 0
M  V30 14348 H 1444.27 3.50431 -0.298509 0
M  V30 14349 H 1444.14 3.48151 1.45157 0
M  V30 14350 H 1446.53 2.49708 1.57258 0
M  V30 14351 H 1446.61 2.55062 -0.194165 0
M  V30 14352 H 1446.25 5.07777 -0.111619 0
M  V30 14353 H 1446.18 4.99531 1.66661 0
M  V30 14354 H 1448.68 3.69198 0.80632 0
M  V30 14355 H 1448.99 7.6587 1.03262 0
M  V30 14356 H 1447.33 6.88674 0.935552 0
M  V30 14357 H 1450.52 4.59044 0.916304 0
M  V30 14358 H 1450.7 6.39926 1.01972 0
M  V30 14359 N 1444.1 -0.461169 1.50702 0
M  V30 14360 C 1445.51 -1.04177 1.54932 0
M  V30 14361 C 1445.87 -1.92894 0.358648 0
M  V30 14362 O 1444.99 -2.09876 -0.527346 0
M  V30 14363 C 1445.59 -1.8961 2.80773 0
M  V30 14364 C 1444.14 -2.42761 2.87652 0
M  V30 14365 C 1443.29 -1.21356 2.49335 0
M  V30 14366 H 1446.24 -0.243379 1.56823 0
M  V30 14367 H 1446.26 -2.74794 2.63189 0
M  V30 14368 H 1445.78 -1.25014 3.67414 0
M  V30 14369 H 1443.88 -3.10881 2.05386 0
M  V30 14370 H 1443.99 -2.77189 3.90772 0
M  V30 14371 H 1442.35 -1.55146 2.01995 0
M  V30 14372 H 1443.14 -0.584069 3.38295 0
M  V30 14373 N 1445.58 -1.40446 -0.715026 0
M  V30 14374 C 1446.81 -1.4207 -1.50412 0
M  V30 14375 C 1447.22 -0.0205547 -1.88789 0
M  V30 14376 O 1446.58 0.955635 -1.55479 0
M  V30 14377 C 1446.63 -2.3119 -2.77909 0
M  V30 14378 O 1446.35 -3.65754 -2.41154 0
M  V30 14379 C 1447.85 -2.41412 -3.718 0
M  V30 14380 H 1445.07 -0.484554 -0.464164 0
M  V30 14381 H 1447.62 -1.84504 -0.881964 0
M  V30 14382 H 1445.77 -1.92117 -3.36407 0
M  V30 14383 H 1446.19 -4.13091 -3.23197 0
M  V30 14384 H 1447.66 -3.07976 -4.58099 0
M  V30 14385 H 1448.14 -1.43934 -4.14945 0
M  V30 14386 H 1448.74 -2.81039 -3.19213 0
M  V30 14387 N 1447.06 0.947303 -1.25952 0
M  V30 14388 C 1448.48 1.21972 -1.02932 0
M  V30 14389 C 1448.68 1.99951 0.249333 0
M  V30 14390 O 1447.73 2.33534 0.960108 0
M  V30 14391 C 1449.04 1.98695 -2.257 0
M  V30 14392 C 1450.59 2.11711 -2.30538 0
M  V30 14393 C 1451.07 2.91835 -3.52982 0
M  V30 14394 N 1452.56 2.99411 -3.53422 0
M  V30 14395 C 1453.29 3.6182 -4.4483 0
M  V30 14396 N 1452.79 4.25781 -5.46519 0
M  V30 14397 N 1454.58 3.59033 -4.32495 0
M  V30 14398 H 1446.73 0.42583 -2.08088 0
M  V30 14399 H 1449 0.250899 -0.914196 0
M  V30 14400 H 1448.7 1.48801 -3.18671 0
M  V30 14401 H 1448.58 2.9938 -2.29459 0
M  V30 14402 H 1450.96 2.608 -1.38085 0
M  V30 14403 H 1451.04 1.10308 -2.30794 0
M  V30 14404 H 1450.69 2.43435 -4.4576 0
M  V30 14405 H 1450.62 3.9348 -3.49973 0
M  V30 14406 H 1453.11 2.53934 -2.79868 0
M  V30 14407 H 1453.42 4.71281 -6.12466 0
M  V30 14408 H 1451.77 4.24386 -5.50383 0
M  V30 14409 H 1454.96 3.08254 -3.52274 0
M  V30 14410 H 1455.13 4.07384 -5.03927 0
M  V30 14411 N 1448.54 1.07657 1.15099 0
M  V30 14412 C 1449.5 0.703558 2.18135 0
M  V30 14413 C 1450.5 -0.257771 1.5872 0
M  V30 14414 O 1451.69 -0.0383211 1.74158 0
M  V30 14415 C 1448.82 0.0374978 3.40879 0
M  V30 14416 H 1450.02 1.61583 2.52648 0
M  V30 14417 H 1447.57 0.873484 1.29615 0
M  V30 14418 H 1448.3 -0.886868 3.11938 0
M  V30 14419 H 1448.09 0.728961 3.85264 0
M  V30 14420 H 1449.58 -0.208714 4.17078 0
M  V30 14421 N 1450.02 -1.31994 0.861122 0
M  V30 14422 C 1451.26 -1.97317 0.468371 0
M  V30 14423 C 1451.6 -1.67954 -0.974941 0
M  V30 14424 O 1450.87 -0.971243 -1.68514 0
M  V30 14425 C 1451.15 -3.52918 0.715607 0
M  V30 14426 C 1451.01 -3.91888 2.20781 0
M  V30 14427 C 1452.33 -4.39747 0.17624 0
M  V30 14428 H 1449.44 -0.716733 0.171646 0
M  V30 14429 H 1452.09 -1.56269 1.08074 0
M  V30 14430 H 1450.24 -3.88013 0.194387 0
M  V30 14431 H 1451.91 -3.66938 2.7956 0
M  V30 14432 H 1450.15 -3.40813 2.68382 0
M  V30 14433 H 1450.82 -5.00346 2.33147 0
M  V30 14434 H 1453.3 -4.11424 0.622043 0
M  V30 14435 H 1452.17 -5.47592 0.378748 0
M  V30 14436 H 1452.44 -4.32393 -0.921358 0
M  V30 14437 N 1451.49 -0.619688 -1.44906 0
M  V30 14438 C 1452.91 -0.203309 -1.8559 0
M  V30 14439 C 1453.26 1.24265 -1.51831 0
M  V30 14440 O 1452.38 1.94392 -0.950819 0
M  V30 14441 C 1452.98 -0.362204 -3.36858 0
M  V30 14442 C 1451.54 -0.000423575 -3.764 0
M  V30 14443 C 1450.68 -0.680979 -2.68808 0
M  V30 14444 H 1453.63 -0.825595 -1.35535 0
M  V30 14445 H 1453.65 0.402149 -3.78369 0
M  V30 14446 H 1453.17 -1.41468 -3.61398 0
M  V30 14447 H 1451.27 1.05077 -3.57477 0
M  V30 14448 H 1451.38 -0.402508 -4.77406 0
M  V30 14449 H 1449.74 -0.117407 -2.54429 0
M  V30 14450 H 1450.53 -1.73583 -2.96182 0
M  V30 14451 N 1452.97 1.53444 -0.359552 0
M  V30 14452 C 1454.2 2.06058 0.235576 0
M  V30 14453 C 1454.62 1.23175 1.42161 0
M  V30 14454 O 1453.98 0.249338 1.79577 0
M  V30 14455 C 1454.03 3.55351 0.613025 0
M  V30 14456 O 1453.13 3.75229 1.71104 0
M  V30 14457 H 1452.47 0.663038 0.0357266 0
M  V30 14458 H 1455 1.97923 -0.518408 0
M  V30 14459 H 1455.01 3.9827 0.885722 0
M  V30 14460 H 1453.69 4.15122 -0.254243 0
M  V30 14461 H 1452.27 3.4421 1.43437 0
M  V30 14462 N 1454.45 0.0885642 1.57351 0
M  V30 14463 C 1455.68 -0.588641 1.98871 0
M  V30 14464 C 1456.1 -1.61333 0.967125 0
M  V30 14465 O 1455.46 -1.81183 -0.0652149 0
M  V30 14466 C 1455.51 -1.21877 3.39379 0
M  V30 14467 O 1454.61 -2.33462 3.39955 0
M  V30 14468 H 1453.95 -0.149938 0.64685 0
M  V30 14469 H 1456.48 0.168043 2.03909 0
M  V30 14470 H 1456.49 -1.56163 3.76931 0
M  V30 14471 H 1455.17 -0.468037 4.13258 0
M  V30 14472 H 1453.74 -2.00844 3.14191 0
M  V30 14473 N 1455.93 -1.56509 -0.185096 0
M  V30 14474 C 1457.34 -1.50318 -0.536334 0
M  V30 14475 C 1457.54 -0.790387 -1.85351 0
M  V30 14476 O 1456.6 -0.345039 -2.50131 0
M  V30 14477 C 1457.91 -2.95017 -0.581825 0
M  V30 14478 C 1459.46 -3.05746 -0.669974 0
M  V30 14479 C 1459.94 -4.51876 -0.746485 0
M  V30 14480 N 1461.43 -4.56067 -0.809746 0
M  V30 14481 C 1462.16 -5.66462 -0.889286 0
M  V30 14482 N 1461.66 -6.86523 -0.930509 0
M  V30 14483 N 1463.45 -5.54399 -0.927246 0
M  V30 14484 H 1455.6 -2.01262 0.678778 0
M  V30 14485 H 1457.87 -0.916313 0.243054 0
M  V30 14486 H 1457.57 -3.50268 0.317089 0
M  V30 14487 H 1457.45 -3.48916 -1.43309 0
M  V30 14488 H 1459.83 -2.50538 -1.55932 0
M  V30 14489 H 1459.91 -2.54955 0.207689 0
M  V30 14490 H 1459.56 -5.07711 0.138546 0
M  V30 14491 H 1459.49 -5.00408 -1.6401 0
M  V30 14492 H 1461.98 -3.6962 -0.786729 0
M  V30 14493 H 1462.29 -7.66407 -0.991992 0
M  V30 14494 H 1460.64 -6.89161 -0.899017 0
M  V30 14495 H 1463.83 -4.59524 -0.891947 0
M  V30 14496 H 1464 -6.40458 -0.985773 0
M  V30 14497 N 1457.41 0.45317 -1.50944 0
M  V30 14498 C 1458.65 1.20151 -1.62506 0
M  V30 14499 C 1458.98 1.92085 -0.335927 0
M  V30 14500 O 1458.25 1.84889 0.64751 0
M  V30 14501 H 1456.83 0.446502 -0.59887 0
M  V30 14502 H 1459.49 0.521103 -1.87804 0
M  V30 14503 H 1458.58 1.93972 -2.44502 0
M  V30 14504 N 1458.88 1.40823 0.707568 0
M  V30 14505 C 1460.16 1.3003 1.46122 0
M  V30 14506 C 1460.54 -0.0776873 2.10957 0
M  V30 14507 O 1459.89 -1.09109 2.00767 0
M  V30 14508 C 1460.1 2.44498 2.49042 0
M  V30 14509 C 1461.45 2.85106 3.14642 0
M  V30 14510 O 1462.47 2.44149 2.59364 0
M  V30 14511 O 1461.33 3.55892 4.14733 0
M  V30 14512 H 1458.42 0.511082 0.650172 0
M  V30 14513 H 1460.97 1.52761 0.739062 0
M  V30 14514 H 1459.74 3.36502 1.99705 0
M  V30 14515 H 1459.37 2.23579 3.28783 0
M  V30 14516 N 1460.36 -0.94061 1.26453 0
M  V30 14517 C 1461.59 -1.71874 1.14643 0
M  V30 14518 C 1462 -1.86791 -0.300969 0
M  V30 14519 O 1461.34 -1.37529 -1.21784 0
M  V30 14520 C 1461.41 -3.14408 1.74321 0
M  V30 14521 C 1461.07 -3.22873 3.23422 0
M  V30 14522 C 1462.07 -3.06107 4.20231 0
M  V30 14523 C 1459.75 -3.46245 3.63895 0
M  V30 14524 C 1461.75 -3.12581 5.55492 0
M  V30 14525 C 1459.43 -3.52354 4.99289 0
M  V30 14526 C 1460.43 -3.35539 5.94897 0
M  V30 14527 O 1460.12 -3.41357 7.27826 0
M  V30 14528 H 1459.85 -0.544931 0.400033 0
M  V30 14529 H 1462.4 -1.18767 1.67581 0
M  V30 14530 H 1460.63 -3.6894 1.15846 0
M  V30 14531 H 1462.32 -3.74135 1.57409 0
M  V30 14532 H 1463.09 -2.87906 3.90302 0
M  V30 14533 H 1458.97 -3.58389 2.89962 0
M  V30 14534 H 1462.51 -2.99374 6.30096 0
M  V30 14535 H 1458.41 -3.70077 5.2888 0
M  V30 14536 H 1459.18 -3.57897 7.36106 0
M  V30 14537 N 1461.84 -1.08266 -1.14527 0
M  V30 14538 C 1462.77 -0.655392 -2.18586 0
M  V30 14539 C 1463.75 0.332109 -1.59172 0
M  V30 14540 O 1464.94 0.236315 -1.87013 0
M  V30 14541 C 1462.06 0.0362295 -3.38681 0
M  V30 14542 C 1461.11 -0.91119 -4.16653 0
M  V30 14543 S 1461.94 -2.4171 -4.77846 0
M  V30 14544 C 1463.1 -1.73755 -6.01299 0
M  V30 14545 H 1463.33 -1.53694 -2.54491 0
M  V30 14546 H 1460.86 -0.897499 -1.25636 0
M  V30 14547 H 1462.82 0.428996 -4.08252 0
M  V30 14548 H 1461.48 0.894253 -3.01101 0
M  V30 14549 H 1460.68 -0.374143 -5.02609 0
M  V30 14550 H 1460.28 -1.24478 -3.52677 0
M  V30 14551 H 1462.57 -1.05465 -6.69241 0
M  V30 14552 H 1463.51 -2.5758 -6.59589 0
M  V30 14553 H 1463.92 -1.21153 -5.51346 0
M  V30 14554 N 1463.32 1.31536 -0.86811 0
M  V30 14555 C 1464.55 2.00952 -0.492529 0
M  V30 14556 C 1464.96 1.65174 0.914487 0
M  V30 14557 O 1464.32 0.880002 1.59882 0
M  V30 14558 C 1464.37 3.55829 -0.637798 0
M  V30 14559 O 1464.09 3.90326 -1.9894 0
M  V30 14560 C 1465.59 4.42519 -0.262986 0
M  V30 14561 H 1462.81 0.642913 -0.192105 0
M  V30 14562 H 1465.36 1.6781 -1.16876 0
M  V30 14563 H 1463.51 3.87399 -0.0091406 0
M  V30 14564 H 1463.93 4.85043 -1.99583 0
M  V30 14565 H 1465.4 5.50433 -0.415591 0
M  V30 14566 H 1465.88 4.31895 0.797705 0
M  V30 14567 H 1466.48 4.16363 -0.867268 0
M  V30 14568 N 1464.8 0.627364 1.44575 0
M  V30 14569 C 1465.73 -0.129056 2.27835 0
M  V30 14570 C 1466.71 -0.854852 1.38315 0
M  V30 14571 O 1467.89 -0.859709 1.67754 0
M  V30 14572 C 1465.02 -1.18866 3.17157 0
M  V30 14573 C 1464.07 -0.563816 4.22757 0
M  V30 14574 S 1464.9 0.643269 5.31622 0
M  V30 14575 C 1466.05 -0.416443 6.24513 0
M  V30 14576 H 1466.29 0.577281 2.91641 0
M  V30 14577 H 1463.82 0.415427 1.48706 0
M  V30 14578 H 1465.78 -1.79508 3.69171 0
M  V30 14579 H 1464.44 -1.86717 2.52578 0
M  V30 14580 H 1463.63 -1.36173 4.85256 0
M  V30 14581 H 1463.23 -0.0321045 3.73986 0
M  V30 14582 H 1465.53 -1.29006 6.65104 0
M  V30 14583 H 1466.47 0.172871 7.07889 0
M  V30 14584 H 1466.88 -0.740651 5.5962 0
M  V30 14585 N 1466.28 -1.53251 0.367684 0
M  V30 14586 C 1467.21 -2.23396 -0.512539 0
M  V30 14587 C 1468.22 -1.2488 -1.04446 0
M  V30 14588 O 1469.41 -1.5109 -0.950477 0
M  V30 14589 C 1466.51 -2.91971 -1.72064 0
M  V30 14590 C 1465.68 -4.17011 -1.31986 0
M  V30 14591 C 1464.74 -4.68779 -2.39025 0
M  V30 14592 O 1463.77 -5.32405 -2.01328 0
M  V30 14593 N 1464.97 -4.46773 -3.7064 0
M  V30 14594 H 1467.73 -2.9957 0.0883152 0
M  V30 14595 H 1465.3 -1.60746 0.192966 0
M  V30 14596 H 1467.29 -3.23511 -2.43152 0
M  V30 14597 H 1465.86 -2.19237 -2.22831 0
M  V30 14598 H 1465.08 -3.91751 -0.438732 0
M  V30 14599 H 1466.37 -4.98298 -1.02842 0
M  V30 14600 H 1465.76 -3.95938 -4.04042 0
M  V30 14601 H 1464.32 -4.82857 -4.37827 0
M  V30 14602 N 1467.75 -0.0969077 -1.57302 0
M  V30 14603 C 1468.69 0.898042 -2.09787 0
M  V30 14604 C 1469.66 1.27518 -1.00886 0
M  V30 14605 O 1470.85 1.3801 -1.28396 0
M  V30 14606 C 1467.98 2.19868 -2.57635 0
M  V30 14607 C 1467.02 1.97127 -3.7821 0
M  V30 14608 S 1467.85 1.20763 -5.21705 0
M  V30 14609 C 1469.01 2.52054 -5.72905 0
M  V30 14610 H 1469.24 0.451544 -2.93851 0
M  V30 14611 H 1466.78 0.116417 -1.5396 0
M  V30 14612 H 1468.73 2.9461 -2.85859 0
M  V30 14613 H 1467.4 2.61639 -1.73793 0
M  V30 14614 H 1466.59 2.93445 -4.09763 0
M  V30 14615 H 1466.19 1.30515 -3.50488 0
M  V30 14616 H 1468.48 3.4802 -5.81282 0
M  V30 14617 H 1469.43 2.25077 -6.71376 0
M  V30 14618 H 1469.83 2.6041 -5.00846 0
M  V30 14619 N 1469.23 1.56605 0.176793 0
M  V30 14620 C 1470.46 1.8617 0.91408 0
M  V30 14621 C 1470.88 0.68262 1.75277 0
M  V30 14622 O 1470.24 -0.368391 1.77518 0
M  V30 14623 C 1470.29 3.14109 1.7711 0
M  V30 14624 O 1469.39 2.95947 2.87209 0
M  V30 14625 H 1468.73 0.612507 0.25638 0
M  V30 14626 H 1471.26 2.03837 0.176586 0
M  V30 14627 H 1471.27 3.45373 2.17213 0
M  V30 14628 H 1469.95 3.9954 1.15502 0
M  V30 14629 H 1468.52 2.76024 2.50729 0
M  V30 14630 N 1470.71 -0.445159 1.51182 0
M  V30 14631 C 1471.95 -1.2048 1.65118 0
M  V30 14632 C 1472.31 -1.88673 0.35589 0
M  V30 14633 O 1473.51 -2.66228 0.370932 0
M  V30 14634 C 1471.79 -2.20075 2.81606 0
M  V30 14635 S 1473.34 -3.04631 3.15825 0
M  V30 14636 H 1470.16 -0.408682 0.581807 0
M  V30 14637 H 1472.76 -0.497601 1.89061 0
M  V30 14638 H 1471.47 -1.68603 3.74167 0
M  V30 14639 H 1471 -2.95387 2.59827 0
M  V30 14640 H 1473.01 -4.21606 2.61654 0
M  V30 14641 N 1472.19 -1.41197 -0.700089 0
M  V30 14642 C 1473.6 -1.3593 -1.27985 0
M  V30 14643 C 1473.95 -0.0402059 -1.96159 0
M  V30 14644 O 1473.07 0.861611 -1.98508 0
M  V30 14645 C 1473.67 -2.46203 -2.32743 0
M  V30 14646 C 1472.23 -2.44348 -2.86306 0
M  V30 14647 C 1471.38 -2.26283 -1.60285 0
M  V30 14648 H 1474.33 -1.50778 -0.495152 0
M  V30 14649 H 1474.35 -2.15001 -3.13934 0
M  V30 14650 H 1473.86 -3.42195 -1.83096 0
M  V30 14651 H 1471.96 -1.521 -3.40142 0
M  V30 14652 H 1472.07 -3.40497 -3.37044 0
M  V30 14653 H 1470.44 -1.74078 -1.85928 0
M  V30 14654 H 1471.22 -3.24295 -1.1264 0
M  V30 14655 N 1473.67 0.933891 -1.2695 0
M  V30 14656 C 1475.08 1.20873 -1.0422 0
M  V30 14657 C 1475.28 2.00205 0.228112 0
M  V30 14658 O 1474.34 2.34539 0.935284 0
M  V30 14659 C 1475.65 1.9629 -2.27795 0
M  V30 14660 C 1477.2 2.09254 -2.3277 0
M  V30 14661 C 1477.67 2.88075 -3.56057 0
M  V30 14662 N 1479.16 2.95646 -3.56578 0
M  V30 14663 C 1479.9 3.57082 -4.48642 0
M  V30 14664 N 1479.4 4.1996 -5.51004 0
M  V30 14665 N 1481.19 3.54425 -4.36279 0
M  V30 14666 H 1473.34 0.403735 -2.08528 0
M  V30 14667 H 1475.6 0.241189 -0.916805 0
M  V30 14668 H 1475.31 1.45412 -3.20231 0
M  V30 14669 H 1475.18 2.9693 -2.32621 0
M  V30 14670 H 1477.57 2.5932 -1.40844 0
M  V30 14671 H 1477.65 1.07854 -2.31951 0
M  V30 14672 H 1477.29 2.38693 -4.48317 0
M  V30 14673 H 1477.22 3.89746 -3.54126 0
M  V30 14674 H 1479.72 2.50951 -2.82545 0
M  V30 14675 H 1480.03 4.64758 -6.1743 0
M  V30 14676 H 1478.37 4.18525 -5.54853 0
M  V30 14677 H 1481.56 3.045 -3.55524 0
M  V30 14678 H 1481.74 4.02016 -5.0822 0
M  V30 14679 N 1475.14 1.08871 1.13951 0
M  V30 14680 C 1476.08 0.680849 2.18854 0
M  V30 14681 C 1477.09 -0.274456 1.6047 0
M  V30 14682 O 1478.28 -0.0613804 1.78394 0
M  V30 14683 C 1475.38 -0.0182788 3.38895 0
M  V30 14684 C 1474.55 0.957125 4.268 0
M  V30 14685 C 1473.61 0.29245 5.25387 0
M  V30 14686 O 1472.64 0.938329 5.61413 0
M  V30 14687 N 1473.84 -0.955738 5.72578 0
M  V30 14688 H 1476.6 1.58334 2.54461 0
M  V30 14689 H 1474.16 0.975417 1.29218 0
M  V30 14690 H 1476.16 -0.474001 4.01915 0
M  V30 14691 H 1474.73 -0.822932 3.01574 0
M  V30 14692 H 1473.95 1.59156 3.60642 0
M  V30 14693 H 1475.23 1.61792 4.82391 0
M  V30 14694 H 1474.63 -1.50014 5.45447 0
M  V30 14695 H 1473.19 -1.35488 6.37563 0
M  V30 14696 N 1476.62 -1.31073 0.875073 0
M  V30 14697 C 1477.85 -2.01223 0.502383 0
M  V30 14698 C 1478.27 -1.65223 -0.899053 0
M  V30 14699 O 1477.63 -0.863559 -1.59412 0
M  V30 14700 C 1477.68 -3.54269 0.672747 0
M  V30 14701 O 1476.78 -4.11409 -0.285718 0
M  V30 14702 H 1476.12 -0.633422 0.199181 0
M  V30 14703 H 1478.65 -1.67152 1.17989 0
M  V30 14704 H 1478.66 -4.04027 0.567973 0
M  V30 14705 H 1477.34 -3.79811 1.69459 0
M  V30 14706 H 1475.91 -3.72654 -0.135472 0
M  V30 14707 N 1478.1 -0.635022 -1.4424 0
M  V30 14708 C 1479.33 -0.148045 -2.06069 0
M  V30 14709 C 1479.74 1.1842 -1.47558 0
M  V30 14710 O 1479.08 1.73817 -0.594425 0
M  V30 14711 C 1479.14 0.0369593 -3.59481 0
M  V30 14712 C 1478.81 -1.21773 -4.40478 0
M  V30 14713 C 1479.8 -2.14233 -4.73709 0
M  V30 14714 C 1477.49 -1.45423 -4.80788 0
M  V30 14715 C 1479.48 -3.2865 -5.46139 0
M  V30 14716 C 1477.17 -2.60136 -5.52967 0
M  V30 14717 C 1478.17 -3.51576 -5.85562 0
M  V30 14718 O 1477.86 -4.64289 -6.5627 0
M  V30 14719 H 1477.59 -0.0787231 -0.671401 0
M  V30 14720 H 1480.14 -0.870639 -1.86035 0
M  V30 14721 H 1478.37 0.814739 -3.7802 0
M  V30 14722 H 1480.06 0.478984 -4.03064 0
M  V30 14723 H 1480.83 -1.97196 -4.43101 0
M  V30 14724 H 1476.71 -0.751378 -4.54835 0
M  V30 14725 H 1480.25 -4.00043 -5.71499 0
M  V30 14726 H 1476.15 -2.77114 -5.82991 0
M  V30 14727 H 1476.92 -4.6332 -6.74742 0
M  V30 14728 N 1479.58 1.53054 -0.375806 0
M  V30 14729 C 1480.82 2.017 0.210985 0
M  V30 14730 C 1481.16 1.26228 1.47581 0
M  V30 14731 O 1480.43 0.358869 1.91161 0
M  V30 14732 C 1480.72 3.56715 0.492596 0
M  V30 14733 C 1480.57 4.42869 -0.786573 0
M  V30 14734 C 1481.89 4.20803 1.28891 0
M  V30 14735 H 1479.01 0.733153 0.0752084 0
M  V30 14736 H 1481.65 1.83229 -0.502715 0
M  V30 14737 H 1479.8 3.72585 1.10059 0
M  V30 14738 H 1481.47 4.38777 -1.42381 0
M  V30 14739 H 1479.71 4.10425 -1.40478 0
M  V30 14740 H 1480.38 5.49309 -0.544354 0
M  V30 14741 H 1482.86 4.08828 0.774498 0
M  V30 14742 H 1481.74 5.29273 1.45469 0
M  V30 14743 H 1482 3.77541 2.30033 0
M  V30 14744 N 1481.06 0.105248 1.57248 0
M  V30 14745 C 1482.33 -0.598871 1.86207 0
M  V30 14746 C 1482.71 -1.85698 1.00396 0
M  V30 14747 O 1482.06 -2.28363 0.0791093 0
M  V30 14748 C 1482.27 -0.904522 3.37075 0
M  V30 14749 C 1483.62 -1.26357 4.05363 0
M  V30 14750 O 1484.64 -0.99522 3.42014 0
M  V30 14751 O 1483.5 -1.76659 5.17159 0
M  V30 14752 H 1480.6 -0.300727 0.770384 0
M  V30 14753 H 1483.14 0.138713 1.69132 0
M  V30 14754 H 1481.91 -0.0123974 3.91298 0
M  V30 14755 H 1481.54 -1.69774 3.59531 0
M  V30 14756 N 1482.53 -1.56697 -0.168486 0
M  V30 14757 C 1483.76 -1.86292 -0.900152 0
M  V30 14758 C 1484.18 -0.690968 -1.75702 0
M  V30 14759 O 1483.53 0.339855 -1.79308 0
M  V30 14760 C 1483.59 -3.14946 -1.77457 0
M  V30 14761 O 1483.31 -4.27625 -0.952267 0
M  V30 14762 C 1484.81 -3.57908 -2.61566 0
M  V30 14763 H 1482.03 -0.618003 -0.261369 0
M  V30 14764 H 1484.57 -2.03811 -0.16773 0
M  V30 14765 H 1482.73 -2.99246 -2.4603 0
M  V30 14766 H 1483.14 -5.01057 -1.55056 0
M  V30 14767 H 1484.61 -4.50823 -3.18532 0
M  V30 14768 H 1485.09 -2.82162 -3.36573 0
M  V30 14769 H 1485.7 -3.7623 -1.98321 0
M  V30 14770 N 1484.01 0.437135 -1.51416 0
M  V30 14771 C 1485.24 1.21359 -1.68187 0
M  V30 14772 C 1485.66 1.84247 -0.378748 0
M  V30 14773 O 1485.02 1.68816 0.661115 0
M  V30 14774 C 1485.07 2.27319 -2.79926 0
M  V30 14775 O 1484.17 3.32807 -2.43543 0
M  V30 14776 H 1483.51 0.355547 -0.560787 0
M  V30 14777 H 1486.04 0.516204 -1.97981 0
M  V30 14778 H 1486.05 2.721 -3.04016 0
M  V30 14779 H 1484.73 1.80923 -3.74486 0
M  V30 14780 H 1483.31 2.93501 -2.30025 0
M  V30 14781 N 1485.49 1.41566 0.692592 0
M  V30 14782 C 1486.9 1.36606 1.27262 0
M  V30 14783 C 1487.25 0.0506082 1.96135 0
M  V30 14784 O 1486.38 -0.851071 1.98962 0
M  V30 14785 C 1486.97 2.47434 2.31434 0
M  V30 14786 C 1485.53 2.45863 2.85006 0
M  V30 14787 C 1484.68 2.2713 1.59083 0
M  V30 14788 H 1487.63 1.51038 0.487149 0
M  V30 14789 H 1487.65 2.16663 3.12789 0
M  V30 14790 H 1487.16 3.43161 1.81278 0
M  V30 14791 H 1485.26 1.53901 3.3933 0
M  V30 14792 H 1485.38 3.42279 3.35234 0
M  V30 14793 H 1483.74 1.75061 1.85002 0
M  V30 14794 H 1484.52 3.24887 1.10919 0
M  V30 14795 N 1486.97 -0.927146 1.27443 0
M  V30 14796 C 1487.93 -2.00938 1.10257 0
M  V30 14797 C 1488.93 -1.60733 0.0463898 0
M  V30 14798 O 1490.12 -1.71752 0.291029 0
M  V30 14799 C 1487.25 -3.34047 0.680115 0
M  V30 14800 H 1488.45 -2.17615 2.06358 0
M  V30 14801 H 1486 -1.10802 1.10239 0
M  V30 14802 H 1486.73 -3.23069 -0.282259 0
M  V30 14803 H 1486.52 -3.64585 1.44291 0
M  V30 14804 H 1488.01 -4.13523 0.582126 0
M  V30 14805 N 1488.45 -1.09474 -1.13372 0
M  V30 14806 C 1489.41 -0.738173 -2.16988 0
M  V30 14807 C 1490.41 0.232488 -1.5911 0
M  V30 14808 O 1491.6 0.0106093 -1.74197 0
M  V30 14809 C 1488.73 -0.091724 -3.40777 0
M  V30 14810 H 1489.92 -1.65582 -2.50045 0
M  V30 14811 H 1487.48 -0.893994 -1.28209 0
M  V30 14812 H 1488.21 0.837129 -3.13309 0
M  V30 14813 H 1488 -0.790161 -3.84056 0
M  V30 14814 H 1489.49 0.142334 -4.17357 0
M  V30 14815 N 1489.92 1.30607 -0.882012 0
M  V30 14816 C 1491.34 1.78418 -0.549892 0
M  V30 14817 C 1491.69 1.72553 0.933797 0
M  V30 14818 O 1490.81 1.30058 1.72956 0
M  V30 14819 C 1491.41 3.2397 -0.991398 0
M  V30 14820 C 1489.97 3.69629 -0.710739 0
M  V30 14821 C 1489.11 2.51127 -1.17602 0
M  V30 14822 H 1492.06 1.17519 -1.06653 0
M  V30 14823 H 1492.08 3.79159 -0.319115 0
M  V30 14824 H 1491.6 3.28207 -2.07128 0
M  V30 14825 H 1489.7 3.70883 0.357273 0
M  V30 14826 H 1489.81 4.61232 -1.29621 0
M  V30 14827 H 1488.17 2.47642 -0.595444 0
M  V30 14828 H 1488.96 2.58103 -2.26358 0
M  V30 14829 N 1491.4 0.642663 1.43901 0
M  V30 14830 C 1492.65 0.152003 2.0223 0
M  V30 14831 C 1492.98 -1.22711 1.50518 0
M  V30 14832 O 1492.26 -1.817 0.693937 0
M  V30 14833 C 1492.54 0.151278 3.59782 0
M  V30 14834 C 1492.39 1.56356 4.2175 0
M  V30 14835 C 1493.71 -0.518016 4.37041 0
M  V30 14836 H 1490.83 0.0567094 0.734815 0
M  V30 14837 H 1493.47 0.821337 1.7133 0
M  V30 14838 H 1491.62 -0.418679 3.86237 0
M  V30 14839 H 1493.29 2.18329 4.06362 0
M  V30 14840 H 1491.54 2.11401 3.78803 0
M  V30 14841 H 1492.21 1.51499 5.30803 0
M  V30 14842 H 1494.68 -0.0331947 4.16087 0
M  V30 14843 H 1493.56 -0.487754 5.46729 0
M  V30 14844 H 1493.82 -1.59036 4.12504 0
M  V30 14845 N 1492.88 -1.52852 0.383918 0
M  V30 14846 C 1494.11 -2.06406 -0.202764 0
M  V30 14847 C 1494.53 -1.25421 -1.40183 0
M  V30 14848 O 1493.89 -0.277876 -1.79158 0
M  V30 14849 C 1493.94 -3.56281 -0.556414 0
M  V30 14850 O 1493.04 -3.77904 -1.65113 0
M  V30 14851 H 1492.38 -0.663523 -0.0251737 0
M  V30 14852 H 1494.91 -1.97074 0.54983 0
M  V30 14853 H 1494.92 -3.99629 -0.822249 0
M  V30 14854 H 1493.6 -4.14665 0.320253 0
M  V30 14855 H 1492.17 -3.46448 -1.37943 0
M  V30 14856 N 1494.36 -0.113586 -1.5719 0
M  V30 14857 C 1495.59 0.552789 -1.99067 0
M  V30 14858 C 1496 1.61106 -0.992038 0
M  V30 14859 O 1495.34 1.83684 0.0240065 0
M  V30 14860 C 1495.4 1.24239 -3.3735 0
M  V30 14861 C 1495.07 0.332699 -4.55787 0
M  V30 14862 C 1496.06 -0.42654 -5.18147 0
M  V30 14863 C 1493.75 0.245351 -5.017 0
M  V30 14864 C 1495.74 -1.26091 -6.24804 0
M  V30 14865 C 1493.43 -0.592659 -6.08219 0
M  V30 14866 C 1494.43 -1.34443 -6.69637 0
M  V30 14867 O 1494.12 -2.16853 -7.74099 0
M  V30 14868 H 1493.85 0.15139 -0.65883 0
M  V30 14869 H 1496.4 -0.195113 -2.04471 0
M  V30 14870 H 1494.63 2.03725 -3.28684 0
M  V30 14871 H 1496.32 1.80513 -3.63552 0
M  V30 14872 H 1497.09 -0.368898 -4.83595 0
M  V30 14873 H 1492.97 0.820178 -4.53645 0
M  V30 14874 H 1496.51 -1.84818 -6.72672 0
M  V30 14875 H 1492.41 -0.651714 -6.42202 0
M  V30 14876 H 1493.17 -2.09736 -7.91172 0
M  V30 14877 N 1495.84 1.56784 0.160173 0
M  V30 14878 C 1496.8 1.96373 1.18195 0
M  V30 14879 C 1497.8 0.848674 1.3658 0
M  V30 14880 O 1498.99 1.11553 1.33796 0
M  V30 14881 C 1496.12 2.26824 2.54487 0
M  V30 14882 H 1497.32 2.87819 0.842641 0
M  V30 14883 H 1494.87 1.51014 0.403038 0
M  V30 14884 H 1495.6 1.38129 2.93413 0
M  V30 14885 H 1495.39 3.08112 2.42507 0
M  V30 14886 H 1496.88 2.58337 3.28104 0
M  V30 14887 N 1497.32 -0.429099 1.51646 0
M  V30 14888 C 1498.59 -1.18958 1.55269 0
M  V30 14889 C 1498.97 -2.08633 0.321816 0
M  V30 14890 O 1498.32 -2.1775 -0.69261 0
M  V30 14891 C 1498.53 -1.98427 2.87102 0
M  V30 14892 C 1499.88 -2.55185 3.39361 0
M  V30 14893 O 1500.9 -2.08629 2.88708 0
M  V30 14894 O 1499.76 -3.40119 4.27763 0
M  V30 14895 H 1496.86 -0.542041 0.624596 0
M  V30 14896 H 1499.4 -0.437499 1.63964 0
M  V30 14897 H 1498.17 -1.32613 3.68143 0
M  V30 14898 H 1497.8 -2.80683 2.81608 0
M  V30 14899 N 1498.79 -1.41931 -0.685074 0
M  V30 14900 C 1499.73 -1.39028 -1.8096 0
M  V30 14901 C 1500.7 -0.256001 -1.60572 0
M  V30 14902 O 1501.89 -0.44459 -1.83182 0
M  V30 14903 C 1499.02 -1.17125 -3.17804 0
M  V30 14904 C 1498.06 -2.33411 -3.56961 0
M  V30 14905 S 1498.89 -3.9592 -3.60565 0
M  V30 14906 C 1500.05 -3.7634 -5.00119 0
M  V30 14907 H 1500.28 -2.34189 -1.83146 0
M  V30 14908 H 1497.82 -1.2858 -0.854778 0
M  V30 14909 H 1499.77 -1.05175 -3.96798 0
M  V30 14910 H 1498.44 -0.235668 -3.13215 0
M  V30 14911 H 1497.63 -2.13807 -4.56402 0
M  V30 14912 H 1497.23 -2.41823 -2.85303 0
M  V30 14913 H 1499.52 -3.36695 -5.87914 0
M  V30 14914 H 1500.47 -4.7542 -5.24768 0
M  V30 14915 H 1500.87 -3.09407 -4.72152 0
M  V30 14916 N 1500.27 0.920374 -1.27933 0
M  V30 14917 C 1501.69 1.19761 -1.05496 0
M  V30 14918 C 1501.89 2.00435 0.206864 0
M  V30 14919 O 1500.94 2.35518 0.910356 0
M  V30 14920 C 1502.26 1.93863 -2.29864 0
M  V30 14921 C 1503.8 2.06773 -2.34976 0
M  V30 14922 C 1504.28 2.84282 -3.59093 0
M  V30 14923 N 1505.77 2.91847 -3.59694 0
M  V30 14924 C 1506.51 3.52303 -4.52404 0
M  V30 14925 N 1506 4.14092 -5.55427 0
M  V30 14926 N 1507.79 3.49778 -4.40013 0
M  V30 14927 H 1499.95 0.381596 -2.08944 0
M  V30 14928 H 1502.21 0.231451 -0.919312 0
M  V30 14929 H 1501.91 1.42008 -3.21756 0
M  V30 14930 H 1501.79 2.94446 -2.35757 0
M  V30 14931 H 1504.18 2.57812 -1.43586 0
M  V30 14932 H 1504.26 1.05388 -2.33082 0
M  V30 14933 H 1503.9 2.33925 -4.50823 0
M  V30 14934 H 1503.83 3.85968 -3.5824 0
M  V30 14935 H 1506.32 2.4794 -2.85191 0
M  V30 14936 H 1506.63 4.58183 -6.22325 0
M  V30 14937 H 1504.98 4.12616 -5.59261 0
M  V30 14938 H 1508.17 3.00712 -3.58733 0
M  V30 14939 H 1508.34 3.96603 -5.12455 0
M  V30 14940 N 1501.75 1.10074 1.1279 0
M  V30 14941 C 1502.98 0.862906 1.88047 0
M  V30 14942 C 1503.39 -0.586346 1.79464 0
M  V30 14943 O 1502.75 -1.40402 1.16591 0
M  V30 14944 C 1502.8 1.29784 3.37399 0
M  V30 14945 O 1502.52 2.69026 3.4577 0
M  V30 14946 C 1504.02 1.09336 4.29605 0
M  V30 14947 H 1501.24 0.309981 0.595108 0
M  V30 14948 H 1503.79 1.46444 1.42738 0
M  V30 14949 H 1501.94 0.740056 3.80266 0
M  V30 14950 H 1502.36 2.87532 4.38663 0
M  V30 14951 H 1503.83 1.44687 5.327 0
M  V30 14952 H 1504.31 0.031679 4.39189 0
M  V30 14953 H 1504.91 1.63743 3.92516 0
M  V30 14954 N 1503.23 -1.30138 0.888926 0
M  V30 14955 C 1504.48 -1.95602 0.508359 0
M  V30 14956 C 1504.8 -1.70495 -0.946377 0
M  V30 14957 O 1504.07 -1.03073 -1.66592 0
M  V30 14958 H 1502.65 -0.723728 0.185006 0
M  V30 14959 H 1505.31 -1.58594 1.13286 0
M  V30 14960 H 1504.4 -3.04559 0.681915 0
M  V30 14961 N 1504.71 -0.650285 -1.43559 0
M  V30 14962 C 1505.95 -0.159832 -2.01066 0
M  V30 14963 C 1506.27 1.23246 -1.51887 0
M  V30 14964 O 1507.47 1.81797 -2.01648 0
M  V30 14965 C 1505.93 -0.23494 -3.59132 0
M  V30 14966 C 1505.54 -1.62975 -4.17305 0
M  V30 14967 C 1507.28 0.198061 -4.24038 0
M  V30 14968 C 1505.19 -1.65894 -5.67656 0
M  V30 14969 H 1504.12 -0.0559899 -0.751918 0
M  V30 14970 H 1506.77 -0.811891 -1.64562 0
M  V30 14971 H 1505.15 0.484573 -3.93024 0
M  V30 14972 H 1506.33 -2.37438 -3.94918 0
M  V30 14973 H 1504.64 -2.00847 -3.64759 0
M  V30 14974 H 1507.24 0.196054 -5.3434 0
M  V30 14975 H 1507.58 1.22896 -3.97747 0
M  V30 14976 H 1508.11 -0.469602 -3.95018 0
M  V30 14977 H 1504.85 -2.66883 -5.9871 0
M  V30 14978 H 1504.37 -0.957519 -5.92108 0
M  V30 14979 H 1506.05 -1.40137 -6.31641 0
M  V30 14980 N 1506.18 1.52647 -0.392018 0
M  V30 14981 C 1507.15 2.25135 0.429754 0
M  V30 14982 C 1508.15 1.26871 0.987946 0
M  V30 14983 O 1509.34 1.50947 0.86952 0
M  V30 14984 C 1506.47 3.00849 1.60321 0
M  V30 14985 H 1507.66 2.99199 -0.204918 0
M  V30 14986 H 1505.21 1.55634 -0.144188 0
M  V30 14987 H 1505.95 2.31092 2.27524 0
M  V30 14988 H 1505.73 3.72975 1.20964 0
M  V30 14989 H 1507.22 3.55879 2.18494 0
M  V30 14990 N 1507.66 0.121921 1.57128 0
M  V30 14991 C 1508.63 -0.812905 2.143 0
M  V30 14992 C 1509.63 -1.19261 1.07858 0
M  V30 14993 O 1510.82 -1.11764 1.33621 0
M  V30 14994 C 1507.95 -2.09969 2.68562 0
M  V30 14995 H 1509.14 -0.315992 2.98231 0
M  V30 14996 H 1506.69 -0.12734 1.5578 0
M  V30 14997 H 1507.43 -2.64085 1.88228 0
M  V30 14998 H 1507.21 -1.83688 3.46412 0
M  V30 14999 H 1508.7 -2.76788 3.12695 0
M  V30 15000 N 1509.14 -1.56867 -0.151857 0
M  V30 15001 C 1510.05 -2.01157 -1.20718 0
M  V30 15002 C 1511.07 -0.926166 -1.47303 0
M  V30 15003 O 1512.24 -1.23528 -1.59069 0
M  V30 15004 C 1509.31 -2.37915 -2.52185 0
M  V30 15005 C 1508.37 -3.60381 -2.3329 0
M  V30 15006 C 1507.6 -3.95376 -3.58488 0
M  V30 15007 O 1507.82 -3.31093 -4.64471 0
M  V30 15008 O 1506.76 -4.88645 -3.5144 0
M  V30 15009 H 1510.58 -2.91234 -0.861175 0
M  V30 15010 H 1508.17 -1.44993 -0.360213 0
M  V30 15011 H 1510.05 -2.6244 -3.29702 0
M  V30 15012 H 1508.73 -1.50995 -2.86325 0
M  V30 15013 H 1507.63 -3.4105 -1.5374 0
M  V30 15014 H 1508.97 -4.47903 -2.04067 0
M  V30 15015 N 1510.62 0.421051 -1.51871 0
M  V30 15016 C 1511.53 1.5371 -1.7723 0
M  V30 15017 C 1512.54 1.61109 -0.657256 0
M  V30 15018 O 1513.72 1.78047 -0.941343 0
M  V30 15019 C 1510.79 2.89555 -1.9068 0
M  V30 15020 C 1509.85 2.9214 -3.14567 0
M  V30 15021 C 1509.08 4.21505 -3.27367 0
M  V30 15022 O 1509.3 5.14764 -2.45712 0
M  V30 15023 O 1508.24 4.30706 -4.20448 0
M  V30 15024 H 1512.06 1.35221 -2.71935 0
M  V30 15025 H 1509.65 0.605712 -1.3657 0
M  V30 15026 H 1511.53 3.70147 -2.01418 0
M  V30 15027 H 1510.2 3.08137 -0.991627 0
M  V30 15028 H 1509.11 2.10444 -3.09296 0
M  V30 15029 H 1510.44 2.78505 -4.05827 0
M  V30 15030 N 1512.1 1.42293 0.677538 0
M  V30 15031 C 1513.34 1.42827 1.43973 0
M  V30 15032 C 1513.68 0.0435041 1.94151 0
M  V30 15033 O 1512.95 -0.931794 1.70727 0
M  V30 15034 C 1513.23 2.45037 2.63873 0
M  V30 15035 C 1513.09 3.92694 2.19344 0
M  V30 15036 C 1514.41 2.4427 3.66087 0
M  V30 15037 H 1511.52 0.520097 0.522176 0
M  V30 15038 H 1514.17 1.73688 0.770219 0
M  V30 15039 H 1512.32 2.18851 3.20993 0
M  V30 15040 H 1513.99 4.2985 1.67412 0
M  V30 15041 H 1512.23 4.06692 1.50944 0
M  V30 15042 H 1512.9 4.59784 3.05455 0
M  V30 15043 H 1515.38 2.67551 3.18678 0
M  V30 15044 H 1514.25 3.17769 4.47564 0
M  V30 15045 H 1514.52 1.46769 4.17027 0
M  V30 15046 N 1513.57 -0.913576 1.28419 0
M  V30 15047 C 1514.8 -1.70178 1.18551 0
M  V30 15048 C 1515.22 -1.864 -0.252307 0
M  V30 15049 O 1514.58 -1.37427 -1.18252 0
M  V30 15050 C 1514.63 -3.07145 1.8893 0
M  V30 15051 O 1513.73 -3.9465 1.19688 0
M  V30 15052 H 1513.08 -0.521092 0.411533 0
M  V30 15053 H 1515.61 -1.14228 1.69744 0
M  V30 15054 H 1515.62 -3.57375 1.96843 0
M  V30 15055 H 1514.29 -2.94655 2.93515 0
M  V30 15056 H 1512.87 -3.53085 1.19939 0
M  V30 15057 N 1515.05 -1.1067 -1.12204 0
M  V30 15058 C 1515.98 -0.779829 -2.20093 0
M  V30 15059 C 1516.96 0.248279 -1.68278 0
M  V30 15060 O 1518.15 0.113511 -1.93868 0
M  V30 15061 C 1515.28 -0.213511 -3.46643 0
M  V30 15062 C 1514.23 -1.17258 -4.11624 0
M  V30 15063 C 1513.56 -0.467352 -5.32654 0
M  V30 15064 C 1514.86 -2.52014 -4.57478 0
M  V30 15065 H 1516.55 -1.68192 -2.47693 0
M  V30 15066 H 1514.1 -0.810131 -1.1905 0
M  V30 15067 H 1516.05 0.0273225 -4.21391 0
M  V30 15068 H 1514.78 0.723837 -3.18478 0
M  V30 15069 H 1513.43 -1.39891 -3.3886 0
M  V30 15070 H 1513.08 0.474547 -5.00756 0
M  V30 15071 H 1512.78 -1.10694 -5.77079 0
M  V30 15072 H 1514.31 -0.235122 -6.10147 0
M  V30 15073 H 1515.72 -2.33516 -5.23587 0
M  V30 15074 H 1514.12 -3.1188 -5.1269 0
M  V30 15075 H 1515.19 -3.11831 -3.71335 0
M  V30 15076 N 1516.53 1.29665 -0.895815 0
M  V30 15077 C 1517.94 1.77825 -0.568784 0
M  V30 15078 C 1518.29 1.73534 0.915443 0
M  V30 15079 O 1517.42 1.31885 1.71567 0
M  V30 15080 C 1518.01 3.22901 -1.0257 0
M  V30 15081 C 1516.57 3.68854 -0.749903 0
M  V30 15082 C 1515.72 2.49866 -1.20259 0
M  V30 15083 H 1518.67 1.16381 -1.07894 0
M  V30 15084 H 1518.69 3.788 -0.359312 0
M  V30 15085 H 1518.2 3.25991 -2.10597 0
M  V30 15086 H 1516.3 3.71241 0.317916 0
M  V30 15087 H 1516.42 4.59831 -1.34506 0
M  V30 15088 H 1514.78 2.46997 -0.621676 0
M  V30 15089 H 1515.56 2.55687 -2.29083 0
M  V30 15090 N 1518.01 0.657889 1.43212 0
M  V30 15091 C 1519.42 0.325876 1.56238 0
M  V30 15092 C 1519.62 -1.16975 1.6407 0
M  V30 15093 O 1518.68 -1.95473 1.59833 0
M  V30 15094 C 1519.99 1.04134 2.82093 0
M  V30 15095 C 1521.54 1.02204 2.95844 0
M  V30 15096 C 1522.02 1.71849 4.24537 0
M  V30 15097 N 1523.51 1.68635 4.31412 0
M  V30 15098 C 1524.24 2.19393 5.29768 0
M  V30 15099 N 1523.74 2.7846 6.34375 0
M  V30 15100 N 1525.53 2.09866 5.21452 0
M  V30 15101 H 1517.68 1.62839 1.36371 0
M  V30 15102 H 1519.95 0.685072 0.655271 0
M  V30 15103 H 1519.65 2.09647 2.82385 0
M  V30 15104 H 1519.53 0.595842 3.72464 0
M  V30 15105 H 1521.91 -0.0247029 2.9509 0
M  V30 15106 H 1521.99 1.50627 2.06749 0
M  V30 15107 H 1521.64 2.76482 4.26052 0
M  V30 15108 H 1521.57 1.20888 5.12536 0
M  V30 15109 H 1524.06 1.25536 3.56439 0
M  V30 15110 H 1524.37 3.14855 7.05752 0
M  V30 15111 H 1522.72 2.82523 6.34985 0
M  V30 15112 H 1525.91 1.63422 4.38647 0
M  V30 15113 H 1526.08 2.49732 5.97945 0
M  V30 15114 N 1519.49 -1.52437 0.400108 0
M  V30 15115 C 1520.45 -2.2536 -0.417808 0
M  V30 15116 C 1521.45 -1.27393 -0.981204 0
M  V30 15117 O 1522.64 -1.51406 -0.861503 0
M  V30 15118 C 1519.77 -3.01695 -1.58724 0
M  V30 15119 H 1520.96 -2.99086 0.220782 0
M  V30 15120 H 1518.52 -1.55555 0.152439 0
M  V30 15121 H 1519.25 -2.32295 -2.26295 0
M  V30 15122 H 1519.04 -3.73611 -1.18984 0
M  V30 15123 H 1520.53 -3.57033 -2.16604 0
M  V30 15124 N 1520.96 -0.130252 -1.57061 0
M  V30 15125 C 1522.19 0.532416 -1.99932 0
M  V30 15126 C 1522.61 1.59505 -1.01013 0
M  V30 15127 O 1521.96 1.82499 -0.00463158 0
M  V30 15128 C 1522.02 1.14833 -3.42776 0
M  V30 15129 O 1521.74 0.128163 -4.37912 0
M  V30 15130 C 1523.24 1.89324 -4.00838 0
M  V30 15131 H 1520.46 0.140046 -0.656223 0
M  V30 15132 H 1523 -0.219905 -2.03314 0
M  V30 15133 H 1521.16 1.85137 -3.40298 0
M  V30 15134 H 1521.57 0.577135 -5.21315 0
M  V30 15135 H 1523.04 2.27731 -5.02835 0
M  V30 15136 H 1523.52 2.77277 -3.40608 0
M  V30 15137 H 1524.13 1.23757 -4.06896 0
M  V30 15138 N 1522.44 1.56945 0.143535 0
M  V30 15139 C 1523.38 1.93682 1.20675 0
M  V30 15140 C 1524.35 0.803117 1.41382 0
M  V30 15141 O 1525.54 1.05905 1.55937 0
M  V30 15142 C 1522.67 2.21185 2.56505 0
M  V30 15143 C 1521.71 3.43817 2.52372 0
M  V30 15144 S 1522.54 4.9726 1.98728 0
M  V30 15145 C 1523.7 5.27889 3.3628 0
M  V30 15146 H 1523.93 2.83561 0.893345 0
M  V30 15147 H 1521.47 1.50397 0.349294 0
M  V30 15148 H 1523.42 2.3771 3.3467 0
M  V30 15149 H 1522.09 1.31964 2.85034 0
M  V30 15150 H 1521.28 3.60349 3.5237 0
M  V30 15151 H 1520.88 3.26552 1.82318 0
M  V30 15152 H 1523.17 5.21568 4.32404 0
M  V30 15153 H 1524.12 6.29318 3.24598 0
M  V30 15154 H 1524.52 4.55398 3.33576 0
M  V30 15155 N 1523.92 -0.412991 1.52093 0
M  V30 15156 C 1524.88 -1.48555 1.7454 0
M  V30 15157 C 1525.88 -1.48563 0.615283 0
M  V30 15158 O 1527.07 -1.50155 0.883119 0
M  V30 15159 C 1524.21 -2.87984 1.82423 0
M  V30 15160 H 1525.4 -1.29945 2.70285 0
M  V30 15161 H 1522.95 -0.643241 1.4245 0
M  V30 15162 H 1523.69 -3.11969 0.885777 0
M  V30 15163 H 1523.47 -2.89381 2.64577 0
M  V30 15164 H 1524.96 -3.65745 2.01545 0
M  V30 15165 N 1525.4 -1.4265 -0.669982 0
M  V30 15166 C 1526.36 -1.46196 -1.7652 0
M  V30 15167 C 1527.36 -0.348884 -1.5697 0
M  V30 15168 O 1528.55 -0.609921 -1.63174 0
M  V30 15169 C 1525.68 -1.29829 -3.1521 0
M  V30 15170 H 1526.88 -2.43718 -1.74762 0
M  V30 15171 H 1524.43 -1.29168 -0.88007 0
M  V30 15172 H 1525.17 -0.332493 -3.22591 0
M  V30 15173 H 1524.95 -2.10501 -3.30804 0
M  V30 15174 H 1526.44 -1.35205 -3.95107 0
M  V30 15175 N 1526.88 0.906753 -1.28902 0
M  V30 15176 C 1527.84 1.99158 -1.1344 0
M  V30 15177 C 1528.84 1.60639 -0.0719551 0
M  V30 15178 O 1530.03 1.71267 -0.318317 0
M  V30 15179 C 1527.16 3.32923 -0.733172 0
M  V30 15180 H 1528.36 2.14305 -2.09794 0
M  V30 15181 H 1525.91 1.09034 -1.11988 0
M  V30 15182 H 1526.64 3.23477 0.230826 0
M  V30 15183 H 1526.43 3.62244 -1.50073 0
M  V30 15184 H 1527.92 4.12544 -0.64784 0
M  V30 15185 N 1528.36 1.11264 1.11616 0
M  V30 15186 C 1529.58 0.88306 1.87661 0
M  V30 15187 C 1530.01 -0.561586 1.79521 0
M  V30 15188 O 1529.36 -1.3964 1.1563 0
M  V30 15189 C 1529.41 1.34698 3.34498 0
M  V30 15190 O 1528.52 0.517512 4.0914 0
M  V30 15191 H 1527.86 0.318233 0.582772 0
M  V30 15192 H 1530.39 1.48164 1.41098 0
M  V30 15193 H 1530.4 1.34068 3.85344 0
M  V30 15194 H 1529.07 2.39896 3.39739 0
M  V30 15195 H 1527.65 0.589751 3.68207 0
M  V30 15196 N 1529.83 -1.29188 0.902679 0
M  V30 15197 C 1531.06 -2.00113 0.544953 0
M  V30 15198 C 1531.48 -1.67093 -0.863805 0
M  V30 15199 O 1530.84 -0.897179 -1.57545 0
M  V30 15200 C 1530.89 -3.52762 0.747741 0
M  V30 15201 O 1529.99 -4.11923 -0.198388 0
M  V30 15202 H 1529.33 -0.629054 0.212572 0
M  V30 15203 H 1531.86 -1.64611 1.21508 0
M  V30 15204 H 1531.87 -4.02732 0.653546 0
M  V30 15205 H 1530.55 -3.76131 1.77478 0
M  V30 15206 H 1529.13 -3.72857 -0.0563959 0
M  V30 15207 N 1531.31 -0.665475 -1.42861 0
M  V30 15208 C 1532.54 -0.190399 -2.06524 0
M  V30 15209 C 1532.96 1.13995 -1.49622 0
M  V30 15210 O 1532.32 1.70695 -0.610981 0
M  V30 15211 C 1532.37 -0.12594 -3.6038 0
M  V30 15212 O 1531.47 0.908299 -4.02273 0
M  V30 15213 H 1530.81 -0.100495 -0.656351 0
M  V30 15214 H 1533.34 -0.911858 -1.83156 0
M  V30 15215 H 1533.35 0.0533153 -4.07965 0
M  V30 15216 H 1532.03 -1.09703 -4.01171 0
M  V30 15217 H 1530.6 0.700841 -3.66255 0
M  V30 15218 N 1532.79 1.52222 -0.408187 0
M  V30 15219 C 1534.01 2.06703 0.169901 0
M  V30 15220 C 1534.44 1.27635 1.3817 0
M  V30 15221 O 1533.8 0.306343 1.78693 0
M  V30 15222 C 1533.85 3.57121 0.499663 0
M  V30 15223 O 1532.95 3.80483 1.5908 0
M  V30 15224 H 1532.29 0.663839 0.0146145 0
M  V30 15225 H 1534.82 1.96174 -0.581113 0
M  V30 15226 H 1534.83 4.00886 0.758567 0
M  V30 15227 H 1533.51 4.14103 -0.386182 0
M  V30 15228 H 1532.08 3.48599 1.32413 0
M  V30 15229 N 1534.27 0.138579 1.5699 0
M  V30 15230 C 1535.23 -0.79013 2.1515 0
M  V30 15231 C 1536.23 -1.1811 1.09117 0
M  V30 15232 O 1537.42 -1.1034 1.34798 0
M  V30 15233 C 1534.55 -2.07109 2.70774 0
M  V30 15234 H 1535.75 -0.284343 2.98549 0
M  V30 15235 H 1533.3 -0.11081 1.55907 0
M  V30 15236 H 1534.03 -2.62074 1.91018 0
M  V30 15237 H 1533.82 -1.80004 3.4834 0
M  V30 15238 H 1535.31 -2.73456 3.15613 0
M  V30 15239 N 1535.75 -1.57019 -0.13521 0
M  V30 15240 C 1536.71 -1.98229 -1.15056 0
M  V30 15241 C 1537.71 -0.870295 -1.35213 0
M  V30 15242 O 1538.9 -1.13668 -1.32005 0
M  V30 15243 C 1536.03 -2.30844 -2.50846 0
M  V30 15244 H 1537.22 -2.89123 -0.796744 0
M  V30 15245 H 1534.78 -1.51636 -0.378962 0
M  V30 15246 H 1535.51 -1.42779 -2.91178 0
M  V30 15247 H 1535.3 -3.11931 -2.37574 0
M  V30 15248 H 1536.79 -2.63524 -3.23952 0
M  V30 15249 N 1537.22 0.404919 -1.52309 0
M  V30 15250 C 1538.45 1.17764 -1.70723 0
M  V30 15251 C 1538.87 1.83403 -0.417744 0
M  V30 15252 O 1538.23 1.70181 0.625157 0
M  V30 15253 C 1538.28 2.2133 -2.84685 0
M  V30 15254 O 1537.38 3.27566 -2.50548 0
M  V30 15255 H 1536.73 0.343572 -0.568203 0
M  V30 15256 H 1539.26 0.474093 -1.99031 0
M  V30 15257 H 1539.27 2.6559 -3.09719 0
M  V30 15258 H 1537.94 1.72939 -3.78239 0
M  V30 15259 H 1536.52 2.88556 -2.36199 0
M  V30 15260 N 1538.7 1.43003 0.662408 0
M  V30 15261 C 1539.67 1.4713 1.75743 0
M  V30 15262 C 1540.67 0.357203 1.56782 0
M  V30 15263 O 1541.86 0.618566 1.62848 0
M  V30 15264 C 1538.99 1.31499 3.14517 0
M  V30 15265 H 1540.18 2.44641 1.73467 0
M  V30 15266 H 1537.73 1.29633 0.873208 0
M  V30 15267 H 1538.47 0.349596 3.2241 0
M  V30 15268 H 1538.25 2.12253 3.29683 0
M  V30 15269 H 1539.74 1.37298 3.94384 0
M  V30 15270 N 1540.18 -0.899904 1.29381 0
M  V30 15271 C 1541.41 -1.68911 1.20349 0
M  V30 15272 C 1541.83 -1.86657 -0.232523 0
M  V30 15273 O 1541.19 -1.38674 -1.16787 0
M  V30 15274 C 1541.24 -3.05124 1.92177 0
M  V30 15275 O 1540.34 -3.93358 1.23867 0
M  V30 15276 H 1539.68 -0.516698 0.417036 0
M  V30 15277 H 1542.21 -1.12422 1.70946 0
M  V30 15278 H 1542.22 -3.55267 2.00623 0
M  V30 15279 H 1540.9 -2.91525 2.96624 0
M  V30 15280 H 1539.47 -3.51793 1.23677 0
M  V30 15281 N 1541.66 -1.11854 -1.11024 0
M  V30 15282 C 1543.07 -0.885443 -1.64368 0
M  V30 15283 C 1543.42 0.581455 -1.87386 0
M  V30 15284 O 1542.55 1.44452 -1.61129 0
M  V30 15285 C 1543.14 -1.60082 -2.98595 0
M  V30 15286 C 1541.7 -1.41403 -3.4883 0
M  V30 15287 C 1540.85 -1.64069 -2.23555 0
M  V30 15288 H 1543.8 -1.27418 -0.94606 0
M  V30 15289 H 1543.82 -1.04832 -3.65774 0
M  V30 15290 H 1543.33 -2.66842 -2.8181 0
M  V30 15291 H 1541.43 -0.368727 -3.70771 0
M  V30 15292 H 1541.54 -2.16603 -4.27341 0
M  V30 15293 H 1539.91 -1.06437 -2.31394 0
M  V30 15294 H 1540.69 -2.72112 -2.09308 0
M  V30 15295 N 1543.14 1.28707 -0.909517 0
M  V30 15296 C 1544.36 1.99283 -0.556211 0
M  V30 15297 C 1544.78 1.68 0.861475 0
M  V30 15298 O 1544.14 0.930421 1.57001 0
M  V30 15299 C 1544.19 3.5362 -0.75068 0
M  V30 15300 O 1543.91 3.83799 -2.11258 0
M  V30 15301 C 1545.41 4.41459 -0.403637 0
M  V30 15302 H 1542.63 0.636476 -0.212462 0
M  V30 15303 H 1545.17 1.64007 -1.22156 0
M  V30 15304 H 1543.33 3.87174 -0.132384 0
M  V30 15305 H 1543.74 4.78448 -2.14913 0
M  V30 15306 H 1545.22 5.48833 -0.590496 0
M  V30 15307 H 1545.69 4.34214 0.659897 0
M  V30 15308 H 1546.3 4.13394 -0.999292 0
M  V30 15309 N 1544.61 0.673042 1.42506 0
M  V30 15310 C 1545.86 0.194192 2.01165 0
M  V30 15311 C 1546.18 -1.2029 1.53477 0
M  V30 15312 O 1545.45 -1.80737 0.755704 0
M  V30 15313 H 1544.03 0.0688022 0.743825 0
M  V30 15314 H 1546.7 0.869157 1.74447 0
M  V30 15315 H 1545.79 0.194111 3.11496 0
M  V30 15316 N 1546.09 -1.52004 0.416254 0
M  V30 15317 C 1547.5 -1.86628 -0.0517247 0
M  V30 15318 C 1547.85 -1.33463 -1.43813 0
M  V30 15319 O 1546.98 -0.676793 -2.05544 0
M  V30 15320 C 1547.57 -3.38651 -0.100637 0
M  V30 15321 C 1546.13 -3.72888 -0.512969 0
M  V30 15322 C 1545.28 -2.75584 0.307975 0
M  V30 15323 H 1548.23 -1.45529 0.633018 0
M  V30 15324 H 1548.25 -3.69348 -0.914465 0
M  V30 15325 H 1547.76 -3.77316 0.908538 0
M  V30 15326 H 1545.87 -3.39804 -1.52852 0
M  V30 15327 H 1545.98 -4.78435 -0.252408 0
M  V30 15328 H 1544.34 -2.53653 -0.230717 0
M  V30 15329 H 1545.13 -3.1709 1.31563 0
M  V30 15330 N 1547.57 -0.146903 -1.56914 0
M  V30 15331 C 1548.5 0.823803 -2.13883 0
M  V30 15332 C 1549.52 1.21081 -1.08826 0
M  V30 15333 O 1550.7 1.15491 -1.36103 0
M  V30 15334 C 1547.8 2.11686 -2.64655 0
M  V30 15335 C 1546.98 1.89723 -3.94112 0
M  V30 15336 C 1546.04 3.03016 -4.30195 0
M  V30 15337 O 1545.06 2.74711 -4.9852 0
M  V30 15338 N 1546.26 4.30187 -3.89768 0
M  V30 15339 H 1549.03 0.336904 -2.978 0
M  V30 15340 H 1546.59 0.0366704 -1.61858 0
M  V30 15341 H 1548.58 2.86525 -2.85807 0
M  V30 15342 H 1547.15 2.51639 -1.85464 0
M  V30 15343 H 1546.37 0.989208 -3.81587 0
M  V30 15344 H 1547.66 1.72387 -4.78707 0
M  V30 15345 H 1547.06 4.56051 -3.34715 0
M  V30 15346 H 1545.62 5.01807 -4.15972 0
M  V30 15347 N 1549.05 1.57088 0.126881 0
M  V30 15348 C 1550.3 1.84071 0.834397 0
M  V30 15349 C 1550.62 0.730896 1.80784 0
M  V30 15350 O 1549.89 -0.245791 1.94352 0
M  V30 15351 H 1548.47 0.679123 0.311128 0
M  V30 15352 H 1551.13 1.94554 0.116083 0
M  V30 15353 H 1550.23 2.79714 1.38443 0
M  V30 15354 N 1550.53 -0.396836 1.52522 0
M  V30 15355 C 1551.49 -1.46695 1.76106 0
M  V30 15356 C 1552.49 -1.47902 0.631005 0
M  V30 15357 O 1553.68 -1.4921 0.898995 0
M  V30 15358 C 1550.81 -2.86033 1.85467 0
M  V30 15359 H 1552 -1.27071 2.71649 0
M  V30 15360 H 1549.56 -0.628096 1.43125 0
M  V30 15361 H 1550.29 -3.11012 0.918816 0
M  V30 15362 H 1550.08 -2.86559 2.67631 0
M  V30 15363 H 1551.57 -3.63587 2.05412 0
M  V30 15364 N 1552.01 -1.43353 -0.654814 0
M  V30 15365 C 1552.97 -1.4806 -1.7496 0
M  V30 15366 C 1553.97 -0.365513 -1.56591 0
M  V30 15367 O 1555.16 -0.627194 -1.62517 0
M  V30 15368 C 1552.29 -1.33165 -3.13815 0
M  V30 15369 H 1553.48 -2.45557 -1.72167 0
M  V30 15370 H 1551.04 -1.30094 -0.86632 0
M  V30 15371 H 1551.77 -0.366689 -3.2222 0
M  V30 15372 H 1551.56 -2.13998 -3.28553 0
M  V30 15373 H 1553.05 -1.39388 -3.93651 0
M  V30 15374 N 1553.48 0.89303 -1.29857 0
M  V30 15375 C 1554.39 2.03079 -1.17457 0
M  V30 15376 C 1555.41 1.73733 -0.0962941 0
M  V30 15377 O 1556.59 1.99005 -0.309667 0
M  V30 15378 C 1553.65 3.3589 -0.858991 0
M  V30 15379 C 1552.71 3.78711 -2.0218 0
M  V30 15380 C 1551.94 5.05184 -1.72118 0
M  V30 15381 O 1552.17 5.66738 -0.645276 0
M  V30 15382 O 1551.1 5.44218 -2.57119 0
M  V30 15383 H 1554.93 2.16465 -2.13017 0
M  V30 15384 H 1552.51 1.01774 -1.09373 0
M  V30 15385 H 1554.39 4.15582 -0.697852 0
M  V30 15386 H 1553.07 3.23631 0.0667756 0
M  V30 15387 H 1551.98 2.99758 -2.23822 0
M  V30 15388 H 1553.31 3.95563 -2.929 0
M  V30 15389 N 1554.96 1.12442 1.10429 0
M  V30 15390 C 1555.89 0.814745 2.18824 0
M  V30 15391 C 1556.87 -0.221476 1.68652 0
M  V30 15392 O 1558.06 -0.0826537 1.94024 0
M  V30 15393 C 1555.19 0.268632 3.4626 0
M  V30 15394 C 1554.14 1.23792 4.09707 0
M  V30 15395 C 1553.47 0.552034 5.31843 0
M  V30 15396 C 1554.77 2.5926 4.53411 0
M  V30 15397 H 1556.46 1.72111 2.44986 0
M  V30 15398 H 1554.01 0.828968 1.17746 0
M  V30 15399 H 1555.96 0.0397207 4.21381 0
M  V30 15400 H 1554.68 -0.673079 3.19589 0
M  V30 15401 H 1553.34 1.45264 3.36592 0
M  V30 15402 H 1552.99 -0.394821 5.01448 0
M  V30 15403 H 1552.69 1.19861 5.75245 0
M  V30 15404 H 1554.22 0.332161 6.09696 0
M  V30 15405 H 1555.63 2.41816 5.19806 0
M  V30 15406 H 1554.03 3.19997 5.07663 0
M  V30 15407 H 1555.1 3.17699 3.66327 0
M  V30 15408 N 1556.44 -1.28223 0.91633 0
M  V30 15409 C 1557.4 -2.25477 0.411423 0
M  V30 15410 C 1558.4 -1.53969 -0.463689 0
M  V30 15411 O 1559.59 -1.72151 -0.266379 0
M  V30 15412 C 1556.72 -3.38427 -0.409851 0
M  V30 15413 H 1557.92 -2.71656 1.27056 0
M  V30 15414 H 1555.47 -1.3995 0.695966 0
M  V30 15415 H 1556.21 -2.97614 -1.28828 0
M  V30 15416 H 1555.99 -3.91497 0.217435 0
M  V30 15417 H 1557.48 -4.10739 -0.753862 0
M  V30 15418 N 1557.92 -0.68059 -1.42147 0
M  V30 15419 C 1558.88 -0.0149865 -2.29195 0
M  V30 15420 C 1559.88 0.723163 -1.43621 0
M  V30 15421 O 1561.07 0.560297 -1.64943 0
M  V30 15422 C 1558.2 0.989375 -3.26227 0
M  V30 15423 H 1559.4 -0.781236 -2.89546 0
M  V30 15424 H 1556.95 -0.443256 -1.49883 0
M  V30 15425 H 1557.68 1.78391 -2.70827 0
M  V30 15426 H 1557.47 0.463401 -3.89352 0
M  V30 15427 H 1558.96 1.45334 -3.91494 0
M  V30 15428 N 1559.4 1.51781 -0.424309 0
M  V30 15429 C 1560.35 2.24259 0.411339 0
M  V30 15430 C 1561.33 1.25976 1.00094 0
M  V30 15431 O 1562.52 1.51136 0.921238 0
M  V30 15432 C 1559.65 3.07858 1.51917 0
M  V30 15433 C 1558.74 4.13561 0.939599 0
M  V30 15434 N 1559.13 5.05723 0.08803 0
M  V30 15435 C 1557.43 4.29314 1.20855 0
M  V30 15436 C 1558.13 5.81221 -0.236076 0
M  V30 15437 N 1557.1 5.42291 0.376983 0
M  V30 15438 H 1560.9 2.92874 -0.2454 0
M  V30 15439 H 1558.42 1.60682 -0.235612 0
M  V30 15440 H 1560.42 3.58347 2.13056 0
M  V30 15441 H 1559.08 2.40784 2.17837 0
M  V30 15442 H 1560.09 5.17156 -0.277436 0
M  V30 15443 H 1556.76 3.73469 1.86621 0
M  V30 15444 H 1558.15 6.65457 -0.928241 0
M  V30 15445 N 1560.87 0.155222 1.56834 0
M  V30 15446 C 1562.1 -0.503763 2.01189 0
M  V30 15447 C 1562.52 -1.57086 1.03468 0
M  V30 15448 O 1561.88 -1.81296 0.0116895 0
M  V30 15449 C 1561.93 -1.07373 3.44243 0
M  V30 15450 O 1561.03 -2.18834 3.49551 0
M  V30 15451 H 1560.37 -0.122368 0.652627 0
M  V30 15452 H 1562.9 0.254377 2.03013 0
M  V30 15453 H 1562.91 -1.40036 3.83215 0
M  V30 15454 H 1561.59 -0.292339 4.14871 0
M  V30 15455 H 1560.17 -1.87337 3.22427 0
M  V30 15456 N 1562.35 -1.57153 -0.118549 0
M  V30 15457 C 1563.58 -1.89434 -0.844355 0
M  V30 15458 C 1564 -0.747203 -1.72622 0
M  V30 15459 O 1563.36 0.302252 -1.78763 0
M  V30 15460 C 1563.41 -3.20466 -1.65331 0
M  V30 15461 O 1562.51 -3.06403 -2.76027 0
M  V30 15462 H 1561.85 -0.621601 -0.23347 0
M  V30 15463 H 1564.38 -2.04351 -0.100811 0
M  V30 15464 H 1564.39 -3.53197 -2.04245 0
M  V30 15465 H 1563.07 -4.03551 -1.00594 0
M  V30 15466 H 1561.64 -2.85139 -2.40312 0
M  V30 15467 N 1563.83 0.388742 -1.5273 0
M  V30 15468 C 1564.76 1.48133 -1.80496 0
M  V30 15469 C 1565.74 1.56899 -0.657008 0
M  V30 15470 O 1566.93 1.71844 -0.904621 0
M  V30 15471 C 1564.06 2.85742 -1.97405 0
M  V30 15472 C 1563.01 2.91815 -3.13094 0
M  V30 15473 C 1562.34 4.31876 -3.15258 0
M  V30 15474 C 1563.64 2.61438 -4.52159 0
M  V30 15475 H 1565.33 1.25147 -2.7199 0
M  V30 15476 H 1562.88 0.600603 -1.30877 0
M  V30 15477 H 1564.83 3.62182 -2.15412 0
M  V30 15478 H 1563.55 3.10065 -1.02601 0
M  V30 15479 H 1562.21 2.17824 -2.9487 0
M  V30 15480 H 1561.86 4.53239 -2.18135 0
M  V30 15481 H 1561.56 4.3686 -3.92972 0
M  V30 15482 H 1563.08 5.10221 -3.3542 0
M  V30 15483 H 1564.5 3.27596 -4.70483 0
M  V30 15484 H 1562.89 2.77771 -5.31943 0
M  V30 15485 H 1563.96 1.56778 -4.58856 0
M  V30 15486 N 1565.31 1.43698 0.647203 0
M  V30 15487 C 1566.24 1.52135 1.77136 0
M  V30 15488 C 1567.22 0.375551 1.65902 0
M  V30 15489 O 1568.4 0.593564 1.84907 0
M  V30 15490 C 1565.53 1.44974 3.15594 0
M  V30 15491 C 1564.49 2.57866 3.41598 0
M  V30 15492 C 1563.81 2.35757 4.7992 0
M  V30 15493 C 1565.11 4.00089 3.35747 0
M  V30 15494 H 1566.81 2.46227 1.70332 0
M  V30 15495 H 1564.35 1.18507 0.818046 0
M  V30 15496 H 1566.31 1.4948 3.93997 0
M  V30 15497 H 1565.03 0.473905 3.23143 0
M  V30 15498 H 1563.69 2.52722 2.65569 0
M  V30 15499 H 1563.34 1.36403 4.84152 0
M  V30 15500 H 1563.04 3.11436 4.98278 0
M  V30 15501 H 1564.56 2.42055 5.60572 0
M  V30 15502 H 1565.98 4.06687 4.04078 0
M  V30 15503 H 1564.37 4.75842 3.65642 0
M  V30 15504 H 1565.44 4.24798 2.33825 0
M  V30 15505 N 1566.79 -0.886131 1.30328 0
M  V30 15506 C 1568.03 -1.6346 1.18849 0
M  V30 15507 C 1568.36 -1.93295 -0.257285 0
M  V30 15508 O 1567.63 -1.56858 -1.17356 0
M  V30 15509 H 1566.21 -0.605932 0.43687 0
M  V30 15510 H 1568.87 -1.06177 1.63439 0
M  V30 15511 H 1567.96 -2.58522 1.7485 0
M  V30 15512 N 1568.26 -1.13026 -1.09832 0
M  V30 15513 C 1569.51 -0.887662 -1.81563 0
M  V30 15514 C 1569.83 0.587935 -1.85926 0
M  V30 15515 O 1569.1 1.42732 -1.3418 0
M  V30 15516 H 1567.68 -0.32541 -0.672397 0
M  V30 15517 H 1570.35 -1.42597 -1.32861 0
M  V30 15518 H 1569.44 -1.2747 -2.84882 0
M  V30 15519 N 1569.74 1.27735 -0.923117 0
M  V30 15520 C 1571.15 1.76579 -0.606376 0
M  V30 15521 C 1571.5 1.75437 0.878428 0
M  V30 15522 O 1570.63 1.35495 1.68731 0
M  V30 15523 C 1571.22 3.20652 -1.09396 0
M  V30 15524 C 1569.78 3.67181 -0.827974 0
M  V30 15525 C 1568.93 2.47259 -1.25532 0
M  V30 15526 H 1571.88 1.14067 -1.10338 0
M  V30 15527 H 1571.9 3.77952 -0.439581 0
M  V30 15528 H 1571.41 3.21451 -2.17465 0
M  V30 15529 H 1569.52 3.71832 0.239098 0
M  V30 15530 H 1569.63 4.56875 -1.44229 0
M  V30 15531 H 1567.99 2.45622 -0.673928 0
M  V30 15532 H 1568.78 2.50771 -2.34455 0
M  V30 15533 N 1571.22 0.688118 1.41784 0
M  V30 15534 C 1572.15 -0.02099 2.2919 0
M  V30 15535 C 1573.17 -0.752005 1.44391 0
M  V30 15536 O 1574.35 -0.603947 1.67972 0
M  V30 15537 C 1571.45 -1.0537 3.22103 0
M  V30 15538 C 1570.63 -0.393817 4.35624 0
M  V30 15539 C 1569.69 -1.32812 5.09163 0
M  V30 15540 O 1568.71 -0.823341 5.63214 0
M  V30 15541 N 1569.91 -2.66083 5.15927 0
M  V30 15542 H 1572.68 0.729389 2.90689 0
M  V30 15543 H 1570.24 0.533564 1.52855 0
M  V30 15544 H 1572.23 -1.6803 3.68169 0
M  V30 15545 H 1570.8 -1.70568 2.61964 0
M  V30 15546 H 1570.02 0.41253 3.92035 0
M  V30 15547 H 1571.31 0.065338 5.08758 0
M  V30 15548 H 1570.71 -3.09619 4.73448 0
M  V30 15549 H 1569.27 -3.23956 5.65593 0
M  V30 15550 N 1572.7 -1.51554 0.432352 0
M  V30 15551 C 1573.95 -2.01645 -0.135511 0
M  V30 15552 C 1574.27 -1.31874 -1.43647 0
M  V30 15553 O 1573.54 -0.451746 -1.9062 0
M  V30 15554 H 1572.12 -0.745113 -0.0530683 0
M  V30 15555 H 1574.78 -1.86258 0.573917 0
M  V30 15556 H 1573.88 -3.10506 -0.315001 0
M  V30 15557 N 1574.18 -0.163538 -1.56749 0
M  V30 15558 C 1575.59 0.354516 -1.83303 0
M  V30 15559 C 1575.94 1.63601 -1.08301 0
M  V30 15560 O 1575.06 2.13814 -0.333546 0
M  V30 15561 C 1575.66 0.649983 -3.32507 0
M  V30 15562 C 1574.22 1.1125 -3.59584 0
M  V30 15563 C 1573.36 0.144257 -2.76925 0
M  V30 15564 H 1576.32 -0.387945 -1.53885 0
M  V30 15565 H 1576.34 1.5029 -3.49562 0
M  V30 15566 H 1575.85 -0.282886 -3.87068 0
M  V30 15567 H 1573.95 2.06074 -3.10426 0
M  V30 15568 H 1574.06 1.02704 -4.67962 0
M  V30 15569 H 1572.43 0.640116 -2.46525 0
M  V30 15570 H 1573.21 -0.782495 -3.34263 0
M  V30 15571 N 1575.65 1.57214 0.110213 0
M  V30 15572 C 1576.9 1.84946 0.814827 0
M  V30 15573 C 1577.22 0.750029 1.79999 0
M  V30 15574 O 1576.49 -0.225164 1.94602 0
M  V30 15575 H 1575.07 0.682385 0.303907 0
M  V30 15576 H 1577.74 1.94666 0.0954415 0
M  V30 15577 H 1576.83 2.81167 1.35469 0
M  V30 15578 N 1577.13 -0.380637 1.52934 0
M  V30 15579 C 1578.38 -1.12261 1.68053 0
M  V30 15580 C 1578.7 -1.90263 0.427191 0
M  V30 15581 O 1577.97 -1.87768 -0.558559 0
M  V30 15582 H 1576.55 -0.41742 0.619491 0
M  V30 15583 H 1579.21 -0.430906 1.90077 0
M  V30 15584 H 1578.31 -1.82085 2.53479 0
M  V30 15585 N 1578.61 -1.44039 -0.639573 0
M  V30 15586 C 1579.54 -1.44715 -1.76445 0
M  V30 15587 C 1580.52 -0.306957 -1.59676 0
M  V30 15588 O 1581.71 -0.502643 -1.81675 0
M  V30 15589 C 1578.83 -1.27177 -3.13917 0
M  V30 15590 C 1577.88 -2.44649 -3.49355 0
M  V30 15591 S 1578.71 -4.07191 -3.47787 0
M  V30 15592 C 1579.87 -3.92061 -4.87893 0
M  V30 15593 H 1580.1 -2.39897 -1.75603 0
M  V30 15594 H 1577.63 -1.31235 -0.813438 0
M  V30 15595 H 1579.59 -1.17745 -3.93251 0
M  V30 15596 H 1578.25 -0.335196 -3.12306 0
M  V30 15597 H 1577.45 -2.28219 -4.49369 0
M  V30 15598 H 1577.05 -2.50777 -2.77465 0
M  V30 15599 H 1579.34 -3.55229 -5.76904 0
M  V30 15600 H 1580.28 -4.91875 -5.09377 0
M  V30 15601 H 1580.69 -3.24271 -4.6207 0
M  V30 15602 N 1580.09 0.879207 -1.30796 0
M  V30 15603 C 1581.31 1.66975 -1.23021 0
M  V30 15604 C 1581.74 1.87004 0.202798 0
M  V30 15605 O 1581.1 1.40514 1.14566 0
M  V30 15606 C 1581.14 3.02028 -1.97007 0
M  V30 15607 O 1580.25 3.91338 -1.30109 0
M  V30 15608 H 1579.59 0.509998 -0.425204 0
M  V30 15609 H 1582.12 1.09688 -1.72713 0
M  V30 15610 H 1582.13 3.5203 -2.06249 0
M  V30 15611 H 1580.8 2.8677 -3.01224 0
M  V30 15612 H 1579.38 3.49781 -1.29258 0
M  V30 15613 N 1581.57 1.13606 1.09231 0
M  V30 15614 C 1582.53 0.818197 2.14099 0
M  V30 15615 C 1583.53 -0.173275 1.59864 0
M  V30 15616 O 1584.72 0.05405 1.74116 0
M  V30 15617 C 1581.85 0.218138 3.40201 0
M  V30 15618 H 1583.05 1.74748 2.43727 0
M  V30 15619 H 1580.6 0.940962 1.24802 0
M  V30 15620 H 1581.33 -0.720269 3.162 0
M  V30 15621 H 1581.12 0.932156 3.80859 0
M  V30 15622 H 1582.61 0.0126639 4.17598 0
M  V30 15623 N 1583.05 -1.27244 0.929878 0
M  V30 15624 C 1584.29 -1.94269 0.57146 0
M  V30 15625 C 1584.62 -1.73064 -0.887639 0
M  V30 15626 O 1583.88 -1.05422 -1.64878 0
M  V30 15627 C 1584.17 -3.47233 0.846386 0
M  V30 15628 C 1583.84 -3.88563 2.28757 0
M  V30 15629 C 1582.5 -3.99557 2.68156 0
M  V30 15630 C 1584.85 -4.09468 3.22467 0
M  V30 15631 C 1582.18 -4.28846 4.00385 0
M  V30 15632 C 1584.53 -4.40242 4.54279 0
M  V30 15633 C 1583.2 -4.4945 4.93509 0
M  V30 15634 H 1582.47 -0.710882 0.209112 0
M  V30 15635 H 1585.12 -1.51273 1.17425 0
M  V30 15636 H 1583.42 -3.91469 0.160941 0
M  V30 15637 H 1585.12 -3.97238 0.548006 0
M  V30 15638 H 1581.71 -3.80544 1.97192 0
M  V30 15639 H 1585.89 -4.00412 2.9323 0
M  V30 15640 H 1581.15 -4.34184 4.30458 0
M  V30 15641 H 1585.32 -4.55365 5.26892 0
M  V30 15642 H 1582.95 -4.71899 5.95999 0
M  V30 15643 N 1584.52 -0.695628 -1.41417 0
M  V30 15644 C 1585.75 -0.235654 -2.05554 0
M  V30 15645 C 1586.17 1.11513 -1.52349 0
M  V30 15646 O 1585.52 1.69688 -0.671743 0
M  V30 15647 C 1585.57 -0.184809 -3.61027 0
M  V30 15648 O 1585.3 -1.48224 -4.12264 0
M  V30 15649 C 1586.8 0.296147 -4.4231 0
M  V30 15650 H 1584.02 -0.109648 -0.661981 0
M  V30 15651 H 1586.56 -0.948227 -1.81187 0
M  V30 15652 H 1584.72 0.478588 -3.84432 0
M  V30 15653 H 1585.13 -1.36939 -5.06308 0
M  V30 15654 H 1586.6 0.280597 -5.51286 0
M  V30 15655 H 1587.08 1.33503 -4.18418 0
M  V30 15656 H 1587.69 -0.336253 -4.23969 0
M  V30 15657 N 1586 1.51322 -0.440383 0
M  V30 15658 C 1587.42 1.5933 -0.0928372 0
M  V30 15659 C 1587.62 1.45107 1.39807 0
M  V30 15660 O 1586.67 1.29385 2.16831 0
M  V30 15661 C 1587.99 2.9433 -0.615663 0
M  V30 15662 C 1589.53 3.07647 -0.576373 0
M  V30 15663 C 1590.01 4.45176 -1.07622 0
M  V30 15664 N 1591.5 4.51504 -1.03434 0
M  V30 15665 C 1592.24 5.56249 -1.39194 0
M  V30 15666 N 1591.73 6.68398 -1.82254 0
M  V30 15667 N 1593.52 5.46624 -1.30991 0
M  V30 15668 H 1585.68 1.58812 -1.41041 0
M  V30 15669 H 1587.94 0.748795 -0.581386 0
M  V30 15670 H 1587.64 3.10117 -1.65892 0
M  V30 15671 H 1587.52 3.77176 -0.0422513 0
M  V30 15672 H 1589.91 2.91526 0.457904 0
M  V30 15673 H 1589.99 2.26633 -1.18622 0
M  V30 15674 H 1589.63 4.62044 -2.10898 0
M  V30 15675 H 1589.56 5.24734 -0.442882 0
M  V30 15676 H 1592.05 3.71013 -0.718156 0
M  V30 15677 H 1592.36 7.44347 -2.07769 0
M  V30 15678 H 1590.71 6.69598 -1.86183 0
M  V30 15679 H 1593.9 4.57894 -0.972145 0
M  V30 15680 H 1594.07 6.28143 -1.59188 0
M  V30 15681 N 1587.48 0.171848 1.5666 0
M  V30 15682 C 1588.73 -0.473669 1.97191 0
M  V30 15683 C 1589.06 -1.6286 1.05784 0
M  V30 15684 O 1588.33 -1.94216 0.105084 0
M  V30 15685 C 1588.62 -0.956134 3.47174 0
M  V30 15686 C 1588.47 0.199007 4.4936 0
M  V30 15687 C 1589.79 -1.82962 4.00266 0
M  V30 15688 H 1586.91 -0.170704 0.716958 0
M  V30 15689 H 1589.55 0.25809 1.88239 0
M  V30 15690 H 1587.7 -1.57969 3.54934 0
M  V30 15691 H 1589.37 0.836109 4.53659 0
M  V30 15692 H 1587.61 0.85442 4.25302 0
M  V30 15693 H 1588.29 -0.180704 5.51704 0
M  V30 15694 H 1590.76 -1.30394 3.95141 0
M  V30 15695 H 1589.64 -2.13621 5.05625 0
M  V30 15696 H 1589.9 -2.77557 3.44114 0
M  V30 15697 N 1588.96 -1.5727 -0.101874 0
M  V30 15698 C 1589.91 -2.0258 -1.14297 0
M  V30 15699 C 1590.9 -0.925674 -1.41872 0
M  V30 15700 O 1592.11 -1.11086 -1.41633 0
M  V30 15701 H 1588.48 -0.645504 -0.385782 0
M  V30 15702 H 1590.45 -2.8922 -0.734453 0
M  V30 15703 C 1589.2 -2.46036 -2.45686 0
M  V30 15704 H 1588.52 -3.30266 -2.2531 0
M  V30 15705 H 1589.96 -2.81522 -3.17051 0
M  V30 15706 C 1588.42 -1.33089 -3.09498 0
M  V30 15707 O 1588.95 -0.656277 -3.96303 0
M  V30 15708 N 1587.16 -1.08359 -2.69642 0
M  V30 15709 H 1586.71 -1.63397 -1.99146 0
M  V30 15710 H 1586.66 -0.329859 -3.12665 0
M  V30 15711 N 1590.44 0.372521 -1.53134 0
M  V30 15712 C 1591.37 1.4621 -1.82057 0
M  V30 15713 C 1592.35 1.56194 -0.673612 0
M  V30 15714 O 1593.53 1.70875 -0.922797 0
M  V30 15715 C 1590.66 2.83632 -2.00425 0
M  V30 15716 C 1589.62 2.88478 -3.16171 0
M  V30 15717 C 1588.94 4.28508 -3.19821 0
M  V30 15718 C 1590.24 2.56628 -4.54906 0
M  V30 15719 H 1591.94 1.22256 -2.73302 0
M  V30 15720 H 1589.48 0.586688 -1.31507 0
M  V30 15721 H 1591.43 3.59876 -2.19242 0
M  V30 15722 H 1590.16 3.0896 -1.05884 0
M  V30 15723 H 1588.82 2.14684 -2.97164 0
M  V30 15724 H 1588.47 4.509 -2.2293 0
M  V30 15725 H 1588.17 4.32667 -3.97584 0
M  V30 15726 H 1589.69 5.06635 -3.40813 0
M  V30 15727 H 1591.1 3.22587 -4.73931 0
M  V30 15728 H 1589.5 2.72114 -5.34859 0
M  V30 15729 H 1590.57 1.51902 -4.60493 0
M  V30 15730 N 1591.91 1.44376 0.631925 0
M  V30 15731 C 1593.14 1.5082 1.42366 0
M  V30 15732 C 1593.56 0.133858 1.87623 0
M  V30 15733 O 1592.92 -0.876789 1.58689 0
M  V30 15734 C 1592.97 2.47698 2.62065 0
M  V30 15735 O 1592.07 1.97796 3.61871 0
M  V30 15736 H 1591.41 0.509318 0.426018 0
M  V30 15737 H 1593.94 1.89502 0.771376 0
M  V30 15738 H 1593.95 2.65708 3.09618 0
M  V30 15739 H 1592.63 3.47526 2.2847 0
M  V30 15740 H 1591.21 1.89549 3.21131 0
M  V30 15741 N 1593.39 -0.872258 1.31261 0
M  V30 15742 C 1594.8 -1.44077 1.18738 0
M  V30 15743 C 1595.15 -1.95105 -0.207037 0
M  V30 15744 O 1594.28 -1.86083 -1.10464 0
M  V30 15745 C 1594.87 -2.61884 2.14947 0
M  V30 15746 C 1593.43 -3.14787 2.06364 0
M  V30 15747 C 1592.58 -1.87495 2.04306 0
M  V30 15748 H 1595.53 -0.681011 1.43345 0
M  V30 15749 H 1595.55 -3.38501 1.73773 0
M  V30 15750 H 1595.06 -2.24715 3.16425 0
M  V30 15751 H 1593.16 -3.56582 1.08073 0
M  V30 15752 H 1593.28 -3.77225 2.95361 0
M  V30 15753 H 1591.64 -2.06361 1.49288 0
M  V30 15754 H 1592.42 -1.52566 3.07536 0
M  V30 15755 N 1594.87 -1.14184 -1.08627 0
M  V30 15756 C 1595.82 -0.822297 -2.1758 0
M  V30 15757 C 1596.81 0.198863 -1.68229 0
M  V30 15758 O 1598.02 0.0551869 -1.79915 0
M  V30 15759 H 1594.39 -0.248183 -0.709866 0
M  V30 15760 H 1596.36 -1.74916 -2.41758 0
M  V30 15761 C 1595.11 -0.313671 -3.46282 0
M  V30 15762 H 1594.44 -1.09078 -3.84632 0
M  V30 15763 H 1595.88 -0.128604 -4.23805 0
M  V30 15764 C 1594.33 0.962289 -3.22865 0
M  V30 15765 O 1594.86 2.03649 -3.46251 0
M  V30 15766 N 1593.07 0.896635 -2.76421 0
M  V30 15767 H 1592.62 0.0223186 -2.5759 0
M  V30 15768 H 1592.58 1.75093 -2.61132 0
M  V30 15769 N 1596.35 1.26749 -0.936613 0
M  V30 15770 C 1597.76 1.46284 -0.638218 0
M  V30 15771 C 1597.96 1.84509 0.80986 0
M  V30 15772 O 1597.02 1.96399 1.58693 0
M  V30 15773 C 1598.33 2.54867 -1.59573 0
M  V30 15774 C 1599.88 2.68721 -1.60493 0
M  V30 15775 C 1600.36 3.80471 -2.54963 0
M  V30 15776 N 1601.85 3.87857 -2.53221 0
M  V30 15777 C 1602.58 4.73767 -3.23005 0
M  V30 15778 N 1602.08 5.641 -4.02198 0
M  V30 15779 N 1603.87 4.67574 -3.11979 0
M  V30 15780 H 1596.02 1.00224 -1.87267 0
M  V30 15781 H 1598.29 0.501478 -0.804502 0
M  V30 15782 H 1597.99 2.33594 -2.62919 0
M  V30 15783 H 1597.87 3.52433 -1.34427 0
M  V30 15784 H 1600.25 2.8937 -0.578729 0
M  V30 15785 H 1600.33 1.71613 -1.89691 0
M  V30 15786 H 1599.98 3.60575 -3.57698 0
M  V30 15787 H 1599.91 4.77026 -2.23056 0
M  V30 15788 H 1602.4 3.23272 -1.95714 0
M  V30 15789 H 1602.71 6.26535 -4.52409 0
M  V30 15790 H 1601.06 5.63866 -4.063 0
M  V30 15791 H 1604.25 3.96004 -2.49596 0
M  V30 15792 H 1604.42 5.34308 -3.66633 0
M  V30 15793 N 1597.83 0.703118 1.41046 0
M  V30 15794 C 1598.77 0.0312802 2.32579 0
M  V30 15795 C 1599.77 -0.760463 1.51371 0
M  V30 15796 O 1600.97 -0.665235 1.67256 0
M  V30 15797 H 1597.35 -0.00868655 0.75195 0
M  V30 15798 H 1599.32 0.820195 2.86907 0
M  V30 15799 C 1598.07 -0.885639 3.36232 0
M  V30 15800 H 1597.39 -0.285819 3.98777 0
M  V30 15801 H 1598.83 -1.3239 4.02801 0
M  V30 15802 C 1597.29 -2.00533 2.70718 0
M  V30 15803 O 1597.82 -3.09491 2.56082 0
M  V30 15804 N 1596.03 -1.78528 2.29295 0
M  V30 15805 H 1595.57 -0.899139 2.41399 0
M  V30 15806 H 1595.53 -2.53627 1.85797 0
M  V30 15807 N 1599.3 -1.51086 0.448402 0
M  V30 15808 C 1600.24 -2.25799 -0.393401 0
M  V30 15809 C 1601.25 -1.30241 -0.976792 0
M  V30 15810 O 1602.44 -1.55916 -0.869051 0
M  V30 15811 C 1599.54 -3.00682 -1.56345 0
M  V30 15812 C 1598.71 -4.23421 -1.09695 0
M  V30 15813 C 1597.77 -4.8079 -2.1384 0
M  V30 15814 O 1596.8 -5.42329 -1.72823 0
M  V30 15815 N 1598 -4.65792 -3.46437 0
M  V30 15816 H 1600.76 -2.98681 0.246986 0
M  V30 15817 H 1598.32 -1.59497 0.277902 0
M  V30 15818 H 1600.32 -3.35945 -2.25662 0
M  V30 15819 H 1598.89 -2.30741 -2.10897 0
M  V30 15820 H 1598.11 -3.93526 -0.230457 0
M  V30 15821 H 1599.39 -5.03049 -0.762832 0
M  V30 15822 H 1598.79 -4.16799 -3.82486 0
M  V30 15823 H 1597.35 -5.05386 -4.11616 0
M  V30 15824 N 1600.78 -0.180154 -1.56567 0
M  V30 15825 C 1602.01 0.471692 -2.01965 0
M  V30 15826 C 1602.43 1.5542 -1.05954 0
M  V30 15827 O 1601.79 1.81255 -0.0405307 0
M  V30 15828 C 1601.84 1.01883 -3.45908 0
M  V30 15829 O 1600.94 2.13245 -3.52988 0
M  V30 15830 H 1600.28 0.11197 -0.654491 0
M  V30 15831 H 1602.81 -0.286642 -2.02582 0
M  V30 15832 H 1602.82 1.33922 -3.85395 0
M  V30 15833 H 1601.5 0.226299 -4.15284 0
M  V30 15834 H 1600.08 1.82184 -3.25367 0
M  V30 15835 N 1602.26 1.57322 0.0935319 0
M  V30 15836 C 1603.22 2.0121 1.0976 0
M  V30 15837 C 1604.22 0.905839 1.32858 0
M  V30 15838 O 1605.41 1.17128 1.28945 0
M  V30 15839 C 1602.55 2.37414 2.44638 0
M  V30 15840 H 1603.74 2.91134 0.719809 0
M  V30 15841 H 1601.29 1.52588 0.338625 0
M  V30 15842 H 1602.03 1.50449 2.8729 0
M  V30 15843 H 1601.81 3.1812 2.2922 0
M  V30 15844 H 1603.3 2.7202 3.16851 0
M  V30 15845 N 1603.74 -0.364395 1.53329 0
M  V30 15846 C 1604.69 -1.44645 1.79851 0
M  V30 15847 C 1605.66 -1.53151 0.642951 0
M  V30 15848 O 1606.84 -1.6902 0.885252 0
M  V30 15849 C 1603.98 -2.81575 1.99523 0
M  V30 15850 C 1603.09 -2.82026 3.27239 0
M  V30 15851 C 1602.23 -4.1054 3.37091 0
M  V30 15852 C 1601.27 -4.05138 4.58835 0
M  V30 15853 N 1600.4 -5.25303 4.65834 0
M  V30 15854 H 1605.24 -1.21329 2.72182 0
M  V30 15855 H 1602.78 -0.588143 1.34831 0
M  V30 15856 H 1604.74 -3.61124 2.08915 0
M  V30 15857 H 1603.37 -3.03288 1.10527 0
M  V30 15858 H 1602.42 -1.94704 3.26794 0
M  V30 15859 H 1603.73 -2.73907 4.16865 0
M  V30 15860 H 1602.89 -4.98504 3.45801 0
M  V30 15861 H 1601.63 -4.21413 2.45483 0
M  V30 15862 H 1600.63 -3.1556 4.50224 0
M  V30 15863 H 1601.86 -3.95866 5.51785 0
M  V30 15864 H 1599.8 -5.36759 3.77128 0
M  V30 15865 H 1599.72 -5.19358 5.49367 0
M  V30 15866 H 1600.99 -6.15096 4.78829 0
M  V30 15867 N 1605.22 -1.44709 -0.62426 0
M  V30 15868 C 1606.46 -1.48072 -1.38573 0
M  V30 15869 C 1606.8 -0.115532 -1.93856 0
M  V30 15870 O 1606.07 0.867787 -1.74068 0
M  V30 15871 C 1606.35 -2.54662 -2.54596 0
M  V30 15872 C 1606.21 -4.00564 -2.04618 0
M  V30 15873 C 1607.53 -2.57689 -3.56769 0
M  V30 15874 H 1604.64 -0.539119 -0.502513 0
M  V30 15875 H 1607.29 -1.76427 -0.705225 0
M  V30 15876 H 1605.44 -2.30614 -3.12649 0
M  V30 15877 H 1607.11 -4.35767 -1.51343 0
M  V30 15878 H 1605.35 -4.12014 -1.35746 0
M  V30 15879 H 1606.02 -4.70804 -2.8818 0
M  V30 15880 H 1608.5 -2.79194 -3.08529 0
M  V30 15881 H 1607.37 -3.34161 -4.35462 0
M  V30 15882 H 1607.64 -1.62146 -4.11292 0
M  V30 15883 N 1606.69 0.865285 -1.31722 0
M  V30 15884 C 1607.94 1.6135 -1.21033 0
M  V30 15885 C 1608.26 1.94253 0.229141 0
M  V30 15886 O 1609.46 2.67613 0.457771 0
M  V30 15887 C 1607.92 2.90898 -2.11912 0
M  V30 15888 C 1607.53 2.6546 -3.60881 0
M  V30 15889 C 1609.27 3.68898 -2.10035 0
M  V30 15890 C 1607.18 3.90943 -4.43754 0
M  V30 15891 H 1606.11 0.605418 -0.449428 0
M  V30 15892 H 1608.76 0.956335 -1.56609 0
M  V30 15893 H 1607.14 3.58014 -1.69239 0
M  V30 15894 H 1608.31 2.06721 -4.11829 0
M  V30 15895 H 1606.63 2.00806 -3.64782 0
M  V30 15896 H 1609.23 4.61995 -2.69193 0
M  V30 15897 H 1609.57 4.01813 -1.08865 0
M  V30 15898 H 1610.1 3.08671 -2.50932 0
M  V30 15899 H 1606.84 3.63176 -5.45696 0
M  V30 15900 H 1606.36 4.49116 -3.97561 0
M  V30 15901 H 1608.04 4.58784 -4.56208 0
M  V30 15902 N 1608.17 1.14759 1.0802 0
M  V30 15903 C 1609.59 0.8888 1.32561 0
M  V30 15904 C 1609.79 -0.467926 1.95992 0
M  V30 15905 O 1608.84 -1.21135 2.21546 0
M  V30 15906 C 1610.16 2.02456 2.22333 0
M  V30 15907 C 1611.71 2.05831 2.35802 0
M  V30 15908 C 1612.18 3.18711 3.28918 0
M  V30 15909 N 1613.67 3.18315 3.36496 0
M  V30 15910 C 1614.41 4.02297 4.08589 0
M  V30 15911 N 1613.9 4.96327 4.83354 0
M  V30 15912 N 1615.7 3.90344 4.0446 0
M  V30 15913 H 1607.85 2.02135 0.652307 0
M  V30 15914 H 1610.11 0.881021 0.35001 0
M  V30 15915 H 1609.82 3.00354 1.82976 0
M  V30 15916 H 1609.69 1.95108 3.2282 0
M  V30 15917 H 1612.08 1.08537 2.74415 0
M  V30 15918 H 1612.16 2.17248 1.35044 0
M  V30 15919 H 1611.8 4.16253 2.91025 0
M  V30 15920 H 1611.73 3.04531 4.29614 0
M  V30 15921 H 1614.22 2.50214 2.83199 0
M  V30 15922 H 1614.54 5.56865 5.35837 0
M  V30 15923 H 1612.88 5.00321 4.82394 0
M  V30 15924 H 1616.07 3.162 3.45159 0
M  V30 15925 H 1616.24 4.56019 4.60381 0
M  V30 15926 N 1609.65 -1.26251 0.943322 0
M  V30 15927 C 1610.61 -2.24554 0.459158 0
M  V30 15928 C 1611.61 -1.54918 -0.430926 0
M  V30 15929 O 1612.8 -1.72678 -0.229803 0
M  V30 15930 C 1609.94 -3.39221 -0.337973 0
M  V30 15931 H 1611.13 -2.689 1.32789 0
M  V30 15932 H 1608.68 -1.38442 0.725495 0
M  V30 15933 H 1609.42 -3.00279 -1.22486 0
M  V30 15934 H 1609.2 -3.90947 0.300428 0
M  V30 15935 H 1610.69 -4.12246 -0.666568 0
M  V30 15936 N 1611.13 -0.710588 -1.40671 0
M  V30 15937 C 1612.41 -0.175319 -1.94813 0
M  V30 15938 C 1612.79 1.31792 -1.64906 0
M  V30 15939 O 1612.13 2.07167 -0.964058 0
M  V30 15940 C 1612.34 -0.482691 -3.45646 0
M  V30 15941 C 1613.69 -0.418619 -4.22531 0
M  V30 15942 O 1614.72 -0.418463 -3.53733 0
M  V30 15943 O 1613.58 -0.391787 -5.45094 0
M  V30 15944 H 1610.67 -0.0237744 -0.826658 0
M  V30 15945 H 1613.22 -0.787778 -1.50307 0
M  V30 15946 H 1611.99 -1.51569 -3.60753 0
M  V30 15947 H 1611.61 0.159984 -3.97278 0
M  V30 15948 N 1612.61 1.50847 -0.456408 0
M  V30 15949 C 1614.02 1.867 0.00222532 0
M  V30 15950 C 1614.37 1.37229 1.40224 0
M  V30 15951 O 1613.49 0.731052 2.03678 0
M  V30 15952 C 1614.09 3.38798 0.0108142 0
M  V30 15953 C 1612.65 3.74117 0.413924 0
M  V30 15954 C 1611.8 2.74671 -0.380933 0
M  V30 15955 H 1614.75 1.43799 -0.671379 0
M  V30 15956 H 1614.77 3.71642 0.816217 0
M  V30 15957 H 1614.28 3.74774 -1.00826 0
M  V30 15958 H 1612.38 3.43737 1.43789 0
M  V30 15959 H 1612.49 4.78936 0.125471 0
M  V30 15960 H 1610.86 2.54175 0.163385 0
M  V30 15961 H 1611.64 3.1349 -1.39924 0
M  V30 15962 N 1614.09 0.188454 1.56469 0
M  V30 15963 C 1615.02 -0.766806 2.15992 0
M  V30 15964 C 1616.03 -1.18153 1.11998 0
M  V30 15965 O 1617.22 -1.11842 1.39118 0
M  V30 15966 C 1614.32 -2.04594 2.70175 0
M  V30 15967 C 1613.49 -1.79207 3.99003 0
M  V30 15968 C 1612.55 -2.91504 4.38078 0
M  V30 15969 O 1611.58 -2.61397 5.05628 0
M  V30 15970 N 1612.78 -4.19702 4.01037 0
M  V30 15971 H 1615.54 -0.257829 2.98589 0
M  V30 15972 H 1613.11 0.00625645 1.61899 0
M  V30 15973 H 1615.1 -2.78846 2.93303 0
M  V30 15974 H 1613.67 -2.46633 1.9207 0
M  V30 15975 H 1612.89 -0.88769 3.84075 0
M  V30 15976 H 1614.18 -1.59634 4.83109 0
M  V30 15977 H 1613.57 -4.47016 3.46689 0
M  V30 15978 H 1612.13 -4.90602 4.2913 0
M  V30 15979 N 1615.56 -1.5737 -0.0851874 0
M  V30 15980 C 1616.81 -1.86219 -0.7853 0
M  V30 15981 C 1617.13 -0.77857 -1.78783 0
M  V30 15982 O 1616.4 0.194176 -1.94935 0
M  V30 15983 H 1614.98 -0.687134 -0.293013 0
M  V30 15984 H 1617.64 -1.94793 -0.0644597 0
M  V30 15985 H 1616.74 -2.83286 -1.30978 0
M  V30 15986 N 1617.04 0.356258 -1.53521 0
M  V30 15987 C 1618.28 1.10649 -1.71861 0
M  V30 15988 C 1618.65 1.86277 -0.465286 0
M  V30 15989 O 1619.85 2.63613 -0.52552 0
M  V30 15990 C 1618.12 2.03282 -2.93958 0
M  V30 15991 S 1619.68 2.85699 -3.33048 0
M  V30 15992 H 1616.49 0.374066 -0.604645 0
M  V30 15993 H 1619.1 0.386526 -1.91641 0
M  V30 15994 H 1617.8 1.46501 -3.83361 0
M  V30 15995 H 1617.33 2.79736 -2.76607 0
M  V30 15996 H 1619.35 4.05634 -2.85789 0
M  V30 15997 N 1618.52 1.45038 0.616577 0
M  V30 15998 C 1619.94 1.29246 0.936359 0
M  V30 15999 C 1620.14 0.238879 2.00079 0
M  V30 16000 O 1619.19 -0.370265 2.4977 0
M  V30 16001 C 1620.5 2.66863 1.38581 0
M  V30 16002 C 1622.05 2.74688 1.50051 0
M  V30 16003 C 1622.53 4.12809 1.98375 0
M  V30 16004 N 1624.02 4.15058 2.05623 0
M  V30 16005 C 1624.75 5.18793 2.44216 0
M  V30 16006 N 1624.25 6.3288 2.81843 0
M  V30 16007 N 1626.04 5.06149 2.44477 0
M  V30 16008 H 1618.19 2.12221 -0.0871304 0
M  V30 16009 H 1620.46 0.947705 0.0236659 0
M  V30 16010 H 1620.16 3.45105 0.677911 0
M  V30 16011 H 1620.04 2.94726 2.35407 0
M  V30 16012 H 1622.42 1.96756 2.19934 0
M  V30 16013 H 1622.5 2.50549 0.515631 0
M  V30 16014 H 1622.15 4.91223 1.29082 0
M  V30 16015 H 1622.08 4.34334 2.97761 0
M  V30 16016 H 1624.57 3.32726 1.79171 0
M  V30 16017 H 1624.88 7.07834 3.10147 0
M  V30 16018 H 1623.23 6.36295 2.7956 0
M  V30 16019 H 1626.42 4.16071 2.14482 0
M  V30 16020 H 1626.59 5.87114 2.74229 0
M  V30 16021 N 1620 -0.858287 1.32179 0
M  V30 16022 C 1621.41 -1.14591 1.1109 0
M  V30 16023 C 1621.61 -2.01194 -0.110998 0
M  V30 16024 O 1620.67 -2.39593 -0.79695 0
M  V30 16025 C 1621.98 -1.82675 2.38852 0
M  V30 16026 C 1623.53 -1.95326 2.44574 0
M  V30 16027 C 1624.01 -2.66826 3.72247 0
M  V30 16028 N 1625.5 -2.74353 3.73208 0
M  V30 16029 C 1626.23 -3.30317 4.68698 0
M  V30 16030 N 1625.73 -3.87121 5.74552 0
M  V30 16031 N 1627.52 -3.28386 4.562 0
M  V30 16032 H 1619.67 -0.281471 2.10527 0
M  V30 16033 H 1621.93 -0.187326 0.929308 0
M  V30 16034 H 1621.64 -1.26495 3.28165 0
M  V30 16035 H 1621.51 -2.82862 2.49537 0
M  V30 16036 H 1623.9 -2.50668 1.55723 0
M  V30 16037 H 1623.98 -0.94147 2.37844 0
M  V30 16038 H 1623.63 -2.12149 4.61471 0
M  V30 16039 H 1623.56 -3.68437 3.76247 0
M  V30 16040 H 1626.05 -2.34051 2.96696 0
M  V30 16041 H 1626.36 -4.2797 6.43476 0
M  V30 16042 H 1624.71 -3.85463 5.78311 0
M  V30 16043 H 1627.9 -2.83254 3.72672 0
M  V30 16044 H 1628.07 -3.71701 5.30794 0
M  V30 16045 N 1621.48 -1.1533 -1.07409 0
M  V30 16046 C 1622.89 -0.895817 -1.32088 0
M  V30 16047 C 1623.09 0.457526 -1.96237 0
M  V30 16048 O 1622.15 1.19958 -2.22185 0
M  V30 16049 C 1623.46 -2.03632 -2.21256 0
M  V30 16050 C 1625.01 -2.07079 -2.34707 0
M  V30 16051 C 1625.48 -3.20451 -3.27223 0
M  V30 16052 N 1626.97 -3.20095 -3.34804 0
M  V30 16053 C 1627.71 -4.04458 -4.0645 0
M  V30 16054 N 1627.21 -4.98883 -4.80715 0
M  V30 16055 N 1629 -3.92483 -4.02385 0
M  V30 16056 H 1621.15 -2.02478 -0.641578 0
M  V30 16057 H 1623.41 -0.882864 -0.345332 0
M  V30 16058 H 1623.12 -3.0132 -1.81381 0
M  V30 16059 H 1622.99 -1.96817 -3.21781 0
M  V30 16060 H 1625.38 -1.09991 -2.73836 0
M  V30 16061 H 1625.46 -2.17962 -1.3389 0
M  V30 16062 H 1625.1 -4.17791 -2.88813 0
M  V30 16063 H 1625.03 -3.06805 -4.27993 0
M  V30 16064 H 1627.53 -2.51712 -2.81868 0
M  V30 16065 H 1627.84 -5.59698 -5.32877 0
M  V30 16066 H 1626.18 -5.02872 -4.79734 0
M  V30 16067 H 1629.37 -3.18026 -3.43478 0
M  V30 16068 H 1629.55 -4.58454 -4.57956 0
M  V30 16069 N 1622.95 1.25748 -0.950004 0
M  V30 16070 C 1623.9 2.23767 -0.43731 0
M  V30 16071 C 1624.89 1.53856 0.47088 0
M  V30 16072 O 1626.08 1.74358 0.304687 0
M  V30 16073 C 1623.21 3.4209 0.288037 0
M  V30 16074 C 1622.29 4.19274 -0.637955 0
M  V30 16075 N 1622.69 4.73909 -1.76759 0
M  V30 16076 C 1620.98 4.43772 -0.445251 0
M  V30 16077 C 1621.68 5.32323 -2.34535 0
M  V30 16078 N 1620.66 5.18511 -1.63239 0
M  V30 16079 H 1624.46 2.6361 -1.29949 0
M  V30 16080 H 1621.98 1.40934 -0.806931 0
M  V30 16081 H 1623.97 4.11441 0.672433 0
M  V30 16082 H 1622.63 3.03771 1.14688 0
M  V30 16083 H 1623.64 4.71184 -2.14955 0
M  V30 16084 H 1620.32 4.15848 0.37109 0
M  V30 16085 H 1621.71 5.85411 -3.29763 0
M  V30 16086 N 1624.43 0.718038 1.40292 0
M  V30 16087 C 1625.66 0.266918 2.05675 0
M  V30 16088 C 1626.08 -1.08364 1.53749 0
M  V30 16089 O 1625.44 -1.6831 0.673912 0
M  V30 16090 C 1625.49 0.259606 3.59664 0
M  V30 16091 O 1624.59 -0.758372 4.05367 0
M  V30 16092 H 1623.93 0.124786 0.652169 0
M  V30 16093 H 1626.46 0.979207 1.79646 0
M  V30 16094 H 1626.47 0.098135 4.07882 0
M  V30 16095 H 1625.15 1.24517 3.96823 0
M  V30 16096 H 1623.72 -0.564425 3.68604 0
M  V30 16097 N 1625.91 -1.50602 0.464402 0
M  V30 16098 C 1627.14 -2.07191 -0.0930678 0
M  V30 16099 C 1627.56 -1.32675 -1.33338 0
M  V30 16100 O 1626.92 -0.372453 -1.77433 0
M  V30 16101 C 1626.97 -3.5873 -0.366775 0
M  V30 16102 O 1626.07 -3.86125 -1.44849 0
M  V30 16103 H 1625.41 -0.663924 0.0100336 0
M  V30 16104 H 1627.94 -1.93882 0.653522 0
M  V30 16105 H 1627.95 -4.03425 -0.609258 0
M  V30 16106 H 1626.63 -4.12385 0.539608 0
M  V30 16107 H 1625.2 -3.53273 -1.19384 0
M  V30 16108 N 1627.39 -0.19675 -1.56367 0
M  V30 16109 C 1628.3 0.735372 -2.22777 0
M  V30 16110 C 1629.31 1.23336 -1.22737 0
M  V30 16111 O 1630.49 1.28017 -1.55479 0
M  V30 16112 C 1627.56 1.93706 -2.8754 0
M  V30 16113 C 1626.62 1.48348 -4.02854 0
M  V30 16114 C 1625.85 2.62788 -4.64519 0
M  V30 16115 O 1626.07 3.80311 -4.25111 0
M  V30 16116 O 1625.01 2.35406 -5.53956 0
M  V30 16117 H 1628.83 0.199788 -3.03042 0
M  V30 16118 H 1626.42 0.0326149 -1.49364 0
M  V30 16119 H 1628.3 2.63934 -3.28507 0
M  V30 16120 H 1626.97 2.46121 -2.10252 0
M  V30 16121 H 1625.88 0.749939 -3.66506 0
M  V30 16122 H 1627.21 1.00597 -4.8181 0
M  V30 16123 N 1628.87 1.57413 0.0768405 0
M  V30 16124 C 1630.09 1.91224 0.790007 0
M  V30 16125 C 1630.51 0.792232 1.71374 0
M  V30 16126 O 1629.87 -0.234736 1.80984 0
M  V30 16127 C 1629.92 3.24757 1.58793 0
M  V30 16128 O 1629.64 4.3245 0.701329 0
M  V30 16129 C 1631.14 3.72549 2.40254 0
M  V30 16130 H 1628.36 0.63219 0.224893 0
M  V30 16131 H 1630.9 2.04442 0.0486173 0
M  V30 16132 H 1629.06 3.13081 2.28165 0
M  V30 16133 H 1629.47 5.09245 1.2558 0
M  V30 16134 H 1630.95 4.68628 2.91705 0
M  V30 16135 H 1631.42 3.01305 3.1955 0
M  V30 16136 H 1632.03 3.87153 1.76048 0
M  V30 16137 N 1630.34 -0.348112 1.53707 0
M  V30 16138 C 1631.59 -1.08886 1.70734 0
M  V30 16139 C 1631.92 -1.88782 0.468142 0
M  V30 16140 O 1631.17 -1.8781 -0.550081 0
M  V30 16141 C 1631.47 -2.06123 2.91973 0
M  V30 16142 C 1631.14 -1.42574 4.27766 0
M  V30 16143 C 1629.8 -1.24971 4.64689 0
M  V30 16144 C 1632.15 -0.967538 5.12141 0
M  V30 16145 C 1629.48 -0.601597 5.83607 0
M  V30 16146 C 1631.83 -0.33335 6.31721 0
M  V30 16147 C 1630.5 -0.144967 6.67343 0
M  V30 16148 H 1629.77 -0.398444 0.624759 0
M  V30 16149 H 1632.41 -0.368657 1.87918 0
M  V30 16150 H 1630.72 -2.84509 2.69373 0
M  V30 16151 H 1632.42 -2.63423 3.0234 0
M  V30 16152 H 1629.01 -1.57271 3.98702 0
M  V30 16153 H 1633.19 -1.0914 4.84151 0
M  V30 16154 H 1628.45 -0.444216 6.09784 0
M  V30 16155 H 1632.62 0.0298081 6.96394 0
M  V30 16156 H 1630.25 0.359291 7.5935 0
M  V30 16157 N 1631.82 -1.45363 -0.608876 0
M  V30 16158 C 1633.05 -1.53066 -1.39949 0
M  V30 16159 C 1633.47 -0.16369 -1.87386 0
M  V30 16160 O 1632.83 0.851432 -1.60064 0
M  V30 16161 C 1632.88 -2.51836 -2.58091 0
M  V30 16162 O 1631.98 -2.03528 -3.58678 0
M  V30 16163 H 1631.32 -0.516031 -0.417861 0
M  V30 16164 H 1633.85 -1.90705 -0.74113 0
M  V30 16165 H 1633.86 -2.706 -3.05352 0
M  V30 16166 H 1632.54 -3.51117 -2.22912 0
M  V30 16167 H 1631.12 -1.94634 -3.18075 0
M  V30 16168 N 1633.3 0.851265 -1.32632 0
M  V30 16169 C 1634.53 1.64328 -1.26535 0
M  V30 16170 C 1634.95 1.87392 0.163086 0
M  V30 16171 O 1634.31 1.42913 1.1156 0
M  V30 16172 C 1634.36 2.97781 -2.03369 0
M  V30 16173 O 1633.46 3.8849 -1.38381 0
M  V30 16174 H 1632.8 0.500864 -0.435926 0
M  V30 16175 H 1635.33 1.06 -1.75001 0
M  V30 16176 H 1635.34 3.47576 -2.1367 0
M  V30 16177 H 1634.02 2.80316 -3.07239 0
M  V30 16178 H 1632.59 3.4696 -1.36649 0
M  V30 16179 N 1634.78 1.15898 1.06796 0
M  V30 16180 C 1636.01 0.961372 1.83208 0
M  V30 16181 C 1636.42 -0.490392 1.8232 0
M  V30 16182 O 1635.78 -1.34025 1.2387 0
M  V30 16183 C 1635.83 1.47486 3.30045 0
M  V30 16184 O 1635.55 2.86976 3.31023 0
M  V30 16185 C 1637.05 1.31955 4.23205 0
M  V30 16186 H 1634.27 0.34109 0.57784 0
M  V30 16187 H 1636.82 1.53805 1.34775 0
M  V30 16188 H 1634.97 0.940586 3.75808 0
M  V30 16189 H 1635.38 3.1038 4.22805 0
M  V30 16190 H 1636.86 1.72721 5.24282 0
M  V30 16191 H 1637.34 0.264439 4.38403 0
M  V30 16192 H 1637.94 1.84319 3.83284 0
M  V30 16193 N 1636.26 -1.25243 0.956659 0
M  V30 16194 C 1637.67 -1.74909 0.652979 0
M  V30 16195 C 1638.02 -1.77704 -0.831605 0
M  V30 16196 O 1637.14 -1.39921 -1.65079 0
M  V30 16197 C 1637.74 -3.17639 1.1786 0
M  V30 16198 C 1636.3 -3.64856 0.925034 0
M  V30 16199 C 1635.44 -2.43844 1.32044 0
M  V30 16200 H 1638.4 -1.11101 1.13324 0
M  V30 16201 H 1638.42 -3.76654 0.539633 0
M  V30 16202 H 1637.93 -3.15572 2.25911 0
M  V30 16203 H 1636.03 -3.72335 -0.14043 0
M  V30 16204 H 1636.14 -4.5289 1.56292 0
M  V30 16205 H 1634.51 -2.43749 0.738813 0
M  V30 16206 H 1635.29 -2.44466 2.41021 0
M  V30 16207 N 1637.73 -0.725468 -1.3991 0
M  V30 16208 C 1638.96 -0.277821 -2.05531 0
M  V30 16209 C 1639.38 1.07547 -1.54322 0
M  V30 16210 O 1638.74 1.6795 -0.682828 0
M  V30 16211 C 1638.79 -0.278676 -3.59522 0
M  V30 16212 O 1637.89 0.736864 -4.05764 0
M  V30 16213 H 1637.24 -0.128243 -0.651498 0
M  V30 16214 H 1639.77 -0.988721 -1.79124 0
M  V30 16215 H 1639.78 -0.119765 -4.07824 0
M  V30 16216 H 1638.45 -1.2662 -3.96157 0
M  V30 16217 H 1637.03 0.544869 -3.68898 0
M  V30 16218 N 1639.21 1.50354 -0.472382 0
M  V30 16219 C 1640.18 2.27096 0.30981 0
M  V30 16220 C 1641.18 1.3193 0.919306 0
M  V30 16221 O 1642.37 1.55344 0.788284 0
M  V30 16222 C 1639.5 3.08924 1.44149 0
M  V30 16223 H 1640.69 2.97692 -0.363228 0
M  V30 16224 H 1638.24 1.5465 -0.226483 0
M  V30 16225 H 1638.98 2.42828 2.14954 0
M  V30 16226 H 1638.76 3.78862 1.01023 0
M  V30 16227 H 1640.25 3.66961 1.99323 0
M  V30 16228 N 1640.69 0.205039 1.56261 0
M  V30 16229 C 1641.92 -0.43642 2.02245 0
M  V30 16230 C 1642.33 -1.54504 1.08508 0
M  V30 16231 O 1641.69 -1.82269 0.0916991 0
M  V30 16232 C 1641.74 -0.983483 3.47865 0
M  V30 16233 O 1641.46 0.0809166 4.38025 0
M  V30 16234 C 1642.96 -1.69983 4.09415 0
M  V30 16235 H 1640.18 -0.108577 0.662157 0
M  V30 16236 H 1642.73 0.316659 2.02033 0
M  V30 16237 H 1640.88 -1.6869 3.48744 0
M  V30 16238 H 1641.3 -0.327751 5.23475 0
M  V30 16239 H 1642.77 -2.03481 5.13127 0
M  V30 16240 H 1643.25 -2.60711 3.5345 0
M  V30 16241 H 1643.85 -1.04202 4.12337 0
M  V30 16242 N 1642.17 -1.57451 -0.0684915 0
M  V30 16243 C 1643.59 -1.53883 -0.423354 0
M  V30 16244 C 1643.79 -0.925698 -1.78978 0
M  V30 16245 O 1642.84 -0.529629 -2.46883 0
M  V30 16246 C 1644.15 -2.98521 -0.361386 0
M  V30 16247 C 1645.7 -3.09873 -0.441334 0
M  V30 16248 C 1646.18 -4.56168 -0.409239 0
M  V30 16249 N 1647.67 -4.60817 -0.469216 0
M  V30 16250 C 1648.4 -5.71498 -0.466648 0
M  V30 16251 N 1647.9 -6.91534 -0.4187 0
M  V30 16252 N 1649.69 -5.5975 -0.513452 0
M  V30 16253 H 1641.84 -1.95672 0.8262 0
M  V30 16254 H 1644.11 -0.895759 0.310354 0
M  V30 16255 H 1643.81 -3.46951 0.576035 0
M  V30 16256 H 1643.69 -3.58585 -1.17032 0
M  V30 16257 H 1646.07 -2.61414 -1.36918 0
M  V30 16258 H 1646.15 -2.52712 0.396237 0
M  V30 16259 H 1645.8 -5.05285 0.514772 0
M  V30 16260 H 1645.73 -5.11195 -1.26439 0
M  V30 16261 H 1648.22 -3.74438 -0.510387 0
M  V30 16262 H 1648.53 -7.71654 -0.420757 0
M  V30 16263 H 1646.88 -6.93931 -0.385338 0
M  V30 16264 H 1650.07 -4.64874 -0.548626 0
M  V30 16265 H 1650.24 -6.46006 -0.507982 0
M  V30 16266 N 1643.65 0.339955 -1.5389 0
M  V30 16267 C 1644.89 1.08139 -1.71563 0
M  V30 16268 C 1645.23 1.88193 -0.479292 0
M  V30 16269 O 1644.5 1.87317 0.523702 0
M  V30 16270 C 1644.78 2.01963 -2.98132 0
M  V30 16271 C 1644.64 1.25349 -4.31981 0
M  V30 16272 C 1645.96 3.01729 -3.20387 0
M  V30 16273 H 1643.08 0.391744 -0.624264 0
M  V30 16274 H 1645.72 0.359609 -1.86566 0
M  V30 16275 H 1643.87 2.63511 -2.85472 0
M  V30 16276 H 1645.54 0.66388 -4.56498 0
M  V30 16277 H 1643.78 0.555541 -4.30228 0
M  V30 16278 H 1644.45 1.94154 -5.16728 0
M  V30 16279 H 1646.93 2.50297 -3.32401 0
M  V30 16280 H 1645.81 3.64577 -4.10335 0
M  V30 16281 H 1646.07 3.73303 -2.36849 0
M  V30 16282 N 1645.13 1.45684 0.601159 0
M  V30 16283 C 1646.37 1.4974 1.35729 0
M  V30 16284 C 1646.69 0.143072 1.94474 0
M  V30 16285 O 1645.96 -0.82832 1.77527 0
M  V30 16286 H 1644.54 0.551455 0.503892 0
M  V30 16287 H 1647.21 1.81685 0.705443 0
M  V30 16288 H 1646.3 2.23982 2.17344 0
M  V30 16289 N 1646.6 -0.84422 1.33082 0
M  V30 16290 C 1647.55 -1.97504 1.22862 0
M  V30 16291 C 1648.55 -1.68892 0.131141 0
M  V30 16292 O 1649.75 -1.7757 0.294753 0
M  V30 16293 H 1646.13 -0.648263 0.381129 0
M  V30 16294 H 1648.1 -2.03249 2.18478 0
M  V30 16295 C 1646.85 -3.33626 0.979228 0
M  V30 16296 H 1646.17 -3.56178 1.81596 0
M  V30 16297 H 1647.61 -4.13266 0.948007 0
M  V30 16298 C 1646.07 -3.35397 -0.317922 0
M  V30 16299 O 1646.6 -3.7917 -1.32638 0
M  V30 16300 N 1644.8 -2.88562 -0.343577 0
M  V30 16301 H 1644.35 -2.53133 0.477625 0
M  V30 16302 H 1644.31 -2.90129 -1.21131 0
M  V30 16303 N 1648.08 -1.16463 -1.0618 0
M  V30 16304 C 1649.31 -0.971075 -1.82696 0
M  V30 16305 C 1649.72 0.480716 -1.82578 0
M  V30 16306 O 1649.08 1.33366 -1.24579 0
M  V30 16307 C 1649.13 -1.49235 -3.29259 0
M  V30 16308 O 1648.85 -2.88728 -3.29496 0
M  V30 16309 C 1650.35 -1.34197 -4.225 0
M  V30 16310 H 1647.57 -0.34415 -0.576023 0
M  V30 16311 H 1650.12 -1.54517 -1.33958 0
M  V30 16312 H 1648.27 -0.960503 -3.75304 0
M  V30 16313 H 1648.69 -3.12618 -4.21153 0
M  V30 16314 H 1650.16 -1.75499 -5.23358 0
M  V30 16315 H 1650.64 -0.287685 -4.38257 0
M  V30 16316 H 1651.24 -1.86349 -3.82301 0
M  V30 16317 N 1649.56 1.24734 -0.963288 0
M  V30 16318 C 1650.81 1.92971 -0.623688 0
M  V30 16319 C 1651.14 1.7517 0.838393 0
M  V30 16320 O 1650.41 1.10208 1.60264 0
M  V30 16321 C 1650.7 3.46115 -0.99379 0
M  V30 16322 C 1650.55 3.73104 -2.51224 0
M  V30 16323 C 1651.87 4.36956 -0.525128 0
M  V30 16324 H 1648.99 0.700827 -0.228058 0
M  V30 16325 H 1651.63 1.47187 -1.2015 0
M  V30 16326 H 1649.78 3.85242 -0.502108 0
M  V30 16327 H 1651.45 3.43563 -3.07835 0
M  V30 16328 H 1649.69 3.18409 -2.94616 0
M  V30 16329 H 1650.37 4.80237 -2.7217 0
M  V30 16330 H 1652.84 4.0518 -0.947015 0
M  V30 16331 H 1651.72 5.4285 -0.812695 0
M  V30 16332 H 1651.98 4.38347 0.574843 0
M  V30 16333 N 1651.04 0.732878 1.39523 0
M  V30 16334 C 1652.45 0.350145 1.83387 0
M  V30 16335 C 1652.8 -1.11807 1.61225 0
M  V30 16336 O 1651.92 -1.86222 1.10229 0
M  V30 16337 C 1652.52 0.628743 3.32915 0
M  V30 16338 C 1651.08 0.299529 3.75206 0
M  V30 16339 C 1650.23 0.892434 2.62547 0
M  V30 16340 H 1653.18 0.930687 1.28545 0
M  V30 16341 H 1653.2 -0.100206 3.80368 0
M  V30 16342 H 1652.71 1.6974 3.49013 0
M  V30 16343 H 1650.81 -0.763373 3.64696 0
M  V30 16344 H 1650.92 0.780607 4.72698 0
M  V30 16345 H 1649.29 0.319218 2.52692 0
M  V30 16346 H 1650.07 1.9657 2.81452 0
M  V30 16347 N 1652.52 -1.50101 0.480349 0
M  V30 16348 C 1653.76 -2.02374 -0.0714315 0
M  V30 16349 C 1654.09 -1.36166 -1.38885 0
M  V30 16350 O 1653.35 -0.479455 -1.89736 0
M  V30 16351 C 1653.64 -3.56191 -0.293745 0
M  V30 16352 C 1653.31 -4.40927 0.943111 0
M  V30 16353 C 1651.97 -4.63803 1.2822 0
M  V30 16354 C 1654.32 -4.90362 1.7662 0
M  V30 16355 C 1651.65 -5.33359 2.44428 0
M  V30 16356 C 1654 -5.61195 2.91963 0
M  V30 16357 C 1652.67 -5.82323 3.26276 0
M  V30 16358 H 1651.94 -0.740539 -0.0261386 0
M  V30 16359 H 1654.59 -1.80619 0.636313 0
M  V30 16360 H 1652.89 -3.76511 -1.08382 0
M  V30 16361 H 1654.59 -3.9421 -0.734796 0
M  V30 16362 H 1651.18 -4.23347 0.668947 0
M  V30 16363 H 1655.36 -4.72534 1.5174 0
M  V30 16364 H 1650.62 -5.47923 2.71275 0
M  V30 16365 H 1654.79 -5.9848 3.56082 0
M  V30 16366 H 1652.42 -6.35996 4.16428 0
M  V30 16367 N 1653.99 -0.213323 -1.5615 0
M  V30 16368 C 1655.24 0.419767 -1.97693 0
M  V30 16369 C 1655.56 1.60878 -1.10197 0
M  V30 16370 O 1654.83 1.95097 -0.177185 0
M  V30 16371 H 1653.41 0.158075 -0.730083 0
M  V30 16372 H 1656.07 -0.304303 -1.9251 0
M  V30 16373 H 1655.17 0.751645 -3.02914 0
M  V30 16374 N 1655.47 1.57485 0.0601405 0
M  V30 16375 C 1656.44 2.03493 1.05467 0
M  V30 16376 C 1657.44 0.933816 1.30907 0
M  V30 16377 O 1658.63 1.19837 1.26431 0
M  V30 16378 C 1655.76 2.42549 2.39547 0
M  V30 16379 H 1656.95 2.92595 0.657893 0
M  V30 16380 H 1654.5 1.53272 0.306183 0
M  V30 16381 H 1655.24 1.56509 2.84034 0
M  V30 16382 H 1655.02 3.22911 2.22421 0
M  V30 16383 H 1656.51 2.7868 3.1101 0
M  V30 16384 N 1656.95 -0.331789 1.54068 0
M  V30 16385 C 1658.2 -1.06858 1.71539 0
M  V30 16386 C 1658.52 -1.88808 0.487506 0
M  V30 16387 O 1657.79 -1.8945 -0.498539 0
M  V30 16388 H 1656.37 -0.3975 0.632457 0
M  V30 16389 H 1659.03 -0.370216 1.91352 0
M  V30 16390 H 1658.13 -1.73929 2.59143 0
M  V30 16391 N 1658.43 -1.46001 -0.593424 0
M  V30 16392 C 1659.39 -1.55347 -1.68523 0
M  V30 16393 C 1660.39 -0.431599 -1.549 0
M  V30 16394 O 1661.58 -0.695559 -1.59711 0
M  V30 16395 C 1658.71 -1.46355 -3.07885 0
M  V30 16396 H 1659.91 -2.52639 -1.61597 0
M  V30 16397 H 1657.46 -1.33652 -0.810363 0
M  V30 16398 H 1658.19 -0.503024 -3.20375 0
M  V30 16399 H 1657.98 -2.27741 -3.19181 0
M  V30 16400 H 1659.47 -1.55958 -3.87385 0
M  V30 16401 N 1659.91 0.83715 -1.33527 0
M  V30 16402 C 1660.87 1.92865 -1.23837 0
M  V30 16403 C 1661.87 1.60032 -0.157005 0
M  V30 16404 O 1663.06 1.69339 -0.408654 0
M  V30 16405 C 1660.19 3.28568 -0.908617 0
M  V30 16406 H 1661.38 2.02883 -2.20859 0
M  V30 16407 H 1658.94 1.02944 -1.1761 0
M  V30 16408 H 1659.67 3.24246 0.0590328 0
M  V30 16409 H 1659.46 3.53779 -1.69064 0
M  V30 16410 H 1660.95 4.0853 -0.86561 0
M  V30 16411 N 1661.38 1.17024 1.05561 0
M  V30 16412 C 1662.63 0.957742 1.7876 0
M  V30 16413 C 1662.96 -0.512652 1.87311 0
M  V30 16414 O 1662.24 -1.38047 1.37016 0
M  V30 16415 C 1662.52 1.59495 3.22852 0
M  V30 16416 C 1662.37 3.13719 3.22336 0
M  V30 16417 C 1663.69 1.29576 4.20593 0
M  V30 16418 H 1660.81 0.349354 0.648938 0
M  V30 16419 H 1663.45 1.44467 1.23408 0
M  V30 16420 H 1661.6 1.18091 3.70117 0
M  V30 16421 H 1663.28 3.64156 2.83175 0
M  V30 16422 H 1661.52 3.46664 2.60781 0
M  V30 16423 H 1662.19 3.5343 4.24018 0
M  V30 16424 H 1664.67 1.65423 3.81804 0
M  V30 16425 H 1663.54 1.76751 5.19663 0
M  V30 16426 H 1663.8 0.21589 4.41573 0
M  V30 16427 N 1662.86 -1.24221 0.969889 0
M  V30 16428 C 1664.11 -1.91973 0.631725 0
M  V30 16429 C 1664.43 -1.76169 -0.836032 0
M  V30 16430 O 1663.7 -1.13459 -1.597 0
M  V30 16431 H 1662.28 -0.710497 0.230658 0
M  V30 16432 H 1664.94 -1.51069 1.23143 0
M  V30 16433 H 1664.04 -2.99606 0.874223 0
M  V30 16434 N 1664.34 -0.740267 -1.39132 0
M  V30 16435 C 1665.59 -0.289949 -2.00009 0
M  V30 16436 C 1665.91 1.12831 -1.59042 0
M  V30 16437 O 1665.18 1.76926 -0.841076 0
M  V30 16438 H 1663.76 -0.104213 -0.739695 0
M  V30 16439 H 1666.42 -0.951398 -1.70101 0
M  V30 16440 H 1665.52 -0.342509 -3.10215 0
M  V30 16441 N 1665.82 1.49844 -0.488302 0
M  V30 16442 C 1667.07 2.02009 0.0605782 0
M  V30 16443 C 1667.39 1.37114 1.38653 0
M  V30 16444 O 1666.66 0.522182 1.88812 0
M  V30 16445 H 1665.24 0.746569 0.0253773 0
M  V30 16446 H 1667.9 1.84 -0.64265 0
M  V30 16447 H 1667 3.11461 0.199542 0
M  V30 16448 N 1667.3 0.221601 1.56034 0
M  V30 16449 C 1668.54 -0.409277 1.97912 0
M  V30 16450 C 1668.87 -1.60291 1.11049 0
M  V30 16451 O 1668.14 -1.95 0.187529 0
M  V30 16452 H 1666.72 -0.154201 0.730911 0
M  V30 16453 H 1669.38 0.314508 1.92346 0
M  V30 16454 H 1668.47 -0.73557 3.03308 0
M  V30 16455 N 1668.77 -1.57515 -0.0517878 0
M  V30 16456 C 1670.02 -1.87843 -0.745624 0
M  V30 16457 C 1670.34 -0.816318 -1.77091 0
M  V30 16458 O 1669.61 0.152784 -1.95303 0
M  V30 16459 H 1668.19 -0.693194 -0.278372 0
M  V30 16460 H 1670.86 -1.94886 -0.0231267 0
M  V30 16461 H 1669.95 -2.86001 -1.2494 0
M  V30 16462 N 1670.25 0.323614 -1.54242 0
M  V30 16463 C 1671.48 1.08548 -1.76726 0
M  V30 16464 C 1671.9 1.8093 -0.514375 0
M  V30 16465 O 1671.26 1.73255 0.534069 0
M  V30 16466 C 1671.31 2.05928 -2.96017 0
M  V30 16467 O 1670.41 3.13825 -2.67559 0
M  V30 16468 H 1669.75 0.31297 -0.585616 0
M  V30 16469 H 1672.28 0.367925 -2.01265 0
M  V30 16470 H 1672.29 2.48799 -3.23362 0
M  V30 16471 H 1670.97 1.52646 -3.86875 0
M  V30 16472 H 1669.55 2.7563 -2.51163 0
M  V30 16473 N 1671.73 1.46313 0.585673 0
M  V30 16474 C 1672.96 1.55273 1.37496 0
M  V30 16475 C 1673.38 0.193481 1.87102 0
M  V30 16476 O 1672.74 -0.825859 1.61398 0
M  V30 16477 C 1672.79 2.5591 2.54052 0
M  V30 16478 O 1671.89 2.09208 3.55395 0
M  V30 16479 H 1671.23 0.522614 0.409598 0
M  V30 16480 H 1673.76 1.9186 0.710697 0
M  V30 16481 H 1673.77 2.75424 3.01008 0
M  V30 16482 H 1672.45 3.54619 2.17298 0
M  V30 16483 H 1671.02 1.9967 3.14939 0
M  V30 16484 N 1673.21 -0.830057 1.33969 0
M  V30 16485 C 1674.43 -1.62294 1.29133 0
M  V30 16486 C 1674.86 -1.87627 -0.133253 0
M  V30 16487 O 1674.22 -1.44669 -1.09272 0
M  V30 16488 C 1674.27 -2.94508 2.0808 0
M  V30 16489 O 1673.37 -3.86239 1.44544 0
M  V30 16490 H 1672.71 -0.493865 0.443839 0
M  V30 16491 H 1675.24 -1.03202 1.76665 0
M  V30 16492 H 1675.25 -3.44133 2.19173 0
M  V30 16493 H 1673.93 -2.75392 3.1166 0
M  V30 16494 H 1672.5 -3.44743 1.42151 0
M  V30 16495 N 1674.69 -1.17582 -1.04939 0
M  V30 16496 C 1675.91 -0.99097 -1.82194 0
M  V30 16497 C 1676.34 0.455965 -1.8249 0
M  V30 16498 O 1675.7 1.32661 -1.23575 0
M  V30 16499 C 1675.74 -1.53971 -3.26076 0
M  V30 16500 O 1674.85 -0.755172 -4.05427 0
M  V30 16501 H 1674.19 -0.351669 -0.563227 0
M  V30 16502 H 1676.72 -1.56138 -1.3222 0
M  V30 16503 H 1676.73 -1.56307 -3.76872 0
M  V30 16504 H 1675.4 -2.59295 -3.25175 0
M  V30 16505 H 1673.98 -0.803423 -3.64142 0
M  V30 16506 N 1676.17 1.23705 -0.976463 0
M  V30 16507 C 1677.39 1.96595 -0.660697 0
M  V30 16508 C 1677.82 1.71845 0.764916 0
M  V30 16509 O 1677.17 0.987506 1.52046 0
M  V30 16510 C 1677.22 3.47803 -0.95214 0
M  V30 16511 O 1676.33 4.12378 -0.0421126 0
M  V30 16512 H 1675.67 0.615591 -0.248886 0
M  V30 16513 H 1678.2 1.57247 -1.30899 0
M  V30 16514 H 1678.21 3.98236 -0.887238 0
M  V30 16515 H 1676.88 3.65144 -1.99105 0
M  V30 16516 H 1675.46 3.72552 -0.161087 0
M  V30 16517 N 1677.64 0.747635 1.38738 0
M  V30 16518 C 1678.55 0.117879 2.34304 0
M  V30 16519 C 1679.57 -0.707488 1.58967 0
M  V30 16520 O 1680.75 -0.633025 1.91193 0
M  V30 16521 C 1677.81 -0.769223 3.38059 0
M  V30 16522 C 1676.87 0.0698358 4.29243 0
M  V30 16523 C 1676.1 -0.775021 5.28043 0
M  V30 16524 O 1676.33 -2.01328 5.33688 0
M  V30 16525 O 1675.26 -0.196978 6.01578 0
M  V30 16526 H 1679.09 0.906972 2.89841 0
M  V30 16527 H 1676.67 0.508453 1.40482 0
M  V30 16528 H 1678.55 -1.27641 4.01604 0
M  V30 16529 H 1677.23 -1.53691 2.84887 0
M  V30 16530 H 1676.14 0.622836 3.68879 0
M  V30 16531 H 1677.47 0.80004 4.85654 0
M  V30 16532 N 1679.12 -1.49583 0.496242 0
M  V30 16533 C 1680.4 -1.95275 -0.112751 0
M  V30 16534 C 1680.78 -1.43758 -1.54586 0
M  V30 16535 O 1680.13 -0.649285 -2.19081 0
M  V30 16536 C 1680.34 -3.48987 -0.0302774 0
M  V30 16537 C 1681.68 -4.24097 -0.206595 0
M  V30 16538 O 1682.71 -3.56043 -0.105689 0
M  V30 16539 O 1681.57 -5.44936 -0.413172 0
M  V30 16540 H 1678.66 -0.821183 -0.0979145 0
M  V30 16541 H 1681.21 -1.60248 0.558441 0
M  V30 16542 H 1679.98 -3.79104 0.969322 0
M  V30 16543 H 1679.6 -3.90618 -0.741825 0
M  V30 16544 N 1680.6 -0.229873 -1.55915 0
M  V30 16545 C 1681.85 0.400157 -1.98813 0
M  V30 16546 C 1682.18 1.58821 -1.11756 0
M  V30 16547 O 1681.45 1.93692 -0.177094 0
M  V30 16548 C 1681.74 0.826623 -3.50484 0
M  V30 16549 C 1681.59 -0.365647 -4.48311 0
M  V30 16550 C 1682.91 1.6798 -4.06781 0
M  V30 16551 H 1680.03 0.143977 -0.7228 0
M  V30 16552 H 1682.67 -0.327775 -1.87151 0
M  V30 16553 H 1680.82 1.44687 -3.60552 0
M  V30 16554 H 1682.49 -1.00391 -4.50244 0
M  V30 16555 H 1680.73 -1.01168 -4.21838 0
M  V30 16556 H 1681.41 -0.0241816 -5.51995 0
M  V30 16557 H 1683.88 1.15639 -3.99708 0
M  V30 16558 H 1682.76 1.94708 -5.13206 0
M  V30 16559 H 1683.02 2.64594 -3.54179 0
M  V30 16560 N 1682.08 1.5754 0.0434337 0
M  V30 16561 C 1683.02 2.0561 1.04848 0
M  V30 16562 C 1683.99 0.942299 1.36784 0
M  V30 16563 O 1685.18 1.21191 1.47368 0
M  V30 16564 C 1682.32 2.52844 2.3487 0
M  V30 16565 C 1681.43 3.77958 2.09218 0
M  V30 16566 C 1680.57 4.13859 3.33007 0
M  V30 16567 C 1679.61 5.31932 3.02845 0
M  V30 16568 N 1678.74 5.63335 4.19045 0
M  V30 16569 H 1683.58 2.9123 0.631591 0
M  V30 16570 H 1681.12 1.44003 0.300258 0
M  V30 16571 H 1683.08 2.78291 3.10822 0
M  V30 16572 H 1681.71 1.70161 2.74308 0
M  V30 16573 H 1680.76 3.59681 1.23828 0
M  V30 16574 H 1682.07 4.64034 1.82958 0
M  V30 16575 H 1681.23 4.40358 4.17336 0
M  V30 16576 H 1679.97 3.26406 3.62368 0
M  V30 16577 H 1678.97 5.052 2.16916 0
M  V30 16578 H 1680.2 6.21027 2.74777 0
M  V30 16579 H 1678.14 4.7884 4.48384 0
M  V30 16580 H 1678.06 6.4389 3.96158 0
M  V30 16581 H 1679.33 5.94402 5.04289 0
M  V30 16582 N 1683.56 -0.31543 1.54411 0
M  V30 16583 C 1684.97 -0.660254 1.45302 0
M  V30 16584 C 1685.17 -1.91316 0.632493 0
M  V30 16585 O 1684.23 -2.52142 0.134493 0
M  V30 16586 C 1685.54 -0.826685 2.89113 0
M  V30 16587 C 1687.09 -0.923503 2.99066 0
M  V30 16588 C 1687.56 -1.12204 4.44043 0
M  V30 16589 N 1689.05 -1.18859 4.47691 0
M  V30 16590 C 1689.79 -1.36024 5.57032 0
M  V30 16591 N 1689.29 -1.5018 6.76327 0
M  V30 16592 N 1691.08 -1.38797 5.44694 0
M  V30 16593 H 1683.23 0.507961 2.06237 0
M  V30 16594 H 1685.49 0.165515 0.933439 0
M  V30 16595 H 1685.2 0.0228371 3.51693 0
M  V30 16596 H 1685.07 -1.72007 3.35698 0
M  V30 16597 H 1687.46 -1.76352 2.36609 0
M  V30 16598 H 1687.54 -0.00641189 2.55799 0
M  V30 16599 H 1687.18 -0.286844 5.07089 0
M  V30 16600 H 1687.11 -2.05313 4.84927 0
M  V30 16601 H 1689.61 -1.0933 3.61739 0
M  V30 16602 H 1689.92 -1.62992 7.55416 0
M  V30 16603 H 1688.26 -1.47262 6.79219 0
M  V30 16604 H 1691.45 -1.27339 4.50447 0
M  V30 16605 H 1691.63 -1.51832 6.29961 0
M  V30 16606 N 1685.03 -1.46622 -0.577906 0
M  V30 16607 C 1685.98 -1.53964 -1.68164 0
M  V30 16608 C 1686.97 -0.400171 -1.55844 0
M  V30 16609 O 1688.16 -0.648872 -1.64677 0
M  V30 16610 C 1685.29 -1.53743 -3.0695 0
M  V30 16611 C 1684.38 -2.73001 -3.24548 0
M  V30 16612 N 1684.77 -3.97882 -3.12288 0
M  V30 16613 C 1683.06 -2.69326 -3.55499 0
M  V30 16614 C 1683.77 -4.77637 -3.3202 0
M  V30 16615 N 1682.74 -4.09594 -3.57398 0
M  V30 16616 H 1686.54 -2.48311 -1.57222 0
M  V30 16617 H 1684.06 -1.42328 -0.782077 0
M  V30 16618 H 1686.05 -1.57091 -3.86171 0
M  V30 16619 H 1684.71 -0.60476 -3.19018 0
M  V30 16620 H 1685.73 -4.29058 -2.90052 0
M  V30 16621 H 1682.4 -1.85104 -3.74223 0
M  V30 16622 H 1683.79 -5.86577 -3.27684 0
M  V30 16623 N 1686.51 0.822941 -1.34408 0
M  V30 16624 C 1687.74 1.61607 -1.29992 0
M  V30 16625 C 1688.16 1.87695 0.123301 0
M  V30 16626 O 1687.52 1.45247 1.08504 0
M  V30 16627 C 1687.57 2.934 -2.09639 0
M  V30 16628 O 1686.67 3.85467 -1.4659 0
M  V30 16629 H 1686.01 0.491504 -0.446452 0
M  V30 16630 H 1688.54 1.02264 -1.7721 0
M  V30 16631 H 1688.55 3.42966 -2.20994 0
M  V30 16632 H 1687.23 2.73736 -3.13116 0
M  V30 16633 H 1685.81 3.43984 -1.43978 0
M  V30 16634 N 1687.99 1.18137 1.04314 0
M  V30 16635 C 1689.22 1.00062 1.81666 0
M  V30 16636 C 1689.64 -0.446281 1.82729 0
M  V30 16637 O 1689 -1.32004 1.24277 0
M  V30 16638 C 1689.05 1.55698 3.25255 0
M  V30 16639 O 1688.15 0.776662 4.05021 0
M  V30 16640 H 1687.49 0.354651 0.561354 0
M  V30 16641 H 1690.02 1.56837 1.3139 0
M  V30 16642 H 1690.03 1.58303 3.76037 0
M  V30 16643 H 1688.71 2.61016 3.23795 0
M  V30 16644 H 1687.28 0.822723 3.63711 0
M  V30 16645 N 1689.47 -1.23186 0.98301 0
M  V30 16646 C 1690.43 -2.22979 0.530366 0
M  V30 16647 C 1691.43 -1.56211 -0.381421 0
M  V30 16648 O 1692.62 -1.73321 -0.17475 0
M  V30 16649 C 1689.75 -3.40124 -0.229882 0
M  V30 16650 H 1690.95 -2.64539 1.41277 0
M  V30 16651 H 1688.5 -1.36064 0.769172 0
M  V30 16652 H 1689.23 -3.04024 -1.12871 0
M  V30 16653 H 1689.02 -3.89794 0.424653 0
M  V30 16654 H 1690.51 -4.14158 -0.535078 0
M  V30 16655 N 1690.95 -0.754982 -1.38339 0
M  V30 16656 C 1692.17 -0.321355 -2.04895 0
M  V30 16657 C 1692.6 1.04249 -1.56569 0
M  V30 16658 O 1691.95 1.66464 -0.718299 0
M  V30 16659 C 1692 -0.354873 -3.5885 0
M  V30 16660 O 1691.11 0.65063 -4.07235 0
M  V30 16661 H 1690.45 -0.142033 -0.648631 0
M  V30 16662 H 1692.98 -1.02649 -1.76987 0
M  V30 16663 H 1692.99 -0.206243 -4.07478 0
M  V30 16664 H 1691.66 -1.34994 -3.93382 0
M  V30 16665 H 1690.24 0.466498 -3.69971 0
M  V30 16666 N 1692.42 1.49318 -0.504168 0
M  V30 16667 C 1693.67 2.02462 0.0392265 0
M  V30 16668 C 1694 1.38359 1.36701 0
M  V30 16669 O 1693.25 0.509579 1.88949 0
M  V30 16670 C 1693.55 3.56613 0.237041 0
M  V30 16671 C 1693.22 4.3937 -1.01314 0
M  V30 16672 C 1691.88 4.61704 -1.35583 0
M  V30 16673 C 1694.23 4.8749 -1.84399 0
M  V30 16674 C 1691.56 5.29403 -2.52882 0
M  V30 16675 C 1693.91 5.56479 -3.00854 0
M  V30 16676 C 1692.58 5.77058 -3.35499 0
M  V30 16677 H 1691.85 0.740861 0.014354 0
M  V30 16678 H 1694.49 1.79584 -0.664967 0
M  V30 16679 H 1692.8 3.78188 1.02379 0
M  V30 16680 H 1694.5 3.95329 0.671987 0
M  V30 16681 H 1691.09 4.2223 -0.736213 0
M  V30 16682 H 1695.27 4.7006 -1.59238 0
M  V30 16683 H 1690.53 5.43538 -2.79958 0
M  V30 16684 H 1694.7 5.9274 -3.65558 0
M  V30 16685 H 1692.33 6.29291 -4.26494 0
M  V30 16686 N 1693.9 0.238138 1.5579 0
M  V30 16687 C 1694.81 -0.676049 2.24648 0
M  V30 16688 C 1695.83 -1.20038 1.25964 0
M  V30 16689 O 1697 -1.2385 1.58818 0
M  V30 16690 C 1694.07 -1.86014 2.92574 0
M  V30 16691 C 1693.13 -1.37615 4.06646 0
M  V30 16692 C 1692.36 -2.5038 4.71323 0
M  V30 16693 O 1692.59 -3.68906 4.35045 0
M  V30 16694 O 1691.52 -2.20636 5.60003 0
M  V30 16695 H 1695.35 -0.119372 3.03465 0
M  V30 16696 H 1692.93 0.00699789 1.49398 0
M  V30 16697 H 1694.81 -2.55132 3.35389 0
M  V30 16698 H 1693.49 -2.4046 2.16704 0
M  V30 16699 H 1692.4 -0.652503 3.68366 0
M  V30 16700 H 1693.73 -0.877871 4.84308 0
M  V30 16701 N 1695.38 -1.57561 -0.0350783 0
M  V30 16702 C 1696.33 -2.07246 -1.05602 0
M  V30 16703 C 1697.32 -0.985013 -1.37818 0
M  V30 16704 O 1698.53 -1.16993 -1.36794 0
M  V30 16705 H 1694.9 -0.661286 -0.358057 0
M  V30 16706 H 1696.87 -2.92075 -0.611124 0
M  V30 16707 C 1695.62 -2.56235 -2.3503 0
M  V30 16708 H 1694.95 -3.39525 -2.111 0
M  V30 16709 H 1696.39 -2.94716 -3.04826 0
M  V30 16710 C 1694.85 -1.46096 -3.03575 0
M  V30 16711 O 1695.38 -0.823772 -3.93163 0
M  V30 16712 N 1693.58 -1.19698 -2.64803 0
M  V30 16713 H 1693.13 -1.71697 -1.92036 0
M  V30 16714 H 1693.09 -0.462174 -3.10984 0
M  V30 16715 N 1696.86 0.307236 -1.54576 0
M  V30 16716 C 1698.1 1.04476 -1.73818 0
M  V30 16717 C 1698.44 1.87134 -0.519102 0
M  V30 16718 O 1697.71 1.88386 0.483852 0
M  V30 16719 C 1698 1.95594 -3.02349 0
M  V30 16720 C 1697.85 1.16158 -4.34543 0
M  V30 16721 C 1699.17 2.94865 -3.26715 0
M  V30 16722 H 1696.29 0.378415 -0.632433 0
M  V30 16723 H 1698.93 0.319955 -1.87287 0
M  V30 16724 H 1697.08 2.57396 -2.90997 0
M  V30 16725 H 1698.75 0.5669 -4.57803 0
M  V30 16726 H 1696.99 0.464158 -4.3131 0
M  V30 16727 H 1697.66 1.8315 -5.2073 0
M  V30 16728 H 1700.14 2.4319 -3.37636 0
M  V30 16729 H 1699.02 3.55791 -4.17976 0
M  V30 16730 H 1699.28 3.68195 -2.44714 0
M  V30 16731 N 1698.34 1.46926 0.570122 0
M  V30 16732 C 1699.58 1.54099 1.3276 0
M  V30 16733 C 1699.94 0.195237 1.91407 0
M  V30 16734 O 1699.23 -0.797593 1.7421 0
M  V30 16735 C 1699.42 2.58527 2.46776 0
M  V30 16736 C 1699.25 4.03125 1.993 0
M  V30 16737 C 1698.02 4.70712 1.83735 0
M  V30 16738 C 1700.22 4.90541 1.54513 0
M  V30 16739 N 1698.2 5.99877 1.30462 0
M  V30 16740 C 1699.57 6.09631 1.12917 0
M  V30 16741 C 1701.63 4.77089 1.42446 0
M  V30 16742 C 1700.33 7.16755 0.604555 0
M  V30 16743 C 1702.36 5.84297 0.913863 0
M  V30 16744 C 1701.72 7.02568 0.507763 0
M  V30 16745 H 1697.82 0.618661 0.478312 0
M  V30 16746 H 1700.4 1.8361 0.647733 0
M  V30 16747 H 1698.57 2.30906 3.12309 0
M  V30 16748 H 1700.31 2.55619 3.13753 0
M  V30 16749 H 1697.06 4.26421 2.06062 0
M  V30 16750 H 1697.49 6.68658 1.05951 0
M  V30 16751 H 1702.13 3.86029 1.72458 0
M  V30 16752 H 1699.85 8.07572 0.29204 0
M  V30 16753 H 1703.43 5.75932 0.824229 0
M  V30 16754 H 1702.31 7.8411 0.118778 0
M  V30 16755 N 1699.82 -0.815801 1.34842 0
M  V30 16756 C 1700.75 -1.94193 1.29659 0
M  V30 16757 C 1701.73 -1.69221 0.172703 0
M  V30 16758 O 1702.91 -1.90716 0.366203 0
M  V30 16759 C 1700.04 -3.30777 1.0585 0
M  V30 16760 C 1699 -3.70207 2.1478 0
M  V30 16761 C 1698.32 -5.04852 1.76149 0
M  V30 16762 C 1699.62 -3.81553 3.56671 0
M  V30 16763 H 1701.32 -1.98787 2.23884 0
M  V30 16764 H 1698.86 -0.955013 1.07775 0
M  V30 16765 H 1700.81 -4.0915 1.00866 0
M  V30 16766 H 1699.54 -3.265 0.0806804 0
M  V30 16767 H 1698.2 -2.94113 2.18845 0
M  V30 16768 H 1697.85 -4.9707 0.770099 0
M  V30 16769 H 1697.55 -5.32205 2.49062 0
M  V30 16770 H 1699.07 -5.85676 1.72674 0
M  V30 16771 H 1700.48 -4.50181 3.54979 0
M  V30 16772 H 1698.88 -4.20367 4.28266 0
M  V30 16773 H 1699.95 -2.83356 3.93494 0
M  V30 16774 N 1701.29 -1.18689 -1.03686 0
M  V30 16775 C 1702.71 -0.937386 -1.29171 0
M  V30 16776 C 1702.91 0.394863 -1.97593 0
M  V30 16777 O 1701.97 1.12829 -2.25889 0
M  V30 16778 C 1703.28 -2.10568 -2.14666 0
M  V30 16779 C 1704.83 -2.14441 -2.28 0
M  V30 16780 C 1705.3 -3.30699 -3.16863 0
M  V30 16781 N 1706.79 -3.30584 -3.24451 0
M  V30 16782 C 1707.53 -4.17184 -3.93376 0
M  V30 16783 N 1707.02 -5.13924 -4.646 0
M  V30 16784 N 1708.82 -4.05086 -3.89694 0
M  V30 16785 H 1700.97 -2.04417 -0.576836 0
M  V30 16786 H 1703.23 -0.893404 -0.31707 0
M  V30 16787 H 1702.94 -3.06938 -1.71702 0
M  V30 16788 H 1702.81 -2.06955 -3.15356 0
M  V30 16789 H 1705.2 -1.18647 -2.70198 0
M  V30 16790 H 1705.28 -2.22111 -1.26888 0
M  V30 16791 H 1704.92 -4.26768 -2.75375 0
M  V30 16792 H 1704.85 -3.20266 -4.18016 0
M  V30 16793 H 1707.34 -2.60552 -2.73717 0
M  V30 16794 H 1707.66 -5.76368 -5.14801 0
M  V30 16795 H 1706 -5.1788 -4.63492 0
M  V30 16796 H 1709.19 -3.28793 -3.33186 0
M  V30 16797 H 1709.37 -4.72792 -4.43139 0
M  V30 16798 N 1702.77 1.22662 -0.989529 0
M  V30 16799 C 1704.18 1.73116 -0.699124 0
M  V30 16800 C 1704.53 1.79847 0.784197 0
M  V30 16801 O 1703.66 1.44248 1.61311 0
M  V30 16802 C 1704.25 3.14403 -1.2624 0
M  V30 16803 C 1702.81 3.62275 -1.02144 0
M  V30 16804 C 1701.96 2.40257 -1.38463 0
M  V30 16805 H 1704.91 1.08057 -1.1623 0
M  V30 16806 H 1704.93 3.75091 -0.639307 0
M  V30 16807 H 1704.44 3.09472 -2.34198 0
M  V30 16808 H 1702.54 3.72577 0.0416622 0
M  V30 16809 H 1702.66 4.48587 -1.68245 0
M  V30 16810 H 1701.02 2.41705 -0.803179 0
M  V30 16811 H 1701.8 2.3799 -2.47418 0
M  V30 16812 N 1704.25 0.762308 1.37937 0
M  V30 16813 C 1705.5 0.321732 1.99523 0
M  V30 16814 C 1705.82 -1.10286 1.60816 0
M  V30 16815 O 1705.09 -1.75565 0.869117 0
M  V30 16816 H 1703.67 0.115967 0.737943 0
M  V30 16817 H 1706.33 0.978339 1.68566 0
M  V30 16818 H 1705.43 0.391818 3.09631 0
M  V30 16819 N 1705.73 -1.49049 0.51208 0
M  V30 16820 C 1706.64 -2.33102 -0.264695 0
M  V30 16821 C 1707.65 -1.45347 -0.956571 0
M  V30 16822 O 1708.83 -1.78355 -0.935501 0
M  V30 16823 C 1705.89 -3.21051 -1.30871 0
M  V30 16824 C 1704.96 -4.24666 -0.629094 0
M  V30 16825 C 1704.19 -5.08412 -1.62337 0
M  V30 16826 O 1704.41 -4.93847 -2.85432 0
M  V30 16827 O 1703.35 -5.90368 -1.17259 0
M  V30 16828 H 1707.17 -3.00732 0.423585 0
M  V30 16829 H 1704.76 -1.4688 0.273246 0
M  V30 16830 H 1706.64 -3.75503 -1.91248 0
M  V30 16831 H 1705.31 -2.56103 -1.97972 0
M  V30 16832 H 1704.22 -3.74097 0.0147056 0
M  V30 16833 H 1705.55 -4.922 -0.000339859 0
M  V30 16834 N 1707.21 -0.246397 -1.55662 0
M  V30 16835 C 1708.14 0.647563 -2.24341 0
M  V30 16836 C 1709.12 1.1817 -1.22352 0
M  V30 16837 O 1710.3 1.22114 -1.51003 0
M  V30 16838 C 1707.43 1.84485 -2.94249 0
M  V30 16839 C 1706.39 1.4435 -4.02923 0
M  V30 16840 C 1705.71 2.72158 -4.60255 0
M  V30 16841 C 1707.01 0.614951 -5.18667 0
M  V30 16842 H 1708.71 0.0748803 -2.99306 0
M  V30 16843 H 1706.25 0.034575 -1.43958 0
M  V30 16844 H 1708.2 2.47588 -3.40995 0
M  V30 16845 H 1706.93 2.4429 -2.16772 0
M  V30 16846 H 1705.59 0.835811 -3.56945 0
M  V30 16847 H 1705.24 3.3016 -3.79478 0
M  V30 16848 H 1704.94 2.46028 -5.33614 0
M  V30 16849 H 1706.46 3.36161 -5.09734 0
M  V30 16850 H 1707.87 1.15028 -5.61642 0
M  V30 16851 H 1706.27 0.449729 -5.98412 0
M  V30 16852 H 1707.34 -0.372943 -4.83464 0
M  V30 16853 N 1708.68 1.57577 0.026722 0
M  V30 16854 C 1709.93 1.89005 0.715645 0
M  V30 16855 C 1710.25 0.844388 1.7577 0
M  V30 16856 O 1709.52 -0.121693 1.95522 0
M  V30 16857 H 1708.1 0.697535 0.267308 0
M  V30 16858 H 1710.76 1.94898 -0.00788096 0
M  V30 16859 H 1709.86 2.87952 1.20374 0
M  V30 16860 N 1710.16 -0.299034 1.54737 0
M  V30 16861 C 1711.41 -1.03195 1.73767 0
M  V30 16862 C 1711.73 -1.87731 0.527445 0
M  V30 16863 O 1711 -1.90465 -0.458242 0
M  V30 16864 H 1709.58 -0.383996 0.640747 0
M  V30 16865 H 1712.24 -0.329544 1.92094 0
M  V30 16866 H 1711.34 -1.68393 2.62774 0
M  V30 16867 N 1711.64 -1.47227 -0.562322 0
M  V30 16868 C 1712.6 -1.58887 -1.6519 0
M  V30 16869 C 1713.6 -0.464359 -1.53949 0
M  V30 16870 O 1714.79 -0.729279 -1.582 0
M  V30 16871 C 1711.92 -1.52853 -3.04711 0
M  V30 16872 H 1713.12 -2.5601 -1.56202 0
M  V30 16873 H 1710.67 -1.35341 -0.781832 0
M  V30 16874 H 1711.41 -0.570867 -3.19236 0
M  V30 16875 H 1711.19 -2.3446 -3.14279 0
M  V30 16876 H 1712.68 -1.6414 -3.83989 0
M  V30 16877 N 1713.12 0.808639 -1.35273 0
M  V30 16878 C 1714.53 1.38248 -1.25477 0
M  V30 16879 C 1714.88 1.9587 0.113715 0
M  V30 16880 O 1714 1.91141 1.0146 0
M  V30 16881 C 1714.6 2.5133 -2.27197 0
M  V30 16882 C 1713.16 3.04582 -2.21148 0
M  V30 16883 C 1712.31 1.77534 -2.13019 0
M  V30 16884 H 1715.26 0.611844 -1.46431 0
M  V30 16885 H 1715.28 3.29825 -1.89726 0
M  V30 16886 H 1714.79 2.09362 -3.26786 0
M  V30 16887 H 1712.89 3.5102 -1.24963 0
M  V30 16888 H 1713 3.62703 -3.13023 0
M  V30 16889 H 1711.37 1.99004 -1.58964 0
M  V30 16890 H 1712.15 1.3772 -3.14465 0
M  V30 16891 N 1714.6 1.19237 1.03055 0
M  V30 16892 C 1715.54 0.928588 2.11296 0
M  V30 16893 C 1716.51 -0.135941 1.65543 0
M  V30 16894 O 1717.7 0.00584847 1.90799 0
M  V30 16895 C 1714.84 0.471532 3.41863 0
M  V30 16896 C 1713.95 1.60264 4.01173 0
M  V30 16897 C 1713.09 1.09729 5.19743 0
M  V30 16898 C 1712.13 2.2024 5.71105 0
M  V30 16899 N 1711.26 1.71024 6.80952 0
M  V30 16900 H 1716.1 1.85536 2.33196 0
M  V30 16901 H 1713.64 0.925029 1.14375 0
M  V30 16902 H 1715.6 0.187949 4.16776 0
M  V30 16903 H 1714.23 -0.41825 3.20079 0
M  V30 16904 H 1713.28 2.00147 3.23489 0
M  V30 16905 H 1714.59 2.43531 4.35309 0
M  V30 16906 H 1713.75 0.768832 6.01809 0
M  V30 16907 H 1712.48 0.234324 4.87137 0
M  V30 16908 H 1711.49 2.53918 4.87653 0
M  V30 16909 H 1712.71 3.06989 6.05751 0
M  V30 16910 H 1710.66 0.870334 6.50201 0
M  V30 16911 H 1710.58 2.47882 7.14206 0
M  V30 16912 H 1711.85 1.41137 7.66616 0
M  V30 16913 N 1716.07 -1.22136 0.99602 0
M  V30 16914 C 1716.98 -2.27869 0.557927 0
M  V30 16915 C 1718 -1.69462 -0.394781 0
M  V30 16916 O 1719.18 -1.99704 -0.26084 0
M  V30 16917 C 1716.24 -3.46501 -0.117434 0
M  V30 16918 C 1715.3 -4.20213 0.878627 0
M  V30 16919 C 1714.54 -5.33181 0.2354 0
M  V30 16920 O 1714.76 -5.62093 -0.969954 0
M  V30 16921 O 1713.69 -5.94486 0.941828 0
M  V30 16922 H 1717.52 -2.67517 1.43765 0
M  V30 16923 H 1715.1 -1.28362 0.764428 0
M  V30 16924 H 1716.99 -4.18476 -0.49559 0
M  V30 16925 H 1715.66 -3.08772 -0.971674 0
M  V30 16926 H 1714.57 -3.50497 1.30777 0
M  V30 16927 H 1715.9 -4.6183 1.70217 0
M  V30 16928 N 1717.55 -0.769612 -1.37531 0
M  V30 16929 C 1718.96 -0.398644 -1.82394 0
M  V30 16930 C 1719.31 1.07493 -1.64133 0
M  V30 16931 O 1718.44 1.83234 -1.15127 0
M  V30 16932 C 1719.03 -0.716789 -3.31131 0
M  V30 16933 C 1717.59 -0.398903 -3.7428 0
M  V30 16934 C 1716.74 -0.96173 -2.60089 0
M  V30 16935 H 1719.69 -0.964441 -1.26033 0
M  V30 16936 H 1719.71 -0.00067688 -3.805 0
M  V30 16937 H 1719.22 -1.78933 -3.4439 0
M  V30 16938 H 1717.33 0.666412 -3.66592 0
M  V30 16939 H 1717.44 -0.90566 -4.70462 0
M  V30 16940 H 1715.8 -0.386103 -2.51757 0
M  V30 16941 H 1716.59 -2.03963 -2.76141 0
M  V30 16942 N 1719.03 1.48775 -0.519977 0
M  V30 16943 C 1719.99 2.27967 0.237405 0
M  V30 16944 C 1720.99 1.34787 0.876868 0
M  V30 16945 O 1722.18 1.57773 0.738463 0
M  V30 16946 C 1719.32 3.13353 1.34248 0
M  V30 16947 H 1720.51 2.96386 -0.457753 0
M  V30 16948 H 1718.06 1.53852 -0.275569 0
M  V30 16949 H 1718.8 2.49543 2.0712 0
M  V30 16950 H 1718.58 3.81885 0.889187 0
M  V30 16951 H 1720.07 3.73116 1.87547 0
M  V30 16952 N 1720.51 0.254649 1.55529 0
M  V30 16953 C 1721.46 -0.64162 2.21702 0
M  V30 16954 C 1722.43 -1.16544 1.1835 0
M  V30 16955 O 1723.61 -1.2185 1.46824 0
M  V30 16956 C 1720.75 -1.82935 2.92624 0
M  V30 16957 C 1719.86 -1.34132 4.10649 0
M  V30 16958 C 1719 -2.48922 4.69267 0
M  V30 16959 C 1718.04 -1.9702 5.79525 0
M  V30 16960 N 1717.17 -3.05206 6.32293 0
M  V30 16961 H 1722.01 -0.0706476 2.97916 0
M  V30 16962 H 1719.55 -0.0231077 1.47082 0
M  V30 16963 H 1721.51 -2.52719 3.31947 0
M  V30 16964 H 1720.14 -2.37267 2.1887 0
M  V30 16965 H 1719.19 -0.53726 3.76587 0
M  V30 16966 H 1720.5 -0.921003 4.90223 0
M  V30 16967 H 1719.66 -3.26735 5.11203 0
M  V30 16968 H 1718.4 -2.94259 3.88925 0
M  V30 16969 H 1717.4 -1.17679 5.37058 0
M  V30 16970 H 1718.63 -1.52643 6.61723 0
M  V30 16971 H 1716.57 -3.49963 5.54853 0
M  V30 16972 H 1716.49 -2.67528 7.07082 0
M  V30 16973 H 1717.76 -3.83055 6.78888 0
M  V30 16974 N 1721.99 -1.57589 -0.0183649 0
M  V30 16975 C 1722.92 -2.1029 -1.01492 0
M  V30 16976 C 1723.9 -1.00782 -1.37029 0
M  V30 16977 O 1725.08 -1.28365 -1.45726 0
M  V30 16978 C 1722.21 -2.59111 -2.31255 0
M  V30 16979 C 1721.17 -3.72979 -2.0993 0
M  V30 16980 C 1720.49 -4.08046 -3.45547 0
M  V30 16981 C 1721.79 -5.00988 -1.47677 0
M  V30 16982 H 1723.49 -2.93804 -0.57618 0
M  V30 16983 H 1721.03 -1.41336 -0.275708 0
M  V30 16984 H 1722.99 -2.94602 -3.0131 0
M  V30 16985 H 1721.71 -1.72694 -2.77208 0
M  V30 16986 H 1720.37 -3.37853 -1.42306 0
M  V30 16987 H 1720.02 -3.1868 -3.89169 0
M  V30 16988 H 1719.72 -4.8475 -3.32101 0
M  V30 16989 H 1721.24 -4.46081 -4.16947 0
M  V30 16990 H 1722.65 -5.34368 -2.07663 0
M  V30 16991 H 1721.05 -5.82375 -1.44774 0
M  V30 16992 H 1722.12 -4.82865 -0.443804 0
M  V30 16993 N 1723.46 0.290824 -1.54893 0
M  V30 16994 C 1724.7 1.0326 -1.76399 0
M  V30 16995 C 1725.07 1.84136 -0.543874 0
M  V30 16996 O 1726.27 2.61147 -0.636854 0
M  V30 16997 C 1724.54 1.90632 -3.02315 0
M  V30 16998 S 1726.1 2.71317 -3.44866 0
M  V30 16999 H 1722.92 0.348084 -0.619966 0
M  V30 17000 H 1725.52 0.304897 -1.93108 0
M  V30 17001 H 1724.22 1.30109 -3.8923 0
M  V30 17002 H 1723.75 2.67753 -2.88222 0
M  V30 17003 H 1725.77 3.93148 -3.02737 0
M  V30 17004 N 1724.94 1.47523 0.554506 0
M  V30 17005 C 1726.19 1.53982 1.30897 0
M  V30 17006 C 1726.51 0.20487 1.93921 0
M  V30 17007 O 1725.78 -0.771422 1.80072 0
M  V30 17008 H 1724.36 0.567206 0.486092 0
M  V30 17009 H 1727.02 1.83838 0.647284 0
M  V30 17010 H 1726.12 2.30783 2.10109 0
M  V30 17011 N 1726.42 -0.801453 1.357 0
M  V30 17012 C 1727.38 -1.89514 1.28907 0
M  V30 17013 C 1728.38 -1.59559 0.19938 0
M  V30 17014 O 1729.57 -1.68196 0.453408 0
M  V30 17015 C 1726.71 -3.26044 0.995411 0
M  V30 17016 H 1727.9 -1.96956 2.2616 0
M  V30 17017 H 1725.45 -0.997899 1.20298 0
M  V30 17018 H 1726.19 -3.24289 0.0269561 0
M  V30 17019 H 1725.97 -3.49172 1.78385 0
M  V30 17020 H 1727.46 -4.06092 0.97362 0
M  V30 17021 N 1727.9 -1.19782 -1.02421 0
M  V30 17022 C 1728.86 -0.941631 -2.08964 0
M  V30 17023 C 1729.86 0.0797747 -1.60602 0
M  V30 17024 O 1731.05 -0.155473 -1.73505 0
M  V30 17025 C 1728.18 -0.416114 -3.38351 0
M  V30 17026 H 1729.38 -1.88661 -2.33125 0
M  V30 17027 H 1726.93 -1.01212 -1.19104 0
M  V30 17028 H 1727.66 0.53469 -3.19862 0
M  V30 17029 H 1727.45 -1.15262 -3.74776 0
M  V30 17030 H 1728.94 -0.256114 -4.16814 0
M  V30 17031 N 1729.38 1.21606 -1.00248 0
M  V30 17032 C 1730.63 1.90231 -0.682401 0
M  V30 17033 C 1730.95 1.78324 0.78903 0
M  V30 17034 O 1730.22 1.17653 1.56635 0
M  V30 17035 H 1728.8 0.704132 -0.249414 0
M  V30 17036 H 1731.46 1.47751 -1.27105 0
M  V30 17037 H 1730.55 2.97183 -0.953351 0
M  V30 17038 N 1730.86 0.776895 1.37121 0
M  V30 17039 C 1732.1 0.342876 1.9917 0
M  V30 17040 C 1732.42 -1.08574 1.61977 0
M  V30 17041 O 1731.69 -1.74634 0.887689 0
M  V30 17042 H 1730.27 0.123788 0.736672 0
M  V30 17043 H 1732.94 0.996163 1.67519 0
M  V30 17044 H 1732.03 0.424637 3.09198 0
M  V30 17045 N 1732.33 -1.48497 0.527859 0
M  V30 17046 C 1733.26 -2.32414 -0.224891 0
M  V30 17047 C 1734.24 -1.41959 -0.93711 0
M  V30 17048 O 1735.43 -1.70847 -0.923302 0
M  V30 17049 C 1732.56 -3.23106 -1.27356 0
M  V30 17050 C 1731.51 -4.2257 -0.679611 0
M  V30 17051 C 1730.84 -5.02381 -1.83077 0
M  V30 17052 C 1732.14 -5.21144 0.347269 0
M  V30 17053 H 1733.83 -2.95598 0.475632 0
M  V30 17054 H 1731.38 -1.42148 0.230182 0
M  V30 17055 H 1733.33 -3.80639 -1.8081 0
M  V30 17056 H 1732.06 -2.57919 -2.00363 0
M  V30 17057 H 1730.72 -3.66221 -0.166608 0
M  V30 17058 H 1730.36 -4.3362 -2.54918 0
M  V30 17059 H 1730.06 -5.697 -1.43929 0
M  V30 17060 H 1731.59 -5.62765 -2.36914 0
M  V30 17061 H 1733 -5.73213 -0.100107 0
M  V30 17062 H 1731.4 -5.96503 0.656021 0
M  V30 17063 H 1732.47 -4.6841 1.25379 0
M  V30 17064 N 1733.81 -0.262893 -1.55392 0
M  V30 17065 C 1734.72 0.640223 -2.25695 0
M  V30 17066 C 1735.74 1.18019 -1.27857 0
M  V30 17067 O 1736.91 1.21308 -1.60768 0
M  V30 17068 C 1733.98 1.81336 -2.95497 0
M  V30 17069 C 1733.04 1.31128 -4.08784 0
M  V30 17070 C 1732.27 2.4285 -4.75247 0
M  V30 17071 O 1732.5 3.61939 -4.40859 0
M  V30 17072 O 1731.43 2.11699 -5.63442 0
M  V30 17073 H 1735.26 0.0710781 -3.03617 0
M  V30 17074 H 1732.84 -0.030765 -1.49368 0
M  V30 17075 H 1734.72 2.49764 -3.39406 0
M  V30 17076 H 1733.4 2.36982 -2.20502 0
M  V30 17077 H 1732.3 0.593816 -3.69357 0
M  V30 17078 H 1733.64 0.800711 -4.85643 0
M  V30 17079 N 1735.29 1.57597 0.0100073 0
M  V30 17080 C 1736.24 2.089 1.02292 0
M  V30 17081 C 1737.23 1.00681 1.36234 0
M  V30 17082 O 1738.44 1.19155 1.34915 0
M  V30 17083 H 1734.81 0.666899 0.347491 0
M  V30 17084 H 1736.78 2.9301 0.56458 0
M  V30 17085 C 1735.53 2.59942 2.30923 0
M  V30 17086 H 1734.86 3.4284 2.05672 0
M  V30 17087 H 1736.3 2.99528 3.00098 0
M  V30 17088 C 1734.75 1.50907 3.01212 0
M  V30 17089 O 1735.28 0.886216 3.91802 0
M  V30 17090 N 1733.49 1.23895 2.62866 0
M  V30 17091 H 1733.04 1.7473 1.89281 0
M  V30 17092 H 1733 0.511591 3.1021 0
M  V30 17093 N 1736.77 -0.282606 1.55045 0
M  V30 17094 C 1738.02 -1.01346 1.74852 0
M  V30 17095 C 1738.34 -1.87161 0.547327 0
M  V30 17096 O 1737.61 -1.9094 -0.438015 0
M  V30 17097 H 1736.19 -0.377178 0.644784 0
M  V30 17098 H 1738.85 -0.309152 1.92432 0
M  V30 17099 H 1737.94 -1.65596 2.64545 0
M  V30 17100 N 1738.25 -1.47815 -0.546675 0
M  V30 17101 C 1739.18 -1.63976 -1.66235 0
M  V30 17102 C 1740.16 -0.488945 -1.62921 0
M  V30 17103 O 1741.34 -0.719532 -1.80378 0
M  V30 17104 C 1738.47 -1.6637 -3.04858 0
M  V30 17105 C 1737.43 -2.80785 -3.23023 0
M  V30 17106 C 1736.75 -2.68257 -4.62539 0
M  V30 17107 C 1738.05 -4.22267 -3.07388 0
M  V30 17108 H 1739.75 -2.57375 -1.52965 0
M  V30 17109 H 1737.29 -1.23861 -0.734465 0
M  V30 17110 H 1739.24 -1.76266 -3.82764 0
M  V30 17111 H 1737.97 -0.695386 -3.19111 0
M  V30 17112 H 1736.63 -2.70417 -2.47529 0
M  V30 17113 H 1736.28 -1.69431 -4.73606 0
M  V30 17114 H 1735.98 -3.45022 -4.75641 0
M  V30 17115 H 1737.5 -2.80097 -5.42566 0
M  V30 17116 H 1738.91 -4.33557 -3.75102 0
M  V30 17117 H 1737.31 -4.999 -3.31994 0
M  V30 17118 H 1738.38 -4.39897 -2.04006 0
M  V30 17119 N 1739.72 0.794246 -1.36123 0
M  V30 17120 C 1740.67 1.92808 -1.30108 0
M  V30 17121 C 1741.67 1.68289 -0.193734 0
M  V30 17122 O 1742.87 1.76354 -0.360454 0
M  V30 17123 H 1739.25 0.633671 -0.404926 0
M  V30 17124 H 1741.22 1.95 -2.2587 0
M  V30 17125 C 1739.97 3.29762 -1.10238 0
M  V30 17126 H 1739.29 3.49193 -1.9469 0
M  V30 17127 H 1740.73 4.09463 -1.10073 0
M  V30 17128 C 1739.19 3.36345 0.193222 0
M  V30 17129 O 1739.72 3.83832 1.18474 0
M  V30 17130 N 1737.92 2.89638 0.236243 0
M  V30 17131 H 1737.47 2.51186 -0.571245 0
M  V30 17132 H 1737.43 2.94424 1.1028 0
M  V30 17133 N 1741.2 1.20323 1.01785 0
M  V30 17134 C 1742.43 1.03671 1.78706 0
M  V30 17135 C 1742.84 -0.417188 1.84543 0
M  V30 17136 O 1742.18 -1.30146 1.29645 0
M  V30 17137 C 1742.24 1.54318 3.24694 0
M  V30 17138 C 1741.91 3.02598 3.42466 0
M  V30 17139 C 1742.91 4.00267 3.31787 0
M  V30 17140 C 1740.59 3.41531 3.68323 0
M  V30 17141 C 1742.58 5.34858 3.46707 0
M  V30 17142 C 1740.27 4.76278 3.82887 0
M  V30 17143 C 1741.27 5.7275 3.72083 0
M  V30 17144 O 1740.96 7.05055 3.86203 0
M  V30 17145 H 1740.69 0.365174 0.56888 0
M  V30 17146 H 1743.24 1.59826 1.29014 0
M  V30 17147 H 1741.47 0.925474 3.75462 0
M  V30 17148 H 1743.16 1.33705 3.83246 0
M  V30 17149 H 1743.93 3.71534 3.11749 0
M  V30 17150 H 1739.81 2.66983 3.75821 0
M  V30 17151 H 1743.35 6.10142 3.3819 0
M  V30 17152 H 1739.25 5.04702 4.02425 0
M  V30 17153 H 1740.02 7.12284 4.03228 0
M  V30 17154 N 1742.68 -1.21073 1.00892 0
M  V30 17155 C 1743.93 -1.89559 0.689214 0
M  V30 17156 C 1744.24 -1.79211 -0.783753 0
M  V30 17157 O 1745.45 -2.42761 -1.2157 0
M  V30 17158 C 1743.9 -3.39925 1.18232 0
M  V30 17159 C 1743.51 -3.58876 2.68164 0
M  V30 17160 C 1745.26 -4.14014 0.937683 0
M  V30 17161 C 1743.16 -5.03027 3.10995 0
M  V30 17162 H 1742.09 -0.709895 0.254098 0
M  V30 17163 H 1744.74 -1.37017 1.2206 0
M  V30 17164 H 1743.13 -3.91745 0.578961 0
M  V30 17165 H 1744.3 -3.17478 3.33983 0
M  V30 17166 H 1742.61 -2.98146 2.90685 0
M  V30 17167 H 1745.21 -5.20285 1.23319 0
M  V30 17168 H 1745.55 -4.16109 -0.126003 0
M  V30 17169 H 1746.09 -3.68271 1.50403 0
M  V30 17170 H 1742.83 -5.06082 4.16607 0
M  V30 17171 H 1742.35 -5.45266 2.49891 0
M  V30 17172 H 1744.03 -5.7156 3.03197 0
M  V30 17173 N 1744.16 -0.784156 -1.36707 0
M  V30 17174 C 1745.44 -0.278338 -1.93609 0
M  V30 17175 C 1745.82 1.22865 -1.71661 0
M  V30 17176 O 1745.16 2.01765 -1.07252 0
M  V30 17177 C 1745.37 -0.665232 -3.42601 0
M  V30 17178 C 1746.72 -0.642005 -4.19718 0
M  V30 17179 O 1747.75 -0.605381 -3.51018 0
M  V30 17180 O 1746.6 -0.680178 -5.42251 0
M  V30 17181 H 1743.7 -0.0675603 -0.824236 0
M  V30 17182 H 1746.24 -0.866345 -1.4592 0
M  V30 17183 H 1745.02 -1.70478 -3.52211 0
M  V30 17184 H 1744.64 -0.0508295 -3.97568 0
M  V30 17185 N 1745.64 1.48215 -0.535727 0
M  V30 17186 C 1746.57 2.3253 0.212562 0
M  V30 17187 C 1747.55 1.42454 0.929568 0
M  V30 17188 O 1748.73 1.71334 0.914228 0
M  V30 17189 C 1745.86 3.23777 1.25641 0
M  V30 17190 C 1744.82 4.22924 0.657191 0
M  V30 17191 C 1744.14 5.03345 1.80411 0
M  V30 17192 C 1745.44 5.20953 -0.374902 0
M  V30 17193 H 1747.14 2.95341 -0.491301 0
M  V30 17194 H 1744.68 1.42024 -0.237718 0
M  V30 17195 H 1746.64 3.81592 1.78789 0
M  V30 17196 H 1745.36 2.58978 1.98993 0
M  V30 17197 H 1744.02 3.66304 0.147184 0
M  V30 17198 H 1743.67 4.34965 2.52615 0
M  V30 17199 H 1743.37 5.70455 1.40906 0
M  V30 17200 H 1744.89 5.64013 2.33926 0
M  V30 17201 H 1746.3 5.73258 0.0697072 0
M  V30 17202 H 1744.7 5.96147 -0.687646 0
M  V30 17203 H 1745.77 4.67739 -1.27861 0
M  V30 17204 N 1747.11 0.27113 1.5525 0
M  V30 17205 C 1748.39 -0.398374 1.915 0
M  V30 17206 C 1748.77 -1.74026 1.19491 0
M  V30 17207 O 1748.12 -2.26242 0.320425 0
M  V30 17208 C 1748.33 -0.542589 3.44756 0
M  V30 17209 C 1749.68 -0.827326 4.16462 0
M  V30 17210 O 1750.7 -0.627548 3.50628 0
M  V30 17211 O 1749.56 -1.20917 5.32955 0
M  V30 17212 H 1746.65 -0.217479 0.797892 0
M  V30 17213 H 1749.2 0.316988 1.66713 0
M  V30 17214 H 1747.97 0.401926 3.8923 0
M  V30 17215 H 1747.6 -1.30757 3.75484 0
M  V30 17216 N 1748.59 -1.576 -0.00164943 0
M  V30 17217 C 1749.52 -2.11354 -0.992554 0
M  V30 17218 C 1750.5 -1.0223 -1.35952 0
M  V30 17219 O 1751.69 -1.29904 -1.44356 0
M  V30 17220 C 1748.82 -2.61549 -2.28494 0
M  V30 17221 C 1747.77 -3.75185 -2.05962 0
M  V30 17222 C 1747.1 -4.11688 -3.412 0
M  V30 17223 C 1748.4 -5.02526 -1.42355 0
M  V30 17224 H 1750.09 -2.94398 -0.544986 0
M  V30 17225 H 1747.64 -1.4162 -0.260702 0
M  V30 17226 H 1749.59 -2.97782 -2.98168 0
M  V30 17227 H 1748.32 -1.75625 -2.75361 0
M  V30 17228 H 1746.97 -3.39343 -1.38714 0
M  V30 17229 H 1746.62 -3.22789 -3.85767 0
M  V30 17230 H 1746.32 -4.88246 -3.2694 0
M  V30 17231 H 1747.85 -4.50478 -4.12192 0
M  V30 17232 H 1749.26 -5.3654 -2.01984 0
M  V30 17233 H 1747.66 -5.83878 -1.38589 0
M  V30 17234 H 1748.73 -4.83308 -0.392565 0
M  V30 17235 N 1750.07 0.274379 -1.55193 0
M  V30 17236 C 1751.32 1.00766 -1.75995 0
M  V30 17237 C 1751.65 1.8599 -0.558679 0
M  V30 17238 O 1750.92 1.8937 0.443784 0
M  V30 17239 C 1751.21 1.89137 -3.0643 0
M  V30 17240 C 1751.06 1.06914 -4.36909 0
M  V30 17241 C 1752.38 2.87869 -3.32896 0
M  V30 17242 H 1749.5 0.364915 -0.640317 0
M  V30 17243 H 1752.14 0.280156 -1.87923 0
M  V30 17244 H 1750.29 2.51166 -2.96391 0
M  V30 17245 H 1751.96 0.469666 -4.58903 0
M  V30 17246 H 1750.21 0.372566 -4.32197 0
M  V30 17247 H 1750.88 1.72063 -5.24498 0
M  V30 17248 H 1753.35 2.35974 -3.42718 0
M  V30 17249 H 1752.23 3.46845 -4.25429 0
M  V30 17250 H 1752.49 3.62921 -2.52469 0
M  V30 17251 N 1751.55 1.48103 0.538828 0
M  V30 17252 C 1752.5 1.61966 1.64425 0
M  V30 17253 C 1753.47 0.461999 1.59546 0
M  V30 17254 O 1754.65 0.684377 1.78104 0
M  V30 17255 C 1751.79 1.65711 3.02711 0
M  V30 17256 C 1750.9 2.92522 3.17891 0
M  V30 17257 C 1750.04 2.87485 4.46683 0
M  V30 17258 C 1749.08 4.0904 4.5536 0
M  V30 17259 N 1748.21 4.02131 5.7553 0
M  V30 17260 H 1753.05 2.5637 1.51916 0
M  V30 17261 H 1750.59 1.27146 0.739745 0
M  V30 17262 H 1752.55 1.65864 3.82812 0
M  V30 17263 H 1751.18 0.748045 3.14013 0
M  V30 17264 H 1750.23 3.02154 2.311 0
M  V30 17265 H 1751.54 3.82487 3.20165 0
M  V30 17266 H 1750.7 2.8599 5.35065 0
M  V30 17267 H 1749.44 1.95234 4.46917 0
M  V30 17268 H 1748.44 4.10819 3.65387 0
M  V30 17269 H 1749.67 5.02439 4.56872 0
M  V30 17270 H 1747.61 3.12695 5.76678 0
M  V30 17271 H 1747.53 4.85791 5.7926 0
M  V30 17272 H 1748.8 4.04682 6.66223 0
M  V30 17273 N 1753.03 -0.787016 1.36542 0
M  V30 17274 C 1754.3 -1.53325 1.21452 0
M  V30 17275 C 1754.68 -2.10166 -0.198313 0
M  V30 17276 O 1754.03 -1.94192 -1.20422 0
M  V30 17277 C 1754.24 -2.62629 2.29841 0
M  V30 17278 C 1755.59 -3.30446 2.66628 0
M  V30 17279 O 1756.61 -2.72914 2.28903 0
M  V30 17280 O 1755.47 -4.34424 3.31569 0
M  V30 17281 H 1752.57 -0.678361 0.473028 0
M  V30 17282 H 1755.11 -0.825292 1.4828 0
M  V30 17283 H 1753.88 -2.18639 3.24519 0
M  V30 17284 H 1753.51 -3.41042 2.04393 0
M  V30 17285 N 1754.5 -1.20861 -1.01145 0
M  V30 17286 C 1755.75 -1.02191 -1.74823 0
M  V30 17287 C 1756.08 0.445357 -1.89333 0
M  V30 17288 O 1755.33 1.34684 -1.41982 0
M  V30 17289 C 1755.63 -1.65666 -3.16685 0
M  V30 17290 C 1755.3 -3.15494 -3.2214 0
M  V30 17291 C 1753.96 -3.56381 -3.23336 0
M  V30 17292 C 1756.31 -4.11481 -3.19895 0
M  V30 17293 C 1753.64 -4.91772 -3.19964 0
M  V30 17294 C 1755.99 -5.46826 -3.18064 0
M  V30 17295 C 1754.66 -5.87118 -3.17566 0
M  V30 17296 H 1753.93 -0.373945 -0.639724 0
M  V30 17297 H 1756.57 -1.50361 -1.18592 0
M  V30 17298 H 1754.88 -1.09772 -3.76108 0
M  V30 17299 H 1756.58 -1.4873 -3.72398 0
M  V30 17300 H 1753.17 -2.82926 -3.21948 0
M  V30 17301 H 1757.35 -3.80924 -3.18136 0
M  V30 17302 H 1752.61 -5.22247 -3.17913 0
M  V30 17303 H 1756.78 -6.20945 -3.15279 0
M  V30 17304 H 1754.41 -6.92 -3.14707 0
M  V30 17305 N 1755.98 1.20536 -1.01532 0
M  V30 17306 C 1756.93 2.23277 -0.584486 0
M  V30 17307 C 1757.9 1.6134 0.394773 0
M  V30 17308 O 1759.08 1.88514 0.294498 0
M  V30 17309 C 1756.22 3.45024 0.0723574 0
M  V30 17310 C 1755.34 4.21395 -0.951314 0
M  V30 17311 C 1754.47 5.30535 -0.265656 0
M  V30 17312 C 1753.51 5.98649 -1.27617 0
M  V30 17313 N 1752.65 6.99381 -0.61727 0
M  V30 17314 H 1757.49 2.59489 -1.46524 0
M  V30 17315 H 1755.03 1.27507 -0.733502 0
M  V30 17316 H 1756.98 4.14541 0.470303 0
M  V30 17317 H 1755.61 3.09508 0.916768 0
M  V30 17318 H 1754.67 3.50957 -1.46743 0
M  V30 17319 H 1755.98 4.68211 -1.71989 0
M  V30 17320 H 1755.13 6.06409 0.187857 0
M  V30 17321 H 1753.87 4.84754 0.535237 0
M  V30 17322 H 1752.88 5.21537 -1.74008 0
M  V30 17323 H 1754.1 6.46516 -2.07832 0
M  V30 17324 H 1752.05 6.55796 0.163777 0
M  V30 17325 H 1751.96 7.44317 -1.32393 0
M  V30 17326 H 1753.23 7.79275 -0.187306 0
M  V30 17327 N 1757.46 0.791395 1.36289 0
M  V30 17328 C 1758.39 0.149076 2.28715 0
M  V30 17329 C 1759.41 -0.642827 1.49571 0
M  V30 17330 O 1760.59 -0.477685 1.7199 0
M  V30 17331 C 1757.69 -0.811868 3.29032 0
M  V30 17332 C 1756.87 -0.0695975 4.37345 0
M  V30 17333 C 1755.93 -0.946776 5.17612 0
M  V30 17334 O 1754.95 -0.403295 5.67769 0
M  V30 17335 N 1756.15 -2.27079 5.34243 0
M  V30 17336 H 1758.92 0.943005 2.84478 0
M  V30 17337 H 1756.48 0.645479 1.48476 0
M  V30 17338 H 1758.47 -1.40257 3.79618 0
M  V30 17339 H 1757.04 -1.50667 2.73895 0
M  V30 17340 H 1756.26 0.702196 3.87895 0
M  V30 17341 H 1757.55 0.442542 5.06872 0
M  V30 17342 H 1756.95 -2.73646 4.9511 0
M  V30 17343 H 1755.51 -2.81109 5.88065 0
M  V30 17344 N 1758.94 -1.47929 0.54358 0
M  V30 17345 C 1760.18 -2.04393 0.0166462 0
M  V30 17346 C 1760.54 -1.41025 -1.30291 0
M  V30 17347 O 1761.74 -1.88456 -1.91671 0
M  V30 17348 C 1760.02 -3.5729 -0.0888261 0
M  V30 17349 S 1761.57 -4.35162 -0.563857 0
M  V30 17350 H 1758.39 -0.710757 0.0185863 0
M  V30 17351 H 1760.99 -1.81471 0.727226 0
M  V30 17352 H 1759.7 -4.00938 0.876155 0
M  V30 17353 H 1759.23 -3.84687 -0.823374 0
M  V30 17354 H 1761.24 -4.6138 -1.82601 0
M  V30 17355 N 1760.42 -0.27936 -1.55104 0
M  V30 17356 C 1761.83 0.217569 -1.85428 0
M  V30 17357 C 1762.18 1.55117 -1.20138 0
M  V30 17358 O 1761.3 2.10751 -0.491229 0
M  V30 17359 C 1761.9 0.401547 -3.36412 0
M  V30 17360 C 1760.46 0.842706 -3.66845 0
M  V30 17361 C 1759.61 -0.0615565 -2.77232 0
M  V30 17362 H 1762.56 -0.501025 -1.50584 0
M  V30 17363 H 1762.58 1.23946 -3.59747 0
M  V30 17364 H 1762.09 -0.569224 -3.83903 0
M  V30 17365 H 1760.19 1.8248 -3.24857 0
M  V30 17366 H 1760.3 0.677088 -4.74291 0
M  V30 17367 H 1758.67 0.455486 -2.50594 0
M  V30 17368 H 1759.45 -1.02829 -3.27538 0
M  V30 17369 N 1761.9 1.57599 -0.0067085 0
M  V30 17370 C 1762.83 2.05706 1.01084 0
M  V30 17371 C 1763.84 0.976216 1.30284 0
M  V30 17372 O 1765.03 1.25288 1.27142 0
M  V30 17373 C 1762.13 2.44771 2.34393 0
M  V30 17374 C 1761.3 3.75668 2.24036 0
M  V30 17375 C 1760.36 4.01528 3.4009 0
M  V30 17376 O 1759.39 4.72101 3.17977 0
M  V30 17377 N 1760.59 3.49947 4.6316 0
M  V30 17378 H 1763.35 2.93622 0.600532 0
M  V30 17379 H 1760.92 1.6089 0.180536 0
M  V30 17380 H 1762.91 2.5918 3.10818 0
M  V30 17381 H 1761.48 1.62339 2.67142 0
M  V30 17382 H 1760.7 3.71272 1.3248 0
M  V30 17383 H 1761.99 4.6147 2.14295 0
M  V30 17384 H 1761.38 2.92811 4.84023 0
M  V30 17385 H 1759.94 3.69675 5.36828 0
M  V30 17386 N 1763.37 -0.266145 1.55336 0
M  V30 17387 C 1764.28 -1.35103 1.91793 0
M  V30 17388 C 1765.3 -1.5368 0.815985 0
M  V30 17389 O 1766.48 -1.67675 1.11567 0
M  V30 17390 C 1763.54 -2.68905 2.1884 0
M  V30 17391 C 1762.6 -2.59015 3.42359 0
M  V30 17392 C 1761.83 -3.86437 3.68106 0
M  V30 17393 O 1762.06 -4.87436 2.96247 0
M  V30 17394 O 1760.99 -3.86227 4.61641 0
M  V30 17395 H 1764.82 -1.07181 2.84158 0
M  V30 17396 H 1762.4 -0.465262 1.41971 0
M  V30 17397 H 1764.28 -3.48008 2.3763 0
M  V30 17398 H 1762.96 -2.96599 1.29656 0
M  V30 17399 H 1761.87 -1.78264 3.28896 0
M  V30 17400 H 1763.2 -2.3627 4.31784 0
M  V30 17401 N 1764.85 -1.48386 -0.530967 0
M  V30 17402 C 1766.09 -1.57951 -1.29734 0
M  V30 17403 C 1766.46 -0.247309 -1.90401 0
M  V30 17404 O 1767.66 -0.217934 -2.67915 0
M  V30 17405 C 1765.93 -2.68547 -2.35833 0
M  V30 17406 S 1767.49 -2.9787 -3.2221 0
M  V30 17407 H 1764.3 -0.55746 -0.441315 0
M  V30 17408 H 1766.91 -1.85903 -0.605005 0
M  V30 17409 H 1765.61 -3.63903 -1.89744 0
M  V30 17410 H 1765.14 -2.42493 -3.09775 0
M  V30 17411 H 1767.16 -2.37092 -4.35892 0
M  V30 17412 N 1766.33 0.779763 -1.36958 0
M  V30 17413 C 1767.56 1.56875 -1.34899 0
M  V30 17414 C 1767.97 1.88679 0.0675345 0
M  V30 17415 O 1767.33 1.50852 1.02712 0
M  V30 17416 C 1767.38 2.88391 -2.17975 0
M  V30 17417 O 1767.1 2.57954 -3.54107 0
M  V30 17418 C 1768.6 3.82657 -2.23805 0
M  V30 17419 H 1765.82 0.486262 -0.462374 0
M  V30 17420 H 1768.37 0.967072 -1.80189 0
M  V30 17421 H 1766.52 3.45003 -1.76215 0
M  V30 17422 H 1766.94 3.42115 -3.97564 0
M  V30 17423 H 1768.41 4.71967 -2.86272 0
M  V30 17424 H 1768.89 4.21208 -1.24421 0
M  V30 17425 H 1769.49 3.31976 -2.65843 0
M  V30 17426 N 1767.81 1.21396 1.00503 0
M  V30 17427 C 1769.22 1.02983 1.55728 0
M  V30 17428 C 1769.57 -0.410383 1.9186 0
M  V30 17429 O 1768.69 -1.29358 1.7348 0
M  V30 17430 C 1769.29 1.86316 2.8297 0
M  V30 17431 C 1767.85 1.72235 3.34682 0
M  V30 17432 C 1767 1.8353 2.07875 0
M  V30 17433 H 1769.95 1.35418 0.827499 0
M  V30 17434 H 1769.97 1.37339 3.5485 0
M  V30 17435 H 1769.48 2.91131 2.56641 0
M  V30 17436 H 1767.58 0.701047 3.65945 0
M  V30 17437 H 1767.69 2.54198 4.06103 0
M  V30 17438 H 1766.06 1.26838 2.20872 0
M  V30 17439 H 1766.84 2.89852 1.83958 0
M  V30 17440 N 1769.29 -1.19996 1.0217 0
M  V30 17441 C 1770.2 -2.26634 0.606136 0
M  V30 17442 C 1771.21 -1.70262 -0.358746 0
M  V30 17443 O 1772.39 -2.00212 -0.218422 0
M  V30 17444 C 1769.45 -3.46672 -0.0439096 0
M  V30 17445 C 1768.51 -4.18254 0.967563 0
M  V30 17446 C 1767.75 -5.32561 0.348443 0
M  V30 17447 O 1767.97 -5.64024 -0.850508 0
M  V30 17448 O 1766.9 -5.92354 1.06772 0
M  V30 17449 H 1770.73 -2.64407 1.49407 0
M  V30 17450 H 1768.31 -1.26712 0.791483 0
M  V30 17451 H 1770.2 -4.19433 -0.406714 0
M  V30 17452 H 1768.87 -3.10764 -0.90596 0
M  V30 17453 H 1767.78 -3.47644 1.38183 0
M  V30 17454 H 1769.11 -4.58116 1.79975 0
M  V30 17455 N 1770.76 -0.798611 -1.35867 0
M  V30 17456 C 1772.17 -0.437243 -1.81508 0
M  V30 17457 C 1772.53 1.03987 -1.66376 0
M  V30 17458 O 1771.65 1.80751 -1.18988 0
M  V30 17459 C 1772.25 -0.786865 -3.29536 0
M  V30 17460 C 1770.8 -0.478204 -3.7335 0
M  V30 17461 C 1769.95 -1.01668 -2.5799 0
M  V30 17462 H 1772.9 -0.990957 -1.23959 0
M  V30 17463 H 1772.92 -0.0813864 -3.80413 0
M  V30 17464 H 1772.44 -1.86198 -3.40517 0
M  V30 17465 H 1770.54 0.588503 -3.67923 0
M  V30 17466 H 1770.65 -1.00525 -4.68435 0
M  V30 17467 H 1769.01 -0.439417 -2.50881 0
M  V30 17468 H 1769.8 -2.09775 -2.71753 0
M  V30 17469 N 1772.24 1.47639 -0.551417 0
M  V30 17470 C 1773.17 2.27972 0.236919 0
M  V30 17471 C 1774.19 1.3666 0.884752 0
M  V30 17472 O 1775.38 1.61532 0.75958 0
M  V30 17473 C 1772.48 3.10738 1.3526 0
M  V30 17474 C 1771.65 4.29972 0.802659 0
M  V30 17475 C 1770.71 4.94379 1.80212 0
M  V30 17476 O 1769.73 5.52946 1.35053 0
M  V30 17477 N 1770.94 4.8855 3.13526 0
M  V30 17478 H 1773.7 2.9627 -0.452154 0
M  V30 17479 H 1771.26 1.57204 -0.387116 0
M  V30 17480 H 1773.25 3.50692 2.01983 0
M  V30 17481 H 1771.82 2.44721 1.945 0
M  V30 17482 H 1771.04 3.94178 -0.0411825 0
M  V30 17483 H 1772.33 5.07109 0.41448 0
M  V30 17484 H 1771.73 4.42157 3.52865 0
M  V30 17485 H 1770.29 5.32541 3.75823 0
M  V30 17486 N 1773.72 0.287581 1.54954 0
M  V30 17487 C 1775.13 -0.207733 1.85541 0
M  V30 17488 C 1775.48 -1.54478 1.20959 0
M  V30 17489 O 1774.61 -2.10487 0.502399 0
M  V30 17490 C 1775.2 -0.383701 3.3662 0
M  V30 17491 C 1773.76 -0.82324 3.67287 0
M  V30 17492 C 1772.91 0.0762579 2.77195 0
M  V30 17493 H 1775.86 0.509004 1.50316 0
M  V30 17494 H 1775.88 -1.22036 3.60399 0
M  V30 17495 H 1775.39 0.589575 3.83596 0
M  V30 17496 H 1773.49 -1.80754 3.2582 0
M  V30 17497 H 1773.61 -0.651925 4.74644 0
M  V30 17498 H 1771.97 -0.44219 2.50832 0
M  V30 17499 H 1772.75 1.04564 3.26988 0
M  V30 17500 N 1775.2 -1.57593 0.0150662 0
M  V30 17501 C 1776.61 -1.79146 -0.525709 0
M  V30 17502 C 1776.96 -0.923985 -1.73081 0
M  V30 17503 O 1776.09 -0.130532 -2.16006 0
M  V30 17504 C 1776.68 -3.249 -0.960492 0
M  V30 17505 C 1775.24 -3.47497 -1.44647 0
M  V30 17506 C 1774.39 -2.74332 -0.404628 0
M  V30 17507 H 1777.34 -1.56857 0.241175 0
M  V30 17508 H 1777.36 -3.3384 -1.82568 0
M  V30 17509 H 1776.87 -3.88011 -0.0832025 0
M  V30 17510 H 1774.97 -2.8962 -2.34416 0
M  V30 17511 H 1775.08 -4.56199 -1.46354 0
M  V30 17512 H 1773.45 -2.39394 -0.869627 0
M  V30 17513 H 1774.23 -3.40151 0.463953 0
M  V30 17514 N 1776.68 0.257904 -1.55475 0
M  V30 17515 C 1778.09 0.82782 -1.67344 0
M  V30 17516 C 1778.44 1.8646 -0.610494 0
M  V30 17517 O 1777.56 2.15005 0.245275 0
M  V30 17518 C 1778.16 1.5083 -3.03374 0
M  V30 17519 C 1776.72 2.02605 -3.17219 0
M  V30 17520 C 1775.86 0.873303 -2.63189 0
M  V30 17521 H 1778.82 0.0339334 -1.58664 0
M  V30 17522 H 1778.84 2.3759 -2.97205 0
M  V30 17523 H 1778.35 0.753469 -3.80716 0
M  V30 17524 H 1776.45 2.81002 -2.4468 0
M  V30 17525 H 1776.56 2.23099 -4.23985 0
M  V30 17526 H 1774.93 1.27082 -2.20731 0
M  V30 17527 H 1775.71 0.131739 -3.43047 0
M  V30 17528 N 1778.15 1.48666 0.52309 0
M  V30 17529 C 1779.57 1.50492 1.10495 0
M  V30 17530 C 1779.92 0.278579 1.94212 0
M  V30 17531 O 1779.04 -0.613679 2.07516 0
M  V30 17532 C 1779.64 2.72692 2.01058 0
M  V30 17533 C 1778.2 2.77368 2.54448 0
M  V30 17534 C 1777.34 2.44104 1.31562 0
M  V30 17535 H 1780.29 1.55682 0.308017 0
M  V30 17536 H 1780.31 2.51601 2.85442 0
M  V30 17537 H 1779.83 3.61931 1.401 0
M  V30 17538 H 1777.93 1.92356 3.19108 0
M  V30 17539 H 1778.04 3.78976 2.93111 0
M  V30 17540 H 1776.4 1.95407 1.63366 0
M  V30 17541 H 1777.19 3.35591 0.723455 0
M  V30 17542 N 1779.63 -0.772489 1.37369 0
M  V30 17543 C 1781.04 -1.34873 1.29098 0
M  V30 17544 C 1781.39 -1.96103 -0.0617433 0
M  V30 17545 O 1780.52 -1.93764 -0.963562 0
M  V30 17546 C 1781.11 -2.45218 2.33781 0
M  V30 17547 C 1779.67 -2.98612 2.29146 0
M  V30 17548 C 1778.82 -1.71823 2.17651 0
M  V30 17549 H 1781.77 -0.572805 1.48002 0
M  V30 17550 H 1781.79 -3.24679 1.98404 0
M  V30 17551 H 1781.3 -2.00624 3.32222 0
M  V30 17552 H 1779.41 -3.47583 1.34225 0
M  V30 17553 H 1779.52 -3.54276 3.22529 0
M  V30 17554 H 1777.88 -1.94719 1.64185 0
M  V30 17555 H 1778.67 -1.29334 3.18006 0
M  V30 17556 N 1781.11 -1.21927 -0.998575 0
M  V30 17557 C 1782.52 -1.03808 -1.5518 0
M  V30 17558 C 1782.87 0.400202 -1.92075 0
M  V30 17559 O 1782 1.28436 -1.74164 0
M  V30 17560 C 1782.59 -1.87814 -2.81978 0
M  V30 17561 C 1781.15 -1.74008 -3.33764 0
M  V30 17562 C 1780.3 -1.8463 -2.06899 0
M  V30 17563 H 1783.25 -1.35855 -0.820305 0
M  V30 17564 H 1783.27 -1.39219 -3.54116 0
M  V30 17565 H 1782.78 -2.92487 -2.55094 0
M  V30 17566 H 1780.88 -0.720445 -3.65569 0
M  V30 17567 H 1781 -2.56348 -4.0475 0
M  V30 17568 H 1779.36 -1.28007 -2.20196 0
M  V30 17569 H 1780.14 -2.90824 -1.82419 0
M  V30 17570 N 1782.59 1.19452 -1.02805 0
M  V30 17571 C 1784 1.70804 -0.753845 0
M  V30 17572 C 1784.35 1.8225 0.726584 0
M  V30 17573 O 1783.48 1.49307 1.56641 0
M  V30 17574 C 1784.07 3.10227 -1.36178 0
M  V30 17575 C 1782.63 3.58842 -1.13618 0
M  V30 17576 C 1781.78 2.3573 -1.46036 0
M  V30 17577 H 1784.73 1.04305 -1.19608 0
M  V30 17578 H 1784.75 3.72867 -0.758315 0
M  V30 17579 H 1784.26 3.01864 -2.43925 0
M  V30 17580 H 1782.36 3.72521 -0.0768914 0
M  V30 17581 H 1782.47 4.43008 -1.82431 0
M  V30 17582 H 1780.84 2.39027 -0.879669 0
M  V30 17583 H 1781.62 2.29998 -2.54864 0
M  V30 17584 N 1784.07 0.805805 1.35442 0
M  V30 17585 C 1785.02 0.188328 2.27221 0
M  V30 17586 C 1786 -0.637384 1.47737 0
M  V30 17587 O 1787.19 -0.49477 1.69944 0
M  V30 17588 C 1784.32 -0.662862 3.3684 0
M  V30 17589 C 1783.41 0.172537 4.23749 0
M  V30 17590 N 1783.8 1.23516 4.90487 0
M  V30 17591 C 1782.1 -0.0459629 4.45976 0
M  V30 17592 C 1782.8 1.74511 5.54906 0
M  V30 17593 N 1781.77 1.05168 5.3333 0
M  V30 17594 H 1785.58 1.00141 2.76313 0
M  V30 17595 H 1783.09 0.646886 1.4896 0
M  V30 17596 H 1785.09 -1.12126 4.01539 0
M  V30 17597 H 1783.75 -1.4743 2.893 0
M  V30 17598 H 1784.76 1.6178 4.91983 0
M  V30 17599 H 1781.43 -0.826604 4.09235 0
M  V30 17600 H 1782.82 2.63317 6.18154 0
M  V30 17601 N 1785.54 -1.47344 0.559239 0
M  V30 17602 C 1786.48 -2.28095 -0.224826 0
M  V30 17603 C 1787.49 -1.37127 -0.877492 0
M  V30 17604 O 1788.68 -1.61933 -0.751002 0
M  V30 17605 C 1785.78 -3.1145 -1.33611 0
M  V30 17606 C 1784.95 -4.30392 -0.779845 0
M  V30 17607 C 1784.01 -4.95327 -1.77587 0
M  V30 17608 O 1783.04 -5.53654 -1.32119 0
M  V30 17609 N 1784.24 -4.90206 -3.10931 0
M  V30 17610 H 1787 -2.96026 0.46786 0
M  V30 17611 H 1784.56 -1.56996 0.395448 0
M  V30 17612 H 1786.56 -3.51758 -2.00121 0
M  V30 17613 H 1785.13 -2.45749 -1.932 0
M  V30 17614 H 1784.35 -3.94151 0.0620861 0
M  V30 17615 H 1785.63 -5.07322 -0.387581 0
M  V30 17616 H 1785.03 -4.44022 -3.50515 0
M  V30 17617 H 1783.59 -5.34527 -3.72994 0
M  V30 17618 N 1787.02 -0.295795 -1.54799 0
M  V30 17619 C 1788.43 0.19789 -1.85648 0
M  V30 17620 C 1788.78 1.53834 -1.21776 0
M  V30 17621 O 1787.91 2.10218 -0.513554 0
M  V30 17622 C 1788.5 0.365844 -3.36819 0
M  V30 17623 C 1787.06 0.80375 -3.67718 0
M  V30 17624 C 1786.21 -0.0909572 -2.77151 0
M  V30 17625 H 1789.16 -0.516968 -1.50044 0
M  V30 17626 H 1789.18 1.20123 -3.61041 0
M  V30 17627 H 1788.69 -0.60991 -3.83278 0
M  V30 17628 H 1786.8 1.79024 -3.26774 0
M  V30 17629 H 1786.91 0.626745 -4.74983 0
M  V30 17630 H 1785.27 0.428882 -2.51063 0
M  V30 17631 H 1786.06 -1.06297 -3.26429 0
M  V30 17632 N 1788.5 1.57583 -0.0234236 0
M  V30 17633 C 1789.43 2.12907 0.958804 0
M  V30 17634 C 1790.41 1.0438 1.34309 0
M  V30 17635 O 1791.6 1.32184 1.42271 0
M  V30 17636 C 1788.73 2.65151 2.24304 0
M  V30 17637 C 1787.68 3.78414 1.99967 0
M  V30 17638 C 1787.01 4.17064 3.34607 0
M  V30 17639 C 1788.31 5.04727 1.34342 0
M  V30 17640 H 1790 2.95228 0.498081 0
M  V30 17641 H 1787.55 1.42017 0.238138 0
M  V30 17642 H 1789.5 3.02487 2.93393 0
M  V30 17643 H 1788.22 1.79983 2.72532 0
M  V30 17644 H 1786.88 3.41507 1.33298 0
M  V30 17645 H 1786.53 3.28886 3.80583 0
M  V30 17646 H 1786.23 4.93385 3.19132 0
M  V30 17647 H 1787.76 4.56978 4.04973 0
M  V30 17648 H 1789.17 5.39686 1.93422 0
M  V30 17649 H 1787.57 5.86009 1.29282 0
M  V30 17650 H 1788.64 4.83872 0.315625 0
M  V30 17651 N 1789.98 -0.249655 1.5561 0
M  V30 17652 C 1791.23 -0.976148 1.76963 0
M  V30 17653 C 1791.55 -1.85958 0.586903 0
M  V30 17654 O 1790.82 -1.91827 -0.397415 0
M  V30 17655 H 1789.4 -0.363416 0.652639 0
M  V30 17656 H 1792.06 -0.268264 1.93045 0
M  V30 17657 H 1791.16 -1.59948 2.67998 0
M  V30 17658 N 1791.46 -1.48941 -0.515198 0
M  V30 17659 C 1792.68 -1.61656 -1.29931 0
M  V30 17660 C 1793.11 -0.282529 -1.85966 0
M  V30 17661 O 1792.47 0.747914 -1.65154 0
M  V30 17662 C 1792.51 -2.6774 -2.41553 0
M  V30 17663 O 1791.62 -2.25926 -3.45009 0
M  V30 17664 H 1790.96 -0.541561 -0.384197 0
M  V30 17665 H 1793.49 -1.95032 -0.618349 0
M  V30 17666 H 1793.5 -2.89471 -2.87525 0
M  V30 17667 H 1792.17 -3.64582 -2.00131 0
M  V30 17668 H 1790.75 -2.14469 -3.05053 0
M  V30 17669 N 1792.94 0.765193 -1.37777 0
M  V30 17670 C 1794.18 1.52096 -1.33084 0
M  V30 17671 C 1794.5 1.94827 0.08221 0
M  V30 17672 O 1793.77 1.66787 1.02757 0
M  V30 17673 H 1792.35 0.564139 -0.489649 0
M  V30 17674 H 1795.02 0.910308 -1.72335 0
M  V30 17675 H 1794.11 2.4173 -1.97416 0
M  V30 17676 N 1794.41 1.22455 0.992094 0
M  V30 17677 C 1795.32 1.01173 2.11663 0
M  V30 17678 C 1796.34 -0.0402168 1.73954 0
M  V30 17679 O 1797.52 0.152685 2.0082 0
M  V30 17680 C 1794.58 0.592995 3.41591 0
M  V30 17681 C 1793.64 1.71865 3.93397 0
M  V30 17682 C 1792.87 1.3198 5.17124 0
M  V30 17683 O 1793.1 0.198943 5.70053 0
M  V30 17684 O 1792.03 2.13658 5.62702 0
M  V30 17685 H 1795.86 1.9539 2.32501 0
M  V30 17686 H 1793.44 1.01056 1.10036 0
M  V30 17687 H 1795.32 0.36987 4.19774 0
M  V30 17688 H 1794 -0.320311 3.22111 0
M  V30 17689 H 1792.91 1.9963 3.16384 0
M  V30 17690 H 1794.24 2.60985 4.1731 0
M  V30 17691 N 1795.89 -1.18905 1.03437 0
M  V30 17692 C 1797.12 -1.93219 0.753743 0
M  V30 17693 C 1797.54 -1.75299 -0.682055 0
M  V30 17694 O 1796.9 -1.05892 -1.47161 0
M  V30 17695 C 1796.95 -3.42864 1.117 0
M  V30 17696 O 1796.05 -4.11708 0.238816 0
M  V30 17697 H 1795.39 -0.603015 0.277973 0
M  V30 17698 H 1797.92 -1.50823 1.38252 0
M  V30 17699 H 1797.93 -3.9355 1.07623 0
M  V30 17700 H 1796.61 -3.55228 2.163 0
M  V30 17701 H 1795.18 -3.71359 0.338652 0
M  V30 17702 N 1797.37 -0.812977 -1.35013 0
M  V30 17703 C 1798.59 -0.407969 -2.03348 0
M  V30 17704 C 1799.02 0.975148 -1.60849 0
M  V30 17705 O 1798.38 1.63267 -0.788256 0
M  V30 17706 C 1798.43 -0.506754 -3.57022 0
M  V30 17707 O 1797.53 0.477322 -4.09628 0
M  V30 17708 H 1796.87 -0.169416 -0.642023 0
M  V30 17709 H 1799.4 -1.10064 -1.72474 0
M  V30 17710 H 1799.41 -0.378883 -4.06237 0
M  V30 17711 H 1798.09 -1.51557 -3.87302 0
M  V30 17712 H 1796.66 0.309161 -3.71616 0
M  V30 17713 N 1798.85 1.47045 -0.567045 0
M  V30 17714 C 1800.07 2.0734 -0.0498828 0
M  V30 17715 C 1800.5 1.41545 1.23881 0
M  V30 17716 O 1799.86 0.493798 1.74446 0
M  V30 17717 C 1799.9 3.60404 0.118782 0
M  V30 17718 O 1799.01 3.95186 1.17905 0
M  V30 17719 H 1798.35 0.661656 -0.055746 0
M  V30 17720 H 1800.88 1.8892 -0.78553 0
M  V30 17721 H 1800.89 4.06664 0.3299 0
M  V30 17722 H 1799.56 4.07688 -0.822409 0
M  V30 17723 H 1798.14 3.60658 0.947644 0
M  V30 17724 N 1800.33 0.304 1.5464 0
M  V30 17725 C 1801.55 -0.306916 2.04611 0
M  V30 17726 C 1801.97 -1.4729 1.18114 0
M  V30 17727 O 1801.33 -1.81317 0.20743 0
M  V30 17728 C 1801.38 -0.760263 3.53415 0
M  V30 17729 O 1801.1 0.359321 4.36624 0
M  V30 17730 C 1802.6 -1.43602 4.19396 0
M  V30 17731 H 1799.82 -0.066247 0.667722 0
M  V30 17732 H 1802.36 0.444504 1.99611 0
M  V30 17733 H 1800.52 -1.4617 3.58766 0
M  V30 17734 H 1800.93 0.00582275 5.245 0
M  V30 17735 H 1802.41 -1.70436 5.25029 0
M  V30 17736 H 1802.88 -2.37705 3.69314 0
M  V30 17737 H 1803.49 -0.777683 4.18129 0
M  V30 17738 N 1801.8 -1.57568 0.0317802 0
M  V30 17739 C 1803.22 -1.56264 -0.324633 0
M  V30 17740 C 1803.42 -1.03765 -1.72728 0
M  V30 17741 O 1802.48 -0.685566 -2.43015 0
M  V30 17742 C 1803.79 -3.00214 -0.170806 0
M  V30 17743 C 1805.34 -3.12052 -0.243373 0
M  V30 17744 C 1805.81 -4.57847 -0.118304 0
M  V30 17745 N 1807.3 -4.62869 -0.175203 0
M  V30 17746 C 1808.04 -5.73309 -0.102252 0
M  V30 17747 N 1807.53 -6.92797 0.0219373 0
M  V30 17748 N 1809.33 -5.61882 -0.156432 0
M  V30 17749 H 1801.48 -1.90022 0.948968 0
M  V30 17750 H 1803.74 -0.874208 0.366693 0
M  V30 17751 H 1803.45 -3.42585 0.795517 0
M  V30 17752 H 1803.32 -3.65302 -0.939907 0
M  V30 17753 H 1805.71 -2.69593 -1.20016 0
M  V30 17754 H 1805.79 -2.49681 0.55615 0
M  V30 17755 H 1805.43 -5.00988 0.835072 0
M  V30 17756 H 1805.36 -5.18202 -0.936726 0
M  V30 17757 H 1807.85 -3.76925 -0.271225 0
M  V30 17758 H 1808.17 -7.72768 0.0708376 0
M  V30 17759 H 1806.51 -6.94977 0.0567564 0
M  V30 17760 H 1809.7 -4.67422 -0.251873 0
M  V30 17761 H 1809.88 -6.47929 -0.0961177 0
M  V30 17762 N 1803.28 0.241399 -1.5574 0
M  V30 17763 C 1804.7 0.590176 -1.48287 0
M  V30 17764 C 1804.9 1.8808 -0.723052 0
M  V30 17765 O 1803.95 2.51213 -0.25464 0
M  V30 17766 C 1805.27 0.687804 -2.92728 0
M  V30 17767 C 1806.82 0.779763 -3.03131 0
M  V30 17768 C 1807.29 0.908905 -4.48891 0
M  V30 17769 N 1808.78 0.973636 -4.52852 0
M  V30 17770 C 1809.52 1.09292 -5.62888 0
M  V30 17771 N 1809.01 1.1774 -6.82722 0
M  V30 17772 N 1810.81 1.12651 -5.50696 0
M  V30 17773 H 1802.96 -0.605781 -2.03578 0
M  V30 17774 H 1805.22 -0.209862 -0.924479 0
M  V30 17775 H 1804.93 -0.190608 -3.51183 0
M  V30 17776 H 1804.8 1.55794 -3.43523 0
M  V30 17777 H 1807.19 1.64863 -2.44754 0
M  V30 17778 H 1807.27 -0.115641 -2.55538 0
M  V30 17779 H 1806.91 0.0445788 -5.0788 0
M  V30 17780 H 1806.84 1.81943 -4.9417 0
M  V30 17781 H 1809.33 0.919469 -3.66544 0
M  V30 17782 H 1809.65 1.26764 -7.62332 0
M  V30 17783 H 1807.99 1.14688 -6.85472 0
M  V30 17784 H 1811.18 1.05703 -4.56009 0
M  V30 17785 H 1811.35 1.21602 -6.36488 0
M  V30 17786 N 1804.76 1.49212 0.507292 0
M  V30 17787 C 1805.99 1.62343 1.29072 0
M  V30 17788 C 1806.41 0.292387 1.85814 0
M  V30 17789 O 1805.77 -0.739145 1.65549 0
M  V30 17790 C 1805.82 2.69017 2.40129 0
M  V30 17791 O 1804.92 2.27753 3.43806 0
M  V30 17792 H 1804.26 0.543591 0.38132 0
M  V30 17793 H 1806.79 1.95358 0.607997 0
M  V30 17794 H 1806.8 2.90992 2.85985 0
M  V30 17795 H 1805.48 3.65638 1.98195 0
M  V30 17796 H 1804.05 2.16084 3.03912 0
M  V30 17797 N 1806.24 -0.757876 1.38181 0
M  V30 17798 C 1807.46 -1.55221 1.37555 0
M  V30 17799 C 1807.89 -1.8807 -0.0336083 0
M  V30 17800 O 1807.25 -1.50258 -1.0145 0
M  V30 17801 C 1807.29 -2.83064 2.23399 0
M  V30 17802 O 1806.4 -3.78034 1.64814 0
M  V30 17803 H 1805.74 -0.469644 0.469394 0
M  V30 17804 H 1808.27 -0.936923 1.81887 0
M  V30 17805 H 1808.28 -3.32031 2.37106 0
M  V30 17806 H 1806.95 -2.58485 3.2582 0
M  V30 17807 H 1805.53 -3.36723 1.60225 0
M  V30 17808 N 1807.72 -1.22979 -0.985586 0
M  V30 17809 C 1808.63 -1.02294 -2.11124 0
M  V30 17810 C 1809.64 0.030991 -1.73972 0
M  V30 17811 O 1810.82 -0.163333 -2.00737 0
M  V30 17812 C 1807.88 -0.611102 -3.41272 0
M  V30 17813 C 1806.94 -1.73949 -3.9248 0
M  V30 17814 C 1806.18 -1.34721 -5.16417 0
M  V30 17815 O 1806.4 -0.229171 -5.69939 0
M  V30 17816 O 1805.33 -2.16639 -5.61561 0
M  V30 17817 H 1809.16 -1.9662 -2.31461 0
M  V30 17818 H 1806.75 -1.01639 -1.09499 0
M  V30 17819 H 1808.63 -0.392127 -4.19572 0
M  V30 17820 H 1807.3 0.303224 -3.22277 0
M  V30 17821 H 1806.21 -2.01305 -3.1532 0
M  V30 17822 H 1807.54 -2.63194 -4.1592 0
M  V30 17823 N 1809.19 1.18355 -1.04066 0
M  V30 17824 C 1810.47 1.8419 -0.65828 0
M  V30 17825 C 1810.85 1.92688 0.862238 0
M  V30 17826 O 1810.2 1.4528 1.76369 0
M  V30 17827 C 1810.41 3.22495 -1.3341 0
M  V30 17828 C 1811.76 3.9853 -1.46489 0
M  V30 17829 O 1812.78 3.31934 -1.29221 0
M  V30 17830 O 1811.64 5.17848 -1.74629 0
M  V30 17831 H 1808.73 0.794278 -0.230329 0
M  V30 17832 H 1811.28 1.25747 -1.13955 0
M  V30 17833 H 1810.05 3.11213 -2.37197 0
M  V30 17834 H 1809.68 3.88594 -0.841449 0
M  V30 17835 N 1810.67 0.820125 1.3458 0
M  V30 17836 C 1811.6 0.254709 2.32107 0
M  V30 17837 C 1812.58 -0.6273 1.58111 0
M  V30 17838 O 1813.77 -0.554759 1.86108 0
M  V30 17839 C 1810.9 -0.586541 3.42311 0
M  V30 17840 C 1809.85 0.198096 4.27541 0
M  V30 17841 C 1809.18 -0.765718 5.29189 0
M  V30 17842 C 1810.48 1.40472 5.03056 0
M  V30 17843 H 1812.17 1.06955 2.79644 0
M  V30 17844 H 1809.72 0.515756 1.34447 0
M  V30 17845 H 1811.67 -0.992259 4.09551 0
M  V30 17846 H 1810.4 -1.4344 2.93415 0
M  V30 17847 H 1809.05 0.585149 3.619 0
M  V30 17848 H 1808.7 -1.60946 4.76556 0
M  V30 17849 H 1808.4 -0.244954 5.87089 0
M  V30 17850 H 1809.93 -1.16935 5.99298 0
M  V30 17851 H 1811.34 1.07316 5.63166 0
M  V30 17852 H 1809.74 1.86092 5.70517 0
M  V30 17853 H 1810.81 2.18437 4.32913 0
M  V30 17854 N 1812.15 -1.46743 0.574835 0
M  V30 17855 C 1813.38 -2.07311 0.0608779 0
M  V30 17856 C 1813.8 -1.422 -1.23129 0
M  V30 17857 O 1813.16 -0.503042 -1.74181 0
M  V30 17858 C 1813.21 -3.60462 -0.0996676 0
M  V30 17859 O 1812.31 -3.95806 -1.15808 0
M  V30 17860 H 1811.65 -0.661351 0.0592542 0
M  V30 17861 H 1814.18 -1.885 0.795538 0
M  V30 17862 H 1814.19 -4.06833 -0.308329 0
M  V30 17863 H 1812.87 -4.07246 0.844018 0
M  V30 17864 H 1811.44 -3.61155 -0.928504 0
M  V30 17865 N 1813.63 -0.312197 -1.54477 0
M  V30 17866 C 1814.59 0.54612 -2.22599 0
M  V30 17867 C 1815.59 1.05252 -1.21568 0
M  V30 17868 O 1816.78 0.946756 -1.46226 0
M  V30 17869 C 1813.91 1.75733 -2.92114 0
M  V30 17870 H 1815.11 -0.0492216 -2.9986 0
M  V30 17871 H 1812.66 -0.063149 -1.56172 0
M  V30 17872 H 1813.39 2.39221 -2.18961 0
M  V30 17873 H 1813.18 1.40175 -3.66188 0
M  V30 17874 H 1814.67 2.36685 -3.44049 0
M  V30 17875 N 1815.11 1.57549 -0.040136 0
M  V30 17876 C 1816.34 1.96272 0.645049 0
M  V30 17877 C 1816.74 0.915804 1.65559 0
M  V30 17878 O 1816.09 -0.109666 1.83372 0
M  V30 17879 C 1816.15 3.31187 1.3984 0
M  V30 17880 C 1815.81 4.53739 0.544953 0
M  V30 17881 C 1816.81 5.19573 -0.184369 0
M  V30 17882 C 1814.5 5.0001 0.479119 0
M  V30 17883 C 1816.49 6.30006 -0.968081 0
M  V30 17884 C 1814.18 6.10322 -0.30829 0
M  V30 17885 C 1815.17 6.7518 -1.03059 0
M  V30 17886 O 1814.86 7.83373 -1.80507 0
M  V30 17887 H 1814.59 0.651051 0.181958 0
M  V30 17888 H 1817.15 2.05159 -0.0995179 0
M  V30 17889 H 1815.38 3.18823 2.18835 0
M  V30 17890 H 1817.07 3.54735 1.97276 0
M  V30 17891 H 1817.83 4.84789 -0.142908 0
M  V30 17892 H 1813.71 4.49325 1.0309 0
M  V30 17893 H 1817.26 6.80562 -1.53237 0
M  V30 17894 H 1813.15 6.44543 -0.351428 0
M  V30 17895 H 1813.92 8.00094 -1.72601 0
M  V30 17896 N 1816.58 -0.233136 1.55866 0
M  V30 17897 C 1817.55 -1.27227 1.90646 0
M  V30 17898 C 1818.55 -1.4039 0.784038 0
M  V30 17899 O 1819.74 -1.38854 1.05191 0
M  V30 17900 C 1816.87 -2.64791 2.14706 0
M  V30 17901 H 1818.06 -0.975986 2.83575 0
M  V30 17902 H 1815.62 -0.473045 1.4897 0
M  V30 17903 H 1816.35 -2.99537 1.24291 0
M  V30 17904 H 1816.14 -2.56615 2.96464 0
M  V30 17905 H 1817.63 -3.39797 2.4275 0
M  V30 17906 N 1818.06 -1.49479 -0.499372 0
M  V30 17907 C 1819.29 -1.63025 -1.28209 0
M  V30 17908 C 1819.71 -0.302238 -1.85656 0
M  V30 17909 O 1819.07 0.730355 -1.65938 0
M  V30 17910 C 1819.12 -2.70287 -2.38699 0
M  V30 17911 O 1818.22 -2.29573 -3.42593 0
M  V30 17912 H 1817.56 -0.545605 -0.378432 0
M  V30 17913 H 1820.09 -1.95677 -0.597628 0
M  V30 17914 H 1820.1 -2.92505 -2.84438 0
M  V30 17915 H 1818.78 -3.66684 -1.96253 0
M  V30 17916 H 1817.36 -2.17692 -3.02761 0
M  V30 17917 N 1819.54 0.750537 -1.38581 0
M  V30 17918 C 1820.79 1.50512 -1.34272 0
M  V30 17919 C 1821.1 1.95496 0.0636858 0
M  V30 17920 O 1822.31 2.7053 0.22932 0
M  V30 17921 C 1820.77 2.71891 -2.35803 0
M  V30 17922 C 1820.37 2.3392 -3.8208 0
M  V30 17923 C 1822.12 3.4977 -2.40543 0
M  V30 17924 C 1820.02 3.51928 -4.7529 0
M  V30 17925 H 1818.95 0.56515 -0.49912 0
M  V30 17926 H 1821.61 0.820167 -1.64151 0
M  V30 17927 H 1819.99 3.42383 -1.98972 0
M  V30 17928 H 1821.16 1.71075 -4.27867 0
M  V30 17929 H 1819.48 1.69168 -3.80488 0
M  V30 17930 H 1822.07 4.37519 -3.07379 0
M  V30 17931 H 1822.42 3.91141 -1.42527 0
M  V30 17932 H 1822.95 2.86294 -2.76189 0
M  V30 17933 H 1819.69 3.15621 -5.74512 0
M  V30 17934 H 1819.21 4.13807 -4.34194 0
M  V30 17935 H 1820.89 4.1847 -4.93449 0
M  V30 17936 N 1821.02 1.235 0.979051 0
M  V30 17937 C 1822.24 1.09551 1.76106 0
M  V30 17938 C 1822.67 -0.348792 1.84838 0
M  V30 17939 O 1822.03 -1.25231 1.31099 0
M  V30 17940 C 1822.08 1.7272 3.16544 0
M  V30 17941 O 1821.18 0.990263 4.00334 0
M  V30 17942 H 1820.52 0.383909 0.541766 0
M  V30 17943 H 1823.05 1.63581 1.22892 0
M  V30 17944 H 1823.06 1.78014 3.67117 0
M  V30 17945 H 1821.74 2.77813 3.09504 0
M  V30 17946 H 1820.31 1.01436 3.58839 0
M  V30 17947 N 1822.5 -1.17802 1.04693 0
M  V30 17948 C 1823.74 -1.87938 0.754024 0
M  V30 17949 C 1824.07 -1.80737 -0.718644 0
M  V30 17950 O 1823.33 -1.20657 -1.54079 0
M  V30 17951 C 1823.63 -3.37585 1.17349 0
M  V30 17952 C 1823.29 -3.6499 2.64751 0
M  V30 17953 C 1821.95 -3.72179 3.05019 0
M  V30 17954 C 1824.31 -3.76869 3.60027 0
M  V30 17955 C 1821.63 -3.88731 4.39437 0
M  V30 17956 C 1823.99 -3.94939 4.94172 0
M  V30 17957 C 1822.65 -4.00365 5.34101 0
M  V30 17958 H 1821.92 -0.687714 0.275917 0
M  V30 17959 H 1824.57 -1.39392 1.31309 0
M  V30 17960 H 1822.87 -3.88153 0.533333 0
M  V30 17961 H 1824.57 -3.90206 0.924134 0
M  V30 17962 H 1821.16 -3.60016 2.32565 0
M  V30 17963 H 1825.34 -3.70641 3.30059 0
M  V30 17964 H 1820.6 -3.91179 4.69882 0
M  V30 17965 H 1824.77 -4.03072 5.67896 0
M  V30 17966 H 1822.4 -4.12944 6.38264 0
M  V30 17967 N 1823.98 -0.827251 -1.34143 0
M  V30 17968 C 1824.91 -0.209663 -2.28239 0
M  V30 17969 C 1825.92 0.602945 -1.51223 0
M  V30 17970 O 1827.11 0.431917 -1.73196 0
M  V30 17971 C 1824.21 0.724345 -3.31069 0
M  V30 17972 C 1823.38 -0.0463812 -4.37375 0
M  V30 17973 C 1822.44 0.809208 -5.19941 0
M  V30 17974 O 1821.47 0.252619 -5.68639 0
M  V30 17975 N 1822.67 2.12835 -5.40075 0
M  V30 17976 H 1825.43 -1.0181 -2.81877 0
M  V30 17977 H 1823 -0.684618 -1.46713 0
M  V30 17978 H 1824.99 1.30143 -3.83204 0
M  V30 17979 H 1823.56 1.43352 -2.77793 0
M  V30 17980 H 1822.78 -0.804793 -3.85897 0
M  V30 17981 H 1824.07 -0.576775 -5.0552 0
M  V30 17982 H 1823.46 2.60423 -5.02191 0
M  V30 17983 H 1822.02 2.65419 -5.95312 0
M  V30 17984 N 1825.45 1.46436 -0.582609 0
M  V30 17985 C 1826.4 2.30308 0.150697 0
M  V30 17986 C 1827.37 1.40611 0.884185 0
M  V30 17987 O 1828.56 1.6956 0.874874 0
M  V30 17988 C 1825.7 3.25074 1.15847 0
M  V30 17989 C 1824.81 4.2987 0.428442 0
M  V30 17990 C 1823.94 5.11765 1.42373 0
M  V30 17991 C 1822.98 6.0831 0.680103 0
M  V30 17992 N 1822.12 6.83073 1.62345 0
M  V30 17993 H 1826.96 2.92487 -0.570583 0
M  V30 17994 H 1824.5 1.44148 -0.293195 0
M  V30 17995 H 1826.45 3.78462 1.75563 0
M  V30 17996 H 1825.08 2.64704 1.84747 0
M  V30 17997 H 1824.14 3.7934 -0.283744 0
M  V30 17998 H 1825.45 4.98566 -0.15291 0
M  V30 17999 H 1824.6 5.69429 2.09369 0
M  V30 18000 H 1823.34 4.4303 2.03902 0
M  V30 18001 H 1822.35 5.498 -0.00363067 0
M  V30 18002 H 1823.57 6.79064 0.0702152 0
M  V30 18003 H 1821.52 6.17048 2.22684 0
M  V30 18004 H 1821.43 7.48029 1.0949 0
M  V30 18005 H 1822.7 7.45295 2.28376 0
M  V30 18006 N 1826.93 0.320385 1.54309 0
M  V30 18007 C 1827.86 -0.580992 2.21714 0
M  V30 18008 C 1828.88 -1.08236 1.21609 0
M  V30 18009 O 1830.07 -0.996489 1.48096 0
M  V30 18010 C 1827.17 -1.80961 2.86542 0
M  V30 18011 C 1826.34 -1.44746 4.12756 0
M  V30 18012 C 1825.4 -2.53327 4.61207 0
M  V30 18013 O 1824.42 -2.17605 5.25963 0
M  V30 18014 N 1825.63 -3.84204 4.35164 0
M  V30 18015 H 1828.39 -0.00384608 2.997 0
M  V30 18016 H 1825.95 0.143444 1.61263 0
M  V30 18017 H 1827.94 -2.52985 3.1588 0
M  V30 18018 H 1826.51 -2.29468 2.12281 0
M  V30 18019 H 1825.73 -0.55899 3.90217 0
M  V30 18020 H 1827.02 -1.18116 4.949 0
M  V30 18021 H 1826.42 -4.16026 3.83326 0
M  V30 18022 H 1824.98 -4.52468 4.69165 0
M  V30 18023 N 1828.41 -1.57525 0.0484906 0
M  V30 18024 C 1829.82 -1.80221 -0.487592 0
M  V30 18025 C 1830.17 -0.96049 -1.71082 0
M  V30 18026 O 1829.3 -0.17632 -2.1568 0
M  V30 18027 C 1829.89 -3.26864 -0.89136 0
M  V30 18028 C 1828.45 -3.50487 -1.37244 0
M  V30 18029 C 1827.6 -2.75129 -0.346348 0
M  V30 18030 H 1830.55 -1.5631 0.274392 0
M  V30 18031 H 1830.57 -3.37637 -1.75446 0
M  V30 18032 H 1830.08 -3.881 -0.000880924 0
M  V30 18033 H 1828.18 -2.94528 -2.2822 0
M  V30 18034 H 1828.3 -4.592 -1.36645 0
M  V30 18035 H 1826.66 -2.41185 -0.818653 0
M  V30 18036 H 1827.44 -3.3909 0.536 0
M  V30 18037 N 1829.89 0.224867 -1.55988 0
M  V30 18038 C 1830.8 1.2997 -1.95307 0
M  V30 18039 C 1831.81 1.51463 -0.856444 0
M  V30 18040 O 1832.99 1.64658 -1.15973 0
M  V30 18041 C 1830.05 2.63009 -2.25892 0
M  V30 18042 C 1829.12 2.49847 -3.49106 0
M  V30 18043 C 1828.35 3.76541 -3.78223 0
M  V30 18044 O 1828.57 4.7941 -3.09066 0
M  V30 18045 O 1827.51 3.73852 -4.71718 0
M  V30 18046 H 1831.33 0.996093 -2.869 0
M  V30 18047 H 1828.92 0.427457 -1.43154 0
M  V30 18048 H 1830.8 3.41586 -2.46774 0
M  V30 18049 H 1829.47 2.93057 -1.37474 0
M  V30 18050 H 1828.38 1.69482 -3.33507 0
M  V30 18051 H 1829.71 2.24739 -4.37896 0
M  V30 18052 N 1831.37 1.49742 0.491438 0
M  V30 18053 C 1832.64 1.50217 1.25277 0
M  V30 18054 C 1833.02 0.235271 2.09785 0
M  V30 18055 O 1832.37 -0.782057 2.147 0
M  V30 18056 C 1832.58 2.78652 2.10129 0
M  V30 18057 C 1833.93 3.28519 2.68999 0
M  V30 18058 O 1834.95 2.79834 2.20389 0
M  V30 18059 O 1833.81 4.13333 3.57516 0
M  V30 18060 H 1830.91 0.601649 0.567405 0
M  V30 18061 H 1833.45 1.62014 0.504924 0
M  V30 18062 H 1832.22 3.62345 1.47723 0
M  V30 18063 H 1831.85 2.69761 2.92087 0
M  V30 18064 N 1832.84 -0.743177 1.38977 0
M  V30 18065 C 1834.26 -1.04764 1.20402 0
M  V30 18066 C 1834.46 -2.01411 0.0599139 0
M  V30 18067 O 1833.52 -2.45485 -0.591026 0
M  V30 18068 C 1834.83 -1.61775 2.53474 0
M  V30 18069 C 1836.38 -1.73896 2.60248 0
M  V30 18070 C 1836.85 -2.34318 3.93522 0
M  V30 18071 N 1838.34 -2.41737 3.95117 0
M  V30 18072 C 1839.08 -2.89407 4.95006 0
M  V30 18073 N 1838.57 -3.37034 6.05293 0
M  V30 18074 N 1840.37 -2.88542 4.8239 0
M  V30 18075 H 1832.52 -0.102036 2.12155 0
M  V30 18076 H 1834.78 -0.107893 0.94184 0
M  V30 18077 H 1834.49 -0.982274 3.37704 0
M  V30 18078 H 1834.36 -2.60696 2.72612 0
M  V30 18079 H 1836.75 -2.36568 1.76407 0
M  V30 18080 H 1836.83 -0.736509 2.44968 0
M  V30 18081 H 1836.47 -1.72276 4.7779 0
M  V30 18082 H 1836.4 -3.35224 4.06119 0
M  V30 18083 H 1838.89 -2.08064 3.15464 0
M  V30 18084 H 1839.21 -3.71895 6.77432 0
M  V30 18085 H 1837.55 -3.35064 6.08898 0
M  V30 18086 H 1840.74 -2.50651 3.95337 0
M  V30 18087 H 1840.92 -3.25379 5.60386 0
M  V30 18088 N 1834.32 -1.24018 -0.972487 0
M  V30 18089 C 1835.25 -0.986185 -2.06899 0
M  V30 18090 C 1836.27 0.0426574 -1.62744 0
M  V30 18091 O 1837.46 -0.193816 -1.77445 0
M  V30 18092 C 1834.56 -0.46551 -3.35688 0
M  V30 18093 C 1833.73 -1.55637 -4.08774 0
M  V30 18094 C 1832.79 -1.03918 -5.15837 0
M  V30 18095 O 1831.81 -1.72986 -5.42277 0
M  V30 18096 N 1833.02 0.128891 -5.80357 0
M  V30 18097 H 1835.78 -1.93025 -2.29263 0
M  V30 18098 H 1833.34 -1.14983 -1.13976 0
M  V30 18099 H 1835.33 -0.104379 -4.04565 0
M  V30 18100 H 1833.9 0.384166 -3.1023 0
M  V30 18101 H 1833.12 -2.08991 -3.3424 0
M  V30 18102 H 1834.41 -2.28973 -4.54366 0
M  V30 18103 H 1833.81 0.706438 -5.61272 0
M  V30 18104 H 1832.37 0.431211 -6.50372 0
M  V30 18105 O 1835.84 1.10463 -1.17814 0
M  V30 18106 H 1836.53 1.70579 -0.917734 0
M  V30 END ATOM
M  V30 BEGIN BOND
M  V30 END BOND
M  V30 END CTAB
M  END
$$$$
