drugbank_target|Q9NPJ3 Acyl-coenzyme A thioesterase 13 (DB08688)
 OpenBabel12092120523D

  0  0  0     0  0            999 V3000
M  V30 BEGIN CTAB
M  V30 COUNTS 2139 2149 0 0 0
M  V30 BEGIN ATOM
M  V30 1 H -0.908 1.98254 -0.117106 0
M  V30 2 N 0 1.576 0 0
M  V30 3 C 0.933 2.03868 1.02534 0
M  V30 4 C 1.911 0.928543 1.3348 0
M  V30 5 O 3.095 1.19667 1.45644 0
M  V30 6 C 0.222 2.43627 2.35294 0
M  V30 7 C -0.732 3.65373 2.2001 0
M  V30 8 S 0.101 5.13292 1.52614 0
M  V30 9 C 1.257 5.56322 2.86805 0
M  V30 10 H 1.49 2.90518 0.631377 0
M  V30 11 H -0.977 1.52953 0.210867 0
M  V30 12 H 0.981 2.67203 3.11629 0
M  V30 13 H -0.358 1.57376 2.7183 0
M  V30 14 H -1.165 3.90944 3.18086 0
M  V30 15 H -1.563 3.418 1.51819 0
M  V30 16 H 0.729 5.58782 3.83104 0
M  V30 17 H 1.672 6.56266 2.65933 0
M  V30 18 H 2.08 4.83886 2.90714 0
M  V30 19 N 1.4781 -0.272755 1.55222 0
M  V30 20 C 2.7061 -1.02255 1.79865 0
M  V30 21 C 3.1211 -1.79924 0.572088 0
M  V30 22 O 2.4781 -1.76638 -0.458842 0
M  V30 23 C 2.5291 -1.98094 3.02392 0
M  V30 24 O 2.2501 -1.23572 4.20311 0
M  V30 25 C 3.7511 -2.84884 3.39641 0
M  V30 26 H 0.9711 -0.302057 0.599168 0
M  V30 27 H 3.5151 -0.303465 2.02236 0
M  V30 28 H 1.6701 -2.65465 2.82147 0
M  V30 29 H 2.0841 -1.88172 4.89583 0
M  V30 30 H 3.5581 -3.47927 4.28545 0
M  V30 31 H 4.0351 -3.54665 2.59055 0
M  V30 32 H 4.6411 -2.23003 3.62146 0
M  V30 33 N 2.9562 -1.48159 -0.537278 0
M  V30 34 C 4.1812 -1.59707 -1.32319 0
M  V30 35 C 4.6062 -0.254859 -1.86365 0
M  V30 36 O 3.9642 0.772378 -1.64024 0
M  V30 37 C 4.0122 -2.6412 -2.45505 0
M  V30 38 O 3.1162 -2.20774 -3.48328 0
M  V30 39 H 2.4572 -0.535791 -0.392204 0
M  V30 40 H 4.9872 -1.94092 -0.647268 0
M  V30 41 H 4.9972 -2.85166 -2.91795 0
M  V30 42 H 3.6722 -3.61567 -2.05528 0
M  V30 43 H 2.2492 -2.09911 -3.08207 0
M  V30 44 N 4.4343 0.785586 -1.36625 0
M  V30 45 C 5.3673 1.90509 -1.25625 0
M  V30 46 C 6.3453 1.62 -0.139607 0
M  V30 47 O 7.5293 1.8591 -0.31141 0
M  V30 48 C 4.6563 3.25419 -0.939158 0
M  V30 49 C 3.7023 3.72856 -2.07077 0
M  V30 50 S 4.5353 3.88162 -3.68904 0
M  V30 51 C 5.6913 5.25942 -3.39317 0
M  V30 52 H 5.9243 1.99549 -2.20381 0
M  V30 53 H 3.4573 0.945226 -1.22085 0
M  V30 54 H 5.4153 4.03346 -0.763029 0
M  V30 55 H 4.0763 3.14099 -0.00931402 0
M  V30 56 H 3.2693 4.70624 -1.80357 0
M  V30 57 H 2.8713 3.01989 -2.20632 0
M  V30 58 H 5.1633 6.10651 -2.93447 0
M  V30 59 H 6.1063 5.57668 -4.36363 0
M  V30 60 H 6.5143 4.93224 -2.74573 0
M  V30 61 N 5.9124 1.20967 1.01018 0
M  V30 62 C 7.1404 1.04956 1.78303 0
M  V30 63 C 7.5554 -0.400915 1.84494 0
M  V30 64 O 6.9124 -1.27826 1.30257 0
M  V30 65 C 6.9634 1.63403 3.22462 0
M  V30 66 O 6.6844 3.02775 3.16637 0
M  V30 67 C 8.1854 1.52432 4.16268 0
M  V30 68 H 5.4054 0.368858 0.560522 0
M  V30 69 H 7.9494 1.60193 1.27116 0
M  V30 70 H 6.1044 1.1227 3.70775 0
M  V30 71 H 6.5184 3.30626 4.07169 0
M  V30 72 H 7.9924 1.98078 5.15237 0
M  V30 73 H 8.4694 0.477875 4.36592 0
M  V30 74 H 9.0754 2.02787 3.73841 0
M  V30 75 N 7.3905 -1.2043 1.01659 0
M  V30 76 C 8.3225 -2.22626 0.544988 0
M  V30 77 C 9.3355 -1.58479 -0.372609 0
M  V30 78 O 10.5245 -1.77679 -0.170958 0
M  V30 79 C 7.6245 -3.38141 -0.22663 0
M  V30 80 C 6.7975 -4.31877 0.692876 0
M  V30 81 C 5.8565 -5.26191 -0.0311616 0
M  V30 82 O 4.8825 -5.6612 0.591343 0
M  V30 83 N 6.0845 -5.65618 -1.30601 0
M  V30 84 H 8.8495 -2.63716 1.42388 0
M  V30 85 H 6.4105 -1.34971 0.894116 0
M  V30 86 H 8.4025 -3.98239 -0.72024 0
M  V30 87 H 6.9725 -2.95943 -1.00681 0
M  V30 88 H 6.1925 -3.69746 1.36679 0
M  V30 89 H 7.4805 -4.91426 1.31824 0
M  V30 90 H 6.8785 -5.3519 -1.83269 0
M  V30 91 H 5.4355 -6.28025 -1.74435 0
M  V30 92 N 8.8686 -0.792821 -1.36206 0
M  V30 93 C 10.0936 -0.377701 -2.03932 0
M  V30 94 C 10.5186 0.998947 -1.59382 0
M  V30 95 O 9.8766 1.64421 -0.763903 0
M  V30 96 C 9.9246 -0.453635 -3.57735 0
M  V30 97 O 9.0286 0.538151 -4.08874 0
M  V30 98 H 8.3696 -0.159855 -0.644471 0
M  V30 99 H 10.8996 -1.07488 -1.7409 0
M  V30 100 H 10.9096 -0.318464 -4.06755 0
M  V30 101 H 9.5846 -1.45784 -3.89512 0
M  V30 102 H 8.1616 0.364359 -3.71116 0
M  V30 103 N 10.3467 1.47872 -0.545128 0
M  V30 104 C 11.2767 2.32661 0.197793 0
M  V30 105 C 12.2577 1.43041 0.920504 0
M  V30 106 O 13.4427 1.71912 0.90333 0
M  V30 107 C 10.5727 3.24569 1.23582 0
M  V30 108 C 9.5267 4.23333 0.630323 0
M  V30 109 C 8.8527 5.0448 1.77211 0
M  V30 110 C 10.1527 5.20704 -0.407974 0
M  V30 111 H 11.8467 2.95024 -0.510045 0
M  V30 112 H 9.3927 1.4187 -0.246731 0
M  V30 113 H 11.3457 3.8272 1.76362 0
M  V30 114 H 10.0697 2.60236 1.97344 0
M  V30 115 H 8.7287 3.6639 0.123922 0
M  V30 116 H 8.3767 4.36561 2.49847 0
M  V30 117 H 8.0767 5.71339 1.37281 0
M  V30 118 H 9.6007 5.65487 2.3034 0
M  V30 119 H 11.0147 5.7329 0.033305 0
M  V30 120 H 9.4117 5.95699 -0.725486 0
M  V30 121 H 10.4817 4.66917 -1.30828 0
M  V30 122 N 11.8248 0.280983 1.55075 0
M  V30 123 C 13.2408 -0.0729964 1.59433 0
M  V30 124 C 13.4408 -1.5411 1.29817 0
M  V30 125 O 12.4968 -2.29086 1.06187 0
M  V30 126 C 13.8098 0.306921 2.9913 0
M  V30 127 C 15.3578 0.254023 3.11968 0
M  V30 128 C 15.8328 0.608467 4.5394 0
M  V30 129 N 17.3238 0.560241 4.59799 0
M  V30 130 C 18.0588 0.80722 5.6769 0
M  V30 131 N 17.5548 1.11912 6.83701 0
M  V30 132 N 19.3478 0.735623 5.57266 0
M  V30 133 H 11.4988 1.238 1.7259 0
M  V30 134 H 13.7618 0.500547 0.805082 0
M  V30 135 H 13.4678 1.32816 3.25657 0
M  V30 136 H 13.3418 -0.349363 3.75579 0
M  V30 137 H 15.7288 -0.75794 2.852 0
M  V30 138 H 15.8098 0.944649 2.37718 0
M  V30 139 H 15.4538 1.61814 4.81434 0
M  V30 140 H 15.3838 -0.104013 5.26497 0
M  V30 141 H 17.8748 0.329288 3.76463 0
M  V30 142 H 18.1878 1.29409 7.61888 0
M  V30 143 H 16.5328 1.15695 6.85303 0
M  V30 144 H 19.7238 0.491752 4.6551 0
M  V30 145 H 19.8968 0.931482 6.4127 0
M  V30 146 N 13.3029 -1.57598 0.00835791 0
M  V30 147 C 14.2129 -2.12385 -0.996487 0
M  V30 148 C 15.2289 -1.07108 -1.37127 0
M  V30 149 O 16.4049 -1.39055 -1.4569 0
M  V30 150 C 13.4699 -2.62314 -2.26699 0
M  V30 151 C 12.5309 -3.82225 -1.95456 0
M  V30 152 C 11.7639 -4.29763 -3.16449 0
M  V30 153 O 11.9869 -3.76584 -4.28416 0
M  V30 154 O 10.9209 -5.21832 -2.99958 0
M  V30 155 H 14.7469 -2.98479 -0.560725 0
M  V30 156 H 12.3319 -1.47903 -0.210987 0
M  V30 157 H 14.2139 -2.94589 -3.01322 0
M  V30 158 H 12.8889 -1.79313 -2.69497 0
M  V30 159 H 11.7959 -3.54909 -1.18282 0
M  V30 160 H 13.1289 -4.66324 -1.57489 0
M  V30 161 N 14.781 0.264519 -1.55364 0
M  V30 162 C 16.027 0.99646 -1.76631 0
M  V30 163 C 16.36 1.85632 -0.570478 0
M  V30 164 O 15.635 1.89647 0.43175 0
M  V30 165 C 15.918 1.87187 -3.07625 0
M  V30 166 C 15.771 1.04138 -4.37579 0
M  V30 167 C 17.09 2.85749 -3.34717 0
M  V30 168 H 14.209 0.360841 -0.642622 0
M  V30 169 H 16.851 0.268218 -1.88097 0
M  V30 170 H 15.001 2.49279 -2.9798 0
M  V30 171 H 16.673 0.440517 -4.59192 0
M  V30 172 H 14.916 0.345115 -4.32425 0
M  V30 173 H 15.587 1.68729 -5.2558 0
M  V30 174 H 18.063 2.33793 -3.4421 0
M  V30 175 H 16.939 3.44136 -4.27623 0
M  V30 176 H 17.2 3.61311 -2.54768 0
M  V30 177 N 16.2591 1.48442 0.529413 0
M  V30 178 C 17.5081 1.55742 1.28169 0
M  V30 179 C 17.8211 0.236511 1.94165 0
M  V30 180 O 19.0271 0.187761 2.7085 0
M  V30 181 C 17.4831 2.74667 2.32564 0
M  V30 182 C 17.0911 4.13402 1.72636 0
M  V30 183 C 18.8351 2.9128 3.08798 0
M  V30 184 C 16.7421 5.23587 2.74975 0
M  V30 185 H 15.6721 0.579796 0.48203 0
M  V30 186 H 18.3231 1.74776 0.559056 0
M  V30 187 H 16.7051 2.49067 3.07866 0
M  V30 188 H 17.8791 4.49022 1.03519 0
M  V30 189 H 16.1941 4.0191 1.08892 0
M  V30 190 H 18.7911 3.70767 3.85274 0
M  V30 191 H 19.1341 2.00757 3.64695 0
M  V30 192 H 19.6671 3.16782 2.40611 0
M  V30 193 H 16.4061 6.16076 2.23897 0
M  V30 194 H 15.9261 4.92454 3.42417 0
M  V30 195 H 17.6051 5.51724 3.37949 0
M  V30 196 N 17.7372 -0.778329 1.37039 0
M  V30 197 C 18.6842 -1.89139 1.32269 0
M  V30 198 C 19.6542 -1.65017 0.189387 0
M  V30 199 O 20.8392 -1.87024 0.377693 0
M  V30 200 C 17.9792 -3.26112 1.12894 0
M  V30 201 C 17.0922 -3.62233 2.35396 0
M  V30 202 C 16.2272 -4.8838 2.08946 0
M  V30 203 C 15.2662 -5.17212 3.2735 0
M  V30 204 N 14.4032 -6.34546 3.00492 0
M  V30 205 H 19.2432 -1.92552 2.27437 0
M  V30 206 H 16.7802 -0.941473 1.13025 0
M  V30 207 H 18.7382 -4.05116 0.996835 0
M  V30 208 H 17.3682 -3.22091 0.213758 0
M  V30 209 H 16.4202 -2.78265 2.5937 0
M  V30 210 H 17.7322 -3.79481 3.23721 0
M  V30 211 H 16.8862 -5.75274 1.92729 0
M  V30 212 H 15.6252 -4.73222 1.17949 0
M  V30 213 H 14.6302 -4.28796 3.44113 0
M  V30 214 H 15.8552 -5.34283 4.19188 0
M  V30 215 H 13.8012 -6.20759 2.12118 0
M  V30 216 H 13.7182 -6.52179 3.82358 0
M  V30 217 H 14.9862 -7.24394 2.87879 0
M  V30 218 N 19.2153 -1.21501 -1.00376 0
M  V30 219 C 20.1783 -0.976927 -2.07337 0
M  V30 220 C 21.1783 0.0525322 -1.60714 0
M  V30 221 O 22.3683 -0.184869 -1.73216 0
M  V30 222 C 19.5003 -0.473423 -3.37597 0
M  V30 223 H 20.6933 -1.92587 -2.29892 0
M  V30 224 H 18.2463 -1.03217 -1.17371 0
M  V30 225 H 18.9813 0.480379 -3.20722 0
M  V30 226 H 18.7663 -1.216 -3.72768 0
M  V30 227 H 20.2563 -0.32675 -4.1632 0
M  V30 228 N 20.6934 1.19889 -1.02296 0
M  V30 229 C 21.6264 2.21639 -0.543282 0
M  V30 230 C 22.6044 1.57275 0.412698 0
M  V30 231 O 23.7884 1.85568 0.331198 0
M  V30 232 C 20.9154 3.38057 0.208571 0
M  V30 233 C 19.9614 4.20751 -0.697933 0
M  V30 234 S 20.7944 4.89529 -2.17075 0
M  V30 235 C 21.9504 6.09363 -1.42923 0
M  V30 236 H 22.1834 2.61984 -1.40541 0
M  V30 237 H 19.7164 1.30041 -0.832387 0
M  V30 238 H 21.6744 4.05539 0.63624 0
M  V30 239 H 20.3354 2.96159 1.04635 0
M  V30 240 H 19.5284 5.03862 -0.117831 0
M  V30 241 H 19.1304 3.58556 -1.06366 0
M  V30 242 H 21.4224 6.73742 -0.712637 0
M  V30 243 H 22.3654 6.71845 -2.23673 0
M  V30 244 H 22.7734 5.56798 -0.929327 0
M  V30 245 N 22.1715 0.800033 1.35784 0
M  V30 246 C 23.3995 0.389606 2.03199 0
M  V30 247 C 23.8145 -0.997375 1.60306 0
M  V30 248 O 23.1715 -1.64154 0.797481 0
M  V30 249 C 23.2225 0.455855 3.58614 0
M  V30 250 O 22.9435 1.78815 3.99946 0
M  V30 251 C 24.4445 0.0374032 4.43284 0
M  V30 252 H 21.6645 0.159132 0.651857 0
M  V30 253 H 24.2085 1.08183 1.73541 0
M  V30 254 H 22.3635 -0.188057 3.86943 0
M  V30 255 H 22.7775 1.74636 4.94573 0
M  V30 256 H 24.2515 0.134882 5.51835 0
M  V30 257 H 24.7285 -1.01651 4.27275 0
M  V30 258 H 25.3345 0.654215 4.20238 0
M  V30 259 N 23.6496 -1.47581 0.552962 0
M  V30 260 C 24.5966 -2.29957 -0.197108 0
M  V30 261 C 25.5666 -1.38799 -0.912359 0
M  V30 262 O 26.7516 -1.67761 -0.908888 0
M  V30 263 C 23.8916 -3.22672 -1.22379 0
M  V30 264 C 23.0046 -4.28919 -0.515038 0
M  V30 265 C 22.1396 -5.0879 -1.52664 0
M  V30 266 C 21.1786 -6.06815 -0.802631 0
M  V30 267 N 20.3156 -6.7966 -1.76086 0
M  V30 268 H 25.1556 -2.93578 0.511486 0
M  V30 269 H 22.6926 -1.4471 0.264067 0
M  V30 270 H 24.6506 -3.74845 -1.83159 0
M  V30 271 H 23.2806 -2.60925 -1.90047 0
M  V30 272 H 22.3326 -3.79835 0.207192 0
M  V30 273 H 23.6446 -4.98773 0.0523425 0
M  V30 274 H 22.7986 -5.65091 -2.20809 0
M  V30 275 H 21.5376 -4.38828 -2.12794 0
M  V30 276 H 20.5426 -5.49695 -0.107238 0
M  V30 277 H 21.7676 -6.78784 -0.207135 0
M  V30 278 H 19.7136 -6.12432 -2.35081 0
M  V30 279 H 19.6306 -7.45669 -1.24552 0
M  V30 280 H 20.8986 -7.40538 -2.43359 0
M  V30 281 N 25.1277 -0.289203 -1.54924 0
M  V30 282 C 26.0907 0.579144 -2.21762 0
M  V30 283 C 27.0907 1.07047 -1.1999 0
M  V30 284 O 28.2807 0.968384 -1.44803 0
M  V30 285 C 25.4127 1.80055 -2.8947 0
M  V30 286 H 26.6057 -0.00464908 -2.999 0
M  V30 287 H 24.1587 -0.0399306 -1.56249 0
M  V30 288 H 24.8937 2.42449 -2.15381 0
M  V30 289 H 24.6787 1.45602 -3.64064 0
M  V30 290 H 26.1687 2.41773 -3.40493 0
M  V30 291 N 26.6058 1.57591 -0.0167156 0
M  V30 292 C 28.0218 1.55946 0.339557 0
M  V30 293 C 28.2218 1.02109 1.73713 0
M  V30 294 O 27.2778 0.662303 2.43659 0
M  V30 295 C 28.5908 3.00037 0.199499 0
M  V30 296 C 30.1388 3.11805 0.273193 0
M  V30 297 C 30.6138 4.57713 0.162068 0
M  V30 298 N 32.1048 4.6268 0.219444 0
M  V30 299 C 32.8398 5.73185 0.157054 0
M  V30 300 N 32.3358 6.92786 0.0442936 0
M  V30 301 N 34.1288 5.61707 0.21014 0
M  V30 302 H 26.2798 1.90921 -0.930758 0
M  V30 303 H 28.5428 0.877674 -0.358319 0
M  V30 304 H 28.2488 3.4333 -0.76273 0
M  V30 305 H 28.1228 3.64387 0.974786 0
M  V30 306 H 30.5098 2.68433 1.22587 0
M  V30 307 H 30.5908 2.50201 -0.532256 0
M  V30 308 H 30.2348 5.01763 -0.78714 0
M  V30 309 H 30.1648 5.17283 0.986222 0
M  V30 310 H 32.6558 3.76649 0.307246 0
M  V30 311 H 32.9688 7.728 0.00304069 0
M  V30 312 H 31.3138 6.94999 0.00968457 0
M  V30 313 H 34.5048 4.6716 0.296546 0
M  V30 314 H 34.6778 6.47807 0.158054 0
M  V30 315 N 28.0839 -0.256276 1.55502 0
M  V30 316 C 29.0319 -1.33694 1.90338 0
M  V30 317 C 30.0259 -1.50299 0.781441 0
M  V30 318 O 31.2319 -1.51885 0.965966 0
M  V30 319 H 27.6069 -0.447483 0.60437 0
M  V30 320 H 29.5779 -1.01574 2.8058 0
M  V30 321 C 28.3269 -2.68724 2.20642 0
M  V30 322 H 27.6499 -2.56743 3.06469 0
M  V30 323 H 29.0899 -3.43237 2.48926 0
M  V30 324 C 27.5489 -3.21101 1.01959 0
M  V30 325 O 28.0789 -4.0084 0.262762 0
M  V30 326 N 26.2849 -2.79003 0.812746 0
M  V30 327 H 25.8319 -2.14271 1.42989 0
M  V30 328 H 25.7899 -3.14393 0.0203076 0
M  V30 329 N 29.562 -1.4872 -0.521534 0
M  V30 330 C 30.809 -1.57168 -1.27689 0
M  V30 331 C 31.137 -0.249275 -1.92896 0
M  V30 332 O 30.392 0.761162 -1.80291 0
M  V30 333 C 30.691 -2.66497 -2.38148 0
M  V30 334 C 30.357 -4.08664 -1.90538 0
M  V30 335 C 29.019 -4.47357 -1.77271 0
M  V30 336 C 31.371 -4.97724 -1.54663 0
M  V30 337 C 28.699 -5.72905 -1.26478 0
M  V30 338 C 31.051 -6.2377 -1.05329 0
M  V30 339 C 29.715 -6.61311 -0.906861 0
M  V30 340 H 28.985 -0.575117 -0.467249 0
M  V30 341 H 31.632 -1.82472 -0.581051 0
M  V30 342 H 29.937 -2.35085 -3.13437 0
M  V30 343 H 31.634 -2.70246 -2.96257 0
M  V30 344 H 28.224 -3.78111 -2.01816 0
M  V30 345 H 32.408 -4.68501 -1.63768 0
M  V30 346 H 27.664 -6.00709 -1.13835 0
M  V30 347 H 31.838 -6.9217 -0.76644 0
M  V30 348 H 29.465 -7.5848 -0.511083 0
M  V30 349 N 31.0401 0.771051 -1.3745 0
M  V30 350 C 31.9501 1.91538 -1.35464 0
M  V30 351 C 32.9661 1.72134 -0.254123 0
M  V30 352 O 34.1421 1.95358 -0.489626 0
M  V30 353 C 31.2071 3.26671 -1.16134 0
M  V30 354 C 30.2681 3.58723 -2.35831 0
M  V30 355 C 29.5011 4.87409 -2.17413 0
M  V30 356 O 29.7241 5.58506 -1.15876 0
M  V30 357 O 28.6581 5.18539 -3.05615 0
M  V30 358 H 32.4841 1.96165 -2.31847 0
M  V30 359 H 30.0691 0.9139 -1.18187 0
M  V30 360 H 31.9511 4.07499 -1.07345 0
M  V30 361 H 30.6261 3.22894 -0.228251 0
M  V30 362 H 29.5331 2.78127 -2.50192 0
M  V30 363 H 30.8661 3.67243 -3.27709 0
M  V30 364 N 32.5182 1.22032 0.997298 0
M  V30 365 C 33.9342 0.979326 1.26021 0
M  V30 366 C 34.1342 -0.32972 1.98784 0
M  V30 367 O 33.1902 -1.05345 2.29475 0
M  V30 368 C 34.5032 2.17509 2.07631 0
M  V30 369 C 36.0512 2.21817 2.2083 0
M  V30 370 C 36.5262 3.40933 3.05825 0
M  V30 371 N 38.0172 3.41067 3.13412 0
M  V30 372 C 38.7522 4.29885 3.79455 0
M  V30 373 N 38.2482 5.28914 4.47462 0
M  V30 374 N 40.0412 4.17673 3.76173 0
M  V30 375 H 32.1922 2.06202 0.509352 0
M  V30 376 H 34.4552 0.90334 0.287541 0
M  V30 377 H 34.1612 3.12415 1.61524 0
M  V30 378 H 34.0352 2.17206 3.08385 0
M  V30 379 H 36.4222 1.27462 2.66153 0
M  V30 380 H 36.5032 2.2616 1.1952 0
M  V30 381 H 36.1472 4.35586 2.61203 0
M  V30 382 H 36.0772 3.33829 4.07266 0
M  V30 383 H 38.5682 2.69406 2.65007 0
M  V30 384 H 38.8812 5.92973 4.95583 0
M  V30 385 H 37.2262 5.32831 4.46224 0
M  V30 386 H 40.4172 3.39564 3.22202 0
M  V30 387 H 40.5902 4.87098 4.27363 0
M  V30 388 N 33.9963 -1.19345 1.0293 0
M  V30 389 C 35.2423 -1.89318 0.727083 0
M  V30 390 C 35.5753 -1.79446 -0.742483 0
M  V30 391 O 34.8503 -1.1871 -1.54072 0
M  V30 392 C 35.1333 -3.40238 1.17942 0
M  V30 393 C 34.9863 -3.58979 2.71024 0
M  V30 394 C 36.3053 -4.33479 0.760548 0
M  V30 395 H 33.4243 -0.687475 0.265606 0
M  V30 396 H 36.0663 -1.40477 1.2793 0
M  V30 397 H 34.2163 -3.81964 0.709608 0
M  V30 398 H 35.8883 -3.26421 3.25955 0
M  V30 399 H 34.1313 -3.02018 3.11396 0
M  V30 400 H 34.8023 -4.64823 2.9773 0
M  V30 401 H 37.2783 -3.99469 1.16464 0
M  V30 402 H 36.1543 -5.37664 1.10493 0
M  V30 403 H 36.4153 -4.40813 -0.337063 0
M  V30 404 N 35.4744 -0.807222 -1.35358 0
M  V30 405 C 36.4044 -0.232509 -2.3234 0
M  V30 406 C 37.3854 0.642386 -1.57504 0
M  V30 407 O 38.5704 0.572526 -1.85569 0
M  V30 408 C 35.7004 0.619238 -3.41735 0
M  V30 409 C 34.6544 -0.157215 -4.27711 0
M  V30 410 C 33.9804 0.816273 -5.28433 0
M  V30 411 C 35.2804 -1.35656 -5.04376 0
M  V30 412 H 36.9744 -1.04276 -2.80654 0
M  V30 413 H 34.5204 -0.50288 -1.34934 0
M  V30 414 H 36.4734 1.03137 -4.08584 0
M  V30 415 H 35.1974 1.46239 -2.92031 0
M  V30 416 H 33.8564 -0.550525 -3.62443 0
M  V30 417 H 33.5044 1.65494 -4.74996 0
M  V30 418 H 33.2044 0.301067 -5.86828 0
M  V30 419 H 34.7284 1.22659 -5.98153 0
M  V30 420 H 36.1424 -1.01927 -5.64166 0
M  V30 421 H 34.5394 -1.8063 -5.7227 0
M  V30 422 H 35.6094 -2.14288 -4.34981 0
M  V30 423 N 36.9525 1.47285 -0.560781 0
M  V30 424 C 38.2005 2.02064 -0.0379868 0
M  V30 425 C 38.5215 1.43711 1.31803 0
M  V30 426 O 37.7915 0.61362 1.86042 0
M  V30 427 H 36.3715 0.746918 -0.0110531 0
M  V30 428 H 39.0335 1.80648 -0.731598 0
M  V30 429 H 38.1295 3.12064 0.0474463 0
M  V30 430 N 38.4306 0.297415 1.54768 0
M  V30 431 C 39.3776 -0.580276 2.23386 0
M  V30 432 C 40.3476 -1.13238 1.21517 0
M  V30 433 O 41.5326 -1.17757 1.50126 0
M  V30 434 C 38.6726 -1.74801 2.97555 0
M  V30 435 C 37.7856 -1.22764 4.1419 0
M  V30 436 C 36.9206 -2.35895 4.75949 0
M  V30 437 C 35.9596 -1.80974 5.84735 0
M  V30 438 N 35.0966 -2.87664 6.40464 0
M  V30 439 H 39.9366 0.0114833 2.97998 0
M  V30 440 H 37.4736 0.0174361 1.4709 0
M  V30 441 H 39.4316 -2.43475 3.38786 0
M  V30 442 H 38.0616 -2.31145 2.25326 0
M  V30 443 H 37.1136 -0.433271 3.77924 0
M  V30 444 H 38.4256 -0.785551 4.92575 0
M  V30 445 H 37.5796 -3.12523 5.20014 0
M  V30 446 H 36.3186 -2.83429 3.96887 0
M  V30 447 H 35.3236 -1.02834 5.40097 0
M  V30 448 H 36.5486 -1.34348 6.65678 0
M  V30 449 H 34.4946 -3.34538 5.64287 0
M  V30 450 H 34.4116 -2.4794 7.14186 0
M  V30 451 H 35.6796 -3.642 6.89187 0
M  V30 452 N 39.9087 -1.5758 0.0250728 0
M  V30 453 C 41.1577 -1.90811 -0.653767 0
M  V30 454 C 41.4707 -0.90273 -1.73523 0
M  V30 455 O 42.6767 -1.12614 -2.47043 0
M  V30 456 C 41.1327 -3.38804 -1.21409 0
M  V30 457 C 40.7407 -4.47692 -0.166126 0
M  V30 458 C 42.4847 -3.81108 -1.86967 0
M  V30 459 C 40.3917 -5.86779 -0.737856 0
M  V30 460 H 39.3217 -0.712063 -0.247956 0
M  V30 461 H 41.9727 -1.83281 0.0897137 0
M  V30 462 H 40.3547 -3.41252 -2.00905 0
M  V30 463 H 41.5287 -4.56797 0.606079 0
M  V30 464 H 39.8437 -4.14565 0.390466 0
M  V30 465 H 42.4407 -4.82375 -2.30692 0
M  V30 466 H 42.7837 -3.15953 -2.71071 0
M  V30 467 H 43.3167 -3.81065 -1.14167 0
M  V30 468 H 40.0557 -6.55468 0.0649577 0
M  V30 469 H 39.5757 -5.81288 -1.47864 0
M  V30 470 H 41.2547 -6.35223 -1.22884 0
M  V30 471 N 41.3868 0.248026 -1.55636 0
M  V30 472 C 42.6148 0.993808 -1.81469 0
M  V30 473 C 43.0298 1.78991 -0.60064 0
M  V30 474 O 42.3868 1.77345 0.430682 0
M  V30 475 C 42.4378 1.93258 -3.05506 0
M  V30 476 O 42.1588 1.16869 -4.22224 0
M  V30 477 C 43.6598 2.79444 -3.4413 0
M  V30 478 H 40.8798 0.292486 -0.603898 0
M  V30 479 H 43.4238 0.271253 -2.02693 0
M  V30 480 H 41.5788 2.60943 -2.86335 0
M  V30 481 H 41.9928 1.80359 -4.92515 0
M  V30 482 H 43.4668 3.41066 -4.34026 0
M  V30 483 H 43.9438 3.50499 -2.64665 0
M  V30 484 H 44.5498 2.17214 -3.65648 0
M  V30 485 N 42.8649 1.48995 0.513639 0
M  V30 486 C 43.7949 1.67636 1.62544 0
M  V30 487 C 44.7759 0.525087 1.61793 0
M  V30 488 O 45.9609 0.759502 1.78732 0
M  V30 489 C 43.0909 1.73114 3.01079 0
M  V30 490 C 42.0449 2.87905 3.16693 0
M  V30 491 C 41.3709 2.78486 4.56453 0
M  V30 492 C 42.6709 4.29005 2.97913 0
M  V30 493 H 44.3649 2.60716 1.47198 0
M  V30 494 H 41.9109 1.25465 0.706714 0
M  V30 495 H 43.8639 1.84742 3.78746 0
M  V30 496 H 42.5879 0.766241 3.17484 0
M  V30 497 H 41.2469 2.75859 2.41448 0
M  V30 498 H 40.8949 1.7993 4.69717 0
M  V30 499 H 40.5949 3.55523 4.67843 0
M  V30 500 H 42.1189 2.92104 5.36197 0
M  V30 501 H 43.5329 4.41798 3.65359 0
M  V30 502 H 41.9299 5.07166 3.20785 0
M  V30 503 H 42.9999 4.44329 1.94165 0
M  V30 504 N 44.343 -0.763751 1.37857 0
M  V30 505 C 45.589 -1.52483 1.33704 0
M  V30 506 C 45.922 -1.94051 -0.0759612 0
M  V30 507 O 45.197 -1.64675 -1.03501 0
M  V30 508 C 45.48 -2.78441 2.28348 0
M  V30 509 C 45.333 -2.43075 3.78463 0
M  V30 510 C 46.652 -3.80415 2.21298 0
M  V30 511 H 43.771 -0.553169 0.487005 0
M  V30 512 H 46.413 -0.875562 1.68624 0
M  V30 513 H 44.563 -3.33842 1.987 0
M  V30 514 H 46.235 -1.93527 4.18742 0
M  V30 515 H 44.478 -1.75666 3.96641 0
M  V30 516 H 45.149 -3.33149 4.40132 0
M  V30 517 H 47.625 -3.34527 2.47449 0
M  V30 518 H 46.501 -4.66257 2.89647 0
M  V30 519 H 46.762 -4.25262 1.20849 0
M  V30 520 N 45.8211 -1.22559 -0.990812 0
M  V30 521 C 47.0461 -1.07862 -1.77145 0
M  V30 522 C 47.4711 0.366447 -1.84496 0
M  V30 523 O 46.8291 1.26478 -1.29896 0
M  V30 524 C 46.8771 -1.69686 -3.18181 0
M  V30 525 O 45.9811 -0.951946 -4.01263 0
M  V30 526 H 45.3221 -0.378712 -0.545411 0
M  V30 527 H 47.8521 -1.62399 -1.2445 0
M  V30 528 H 47.8621 -1.74496 -3.68802 0
M  V30 529 H 46.5371 -2.74841 -3.12146 0
M  V30 530 H 45.1141 -0.980011 -3.59792 0
M  V30 531 N 47.2992 1.18797 -1.03562 0
M  V30 532 C 48.2622 2.20464 -0.626769 0
M  V30 533 C 49.2622 1.57721 0.313173 0
M  V30 534 O 50.4522 1.73917 0.0992615 0
M  V30 535 C 47.5842 3.40802 0.0818498 0
M  V30 536 H 48.7772 2.58149 -1.5264 0
M  V30 537 H 46.3302 1.32593 -0.827578 0
M  V30 538 H 47.0652 3.08642 0.995518 0
M  V30 539 H 46.8502 3.8758 -0.593652 0
M  V30 540 H 48.3402 4.16092 0.354584 0
M  V30 541 N 48.7773 0.814389 1.34928 0
M  V30 542 C 49.7403 0.235759 2.27984 0
M  V30 543 C 50.7403 -0.581412 1.49921 0
M  V30 544 O 51.9303 -0.398758 1.69575 0
M  V30 545 C 49.0623 -0.670433 3.34242 0
M  V30 546 H 50.2553 1.05659 2.80671 0
M  V30 547 H 47.8083 0.585614 1.44915 0
M  V30 548 H 48.5433 -1.51466 2.86755 0
M  V30 549 H 48.3283 -0.0860822 3.92005 0
M  V30 550 H 49.8183 -1.06935 4.03676 0
M  V30 551 N 50.2554 -1.46986 0.568584 0
M  V30 552 C 51.6664 -1.86188 0.138219 0
M  V30 553 C 52.0174 -1.47388 -1.29504 0
M  V30 554 O 51.1424 -0.88219 -1.97602 0
M  V30 555 C 51.7374 -3.3792 0.244065 0
M  V30 556 C 50.2964 -3.76171 -0.131335 0
M  V30 557 C 49.4434 -2.71027 0.586465 0
M  V30 558 H 52.3944 -1.38342 0.777645 0
M  V30 559 H 52.4154 -3.76729 -0.534351 0
M  V30 560 H 51.9274 -3.66128 1.28731 0
M  V30 561 H 50.0284 -3.5358 -1.17526 0
M  V30 562 H 50.1414 -4.78523 0.235146 0
M  V30 563 H 48.5054 -2.54684 0.0282722 0
M  V30 564 H 49.2884 -3.02077 1.63109 0
M  V30 565 N 51.7335 -0.305618 -1.54608 0
M  V30 566 C 52.9815 0.301701 -1.99835 0
M  V30 567 C 53.3025 1.54054 -1.19551 0
M  V30 568 O 52.5725 1.93702 -0.292658 0
M  V30 569 H 51.1525 0.114468 -0.738178 0
M  V30 570 H 53.8145 -0.418016 -1.90364 0
M  V30 571 H 52.9105 0.570548 -3.06841 0
M  V30 572 N 53.2116 1.57565 -0.0334293 0
M  V30 573 C 54.1586 2.10478 0.946981 0
M  V30 574 C 55.1286 1.00787 1.32027 0
M  V30 575 O 56.3136 1.28232 1.41284 0
M  V30 576 C 53.4536 2.63994 2.22263 0
M  V30 577 C 52.5666 3.87709 1.90541 0
M  V30 578 C 51.7016 4.29604 3.12433 0
M  V30 579 C 50.7406 5.46065 2.76549 0
M  V30 580 N 49.8776 5.83096 3.9108 0
M  V30 581 H 54.7176 2.93963 0.488846 0
M  V30 582 H 52.2546 1.45296 0.22969 0
M  V30 583 H 54.2126 2.93114 2.96884 0
M  V30 584 H 52.8426 1.83333 2.65685 0
M  V30 585 H 51.8946 3.65291 1.06144 0
M  V30 586 H 53.2066 4.72403 1.60116 0
M  V30 587 H 52.3606 4.60182 3.9537 0
M  V30 588 H 51.0996 3.43685 3.46023 0
M  V30 589 H 50.1046 5.15176 1.92026 0
M  V30 590 H 51.3296 6.33685 2.44171 0
M  V30 591 H 49.2756 5.00132 4.24504 0
M  V30 592 H 49.1926 6.6244 3.64293 0
M  V30 593 H 50.4606 6.18282 4.74708 0
M  V30 594 N 54.6897 -0.239769 1.55765 0
M  V30 595 C 55.9357 -0.968234 1.78194 0
M  V30 596 C 56.2687 -1.84701 0.599938 0
M  V30 597 O 55.5437 -1.9031 -0.401524 0
M  V30 598 C 55.8267 -1.8227 3.10564 0
M  V30 599 C 55.6797 -0.971633 4.3918 0
M  V30 600 C 56.9987 -2.80388 3.39221 0
M  V30 601 H 54.1177 -0.350572 0.648281 0
M  V30 602 H 56.7597 -0.238259 1.885 0
M  V30 603 H 54.9097 -2.44507 3.01908 0
M  V30 604 H 56.5817 -0.367408 4.59835 0
M  V30 605 H 54.8247 -0.276276 4.32919 0
M  V30 606 H 55.4957 -1.60346 5.28198 0
M  V30 607 H 57.9717 -2.28287 3.47885 0
M  V30 608 H 56.8477 -3.3729 4.33044 0
M  V30 609 H 57.1087 -3.57212 2.60484 0
M  V30 610 N 56.1678 -1.49265 -0.50573 0
M  V30 611 C 57.4168 -1.57761 -1.25675 0
M  V30 612 C 57.7298 -0.267371 -1.93764 0
M  V30 613 O 58.9358 -0.230827 -2.70517 0
M  V30 614 C 57.3918 -2.78332 -2.28165 0
M  V30 615 C 56.9998 -4.16096 -1.66037 0
M  V30 616 C 58.7438 -2.96155 -3.04125 0
M  V30 617 C 56.6508 -5.27895 -2.6661 0
M  V30 618 H 55.5808 -0.587391 -0.472745 0
M  V30 619 H 58.2318 -1.75644 -0.53118 0
M  V30 620 H 56.6138 -2.53934 -3.03865 0
M  V30 621 H 57.7878 -4.50612 -0.963622 0
M  V30 622 H 56.1028 -4.03591 -1.02484 0
M  V30 623 H 58.6998 -3.76849 -3.79327 0
M  V30 624 H 59.0428 -2.06534 -3.61455 0
M  V30 625 H 59.5758 -3.2057 -2.35541 0
M  V30 626 H 56.3148 -6.1956 -2.14068 0
M  V30 627 H 55.8348 -4.97839 -3.34539 0
M  V30 628 H 57.5138 -5.57031 -3.29129 0
M  V30 629 N 57.6459 0.756429 -1.3826 0
M  V30 630 C 58.8859 1.52833 -1.35725 0
M  V30 631 C 59.2499 1.91926 0.0534106 0
M  V30 632 O 60.4509 2.68028 0.203613 0
M  V30 633 C 58.7219 2.74919 -2.28373 0
M  V30 634 S 60.2809 3.64817 -2.43832 0
M  V30 635 H 57.0989 0.523043 -0.481608 0
M  V30 636 H 59.7009 0.888212 -1.74158 0
M  V30 637 H 58.4049 2.44304 -3.29763 0
M  V30 638 H 57.9359 3.43878 -1.91079 0
M  V30 639 H 59.9509 4.676 -1.66027 0
M  V30 640 N 59.124 1.23083 0.984299 0
M  V30 641 C 60.034 1.02515 2.11016 0
M  V30 642 C 61.05 -0.0291702 1.73976 0
M  V30 643 O 62.226 0.165434 2.00719 0
M  V30 644 C 59.291 0.614673 3.41208 0
M  V30 645 C 58.352 1.74359 3.92297 0
M  V30 646 C 57.585 1.35261 5.16275 0
M  V30 647 O 57.808 0.235136 5.69915 0
M  V30 648 O 56.742 2.17227 5.61334 0
M  V30 649 H 60.568 1.96862 2.31255 0
M  V30 650 H 58.153 1.01753 1.09392 0
M  V30 651 H 60.035 0.396518 4.1953 0
M  V30 652 H 58.71 -0.299851 3.22308 0
M  V30 653 H 57.617 2.01635 3.1511 0
M  V30 654 H 58.95 2.63629 4.15645 0
M  V30 655 N 60.6021 -1.18246 1.0419 0
M  V30 656 C 61.5351 -2.20746 0.578474 0
M  V30 657 C 62.5131 -1.57912 -0.387624 0
M  V30 658 O 63.6971 -1.86071 -0.301634 0
M  V30 659 C 60.8241 -3.38346 -0.154762 0
M  V30 660 C 59.8701 -4.19587 0.764782 0
M  V30 661 S 60.7031 -4.86014 2.24835 0
M  V30 662 C 61.8591 -6.07012 1.526 0
M  V30 663 H 62.0921 -2.59715 1.44691 0
M  V30 664 H 59.6251 -1.287 0.85297 0
M  V30 665 H 61.5831 -4.065 -0.571641 0
M  V30 666 H 60.2441 -2.97786 -0.999105 0
M  V30 667 H 59.4371 -5.03611 0.197976 0
M  V30 668 H 59.0391 -3.56818 1.12057 0
M  V30 669 H 61.3311 -6.72523 0.819733 0
M  V30 670 H 62.2741 -6.68202 2.34333 0
M  V30 671 H 62.6821 -5.55249 1.01779 0
M  V30 672 N 62.0802 -0.821533 -1.34494 0
M  V30 673 C 63.0272 -0.240397 -2.29545 0
M  V30 674 C 63.9972 0.634031 -1.53523 0
M  V30 675 O 65.1822 0.575966 -1.81899 0
M  V30 676 C 62.3222 0.592869 -3.39969 0
M  V30 677 C 61.4352 -0.30365 -4.30932 0
M  V30 678 C 60.5702 0.539049 -5.28458 0
M  V30 679 C 59.6092 -0.356942 -6.11058 0
M  V30 680 N 58.7462 0.446603 -7.00678 0
M  V30 681 H 63.5862 -1.05632 -2.7865 0
M  V30 682 H 61.1232 -0.532413 -1.37127 0
M  V30 683 H 63.0812 1.09129 -4.02675 0
M  V30 684 H 61.7112 1.37392 -2.92102 0
M  V30 685 H 60.7632 -0.920276 -3.691 0
M  V30 686 H 62.0752 -0.992661 -4.88823 0
M  V30 687 H 61.2292 1.102 -5.96608 0
M  V30 688 H 59.9682 1.26157 -4.71101 0
M  V30 689 H 58.9732 -0.932047 -5.41842 0
M  V30 690 H 60.1982 -1.07755 -6.70497 0
M  V30 691 H 58.1442 1.15282 -6.45791 0
M  V30 692 H 58.0612 -0.184048 -7.55776 0
M  V30 693 H 59.3292 0.992352 -7.73158 0
M  V30 694 N 63.5583 1.46682 -0.576371 0
M  V30 695 C 64.8043 2.02712 -0.0596221 0
M  V30 696 C 65.1373 1.44765 1.29448 0
M  V30 697 O 64.4123 0.610355 1.84675 0
M  V30 698 C 64.6953 3.60098 0.0129503 0
M  V30 699 C 64.5483 4.28441 -1.3696 0
M  V30 700 C 65.8673 4.34224 0.71678 0
M  V30 701 H 62.9863 0.736637 -0.0231407 0
M  V30 702 H 65.6283 1.74898 -0.742351 0
M  V30 703 H 63.7783 3.83926 0.594378 0
M  V30 704 H 65.4503 4.15896 -1.9957 0
M  V30 705 H 63.6933 3.8805 -1.93907 0
M  V30 706 H 64.3643 5.3716 -1.27135 0
M  V30 707 H 66.8403 4.15503 0.222908 0
M  V30 708 H 65.7163 5.43936 0.73657 0
M  V30 709 H 65.9773 4.04823 1.77682 0
M  V30 710 N 65.0364 0.313813 1.54444 0
M  V30 711 C 65.9464 -0.565714 2.27677 0
M  V30 712 C 66.9624 -1.13754 1.31666 0
M  V30 713 O 68.1384 -1.15959 1.64668 0
M  V30 714 C 65.2034 -1.71528 3.01296 0
M  V30 715 C 64.2644 -1.17624 4.12872 0
M  V30 716 C 63.4974 -2.27102 4.8297 0
M  V30 717 O 63.7204 -3.47256 4.52514 0
M  V30 718 O 62.6544 -1.9307 5.70094 0
M  V30 719 H 66.4804 0.0287296 3.03686 0
M  V30 720 H 64.0654 0.0798312 1.49187 0
M  V30 721 H 65.9474 -2.38476 3.4743 0
M  V30 722 H 64.6224 -2.29608 2.2817 0
M  V30 723 H 63.5294 -0.472124 3.71109 0
M  V30 724 H 64.8624 -0.640695 4.88012 0
M  V30 725 N 66.5145 -1.57545 0.0417849 0
M  V30 726 C 67.4245 -2.14451 -0.951213 0
M  V30 727 C 68.4405 -1.09992 -1.34825 0
M  V30 728 O 69.6165 -1.42114 -1.42708 0
M  V30 729 C 66.6815 -2.67063 -2.21084 0
M  V30 730 C 65.7425 -3.86284 -1.87304 0
M  V30 731 C 64.9755 -4.36378 -3.07261 0
M  V30 732 O 65.1985 -3.85587 -4.20332 0
M  V30 733 O 64.1325 -5.28077 -2.88822 0
M  V30 734 H 67.9585 -2.99601 -0.497287 0
M  V30 735 H 65.5435 -1.48317 -0.179567 0
M  V30 736 H 67.4255 -3.00914 -2.95006 0
M  V30 737 H 66.1005 -1.84989 -2.65633 0
M  V30 738 H 65.0075 -3.57338 -1.10727 0
M  V30 739 H 66.3405 -4.6956 -1.47562 0
M  V30 740 N 67.9926 0.231505 -1.5589 0
M  V30 741 C 68.9026 1.308 -1.94752 0
M  V30 742 C 69.9186 1.51826 -0.849989 0
M  V30 743 O 71.0946 1.6515 -1.15271 0
M  V30 744 C 68.1596 2.63968 -2.24771 0
M  V30 745 C 67.2206 2.51331 -3.48039 0
M  V30 746 C 66.4536 3.78148 -3.76616 0
M  V30 747 O 66.6766 4.80722 -3.07022 0
M  V30 748 O 65.6106 3.75857 -4.70123 0
M  V30 749 H 69.4366 1.0083 -2.86474 0
M  V30 750 H 67.0216 0.433547 -1.42971 0
M  V30 751 H 68.9036 3.42633 -2.45318 0
M  V30 752 H 67.5786 2.9364 -1.36225 0
M  V30 753 H 66.4856 1.709 -3.32782 0
M  V30 754 H 67.8186 2.26601 -4.36936 0
M  V30 755 N 69.4707 1.49531 0.497807 0
M  V30 756 C 70.4207 1.62829 1.59596 0
M  V30 757 C 71.4047 0.483824 1.53453 0
M  V30 758 O 72.5967 0.736937 1.60929 0
M  V30 759 C 69.7257 1.7011 2.98191 0
M  V30 760 C 68.8117 2.90144 3.09317 0
M  V30 761 N 69.2027 4.1418 2.90324 0
M  V30 762 C 67.5007 2.88148 3.40422 0
M  V30 763 C 68.2017 4.94886 3.05717 0
M  V30 764 N 67.1777 4.28314 3.34736 0
M  V30 765 H 70.9797 2.56446 1.4357 0
M  V30 766 H 68.4937 1.46347 0.704001 0
M  V30 767 H 70.4907 1.77735 3.77115 0
M  V30 768 H 69.1507 0.776315 3.15283 0
M  V30 769 H 70.1617 4.44109 2.66436 0
M  V30 770 H 66.8387 2.05061 3.63671 0
M  V30 771 H 68.2287 6.03432 2.95499 0
M  V30 772 N 70.9488 -0.749086 1.3866 0
M  V30 773 C 72.1768 -1.53834 1.38358 0
M  V30 774 C 72.5918 -1.88783 -0.0255219 0
M  V30 775 O 71.9488 -1.53101 -0.993292 0
M  V30 776 C 71.9998 -2.83468 2.2434 0
M  V30 777 O 71.7208 -2.50008 3.5976 0
M  V30 778 C 73.2218 -3.7758 2.32267 0
M  V30 779 H 70.4418 -0.47585 0.473083 0
M  V30 780 H 72.9858 -0.926726 1.82297 0
M  V30 781 H 71.1408 -3.40995 1.83851 0
M  V30 782 H 71.5548 -3.33182 4.05081 0
M  V30 783 H 73.0288 -4.65478 2.96706 0
M  V30 784 H 73.5058 -4.18334 1.33765 0
M  V30 785 H 74.1118 -3.25976 2.73166 0
M  V30 786 N 72.4269 -1.23603 -0.977757 0
M  V30 787 C 73.3749 -1.01704 -2.09187 0
M  V30 788 C 74.3689 0.0448214 -1.69341 0
M  V30 789 O 75.5749 -0.108902 -1.7967 0
M  V30 790 H 71.9499 -0.311803 -0.684312 0
M  V30 791 H 73.9209 -1.96207 -2.24823 0
M  V30 792 C 72.6699 -0.627746 -3.41986 0
M  V30 793 H 71.9929 -1.43656 -3.73099 0
M  V30 794 H 73.4329 -0.514053 -4.20872 0
M  V30 795 C 71.8919 0.664238 -3.30287 0
M  V30 796 O 72.4219 1.71268 -3.6336 0
M  V30 797 N 70.6279 0.641156 -2.83439 0
M  V30 798 H 70.1749 -0.212376 -2.56723 0
M  V30 799 H 70.1329 1.50583 -2.75993 0
M  V30 800 N 73.905 1.17692 -1.04816 0
M  V30 801 C 74.868 2.19787 -0.650117 0
M  V30 802 C 75.868 1.58044 0.296427 0
M  V30 803 O 77.058 1.74012 0.0808097 0
M  V30 804 C 74.19 3.40869 0.0456987 0
M  V30 805 H 75.383 2.56516 -1.5537 0
M  V30 806 H 72.936 1.31708 -0.841594 0
M  V30 807 H 73.671 3.09681 0.962726 0
M  V30 808 H 73.456 3.86928 -0.634727 0
M  V30 809 H 74.946 4.16445 0.310432 0
M  V30 810 N 75.3831 0.828654 1.34056 0
M  V30 811 C 76.6321 0.415828 1.97367 0
M  V30 812 C 76.9451 -1.02796 1.6641 0
M  V30 813 O 78.1511 -1.54497 2.23255 0
M  V30 814 C 76.6071 0.692601 3.53173 0
M  V30 815 C 76.2151 2.15038 3.93017 0
M  V30 816 C 77.9591 0.346222 4.23086 0
M  V30 817 C 75.8661 2.37174 5.41758 0
M  V30 818 H 74.7961 0.151755 0.738571 0
M  V30 819 H 77.4471 1.01581 1.52819 0
M  V30 820 H 75.8291 0.0223764 3.95994 0
M  V30 821 H 77.0031 2.86024 3.61285 0
M  V30 822 H 75.3181 2.45875 3.36057 0
M  V30 823 H 77.9151 0.48937 5.32456 0
M  V30 824 H 78.2581 -0.709842 4.10204 0
M  V30 825 H 78.7911 0.971258 3.85761 0
M  V30 826 H 75.5301 3.41308 5.59633 0
M  V30 827 H 75.0501 1.70738 5.74986 0
M  V30 828 H 76.7291 2.19818 6.08514 0
M  V30 829 N 76.8612 -1.46375 0.584142 0
M  V30 830 C 78.1092 -2.01978 0.0701287 0
M  V30 831 C 78.4302 -1.4579 -1.295 0
M  V30 832 O 77.7002 -0.64314 -1.85042 0
M  V30 833 H 76.2802 -0.746648 0.0229345 0
M  V30 834 H 78.9422 -1.79461 0.760245 0
M  V30 835 H 78.0382 -3.121 0.0022064 0
M  V30 836 N 78.3393 -0.321999 -1.54275 0
M  V30 837 C 79.5673 0.283052 -2.04955 0
M  V30 838 C 79.9823 1.45904 -1.19823 0
M  V30 839 O 79.3393 1.81063 -0.228545 0
M  V30 840 C 79.3903 0.719028 -3.54277 0
M  V30 841 O 79.1113 -0.410175 -4.36176 0
M  V30 842 C 80.6123 1.38705 -4.21041 0
M  V30 843 H 77.8323 0.0584616 -0.668448 0
M  V30 844 H 80.3763 -0.467734 -1.99079 0
M  V30 845 H 78.5313 1.41979 -3.60445 0
M  V30 846 H 78.9453 -0.0669416 -5.24457 0
M  V30 847 H 80.4193 1.64306 -5.2698 0
M  V30 848 H 80.8963 2.33385 -3.72059 0
M  V30 849 H 81.5023 0.728906 -4.19007 0
M  V30 850 N 79.8174 1.5752 -0.0501392 0
M  V30 851 C 80.7474 2.14502 0.922566 0
M  V30 852 C 81.7284 1.06642 1.3252 0
M  V30 853 O 82.9134 1.34577 1.4001 0
M  V30 854 C 80.0434 2.68916 2.19776 0
M  V30 855 C 78.9974 3.8175 1.93523 0
M  V30 856 C 78.3234 4.22677 3.27487 0
M  V30 857 C 79.6234 5.06932 1.25765 0
M  V30 858 H 81.3174 2.9603 0.447952 0
M  V30 859 H 78.8634 1.42401 0.214024 0
M  V30 860 H 80.8164 3.07419 2.88222 0
M  V30 861 H 79.5404 1.84578 2.69441 0
M  V30 862 H 78.1994 3.43718 1.27489 0
M  V30 863 H 77.8474 3.35291 3.74952 0
M  V30 864 H 77.5474 4.98725 3.1072 0
M  V30 865 H 79.0714 4.63779 3.97166 0
M  V30 866 H 80.4854 5.42888 1.84244 0
M  V30 867 H 78.8824 5.88116 1.19328 0
M  V30 868 H 79.9524 4.84337 0.233536 0
M  V30 869 N 81.2955 -0.223234 1.56011 0
M  V30 870 C 82.2455 -1.28008 1.88674 0
M  V30 871 C 83.2295 -1.42369 0.749663 0
M  V30 872 O 84.4215 -1.45212 1.01205 0
M  V30 873 C 81.5505 -2.63084 2.20548 0
M  V30 874 C 80.6365 -2.52632 3.40643 0
M  V30 875 N 81.0275 -2.11829 4.59306 0
M  V30 876 C 79.3255 -2.83594 3.44224 0
M  V30 877 C 80.0265 -2.12587 5.41463 0
M  V30 878 N 79.0025 -2.5301 4.81131 0
M  V30 879 H 82.8045 -0.955487 2.77935 0
M  V30 880 H 80.3185 -0.431801 1.56554 0
M  V30 881 H 82.3155 -3.39385 2.42122 0
M  V30 882 H 80.9755 -2.96391 1.32599 0
M  V30 883 H 81.9865 -1.82988 4.84496 0
M  V30 884 H 78.6635 -3.21284 2.66614 0
M  V30 885 H 80.0535 -1.83179 6.46448 0
M  V30 886 N 82.7736 -1.49793 -0.48987 0
M  V30 887 C 84.0216 -1.59525 -1.24081 0
M  V30 888 C 84.3426 -0.288953 -1.92847 0
M  V30 889 O 83.6126 0.692436 -1.83254 0
M  V30 890 H 82.1926 -0.587796 -0.460983 0
M  V30 891 H 84.8546 -1.86477 -0.566778 0
M  V30 892 H 83.9506 -2.39696 -1.99881 0
M  V30 893 N 84.2517 0.741722 -1.39055 0
M  V30 894 C 85.4997 1.49818 -1.35643 0
M  V30 895 C 85.8207 1.94938 0.0491642 0
M  V30 896 O 85.0907 1.68505 0.999141 0
M  V30 897 H 83.6707 0.555755 -0.499144 0
M  V30 898 H 86.3327 0.880957 -1.73854 0
M  V30 899 H 85.4287 2.38348 -2.01486 0
M  V30 900 N 85.7298 1.2412 0.971189 0
M  V30 901 C 86.6598 1.05508 2.08304 0
M  V30 902 C 87.6408 -0.0308864 1.70072 0
M  V30 903 O 88.8258 0.135521 1.93727 0
M  V30 904 C 85.9558 0.655365 3.4106 0
M  V30 905 C 84.9098 1.68971 3.93234 0
M  V30 906 C 84.2358 1.14516 5.22293 0
M  V30 907 C 85.5358 3.08487 4.21465 0
M  V30 908 H 87.2298 1.98507 2.24132 0
M  V30 909 H 84.7758 0.955821 1.07704 0
M  V30 910 H 86.7288 0.51217 4.18276 0
M  V30 911 H 85.4528 -0.31032 3.25122 0
M  V30 912 H 84.1118 1.82106 3.18171 0
M  V30 913 H 83.7598 0.170189 5.02712 0
M  V30 914 H 83.4598 1.83635 5.58168 0
M  V30 915 H 84.9838 1.01401 6.02121 0
M  V30 916 H 86.3978 2.98601 4.89398 0
M  V30 917 H 84.7948 3.74926 4.68562 0
M  V30 918 H 85.8648 3.56787 3.28376 0
M  V30 919 N 87.2079 -1.17134 1.05439 0
M  V30 920 C 88.4359 -1.91372 0.786414 0
M  V30 921 C 88.8509 -1.76955 -0.658202 0
M  V30 922 O 88.2079 -1.10838 -1.44987 0
M  V30 923 C 88.2589 -3.42356 1.1608 0
M  V30 924 O 87.9799 -3.56332 2.54871 0
M  V30 925 C 89.4809 -4.33663 0.919322 0
M  V30 926 H 86.7009 -0.607118 0.285743 0
M  V30 927 H 89.2449 -1.48525 1.40572 0
M  V30 928 H 87.3999 -3.82939 0.586191 0
M  V30 929 H 87.8139 -4.49896 2.69618 0
M  V30 930 H 89.2879 -5.38099 1.231 0
M  V30 931 H 89.7649 -4.38959 -0.145359 0
M  V30 932 H 90.3709 -3.98796 1.47789 0
M  V30 933 N 88.686 -0.835752 -1.33615 0
M  V30 934 C 89.649 -0.272 -2.2758 0
M  V30 935 C 90.649 0.557487 -1.50827 0
M  V30 936 O 91.839 0.37173 -1.70188 0
M  V30 937 C 88.971 0.617173 -3.35267 0
M  V30 938 H 90.164 -1.10111 -2.78954 0
M  V30 939 H 87.717 -0.608594 -1.43965 0
M  V30 940 H 88.452 1.46884 -2.89129 0
M  V30 941 H 88.237 0.0237066 -3.92093 0
M  V30 942 H 89.727 1.005 -4.05326 0
M  V30 943 N 90.1641 1.46063 -0.591896 0
M  V30 944 C 91.3921 2.06717 -0.0868936 0
M  V30 945 C 91.8071 1.43916 1.22203 0
M  V30 946 O 91.1641 0.547698 1.74088 0
M  V30 947 C 91.2151 3.6142 0.0758725 0
M  V30 948 O 90.9361 4.21874 -1.18126 0
M  V30 949 C 92.4371 4.39025 0.61416 0
M  V30 950 H 89.6571 0.668162 -0.0616518 0
M  V30 951 H 92.2011 1.8755 -0.815175 0
M  V30 952 H 90.3561 3.79983 0.754413 0
M  V30 953 H 90.7701 5.14861 -1.00092 0
M  V30 954 H 92.2441 5.4783 0.677193 0
M  V30 955 H 92.7211 4.07708 1.63312 0
M  V30 956 H 93.3271 4.2529 -0.0298142 0
M  V30 957 N 91.6422 0.330177 1.54103 0
M  V30 958 C 92.5722 -0.525353 2.27513 0
M  V30 959 C 93.5532 -1.11383 1.2856 0
M  V30 960 O 94.7382 -1.13773 1.57383 0
M  V30 961 C 91.8682 -1.6831 3.03791 0
M  V30 962 C 90.8222 -1.2236 4.10137 0
M  V30 963 C 90.1482 -2.46882 4.74293 0
M  V30 964 C 91.4482 -0.333697 5.21233 0
M  V30 965 H 93.1422 0.087013 2.99274 0
M  V30 966 H 90.6882 0.0432893 1.43935 0
M  V30 967 H 92.6412 -2.28795 3.5388 0
M  V30 968 H 91.3652 -2.32216 2.29659 0
M  V30 969 H 90.0242 -0.64165 3.60941 0
M  V30 970 H 89.6722 -3.09165 3.96769 0
M  V30 971 H 89.3722 -2.16825 5.46133 0
M  V30 972 H 90.8962 -3.08117 5.27159 0
M  V30 973 H 92.3102 -0.845013 5.67038 0
M  V30 974 H 90.7072 -0.125612 5.99969 0
M  V30 975 H 91.7772 0.633724 4.80741 0
M  V30 976 N 93.1203 -1.57491 0.0584922 0
M  V30 977 C 94.3663 -1.93264 -0.614558 0
M  V30 978 C 94.6993 -0.937717 -1.7006 0
M  V30 979 O 93.9743 0.0351652 -1.94468 0
M  V30 980 C 94.2573 -3.3938 -1.20386 0
M  V30 981 C 94.1103 -4.49625 -0.125375 0
M  V30 982 C 95.4293 -3.86039 -2.11334 0
M  V30 983 H 92.5483 -0.702791 -0.221933 0
M  V30 984 H 95.1903 -1.8961 0.12175 0
M  V30 985 H 93.3403 -3.42626 -1.83139 0
M  V30 986 H 95.0123 -4.58506 0.506971 0
M  V30 987 H 93.2553 -4.30354 0.545672 0
M  V30 988 H 93.9263 -5.48967 -0.577861 0
M  V30 989 H 96.4023 -3.84716 -1.58534 0
M  V30 990 H 95.2783 -4.88914 -2.49507 0
M  V30 991 H 95.5393 -3.23215 -3.01636 0
M  V30 992 N 94.5984 0.214957 -1.56127 0
M  V30 993 C 95.8754 0.963093 -1.70247 0
M  V30 994 C 96.2554 2.02166 -0.60764 0
M  V30 995 O 95.6034 2.25244 0.384385 0
M  V30 996 C 95.8134 1.56756 -3.11815 0
M  V30 997 C 97.1614 2.0573 -3.7143 0
M  V30 998 O 98.1854 1.66637 -3.14818 0
M  V30 999 O 97.0444 2.77603 -4.70743 0
M  V30 1000 H 94.1384 0.450321 -0.693643 0
M  V30 1001 H 96.6844 0.206219 -1.68442 0
M  V30 1002 H 95.4564 0.803533 -3.82961 0
M  V30 1003 H 95.0794 2.3898 -3.17765 0
M  V30 1004 N 96.0765 1.50051 0.48192 0
M  V30 1005 C 97.0245 1.68635 1.60203 0
M  V30 1006 C 98.0185 0.552184 1.60148 0
M  V30 1007 O 99.2245 0.732377 1.64427 0
M  V30 1008 H 95.5995 0.532081 0.531407 0
M  V30 1009 H 97.5705 2.62616 1.41688 0
M  V30 1010 C 96.3195 1.78775 2.9822 0
M  V30 1011 H 95.6425 2.6543 2.98976 0
M  V30 1012 H 97.0825 1.95806 3.7608 0
M  V30 1013 C 95.5415 0.536849 3.32595 0
M  V30 1014 O 96.0715 -0.328897 4.00351 0
M  V30 1015 N 94.2775 0.394091 2.87915 0
M  V30 1016 H 93.8245 1.09962 2.32951 0
M  V30 1017 H 93.7825 -0.441737 3.11281 0
M  V30 1018 N 97.5546 -0.734337 1.39446 0
M  V30 1019 C 98.8036 -1.48937 1.36017 0
M  V30 1020 C 99.1166 -1.95557 -0.0409005 0
M  V30 1021 O 100.323 -2.70779 -0.19778 0
M  V30 1022 C 98.7786 -2.69125 2.38955 0
M  V30 1023 C 98.3866 -2.29452 3.8478 0
M  V30 1024 C 100.131 -3.46944 2.44603 0
M  V30 1025 C 98.0376 -3.46366 4.79358 0
M  V30 1026 H 96.9676 -0.559296 0.505672 0
M  V30 1027 H 99.6186 -0.800983 1.65095 0
M  V30 1028 H 98.0006 -3.40041 2.02948 0
M  V30 1029 H 99.1746 -1.66077 4.29831 0
M  V30 1030 H 97.4896 -1.64723 3.82433 0
M  V30 1031 H 100.087 -4.33907 3.12456 0
M  V30 1032 H 100.43 -3.89454 1.47076 0
M  V30 1033 H 100.963 -2.83056 2.79507 0
M  V30 1034 H 97.7016 -3.08905 5.78151 0
M  V30 1035 H 97.2216 -4.08719 4.38986 0
M  V30 1036 H 98.9006 -4.12691 4.98292 0
M  V30 1037 N 99.0327 -1.24633 -0.964593 0
M  V30 1038 C 100.258 -1.11596 -1.74818 0
M  V30 1039 C 100.683 0.32723 -1.85232 0
M  V30 1040 O 100.041 1.23695 -1.32549 0
M  V30 1041 C 100.089 -1.76397 -3.1451 0
M  V30 1042 O 99.1927 -1.03685 -3.99153 0
M  V30 1043 H 98.5337 -0.390196 -0.537255 0
M  V30 1044 H 101.064 -1.65002 -1.20977 0
M  V30 1045 H 101.074 -1.8228 -3.65018 0
M  V30 1046 H 99.7487 -2.81401 -3.06246 0
M  V30 1047 H 98.3257 -1.05611 -3.57632 0
M  V30 1048 N 100.511 1.16574 -1.06058 0
M  V30 1049 C 101.739 1.90952 -0.796552 0
M  V30 1050 C 102.154 1.77302 0.648808 0
M  V30 1051 O 101.511 1.11605 1.44397 0
M  V30 1052 C 101.562 3.41736 -1.17894 0
M  V30 1053 O 101.283 3.54975 -2.56758 0
M  V30 1054 C 102.784 4.33169 -0.942308 0
M  V30 1055 H 100.004 0.605594 -0.288959 0
M  V30 1056 H 102.548 1.47777 -1.41358 0
M  V30 1057 H 100.703 3.82623 -0.606491 0
M  V30 1058 H 101.117 4.4846 -2.72 0
M  V30 1059 H 102.591 5.37439 -1.25952 0
M  V30 1060 H 103.068 4.3903 0.122078 0
M  V30 1061 H 103.674 3.98007 -1.49902 0
M  V30 1062 N 101.989 0.842826 1.3317 0
M  V30 1063 C 102.922 0.223862 2.27099 0
M  V30 1064 C 103.9 -0.631311 1.49844 0
M  V30 1065 O 105.084 -0.590708 1.79005 0
M  V30 1066 C 102.211 -0.685313 3.31694 0
M  V30 1067 C 101.257 0.094919 4.26394 0
M  V30 1068 S 102.09 1.45546 5.15341 0
M  V30 1069 C 103.246 0.551685 6.23464 0
M  V30 1070 H 103.479 1.02015 2.79249 0
M  V30 1071 H 101.012 0.639797 1.4052 0
M  V30 1072 H 102.97 -1.20426 3.92438 0
M  V30 1073 H 101.631 -1.4553 2.78352 0
M  V30 1074 H 100.824 -0.597059 5.00451 0
M  V30 1075 H 100.426 0.545054 3.70007 0
M  V30 1076 H 102.718 -0.248877 6.77043 0
M  V30 1077 H 103.661 1.26253 6.96754 0
M  V30 1078 H 104.069 0.131275 5.64347 0
M  V30 1079 N 103.467 -1.45747 0.599634 0
M  V30 1080 C 104.43 -2.28917 -0.113835 0
M  V30 1081 C 105.43 -1.3933 -0.802729 0
M  V30 1082 O 106.62 -1.61534 -0.652103 0
M  V30 1083 C 103.752 -3.20152 -1.17114 0
M  V30 1084 H 104.945 -2.93478 0.617289 0
M  V30 1085 H 102.498 -1.52137 0.358327 0
M  V30 1086 H 103.233 -2.60374 -1.93329 0
M  V30 1087 H 103.018 -3.86133 -0.681468 0
M  V30 1088 H 104.508 -3.82708 -1.67105 0
M  V30 1089 N 104.945 -0.338344 -1.53925 0
M  V30 1090 C 105.875 0.51328 -2.27789 0
M  V30 1091 C 106.856 1.107 -1.29149 0
M  V30 1092 O 108.041 1.12937 -1.57984 0
M  V30 1093 C 105.171 1.66697 -3.04679 0
M  V30 1094 C 104.125 1.20183 -4.1078 0
M  V30 1095 C 103.451 2.44363 -4.75595 0
M  V30 1096 C 104.751 0.30605 -5.21403 0
M  V30 1097 H 106.445 -0.102883 -2.99223 0
M  V30 1098 H 103.991 -0.0509219 -1.4391 0
M  V30 1099 H 105.944 2.26915 -3.55088 0
M  V30 1100 H 104.668 2.30995 -2.30887 0
M  V30 1101 H 103.327 0.622499 -3.61276 0
M  V30 1102 H 102.975 3.07057 -3.98403 0
M  V30 1103 H 102.675 2.13925 -5.47275 0
M  V30 1104 H 104.199 3.05317 -5.28786 0
M  V30 1105 H 105.613 0.814929 -5.67478 0
M  V30 1106 H 104.01 0.0937929 -6.00027 0
M  V30 1107 H 105.08 -0.65921 -4.80398 0
M  V30 1108 N 106.423 1.57458 -0.0668435 0
M  V30 1109 C 107.353 2.15468 0.899764 0
M  V30 1110 C 108.334 1.08042 1.31381 0
M  V30 1111 O 109.519 1.36054 1.38574 0
M  V30 1112 C 106.649 2.71232 2.16911 0
M  V30 1113 C 105.603 3.83781 1.89463 0
M  V30 1114 C 104.929 4.26127 3.22986 0
M  V30 1115 C 106.229 5.08238 1.20381 0
M  V30 1116 H 107.923 2.96488 0.416529 0
M  V30 1117 H 105.469 1.4262 0.198908 0
M  V30 1118 H 107.422 3.10458 2.84945 0
M  V30 1119 H 106.146 1.87426 2.67468 0
M  V30 1120 H 104.805 3.45051 1.23836 0
M  V30 1121 H 104.453 3.39249 3.71374 0
M  V30 1122 H 104.153 5.01993 3.05413 0
M  V30 1123 H 105.677 4.67966 3.92225 0
M  V30 1124 H 107.091 5.44811 1.78475 0
M  V30 1125 H 105.488 5.89349 1.13083 0
M  V30 1126 H 106.558 4.84558 0.182153 0
M  V30 1127 N 107.901 -0.206675 1.56239 0
M  V30 1128 C 109.141 -0.93574 1.81723 0
M  V30 1129 C 109.505 -1.80927 0.642609 0
M  V30 1130 O 110.706 -2.57323 0.777081 0
M  V30 1131 C 108.977 -1.74012 3.12177 0
M  V30 1132 S 110.536 -2.52279 3.59028 0
M  V30 1133 H 107.354 -0.314065 0.637875 0
M  V30 1134 H 109.956 -0.200071 1.94474 0
M  V30 1135 H 108.66 -1.0888 3.95693 0
M  V30 1136 H 108.191 -2.51782 3.02274 0
M  V30 1137 H 110.206 -3.76209 3.23545 0
M  V30 1138 N 109.379 -1.50304 -0.473955 0
M  V30 1139 C 110.607 -1.64902 -1.24959 0
M  V30 1140 C 111.022 -0.331198 -1.85872 0
M  V30 1141 O 110.379 0.68652 -1.69095 0
M  V30 1142 C 110.43 -2.73803 -2.36038 0
M  V30 1143 O 110.151 -4.00477 -1.77624 0
M  V30 1144 C 111.652 -2.99349 -3.26964 0
M  V30 1145 H 108.872 -0.554383 -0.378022 0
M  V30 1146 H 111.416 -1.9651 -0.566054 0
M  V30 1147 H 109.571 -2.44898 -3.00173 0
M  V30 1148 H 109.985 -4.60678 -2.5075 0
M  V30 1149 H 111.459 -3.79217 -4.01121 0
M  V30 1150 H 111.936 -2.10307 -3.85574 0
M  V30 1151 H 112.542 -3.29774 -2.68569 0
M  V30 1152 N 110.857 0.726932 -1.39834 0
M  V30 1153 C 111.767 1.87131 -1.41489 0
M  V30 1154 C 112.783 1.71239 -0.308757 0
M  V30 1155 O 113.959 1.93701 -0.551529 0
M  V30 1156 C 111.024 3.22811 -1.26468 0
M  V30 1157 C 110.085 3.51039 -2.47124 0
M  V30 1158 C 109.318 4.80245 -2.3281 0
M  V30 1159 O 109.541 5.54537 -1.33585 0
M  V30 1160 O 108.475 5.08554 -3.21957 0
M  V30 1161 H 112.301 1.8869 -2.3797 0
M  V30 1162 H 109.886 0.875837 -1.21035 0
M  V30 1163 H 111.768 4.03877 -1.20255 0
M  V30 1164 H 110.443 3.22005 -0.330862 0
M  V30 1165 H 109.35 2.70027 -2.58914 0
M  V30 1166 H 110.683 3.56632 -3.39227 0
M  V30 1167 N 112.336 1.25143 0.95797 0
M  V30 1168 C 113.752 1.01892 1.22842 0
M  V30 1169 C 113.952 -0.266311 1.99732 0
M  V30 1170 O 113.008 -0.979913 2.3271 0
M  V30 1171 C 114.321 2.24004 2.00606 0
M  V30 1172 C 115.869 2.28731 2.13662 0
M  V30 1173 C 116.344 3.5049 2.94823 0
M  V30 1174 N 117.835 3.50866 3.02403 0
M  V30 1175 C 118.57 4.4174 3.65586 0
M  V30 1176 N 118.066 5.42882 4.30408 0
M  V30 1177 N 119.859 4.29429 3.62694 0
M  V30 1178 H 112.01 2.07718 0.443493 0
M  V30 1179 H 114.273 0.912031 0.258657 0
M  V30 1180 H 113.979 3.17395 1.51503 0
M  V30 1181 H 113.853 2.26907 3.01319 0
M  V30 1182 H 116.24 1.35865 2.61963 0
M  V30 1183 H 116.321 2.29848 1.12265 0
M  V30 1184 H 115.965 4.43676 2.47213 0
M  V30 1185 H 115.895 3.46617 3.96439 0
M  V30 1186 H 118.386 2.777 2.56302 0
M  V30 1187 H 118.699 6.0844 4.76467 0
M  V30 1188 H 117.044 5.46758 4.29047 0
M  V30 1189 H 120.235 3.49643 3.11236 0
M  V30 1190 H 120.408 5.00448 4.1165 0
M  V30 1191 N 113.814 -1.1601 1.06675 0
M  V30 1192 C 115.062 -1.86264 0.784229 0
M  V30 1193 C 115.383 -1.82328 -0.691488 0
M  V30 1194 O 114.653 -1.25947 -1.50047 0
M  V30 1195 H 113.233 -0.689621 0.28711 0
M  V30 1196 H 115.895 -1.40664 1.34906 0
M  V30 1197 H 114.991 -2.91595 1.11259 0
M  V30 1198 N 115.292 -0.849877 -1.32721 0
M  V30 1199 C 116.255 -0.296122 -2.27279 0
M  V30 1200 C 117.255 0.541458 -1.5141 0
M  V30 1201 O 118.445 0.353658 -1.70572 0
M  V30 1202 C 115.577 0.581579 -3.35902 0
M  V30 1203 H 116.77 -1.13064 -2.77771 0
M  V30 1204 H 114.323 -0.62383 -1.43311 0
M  V30 1205 H 115.058 1.43809 -2.9067 0
M  V30 1206 H 114.843 -0.0178814 -3.92096 0
M  V30 1207 H 116.333 0.961951 -4.0637 0
M  V30 1208 N 116.77 1.45427 -0.607355 0
M  V30 1209 C 118.181 1.85756 -0.187535 0
M  V30 1210 C 118.532 1.5077 1.25551 0
M  V30 1211 O 117.657 0.93427 1.95193 0
M  V30 1212 C 118.252 3.37154 -0.333572 0
M  V30 1213 C 116.811 3.76387 0.0315542 0
M  V30 1214 C 115.958 2.69377 -0.658117 0
M  V30 1215 H 118.909 1.36231 -0.81405 0
M  V30 1216 H 118.93 3.78014 0.43428 0
M  V30 1217 H 118.442 3.62586 -1.38393 0
M  V30 1218 H 116.543 3.56571 1.0811 0
M  V30 1219 H 116.656 4.77731 -0.361935 0
M  V30 1220 H 115.02 2.5452 -0.0957873 0
M  V30 1221 H 115.803 2.97646 -1.7106 0
M  V30 1222 N 118.248 0.346503 1.53744 0
M  V30 1223 C 119.496 -0.248612 2.00565 0
M  V30 1224 C 119.817 -1.5083 1.23593 0
M  V30 1225 O 119.087 -1.92858 0.343912 0
M  V30 1226 H 117.667 -0.0948564 0.740953 0
M  V30 1227 H 120.329 0.468341 1.89189 0
M  V30 1228 H 119.425 -0.488994 3.08245 0
M  V30 1229 N 119.726 -1.57421 0.075193 0
M  V30 1230 C 120.972 -1.93905 -0.594025 0
M  V30 1231 C 121.305 -0.955701 -1.69056 0
M  V30 1232 O 120.58 0.0145373 -1.94495 0
M  V30 1233 C 120.863 -3.40638 -1.1678 0
M  V30 1234 C 120.716 -4.49733 -0.0776792 0
M  V30 1235 C 122.035 -3.88259 -2.07228 0
M  V30 1236 H 119.154 -0.705105 -0.214466 0
M  V30 1237 H 121.796 -1.8947 0.141854 0
M  V30 1238 H 119.946 -3.44549 -1.79494 0
M  V30 1239 H 121.618 -4.57942 0.555573 0
M  V30 1240 H 119.861 -4.29751 0.591286 0
M  V30 1241 H 120.532 -5.49549 -0.519603 0
M  V30 1242 H 123.008 -3.86376 -1.54445 0
M  V30 1243 H 121.884 -4.91533 -2.44308 0
M  V30 1244 H 122.145 -3.26396 -2.98191 0
M  V30 1245 N 121.204 0.198386 -1.56346 0
M  V30 1246 C 122.429 0.939682 -1.84891 0
M  V30 1247 C 122.854 1.76202 -0.658369 0
M  V30 1248 O 122.212 1.76993 0.392851 0
M  V30 1249 C 122.26 1.81428 -3.11635 0
M  V30 1250 O 121.364 2.91265 -2.91956 0
M  V30 1251 H 120.705 0.264807 -0.608912 0
M  V30 1252 H 123.235 0.204695 -2.03573 0
M  V30 1253 H 123.245 2.21958 -3.42343 0
M  V30 1254 H 121.92 1.21004 -3.97908 0
M  V30 1255 H 120.497 2.54514 -2.72538 0
M  V30 1256 N 122.682 1.50554 0.465978 0
M  V30 1257 C 123.928 1.62038 1.21949 0
M  V30 1258 C 124.261 0.322116 1.9151 0
M  V30 1259 O 123.536 -0.676723 1.82348 0
M  V30 1260 C 123.819 2.80421 2.25912 0
M  V30 1261 C 123.672 4.20144 1.60622 0
M  V30 1262 C 124.991 2.94354 3.27176 0
M  V30 1263 H 122.11 0.589752 0.441998 0
M  V30 1264 H 124.752 1.82956 0.51257 0
M  V30 1265 H 122.902 2.62717 2.86203 0
M  V30 1266 H 124.574 4.49449 1.03889 0
M  V30 1267 H 122.817 4.24165 0.909211 0
M  V30 1268 H 123.488 4.98914 2.36196 0
M  V30 1269 H 125.964 3.10578 2.76913 0
M  V30 1270 H 124.84 3.788 3.97242 0
M  V30 1271 H 125.101 2.05186 3.916 0
M  V30 1272 N 124.16 -0.719506 1.40217 0
M  V30 1273 C 125.437 -1.47221 1.28784 0
M  V30 1274 C 125.817 -2.10883 -0.0956067 0
M  V30 1275 O 125.165 -1.99833 -1.10811 0
M  V30 1276 C 125.375 -2.5111 2.42373 0
M  V30 1277 C 126.723 -3.17053 2.82423 0
M  V30 1278 O 127.747 -2.61429 2.41937 0
M  V30 1279 O 126.606 -4.17742 3.52355 0
M  V30 1280 H 123.7 -0.654491 0.50554 0
M  V30 1281 H 126.246 -0.752014 1.52128 0
M  V30 1282 H 125.018 -2.02556 3.34793 0
M  V30 1283 H 124.641 -3.3067 2.20778 0
M  V30 1284 N 125.638 -1.25649 -0.95132 0
M  V30 1285 C 126.571 -1.00644 -2.04807 0
M  V30 1286 C 127.549 0.0654271 -1.62468 0
M  V30 1287 O 128.733 -0.074911 -1.88351 0
M  V30 1288 C 125.86 -0.522052 -3.34653 0
M  V30 1289 C 124.906 -1.58495 -3.95957 0
M  V30 1290 S 125.739 -3.17108 -4.31512 0
M  V30 1291 C 126.895 -2.70412 -5.64471 0
M  V30 1292 H 127.128 -1.93508 -2.25703 0
M  V30 1293 H 124.661 -1.09216 -1.09139 0
M  V30 1294 H 126.619 -0.24923 -4.09743 0
M  V30 1295 H 125.28 0.386146 -3.11717 0
M  V30 1296 H 124.473 -1.1968 -4.89584 0
M  V30 1297 H 124.075 -1.80862 -3.2736 0
M  V30 1298 H 126.367 -2.14245 -6.42733 0
M  V30 1299 H 127.31 -3.62693 -6.08161 0
M  V30 1300 H 127.718 -2.10302 -5.23864 0
M  V30 1301 N 127.117 1.15442 -1.07289 0
M  V30 1302 C 128.065 2.22225 -0.686952 0
M  V30 1303 C 129.059 1.66688 0.30193 0
M  V30 1304 O 130.265 1.79236 0.165712 0
M  V30 1305 H 126.64 0.723783 -0.204064 0
M  V30 1306 H 128.611 2.52056 -1.5972 0
M  V30 1307 C 127.36 3.47556 -0.100149 0
M  V30 1308 H 126.683 3.90612 -0.852211 0
M  V30 1309 H 128.123 4.23794 0.132235 0
M  V30 1310 C 126.582 3.16337 1.159 0
M  V30 1311 O 127.112 3.33074 2.24555 0
M  V30 1312 N 125.318 2.70385 1.06491 0
M  V30 1313 H 124.865 2.56966 0.180668 0
M  V30 1314 H 124.823 2.49871 1.90819 0
M  V30 1315 N 128.595 0.856903 1.32268 0
M  V30 1316 C 129.844 0.457599 1.96441 0
M  V30 1317 C 130.157 -0.992426 1.68553 0
M  V30 1318 O 131.363 -1.49727 2.26482 0
M  V30 1319 C 129.819 0.767358 3.51624 0
M  V30 1320 C 129.427 2.23326 3.88367 0
M  V30 1321 C 131.171 0.435887 4.22256 0
M  V30 1322 C 129.078 2.48613 5.36606 0
M  V30 1323 H 128.008 0.167387 0.735185 0
M  V30 1324 H 130.659 1.048 1.5063 0
M  V30 1325 H 129.041 0.106367 3.95857 0
M  V30 1326 H 130.215 2.93623 3.55137 0
M  V30 1327 H 128.53 2.52948 3.30766 0
M  V30 1328 H 131.127 0.602202 5.31298 0
M  V30 1329 H 131.47 -0.622672 4.11617 0
M  V30 1330 H 132.003 1.05286 3.83614 0
M  V30 1331 H 128.742 3.53101 5.52268 0
M  V30 1332 H 128.262 1.82896 5.71235 0
M  V30 1333 H 129.941 2.32676 6.03714 0
M  V30 1334 N 130.073 -1.45103 0.615059 0
M  V30 1335 C 131.301 -2.06553 0.11977 0
M  V30 1336 C 131.716 -1.45842 -1.19898 0
M  V30 1337 O 131.073 -0.575325 -1.73194 0
M  V30 1338 C 131.124 -3.61495 -0.018364 0
M  V30 1339 O 130.845 -4.19942 1.24822 0
M  V30 1340 C 132.346 -4.39947 -0.544237 0
M  V30 1341 H 129.566 -0.667096 0.0722739 0
M  V30 1342 H 132.11 -1.8623 0.84491 0
M  V30 1343 H 130.265 -3.81135 -0.693865 0
M  V30 1344 H 130.679 -5.13204 1.0827 0
M  V30 1345 H 132.153 -5.48838 -0.589953 0
M  V30 1346 H 132.63 -4.10255 -1.56805 0
M  V30 1347 H 133.236 -4.25188 0.0974703 0
M  V30 1348 N 131.551 -0.354651 -1.53558 0
M  V30 1349 C 132.781 0.239167 -2.05211 0
M  V30 1350 C 133.189 1.43879 -1.22863 0
M  V30 1351 O 132.532 1.81857 -0.259565 0
M  V30 1352 C 132.594 0.707251 -3.52474 0
M  V30 1353 C 132.258 -0.374212 -4.55465 0
M  V30 1354 C 133.255 -1.22054 -5.0537 0
M  V30 1355 C 130.94 -0.531323 -4.99482 0
M  V30 1356 C 132.934 -2.20942 -5.97882 0
M  V30 1357 C 130.621 -1.52358 -5.91802 0
M  V30 1358 C 131.619 -2.36108 -6.40892 0
M  V30 1359 O 131.307 -3.33643 -7.31394 0
M  V30 1360 H 131.039 0.0479716 -0.674296 0
M  V30 1361 H 133.593 -0.508121 -1.99016 0
M  V30 1362 H 131.823 1.50596 -3.56171 0
M  V30 1363 H 133.512 1.22285 -3.87042 0
M  V30 1364 H 134.278 -1.1103 -4.7212 0
M  V30 1365 H 130.157 0.110738 -4.60867 0
M  V30 1366 H 133.701 -2.86348 -6.36121 0
M  V30 1367 H 129.598 -1.63434 -6.24467 0
M  V30 1368 H 130.366 -3.29244 -7.4936 0
M  V30 1369 N 133.029 1.57378 -0.0835403 0
M  V30 1370 C 133.962 2.09016 0.915833 0
M  V30 1371 C 134.94 0.997993 1.2837 0
M  V30 1372 O 136.124 1.27219 1.39096 0
M  V30 1373 C 133.251 2.55757 2.22049 0
M  V30 1374 C 132.297 3.76522 2.00333 0
M  V30 1375 S 133.13 5.20661 1.25191 0
M  V30 1376 C 134.286 5.70743 2.56912 0
M  V30 1377 H 134.519 2.93457 0.476492 0
M  V30 1378 H 132.052 1.53856 0.129493 0
M  V30 1379 H 134.01 2.83346 2.97027 0
M  V30 1380 H 132.671 1.71564 2.63106 0
M  V30 1381 H 131.864 4.07256 2.96916 0
M  V30 1382 H 131.466 3.49367 1.33488 0
M  V30 1383 H 133.758 5.78304 3.52946 0
M  V30 1384 H 134.701 6.6944 2.30772 0
M  V30 1385 H 135.109 4.98616 2.64655 0
M  V30 1386 N 134.507 -0.190092 1.56449 0
M  V30 1387 C 135.732 -0.929864 1.85387 0
M  V30 1388 C 136.157 -1.7585 0.667704 0
M  V30 1389 O 135.515 -1.77198 -0.383459 0
M  V30 1390 C 135.563 -1.79773 3.12593 0
M  V30 1391 O 134.667 -2.89713 2.93496 0
M  V30 1392 H 134.008 -0.261574 0.610307 0
M  V30 1393 H 136.538 -0.193896 2.03679 0
M  V30 1394 H 136.548 -2.20139 3.43515 0
M  V30 1395 H 135.223 -1.18892 3.98544 0
M  V30 1396 H 133.8 -2.53065 2.73884 0
M  V30 1397 N 135.985 -1.50799 -0.457987 0
M  V30 1398 C 137.396 -1.55152 -1.0385 0
M  V30 1399 C 137.747 -0.362719 -1.92818 0
M  V30 1400 O 136.872 0.522915 -2.09987 0
M  V30 1401 C 137.467 -2.81173 -1.89017 0
M  V30 1402 C 136.026 -2.88164 -2.42154 0
M  V30 1403 C 135.173 -2.49591 -1.20829 0
M  V30 1404 H 138.124 -1.56874 -0.240068 0
M  V30 1405 H 138.145 -2.63769 -2.74238 0
M  V30 1406 H 137.657 -3.67677 -1.24238 0
M  V30 1407 H 135.758 -2.06042 -3.10447 0
M  V30 1408 H 135.871 -3.91356 -2.76364 0
M  V30 1409 H 134.235 -2.02322 -1.54719 0
M  V30 1410 H 135.018 -3.38418 -0.576927 0
M  V30 1411 N 137.463 0.71206 -1.40597 0
M  V30 1412 C 138.426 1.80785 -1.40888 0
M  V30 1413 C 139.426 1.57937 -0.302103 0
M  V30 1414 O 140.616 1.64913 -0.561182 0
M  V30 1415 C 137.748 3.18927 -1.20409 0
M  V30 1416 H 138.941 1.81924 -2.38419 0
M  V30 1417 H 136.494 0.91805 -1.26497 0
M  V30 1418 H 137.229 3.23436 -0.236522 0
M  V30 1419 H 137.014 3.36911 -2.00582 0
M  V30 1420 H 138.504 3.98949 -1.23408 0
M  V30 1421 N 138.941 1.26152 0.944643 0
M  V30 1422 C 139.888 1.07408 2.04285 0
M  V30 1423 C 140.858 -0.0198413 1.66088 0
M  V30 1424 O 142.043 0.139264 1.90291 0
M  V30 1425 C 139.183 0.70945 3.37729 0
M  V30 1426 C 138.296 1.87926 3.88983 0
M  V30 1427 C 137.431 1.45807 5.10797 0
M  V30 1428 C 136.47 2.5964 5.54305 0
M  V30 1429 N 135.607 2.18226 6.67324 0
M  V30 1430 H 140.447 2.01389 2.1965 0
M  V30 1431 H 137.984 1.00275 1.07626 0
M  V30 1432 H 139.942 0.478948 4.14442 0
M  V30 1433 H 138.572 -0.193389 3.2222 0
M  V30 1434 H 137.624 2.22279 3.08701 0
M  V30 1435 H 138.936 2.73377 4.17213 0
M  V30 1436 H 138.09 1.18781 5.94959 0
M  V30 1437 H 136.829 0.574414 4.84305 0
M  V30 1438 H 135.834 2.87399 4.68702 0
M  V30 1439 H 137.059 3.48599 5.828 0
M  V30 1440 H 135.005 1.3229 6.42523 0
M  V30 1441 H 134.922 2.97221 6.95123 0
M  V30 1442 H 136.19 1.94403 7.54869 0
M  V30 1443 N 140.419 -1.14872 1.07899 0
M  V30 1444 C 141.349 -2.2193 0.725887 0
M  V30 1445 C 142.33 -1.67622 -0.28927 0
M  V30 1446 O 143.515 -1.93533 -0.160787 0
M  V30 1447 C 140.645 -3.47061 0.128856 0
M  V30 1448 C 139.599 -4.14363 1.07178 0
M  V30 1449 C 138.925 -5.33636 0.337229 0
M  V30 1450 C 140.225 -4.63492 2.40775 0
M  V30 1451 H 141.919 -2.51724 1.62097 0
M  V30 1452 H 139.465 -1.20991 0.780838 0
M  V30 1453 H 141.418 -4.21199 -0.130147 0
M  V30 1454 H 140.142 -3.16617 -0.80134 0
M  V30 1455 H 138.801 -3.42173 1.3158 0
M  V30 1456 H 138.449 -4.99449 -0.596606 0
M  V30 1457 H 138.149 -5.79609 0.965788 0
M  V30 1458 H 139.673 -6.10539 0.0861567 0
M  V30 1459 H 141.087 -5.2913 2.20669 0
M  V30 1460 H 139.484 -5.20148 2.99276 0
M  V30 1461 H 140.554 -3.78834 3.02676 0
M  V30 1462 N 141.898 -0.863906 -1.31812 0
M  V30 1463 C 143.146 -0.470904 -1.96537 0
M  V30 1464 C 143.467 0.978771 -1.68657 0
M  V30 1465 O 142.737 1.6853 -0.998717 0
M  V30 1466 H 141.317 -0.171148 -0.72713 0
M  V30 1467 H 143.979 -1.10236 -1.60729 0
M  V30 1468 H 143.075 -0.623616 -3.05806 0
M  V30 1469 N 143.376 1.44774 -0.622745 0
M  V30 1470 C 144.286 2.34433 0.0886031 0
M  V30 1471 C 145.302 1.52131 0.844529 0
M  V30 1472 O 146.478 1.84886 0.798691 0
M  V30 1473 C 143.543 3.29986 1.0635 0
M  V30 1474 C 142.604 4.28195 0.307873 0
M  V30 1475 C 141.837 5.19183 1.23633 0
M  V30 1476 O 142.06 5.13918 2.47476 0
M  V30 1477 O 140.994 5.97515 0.725189 0
M  V30 1478 H 144.82 2.96693 -0.648599 0
M  V30 1479 H 142.405 1.44408 -0.382957 0
M  V30 1480 H 144.287 3.88825 1.6246 0
M  V30 1481 H 142.962 2.70269 1.78146 0
M  V30 1482 H 141.869 3.72927 -0.296064 0
M  V30 1483 H 143.202 4.90808 -0.3699 0
M  V30 1484 N 144.854 0.36279 1.53368 0
M  V30 1485 C 146.131 -0.284021 1.93527 0
M  V30 1486 C 146.511 -1.66628 1.29608 0
M  V30 1487 O 145.859 -2.23942 0.45413 0
M  V30 1488 C 146.069 -0.337028 3.47369 0
M  V30 1489 C 147.417 -0.578708 4.20638 0
M  V30 1490 O 148.441 -0.418352 3.53735 0
M  V30 1491 O 147.3 -0.89074 5.39192 0
M  V30 1492 H 144.394 -0.169743 0.809393 0
M  V30 1493 H 146.94 0.41537 1.64538 0
M  V30 1494 H 145.712 0.632217 3.86159 0
M  V30 1495 H 145.335 -1.08243 3.82582 0
M  V30 1496 N 146.332 -1.57332 0.0918853 0
M  V30 1497 C 147.581 -1.93412 -0.572249 0
M  V30 1498 C 147.894 -0.975515 -1.69538 0
M  V30 1499 O 149.1 -1.22991 -2.42045 0
M  V30 1500 C 147.556 -3.43648 -1.0693 0
M  V30 1501 C 147.164 -4.47994 0.0239049 0
M  V30 1502 C 148.908 -3.88695 -1.70635 0
M  V30 1503 C 146.815 -5.89381 -0.488319 0
M  V30 1504 H 145.745 -0.721939 -0.217532 0
M  V30 1505 H 148.396 -1.82735 0.167369 0
M  V30 1506 H 146.778 -3.49466 -1.8625 0
M  V30 1507 H 147.952 -4.53815 0.799277 0
M  V30 1508 H 146.267 -4.12536 0.565946 0
M  V30 1509 H 148.864 -4.91725 -2.10025 0
M  V30 1510 H 149.207 -3.27166 -2.57426 0
M  V30 1511 H 149.74 -3.85564 -0.979023 0
M  V30 1512 H 146.479 -6.54602 0.342906 0
M  V30 1513 H 145.999 -5.87037 -1.23077 0
M  V30 1514 H 147.678 -6.39863 -0.958317 0
M  V30 1515 N 147.81 0.181792 -1.56548 0
M  V30 1516 C 149.056 0.901431 -1.81665 0
M  V30 1517 C 149.389 1.82347 -0.668075 0
M  V30 1518 O 148.664 1.91669 0.330615 0
M  V30 1519 C 148.947 1.70618 -3.17115 0
M  V30 1520 C 148.8 0.807964 -4.42484 0
M  V30 1521 C 150.119 2.67605 -3.49393 0
M  V30 1522 H 147.238 0.32627 -0.660846 0
M  V30 1523 H 149.88 0.168134 -1.89255 0
M  V30 1524 H 148.03 2.33133 -3.10775 0
M  V30 1525 H 149.702 0.19649 -4.60881 0
M  V30 1526 H 147.945 0.115411 -4.33646 0
M  V30 1527 H 148.616 1.40632 -5.33785 0
M  V30 1528 H 151.092 2.15218 -3.56118 0
M  V30 1529 H 149.968 3.20985 -4.45264 0
M  V30 1530 H 150.229 3.47298 -2.73563 0
M  V30 1531 N 149.288 1.51039 0.449983 0
M  V30 1532 C 150.537 1.62317 1.19733 0
M  V30 1533 C 150.85 0.339101 1.92638 0
M  V30 1534 O 152.056 0.331069 2.69474 0
M  V30 1535 C 150.512 2.86608 2.17678 0
M  V30 1536 C 150.12 4.21972 1.50479 0
M  V30 1537 C 151.864 3.07239 2.92924 0
M  V30 1538 C 149.771 5.37426 2.46834 0
M  V30 1539 H 148.701 0.604532 0.450619 0
M  V30 1540 H 151.352 1.77494 0.465625 0
M  V30 1541 H 149.734 2.65037 2.94231 0
M  V30 1542 H 150.908 4.53878 0.795716 0
M  V30 1543 H 149.223 4.07117 0.874344 0
M  V30 1544 H 151.82 3.90668 3.65079 0
M  V30 1545 H 152.163 2.19807 3.5354 0
M  V30 1546 H 152.696 3.29091 2.23481 0
M  V30 1547 H 149.435 6.27079 1.90926 0
M  V30 1548 H 148.955 5.09912 3.15832 0
M  V30 1549 H 150.634 5.68862 3.08228 0
M  V30 1550 N 150.766 -0.704594 1.40972 0
M  V30 1551 C 151.994 -1.49354 1.43182 0
M  V30 1552 C 152.409 -1.88768 0.0345508 0
M  V30 1553 O 151.766 -1.56184 -0.944081 0
M  V30 1554 C 151.817 -2.76187 2.33244 0
M  V30 1555 O 151.538 -2.38436 3.67532 0
M  V30 1556 C 153.039 -3.7 2.44162 0
M  V30 1557 H 150.259 -0.460559 0.487982 0
M  V30 1558 H 152.803 -0.868261 1.85153 0
M  V30 1559 H 150.958 -3.34974 1.94606 0
M  V30 1560 H 151.372 -3.20126 4.15475 0
M  V30 1561 H 152.846 -4.55803 3.11364 0
M  V30 1562 H 153.323 -4.13867 1.47006 0
M  V30 1563 H 153.929 -3.17121 2.83398 0
M  V30 1564 N 152.244 -1.26651 -0.937939 0
M  V30 1565 C 153.207 -1.08546 -2.01867 0
M  V30 1566 C 154.207 -0.0327327 -1.60767 0
M  V30 1567 O 155.397 -0.276427 -1.71993 0
M  V30 1568 C 152.529 -0.651711 -3.34613 0
M  V30 1569 H 153.722 -2.04502 -2.1936 0
M  V30 1570 H 151.275 -1.09294 -1.11734 0
M  V30 1571 H 152.01 0.309696 -3.22818 0
M  V30 1572 H 151.795 -1.41189 -3.65798 0
M  V30 1573 H 153.285 -0.546973 -4.14002 0
M  V30 1574 N 153.722 1.14298 -1.08507 0
M  V30 1575 C 154.672 2.17449 -0.685569 0
M  V30 1576 C 155.656 1.58167 0.295315 0
M  V30 1577 O 156.848 1.76675 0.107172 0
M  V30 1578 C 153.977 3.43161 -0.0975318 0
M  V30 1579 C 153.063 4.09471 -1.10426 0
M  V30 1580 N 153.454 4.51089 -2.28806 0
M  V30 1581 C 151.752 4.35976 -0.940258 0
M  V30 1582 C 152.453 5.02654 -2.9277 0
M  V30 1583 N 151.429 4.96927 -2.20374 0
M  V30 1584 H 155.231 2.47369 -1.587 0
M  V30 1585 H 152.745 1.30992 -0.959936 0
M  V30 1586 H 154.742 4.16388 0.20664 0
M  V30 1587 H 153.402 3.14719 0.798872 0
M  V30 1588 H 154.413 4.44097 -2.66455 0
M  V30 1589 H 151.09 4.17386 -0.0977441 0
M  V30 1590 H 152.48 5.44723 -3.93352 0
M  V30 1591 N 155.201 0.870884 1.31352 0
M  V30 1592 C 156.447 0.482987 1.96965 0
M  V30 1593 C 156.78 -0.962462 1.68672 0
M  V30 1594 O 156.055 -1.6779 0.98371 0
M  V30 1595 C 156.338 0.741752 3.52378 0
M  V30 1596 C 156.191 2.2368 3.9024 0
M  V30 1597 C 157.51 0.208838 4.39604 0
M  V30 1598 H 154.629 0.176955 0.715441 0
M  V30 1599 H 157.271 1.09229 1.55464 0
M  V30 1600 H 155.421 0.223149 3.87859 0
M  V30 1601 H 157.093 2.82273 3.64856 0
M  V30 1602 H 155.336 2.70901 3.38814 0
M  V30 1603 H 156.007 2.3685 4.98604 0
M  V30 1604 H 158.483 0.652529 4.10952 0
M  V30 1605 H 157.359 0.419336 5.47296 0
M  V30 1606 H 157.62 -0.889275 4.33064 0
M  V30 1607 N 156.679 -1.44442 0.630414 0
M  V30 1608 C 157.609 -2.33418 -0.0618083 0
M  V30 1609 C 158.59 -1.48165 -0.835541 0
M  V30 1610 O 159.775 -1.76886 -0.801564 0
M  V30 1611 C 156.905 -3.31222 -1.04449 0
M  V30 1612 C 155.859 -4.26288 -0.382436 0
M  V30 1613 C 155.185 -5.13954 -1.47497 0
M  V30 1614 C 156.485 -5.1744 0.710865 0
M  V30 1615 H 158.179 -2.91548 0.681184 0
M  V30 1616 H 155.725 -1.40191 0.329026 0
M  V30 1617 H 157.678 -3.92351 -1.53748 0
M  V30 1618 H 156.402 -2.71299 -1.81836 0
M  V30 1619 H 155.061 -3.6649 0.0899054 0
M  V30 1620 H 154.709 -4.50385 -2.2397 0
M  V30 1621 H 154.409 -5.7837 -1.03737 0
M  V30 1622 H 155.933 -5.77955 -1.96979 0
M  V30 1623 H 157.347 -5.72509 0.300996 0
M  V30 1624 H 155.744 -5.90455 1.07156 0
M  V30 1625 H 156.814 -4.58496 1.57829 0
M  V30 1626 N 158.157 -0.370918 -1.53173 0
M  V30 1627 C 159.104 0.473035 -2.259 0
M  V30 1628 C 160.074 1.07311 -1.26781 0
M  V30 1629 O 161.259 1.1046 -1.55574 0
M  V30 1630 C 158.399 1.60405 -3.05556 0
M  V30 1631 C 157.512 1.02863 -4.19575 0
M  V30 1632 C 156.647 2.12918 -4.86661 0
M  V30 1633 C 155.686 1.52869 -5.92704 0
M  V30 1634 N 154.823 2.56779 -6.53459 0
M  V30 1635 H 159.663 -0.153649 -2.97604 0
M  V30 1636 H 157.2 -0.0875946 -1.46839 0
M  V30 1637 H 159.158 2.27034 -3.50016 0
M  V30 1638 H 157.788 2.20131 -2.36097 0
M  V30 1639 H 156.84 0.252465 -3.79561 0
M  V30 1640 H 158.152 0.549642 -4.95762 0
M  V30 1641 H 157.306 2.87356 -5.34333 0
M  V30 1642 H 156.045 2.6417 -4.09958 0
M  V30 1643 H 155.05 0.769479 -5.44389 0
M  V30 1644 H 156.275 1.02435 -6.7133 0
M  V30 1645 H 154.221 3.07235 -5.79606 0
M  V30 1646 H 154.138 2.13583 -7.25202 0
M  V30 1647 H 155.406 3.30903 -7.05779 0
M  V30 1648 N 159.635 1.57281 -0.100228 0
M  V30 1649 C 160.567 2.11342 0.886972 0
M  V30 1650 C 161.58 1.05182 1.24261 0
M  V30 1651 O 162.769 1.32613 1.19483 0
M  V30 1652 C 159.869 2.5825 2.19454 0
M  V30 1653 C 159.042 3.88302 2.01346 0
M  V30 1654 C 158.101 4.21004 3.15661 0
M  V30 1655 O 157.127 4.9014 2.89398 0
M  V30 1656 N 158.329 3.76818 4.41575 0
M  V30 1657 H 161.094 2.96668 0.425216 0
M  V30 1658 H 158.655 1.61678 0.0847334 0
M  V30 1659 H 160.647 2.7717 2.94888 0
M  V30 1660 H 159.217 1.77907 2.57037 0
M  V30 1661 H 158.437 3.7848 1.10212 0
M  V30 1662 H 159.725 4.73375 1.8653 0
M  V30 1663 H 159.123 3.2102 4.65792 0
M  V30 1664 H 157.68 4.00882 5.13942 0
M  V30 1665 N 161.113 -0.173488 1.56642 0
M  V30 1666 C 162.361 -0.888706 1.81512 0
M  V30 1667 C 162.682 -1.82875 0.676872 0
M  V30 1668 O 161.952 -1.93536 -0.303414 0
M  V30 1669 H 160.532 -0.331164 0.669582 0
M  V30 1670 H 163.194 -0.173823 1.94123 0
M  V30 1671 H 162.29 -1.46691 2.75478 0
M  V30 1672 N 162.591 -1.51276 -0.441967 0
M  V30 1673 C 163.538 -1.72256 -1.53612 0
M  V30 1674 C 164.508 -0.564164 -1.56225 0
M  V30 1675 O 165.693 -0.798074 -1.73307 0
M  V30 1676 C 162.833 -1.84932 -2.91366 0
M  V30 1677 C 161.946 -3.12459 -2.98317 0
M  V30 1678 C 161.081 -3.15758 -4.27166 0
M  V30 1679 C 160.12 -4.37619 -4.27967 0
M  V30 1680 N 159.257 -4.38493 -5.48333 0
M  V30 1681 H 164.097 -2.65654 -1.35026 0
M  V30 1682 H 161.634 -1.31662 -0.656009 0
M  V30 1683 H 163.592 -1.90263 -3.7129 0
M  V30 1684 H 162.222 -0.949461 -3.08521 0
M  V30 1685 H 161.274 -3.1646 -2.11086 0
M  V30 1686 H 162.586 -4.02382 -2.94771 0
M  V30 1687 H 161.74 -3.19979 -5.15459 0
M  V30 1688 H 160.479 -2.23715 -4.33362 0
M  V30 1689 H 159.484 -4.33579 -3.38067 0
M  V30 1690 H 160.709 -5.30921 -4.23438 0
M  V30 1691 H 158.655 -3.49318 -5.55259 0
M  V30 1692 H 158.572 -5.22219 -5.46647 0
M  V30 1693 H 159.84 -4.469 -6.38671 0
M  V30 1694 N 164.069 0.697108 -1.41344 0
M  V30 1695 C 165.297 1.48593 -1.43972 0
M  V30 1696 C 165.712 1.88747 -0.0445612 0
M  V30 1697 O 165.069 1.56682 0.935785 0
M  V30 1698 C 165.12 2.74946 -2.34706 0
M  V30 1699 O 164.841 2.36484 -3.68791 0
M  V30 1700 C 166.342 3.687 -2.46121 0
M  V30 1701 H 163.562 0.457964 -0.490418 0
M  V30 1702 H 166.106 0.858429 -1.8561 0
M  V30 1703 H 164.261 3.33937 -1.9638 0
M  V30 1704 H 164.675 3.17918 -4.17167 0
M  V30 1705 H 166.149 4.54145 -3.13777 0
M  V30 1706 H 166.626 4.13081 -1.49199 0
M  V30 1707 H 167.232 3.15613 -2.85076 0
M  V30 1708 N 165.547 1.27147 0.931209 0
M  V30 1709 C 166.477 1.12081 2.04842 0
M  V30 1710 C 167.458 0.0232364 1.70084 0
M  V30 1711 O 168.643 0.197085 1.93197 0
M  V30 1712 C 165.773 0.76354 3.38803 0
M  V30 1713 C 164.727 1.81396 3.87659 0
M  V30 1714 C 164.053 1.31075 5.18385 0
M  V30 1715 C 165.353 3.21739 4.11438 0
M  V30 1716 H 167.047 2.05537 2.17703 0
M  V30 1717 H 164.593 0.989603 1.04608 0
M  V30 1718 H 166.546 0.644982 4.16435 0
M  V30 1719 H 165.27 -0.206727 3.25945 0
M  V30 1720 H 163.929 1.92136 3.12217 0
M  V30 1721 H 163.577 0.330037 5.01916 0
M  V30 1722 H 163.277 2.013 5.52044 0
M  V30 1723 H 164.801 1.20506 5.98591 0
M  V30 1724 H 166.215 3.14019 4.79651 0
M  V30 1725 H 164.612 3.89644 4.56397 0
M  V30 1726 H 165.682 3.67054 3.16859 0
M  V30 1727 N 167.025 -1.13721 1.09112 0
M  V30 1728 C 167.988 -2.17222 0.731241 0
M  V30 1729 C 168.988 -1.59035 -0.237566 0
M  V30 1730 O 170.178 -1.74192 -0.0161704 0
M  V30 1731 C 167.31 -3.40804 0.0808443 0
M  V30 1732 H 168.503 -2.50573 1.64783 0
M  V30 1733 H 166.056 -1.28493 0.889897 0
M  V30 1734 H 166.791 -3.1304 -0.847127 0
M  V30 1735 H 166.576 -3.84306 0.777896 0
M  V30 1736 H 168.066 -4.1731 -0.155657 0
M  V30 1737 N 168.503 -0.877838 -1.30888 0
M  V30 1738 C 169.75 -0.492696 -1.96415 0
M  V30 1739 C 170.078 0.956671 -1.69346 0
M  V30 1740 O 169.333 1.68993 -0.986913 0
M  V30 1741 C 169.632 -0.705748 -3.50363 0
M  V30 1742 C 169.298 -2.1291 -3.97467 0
M  V30 1743 C 167.96 -2.51834 -4.1004 0
M  V30 1744 C 170.312 -3.05702 -4.22132 0
M  V30 1745 C 167.64 -3.82775 -4.44635 0
M  V30 1746 C 169.992 -4.36166 -4.58194 0
M  V30 1747 C 168.656 -4.74993 -4.68975 0
M  V30 1748 H 167.926 -0.18029 -0.718733 0
M  V30 1749 H 170.573 -1.11233 -1.55883 0
M  V30 1750 H 168.878 -0.00303058 -3.918 0
M  V30 1751 H 170.575 -0.387456 -3.99124 0
M  V30 1752 H 167.165 -1.81694 -3.88182 0
M  V30 1753 H 171.349 -2.76853 -4.11906 0
M  V30 1754 H 166.605 -4.12609 -4.51181 0
M  V30 1755 H 170.779 -5.08111 -4.76231 0
M  V30 1756 H 168.406 -5.76495 -4.95537 0
M  V30 1757 N 169.982 1.44106 -0.638065 0
M  V30 1758 C 171.21 2.06336 -0.152615 0
M  V30 1759 C 171.625 1.47731 1.17563 0
M  V30 1760 O 170.982 0.602806 1.72257 0
M  V30 1761 C 171.033 3.61479 -0.0391491 0
M  V30 1762 O 170.754 4.17903 -1.31487 0
M  V30 1763 C 172.255 4.40757 0.474176 0
M  V30 1764 H 169.475 0.665862 -0.0828776 0
M  V30 1765 H 172.019 1.84862 -0.87443 0
M  V30 1766 H 170.174 3.82191 0.633142 0
M  V30 1767 H 170.588 5.11416 -1.16421 0
M  V30 1768 H 172.062 5.49707 0.502562 0
M  V30 1769 H 172.539 4.12697 1.50258 0
M  V30 1770 H 173.145 4.24979 -0.165102 0
M  V30 1771 N 171.46 0.379036 1.52974 0
M  V30 1772 C 172.685 -0.209353 2.06341 0
M  V30 1773 C 173.11 -1.40583 1.24972 0
M  V30 1774 O 172.468 -1.79246 0.272155 0
M  V30 1775 C 172.516 -0.567786 3.56102 0
M  V30 1776 O 171.62 -1.66318 3.77375 0
M  V30 1777 H 170.961 -0.0272919 0.663439 0
M  V30 1778 H 173.491 0.543536 1.97248 0
M  V30 1779 H 173.501 -0.835003 3.99364 0
M  V30 1780 H 172.176 0.307013 4.14765 0
M  V30 1781 H 170.753 -1.39048 3.46006 0
M  V30 1782 N 172.938 -1.57226 0.108567 0
M  V30 1783 C 174.184 -1.95121 -0.552761 0
M  V30 1784 C 174.517 -0.991345 -1.66991 0
M  V30 1785 O 173.792 -0.0267211 -1.94482 0
M  V30 1786 C 174.075 -3.43039 -1.09528 0
M  V30 1787 C 173.928 -4.49797 0.0177332 0
M  V30 1788 C 175.247 -3.92567 -1.98945 0
M  V30 1789 H 172.366 -0.709496 -0.199461 0
M  V30 1790 H 175.008 -1.89126 0.182011 0
M  V30 1791 H 173.158 -3.48279 -1.72146 0
M  V30 1792 H 174.83 -4.56661 0.652584 0
M  V30 1793 H 173.073 -4.284 0.682309 0
M  V30 1794 H 173.744 -5.50528 -0.402919 0
M  V30 1795 H 176.22 -3.89565 -1.46214 0
M  V30 1796 H 175.096 -4.96605 -2.33827 0
M  V30 1797 H 175.357 -3.32648 -2.91201 0
M  V30 1798 N 174.416 0.165178 -1.56732 0
M  V30 1799 C 175.693 0.908443 -1.73224 0
M  V30 1800 C 176.073 2.0013 -0.67165 0
M  V30 1801 O 175.421 2.26353 0.31253 0
M  V30 1802 C 175.631 1.46756 -3.16644 0
M  V30 1803 C 176.979 1.93809 -3.77787 0
M  V30 1804 O 178.003 1.56537 -3.1996 0
M  V30 1805 O 176.862 2.62486 -4.79336 0
M  V30 1806 H 173.956 0.428025 -0.707618 0
M  V30 1807 H 176.502 0.152526 -1.69013 0
M  V30 1808 H 175.274 0.68129 -3.85323 0
M  V30 1809 H 174.897 2.28749 -3.25207 0
M  V30 1810 N 175.894 1.51508 0.433938 0
M  V30 1811 C 176.824 1.76016 1.53429 0
M  V30 1812 C 177.805 0.610112 1.58782 0
M  V30 1813 O 178.99 0.853177 1.74455 0
M  V30 1814 C 176.12 1.88831 2.9148 0
M  V30 1815 C 175.074 3.04288 3.00987 0
M  V30 1816 C 174.4 3.0229 4.4105 0
M  V30 1817 C 175.7 4.44193 2.74754 0
M  V30 1818 H 177.394 2.68152 1.33171 0
M  V30 1819 H 174.94 1.29035 0.639214 0
M  V30 1820 H 176.893 2.04559 3.6842 0
M  V30 1821 H 175.617 0.933455 3.12976 0
M  V30 1822 H 174.276 2.8827 2.26486 0
M  V30 1823 H 173.924 2.04576 4.59519 0
M  V30 1824 H 173.624 3.79822 4.4834 0
M  V30 1825 H 175.148 3.20116 5.1996 0
M  V30 1826 H 176.562 4.60544 3.41426 0
M  V30 1827 H 174.959 5.23457 2.9345 0
M  V30 1828 H 176.029 4.53996 1.70339 0
M  V30 1829 N 177.372 -0.689602 1.41712 0
M  V30 1830 C 178.6 -1.47827 1.44758 0
M  V30 1831 C 179.015 -1.88721 0.0545703 0
M  V30 1832 O 178.372 -1.57176 -0.927463 0
M  V30 1833 C 178.423 -2.73698 2.3616 0
M  V30 1834 O 178.144 -2.34524 3.7004 0
M  V30 1835 C 179.645 -3.67389 2.48072 0
M  V30 1836 H 176.865 -0.455357 0.49284 0
M  V30 1837 H 179.409 -0.848574 1.86063 0
M  V30 1838 H 177.564 -3.32891 1.98148 0
M  V30 1839 H 177.978 -3.15701 4.18847 0
M  V30 1840 H 179.452 -4.52475 3.16181 0
M  V30 1841 H 179.929 -4.12284 1.51388 0
M  V30 1842 H 180.535 -3.14097 2.86746 0
M  V30 1843 N 178.85 -1.27639 -0.924453 0
M  V30 1844 C 179.798 -1.10485 -2.04685 0
M  V30 1845 C 180.792 -0.0270421 -1.69378 0
M  V30 1846 O 181.998 -0.185008 -1.79047 0
M  V30 1847 H 178.373 -0.340546 -0.670472 0
M  V30 1848 H 180.344 -2.05566 -2.16298 0
M  V30 1849 C 179.093 -0.772229 -3.39016 0
M  V30 1850 H 178.416 -1.59351 -3.66671 0
M  V30 1851 H 179.856 -0.692097 -4.18313 0
M  V30 1852 C 178.315 0.523554 -3.32807 0
M  V30 1853 O 178.845 1.55702 -3.70297 0
M  V30 1854 N 177.051 0.520363 -2.85903 0
M  V30 1855 H 176.598 -0.32107 -2.55591 0
M  V30 1856 H 176.556 1.38742 -2.82131 0
M  V30 1857 N 180.328 1.1314 -1.09713 0
M  V30 1858 C 181.275 2.18642 -0.739196 0
M  V30 1859 C 182.245 1.63706 0.280978 0
M  V30 1860 O 183.43 1.90111 0.161946 0
M  V30 1861 C 180.57 3.44685 -0.169102 0
M  V30 1862 C 179.683 4.13711 -1.24367 0
M  V30 1863 C 178.818 5.27379 -0.636019 0
M  V30 1864 C 177.857 5.88259 -1.69169 0
M  V30 1865 N 176.994 6.93352 -1.10485 0
M  V30 1866 H 181.834 2.48607 -1.64312 0
M  V30 1867 H 179.371 1.22066 -0.820875 0
M  V30 1868 H 181.329 4.16815 0.179256 0
M  V30 1869 H 179.959 3.15161 0.698079 0
M  V30 1870 H 179.011 3.39835 -1.70927 0
M  V30 1871 H 180.323 4.55037 -2.04311 0
M  V30 1872 H 179.477 6.06238 -0.236677 0
M  V30 1873 H 178.216 4.8731 0.194928 0
M  V30 1874 H 177.221 5.08092 -2.10055 0
M  V30 1875 H 178.446 6.30399 -2.52536 0
M  V30 1876 H 176.392 6.55335 -0.295234 0
M  V30 1877 H 176.309 7.33236 -1.84121 0
M  V30 1878 H 177.577 7.76057 -0.73181 0
M  V30 1879 N 181.806 0.884767 1.30421 0
M  V30 1880 C 182.769 0.356277 2.26414 0
M  V30 1881 C 183.769 -0.501124 1.52792 0
M  V30 1882 O 184.959 -0.30831 1.7145 0
M  V30 1883 C 182.091 -0.492316 3.37326 0
M  V30 1884 H 183.284 1.20389 2.74675 0
M  V30 1885 H 180.837 0.661607 1.41607 0
M  V30 1886 H 181.572 -1.36052 2.94381 0
M  V30 1887 H 181.357 0.121832 3.91911 0
M  V30 1888 H 182.847 -0.853871 4.08777 0
M  V30 1889 N 183.284 -1.43765 0.645699 0
M  V30 1890 C 184.512 -2.06253 0.163556 0
M  V30 1891 C 184.927 -1.48352 -1.16778 0
M  V30 1892 O 184.284 -0.611932 -1.71935 0
M  V30 1893 C 184.335 -3.61453 0.0583186 0
M  V30 1894 O 184.056 -4.172 1.33702 0
M  V30 1895 C 185.557 -4.41002 -0.450795 0
M  V30 1896 H 182.777 -0.665413 0.0864077 0
M  V30 1897 H 185.321 -1.84396 0.884222 0
M  V30 1898 H 183.476 -3.82522 -0.612865 0
M  V30 1899 H 183.89 -5.10791 1.19131 0
M  V30 1900 H 185.364 -5.49966 -0.473403 0
M  V30 1901 H 185.841 -4.13488 -1.48068 0
M  V30 1902 H 186.447 -4.24886 0.187637 0
M  V30 1903 N 184.763 -0.387143 -1.52771 0
M  V30 1904 C 186.011 0.195349 -2.01154 0
M  V30 1905 C 186.332 1.475 -1.27549 0
M  V30 1906 O 185.602 1.91878 -0.394924 0
M  V30 1907 H 184.182 0.075178 -0.743207 0
M  V30 1908 H 186.844 -0.518337 -1.87881 0
M  V30 1909 H 185.94 0.407096 -3.09434 0
M  V30 1910 N 186.241 1.57166 -0.116904 0
M  V30 1911 C 187.188 2.15202 0.83408 0
M  V30 1912 C 188.158 1.07644 1.26499 0
M  V30 1913 O 189.343 1.35541 1.34288 0
M  V30 1914 C 186.483 2.75405 2.07957 0
M  V30 1915 C 185.596 3.97264 1.69721 0
M  V30 1916 C 184.731 4.45561 2.89221 0
M  V30 1917 C 183.77 5.59956 2.47215 0
M  V30 1918 N 182.907 6.03006 3.59622 0
M  V30 1919 H 187.747 2.96141 0.332335 0
M  V30 1920 H 185.284 1.46309 0.152349 0
M  V30 1921 H 187.242 3.08439 2.80929 0
M  V30 1922 H 185.872 1.97159 2.55594 0
M  V30 1923 H 184.924 3.70404 0.866316 0
M  V30 1924 H 186.236 4.80226 1.34849 0
M  V30 1925 H 185.39 4.80493 3.7042 0
M  V30 1926 H 184.129 3.61544 3.27318 0
M  V30 1927 H 183.134 5.2463 1.64448 0
M  V30 1928 H 184.359 6.45738 2.10238 0
M  V30 1929 H 182.305 5.21931 3.97396 0
M  V30 1930 H 182.222 6.80819 3.28667 0
M  V30 1931 H 183.49 6.42576 4.41267 0
M  V30 1932 N 187.719 -0.156864 1.56817 0
M  V30 1933 C 188.649 -1.19589 2.00551 0
M  V30 1934 C 189.63 -1.4536 0.883426 0
M  V30 1935 O 190.815 -1.56449 1.15054 0
M  V30 1936 C 187.945 -2.53143 2.37773 0
M  V30 1937 C 186.899 -2.41913 3.53075 0
M  V30 1938 C 186.225 -3.80088 3.76081 0
M  V30 1939 C 187.525 -1.91157 4.86062 0
M  V30 1940 H 189.219 -0.832293 2.87599 0
M  V30 1941 H 186.765 -0.398918 1.38364 0
M  V30 1942 H 188.718 -3.26047 2.66967 0
M  V30 1943 H 187.442 -2.91319 1.4765 0
M  V30 1944 H 186.101 -1.71462 3.24031 0
M  V30 1945 H 185.749 -4.15683 2.83225 0
M  V30 1946 H 185.449 -3.73439 4.53671 0
M  V30 1947 H 186.973 -4.54556 4.0769 0
M  V30 1948 H 188.387 -2.53846 5.14038 0
M  V30 1949 H 186.784 -1.95422 5.67389 0
M  V30 1950 H 187.854 -0.866673 4.77092 0
M  V30 1951 N 189.197 -1.51736 -0.425897 0
M  V30 1952 C 190.446 -1.64201 -1.17136 0
M  V30 1953 C 190.759 -0.369705 -1.92074 0
M  V30 1954 O 191.965 -0.373898 -2.68913 0
M  V30 1955 C 190.421 -2.90035 -2.13091 0
M  V30 1956 C 190.029 -4.24312 -1.43747 0
M  V30 1957 C 191.773 -3.1186 -2.87999 0
M  V30 1958 C 189.68 -5.41285 -2.38253 0
M  V30 1959 H 188.61 -0.611624 -0.440944 0
M  V30 1960 H 191.261 -1.78212 -0.437328 0
M  V30 1961 H 189.643 -2.69684 -2.89977 0
M  V30 1962 H 190.817 -4.55086 -0.723408 0
M  V30 1963 H 189.132 -4.08456 -0.809465 0
M  V30 1964 H 191.729 -3.96427 -3.58817 0
M  V30 1965 H 192.072 -2.25403 -3.49999 0
M  V30 1966 H 192.605 -3.32605 -2.18217 0
M  V30 1967 H 189.344 -6.30037 -1.80925 0
M  V30 1968 H 188.864 -5.14872 -3.0768 0
M  V30 1969 H 190.543 -5.73694 -2.99139 0
M  V30 1970 N 190.675 0.682077 -1.42076 0
M  V30 1971 C 191.638 1.77756 -1.44691 0
M  V30 1972 C 192.638 1.5726 -0.335535 0
M  V30 1973 O 193.828 1.63686 -0.596037 0
M  V30 1974 C 190.96 3.16301 -1.27146 0
M  V30 1975 H 192.153 1.76826 -2.42224 0
M  V30 1976 H 189.706 0.891012 -1.28416 0
M  V30 1977 H 190.441 3.22862 -0.305075 0
M  V30 1978 H 190.226 3.32581 -2.07683 0
M  V30 1979 H 191.716 3.96241 -1.31843 0
M  V30 1980 N 192.153 1.28127 0.917671 0
M  V30 1981 C 193.085 1.07517 2.02417 0
M  V30 1982 C 194.098 0.0281099 1.62776 0
M  V30 1983 O 195.287 0.270748 1.76435 0
M  V30 1984 C 192.387 0.610957 3.33347 0
M  V30 1985 C 191.56 1.73255 4.01624 0
M  V30 1986 C 190.619 1.26238 5.10833 0
M  V30 1987 O 189.645 1.96389 5.34247 0
M  V30 1988 N 190.847 0.123448 5.80369 0
M  V30 1989 H 193.612 2.02806 2.20658 0
M  V30 1990 H 191.173 1.19827 1.08871 0
M  V30 1991 H 193.165 0.280101 4.0373 0
M  V30 1992 H 191.735 -0.24898 3.11607 0
M  V30 1993 H 190.955 2.23319 3.24842 0
M  V30 1994 H 192.243 2.48503 4.43986 0
M  V30 1995 H 191.641 -0.461847 5.63812 0
M  V30 1996 H 190.198 -0.148158 6.51632 0
M  V30 1997 N 193.631 -1.12557 1.10312 0
M  V30 1998 C 194.879 -1.83675 0.843091 0
M  V30 1999 C 195.2 -1.84435 -0.633131 0
M  V30 2000 O 194.47 -1.30657 -1.45964 0
M  V30 2001 H 193.05 -0.680138 0.308904 0
M  V30 2002 H 195.712 -1.36301 1.39313 0
M  V30 2003 H 194.808 -2.87908 1.2048 0
M  V30 2004 N 195.109 -0.891671 -1.2995 0
M  V30 2005 C 196.525 -0.58662 -1.48428 0
M  V30 2006 C 196.725 0.873951 -1.81561 0
M  V30 2007 O 195.781 1.65471 -1.90724 0
M  V30 2008 C 197.094 -1.50553 -2.60296 0
M  V30 2009 C 198.642 -1.50988 -2.74175 0
M  V30 2010 C 199.117 -2.41488 -3.89163 0
M  V30 2011 N 200.608 -2.39489 -3.96483 0
M  V30 2012 C 201.343 -3.06223 -4.84784 0
M  V30 2013 N 200.839 -3.82206 -5.77833 0
M  V30 2014 N 202.632 -2.95421 -4.78208 0
M  V30 2015 H 194.783 -1.83644 -1.06718 0
M  V30 2016 H 197.046 -0.786455 -0.529332 0
M  V30 2017 H 196.752 -2.54581 -2.42654 0
M  V30 2018 H 196.626 -1.22008 -3.56923 0
M  V30 2019 H 199.013 -0.47708 -2.91218 0
M  V30 2020 H 199.094 -1.83567 -1.78148 0
M  V30 2021 H 198.738 -3.44857 -3.72876 0
M  V30 2022 H 198.668 -2.06222 -4.84541 0
M  V30 2023 H 201.159 -1.84278 -3.29924 0
M  V30 2024 H 201.472 -4.302 -6.41988 0
M  V30 2025 H 199.817 -3.86313 -5.77743 0
M  V30 2026 H 203.008 -2.35581 -4.04499 0
M  V30 2027 H 203.181 -3.47704 -5.46814 0
M  V30 2028 N 196.587 1.43421 -0.653314 0
M  V30 2029 C 197.537 2.2792 0.060558 0
M  V30 2030 C 198.521 1.39906 0.794677 0
M  V30 2031 O 199.713 1.63536 0.677128 0
M  V30 2032 C 196.842 3.27603 1.0262 0
M  V30 2033 C 195.928 4.23104 0.290551 0
M  V30 2034 N 196.319 5.01031 -0.692967 0
M  V30 2035 C 194.617 4.42816 0.531984 0
M  V30 2036 C 195.318 5.70626 -1.12963 0
M  V30 2037 N 194.294 5.41617 -0.463867 0
M  V30 2038 H 198.096 2.85585 -0.694143 0
M  V30 2039 H 195.61 1.55126 -0.480602 0
M  V30 2040 H 197.607 3.86918 1.55242 0
M  V30 2041 H 196.267 2.71499 1.78096 0
M  V30 2042 H 197.278 5.0669 -1.07169 0
M  V30 2043 H 193.955 3.97782 1.26791 0
M  V30 2044 H 195.345 6.4318 -1.94343 0
M  V30 2045 N 198.065 0.39524 1.52563 0
M  V30 2046 C 199.293 -0.184943 2.06072 0
M  V30 2047 C 199.708 -1.40021 1.26647 0
M  V30 2048 O 199.065 -1.79767 0.314672 0
M  V30 2049 C 199.116 -0.549179 3.57304 0
M  V30 2050 O 198.837 0.617813 4.33722 0
M  V30 2051 C 200.338 -1.18459 4.2718 0
M  V30 2052 H 197.558 -0.0265025 0.670476 0
M  V30 2053 H 200.102 0.562184 1.96621 0
M  V30 2054 H 198.257 -1.2462 3.66809 0
M  V30 2055 H 198.671 0.317091 5.23541 0
M  V30 2056 H 200.145 -1.38976 5.34219 0
M  V30 2057 H 200.622 -2.15368 3.82771 0
M  V30 2058 H 201.228 -0.528163 4.22008 0
M  V30 2059 N 199.544 -1.57102 0.125237 0
M  V30 2060 C 200.491 -2.15641 -0.822655 0
M  V30 2061 C 201.461 -1.08313 -1.25927 0
M  V30 2062 O 202.646 -1.36251 -1.33567 0
M  V30 2063 C 199.786 -2.76504 -2.06494 0
M  V30 2064 C 198.899 -3.98158 -1.67612 0
M  V30 2065 C 198.034 -4.47088 -2.86854 0
M  V30 2066 C 197.073 -5.6126 -2.44242 0
M  V30 2067 N 196.21 -6.04905 -3.56419 0
M  V30 2068 H 201.05 -2.96313 -0.316625 0
M  V30 2069 H 198.587 -1.46388 -0.144588 0
M  V30 2070 H 200.545 -3.09925 -2.79289 0
M  V30 2071 H 199.175 -1.98512 -2.54545 0
M  V30 2072 H 198.227 -3.70858 -0.846661 0
M  V30 2073 H 199.539 -4.80934 -1.32301 0
M  V30 2074 H 198.693 -4.82451 -3.67867 0
M  V30 2075 H 197.432 -3.63275 -3.25396 0
M  V30 2076 H 196.437 -5.25495 -1.61663 0
M  V30 2077 H 197.662 -6.46843 -2.0681 0
M  V30 2078 H 195.608 -5.24032 -3.94623 0
M  V30 2079 H 195.525 -6.82552 -3.25051 0
M  V30 2080 H 196.793 -6.44907 -4.37853 0
M  V30 2081 N 201.022 0.148545 -1.56898 0
M  V30 2082 C 201.972 1.1886 -1.94567 0
M  V30 2083 C 202.956 1.3863 -0.816735 0
M  V30 2084 O 204.148 1.40218 -1.08018 0
M  V30 2085 C 201.277 2.52262 -2.32849 0
M  V30 2086 C 200.363 2.36092 -3.52309 0
M  V30 2087 N 200.754 1.89674 -4.6889 0
M  V30 2088 C 199.052 2.66848 -3.57363 0
M  V30 2089 C 199.753 1.86511 -5.50989 0
M  V30 2090 N 198.729 2.29766 -4.92655 0
M  V30 2091 H 202.531 0.821793 -2.82177 0
M  V30 2092 H 200.045 0.356615 -1.58436 0
M  V30 2093 H 202.042 3.27447 -2.58039 0
M  V30 2094 H 200.702 2.89727 -1.46589 0
M  V30 2095 H 201.713 1.59663 -4.92674 0
M  V30 2096 H 198.39 3.08198 -2.81639 0
M  V30 2097 H 199.78 1.52128 -6.54452 0
M  V30 2098 N 202.5 1.5196 0.417844 0
M  V30 2099 C 203.43 1.77634 1.51554 0
M  V30 2100 C 204.411 0.626918 1.58126 0
M  V30 2101 O 205.596 0.871632 1.7354 0
M  V30 2102 C 202.726 1.91911 2.8946 0
M  V30 2103 C 201.68 3.07463 2.97743 0
M  V30 2104 C 201.006 3.06951 4.37819 0
M  V30 2105 C 202.306 4.47082 2.70027 0
M  V30 2106 H 204 2.6955 1.3032 0
M  V30 2107 H 201.546 1.29706 0.625492 0
M  V30 2108 H 203.499 2.08455 3.6623 0
M  V30 2109 H 202.223 0.966598 3.11969 0
M  V30 2110 H 200.882 2.90656 2.23416 0
M  V30 2111 H 200.53 2.09438 4.57323 0
M  V30 2112 H 200.23 3.84556 4.44286 0
M  V30 2113 H 201.754 3.25613 5.16535 0
M  V30 2114 H 203.168 4.6414 3.36522 0
M  V30 2115 H 201.565 5.2654 2.87881 0
M  V30 2116 H 202.635 4.55777 1.65514 0
M  V30 2117 N 203.978 -0.674533 1.42435 0
M  V30 2118 C 205.226 -1.43175 1.42637 0
M  V30 2119 C 205.547 -1.94951 0.0438992 0
M  V30 2120 O 204.817 -1.7308 -0.917607 0
M  V30 2121 H 203.397 -0.531307 0.525092 0
M  V30 2122 H 206.059 -0.797006 1.77859 0
M  V30 2123 H 205.155 -2.28463 2.12629 0
M  V30 2124 N 205.456 -1.28612 -0.910864 0
M  V30 2125 C 206.404 -1.1265 -2.03501 0
M  V30 2126 C 207.398 -0.0450054 -1.6934 0
M  V30 2127 O 208.604 -0.203988 -1.7884 0
M  V30 2128 H 204.979 -0.347639 -0.666822 0
M  V30 2129 H 206.95 -2.07849 -2.14106 0
M  V30 2130 C 205.699 -0.808143 -3.38178 0
M  V30 2131 H 205.022 -1.63231 -3.6496 0
M  V30 2132 H 206.462 -0.736426 -4.17556 0
M  V30 2133 C 204.921 0.488226 -3.33344 0
M  V30 2134 O 205.451 1.51766 -3.71927 0
M  V30 2135 N 203.657 0.490009 -2.86439 0
M  V30 2136 H 203.204 -0.348161 -2.55236 0
M  V30 2137 H 203.162 1.35741 -2.83587 0
M  V30 2138 O 206.973 1.04587 -1.2306 0
M  V30 2139 H 207.664 1.65902 -0.999811 0
M  V30 END ATOM
M  V30 BEGIN BOND
M  V30 END BOND
M  V30 END CTAB
M  END
$$$$
