drugbank_target|O31168 Non-heme chloroperoxidase (DB03793)
 OpenBabel12092120283D

  0  0  0     0  0            999 V3000
M  V30 BEGIN CTAB
M  V30 COUNTS 4199 4257 0 0 0
M  V30 BEGIN ATOM
M  V30 1 H -0.908 1.98254 -0.117106 0
M  V30 2 N 0 1.576 0 0
M  V30 3 C 0.933 2.03868 1.02534 0
M  V30 4 C 1.911 0.928543 1.3348 0
M  V30 5 O 3.095 1.19667 1.45644 0
M  V30 6 C 0.222 2.43627 2.35294 0
M  V30 7 C -0.732 3.65373 2.2001 0
M  V30 8 S 0.101 5.13292 1.52614 0
M  V30 9 C 1.257 5.56322 2.86805 0
M  V30 10 H 1.49 2.90518 0.631377 0
M  V30 11 H -0.977 1.52953 0.210867 0
M  V30 12 H 0.981 2.67203 3.11629 0
M  V30 13 H -0.358 1.57376 2.7183 0
M  V30 14 H -1.165 3.90944 3.18086 0
M  V30 15 H -1.563 3.418 1.51819 0
M  V30 16 H 0.729 5.58782 3.83104 0
M  V30 17 H 1.672 6.56266 2.65933 0
M  V30 18 H 2.08 4.83886 2.90714 0
M  V30 19 N 1.4781 -0.272755 1.55222 0
M  V30 20 C 2.8891 -0.84378 1.66545 0
M  V30 21 C 3.2401 -1.87035 0.592641 0
M  V30 22 O 2.3651 -2.14761 -0.265818 0
M  V30 23 C 2.9601 -1.53723 3.01918 0
M  V30 24 C 1.5191 -2.05628 3.15268 0
M  V30 25 C 0.6661 -0.898424 2.62343 0
M  V30 26 H 3.6171 -0.0490998 1.58624 0
M  V30 27 H 3.6381 -2.40421 2.94921 0
M  V30 28 H 3.1501 -0.78983 3.79978 0
M  V30 29 H 1.2511 -2.83329 2.41983 0
M  V30 30 H 1.3641 -2.27142 4.21833 0
M  V30 31 H -0.2719 -1.29186 2.19506 0
M  V30 32 H 0.5111 -0.164528 3.42906 0
M  V30 33 N 2.9562 -1.48159 -0.537278 0
M  V30 34 C 4.2032 -1.55804 -1.29349 0
M  V30 35 C 4.5312 -0.228802 -1.9315 0
M  V30 36 O 3.7862 0.780242 -1.79473 0
M  V30 37 C 4.0852 -2.63956 -2.40961 0
M  V30 38 C 3.7512 -4.0662 -1.94861 0
M  V30 39 C 2.4132 -4.45452 -1.82006 0
M  V30 40 C 4.7652 -4.96055 -1.59933 0
M  V30 41 C 2.0932 -5.71531 -1.32547 0
M  V30 42 C 4.4452 -6.22617 -1.11939 0
M  V30 43 C 3.1092 -6.60312 -0.976951 0
M  V30 44 H 2.3792 -0.570129 -0.473322 0
M  V30 45 H 5.0262 -1.81845 -0.600372 0
M  V30 46 H 3.3312 -2.31747 -3.15912 0
M  V30 47 H 5.0282 -2.67089 -2.99107 0
M  V30 48 H 1.6182 -3.75949 -2.05815 0
M  V30 49 H 5.8022 -4.66738 -1.68728 0
M  V30 50 H 1.0582 -5.99468 -1.202 0
M  V30 51 H 5.2322 -6.91318 -0.839811 0
M  V30 52 H 2.8592 -7.57895 -0.591501 0
M  V30 53 N 4.4343 0.785586 -1.36625 0
M  V30 54 C 5.6833 1.53883 -1.30396 0
M  V30 55 C 5.9963 1.95271 0.113452 0
M  V30 56 O 7.2023 2.69858 0.298142 0
M  V30 57 C 5.6583 2.77808 -2.28802 0
M  V30 58 C 5.2663 2.43574 -3.75999 0
M  V30 59 C 7.0103 3.55783 -2.31558 0
M  V30 60 C 4.9173 3.63919 -4.66173 0
M  V30 61 H 3.8473 0.577678 -0.484566 0
M  V30 62 H 6.4983 0.861705 -1.62009 0
M  V30 63 H 4.8803 3.47339 -1.90188 0
M  V30 64 H 6.0543 1.81916 -4.23371 0
M  V30 65 H 4.3693 1.78803 -3.76056 0
M  V30 66 H 6.9663 4.45205 -2.96137 0
M  V30 67 H 7.3093 3.94644 -1.3252 0
M  V30 68 H 7.8423 2.93235 -2.68809 0
M  V30 69 H 4.5813 3.3015 -5.66287 0
M  V30 70 H 4.1013 4.2473 -4.23515 0
M  V30 71 H 5.7803 4.30901 -4.82632 0
M  V30 72 N 5.9124 1.20967 1.01018 0
M  V30 73 C 7.1404 1.04956 1.78303 0
M  V30 74 C 7.5554 -0.400915 1.84494 0
M  V30 75 O 6.9124 -1.27826 1.30257 0
M  V30 76 C 6.9634 1.63403 3.22462 0
M  V30 77 O 6.6844 3.02775 3.16637 0
M  V30 78 C 8.1854 1.52432 4.16268 0
M  V30 79 H 5.4054 0.368858 0.560522 0
M  V30 80 H 7.9494 1.60193 1.27116 0
M  V30 81 H 6.1044 1.1227 3.70775 0
M  V30 82 H 6.5184 3.30626 4.07169 0
M  V30 83 H 7.9924 1.98078 5.15237 0
M  V30 84 H 8.4694 0.477875 4.36592 0
M  V30 85 H 9.0754 2.02787 3.73841 0
M  V30 86 N 7.3905 -1.2043 1.01659 0
M  V30 87 C 8.6365 -1.90079 0.706963 0
M  V30 88 C 8.9695 -1.78648 -0.761474 0
M  V30 89 O 8.2445 -1.17069 -1.55323 0
M  V30 90 C 8.5275 -3.41469 1.14327 0
M  V30 91 C 8.3805 -3.61833 2.67201 0
M  V30 92 C 9.6995 -4.34261 0.714529 0
M  V30 93 H 6.8185 -0.690254 0.2583 0
M  V30 94 H 9.4605 -1.41826 1.26433 0
M  V30 95 H 7.6105 -3.82696 0.669056 0
M  V30 96 H 9.2825 -3.2986 3.22475 0
M  V30 97 H 7.5255 -3.05304 3.08175 0
M  V30 98 H 8.1965 -4.67955 2.92783 0
M  V30 99 H 10.6725 -4.00682 1.12221 0
M  V30 100 H 9.5485 -5.38806 1.04784 0
M  V30 101 H 9.8095 -4.40431 -0.383799 0
M  V30 102 N 8.8686 -0.792821 -1.36206 0
M  V30 103 C 10.1166 -0.366062 -1.98757 0
M  V30 104 C 10.4376 1.0668 -1.63231 0
M  V30 105 O 9.7076 1.73587 -0.907978 0
M  V30 106 H 8.2876 -0.132364 -0.735179 0
M  V30 107 H 10.9496 -1.01562 -1.66347 0
M  V30 108 H 10.0456 -0.460638 -3.08682 0
M  V30 109 N 10.3467 1.47872 -0.545128 0
M  V30 110 C 11.2787 2.27869 0.246621 0
M  V30 111 C 12.2917 1.36282 0.890561 0
M  V30 112 O 13.4807 1.61207 0.766449 0
M  V30 113 C 10.5807 3.10159 1.36582 0
M  V30 114 C 9.7537 4.29627 0.820954 0
M  V30 115 C 8.8127 4.93607 1.82314 0
M  V30 116 O 7.8387 5.52366 1.37406 0
M  V30 117 N 9.0407 4.87211 3.15603 0
M  V30 118 H 11.8057 2.96459 -0.439539 0
M  V30 119 H 9.3667 1.57367 -0.380421 0
M  V30 120 H 11.3587 3.49829 2.03474 0
M  V30 121 H 9.9287 2.43891 1.9554 0
M  V30 122 H 9.1487 3.94192 -0.0244032 0
M  V30 123 H 10.4367 5.06928 0.436063 0
M  V30 124 H 9.8347 4.40651 3.54744 0
M  V30 125 H 8.3917 5.30937 3.78087 0
M  V30 126 N 11.8248 0.280983 1.55075 0
M  V30 127 C 12.7348 -0.61388 2.26426 0
M  V30 128 C 13.7508 -1.16521 1.29224 0
M  V30 129 O 14.9268 -1.19426 1.62171 0
M  V30 130 C 11.9918 -1.7788 2.9759 0
M  V30 131 C 11.0528 -1.26355 4.10284 0
M  V30 132 C 10.2858 -2.37295 4.78045 0
M  V30 133 O 10.5088 -3.56777 4.45047 0
M  V30 134 O 9.4428 -2.05119 5.65871 0
M  V30 135 H 13.2688 -0.0356932 3.03679 0
M  V30 136 H 10.8538 0.0481686 1.49322 0
M  V30 137 H 12.7358 -2.45791 3.42293 0
M  V30 138 H 11.4108 -2.34397 2.23249 0
M  V30 139 H 10.3178 -0.550735 3.70024 0
M  V30 140 H 11.6508 -0.744065 4.86543 0
M  V30 141 N 13.3029 -1.57598 0.00835791 0
M  V30 142 C 14.2509 -2.10078 -0.998508 0
M  V30 143 C 15.2449 -1.02262 -1.35051 0
M  V30 144 O 16.4509 -1.20719 -1.33518 0
M  V30 145 H 12.8259 -0.670903 -0.339696 0
M  V30 146 H 14.7969 -2.93648 -0.530398 0
M  V30 147 C 13.5459 -2.62615 -2.27879 0
M  V30 148 H 12.8689 -3.45213 -2.01662 0
M  V30 149 H 14.3089 -3.03004 -2.96588 0
M  V30 150 C 12.7679 -1.54407 -2.99433 0
M  V30 151 O 13.2979 -0.931812 -3.90743 0
M  V30 152 N 11.5039 -1.2695 -2.61404 0
M  V30 153 H 11.0509 -1.76924 -1.87232 0
M  V30 154 H 11.0089 -0.547704 -3.09593 0
M  V30 155 N 14.781 0.264519 -1.55364 0
M  V30 156 C 16.006 1.01726 -1.80739 0
M  V30 157 C 16.431 1.78836 -0.583044 0
M  V30 158 O 15.789 1.75167 0.467566 0
M  V30 159 C 15.837 1.94482 -3.03659 0
M  V30 160 O 14.941 3.03386 -2.7934 0
M  V30 161 H 14.282 0.290395 -0.597132 0
M  V30 162 H 16.812 0.290854 -2.02522 0
M  V30 163 H 16.822 2.36278 -3.32621 0
M  V30 164 H 15.497 1.37772 -3.92418 0
M  V30 165 H 14.074 2.65844 -2.61498 0
M  V30 166 N 16.2591 1.48442 0.529413 0
M  V30 167 C 17.4871 1.60151 1.30994 0
M  V30 168 C 17.9021 0.261985 1.86973 0
M  V30 169 O 17.2591 -0.748805 1.66431 0
M  V30 170 C 17.3101 2.64854 2.46038 0
M  V30 171 O 17.0311 3.93608 1.92365 0
M  V30 172 C 18.5321 2.87007 3.37849 0
M  V30 173 H 15.7521 0.539971 0.398338 0
M  V30 174 H 18.2961 1.94273 0.638597 0
M  V30 175 H 16.4511 2.33589 3.09055 0
M  V30 176 H 16.8651 4.51055 2.67675 0
M  V30 177 H 18.3391 3.64068 4.14919 0
M  V30 178 H 18.8161 1.95852 3.93114 0
M  V30 179 H 19.4221 3.19579 2.80623 0
M  V30 180 N 17.7372 -0.778329 1.37039 0
M  V30 181 C 18.9622 -1.57248 1.35233 0
M  V30 182 C 19.3872 -1.87999 -0.0615568 0
M  V30 183 O 18.7452 -1.48734 -1.03672 0
M  V30 184 C 18.7932 -2.86353 2.19167 0
M  V30 185 O 17.8972 -3.80442 1.59178 0
M  V30 186 H 17.2382 -0.476569 0.462362 0
M  V30 187 H 19.7682 -0.963853 1.80474 0
M  V30 188 H 19.7782 -3.35519 2.32145 0
M  V30 189 H 18.4532 -2.63299 3.21942 0
M  V30 190 H 17.0302 -3.39067 1.55203 0
M  V30 191 N 19.2153 -1.21501 -1.00376 0
M  V30 192 C 20.4643 -1.02718 -1.73586 0
M  V30 193 C 20.7773 0.439589 -1.90596 0
M  V30 194 O 21.9833 0.746848 -2.61026 0
M  V30 195 C 20.4393 -1.78929 -3.1227 0
M  V30 196 C 20.0473 -3.29783 -3.03228 0
M  V30 197 C 21.7913 -1.68557 -3.89601 0
M  V30 198 C 19.6983 -3.98479 -4.36999 0
M  V30 199 H 18.6283 -0.380733 -0.650814 0
M  V30 200 H 21.2793 -1.45248 -1.1214 0
M  V30 201 H 19.6613 -1.29192 -3.74333 0
M  V30 202 H 20.8353 -3.86832 -2.50395 0
M  V30 203 H 19.1503 -3.40711 -2.39385 0
M  V30 204 H 21.7473 -2.17211 -4.88593 0
M  V30 205 H 22.0903 -0.644021 -4.11288 0
M  V30 206 H 22.6233 -2.15778 -3.34193 0
M  V30 207 H 19.3623 -5.02841 -4.20513 0
M  V30 208 H 18.8823 -3.46219 -4.89788 0
M  V30 209 H 20.5613 -4.03462 -5.05794 0
M  V30 210 N 20.6934 1.19889 -1.02296 0
M  V30 211 C 21.9704 1.85148 -0.630832 0
M  V30 212 C 22.3504 1.91385 0.890782 0
M  V30 213 O 21.6984 1.42642 1.78509 0
M  V30 214 C 21.9084 3.24442 -1.28602 0
M  V30 215 C 23.2564 4.00663 -1.4055 0
M  V30 216 O 24.2804 3.33818 -1.24273 0
M  V30 217 O 23.1394 5.20387 -1.66913 0
M  V30 218 H 20.2334 0.797613 -0.218499 0
M  V30 219 H 22.7794 1.27427 -1.12074 0
M  V30 220 H 21.5514 3.14704 -2.32545 0
M  V30 221 H 21.1744 3.89802 -0.7836 0
M  V30 222 N 22.1715 0.800033 1.35784 0
M  V30 223 C 23.1015 0.220184 2.3246 0
M  V30 224 C 24.0825 -0.65073 1.57161 0
M  V30 225 O 25.2675 -0.582359 1.85263 0
M  V30 226 C 22.3975 -0.637353 3.41402 0
M  V30 227 C 21.3515 0.134531 4.27789 0
M  V30 228 C 20.6775 -0.844285 5.27992 0
M  V30 229 C 21.9775 1.32979 5.05088 0
M  V30 230 H 23.6715 1.02787 2.81203 0
M  V30 231 H 21.2175 0.495717 1.35199 0
M  V30 232 H 23.1705 -1.05302 4.08031 0
M  V30 233 H 21.8945 -1.47785 2.91251 0
M  V30 234 H 20.5535 0.531296 3.6273 0
M  V30 235 H 20.2015 -1.68011 4.74111 0
M  V30 236 H 19.9015 -0.332184 5.8666 0
M  V30 237 H 21.4255 -1.2583 5.97494 0
M  V30 238 H 22.8395 0.98934 5.64699 0
M  V30 239 H 21.2365 1.77593 5.7322 0
M  V30 240 H 22.3065 2.11978 4.36111 0
M  V30 241 N 23.6496 -1.47581 0.552962 0
M  V30 242 C 24.8796 -2.06575 0.0320091 0
M  V30 243 C 25.2876 -1.4067 -1.26525 0
M  V30 244 O 24.6306 -0.495808 -1.76883 0
M  V30 245 C 24.6926 -3.58705 -0.238913 0
M  V30 246 C 24.3566 -4.46625 0.968272 0
M  V30 247 C 25.3536 -4.85 1.87274 0
M  V30 248 C 23.0386 -4.88201 1.18175 0
M  V30 249 C 25.0326 -5.63745 2.9744 0
M  V30 250 C 22.7196 -5.66712 2.28651 0
M  V30 251 C 23.7176 -6.04394 3.18114 0
M  V30 252 O 23.4056 -6.81324 4.26676 0
M  V30 253 H 23.1376 -0.674763 0.0408689 0
M  V30 254 H 25.6916 -1.90634 0.764719 0
M  V30 255 H 23.9216 -3.72844 -1.02588 0
M  V30 256 H 25.6106 -3.99735 -0.704731 0
M  V30 257 H 26.3766 -4.53482 1.71984 0
M  V30 258 H 22.2556 -4.58339 0.494593 0
M  V30 259 H 25.7996 -5.93077 3.67296 0
M  V30 260 H 21.6966 -5.97642 2.43915 0
M  V30 261 H 22.4646 -6.99712 4.24671 0
M  V30 262 N 25.1277 -0.289203 -1.54924 0
M  V30 263 C 26.3577 0.325989 -2.04012 0
M  V30 264 C 26.7657 1.48961 -1.1665 0
M  V30 265 O 26.1087 1.82794 -0.1822 0
M  V30 266 C 26.1707 0.856112 -3.49158 0
M  V30 267 C 25.8347 -0.180697 -4.56643 0
M  V30 268 C 26.8317 -1.0051 -5.10092 0
M  V30 269 C 24.5167 -0.318998 -5.01286 0
M  V30 270 C 26.5107 -1.95385 -6.06715 0
M  V30 271 C 24.1977 -1.27121 -5.97732 0
M  V30 272 C 25.1957 -2.08713 -6.50329 0
M  V30 273 O 24.8837 -3.02322 -7.44887 0
M  V30 274 H 24.6157 0.0765276 -0.671654 0
M  V30 275 H 27.1697 -0.423254 -2.00992 0
M  V30 276 H 25.3997 1.65567 -3.49463 0
M  V30 277 H 27.0887 1.38591 -3.81507 0
M  V30 278 H 27.8547 -0.90906 -4.76404 0
M  V30 279 H 23.7337 0.306108 -4.59983 0
M  V30 280 H 27.2777 -2.59111 -6.47694 0
M  V30 281 H 23.1747 -1.36801 -6.30837 0
M  V30 282 H 23.9427 -2.97165 -7.6265 0
M  V30 283 N 26.6058 1.57591 -0.0167156 0
M  V30 284 C 27.5158 2.1291 0.98521 0
M  V30 285 C 28.5318 1.07834 1.36557 0
M  V30 286 O 29.7078 1.39826 1.44951 0
M  V30 287 C 26.7728 2.63512 2.25305 0
M  V30 288 C 25.8338 3.83256 1.93426 0
M  V30 289 C 25.0668 4.31435 3.14165 0
M  V30 290 O 25.2898 3.78851 4.26413 0
M  V30 291 O 24.2238 5.23416 2.97186 0
M  V30 292 H 28.0498 2.98772 0.544888 0
M  V30 293 H 25.6348 1.48012 0.203141 0
M  V30 294 H 27.5168 2.96183 2.99756 0
M  V30 295 H 26.1918 1.8074 2.68542 0
M  V30 296 H 25.0988 3.55531 1.16398 0
M  V30 297 H 26.4318 4.67153 1.55013 0
M  V30 298 N 28.0839 -0.256276 1.55502 0
M  V30 299 C 29.3609 -1.00789 1.67633 0
M  V30 300 C 29.7409 -2.03706 0.553826 0
M  V30 301 O 29.0889 -2.24145 -0.443969 0
M  V30 302 C 29.2989 -1.64968 3.07549 0
M  V30 303 C 30.6469 -2.15505 3.65845 0
M  V30 304 O 31.6709 -1.74925 3.1029 0
M  V30 305 O 30.5299 -2.89986 4.63217 0
M  V30 306 H 27.6239 -0.468553 0.681459 0
M  V30 307 H 30.1699 -0.250806 1.67836 0
M  V30 308 H 28.9419 -0.904785 3.80696 0
M  V30 309 H 28.5649 -2.47321 3.11317 0
M  V30 310 N 29.562 -1.4872 -0.521534 0
M  V30 311 C 30.512 -1.60269 -1.62166 0
M  V30 312 C 31.496 -0.45935 -1.54204 0
M  V30 313 O 32.688 -0.711241 -1.62081 0
M  V30 314 C 29.817 -1.65344 -3.00859 0
M  V30 315 C 28.903 -2.85187 -3.13894 0
M  V30 316 N 29.294 -4.09509 -2.96877 0
M  V30 317 C 27.592 -2.82695 -3.44963 0
M  V30 318 C 28.293 -4.89959 -3.13552 0
M  V30 319 N 27.269 -4.22934 -3.41508 0
M  V30 320 H 31.071 -2.5413 -1.47632 0
M  V30 321 H 28.585 -1.45209 -0.727194 0
M  V30 322 H 30.582 -1.71713 -3.79895 0
M  V30 323 H 29.242 -0.726058 -3.16478 0
M  V30 324 H 30.253 -4.39814 -2.73467 0
M  V30 325 H 26.93 -1.99249 -3.66887 0
M  V30 326 H 28.32 -5.98654 -3.05061 0
M  V30 327 N 31.0401 0.771051 -1.3745 0
M  V30 328 C 32.2881 1.52661 -1.32435 0
M  V30 329 C 32.6091 1.9479 0.0905024 0
M  V30 330 O 31.8791 1.66348 1.03466 0
M  V30 331 H 30.4591 0.566218 -0.487244 0
M  V30 332 H 33.1211 0.917636 -1.71946 0
M  V30 333 H 32.2171 2.42568 -1.96385 0
M  V30 334 N 32.5182 1.22032 0.997298 0
M  V30 335 C 33.4812 0.987909 2.06816 0
M  V30 336 C 34.4812 -0.0440084 1.6074 0
M  V30 337 O 35.6712 0.194053 1.73116 0
M  V30 338 C 32.8032 0.49132 3.37341 0
M  V30 339 H 33.9962 1.93803 2.28868 0
M  V30 340 H 31.5492 1.03838 1.16822 0
M  V30 341 H 32.2842 -0.463364 3.20973 0
M  V30 342 H 32.0692 1.23575 3.72118 0
M  V30 343 H 33.5592 0.348824 4.16141 0
M  V30 344 N 33.9963 -1.19345 1.0293 0
M  V30 345 C 35.2443 -1.88665 0.724574 0
M  V30 346 C 35.5653 -1.80036 -0.749144 0
M  V30 347 O 34.8353 -1.2111 -1.53978 0
M  V30 348 H 33.4153 -0.698406 0.265025 0
M  V30 349 H 36.0773 -1.44885 1.30362 0
M  V30 350 H 35.1733 -2.94987 1.01926 0
M  V30 351 N 35.4744 -0.807222 -1.35358 0
M  V30 352 C 36.4064 -0.175717 -2.28525 0
M  V30 353 C 37.4194 0.625354 -1.5031 0
M  V30 354 O 38.6084 0.457611 -1.72535 0
M  V30 355 C 35.7084 0.773471 -3.29956 0
M  V30 356 C 34.8814 0.0186296 -4.37396 0
M  V30 357 C 33.9404 0.886395 -5.18681 0
M  V30 358 O 32.9664 0.337106 -5.68201 0
M  V30 359 N 34.1684 2.20839 -5.36852 0
M  V30 360 H 36.9334 -0.976091 -2.83359 0
M  V30 361 H 34.4944 -0.662737 -1.47714 0
M  V30 362 H 36.4864 1.35824 -3.81227 0
M  V30 363 H 35.0564 1.47465 -2.75632 0
M  V30 364 H 34.2764 -0.747349 -3.87051 0
M  V30 365 H 35.5644 -0.501577 -5.06322 0
M  V30 366 H 34.9624 2.67858 -4.98265 0
M  V30 367 H 33.5194 2.74237 -5.91301 0
M  V30 368 N 36.9525 1.47285 -0.560781 0
M  V30 369 C 38.3635 1.86258 -0.128343 0
M  V30 370 C 38.7145 1.46699 1.30284 0
M  V30 371 O 37.8395 0.871698 1.98067 0
M  V30 372 C 38.4345 3.38044 -0.22614 0
M  V30 373 C 36.9935 3.76096 0.151283 0
M  V30 374 C 36.1405 2.71335 -0.572084 0
M  V30 375 H 39.0915 1.38752 -0.770297 0
M  V30 376 H 39.1125 3.76441 0.554322 0
M  V30 377 H 38.6245 3.66806 -1.26788 0
M  V30 378 H 36.7255 3.52951 1.19399 0
M  V30 379 H 36.8385 4.78641 -0.209765 0
M  V30 380 H 35.2025 2.54696 -0.0147653 0
M  V30 381 H 35.9855 3.02938 -1.61504 0
M  V30 382 N 38.4306 0.297415 1.54768 0
M  V30 383 C 39.6766 -0.313376 2.00364 0
M  V30 384 C 40.0096 -1.53815 1.18553 0
M  V30 385 O 39.2846 -1.92739 0.261103 0
M  V30 386 C 39.5676 -0.673525 3.53745 0
M  V30 387 C 39.4206 0.560133 4.46299 0
M  V30 388 C 40.7396 -1.50143 4.13697 0
M  V30 389 H 37.8586 -0.112428 0.728374 0
M  V30 390 H 40.5006 0.4088 1.8555 0
M  V30 391 H 38.6506 -1.28881 3.665 0
M  V30 392 H 40.3226 1.19863 4.45455 0
M  V30 393 H 38.5656 1.19405 4.17043 0
M  V30 394 H 39.2366 0.26405 5.51368 0
M  V30 395 H 41.7126 -0.981588 4.04356 0
M  V30 396 H 40.5886 -1.72221 5.21182 0
M  V30 397 H 40.8496 -2.48952 3.65343 0
M  V30 398 N 39.9087 -1.5758 0.0250728 0
M  V30 399 C 41.1547 -1.91917 -0.655413 0
M  V30 400 C 41.4877 -0.901433 -1.72011 0
M  V30 401 O 40.7627 0.0764069 -1.9435 0
M  V30 402 C 41.0457 -3.36751 -1.27558 0
M  V30 403 C 40.8987 -4.49258 -0.220719 0
M  V30 404 C 42.2177 -3.81469 -2.19475 0
M  V30 405 H 39.3367 -0.697925 -0.23679 0
M  V30 406 H 41.9787 -1.89825 0.0815036 0
M  V30 407 H 40.1287 -3.38664 -1.90365 0
M  V30 408 H 41.8007 -4.59478 0.409601 0
M  V30 409 H 40.0437 -4.31415 0.454264 0
M  V30 410 H 40.7147 -5.47618 -0.694175 0
M  V30 411 H 43.1907 -3.81266 -1.66659 0
M  V30 412 H 42.0667 -4.83512 -2.59822 0
M  V30 413 H 42.3277 -3.16744 -3.08424 0
M  V30 414 N 41.3868 0.248026 -1.55636 0
M  V30 415 C 42.3168 1.31079 -1.93237 0
M  V30 416 C 43.2978 1.50264 -0.797174 0
M  V30 417 O 44.4828 1.62891 -1.05737 0
M  V30 418 C 41.6128 2.66575 -2.22609 0
M  V30 419 C 40.5668 2.62087 -3.3837 0
M  V30 420 C 39.8928 4.01369 -3.53281 0
M  V30 421 C 41.1928 2.19171 -4.7409 0
M  V30 422 H 42.8868 0.998556 -2.82257 0
M  V30 423 H 40.4328 0.47891 -1.35803 0
M  V30 424 H 42.3858 3.41057 -2.47503 0
M  V30 425 H 41.1098 2.99432 -1.30414 0
M  V30 426 H 39.7688 1.90063 -3.13483 0
M  V30 427 H 39.4168 4.31489 -2.58508 0
M  V30 428 H 39.1168 3.99254 -4.31127 0
M  V30 429 H 40.6408 4.77552 -3.80495 0
M  V30 430 H 42.0548 2.83384 -4.98363 0
M  V30 431 H 40.4518 2.2817 -5.5503 0
M  V30 432 H 41.5218 1.14336 -4.71227 0
M  V30 433 N 42.8649 1.48995 0.513639 0
M  V30 434 C 44.1139 1.57093 1.2651 0
M  V30 435 C 44.4269 0.257091 1.93903 0
M  V30 436 O 45.6329 0.216478 2.70636 0
M  V30 437 C 44.0889 2.77118 2.29638 0
M  V30 438 C 43.6969 4.15209 1.68241 0
M  V30 439 C 45.4409 2.94538 3.05692 0
M  V30 440 C 43.3479 5.26474 2.69406 0
M  V30 441 H 42.2779 0.584876 0.475854 0
M  V30 442 H 44.9289 1.7536 0.540487 0
M  V30 443 H 43.3109 2.52319 3.05207 0
M  V30 444 H 44.4849 4.50094 0.987505 0
M  V30 445 H 42.7999 4.03042 1.04623 0
M  V30 446 H 45.3969 3.74832 3.8132 0
M  V30 447 H 45.7399 2.04614 3.62545 0
M  V30 448 H 46.2729 3.19316 2.37238 0
M  V30 449 H 43.0119 6.18417 2.17351 0
M  V30 450 H 42.5319 4.96058 3.37175 0
M  V30 451 H 44.2109 5.55277 3.32078 0
M  V30 452 N 44.343 -0.763751 1.37857 0
M  V30 453 C 45.293 -1.86765 1.30777 0
M  V30 454 C 46.277 -1.59726 0.194015 0
M  V30 455 O 47.469 -1.7172 0.42911 0
M  V30 456 C 44.598 -3.24343 1.12502 0
M  V30 457 C 43.684 -3.57307 2.28456 0
M  V30 458 N 44.075 -3.61398 3.53871 0
M  V30 459 C 42.373 -3.87517 2.20786 0
M  V30 460 C 43.074 -3.91339 4.30382 0
M  V30 461 N 42.05 -4.07649 3.59615 0
M  V30 462 H 45.852 -1.88191 2.25746 0
M  V30 463 H 43.366 -0.9606 1.30944 0
M  V30 464 H 45.363 -4.03327 1.05514 0
M  V30 465 H 44.023 -3.24175 0.184574 0
M  V30 466 H 45.034 -3.43407 3.87675 0
M  V30 467 H 41.711 -3.95125 1.34844 0
M  V30 468 H 43.101 -4.01213 5.3896 0
M  V30 469 N 45.8211 -1.22559 -0.990812 0
M  V30 470 C 47.0691 -1.04933 -1.72724 0
M  V30 471 C 47.3901 0.416158 -1.90508 0
M  V30 472 O 46.6601 1.29918 -1.46622 0
M  V30 473 H 45.2401 -0.385296 -0.639965 0
M  V30 474 H 47.9021 -1.54105 -1.19322 0
M  V30 475 H 46.9981 -1.52886 -2.72089 0
M  V30 476 N 47.2992 1.18797 -1.03562 0
M  V30 477 C 48.5462 1.8865 -0.736023 0
M  V30 478 C 48.8742 1.80041 0.735889 0
M  V30 479 O 48.1292 1.19179 1.55225 0
M  V30 480 C 48.4282 3.38692 -1.14117 0
M  V30 481 C 48.0942 3.67504 -2.6125 0
M  V30 482 C 46.7562 3.75078 -3.01447 0
M  V30 483 C 49.1082 3.80293 -3.56408 0
M  V30 484 C 46.4362 3.92915 -4.35701 0
M  V30 485 C 48.7882 3.99645 -4.90374 0
M  V30 486 C 47.4522 4.05453 -5.30249 0
M  V30 487 H 46.7222 0.690321 -0.26933 0
M  V30 488 H 49.3692 1.40641 -1.29971 0
M  V30 489 H 47.6742 3.88645 -0.496202 0
M  V30 490 H 49.3712 3.91072 -0.886789 0
M  V30 491 H 45.9612 3.62223 -2.29113 0
M  V30 492 H 50.1452 3.73779 -3.26501 0
M  V30 493 H 45.4012 3.95653 -4.66121 0
M  V30 494 H 49.5752 4.08482 -5.64017 0
M  V30 495 H 47.2022 4.19027 -6.34288 0
M  V30 496 N 48.7773 0.814389 1.34928 0
M  V30 497 C 50.1883 0.458364 1.80986 0
M  V30 498 C 50.5393 -1.02042 1.67577 0
M  V30 499 O 49.6643 -1.79352 1.21086 0
M  V30 500 C 50.2593 0.825212 3.28597 0
M  V30 501 C 48.8183 0.521677 3.72767 0
M  V30 502 C 47.9653 1.04668 2.56788 0
M  V30 503 H 50.9163 1.00533 1.22795 0
M  V30 504 H 50.9373 0.12571 3.80292 0
M  V30 505 H 50.4493 1.90154 3.38324 0
M  V30 506 H 48.5503 -0.545589 3.68584 0
M  V30 507 H 48.6633 1.05977 4.67232 0
M  V30 508 H 47.0273 0.468622 2.50352 0
M  V30 509 H 47.8103 2.12927 2.6929 0
M  V30 510 N 50.2554 -1.46986 0.568584 0
M  V30 511 C 51.1854 -2.32946 -0.160753 0
M  V30 512 C 52.1664 -1.44487 -0.897631 0
M  V30 513 O 53.3514 -1.73327 -0.875867 0
M  V30 514 C 50.4814 -3.26494 -1.18403 0
M  V30 515 C 49.4354 -4.24282 -0.562895 0
M  V30 516 C 48.7614 -5.07236 -1.69163 0
M  V30 517 C 50.0614 -5.19989 0.490761 0
M  V30 518 H 51.7554 -2.94175 0.556916 0
M  V30 519 H 49.3014 -1.4146 0.26927 0
M  V30 520 H 51.2544 -3.85477 -1.70251 0
M  V30 521 H 49.9784 -2.63343 -1.93179 0
M  V30 522 H 48.6374 -3.66541 -0.0656164 0
M  V30 523 H 48.2854 -4.4048 -2.42871 0
M  V30 524 H 47.9854 -5.7345 -1.28174 0
M  V30 525 H 49.5094 -5.6908 -2.21314 0
M  V30 526 H 50.9234 -5.73271 0.0579047 0
M  V30 527 H 49.3204 -5.94469 0.820165 0
M  V30 528 H 50.3904 -4.64777 1.3824 0
M  V30 529 N 51.7335 -0.305618 -1.54608 0
M  V30 530 C 52.9585 0.307562 -2.05107 0
M  V30 531 C 53.3835 1.46385 -1.18123 0
M  V30 532 O 52.7415 1.8034 -0.186324 0
M  V30 533 C 52.7895 0.73704 -3.52987 0
M  V30 534 O 51.8935 1.84134 -3.6901 0
M  V30 535 H 51.2345 0.0589143 -0.661381 0
M  V30 536 H 53.7645 -0.448807 -1.99617 0
M  V30 537 H 53.7745 1.02459 -3.94925 0
M  V30 538 H 52.4495 -0.108773 -4.15758 0
M  V30 539 H 51.0265 1.55398 -3.38978 0
M  V30 540 N 53.2116 1.57565 -0.0334293 0
M  V30 541 C 54.4596 1.91598 0.642999 0
M  V30 542 C 54.7806 0.910847 1.7242 0
M  V30 543 O 54.0506 -0.0469931 1.95844 0
M  V30 544 H 52.6306 0.707228 0.240496 0
M  V30 545 H 55.2926 1.94726 -0.0822488 0
M  V30 546 H 54.3886 2.92336 1.09298 0
M  V30 547 N 54.6897 -0.239769 1.55765 0
M  V30 548 C 55.6397 -1.30002 1.87306 0
M  V30 549 C 56.6237 -1.43156 0.73452 0
M  V30 550 O 57.8157 -1.46277 0.99659 0
M  V30 551 C 54.9447 -2.65409 2.17745 0
M  V30 552 C 54.0307 -2.56231 3.37945 0
M  V30 553 N 54.4217 -2.16689 4.57033 0
M  V30 554 C 52.7197 -2.87229 3.41197 0
M  V30 555 C 53.4207 -2.18318 5.39177 0
M  V30 556 N 52.3967 -2.58098 4.78421 0
M  V30 557 H 56.1987 -0.984912 2.76906 0
M  V30 558 H 53.7127 -0.448381 1.56087 0
M  V30 559 H 55.7097 -3.41934 2.38509 0
M  V30 560 H 54.3697 -2.97781 1.29448 0
M  V30 561 H 55.3807 -1.88116 4.82528 0
M  V30 562 H 52.0577 -3.24094 2.63191 0
M  V30 563 H 53.4477 -1.90025 6.44469 0
M  V30 564 N 56.1678 -1.49265 -0.50573 0
M  V30 565 C 57.3928 -1.62478 -1.28902 0
M  V30 566 C 57.8178 -0.294332 -1.85783 0
M  V30 567 O 57.1758 0.737412 -1.65626 0
M  V30 568 C 57.2238 -2.69268 -2.39848 0
M  V30 569 O 56.3278 -2.28113 -3.43567 0
M  V30 570 H 55.6688 -0.54399 -0.380751 0
M  V30 571 H 58.1988 -1.95421 -0.605952 0
M  V30 572 H 58.2088 -2.91291 -2.85681 0
M  V30 573 H 56.8838 -3.65846 -1.97812 0
M  V30 574 H 55.4608 -2.16401 -3.03685 0
M  V30 575 N 57.6459 0.756429 -1.3826 0
M  V30 576 C 58.8919 1.5168 -1.35517 0
M  V30 577 C 59.2469 1.9232 0.0554451 0
M  V30 578 O 58.5399 1.62352 1.01746 0
M  V30 579 C 58.7339 2.78313 -2.24224 0
M  V30 580 C 58.5629 2.50053 -3.7377 0
M  V30 581 C 57.3329 2.43414 -4.42807 0
M  V30 582 C 59.5309 2.1702 -4.66269 0
M  V30 583 N 57.5129 2.07398 -5.77805 0
M  V30 584 C 58.8839 1.91271 -5.89759 0
M  V30 585 C 60.9389 2.03305 -4.54501 0
M  V30 586 C 59.6419 1.53192 -7.02798 0
M  V30 587 C 61.6679 1.66627 -5.67441 0
M  V30 588 C 61.0299 1.4175 -6.8999 0
M  V30 589 H 57.1289 0.554735 -0.551174 0
M  V30 590 H 59.7129 0.881106 -1.73622 0
M  V30 591 H 57.8839 3.39696 -1.88311 0
M  V30 592 H 59.6159 3.44343 -2.12627 0
M  V30 593 H 56.3709 2.59789 -3.95988 0
M  V30 594 H 56.7949 1.92044 -6.4919 0
M  V30 595 H 61.4369 2.21215 -3.60311 0
M  V30 596 H 59.1549 1.34022 -7.96909 0
M  V30 597 H 62.7409 1.56652 -5.60314 0
M  V30 598 H 61.6209 1.1379 -7.759 0
M  V30 599 N 59.124 1.23083 0.984299 0
M  V30 600 C 60.034 1.02515 2.11016 0
M  V30 601 C 61.05 -0.0291702 1.73976 0
M  V30 602 O 62.226 0.165434 2.00719 0
M  V30 603 C 59.291 0.614673 3.41208 0
M  V30 604 C 58.352 1.74359 3.92297 0
M  V30 605 C 57.585 1.35261 5.16275 0
M  V30 606 O 57.808 0.235136 5.69915 0
M  V30 607 O 56.742 2.17227 5.61334 0
M  V30 608 H 60.568 1.96862 2.31255 0
M  V30 609 H 58.153 1.01753 1.09392 0
M  V30 610 H 60.035 0.396518 4.1953 0
M  V30 611 H 58.71 -0.299851 3.22308 0
M  V30 612 H 57.617 2.01635 3.1511 0
M  V30 613 H 58.95 2.63629 4.15645 0
M  V30 614 N 60.6021 -1.18246 1.0419 0
M  V30 615 C 62.0181 -1.40269 0.761366 0
M  V30 616 C 62.2181 -1.90777 -0.648578 0
M  V30 617 O 61.2741 -2.0929 -1.41258 0
M  V30 618 C 62.5871 -2.40237 1.8085 0
M  V30 619 C 64.1351 -2.53961 1.82955 0
M  V30 620 C 64.6101 -3.57194 2.86664 0
M  V30 621 N 66.1011 -3.64702 2.85563 0
M  V30 622 C 66.8361 -4.44309 3.6246 0
M  V30 623 N 66.3321 -5.27514 4.49111 0
M  V30 624 N 68.1251 -4.39084 3.50944 0
M  V30 625 H 60.2761 -0.837882 1.95175 0
M  V30 626 H 62.5391 -0.430608 0.84456 0
M  V30 627 H 62.2451 -2.10176 2.81991 0
M  V30 628 H 62.1191 -3.39601 1.64168 0
M  V30 629 H 64.5061 -2.83338 0.824855 0
M  V30 630 H 64.5871 -1.54706 2.03715 0
M  V30 631 H 64.2311 -3.28558 3.87314 0
M  V30 632 H 64.1611 -4.5613 2.6316 0
M  V30 633 H 66.6521 -3.05289 2.22727 0
M  V30 634 H 66.9651 -5.85411 5.04493 0
M  V30 635 H 65.3101 -5.2693 4.53178 0
M  V30 636 H 68.5011 -3.7313 2.82651 0
M  V30 637 H 68.6741 -5.00883 4.11121 0
M  V30 638 N 62.0802 -0.821533 -1.34494 0
M  V30 639 C 63.0122 -0.199946 -2.28326 0
M  V30 640 C 64.0252 0.609377 -1.50965 0
M  V30 641 O 65.2142 0.439285 -1.7301 0
M  V30 642 C 62.3142 0.738431 -3.30757 0
M  V30 643 C 61.4872 -0.0277632 -4.37391 0
M  V30 644 C 60.5462 0.831332 -5.19591 0
M  V30 645 O 59.5722 0.276822 -5.68526 0
M  V30 646 N 60.7742 2.15132 -5.39165 0
M  V30 647 H 63.5392 -1.00609 -2.82308 0
M  V30 648 H 61.1002 -0.678366 -1.47003 0
M  V30 649 H 63.0922 1.31773 -3.82646 0
M  V30 650 H 61.6622 1.44533 -2.7718 0
M  V30 651 H 60.8822 -0.788359 -3.86236 0
M  V30 652 H 62.1702 -0.555251 -5.05761 0
M  V30 653 H 61.5682 2.62559 -5.01078 0
M  V30 654 H 60.1252 2.6795 -5.94177 0
M  V30 655 N 63.5583 1.46682 -0.576371 0
M  V30 656 C 64.7833 2.07304 -0.0630475 0
M  V30 657 C 65.2083 1.42329 1.2298 0
M  V30 658 O 64.5663 0.504865 1.74129 0
M  V30 659 C 64.6143 3.60472 0.095895 0
M  V30 660 O 63.7183 3.95927 1.15394 0
M  V30 661 H 63.0593 0.661288 -0.0599463 0
M  V30 662 H 65.5893 1.88417 -0.797511 0
M  V30 663 H 65.5993 4.06865 0.304071 0
M  V30 664 H 64.2743 4.07157 -0.84828 0
M  V30 665 H 62.8513 3.61252 0.924724 0
M  V30 666 N 65.0364 0.313813 1.54444 0
M  V30 667 C 65.9994 -0.54379 2.22656 0
M  V30 668 C 66.9994 -1.05124 1.21678 0
M  V30 669 O 68.1894 -0.945225 1.46325 0
M  V30 670 C 65.3214 -1.75427 2.92298 0
M  V30 671 H 66.5144 0.0523599 2.99854 0
M  V30 672 H 64.0674 0.0647834 1.56166 0
M  V30 673 H 64.8024 -2.38991 2.19211 0
M  V30 674 H 64.5874 -1.39791 3.66334 0
M  V30 675 H 66.0774 -2.36325 3.44297 0
M  V30 676 N 66.5145 -1.57545 0.0417849 0
M  V30 677 C 67.4775 -2.09885 -0.92093 0
M  V30 678 C 68.4775 -1.01648 -1.24596 0
M  V30 679 O 69.6675 -1.27759 -1.1842 0
M  V30 680 C 66.7995 -2.57527 -2.23367 0
M  V30 681 H 67.9925 -2.96236 -0.467382 0
M  V30 682 H 65.5455 -1.5493 -0.206467 0
M  V30 683 H 66.2805 -1.74542 -2.73323 0
M  V30 684 H 66.0655 -3.36613 -2.01083 0
M  V30 685 H 67.5555 -2.98201 -2.92346 0
M  V30 686 N 67.9926 0.231505 -1.5589 0
M  V30 687 C 68.9226 1.29022 -1.94617 0
M  V30 688 C 69.9036 1.4941 -0.813067 0
M  V30 689 O 71.0886 1.6176 -1.07459 0
M  V30 690 C 68.2186 2.64199 -2.25424 0
M  V30 691 C 67.1726 2.58484 -3.41131 0
M  V30 692 C 66.4986 3.97599 -3.57518 0
M  V30 693 C 67.7986 2.1413 -4.76388 0
M  V30 694 H 69.4926 0.968563 -2.83301 0
M  V30 695 H 67.0386 0.464479 -1.36303 0
M  V30 696 H 68.9916 3.38413 -2.51107 0
M  V30 697 H 67.7156 2.98032 -1.33583 0
M  V30 698 H 66.3746 1.86727 -3.15481 0
M  V30 699 H 66.0226 4.28723 -2.6307 0
M  V30 700 H 65.7226 3.94659 -4.35337 0
M  V30 701 H 67.2466 4.7349 -3.85538 0
M  V30 702 H 68.6606 2.78083 -5.01341 0
M  V30 703 H 67.0576 2.2227 -5.57419 0
M  V30 704 H 68.1276 1.09331 -4.72414 0
M  V30 705 N 69.4707 1.49531 0.497807 0
M  V30 706 C 70.4007 1.6935 1.60757 0
M  V30 707 C 71.3817 0.542218 1.61227 0
M  V30 708 O 72.5667 0.778417 1.77917 0
M  V30 709 C 69.6967 1.76298 2.99226 0
M  V30 710 C 68.6507 2.91248 3.13622 0
M  V30 711 C 67.9767 2.83312 4.53474 0
M  V30 712 C 69.2767 4.3214 2.93346 0
M  V30 713 H 70.9707 2.62263 1.44425 0
M  V30 714 H 68.5167 1.26208 0.693367 0
M  V30 715 H 70.4697 1.88749 3.76765 0
M  V30 716 H 69.1937 0.799871 3.16654 0
M  V30 717 H 67.8527 2.78404 2.38509 0
M  V30 718 H 67.5007 1.84902 4.67782 0
M  V30 719 H 67.2007 3.60465 4.64046 0
M  V30 720 H 68.7247 2.97775 5.33069 0
M  V30 721 H 70.1387 4.45649 3.60652 0
M  V30 722 H 68.5357 5.1054 3.15387 0
M  V30 723 H 69.6057 4.46363 1.89441 0
M  V30 724 N 70.9488 -0.749086 1.3866 0
M  V30 725 C 72.2258 -1.4992 1.25632 0
M  V30 726 C 72.6058 -2.10633 -0.140317 0
M  V30 727 O 71.9538 -1.97437 -1.15025 0
M  V30 728 C 72.1638 -2.56195 2.36992 0
M  V30 729 C 73.5118 -3.22972 2.75634 0
M  V30 730 O 74.5358 -2.66502 2.36337 0
M  V30 731 O 73.3948 -4.25122 3.43415 0
M  V30 732 H 70.4888 -0.665067 0.491544 0
M  V30 733 H 73.0348 -0.784113 1.50498 0
M  V30 734 H 71.8068 -2.09612 3.30422 0
M  V30 735 H 71.4298 -3.35279 2.13714 0
M  V30 736 N 72.4269 -1.23603 -0.977757 0
M  V30 737 C 73.3899 -1.02069 -2.05218 0
M  V30 738 C 74.3899 0.0184305 -1.60789 0
M  V30 739 O 75.5799 -0.221569 -1.72785 0
M  V30 740 C 72.7119 -0.544926 -3.36517 0
M  V30 741 H 73.9049 -1.9742 -2.25755 0
M  V30 742 H 71.4579 -1.05684 -1.15155 0
M  V30 743 H 72.1929 0.412241 -3.21669 0
M  V30 744 H 71.9779 -1.2948 -3.70105 0
M  V30 745 H 73.4679 -0.414985 -4.15533 0
M  V30 746 N 73.905 1.17692 -1.04816 0
M  V30 747 C 75.153 1.87488 -0.754497 0
M  V30 748 C 75.474 1.81205 0.720407 0
M  V30 749 O 74.744 1.23544 1.52032 0
M  V30 750 H 73.324 0.694101 -0.276102 0
M  V30 751 H 75.986 1.42793 -1.32651 0
M  V30 752 H 75.082 2.93328 -1.06606 0
M  V30 753 N 75.3831 0.828654 1.34056 0
M  V30 754 C 76.6131 0.431993 2.02033 0
M  V30 755 C 77.0211 -0.96844 1.62536 0
M  V30 756 O 76.3641 -1.6391 0.829408 0
M  V30 757 C 76.4261 0.461224 3.56529 0
M  V30 758 C 76.0901 1.81599 4.1937 0
M  V30 759 C 77.0871 2.7777 4.39477 0
M  V30 760 C 74.7721 2.10604 4.56017 0
M  V30 761 C 76.7661 4.01115 4.95364 0
M  V30 762 C 74.4531 3.34207 5.11614 0
M  V30 763 C 75.4511 4.2928 5.31232 0
M  V30 764 O 75.1391 5.50699 5.8565 0
M  V30 765 H 74.8711 0.170943 0.654029 0
M  V30 766 H 77.4251 1.11988 1.72185 0
M  V30 767 H 75.6551 -0.283388 3.8566 0
M  V30 768 H 77.3441 0.0838149 4.05813 0
M  V30 769 H 78.1101 2.56659 4.11523 0
M  V30 770 H 73.9891 1.37402 4.40047 0
M  V30 771 H 77.5331 4.75333 5.10592 0
M  V30 772 H 73.4301 3.55179 5.38997 0
M  V30 773 H 74.1981 5.52298 6.04077 0
M  V30 774 N 76.8612 -1.46375 0.584142 0
M  V30 775 C 78.2772 -1.57694 0.245929 0
M  V30 776 C 78.4772 -1.57903 -1.25175 0
M  V30 777 O 77.5332 -1.49676 -2.03355 0
M  V30 778 C 78.8462 -2.87028 0.896402 0
M  V30 779 C 80.3942 -3.00662 0.870127 0
M  V30 780 C 80.8692 -4.32734 1.50017 0
M  V30 781 N 82.3602 -4.39436 1.46458 0
M  V30 782 C 83.0952 -5.40248 1.92144 0
M  V30 783 N 82.5912 -6.47726 2.4581 0
M  V30 784 N 84.3842 -5.31459 1.83052 0
M  V30 785 H 76.5352 -1.44483 1.55687 0
M  V30 786 H 78.7982 -0.689291 0.650831 0
M  V30 787 H 78.5042 -2.9269 1.95002 0
M  V30 788 H 78.3782 -3.75014 0.405486 0
M  V30 789 H 80.7652 -2.94581 -0.174871 0
M  V30 790 H 80.8462 -2.14148 1.39908 0
M  V30 791 H 80.4902 -4.39573 2.54437 0
M  V30 792 H 80.4202 -5.18025 0.946432 0
M  V30 793 H 82.9112 -3.62367 1.07231 0
M  V30 794 H 83.2242 -7.20863 2.78525 0
M  V30 795 H 81.5692 -6.48542 2.49836 0
M  V30 796 H 84.7602 -4.46396 1.40883 0
M  V30 797 H 84.9332 -6.09881 2.18973 0
M  V30 798 N 78.3393 -0.321999 -1.54275 0
M  V30 799 C 79.5853 0.281461 -2.00837 0
M  V30 800 C 79.9183 1.51909 -1.20985 0
M  V30 801 O 79.1933 1.923 -0.291733 0
M  V30 802 C 79.4763 0.617162 -3.54772 0
M  V30 803 C 79.3293 -0.631064 -4.45351 0
M  V30 804 C 80.6483 1.43542 -4.16033 0
M  V30 805 H 77.7673 0.100826 -0.730071 0
M  V30 806 H 80.4093 -0.438268 -1.84876 0
M  V30 807 H 78.5593 1.23034 -3.68504 0
M  V30 808 H 80.2313 -1.26934 -4.43492 0
M  V30 809 H 78.4743 -1.26025 -4.15091 0
M  V30 810 H 79.1453 -0.351735 -5.50878 0
M  V30 811 H 81.6213 0.917134 -4.05867 0
M  V30 812 H 80.4973 1.63907 -5.23856 0
M  V30 813 H 80.7583 2.43108 -3.69257 0
M  V30 814 N 79.8174 1.5752 -0.0501392 0
M  V30 815 C 81.0664 1.91827 0.623328 0
M  V30 816 C 81.3794 0.930222 1.72065 0
M  V30 817 O 82.5854 1.1653 2.4522 0
M  V30 818 C 81.0414 3.40692 1.16003 0
M  V30 819 C 80.6494 4.479 0.0948811 0
M  V30 820 C 82.3934 3.84034 1.80881 0
M  V30 821 C 80.3004 5.87879 0.644411 0
M  V30 822 H 79.2304 0.715918 0.236596 0
M  V30 823 H 81.8814 1.83115 -0.118861 0
M  V30 824 H 80.2634 3.44405 1.9545 0
M  V30 825 H 81.4374 4.55775 -0.678675 0
M  V30 826 H 79.7524 4.13892 -0.45637 0
M  V30 827 H 82.3494 4.85984 2.22988 0
M  V30 828 H 82.6924 3.20225 2.6601 0
M  V30 829 H 83.2254 3.82833 1.0809 0
M  V30 830 H 79.9644 6.55282 -0.169229 0
M  V30 831 H 79.4844 5.83567 1.38598 0
M  V30 832 H 81.1634 6.37098 1.12763 0
M  V30 833 N 81.2955 -0.223234 1.56011 0
M  V30 834 C 82.5235 -0.964812 1.83027 0
M  V30 835 C 82.9385 -1.78013 0.62904 0
M  V30 836 O 82.2955 -1.78008 -0.402414 0
M  V30 837 C 82.3465 -1.88373 3.08542 0
M  V30 838 O 82.0675 -1.10137 4.2403 0
M  V30 839 C 83.5685 -2.73934 3.48533 0
M  V30 840 H 80.7885 -0.282842 0.608475 0
M  V30 841 H 83.3325 -0.238971 2.03099 0
M  V30 842 H 81.4875 -2.56354 2.9045 0
M  V30 843 H 81.9015 -1.72501 4.95322 0
M  V30 844 H 83.3755 -3.34117 4.39397 0
M  V30 845 H 83.8525 -3.46244 2.70207 0
M  V30 846 H 84.4585 -2.11369 3.69057 0
M  V30 847 N 82.7736 -1.49793 -0.48987 0
M  V30 848 C 84.0036 -1.6333 -1.26518 0
M  V30 849 C 84.4116 -0.308392 -1.8667 0
M  V30 850 O 83.7546 0.717512 -1.69108 0
M  V30 851 C 83.8166 -2.6522 -2.4269 0
M  V30 852 C 83.4806 -4.09279 -2.03321 0
M  V30 853 C 84.4776 -4.95738 -1.56652 0
M  V30 854 C 82.1626 -4.55082 -2.12616 0
M  V30 855 C 84.1566 -6.26041 -1.19795 0
M  V30 856 C 81.8436 -5.85396 -1.75371 0
M  V30 857 C 82.8416 -6.707 -1.29036 0
M  V30 858 O 82.5296 -7.98584 -0.92299 0
M  V30 859 H 82.2616 -0.552502 -0.389509 0
M  V30 860 H 84.8156 -1.96642 -0.593381 0
M  V30 861 H 83.0456 -2.27112 -3.12981 0
M  V30 862 H 84.7346 -2.68171 -3.04695 0
M  V30 863 H 85.5006 -4.61575 -1.48908 0
M  V30 864 H 81.3796 -3.88844 -2.47631 0
M  V30 865 H 84.9236 -6.92578 -0.835582 0
M  V30 866 H 80.8206 -6.19085 -1.82768 0
M  V30 867 H 81.5886 -8.11692 -1.05349 0
M  V30 868 N 84.2517 0.741722 -1.39055 0
M  V30 869 C 85.5287 1.49252 -1.26425 0
M  V30 870 C 85.9087 2.10705 0.129144 0
M  V30 871 O 85.2567 1.98045 1.13976 0
M  V30 872 C 85.4667 2.54934 -2.38347 0
M  V30 873 C 86.8147 3.21506 -2.77343 0
M  V30 874 O 87.8387 2.65245 -2.37747 0
M  V30 875 O 86.6977 4.23294 -3.45665 0
M  V30 876 H 83.7917 0.662451 -0.495064 0
M  V30 877 H 86.3377 0.776121 -1.50912 0
M  V30 878 H 85.1097 2.07857 -3.31529 0
M  V30 879 H 84.7327 3.34141 -2.15489 0
M  V30 880 N 85.7298 1.2412 0.971189 0
M  V30 881 C 87.1458 1.00584 1.23916 0
M  V30 882 C 87.3458 -0.287481 1.99439 0
M  V30 883 O 86.4018 -1.00454 2.31658 0
M  V30 884 C 87.7148 2.21864 2.0297 0
M  V30 885 C 89.2628 2.26452 2.16076 0
M  V30 886 C 89.7378 3.47343 2.98524 0
M  V30 887 N 91.2288 3.47639 3.06107 0
M  V30 888 C 91.9638 4.37837 3.70251 0
M  V30 889 N 91.4598 5.38286 4.36142 0
M  V30 890 N 93.2528 4.25558 3.67228 0
M  V30 891 H 85.4038 2.07236 0.465499 0
M  V30 892 H 87.6668 0.909236 0.268315 0
M  V30 893 H 87.3728 3.15771 1.54861 0
M  V30 894 H 87.2468 2.23698 3.03709 0
M  V30 895 H 89.6338 1.33078 2.6339 0
M  V30 896 H 89.7148 2.28645 1.14696 0
M  V30 897 H 89.3588 4.41029 2.51905 0
M  V30 898 H 89.2888 3.42393 4.00093 0
M  V30 899 H 91.7798 2.74966 2.59233 0
M  V30 900 H 92.0928 6.03352 4.82894 0
M  V30 901 H 90.4378 5.42176 4.34822 0
M  V30 902 H 93.6288 3.46322 3.14927 0
M  V30 903 H 93.8018 4.96054 4.16935 0
M  V30 904 N 87.2079 -1.17134 1.05439 0
M  V30 905 C 88.6239 -1.39454 0.776201 0
M  V30 906 C 88.8239 -1.91454 -0.628307 0
M  V30 907 O 87.8799 -2.10777 -1.39031 0
M  V30 908 C 89.1929 -2.38305 1.83388 0
M  V30 909 C 90.7409 -2.52006 1.85639 0
M  V30 910 C 91.2159 -3.54133 2.90437 0
M  V30 911 N 92.7069 -3.61653 2.89415 0
M  V30 912 C 93.4419 -4.4044 3.67152 0
M  V30 913 N 92.9379 -5.22721 4.54681 0
M  V30 914 N 94.7309 -4.35337 3.55581 0
M  V30 915 H 86.8819 -0.817134 1.96053 0
M  V30 916 H 89.1449 -0.421626 0.849079 0
M  V30 917 H 88.8509 -2.07173 2.84204 0
M  V30 918 H 88.7249 -3.37841 1.67761 0
M  V30 919 H 91.1119 -2.82447 0.85486 0
M  V30 920 H 91.1929 -1.52537 2.05344 0
M  V30 921 H 90.8369 -3.24431 3.90777 0
M  V30 922 H 90.7669 -4.53313 2.67983 0
M  V30 923 H 93.2579 -3.02909 2.25952 0
M  V30 924 H 93.5709 -5.80027 5.10674 0
M  V30 925 H 91.9159 -5.22093 4.58741 0
M  V30 926 H 95.1069 -3.70112 2.86592 0
M  V30 927 H 95.2799 -4.96494 4.1641 0
M  V30 928 N 88.686 -0.835752 -1.33615 0
M  V30 929 C 89.934 -0.429109 -1.97492 0
M  V30 930 C 90.255 1.01433 -1.66543 0
M  V30 931 O 89.525 1.70611 -0.962744 0
M  V30 932 H 88.105 -0.155686 -0.730596 0
M  V30 933 H 90.767 -1.06802 -1.63031 0
M  V30 934 H 89.863 -0.55861 -3.0706 0
M  V30 935 N 90.1641 1.46063 -0.591896 0
M  V30 936 C 91.4111 2.02338 -0.0809991 0
M  V30 937 C 91.7391 1.46228 1.28249 0
M  V30 938 O 90.9941 0.620818 1.85592 0
M  V30 939 C 91.2931 3.57391 0.0249813 0
M  V30 940 C 90.9591 4.32583 -1.27211 0
M  V30 941 C 89.6211 4.52844 -1.62745 0
M  V30 942 C 91.9731 4.75687 -2.13005 0
M  V30 943 C 89.3011 5.13462 -2.83855 0
M  V30 944 C 91.6531 5.37644 -3.3335 0
M  V30 945 C 90.3171 5.5613 -3.69155 0
M  V30 946 H 89.5871 0.740407 -0.0296397 0
M  V30 947 H 92.2341 1.75321 -0.770374 0
M  V30 948 H 90.5391 3.83597 0.797537 0
M  V30 949 H 92.2361 3.98621 0.436184 0
M  V30 950 H 88.8261 4.17116 -0.985499 0
M  V30 951 H 93.0101 4.59782 -1.86855 0
M  V30 952 H 88.2661 5.25965 -3.11722 0
M  V30 953 H 92.4401 5.7 -4.00092 0
M  V30 954 H 90.0671 6.0287 -4.63089 0
M  V30 955 N 91.6422 0.330177 1.54103 0
M  V30 956 C 92.8902 -0.269871 2.0029 0
M  V30 957 C 93.2112 -1.52133 1.21986 0
M  V30 958 O 92.4812 -1.93212 0.323438 0
M  V30 959 H 91.0612 -0.10271 0.739905 0
M  V30 960 H 93.7232 0.448249 1.89675 0
M  V30 961 H 92.8192 -0.52166 3.07709 0
M  V30 962 N 93.1203 -1.57491 0.0584922 0
M  V30 963 C 94.0523 -2.08916 -0.942694 0
M  V30 964 C 95.0653 -1.0185 -1.27006 0
M  V30 965 O 96.2543 -1.29398 -1.22957 0
M  V30 966 C 93.3543 -2.52341 -2.26224 0
M  V30 967 C 92.5273 -3.82827 -2.1157 0
M  V30 968 C 91.5863 -4.12487 -3.26712 0
M  V30 969 O 90.6123 -4.82295 -3.02292 0
M  V30 970 N 91.8143 -3.64978 -4.5141 0
M  V30 971 H 94.5793 -2.95437 -0.503722 0
M  V30 972 H 92.1403 -1.61397 -0.12757 0
M  V30 973 H 94.1323 -2.69254 -3.02133 0
M  V30 974 H 92.7023 -1.7103 -2.61663 0
M  V30 975 H 91.9223 -3.75425 -1.20208 0
M  V30 976 H 93.2103 -4.68263 -1.99015 0
M  V30 977 H 92.6083 -3.08558 -4.7414 0
M  V30 978 H 91.1653 -3.87115 -5.2439 0
M  V30 979 N 94.5984 0.214957 -1.56127 0
M  V30 980 C 95.8234 0.95924 -1.83884 0
M  V30 981 C 96.2484 1.7689 -0.639644 0
M  V30 982 O 95.6064 1.76566 0.411601 0
M  V30 983 C 95.6544 1.84723 -3.09693 0
M  V30 984 O 94.7584 2.94346 -2.8885 0
M  V30 985 H 94.0994 0.27125 -0.606069 0
M  V30 986 H 96.6294 0.226276 -2.03345 0
M  V30 987 H 96.6394 2.25576 -3.39969 0
M  V30 988 H 95.3144 1.25218 -3.96602 0
M  V30 989 H 93.8914 2.57391 -2.69823 0
M  V30 990 N 96.0765 1.50051 0.48192 0
M  V30 991 C 97.3015 1.64508 1.26301 0
M  V30 992 C 97.7265 0.323851 1.85291 0
M  V30 993 O 97.0845 -0.710969 1.66778 0
M  V30 994 C 97.1325 2.7305 2.35533 0
M  V30 995 O 96.2365 2.3355 3.39895 0
M  V30 996 H 95.5775 0.549978 0.372048 0
M  V30 997 H 98.1075 1.9636 0.574786 0
M  V30 998 H 98.1175 2.95799 2.8101 0
M  V30 999 H 96.7925 3.68946 1.91967 0
M  V30 1000 H 95.3695 2.21205 3.00204 0
M  V30 1001 N 97.5546 -0.734337 1.39446 0
M  V30 1002 C 98.4866 -1.85861 1.34121 0
M  V30 1003 C 99.4996 -1.60871 0.249864 0
M  V30 1004 O 100.689 -1.71093 0.508865 0
M  V30 1005 C 97.7886 -3.21899 1.05991 0
M  V30 1006 C 96.9616 -3.74239 2.26415 0
M  V30 1007 C 96.0206 -4.88841 1.94733 0
M  V30 1008 O 95.0466 -5.02468 2.67422 0
M  V30 1009 N 96.2486 -5.73261 0.913884 0
M  V30 1010 H 99.0136 -1.90934 2.31007 0
M  V30 1011 H 96.5746 -0.915102 1.33557 0
M  V30 1012 H 98.5666 -3.96136 0.828147 0
M  V30 1013 H 97.1366 -3.12091 0.178361 0
M  V30 1014 H 96.3566 -2.91347 2.65539 0
M  V30 1015 H 97.6446 -4.05942 3.06738 0
M  V30 1016 H 97.0426 -5.64842 0.311476 0
M  V30 1017 H 95.5996 -6.47563 0.742015 0
M  V30 1018 N 99.0327 -1.24633 -0.964593 0
M  V30 1019 C 100.444 -1.08045 -1.5226 0
M  V30 1020 C 100.795 0.347116 -1.93105 0
M  V30 1021 O 99.9197 1.23588 -1.77637 0
M  V30 1022 C 100.515 -1.95514 -2.76695 0
M  V30 1023 C 99.0737 -1.8314 -3.28841 0
M  V30 1024 C 98.2207 -1.90262 -2.01732 0
M  V30 1025 H 101.172 -1.38064 -0.782553 0
M  V30 1026 H 101.193 -1.48925 -3.50145 0
M  V30 1027 H 100.705 -2.99407 -2.46936 0
M  V30 1028 H 98.8057 -0.82092 -3.63444 0
M  V30 1029 H 98.9187 -2.67406 -3.97531 0
M  V30 1030 H 97.2827 -1.34027 -2.16584 0
M  V30 1031 H 98.0657 -2.9574 -1.74334 0
M  V30 1032 N 100.511 1.16574 -1.06058 0
M  V30 1033 C 101.739 1.90952 -0.796552 0
M  V30 1034 C 102.154 1.77302 0.648808 0
M  V30 1035 O 101.511 1.11605 1.44397 0
M  V30 1036 C 101.562 3.41736 -1.17894 0
M  V30 1037 O 101.283 3.54975 -2.56758 0
M  V30 1038 C 102.784 4.33169 -0.942308 0
M  V30 1039 H 100.004 0.605594 -0.288959 0
M  V30 1040 H 102.548 1.47777 -1.41358 0
M  V30 1041 H 100.703 3.82623 -0.606491 0
M  V30 1042 H 101.117 4.4846 -2.72 0
M  V30 1043 H 102.591 5.37439 -1.25952 0
M  V30 1044 H 103.068 4.3903 0.122078 0
M  V30 1045 H 103.674 3.98007 -1.49902 0
M  V30 1046 N 101.989 0.842826 1.3317 0
M  V30 1047 C 103.217 0.454055 2.01856 0
M  V30 1048 C 103.632 -0.94587 1.63397 0
M  V30 1049 O 102.989 -1.61534 0.849302 0
M  V30 1050 C 103.04 0.569715 3.56982 0
M  V30 1051 O 102.761 1.91448 3.94055 0
M  V30 1052 C 104.262 0.178412 4.42941 0
M  V30 1053 H 101.482 0.17979 0.646465 0
M  V30 1054 H 104.026 1.1365 1.70012 0
M  V30 1055 H 102.181 -0.0648587 3.87346 0
M  V30 1056 H 102.595 1.90282 4.88767 0
M  V30 1057 H 104.069 0.310376 5.51127 0
M  V30 1058 H 104.546 -0.880056 4.30293 0
M  V30 1059 H 105.152 0.787579 4.17944 0
M  V30 1060 N 103.467 -1.45747 0.599634 0
M  V30 1061 C 104.715 -2.01893 0.0915472 0
M  V30 1062 C 105.036 -1.47155 -1.27946 0
M  V30 1063 O 104.306 -0.66273 -1.84349 0
M  V30 1064 H 102.886 -0.746363 0.0308524 0
M  V30 1065 H 105.548 -1.78645 0.779237 0
M  V30 1066 H 104.644 -3.1208 0.0353086 0
M  V30 1067 N 104.945 -0.338344 -1.53925 0
M  V30 1068 C 106.175 0.260919 -2.04946 0
M  V30 1069 C 106.583 1.45174 -1.2133 0
M  V30 1070 O 105.926 1.82122 -0.240262 0
M  V30 1071 C 105.988 0.744596 -3.51704 0
M  V30 1072 C 105.652 -0.325883 -4.55837 0
M  V30 1073 C 106.649 -1.16687 -5.06636 0
M  V30 1074 C 104.334 -0.478317 -5.00017 0
M  V30 1075 C 106.328 -2.14588 -6.00192 0
M  V30 1076 C 104.015 -1.46073 -5.93385 0
M  V30 1077 C 105.013 -2.29297 -6.4336 0
M  V30 1078 O 104.701 -3.25867 -7.34892 0
M  V30 1079 H 104.433 0.0551207 -0.673749 0
M  V30 1080 H 106.987 -0.486984 -1.99544 0
M  V30 1081 H 105.217 1.54366 -3.54553 0
M  V30 1082 H 106.906 1.26383 -3.85723 0
M  V30 1083 H 107.672 -1.06016 -4.73271 0
M  V30 1084 H 103.551 0.159613 -4.60724 0
M  V30 1085 H 107.095 -2.79585 -6.39123 0
M  V30 1086 H 102.992 -1.56802 -6.26166 0
M  V30 1087 H 103.76 -3.21278 -7.5281 0
M  V30 1088 N 106.423 1.57458 -0.0668435 0
M  V30 1089 C 107.7 1.8469 0.644132 0
M  V30 1090 C 108.08 0.958343 1.88093 0
M  V30 1091 O 107.428 0.0233579 2.28488 0
M  V30 1092 C 107.638 3.34767 0.986509 0
M  V30 1093 C 108.986 4.02159 1.36212 0
M  V30 1094 O 110.01 3.39484 1.07839 0
M  V30 1095 O 108.869 5.12694 1.89227 0
M  V30 1096 H 105.963 0.762816 0.319437 0
M  V30 1097 H 108.509 1.6942 -0.0973986 0
M  V30 1098 H 107.281 3.91151 0.107883 0
M  V30 1099 H 106.904 3.55281 1.78497 0
M  V30 1100 N 107.901 -0.206675 1.56239 0
M  V30 1101 C 109.131 -0.943975 1.83773 0
M  V30 1102 C 109.539 -1.77841 0.645703 0
M  V30 1103 O 108.882 -1.79403 -0.395008 0
M  V30 1104 C 108.944 -1.899 3.05251 0
M  V30 1105 C 108.608 -1.24764 4.39639 0
M  V30 1106 C 109.605 -0.630216 5.16066 0
M  V30 1107 C 107.29 -1.25496 4.8637 0
M  V30 1108 C 109.284 -0.0287946 6.37393 0
M  V30 1109 C 106.971 -0.649698 6.07637 0
M  V30 1110 C 107.969 -0.0376845 6.8299 0
M  V30 1111 O 107.657 0.55812 8.0196 0
M  V30 1112 H 107.389 -0.281508 0.614597 0
M  V30 1113 H 109.943 -0.222458 2.04192 0
M  V30 1114 H 108.173 -2.6599 2.80689 0
M  V30 1115 H 109.862 -2.5031 3.1953 0
M  V30 1116 H 110.628 -0.616785 4.81062 0
M  V30 1117 H 106.507 -1.72072 4.27683 0
M  V30 1118 H 110.051 0.449518 6.9615 0
M  V30 1119 H 105.948 -0.660592 6.42111 0
M  V30 1120 H 106.716 0.453891 8.17241 0
M  V30 1121 N 109.379 -1.50304 -0.473955 0
M  V30 1122 C 110.656 -1.51667 -1.23518 0
M  V30 1123 C 111.036 -0.259701 -2.09496 0
M  V30 1124 O 110.384 0.756986 -2.15597 0
M  V30 1125 C 110.594 -2.81082 -2.06868 0
M  V30 1126 C 111.942 -3.31631 -2.65153 0
M  V30 1127 O 112.966 -2.82384 -2.17113 0
M  V30 1128 O 111.825 -4.17471 -3.52675 0
M  V30 1129 H 108.919 -0.60822 -0.560355 0
M  V30 1130 H 111.465 -1.62592 -0.486011 0
M  V30 1131 H 110.237 -3.64041 -1.4349 0
M  V30 1132 H 109.86 -2.73146 -2.88924 0
M  V30 1133 N 110.857 0.726932 -1.39834 0
M  V30 1134 C 112.085 1.51613 -1.40787 0
M  V30 1135 C 112.5 1.88799 -0.00451505 0
M  V30 1136 O 111.857 1.54662 0.968809 0
M  V30 1137 C 111.908 2.79863 -2.28821 0
M  V30 1138 O 111.629 2.44253 -3.63692 0
M  V30 1139 C 113.13 3.73837 -2.38245 0
M  V30 1140 H 110.35 0.468264 -0.480593 0
M  V30 1141 H 112.894 0.897607 -1.83748 0
M  V30 1142 H 111.049 3.38027 -1.89252 0
M  V30 1143 H 111.463 3.26695 -4.1033 0
M  V30 1144 H 112.937 4.60699 -3.04073 0
M  V30 1145 H 113.414 4.16153 -1.40403 0
M  V30 1146 H 114.02 3.21589 -2.78317 0
M  V30 1147 N 112.336 1.25143 0.95797 0
M  V30 1148 C 113.583 1.09692 1.70217 0
M  V30 1149 C 113.911 -0.362654 1.91089 0
M  V30 1150 O 113.166 -1.28386 1.47701 0
M  V30 1151 C 113.465 1.79272 3.09187 0
M  V30 1152 C 113.131 3.29196 3.08125 0
M  V30 1153 C 111.793 3.70096 3.07543 0
M  V30 1154 C 114.145 4.24995 3.0171 0
M  V30 1155 C 111.473 5.05213 2.9829 0
M  V30 1156 C 113.825 5.60132 2.93999 0
M  V30 1157 C 112.489 6.00365 2.9175 0
M  V30 1158 H 111.759 0.401393 0.622868 0
M  V30 1159 H 114.406 1.55372 1.11945 0
M  V30 1160 H 112.711 1.26014 3.70982 0
M  V30 1161 H 114.408 1.64773 3.65583 0
M  V30 1162 H 110.998 2.96651 3.09348 0
M  V30 1163 H 115.182 3.9439 3.01281 0
M  V30 1164 H 110.438 5.35569 2.94916 0
M  V30 1165 H 114.612 6.3406 2.87996 0
M  V30 1166 H 112.239 7.05023 2.84336 0
M  V30 1167 N 113.814 -1.1601 1.06675 0
M  V30 1168 C 114.777 -2.18724 0.685001 0
M  V30 1169 C 115.777 -1.58496 -0.271246 0
M  V30 1170 O 116.967 -1.74119 -0.0531156 0
M  V30 1171 C 114.099 -3.40899 0.00853648 0
M  V30 1172 H 115.292 -2.54011 1.59431 0
M  V30 1173 H 112.845 -1.30352 0.862441 0
M  V30 1174 H 113.58 -3.11173 -0.913337 0
M  V30 1175 H 113.365 -3.8587 0.696204 0
M  V30 1176 H 114.855 -4.16886 -0.24414 0
M  V30 1177 N 115.292 -0.849877 -1.32721 0
M  V30 1178 C 116.255 -0.296122 -2.27279 0
M  V30 1179 C 117.255 0.541458 -1.5141 0
M  V30 1180 O 118.445 0.353658 -1.70572 0
M  V30 1181 C 115.577 0.581579 -3.35902 0
M  V30 1182 H 116.77 -1.13064 -2.77771 0
M  V30 1183 H 114.323 -0.62383 -1.43311 0
M  V30 1184 H 115.058 1.43809 -2.9067 0
M  V30 1185 H 114.843 -0.0178814 -3.92096 0
M  V30 1186 H 116.333 0.961951 -4.0637 0
M  V30 1187 N 116.77 1.45427 -0.607355 0
M  V30 1188 C 118.047 1.9557 -0.0344566 0
M  V30 1189 C 118.427 1.54979 1.43334 0
M  V30 1190 O 117.775 0.812241 2.13576 0
M  V30 1191 C 117.985 3.48226 -0.232321 0
M  V30 1192 C 119.333 4.2445 -0.113001 0
M  V30 1193 O 120.357 3.55829 -0.162431 0
M  V30 1194 O 119.216 5.465 0.00209442 0
M  V30 1195 H 116.31 0.826222 0.0358667 0
M  V30 1196 H 118.856 1.55594 -0.6774 0
M  V30 1197 H 117.628 3.70739 -1.25174 0
M  V30 1198 H 117.251 3.95092 0.445896 0
M  V30 1199 N 118.248 0.346503 1.53744 0
M  V30 1200 C 119.178 -0.501193 2.28058 0
M  V30 1201 C 120.159 -1.10014 1.29734 0
M  V30 1202 O 121.344 -1.12097 1.58581 0
M  V30 1203 C 118.474 -1.65078 3.05559 0
M  V30 1204 C 117.428 -1.18003 4.11411 0
M  V30 1205 C 116.754 -2.41837 4.76884 0
M  V30 1206 C 118.054 -0.278394 5.21558 0
M  V30 1207 H 119.748 0.11875 2.99164 0
M  V30 1208 H 117.294 0.0585531 1.43881 0
M  V30 1209 H 119.247 -2.25028 3.56287 0
M  V30 1210 H 117.971 -2.29767 2.32109 0
M  V30 1211 H 116.63 -0.603331 3.61601 0
M  V30 1212 H 116.278 -3.0494 4.00026 0
M  V30 1213 H 115.978 -2.1102 5.48402 0
M  V30 1214 H 117.502 -3.02508 5.30397 0
M  V30 1215 H 118.916 -0.784823 5.67903 0
M  V30 1216 H 117.313 -0.0619707 6.00068 0
M  V30 1217 H 118.383 0.684677 4.80042 0
M  V30 1218 N 119.726 -1.57421 0.075193 0
M  V30 1219 C 120.674 -2.14124 -0.908508 0
M  V30 1220 C 121.668 -1.07898 -1.30592 0
M  V30 1221 O 122.874 -1.26273 -1.28277 0
M  V30 1222 H 119.249 -0.684707 -0.310935 0
M  V30 1223 H 121.22 -2.95634 -0.405374 0
M  V30 1224 C 119.969 -2.72044 -2.16535 0
M  V30 1225 H 119.292 -3.53456 -1.86839 0
M  V30 1226 H 120.732 -3.15311 -2.83469 0
M  V30 1227 C 119.191 -1.66968 -2.92615 0
M  V30 1228 O 119.721 -1.0967 -3.86439 0
M  V30 1229 N 117.927 -1.37923 -2.55784 0
M  V30 1230 H 117.474 -1.84706 -1.79559 0
M  V30 1231 H 117.432 -0.67852 -3.06991 0
M  V30 1232 N 121.204 0.198386 -1.56346 0
M  V30 1233 C 122.432 0.935572 -1.84539 0
M  V30 1234 C 122.847 1.76989 -0.657281 0
M  V30 1235 O 122.204 1.78626 0.374043 0
M  V30 1236 C 122.255 1.8344 -3.11499 0
M  V30 1237 O 121.976 1.03377 -4.25728 0
M  V30 1238 C 123.477 2.68355 -3.52846 0
M  V30 1239 H 120.697 0.273126 -0.612897 0
M  V30 1240 H 123.241 0.20663 -2.03453 0
M  V30 1241 H 121.396 2.51701 -2.94492 0
M  V30 1242 H 121.81 1.64599 -4.98003 0
M  V30 1243 H 123.284 3.27085 -4.44657 0
M  V30 1244 H 123.761 3.41901 -2.75681 0
M  V30 1245 H 124.367 2.05471 -3.72373 0
M  V30 1246 N 122.682 1.50554 0.465978 0
M  V30 1247 C 123.928 1.62038 1.21949 0
M  V30 1248 C 124.261 0.322116 1.9151 0
M  V30 1249 O 123.536 -0.676723 1.82348 0
M  V30 1250 C 123.819 2.80421 2.25912 0
M  V30 1251 C 123.672 4.20144 1.60622 0
M  V30 1252 C 124.991 2.94354 3.27176 0
M  V30 1253 H 122.11 0.589752 0.441998 0
M  V30 1254 H 124.752 1.82956 0.51257 0
M  V30 1255 H 122.902 2.62717 2.86203 0
M  V30 1256 H 124.574 4.49449 1.03889 0
M  V30 1257 H 122.817 4.24165 0.909211 0
M  V30 1258 H 123.488 4.98914 2.36196 0
M  V30 1259 H 125.964 3.10578 2.76913 0
M  V30 1260 H 124.84 3.788 3.97242 0
M  V30 1261 H 125.101 2.05186 3.916 0
M  V30 1262 N 124.16 -0.719506 1.40217 0
M  V30 1263 C 125.09 -1.8465 1.42922 0
M  V30 1264 C 126.071 -1.67599 0.29062 0
M  V30 1265 O 127.256 -1.87688 0.498677 0
M  V30 1266 C 124.386 -3.22565 1.28722 0
M  V30 1267 C 123.34 -3.54281 2.40144 0
M  V30 1268 C 122.666 -4.91298 2.11023 0
M  V30 1269 C 123.966 -3.55676 3.82481 0
M  V30 1270 H 125.66 -1.82644 2.37237 0
M  V30 1271 H 123.206 -0.877305 1.1419 0
M  V30 1272 H 125.159 -4.01095 1.29232 0
M  V30 1273 H 123.883 -3.25137 0.308811 0
M  V30 1274 H 122.542 -2.78088 2.38877 0
M  V30 1275 H 122.19 -4.90468 1.11582 0
M  V30 1276 H 121.89 -5.13485 2.8567 0
M  V30 1277 H 123.414 -5.72166 2.13209 0
M  V30 1278 H 124.828 -4.24254 3.85592 0
M  V30 1279 H 123.225 -3.89388 4.56614 0
M  V30 1280 H 124.295 -2.55144 4.12346 0
M  V30 1281 N 125.638 -1.25649 -0.95132 0
M  V30 1282 C 126.548 -1.08073 -2.08224 0
M  V30 1283 C 127.564 -0.0169666 -1.73992 0
M  V30 1284 O 128.74 -0.218593 -2.0021 0
M  V30 1285 C 125.805 -0.704922 -3.39458 0
M  V30 1286 C 124.866 -1.84699 -3.87537 0
M  V30 1287 C 124.099 -1.48902 -5.12508 0
M  V30 1288 O 124.322 -0.386156 -5.69091 0
M  V30 1289 O 123.256 -2.32033 -5.55378 0
M  V30 1290 H 127.082 -2.02924 -2.25954 0
M  V30 1291 H 124.667 -1.04618 -1.06656 0
M  V30 1292 H 126.549 -0.507609 -4.18332 0
M  V30 1293 H 125.224 0.214291 -3.2299 0
M  V30 1294 H 124.131 -2.09919 -3.09653 0
M  V30 1295 H 125.464 -2.74557 -4.08509 0
M  V30 1296 N 127.117 1.15442 -1.07289 0
M  V30 1297 C 128.345 1.90096 -0.81676 0
M  V30 1298 C 128.76 1.7798 0.629966 0
M  V30 1299 O 128.117 1.1313 1.43206 0
M  V30 1300 C 128.168 3.40466 -1.21512 0
M  V30 1301 O 127.889 3.52232 -2.60508 0
M  V30 1302 C 129.39 4.32145 -0.988198 0
M  V30 1303 H 126.61 0.602495 -0.295366 0
M  V30 1304 H 129.154 1.4627 -1.42918 0
M  V30 1305 H 127.309 3.81958 -0.647039 0
M  V30 1306 H 127.723 4.45549 -2.76742 0
M  V30 1307 H 129.197 5.36072 -1.31645 0
M  V30 1308 H 129.674 4.39135 0.0755063 0
M  V30 1309 H 130.28 3.96395 -1.54115 0
M  V30 1310 N 128.595 0.856903 1.32268 0
M  V30 1311 C 129.525 0.31858 2.31316 0
M  V30 1312 C 130.506 -0.583487 1.59779 0
M  V30 1313 O 131.691 -0.503259 1.87566 0
M  V30 1314 C 128.821 -0.491979 3.43798 0
M  V30 1315 C 127.775 0.315849 4.26833 0
M  V30 1316 C 127.101 -0.619586 5.31098 0
M  V30 1317 C 128.401 1.54282 4.98993 0
M  V30 1318 H 130.095 1.14621 2.76591 0
M  V30 1319 H 127.641 0.552613 1.32974 0
M  V30 1320 H 129.594 -0.879012 4.1213 0
M  V30 1321 H 128.318 -1.35299 2.97257 0
M  V30 1322 H 126.977 0.684664 3.6015 0
M  V30 1323 H 126.625 -1.47751 4.8081 0
M  V30 1324 H 126.325 -0.0830621 5.87541 0
M  V30 1325 H 127.849 -1.00375 6.02293 0
M  V30 1326 H 129.263 1.22796 5.59995 0
M  V30 1327 H 127.66 2.01745 5.65172 0
M  V30 1328 H 128.73 2.30285 4.26728 0
M  V30 1329 N 130.073 -1.45103 0.615059 0
M  V30 1330 C 131.35 -1.95549 0.0448276 0
M  V30 1331 C 131.73 -1.55737 -1.4251 0
M  V30 1332 O 131.078 -0.823556 -2.13143 0
M  V30 1333 C 131.288 -3.48098 0.250785 0
M  V30 1334 C 132.636 -4.24384 0.135509 0
M  V30 1335 O 133.66 -3.55738 0.181299 0
M  V30 1336 O 132.519 -5.46493 0.0268878 0
M  V30 1337 H 129.613 -0.8264 -0.0314845 0
M  V30 1338 H 132.159 -1.55232 0.685642 0
M  V30 1339 H 130.931 -3.7007 1.27139 0
M  V30 1340 H 130.554 -3.95323 -0.424937 0
M  V30 1341 N 131.551 -0.354651 -1.53558 0
M  V30 1342 C 132.481 0.489091 -2.2832 0
M  V30 1343 C 133.462 1.09324 -1.30316 0
M  V30 1344 O 134.647 1.11255 -1.59173 0
M  V30 1345 C 131.777 1.63456 -3.0643 0
M  V30 1346 C 130.731 1.1582 -4.12031 0
M  V30 1347 C 130.057 2.39305 -4.7816 0
M  V30 1348 C 131.357 0.250731 -5.21698 0
M  V30 1349 H 133.051 -0.134614 -2.99097 0
M  V30 1350 H 130.597 -0.0661826 -1.43848 0
M  V30 1351 H 132.55 2.23136 -3.57475 0
M  V30 1352 H 131.274 2.28533 -2.33325 0
M  V30 1353 H 129.933 0.584146 -3.61916 0
M  V30 1354 H 129.581 3.02814 -4.01637 0
M  V30 1355 H 129.281 2.08109 -5.49513 0
M  V30 1356 H 130.805 2.99691 -5.31994 0
M  V30 1357 H 132.219 0.754695 -5.68311 0
M  V30 1358 H 130.616 0.0301468 -6.00092 0
M  V30 1359 H 131.686 -0.710125 -4.79672 0
M  V30 1360 N 133.029 1.57378 -0.0835403 0
M  V30 1361 C 133.961 2.10389 0.909338 0
M  V30 1362 C 134.974 1.03858 1.25369 0
M  V30 1363 O 136.163 1.31338 1.20882 0
M  V30 1364 C 133.263 2.55908 2.2218 0
M  V30 1365 C 132.436 3.86145 2.05453 0
M  V30 1366 C 131.495 4.17633 3.20108 0
M  V30 1367 O 130.521 4.87043 2.94581 0
M  V30 1368 N 131.723 3.72113 4.45547 0
M  V30 1369 H 134.488 2.962 0.456657 0
M  V30 1370 H 132.049 1.61579 0.101877 0
M  V30 1371 H 134.041 2.74027 2.97811 0
M  V30 1372 H 132.611 1.75171 2.58909 0
M  V30 1373 H 131.831 3.7729 1.1422 0
M  V30 1374 H 133.119 4.7137 1.91541 0
M  V30 1375 H 132.517 3.16062 4.69171 0
M  V30 1376 H 131.074 3.95409 5.18165 0
M  V30 1377 N 134.507 -0.190092 1.56449 0
M  V30 1378 C 135.784 -0.935886 1.71757 0
M  V30 1379 C 136.164 -2.01173 0.639726 0
M  V30 1380 O 135.512 -2.25827 -0.348502 0
M  V30 1381 C 135.722 -1.51775 3.1427 0
M  V30 1382 C 137.07 -1.99794 3.74656 0
M  V30 1383 O 138.094 -1.61607 3.1743 0
M  V30 1384 O 136.953 -2.70079 4.751 0
M  V30 1385 H 134.047 -0.439229 0.700719 0
M  V30 1386 H 136.593 -0.179395 1.68749 0
M  V30 1387 H 135.365 -0.742505 3.84191 0
M  V30 1388 H 134.988 -2.33894 3.21527 0
M  V30 1389 N 135.985 -1.50799 -0.457987 0
M  V30 1390 C 136.948 -1.7005 -1.53674 0
M  V30 1391 C 137.948 -0.570881 -1.50325 0
M  V30 1392 O 139.138 -0.838126 -1.52712 0
M  V30 1393 C 136.27 -1.73788 -2.93276 0
M  V30 1394 H 137.463 -2.66306 -1.37917 0
M  V30 1395 H 135.016 -1.40477 -0.685271 0
M  V30 1396 H 135.751 -0.792717 -3.14462 0
M  V30 1397 H 135.536 -2.55864 -2.97113 0
M  V30 1398 H 137.026 -1.90591 -3.71571 0
M  V30 1399 N 137.463 0.71206 -1.40597 0
M  V30 1400 C 138.709 1.47416 -1.39271 0
M  V30 1401 C 139.042 1.942 0.00388791 0
M  V30 1402 O 138.317 1.68403 0.973179 0
M  V30 1403 C 138.6 2.69774 -2.38525 0
M  V30 1404 C 138.453 2.28861 -3.87224 0
M  V30 1405 C 139.772 3.71939 -2.35264 0
M  V30 1406 H 136.891 0.534713 -0.5072 0
M  V30 1407 H 139.533 0.812375 -1.71757 0
M  V30 1408 H 137.683 3.26238 -2.10953 0
M  V30 1409 H 139.355 1.77852 -4.25636 0
M  V30 1410 H 137.598 1.60824 -4.02887 0
M  V30 1411 H 138.269 3.16584 -4.52193 0
M  V30 1412 H 140.745 3.25113 -2.59694 0
M  V30 1413 H 139.621 4.55186 -3.06753 0
M  V30 1414 H 139.882 4.20484 -1.36549 0
M  V30 1415 N 138.941 1.26152 0.944643 0
M  V30 1416 C 139.871 1.09902 2.06019 0
M  V30 1417 C 140.852 0.00519538 1.70099 0
M  V30 1418 O 142.037 0.176583 1.93396 0
M  V30 1419 C 139.167 0.727562 3.39594 0
M  V30 1420 C 138.121 1.77274 3.89561 0
M  V30 1421 C 137.447 1.25569 5.19747 0
M  V30 1422 C 138.747 3.17357 4.14827 0
M  V30 1423 H 140.441 2.03217 2.19871 0
M  V30 1424 H 137.987 0.978452 1.05652 0
M  V30 1425 H 139.94 0.600777 4.17095 0
M  V30 1426 H 138.664 -0.241287 3.25707 0
M  V30 1427 H 137.323 1.88814 3.14237 0
M  V30 1428 H 136.971 0.276783 5.02238 0
M  V30 1429 H 136.671 1.95433 5.54148 0
M  V30 1430 H 138.195 1.1415 5.99835 0
M  V30 1431 H 139.609 3.08914 4.82954 0
M  V30 1432 H 138.006 3.84781 4.60504 0
M  V30 1433 H 139.076 3.63673 3.20734 0
M  V30 1434 N 140.419 -1.14872 1.07899 0
M  V30 1435 C 141.665 -1.86064 0.806725 0
M  V30 1436 C 141.998 -1.82434 -0.665706 0
M  V30 1437 O 141.273 -1.25138 -1.48899 0
M  V30 1438 C 141.556 -3.34929 1.32267 0
M  V30 1439 C 141.409 -3.47161 2.86006 0
M  V30 1440 C 142.728 -4.29863 0.943717 0
M  V30 1441 H 139.847 -0.675591 0.294526 0
M  V30 1442 H 142.489 -1.34925 1.33773 0
M  V30 1443 H 140.639 -3.78611 0.870974 0
M  V30 1444 H 142.311 -3.12302 3.39507 0
M  V30 1445 H 140.554 -2.88539 3.23925 0
M  V30 1446 H 141.225 -4.51777 3.17177 0
M  V30 1447 H 143.701 -3.9417 1.33302 0
M  V30 1448 H 142.577 -5.32494 1.33198 0
M  V30 1449 H 142.838 -4.41846 -0.149796 0
M  V30 1450 N 141.898 -0.863906 -1.31812 0
M  V30 1451 C 143.146 -0.470904 -1.96537 0
M  V30 1452 C 143.467 0.978771 -1.68657 0
M  V30 1453 O 142.737 1.6853 -0.998717 0
M  V30 1454 H 141.317 -0.171148 -0.72713 0
M  V30 1455 H 143.979 -1.10236 -1.60729 0
M  V30 1456 H 143.075 -0.623616 -3.05806 0
M  V30 1457 N 143.376 1.44774 -0.622745 0
M  V30 1458 C 144.623 2.02121 -0.1239 0
M  V30 1459 C 144.951 1.48915 1.25118 0
M  V30 1460 O 144.206 0.660045 1.84233 0
M  V30 1461 C 144.505 3.57364 -0.0508323 0
M  V30 1462 C 144.171 4.29787 -1.36358 0
M  V30 1463 C 142.833 4.4929 -1.72314 0
M  V30 1464 C 145.185 4.71062 -2.23048 0
M  V30 1465 C 142.513 5.07325 -2.94682 0
M  V30 1466 C 144.865 5.30452 -3.44679 0
M  V30 1467 C 143.529 5.48175 -3.80868 0
M  V30 1468 H 142.799 0.739612 -0.0453381 0
M  V30 1469 H 145.446 1.73648 -0.807389 0
M  V30 1470 H 143.751 3.85202 0.715991 0
M  V30 1471 H 145.448 3.99456 0.351533 0
M  V30 1472 H 142.038 4.14932 -1.07375 0
M  V30 1473 H 146.222 4.55715 -1.96565 0
M  V30 1474 H 141.478 5.19235 -3.22809 0
M  V30 1475 H 145.652 5.61385 -4.12092 0
M  V30 1476 H 143.279 5.92912 -4.75773 0
M  V30 1477 N 144.854 0.36279 1.53368 0
M  V30 1478 C 146.079 -0.231226 2.06107 0
M  V30 1479 C 146.504 -1.419 1.23474 0
M  V30 1480 O 145.862 -1.79524 0.253128 0
M  V30 1481 C 145.91 -0.605523 3.5548 0
M  V30 1482 O 145.014 -1.70312 3.7559 0
M  V30 1483 H 144.355 -0.034327 0.663112 0
M  V30 1484 H 146.885 0.522584 1.97814 0
M  V30 1485 H 146.895 -0.877314 3.98456 0
M  V30 1486 H 145.57 0.263004 4.15068 0
M  V30 1487 H 144.147 -1.4271 3.44512 0
M  V30 1488 N 146.332 -1.57332 0.0918853 0
M  V30 1489 C 147.265 -2.09499 -0.904735 0
M  V30 1490 C 148.243 -1.00479 -1.27839 0
M  V30 1491 O 149.427 -1.27954 -1.38419 0
M  V30 1492 C 146.554 -2.56931 -2.2069 0
M  V30 1493 C 145.6 -3.77579 -1.98334 0
M  V30 1494 S 146.433 -5.21317 -1.22428 0
M  V30 1495 C 147.589 -5.72097 -2.53882 0
M  V30 1496 H 147.822 -2.93705 -0.460922 0
M  V30 1497 H 145.355 -1.53923 -0.121332 0
M  V30 1498 H 147.313 -2.84917 -2.95521 0
M  V30 1499 H 145.974 -1.72956 -2.62192 0
M  V30 1500 H 145.167 -4.08824 -2.94752 0
M  V30 1501 H 144.769 -3.5007 -1.31633 0
M  V30 1502 H 147.061 -5.80168 -3.49874 0
M  V30 1503 H 148.004 -6.70654 -2.27219 0
M  V30 1504 H 148.412 -5.00012 -2.62007 0
M  V30 1505 N 147.81 0.181792 -1.56548 0
M  V30 1506 C 149.058 0.89832 -1.81038 0
M  V30 1507 C 149.379 1.83232 -0.667164 0
M  V30 1508 O 148.649 1.93372 0.313673 0
M  V30 1509 H 147.229 0.33471 -0.667816 0
M  V30 1510 H 149.891 0.184116 -1.94028 0
M  V30 1511 H 148.987 1.4815 -2.74696 0
M  V30 1512 N 149.288 1.51039 0.449983 0
M  V30 1513 C 150.516 1.66869 1.2232 0
M  V30 1514 C 150.931 0.360727 1.85322 0
M  V30 1515 O 150.288 -0.659531 1.70166 0
M  V30 1516 C 150.339 2.77524 2.31652 0
M  V30 1517 O 150.06 4.03252 1.7123 0
M  V30 1518 C 151.561 3.04512 3.2216 0
M  V30 1519 H 148.781 0.560326 0.369155 0
M  V30 1520 H 151.325 1.97385 0.534719 0
M  V30 1521 H 149.48 2.49642 2.96239 0
M  V30 1522 H 149.894 4.64609 2.43389 0
M  V30 1523 H 151.368 3.85551 3.95038 0
M  V30 1524 H 151.845 2.16415 3.8218 0
M  V30 1525 H 152.451 3.34005 2.63288 0
M  V30 1526 N 150.766 -0.704594 1.40972 0
M  V30 1527 C 152.014 -1.46169 1.39568 0
M  V30 1528 C 152.335 -1.95 0.00253745 0
M  V30 1529 O 151.605 -1.71095 -0.954114 0
M  V30 1530 H 150.185 -0.542326 0.513704 0
M  V30 1531 H 152.847 -0.834553 1.76128 0
M  V30 1532 H 151.943 -2.32922 2.07735 0
M  V30 1533 N 152.244 -1.26651 -0.937939 0
M  V30 1534 C 153.154 -1.10276 -2.07066 0
M  V30 1535 C 154.17 -0.0354197 -1.73964 0
M  V30 1536 O 155.346 -0.239816 -1.99967 0
M  V30 1537 C 152.411 -0.740887 -3.38691 0
M  V30 1538 C 151.472 -1.88799 -3.85556 0
M  V30 1539 C 150.705 -1.54329 -5.10899 0
M  V30 1540 O 150.928 -0.446494 -5.6865 0
M  V30 1541 O 149.862 -2.37911 -5.52885 0
M  V30 1542 H 153.688 -2.05309 -2.23789 0
M  V30 1543 H 151.273 -1.05743 -1.0554 0
M  V30 1544 H 153.155 -0.55195 -4.1777 0
M  V30 1545 H 151.83 0.180022 -3.23199 0
M  V30 1546 H 150.737 -2.13191 -3.07409 0
M  V30 1547 H 152.07 -2.78874 -4.05574 0
M  V30 1548 N 153.722 1.14298 -1.08507 0
M  V30 1549 C 154.968 1.85633 -0.816581 0
M  V30 1550 C 155.301 1.82784 0.656021 0
M  V30 1551 O 154.576 1.25926 1.48233 0
M  V30 1552 C 154.859 3.34223 -1.34041 0
M  V30 1553 C 154.712 3.45639 -2.87843 0
M  V30 1554 C 156.031 4.29356 -0.9665 0
M  V30 1555 H 153.15 0.67402 -0.298104 0
M  V30 1556 H 155.792 1.34214 -1.34487 0
M  V30 1557 H 153.942 3.78144 -0.89104 0
M  V30 1558 H 155.614 3.10498 -3.41158 0
M  V30 1559 H 153.857 2.86817 -3.25451 0
M  V30 1560 H 154.528 4.50089 -3.19569 0
M  V30 1561 H 157.004 3.93457 -1.35391 0
M  V30 1562 H 155.88 5.3178 -1.3602 0
M  V30 1563 H 156.141 4.41919 0.126362 0
M  V30 1564 N 155.201 0.870884 1.31352 0
M  V30 1565 C 156.164 0.332243 2.26779 0
M  V30 1566 C 157.164 -0.517302 1.52252 0
M  V30 1567 O 158.354 -0.326477 1.71113 0
M  V30 1568 C 155.486 -0.528066 3.36785 0
M  V30 1569 H 156.679 1.17469 2.75937 0
M  V30 1570 H 154.232 0.64655 1.423 0
M  V30 1571 H 154.967 -1.39167 2.92922 0
M  V30 1572 H 154.752 0.0802582 3.92018 0
M  V30 1573 H 156.242 -0.897179 4.07849 0
M  V30 1574 N 156.679 -1.44442 0.630414 0
M  V30 1575 C 158.095 -1.56832 0.295973 0
M  V30 1576 C 158.295 -1.61806 -1.20088 0
M  V30 1577 O 157.351 -1.5607 -1.9849 0
M  V30 1578 C 158.664 -2.84031 0.987264 0
M  V30 1579 C 160.212 -2.97742 0.96534 0
M  V30 1580 C 160.687 -4.27743 1.63708 0
M  V30 1581 N 162.178 -4.34555 1.60364 0
M  V30 1582 C 162.913 -5.33862 2.09234 0
M  V30 1583 N 162.409 -6.39578 2.66292 0
M  V30 1584 N 164.202 -5.25366 1.99867 0
M  V30 1585 H 156.353 -1.39457 1.60205 0
M  V30 1586 H 158.616 -0.668237 0.672431 0
M  V30 1587 H 158.322 -2.86338 2.04215 0
M  V30 1588 H 158.196 -3.73534 0.524588 0
M  V30 1589 H 160.583 -2.94989 -0.0810639 0
M  V30 1590 H 160.664 -2.09589 1.4665 0
M  V30 1591 H 160.308 -4.31255 2.68293 0
M  V30 1592 H 160.238 -5.14752 1.11076 0
M  V30 1593 H 162.729 -3.58772 1.18705 0
M  V30 1594 H 163.042 -7.11637 3.01317 0
M  V30 1595 H 161.387 -6.40265 2.70343 0
M  V30 1596 H 164.578 -4.41688 1.55013 0
M  V30 1597 H 164.751 -6.02606 2.38265 0
M  V30 1598 N 158.157 -0.370918 -1.53173 0
M  V30 1599 C 159.387 0.217389 -2.05453 0
M  V30 1600 C 159.795 1.42568 -1.24382 0
M  V30 1601 O 159.138 1.81571 -0.278839 0
M  V30 1602 C 159.2 0.669827 -3.53205 0
M  V30 1603 C 158.864 -0.4225 -4.55043 0
M  V30 1604 C 159.861 -1.27407 -5.04047 0
M  V30 1605 C 157.546 -0.58427 -4.9889 0
M  V30 1606 C 159.54 -2.27271 -5.95505 0
M  V30 1607 C 157.227 -1.58627 -5.90153 0
M  V30 1608 C 158.225 -2.42892 -6.38351 0
M  V30 1609 O 157.913 -3.41382 -7.27814 0
M  V30 1610 H 157.645 0.0408171 -0.674767 0
M  V30 1611 H 160.199 -0.5292 -1.98466 0
M  V30 1612 H 158.429 1.4681 -3.57748 0
M  V30 1613 H 160.118 1.18173 -3.88317 0
M  V30 1614 H 160.884 -1.16031 -4.70916 0
M  V30 1615 H 156.763 0.061851 -4.60959 0
M  V30 1616 H 160.307 -2.93079 -6.33049 0
M  V30 1617 H 156.204 -1.70048 -6.22699 0
M  V30 1618 H 156.972 -3.37173 -7.45826 0
M  V30 1619 N 159.635 1.57281 -0.100228 0
M  V30 1620 C 160.881 1.94826 0.563101 0
M  V30 1621 C 161.214 0.982475 1.67514 0
M  V30 1622 O 160.489 0.0164069 1.94493 0
M  V30 1623 C 160.772 3.42453 1.11346 0
M  V30 1624 C 160.625 4.498 0.00612081 0
M  V30 1625 C 161.944 3.91506 2.01024 0
M  V30 1626 H 159.063 0.708428 0.203221 0
M  V30 1627 H 161.705 1.8922 -0.171979 0
M  V30 1628 H 159.855 3.47361 1.7399 0
M  V30 1629 H 161.527 4.57 -0.628357 0
M  V30 1630 H 159.77 4.28756 -0.659581 0
M  V30 1631 H 160.441 5.50306 0.432109 0
M  V30 1632 H 162.917 3.88784 1.48278 0
M  V30 1633 H 161.793 4.95358 2.36457 0
M  V30 1634 H 162.054 3.31099 2.92961 0
M  V30 1635 N 161.113 -0.173488 1.56642 0
M  V30 1636 C 162.338 -0.910149 1.86363 0
M  V30 1637 C 162.763 -1.75132 0.686318 0
M  V30 1638 O 162.121 -1.77595 -0.364643 0
M  V30 1639 C 162.169 -1.76447 3.14482 0
M  V30 1640 O 161.273 -2.86584 2.96553 0
M  V30 1641 H 160.614 -0.255086 0.613047 0
M  V30 1642 H 163.144 -0.172283 2.03873 0
M  V30 1643 H 163.154 -2.16483 3.45831 0
M  V30 1644 H 161.829 -1.14658 3.99783 0
M  V30 1645 H 160.406 -2.50146 2.76553 0
M  V30 1646 N 162.591 -1.51276 -0.441967 0
M  V30 1647 C 163.816 -1.67799 -1.21895 0
M  V30 1648 C 164.241 -0.372864 -1.84367 0
M  V30 1649 O 163.599 0.666501 -1.68604 0
M  V30 1650 C 163.647 -2.79199 -2.28211 0
M  V30 1651 O 162.751 -2.42479 -3.33583 0
M  V30 1652 H 162.092 -0.559649 -0.357336 0
M  V30 1653 H 164.622 -1.97815 -0.522522 0
M  V30 1654 H 164.632 -3.03146 -2.73069 0
M  V30 1655 H 163.307 -3.73906 -1.82118 0
M  V30 1656 H 161.884 -2.29087 -2.94234 0
M  V30 1657 N 164.069 0.697108 -1.41344 0
M  V30 1658 C 165.299 1.48377 -1.43763 0
M  V30 1659 C 165.707 1.89156 -0.0408726 0
M  V30 1660 O 165.05 1.57239 0.949812 0
M  V30 1661 C 165.112 2.7781 -2.2817 0
M  V30 1662 C 164.776 2.59244 -3.76353 0
M  V30 1663 C 165.773 2.25292 -4.68551 0
M  V30 1664 C 163.458 2.74933 -4.20378 0
M  V30 1665 C 165.452 2.07264 -6.02761 0
M  V30 1666 C 163.139 2.56521 -5.54653 0
M  V30 1667 C 164.137 2.22737 -6.4566 0
M  V30 1668 O 163.825 2.04485 -7.77458 0
M  V30 1669 H 163.557 0.463842 -0.491759 0
M  V30 1670 H 166.111 0.865934 -1.86255 0
M  V30 1671 H 164.341 3.41995 -1.8049 0
M  V30 1672 H 166.03 3.39608 -2.22309 0
M  V30 1673 H 166.796 2.12787 -4.35829 0
M  V30 1674 H 162.675 3.00213 -3.49848 0
M  V30 1675 H 166.219 1.80817 -6.73759 0
M  V30 1676 H 162.116 2.68616 -5.86955 0
M  V30 1677 H 162.884 2.1926 -7.88586 0
M  V30 1678 N 165.547 1.27147 0.931209 0
M  V30 1679 C 166.795 1.13055 1.6752 0
M  V30 1680 C 167.116 -0.324791 1.92276 0
M  V30 1681 O 166.386 -1.22775 1.52654 0
M  V30 1682 H 164.966 0.415391 0.620854 0
M  V30 1683 H 167.628 1.59623 1.11833 0
M  V30 1684 H 166.724 1.65694 2.64485 0
M  V30 1685 N 167.025 -1.13721 1.09112 0
M  V30 1686 C 168.253 -1.88773 0.846899 0
M  V30 1687 C 168.668 -1.7896 -0.601572 0
M  V30 1688 O 168.025 -1.15394 -1.41388 0
M  V30 1689 C 168.076 -3.3849 1.26913 0
M  V30 1690 O 167.797 -3.48043 2.66079 0
M  V30 1691 C 169.298 -4.30518 1.05682 0
M  V30 1692 H 166.518 -0.59772 0.304914 0
M  V30 1693 H 169.062 -1.43977 1.45227 0
M  V30 1694 H 167.217 -3.80881 0.707723 0
M  V30 1695 H 167.631 -4.4109 2.83795 0
M  V30 1696 H 169.105 -5.3391 1.40156 0
M  V30 1697 H 169.582 -4.392 -0.00563416 0
M  V30 1698 H 170.188 -3.93893 1.60402 0
M  V30 1699 N 168.503 -0.877838 -1.30888 0
M  V30 1700 C 169.466 -0.344265 -2.266 0
M  V30 1701 C 170.466 0.50922 -1.52524 0
M  V30 1702 O 171.656 0.317398 -1.71284 0
M  V30 1703 C 168.788 0.510198 -3.37061 0
M  V30 1704 H 169.981 -1.1893 -2.7531 0
M  V30 1705 H 167.534 -0.654088 -1.41956 0
M  V30 1706 H 168.269 1.37612 -2.93655 0
M  V30 1707 H 168.054 -0.101047 -3.9197 0
M  V30 1708 H 169.544 0.875537 -4.08319 0
M  V30 1709 N 169.982 1.44106 -0.638065 0
M  V30 1710 C 171.398 1.56672 -0.304286 0
M  V30 1711 C 171.598 1.6244 1.19228 0
M  V30 1712 O 170.654 1.57121 1.9766 0
M  V30 1713 C 171.967 2.83503 -1.00231 0
M  V30 1714 C 173.515 2.97226 -0.981116 0
M  V30 1715 C 173.99 4.26868 -1.65974 0
M  V30 1716 N 175.481 4.33698 -1.62666 0
M  V30 1717 C 176.216 5.32745 -2.12063 0
M  V30 1718 N 175.712 6.38157 -2.6968 0
M  V30 1719 N 177.505 5.24299 -2.02651 0
M  V30 1720 H 169.656 1.38605 -1.60942 0
M  V30 1721 H 171.919 0.664661 -0.675965 0
M  V30 1722 H 171.625 2.85251 -2.0573 0
M  V30 1723 H 171.499 3.73251 -0.54439 0
M  V30 1724 H 173.886 2.95027 0.0654188 0
M  V30 1725 H 173.967 2.08808 -1.47759 0
M  V30 1726 H 173.611 4.29826 -2.70576 0
M  V30 1727 H 173.541 5.14156 -1.13804 0
M  V30 1728 H 176.032 3.58138 -1.20606 0
M  V30 1729 H 176.345 7.10029 -3.05087 0
M  V30 1730 H 174.69 6.38823 -2.73734 0
M  V30 1731 H 177.881 4.4086 -1.57353 0
M  V30 1732 H 178.054 6.01334 -2.41457 0
M  V30 1733 N 171.46 0.379036 1.52974 0
M  V30 1734 C 172.709 -0.207612 2.00629 0
M  V30 1735 C 173.022 -1.48758 1.27006 0
M  V30 1736 O 174.228 -2.15365 1.65318 0
M  V30 1737 C 172.684 -0.42053 3.57435 0
M  V30 1738 C 172.292 0.845587 4.39948 0
M  V30 1739 C 174.036 -0.964102 4.13407 0
M  V30 1740 C 171.943 0.601513 5.88333 0
M  V30 1741 H 170.873 -0.0813591 0.749598 0
M  V30 1742 H 173.524 0.499853 1.76561 0
M  V30 1743 H 171.906 -1.18959 3.7771 0
M  V30 1744 H 173.08 1.61848 4.31442 0
M  V30 1745 H 171.395 1.31336 3.95145 0
M  V30 1746 H 173.992 -1.16225 5.21916 0
M  V30 1747 H 174.335 -1.93019 3.68849 0
M  V30 1748 H 174.868 -0.25487 3.96983 0
M  V30 1749 H 171.607 1.53831 6.37194 0
M  V30 1750 H 171.127 -0.132628 5.99653 0
M  V30 1751 H 172.806 0.232134 6.46583 0
M  V30 1752 N 172.938 -1.57226 0.108567 0
M  V30 1753 C 173.901 -2.13602 -0.831082 0
M  V30 1754 C 174.901 -1.06841 -1.20173 0
M  V30 1755 O 176.091 -1.32666 -1.12895 0
M  V30 1756 C 173.223 -2.66769 -2.12243 0
M  V30 1757 H 174.416 -2.97951 -0.341317 0
M  V30 1758 H 171.969 -1.55667 -0.14057 0
M  V30 1759 H 172.704 -1.85977 -2.65675 0
M  V30 1760 H 172.489 -3.44839 -1.86625 0
M  V30 1761 H 173.979 -3.10332 -2.79435 0
M  V30 1762 N 174.416 0.165178 -1.56732 0
M  V30 1763 C 175.363 1.2044 -1.96883 0
M  V30 1764 C 176.333 1.43664 -0.833657 0
M  V30 1765 O 177.518 1.56302 -1.09427 0
M  V30 1766 C 174.658 2.53727 -2.33916 0
M  V30 1767 C 173.771 2.3783 -3.6064 0
M  V30 1768 C 172.906 3.64026 -3.86857 0
M  V30 1769 C 171.945 3.43088 -5.06909 0
M  V30 1770 N 171.082 4.61369 -5.29229 0
M  V30 1771 H 175.922 0.854996 -2.85471 0
M  V30 1772 H 173.459 0.41076 -1.41249 0
M  V30 1773 H 175.417 3.31419 -2.53411 0
M  V30 1774 H 174.047 2.8665 -1.48431 0
M  V30 1775 H 173.099 1.51282 -3.49024 0
M  V30 1776 H 174.411 2.18308 -4.4849 0
M  V30 1777 H 173.565 4.50152 -4.06753 0
M  V30 1778 H 172.304 3.86533 -2.97394 0
M  V30 1779 H 171.309 2.55349 -4.86906 0
M  V30 1780 H 172.534 3.21997 -5.97909 0
M  V30 1781 H 170.48 4.84084 -4.42718 0
M  V30 1782 H 170.397 4.44783 -6.11313 0
M  V30 1783 H 171.665 5.48761 -5.53608 0
M  V30 1784 N 175.894 1.51508 0.433938 0
M  V30 1785 C 177.14 1.64588 1.18484 0
M  V30 1786 C 177.473 0.362666 1.90784 0
M  V30 1787 O 176.748 -0.637892 1.83742 0
M  V30 1788 C 177.031 2.85149 2.19913 0
M  V30 1789 C 176.884 4.23456 1.51674 0
M  V30 1790 C 178.203 3.01227 3.20858 0
M  V30 1791 H 175.322 0.598994 0.429389 0
M  V30 1792 H 177.964 1.84002 0.473647 0
M  V30 1793 H 176.114 2.68729 2.80566 0
M  V30 1794 H 177.786 4.51552 0.943322 0
M  V30 1795 H 176.029 4.25998 0.819035 0
M  V30 1796 H 176.7 5.03812 2.2556 0
M  V30 1797 H 179.176 3.16382 2.70263 0
M  V30 1798 H 178.052 3.87141 3.89118 0
M  V30 1799 H 178.313 2.13447 3.8716 0
M  V30 1800 N 177.372 -0.689602 1.41712 0
M  V30 1801 C 178.335 -1.78521 1.43746 0
M  V30 1802 C 179.335 -1.57436 0.327191 0
M  V30 1803 O 180.525 -1.64 0.587348 0
M  V30 1804 C 177.657 -3.16971 1.25467 0
M  V30 1805 H 178.85 -1.78108 2.41283 0
M  V30 1806 H 176.403 -0.89781 1.27942 0
M  V30 1807 H 177.138 -3.23019 0.287948 0
M  V30 1808 H 176.923 -3.33678 2.05917 0
M  V30 1809 H 178.413 -3.96935 1.2974 0
M  V30 1810 N 178.85 -1.27639 -0.924453 0
M  V30 1811 C 180.097 -1.14167 -1.67249 0
M  V30 1812 C 180.425 0.311863 -1.91984 0
M  V30 1813 O 179.68 1.24425 -1.51053 0
M  V30 1814 C 179.979 -1.87407 -3.04325 0
M  V30 1815 C 179.645 -3.37249 -2.99289 0
M  V30 1816 C 178.307 -3.7812 -2.97622 0
M  V30 1817 C 180.659 -4.32845 -2.90336 0
M  V30 1818 C 177.987 -5.12944 -2.8479 0
M  V30 1819 C 180.339 -5.6773 -2.79045 0
M  V30 1820 C 179.003 -6.07889 -2.7573 0
M  V30 1821 H 178.273 -0.417766 -0.612007 0
M  V30 1822 H 180.92 -1.58286 -1.07786 0
M  V30 1823 H 179.225 -1.35805 -3.67511 0
M  V30 1824 H 180.922 -1.74408 -3.61086 0
M  V30 1825 H 177.512 -3.04748 -3.01374 0
M  V30 1826 H 181.696 -4.02239 -2.90719 0
M  V30 1827 H 176.952 -5.432 -2.80612 0
M  V30 1828 H 181.126 -6.41472 -2.71083 0
M  V30 1829 H 178.753 -7.12314 -2.65544 0
M  V30 1830 N 180.328 1.1314 -1.09713 0
M  V30 1831 C 181.258 2.20748 -0.761102 0
M  V30 1832 C 182.239 1.68061 0.262566 0
M  V30 1833 O 183.424 1.93765 0.129977 0
M  V30 1834 C 180.554 3.46812 -0.184054 0
M  V30 1835 C 179.508 4.12606 -1.13757 0
M  V30 1836 C 178.834 5.33031 -0.422083 0
M  V30 1837 C 180.134 4.59603 -2.48118 0
M  V30 1838 H 181.828 2.49113 -1.66082 0
M  V30 1839 H 179.374 1.19734 -0.799987 0
M  V30 1840 H 181.327 4.21353 0.0631215 0
M  V30 1841 H 180.051 3.17851 0.750868 0
M  V30 1842 H 178.71 3.40036 -1.37007 0
M  V30 1843 H 178.358 5.00335 0.517072 0
M  V30 1844 H 178.058 5.77999 -1.05788 0
M  V30 1845 H 179.582 6.10325 -0.183277 0
M  V30 1846 H 180.996 5.25552 -2.29059 0
M  V30 1847 H 179.393 5.15321 -3.07514 0
M  V30 1848 H 180.463 3.73971 -3.08665 0
M  V30 1849 N 181.806 0.884767 1.30421 0
M  V30 1850 C 182.769 0.356277 2.26414 0
M  V30 1851 C 183.769 -0.501124 1.52792 0
M  V30 1852 O 184.959 -0.30831 1.7145 0
M  V30 1853 C 182.091 -0.492316 3.37326 0
M  V30 1854 H 183.284 1.20389 2.74675 0
M  V30 1855 H 180.837 0.661607 1.41607 0
M  V30 1856 H 181.572 -1.36052 2.94381 0
M  V30 1857 H 181.357 0.121832 3.91911 0
M  V30 1858 H 182.847 -0.853871 4.08777 0
M  V30 1859 N 183.284 -1.43765 0.645699 0
M  V30 1860 C 184.509 -2.06767 0.161883 0
M  V30 1861 C 184.934 -1.48034 -1.16049 0
M  V30 1862 O 184.292 -0.587369 -1.71522 0
M  V30 1863 C 184.34 -3.60519 0.0762003 0
M  V30 1864 O 183.444 -4.00982 -0.963721 0
M  V30 1865 H 182.785 -0.657675 0.091429 0
M  V30 1866 H 185.315 -1.84397 0.886499 0
M  V30 1867 H 185.325 -4.07853 -0.109604 0
M  V30 1868 H 184 -4.02646 1.04157 0
M  V30 1869 H 182.577 -3.65253 -0.751312 0
M  V30 1870 N 184.763 -0.387143 -1.52771 0
M  V30 1871 C 185.693 0.440551 -2.29306 0
M  V30 1872 C 186.674 1.06535 -1.32606 0
M  V30 1873 O 187.859 1.07853 -1.61497 0
M  V30 1874 C 184.989 1.56919 -3.09829 0
M  V30 1875 C 183.943 1.07054 -4.14395 0
M  V30 1876 C 183.269 2.29109 -4.83129 0
M  V30 1877 C 184.569 0.140015 -5.22112 0
M  V30 1878 H 186.263 -0.198026 -2.98744 0
M  V30 1879 H 183.809 -0.09668 -1.43675 0
M  V30 1880 H 185.762 2.15503 -3.62128 0
M  V30 1881 H 184.486 2.23532 -2.3812 0
M  V30 1882 H 183.145 0.507247 -3.63074 0
M  V30 1883 H 182.793 2.94227 -4.0797 0
M  V30 1884 H 182.493 1.96406 -5.53804 0
M  V30 1885 H 184.017 2.88339 -5.38231 0
M  V30 1886 H 185.431 0.633978 -5.69784 0
M  V30 1887 H 183.828 -0.0971485 -6.00021 0
M  V30 1888 H 184.898 -0.811711 -4.78058 0
M  V30 1889 N 186.241 1.57166 -0.116904 0
M  V30 1890 C 187.151 2.18745 0.847812 0
M  V30 1891 C 188.167 1.163 1.29423 0
M  V30 1892 O 189.343 1.48761 1.35765 0
M  V30 1893 C 186.408 2.77307 2.0809 0
M  V30 1894 C 185.469 3.94781 1.68661 0
M  V30 1895 C 184.702 4.50541 2.86091 0
M  V30 1896 O 184.925 4.05202 4.01456 0
M  V30 1897 O 183.859 5.41256 2.63298 0
M  V30 1898 H 187.685 3.01632 0.353778 0
M  V30 1899 H 185.27 1.49005 0.108599 0
M  V30 1900 H 187.152 3.14647 2.80313 0
M  V30 1901 H 185.827 1.97452 2.56504 0
M  V30 1902 H 184.734 3.62214 0.935518 0
M  V30 1903 H 186.067 4.76065 1.24991 0
M  V30 1904 N 187.719 -0.156864 1.56817 0
M  V30 1905 C 189.13 -0.717916 1.72345 0
M  V30 1906 C 189.481 -1.82124 0.729747 0
M  V30 1907 O 188.606 -2.16141 -0.105781 0
M  V30 1908 C 189.201 -1.30904 3.12489 0
M  V30 1909 C 187.76 -1.81676 3.29653 0
M  V30 1910 C 186.907 -0.701349 2.68284 0
M  V30 1911 H 189.858 0.0686989 1.58551 0
M  V30 1912 H 189.879 -2.17882 3.11942 0
M  V30 1913 H 189.391 -0.505796 3.8479 0
M  V30 1914 H 187.492 -2.64598 2.62333 0
M  V30 1915 H 187.605 -1.95226 4.3752 0
M  V30 1916 H 185.969 -1.12548 2.28484 0
M  V30 1917 H 186.752 0.0902846 3.43181 0
M  V30 1918 N 189.197 -1.51736 -0.425897 0
M  V30 1919 C 190.444 -1.6497 -1.17436 0
M  V30 1920 C 190.772 -0.371445 -1.9092 0
M  V30 1921 O 190.027 0.644963 -1.84767 0
M  V30 1922 C 190.326 -2.81103 -2.20717 0
M  V30 1923 C 189.992 -4.19954 -1.64162 0
M  V30 1924 C 188.654 -4.57725 -1.48462 0
M  V30 1925 C 191.006 -5.06552 -1.22696 0
M  V30 1926 C 188.334 -5.79789 -0.897873 0
M  V30 1927 C 190.686 -6.29205 -0.654464 0
M  V30 1928 C 189.35 -6.6574 -0.484456 0
M  V30 1929 H 188.62 -0.603668 -0.429727 0
M  V30 1930 H 191.267 -1.85798 -0.463829 0
M  V30 1931 H 189.572 -2.54542 -2.97852 0
M  V30 1932 H 191.269 -2.8854 -2.78471 0
M  V30 1933 H 187.859 -3.90181 -1.77361 0
M  V30 1934 H 192.043 -4.77968 -1.33642 0
M  V30 1935 H 187.299 -6.06733 -0.75402 0
M  V30 1936 H 191.473 -6.95643 -0.324694 0
M  V30 1937 H 189.1 -7.60195 -0.0276833 0
M  V30 1938 N 190.675 0.682077 -1.42076 0
M  V30 1939 C 191.605 1.80796 -1.47767 0
M  V30 1940 C 192.586 1.6677 -0.334954 0
M  V30 1941 O 193.771 1.863 -0.548264 0
M  V30 1942 C 190.901 3.19038 -1.37229 0
M  V30 1943 C 189.855 3.47789 -2.49453 0
M  V30 1944 C 189.181 4.8553 -2.23975 0
M  V30 1945 C 190.481 3.45411 -3.91776 0
M  V30 1946 H 192.175 1.7629 -2.41997 0
M  V30 1947 H 189.721 0.846721 -1.16476 0
M  V30 1948 H 191.674 3.97528 -1.39821 0
M  V30 1949 H 190.398 3.24204 -0.394907 0
M  V30 1950 H 189.057 2.71657 -2.46166 0
M  V30 1951 H 188.705 4.87337 -1.24547 0
M  V30 1952 H 188.405 5.0573 -2.99184 0
M  V30 1953 H 189.929 5.66312 -2.28304 0
M  V30 1954 H 191.343 4.13882 -3.96705 0
M  V30 1955 H 189.74 3.77145 -4.66778 0
M  V30 1956 H 190.81 2.44122 -4.18966 0
M  V30 1957 N 192.153 1.28127 0.917671 0
M  V30 1958 C 193.083 1.14248 2.03641 0
M  V30 1959 C 194.064 0.0412748 1.7005 0
M  V30 1960 O 195.249 0.217566 1.92977 0
M  V30 1961 C 192.379 0.799431 3.37974 0
M  V30 1962 C 191.333 1.85497 3.85713 0
M  V30 1963 C 190.659 1.36565 5.16966 0
M  V30 1964 C 191.959 3.26085 4.08002 0
M  V30 1965 H 193.653 2.07835 2.15511 0
M  V30 1966 H 191.199 1.00064 1.03553 0
M  V30 1967 H 193.152 0.689114 4.15727 0
M  V30 1968 H 191.876 -0.172145 3.26146 0
M  V30 1969 H 190.535 1.95437 3.10161 0
M  V30 1970 H 190.183 0.383253 5.01538 0
M  V30 1971 H 189.883 2.07143 5.49878 0
M  V30 1972 H 191.407 1.26848 5.97279 0
M  V30 1973 H 192.821 3.19089 4.76293 0
M  V30 1974 H 191.218 3.94462 4.52238 0
M  V30 1975 H 192.288 3.70394 3.12948 0
M  V30 1976 N 193.631 -1.12557 1.10312 0
M  V30 1977 C 194.578 -2.18247 0.750781 0
M  V30 1978 C 195.548 -1.63853 -0.272293 0
M  V30 1979 O 196.733 -1.90195 -0.151862 0
M  V30 1980 C 193.873 -3.44591 0.187379 0
M  V30 1981 C 192.986 -4.13046 1.2656 0
M  V30 1982 C 192.121 -5.27034 0.663978 0
M  V30 1983 C 191.16 -5.87353 1.72287 0
M  V30 1984 N 190.297 -6.92757 1.1416 0
M  V30 1985 H 195.137 -2.47732 1.65628 0
M  V30 1986 H 192.674 -1.21629 0.827337 0
M  V30 1987 H 194.632 -4.16904 -0.157148 0
M  V30 1988 H 193.262 -3.15527 -0.681355 0
M  V30 1989 H 192.314 -3.38924 1.72727 0
M  V30 1990 H 193.626 -4.53947 2.06721 0
M  V30 1991 H 192.78 -6.06104 0.268824 0
M  V30 1992 H 191.519 -4.87407 -0.169082 0
M  V30 1993 H 190.524 -5.06971 2.12746 0
M  V30 1994 H 191.749 -6.29051 2.55875 0
M  V30 1995 H 189.695 -6.5517 0.329984 0
M  V30 1996 H 189.612 -7.3225 1.88007 0
M  V30 1997 H 190.88 -7.75658 0.772956 0
M  V30 1998 N 195.109 -0.891671 -1.2995 0
M  V30 1999 C 196.337 -0.52866 -2.00032 0
M  V30 2000 C 196.752 0.884574 -1.66795 0
M  V30 2001 O 196.109 1.5827 -0.908669 0
M  V30 2002 C 196.16 -0.701814 -3.54622 0
M  V30 2003 O 195.881 -2.05942 -3.86678 0
M  V30 2004 C 197.382 -0.342683 -4.41973 0
M  V30 2005 H 194.602 -0.203659 -0.639347 0
M  V30 2006 H 197.146 -1.19881 -1.65677 0
M  V30 2007 H 195.301 -0.0789468 -3.8732 0
M  V30 2008 H 195.715 -2.08291 -4.81368 0
M  V30 2009 H 197.189 -0.514709 -5.49595 0
M  V30 2010 H 197.666 0.71975 -4.33262 0
M  V30 2011 H 198.272 -0.942154 -4.14733 0
M  V30 2012 N 196.587 1.43421 -0.653314 0
M  V30 2013 C 197.864 1.95361 -0.0966581 0
M  V30 2014 C 198.244 1.59461 1.38331 0
M  V30 2015 O 197.592 0.879777 2.10884 0
M  V30 2016 C 197.802 3.47311 -0.342988 0
M  V30 2017 C 199.15 4.23875 -0.24798 0
M  V30 2018 O 200.174 3.55133 -0.275553 0
M  V30 2019 O 199.033 5.4623 -0.171771 0
M  V30 2020 H 196.127 0.826945 0.00956291 0
M  V30 2021 H 198.673 1.5336 -0.726558 0
M  V30 2022 H 197.445 3.66569 -1.36906 0
M  V30 2023 H 197.068 3.9631 0.319975 0
M  V30 2024 N 198.065 0.39524 1.52563 0
M  V30 2025 C 199.342 -0.242908 1.94086 0
M  V30 2026 C 199.722 -1.63841 1.33114 0
M  V30 2027 O 199.07 -2.22928 0.501529 0
M  V30 2028 C 199.28 -0.26327 3.48006 0
M  V30 2029 C 200.628 -0.489354 4.21771 0
M  V30 2030 O 201.652 -0.343226 3.54543 0
M  V30 2031 O 200.511 -0.776169 5.4096 0
M  V30 2032 H 197.605 -0.152536 0.812811 0
M  V30 2033 H 200.151 0.450178 1.6362 0
M  V30 2034 H 198.923 0.713985 3.84731 0
M  V30 2035 H 198.546 -1.00103 3.84792 0
M  V30 2036 N 199.544 -1.57102 0.125237 0
M  V30 2037 C 200.492 -2.16905 -0.839927 0
M  V30 2038 C 201.486 -1.11998 -1.27094 0
M  V30 2039 O 202.692 -1.3029 -1.24195 0
M  V30 2040 H 199.067 -0.694252 -0.288995 0
M  V30 2041 H 201.038 -2.96774 -0.311115 0
M  V30 2042 C 199.787 -2.78795 -2.07771 0
M  V30 2043 H 199.11 -3.59221 -1.755 0
M  V30 2044 H 200.55 -3.2417 -2.73295 0
M  V30 2045 C 199.009 -1.76193 -2.87155 0
M  V30 2046 O 199.539 -1.21909 -3.82755 0
M  V30 2047 N 197.745 -1.45991 -2.51267 0
M  V30 2048 H 197.292 -1.90325 -1.73592 0
M  V30 2049 H 197.25 -0.775844 -3.04677 0
M  V30 2050 N 201.022 0.148545 -1.56898 0
M  V30 2051 C 202.433 0.708766 -1.72723 0
M  V30 2052 C 202.784 1.81734 -0.739395 0
M  V30 2053 O 201.909 2.16194 0.0943169 0
M  V30 2054 C 202.504 1.29245 -3.13179 0
M  V30 2055 C 201.063 1.79925 -3.30611 0
M  V30 2056 C 200.21 0.687111 -2.68652 0
M  V30 2057 H 203.161 -0.0771063 -1.58513 0
M  V30 2058 H 203.182 2.16224 -3.13093 0
M  V30 2059 H 202.694 0.485382 -3.85053 0
M  V30 2060 H 200.795 2.63203 -2.63732 0
M  V30 2061 H 200.908 1.92903 -4.38549 0
M  V30 2062 H 199.272 1.11335 -2.29078 0
M  V30 2063 H 200.055 -0.108483 -3.43129 0
M  V30 2064 N 202.5 1.5196 0.417844 0
M  V30 2065 C 203.777 1.56146 1.17803 0
M  V30 2066 C 204.157 0.337275 2.08388 0
M  V30 2067 O 203.505 -0.676447 2.18258 0
M  V30 2068 C 203.715 2.88566 1.96293 0
M  V30 2069 C 205.063 3.41244 2.52662 0
M  V30 2070 O 206.087 2.90247 2.06483 0
M  V30 2071 O 204.946 4.30273 3.36938 0
M  V30 2072 H 202.04 0.628598 0.537395 0
M  V30 2073 H 204.586 1.64283 0.425331 0
M  V30 2074 H 203.358 3.69116 1.2988 0
M  V30 2075 H 202.981 2.83681 2.78587 0
M  V30 2076 N 203.978 -0.674533 1.42435 0
M  V30 2077 C 205.226 -1.43175 1.42637 0
M  V30 2078 C 205.547 -1.94951 0.0438992 0
M  V30 2079 O 204.817 -1.7308 -0.917607 0
M  V30 2080 H 203.397 -0.531307 0.525092 0
M  V30 2081 H 206.059 -0.797006 1.77859 0
M  V30 2082 H 205.155 -2.28463 2.12629 0
M  V30 2083 N 205.456 -1.28612 -0.910864 0
M  V30 2084 C 206.419 -1.12803 -1.9952 0
M  V30 2085 C 207.419 -0.0668264 -1.60661 0
M  V30 2086 O 208.609 -0.312847 -1.71368 0
M  V30 2087 C 205.741 -0.72254 -3.33155 0
M  V30 2088 H 206.934 -2.09109 -2.14973 0
M  V30 2089 H 204.487 -1.11639 -1.09391 0
M  V30 2090 H 205.222 0.241152 -3.23402 0
M  V30 2091 H 205.007 -1.48916 -3.62721 0
M  V30 2092 H 206.497 -0.634666 -4.12749 0
M  V30 2093 N 206.934 1.1197 -1.10907 0
M  V30 2094 C 207.897 2.16031 -0.765707 0
M  V30 2095 C 208.897 1.59393 0.212235 0
M  V30 2096 O 210.087 1.74196 -0.0115441 0
M  V30 2097 C 207.219 3.40632 -0.135053 0
M  V30 2098 H 208.412 2.47919 -1.68748 0
M  V30 2099 H 205.965 1.27061 -0.910226 0
M  V30 2100 H 206.7 3.14348 0.797218 0
M  V30 2101 H 206.485 3.8302 -0.838937 0
M  V30 2102 H 207.975 4.17505 0.0892469 0
M  V30 2103 N 208.412 0.89855 1.29475 0
M  V30 2104 C 209.823 0.572537 1.77705 0
M  V30 2105 C 210.174 -0.911778 1.73727 0
M  V30 2106 O 209.299 -1.71288 1.32247 0
M  V30 2107 C 209.894 1.03252 3.22683 0
M  V30 2108 C 208.453 0.757687 3.68695 0
M  V30 2109 C 207.6 1.20787 2.49612 0
M  V30 2110 H 210.551 1.08139 1.16153 0
M  V30 2111 H 210.572 0.367307 3.78723 0
M  V30 2112 H 210.084 2.11285 3.25546 0
M  V30 2113 H 208.185 -0.310079 3.71308 0
M  V30 2114 H 208.298 1.35476 4.59547 0
M  V30 2115 H 206.662 0.626888 2.46865 0
M  V30 2116 H 207.445 2.29622 2.55203 0
M  V30 2117 N 209.89 -1.43072 0.660911 0
M  V30 2118 C 210.837 -2.30785 -0.0259884 0
M  V30 2119 C 211.807 -1.45184 -0.806888 0
M  V30 2120 O 212.992 -1.74041 -0.781943 0
M  V30 2121 C 210.132 -3.30861 -0.981067 0
M  V30 2122 C 209.245 -4.31558 -0.195458 0
M  V30 2123 C 208.38 -5.18712 -1.14503 0
M  V30 2124 C 207.419 -6.11097 -0.350299 0
M  V30 2125 N 206.556 -6.90849 -1.25186 0
M  V30 2126 H 211.396 -2.88975 0.727846 0
M  V30 2127 H 208.933 -1.42353 0.370682 0
M  V30 2128 H 210.891 -3.87399 -1.54849 0
M  V30 2129 H 209.521 -2.74304 -1.70169 0
M  V30 2130 H 208.573 -3.77252 0.488374 0
M  V30 2131 H 209.885 -4.9701 0.422176 0
M  V30 2132 H 209.039 -5.79914 -1.78284 0
M  V30 2133 H 207.778 -4.53404 -1.79656 0
M  V30 2134 H 206.783 -5.48976 0.300808 0
M  V30 2135 H 208.008 -6.7845 0.296941 0
M  V30 2136 H 205.954 -6.28182 -1.89005 0
M  V30 2137 H 205.871 -7.52854 -0.688971 0
M  V30 2138 H 207.139 -7.5655 -1.87757 0
M  V30 2139 N 211.368 -0.403325 -1.52352 0
M  V30 2140 C 212.278 0.432009 -2.30588 0
M  V30 2141 C 213.294 1.05884 -1.38075 0
M  V30 2142 O 214.47 1.06161 -1.71148 0
M  V30 2143 C 211.535 1.53669 -3.10784 0
M  V30 2144 C 210.596 0.933525 -4.19027 0
M  V30 2145 C 209.829 1.98557 -4.9539 0
M  V30 2146 O 210.052 3.20283 -4.71991 0
M  V30 2147 O 208.986 1.59504 -5.80381 0
M  V30 2148 H 212.812 -0.205739 -3.03002 0
M  V30 2149 H 210.397 -0.166675 -1.48467 0
M  V30 2150 H 212.279 2.17814 -3.60742 0
M  V30 2151 H 210.954 2.15915 -2.41169 0
M  V30 2152 H 209.861 0.254954 -3.7323 0
M  V30 2153 H 211.194 0.35508 -4.90918 0
M  V30 2154 N 212.846 1.57033 -0.133567 0
M  V30 2155 C 214.093 1.95686 0.520877 0
M  V30 2156 C 214.421 1.0177 1.6575 0
M  V30 2157 O 213.676 0.0443195 1.9565 0
M  V30 2158 C 213.975 3.40674 1.08057 0
M  V30 2159 C 213.641 4.50855 0.0637899 0
M  V30 2160 C 212.303 4.80716 -0.215757 0
M  V30 2161 C 214.655 5.17398 -0.62835 0
M  V30 2162 C 211.983 5.74433 -1.19348 0
M  V30 2163 C 214.335 6.12167 -1.5948 0
M  V30 2164 C 212.999 6.40414 -1.88218 0
M  V30 2165 H 212.269 0.716067 0.190602 0
M  V30 2166 H 214.916 1.9026 -0.217556 0
M  V30 2167 H 213.221 3.42865 1.89606 0
M  V30 2168 H 214.918 3.67902 1.59529 0
M  V30 2169 H 211.508 4.27605 0.291855 0
M  V30 2170 H 215.692 4.94472 -0.425562 0
M  V30 2171 H 210.948 5.94616 -1.42272 0
M  V30 2172 H 215.122 6.6281 -2.13671 0
M  V30 2173 H 212.749 7.12838 -2.64133 0
M  V30 2174 N 214.325 -0.140222 1.56975 0
M  V30 2175 C 215.572 -0.851687 1.83719 0
M  V30 2176 C 215.9 -1.80862 0.715485 0
M  V30 2177 O 215.155 -1.93464 -0.294956 0
M  V30 2178 C 215.454 -1.65386 3.16832 0
M  V30 2179 C 215.12 -0.843112 4.42947 0
M  V30 2180 C 213.782 -0.619464 4.77196 0
M  V30 2181 C 216.134 -0.276582 5.20466 0
M  V30 2182 C 213.462 0.181312 5.8642 0
M  V30 2183 C 215.814 0.51127 6.30531 0
M  V30 2184 C 214.478 0.745432 6.63325 0
M  V30 2185 H 213.748 -0.311654 0.672274 0
M  V30 2186 H 216.395 -0.115006 1.91154 0
M  V30 2187 H 214.7 -2.46084 3.04877 0
M  V30 2188 H 216.397 -2.20793 3.34741 0
M  V30 2189 H 212.987 -1.0275 4.16101 0
M  V30 2190 H 217.171 -0.436632 4.94376 0
M  V30 2191 H 212.427 0.372165 6.10266 0
M  V30 2192 H 216.601 0.957354 6.89788 0
M  V30 2193 H 214.228 1.36778 7.47794 0
M  V30 2194 N 215.803 -1.52179 -0.40978 0
M  V30 2195 C 217.08 -1.56769 -1.16974 0
M  V30 2196 C 217.46 -0.348322 -2.08206 0
M  V30 2197 O 216.808 0.664862 -2.18613 0
M  V30 2198 C 217.018 -2.89603 -1.9476 0
M  V30 2199 C 218.366 -3.42579 -2.50849 0
M  V30 2200 O 219.39 -2.91338 -2.04941 0
M  V30 2201 O 218.249 -4.32054 -3.34652 0
M  V30 2202 H 215.343 -0.631439 -0.534054 0
M  V30 2203 H 217.889 -1.64507 -0.416613 0
M  V30 2204 H 216.661 -3.698 -1.27921 0
M  V30 2205 H 216.284 -2.85155 -2.77079 0
M  V30 2206 N 217.281 0.66697 -1.42791 0
M  V30 2207 C 218.529 1.42417 -1.43394 0
M  V30 2208 C 218.85 1.94925 -0.0542373 0
M  V30 2209 O 218.12 1.73564 0.908415 0
M  V30 2210 H 216.7 0.528515 -0.527902 0
M  V30 2211 H 219.362 0.787562 -1.78279 0
M  V30 2212 H 218.458 2.27333 -2.13837 0
M  V30 2213 N 218.759 1.29093 0.90403 0
M  V30 2214 C 220.008 1.16187 1.64874 0
M  V30 2215 C 220.321 -0.286742 1.93487 0
M  V30 2216 O 221.527 -0.537062 2.66135 0
M  V30 2217 C 219.983 2.03177 2.97064 0
M  V30 2218 C 219.591 3.52836 2.76062 0
M  V30 2219 C 221.335 1.98984 3.74974 0
M  V30 2220 C 219.242 4.31945 4.03952 0
M  V30 2221 H 218.172 0.431246 0.618501 0
M  V30 2222 H 220.823 1.53699 1.00243 0
M  V30 2223 H 219.205 1.5853 3.62883 0
M  V30 2224 H 220.379 4.05507 2.18863 0
M  V30 2225 H 218.694 3.58656 2.11553 0
M  V30 2226 H 221.291 2.55351 4.69787 0
M  V30 2227 H 221.634 0.968815 4.0487 0
M  V30 2228 H 222.167 2.41652 3.15989 0
M  V30 2229 H 218.906 5.34667 3.79225 0
M  V30 2230 H 218.426 3.84045 4.60727 0
M  V30 2231 H 220.105 4.42379 4.72133 0
M  V30 2232 N 220.237 -1.11381 1.11499 0
M  V30 2233 C 221.483 -1.83403 0.865512 0
M  V30 2234 C 221.816 -1.84459 -0.607329 0
M  V30 2235 O 221.091 -1.29811 -1.44842 0
M  V30 2236 C 221.374 -3.30552 1.42855 0
M  V30 2237 C 221.227 -3.37886 2.96906 0
M  V30 2238 C 222.546 -4.26643 1.08 0
M  V30 2239 H 219.665 -0.665879 0.31587 0
M  V30 2240 H 222.307 -1.30601 1.37998 0
M  V30 2241 H 220.457 -3.75648 0.990985 0
M  V30 2242 H 222.129 -3.01343 3.49271 0
M  V30 2243 H 220.372 -2.78088 3.32941 0
M  V30 2244 H 221.043 -4.41458 3.31389 0
M  V30 2245 H 223.519 -3.89729 1.45775 0
M  V30 2246 H 222.395 -5.27986 1.50072 0
M  V30 2247 H 222.656 -4.42099 -0.00915037 0
M  V30 2248 N 221.715 -0.905404 -1.28997 0
M  V30 2249 C 222.678 -0.392253 -2.25819 0
M  V30 2250 C 223.678 0.476753 -1.5357 0
M  V30 2251 O 224.868 0.280994 -1.71919 0
M  V30 2252 C 222 0.438588 -3.38067 0
M  V30 2253 H 223.193 -1.24743 -2.72725 0
M  V30 2254 H 220.746 -0.684051 -1.40536 0
M  V30 2255 H 221.481 1.31352 -2.96508 0
M  V30 2256 H 221.266 -0.184167 -3.91667 0
M  V30 2257 H 222.756 0.78873 -4.10084 0
M  V30 2258 N 223.193 1.4272 -0.668489 0
M  V30 2259 C 224.156 2.292 0.00448567 0
M  V30 2260 C 225.156 1.43001 0.735339 0
M  V30 2261 O 226.346 1.64461 0.57429 0
M  V30 2262 C 223.478 3.25375 1.01705 0
M  V30 2263 H 224.671 2.90199 -0.756608 0
M  V30 2264 H 222.224 1.50254 -0.430506 0
M  V30 2265 H 222.959 2.69301 1.80686 0
M  V30 2266 H 222.744 3.88944 0.496463 0
M  V30 2267 H 224.234 3.90245 1.48655 0
M  V30 2268 N 224.671 0.411399 1.52136 0
M  V30 2269 C 225.917 -0.163888 2.02137 0
M  V30 2270 C 226.25 -1.44597 1.29636 0
M  V30 2271 O 225.525 -1.90272 0.403353 0
M  V30 2272 C 225.808 -0.40927 3.57767 0
M  V30 2273 C 225.661 0.889643 4.40914 0
M  V30 2274 C 226.98 -1.19042 4.23694 0
M  V30 2275 H 224.099 -0.0580896 0.734707 0
M  V30 2276 H 226.741 0.54531 1.82007 0
M  V30 2277 H 224.891 -1.0134 3.7505 0
M  V30 2278 H 226.563 1.52575 4.35337 0
M  V30 2279 H 224.806 1.50011 4.07037 0
M  V30 2280 H 225.477 0.672314 5.4789 0
M  V30 2281 H 227.953 -0.678942 4.10524 0
M  V30 2282 H 226.829 -1.33086 5.32522 0
M  V30 2283 H 227.09 -2.21166 3.82803 0
M  V30 2284 N 226.149 -1.5696 0.141893 0
M  V30 2285 C 227.096 -2.16501 -0.799737 0
M  V30 2286 C 228.066 -1.09643 -1.24771 0
M  V30 2287 O 229.251 -1.3766 -1.32115 0
M  V30 2288 C 226.391 -2.78679 -2.03549 0
M  V30 2289 C 225.504 -3.99914 -1.6338 0
M  V30 2290 C 224.639 -4.50106 -2.82096 0
M  V30 2291 C 223.678 -5.63819 -2.38275 0
M  V30 2292 N 222.815 -6.08651 -3.49983 0
M  V30 2293 H 227.655 -2.96632 -0.285179 0
M  V30 2294 H 225.192 -1.46533 -0.129053 0
M  V30 2295 H 227.15 -3.1287 -2.75986 0
M  V30 2296 H 225.78 -2.012 -2.52425 0
M  V30 2297 H 224.832 -3.71735 -0.807279 0
M  V30 2298 H 226.144 -4.82311 -1.27192 0
M  V30 2299 H 225.298 -4.86325 -3.62729 0
M  V30 2300 H 224.037 -3.66706 -3.21525 0
M  V30 2301 H 223.042 -5.2718 -1.56081 0
M  V30 2302 H 224.267 -6.49 -1.99938 0
M  V30 2303 H 222.213 -5.28188 -3.89042 0
M  V30 2304 H 222.13 -6.85961 -3.17794 0
M  V30 2305 H 223.398 -6.49515 -4.30988 0
M  V30 2306 N 227.627 0.131896 -1.57047 0
M  V30 2307 C 228.59 1.14638 -1.98471 0
M  V30 2308 C 229.59 1.35029 -0.873148 0
M  V30 2309 O 230.78 1.31764 -1.13946 0
M  V30 2310 C 227.912 2.50358 -2.31373 0
M  V30 2311 H 229.105 0.79064 -2.8929 0
M  V30 2312 H 226.658 0.375761 -1.51716 0
M  V30 2313 H 227.393 2.90876 -1.43393 0
M  V30 2314 H 227.178 2.36915 -3.12432 0
M  V30 2315 H 228.668 3.23395 -2.64207 0
M  V30 2316 N 229.106 1.52395 0.401703 0
M  V30 2317 C 230.383 1.57387 1.16141 0
M  V30 2318 C 230.763 0.359359 2.08019 0
M  V30 2319 O 230.111 -0.65326 2.18963 0
M  V30 2320 C 230.321 2.90631 1.93221 0
M  V30 2321 C 231.669 3.43904 2.49028 0
M  V30 2322 O 232.693 2.92421 2.03393 0
M  V30 2323 O 231.552 4.33823 3.32356 0
M  V30 2324 H 228.646 0.634262 0.530698 0
M  V30 2325 H 231.192 1.64725 0.407883 0
M  V30 2326 H 229.964 3.70473 1.25958 0
M  V30 2327 H 229.587 2.8662 2.75563 0
M  V30 2328 N 230.584 -0.659388 1.43143 0
M  V30 2329 C 232 -0.974337 1.26407 0
M  V30 2330 C 232.2 -2.007 0.179341 0
M  V30 2331 O 231.256 -2.4856 -0.444295 0
M  V30 2332 C 232.569 -1.46447 2.62628 0
M  V30 2333 C 234.117 -1.58144 2.7011 0
M  V30 2334 C 234.592 -2.1055 4.06734 0
M  V30 2335 N 236.083 -2.17861 4.08767 0
M  V30 2336 C 236.818 -2.59519 5.1131 0
M  V30 2337 N 236.314 -3.00518 6.24228 0
M  V30 2338 N 238.107 -2.59404 4.98664 0
M  V30 2339 H 230.258 0.0240528 2.12386 0
M  V30 2340 H 232.521 -0.0518065 0.946583 0
M  V30 2341 H 232.227 -0.780123 3.42939 0
M  V30 2342 H 232.101 -2.44058 2.87603 0
M  V30 2343 H 234.488 -2.25682 1.90136 0
M  V30 2344 H 234.569 -0.589828 2.48907 0
M  V30 2345 H 234.213 -1.43616 4.87172 0
M  V30 2346 H 234.143 -3.10531 4.25298 0
M  V30 2347 H 236.634 -1.88975 3.27257 0
M  V30 2348 H 236.947 -3.31036 6.98309 0
M  V30 2349 H 235.292 -2.98337 6.2771 0
M  V30 2350 H 238.483 -2.26747 4.09516 0
M  V30 2351 H 238.656 -2.91548 5.78709 0
M  V30 2352 N 232.062 -1.29571 -0.897171 0
M  V30 2353 C 233.292 -1.20408 -1.67886 0
M  V30 2354 C 233.7 0.237429 -1.87704 0
M  V30 2355 O 233.043 1.17048 -1.41582 0
M  V30 2356 C 233.105 -1.84887 -3.08314 0
M  V30 2357 C 232.769 -3.34189 -3.11716 0
M  V30 2358 C 233.766 -4.30374 -2.91675 0
M  V30 2359 C 231.451 -3.75431 -3.33701 0
M  V30 2360 C 233.445 -5.65776 -2.93557 0
M  V30 2361 C 231.132 -5.10955 -3.35214 0
M  V30 2362 C 232.13 -6.05938 -3.15164 0
M  V30 2363 O 231.818 -7.38987 -3.1647 0
M  V30 2364 H 231.55 -0.418289 -0.531046 0
M  V30 2365 H 234.104 -1.71514 -1.13014 0
M  V30 2366 H 232.334 -1.28295 -3.64798 0
M  V30 2367 H 234.023 -1.70011 -3.6858 0
M  V30 2368 H 234.789 -3.99844 -2.74499 0
M  V30 2369 H 230.668 -3.01953 -3.48347 0
M  V30 2370 H 234.212 -6.39889 -2.77826 0
M  V30 2371 H 230.109 -5.4113 -3.51922 0
M  V30 2372 H 230.877 -7.47823 -3.3272 0
M  V30 2373 N 233.54 1.10788 -1.12088 0
M  V30 2374 C 234.503 2.15207 -0.788577 0
M  V30 2375 C 235.503 1.59609 0.195317 0
M  V30 2376 O 236.693 1.74174 -0.0300193 0
M  V30 2377 C 233.825 3.4047 -0.171174 0
M  V30 2378 H 235.018 2.46116 -1.71368 0
M  V30 2379 H 232.571 1.26089 -0.923652 0
M  V30 2380 H 233.306 3.15176 0.763832 0
M  V30 2381 H 233.091 3.82109 -0.879514 0
M  V30 2382 H 234.581 4.17576 0.04496 0
M  V30 2383 N 235.018 0.912232 1.28515 0
M  V30 2384 C 236.265 0.544599 1.95039 0
M  V30 2385 C 236.593 -0.911435 1.71823 0
M  V30 2386 O 235.848 -1.66317 1.03137 0
M  V30 2387 C 236.147 0.798392 3.48368 0
M  V30 2388 C 235.813 2.23374 3.91682 0
M  V30 2389 C 234.475 2.62617 4.03219 0
M  V30 2390 C 236.827 3.16786 4.13879 0
M  V30 2391 C 234.155 3.94429 4.3433 0
M  V30 2392 C 236.507 4.48161 4.46469 0
M  V30 2393 C 235.171 4.8726 4.56217 0
M  V30 2394 H 234.441 0.199283 0.7137 0
M  V30 2395 H 237.088 1.15327 1.52879 0
M  V30 2396 H 235.393 0.106908 3.91654 0
M  V30 2397 H 237.09 0.493141 3.97956 0
M  V30 2398 H 233.68 1.91922 3.83228 0
M  V30 2399 H 237.864 2.87677 4.0442 0
M  V30 2400 H 233.12 4.24426 4.40082 0
M  V30 2401 H 237.294 5.20559 4.62592 0
M  V30 2402 H 234.921 5.89431 4.80078 0
M  V30 2403 N 236.496 -1.42363 0.676048 0
M  V30 2404 C 237.726 -2.05561 0.206967 0
M  V30 2405 C 238.134 -1.50887 -1.14148 0
M  V30 2406 O 237.477 -0.643933 -1.72044 0
M  V30 2407 C 237.539 -3.5944 0.0659508 0
M  V30 2408 C 237.203 -4.36812 1.34331 0
M  V30 2409 C 238.2 -4.67383 2.27704 0
M  V30 2410 C 235.885 -4.76429 1.59125 0
M  V30 2411 C 237.879 -5.36509 3.44147 0
M  V30 2412 C 235.566 -5.45294 2.75857 0
M  V30 2413 C 236.564 -5.75259 3.68193 0
M  V30 2414 O 236.252 -6.42712 4.82883 0
M  V30 2415 H 235.984 -0.668872 0.0979084 0
M  V30 2416 H 238.538 -1.83467 0.923531 0
M  V30 2417 H 236.768 -3.80197 -0.706204 0
M  V30 2418 H 238.457 -4.0427 -0.363418 0
M  V30 2419 H 239.223 -4.37275 2.09799 0
M  V30 2420 H 235.102 -4.52498 0.881258 0
M  V30 2421 H 238.646 -5.59814 4.16238 0
M  V30 2422 H 234.543 -5.7482 2.93688 0
M  V30 2423 H 235.311 -6.61204 4.82444 0
M  V30 2424 N 237.974 -0.419461 -1.51915 0
M  V30 2425 C 239.202 0.152136 -2.0634 0
M  V30 2426 C 239.617 1.37988 -1.28859 0
M  V30 2427 O 238.974 1.79243 -0.343232 0
M  V30 2428 C 239.025 0.492266 -3.58133 0
M  V30 2429 O 238.746 -0.686736 -4.32684 0
M  V30 2430 C 240.247 1.11648 -4.2901 0
M  V30 2431 H 237.467 0.0158325 -0.670813 0
M  V30 2432 H 240.011 -0.593394 -1.95702 0
M  V30 2433 H 238.166 1.18769 -3.68745 0
M  V30 2434 H 238.58 -0.400341 -5.2297 0
M  V30 2435 H 240.054 1.3046 -5.36362 0
M  V30 2436 H 240.531 2.09251 -3.86148 0
M  V30 2437 H 241.137 0.460958 -4.22795 0
M  V30 2438 N 239.452 1.56882 -0.150215 0
M  V30 2439 C 240.7 1.9584 0.499105 0
M  V30 2440 C 241.021 1.03623 1.65188 0
M  V30 2441 O 240.291 0.0984084 1.95653 0
M  V30 2442 H 238.871 0.723119 0.187373 0
M  V30 2443 H 241.533 1.9358 -0.226466 0
M  V30 2444 H 240.629 2.99638 0.873122 0
M  V30 2445 N 240.93 -0.123565 1.57115 0
M  V30 2446 C 242.177 -0.832153 1.84612 0
M  V30 2447 C 242.505 -1.80093 0.734627 0
M  V30 2448 O 241.76 -1.93766 -0.27442 0
M  V30 2449 C 242.059 -1.62016 3.18568 0
M  V30 2450 C 241.725 -0.796084 4.43817 0
M  V30 2451 C 240.387 -0.568816 4.77826 0
M  V30 2452 C 242.739 -0.221364 5.2073 0
M  V30 2453 C 240.067 0.243499 5.86194 0
M  V30 2454 C 242.419 0.578117 6.29953 0
M  V30 2455 C 241.083 0.815744 6.62497 0
M  V30 2456 H 240.353 -0.304507 0.675542 0
M  V30 2457 H 243 -0.0947248 1.91266 0
M  V30 2458 H 241.305 -2.42837 3.0747 0
M  V30 2459 H 243.002 -2.17231 3.37064 0
M  V30 2460 H 239.592 -0.983307 4.17168 0
M  V30 2461 H 243.776 -0.384173 4.94811 0
M  V30 2462 H 239.032 0.436871 6.09837 0
M  V30 2463 H 243.206 1.03046 6.88734 0
M  V30 2464 H 240.833 1.44701 7.46301 0
M  V30 2465 N 242.408 -1.52605 -0.393616 0
M  V30 2466 C 243.655 -1.67424 -1.1391 0
M  V30 2467 C 243.983 -0.411859 -1.90089 0
M  V30 2468 O 243.238 0.605626 -1.86093 0
M  V30 2469 C 243.537 -2.85721 -2.14705 0
M  V30 2470 C 243.203 -4.23342 -1.55218 0
M  V30 2471 C 241.865 -4.60771 -1.3872 0
M  V30 2472 C 244.217 -5.09041 -1.11924 0
M  V30 2473 C 241.545 -5.81563 -0.774689 0
M  V30 2474 C 243.897 -6.30452 -0.520853 0
M  V30 2475 C 242.561 -6.66617 -0.343134 0
M  V30 2476 H 241.831 -0.612648 -0.416826 0
M  V30 2477 H 244.478 -1.8674 -0.424315 0
M  V30 2478 H 242.783 -2.60803 -2.92385 0
M  V30 2479 H 244.48 -2.94382 -2.72288 0
M  V30 2480 H 241.07 -3.93855 -1.69045 0
M  V30 2481 H 245.254 -4.80695 -1.23473 0
M  V30 2482 H 240.51 -6.08196 -0.625154 0
M  V30 2483 H 244.684 -6.96175 -0.177065 0
M  V30 2484 H 242.311 -7.60083 0.133571 0
M  V30 2485 N 243.887 0.651787 -1.4349 0
M  V30 2486 C 244.835 1.78586 -1.49029 0
M  V30 2487 C 245.829 1.65448 -0.363767 0
M  V30 2488 O 247.035 1.71777 -0.537821 0
M  V30 2489 H 243.41 0.589236 -0.467231 0
M  V30 2490 H 245.381 1.71035 -2.44519 0
M  V30 2491 C 244.13 3.16851 -1.43181 0
M  V30 2492 H 243.453 3.27598 -2.29171 0
M  V30 2493 H 244.893 3.96156 -1.51118 0
M  V30 2494 C 243.352 3.36568 -0.149616 0
M  V30 2495 O 243.882 3.93885 0.788509 0
M  V30 2496 N 242.088 2.90539 -0.0593484 0
M  V30 2497 H 241.635 2.4408 -0.823575 0
M  V30 2498 H 241.593 3.04108 0.797853 0
M  V30 2499 N 245.365 1.30045 0.890287 0
M  V30 2500 C 246.642 1.09227 1.62262 0
M  V30 2501 C 247.022 -0.360305 2.08002 0
M  V30 2502 O 246.37 -1.35084 1.84295 0
M  V30 2503 C 246.58 2.08835 2.79623 0
M  V30 2504 C 247.928 2.40266 3.50082 0
M  V30 2505 O 248.952 2.07104 2.89804 0
M  V30 2506 O 247.811 2.96967 4.58773 0
M  V30 2507 H 244.905 0.419132 0.712922 0
M  V30 2508 H 247.451 1.41451 0.937529 0
M  V30 2509 H 246.223 3.06633 2.43089 0
M  V30 2510 H 245.846 1.77397 3.55832 0
M  V30 2511 N 246.843 -1.10192 1.12674 0
M  V30 2512 C 248.09 -1.82205 0.883606 0
M  V30 2513 C 248.418 -1.8532 -0.590492 0
M  V30 2514 O 247.673 -1.31137 -1.45264 0
M  V30 2515 C 247.972 -3.28552 1.4067 0
M  V30 2516 C 247.638 -3.45582 2.89627 0
M  V30 2517 C 246.3 -3.49937 3.30299 0
M  V30 2518 C 248.652 -3.50768 3.85501 0
M  V30 2519 C 245.98 -3.57049 4.65546 0
M  V30 2520 C 248.332 -3.59414 5.20581 0
M  V30 2521 C 246.996 -3.62034 5.60792 0
M  V30 2522 H 246.266 -0.666735 0.323334 0
M  V30 2523 H 248.913 -1.29868 1.40736 0
M  V30 2524 H 247.218 -3.83473 0.80347 0
M  V30 2525 H 248.915 -3.82788 1.19475 0
M  V30 2526 H 245.505 -3.42871 2.57172 0
M  V30 2527 H 249.689 -3.46651 3.55171 0
M  V30 2528 H 244.945 -3.57361 4.96088 0
M  V30 2529 H 249.119 -3.62371 5.94693 0
M  V30 2530 H 246.746 -3.67298 6.6558 0
M  V30 2531 N 248.321 -0.919034 -1.28029 0
M  V30 2532 C 249.551 -0.570143 -1.98577 0
M  V30 2533 C 249.959 0.854172 -1.68821 0
M  V30 2534 O 249.302 1.57807 -0.940351 0
M  V30 2535 C 249.364 -0.705734 -3.52505 0
M  V30 2536 C 249.028 -2.10057 -4.05863 0
M  V30 2537 C 250.025 -3.07385 -4.19298 0
M  V30 2538 C 247.71 -2.41517 -4.40426 0
M  V30 2539 C 249.704 -4.34287 -4.66555 0
M  V30 2540 C 247.391 -3.68657 -4.87376 0
M  V30 2541 C 248.389 -4.64856 -5.00398 0
M  V30 2542 O 248.077 -5.89735 -5.46322 0
M  V30 2543 H 247.809 -0.215592 -0.6407 0
M  V30 2544 H 250.363 -1.23583 -1.64062 0
M  V30 2545 H 248.593 0.0170414 -3.86696 0
M  V30 2546 H 250.282 -0.363172 -4.04272 0
M  V30 2547 H 251.048 -2.84398 -3.92865 0
M  V30 2548 H 246.927 -1.67389 -4.29537 0
M  V30 2549 H 250.471 -5.09377 -4.76635 0
M  V30 2550 H 246.368 -3.91466 -5.13249 0
M  V30 2551 H 247.136 -5.92599 -5.64596 0
M  V30 2552 N 249.799 1.42003 -0.683588 0
M  V30 2553 C 250.747 2.326 0.000815408 0
M  V30 2554 C 251.741 1.50308 0.781278 0
M  V30 2555 O 252.947 1.66322 0.688251 0
M  V30 2556 H 249.322 0.751758 0.0190616 0
M  V30 2557 H 251.293 2.88011 -0.780528 0
M  V30 2558 C 250.042 3.34978 0.93195 0
M  V30 2559 H 249.365 3.98345 0.340817 0
M  V30 2560 H 250.805 4.00936 1.37936 0
M  V30 2561 C 249.264 2.67925 2.04249 0
M  V30 2562 O 249.794 2.51788 3.12995 0
M  V30 2563 N 248 2.2681 1.81675 0
M  V30 2564 H 247.547 2.40135 0.932363 0
M  V30 2565 H 247.505 1.8228 2.56167 0
M  V30 2566 N 251.277 0.427512 1.51691 0
M  V30 2567 C 252.207 -0.3796 2.30394 0
M  V30 2568 C 253.188 -1.02982 1.35384 0
M  V30 2569 O 254.373 -1.03534 1.643 0
M  V30 2570 C 251.503 -1.48649 3.1388 0
M  V30 2571 C 250.457 -0.960294 4.17088 0
M  V30 2572 C 249.783 -2.16219 4.89033 0
M  V30 2573 C 251.083 -0.00153679 5.223 0
M  V30 2574 H 252.777 0.277164 2.98114 0
M  V30 2575 H 250.323 0.134739 1.43368 0
M  V30 2576 H 252.276 -2.05826 3.67714 0
M  V30 2577 H 251 -2.1714 2.43962 0
M  V30 2578 H 249.659 -0.410806 3.64291 0
M  V30 2579 H 249.307 -2.83307 4.15628 0
M  V30 2580 H 249.007 -1.81654 5.58816 0
M  V30 2581 H 250.531 -2.73968 5.45687 0
M  V30 2582 H 251.945 -0.482687 5.71264 0
M  V30 2583 H 250.342 0.256199 5.99553 0
M  V30 2584 H 251.412 0.938174 4.75738 0
M  V30 2585 N 252.755 -1.56801 0.158532 0
M  V30 2586 C 254.032 -1.88131 -0.535357 0
M  V30 2587 C 254.412 -1.06638 -1.82186 0
M  V30 2588 O 253.76 -0.156533 -2.27963 0
M  V30 2589 C 253.97 -3.39949 -0.789653 0
M  V30 2590 C 255.318 -4.09416 -1.12533 0
M  V30 2591 O 256.342 -3.45194 -0.878622 0
M  V30 2592 O 255.201 -5.22855 -1.59014 0
M  V30 2593 H 252.295 -0.780143 -0.27442 0
M  V30 2594 H 254.841 -1.68564 0.19601 0
M  V30 2595 H 253.613 -3.91115 0.120353 0
M  V30 2596 H 253.236 -3.65084 -1.57479 0
M  V30 2597 N 254.233 0.115231 -1.57178 0
M  V30 2598 C 255.143 1.15994 -2.03918 0
M  V30 2599 C 256.159 1.45103 -0.960268 0
M  V30 2600 O 257.335 1.56144 -1.27204 0
M  V30 2601 C 254.4 2.46568 -2.43732 0
M  V30 2602 C 253.461 2.24822 -3.65723 0
M  V30 2603 C 252.694 3.4917 -4.03629 0
M  V30 2604 O 252.917 4.56623 -3.41835 0
M  V30 2605 O 251.851 3.39949 -4.96708 0
M  V30 2606 H 255.677 0.793019 -2.93164 0
M  V30 2607 H 253.262 0.3263 -1.45793 0
M  V30 2608 H 255.144 3.23492 -2.70057 0
M  V30 2609 H 253.819 2.82726 -1.57631 0
M  V30 2610 H 252.726 1.45744 -3.44542 0
M  V30 2611 H 254.059 1.93566 -4.52541 0
M  V30 2612 N 255.711 1.52812 0.385517 0
M  V30 2613 C 256.659 1.78482 1.49155 0
M  V30 2614 C 257.653 0.652914 1.56312 0
M  V30 2615 O 258.859 0.835464 1.59436 0
M  V30 2616 H 255.234 0.5648 0.496493 0
M  V30 2617 H 257.205 2.71095 1.24699 0
M  V30 2618 C 255.954 1.97378 2.86247 0
M  V30 2619 H 255.277 2.83907 2.81491 0
M  V30 2620 H 256.717 2.19327 3.62866 0
M  V30 2621 C 255.176 0.74728 3.28508 0
M  V30 2622 O 255.706 -0.0736232 4.01633 0
M  V30 2623 N 253.912 0.576396 2.84826 0
M  V30 2624 H 253.459 1.24555 2.25486 0
M  V30 2625 H 253.417 -0.24288 3.1346 0
M  V30 2626 N 257.189 -0.644168 1.43834 0
M  V30 2627 C 258.119 -1.76814 1.52509 0
M  V30 2628 C 259.1 -1.65823 0.379052 0
M  V30 2629 O 260.285 -1.84781 0.597466 0
M  V30 2630 C 257.415 -3.15288 1.4564 0
M  V30 2631 C 256.369 -3.41053 2.58586 0
M  V30 2632 C 255.695 -4.79421 2.36769 0
M  V30 2633 C 256.995 -3.34902 4.00797 0
M  V30 2634 H 258.689 -1.69812 2.46586 0
M  V30 2635 H 256.235 -0.815542 1.1868 0
M  V30 2636 H 258.188 -3.93681 1.50311 0
M  V30 2637 H 256.912 -3.23043 0.480725 0
M  V30 2638 H 255.571 -2.65035 2.53282 0
M  V30 2639 H 255.219 -4.83863 1.37424 0
M  V30 2640 H 254.919 -4.9762 3.12487 0
M  V30 2641 H 256.443 -5.6006 2.43238 0
M  V30 2642 H 257.857 -4.03218 4.07539 0
M  V30 2643 H 256.254 -3.64637 4.76613 0
M  V30 2644 H 257.324 -2.32928 4.25291 0
M  V30 2645 N 258.668 -1.30515 -0.883378 0
M  V30 2646 C 259.916 -1.19194 -1.63209 0
M  V30 2647 C 260.237 0.253205 -1.93349 0
M  V30 2648 O 259.507 1.17025 -1.57105 0
M  V30 2649 H 258.087 -0.438148 -0.605009 0
M  V30 2650 H 260.749 -1.63663 -1.05832 0
M  V30 2651 H 259.845 -1.75396 -2.58153 0
M  V30 2652 N 260.146 1.09593 -1.13257 0
M  V30 2653 C 261.374 1.855 -0.916378 0
M  V30 2654 C 261.789 1.81069 0.534738 0
M  V30 2655 O 261.146 1.20562 1.37007 0
M  V30 2656 C 261.197 3.33546 -1.39388 0
M  V30 2657 O 260.918 3.37927 -2.78813 0
M  V30 2658 C 262.419 4.26299 -1.21588 0
M  V30 2659 H 259.639 0.585991 -0.326887 0
M  V30 2660 H 262.183 1.38488 -1.5047 0
M  V30 2661 H 260.338 3.77992 -0.848597 0
M  V30 2662 H 260.752 4.30254 -2.9997 0
M  V30 2663 H 262.226 5.28341 -1.59876 0
M  V30 2664 H 262.703 4.38918 -0.157376 0
M  V30 2665 H 263.309 3.87668 -1.7491 0
M  V30 2666 N 261.624 0.925811 1.2754 0
M  V30 2667 C 263.04 0.625767 1.46821 0
M  V30 2668 C 263.24 -0.825506 1.83814 0
M  V30 2669 O 262.296 -1.60356 1.95044 0
M  V30 2670 C 263.609 1.57402 2.56213 0
M  V30 2671 C 265.157 1.58204 2.70075 0
M  V30 2672 C 265.632 2.51721 3.82623 0
M  V30 2673 N 267.123 2.49917 3.89994 0
M  V30 2674 C 267.858 3.18968 4.76494 0
M  V30 2675 N 267.354 3.97391 5.67496 0
M  V30 2676 N 269.147 3.07996 4.70208 0
M  V30 2677 H 261.298 1.86409 1.01811 0
M  V30 2678 H 263.561 0.800213 0.508295 0
M  V30 2679 H 263.267 2.60925 2.35819 0
M  V30 2680 H 263.141 1.31428 3.53563 0
M  V30 2681 H 265.528 0.554124 2.89851 0
M  V30 2682 H 265.609 1.88226 1.73218 0
M  V30 2683 H 265.253 3.54622 3.63601 0
M  V30 2684 H 265.183 2.18996 4.78903 0
M  V30 2685 H 267.674 1.9296 3.24923 0
M  V30 2686 H 267.987 4.4707 6.30356 0
M  V30 2687 H 266.332 4.01495 5.67298 0
M  V30 2688 H 269.523 2.46223 3.9811 0
M  V30 2689 H 269.696 3.6208 5.37403 0
M  V30 2690 N 263.102 -1.41638 0.69111 0
M  V30 2691 C 264.351 -2.00526 0.217318 0
M  V30 2692 C 264.664 -1.55353 -1.18848 0
M  V30 2693 O 265.87 -2.06769 -1.75951 0
M  V30 2694 C 264.326 -3.58313 0.337639 0
M  V30 2695 C 263.934 -4.12469 1.74852 0
M  V30 2696 C 265.678 -4.24431 -0.0766066 0
M  V30 2697 C 263.585 -5.62675 1.82074 0
M  V30 2698 H 262.515 -0.750008 0.0774893 0
M  V30 2699 H 265.166 -1.6217 0.858661 0
M  V30 2700 H 263.548 -3.9425 -0.371879 0
M  V30 2701 H 264.722 -3.8796 2.48644 0
M  V30 2702 H 263.037 -3.58861 2.11205 0
M  V30 2703 H 265.634 -5.34683 -0.0430284 0
M  V30 2704 H 265.977 -4.01101 -1.1146 0
M  V30 2705 H 266.51 -3.93512 0.582476 0
M  V30 2706 H 263.249 -5.90826 2.83911 0
M  V30 2707 H 262.769 -5.89124 1.12661 0
M  V30 2708 H 264.448 -6.27371 1.58159 0
M  V30 2709 N 264.58 -0.43555 -1.51462 0
M  V30 2710 C 265.805 0.132627 -2.06976 0
M  V30 2711 C 266.23 1.35848 -1.30104 0
M  V30 2712 O 265.588 1.78112 -0.338493 0
M  V30 2713 C 265.636 0.43523 -3.57964 0
M  V30 2714 O 264.74 1.52198 -3.83288 0
M  V30 2715 H 264.081 0.00265 -0.663995 0
M  V30 2716 H 266.611 -0.616369 -1.95095 0
M  V30 2717 H 266.621 0.686206 -4.02188 0
M  V30 2718 H 265.296 -0.460739 -4.1334 0
M  V30 2719 H 263.873 1.2611 -3.50928 0
M  V30 2720 N 266.058 1.56714 -0.166846 0
M  V30 2721 C 266.968 2.21331 0.777791 0
M  V30 2722 C 267.984 1.20358 1.25658 0
M  V30 2723 O 269.16 1.53005 1.30964 0
M  V30 2724 C 266.225 2.83787 1.99163 0
M  V30 2725 C 265.286 3.99947 1.56016 0
M  V30 2726 C 264.519 4.59415 2.71613 0
M  V30 2727 O 264.742 4.17769 3.88362 0
M  V30 2728 O 263.676 5.49359 2.45945 0
M  V30 2729 H 267.502 3.02605 0.257636 0
M  V30 2730 H 265.087 1.49275 0.0611393 0
M  V30 2731 H 266.969 3.23405 2.70161 0
M  V30 2732 H 265.644 2.05513 2.50092 0
M  V30 2733 H 264.551 3.65007 0.819809 0
M  V30 2734 H 265.884 4.79801 1.09782 0
M  V30 2735 N 267.536 -0.106894 1.57237 0
M  V30 2736 C 268.446 -1.14911 2.0453 0
M  V30 2737 C 269.462 -1.44592 0.96795 0
M  V30 2738 O 270.638 -1.55468 1.2803 0
M  V30 2739 C 267.703 -2.45272 2.45036 0
M  V30 2740 C 266.764 -2.22879 3.66911 0
M  V30 2741 C 265.997 -3.47024 4.05475 0
M  V30 2742 O 266.22 -4.54804 3.44252 0
M  V30 2743 O 265.154 -3.3731 4.98504 0
M  V30 2744 H 268.98 -0.777461 2.9358 0
M  V30 2745 H 266.565 -0.318563 1.45964 0
M  V30 2746 H 268.447 -3.22055 2.71769 0
M  V30 2747 H 267.122 -2.81886 1.59129 0
M  V30 2748 H 266.029 -1.43915 3.45311 0
M  V30 2749 H 267.362 -1.91163 4.53561 0
M  V30 2750 N 269.014 -1.53014 -0.377408 0
M  V30 2751 C 269.977 -1.77957 -1.44444 0
M  V30 2752 C 270.977 -0.649763 -1.47087 0
M  V30 2753 O 272.167 -0.917897 -1.48055 0
M  V30 2754 C 269.299 -1.89089 -2.83651 0
M  V30 2755 H 270.492 -2.73243 -1.23606 0
M  V30 2756 H 268.045 -1.43912 -0.609844 0
M  V30 2757 H 268.78 -0.958293 -3.09818 0
M  V30 2758 H 268.565 -2.71254 -2.83132 0
M  V30 2759 H 270.055 -2.1002 -3.60945 0
M  V30 2760 N 270.492 0.636531 -1.44174 0
M  V30 2761 C 271.738 1.39826 -1.4689 0
M  V30 2762 C 272.071 1.93947 -0.0990585 0
M  V30 2763 O 271.346 1.73325 0.882544 0
M  V30 2764 C 271.629 2.56751 -2.5249 0
M  V30 2765 C 271.482 2.08014 -3.98811 0
M  V30 2766 C 272.801 3.58946 -2.54649 0
M  V30 2767 H 269.92 0.507075 -0.53483 0
M  V30 2768 H 272.562 0.720188 -1.75822 0
M  V30 2769 H 270.712 3.14597 -2.2795 0
M  V30 2770 H 272.384 1.5504 -4.34466 0
M  V30 2771 H 270.627 1.39242 -4.10846 0
M  V30 2772 H 271.298 2.92169 -4.68339 0
M  V30 2773 H 273.774 3.1089 -2.76563 0
M  V30 2774 H 272.65 4.38286 -3.3045 0
M  V30 2775 H 272.911 4.12655 -1.58646 0
M  V30 2776 N 271.97 1.30982 0.876444 0
M  V30 2777 C 273.386 1.09498 1.16113 0
M  V30 2778 C 273.586 -0.13875 2.01022 0
M  V30 2779 O 272.642 -0.829935 2.38471 0
M  V30 2780 C 273.955 2.36308 1.85954 0
M  V30 2781 C 275.503 2.41856 1.98683 0
M  V30 2782 C 275.978 3.6853 2.71937 0
M  V30 2783 N 277.469 3.69387 2.79477 0
M  V30 2784 C 278.204 4.64096 3.36753 0
M  V30 2785 N 277.7 5.69155 3.95012 0
M  V30 2786 N 279.493 4.51626 3.3465 0
M  V30 2787 H 271.644 2.10118 0.310494 0
M  V30 2788 H 273.907 0.926634 0.200131 0
M  V30 2789 H 273.613 3.26388 1.31011 0
M  V30 2790 H 273.487 2.4561 2.86278 0
M  V30 2791 H 275.874 1.52249 2.52793 0
M  V30 2792 H 275.955 2.36523 0.9742 0
M  V30 2793 H 275.599 4.58499 2.18496 0
M  V30 2794 H 275.529 3.71127 3.73593 0
M  V30 2795 H 278.02 2.93438 2.38123 0
M  V30 2796 H 278.333 6.3751 4.36808 0
M  V30 2797 H 276.678 5.72937 3.93406 0
M  V30 2798 H 279.869 3.68728 2.8837 0
M  V30 2799 H 280.042 5.25614 3.7899 0
M  V30 2800 N 273.449 -1.08991 1.13837 0
M  V30 2801 C 274.397 -2.17841 0.815347 0
M  V30 2802 C 275.391 -1.68164 -0.204233 0
M  V30 2803 O 276.597 -1.79897 -0.0609304 0
M  V30 2804 H 272.972 -0.710654 0.245915 0
M  V30 2805 H 274.943 -2.42315 1.74143 0
M  V30 2806 C 273.692 -3.46381 0.302614 0
M  V30 2807 H 273.015 -3.84979 1.0785 0
M  V30 2808 H 274.455 -4.23844 0.115074 0
M  V30 2809 C 272.914 -3.22556 -0.972591 0
M  V30 2810 O 273.444 -3.45599 -2.04754 0
M  V30 2811 N 271.65 -2.76134 -0.905455 0
M  V30 2812 H 271.197 -2.57582 -0.0305421 0
M  V30 2813 H 271.155 -2.60571 -1.75926 0
M  V30 2814 N 274.927 -0.932562 -1.27047 0
M  V30 2815 C 276.152 -0.591474 -1.98787 0
M  V30 2816 C 276.577 0.824601 -1.69062 0
M  V30 2817 O 275.935 1.5541 -0.933677 0
M  V30 2818 C 275.983 -0.829808 -3.50922 0
M  V30 2819 O 275.087 0.102266 -4.12273 0
M  V30 2820 H 274.428 -0.227185 -0.623926 0
M  V30 2821 H 276.958 -1.25314 -1.61733 0
M  V30 2822 H 276.968 -0.747292 -4.01098 0
M  V30 2823 H 275.643 -1.86201 -3.7189 0
M  V30 2824 H 274.22 -0.0305761 -3.72887 0
M  V30 2825 N 276.405 1.4127 -0.698611 0
M  V30 2826 C 277.651 2.01979 -0.239972 0
M  V30 2827 C 278.006 1.54353 1.14861 0
M  V30 2828 O 277.299 0.746218 1.76471 0
M  V30 2829 C 277.493 3.56592 -0.240192 0
M  V30 2830 C 277.322 4.19226 -1.62726 0
M  V30 2831 C 276.092 4.53389 -2.23084 0
M  V30 2832 C 278.29 4.45228 -2.57443 0
M  V30 2833 N 276.272 5.01327 -3.54323 0
M  V30 2834 C 277.643 4.94973 -3.73365 0
M  V30 2835 C 279.698 4.27243 -2.55671 0
M  V30 2836 C 278.401 5.28624 -4.878 0
M  V30 2837 C 280.427 4.61985 -3.69221 0
M  V30 2838 C 279.789 5.11904 -4.83873 0
M  V30 2839 H 275.888 0.770561 -0.133269 0
M  V30 2840 H 278.472 1.71767 -0.916748 0
M  V30 2841 H 276.643 3.86271 0.406082 0
M  V30 2842 H 278.375 4.04025 0.23356 0
M  V30 2843 H 275.13 4.39946 -1.75341 0
M  V30 2844 H 275.554 5.29697 -4.21604 0
M  V30 2845 H 280.196 3.87884 -1.68243 0
M  V30 2846 H 277.914 5.66905 -5.75885 0
M  V30 2847 H 281.5 4.49725 -3.69105 0
M  V30 2848 H 280.38 5.38282 -5.70282 0
M  V30 2849 N 277.883 0.443576 1.51229 0
M  V30 2850 C 278.831 -0.37904 2.29491 0
M  V30 2851 C 279.825 -1.0153 1.35603 0
M  V30 2852 O 281.031 -0.94955 1.52917 0
M  V30 2853 H 277.406 -0.141053 0.738653 0
M  V30 2854 H 279.377 0.301799 2.9687 0
M  V30 2855 C 278.126 -1.46426 3.15364 0
M  V30 2856 H 277.449 -0.984037 3.87501 0
M  V30 2857 H 278.889 -2.01297 3.7317 0
M  V30 2858 C 277.348 -2.45099 2.31146 0
M  V30 2859 O 277.878 -3.49773 1.9754 0
M  V30 2860 N 276.084 -2.16139 1.94249 0
M  V30 2861 H 275.631 -1.31044 2.21777 0
M  V30 2862 H 275.589 -2.82398 1.38198 0
M  V30 2863 N 279.361 -1.56624 0.175154 0
M  V30 2864 C 280.589 -2.01374 -0.474971 0
M  V30 2865 C 281.004 -1.05537 -1.56548 0
M  V30 2866 O 280.361 -0.0568668 -1.82411 0
M  V30 2867 C 280.412 -3.45923 -1.04975 0
M  V30 2868 O 280.133 -4.381 -0.00276605 0
M  V30 2869 C 281.634 -4.06093 -1.77773 0
M  V30 2870 H 278.854 -0.659962 -0.121206 0
M  V30 2871 H 281.398 -2.02601 0.27801 0
M  V30 2872 H 279.553 -3.45458 -1.75321 0
M  V30 2873 H 279.967 -5.22753 -0.427681 0
M  V30 2874 H 281.441 -5.09147 -2.13245 0
M  V30 2875 H 281.918 -3.48405 -2.67414 0
M  V30 2876 H 282.524 -4.10272 -1.12059 0
M  V30 2877 N 280.839 0.0985539 -1.57292 0
M  V30 2878 C 281.802 1.10402 -2.00858 0
M  V30 2879 C 282.802 1.33146 -0.901593 0
M  V30 2880 O 283.992 1.29318 -1.16716 0
M  V30 2881 C 281.124 2.45394 -2.36632 0
M  V30 2882 H 282.317 0.729099 -2.90902 0
M  V30 2883 H 279.87 0.343495 -1.52479 0
M  V30 2884 H 280.605 2.87769 -1.49531 0
M  V30 2885 H 280.39 2.30235 -3.17387 0
M  V30 2886 H 281.88 3.17718 -2.71007 0
M  V30 2887 N 282.317 1.53212 0.369288 0
M  V30 2888 C 283.28 1.7872 1.43498 0
M  V30 2889 C 284.28 0.657554 1.46741 0
M  V30 2890 O 285.47 0.925736 1.47566 0
M  V30 2891 C 282.602 1.90591 2.82645 0
M  V30 2892 H 283.795 2.73894 1.22156 0
M  V30 2893 H 281.348 1.44233 0.602203 0
M  V30 2894 H 282.083 0.974709 3.09306 0
M  V30 2895 H 281.868 2.72751 2.8169 0
M  V30 2896 H 283.358 2.11931 3.59826 0
M  V30 2897 N 283.795 -0.628877 1.44509 0
M  V30 2898 C 285.02 -1.42048 1.5112 0
M  V30 2899 C 285.445 -1.87594 0.137818 0
M  V30 2900 O 284.803 -1.58873 -0.873437 0
M  V30 2901 C 284.851 -2.61541 2.48251 0
M  V30 2902 O 283.955 -3.61453 1.98559 0
M  V30 2903 H 283.296 -0.424942 0.510216 0
M  V30 2904 H 285.826 -0.767374 1.89664 0
M  V30 2905 H 285.836 -3.09057 2.66361 0
M  V30 2906 H 284.511 -2.27736 3.48007 0
M  V30 2907 H 283.088 -3.20731 1.90227 0
M  V30 2908 N 285.273 -1.31445 -0.869486 0
M  V30 2909 C 286.521 -1.20918 -1.61936 0
M  V30 2910 C 286.842 0.232683 -1.93607 0
M  V30 2911 O 286.112 1.15352 -1.58338 0
M  V30 2912 H 284.692 -0.44454 -0.600328 0
M  V30 2913 H 287.354 -1.64776 -1.0409 0
M  V30 2914 H 286.45 -1.78124 -2.56278 0
M  V30 2915 N 286.751 1.08385 -1.14413 0
M  V30 2916 C 287.999 1.80419 -0.910679 0
M  V30 2917 C 288.32 1.86658 0.564243 0
M  V30 2918 O 287.59 1.35985 1.41014 0
M  V30 2919 H 286.17 0.668204 -0.333934 0
M  V30 2920 H 288.832 1.31037 -1.44275 0
M  V30 2921 H 287.928 2.83238 -1.31082 0
M  V30 2922 N 288.23 0.939286 1.26551 0
M  V30 2923 C 289.477 0.585847 1.9384 0
M  V30 2924 C 289.805 -0.874784 1.73718 0
M  V30 2925 O 289.06 -1.64092 1.06642 0
M  V30 2926 C 289.359 0.872106 3.46596 0
M  V30 2927 C 289.025 2.31632 3.86856 0
M  V30 2928 C 287.687 2.71111 3.97558 0
M  V30 2929 C 290.039 3.25494 4.07066 0
M  V30 2930 C 287.367 4.03553 4.25866 0
M  V30 2931 C 289.719 4.57531 4.36862 0
M  V30 2932 C 288.383 4.96828 4.45778 0
M  V30 2933 H 287.653 0.214377 0.709312 0
M  V30 2934 H 290.3 1.18544 1.50398 0
M  V30 2935 H 288.605 0.18996 3.91339 0
M  V30 2936 H 290.302 0.577442 3.96821 0
M  V30 2937 H 286.892 2.00008 3.79071 0
M  V30 2938 H 291.076 2.9619 3.98227 0
M  V30 2939 H 286.332 4.33665 4.30981 0
M  V30 2940 H 290.506 5.30254 4.51446 0
M  V30 2941 H 288.133 5.99482 4.67468 0
M  V30 2942 N 289.708 -1.40897 0.706093 0
M  V30 2943 C 290.955 -2.01054 0.241531 0
M  V30 2944 C 291.283 -1.55956 -1.16223 0
M  V30 2945 O 290.538 -0.766336 -1.80072 0
M  V30 2946 C 290.837 -3.5646 0.259099 0
M  V30 2947 C 290.503 -4.21106 1.61184 0
M  V30 2948 C 289.165 -4.38479 1.98216 0
M  V30 2949 C 291.517 -4.57256 2.50132 0
M  V30 2950 C 288.845 -4.89282 3.2376 0
M  V30 2951 C 291.197 -5.09454 3.7502 0
M  V30 2952 C 289.861 -5.25037 4.12181 0
M  V30 2953 H 289.131 -0.73571 0.0883825 0
M  V30 2954 H 291.778 -1.68645 0.907257 0
M  V30 2955 H 290.083 -3.88721 -0.490189 0
M  V30 2956 H 291.78 -4.00826 -0.11804 0
M  V30 2957 H 288.37 -4.07966 1.31384 0
M  V30 2958 H 292.554 -4.43479 2.228 0
M  V30 2959 H 287.81 -4.99531 3.52532 0
M  V30 2960 H 291.984 -5.36404 4.44121 0
M  V30 2961 H 289.611 -5.64164 5.09532 0
M  V30 2962 N 291.186 -0.45159 -1.50991 0
M  V30 2963 C 292.149 0.341117 -2.26647 0
M  V30 2964 C 293.149 0.937422 -1.30649 0
M  V30 2965 O 294.339 0.809644 -1.54241 0
M  V30 2966 C 291.471 1.48398 -3.06905 0
M  V30 2967 H 292.664 -0.322117 -2.98165 0
M  V30 2968 H 290.217 -0.205122 -1.54948 0
M  V30 2969 H 290.952 2.18284 -2.39838 0
M  V30 2970 H 290.737 1.06241 -3.77432 0
M  V30 2971 H 292.227 2.04367 -3.64176 0
M  V30 2972 N 292.664 1.56529 -0.183458 0
M  V30 2973 C 293.627 2.17324 0.728223 0
M  V30 2974 C 294.627 1.12453 1.14939 0
M  V30 2975 O 295.817 1.37902 1.06437 0
M  V30 2976 C 292.949 2.76591 1.99274 0
M  V30 2977 H 294.142 2.99241 0.198772 0
M  V30 2978 H 291.695 1.5616 0.0661391 0
M  V30 2979 H 292.43 1.98441 2.56499 0
M  V30 2980 H 292.215 3.5335 1.69959 0
M  V30 2981 H 293.705 3.23311 2.6431 0
M  V30 2982 N 294.142 -0.090211 1.57342 0
M  V30 2983 C 295.105 -1.09335 2.01441 0
M  V30 2984 C 296.105 -1.32666 0.908641 0
M  V30 2985 O 297.295 -1.28697 1.174 0
M  V30 2986 C 294.427 -2.44136 2.3793 0
M  V30 2987 H 295.62 -0.713662 2.91285 0
M  V30 2988 H 293.173 -0.335404 1.52659 0
M  V30 2989 H 293.908 -2.86972 1.51055 0
M  V30 2990 H 293.693 -2.28548 3.18603 0
M  V30 2991 H 295.183 -3.16277 2.72688 0
M  V30 2992 N 295.62 -1.53406 -0.361157 0
M  V30 2993 C 296.583 -1.79479 -1.42548 0
M  V30 2994 C 297.583 -0.665327 -1.4639 0
M  V30 2995 O 298.773 -0.933549 -1.47073 0
M  V30 2996 C 295.905 -1.92087 -2.8163 0
M  V30 2997 H 297.098 -2.74538 -1.20701 0
M  V30 2998 H 294.651 -1.4455 -0.594546 0
M  V30 2999 H 295.386 -0.991099 -3.08784 0
M  V30 3000 H 295.171 -2.74241 -2.80239 0
M  V30 3001 H 296.661 -2.13836 -3.58697 0
M  V30 3002 N 297.098 0.621204 -1.44841 0
M  V30 3003 C 298.061 1.71459 -1.521 0
M  V30 3004 C 299.061 1.55696 -0.401933 0
M  V30 3005 O 300.251 1.61011 -0.664925 0
M  V30 3006 C 297.383 3.10624 -1.40447 0
M  V30 3007 H 298.576 1.66394 -2.49506 0
M  V30 3008 H 296.129 0.835745 -1.3208 0
M  V30 3009 H 296.864 3.21277 -0.441737 0
M  V30 3010 H 296.649 3.23473 -2.21602 0
M  V30 3011 H 298.139 3.90293 -1.4853 0
M  V30 3012 N 298.576 1.31904 0.862503 0
M  V30 3013 C 299.987 1.19803 1.43193 0
M  V30 3014 C 300.338 -0.192567 1.95253 0
M  V30 3015 O 299.463 -1.09081 1.86896 0
M  V30 3016 C 300.058 2.16883 2.60283 0
M  V30 3017 C 298.617 2.08692 3.13248 0
M  V30 3018 C 297.764 2.05691 1.85975 0
M  V30 3019 H 300.715 1.43846 0.670365 0
M  V30 3020 H 300.736 1.76278 3.37204 0
M  V30 3021 H 300.248 3.18083 2.22363 0
M  V30 3022 H 298.349 1.10713 3.55771 0
M  V30 3023 H 298.462 2.9815 3.75025 0
M  V30 3024 H 296.826 1.50814 2.05249 0
M  V30 3025 H 297.609 3.08659 1.50282 0
M  V30 3026 N 300.054 -1.07777 1.14986 0
M  V30 3027 C 301.282 -1.84018 0.945773 0
M  V30 3028 C 301.697 -1.81897 -0.505863 0
M  V30 3029 O 301.054 -1.22726 -1.35072 0
M  V30 3030 C 301.105 -3.31287 1.44677 0
M  V30 3031 O 300.826 -3.33449 2.84154 0
M  V30 3032 C 302.327 -4.24311 1.28355 0
M  V30 3033 H 299.547 -0.580716 0.336169 0
M  V30 3034 H 302.091 -1.36077 1.52654 0
M  V30 3035 H 300.246 -3.76594 0.908625 0
M  V30 3036 H 300.66 -4.25427 3.06777 0
M  V30 3037 H 302.134 -5.2573 1.68261 0
M  V30 3038 H 302.611 -4.38612 0.227184 0
M  V30 3039 H 303.217 -3.84836 1.81056 0
M  V30 3040 N 301.532 -0.945985 -1.26051 0
M  V30 3041 C 302.76 -0.613025 -1.9761 0
M  V30 3042 C 303.175 0.813035 -1.70397 0
M  V30 3043 O 302.532 1.54274 -0.974979 0
M  V30 3044 C 302.583 -0.85159 -3.51326 0
M  V30 3045 O 302.304 -2.22157 -3.77595 0
M  V30 3046 C 303.805 -0.529831 -4.40122 0
M  V30 3047 H 301.025 -0.230593 -0.630133 0
M  V30 3048 H 303.569 -1.268 -1.60443 0
M  V30 3049 H 301.724 -0.243151 -3.86636 0
M  V30 3050 H 302.138 -2.2852 -4.721 0
M  V30 3051 H 303.612 -0.747348 -5.46917 0
M  V30 3052 H 304.089 0.535341 -4.35925 0
M  V30 3053 H 304.695 -1.11721 -4.10364 0
M  V30 3054 N 303.011 1.40521 -0.713556 0
M  V30 3055 C 304.257 2.01714 -0.261382 0
M  V30 3056 C 304.612 1.55562 1.13217 0
M  V30 3057 O 303.905 0.764893 1.7567 0
M  V30 3058 C 304.099 3.56317 -0.278 0
M  V30 3059 C 303.928 4.17476 -1.67163 0
M  V30 3060 C 302.698 4.50998 -2.2788 0
M  V30 3061 C 304.896 4.42472 -2.6215 0
M  V30 3062 N 302.878 4.9754 -3.5962 0
M  V30 3063 C 304.249 4.90985 -3.78594 0
M  V30 3064 C 306.304 4.24508 -2.60188 0
M  V30 3065 C 305.007 5.2342 -4.9338 0
M  V30 3066 C 307.033 4.58043 -3.741 0
M  V30 3067 C 306.395 5.06743 -4.89276 0
M  V30 3068 H 302.494 0.769104 -0.141434 0
M  V30 3069 H 305.078 1.70785 -0.934915 0
M  V30 3070 H 303.249 3.8668 0.36509 0
M  V30 3071 H 304.981 4.0425 0.190695 0
M  V30 3072 H 301.736 4.38062 -1.79997 0
M  V30 3073 H 302.16 5.25196 -4.27198 0
M  V30 3074 H 306.802 3.86078 -1.72348 0
M  V30 3075 H 304.52 5.60765 -5.81866 0
M  V30 3076 H 308.106 4.45785 -3.73854 0
M  V30 3077 H 306.986 5.32204 -5.75959 0
M  V30 3078 N 304.489 0.459591 1.5075 0
M  V30 3079 C 305.719 -0.0972338 2.06371 0
M  V30 3080 C 306.127 -1.35074 1.32483 0
M  V30 3081 O 305.47 -1.79637 0.384226 0
M  V30 3082 C 305.532 -0.462759 3.56509 0
M  V30 3083 C 305.196 0.687084 4.51805 0
M  V30 3084 C 306.193 1.56578 4.95761 0
M  V30 3085 C 303.878 0.874144 4.94635 0
M  V30 3086 C 305.872 2.61604 5.81242 0
M  V30 3087 C 303.559 1.92765 5.79901 0
M  V30 3088 C 304.557 2.79697 6.23104 0
M  V30 3089 O 304.245 3.83235 7.06673 0
M  V30 3090 H 303.977 -0.00140687 0.675999 0
M  V30 3091 H 306.531 0.644011 1.95043 0
M  V30 3092 H 304.761 -1.25703 3.65699 0
M  V30 3093 H 306.45 -0.953323 3.94546 0
M  V30 3094 H 307.216 1.4329 4.6335 0
M  V30 3095 H 303.095 0.207006 4.60535 0
M  V30 3096 H 306.639 3.29489 6.14884 0
M  V30 3097 H 302.536 2.06064 6.11725 0
M  V30 3098 H 303.304 3.80084 7.24899 0
M  V30 3099 N 305.967 -1.56429 0.191757 0
M  V30 3100 C 307.195 -2.01867 -0.453586 0
M  V30 3101 C 307.61 -1.07191 -1.5542 0
M  V30 3102 O 306.967 -0.0762108 -1.82341 0
M  V30 3103 C 307.018 -3.47017 -1.013 0
M  V30 3104 O 306.739 -4.38078 0.0437005 0
M  V30 3105 C 308.24 -4.07956 -1.73456 0
M  V30 3106 H 305.46 -0.661211 -0.114199 0
M  V30 3107 H 308.004 -2.02295 0.299483 0
M  V30 3108 H 306.159 -3.47298 -1.71647 0
M  V30 3109 H 306.573 -5.23178 -0.372212 0
M  V30 3110 H 308.047 -5.1138 -2.07833 0
M  V30 3111 H 308.524 -3.51222 -2.63704 0
M  V30 3112 H 309.13 -4.11437 -1.07702 0
M  V30 3113 N 307.445 0.0818655 -1.57387 0
M  V30 3114 C 308.722 0.815343 -1.77796 0
M  V30 3115 C 309.102 1.96289 -0.77679 0
M  V30 3116 O 308.45 2.27691 0.192106 0
M  V30 3117 C 308.66 1.29765 -3.23978 0
M  V30 3118 C 310.008 1.7351 -3.8753 0
M  V30 3119 O 311.032 1.39356 -3.27808 0
M  V30 3120 O 309.891 2.36708 -4.92576 0
M  V30 3121 H 306.985 0.389914 -0.729312 0
M  V30 3122 H 309.531 0.0627213 -1.69584 0
M  V30 3123 H 308.303 0.47608 -3.88393 0
M  V30 3124 H 307.926 2.11189 -3.36875 0
M  V30 3125 N 308.923 1.53595 0.353017 0
M  V30 3126 C 310.17 1.70385 1.09431 0
M  V30 3127 C 310.498 0.462113 1.88931 0
M  V30 3128 O 309.753 -0.556074 1.87633 0
M  V30 3129 C 310.052 2.91313 2.07054 0
M  V30 3130 C 309.718 4.27308 1.43939 0
M  V30 3131 C 308.38 4.64287 1.26454 0
M  V30 3132 C 310.732 5.11829 0.983883 0
M  V30 3133 C 308.06 5.83412 0.620226 0
M  V30 3134 C 310.412 6.31611 0.353516 0
M  V30 3135 C 309.076 6.67293 0.166272 0
M  V30 3136 H 308.346 0.623484 0.400436 0
M  V30 3137 H 310.993 1.87799 0.374655 0
M  V30 3138 H 309.298 2.68463 2.85368 0
M  V30 3139 H 310.995 3.01497 2.64387 0
M  V30 3140 H 307.585 3.98198 1.58543 0
M  V30 3141 H 311.769 4.838 1.10685 0
M  V30 3142 H 307.025 6.09639 0.463681 0
M  V30 3143 H 311.199 6.964 -0.00757555 0
M  V30 3144 H 308.826 7.59461 -0.335047 0
M  V30 3145 N 310.401 -0.613514 1.45168 0
M  V30 3146 C 311.817 -0.933629 1.29443 0
M  V30 3147 C 312.017 -2.00028 0.243101 0
M  V30 3148 O 311.073 -2.49848 -0.364992 0
M  V30 3149 C 312.386 -1.38018 2.67155 0
M  V30 3150 C 313.934 -1.49471 2.75004 0
M  V30 3151 C 314.409 -1.97503 4.13227 0
M  V30 3152 N 315.9 -2.04746 4.15491 0
M  V30 3153 C 316.635 -2.43121 5.19307 0
M  V30 3154 N 316.131 -2.80506 6.33473 0
M  V30 3155 N 317.924 -2.43408 5.06664 0
M  V30 3156 H 310.075 0.0916097 2.12202 0
M  V30 3157 H 312.338 -0.0216655 0.947752 0
M  V30 3158 H 312.044 -0.670625 3.45247 0
M  V30 3159 H 311.918 -2.34784 2.95222 0
M  V30 3160 H 314.305 -2.19519 1.9722 0
M  V30 3161 H 314.386 -0.510342 2.50657 0
M  V30 3162 H 314.03 -1.28045 4.91495 0
M  V30 3163 H 313.96 -2.96843 4.34962 0
M  V30 3164 H 316.451 -1.78468 3.33103 0
M  V30 3165 H 316.764 -3.08652 7.08487 0
M  V30 3166 H 315.109 -2.78216 6.36884 0
M  V30 3167 H 318.3 -2.13604 4.16523 0
M  V30 3168 H 318.473 -2.72989 5.87691 0
M  V30 3169 N 311.879 -1.3236 -0.855495 0
M  V30 3170 C 312.842 -1.21164 -1.94556 0
M  V30 3171 C 313.842 -0.134908 -1.60233 0
M  V30 3172 O 315.032 -0.385249 -1.69887 0
M  V30 3173 C 312.164 -0.863192 -3.29791 0
M  V30 3174 H 313.357 -2.18038 -2.05911 0
M  V30 3175 H 310.91 -1.16179 -1.04557 0
M  V30 3176 H 311.645 0.103769 -3.24134 0
M  V30 3177 H 311.43 -1.64166 -3.56078 0
M  V30 3178 H 312.92 -0.809156 -4.09686 0
M  V30 3179 N 313.357 1.07166 -1.15556 0
M  V30 3180 C 314.634 1.76546 -0.842069 0
M  V30 3181 C 315.014 2.00453 0.661939 0
M  V30 3182 O 314.362 1.62452 1.60691 0
M  V30 3183 C 314.572 3.07266 -1.65495 0
M  V30 3184 C 315.92 3.81578 -1.86234 0
M  V30 3185 O 316.944 3.17083 -1.62287 0
M  V30 3186 O 315.803 4.97419 -2.26355 0
M  V30 3187 H 312.897 0.766756 -0.309862 0
M  V30 3188 H 315.443 1.13514 -1.26145 0
M  V30 3189 H 314.215 2.85494 -2.67598 0
M  V30 3190 H 313.838 3.7803 -1.23203 0
M  V30 3191 N 314.835 0.952656 1.25548 0
M  V30 3192 C 316.084 0.602053 1.92505 0
M  V30 3193 C 316.397 -0.864663 1.75451 0
M  V30 3194 O 317.603 -1.32514 2.36965 0
M  V30 3195 C 316.059 1.02607 3.44963 0
M  V30 3196 C 315.667 2.51519 3.70732 0
M  V30 3197 C 317.411 0.747905 4.1786 0
M  V30 3198 C 315.318 2.87732 5.16686 0
M  V30 3199 H 314.248 0.22146 0.720744 0
M  V30 3200 H 316.899 1.15684 1.42441 0
M  V30 3201 H 315.281 0.399712 3.93978 0
M  V30 3202 H 316.455 3.19157 3.32378 0
M  V30 3203 H 314.77 2.76786 3.11092 0
M  V30 3204 H 317.367 0.994647 5.25367 0
M  V30 3205 H 317.71 -0.315629 4.15102 0
M  V30 3206 H 318.243 1.33452 3.74747 0
M  V30 3207 H 314.982 3.93095 5.24554 0
M  V30 3208 H 314.502 2.24765 5.56094 0
M  V30 3209 H 316.181 2.76817 5.84792 0
M  V30 3210 N 316.313 -1.40141 0.720998 0
M  V30 3211 C 317.724 -1.83678 0.334553 0
M  V30 3212 C 318.075 -1.6027 -1.13173 0
M  V30 3213 O 317.2 -1.08643 -1.87152 0
M  V30 3214 C 317.795 -3.33437 0.600437 0
M  V30 3215 C 316.354 -3.75447 0.267642 0
M  V30 3216 C 315.501 -2.63296 0.870097 0
M  V30 3217 H 318.452 -1.29331 0.919732 0
M  V30 3218 H 318.473 -3.80269 -0.132517 0
M  V30 3219 H 317.985 -3.50442 1.66768 0
M  V30 3220 H 316.086 -3.64035 -0.794329 0
M  V30 3221 H 316.199 -4.73344 0.74042 0
M  V30 3222 H 314.563 -2.52954 0.297739 0
M  V30 3223 H 315.346 -2.83112 1.94172 0
M  V30 3224 N 317.792 -0.46758 -1.50504 0
M  V30 3225 C 319.208 -0.121533 -1.59137 0
M  V30 3226 C 319.408 1.3717 -1.47603 0
M  V30 3227 O 318.464 2.14464 -1.33272 0
M  V30 3228 C 319.777 -0.6686 -2.93173 0
M  V30 3229 C 321.325 -0.631716 -3.06559 0
M  V30 3230 C 321.8 -1.15627 -4.43164 0
M  V30 3231 N 323.291 -1.11553 -4.49567 0
M  V30 3232 C 324.026 -1.49195 -5.5365 0
M  V30 3233 N 323.522 -1.94269 -6.65005 0
M  V30 3234 N 325.315 -1.4082 -5.44175 0
M  V30 3235 H 317.466 -1.4388 -1.56245 0
M  V30 3236 H 319.729 -0.594784 -0.738198 0
M  V30 3237 H 319.435 -1.71453 -3.07078 0
M  V30 3238 H 319.309 -0.11021 -3.77039 0
M  V30 3239 H 321.696 0.405297 -2.92304 0
M  V30 3240 H 321.777 -1.22687 -2.24458 0
M  V30 3241 H 321.421 -2.1919 -4.58168 0
M  V30 3242 H 321.351 -0.537365 -5.23851 0
M  V30 3243 H 323.842 -0.784895 -3.69659 0
M  V30 3244 H 324.155 -2.21148 -7.40482 0
M  V30 3245 H 322.5 -1.98219 -6.66134 0
M  V30 3246 H 325.691 -1.0545 -4.56068 0
M  V30 3247 H 325.864 -1.70481 -6.25172 0
M  V30 3248 N 319.27 1.56325 -0.20005 0
M  V30 3249 C 320.519 1.96895 0.437652 0
M  V30 3250 C 320.832 1.08999 1.62415 0
M  V30 3251 O 322.038 1.39372 2.32997 0
M  V30 3252 C 320.494 3.50198 0.830025 0
M  V30 3253 C 320.102 4.46765 -0.332461 0
M  V30 3254 C 321.846 3.99526 1.43453 0
M  V30 3255 C 319.753 5.91344 0.0811468 0
M  V30 3256 H 318.683 0.735209 0.167282 0
M  V30 3257 H 321.334 1.81148 -0.292853 0
M  V30 3258 H 319.716 3.61467 1.61734 0
M  V30 3259 H 320.89 4.47231 -1.11 0
M  V30 3260 H 319.205 4.07657 -0.848789 0
M  V30 3261 H 321.802 5.05025 1.75652 0
M  V30 3262 H 322.145 3.44122 2.34277 0
M  V30 3263 H 322.678 3.91393 0.71109 0
M  V30 3264 H 319.417 6.50685 -0.793033 0
M  V30 3265 H 318.937 5.94121 0.823445 0
M  V30 3266 H 320.616 6.44945 0.515252 0
M  V30 3267 N 320.748 -0.0735177 1.57428 0
M  V30 3268 C 322.025 -0.805903 1.78226 0
M  V30 3269 C 322.405 -1.95874 0.787189 0
M  V30 3270 O 321.753 -2.2779 -0.180029 0
M  V30 3271 C 321.963 -1.28045 3.24662 0
M  V30 3272 C 323.311 -1.71453 3.88444 0
M  V30 3273 O 324.335 -1.37616 3.28543 0
M  V30 3274 O 323.194 -2.34093 4.93825 0
M  V30 3275 H 320.288 -0.386041 0.73137 0
M  V30 3276 H 322.834 -0.0537269 1.69615 0
M  V30 3277 H 321.606 -0.455476 3.8864 0
M  V30 3278 H 321.229 -2.094 3.37991 0
M  V30 3279 N 322.226 -1.5378 -0.344866 0
M  V30 3280 C 323.472 -1.71216 -1.08687 0
M  V30 3281 C 323.805 -0.473281 -1.88345 0
M  V30 3282 O 323.08 0.52968 -1.87149 0
M  V30 3283 C 323.363 -2.97486 -2.02914 0
M  V30 3284 C 323.216 -4.31579 -1.26727 0
M  V30 3285 C 324.535 -3.19422 -3.0275 0
M  V30 3286 H 321.654 -0.62301 -0.393735 0
M  V30 3287 H 324.296 -1.8645 -0.365563 0
M  V30 3288 H 322.446 -2.84629 -2.64421 0
M  V30 3289 H 324.118 -4.56284 -0.67845 0
M  V30 3290 H 322.361 -4.30049 -0.569273 0
M  V30 3291 H 323.032 -5.16106 -1.95803 0
M  V30 3292 H 325.508 -3.316 -2.51357 0
M  V30 3293 H 324.384 -4.09169 -3.65885 0
M  V30 3294 H 324.645 -2.35656 -3.74057 0
M  V30 3295 N 323.704 0.605807 -1.45491 0
M  V30 3296 C 325.115 1.18777 -1.44045 0
M  V30 3297 C 325.466 1.95471 -0.169001 0
M  V30 3298 O 324.591 2.0374 0.729324 0
M  V30 3299 C 325.186 2.16064 -2.60963 0
M  V30 3300 C 323.745 2.69633 -2.62631 0
M  V30 3301 C 322.892 1.45072 -2.36325 0
M  V30 3302 H 325.843 0.395017 -1.53705 0
M  V30 3303 H 325.864 2.9913 -2.35163 0
M  V30 3304 H 325.376 1.60217 -3.53486 0
M  V30 3305 H 323.477 3.29414 -1.74119 0
M  V30 3306 H 323.59 3.13944 -3.61906 0
M  V30 3307 H 321.954 1.74089 -1.85917 0
M  V30 3308 H 322.737 0.910899 -3.30995 0
M  V30 3309 N 325.182 1.32811 0.848464 0
M  V30 3310 C 326.145 1.22194 1.9391 0
M  V30 3311 C 327.145 0.143404 1.60159 0
M  V30 3312 O 328.335 0.394253 1.6968 0
M  V30 3313 C 325.467 0.88067 3.29328 0
M  V30 3314 H 326.66 2.19127 2.04752 0
M  V30 3315 H 324.213 1.16731 1.0394 0
M  V30 3316 H 324.948 -0.0865776 3.24184 0
M  V30 3317 H 324.733 1.66052 3.55203 0
M  V30 3318 H 326.223 0.830871 4.09251 0
M  V30 3319 N 326.66 -1.06551 1.16123 0
M  V30 3320 C 327.59 -2.15935 0.88851 0
M  V30 3321 C 328.571 -1.69306 -0.164135 0
M  V30 3322 O 329.756 -1.94193 -0.0167857 0
M  V30 3323 C 326.886 -3.45149 0.385942 0
M  V30 3324 C 325.84 -4.05271 1.3762 0
M  V30 3325 C 325.166 -5.29664 0.732137 0
M  V30 3326 C 326.466 -4.44355 2.74493 0
M  V30 3327 H 328.16 -2.39006 1.80323 0
M  V30 3328 H 325.706 -1.14866 0.868435 0
M  V30 3329 H 327.659 -4.21004 0.182647 0
M  V30 3330 H 326.383 -3.21689 -0.564274 0
M  V30 3331 H 325.042 -3.3147 1.56599 0
M  V30 3332 H 324.69 -5.02499 -0.224483 0
M  V30 3333 H 324.39 -5.70848 1.39307 0
M  V30 3334 H 325.914 -6.08218 0.538802 0
M  V30 3335 H 327.328 -5.11303 2.59311 0
M  V30 3336 H 325.725 -4.96515 3.37035 0
M  V30 3337 H 326.795 -3.55339 3.29943 0
M  V30 3338 N 328.138 -0.959301 -1.25041 0
M  V30 3339 C 329.387 -0.612254 -1.92183 0
M  V30 3340 C 329.7 0.855347 -1.75907 0
M  V30 3341 O 330.906 1.31256 -2.37664 0
M  V30 3342 C 329.362 -1.04435 -3.44414 0
M  V30 3343 C 328.97 -2.53482 -3.69393 0
M  V30 3344 C 330.714 -0.770055 -4.17457 0
M  V30 3345 C 328.621 -2.90468 -5.15153 0
M  V30 3346 H 327.551 -0.225279 -0.719559 0
M  V30 3347 H 330.202 -1.16438 -1.41825 0
M  V30 3348 H 328.584 -0.4206 -3.9376 0
M  V30 3349 H 329.758 -3.20916 -3.30681 0
M  V30 3350 H 328.073 -2.78432 -3.0962 0
M  V30 3351 H 330.67 -1.02249 -5.24832 0
M  V30 3352 H 331.013 0.293611 -4.15263 0
M  V30 3353 H 331.546 -1.35437 -3.74034 0
M  V30 3354 H 328.285 -3.95871 -5.22462 0
M  V30 3355 H 327.805 -2.27711 -5.54894 0
M  V30 3356 H 329.484 -2.79914 -5.83315 0
M  V30 3357 N 329.616 1.39756 -0.72842 0
M  V30 3358 C 330.546 2.33289 -0.0991354 0
M  V30 3359 C 331.527 1.53568 0.731489 0
M  V30 3360 O 332.712 1.81987 0.677807 0
M  V30 3361 C 329.842 3.3763 0.813834 0
M  V30 3362 C 328.796 4.2791 0.0878663 0
M  V30 3363 C 328.122 5.22894 1.11741 0
M  V30 3364 C 329.422 5.11314 -1.06563 0
M  V30 3365 H 331.116 2.86163 -0.880408 0
M  V30 3366 H 328.662 1.37591 -0.424819 0
M  V30 3367 H 330.615 4.0201 1.26355 0
M  V30 3368 H 329.339 2.83181 1.62715 0
M  V30 3369 H 327.998 3.65 -0.342159 0
M  V30 3370 H 327.646 4.64744 1.92412 0
M  V30 3371 H 327.346 5.84143 0.636477 0
M  V30 3372 H 328.87 5.90151 1.56697 0
M  V30 3373 H 330.284 5.69076 -0.694671 0
M  V30 3374 H 328.681 5.81671 -1.47577 0
M  V30 3375 H 329.751 4.46534 -1.89038 0
M  V30 3376 N 331.094 0.475555 1.50254 0
M  V30 3377 C 332.044 -0.335025 2.25525 0
M  V30 3378 C 333.028 -0.957625 1.29299 0
M  V30 3379 O 334.22 -0.869436 1.54175 0
M  V30 3380 C 331.349 -1.41385 3.12834 0
M  V30 3381 C 330.435 -0.798762 4.1651 0
M  V30 3382 N 330.826 0.0835815 5.05731 0
M  V30 3383 C 329.124 -1.06221 4.33166 0
M  V30 3384 C 329.825 0.433113 5.80085 0
M  V30 3385 N 328.801 -0.1928 5.43258 0
M  V30 3386 H 332.603 0.344612 2.91873 0
M  V30 3387 H 330.117 0.289986 1.5979 0
M  V30 3388 H 332.114 -2.00777 3.65368 0
M  V30 3389 H 330.774 -2.09543 2.48036 0
M  V30 3390 H 331.785 0.452715 5.15918 0
M  V30 3391 H 328.462 -1.73844 3.79585 0
M  V30 3392 H 329.852 1.15346 6.61925 0
M  V30 3393 N 332.573 -1.56217 0.208337 0
M  V30 3394 C 333.821 -1.97558 -0.426076 0
M  V30 3395 C 334.142 -1.09683 -1.61229 0
M  V30 3396 O 333.412 -0.170956 -1.95153 0
M  V30 3397 H 331.992 -0.729575 -0.160405 0
M  V30 3398 H 334.654 -1.92606 0.298155 0
M  V30 3399 H 333.75 -3.02672 -0.761312 0
M  V30 3400 N 334.051 0.0651679 -1.57465 0
M  V30 3401 C 335.279 0.775808 -1.91804 0
M  V30 3402 C 335.694 1.70782 -0.804916 0
M  V30 3403 O 335.051 1.81153 0.221311 0
M  V30 3404 C 335.102 1.56381 -3.25925 0
M  V30 3405 O 334.823 0.669248 -4.32958 0
M  V30 3406 C 336.324 2.37485 -3.7432 0
M  V30 3407 H 333.544 0.2202 -0.63384 0
M  V30 3408 H 336.088 0.0334587 -2.04473 0
M  V30 3409 H 334.243 2.25837 -3.14764 0
M  V30 3410 H 334.657 1.21801 -5.10162 0
M  V30 3411 H 336.131 2.88223 -4.70778 0
M  V30 3412 H 336.608 3.17307 -3.03666 0
M  V30 3413 H 337.214 1.73173 -3.88447 0
M  V30 3414 N 335.529 1.53961 0.336706 0
M  V30 3415 C 336.777 1.71197 1.07405 0
M  V30 3416 C 337.098 0.481475 1.88962 0
M  V30 3417 O 336.368 -0.504585 1.8929 0
M  V30 3418 H 334.948 0.631185 0.399517 0
M  V30 3419 H 337.61 1.91232 0.376323 0
M  V30 3420 H 336.706 2.58587 1.74755 0
M  V30 3421 N 337.007 -0.598083 1.45811 0
M  V30 3422 C 338.284 -1.35777 1.40797 0
M  V30 3423 C 338.664 -2.10935 0.083462 0
M  V30 3424 O 338.012 -2.08505 -0.934763 0
M  V30 3425 C 338.222 -2.29666 2.62783 0
M  V30 3426 C 339.57 -2.91977 3.08277 0
M  V30 3427 O 340.594 -2.39984 2.63223 0
M  V30 3428 O 339.453 -3.86376 3.86491 0
M  V30 3429 H 336.547 -0.609291 0.55919 0
M  V30 3430 H 339.093 -0.620379 1.57954 0
M  V30 3431 H 337.865 -1.73454 3.50756 0
M  V30 3432 H 337.488 -3.1077 2.48008 0
M  V30 3433 N 338.485 -1.33259 -0.841409 0
M  V30 3434 C 339.901 -1.12538 -1.13169 0
M  V30 3435 C 340.101 0.0854037 -2.01319 0
M  V30 3436 O 339.157 0.766417 -2.40587 0
M  V30 3437 C 340.47 -2.41156 -1.79623 0
M  V30 3438 C 342.018 -2.47038 -1.922 0
M  V30 3439 C 342.493 -3.7561 -2.6207 0
M  V30 3440 N 343.984 -3.76667 -2.69585 0
M  V30 3441 C 344.719 -4.72861 -3.2433 0
M  V30 3442 N 344.215 -5.79428 -3.79783 0
M  V30 3443 N 346.008 -4.6034 -3.22558 0
M  V30 3444 H 338.159 -2.10868 -0.254676 0
M  V30 3445 H 340.422 -0.931615 -0.175493 0
M  V30 3446 H 340.128 -3.29747 -1.22311 0
M  V30 3447 H 340.002 -2.53114 -2.79666 0
M  V30 3448 H 342.389 -1.58898 -2.48667 0
M  V30 3449 H 342.47 -2.39022 -0.911148 0
M  V30 3450 H 342.114 -4.64131 -2.06263 0
M  V30 3451 H 342.044 -3.80902 -3.63622 0
M  V30 3452 H 344.535 -2.99648 -2.30259 0
M  V30 3453 H 344.848 -6.48867 -4.19752 0
M  V30 3454 H 343.193 -5.83166 -3.78078 0
M  V30 3455 H 346.384 -3.76244 -2.78492 0
M  V30 3456 H 346.557 -5.35478 -3.64921 0
M  V30 3457 N 339.963 1.05934 -1.16686 0
M  V30 3458 C 341.191 1.8249 -0.974929 0
M  V30 3459 C 341.606 1.82679 0.476861 0
M  V30 3460 O 340.963 1.2486 1.33103 0
M  V30 3461 C 341.014 3.28943 -1.49929 0
M  V30 3462 O 340.735 3.28886 -2.89423 0
M  V30 3463 C 342.236 4.22215 -1.35089 0
M  V30 3464 H 339.456 0.575295 -0.345365 0
M  V30 3465 H 342 1.33631 -1.548 0
M  V30 3466 H 340.155 3.751 -0.968423 0
M  V30 3467 H 340.569 4.20493 -3.13506 0
M  V30 3468 H 342.043 5.22987 -1.76603 0
M  V30 3469 H 342.52 4.38195 -0.296935 0
M  V30 3470 H 343.126 3.81907 -1.87155 0
M  V30 3471 N 341.441 0.965919 1.2453 0
M  V30 3472 C 342.371 0.513476 2.27784 0
M  V30 3473 C 343.352 -0.445974 1.6415 0
M  V30 3474 O 344.537 -0.342485 1.91156 0
M  V30 3475 C 341.667 -0.198839 3.4673 0
M  V30 3476 C 340.621 0.676456 4.2262 0
M  V30 3477 C 339.947 -0.167248 5.34438 0
M  V30 3478 C 341.247 1.96017 4.84123 0
M  V30 3479 H 342.941 1.3765 2.65881 0
M  V30 3480 H 340.487 0.663321 1.27813 0
M  V30 3481 H 342.44 -0.526567 4.18097 0
M  V30 3482 H 341.164 -1.0962 3.07654 0
M  V30 3483 H 339.823 0.98743 3.53052 0
M  V30 3484 H 339.471 -1.0647 4.91603 0
M  V30 3485 H 339.171 0.415181 5.86131 0
M  V30 3486 H 340.695 -0.489688 6.08633 0
M  V30 3487 H 342.109 1.69814 5.47573 0
M  V30 3488 H 340.506 2.48918 5.4604 0
M  V30 3489 H 341.576 2.65622 4.05676 0
M  V30 3490 N 342.919 -1.39368 0.735821 0
M  V30 3491 C 344.33 -1.83313 0.354015 0
M  V30 3492 C 344.681 -1.61461 -1.11466 0
M  V30 3493 O 343.806 -1.10621 -1.85989 0
M  V30 3494 C 344.401 -3.32781 0.635769 0
M  V30 3495 C 342.96 -3.75142 0.307448 0
M  V30 3496 C 342.107 -2.62358 0.897974 0
M  V30 3497 H 345.058 -1.28349 0.933398 0
M  V30 3498 H 345.079 -3.80388 -0.0921773 0
M  V30 3499 H 344.591 -3.48654 1.70476 0
M  V30 3500 H 342.692 -3.64857 -0.755674 0
M  V30 3501 H 342.805 -4.72532 0.790583 0
M  V30 3502 H 341.169 -2.52624 0.324551 0
M  V30 3503 H 341.952 -2.81036 1.97164 0
M  V30 3504 N 344.397 -0.483516 -1.5 0
M  V30 3505 C 345.646 0.0689102 -2.01582 0
M  V30 3506 C 345.959 1.39655 -1.36952 0
M  V30 3507 O 347.165 2.03465 -1.79762 0
M  V30 3508 C 345.621 0.173302 -3.59483 0
M  V30 3509 C 345.229 -1.14665 -4.33077 0
M  V30 3510 C 346.973 0.677024 -4.19066 0
M  V30 3511 C 344.88 -1.00537 -5.82792 0
M  V30 3512 H 343.81 0.0295277 -0.753422 0
M  V30 3513 H 346.461 -0.620295 -1.72698 0
M  V30 3514 H 344.843 0.926569 -3.85007 0
M  V30 3515 H 346.017 -1.91184 -4.19268 0
M  V30 3516 H 344.332 -1.58244 -3.85159 0
M  V30 3517 H 346.929 0.799952 -5.28682 0
M  V30 3518 H 347.272 1.67151 -3.81269 0
M  V30 3519 H 347.805 -0.0192083 -3.97795 0
M  V30 3520 H 344.544 -1.9736 -6.25083 0
M  V30 3521 H 344.064 -0.280776 -5.99142 0
M  V30 3522 H 345.743 -0.677 -6.43448 0
M  V30 3523 N 345.875 1.56104 -0.216619 0
M  V30 3524 C 346.785 2.23694 0.706982 0
M  V30 3525 C 347.801 1.24295 1.21765 0
M  V30 3526 O 348.977 1.57094 1.2603 0
M  V30 3527 C 346.042 2.8998 1.90033 0
M  V30 3528 C 345.103 4.04708 1.43213 0
M  V30 3529 C 344.336 4.67824 2.56859 0
M  V30 3530 O 344.559 4.29913 3.74874 0
M  V30 3531 O 343.493 5.56905 2.28343 0
M  V30 3532 H 347.319 3.03272 0.161235 0
M  V30 3533 H 344.904 1.49394 0.0136177 0
M  V30 3534 H 346.786 3.31837 2.59735 0
M  V30 3535 H 345.461 2.13365 2.43428 0
M  V30 3536 H 344.368 3.6743 0.70327 0
M  V30 3537 H 345.701 4.83051 0.944615 0
M  V30 3538 N 347.353 -0.0568162 1.57498 0
M  V30 3539 C 348.301 -1.08452 2.05769 0
M  V30 3540 C 349.295 -1.39164 0.965903 0
M  V30 3541 O 350.501 -1.38395 1.15095 0
M  V30 3542 H 346.876 -0.367148 0.656282 0
M  V30 3543 H 348.847 -0.651368 2.91204 0
M  V30 3544 C 347.596 -2.38543 2.52968 0
M  V30 3545 H 346.919 -2.15765 3.36579 0
M  V30 3546 H 348.359 -3.08863 2.90481 0
M  V30 3547 C 346.818 -3.05562 1.41893 0
M  V30 3548 O 347.348 -3.94262 0.769442 0
M  V30 3549 N 345.554 -2.6643 1.16032 0
M  V30 3550 H 345.101 -1.94387 1.6903 0
M  V30 3551 H 345.059 -3.11593 0.419219 0
M  V30 3552 N 348.832 -1.54138 -0.328536 0
M  V30 3553 C 350.06 -1.76062 -1.08673 0
M  V30 3554 C 350.475 -0.506852 -1.81869 0
M  V30 3555 O 349.832 0.522223 -1.74869 0
M  V30 3556 C 349.883 -2.95054 -2.08866 0
M  V30 3557 O 349.604 -4.15583 -1.38644 0
M  V30 3558 C 351.105 -3.2915 -2.96943 0
M  V30 3559 H 348.325 -0.587889 -0.323461 0
M  V30 3560 H 350.869 -2.0101 -0.376175 0
M  V30 3561 H 349.024 -2.72394 -2.75464 0
M  V30 3562 H 349.438 -4.82481 -2.05699 0
M  V30 3563 H 350.912 -4.15723 -3.63151 0
M  V30 3564 H 351.389 -2.461 -3.63774 0
M  V30 3565 H 351.995 -3.53871 -2.35914 0
M  V30 3566 N 350.31 0.590341 -1.46126 0
M  V30 3567 C 351.273 1.68194 -1.55703 0
M  V30 3568 C 352.273 1.54808 -0.434868 0
M  V30 3569 O 353.463 1.59564 -0.698928 0
M  V30 3570 C 350.595 3.07575 -1.47005 0
M  V30 3571 H 351.788 1.61064 -2.52979 0
M  V30 3572 H 349.341 0.807541 -1.33823 0
M  V30 3573 H 350.076 3.20268 -0.509785 0
M  V30 3574 H 349.861 3.187 -2.28414 0
M  V30 3575 H 351.351 3.87055 -1.56776 0
M  V30 3576 N 351.788 1.33704 0.83433 0
M  V30 3577 C 353.204 1.13137 1.12571 0
M  V30 3578 C 353.404 -0.0747261 2.01361 0
M  V30 3579 O 352.46 -0.753647 2.4099 0
M  V30 3580 C 353.773 2.42105 1.78342 0
M  V30 3581 C 355.321 2.48054 1.90888 0
M  V30 3582 C 355.796 3.76995 2.60075 0
M  V30 3583 N 357.287 3.78092 2.67584 0
M  V30 3584 C 358.022 4.74574 3.21818 0
M  V30 3585 N 357.518 5.81434 3.76705 0
M  V30 3586 N 359.311 4.62044 3.20112 0
M  V30 3587 H 351.462 2.11 0.243489 0
M  V30 3588 H 353.725 0.932532 0.17055 0
M  V30 3589 H 353.431 3.30391 1.20561 0
M  V30 3590 H 353.305 2.54594 2.7832 0
M  V30 3591 H 355.692 1.60215 2.47821 0
M  V30 3592 H 355.773 2.39502 0.898459 0
M  V30 3593 H 355.417 4.65219 2.03799 0
M  V30 3594 H 355.347 3.82825 3.61597 0
M  V30 3595 H 357.838 3.00865 2.28667 0
M  V30 3596 H 358.151 6.51084 4.16305 0
M  V30 3597 H 356.496 5.85163 3.7498 0
M  V30 3598 H 359.687 3.77716 2.76493 0
M  V30 3599 H 359.86 5.37406 3.62076 0
M  V30 3600 N 353.266 -1.05314 1.17247 0
M  V30 3601 C 354.512 -1.78557 0.961513 0
M  V30 3602 C 354.845 -1.87419 -0.508697 0
M  V30 3603 O 354.12 -1.37307 -1.37757 0
M  V30 3604 C 354.403 -3.22514 1.60176 0
M  V30 3605 C 354.256 -3.21673 3.14399 0
M  V30 3606 C 355.575 -4.20318 1.30463 0
M  V30 3607 H 352.694 -0.6482 0.350723 0
M  V30 3608 H 355.336 -1.23102 1.44727 0
M  V30 3609 H 353.486 -3.69867 1.18871 0
M  V30 3610 H 355.158 -2.82405 3.64753 0
M  V30 3611 H 353.401 -2.60048 3.47214 0
M  V30 3612 H 354.072 -4.23271 3.54324 0
M  V30 3613 H 356.548 -3.81454 1.66229 0
M  V30 3614 H 355.424 -5.19289 1.77848 0
M  V30 3615 H 355.685 -4.41526 0.22521 0
M  V30 3616 N 354.744 -0.972509 -1.24016 0
M  V30 3617 C 355.991 -0.637034 -1.92219 0
M  V30 3618 C 356.319 0.828418 -1.75976 0
M  V30 3619 O 355.574 1.61206 -1.10955 0
M  V30 3620 C 355.873 -0.963694 -3.44162 0
M  V30 3621 C 355.539 -2.41807 -3.80579 0
M  V30 3622 C 354.201 -2.81556 -3.9023 0
M  V30 3623 C 356.553 -3.36172 -3.98293 0
M  V30 3624 C 353.881 -4.14702 -4.15017 0
M  V30 3625 C 356.233 -4.68952 -4.24578 0
M  V30 3626 C 354.897 -5.08472 -4.32449 0
M  V30 3627 H 354.167 -0.233107 -0.703379 0
M  V30 3628 H 356.814 -1.2249 -1.47202 0
M  V30 3629 H 355.119 -0.29365 -3.90698 0
M  V30 3630 H 356.816 -0.682449 -3.9515 0
M  V30 3631 H 353.406 -2.09988 -3.73635 0
M  V30 3632 H 357.59 -3.06644 -3.90234 0
M  V30 3633 H 352.846 -4.4494 -4.19331 0
M  V30 3634 H 357.02 -5.42037 -4.37229 0
M  V30 3635 H 354.647 -6.11665 -4.51409 0
M  V30 3636 N 356.222 1.38976 -0.743202 0
M  V30 3637 C 357.172 2.27843 -0.084513 0
M  V30 3638 C 358.156 1.44677 0.704094 0
M  V30 3639 O 359.348 1.67511 0.571755 0
M  V30 3640 C 356.477 3.33466 0.815781 0
M  V30 3641 C 355.563 4.24095 0.0208844 0
M  V30 3642 N 355.954 4.95609 -1.0102 0
M  V30 3643 C 354.252 4.45303 0.249293 0
M  V30 3644 C 354.953 5.62287 -1.49024 0
M  V30 3645 N 353.929 5.37571 -0.807377 0
M  V30 3646 H 357.731 2.80593 -0.87436 0
M  V30 3647 H 355.245 1.51755 -0.578283 0
M  V30 3648 H 357.242 3.96008 1.30321 0
M  V30 3649 H 355.902 2.82276 1.6047 0
M  V30 3650 H 356.913 4.98849 -1.39176 0
M  V30 3651 H 353.59 4.0504 1.01237 0
M  V30 3652 H 354.98 6.29519 -2.34853 0
M  V30 3653 N 357.7 0.491464 1.49741 0
M  V30 3654 C 358.647 -0.292027 2.28945 0
M  V30 3655 C 359.617 -0.968973 1.34908 0
M  V30 3656 O 360.802 -0.97748 1.6386 0
M  V30 3657 C 357.942 -1.35617 3.17336 0
M  V30 3658 C 357.055 -0.691957 4.26422 0
M  V30 3659 C 356.19 -1.73572 5.02042 0
M  V30 3660 C 355.229 -1.05286 6.02977 0
M  V30 3661 N 354.366 -2.0404 6.71798 0
M  V30 3662 H 359.206 0.389654 2.95442 0
M  V30 3663 H 356.743 0.204003 1.45679 0
M  V30 3664 H 358.701 -1.98502 3.66951 0
M  V30 3665 H 357.331 -2.00674 2.52844 0
M  V30 3666 H 356.383 0.0499523 3.80367 0
M  V30 3667 H 357.695 -0.153946 4.98562 0
M  V30 3668 H 356.849 -2.43987 5.55478 0
M  V30 3669 H 355.588 -2.30757 4.29654 0
M  V30 3670 H 354.593 -0.334446 5.48782 0
M  V30 3671 H 355.818 -0.487636 6.77347 0
M  V30 3672 H 353.764 -2.60205 6.02187 0
M  V30 3673 H 353.681 -1.55279 7.39881 0
M  V30 3674 H 354.949 -2.73772 7.29842 0
M  V30 3675 N 359.178 -1.55987 0.224894 0
M  V30 3676 C 360.141 -2.19178 -0.670348 0
M  V30 3677 C 361.141 -1.15461 -1.11917 0
M  V30 3678 O 362.331 -1.40675 -1.02743 0
M  V30 3679 C 359.463 -2.81777 -1.9187 0
M  V30 3680 H 360.656 -2.99662 -0.119364 0
M  V30 3681 H 358.209 -1.5628 -0.0247128 0
M  V30 3682 H 358.944 -2.05172 -2.51147 0
M  V30 3683 H 358.729 -3.57732 -1.60531 0
M  V30 3684 H 360.219 -3.30205 -2.55645 0
M  V30 3685 N 360.656 0.0484629 -1.57525 0
M  V30 3686 C 361.586 1.0549 -2.08313 0
M  V30 3687 C 362.567 1.38929 -0.981463 0
M  V30 3688 O 363.752 1.48151 -1.25558 0
M  V30 3689 C 360.882 2.36162 -2.54646 0
M  V30 3690 C 359.836 2.17016 -3.68901 0
M  V30 3691 C 359.162 3.53278 -4.01371 0
M  V30 3692 C 360.462 1.57219 -4.98076 0
M  V30 3693 H 362.156 0.632195 -2.92649 0
M  V30 3694 H 359.702 0.302654 -1.40784 0
M  V30 3695 H 361.655 3.06882 -2.88793 0
M  V30 3696 H 360.379 2.80456 -1.67368 0
M  V30 3697 H 359.038 1.48733 -3.35073 0
M  V30 3698 H 358.686 3.95185 -3.11188 0
M  V30 3699 H 358.386 3.41299 -4.78318 0
M  V30 3700 H 359.91 4.25391 -4.38035 0
M  V30 3701 H 361.324 2.17832 -5.30304 0
M  V30 3702 H 359.721 1.55871 -5.79503 0
M  V30 3703 H 360.791 0.535956 -4.81929 0
M  V30 3704 N 362.134 1.5431 0.320358 0
M  V30 3705 C 363.545 1.63872 0.894594 0
M  V30 3706 C 363.896 0.534847 1.88769 0
M  V30 3707 O 363.021 -0.331732 2.13842 0
M  V30 3708 C 363.616 2.97049 1.62934 0
M  V30 3709 C 362.175 3.08796 2.15226 0
M  V30 3710 C 361.322 2.59456 0.978671 0
M  V30 3711 H 364.273 1.58398 0.0978544 0
M  V30 3712 H 364.294 2.87388 2.49376 0
M  V30 3713 H 363.806 3.7737 0.906302 0
M  V30 3714 H 361.907 2.33156 2.90636 0
M  V30 3715 H 362.02 4.14649 2.40006 0
M  V30 3716 H 360.384 2.1543 1.35875 0
M  V30 3717 H 361.167 3.42237 0.269895 0
M  V30 3718 N 363.613 -0.582584 1.46437 0
M  V30 3719 C 364.838 -1.37168 1.55563 0
M  V30 3720 C 365.263 -1.87061 0.19743 0
M  V30 3721 O 364.621 -1.61572 -0.822451 0
M  V30 3722 C 364.669 -2.53511 2.56446 0
M  V30 3723 O 363.773 -3.54953 2.09958 0
M  V30 3724 H 363.114 -0.408494 0.523477 0
M  V30 3725 H 365.644 -0.706646 1.9201 0
M  V30 3726 H 365.654 -3.00426 2.76058 0
M  V30 3727 H 364.329 -2.16549 3.55076 0
M  V30 3728 H 362.906 -3.14516 2.00334 0
M  V30 3729 N 365.091 -1.34144 -0.827227 0
M  V30 3730 C 366.054 -1.25264 -1.91942 0
M  V30 3731 C 367.054 -0.168866 -1.59911 0
M  V30 3732 O 368.244 -0.421198 -1.69031 0
M  V30 3733 C 365.376 -0.932952 -3.27885 0
M  V30 3734 H 366.569 -2.22357 -2.0124 0
M  V30 3735 H 364.122 -1.1837 -1.0207 0
M  V30 3736 H 364.857 0.0349917 -3.24281 0
M  V30 3737 H 364.642 -1.71682 -3.52516 0
M  V30 3738 H 366.132 -0.895874 -4.07877 0
M  V30 3739 N 366.569 1.04691 -1.17803 0
M  V30 3740 C 367.479 2.16057 -0.914151 0
M  V30 3741 C 368.495 1.73589 0.119503 0
M  V30 3742 O 369.671 2.01308 -0.0609468 0
M  V30 3743 C 366.736 3.4394 -0.436603 0
M  V30 3744 C 365.797 4.00825 -1.53746 0
M  V30 3745 C 365.03 5.22604 -1.0826 0
M  V30 3746 O 365.253 5.70367 0.0612244 0
M  V30 3747 O 364.187 5.7186 -1.87775 0
M  V30 3748 H 368.013 2.41169 -1.84584 0
M  V30 3749 H 365.598 1.1453 -0.959334 0
M  V30 3750 H 367.48 4.21024 -0.178057 0
M  V30 3751 H 366.155 3.20316 0.466869 0
M  V30 3752 H 365.062 3.25158 -1.84995 0
M  V30 3753 H 366.395 4.28778 -2.41683 0
M  V30 3754 N 368.047 0.979072 1.23499 0
M  V30 3755 C 369.277 0.664237 1.95631 0
M  V30 3756 C 369.685 -0.772653 1.72704 0
M  V30 3757 O 369.028 -1.53141 1.01457 0
M  V30 3758 C 369.09 0.873115 3.48736 0
M  V30 3759 C 368.754 2.29182 3.95379 0
M  V30 3760 C 369.751 3.2704 4.04155 0
M  V30 3761 C 367.436 2.62256 4.28401 0
M  V30 3762 C 369.43 4.56052 4.45304 0
M  V30 3763 C 367.117 3.91491 4.69231 0
M  V30 3764 C 368.115 4.88201 4.77649 0
M  V30 3765 O 367.803 6.15129 5.17563 0
M  V30 3766 H 367.535 0.245915 0.629684 0
M  V30 3767 H 370.089 1.3127 1.57979 0
M  V30 3768 H 368.319 0.167476 3.86337 0
M  V30 3769 H 370.008 0.555642 4.02079 0
M  V30 3770 H 370.774 3.02819 3.78848 0
M  V30 3771 H 366.653 1.87692 4.21061 0
M  V30 3772 H 370.197 5.31538 4.51789 0
M  V30 3773 H 366.094 4.15508 4.93987 0
M  V30 3774 H 366.862 6.18862 5.35679 0
M  V30 3775 N 369.525 -1.3858 0.750561 0
M  V30 3776 C 370.771 -2.00481 0.305825 0
M  V30 3777 C 371.104 -1.5944 -1.10872 0
M  V30 3778 O 370.379 -0.83052 -1.75877 0
M  V30 3779 C 370.662 -3.5758 0.425287 0
M  V30 3780 C 370.515 -4.08594 1.88072 0
M  V30 3781 C 371.834 -4.39719 -0.183122 0
M  V30 3782 H 368.953 -0.728348 0.112598 0
M  V30 3783 H 371.595 -1.64566 0.949638 0
M  V30 3784 H 369.745 -3.88306 -0.122828 0
M  V30 3785 H 371.417 -3.88523 2.48691 0
M  V30 3786 H 369.66 -3.61574 2.39681 0
M  V30 3787 H 370.331 -5.177 1.91548 0
M  V30 3788 H 372.807 -4.15128 0.284303 0
M  V30 3789 H 371.683 -5.48856 -0.0692757 0
M  V30 3790 H 371.944 -4.23434 -1.27106 0
M  V30 3791 N 371.003 -0.499398 -1.49478 0
M  V30 3792 C 371.913 0.284489 -2.32869 0
M  V30 3793 C 372.929 0.968885 -1.44529 0
M  V30 3794 O 374.105 0.95062 -1.77553 0
M  V30 3795 C 371.17 1.33594 -3.19928 0
M  V30 3796 C 370.231 0.665149 -4.24116 0
M  V30 3797 C 369.464 1.6665 -5.07014 0
M  V30 3798 O 369.687 2.89618 -4.91404 0
M  V30 3799 O 368.621 1.22271 -5.8935 0
M  V30 3800 H 372.447 -0.39802 -3.01081 0
M  V30 3801 H 370.032 -0.260758 -1.47107 0
M  V30 3802 H 371.914 1.94431 -3.73864 0
M  V30 3803 H 370.589 2.0014 -2.54412 0
M  V30 3804 H 369.496 0.0170769 -3.74096 0
M  V30 3805 H 370.829 0.0421555 -4.92182 0
M  V30 3806 N 372.481 1.55866 -0.233164 0
M  V30 3807 C 373.727 1.98897 0.395959 0
M  V30 3808 C 374.06 1.12091 1.58585 0
M  V30 3809 O 373.335 0.181182 1.93654 0
M  V30 3810 C 373.618 3.50658 0.819224 0
M  V30 3811 C 373.471 4.48233 -0.375109 0
M  V30 3812 C 374.79 4.07135 1.67121 0
M  V30 3813 H 371.909 0.723102 0.142451 0
M  V30 3814 H 374.551 1.87082 -0.331725 0
M  V30 3815 H 372.701 3.60857 1.43925 0
M  V30 3816 H 374.373 4.50031 -1.01341 0
M  V30 3817 H 372.616 4.21624 -1.02058 0
M  V30 3818 H 373.287 5.51988 -0.0358328 0
M  V30 3819 H 375.763 3.99952 1.14795 0
M  V30 3820 H 374.639 5.13615 1.93625 0
M  V30 3821 H 374.9 3.54736 2.63846 0
M  V30 3822 N 373.959 -0.0401083 1.57549 0
M  V30 3823 C 374.869 -1.06133 2.0922 0
M  V30 3824 C 375.885 -1.40356 1.0284 0
M  V30 3825 O 377.061 -1.49897 1.34509 0
M  V30 3826 C 374.126 -2.34658 2.55218 0
M  V30 3827 C 373.187 -2.07117 3.76033 0
M  V30 3828 C 372.42 -3.29514 4.19829 0
M  V30 3829 O 372.643 -4.39794 3.63232 0
M  V30 3830 O 371.577 -3.15863 5.12362 0
M  V30 3831 H 375.403 -0.652244 2.96613 0
M  V30 3832 H 372.988 -0.256368 1.47184 0
M  V30 3833 H 374.87 -3.10239 2.85184 0
M  V30 3834 H 373.545 -2.74883 1.70941 0
M  V30 3835 H 372.452 -1.29139 3.51104 0
M  V30 3836 H 373.785 -1.71754 4.61261 0
M  V30 3837 N 375.437 -1.54477 -0.31217 0
M  V30 3838 C 376.685 -1.72884 -1.04668 0
M  V30 3839 C 377.006 -0.511477 -1.88173 0
M  V30 3840 O 376.276 0.474407 -1.90069 0
M  V30 3841 H 374.856 -0.637461 -0.389425 0
M  V30 3842 H 377.518 -1.91807 -0.345852 0
M  V30 3843 H 376.614 -2.61334 -1.70619 0
M  V30 3844 N 376.915 0.57481 -1.46744 0
M  V30 3845 C 377.878 1.66533 -1.57478 0
M  V30 3846 C 378.878 1.54338 -0.451263 0
M  V30 3847 O 380.068 1.58814 -0.715813 0
M  V30 3848 C 377.2 3.05999 -1.50259 0
M  V30 3849 H 378.393 1.58372 -2.54673 0
M  V30 3850 H 375.946 0.793301 -1.34672 0
M  V30 3851 H 376.681 3.19709 -0.543725 0
M  V30 3852 H 376.466 3.16259 -2.31781 0
M  V30 3853 H 377.956 3.8537 -1.60872 0
M  V30 3854 N 378.394 1.34581 0.820102 0
M  V30 3855 C 379.805 1.24298 1.39309 0
M  V30 3856 C 380.156 -0.130351 1.95767 0
M  V30 3857 O 379.281 -1.0308 1.90272 0
M  V30 3858 C 379.876 2.25054 2.53251 0
M  V30 3859 C 378.435 2.18552 3.0645 0
M  V30 3860 C 377.582 2.11503 1.79337 0
M  V30 3861 H 380.533 1.45906 0.624262 0
M  V30 3862 H 380.554 1.86917 3.31425 0
M  V30 3863 H 380.066 3.24996 2.1213 0
M  V30 3864 H 378.167 1.21976 3.52069 0
M  V30 3865 H 378.28 3.0993 3.65349 0
M  V30 3866 H 376.644 1.57268 2.00347 0
M  V30 3867 H 377.427 3.13284 1.40386 0
M  V30 3868 N 379.872 -1.04064 1.18357 0
M  V30 3869 C 380.822 -2.10393 0.878561 0
M  V30 3870 C 381.806 -1.60183 -0.151713 0
M  V30 3871 O 382.998 -1.76923 0.0523303 0
M  V30 3872 C 380.127 -3.4089 0.406096 0
M  V30 3873 C 379.213 -3.97866 1.46844 0
M  V30 3874 N 379.604 -4.28657 2.68489 0
M  V30 3875 C 377.902 -4.2574 1.32896 0
M  V30 3876 C 378.603 -4.74253 3.36836 0
M  V30 3877 N 377.579 -4.75068 2.64219 0
M  V30 3878 H 381.381 -2.32076 1.80327 0
M  V30 3879 H 378.895 -1.21818 1.07397 0
M  V30 3880 H 380.892 -4.16557 0.169088 0
M  V30 3881 H 379.552 -3.20633 -0.512275 0
M  V30 3882 H 380.563 -4.18304 3.05356 0
M  V30 3883 H 377.24 -4.1481 0.473134 0
M  V30 3884 H 378.63 -5.07096 4.40798 0
M  V30 3885 N 381.35 -0.985608 -1.22978 0
M  V30 3886 C 382.598 -0.656087 -1.91154 0
M  V30 3887 C 382.919 0.813561 -1.77218 0
M  V30 3888 O 382.189 1.58244 -1.1548 0
M  V30 3889 H 380.769 -0.239674 -0.707506 0
M  V30 3890 H 383.431 -1.25054 -1.49491 0
M  V30 3891 H 382.527 -0.912253 -2.9847 0
M  V30 3892 N 382.828 1.3818 -0.7579 0
M  V30 3893 C 383.758 2.33027 -0.148597 0
M  V30 3894 C 384.739 1.55085 0.69875 0
M  V30 3895 O 385.924 1.83384 0.639053 0
M  V30 3896 C 383.054 3.3928 0.742034 0
M  V30 3897 C 382.008 4.28 -0.00291946 0
M  V30 3898 C 381.334 5.25146 1.00625 0
M  V30 3899 C 382.634 5.08938 -1.17385 0
M  V30 3900 H 384.328 2.84231 -0.940909 0
M  V30 3901 H 381.874 1.36659 -0.453908 0
M  V30 3902 H 383.827 4.046 1.17799 0
M  V30 3903 H 382.551 2.86569 1.56671 0
M  V30 3904 H 381.21 3.64192 -0.419504 0
M  V30 3905 H 380.858 4.68721 1.8251 0
M  V30 3906 H 380.558 5.85361 0.512428 0
M  V30 3907 H 382.082 5.93342 1.44143 0
M  V30 3908 H 383.496 5.67474 -0.815224 0
M  V30 3909 H 381.893 5.7841 -1.59882 0
M  V30 3910 H 382.963 4.42424 -1.98468 0
M  V30 3911 N 384.306 0.507319 1.49211 0
M  V30 3912 C 385.236 -0.256939 2.32082 0
M  V30 3913 C 386.217 -0.956609 1.40652 0
M  V30 3914 O 387.402 -0.946788 1.69557 0
M  V30 3915 C 384.532 -1.31802 3.21318 0
M  V30 3916 C 383.486 -0.737855 4.21592 0
M  V30 3917 C 382.812 -1.89992 4.99807 0
M  V30 3918 C 384.112 0.275325 5.21574 0
M  V30 3919 H 385.806 0.434798 2.96226 0
M  V30 3920 H 383.352 0.210546 1.42452 0
M  V30 3921 H 385.305 -1.86045 3.78107 0
M  V30 3922 H 384.029 -2.03903 2.5513 0
M  V30 3923 H 382.688 -0.217126 3.65956 0
M  V30 3924 H 382.336 -2.60877 4.30061 0
M  V30 3925 H 382.036 -1.51777 5.6766 0
M  V30 3926 H 383.56 -2.44657 5.59442 0
M  V30 3927 H 384.974 -0.179193 5.7302 0
M  V30 3928 H 383.371 0.573649 5.97352 0
M  V30 3929 H 384.441 1.18903 4.70096 0
M  V30 3930 N 385.784 -1.5574 0.241426 0
M  V30 3931 C 387.03 -1.99846 -0.378555 0
M  V30 3932 C 387.385 -1.12665 -1.55963 0
M  V30 3933 O 386.678 -0.180966 -1.90743 0
M  V30 3934 C 386.872 -3.47308 -0.843317 0
M  V30 3935 C 386.701 -4.48756 0.291178 0
M  V30 3936 C 385.471 -4.9949 0.764077 0
M  V30 3937 C 387.669 -5.02039 1.11631 0
M  V30 3938 N 385.651 -5.84676 1.87156 0
M  V30 3939 C 387.022 -5.84343 2.07226 0
M  V30 3940 C 389.077 -4.84354 1.15349 0
M  V30 3941 C 387.78 -6.50851 3.06245 0
M  V30 3942 C 389.806 -5.51636 2.13195 0
M  V30 3943 C 389.168 -6.33724 3.07528 0
M  V30 3944 H 385.267 -0.774968 -0.104634 0
M  V30 3945 H 387.851 -1.91385 0.357751 0
M  V30 3946 H 386.022 -3.56178 -1.54893 0
M  V30 3947 H 387.754 -3.78299 -1.43779 0
M  V30 3948 H 384.509 -4.72311 0.349175 0
M  V30 3949 H 384.933 -6.31967 2.42789 0
M  V30 3950 H 389.575 -4.20525 0.438057 0
M  V30 3951 H 387.293 -7.1385 3.78739 0
M  V30 3952 H 390.879 -5.39909 2.16771 0
M  V30 3953 H 389.759 -6.84867 3.82003 0
M  V30 3954 N 387.262 0.0317525 -1.57568 0
M  V30 3955 C 388.49 0.734949 -1.93407 0
M  V30 3956 C 388.905 1.69036 -0.84096 0
M  V30 3957 O 388.262 1.81582 0.182836 0
M  V30 3958 C 388.313 1.49432 -3.29169 0
M  V30 3959 O 388.034 0.577261 -4.3428 0
M  V30 3960 C 389.535 2.29492 -3.79273 0
M  V30 3961 H 386.755 0.206706 -0.638368 0
M  V30 3962 H 389.299 -0.00992046 -2.04498 0
M  V30 3963 H 387.454 2.1911 -3.19483 0
M  V30 3964 H 387.868 1.10952 -5.1263 0
M  V30 3965 H 389.342 2.78172 -4.76785 0
M  V30 3966 H 389.819 3.10794 -3.10328 0
M  V30 3967 H 390.425 1.64894 -3.92033 0
M  V30 3968 N 388.74 1.54641 0.303973 0
M  V30 3969 C 389.69 1.8177 1.37636 0
M  V30 3970 C 390.674 0.674697 1.46071 0
M  V30 3971 O 391.866 0.935251 1.50273 0
M  V30 3972 C 388.995 2.06584 2.74186 0
M  V30 3973 C 388.081 3.2706 2.69986 0
M  V30 3974 N 388.472 4.47682 2.35402 0
M  V30 3975 C 386.77 3.29028 3.01092 0
M  V30 3976 C 387.471 5.29689 2.40426 0
M  V30 3977 N 386.447 4.67339 2.7766 0
M  V30 3978 H 390.249 2.72596 1.09857 0
M  V30 3979 H 387.763 1.541 0.51254 0
M  V30 3980 H 389.76 2.24166 3.51504 0
M  V30 3981 H 388.42 1.17024 3.02879 0
M  V30 3982 H 389.431 4.74336 2.07908 0
M  V30 3983 H 386.108 2.49565 3.34699 0
M  V30 3984 H 387.498 6.3606 2.16512 0
M  V30 3985 N 390.218 -0.567019 1.47046 0
M  V30 3986 C 391.181 -1.65696 1.58359 0
M  V30 3987 C 392.181 -1.54097 0.459441 0
M  V30 3988 O 393.371 -1.58432 0.724225 0
M  V30 3989 C 390.503 -3.05197 1.51879 0
M  V30 3990 H 391.696 -1.57019 2.5551 0
M  V30 3991 H 389.249 -0.786148 1.3509 0
M  V30 3992 H 389.984 -3.19417 0.560673 0
M  V30 3993 H 389.769 -3.15025 2.33455 0
M  V30 3994 H 391.259 -3.84511 1.62913 0
M  V30 3995 N 391.696 -1.35014 -0.812953 0
M  V30 3996 C 392.606 -1.2951 -1.95613 0
M  V30 3997 C 393.622 -0.20107 -1.72834 0
M  V30 3998 O 394.798 -0.42932 -1.96771 0
M  V30 3999 C 391.863 -1.06033 -3.30088 0
M  V30 4000 C 390.924 -2.24688 -3.65805 0
M  V30 4001 C 390.157 -2.02322 -4.93864 0
M  V30 4002 O 390.38 -0.986464 -5.61805 0
M  V30 4003 O 389.314 -2.89525 -5.27692 0
M  V30 4004 H 393.14 -2.25705 -2.03202 0
M  V30 4005 H 390.725 -1.15321 -0.949811 0
M  V30 4006 H 392.607 -0.94763 -4.10607 0
M  V30 4007 H 391.282 -0.128852 -3.23443 0
M  V30 4008 H 390.189 -2.41521 -2.85689 0
M  V30 4009 H 391.522 -3.16261 -3.77147 0
M  V30 4010 N 393.175 1.03435 -1.18907 0
M  V30 4011 C 394.085 2.15075 -0.937015 0
M  V30 4012 C 395.101 1.73706 0.101085 0
M  V30 4013 O 396.277 2.01232 -0.0822948 0
M  V30 4014 C 393.342 3.43458 -0.473057 0
M  V30 4015 C 392.403 3.99172 -1.57989 0
M  V30 4016 C 391.636 5.21427 -1.13797 0
M  V30 4017 O 391.859 5.704 0.000725941 0
M  V30 4018 O 390.793 5.69837 -1.9383 0
M  V30 4019 H 394.619 2.39198 -1.87131 0
M  V30 4020 H 392.204 1.13506 -0.971427 0
M  V30 4021 H 394.086 4.20811 -0.222702 0
M  V30 4022 H 392.761 3.20793 0.432869 0
M  V30 4023 H 391.668 3.23178 -1.88433 0
M  V30 4024 H 393.001 4.2619 -2.46217 0
M  V30 4025 N 394.653 0.992116 1.22453 0
M  V30 4026 C 395.899 0.668523 1.91464 0
M  V30 4027 C 396.232 -0.797313 1.77078 0
M  V30 4028 O 395.507 -1.5765 1.13916 0
M  V30 4029 C 395.79 1.07424 3.43703 0
M  V30 4030 C 395.643 2.59857 3.67143 0
M  V30 4031 C 396.962 0.626891 4.35612 0
M  V30 4032 H 394.081 0.244341 0.695318 0
M  V30 4033 H 396.723 1.2355 1.44345 0
M  V30 4034 H 394.873 0.591816 3.83966 0
M  V30 4035 H 396.545 3.15764 3.3629 0
M  V30 4036 H 394.788 3.01961 3.11451 0
M  V30 4037 H 395.459 2.83296 4.73759 0
M  V30 4038 H 397.935 1.04125 4.02861 0
M  V30 4039 H 396.811 0.939076 5.40807 0
M  V30 4040 H 397.072 -0.472457 4.39568 0
M  V30 4041 N 396.131 -1.37776 0.765217 0
M  V30 4042 C 397.079 -2.32209 0.134798 0
M  V30 4043 C 398.073 -1.54607 -0.692315 0
M  V30 4044 O 399.279 -1.70052 -0.590109 0
M  V30 4045 H 395.654 -0.751591 0.0248005 0
M  V30 4046 H 397.625 -2.8297 0.947119 0
M  V30 4047 C 396.374 -3.39841 -0.735063 0
M  V30 4048 H 395.697 -3.99654 -0.107991 0
M  V30 4049 H 397.137 -4.08296 -1.14326 0
M  V30 4050 C 395.596 -2.79378 -1.88281 0
M  V30 4051 O 396.126 -2.69608 -2.97783 0
M  V30 4052 N 394.332 -2.37016 -1.68142 0
M  V30 4053 H 393.879 -2.45162 -0.790772 0
M  V30 4054 H 393.837 -1.96905 -2.45104 0
M  V30 4055 N 397.609 -0.515225 -1.4894 0
M  V30 4056 C 398.837 0.0206034 -2.0689 0
M  V30 4057 C 399.252 1.29514 -1.37374 0
M  V30 4058 O 398.609 1.76698 -0.456529 0
M  V30 4059 C 398.66 0.26351 -3.60538 0
M  V30 4060 O 398.381 -0.960517 -4.27441 0
M  V30 4061 C 399.882 0.841383 -4.35242 0
M  V30 4062 H 397.102 -0.0268608 -0.670462 0
M  V30 4063 H 399.646 -0.716651 -1.91532 0
M  V30 4064 H 397.801 0.950777 -3.75552 0
M  V30 4065 H 398.215 -0.73212 -5.19365 0
M  V30 4066 H 399.689 0.96085 -5.43573 0
M  V30 4067 H 400.166 1.8427 -3.98674 0
M  V30 4068 H 400.772 0.191143 -4.2487 0
M  V30 4069 N 399.087 1.5561 -0.249682 0
M  V30 4070 C 400.05 2.20217 0.635394 0
M  V30 4071 C 401.05 1.17227 1.10066 0
M  V30 4072 O 402.24 1.42292 1.00492 0
M  V30 4073 C 399.372 2.84794 1.87363 0
M  V30 4074 H 400.565 2.99814 0.0716752 0
M  V30 4075 H 398.118 1.563 -0.000153234 0
M  V30 4076 H 398.853 2.09142 2.47851 0
M  V30 4077 H 398.638 3.60241 1.5482 0
M  V30 4078 H 400.128 3.3423 2.5036 0
M  V30 4079 N 400.565 -0.0233959 1.57583 0
M  V30 4080 C 401.495 -1.02162 2.09965 0
M  V30 4081 C 402.476 -1.3735 1.00344 0
M  V30 4082 O 403.661 -1.46135 1.27899 0
M  V30 4083 C 400.791 -2.32081 2.58371 0
M  V30 4084 C 399.745 -2.1112 3.72307 0
M  V30 4085 C 399.071 -3.46848 4.06941 0
M  V30 4086 C 400.371 -1.49276 5.00514 0
M  V30 4087 H 402.065 -0.585557 2.93618 0
M  V30 4088 H 399.611 -0.280218 1.41247 0
M  V30 4089 H 401.564 -3.02249 2.93639 0
M  V30 4090 H 400.288 -2.77758 1.71808 0
M  V30 4091 H 398.947 -1.43384 3.37397 0
M  V30 4092 H 398.595 -3.90184 3.17436 0
M  V30 4093 H 398.295 -3.33646 4.83688 0
M  V30 4094 H 399.819 -4.18369 4.44747 0
M  V30 4095 H 401.233 -2.09368 5.33702 0
M  V30 4096 H 399.63 -1.46632 5.8191 0
M  V30 4097 H 400.7 -0.459217 4.82721 0
M  V30 4098 N 402.043 -1.548 -0.295768 0
M  V30 4099 C 402.973 -1.89115 -1.36959 0
M  V30 4100 C 403.954 -0.75059 -1.52644 0
M  V30 4101 O 405.139 -1.00678 -1.66065 0
M  V30 4102 C 402.269 -2.14307 -2.73295 0
M  V30 4103 C 401.223 -3.30151 -2.72368 0
M  V30 4104 C 400.549 -3.40772 -4.12042 0
M  V30 4105 C 401.849 -4.67126 -2.33646 0
M  V30 4106 H 403.543 -2.79053 -1.08488 0
M  V30 4107 H 401.089 -1.34266 -0.520443 0
M  V30 4108 H 403.042 -2.36898 -3.48507 0
M  V30 4109 H 401.766 -1.21145 -3.03301 0
M  V30 4110 H 400.425 -3.0749 -1.99613 0
M  V30 4111 H 400.073 -2.45117 -4.39234 0
M  V30 4112 H 399.773 -4.18645 -4.12322 0
M  V30 4113 H 401.297 -3.6563 -4.89027 0
M  V30 4114 H 402.711 -4.89414 -2.98575 0
M  V30 4115 H 401.108 -5.47751 -2.45129 0
M  V30 4116 H 402.178 -4.67489 -1.28772 0
M  V30 4117 N 403.521 0.559213 -1.47345 0
M  V30 4118 C 404.484 1.64854 -1.59235 0
M  V30 4119 C 405.484 1.53851 -0.467607 0
M  V30 4120 O 406.674 1.58045 -0.732617 0
M  V30 4121 C 403.806 3.04388 -1.53496 0
M  V30 4122 H 404.999 1.55662 -2.56339 0
M  V30 4123 H 402.552 0.778973 -1.35505 0
M  V30 4124 H 403.287 3.19115 -0.577604 0
M  V30 4125 H 403.072 3.13783 -2.35123 0
M  V30 4126 H 404.562 3.83642 -1.6495 0
M  V30 4127 N 404.999 1.35443 0.805782 0
M  V30 4128 C 406.246 1.28761 1.56291 0
M  V30 4129 C 406.574 -0.137747 1.94012 0
M  V30 4130 O 405.829 -1.1032 1.61642 0
M  V30 4131 C 406.128 2.14045 2.86216 0
M  V30 4132 C 405.794 3.62826 2.67709 0
M  V30 4133 C 404.456 4.0338 2.6237 0
M  V30 4134 C 406.808 4.57227 2.50186 0
M  V30 4135 C 404.136 5.36501 2.37451 0
M  V30 4136 C 406.488 5.90547 2.26797 0
M  V30 4137 C 405.152 6.30245 2.1988 0
M  V30 4138 H 404.422 0.471171 0.571908 0
M  V30 4139 H 407.069 1.67347 0.930974 0
M  V30 4140 H 405.374 1.68342 3.53791 0
M  V30 4141 H 407.071 2.0621 3.43917 0
M  V30 4142 H 403.661 3.30644 2.72713 0
M  V30 4143 H 407.845 4.2678 2.53323 0
M  V30 4144 H 403.101 5.66259 2.30567 0
M  V30 4145 H 407.275 6.63274 2.12228 0
M  V30 4146 H 404.902 7.33328 2.00333 0
M  V30 4147 N 406.477 -1.02803 1.19454 0
M  V30 4148 C 407.407 -2.12999 0.956758 0
M  V30 4149 C 408.388 -1.69743 -0.110188 0
M  V30 4150 O 409.573 -1.94148 0.0450038 0
M  V30 4151 C 406.703 -3.43746 0.495553 0
M  V30 4152 C 405.657 -4.00688 1.50443 0
M  V30 4153 C 404.983 -5.27067 0.900275 0
M  V30 4154 C 406.283 -4.35397 2.8849 0
M  V30 4155 H 407.977 -2.33148 1.87836 0
M  V30 4156 H 405.523 -1.12045 0.904539 0
M  V30 4157 H 407.476 -4.2021 0.316493 0
M  V30 4158 H 406.2 -3.23321 -0.461646 0
M  V30 4159 H 404.859 -3.2632 1.67065 0
M  V30 4160 H 404.507 -5.02959 -0.064503 0
M  V30 4161 H 404.207 -5.66127 1.57397 0
M  V30 4162 H 405.731 -6.06196 0.73203 0
M  V30 4163 H 407.145 -5.02795 2.75446 0
M  V30 4164 H 405.542 -4.85541 3.52661 0
M  V30 4165 H 406.612 -3.44662 3.41081 0
M  V30 4166 N 407.956 -0.998596 -1.21925 0
M  V30 4167 C 408.919 -0.558679 -2.22287 0
M  V30 4168 C 409.919 0.361525 -1.56683 0
M  V30 4169 O 411.109 0.152695 -1.73529 0
M  V30 4170 C 408.241 0.18661 -3.40389 0
M  V30 4171 H 409.434 -1.4463 -2.62721 0
M  V30 4172 H 406.987 -0.786413 -1.35075 0
M  V30 4173 H 407.722 1.08996 -3.05435 0
M  V30 4174 H 407.507 -0.474188 -3.89222 0
M  V30 4175 H 408.997 0.482367 -4.14805 0
M  V30 4176 N 409.434 1.37368 -0.772513 0
M  V30 4177 C 410.381 2.30262 -0.157488 0
M  V30 4178 C 411.351 1.51137 0.688965 0
M  V30 4179 O 412.536 1.79704 0.641168 0
M  V30 4180 C 409.676 3.37611 0.715045 0
M  V30 4181 C 408.789 4.31746 -0.148098 0
M  V30 4182 C 407.924 5.26171 0.729213 0
M  V30 4183 C 406.963 6.11948 -0.136418 0
M  V30 4184 N 406.1 6.98613 0.698914 0
M  V30 4185 H 410.94 2.82277 -0.955179 0
M  V30 4186 H 408.477 1.38957 -0.482631 0
M  V30 4187 H 410.435 3.98479 1.23575 0
M  V30 4188 H 409.065 2.86959 1.47833 0
M  V30 4189 H 408.117 3.72178 -0.786613 0
M  V30 4190 H 409.429 4.92084 -0.81579 0
M  V30 4191 H 408.583 5.92247 1.31637 0
M  V30 4192 H 407.322 4.66246 1.43059 0
M  V30 4193 H 406.327 5.4485 -0.736102 0
M  V30 4194 H 407.552 6.73945 -0.835134 0
M  V30 4195 H 405.498 6.41215 1.38489 0
M  V30 4196 H 405.415 7.55948 0.0885358 0
M  V30 4197 H 406.683 7.69077 1.27044 0
M  V30 4198 O 410.951 0.664551 1.47194 0
M  V30 4199 H 411.642 0.193541 1.92731 0
M  V30 END ATOM
M  V30 BEGIN BOND
M  V30 END BOND
M  V30 END CTAB
M  END
$$$$
