drugbank_target|Q9WZ40 Signal recognition particle receptor FtsY (DB04272)
 OpenBabel12092120293D

  0  0  0     0  0            999 V3000
M  V30 BEGIN CTAB
M  V30 COUNTS 4616 4646 0 0 0
M  V30 BEGIN ATOM
M  V30 1 H -0.908 1.98254 -0.117106 0
M  V30 2 N 0 1.576 0 0
M  V30 3 C 0.933 2.03868 1.02534 0
M  V30 4 C 1.911 0.928543 1.3348 0
M  V30 5 O 3.095 1.19667 1.45644 0
M  V30 6 C 0.222 2.43627 2.35294 0
M  V30 7 C -0.732 3.65373 2.2001 0
M  V30 8 S 0.101 5.13292 1.52614 0
M  V30 9 C 1.257 5.56322 2.86805 0
M  V30 10 H 1.49 2.90518 0.631377 0
M  V30 11 H -0.977 1.52953 0.210867 0
M  V30 12 H 0.981 2.67203 3.11629 0
M  V30 13 H -0.358 1.57376 2.7183 0
M  V30 14 H -1.165 3.90944 3.18086 0
M  V30 15 H -1.563 3.418 1.51819 0
M  V30 16 H 0.729 5.58782 3.83104 0
M  V30 17 H 1.672 6.56266 2.65933 0
M  V30 18 H 2.08 4.83886 2.90714 0
M  V30 19 N 1.4781 -0.272755 1.55222 0
M  V30 20 C 2.7261 -1.00234 1.75492 0
M  V30 21 C 3.0471 -1.8681 0.5592 0
M  V30 22 O 2.3171 -1.91215 -0.425882 0
M  V30 23 H 0.8971 -0.373076 0.647166 0
M  V30 24 H 3.5591 -0.296926 1.92625 0
M  V30 25 H 2.6551 -1.63913 2.65592 0
M  V30 26 N 2.9562 -1.48159 -0.537278 0
M  V30 27 C 3.8862 -1.65029 -1.6519 0
M  V30 28 C 4.8672 -0.499281 -1.62607 0
M  V30 29 O 6.0522 -0.730972 -1.79918 0
M  V30 30 C 3.1822 -1.68303 -3.03795 0
M  V30 31 C 2.1362 -2.8283 -3.21234 0
M  V30 32 C 1.4622 -2.71189 -4.60826 0
M  V30 33 C 2.7622 -4.24211 -3.04701 0
M  V30 34 H 4.4562 -2.58341 -1.51328 0
M  V30 35 H 2.0022 -1.24325 -0.726585 0
M  V30 36 H 3.9552 -1.78693 -3.81637 0
M  V30 37 H 2.6792 -0.715635 -3.18663 0
M  V30 38 H 1.3382 -2.71983 -2.45807 0
M  V30 39 H 0.9862 -1.72435 -4.7252 0
M  V30 40 H 0.6862 -3.48035 -4.7344 0
M  V30 41 H 2.2102 -2.83537 -5.40777 0
M  V30 42 H 3.6242 -4.3593 -3.72341 0
M  V30 43 H 2.0212 -5.01998 -3.28813 0
M  V30 44 H 3.0912 -4.41184 -2.01209 0
M  V30 45 N 4.4343 0.785586 -1.36625 0
M  V30 46 C 5.6813 1.54362 -1.31067 0
M  V30 47 C 6.0093 1.94195 0.10893 0
M  V30 48 O 5.2643 1.63262 1.07908 0
M  V30 49 C 5.5633 2.83007 -2.1827 0
M  V30 50 C 5.2293 2.62294 -3.6676 0
M  V30 51 C 3.8913 2.56353 -4.0723 0
M  V30 52 C 6.2433 2.43371 -4.6089 0
M  V30 53 C 3.5713 2.29461 -5.39967 0
M  V30 54 C 5.9233 2.18005 -5.93849 0
M  V30 55 C 4.5873 2.105 -6.3344 0
M  V30 56 H 3.8573 0.564851 -0.479609 0
M  V30 57 H 6.5043 0.906028 -1.68711 0
M  V30 58 H 4.8093 3.51253 -1.73576 0
M  V30 59 H 6.5063 3.40817 -2.11292 0
M  V30 60 H 3.0963 2.67774 -3.34656 0
M  V30 61 H 7.2803 2.46959 -4.30494 0
M  V30 62 H 2.5363 2.22135 -5.69619 0
M  V30 63 H 6.7103 2.02359 -6.66351 0
M  V30 64 H 4.3373 1.89425 -7.36222 0
M  V30 65 N 5.9124 1.20967 1.01018 0
M  V30 66 C 7.1894 0.93264 1.71934 0
M  V30 67 C 7.5694 -0.55692 2.03621 0
M  V30 68 O 6.9174 -1.52035 1.7058 0
M  V30 69 C 7.1274 1.81233 2.98254 0
M  V30 70 C 8.4754 2.05804 3.71389 0
M  V30 71 O 9.4994 1.78539 3.08225 0
M  V30 72 O 8.3584 2.51888 4.84989 0
M  V30 73 H 5.4524 0.349272 0.749625 0
M  V30 74 H 7.9984 1.31871 1.06808 0
M  V30 75 H 6.7704 2.82067 2.71208 0
M  V30 76 H 6.3934 1.42674 3.7112 0
M  V30 77 N 7.3905 -1.2043 1.01659 0
M  V30 78 C 8.6375 -1.89797 0.705917 0
M  V30 79 C 8.9655 -1.78848 -0.764439 0
M  V30 80 O 8.2205 -1.16694 -1.57102 0
M  V30 81 C 8.5195 -3.40464 1.08714 0
M  V30 82 C 8.1855 -3.71614 2.5537 0
M  V30 83 C 6.8475 -3.79826 2.95441 0
M  V30 84 C 9.1995 -3.85915 3.50313 0
M  V30 85 C 6.5275 -3.99797 4.29394 0
M  V30 86 C 8.8795 -4.07396 4.83954 0
M  V30 87 C 7.5435 -4.13837 5.23732 0
M  V30 88 H 6.8135 -0.694518 0.258313 0
M  V30 89 H 9.4605 -1.42691 1.27717 0
M  V30 90 H 7.7655 -3.89385 0.434309 0
M  V30 91 H 9.4625 -3.92433 0.824461 0
M  V30 92 H 6.0525 -3.65822 2.23321 0
M  V30 93 H 10.2365 -3.78926 3.20513 0
M  V30 94 H 5.4925 -4.03018 4.59768 0
M  V30 95 H 9.6665 -4.17404 5.57447 0
M  V30 96 H 7.2935 -4.29064 6.27541 0
M  V30 97 N 8.8686 -0.792821 -1.36206 0
M  V30 98 C 9.7986 -0.207853 -2.32573 0
M  V30 99 C 10.7796 0.659055 -1.56813 0
M  V30 100 O 11.9646 0.592176 -1.84951 0
M  V30 101 C 9.0946 0.655449 -3.41059 0
M  V30 102 C 8.0486 -0.111842 -4.27854 0
M  V30 103 C 7.3746 0.872274 -5.27537 0
M  V30 104 C 8.6746 -1.30299 -5.05786 0
M  V30 105 H 10.3686 -1.01294 -2.81744 0
M  V30 106 H 7.9146 -0.48854 -1.3546 0
M  V30 107 H 9.8676 1.07464 -4.07467 0
M  V30 108 H 8.5916 1.49328 -2.90463 0
M  V30 109 H 7.2506 -0.512053 -3.63006 0
M  V30 110 H 6.8986 1.70523 -4.73214 0
M  V30 111 H 6.5986 0.363291 -5.86476 0
M  V30 112 H 8.1226 1.28996 -5.96818 0
M  V30 113 H 9.5366 -0.959379 -5.65216 0
M  V30 114 H 7.9336 -1.7455 -5.74154 0
M  V30 115 H 9.0036 -2.09663 -4.37229 0
M  V30 116 N 10.3467 1.47872 -0.545128 0
M  V30 117 C 11.2937 2.29849 0.2093 0
M  V30 118 C 12.2637 1.38313 0.919707 0
M  V30 119 O 13.4487 1.67277 0.917772 0
M  V30 120 C 10.5887 3.22019 1.24088 0
M  V30 121 C 9.7017 4.2864 0.537778 0
M  V30 122 C 8.8367 5.07973 1.5536 0
M  V30 123 C 7.8757 6.06381 0.8348 0
M  V30 124 N 7.0127 6.78717 1.79688 0
M  V30 125 H 11.8527 2.93845 -0.49591 0
M  V30 126 H 9.3897 1.44848 -0.256389 0
M  V30 127 H 11.3477 3.73868 1.85144 0
M  V30 128 H 9.9777 2.59914 1.91428 0
M  V30 129 H 9.0297 3.7994 -0.187046 0
M  V30 130 H 10.3417 4.98793 -0.0258907 0
M  V30 131 H 9.4957 5.63912 2.23803 0
M  V30 132 H 8.2347 4.37693 2.15118 0
M  V30 133 H 7.2397 5.49631 0.136388 0
M  V30 134 H 8.4647 6.78665 0.24313 0
M  V30 135 H 6.4107 6.11177 2.38326 0
M  V30 136 H 6.3277 7.44998 1.28505 0
M  V30 137 H 7.5957 7.39237 2.47282 0
M  V30 138 N 11.8248 0.280983 1.55075 0
M  V30 139 C 12.7718 -0.603937 2.22758 0
M  V30 140 C 13.7418 -1.1452 1.20309 0
M  V30 141 O 14.9268 -1.19343 1.48869 0
M  V30 142 C 12.0668 -1.77947 2.95684 0
M  V30 143 C 11.1798 -1.2715 4.12864 0
M  V30 144 C 10.3148 -2.4093 4.7342 0
M  V30 145 C 9.3538 -1.87165 5.82783 0
M  V30 146 N 8.4908 -2.94441 6.37377 0
M  V30 147 H 13.3308 -0.020124 2.97993 0
M  V30 148 H 10.8678 0.00183425 1.471 0
M  V30 149 H 12.8258 -2.47055 3.36184 0
M  V30 150 H 11.4558 -2.33522 2.22861 0
M  V30 151 H 10.5078 -0.473331 3.77444 0
M  V30 152 H 11.8198 -0.837751 4.91715 0
M  V30 153 H 10.9738 -3.18021 5.1667 0
M  V30 154 H 9.7128 -2.87623 3.93859 0
M  V30 155 H 8.7178 -1.08556 5.38976 0
M  V30 156 H 9.9428 -1.41401 6.64216 0
M  V30 157 H 7.8888 -3.40505 5.60707 0
M  V30 158 H 7.8058 -2.55501 7.11516 0
M  V30 159 H 9.0738 -3.71489 6.85285 0
M  V30 160 N 13.3029 -1.57598 0.00835791 0
M  V30 161 C 14.5509 -1.90551 -0.6734 0
M  V30 162 C 14.8719 -0.883301 -1.73847 0
M  V30 163 O 14.1419 0.0781442 -1.95744 0
M  V30 164 H 12.7219 -0.703312 -0.251717 0
M  V30 165 H 15.3839 -1.94833 0.0512592 0
M  V30 166 H 14.4799 -2.9056 -1.13935 0
M  V30 167 N 14.781 0.264519 -1.55364 0
M  V30 168 C 15.711 1.33121 -1.91836 0
M  V30 169 C 16.692 1.51101 -0.781192 0
M  V30 170 O 17.877 1.64003 -1.04003 0
M  V30 171 C 15.007 2.68921 -2.19769 0
M  V30 172 C 13.961 2.65661 -3.35571 0
M  V30 173 C 13.287 4.05093 -3.49004 0
M  V30 174 C 14.587 2.24187 -4.71739 0
M  V30 175 H 16.281 1.02844 -2.81182 0
M  V30 176 H 13.827 0.493286 -1.35287 0
M  V30 177 H 15.78 3.43663 -2.43872 0
M  V30 178 H 14.504 3.00799 -1.27231 0
M  V30 179 H 13.163 1.93377 -3.1145 0
M  V30 180 H 12.811 4.34206 -2.53917 0
M  V30 181 H 12.511 4.03804 -4.26868 0
M  V30 182 H 14.035 4.81561 -3.75408 0
M  V30 183 H 15.449 2.88654 -4.9533 0
M  V30 184 H 13.846 2.34044 -5.52579 0
M  V30 185 H 14.916 1.19327 -4.69988 0
M  V30 186 N 16.2591 1.48442 0.529413 0
M  V30 187 C 17.1911 1.59095 1.64989 0
M  V30 188 C 18.2041 0.475212 1.5571 0
M  V30 189 O 19.3931 0.746081 1.6216 0
M  V30 190 C 16.4931 1.50518 3.0364 0
M  V30 191 C 15.6661 2.77142 3.38395 0
M  V30 192 C 14.7251 2.62012 4.56329 0
M  V30 193 O 13.7511 3.35898 4.59522 0
M  V30 194 N 14.9531 1.71667 5.54536 0
M  V30 195 H 17.7181 2.55723 1.56287 0
M  V30 196 H 15.2791 1.45173 0.716697 0
M  V30 197 H 17.2711 1.38091 3.80412 0
M  V30 198 H 15.8411 0.618627 3.06418 0
M  V30 199 H 15.0611 3.0413 2.50796 0
M  V30 200 H 16.3491 3.61146 3.58401 0
M  V30 201 H 15.7471 1.10841 5.54735 0
M  V30 202 H 14.3041 1.65178 6.30523 0
M  V30 203 N 17.7372 -0.778329 1.37039 0
M  V30 204 C 18.6842 -1.89139 1.32269 0
M  V30 205 C 19.6542 -1.65017 0.189387 0
M  V30 206 O 20.8392 -1.87024 0.377693 0
M  V30 207 C 17.9792 -3.26112 1.12894 0
M  V30 208 C 17.0922 -3.62233 2.35396 0
M  V30 209 C 16.2272 -4.8838 2.08946 0
M  V30 210 C 15.2662 -5.17212 3.2735 0
M  V30 211 N 14.4032 -6.34546 3.00492 0
M  V30 212 H 19.2432 -1.92552 2.27437 0
M  V30 213 H 16.7802 -0.941473 1.13025 0
M  V30 214 H 18.7382 -4.05116 0.996835 0
M  V30 215 H 17.3682 -3.22091 0.213758 0
M  V30 216 H 16.4202 -2.78265 2.5937 0
M  V30 217 H 17.7322 -3.79481 3.23721 0
M  V30 218 H 16.8862 -5.75274 1.92729 0
M  V30 219 H 15.6252 -4.73222 1.17949 0
M  V30 220 H 14.6302 -4.28796 3.44113 0
M  V30 221 H 15.8552 -5.34283 4.19188 0
M  V30 222 H 13.8012 -6.20759 2.12118 0
M  V30 223 H 13.7182 -6.52179 3.82358 0
M  V30 224 H 14.9862 -7.24394 2.87879 0
M  V30 225 N 19.2153 -1.21501 -1.00376 0
M  V30 226 C 20.4433 -1.059 -1.77744 0
M  V30 227 C 20.8583 0.391125 -1.84704 0
M  V30 228 O 20.2153 1.27133 -1.30933 0
M  V30 229 C 20.2663 -1.65111 -3.21591 0
M  V30 230 O 19.9873 -3.0445 -3.15027 0
M  V30 231 C 21.4883 -1.54637 -4.15454 0
M  V30 232 H 18.7083 -0.371825 -0.558558 0
M  V30 233 H 21.2523 -1.60865 -1.26264 0
M  V30 234 H 19.4073 -1.14235 -3.70175 0
M  V30 235 H 19.8213 -3.3278 -4.0541 0
M  V30 236 H 21.2953 -2.00808 -5.14179 0
M  V30 237 H 21.7723 -0.501022 -4.36333 0
M  V30 238 H 22.3783 -2.04767 -3.72761 0
M  V30 239 N 20.6934 1.19889 -1.02296 0
M  V30 240 C 21.6404 2.22901 -0.598651 0
M  V30 241 C 22.6104 1.61588 0.384521 0
M  V30 242 O 23.7954 1.88697 0.282522 0
M  V30 243 C 20.9354 3.45063 0.0504476 0
M  V30 244 C 20.0484 4.20783 -0.978053 0
M  V30 245 C 19.1834 5.30356 -0.299338 0
M  V30 246 C 18.2224 5.97826 -1.31416 0
M  V30 247 N 17.3594 6.98975 -0.661667 0
M  V30 248 H 22.1994 2.58554 -1.48169 0
M  V30 249 H 19.7364 1.27039 -0.741584 0
M  V30 250 H 21.6944 4.14831 0.443971 0
M  V30 251 H 20.3244 3.10084 0.897097 0
M  V30 252 H 19.3764 3.50018 -1.48969 0
M  V30 253 H 20.6884 4.67109 -1.74958 0
M  V30 254 H 19.8424 6.06516 0.149347 0
M  V30 255 H 18.5814 4.85084 0.504445 0
M  V30 256 H 17.5864 5.20422 -1.77317 0
M  V30 257 H 18.8114 6.45183 -2.11933 0
M  V30 258 H 16.7574 6.55886 0.122132 0
M  V30 259 H 16.6744 7.43461 -1.37117 0
M  V30 260 H 17.9424 7.7914 -0.236785 0
M  V30 261 N 22.1715 0.800033 1.35784 0
M  V30 262 C 23.0815 0.207204 2.33683 0
M  V30 263 C 24.0975 -0.64631 1.61551 0
M  V30 264 O 25.2735 -0.559604 1.93469 0
M  V30 265 C 22.3385 -0.639659 3.40748 0
M  V30 266 C 21.3995 0.233585 4.28664 0
M  V30 267 C 20.6325 -0.572954 5.30616 0
M  V30 268 O 20.8555 -1.80816 5.40982 0
M  V30 269 O 19.7895 0.0327285 6.01891 0
M  V30 270 H 23.6155 1.01692 2.86169 0
M  V30 271 H 21.2005 0.561691 1.38439 0
M  V30 272 H 23.0825 -1.12223 4.06182 0
M  V30 273 H 21.7575 -1.42708 2.90544 0
M  V30 274 H 20.6645 0.763147 3.66233 0
M  V30 275 H 21.9975 0.984784 4.82248 0
M  V30 276 N 23.6496 -1.47581 0.552962 0
M  V30 277 C 24.8776 -2.06875 0.0320556 0
M  V30 278 C 25.2926 -1.40625 -1.25976 0
M  V30 279 O 24.6496 -0.501349 -1.75479 0
M  V30 280 C 24.7006 -3.61092 -0.17167 0
M  V30 281 O 24.4216 -4.24858 1.06899 0
M  V30 282 C 25.9226 -4.37242 -0.730344 0
M  V30 283 H 23.1426 -0.669561 0.043915 0
M  V30 284 H 25.6866 -1.89646 0.765163 0
M  V30 285 H 23.8416 -3.7785 -0.854894 0
M  V30 286 H 24.2556 -5.17334 0.864059 0
M  V30 287 H 25.7296 -5.45842 -0.822203 0
M  V30 288 H 26.2066 -4.03235 -1.74064 0
M  V30 289 H 26.8126 -4.25219 -0.0829543 0
M  V30 290 N 25.1277 -0.289203 -1.54924 0
M  V30 291 C 26.3747 0.323519 -1.99899 0
M  V30 292 C 26.7027 1.54797 -1.17762 0
M  V30 293 O 25.9577 1.94237 -0.238835 0
M  V30 294 C 26.2567 0.736119 -3.49737 0
M  V30 295 C 25.9227 -0.385276 -4.49251 0
M  V30 296 C 24.5847 -0.693156 -4.76181 0
M  V30 297 C 26.9367 -1.14021 -5.08575 0
M  V30 298 C 24.2647 -1.7593 -5.59701 0
M  V30 299 C 26.6167 -2.19619 -5.93254 0
M  V30 300 C 25.2807 -2.51026 -6.185 0
M  V30 301 H 24.5507 0.118384 -0.731482 0
M  V30 302 H 27.1977 -0.405847 -1.8715 0
M  V30 303 H 25.5027 1.54539 -3.60035 0
M  V30 304 H 27.1997 1.22118 -3.81953 0
M  V30 305 H 23.7897 -0.135202 -4.28387 0
M  V30 306 H 27.9737 -0.915611 -4.87781 0
M  V30 307 H 23.2297 -2.0075 -5.77503 0
M  V30 308 H 27.4037 -2.78581 -6.38252 0
M  V30 309 H 25.0307 -3.33772 -6.83008 0
M  V30 310 N 26.6058 1.57591 -0.0167156 0
M  V30 311 C 27.8528 1.91283 0.664597 0
M  V30 312 C 28.1808 0.891949 1.72842 0
M  V30 313 O 27.4358 -0.100931 1.9544 0
M  V30 314 C 27.7348 3.3172 1.33029 0
M  V30 315 C 27.4008 4.4914 0.398047 0
M  V30 316 C 26.0628 4.80992 0.141421 0
M  V30 317 C 28.4148 5.20634 -0.242825 0
M  V30 318 C 25.7428 5.81703 -0.764092 0
M  V30 319 C 28.0948 6.22311 -1.13632 0
M  V30 320 C 26.7588 6.52611 -1.40196 0
M  V30 321 H 26.0288 0.699956 0.243193 0
M  V30 322 H 28.6758 1.9135 -0.0758267 0
M  V30 323 H 26.9808 3.27856 2.14517 0
M  V30 324 H 28.6778 3.55055 1.86379 0
M  V30 325 H 25.2678 4.24262 0.608238 0
M  V30 326 H 29.4518 4.96267 -0.0576019 0
M  V30 327 H 24.7078 6.03532 -0.977732 0
M  V30 328 H 28.8818 6.76834 -1.63917 0
M  V30 329 H 26.5088 7.30467 -2.10529 0
M  V30 330 N 28.0839 -0.256276 1.55502 0
M  V30 331 C 29.3319 -0.983672 1.76545 0
M  V30 332 C 29.6529 -1.86206 0.578982 0
M  V30 333 O 28.9229 -1.91656 -0.405577 0
M  V30 334 H 27.5029 -0.366191 0.651086 0
M  V30 335 H 30.1649 -0.276479 1.92929 0
M  V30 336 H 29.2609 -1.61087 2.67315 0
M  V30 337 N 29.562 -1.4872 -0.521534 0
M  V30 338 C 30.978 -1.35028 -0.850855 0
M  V30 339 C 31.178 -0.367712 -1.98116 0
M  V30 340 O 30.234 0.208037 -2.51642 0
M  V30 341 C 31.547 -2.75263 -1.21041 0
M  V30 342 C 33.095 -2.83813 -1.31981 0
M  V30 343 C 33.57 -4.24769 -1.71276 0
M  V30 344 N 35.061 -4.27482 -1.78363 0
M  V30 345 C 35.796 -5.33494 -2.1017 0
M  V30 346 N 35.292 -6.49775 -2.40343 0
M  V30 347 N 37.085 -5.20894 -2.11248 0
M  V30 348 H 29.236 -2.11214 0.22413 0
M  V30 349 H 31.499 -0.947252 0.0376439 0
M  V30 350 H 31.205 -3.48765 -0.453415 0
M  V30 351 H 31.079 -3.09327 -2.15863 0
M  V30 352 H 33.466 -2.10561 -2.06756 0
M  V30 353 H 33.547 -2.53358 -0.352596 0
M  V30 354 H 33.191 -4.9854 -0.970588 0
M  V30 355 H 33.121 -4.52673 -2.69062 0
M  V30 356 H 35.612 -3.43611 -1.57288 0
M  V30 357 H 35.925 -7.26402 -2.63743 0
M  V30 358 H 34.27 -6.53035 -2.37844 0
M  V30 359 H 37.461 -4.29065 -1.87139 0
M  V30 360 H 37.634 -6.03612 -2.35704 0
M  V30 361 N 31.0401 0.771051 -1.3745 0
M  V30 362 C 32.2861 1.5319 -1.32894 0
M  V30 363 C 32.6191 1.94008 0.0862511 0
M  V30 364 O 31.8941 1.64124 1.04373 0
M  V30 365 C 32.1771 2.79648 -2.26868 0
M  V30 366 C 32.0301 2.45079 -3.77169 0
M  V30 367 C 33.3491 3.81583 -2.19277 0
M  V30 368 H 30.4681 0.555744 -0.484064 0
M  V30 369 H 33.1101 0.884492 -1.68157 0
M  V30 370 H 31.2601 3.34891 -1.96926 0
M  V30 371 H 32.9321 1.95745 -4.1771 0
M  V30 372 H 31.1751 1.77767 -3.95704 0
M  V30 373 H 31.8461 3.35478 -4.38359 0
M  V30 374 H 34.3221 3.35835 -2.45671 0
M  V30 375 H 33.1981 4.67787 -2.87171 0
M  V30 376 H 33.4591 4.25897 -1.18592 0
M  V30 377 N 32.5182 1.22032 0.997298 0
M  V30 378 C 33.7642 1.04376 1.73878 0
M  V30 379 C 34.0972 -0.420716 1.89588 0
M  V30 380 O 33.3722 -1.31202 1.43583 0
M  V30 381 C 33.6552 1.75047 3.14691 0
M  V30 382 C 33.5082 3.29062 3.06656 0
M  V30 383 C 34.8272 1.49928 4.13775 0
M  V30 384 H 31.9462 0.380578 0.631133 0
M  V30 385 H 34.5882 1.50312 1.16217 0
M  V30 386 H 32.7382 1.35996 3.63919 0
M  V30 387 H 34.4102 3.7753 2.65083 0
M  V30 388 H 32.6532 3.58967 2.43568 0
M  V30 389 H 33.3242 3.73683 4.06282 0
M  V30 390 H 35.8002 1.83842 3.73285 0
M  V30 391 H 34.6762 2.01878 5.10428 0
M  V30 392 H 34.9372 0.430929 4.39995 0
M  V30 393 N 33.9963 -1.19345 1.0293 0
M  V30 394 C 34.9433 -2.2258 0.610464 0
M  V30 395 C 35.9133 -1.6179 -0.375946 0
M  V30 396 O 37.0983 -1.88844 -0.272511 0
M  V30 397 C 34.2383 -3.45085 -0.0321473 0
M  V30 398 C 33.3513 -4.20258 1.00035 0
M  V30 399 C 32.4863 -5.3019 0.32746 0
M  V30 400 C 31.5253 -5.97121 1.34584 0
M  V30 401 N 30.6623 -6.98615 0.698726 0
M  V30 402 H 35.5023 -2.57764 1.49538 0
M  V30 403 H 33.0393 -1.26644 0.748311 0
M  V30 404 H 34.9973 -4.15061 -0.421966 0
M  V30 405 H 33.6273 -3.10555 -0.88064 0
M  V30 406 H 32.6793 -3.49223 1.50823 0
M  V30 407 H 33.9913 -4.66175 1.77433 0
M  V30 408 H 33.1453 -6.06587 -0.11718 0
M  V30 409 H 31.8843 -4.85345 -0.478713 0
M  V30 410 H 30.8893 -5.19474 1.80074 0
M  V30 411 H 32.1143 -6.4405 2.15352 0
M  V30 412 H 30.0603 -6.55942 -0.0873471 0
M  V30 413 H 29.9773 -7.42724 1.41058 0
M  V30 414 H 31.2453 -7.79004 0.278102 0
M  V30 415 N 35.4744 -0.807222 -1.35358 0
M  V30 416 C 36.4044 -0.232509 -2.3234 0
M  V30 417 C 37.3854 0.642386 -1.57504 0
M  V30 418 O 38.5704 0.572526 -1.85569 0
M  V30 419 C 35.7004 0.619238 -3.41735 0
M  V30 420 C 34.6544 -0.157215 -4.27711 0
M  V30 421 C 33.9804 0.816273 -5.28433 0
M  V30 422 C 35.2804 -1.35656 -5.04376 0
M  V30 423 H 36.9744 -1.04276 -2.80654 0
M  V30 424 H 34.5204 -0.50288 -1.34934 0
M  V30 425 H 36.4734 1.03137 -4.08584 0
M  V30 426 H 35.1974 1.46239 -2.92031 0
M  V30 427 H 33.8564 -0.550525 -3.62443 0
M  V30 428 H 33.5044 1.65494 -4.74996 0
M  V30 429 H 33.2044 0.301067 -5.86828 0
M  V30 430 H 34.7284 1.22659 -5.98153 0
M  V30 431 H 36.1424 -1.01927 -5.64166 0
M  V30 432 H 34.5394 -1.8063 -5.7227 0
M  V30 433 H 35.6094 -2.14288 -4.34981 0
M  V30 434 N 36.9525 1.47285 -0.560781 0
M  V30 435 C 37.8825 2.32857 0.173105 0
M  V30 436 C 38.8635 1.44009 0.905281 0
M  V30 437 O 40.0485 1.7286 0.885046 0
M  V30 438 C 37.1785 3.25861 1.20133 0
M  V30 439 C 36.1325 4.23978 0.585388 0
M  V30 440 C 35.4585 5.06332 1.7185 0
M  V30 441 C 36.7585 5.20242 -0.463178 0
M  V30 442 H 38.4525 2.94466 -0.541307 0
M  V30 443 H 35.9985 1.41601 -0.261764 0
M  V30 444 H 37.9515 3.84569 1.72293 0
M  V30 445 H 36.6755 2.62315 1.94573 0
M  V30 446 H 35.3345 3.66501 0.085054 0
M  V30 447 H 34.9825 4.39186 2.45203 0
M  V30 448 H 34.6825 5.72762 1.31213 0
M  V30 449 H 36.2065 5.67899 2.24329 0
M  V30 450 H 37.6205 5.73293 -0.027502 0
M  V30 451 H 36.0175 5.94896 -0.788627 0
M  V30 452 H 37.0875 4.65504 -1.35773 0
M  V30 453 N 38.4306 0.297415 1.54768 0
M  V30 454 C 39.3776 -0.580276 2.23386 0
M  V30 455 C 40.3476 -1.13238 1.21517 0
M  V30 456 O 41.5326 -1.17757 1.50126 0
M  V30 457 C 38.6726 -1.74801 2.97555 0
M  V30 458 C 37.7856 -1.22764 4.1419 0
M  V30 459 C 36.9206 -2.35895 4.75949 0
M  V30 460 C 35.9596 -1.80974 5.84735 0
M  V30 461 N 35.0966 -2.87664 6.40464 0
M  V30 462 H 39.9366 0.0114833 2.97998 0
M  V30 463 H 37.4736 0.0174361 1.4709 0
M  V30 464 H 39.4316 -2.43475 3.38786 0
M  V30 465 H 38.0616 -2.31145 2.25326 0
M  V30 466 H 37.1136 -0.433271 3.77924 0
M  V30 467 H 38.4256 -0.785551 4.92575 0
M  V30 468 H 37.5796 -3.12523 5.20014 0
M  V30 469 H 36.3186 -2.83429 3.96887 0
M  V30 470 H 35.3236 -1.02834 5.40097 0
M  V30 471 H 36.5486 -1.34348 6.65678 0
M  V30 472 H 34.4946 -3.34538 5.64287 0
M  V30 473 H 34.4116 -2.4794 7.14186 0
M  V30 474 H 35.6796 -3.642 6.89187 0
M  V30 475 N 39.9087 -1.5758 0.0250728 0
M  V30 476 C 41.1567 -1.91255 -0.653151 0
M  V30 477 C 41.4777 -0.901691 -1.729 0
M  V30 478 O 40.7477 0.0573785 -1.95816 0
M  V30 479 H 39.3277 -0.705942 -0.244243 0
M  V30 480 H 41.9897 -1.94767 0.0719209 0
M  V30 481 H 41.0857 -2.91752 -1.10847 0
M  V30 482 N 41.3868 0.248026 -1.55636 0
M  V30 483 C 42.3338 1.30707 -1.90222 0
M  V30 484 C 43.3038 1.47881 -0.756332 0
M  V30 485 O 44.4888 1.61883 -1.00988 0
M  V30 486 C 41.6288 2.65769 -2.20138 0
M  V30 487 C 40.7418 2.56612 -3.47526 0
M  V30 488 C 39.8768 3.8402 -3.67017 0
M  V30 489 C 38.9158 3.69476 -4.8801 0
M  V30 490 N 38.0528 4.88774 -5.04029 0
M  V30 491 H 42.8928 1.00512 -2.80538 0
M  V30 492 H 40.4298 0.485055 -1.38873 0
M  V30 493 H 42.3878 3.44386 -2.35487 0
M  V30 494 H 41.0178 2.94115 -1.33027 0
M  V30 495 H 40.0698 1.69571 -3.40514 0
M  V30 496 H 41.3818 2.41774 -4.36287 0
M  V30 497 H 40.5358 4.7108 -3.8232 0
M  V30 498 H 39.2748 4.01754 -2.76487 0
M  V30 499 H 38.2798 2.80799 -4.72686 0
M  V30 500 H 39.5048 3.53238 -5.8 0
M  V30 501 H 37.4508 5.0687 -4.16435 0
M  V30 502 H 37.3678 4.76562 -5.86877 0
M  V30 503 H 38.6358 5.77335 -5.23741 0
M  V30 504 N 42.8649 1.48995 0.513639 0
M  V30 505 C 43.8119 1.6473 1.61656 0
M  V30 506 C 44.7819 0.488984 1.58739 0
M  V30 507 O 45.9669 0.714478 1.76918 0
M  V30 508 C 43.1069 1.7082 2.99858 0
M  V30 509 C 42.2199 2.9787 3.12885 0
M  V30 510 C 41.3549 2.95017 4.41744 0
M  V30 511 C 40.3939 4.16702 4.48359 0
M  V30 512 N 39.5309 4.11832 5.68629 0
M  V30 513 H 44.3709 2.58909 1.47547 0
M  V30 514 H 41.9079 1.28382 0.71808 0
M  V30 515 H 43.8659 1.72331 3.79944 0
M  V30 516 H 42.4959 0.801181 3.12699 0
M  V30 517 H 41.5479 3.06029 2.25944 0
M  V30 518 H 42.8599 3.8786 3.13633 0
M  V30 519 H 42.0139 2.95021 5.30139 0
M  V30 520 H 40.7529 2.02784 4.43542 0
M  V30 521 H 39.7579 4.16955 3.58369 0
M  V30 522 H 40.9829 5.10113 4.48287 0
M  V30 523 H 38.9289 3.22428 5.71293 0
M  V30 524 H 38.8459 4.95543 5.7094 0
M  V30 525 H 40.1139 4.1592 6.59266 0
M  V30 526 N 44.343 -0.763751 1.37857 0
M  V30 527 C 45.273 -1.89103 1.36975 0
M  V30 528 C 46.254 -1.68439 0.237152 0
M  V30 529 O 47.439 -1.8918 0.438713 0
M  V30 530 C 44.569 -3.26496 1.18395 0
M  V30 531 C 43.523 -3.61741 2.28751 0
M  V30 532 C 42.849 -4.97762 1.95286 0
M  V30 533 C 44.149 -3.67665 3.70972 0
M  V30 534 H 45.843 -1.90099 2.31307 0
M  V30 535 H 43.389 -0.91319 1.11341 0
M  V30 536 H 45.342 -4.05003 1.16406 0
M  V30 537 H 44.066 -3.25955 0.205215 0
M  V30 538 H 42.725 -2.85547 2.29909 0
M  V30 539 H 42.373 -4.93769 0.959221 0
M  V30 540 H 42.073 -5.22313 2.69189 0
M  V30 541 H 43.597 -5.7866 1.94898 0
M  V30 542 H 45.011 -4.36307 3.719 0
M  V30 543 H 43.408 -4.03718 4.43995 0
M  V30 544 H 44.478 -2.68134 4.0402 0
M  V30 545 N 45.8211 -1.22559 -0.990812 0
M  V30 546 C 47.0981 -0.959875 -1.70428 0
M  V30 547 C 47.4781 0.524455 -2.04481 0
M  V30 548 O 46.8261 1.49302 -1.72977 0
M  V30 549 C 47.0361 -1.85955 -2.95333 0
M  V30 550 C 48.3841 -2.11687 -3.68068 0
M  V30 551 O 49.4081 -1.8342 -3.05345 0
M  V30 552 O 48.2671 -2.59572 -4.80921 0
M  V30 553 H 45.3611 -0.361154 -0.743974 0
M  V30 554 H 47.9071 -1.33554 -1.04697 0
M  V30 555 H 46.6791 -2.86346 -2.66687 0
M  V30 556 H 46.3021 -1.4856 -3.68803 0
M  V30 557 N 47.2992 1.18797 -1.03562 0
M  V30 558 C 48.5762 1.84469 -0.650434 0
M  V30 559 C 48.9562 1.92319 0.870433 0
M  V30 560 O 48.3042 1.44528 1.76986 0
M  V30 561 C 48.5142 3.2306 -1.32036 0
M  V30 562 C 49.8622 3.9915 -1.44792 0
M  V30 563 O 50.8862 3.32481 -1.27806 0
M  V30 564 O 49.7452 5.18587 -1.72423 0
M  V30 565 H 46.8392 0.795251 -0.226946 0
M  V30 566 H 49.3852 1.26231 -1.13419 0
M  V30 567 H 48.1572 3.1222 -2.3587 0
M  V30 568 H 47.7802 3.88949 -0.8249 0
M  V30 569 N 48.7773 0.814389 1.34928 0
M  V30 570 C 49.6873 0.231978 2.3345 0
M  V30 571 C 50.7033 -0.629139 1.62228 0
M  V30 572 O 51.8793 -0.539052 1.94052 0
M  V30 573 C 48.9443 -0.603482 3.41407 0
M  V30 574 C 48.0053 0.279037 4.28392 0
M  V30 575 C 47.2383 -0.516643 5.31193 0
M  V30 576 O 47.4613 -1.75068 5.4287 0
M  V30 577 O 46.3953 0.0965652 6.01823 0
M  V30 578 H 50.2213 1.04721 2.85074 0
M  V30 579 H 47.8063 0.576343 1.37836 0
M  V30 580 H 49.6883 -1.07908 4.0735 0
M  V30 581 H 48.3633 -1.39618 2.92042 0
M  V30 582 H 47.2703 0.801948 3.65403 0
M  V30 583 H 48.6033 1.03588 4.81176 0
M  V30 584 N 50.2554 -1.46986 0.568584 0
M  V30 585 C 51.4834 -2.0683 0.0539956 0
M  V30 586 C 51.8984 -1.41953 -1.24478 0
M  V30 587 O 51.2554 -0.519933 -1.74937 0
M  V30 588 C 51.3064 -3.61254 -0.133362 0
M  V30 589 O 51.0274 -4.237 1.11399 0
M  V30 590 C 52.5284 -4.37992 -0.683927 0
M  V30 591 H 49.7484 -0.669058 0.0510141 0
M  V30 592 H 52.2924 -1.88824 0.785234 0
M  V30 593 H 50.4474 -3.78735 -0.81477 0
M  V30 594 H 50.8614 -5.16388 0.91888 0
M  V30 595 H 52.3354 -5.46684 -0.764263 0
M  V30 596 H 52.8124 -4.05058 -1.69778 0
M  V30 597 H 53.4184 -4.25283 -0.0378494 0
M  V30 598 N 51.7335 -0.305618 -1.54608 0
M  V30 599 C 53.1495 0.0476228 -1.59529 0
M  V30 600 C 53.3495 1.52025 -1.32252 0
M  V30 601 O 52.4055 2.27368 -1.09818 0
M  V30 602 C 53.7185 -0.354471 -2.98603 0
M  V30 603 C 55.2665 -0.303622 -3.11524 0
M  V30 604 C 55.7415 -0.680608 -4.52915 0
M  V30 605 N 57.2325 -0.63332 -4.5885 0
M  V30 606 C 57.9675 -0.897432 -5.66334 0
M  V30 607 N 57.4635 -1.22775 -6.81834 0
M  V30 608 N 59.2565 -0.824186 -5.56025 0
M  V30 609 H 51.4075 -1.2653 -1.70599 0
M  V30 610 H 53.6705 -0.513291 -0.797017 0
M  V30 611 H 53.3765 -1.3798 -3.23503 0
M  V30 612 H 53.2505 0.289568 -3.76087 0
M  V30 613 H 55.6375 0.712472 -2.8637 0
M  V30 614 H 55.7185 -0.982348 -2.36185 0
M  V30 615 H 55.3625 -1.69453 -4.78799 0
M  V30 616 H 55.2925 0.0202385 -5.26596 0
M  V30 617 H 57.7835 -0.389138 -3.75891 0
M  V30 618 H 58.0965 -1.41513 -7.59733 0
M  V30 619 H 56.4415 -1.26583 -6.83375 0
M  V30 620 H 59.6325 -0.565748 -4.64669 0
M  V30 621 H 59.8055 -1.03338 -6.39707 0
M  V30 622 N 53.2116 1.57565 -0.0334293 0
M  V30 623 C 54.1216 2.13943 0.962572 0
M  V30 624 C 55.1376 1.09276 1.35406 0
M  V30 625 O 56.3136 1.41355 1.4346 0
M  V30 626 C 53.3786 2.65887 2.22497 0
M  V30 627 C 52.4396 3.85286 1.8935 0
M  V30 628 C 51.6726 4.34743 3.09571 0
M  V30 629 O 51.8956 3.83352 4.22371 0
M  V30 630 O 50.8296 5.26538 2.91618 0
M  V30 631 H 54.6556 2.99333 0.513169 0
M  V30 632 H 52.2406 1.4822 0.18743 0
M  V30 633 H 54.1226 2.99346 2.96598 0
M  V30 634 H 52.7976 1.83578 2.6661 0
M  V30 635 H 51.7046 3.56746 1.1262 0
M  V30 636 H 53.0376 4.68771 1.5005 0
M  V30 637 N 54.6897 -0.239769 1.55765 0
M  V30 638 C 55.5997 -1.31831 1.94056 0
M  V30 639 C 56.6157 -1.52275 0.841925 0
M  V30 640 O 57.7917 -1.65759 1.14394 0
M  V30 641 C 54.8567 -2.65156 2.23368 0
M  V30 642 C 53.9177 -2.53173 3.46701 0
M  V30 643 C 53.1507 -3.8014 3.74606 0
M  V30 644 O 53.3737 -4.82343 3.04469 0
M  V30 645 O 52.3077 -3.78344 4.68123 0
M  V30 646 H 56.1337 -1.02347 2.85935 0
M  V30 647 H 53.7187 -0.441123 1.42739 0
M  V30 648 H 55.6007 -3.43929 2.43497 0
M  V30 649 H 54.2757 -2.94358 1.34666 0
M  V30 650 H 53.1827 -1.72662 3.31871 0
M  V30 651 H 54.5157 -2.28915 4.35728 0
M  V30 652 N 56.1678 -1.49265 -0.50573 0
M  V30 653 C 57.0978 -1.68495 -1.61653 0
M  V30 654 C 58.0788 -0.53366 -1.61512 0
M  V30 655 O 59.2638 -0.76897 -1.78327 0
M  V30 656 C 56.3938 -1.74709 -3.00157 0
M  V30 657 C 55.3478 -2.89581 -3.15162 0
M  V30 658 C 54.6738 -2.80903 -4.5497 0
M  V30 659 C 55.9738 -4.30578 -2.95634 0
M  V30 660 H 57.6678 -2.61493 -1.45814 0
M  V30 661 H 55.2138 -1.25838 -0.70005 0
M  V30 662 H 57.1668 -1.86748 -3.77761 0
M  V30 663 H 55.8908 -0.783067 -3.17074 0
M  V30 664 H 54.5498 -2.77136 -2.39982 0
M  V30 665 H 54.1978 -1.82419 -4.68756 0
M  V30 666 H 53.8978 -3.57999 -4.65951 0
M  V30 667 H 55.4218 -2.94944 -5.34641 0
M  V30 668 H 56.8358 -4.4373 -3.63011 0
M  V30 669 H 55.2328 -5.0886 -3.18091 0
M  V30 670 H 56.3028 -4.45352 -1.91806 0
M  V30 671 N 57.6459 0.756429 -1.3826 0
M  V30 672 C 58.5559 1.9009 -1.37488 0
M  V30 673 C 59.5719 1.71855 -0.272366 0
M  V30 674 O 60.7479 1.94827 -0.510318 0
M  V30 675 C 57.8129 3.25421 -1.19592 0
M  V30 676 C 56.8739 3.56202 -2.39622 0
M  V30 677 C 56.1069 4.85075 -2.2257 0
M  V30 678 O 56.3299 5.57246 -1.21793 0
M  V30 679 O 55.2639 5.15269 -3.11098 0
M  V30 680 H 59.0899 1.93695 -2.33914 0
M  V30 681 H 56.6749 0.901313 -1.1915 0
M  V30 682 H 58.5569 4.06337 -1.11661 0
M  V30 683 H 57.2319 3.22634 -0.262486 0
M  V30 684 H 56.1389 2.75458 -2.53128 0
M  V30 685 H 57.4719 3.63747 -3.31586 0
M  V30 686 N 59.124 1.23083 0.984299 0
M  V30 687 C 60.034 1.02515 2.11016 0
M  V30 688 C 61.05 -0.0291702 1.73976 0
M  V30 689 O 62.226 0.165434 2.00719 0
M  V30 690 C 59.291 0.614673 3.41208 0
M  V30 691 C 58.352 1.74359 3.92297 0
M  V30 692 C 57.585 1.35261 5.16275 0
M  V30 693 O 57.808 0.235136 5.69915 0
M  V30 694 O 56.742 2.17227 5.61334 0
M  V30 695 H 60.568 1.96862 2.31255 0
M  V30 696 H 58.153 1.01753 1.09392 0
M  V30 697 H 60.035 0.396518 4.1953 0
M  V30 698 H 58.71 -0.299851 3.22308 0
M  V30 699 H 57.617 2.01635 3.1511 0
M  V30 700 H 58.95 2.63629 4.15645 0
M  V30 701 N 60.6021 -1.18246 1.0419 0
M  V30 702 C 61.5321 -2.24127 0.654914 0
M  V30 703 C 62.5131 -1.66617 -0.342451 0
M  V30 704 O 63.6981 -1.92924 -0.222277 0
M  V30 705 C 60.8281 -3.47295 0.0183757 0
M  V30 706 C 59.7821 -4.17563 0.939414 0
M  V30 707 C 59.1081 -5.34438 0.167286 0
M  V30 708 C 60.4081 -4.70917 2.25908 0
M  V30 709 H 62.1021 -2.56753 1.54007 0
M  V30 710 H 59.6481 -1.23414 0.74195 0
M  V30 711 H 61.6011 -4.20572 -0.264082 0
M  V30 712 H 60.3251 -3.13907 -0.901664 0
M  V30 713 H 58.9841 -3.46186 1.20628 0
M  V30 714 H 58.6321 -4.97298 -0.7552 0
M  V30 715 H 58.3321 -5.82388 0.780901 0
M  V30 716 H 59.8561 -6.10504 -0.108125 0
M  V30 717 H 61.2701 -5.35882 2.03724 0
M  V30 718 H 59.6671 -5.29406 2.82577 0
M  V30 719 H 60.7371 -3.88272 2.9047 0
M  V30 720 N 62.0802 -0.821533 -1.34494 0
M  V30 721 C 63.0102 -0.257138 -2.3208 0
M  V30 722 C 63.9912 0.625645 -1.58176 0
M  V30 723 O 65.1762 0.552811 -1.86166 0
M  V30 724 C 62.3062 0.582958 -3.42372 0
M  V30 725 C 61.2602 -0.202571 -4.2752 0
M  V30 726 C 60.5862 0.760179 -5.29269 0
M  V30 727 C 61.8862 -1.40998 -5.02908 0
M  V30 728 H 63.5802 -1.07247 -2.79532 0
M  V30 729 H 61.1262 -0.517163 -1.34393 0
M  V30 730 H 63.0792 0.987972 -4.09655 0
M  V30 731 H 61.8032 1.43133 -2.93565 0
M  V30 732 H 60.4622 -0.588936 -3.61838 0
M  V30 733 H 60.1102 1.60447 -4.76724 0
M  V30 734 H 59.8102 0.238809 -5.87115 0
M  V30 735 H 61.3342 1.16308 -5.9942 0
M  V30 736 H 62.7482 -1.07905 -5.63054 0
M  V30 737 H 61.1452 -1.86689 -5.70322 0
M  V30 738 H 62.2152 -2.1889 -4.32684 0
M  V30 739 N 63.5583 1.46682 -0.576371 0
M  V30 740 C 64.8073 2.01619 -0.0572825 0
M  V30 741 C 65.1203 1.45417 1.30818 0
M  V30 742 O 66.3263 1.92133 1.91825 0
M  V30 743 C 64.7823 3.59863 -0.0518371 0
M  V30 744 C 64.3903 4.25059 -1.41523 0
M  V30 745 C 66.1343 4.2248 0.413639 0
M  V30 746 C 64.0413 5.75364 -1.36785 0
M  V30 747 H 62.9713 0.753794 -0.0176448 0
M  V30 748 H 65.6223 1.68481 -0.727076 0
M  V30 749 H 64.0043 3.90048 0.683994 0
M  V30 750 H 65.1783 4.06491 -2.17029 0
M  V30 751 H 63.4933 3.7451 -1.8202 0
M  V30 752 H 66.0903 5.3265 0.467779 0
M  V30 753 H 66.4333 3.90976 1.42982 0
M  V30 754 H 66.9663 3.96897 -0.267929 0
M  V30 755 H 63.7053 6.11518 -2.36063 0
M  V30 756 H 63.2253 5.96214 -0.654895 0
M  V30 757 H 64.9043 6.37955 -1.07805 0
M  V30 758 N 65.0364 0.313813 1.54444 0
M  V30 759 C 65.9684 -0.590425 2.21465 0
M  V30 760 C 66.9814 -1.08753 1.21147 0
M  V30 761 O 68.1704 -1.00278 1.4767 0
M  V30 762 C 65.2704 -1.82179 2.85769 0
M  V30 763 C 64.4434 -1.46502 4.12136 0
M  V30 764 C 63.5024 -2.55288 4.60124 0
M  V30 765 O 62.5284 -2.19842 5.25032 0
M  V30 766 N 63.7304 -3.86053 4.33525 0
M  V30 767 H 66.4954 -0.0166033 2.99695 0
M  V30 768 H 64.0564 0.136578 1.61323 0
M  V30 769 H 66.0484 -2.54328 3.14801 0
M  V30 770 H 64.6184 -2.30369 2.11303 0
M  V30 771 H 63.8384 -0.575595 3.89975 0
M  V30 772 H 65.1264 -1.20221 4.94393 0
M  V30 773 H 64.5244 -4.17654 3.81552 0
M  V30 774 H 63.0814 -4.54461 4.67235 0
M  V30 775 N 66.5145 -1.57545 0.0417849 0
M  V30 776 C 67.4775 -2.09885 -0.92093 0
M  V30 777 C 68.4775 -1.01648 -1.24596 0
M  V30 778 O 69.6675 -1.27759 -1.1842 0
M  V30 779 C 66.7995 -2.57527 -2.23367 0
M  V30 780 H 67.9925 -2.96236 -0.467382 0
M  V30 781 H 65.5455 -1.5493 -0.206467 0
M  V30 782 H 66.2805 -1.74542 -2.73323 0
M  V30 783 H 66.0655 -3.36613 -2.01083 0
M  V30 784 H 67.5555 -2.98201 -2.92346 0
M  V30 785 N 67.9926 0.231505 -1.5589 0
M  V30 786 C 69.2696 0.981096 -1.69215 0
M  V30 787 C 69.6496 2.02799 -0.586164 0
M  V30 788 O 68.9976 2.24823 0.408253 0
M  V30 789 C 69.2076 1.60054 -3.10135 0
M  V30 790 C 70.5556 2.09658 -3.69227 0
M  V30 791 O 71.5796 1.69967 -3.13033 0
M  V30 792 O 70.4386 2.8258 -4.67772 0
M  V30 793 H 67.5326 0.457653 -0.688827 0
M  V30 794 H 70.0786 0.224073 -1.68214 0
M  V30 795 H 68.8506 0.844105 -3.82087 0
M  V30 796 H 68.4736 2.42336 -3.15212 0
M  V30 797 N 69.4707 1.49531 0.497807 0
M  V30 798 C 70.7167 1.59415 1.25358 0
M  V30 799 C 71.0497 0.281422 1.9215 0
M  V30 800 O 70.3247 -0.715249 1.80871 0
M  V30 801 C 70.6077 2.75566 2.3181 0
M  V30 802 C 70.4607 4.16642 1.69498 0
M  V30 803 C 71.7797 2.87347 3.33346 0
M  V30 804 H 68.8987 0.580244 0.454408 0
M  V30 805 H 71.5407 1.81827 0.551262 0
M  V30 806 H 69.6907 2.56587 2.91711 0
M  V30 807 H 71.3627 4.47145 1.13399 0
M  V30 808 H 69.6057 4.22141 0.998978 0
M  V30 809 H 70.2767 4.93792 2.46725 0
M  V30 810 H 72.7527 3.04634 2.83438 0
M  V30 811 H 71.6287 3.70289 4.05188 0
M  V30 812 H 71.8897 1.96834 3.95865 0
M  V30 813 N 70.9488 -0.749086 1.3866 0
M  V30 814 C 72.1968 -1.50535 1.34847 0
M  V30 815 C 72.5178 -1.94909 -0.0595016 0
M  V30 816 O 71.7878 -1.67973 -1.00806 0
M  V30 817 H 70.3678 -0.558395 0.49619 0
M  V30 818 H 73.0298 -0.890165 1.73384 0
M  V30 819 H 72.1258 -2.39413 2.00219 0
M  V30 820 N 72.4269 -1.23603 -0.977757 0
M  V30 821 C 73.6729 -1.07129 -1.72195 0
M  V30 822 C 74.0059 0.390501 -1.90233 0
M  V30 823 O 73.2809 1.28902 -1.45653 0
M  V30 824 C 73.5639 -1.80031 -3.11867 0
M  V30 825 C 73.4169 -3.33899 -3.01383 0
M  V30 826 C 74.7359 -1.56492 -4.11337 0
M  V30 827 H 71.8549 -0.390571 -0.624999 0
M  V30 828 H 74.4969 -1.52142 -1.13811 0
M  V30 829 H 72.6469 -1.41768 -3.6171 0
M  V30 830 H 74.3189 -3.81699 -2.59043 0
M  V30 831 H 72.5619 -3.62796 -2.37827 0
M  V30 832 H 73.2329 -3.801 -4.00285 0
M  V30 833 H 75.7089 -1.89757 -3.70313 0
M  V30 834 H 74.5849 -2.09973 -5.07151 0
M  V30 835 H 74.8459 -0.500874 -4.39254 0
M  V30 836 N 73.905 1.17692 -1.04816 0
M  V30 837 C 74.815 2.25229 -0.65643 0
M  V30 838 C 75.831 1.71018 0.320761 0
M  V30 839 O 77.007 2.00649 0.173805 0
M  V30 840 C 74.072 3.46684 -0.0332629 0
M  V30 841 C 73.133 4.15997 -1.06042 0
M  V30 842 C 72.366 5.31654 -0.466893 0
M  V30 843 O 72.589 5.65777 0.724758 0
M  V30 844 O 71.523 5.89831 -1.1993 0
M  V30 845 H 75.349 2.61016 -1.55255 0
M  V30 846 H 72.934 1.24919 -0.81949 0
M  V30 847 H 74.816 4.20234 0.313256 0
M  V30 848 H 73.491 3.12703 0.836566 0
M  V30 849 H 72.398 3.44482 -1.45886 0
M  V30 850 H 73.731 4.53996 -1.90127 0
M  V30 851 N 75.3831 0.828654 1.34056 0
M  V30 852 C 76.6111 0.43262 2.02326 0
M  V30 853 C 77.0261 -0.963147 1.62385 0
M  V30 854 O 76.3831 -1.62425 0.832121 0
M  V30 855 C 76.4341 0.53182 3.57567 0
M  V30 856 O 76.1551 1.87258 3.96063 0
M  V30 857 C 77.6561 0.131422 4.43105 0
M  V30 858 H 74.8761 0.172923 0.648335 0
M  V30 859 H 77.4201 1.1184 1.71208 0
M  V30 860 H 75.5751 -0.105938 3.87255 0
M  V30 861 H 75.9891 1.85087 4.90758 0
M  V30 862 H 77.4631 0.251904 5.51425 0
M  V30 863 H 77.9401 -0.925645 4.29335 0
M  V30 864 H 78.5461 0.743207 4.18756 0
M  V30 865 N 76.8612 -1.46375 0.584142 0
M  V30 866 C 78.0892 -2.06761 0.0759296 0
M  V30 867 C 78.5042 -1.43266 -1.22965 0
M  V30 868 O 77.8612 -0.538458 -1.74376 0
M  V30 869 C 77.9122 -3.61375 -0.0950384 0
M  V30 870 O 77.6332 -4.22495 1.15887 0
M  V30 871 C 79.1342 -4.38693 -0.637434 0
M  V30 872 H 76.3542 -0.668479 0.0581075 0
M  V30 873 H 78.8982 -1.8798 0.805218 0
M  V30 874 H 77.0532 -3.79578 -0.774554 0
M  V30 875 H 77.4672 -5.15385 0.973598 0
M  V30 876 H 78.9412 -5.47464 -0.706237 0
M  V30 877 H 79.4182 -4.06836 -1.65472 0
M  V30 878 H 80.0242 -4.25299 0.00725967 0
M  V30 879 N 78.3393 -0.321999 -1.54275 0
M  V30 880 C 79.2493 0.553631 -2.27974 0
M  V30 881 C 80.2653 1.13054 -1.32268 0
M  V30 882 O 81.4413 1.15084 -1.6528 0
M  V30 883 C 78.5063 1.69927 -3.02201 0
M  V30 884 C 77.5673 1.15433 -4.1349 0
M  V30 885 C 76.8003 2.24537 -4.84168 0
M  V30 886 O 77.0233 3.44852 -4.5435 0
M  V30 887 O 75.9573 1.90044 -5.7111 0
M  V30 888 H 79.7833 -0.0448345 -3.03667 0
M  V30 889 H 77.3683 -0.0877418 -1.49142 0
M  V30 890 H 79.2503 2.3663 -3.48689 0
M  V30 891 H 77.9253 2.28395 -2.29385 0
M  V30 892 H 76.8323 0.452436 -3.71354 0
M  V30 893 H 78.1653 0.614805 -4.88345 0
M  V30 894 N 79.8174 1.5752 -0.0501392 0
M  V30 895 C 81.0474 1.96678 0.632573 0
M  V30 896 C 81.4554 0.926298 1.64974 0
M  V30 897 O 80.7984 -0.09802 1.83438 0
M  V30 898 C 80.8604 3.32068 1.37735 0
M  V30 899 C 80.5244 4.54076 0.516131 0
M  V30 900 C 81.5214 5.19445 -0.217357 0
M  V30 901 C 79.2064 5.00304 0.44736 0
M  V30 902 C 81.2004 6.29378 -1.00807 0
M  V30 903 C 78.8874 6.10114 -0.347038 0
M  V30 904 C 79.8854 6.74512 -1.07344 0
M  V30 905 O 79.5734 7.82211 -1.85477 0
M  V30 906 H 79.3054 0.652193 0.177821 0
M  V30 907 H 81.8594 2.05091 -0.112543 0
M  V30 908 H 80.0894 3.20206 2.16807 0
M  V30 909 H 81.7784 3.55981 1.95019 0
M  V30 910 H 82.5444 4.84689 -0.173688 0
M  V30 911 H 78.4234 4.49971 1.00235 0
M  V30 912 H 81.9674 6.79575 -1.57556 0
M  V30 913 H 77.8644 6.44307 -0.392349 0
M  V30 914 H 78.6324 7.98982 -1.77678 0
M  V30 915 N 81.2955 -0.223234 1.56011 0
M  V30 916 C 82.5445 -0.945912 1.78144 0
M  V30 917 C 82.8575 -1.85567 0.618396 0
M  V30 918 O 84.0635 -2.61688 0.723318 0
M  V30 919 C 82.5195 -1.73216 3.15475 0
M  V30 920 C 82.1275 -0.868619 4.39499 0
M  V30 921 C 83.8715 -2.44615 3.46935 0
M  V30 922 C 81.7785 -1.65212 5.67855 0
M  V30 923 H 80.7085 -0.356929 0.664167 0
M  V30 924 H 83.3595 -0.199845 1.82409 0
M  V30 925 H 81.7415 -2.52107 3.05382 0
M  V30 926 H 82.9155 -0.120366 4.60643 0
M  V30 927 H 81.2305 -0.26683 4.15544 0
M  V30 928 H 83.8275 -3.03732 4.40058 0
M  V30 929 H 84.1705 -3.17417 2.69355 0
M  V30 930 H 84.7035 -1.72715 3.58349 0
M  V30 931 H 81.4425 -0.967407 6.48322 0
M  V30 932 H 80.9625 -2.37503 5.50774 0
M  V30 933 H 82.6415 -2.21322 6.07968 0
M  V30 934 N 82.7736 -1.49793 -0.48987 0
M  V30 935 C 83.7036 -1.70201 -1.59856 0
M  V30 936 C 84.6846 -0.55076 -1.60937 0
M  V30 937 O 85.8696 -0.787841 -1.77501 0
M  V30 938 C 82.9996 -1.77882 -2.98287 0
M  V30 939 C 81.9536 -2.92907 -3.12073 0
M  V30 940 C 81.2796 -2.85712 -4.51965 0
M  V30 941 C 82.5796 -4.3369 -2.91051 0
M  V30 942 H 84.2736 -2.63025 -1.43032 0
M  V30 943 H 81.8196 -1.26574 -0.686664 0
M  V30 944 H 83.7726 -1.90744 -3.75759 0
M  V30 945 H 82.4966 -0.816653 -3.16225 0
M  V30 946 H 81.1556 -2.79665 -2.37029 0
M  V30 947 H 80.8036 -1.8738 -4.66795 0
M  V30 948 H 80.5036 -3.62921 -4.62128 0
M  V30 949 H 82.0276 -3.00598 -5.31482 0
M  V30 950 H 83.4416 -4.47555 -3.58284 0
M  V30 951 H 81.8386 -5.12205 -3.12675 0
M  V30 952 H 82.9086 -4.47362 -1.87071 0
M  V30 953 N 84.2517 0.741722 -1.39055 0
M  V30 954 C 85.1617 1.88621 -1.39496 0
M  V30 955 C 86.1777 1.71557 -0.290578 0
M  V30 956 O 87.3537 1.94275 -0.530954 0
M  V30 957 C 84.4187 3.24134 -1.23037 0
M  V30 958 C 83.4797 3.5364 -2.43387 0
M  V30 959 C 82.7127 4.82687 -2.27703 0
M  V30 960 O 82.9357 5.55922 -1.27696 0
M  V30 961 O 81.8697 5.1194 -3.16545 0
M  V30 962 H 85.6957 1.91203 -2.35956 0
M  V30 963 H 83.2807 0.888625 -1.20099 0
M  V30 964 H 85.1627 4.0513 -1.15964 0
M  V30 965 H 83.8377 3.22337 -0.296691 0
M  V30 966 H 82.7447 2.72758 -2.56035 0
M  V30 967 H 84.0777 3.60209 -3.35425 0
M  V30 968 N 85.7298 1.2412 0.971189 0
M  V30 969 C 87.1458 1.00584 1.23916 0
M  V30 970 C 87.3458 -0.287481 1.99439 0
M  V30 971 O 86.4018 -1.00454 2.31658 0
M  V30 972 C 87.7148 2.21864 2.0297 0
M  V30 973 C 89.2628 2.26452 2.16076 0
M  V30 974 C 89.7378 3.47343 2.98524 0
M  V30 975 N 91.2288 3.47639 3.06107 0
M  V30 976 C 91.9638 4.37837 3.70251 0
M  V30 977 N 91.4598 5.38286 4.36142 0
M  V30 978 N 93.2528 4.25558 3.67228 0
M  V30 979 H 85.4038 2.07236 0.465499 0
M  V30 980 H 87.6668 0.909236 0.268315 0
M  V30 981 H 87.3728 3.15771 1.54861 0
M  V30 982 H 87.2468 2.23698 3.03709 0
M  V30 983 H 89.6338 1.33078 2.6339 0
M  V30 984 H 89.7148 2.28645 1.14696 0
M  V30 985 H 89.3588 4.41029 2.51905 0
M  V30 986 H 89.2888 3.42393 4.00093 0
M  V30 987 H 91.7798 2.74966 2.59233 0
M  V30 988 H 92.0928 6.03352 4.82894 0
M  V30 989 H 90.4378 5.42176 4.34822 0
M  V30 990 H 93.6288 3.46322 3.14927 0
M  V30 991 H 93.8018 4.96054 4.16935 0
M  V30 992 N 87.2079 -1.17134 1.05439 0
M  V30 993 C 88.1379 -2.2342 0.678649 0
M  V30 994 C 89.1189 -1.66971 -0.32476 0
M  V30 995 O 90.3039 -1.93149 -0.201802 0
M  V30 996 C 87.4339 -3.47256 0.0552099 0
M  V30 997 C 86.3879 -4.16543 0.98365 0
M  V30 998 C 85.7139 -5.34231 0.223961 0
M  V30 999 C 87.0139 -4.68495 2.3089 0
M  V30 1000 H 88.7079 -2.55105 1.56722 0
M  V30 1001 H 86.2539 -1.2262 0.754998 0
M  V30 1002 H 88.2069 -4.20828 -0.21946 0
M  V30 1003 H 86.9309 -3.14846 -0.868319 0
M  V30 1004 H 85.5899 -3.44887 1.24293 0
M  V30 1005 H 85.2379 -4.98071 -0.702412 0
M  V30 1006 H 84.9379 -5.81527 0.842627 0
M  V30 1007 H 86.4619 -6.10585 -0.0433671 0
M  V30 1008 H 87.8759 -5.33691 2.09396 0
M  V30 1009 H 86.2729 -5.26379 2.88176 0
M  V30 1010 H 87.3429 -3.85169 2.94572 0
M  V30 1011 N 88.686 -0.835752 -1.33615 0
M  V30 1012 C 89.596 -0.269088 -2.33052 0
M  V30 1013 C 90.612 0.603251 -1.63208 0
M  V30 1014 O 91.788 0.508112 -1.94885 0
M  V30 1015 C 88.853 0.549091 -3.42324 0
M  V30 1016 C 87.914 -0.347156 -4.27894 0
M  V30 1017 C 87.147 0.43207 -5.31948 0
M  V30 1018 O 87.37 1.66409 -5.45586 0
M  V30 1019 O 86.304 -0.192298 -6.01593 0
M  V30 1020 H 90.13 -1.09243 -2.83372 0
M  V30 1021 H 87.715 -0.598198 -1.36901 0
M  V30 1022 H 89.597 1.01414 -4.09015 0
M  V30 1023 H 88.272 1.34955 -2.94226 0
M  V30 1024 H 87.179 -0.859979 -3.64081 0
M  V30 1025 H 88.512 -1.1123 -4.79467 0
M  V30 1026 N 90.1641 1.46063 -0.591896 0
M  V30 1027 C 91.0741 2.34192 0.13831 0
M  V30 1028 C 92.0901 1.50305 0.876608 0
M  V30 1029 O 93.2661 1.8315 0.837728 0
M  V30 1030 C 90.3311 3.27656 1.13326 0
M  V30 1031 C 89.3921 4.27445 0.39863 0
M  V30 1032 C 88.6251 5.16443 1.34618 0
M  V30 1033 O 88.8481 5.08553 2.58321 0
M  V30 1034 O 87.7821 5.95843 0.851768 0
M  V30 1035 H 91.6081 2.98002 -0.58552 0
M  V30 1036 H 89.1931 1.45188 -0.352239 0
M  V30 1037 H 91.0751 3.85291 1.70671 0
M  V30 1038 H 89.7501 2.6643 1.83839 0
M  V30 1039 H 88.6571 3.73471 -0.216895 0
M  V30 1040 H 89.9901 4.91482 -0.265709 0
M  V30 1041 N 91.6422 0.330177 1.54103 0
M  V30 1042 C 92.5892 -0.532762 2.24567 0
M  V30 1043 C 93.5592 -1.10635 1.23892 0
M  V30 1044 O 94.7442 -1.14546 1.5259 0
M  V30 1045 C 91.8842 -1.6845 3.01195 0
M  V30 1046 C 90.9972 -1.13951 4.167 0
M  V30 1047 C 90.1322 -2.25746 4.80845 0
M  V30 1048 C 89.1712 -1.6853 5.88442 0
M  V30 1049 N 88.3082 -2.74014 6.46421 0
M  V30 1050 H 93.1482 0.0746905 2.97906 0
M  V30 1051 H 90.6852 0.048632 1.4702 0
M  V30 1052 H 92.6432 -2.36234 3.43874 0
M  V30 1053 H 91.2732 -2.26314 2.30178 0
M  V30 1054 H 90.3252 -0.35301 3.78758 0
M  V30 1055 H 91.6372 -0.680892 4.94131 0
M  V30 1056 H 90.7912 -3.01422 5.26526 0
M  V30 1057 H 89.5302 -2.74947 4.0281 0
M  V30 1058 H 88.5352 -0.913543 5.42157 0
M  V30 1059 H 89.7602 -1.20198 6.68378 0
M  V30 1060 H 87.7062 -3.22494 5.71256 0
M  V30 1061 H 87.6232 -2.32735 7.19285 0
M  V30 1062 H 88.8912 -3.49499 6.96757 0
M  V30 1063 N 93.1203 -1.57491 0.0584922 0
M  V30 1064 C 94.3973 -1.84346 -0.653918 0
M  V30 1065 C 94.7773 -0.948355 -1.88599 0
M  V30 1066 O 94.1253 -0.0112403 -2.28497 0
M  V30 1067 C 94.3353 -3.34239 -1.00425 0
M  V30 1068 C 95.6833 -4.01431 -1.38342 0
M  V30 1069 O 96.7073 -3.38907 -1.09637 0
M  V30 1070 O 95.5663 -5.11683 -1.91943 0
M  V30 1071 H 92.6603 -0.761112 -0.323478 0
M  V30 1072 H 95.2063 -1.6947 0.0884125 0
M  V30 1073 H 93.9783 -3.91089 -0.128625 0
M  V30 1074 H 93.6013 -3.54329 -1.80378 0
M  V30 1075 N 94.5984 0.214957 -1.56127 0
M  V30 1076 C 95.8464 0.936518 -1.79091 0
M  V30 1077 C 96.1674 1.84606 -0.628148 0
M  V30 1078 O 95.4374 1.92664 0.35462 0
M  V30 1079 H 94.0174 0.3488 -0.660566 0
M  V30 1080 H 96.6794 0.22523 -1.93594 0
M  V30 1081 H 95.7754 1.53943 -2.71492 0
M  V30 1082 N 96.0765 1.50051 0.48192 0
M  V30 1083 C 97.3535 1.51009 1.2432 0
M  V30 1084 C 97.7335 0.248587 2.09631 0
M  V30 1085 O 97.0815 -0.768409 2.15192 0
M  V30 1086 C 97.2915 2.79981 2.08355 0
M  V30 1087 C 98.6395 3.3022 2.66908 0
M  V30 1088 O 99.6635 2.81228 2.18607 0
M  V30 1089 O 98.5225 4.15595 3.54884 0
M  V30 1090 H 95.6165 0.605239 0.563573 0
M  V30 1091 H 98.1625 1.62332 0.494627 0
M  V30 1092 H 96.9345 3.63275 1.45419 0
M  V30 1093 H 96.5575 2.7161 2.90368 0
M  V30 1094 N 97.5546 -0.734337 1.39446 0
M  V30 1095 C 98.5176 -1.83004 1.37994 0
M  V30 1096 C 99.5176 -1.58397 0.276938 0
M  V30 1097 O 100.708 -1.65785 0.534875 0
M  V30 1098 C 97.8396 -3.20802 1.1532 0
M  V30 1099 H 99.0326 -1.85694 2.35494 0
M  V30 1100 H 96.5856 -0.938059 1.25021 0
M  V30 1101 H 97.3206 -3.23772 0.185036 0
M  V30 1102 H 97.1056 -3.4006 1.95197 0
M  V30 1103 H 98.5956 -4.00862 1.17046 0
M  V30 1104 N 99.0327 -1.24633 -0.964593 0
M  V30 1105 C 99.9627 -1.06611 -2.07741 0
M  V30 1106 C 100.944 0.0218666 -1.70086 0
M  V30 1107 O 102.129 -0.145793 -1.93652 0
M  V30 1108 C 99.2587 -0.673444 -3.40708 0
M  V30 1109 C 98.2127 -1.71054 -3.92332 0
M  V30 1110 C 97.5387 -1.17285 -5.21678 0
M  V30 1111 C 98.8387 -3.10718 -4.19824 0
M  V30 1112 H 100.533 -1.99693 -2.23076 0
M  V30 1113 H 98.0787 -0.96152 -1.07195 0
M  V30 1114 H 100.032 -0.534345 -4.17998 0
M  V30 1115 H 98.7557 0.293073 -3.25282 0
M  V30 1116 H 97.4147 -1.83791 -3.17201 0
M  V30 1117 H 97.0627 -0.196847 -5.02615 0
M  V30 1118 H 96.7627 -1.86592 -5.57187 0
M  V30 1119 H 98.2867 -1.04593 -6.01575 0
M  V30 1120 H 99.7007 -3.01192 -4.87808 0
M  V30 1121 H 98.0977 -3.77406 -4.66567 0
M  V30 1122 H 99.1677 -3.58524 -3.26479 0
M  V30 1123 N 100.511 1.16574 -1.06058 0
M  V30 1124 C 101.421 2.2452 -0.680282 0
M  V30 1125 C 102.437 1.71348 0.302604 0
M  V30 1126 O 103.613 2.00822 0.152513 0
M  V30 1127 C 100.678 3.46629 -0.0700315 0
M  V30 1128 C 99.7388 4.14849 -1.10448 0
M  V30 1129 C 98.9718 5.31129 -0.523256 0
M  V30 1130 O 99.1948 5.66514 0.664709 0
M  V30 1131 O 98.1288 5.88526 -1.26179 0
M  V30 1132 H 101.955 2.59355 -1.58015 0
M  V30 1133 H 99.5398 1.24043 -0.832694 0
M  V30 1134 H 101.422 4.20543 0.268667 0
M  V30 1135 H 100.097 3.13573 0.803353 0
M  V30 1136 H 99.0038 3.42916 -1.49532 0
M  V30 1137 H 100.337 4.51954 -1.94931 0
M  V30 1138 N 101.989 0.842826 1.3317 0
M  V30 1139 C 103.214 0.453129 2.02389 0
M  V30 1140 C 103.639 -0.939105 1.6298 0
M  V30 1141 O 102.997 -1.61472 0.8244 0
M  V30 1142 C 103.045 0.586094 3.55805 0
M  V30 1143 O 102.149 -0.386029 4.10589 0
M  V30 1144 H 101.49 0.183664 0.638094 0
M  V30 1145 H 104.02 1.13875 1.69981 0
M  V30 1146 H 104.03 0.469209 4.05293 0
M  V30 1147 H 102.705 1.6014 3.83833 0
M  V30 1148 H 101.282 -0.226371 3.72212 0
M  V30 1149 N 103.467 -1.45747 0.599634 0
M  V30 1150 C 104.397 -2.33235 -0.111306 0
M  V30 1151 C 105.378 -1.46359 -0.866781 0
M  V30 1152 O 106.563 -1.75146 -0.838904 0
M  V30 1153 C 103.693 -3.28932 -1.11451 0
M  V30 1154 C 102.647 -4.25381 -0.472772 0
M  V30 1155 C 101.973 -5.1071 -1.58365 0
M  V30 1156 C 103.273 -5.18831 0.600948 0
M  V30 1157 H 104.967 -2.92927 0.61919 0
M  V30 1158 H 102.513 -1.40857 0.299215 0
M  V30 1159 H 104.466 -3.89002 -1.62036 0
M  V30 1160 H 103.19 -2.67381 -1.8755 0
M  V30 1161 H 101.849 -3.66598 0.0121472 0
M  V30 1162 H 101.497 -4.45533 -2.33473 0
M  V30 1163 H 101.197 -5.7604 -1.15982 0
M  V30 1164 H 102.721 -5.73647 -2.09194 0
M  V30 1165 H 104.135 -5.73019 0.179491 0
M  V30 1166 H 102.532 -5.92595 0.946076 0
M  V30 1167 H 103.602 -4.6174 1.48068 0
M  V30 1168 N 104.945 -0.338344 -1.53925 0
M  V30 1169 C 105.892 0.520845 -2.24846 0
M  V30 1170 C 106.862 1.09976 -1.24477 0
M  V30 1171 O 108.047 1.13735 -1.53196 0
M  V30 1172 C 105.187 1.6685 -3.02084 0
M  V30 1173 C 104.3 1.11739 -4.17299 0
M  V30 1174 C 103.435 2.23193 -4.82036 0
M  V30 1175 C 102.474 1.65407 -5.89328 0
M  V30 1176 N 101.611 2.70582 -6.47866 0
M  V30 1177 H 106.451 -0.0904881 -2.97863 0
M  V30 1178 H 103.988 -0.0564282 -1.46992 0
M  V30 1179 H 105.946 2.34407 -3.45122 0
M  V30 1180 H 104.576 2.2509 -2.31375 0
M  V30 1181 H 103.628 0.332919 -3.7894 0
M  V30 1182 H 104.94 0.654677 -4.94485 0
M  V30 1183 H 104.094 2.98626 -5.28117 0
M  V30 1184 H 102.833 2.72807 -4.04262 0
M  V30 1185 H 101.838 0.884779 -5.42634 0
M  V30 1186 H 103.063 1.16652 -6.69006 0
M  V30 1187 H 101.009 3.1946 -5.72959 0
M  V30 1188 H 100.926 2.28917 -7.20509 0
M  V30 1189 H 102.194 3.45799 -6.98601 0
M  V30 1190 N 106.423 1.57458 -0.0668435 0
M  V30 1191 C 107.333 2.15937 0.916975 0
M  V30 1192 C 108.349 1.12123 1.33058 0
M  V30 1193 O 109.525 1.44366 1.40429 0
M  V30 1194 C 106.59 2.70547 2.16807 0
M  V30 1195 C 105.651 3.89215 1.81135 0
M  V30 1196 C 104.884 4.41211 3.0028 0
M  V30 1197 O 105.107 3.92225 4.14144 0
M  V30 1198 O 104.041 5.32605 2.80384 0
M  V30 1199 H 107.867 3.00354 0.449561 0
M  V30 1200 H 105.452 1.48584 0.155949 0
M  V30 1201 H 107.334 3.0557 2.90181 0
M  V30 1202 H 106.009 1.89192 2.62656 0
M  V30 1203 H 104.916 3.59054 1.05028 0
M  V30 1204 H 106.249 4.71848 1.40073 0
M  V30 1205 N 107.901 -0.206675 1.56239 0
M  V30 1206 C 109.15 -0.926964 1.79138 0
M  V30 1207 C 109.463 -1.84901 0.638043 0
M  V30 1208 O 110.669 -2.60906 0.751033 0
M  V30 1209 C 109.125 -1.6986 3.17294 0
M  V30 1210 C 108.733 -0.821956 4.40395 0
M  V30 1211 C 110.477 -2.40922 3.4951 0
M  V30 1212 C 108.384 -1.59179 5.69575 0
M  V30 1213 H 107.314 -0.349864 0.667915 0
M  V30 1214 H 109.965 -0.180487 1.8261 0
M  V30 1215 H 108.347 -2.48853 3.08039 0
M  V30 1216 H 109.521 -0.0715019 4.60745 0
M  V30 1217 H 107.836 -0.222741 4.15804 0
M  V30 1218 H 110.433 -2.99047 4.43255 0
M  V30 1219 H 110.776 -3.14542 2.72707 0
M  V30 1220 H 111.309 -1.68905 3.60161 0
M  V30 1221 H 108.048 -0.898589 6.49312 0
M  V30 1222 H 107.568 -2.31648 5.53262 0
M  V30 1223 H 109.247 -2.14862 6.10281 0
M  V30 1224 N 109.379 -1.50304 -0.473955 0
M  V30 1225 C 110.628 -1.60392 -1.22301 0
M  V30 1226 C 110.941 -0.308411 -1.93153 0
M  V30 1227 O 112.147 -0.288156 -2.69966 0
M  V30 1228 C 110.603 -2.83109 -2.2221 0
M  V30 1229 C 110.211 -4.19524 -1.57173 0
M  V30 1230 C 111.955 -3.0254 -2.97775 0
M  V30 1231 C 109.862 -5.33431 -2.55353 0
M  V30 1232 H 108.792 -0.597286 -0.460179 0
M  V30 1233 H 111.443 -1.76731 -0.493803 0
M  V30 1234 H 109.825 -2.60322 -2.9841 0
M  V30 1235 H 110.999 -4.52554 -0.867824 0
M  V30 1236 H 109.314 -4.05674 -0.939002 0
M  V30 1237 H 111.911 -3.84811 -3.71248 0
M  V30 1238 H 112.254 -2.14154 -3.56992 0
M  V30 1239 H 112.787 -3.25494 -2.28688 0
M  V30 1240 H 109.526 -6.23962 -2.00878 0
M  V30 1241 H 109.046 -5.04823 -3.23904 0
M  V30 1242 H 110.725 -5.63887 -3.17239 0
M  V30 1243 N 110.857 0.726932 -1.39834 0
M  V30 1244 C 111.787 1.85405 -1.41941 0
M  V30 1245 C 112.768 1.67751 -0.281728 0
M  V30 1246 O 113.953 1.8795 -0.488717 0
M  V30 1247 C 111.083 3.23243 -1.2701 0
M  V30 1248 C 110.037 3.55549 -2.38262 0
M  V30 1249 C 109.363 4.9241 -2.08415 0
M  V30 1250 C 110.663 3.577 -3.80589 0
M  V30 1251 H 112.357 1.83899 -2.36266 0
M  V30 1252 H 109.903 0.883349 -1.13723 0
M  V30 1253 H 111.856 4.01775 -1.27103 0
M  V30 1254 H 110.58 3.25296 -0.291564 0
M  V30 1255 H 109.239 2.79351 -2.37399 0
M  V30 1256 H 108.887 4.91052 -1.0898 0
M  V30 1257 H 108.587 5.14992 -2.82943 0
M  V30 1258 H 110.111 5.73289 -2.10171 0
M  V30 1259 H 111.525 4.26293 -3.83337 0
M  V30 1260 H 109.922 3.91804 -4.54543 0
M  V30 1261 H 110.992 2.57328 -4.10987 0
M  V30 1262 N 112.336 1.25143 0.95797 0
M  V30 1263 C 113.246 1.06968 2.08794 0
M  V30 1264 C 114.262 0.00773911 1.73998 0
M  V30 1265 O 115.438 0.207972 2.00323 0
M  V30 1266 C 112.503 0.68691 3.39827 0
M  V30 1267 C 111.564 1.82641 3.88511 0
M  V30 1268 C 110.797 1.46181 5.1329 0
M  V30 1269 O 111.02 0.355971 5.69288 0
M  V30 1270 O 109.954 2.29085 5.566 0
M  V30 1271 H 113.78 2.01723 2.27027 0
M  V30 1272 H 111.365 1.04051 1.07209 0
M  V30 1273 H 113.247 0.485417 4.18595 0
M  V30 1274 H 111.922 -0.231417 3.22872 0
M  V30 1275 H 110.829 2.08274 3.10762 0
M  V30 1276 H 112.162 2.72386 4.09959 0
M  V30 1277 N 113.814 -1.1601 1.06675 0
M  V30 1278 C 115.063 -1.85973 0.780818 0
M  V30 1279 C 115.376 -1.82819 -0.695444 0
M  V30 1280 O 116.582 -2.484 -1.09589 0
M  V30 1281 C 115.038 -3.33757 1.34665 0
M  V30 1282 C 114.646 -3.45374 2.85343 0
M  V30 1283 C 116.39 -4.0895 1.13843 0
M  V30 1284 C 114.297 -4.87266 3.35151 0
M  V30 1285 H 113.227 -0.696661 0.288407 0
M  V30 1286 H 115.878 -1.30903 1.28595 0
M  V30 1287 H 114.26 -3.88456 0.769274 0
M  V30 1288 H 115.434 -3.00816 3.49065 0
M  V30 1289 H 113.749 -2.83619 3.04876 0
M  V30 1290 H 116.346 -5.13654 1.4854 0
M  V30 1291 H 116.689 -4.16229 0.0770282 0
M  V30 1292 H 117.222 -3.605 1.68179 0
M  V30 1293 H 113.961 -4.85168 4.40786 0
M  V30 1294 H 113.481 -5.32433 2.76179 0
M  V30 1295 H 115.16 -5.56097 3.30704 0
M  V30 1296 N 115.292 -0.849877 -1.32721 0
M  V30 1297 C 116.222 -0.306308 -2.31482 0
M  V30 1298 C 117.203 0.591952 -1.59468 0
M  V30 1299 O 118.388 0.513199 -1.87296 0
M  V30 1300 C 115.518 0.510204 -3.43532 0
M  V30 1301 C 114.472 -0.293209 -4.26994 0
M  V30 1302 C 113.798 0.647743 -5.30762 0
M  V30 1303 C 115.098 -1.51634 -4.99804 0
M  V30 1304 H 116.792 -1.13153 -2.77195 0
M  V30 1305 H 114.338 -0.545553 -1.33266 0
M  V30 1306 H 116.291 0.900856 -4.11658 0
M  V30 1307 H 115.015 1.36874 -2.96535 0
M  V30 1308 H 113.674 -0.665555 -3.60508 0
M  V30 1309 H 113.322 1.50299 -4.8002 0
M  V30 1310 H 113.022 0.11422 -5.87489 0
M  V30 1311 H 114.546 1.03567 -6.01753 0
M  V30 1312 H 115.96 -1.19824 -5.60638 0
M  V30 1313 H 114.357 -1.98745 -5.66234 0
M  V30 1314 H 115.427 -2.28018 -4.27943 0
M  V30 1315 N 116.77 1.45427 -0.607355 0
M  V30 1316 C 117.718 2.32269 0.12411 0
M  V30 1317 C 118.712 1.45955 0.859854 0
M  V30 1318 O 119.918 1.6244 0.775447 0
M  V30 1319 H 116.293 0.749691 0.0588839 0
M  V30 1320 H 118.264 2.91743 -0.626762 0
M  V30 1321 C 117.013 3.29567 1.1082 0
M  V30 1322 H 116.336 3.95978 0.551492 0
M  V30 1323 H 117.776 3.93061 1.58995 0
M  V30 1324 C 116.235 2.56722 2.18164 0
M  V30 1325 O 116.765 2.34842 3.25902 0
M  V30 1326 N 114.971 2.16861 1.93442 0
M  V30 1327 H 114.518 2.34855 1.05834 0
M  V30 1328 H 114.476 1.68444 2.65469 0
M  V30 1329 N 118.248 0.346503 1.53744 0
M  V30 1330 C 119.495 -0.249104 2.00962 0
M  V30 1331 C 119.823 -1.5032 1.23426 0
M  V30 1332 O 119.078 -1.93217 0.310761 0
M  V30 1333 C 119.377 -0.605809 3.52228 0
M  V30 1334 C 119.043 0.551747 4.47512 0
M  V30 1335 C 117.705 0.86941 4.73281 0
M  V30 1336 C 120.057 1.32818 5.03993 0
M  V30 1337 C 117.385 1.96582 5.52786 0
M  V30 1338 C 119.737 2.41486 5.84694 0
M  V30 1339 C 118.401 2.73808 6.08757 0
M  V30 1340 H 117.671 -0.0911538 0.735372 0
M  V30 1341 H 120.318 0.475027 1.85515 0
M  V30 1342 H 118.623 -1.4107 3.65522 0
M  V30 1343 H 120.32 -1.07858 3.86222 0
M  V30 1344 H 116.91 0.294102 4.2759 0
M  V30 1345 H 121.094 1.09602 4.84047 0
M  V30 1346 H 116.35 2.22045 5.69654 0
M  V30 1347 H 120.524 3.02078 6.27473 0
M  V30 1348 H 118.151 3.58892 6.7015 0
M  V30 1349 N 119.726 -1.57421 0.075193 0
M  V30 1350 C 121.003 -1.85029 -0.634329 0
M  V30 1351 C 121.383 -0.968305 -1.87582 0
M  V30 1352 O 120.731 -0.0354749 -2.28472 0
M  V30 1353 C 120.941 -3.35286 -0.968742 0
M  V30 1354 C 122.289 -4.02875 -1.34077 0
M  V30 1355 O 123.313 -3.40051 -1.06037 0
M  V30 1356 O 122.172 -5.13691 -1.86506 0
M  V30 1357 H 119.266 -0.7645 -0.315387 0
M  V30 1358 H 121.812 -1.69366 0.106382 0
M  V30 1359 H 120.584 -3.91203 -0.0871376 0
M  V30 1360 H 120.207 -3.56223 -1.7661 0
M  V30 1361 N 121.204 0.198386 -1.56346 0
M  V30 1362 C 122.432 0.935572 -1.84539 0
M  V30 1363 C 122.847 1.76989 -0.657281 0
M  V30 1364 O 122.204 1.78626 0.374043 0
M  V30 1365 C 122.255 1.8344 -3.11499 0
M  V30 1366 O 121.976 1.03377 -4.25728 0
M  V30 1367 C 123.477 2.68355 -3.52846 0
M  V30 1368 H 120.697 0.273126 -0.612897 0
M  V30 1369 H 123.241 0.20663 -2.03453 0
M  V30 1370 H 121.396 2.51701 -2.94492 0
M  V30 1371 H 121.81 1.64599 -4.98003 0
M  V30 1372 H 123.284 3.27085 -4.44657 0
M  V30 1373 H 123.761 3.41901 -2.75681 0
M  V30 1374 H 124.367 2.05471 -3.72373 0
M  V30 1375 N 122.682 1.50554 0.465978 0
M  V30 1376 C 123.629 1.6979 1.56333 0
M  V30 1377 C 124.599 0.539239 1.57103 0
M  V30 1378 O 125.784 0.770401 1.74555 0
M  V30 1379 C 122.924 1.80273 2.94271 0
M  V30 1380 C 122.037 3.07674 3.0325 0
M  V30 1381 C 121.172 3.08922 4.32135 0
M  V30 1382 C 120.211 4.30755 4.34875 0
M  V30 1383 N 119.348 4.29714 5.55239 0
M  V30 1384 H 124.188 2.63472 1.39235 0
M  V30 1385 H 121.725 1.30602 0.676873 0
M  V30 1386 H 123.683 1.84332 3.74269 0
M  V30 1387 H 122.313 0.900258 3.09992 0
M  V30 1388 H 121.365 3.13062 2.16094 0
M  V30 1389 H 122.677 3.97642 3.01135 0
M  V30 1390 H 121.831 3.11738 5.20485 0
M  V30 1391 H 120.57 2.16792 4.36866 0
M  V30 1392 H 119.575 4.28146 3.44922 0
M  V30 1393 H 120.8 5.24117 4.31831 0
M  V30 1394 H 118.746 3.4044 5.60746 0
M  V30 1395 H 118.663 5.13456 5.54886 0
M  V30 1396 H 119.931 4.36683 6.457 0
M  V30 1397 N 124.16 -0.719506 1.40217 0
M  V30 1398 C 125.09 -1.8465 1.42922 0
M  V30 1399 C 126.071 -1.67599 0.29062 0
M  V30 1400 O 127.256 -1.87688 0.498677 0
M  V30 1401 C 124.386 -3.22565 1.28722 0
M  V30 1402 C 123.34 -3.54281 2.40144 0
M  V30 1403 C 122.666 -4.91298 2.11023 0
M  V30 1404 C 123.966 -3.55676 3.82481 0
M  V30 1405 H 125.66 -1.82644 2.37237 0
M  V30 1406 H 123.206 -0.877305 1.1419 0
M  V30 1407 H 125.159 -4.01095 1.29232 0
M  V30 1408 H 123.883 -3.25137 0.308811 0
M  V30 1409 H 122.542 -2.78088 2.38877 0
M  V30 1410 H 122.19 -4.90468 1.11582 0
M  V30 1411 H 121.89 -5.13485 2.8567 0
M  V30 1412 H 123.414 -5.72166 2.13209 0
M  V30 1413 H 124.828 -4.24254 3.85592 0
M  V30 1414 H 123.225 -3.89388 4.56614 0
M  V30 1415 H 124.295 -2.55144 4.12346 0
M  V30 1416 N 125.638 -1.25649 -0.95132 0
M  V30 1417 C 126.586 -1.06118 -2.06982 0
M  V30 1418 C 127.58 0.00889169 -1.69398 0
M  V30 1419 O 128.786 -0.146988 -1.79399 0
M  V30 1420 H 125.161 -0.326248 -0.677544 0
M  V30 1421 H 127.132 -2.00932 -2.2061 0
M  V30 1422 C 125.881 -0.700145 -3.40578 0
M  V30 1423 H 125.204 -1.51537 -3.69968 0
M  V30 1424 H 126.644 -0.603211 -4.19687 0
M  V30 1425 C 125.103 0.59403 -3.31622 0
M  V30 1426 O 125.633 1.63522 -3.66911 0
M  V30 1427 N 123.839 0.58089 -2.84735 0
M  V30 1428 H 123.386 -0.266783 -2.56215 0
M  V30 1429 H 123.344 1.44695 -2.79125 0
M  V30 1430 N 127.117 1.15442 -1.07289 0
M  V30 1431 C 128.363 1.86489 -0.796846 0
M  V30 1432 C 128.696 1.82078 0.675371 0
M  V30 1433 O 127.971 1.24346 1.4956 0
M  V30 1434 C 128.254 3.35626 -1.30489 0
M  V30 1435 C 128.107 3.48673 -2.84161 0
M  V30 1436 C 129.426 4.30357 -0.920907 0
M  V30 1437 H 126.545 0.677144 -0.290939 0
M  V30 1438 H 129.187 1.35633 -1.33056 0
M  V30 1439 H 127.337 3.79068 -0.850883 0
M  V30 1440 H 129.009 3.14099 -3.37846 0
M  V30 1441 H 127.252 2.90253 -3.22391 0
M  V30 1442 H 127.923 4.53453 -3.14777 0
M  V30 1443 H 130.399 3.94871 -1.3121 0
M  V30 1444 H 129.275 5.33193 -1.30372 0
M  V30 1445 H 129.536 4.4176 0.173226 0
M  V30 1446 N 128.595 0.856903 1.32268 0
M  V30 1447 C 130.006 0.515711 1.79436 0
M  V30 1448 C 130.357 -0.966586 1.70738 0
M  V30 1449 O 129.482 -1.75409 1.26731 0
M  V30 1450 C 130.077 0.929335 3.25805 0
M  V30 1451 C 128.636 0.640006 3.70919 0
M  V30 1452 C 127.783 1.12784 2.53328 0
M  V30 1453 H 130.734 1.04389 1.19535 0
M  V30 1454 H 130.755 0.246633 3.797 0
M  V30 1455 H 130.267 2.00821 3.32103 0
M  V30 1456 H 128.368 -0.428051 3.70133 0
M  V30 1457 H 128.481 1.20788 4.63624 0
M  V30 1458 H 126.845 0.548033 2.48734 0
M  V30 1459 H 127.628 2.21387 2.62379 0
M  V30 1460 N 130.073 -1.45103 0.615059 0
M  V30 1461 C 131.484 -1.85654 0.197383 0
M  V30 1462 C 131.835 -1.51433 -1.24749 0
M  V30 1463 O 130.96 -0.944608 -1.94695 0
M  V30 1464 C 131.555 -3.36972 0.351448 0
M  V30 1465 C 130.114 -3.76398 -0.011593 0
M  V30 1466 C 129.261 -2.69024 0.672394 0
M  V30 1467 H 132.212 -1.35797 0.821263 0
M  V30 1468 H 132.233 -3.78239 -0.414227 0
M  V30 1469 H 131.745 -3.61847 1.40314 0
M  V30 1470 H 129.846 -3.5714 -1.06217 0
M  V30 1471 H 129.959 -4.77532 0.387265 0
M  V30 1472 H 128.323 -2.54465 0.109284 0
M  V30 1473 H 129.106 -2.96735 1.72636 0
M  V30 1474 N 131.551 -0.354651 -1.53558 0
M  V30 1475 C 132.461 0.50515 -2.29097 0
M  V30 1476 C 133.477 1.10223 -1.34636 0
M  V30 1477 O 134.653 1.11553 -1.67684 0
M  V30 1478 C 131.718 1.63479 -3.05738 0
M  V30 1479 C 130.779 1.06636 -4.15845 0
M  V30 1480 C 130.012 2.14217 -4.88822 0
M  V30 1481 O 130.235 3.35137 -4.61562 0
M  V30 1482 O 129.169 1.77887 -5.75013 0
M  V30 1483 H 132.995 -0.109237 -3.03503 0
M  V30 1484 H 130.58 -0.119357 -1.48922 0
M  V30 1485 H 132.462 2.2918 -3.5363 0
M  V30 1486 H 131.137 2.23478 -2.34178 0
M  V30 1487 H 130.044 0.373565 -3.7223 0
M  V30 1488 H 131.377 0.511081 -4.89539 0
M  V30 1489 N 133.029 1.57378 -0.0835403 0
M  V30 1490 C 134.44 1.81261 0.447358 0
M  V30 1491 C 134.791 0.998331 1.68902 0
M  V30 1492 O 133.916 0.224282 2.15235 0
M  V30 1493 C 134.511 3.28767 0.818386 0
M  V30 1494 C 133.07 3.53455 1.29409 0
M  V30 1495 C 132.217 2.75831 0.285024 0
M  V30 1496 H 135.168 1.5566 -0.309115 0
M  V30 1497 H 135.189 3.41459 1.67887 0
M  V30 1498 H 134.701 3.88006 -0.0855019 0
M  V30 1499 H 132.802 2.99534 2.21608 0
M  V30 1500 H 132.915 4.62128 1.2639 0
M  V30 1501 H 131.279 2.42947 0.764767 0
M  V30 1502 H 132.062 3.37813 -0.611341 0
M  V30 1503 N 134.507 -0.190092 1.56449 0
M  V30 1504 C 135.918 -0.754312 1.70784 0
M  V30 1505 C 136.269 -1.83631 0.690951 0
M  V30 1506 O 135.394 -2.15868 -0.151604 0
M  V30 1507 C 135.989 -1.37503 3.09642 0
M  V30 1508 C 134.548 -1.88628 3.25725 0
M  V30 1509 C 133.695 -0.758098 2.66736 0
M  V30 1510 H 136.646 0.0350524 1.58661 0
M  V30 1511 H 136.667 -2.2445 3.0725 0
M  V30 1512 H 136.179 -0.587302 3.83631 0
M  V30 1513 H 134.28 -2.70103 2.56661 0
M  V30 1514 H 134.393 -2.04462 4.3328 0
M  V30 1515 H 132.757 -1.17369 2.26046 0
M  V30 1516 H 133.54 0.0174705 3.43296 0
M  V30 1517 N 135.985 -1.50799 -0.457987 0
M  V30 1518 C 137.232 -1.62442 -1.20908 0
M  V30 1519 C 137.56 -0.330865 -1.91665 0
M  V30 1520 O 136.815 0.68401 -1.83357 0
M  V30 1521 C 137.114 -2.76358 -2.2663 0
M  V30 1522 C 136.78 -4.16378 -1.73033 0
M  V30 1523 C 135.442 -4.54473 -1.58138 0
M  V30 1524 C 137.794 -5.03836 -1.33413 0
M  V30 1525 C 135.122 -5.77754 -1.02065 0
M  V30 1526 C 137.474 -6.27676 -0.78778 0
M  V30 1527 C 136.138 -6.64562 -0.625561 0
M  V30 1528 H 135.408 -0.594417 -0.442435 0
M  V30 1529 H 138.055 -1.84772 -0.503136 0
M  V30 1530 H 136.36 -2.48167 -3.03184 0
M  V30 1531 H 138.057 -2.82568 -2.84528 0
M  V30 1532 H 134.647 -3.86331 -1.85598 0
M  V30 1533 H 138.831 -4.75026 -1.4375 0
M  V30 1534 H 134.087 -6.04997 -0.882547 0
M  V30 1535 H 138.261 -6.94797 -0.472177 0
M  V30 1536 H 135.888 -7.59965 -0.188926 0
M  V30 1537 N 137.463 0.71206 -1.40597 0
M  V30 1538 C 138.709 1.47416 -1.39271 0
M  V30 1539 C 139.042 1.942 0.00388791 0
M  V30 1540 O 138.317 1.68403 0.973179 0
M  V30 1541 C 138.6 2.69774 -2.38525 0
M  V30 1542 C 138.453 2.28861 -3.87224 0
M  V30 1543 C 139.772 3.71939 -2.35264 0
M  V30 1544 H 136.891 0.534713 -0.5072 0
M  V30 1545 H 139.533 0.812375 -1.71757 0
M  V30 1546 H 137.683 3.26238 -2.10953 0
M  V30 1547 H 139.355 1.77852 -4.25636 0
M  V30 1548 H 137.598 1.60824 -4.02887 0
M  V30 1549 H 138.269 3.16584 -4.52193 0
M  V30 1550 H 140.745 3.25113 -2.59694 0
M  V30 1551 H 139.621 4.55186 -3.06753 0
M  V30 1552 H 139.882 4.20484 -1.36549 0
M  V30 1553 N 138.941 1.26152 0.944643 0
M  V30 1554 C 140.19 1.10883 1.68487 0
M  V30 1555 C 140.503 -0.348153 1.92477 0
M  V30 1556 O 141.709 -0.621459 2.64292 0
M  V30 1557 C 140.165 1.93624 3.03377 0
M  V30 1558 C 139.773 3.43875 2.87148 0
M  V30 1559 C 141.517 1.86954 3.81115 0
M  V30 1560 C 139.424 4.18875 4.1749 0
M  V30 1561 H 138.354 0.41135 0.631907 0
M  V30 1562 H 141.005 1.50433 1.05082 0
M  V30 1563 H 139.387 1.46904 3.67743 0
M  V30 1564 H 140.561 3.98338 2.31653 0
M  V30 1565 H 138.876 3.51744 2.22856 0
M  V30 1566 H 141.473 2.40275 4.77673 0
M  V30 1567 H 141.816 0.839518 4.07747 0
M  V30 1568 H 142.349 2.31477 3.23517 0
M  V30 1569 H 139.088 5.22332 3.96043 0
M  V30 1570 H 138.608 3.69193 4.72712 0
M  V30 1571 H 140.287 4.27134 4.85968 0
M  V30 1572 N 140.419 -1.14872 1.07899 0
M  V30 1573 C 141.352 -2.18794 0.64841 0
M  V30 1574 C 142.33 -1.59065 -0.337189 0
M  V30 1575 O 143.514 -1.86936 -0.242284 0
M  V30 1576 C 140.641 -3.38667 -0.0470417 0
M  V30 1577 C 139.687 -4.16942 0.897884 0
M  V30 1578 S 140.52 -4.78615 2.40183 0
M  V30 1579 C 141.676 -6.0185 1.71834 0
M  V30 1580 H 141.909 -2.5498 1.52881 0
M  V30 1581 H 139.442 -1.25922 0.893484 0
M  V30 1582 H 141.4 -4.08113 -0.442027 0
M  V30 1583 H 140.061 -3.00814 -0.903861 0
M  V30 1584 H 139.254 -5.02726 0.358096 0
M  V30 1585 H 138.856 -3.53073 1.23352 0
M  V30 1586 H 141.148 -6.69574 1.03328 0
M  V30 1587 H 142.091 -6.60408 2.55473 0
M  V30 1588 H 142.499 -5.5173 1.19392 0
M  V30 1589 N 141.898 -0.863906 -1.31812 0
M  V30 1590 C 143.144 -0.472535 -1.97218 0
M  V30 1591 C 143.477 0.971394 -1.68159 0
M  V30 1592 O 142.752 1.68309 -0.974798 0
M  V30 1593 C 143.035 -0.723054 -3.52766 0
M  V30 1594 C 142.888 -2.21608 -3.91421 0
M  V30 1595 C 144.207 -0.185522 -4.39709 0
M  V30 1596 H 141.326 -0.173158 -0.71637 0
M  V30 1597 H 143.968 -1.08403 -1.56041 0
M  V30 1598 H 142.118 -0.202577 -3.87971 0
M  V30 1599 H 143.79 -2.80334 -3.66347 0
M  V30 1600 H 142.033 -2.691 -3.40246 0
M  V30 1601 H 142.704 -2.34203 -4.99853 0
M  V30 1602 H 145.18 -0.630726 -4.11292 0
M  V30 1603 H 144.056 -0.390306 -5.47511 0
M  V30 1604 H 144.317 0.912229 -4.32586 0
M  V30 1605 N 143.376 1.44774 -0.622745 0
M  V30 1606 C 144.622 2.0242 -0.124083 0
M  V30 1607 C 144.955 1.4881 1.24777 0
M  V30 1608 O 144.23 0.668799 1.8264 0
M  V30 1609 C 144.513 3.59957 -0.101619 0
M  V30 1610 C 144.366 4.23867 -1.50521 0
M  V30 1611 C 145.685 4.36284 0.578272 0
M  V30 1612 H 142.804 0.735528 -0.0465645 0
M  V30 1613 H 145.446 1.72447 -0.797617 0
M  V30 1614 H 143.596 3.85623 0.471934 0
M  V30 1615 H 145.268 4.09336 -2.12701 0
M  V30 1616 H 143.511 3.81684 -2.06154 0
M  V30 1617 H 144.182 5.32843 -1.4416 0
M  V30 1618 H 146.658 4.16001 0.0906057 0
M  V30 1619 H 145.534 5.46004 0.563149 0
M  V30 1620 H 145.795 4.10271 1.64713 0
M  V30 1621 N 144.854 0.36279 1.53368 0
M  V30 1622 C 146.102 -0.227326 2.00817 0
M  V30 1623 C 146.423 -1.49511 1.25186 0
M  V30 1624 O 145.693 -1.92482 0.364348 0
M  V30 1625 H 144.273 -0.0869923 0.741917 0
M  V30 1626 H 146.935 0.488381 1.88682 0
M  V30 1627 H 146.031 -0.456273 3.08747 0
M  V30 1628 N 146.332 -1.57332 0.0918853 0
M  V30 1629 C 147.578 -1.94524 -0.573425 0
M  V30 1630 C 147.911 -0.973578 -1.68033 0
M  V30 1631 O 147.186 -0.00609226 -1.94499 0
M  V30 1632 C 147.469 -3.41858 -1.13161 0
M  V30 1633 C 147.322 -4.4979 -0.0299747 0
M  V30 1634 C 148.641 -3.90435 -2.03098 0
M  V30 1635 H 145.76 -0.70734 -0.206975 0
M  V30 1636 H 148.402 -1.89309 0.161942 0
M  V30 1637 H 146.552 -3.46433 -1.7583 0
M  V30 1638 H 148.224 -4.57327 0.604112 0
M  V30 1639 H 146.467 -4.291 0.636833 0
M  V30 1640 H 147.138 -5.50069 -0.461287 0
M  V30 1641 H 149.614 -3.87992 -1.50338 0
M  V30 1642 H 148.49 -4.94097 -2.39081 0
M  V30 1643 H 148.751 -3.29541 -2.94712 0
M  V30 1644 N 147.81 0.181792 -1.56548 0
M  V30 1645 C 148.758 1.24461 -1.965 0
M  V30 1646 C 149.752 1.464 -0.852261 0
M  V30 1647 O 150.958 1.47103 -1.03733 0
M  V30 1648 H 147.333 0.418138 -0.625031 0
M  V30 1649 H 149.304 0.880714 -2.85107 0
M  V30 1650 C 148.053 2.57891 -2.33212 0
M  V30 1651 H 147.376 2.41829 -3.18369 0
M  V30 1652 H 148.816 3.3097 -2.65019 0
M  V30 1653 C 147.275 3.15871 -1.17163 0
M  V30 1654 O 147.805 3.9913 -0.453708 0
M  V30 1655 N 146.011 2.74808 -0.944936 0
M  V30 1656 H 145.558 2.07205 -1.53049 0
M  V30 1657 H 145.516 3.13939 -0.170286 0
M  V30 1658 N 149.288 1.51039 0.449983 0
M  V30 1659 C 150.536 1.62759 1.19808 0
M  V30 1660 C 150.857 0.339981 1.92013 0
M  V30 1661 O 150.127 -0.643606 1.85026 0
M  V30 1662 H 148.707 0.599811 0.445237 0
M  V30 1663 H 151.369 1.87914 0.517138 0
M  V30 1664 H 150.465 2.44911 1.93455 0
M  V30 1665 N 150.766 -0.704594 1.40972 0
M  V30 1666 C 151.994 -1.49354 1.43182 0
M  V30 1667 C 152.409 -1.88768 0.0345508 0
M  V30 1668 O 151.766 -1.56184 -0.944081 0
M  V30 1669 C 151.817 -2.76187 2.33244 0
M  V30 1670 O 151.538 -2.38436 3.67532 0
M  V30 1671 C 153.039 -3.7 2.44162 0
M  V30 1672 H 150.259 -0.460559 0.487982 0
M  V30 1673 H 152.803 -0.868261 1.85153 0
M  V30 1674 H 150.958 -3.34974 1.94606 0
M  V30 1675 H 151.372 -3.20126 4.15475 0
M  V30 1676 H 152.846 -4.55803 3.11364 0
M  V30 1677 H 153.323 -4.13867 1.47006 0
M  V30 1678 H 153.929 -3.17121 2.83398 0
M  V30 1679 N 152.244 -1.26651 -0.937939 0
M  V30 1680 C 153.492 -1.12165 -1.68118 0
M  V30 1681 C 153.813 0.334983 -1.92101 0
M  V30 1682 O 153.083 1.23583 -1.52 0
M  V30 1683 H 151.663 -0.412093 -0.623048 0
M  V30 1684 H 154.325 -1.59027 -1.12678 0
M  V30 1685 H 153.421 -1.64289 -2.6536 0
M  V30 1686 N 153.722 1.14298 -1.08507 0
M  V30 1687 C 154.669 2.19414 -0.715965 0
M  V30 1688 C 155.639 1.63399 0.298326 0
M  V30 1689 O 156.824 1.89929 0.182101 0
M  V30 1690 C 153.964 3.44845 -0.132534 0
M  V30 1691 C 153.077 4.15007 -1.19973 0
M  V30 1692 C 152.212 5.28024 -0.580048 0
M  V30 1693 C 151.251 5.9002 -1.62921 0
M  V30 1694 N 150.388 6.94485 -1.03125 0
M  V30 1695 H 155.228 2.50336 -1.61666 0
M  V30 1696 H 152.765 1.2293 -0.807882 0
M  V30 1697 H 154.723 4.16601 0.223454 0
M  V30 1698 H 153.353 3.14403 0.731467 0
M  V30 1699 H 152.405 3.41629 -1.67313 0
M  V30 1700 H 153.717 4.57178 -1.99473 0
M  V30 1701 H 152.871 6.06455 -0.172364 0
M  V30 1702 H 151.61 4.87076 0.246603 0
M  V30 1703 H 150.615 5.10291 -2.04654 0
M  V30 1704 H 151.84 6.33042 -2.45835 0
M  V30 1705 H 149.786 6.55612 -0.225711 0
M  V30 1706 H 149.703 7.35148 -1.76334 0
M  V30 1707 H 150.971 7.7679 -0.649458 0
M  V30 1708 N 155.201 0.870884 1.31352 0
M  V30 1709 C 156.429 0.49677 2.00848 0
M  V30 1710 C 156.844 -0.910998 1.65367 0
M  V30 1711 O 156.201 -1.59696 0.883374 0
M  V30 1712 C 156.252 0.645308 3.55694 0
M  V30 1713 O 155.973 1.99764 3.89905 0
M  V30 1714 C 157.474 0.272326 4.42463 0
M  V30 1715 H 154.694 0.193462 0.642506 0
M  V30 1716 H 157.238 1.1723 1.67563 0
M  V30 1717 H 155.393 0.0173176 3.87396 0
M  V30 1718 H 155.807 2.00607 4.84621 0
M  V30 1719 H 157.281 0.427208 5.50344 0
M  V30 1720 H 157.758 -0.788587 4.32062 0
M  V30 1721 H 158.364 0.876054 4.1618 0
M  V30 1722 N 156.679 -1.44442 0.630414 0
M  V30 1723 C 157.907 -2.06414 0.141671 0
M  V30 1724 C 158.322 -1.47105 -1.18345 0
M  V30 1725 O 157.679 -0.593662 -1.72574 0
M  V30 1726 C 157.73 -3.61494 0.0199784 0
M  V30 1727 O 157.451 -4.18594 1.29269 0
M  V30 1728 C 158.952 -4.40499 -0.497544 0
M  V30 1729 H 156.172 -0.666292 0.0793452 0
M  V30 1730 H 158.716 -1.85323 0.864614 0
M  V30 1731 H 156.871 -3.8185 -0.653402 0
M  V30 1732 H 157.285 -5.12026 1.13707 0
M  V30 1733 H 158.759 -5.49433 -0.531708 0
M  V30 1734 H 159.236 -4.11895 -1.52445 0
M  V30 1735 H 159.842 -4.25061 0.142562 0
M  V30 1736 N 158.157 -0.370918 -1.53173 0
M  V30 1737 C 159.382 0.220293 -2.06227 0
M  V30 1738 C 159.807 1.41243 -1.24225 0
M  V30 1739 O 159.165 1.79387 -0.262645 0
M  V30 1740 C 159.213 0.586663 -3.55796 0
M  V30 1741 O 158.317 1.68317 -3.76488 0
M  V30 1742 H 157.658 0.0308099 -0.663285 0
M  V30 1743 H 160.188 -0.533068 -1.97534 0
M  V30 1744 H 160.198 0.85617 -3.98916 0
M  V30 1745 H 158.873 -0.285013 -4.14922 0
M  V30 1746 H 157.45 1.40881 -3.45264 0
M  V30 1747 N 159.635 1.57281 -0.100228 0
M  V30 1748 C 160.875 1.96419 0.56558 0
M  V30 1749 C 161.239 0.981265 1.65031 0
M  V30 1750 O 162.44 1.26133 2.37369 0
M  V30 1751 C 160.711 3.39996 1.10171 0
M  V30 1752 S 162.27 4.01134 1.77867 0
M  V30 1753 H 159.088 0.68667 0.184406 0
M  V30 1754 H 161.69 1.94662 -0.180851 0
M  V30 1755 H 160.394 4.09296 0.300803 0
M  V30 1756 H 159.925 3.45361 1.88385 0
M  V30 1757 H 161.94 3.90358 3.06326 0
M  V30 1758 N 161.113 -0.173488 1.56642 0
M  V30 1759 C 162.361 -0.888706 1.81512 0
M  V30 1760 C 162.682 -1.82875 0.676872 0
M  V30 1761 O 161.952 -1.93536 -0.303414 0
M  V30 1762 H 160.532 -0.331164 0.669582 0
M  V30 1763 H 163.194 -0.173823 1.94123 0
M  V30 1764 H 162.29 -1.46691 2.75478 0
M  V30 1765 N 162.591 -1.51276 -0.441967 0
M  V30 1766 C 163.538 -1.72256 -1.53612 0
M  V30 1767 C 164.508 -0.564164 -1.56225 0
M  V30 1768 O 165.693 -0.798074 -1.73307 0
M  V30 1769 C 162.833 -1.84932 -2.91366 0
M  V30 1770 C 161.946 -3.12459 -2.98317 0
M  V30 1771 C 161.081 -3.15758 -4.27166 0
M  V30 1772 C 160.12 -4.37619 -4.27967 0
M  V30 1773 N 159.257 -4.38493 -5.48333 0
M  V30 1774 H 164.097 -2.65654 -1.35026 0
M  V30 1775 H 161.634 -1.31662 -0.656009 0
M  V30 1776 H 163.592 -1.90263 -3.7129 0
M  V30 1777 H 162.222 -0.949461 -3.08521 0
M  V30 1778 H 161.274 -3.1646 -2.11086 0
M  V30 1779 H 162.586 -4.02382 -2.94771 0
M  V30 1780 H 161.74 -3.19979 -5.15459 0
M  V30 1781 H 160.479 -2.23715 -4.33362 0
M  V30 1782 H 159.484 -4.33579 -3.38067 0
M  V30 1783 H 160.709 -5.30921 -4.23438 0
M  V30 1784 H 158.655 -3.49318 -5.55259 0
M  V30 1785 H 158.572 -5.22219 -5.46647 0
M  V30 1786 H 159.84 -4.469 -6.38671 0
M  V30 1787 N 164.069 0.697108 -1.41344 0
M  V30 1788 C 164.999 1.82353 -1.45841 0
M  V30 1789 C 165.98 1.67115 -0.317247 0
M  V30 1790 O 167.165 1.86871 -0.528474 0
M  V30 1791 C 164.295 3.20476 -1.33838 0
M  V30 1792 C 163.249 3.50415 -2.4575 0
M  V30 1793 C 162.575 4.87878 -2.18813 0
M  V30 1794 C 163.875 3.49546 -3.88091 0
M  V30 1795 H 165.569 1.78846 -2.40113 0
M  V30 1796 H 163.115 0.859028 -1.15571 0
M  V30 1797 H 165.068 3.98988 -1.35596 0
M  V30 1798 H 163.792 3.24604 -0.360498 0
M  V30 1799 H 162.451 2.74253 -2.43271 0
M  V30 1800 H 162.099 4.8863 -1.19371 0
M  V30 1801 H 161.799 5.08875 -2.93803 0
M  V30 1802 H 163.323 5.68702 -2.22284 0
M  V30 1803 H 164.737 4.18066 -3.92293 0
M  V30 1804 H 163.134 3.82075 -4.62751 0
M  V30 1805 H 164.204 2.48552 -4.16353 0
M  V30 1806 N 165.547 1.27147 0.931209 0
M  V30 1807 C 166.51 1.09615 2.01289 0
M  V30 1808 C 167.51 0.0412581 1.60747 0
M  V30 1809 O 168.7 0.285545 1.71844 0
M  V30 1810 C 165.832 0.669447 3.34262 0
M  V30 1811 H 167.025 2.05662 2.18273 0
M  V30 1812 H 164.578 1.09885 1.11153 0
M  V30 1813 H 165.313 -0.292572 3.22978 0
M  V30 1814 H 165.098 1.43127 3.65044 0
M  V30 1815 H 166.588 0.568921 4.13706 0
M  V30 1816 N 167.025 -1.13721 1.09112 0
M  V30 1817 C 167.972 -2.19031 0.727591 0
M  V30 1818 C 168.942 -1.63555 -0.289656 0
M  V30 1819 O 170.127 -1.90023 -0.172026 0
M  V30 1820 C 167.267 -3.4477 0.15082 0
M  V30 1821 C 166.38 -4.14365 1.22172 0
M  V30 1822 C 165.515 -5.27709 0.608042 0
M  V30 1823 C 164.554 -5.89147 1.66047 0
M  V30 1824 N 163.691 -6.93929 1.06806 0
M  V30 1825 H 168.531 -2.49475 1.62991 0
M  V30 1826 H 166.068 -1.22499 0.81439 0
M  V30 1827 H 168.026 -4.16714 -0.201358 0
M  V30 1828 H 166.656 -3.14787 -0.714783 0
M  V30 1829 H 165.708 -3.40737 1.69122 0
M  V30 1830 H 167.02 -4.56114 2.01895 0
M  V30 1831 H 166.174 -6.06355 0.204523 0
M  V30 1832 H 164.913 -4.872 -0.220769 0
M  V30 1833 H 163.918 -5.09198 2.07357 0
M  V30 1834 H 165.143 -6.31729 2.49189 0
M  V30 1835 H 163.089 -6.55483 0.260476 0
M  V30 1836 H 163.006 -7.34202 1.8023 0
M  V30 1837 H 164.274 -7.76434 0.690644 0
M  V30 1838 N 168.503 -0.877838 -1.30888 0
M  V30 1839 C 169.436 -0.283995 -2.26426 0
M  V30 1840 C 170.414 0.591361 -1.51465 0
M  V30 1841 O 171.598 0.54304 -1.80509 0
M  V30 1842 C 168.725 0.597129 -3.33395 0
M  V30 1843 C 167.771 -0.207937 -4.25993 0
M  V30 1844 S 168.604 -1.59158 -5.11301 0
M  V30 1845 C 169.76 -0.716791 -6.21782 0
M  V30 1846 H 169.993 -1.09383 -2.76446 0
M  V30 1847 H 167.526 -0.676828 -1.38775 0
M  V30 1848 H 169.484 1.09978 -3.95493 0
M  V30 1849 H 168.145 1.38099 -2.82113 0
M  V30 1850 H 167.338 0.464163 -5.01858 0
M  V30 1851 H 166.94 -0.642963 -3.68432 0
M  V30 1852 H 169.232 0.0692833 -6.77465 0
M  V30 1853 H 170.175 -1.44682 -6.93161 0
M  V30 1854 H 170.583 -0.280855 -5.63801 0
M  V30 1855 N 169.982 1.44106 -0.638065 0
M  V30 1856 C 171.229 2.01978 -0.14533 0
M  V30 1857 C 171.557 1.50234 1.23532 0
M  V30 1858 O 170.812 0.679548 1.83523 0
M  V30 1859 C 171.111 3.5729 -0.0887327 0
M  V30 1860 C 170.777 4.28317 -1.40909 0
M  V30 1861 C 169.439 4.47437 -1.77069 0
M  V30 1862 C 171.791 4.6867 -2.28031 0
M  V30 1863 C 169.119 5.04171 -3.00047 0
M  V30 1864 C 171.471 5.26766 -3.50286 0
M  V30 1865 C 170.135 5.44104 -3.86661 0
M  V30 1866 H 169.405 0.739089 -0.0531801 0
M  V30 1867 H 172.052 1.72781 -0.825761 0
M  V30 1868 H 170.357 3.8594 0.675095 0
M  V30 1869 H 172.054 3.99807 0.309145 0
M  V30 1870 H 168.644 4.1377 -1.1177 0
M  V30 1871 H 172.828 4.53604 -2.01388 0
M  V30 1872 H 168.084 5.15782 -3.28298 0
M  V30 1873 H 172.258 5.56983 -4.18023 0
M  V30 1874 H 169.885 5.87832 -4.82034 0
M  V30 1875 N 171.46 0.379036 1.52974 0
M  V30 1876 C 172.706 -0.206727 2.01744 0
M  V30 1877 C 173.039 -1.47314 1.26539 0
M  V30 1878 O 172.314 -1.91084 0.362903 0
M  V30 1879 C 172.597 -0.485066 3.56818 0
M  V30 1880 C 172.45 0.795919 4.42702 0
M  V30 1881 C 173.769 -1.28003 4.21074 0
M  V30 1882 H 170.888 -0.0736607 0.73331 0
M  V30 1883 H 173.53 0.506581 1.83122 0
M  V30 1884 H 171.68 -1.09272 3.72816 0
M  V30 1885 H 173.352 1.43307 4.38476 0
M  V30 1886 H 171.595 1.41344 4.10127 0
M  V30 1887 H 172.266 0.555947 5.49193 0
M  V30 1888 H 174.742 -0.765867 4.08991 0
M  V30 1889 H 173.618 -1.44352 5.29579 0
M  V30 1890 H 173.879 -2.29236 3.78026 0
M  V30 1891 N 172.938 -1.57226 0.108567 0
M  V30 1892 C 174.215 -1.86333 -0.594939 0
M  V30 1893 C 174.595 -1.00788 -1.85486 0
M  V30 1894 O 173.943 -0.0839293 -2.28346 0
M  V30 1895 C 174.153 -3.37265 -0.897405 0
M  V30 1896 C 175.501 -4.05629 -1.25501 0
M  V30 1897 O 176.525 -3.42224 -0.987998 0
M  V30 1898 O 175.384 -5.17531 -1.75567 0
M  V30 1899 H 172.478 -0.771018 -0.2991 0
M  V30 1900 H 175.024 -1.69102 0.142283 0
M  V30 1901 H 173.796 -3.913 -0.00413806 0
M  V30 1902 H 173.419 -3.59889 -1.69014 0
M  V30 1903 N 174.416 0.165178 -1.56732 0
M  V30 1904 C 175.326 1.22423 -2.00125 0
M  V30 1905 C 176.342 1.48084 -0.913619 0
M  V30 1906 O 177.518 1.60112 -1.22172 0
M  V30 1907 C 174.583 2.54197 -2.35764 0
M  V30 1908 C 173.644 2.36343 -3.58386 0
M  V30 1909 C 172.877 3.61834 -3.92316 0
M  V30 1910 O 173.1 4.67267 -3.27135 0
M  V30 1911 O 172.034 3.55579 -4.85641 0
M  V30 1912 H 175.86 0.885886 -2.90492 0
M  V30 1913 H 173.445 0.372518 -1.44681 0
M  V30 1914 H 175.327 3.3192 -2.59629 0
M  V30 1915 H 174.002 2.87598 -1.48557 0
M  V30 1916 H 172.909 1.56632 -3.39731 0
M  V30 1917 H 174.242 2.07865 -4.46154 0
M  V30 1918 N 175.894 1.51508 0.433938 0
M  V30 1919 C 177.142 1.6402 1.18075 0
M  V30 1920 C 177.463 0.360328 1.91642 0
M  V30 1921 O 176.733 -0.623945 1.85698 0
M  V30 1922 H 175.313 0.6045 0.43885 0
M  V30 1923 H 177.975 1.88452 0.497178 0
M  V30 1924 H 177.071 2.46949 1.90847 0
M  V30 1925 N 177.372 -0.689602 1.41712 0
M  V30 1926 C 178.319 -1.80345 1.44029 0
M  V30 1927 C 179.289 -1.63478 0.293948 0
M  V30 1928 O 180.474 -1.84244 0.495869 0
M  V30 1929 C 177.614 -3.18272 1.33405 0
M  V30 1930 C 176.727 -3.46529 2.57956 0
M  V30 1931 C 175.862 -4.74103 2.39582 0
M  V30 1932 C 174.901 -4.95347 3.5958 0
M  V30 1933 N 174.038 -6.14151 3.40239 0
M  V30 1934 H 178.878 -1.77698 2.39222 0
M  V30 1935 H 176.415 -0.867688 1.18784 0
M  V30 1936 H 178.373 -3.97956 1.25246 0
M  V30 1937 H 177.003 -3.2008 0.418164 0
M  V30 1938 H 176.055 -2.61207 2.76542 0
M  V30 1939 H 177.367 -3.58126 3.47199 0
M  V30 1940 H 176.521 -5.61853 2.28924 0
M  V30 1941 H 175.26 -4.64763 1.47805 0
M  V30 1942 H 174.265 -4.06044 3.70686 0
M  V30 1943 H 175.49 -5.06542 4.52318 0
M  V30 1944 H 173.436 -6.06013 2.51167 0
M  V30 1945 H 173.353 -6.26543 4.23061 0
M  V30 1946 H 174.621 -7.04619 3.33365 0
M  V30 1947 N 178.85 -1.27639 -0.924453 0
M  V30 1948 C 180.075 -1.17101 -1.71179 0
M  V30 1949 C 180.5 0.268134 -1.86179 0
M  V30 1950 O 179.858 1.19415 -1.36418 0
M  V30 1951 C 179.906 -1.86313 -3.08739 0
M  V30 1952 O 179.01 -1.16331 -3.95652 0
M  V30 1953 H 178.351 -0.407091 -0.524569 0
M  V30 1954 H 180.881 -1.68767 -1.15666 0
M  V30 1955 H 180.891 -1.938 -3.59034 0
M  V30 1956 H 179.566 -2.91001 -2.97138 0
M  V30 1957 H 178.143 -1.16935 -3.54091 0
M  V30 1958 N 180.328 1.1314 -1.09713 0
M  V30 1959 C 181.574 1.84757 -0.836224 0
M  V30 1960 C 181.907 1.8347 0.636598 0
M  V30 1961 O 181.182 1.27491 1.46889 0
M  V30 1962 C 181.465 3.32782 -1.37578 0
M  V30 1963 C 181.318 3.42567 -2.91493 0
M  V30 1964 C 182.637 4.28307 -1.01198 0
M  V30 1965 H 179.756 0.67082 -0.305236 0
M  V30 1966 H 182.398 1.3278 -1.35903 0
M  V30 1967 H 180.548 3.77177 -0.931097 0
M  V30 1968 H 182.22 3.06862 -3.44432 0
M  V30 1969 H 180.463 2.83349 -3.28475 0
M  V30 1970 H 181.134 4.46674 -3.24324 0
M  V30 1971 H 183.61 3.91999 -1.39556 0
M  V30 1972 H 182.486 5.30307 -1.41653 0
M  V30 1973 H 182.747 4.42029 0.0794833 0
M  V30 1974 N 181.806 0.884767 1.30421 0
M  V30 1975 C 183.052 0.503851 1.96441 0
M  V30 1976 C 183.385 -0.944518 1.69684 0
M  V30 1977 O 182.66 -1.66737 1.00145 0
M  V30 1978 C 182.943 0.779085 3.51571 0
M  V30 1979 C 182.796 2.27807 3.87846 0
M  V30 1980 C 184.115 0.255452 4.39358 0
M  V30 1981 H 181.234 0.184533 0.713524 0
M  V30 1982 H 183.876 1.10872 1.54297 0
M  V30 1983 H 182.026 0.264274 3.876 0
M  V30 1984 H 183.698 2.86127 3.61841 0
M  V30 1985 H 181.941 2.74479 3.35922 0
M  V30 1986 H 182.612 2.42125 4.96064 0
M  V30 1987 H 185.088 0.696079 4.10236 0
M  V30 1988 H 183.964 0.477361 5.4682 0
M  V30 1989 H 184.225 -0.843293 4.33983 0
M  V30 1990 N 183.284 -1.43765 0.645699 0
M  V30 1991 C 184.214 -2.33471 -0.0370477 0
M  V30 1992 C 185.195 -1.49042 -0.819779 0
M  V30 1993 O 186.38 -1.77726 -0.782758 0
M  V30 1994 C 183.51 -3.32311 -1.0093 0
M  V30 1995 C 182.464 -4.2667 -0.337201 0
M  V30 1996 C 181.79 -5.1549 -1.42037 0
M  V30 1997 C 183.09 -5.16657 0.765706 0
M  V30 1998 H 184.784 -2.90809 0.712069 0
M  V30 1999 H 182.33 -1.39834 0.343876 0
M  V30 2000 H 184.283 -3.9396 -1.49578 0
M  V30 2001 H 183.007 -2.73213 -1.78948 0
M  V30 2002 H 181.666 -3.66374 0.128771 0
M  V30 2003 H 181.314 -4.52735 -2.1918 0
M  V30 2004 H 181.014 -5.79438 -0.975966 0
M  V30 2005 H 182.538 -5.80012 -1.90838 0
M  V30 2006 H 183.952 -5.72158 0.361702 0
M  V30 2007 H 182.349 -5.89286 1.13413 0
M  V30 2008 H 183.419 -4.56796 1.62683 0
M  V30 2009 N 184.763 -0.387143 -1.52771 0
M  V30 2010 C 185.726 0.436939 -2.24997 0
M  V30 2011 C 186.726 0.991991 -1.26555 0
M  V30 2012 O 187.916 0.874335 -1.50669 0
M  V30 2013 C 185.048 1.61281 -3.00335 0
M  V30 2014 H 186.241 -0.195365 -2.99263 0
M  V30 2015 H 183.794 -0.139218 -1.55679 0
M  V30 2016 H 184.529 2.2826 -2.30364 0
M  V30 2017 H 184.314 1.22154 -3.72587 0
M  V30 2018 H 185.804 2.19629 -3.5518 0
M  V30 2019 N 186.241 1.57166 -0.116904 0
M  V30 2020 C 187.204 2.14039 0.819742 0
M  V30 2021 C 188.204 1.07477 1.19605 0
M  V30 2022 O 189.394 1.33263 1.1219 0
M  V30 2023 C 186.526 2.67891 2.10826 0
M  V30 2024 H 187.719 2.98128 0.325511 0
M  V30 2025 H 185.272 1.55739 0.132312 0
M  V30 2026 H 186.007 1.87384 2.64685 0
M  V30 2027 H 185.792 3.45823 1.84793 0
M  V30 2028 H 187.282 3.11809 2.77785 0
M  V30 2029 N 187.719 -0.156864 1.56817 0
M  V30 2030 C 188.682 -1.17781 1.96622 0
M  V30 2031 C 189.682 -1.36401 0.851555 0
M  V30 2032 O 190.872 -1.33561 1.11836 0
M  V30 2033 C 188.004 -2.54008 2.27361 0
M  V30 2034 H 189.197 -0.836564 2.87996 0
M  V30 2035 H 186.75 -0.39985 1.51099 0
M  V30 2036 H 187.485 -2.9312 1.38748 0
M  V30 2037 H 187.27 -2.41856 3.08623 0
M  V30 2038 H 188.76 -3.27558 2.59029 0
M  V30 2039 N 189.197 -1.51736 -0.425897 0
M  V30 2040 C 190.474 -1.55519 -1.1863 0
M  V30 2041 C 190.854 -0.326219 -2.08564 0
M  V30 2042 O 190.202 0.688012 -2.17896 0
M  V30 2043 C 190.412 -2.87521 -1.9782 0
M  V30 2044 C 191.76 -3.39899 -2.54468 0
M  V30 2045 O 192.784 -2.89148 -2.08019 0
M  V30 2046 O 191.643 -4.2848 -3.39215 0
M  V30 2047 H 188.737 -0.625739 -0.540721 0
M  V30 2048 H 191.283 -1.64055 -0.434038 0
M  V30 2049 H 190.055 -3.68422 -1.31836 0
M  V30 2050 H 189.678 -2.822 -2.80088 0
M  V30 2051 N 190.675 0.682077 -1.42076 0
M  V30 2052 C 191.903 1.47057 -1.4554 0
M  V30 2053 C 192.318 1.8869 -0.0645779 0
M  V30 2054 O 191.675 1.57666 0.919115 0
M  V30 2055 C 191.726 2.72442 -2.37609 0
M  V30 2056 O 191.447 2.32559 -3.71279 0
M  V30 2057 C 192.948 3.66069 -2.50017 0
M  V30 2058 H 190.168 0.452737 -0.495248 0
M  V30 2059 H 192.712 0.838695 -1.8651 0
M  V30 2060 H 190.867 3.31835 -1.9991 0
M  V30 2061 H 191.281 3.13475 -4.20516 0
M  V30 2062 H 192.755 4.50792 -3.18576 0
M  V30 2063 H 193.232 4.11476 -1.53572 0
M  V30 2064 H 193.838 3.12572 -2.88407 0
M  V30 2065 N 192.153 1.28127 0.917671 0
M  V30 2066 C 193.4 1.15052 1.66641 0
M  V30 2067 C 193.728 -0.301677 1.92146 0
M  V30 2068 O 192.983 -1.23622 1.51711 0
M  V30 2069 C 193.282 1.89018 3.03327 0
M  V30 2070 C 192.948 3.38832 2.97496 0
M  V30 2071 C 191.61 3.79693 2.95613 0
M  V30 2072 C 193.962 4.34378 2.88036 0
M  V30 2073 C 191.29 5.14447 2.82066 0
M  V30 2074 C 193.642 5.69201 2.7603 0
M  V30 2075 C 192.306 6.09343 2.72502 0
M  V30 2076 H 191.576 0.421006 0.609783 0
M  V30 2077 H 194.223 1.58855 1.06945 0
M  V30 2078 H 192.528 1.37752 3.66785 0
M  V30 2079 H 194.225 1.76321 3.60156 0
M  V30 2080 H 190.815 3.06342 2.99754 0
M  V30 2081 H 194.999 4.03775 2.88581 0
M  V30 2082 H 190.255 5.44681 2.77728 0
M  V30 2083 H 194.429 6.42901 2.67678 0
M  V30 2084 H 192.056 7.13712 2.61762 0
M  V30 2085 N 193.631 -1.12557 1.10312 0
M  V30 2086 C 195.047 -1.36036 0.834649 0
M  V30 2087 C 195.247 -1.93946 -0.546539 0
M  V30 2088 O 194.303 -2.16484 -1.29966 0
M  V30 2089 C 195.616 -2.30312 1.9333 0
M  V30 2090 C 197.164 -2.43906 1.9616 0
M  V30 2091 C 197.639 -3.41496 3.05195 0
M  V30 2092 N 199.13 -3.49053 3.04494 0
M  V30 2093 C 199.865 -4.24471 3.85502 0
M  V30 2094 N 199.361 -5.02966 4.76442 0
M  V30 2095 N 201.154 -4.19864 3.73725 0
M  V30 2096 H 193.305 -0.733246 1.99342 0
M  V30 2097 H 195.568 -0.385234 0.866198 0
M  V30 2098 H 195.274 -1.94933 2.92735 0
M  V30 2099 H 195.148 -3.30421 1.81939 0
M  V30 2100 H 197.535 -2.78567 0.973886 0
M  V30 2101 H 197.616 -1.4369 2.11629 0
M  V30 2102 H 197.26 -3.07565 4.04186 0
M  V30 2103 H 197.19 -4.41539 2.86968 0
M  V30 2104 H 199.681 -2.93053 2.38596 0
M  V30 2105 H 199.994 -5.57846 5.34815 0
M  V30 2106 H 198.339 -5.02167 4.80472 0
M  V30 2107 H 201.53 -3.57623 3.02032 0
M  V30 2108 H 201.703 -4.78386 4.37093 0
M  V30 2109 N 195.109 -0.891671 -1.2995 0
M  V30 2110 C 196.072 -0.36828 -2.26222 0
M  V30 2111 C 197.072 0.493014 -1.53056 0
M  V30 2112 O 198.262 0.299213 -1.71611 0
M  V30 2113 C 195.394 0.47442 -3.37583 0
M  V30 2114 H 196.587 -1.21844 -2.74033 0
M  V30 2115 H 194.14 -0.669107 -1.41254 0
M  V30 2116 H 194.875 1.34489 -2.95099 0
M  V30 2117 H 194.66 -0.142615 -3.91841 0
M  V30 2118 H 196.15 0.83218 -4.09224 0
M  V30 2119 N 196.587 1.43421 -0.653314 0
M  V30 2120 C 197.55 2.29182 0.0287951 0
M  V30 2121 C 198.55 1.42213 0.750465 0
M  V30 2122 O 199.74 1.63843 0.591701 0
M  V30 2123 C 196.872 3.24278 1.05151 0
M  V30 2124 H 198.065 2.90985 -0.725786 0
M  V30 2125 H 195.618 1.50702 -0.414545 0
M  V30 2126 H 196.353 2.6737 1.83532 0
M  V30 2127 H 196.138 3.88396 0.537687 0
M  V30 2128 H 197.628 3.88647 1.52786 0
M  V30 2129 N 198.065 0.39524 1.52563 0
M  V30 2130 C 199.028 -0.425001 2.25225 0
M  V30 2131 C 200.028 -0.985266 1.27079 0
M  V30 2132 O 201.218 -0.866332 1.5113 0
M  V30 2133 C 198.35 -1.59686 3.01186 0
M  V30 2134 H 199.543 0.211233 2.99155 0
M  V30 2135 H 197.096 0.147472 1.55603 0
M  V30 2136 H 197.831 -2.27035 2.31572 0
M  V30 2137 H 197.616 -1.20176 3.73229 0
M  V30 2138 H 199.106 -2.17743 3.5634 0
M  V30 2139 N 199.544 -1.57102 0.125237 0
M  V30 2140 C 200.793 -1.94582 -0.531095 0
M  V30 2141 C 201.106 -1.01126 -1.6743 0
M  V30 2142 O 202.312 -1.28097 -2.39381 0
M  V30 2143 C 200.768 -3.45839 -0.996164 0
M  V30 2144 C 200.376 -4.47842 0.118926 0
M  V30 2145 C 202.12 -3.92227 -1.62352 0
M  V30 2146 C 200.027 -5.90284 -0.363192 0
M  V30 2147 H 198.957 -0.726391 -0.20217 0
M  V30 2148 H 201.608 -1.82339 0.206092 0
M  V30 2149 H 199.99 -3.53338 -1.78796 0
M  V30 2150 H 201.164 -4.52018 0.895358 0
M  V30 2151 H 199.479 -4.11243 0.653324 0
M  V30 2152 H 202.076 -4.96069 -1.99548 0
M  V30 2153 H 202.419 -3.32552 -2.50429 0
M  V30 2154 H 202.952 -3.87554 -0.897019 0
M  V30 2155 H 199.691 -6.53728 0.481679 0
M  V30 2156 H 199.211 -5.89515 -1.10597 0
M  V30 2157 H 200.89 -6.41752 -0.822377 0
M  V30 2158 N 201.022 0.148545 -1.56898 0
M  V30 2159 C 201.932 1.20293 -2.01412 0
M  V30 2160 C 202.948 1.47107 -0.929273 0
M  V30 2161 O 204.124 1.58807 -1.23863 0
M  V30 2162 C 201.189 2.51682 -2.38447 0
M  V30 2163 C 200.25 2.32529 -3.60872 0
M  V30 2164 C 199.483 3.57653 -3.96132 0
M  V30 2165 O 199.706 4.63771 -3.32073 0
M  V30 2166 O 198.64 3.50408 -4.89385 0
M  V30 2167 H 202.466 0.855025 -2.91416 0
M  V30 2168 H 200.051 0.357151 -1.45068 0
M  V30 2169 H 201.933 3.29147 -2.63135 0
M  V30 2170 H 200.608 2.86006 -1.51599 0
M  V30 2171 H 199.515 1.53019 -3.41373 0
M  V30 2172 H 200.848 2.03121 -4.48333 0
M  V30 2173 N 202.5 1.5196 0.417844 0
M  V30 2174 C 203.432 1.70895 1.52733 0
M  V30 2175 C 204.445 0.589405 1.51756 0
M  V30 2176 O 205.634 0.864312 1.56179 0
M  V30 2177 C 202.734 1.72627 2.91639 0
M  V30 2178 C 201.907 3.01479 3.16905 0
M  V30 2179 C 200.966 2.95139 4.35637 0
M  V30 2180 O 199.992 3.69059 4.3334 0
M  V30 2181 N 201.194 2.12328 5.40275 0
M  V30 2182 H 203.959 2.66612 1.36888 0
M  V30 2183 H 201.52 1.50089 0.607037 0
M  V30 2184 H 203.512 1.65928 3.6912 0
M  V30 2185 H 202.082 0.844216 3.00985 0
M  V30 2186 H 201.302 3.21895 2.27546 0
M  V30 2187 H 202.59 3.86736 3.30625 0
M  V30 2188 H 201.988 1.51685 5.44985 0
M  V30 2189 H 200.545 2.11494 6.16534 0
M  V30 2190 N 203.978 -0.674533 1.42435 0
M  V30 2191 C 204.908 -1.80009 1.48724 0
M  V30 2192 C 205.889 -1.6659 0.343793 0
M  V30 2193 O 207.074 -1.86007 0.558137 0
M  V30 2194 C 204.204 -3.18306 1.38919 0
M  V30 2195 C 203.158 -3.46461 2.51294 0
M  V30 2196 C 202.484 -4.84335 2.26547 0
M  V30 2197 C 203.784 -3.43328 3.93603 0
M  V30 2198 H 205.478 -1.75004 2.42928 0
M  V30 2199 H 203.024 -0.840533 1.16923 0
M  V30 2200 H 204.977 -3.9678 1.41927 0
M  V30 2201 H 203.701 -3.2399 0.412094 0
M  V30 2202 H 202.36 -2.70348 2.47604 0
M  V30 2203 H 202.008 -4.86669 1.2713 0
M  V30 2204 H 201.708 -5.04136 3.01861 0
M  V30 2205 H 203.232 -5.65094 2.31304 0
M  V30 2206 H 204.646 -4.11772 3.98894 0
M  V30 2207 H 203.043 -3.74664 4.68771 0
M  V30 2208 H 204.113 -2.41897 4.20255 0
M  V30 2209 N 205.456 -1.28612 -0.910864 0
M  V30 2210 C 206.403 -1.12786 -2.01365 0
M  V30 2211 C 207.373 -0.024201 -1.66082 0
M  V30 2212 O 208.558 -0.189667 -1.89855 0
M  V30 2213 C 205.698 -0.798743 -3.35729 0
M  V30 2214 C 204.811 -1.98173 -3.83864 0
M  V30 2215 C 203.946 -1.59298 -5.06752 0
M  V30 2216 C 202.985 -2.74245 -5.47226 0
M  V30 2217 N 202.122 -2.35842 -6.61304 0
M  V30 2218 H 206.962 -2.07142 -2.14234 0
M  V30 2219 H 204.499 -1.03093 -1.0493 0
M  V30 2220 H 206.457 -0.588662 -4.13026 0
M  V30 2221 H 205.087 0.10789 -3.2262 0
M  V30 2222 H 204.139 -2.30386 -3.02699 0
M  V30 2223 H 205.451 -2.84343 -4.09818 0
M  V30 2224 H 204.605 -1.34513 -5.916 0
M  V30 2225 H 203.344 -0.702618 -4.82612 0
M  V30 2226 H 202.349 -2.99725 -4.60918 0
M  V30 2227 H 203.574 -3.63928 -5.73353 0
M  V30 2228 H 201.52 -1.49279 -6.38789 0
M  V30 2229 H 201.437 -3.15546 -6.86998 0
M  V30 2230 H 202.705 -2.14348 -7.4945 0
M  V30 2231 N 206.934 1.1197 -1.10907 0
M  V30 2232 C 208.183 1.82947 -0.849302 0
M  V30 2233 C 208.496 1.85275 0.627112 0
M  V30 2234 O 209.702 2.52296 1.00295 0
M  V30 2235 C 208.158 3.28529 -1.46959 0
M  V30 2236 C 207.766 3.34546 -2.97965 0
M  V30 2237 C 209.51 4.04443 -1.28942 0
M  V30 2238 C 207.417 4.74491 -3.53004 0
M  V30 2239 H 206.347 0.685477 -0.314065 0
M  V30 2240 H 208.998 1.2604 -1.33365 0
M  V30 2241 H 207.38 3.85333 -0.912917 0
M  V30 2242 H 208.554 2.87654 -3.59989 0
M  V30 2243 H 206.869 2.72108 -3.15192 0
M  V30 2244 H 209.466 5.07787 -1.67502 0
M  V30 2245 H 209.809 4.15656 -0.231456 0
M  V30 2246 H 210.342 3.5401 -1.81443 0
M  V30 2247 H 207.081 4.68474 -4.58489 0
M  V30 2248 H 206.601 5.21816 -2.9575 0
M  V30 2249 H 208.28 5.4344 -3.51115 0
M  V30 2250 N 208.412 0.89855 1.29475 0
M  V30 2251 C 209.658 0.534065 1.96263 0
M  V30 2252 C 210.013 -0.909415 1.69551 0
M  V30 2253 O 209.306 -1.63596 0.997349 0
M  V30 2254 C 209.5 0.761398 3.49195 0
M  V30 2255 C 209.329 2.22542 3.90775 0
M  V30 2256 C 208.099 2.87264 4.15701 0
M  V30 2257 C 210.297 3.20051 4.02581 0
M  V30 2258 N 208.279 4.24121 4.4384 0
M  V30 2259 C 209.65 4.42023 4.34759 0
M  V30 2260 C 211.705 3.15657 3.85052 0
M  V30 2261 C 210.408 5.60161 4.51235 0
M  V30 2262 C 212.434 4.33078 4.02737 0
M  V30 2263 C 211.796 5.5382 4.35273 0
M  V30 2264 H 207.895 0.245013 0.742625 0
M  V30 2265 H 210.479 1.15912 1.56437 0
M  V30 2266 H 208.65 0.165732 3.88046 0
M  V30 2267 H 210.382 0.362462 4.03074 0
M  V30 2268 H 207.137 2.38064 4.09417 0
M  V30 2269 H 207.561 4.94839 4.6202 0
M  V30 2270 H 212.203 2.23396 3.58962 0
M  V30 2271 H 209.921 6.52913 4.76162 0
M  V30 2272 H 213.507 4.31163 3.90628 0
M  V30 2273 H 212.387 6.43166 4.48672 0
M  V30 2274 N 209.89 -1.43072 0.660911 0
M  V30 2275 C 211.138 -2.01323 0.177094 0
M  V30 2276 C 211.459 -1.5245 -1.2159 0
M  V30 2277 O 210.729 -0.740322 -1.81373 0
M  V30 2278 H 209.309 -0.744382 0.0624804 0
M  V30 2279 H 211.971 -1.75179 0.854305 0
M  V30 2280 H 211.067 -3.11649 0.167641 0
M  V30 2281 N 211.368 -0.403325 -1.52352 0
M  V30 2282 C 212.278 0.432009 -2.30588 0
M  V30 2283 C 213.294 1.05884 -1.38075 0
M  V30 2284 O 214.47 1.06161 -1.71148 0
M  V30 2285 C 211.535 1.53669 -3.10784 0
M  V30 2286 C 210.596 0.933525 -4.19027 0
M  V30 2287 C 209.829 1.98557 -4.9539 0
M  V30 2288 O 210.052 3.20283 -4.71991 0
M  V30 2289 O 208.986 1.59504 -5.80381 0
M  V30 2290 H 212.812 -0.205739 -3.03002 0
M  V30 2291 H 210.397 -0.166675 -1.48467 0
M  V30 2292 H 212.279 2.17814 -3.60742 0
M  V30 2293 H 210.954 2.15915 -2.41169 0
M  V30 2294 H 209.861 0.254954 -3.7323 0
M  V30 2295 H 211.194 0.35508 -4.90918 0
M  V30 2296 N 212.846 1.57033 -0.133567 0
M  V30 2297 C 214.262 1.58035 0.222944 0
M  V30 2298 C 214.462 1.14713 1.6566 0
M  V30 2299 O 213.518 0.841218 2.38075 0
M  V30 2300 C 214.831 3.00691 -0.0236116 0
M  V30 2301 C 216.379 3.12973 0.0411512 0
M  V30 2302 C 216.854 4.57654 -0.177899 0
M  V30 2303 N 218.345 4.63033 -0.124365 0
M  V30 2304 C 219.08 5.72771 -0.268553 0
M  V30 2305 N 218.576 6.91206 -0.46972 0
M  V30 2306 N 220.369 5.61718 -0.2071 0
M  V30 2307 H 212.52 1.8349 -1.06981 0
M  V30 2308 H 214.783 0.848677 -0.422436 0
M  V30 2309 H 214.489 3.36726 -1.0153 0
M  V30 2310 H 214.363 3.70614 0.701808 0
M  V30 2311 H 216.75 2.76787 1.02338 0
M  V30 2312 H 216.831 2.45564 -0.716383 0
M  V30 2313 H 216.475 4.94542 -1.15717 0
M  V30 2314 H 216.405 5.23173 0.599797 0
M  V30 2315 H 218.896 3.7789 0.027011 0
M  V30 2316 H 219.209 7.70693 -0.570212 0
M  V30 2317 H 217.554 6.93156 -0.505876 0
M  V30 2318 H 220.745 4.68072 -0.0507986 0
M  V30 2319 H 220.918 6.47195 -0.322909 0
M  V30 2320 N 214.325 -0.140222 1.56975 0
M  V30 2321 C 215.571 -0.852949 1.83991 0
M  V30 2322 C 215.904 -1.80512 0.716187 0
M  V30 2323 O 215.179 -1.92479 -0.279681 0
M  V30 2324 C 215.462 -1.6215 3.21527 0
M  V30 2325 C 215.315 -0.690363 4.4447 0
M  V30 2326 C 216.634 -2.58247 3.56366 0
M  V30 2327 H 213.753 -0.308634 0.669264 0
M  V30 2328 H 216.395 -0.117898 1.89634 0
M  V30 2329 H 214.545 -2.24812 3.16847 0
M  V30 2330 H 216.217 -0.0742264 4.6124 0
M  V30 2331 H 214.46 -0.000396433 4.338 0
M  V30 2332 H 215.131 -1.2643 5.37326 0
M  V30 2333 H 217.607 -2.05701 3.61699 0
M  V30 2334 H 216.483 -3.09067 4.53617 0
M  V30 2335 H 216.744 -3.39923 2.82674 0
M  V30 2336 N 215.803 -1.52179 -0.40978 0
M  V30 2337 C 217.051 -1.65878 -1.15451 0
M  V30 2338 C 217.372 -0.390771 -1.91044 0
M  V30 2339 O 216.642 0.594323 -1.86667 0
M  V30 2340 H 215.222 -0.611405 -0.429177 0
M  V30 2341 H 217.884 -1.89219 -0.467134 0
M  V30 2342 H 216.98 -2.49954 -1.86894 0
M  V30 2343 N 217.281 0.66697 -1.42791 0
M  V30 2344 C 218.244 1.76211 -1.46568 0
M  V30 2345 C 219.244 1.56896 -0.352196 0
M  V30 2346 O 220.434 1.63044 -0.613364 0
M  V30 2347 C 217.566 3.14935 -1.30494 0
M  V30 2348 H 218.759 1.74247 -2.44086 0
M  V30 2349 H 216.312 0.877342 -1.29354 0
M  V30 2350 H 217.047 3.2252 -0.339301 0
M  V30 2351 H 216.832 3.30359 -2.11199 0
M  V30 2352 H 218.322 3.94821 -1.36038 0
M  V30 2353 N 218.759 1.29093 0.90403 0
M  V30 2354 C 219.987 1.19689 1.68766 0
M  V30 2355 C 220.402 -0.243113 1.87228 0
M  V30 2356 O 219.759 -1.16326 1.40621 0
M  V30 2357 C 219.81 1.90144 3.07453 0
M  V30 2358 O 219.531 3.2852 2.89838 0
M  V30 2359 C 221.032 1.87162 4.01852 0
M  V30 2360 H 218.252 0.415035 0.527244 0
M  V30 2361 H 220.796 1.7039 1.13082 0
M  V30 2362 H 218.951 1.43289 3.59926 0
M  V30 2363 H 219.365 3.63944 3.77684 0
M  V30 2364 H 220.839 2.41032 4.96596 0
M  V30 2365 H 221.316 0.84617 4.30972 0
M  V30 2366 H 221.922 2.33741 3.5531 0
M  V30 2367 N 220.237 -1.11381 1.11499 0
M  V30 2368 C 221.483 -1.83403 0.865512 0
M  V30 2369 C 221.816 -1.84459 -0.607329 0
M  V30 2370 O 221.091 -1.29811 -1.44842 0
M  V30 2371 C 221.374 -3.30552 1.42855 0
M  V30 2372 C 221.227 -3.37886 2.96906 0
M  V30 2373 C 222.546 -4.26643 1.08 0
M  V30 2374 H 219.665 -0.665879 0.31587 0
M  V30 2375 H 222.307 -1.30601 1.37998 0
M  V30 2376 H 220.457 -3.75648 0.990985 0
M  V30 2377 H 222.129 -3.01343 3.49271 0
M  V30 2378 H 220.372 -2.78088 3.32941 0
M  V30 2379 H 221.043 -4.41458 3.31389 0
M  V30 2380 H 223.519 -3.89729 1.45775 0
M  V30 2381 H 222.395 -5.27986 1.50072 0
M  V30 2382 H 222.656 -4.42099 -0.00915037 0
M  V30 2383 N 221.715 -0.905404 -1.28997 0
M  V30 2384 C 222.964 -0.530191 -1.94607 0
M  V30 2385 C 223.277 0.929185 -1.72121 0
M  V30 2386 O 224.483 1.41218 -2.31883 0
M  V30 2387 C 222.939 -0.897333 -3.48534 0
M  V30 2388 C 222.547 -2.37587 -3.79811 0
M  V30 2389 C 224.291 -0.592304 -4.20347 0
M  V30 2390 C 222.198 -2.68357 -5.27009 0
M  V30 2391 H 221.128 -0.194558 -0.728466 0
M  V30 2392 H 223.779 -1.10318 -1.46636 0
M  V30 2393 H 222.161 -0.253214 -3.9519 0
M  V30 2394 H 223.335 -3.06602 -3.43994 0
M  V30 2395 H 221.65 -2.6505 -3.2115 0
M  V30 2396 H 224.247 -0.798975 -5.28697 0
M  V30 2397 H 224.59 0.469474 -4.13644 0
M  V30 2398 H 225.123 -1.19452 -3.79442 0
M  V30 2399 H 221.862 -3.73355 -5.38782 0
M  V30 2400 H 221.382 -2.03971 -5.64053 0
M  V30 2401 H 223.061 -2.54922 -5.94663 0
M  V30 2402 N 223.193 1.4272 -0.668489 0
M  V30 2403 C 224.418 2.06484 -0.194758 0
M  V30 2404 C 224.843 1.49862 1.13679 0
M  V30 2405 O 224.201 0.614582 1.70565 0
M  V30 2406 C 224.249 3.60353 -0.133546 0
M  V30 2407 O 223.353 4.02464 0.899806 0
M  V30 2408 H 222.694 0.656137 -0.10188 0
M  V30 2409 H 225.224 1.82964 -0.915722 0
M  V30 2410 H 225.234 4.07976 0.0447041 0
M  V30 2411 H 223.909 4.00938 -1.1055 0
M  V30 2412 H 222.486 3.66402 0.693109 0
M  V30 2413 N 224.671 0.411399 1.52136 0
M  V30 2414 C 225.621 -0.430376 2.23901 0
M  V30 2415 C 226.605 -1.0116 1.25121 0
M  V30 2416 O 227.797 -0.934044 1.50348 0
M  V30 2417 C 224.926 -1.54527 3.06556 0
M  V30 2418 C 224.012 -0.9747 4.12747 0
M  V30 2419 N 224.403 -0.130991 5.0563 0
M  V30 2420 C 222.701 -1.24497 4.28271 0
M  V30 2421 C 223.402 0.186689 5.814 0
M  V30 2422 N 222.378 -0.42304 5.41951 0
M  V30 2423 H 226.18 0.220509 2.93072 0
M  V30 2424 H 223.694 0.221952 1.60876 0
M  V30 2425 H 225.691 -2.16093 3.56524 0
M  V30 2426 H 224.351 -2.19875 2.38925 0
M  V30 2427 H 225.362 0.23349 5.17373 0
M  V30 2428 H 222.039 -1.89787 3.7187 0
M  V30 2429 H 223.429 0.871673 6.66222 0
M  V30 2430 N 226.149 -1.5696 0.141893 0
M  V30 2431 C 227.374 -2.00754 -0.520838 0
M  V30 2432 C 227.799 -1.0213 -1.57959 0
M  V30 2433 O 227.157 0.00371324 -1.813 0
M  V30 2434 C 227.205 -3.43318 -1.10294 0
M  V30 2435 O 226.309 -3.47679 -2.21795 0
M  V30 2436 H 225.65 -0.651564 -0.127908 0
M  V30 2437 H 228.18 -2.03221 0.23712 0
M  V30 2438 H 228.19 -3.82012 -1.43287 0
M  V30 2439 H 226.865 -4.14608 -0.327574 0
M  V30 2440 H 225.442 -3.20824 -1.9007 0
M  V30 2441 N 227.627 0.131896 -1.57047 0
M  V30 2442 C 228.537 1.1815 -2.02676 0
M  V30 2443 C 229.553 1.46113 -0.944824 0
M  V30 2444 O 230.729 1.57485 -1.25541 0
M  V30 2445 C 227.794 2.49139 -2.41103 0
M  V30 2446 C 226.855 2.28688 -3.63318 0
M  V30 2447 C 226.088 3.53431 -3.99903 0
M  V30 2448 O 226.311 4.60223 -3.36973 0
M  V30 2449 O 225.245 3.45198 -4.93074 0
M  V30 2450 H 229.071 0.824069 -2.92306 0
M  V30 2451 H 226.656 0.341745 -1.45439 0
M  V30 2452 H 228.538 3.26338 -2.66611 0
M  V30 2453 H 227.213 2.84382 -1.54624 0
M  V30 2454 H 226.12 1.4939 -3.42977 0
M  V30 2455 H 227.453 1.98355 -4.50462 0
M  V30 2456 N 229.106 1.52395 0.401703 0
M  V30 2457 C 230.354 1.66488 1.14569 0
M  V30 2458 C 230.675 0.400897 1.90835 0
M  V30 2459 O 229.945 -0.584415 1.8698 0
M  V30 2460 H 228.525 0.613672 0.425929 0
M  V30 2461 H 231.187 1.89464 0.457093 0
M  V30 2462 H 230.283 2.50942 1.85566 0
M  V30 2463 N 230.584 -0.659388 1.43143 0
M  V30 2464 C 231.547 -1.75432 1.47501 0
M  V30 2465 C 232.547 -1.56707 0.360512 0
M  V30 2466 O 233.737 -1.62717 0.622002 0
M  V30 2467 C 230.869 -3.14239 1.32162 0
M  V30 2468 H 232.062 -1.7295 2.45006 0
M  V30 2469 H 229.615 -0.870469 1.29817 0
M  V30 2470 H 230.35 -3.22336 0.356401 0
M  V30 2471 H 230.135 -3.29235 2.12948 0
M  V30 2472 H 231.625 -3.94094 1.3813 0
M  V30 2473 N 232.062 -1.29571 -0.897171 0
M  V30 2474 C 233.339 -1.08365 -1.62839 0
M  V30 2475 C 233.719 0.371331 -2.07808 0
M  V30 2476 O 233.067 1.3606 -1.83576 0
M  V30 2477 C 233.277 -2.0735 -2.80726 0
M  V30 2478 C 234.625 -2.38406 -3.51351 0
M  V30 2479 O 235.649 -2.05564 -2.90898 0
M  V30 2480 O 234.508 -2.9453 -4.60341 0
M  V30 2481 H 231.602 -0.415345 -0.715134 0
M  V30 2482 H 234.148 -1.40952 -0.945018 0
M  V30 2483 H 232.92 -3.05339 -2.44711 0
M  V30 2484 H 232.543 -1.75507 -3.56767 0
M  V30 2485 N 233.54 1.10788 -1.12088 0
M  V30 2486 C 234.951 1.64181 -0.88891 0
M  V30 2487 C 235.302 1.87508 0.577498 0
M  V30 2488 O 234.427 1.61434 1.44112 0
M  V30 2489 C 235.022 2.98257 -1.60712 0
M  V30 2490 C 233.581 3.4853 -1.42139 0
M  V30 2491 C 232.728 2.23208 -1.6454 0
M  V30 2492 H 235.679 0.943368 -1.27618 0
M  V30 2493 H 235.7 3.65552 -1.05604 0
M  V30 2494 H 235.212 2.81246 -2.67436 0
M  V30 2495 H 233.313 3.70692 -0.376552 0
M  V30 2496 H 233.426 4.26882 -2.17505 0
M  V30 2497 H 231.79 2.31169 -1.06925 0
M  V30 2498 H 232.573 2.08733 -2.72554 0
M  V30 2499 N 235.018 0.912232 1.28515 0
M  V30 2500 C 235.981 0.404223 2.25607 0
M  V30 2501 C 236.981 -0.468602 1.53821 0
M  V30 2502 O 238.171 -0.271873 1.72065 0
M  V30 2503 C 235.303 -0.420653 3.38295 0
M  V30 2504 H 236.496 1.26188 2.7206 0
M  V30 2505 H 234.049 0.691495 1.40171 0
M  V30 2506 H 234.784 -1.29777 2.97201 0
M  V30 2507 H 234.569 0.204935 3.91564 0
M  V30 2508 H 236.059 -0.766971 4.10496 0
M  V30 2509 N 236.496 -1.42363 0.676048 0
M  V30 2510 C 237.459 -2.29199 0.00766941 0
M  V30 2511 C 238.459 -1.43389 -0.727745 0
M  V30 2512 O 239.649 -1.64764 -0.56556 0
M  V30 2513 C 236.781 -3.2591 -0.999785 0
M  V30 2514 H 237.974 -2.89794 0.771988 0
M  V30 2515 H 235.527 -1.50024 0.438468 0
M  V30 2516 H 236.262 -2.70256 -1.79255 0
M  V30 2517 H 236.047 -3.89202 -0.475829 0
M  V30 2518 H 237.537 -3.91028 -1.46583 0
M  V30 2519 N 237.974 -0.419461 -1.51915 0
M  V30 2520 C 239.22 0.153166 -2.02221 0
M  V30 2521 C 239.553 1.43907 -1.30401 0
M  V30 2522 O 238.828 1.90055 -0.413438 0
M  V30 2523 C 239.111 0.390291 -3.57979 0
M  V30 2524 C 238.964 -0.913014 -4.40436 0
M  V30 2525 C 240.283 1.16794 -4.2432 0
M  V30 2526 H 237.402 0.0541924 -0.735005 0
M  V30 2527 H 240.044 -0.554955 -1.81715 0
M  V30 2528 H 238.194 0.993491 -3.75582 0
M  V30 2529 H 239.866 -1.54882 -4.34522 0
M  V30 2530 H 238.109 -1.52168 -4.06236 0
M  V30 2531 H 238.78 -0.701361 -5.47526 0
M  V30 2532 H 241.256 0.657161 -4.10878 0
M  V30 2533 H 240.132 1.3026 -5.3322 0
M  V30 2534 H 240.393 2.19132 -3.83971 0
M  V30 2535 N 239.452 1.56882 -0.150215 0
M  V30 2536 C 240.415 2.1573 0.774157 0
M  V30 2537 C 241.415 1.0999 1.17298 0
M  V30 2538 O 242.605 1.35613 1.09338 0
M  V30 2539 C 239.737 2.72302 2.05096 0
M  V30 2540 H 240.93 2.98752 0.262201 0
M  V30 2541 H 238.483 1.55985 0.099248 0
M  V30 2542 H 239.218 1.92956 2.6065 0
M  V30 2543 H 239.003 3.49665 1.77416 0
M  V30 2544 H 240.493 3.17632 2.71109 0
M  V30 2545 N 240.93 -0.123565 1.57115 0
M  V30 2546 C 242.177 -0.832153 1.84612 0
M  V30 2547 C 242.505 -1.80093 0.734627 0
M  V30 2548 O 241.76 -1.93766 -0.27442 0
M  V30 2549 C 242.059 -1.62016 3.18568 0
M  V30 2550 C 241.725 -0.796084 4.43817 0
M  V30 2551 C 240.387 -0.568816 4.77826 0
M  V30 2552 C 242.739 -0.221364 5.2073 0
M  V30 2553 C 240.067 0.243499 5.86194 0
M  V30 2554 C 242.419 0.578117 6.29953 0
M  V30 2555 C 241.083 0.815744 6.62497 0
M  V30 2556 H 240.353 -0.304507 0.675542 0
M  V30 2557 H 243 -0.0947248 1.91266 0
M  V30 2558 H 241.305 -2.42837 3.0747 0
M  V30 2559 H 243.002 -2.17231 3.37064 0
M  V30 2560 H 239.592 -0.983307 4.17168 0
M  V30 2561 H 243.776 -0.384173 4.94811 0
M  V30 2562 H 239.032 0.436871 6.09837 0
M  V30 2563 H 243.206 1.03046 6.88734 0
M  V30 2564 H 240.833 1.44701 7.46301 0
M  V30 2565 N 242.408 -1.52605 -0.393616 0
M  V30 2566 C 243.685 -1.58001 -1.15304 0
M  V30 2567 C 244.065 -0.370385 -2.07825 0
M  V30 2568 O 243.413 0.641638 -2.19306 0
M  V30 2569 C 243.623 -2.91652 -1.91677 0
M  V30 2570 C 244.971 -3.4522 -2.47201 0
M  V30 2571 O 245.995 -2.93495 -2.01839 0
M  V30 2572 O 244.854 -4.35579 -3.3005 0
M  V30 2573 H 241.948 -0.637068 -0.527327 0
M  V30 2574 H 244.494 -1.64939 -0.399141 0
M  V30 2575 H 243.266 -3.71136 -1.23992 0
M  V30 2576 H 242.889 -2.88077 -2.74039 0
M  V30 2577 N 243.887 0.651787 -1.4349 0
M  V30 2578 C 244.85 1.74647 -1.48429 0
M  V30 2579 C 245.85 1.56513 -0.368817 0
M  V30 2580 O 247.04 1.62385 -0.630623 0
M  V30 2581 C 244.172 3.13533 -1.33827 0
M  V30 2582 H 245.365 1.71649 -2.4592 0
M  V30 2583 H 242.918 0.863573 -1.30277 0
M  V30 2584 H 243.653 3.22142 -0.37349 0
M  V30 2585 H 243.438 3.28101 -2.14691 0
M  V30 2586 H 244.928 3.93356 -1.40218 0
M  V30 2587 N 245.365 1.30045 0.890287 0
M  V30 2588 C 246.611 1.18737 1.64406 0
M  V30 2589 C 246.944 -0.258525 1.92472 0
M  V30 2590 O 246.219 -1.18562 1.54186 0
M  V30 2591 C 246.502 2.01087 2.98724 0
M  V30 2592 C 246.355 3.53867 2.77665 0
M  V30 2593 C 247.674 1.84457 3.9958 0
M  V30 2594 H 244.793 0.432698 0.596608 0
M  V30 2595 H 247.435 1.5962 1.0306 0
M  V30 2596 H 245.585 1.66349 3.51084 0
M  V30 2597 H 247.257 3.98637 2.32133 0
M  V30 2598 H 245.5 3.78318 2.12269 0
M  V30 2599 H 246.171 4.06772 3.7315 0
M  V30 2600 H 248.647 2.14817 3.56361 0
M  V30 2601 H 247.523 2.44411 4.91482 0
M  V30 2602 H 247.784 0.802276 4.3476 0
M  V30 2603 N 246.843 -1.10192 1.12674 0
M  V30 2604 C 247.806 -2.14786 0.799979 0
M  V30 2605 C 248.806 -1.59711 -0.18685 0
M  V30 2606 O 249.996 -1.74156 0.0392558 0
M  V30 2607 C 247.128 -3.40374 0.189228 0
M  V30 2608 H 248.321 -2.45203 1.72671 0
M  V30 2609 H 245.874 -1.25597 0.930326 0
M  V30 2610 H 246.609 -3.15577 -0.747107 0
M  V30 2611 H 246.394 -3.81637 0.899766 0
M  V30 2612 H 247.884 -4.17594 -0.0228143 0
M  V30 2613 N 248.321 -0.919034 -1.28029 0
M  V30 2614 C 249.271 -0.382574 -2.24767 0
M  V30 2615 C 250.255 0.508286 -1.52661 0
M  V30 2616 O 251.447 0.347145 -1.73562 0
M  V30 2617 C 248.576 0.371432 -3.41285 0
M  V30 2618 C 247.662 -0.535449 -4.20706 0
M  V30 2619 N 248.053 -1.65141 -4.78082 0
M  V30 2620 C 246.351 -0.336824 -4.44726 0
M  V30 2621 C 247.052 -2.21475 -5.37888 0
M  V30 2622 N 246.028 -1.50537 -5.22341 0
M  V30 2623 H 249.83 -1.23477 -2.66703 0
M  V30 2624 H 247.344 -0.772299 -1.42861 0
M  V30 2625 H 249.341 0.772638 -4.09678 0
M  V30 2626 H 248.001 1.22066 -3.00882 0
M  V30 2627 H 249.012 -2.03392 -4.7629 0
M  V30 2628 H 245.689 0.47246 -4.14818 0
M  V30 2629 H 247.079 -3.15379 -5.93284 0
M  V30 2630 N 249.799 1.42003 -0.683588 0
M  V30 2631 C 250.762 2.29191 -0.0198243 0
M  V30 2632 C 251.762 1.43773 0.72013 0
M  V30 2633 O 252.952 1.65061 0.556815 0
M  V30 2634 C 250.084 3.26435 0.982487 0
M  V30 2635 H 251.277 2.8938 -0.787345 0
M  V30 2636 H 248.83 1.49789 -0.446418 0
M  V30 2637 H 249.565 2.71203 1.77819 0
M  V30 2638 H 249.35 3.89449 0.455182 0
M  V30 2639 H 250.84 3.918 1.44508 0
M  V30 2640 N 251.277 0.427512 1.51691 0
M  V30 2641 C 252.207 -0.3796 2.30394 0
M  V30 2642 C 253.188 -1.02982 1.35384 0
M  V30 2643 O 254.373 -1.03534 1.643 0
M  V30 2644 C 251.503 -1.48649 3.1388 0
M  V30 2645 C 250.457 -0.960294 4.17088 0
M  V30 2646 C 249.783 -2.16219 4.89033 0
M  V30 2647 C 251.083 -0.00153679 5.223 0
M  V30 2648 H 252.777 0.277164 2.98114 0
M  V30 2649 H 250.323 0.134739 1.43368 0
M  V30 2650 H 252.276 -2.05826 3.67714 0
M  V30 2651 H 251 -2.1714 2.43962 0
M  V30 2652 H 249.659 -0.410806 3.64291 0
M  V30 2653 H 249.307 -2.83307 4.15628 0
M  V30 2654 H 249.007 -1.81654 5.58816 0
M  V30 2655 H 250.531 -2.73968 5.45687 0
M  V30 2656 H 251.945 -0.482687 5.71264 0
M  V30 2657 H 250.342 0.256199 5.99553 0
M  V30 2658 H 251.412 0.938174 4.75738 0
M  V30 2659 N 252.755 -1.56801 0.158532 0
M  V30 2660 C 253.718 -2.16138 -0.762705 0
M  V30 2661 C 254.718 -1.1061 -1.16713 0
M  V30 2662 O 255.908 -1.36191 -1.08617 0
M  V30 2663 C 253.04 -2.73386 -2.03649 0
M  V30 2664 H 254.233 -2.98886 -0.246354 0
M  V30 2665 H 251.786 -1.56035 -0.0909744 0
M  V30 2666 H 252.521 -1.94335 -2.59623 0
M  V30 2667 H 252.306 -3.50601 -1.75559 0
M  V30 2668 H 253.796 -3.19065 -2.6942 0
M  V30 2669 N 254.233 0.115231 -1.57178 0
M  V30 2670 C 255.649 0.468877 -1.52557 0
M  V30 2671 C 255.849 1.81649 -0.872125 0
M  V30 2672 O 254.905 2.48347 -0.45606 0
M  V30 2673 C 256.218 0.4499 -2.97315 0
M  V30 2674 C 257.766 0.533185 -3.08425 0
M  V30 2675 C 258.241 0.54456 -4.54751 0
M  V30 2676 N 259.732 0.605892 -4.5922 0
M  V30 2677 C 260.467 0.636203 -5.6986 0
M  V30 2678 N 259.963 0.623931 -6.89985 0
M  V30 2679 N 261.756 0.679496 -5.57978 0
M  V30 2680 H 253.907 -0.767712 -1.9804 0
M  V30 2681 H 256.17 -0.283609 -0.904583 0
M  V30 2682 H 255.876 -0.472721 -3.48509 0
M  V30 2683 H 255.75 1.27632 -3.5495 0
M  V30 2684 H 258.137 1.44623 -2.57232 0
M  V30 2685 H 258.218 -0.320995 -2.53778 0
M  V30 2686 H 257.862 -0.364452 -5.06591 0
M  V30 2687 H 257.792 1.41568 -5.07214 0
M  V30 2688 H 260.283 0.621386 -3.72756 0
M  V30 2689 H 260.596 0.649787 -7.70063 0
M  V30 2690 H 258.941 0.591296 -6.9248 0
M  V30 2691 H 262.132 0.686472 -4.63039 0
M  V30 2692 H 262.305 0.69965 -6.44212 0
M  V30 2693 N 255.711 1.52812 0.385517 0
M  V30 2694 C 256.659 1.78482 1.49155 0
M  V30 2695 C 257.653 0.652914 1.56312 0
M  V30 2696 O 258.859 0.835464 1.59436 0
M  V30 2697 H 255.234 0.5648 0.496493 0
M  V30 2698 H 257.205 2.71095 1.24699 0
M  V30 2699 C 255.954 1.97378 2.86247 0
M  V30 2700 H 255.277 2.83907 2.81491 0
M  V30 2701 H 256.717 2.19327 3.62866 0
M  V30 2702 C 255.176 0.74728 3.28508 0
M  V30 2703 O 255.706 -0.0736232 4.01633 0
M  V30 2704 N 253.912 0.576396 2.84826 0
M  V30 2705 H 253.459 1.24555 2.25486 0
M  V30 2706 H 253.417 -0.24288 3.1346 0
M  V30 2707 N 257.189 -0.644168 1.43834 0
M  V30 2708 C 258.136 -1.75671 1.49694 0
M  V30 2709 C 259.106 -1.6246 0.345809 0
M  V30 2710 O 260.291 -1.82573 0.554234 0
M  V30 2711 C 257.431 -3.13867 1.43463 0
M  V30 2712 C 256.544 -3.38147 2.6885 0
M  V30 2713 C 255.679 -4.66241 2.54544 0
M  V30 2714 C 254.718 -4.83657 3.75157 0
M  V30 2715 N 253.855 -6.03016 3.59605 0
M  V30 2716 H 258.695 -1.69998 2.44754 0
M  V30 2717 H 256.232 -0.829458 1.21484 0
M  V30 2718 H 258.19 -3.9377 1.37843 0
M  V30 2719 H 256.82 -3.18588 0.519783 0
M  V30 2720 H 255.872 -2.52276 2.84712 0
M  V30 2721 H 257.184 -3.46899 3.58417 0
M  V30 2722 H 256.338 -5.54285 2.46683 0
M  V30 2723 H 255.077 -4.59826 1.62516 0
M  V30 2724 H 254.082 -3.94046 3.83416 0
M  V30 2725 H 255.307 -4.91896 4.68204 0
M  V30 2726 H 253.253 -5.97715 2.7032 0
M  V30 2727 H 253.17 -6.12766 4.42779 0
M  V30 2728 H 254.438 -6.93657 3.55613 0
M  V30 2729 N 258.668 -1.30515 -0.883378 0
M  V30 2730 C 259.945 -1.10086 -1.6168 0
M  V30 2731 C 260.325 0.349269 -2.08191 0
M  V30 2732 O 259.673 1.34105 -1.85008 0
M  V30 2733 C 259.883 -2.10315 -2.78511 0
M  V30 2734 C 261.231 -2.42119 -3.48803 0
M  V30 2735 O 262.255 -2.08638 -2.88702 0
M  V30 2736 O 261.114 -2.99396 -4.57192 0
M  V30 2737 H 258.208 -0.422907 -0.710689 0
M  V30 2738 H 260.754 -1.41947 -0.930015 0
M  V30 2739 H 259.526 -3.07917 -2.41459 0
M  V30 2740 H 259.149 -1.79282 -3.54886 0
M  V30 2741 N 260.146 1.09593 -1.13257 0
M  V30 2742 C 261.392 1.82003 -0.89458 0
M  V30 2743 C 261.725 1.85402 0.577906 0
M  V30 2744 O 261 1.32099 1.42759 0
M  V30 2745 C 261.283 3.28237 -1.48096 0
M  V30 2746 C 261.136 3.3312 -3.02244 0
M  V30 2747 C 262.455 4.24871 -1.14774 0
M  V30 2748 H 259.574 0.66077 -0.326424 0
M  V30 2749 H 262.216 1.28389 -1.40058 0
M  V30 2750 H 260.366 3.74024 -1.05062 0
M  V30 2751 H 262.038 2.95748 -3.54021 0
M  V30 2752 H 260.281 2.72756 -3.37323 0
M  V30 2753 H 260.952 4.3613 -3.38371 0
M  V30 2754 H 263.428 3.87361 -1.51957 0
M  V30 2755 H 262.304 5.25532 -1.58452 0
M  V30 2756 H 262.565 4.42058 -0.0611849 0
M  V30 2757 N 261.624 0.925811 1.2754 0
M  V30 2758 C 262.87 0.566092 1.94739 0
M  V30 2759 C 263.203 -0.890057 1.72603 0
M  V30 2760 O 262.478 -1.63467 1.05399 0
M  V30 2761 C 262.761 0.89054 3.48915 0
M  V30 2762 C 262.614 2.4003 3.80402 0
M  V30 2763 C 263.933 0.395101 4.38323 0
M  V30 2764 H 261.052 0.20714 0.707292 0
M  V30 2765 H 263.694 1.15725 1.50691 0
M  V30 2766 H 261.844 0.387452 3.86563 0
M  V30 2767 H 263.516 2.97494 3.52555 0
M  V30 2768 H 261.759 2.85028 3.2702 0
M  V30 2769 H 262.43 2.57785 4.8811 0
M  V30 2770 H 264.906 0.826241 4.07814 0
M  V30 2771 H 263.782 0.651086 5.45025 0
M  V30 2772 H 264.043 -0.704798 4.36446 0
M  V30 2773 N 263.102 -1.41638 0.69111 0
M  V30 2774 C 264.351 -2.00526 0.217318 0
M  V30 2775 C 264.664 -1.55353 -1.18848 0
M  V30 2776 O 265.87 -2.06769 -1.75951 0
M  V30 2777 C 264.326 -3.58313 0.337639 0
M  V30 2778 C 263.934 -4.12469 1.74852 0
M  V30 2779 C 265.678 -4.24431 -0.0766066 0
M  V30 2780 C 263.585 -5.62675 1.82074 0
M  V30 2781 H 262.515 -0.750008 0.0774893 0
M  V30 2782 H 265.166 -1.6217 0.858661 0
M  V30 2783 H 263.548 -3.9425 -0.371879 0
M  V30 2784 H 264.722 -3.8796 2.48644 0
M  V30 2785 H 263.037 -3.58861 2.11205 0
M  V30 2786 H 265.634 -5.34683 -0.0430284 0
M  V30 2787 H 265.977 -4.01101 -1.1146 0
M  V30 2788 H 266.51 -3.93512 0.582476 0
M  V30 2789 H 263.249 -5.90826 2.83911 0
M  V30 2790 H 262.769 -5.89124 1.12661 0
M  V30 2791 H 264.448 -6.27371 1.58159 0
M  V30 2792 N 264.58 -0.43555 -1.51462 0
M  V30 2793 C 265.829 0.133007 -2.01261 0
M  V30 2794 C 266.142 1.43942 -1.32439 0
M  V30 2795 O 267.348 2.09081 -1.73198 0
M  V30 2796 C 265.804 0.287581 -3.58749 0
M  V30 2797 C 265.412 -1.00829 -4.36506 0
M  V30 2798 C 267.156 0.810004 -4.167 0
M  V30 2799 C 265.063 -0.819454 -5.85695 0
M  V30 2800 H 263.993 0.0534822 -0.752101 0
M  V30 2801 H 266.644 -0.565038 -1.74584 0
M  V30 2802 H 265.026 1.04859 -3.81865 0
M  V30 2803 H 266.2 -1.77749 -4.25138 0
M  V30 2804 H 264.515 -1.45911 -3.89999 0
M  V30 2805 H 267.112 0.967743 -5.2587 0
M  V30 2806 H 267.455 1.79196 -3.75758 0
M  V30 2807 H 267.988 0.107357 -3.97655 0
M  V30 2808 H 264.727 -1.77374 -6.31046 0
M  V30 2809 H 264.247 -0.0900208 -5.99732 0
M  V30 2810 H 265.926 -0.471949 -6.45276 0
M  V30 2811 N 266.058 1.56714 -0.166846 0
M  V30 2812 C 267.335 1.88412 0.525373 0
M  V30 2813 C 267.715 1.07602 1.81618 0
M  V30 2814 O 267.063 0.168621 2.27877 0
M  V30 2815 C 267.273 3.40363 0.771613 0
M  V30 2816 C 268.621 4.10007 1.1036 0
M  V30 2817 O 269.645 3.45655 0.860304 0
M  V30 2818 O 268.504 5.2369 1.56239 0
M  V30 2819 H 265.598 0.781587 0.270278 0
M  V30 2820 H 268.144 1.68458 -0.204946 0
M  V30 2821 H 266.916 3.91046 -0.141093 0
M  V30 2822 H 266.539 3.65914 1.55541 0
M  V30 2823 N 267.536 -0.106894 1.57237 0
M  V30 2824 C 268.764 -0.826389 1.8968 0
M  V30 2825 C 269.179 -1.72856 0.759353 0
M  V30 2826 O 268.536 -1.80503 -0.269263 0
M  V30 2827 C 268.587 -1.64967 3.21665 0
M  V30 2828 O 268.308 -0.783804 4.31031 0
M  V30 2829 C 269.809 -2.47326 3.67892 0
M  V30 2830 H 267.029 -0.236927 0.627779 0
M  V30 2831 H 269.573 -0.0876593 2.04312 0
M  V30 2832 H 267.728 -2.34103 3.08666 0
M  V30 2833 H 268.142 -1.35284 5.06753 0
M  V30 2834 H 269.616 -3.00604 4.6297 0
M  V30 2835 H 270.093 -3.25247 2.95146 0
M  V30 2836 H 270.699 -1.83411 3.83719 0
M  V30 2837 N 269.014 -1.53014 -0.377408 0
M  V30 2838 C 269.977 -1.77957 -1.44444 0
M  V30 2839 C 270.977 -0.649763 -1.47087 0
M  V30 2840 O 272.167 -0.917897 -1.48055 0
M  V30 2841 C 269.299 -1.89089 -2.83651 0
M  V30 2842 H 270.492 -2.73243 -1.23606 0
M  V30 2843 H 268.045 -1.43912 -0.609844 0
M  V30 2844 H 268.78 -0.958293 -3.09818 0
M  V30 2845 H 268.565 -2.71254 -2.83132 0
M  V30 2846 H 270.055 -2.1002 -3.60945 0
M  V30 2847 N 270.492 0.636531 -1.44174 0
M  V30 2848 C 271.74 1.39343 -1.46383 0
M  V30 2849 C 272.061 1.94766 -0.0955715 0
M  V30 2850 O 271.331 1.75452 0.871395 0
M  V30 2851 H 269.911 0.517199 -0.538994 0
M  V30 2852 H 272.573 0.74957 -1.7991 0
M  V30 2853 H 271.669 2.22746 -2.18611 0
M  V30 2854 N 271.97 1.30982 0.876444 0
M  V30 2855 C 273.386 1.09498 1.16113 0
M  V30 2856 C 273.586 -0.13875 2.01022 0
M  V30 2857 O 272.642 -0.829935 2.38471 0
M  V30 2858 C 273.955 2.36308 1.85954 0
M  V30 2859 C 275.503 2.41856 1.98683 0
M  V30 2860 C 275.978 3.6853 2.71937 0
M  V30 2861 N 277.469 3.69387 2.79477 0
M  V30 2862 C 278.204 4.64096 3.36753 0
M  V30 2863 N 277.7 5.69155 3.95012 0
M  V30 2864 N 279.493 4.51626 3.3465 0
M  V30 2865 H 271.644 2.10118 0.310494 0
M  V30 2866 H 273.907 0.926634 0.200131 0
M  V30 2867 H 273.613 3.26388 1.31011 0
M  V30 2868 H 273.487 2.4561 2.86278 0
M  V30 2869 H 275.874 1.52249 2.52793 0
M  V30 2870 H 275.955 2.36523 0.9742 0
M  V30 2871 H 275.599 4.58499 2.18496 0
M  V30 2872 H 275.529 3.71127 3.73593 0
M  V30 2873 H 278.02 2.93438 2.38123 0
M  V30 2874 H 278.333 6.3751 4.36808 0
M  V30 2875 H 276.678 5.72937 3.93406 0
M  V30 2876 H 279.869 3.68728 2.8837 0
M  V30 2877 H 280.042 5.25614 3.7899 0
M  V30 2878 N 273.449 -1.08991 1.13837 0
M  V30 2879 C 274.379 -2.17771 0.842507 0
M  V30 2880 C 275.36 -1.6892 -0.20001 0
M  V30 2881 O 276.545 -1.94113 -0.0579731 0
M  V30 2882 C 273.675 -3.4589 0.312644 0
M  V30 2883 C 272.629 -4.08099 1.28992 0
M  V30 2884 C 271.955 -5.31098 0.619623 0
M  V30 2885 C 273.255 -4.50077 2.65005 0
M  V30 2886 H 274.949 -2.42777 1.75213 0
M  V30 2887 H 272.495 -1.16682 0.843875 0
M  V30 2888 H 274.448 -4.21297 0.0933043 0
M  V30 2889 H 273.172 -3.20419 -0.632382 0
M  V30 2890 H 271.831 -3.34717 1.49533 0
M  V30 2891 H 271.479 -5.0191 -0.33102 0
M  V30 2892 H 271.179 -5.73674 1.27167 0
M  V30 2893 H 272.703 -6.09224 0.409669 0
M  V30 2894 H 274.117 -5.16688 2.48407 0
M  V30 2895 H 272.514 -5.03553 3.26427 0
M  V30 2896 H 273.584 -3.62257 3.22332 0
M  V30 2897 N 274.927 -0.932562 -1.27047 0
M  V30 2898 C 275.877 -0.406392 -2.24349 0
M  V30 2899 C 276.861 0.492066 -1.53191 0
M  V30 2900 O 278.053 0.328717 -1.73921 0
M  V30 2901 C 275.182 0.335214 -3.41659 0
M  V30 2902 C 274.268 -0.58004 -4.20115 0
M  V30 2903 N 274.659 -1.70203 -4.76303 0
M  V30 2904 C 272.957 -0.383974 -4.44344 0
M  V30 2905 C 273.658 -2.27167 -5.35509 0
M  V30 2906 N 272.634 -1.56068 -5.20715 0
M  V30 2907 H 276.436 -1.26299 -2.65378 0
M  V30 2908 H 273.95 -0.787408 -1.42034 0
M  V30 2909 H 275.947 0.729142 -4.10474 0
M  V30 2910 H 274.607 1.18868 -3.0216 0
M  V30 2911 H 275.618 -2.08433 -4.74106 0
M  V30 2912 H 272.295 0.428436 -4.15296 0
M  V30 2913 H 273.685 -3.21654 -5.89905 0
M  V30 2914 N 276.405 1.4127 -0.698611 0
M  V30 2915 C 277.633 2.05503 -0.239992 0
M  V30 2916 C 278.048 1.52584 1.11191 0
M  V30 2917 O 277.405 0.675323 1.69545 0
M  V30 2918 C 277.456 3.60987 -0.192429 0
M  V30 2919 O 277.177 4.1195 -1.49094 0
M  V30 2920 C 278.678 4.42371 0.28681 0
M  V30 2921 H 275.898 0.661748 -0.111045 0
M  V30 2922 H 278.442 1.80987 -0.95205 0
M  V30 2923 H 276.597 3.84533 0.470472 0
M  V30 2924 H 277.011 5.06018 -1.38007 0
M  V30 2925 H 278.485 5.51344 0.26896 0
M  V30 2926 H 278.962 4.18699 1.32619 0
M  V30 2927 H 279.568 4.23897 -0.345201 0
M  V30 2928 N 277.883 0.443576 1.51229 0
M  V30 2929 C 278.83 -0.364716 2.279 0
M  V30 2930 C 279.8 -1.0114 1.31757 0
M  V30 2931 O 280.985 -1.02912 1.60667 0
M  V30 2932 C 278.125 -1.45644 3.12861 0
M  V30 2933 C 277.238 -0.827269 4.24005 0
M  V30 2934 C 276.373 -1.89456 4.96266 0
M  V30 2935 C 275.412 -1.24416 5.99322 0
M  V30 2936 N 274.549 -2.25309 6.64966 0
M  V30 2937 H 279.389 0.295464 2.96532 0
M  V30 2938 H 276.926 0.157554 1.46254 0
M  V30 2939 H 278.884 -2.10076 3.6045 0
M  V30 2940 H 277.514 -2.08616 2.46331 0
M  V30 2941 H 276.566 -0.0710839 3.80334 0
M  V30 2942 H 277.878 -0.312481 4.9782 0
M  V30 2943 H 277.032 -2.61535 5.47434 0
M  V30 2944 H 275.771 -2.4431 4.22095 0
M  V30 2945 H 274.776 -0.508868 5.4744 0
M  V30 2946 H 276.001 -0.702882 6.75453 0
M  V30 2947 H 273.947 -2.79231 5.93604 0
M  V30 2948 H 273.864 -1.78739 7.34567 0
M  V30 2949 H 275.132 -2.96853 7.20763 0
M  V30 2950 N 279.361 -1.56624 0.175154 0
M  V30 2951 C 280.308 -2.18149 -0.753634 0
M  V30 2952 C 281.278 -1.12265 -1.22417 0
M  V30 2953 O 282.463 -1.40432 -1.29165 0
M  V30 2954 C 279.603 -2.82933 -1.97592 0
M  V30 2955 C 278.716 -4.03289 -1.5486 0
M  V30 2956 C 277.851 -4.55988 -2.72485 0
M  V30 2957 C 276.89 -5.68746 -2.26262 0
M  V30 2958 N 276.027 -6.15938 -3.36994 0
M  V30 2959 H 280.867 -2.9717 -0.222195 0
M  V30 2960 H 278.404 -1.46774 -0.0979422 0
M  V30 2961 H 280.362 -3.18653 -2.69288 0
M  V30 2962 H 278.992 -2.06509 -2.481 0
M  V30 2963 H 278.044 -3.73364 -0.728246 0
M  V30 2964 H 279.356 -4.849 -1.16933 0
M  V30 2965 H 278.51 -4.9391 -3.52332 0
M  V30 2966 H 277.249 -3.73443 -3.13674 0
M  V30 2967 H 276.254 -5.30372 -1.44863 0
M  V30 2968 H 277.479 -6.53095 -1.86127 0
M  V30 2969 H 275.425 -5.36321 -3.77751 0
M  V30 2970 H 275.342 -6.92548 -3.03172 0
M  V30 2971 H 276.61 -6.58511 -4.17114 0
M  V30 2972 N 280.839 0.0985539 -1.57292 0
M  V30 2973 C 281.787 1.1387 -2.02821 0
M  V30 2974 C 282.781 1.41676 -0.928666 0
M  V30 2975 O 283.987 1.41398 -1.11385 0
M  V30 2976 H 280.362 0.384419 -0.646317 0
M  V30 2977 H 282.333 0.728347 -2.89375 0
M  V30 2978 C 281.082 2.45166 -2.46554 0
M  V30 2979 H 280.405 2.24613 -3.3074 0
M  V30 2980 H 281.845 3.16456 -2.8219 0
M  V30 2981 C 280.304 3.09216 -1.33742 0
M  V30 2982 O 280.834 3.96163 -0.66464 0
M  V30 2983 N 279.04 2.69413 -1.08928 0
M  V30 2984 H 278.587 1.98801 -1.63817 0
M  V30 2985 H 278.545 3.12594 -0.336458 0
M  V30 2986 N 282.317 1.53212 0.369288 0
M  V30 2987 C 283.247 1.82365 1.45826 0
M  V30 2988 C 284.228 0.676907 1.56051 0
M  V30 2989 O 285.413 0.926401 1.70679 0
M  V30 2990 C 282.543 2.01023 2.83208 0
M  V30 2991 C 281.497 3.1678 2.8781 0
M  V30 2992 C 280.823 3.20724 4.27832 0
M  V30 2993 C 282.123 4.55447 2.55667 0
M  V30 2994 H 283.817 2.73559 1.21678 0
M  V30 2995 H 281.363 1.3163 0.583911 0
M  V30 2996 H 283.316 2.20001 3.59413 0
M  V30 2997 H 282.04 1.06536 3.08736 0
M  V30 2998 H 280.699 2.97616 2.14056 0
M  V30 2999 H 280.347 2.23882 4.50429 0
M  V30 3000 H 280.047 3.98496 4.31827 0
M  V30 3001 H 281.571 3.41881 5.05915 0
M  V30 3002 H 282.985 4.74611 3.21586 0
M  V30 3003 H 281.382 5.35432 2.70984 0
M  V30 3004 H 282.452 4.60812 1.5093 0
M  V30 3005 N 283.795 -0.628877 1.44509 0
M  V30 3006 C 284.728 -1.75367 1.46019 0
M  V30 3007 C 285.706 -1.59444 0.318787 0
M  V30 3008 O 286.89 -1.81297 0.516099 0
M  V30 3009 C 284.017 -3.12965 1.29501 0
M  V30 3010 C 283.063 -3.47532 2.47233 0
M  V30 3011 S 283.896 -3.44758 4.09758 0
M  V30 3012 C 285.052 -4.84973 3.95667 0
M  V30 3013 H 285.285 -1.7382 2.41193 0
M  V30 3014 H 282.818 -0.803686 1.31834 0
M  V30 3015 H 284.776 -3.92367 1.20658 0
M  V30 3016 H 283.437 -3.12049 0.358341 0
M  V30 3017 H 282.63 -4.47664 2.31544 0
M  V30 3018 H 282.232 -2.75598 2.52828 0
M  V30 3019 H 284.524 -5.74255 3.59496 0
M  V30 3020 H 285.467 -5.05716 4.95638 0
M  V30 3021 H 285.875 -4.59653 3.27688 0
M  V30 3022 N 285.273 -1.31445 -0.869486 0
M  V30 3023 C 286.183 -1.21097 -2.0093 0
M  V30 3024 C 287.199 -0.127584 -1.73532 0
M  V30 3025 O 288.375 -0.345477 -1.98415 0
M  V30 3026 C 285.44 -0.919378 -3.34288 0
M  V30 3027 C 284.501 -2.08971 -3.75006 0
M  V30 3028 C 283.734 -1.81194 -5.02001 0
M  V30 3029 O 283.957 -0.747296 -5.65484 0
M  V30 3030 O 282.891 -2.66883 -5.39497 0
M  V30 3031 H 286.717 -2.16883 -2.12592 0
M  V30 3032 H 284.302 -1.11189 -0.997868 0
M  V30 3033 H 286.184 -0.772625 -4.14257 0
M  V30 3034 H 284.859 0.00844772 -3.23699 0
M  V30 3035 H 283.766 -2.29187 -2.95676 0
M  V30 3036 H 285.099 -2.9998 -3.90221 0
M  V30 3037 N 286.751 1.08385 -1.14413 0
M  V30 3038 C 287.661 2.18856 -0.844951 0
M  V30 3039 C 288.677 1.73121 0.174668 0
M  V30 3040 O 289.853 2.014 0.00312857 0
M  V30 3041 C 286.918 3.45155 -0.32696 0
M  V30 3042 C 285.979 4.05513 -1.40916 0
M  V30 3043 C 285.212 5.25784 -0.915793 0
M  V30 3044 O 285.435 5.69884 0.242651 0
M  V30 3045 O 284.369 5.77545 -1.69487 0
M  V30 3046 H 288.195 2.46919 -1.76818 0
M  V30 3047 H 285.78 1.17524 -0.922411 0
M  V30 3048 H 287.662 4.21377 -0.0440211 0
M  V30 3049 H 286.337 3.18668 0.568539 0
M  V30 3050 H 285.244 3.30879 -1.74556 0
M  V30 3051 H 286.577 4.3625 -2.27919 0
M  V30 3052 N 288.23 0.939286 1.26551 0
M  V30 3053 C 289.16 0.465044 2.28822 0
M  V30 3054 C 290.141 -0.480692 1.63167 0
M  V30 3055 O 291.326 -0.382955 1.90387 0
M  V30 3056 C 288.456 -0.27234 3.46231 0
M  V30 3057 C 287.41 0.58666 4.2396 0
M  V30 3058 C 286.736 -0.280573 5.33963 0
M  V30 3059 C 288.036 1.85704 4.88171 0
M  V30 3060 H 289.73 1.31979 2.68741 0
M  V30 3061 H 287.276 0.636061 1.29191 0
M  V30 3062 H 289.229 -0.615133 4.16886 0
M  V30 3063 H 287.953 -1.16121 3.0526 0
M  V30 3064 H 286.612 0.91232 3.55067 0
M  V30 3065 H 286.26 -1.16874 4.89234 0
M  V30 3066 H 285.96 0.29076 5.8688 0
M  V30 3067 H 287.484 -0.618678 6.07458 0
M  V30 3068 H 288.898 1.58161 5.51052 0
M  V30 3069 H 287.295 2.37279 5.51197 0
M  V30 3070 H 288.365 2.56957 4.11219 0
M  V30 3071 N 289.708 -1.40897 0.706093 0
M  V30 3072 C 291.124 -1.55042 0.37869 0
M  V30 3073 C 291.324 -1.67944 -1.11342 0
M  V30 3074 O 290.38 -1.66372 -1.89938 0
M  V30 3075 C 291.693 -2.78398 1.13643 0
M  V30 3076 C 293.241 -2.92206 1.12181 0
M  V30 3077 C 293.716 -4.18463 1.86152 0
M  V30 3078 N 295.207 -4.25443 1.83173 0
M  V30 3079 C 295.942 -5.2202 2.37239 0
M  V30 3080 N 295.438 -6.24563 2.99821 0
M  V30 3081 N 297.231 -5.14033 2.27435 0
M  V30 3082 H 289.382 -1.30769 1.67372 0
M  V30 3083 H 291.645 -0.631653 0.706907 0
M  V30 3084 H 291.351 -2.7511 2.19106 0
M  V30 3085 H 291.225 -3.70228 0.721853 0
M  V30 3086 H 293.612 -2.95004 0.0754171 0
M  V30 3087 H 293.693 -2.01521 1.57554 0
M  V30 3088 H 293.337 -4.16427 2.90776 0
M  V30 3089 H 293.267 -5.08141 1.38206 0
M  V30 3090 H 295.758 -3.51976 1.37556 0
M  V30 3091 H 296.071 -6.94665 3.38616 0
M  V30 3092 H 294.416 -6.25035 3.03902 0
M  V30 3093 H 297.607 -4.3285 1.78208 0
M  V30 3094 H 297.78 -5.89129 2.69873 0
M  V30 3095 N 291.186 -0.45159 -1.50991 0
M  V30 3096 C 292.133 0.352625 -2.2809 0
M  V30 3097 C 293.103 1.0044 -1.32291 0
M  V30 3098 O 294.288 1.02058 -1.6121 0
M  V30 3099 C 291.428 1.43983 -3.13629 0
M  V30 3100 C 290.541 0.804772 -4.24438 0
M  V30 3101 C 289.676 1.86822 -4.97263 0
M  V30 3102 C 288.715 1.21236 -5.99973 0
M  V30 3103 N 287.852 2.2178 -6.66152 0
M  V30 3104 H 292.692 -0.311186 -2.96371 0
M  V30 3105 H 290.229 -0.165308 -1.46168 0
M  V30 3106 H 292.187 2.08161 -3.61559 0
M  V30 3107 H 290.817 2.07307 -2.47434 0
M  V30 3108 H 289.869 0.0509129 -3.80366 0
M  V30 3109 H 291.181 0.286076 -4.97979 0
M  V30 3110 H 290.335 2.58628 -5.48813 0
M  V30 3111 H 289.074 2.42068 -4.23385 0
M  V30 3112 H 288.079 0.479828 -5.47702 0
M  V30 3113 H 289.304 0.667051 -6.75816 0
M  V30 3114 H 287.25 2.76079 -5.95077 0
M  V30 3115 H 287.167 1.74841 -7.35504 0
M  V30 3116 H 288.435 2.93026 -7.22327 0
M  V30 3117 N 292.664 1.56529 -0.183458 0
M  V30 3118 C 293.91 1.97537 0.459036 0
M  V30 3119 C 294.243 1.06989 1.62071 0
M  V30 3120 O 293.518 0.11948 1.94133 0
M  V30 3121 C 293.801 3.47874 0.930368 0
M  V30 3122 C 293.654 4.492 -0.232317 0
M  V30 3123 C 294.973 4.01612 1.79989 0
M  V30 3124 H 292.092 0.718204 0.165383 0
M  V30 3125 H 294.734 1.88042 -0.272038 0
M  V30 3126 H 292.884 3.56095 1.55333 0
M  V30 3127 H 294.556 4.53027 -0.86972 0
M  V30 3128 H 292.799 4.24657 -0.885928 0
M  V30 3129 H 293.47 5.51823 0.139796 0
M  V30 3130 H 295.946 3.96097 1.27461 0
M  V30 3131 H 294.822 5.07195 2.09867 0
M  V30 3132 H 295.083 3.46163 2.74998 0
M  V30 3133 N 294.142 -0.090211 1.57342 0
M  V30 3134 C 295.092 -1.11557 1.98844 0
M  V30 3135 C 296.076 -1.35503 0.867624 0
M  V30 3136 O 297.268 -1.36113 1.13148 0
M  V30 3137 C 294.397 -2.43446 2.42051 0
M  V30 3138 C 293.483 -2.22853 3.60828 0
M  V30 3139 N 293.874 -1.72141 4.75606 0
M  V30 3140 C 292.172 -2.53401 3.67021 0
M  V30 3141 C 292.873 -1.65932 5.57531 0
M  V30 3142 N 291.849 -2.11323 5.00843 0
M  V30 3143 H 295.651 -0.716499 2.85032 0
M  V30 3144 H 293.165 -0.297567 1.59651 0
M  V30 3145 H 295.162 -3.17644 2.70014 0
M  V30 3146 H 293.822 -2.84087 1.57241 0
M  V30 3147 H 294.833 -1.41268 4.98261 0
M  V30 3148 H 291.51 -2.97532 2.92884 0
M  V30 3149 H 292.9 -1.27733 6.59647 0
M  V30 3150 N 295.62 -1.53406 -0.361157 0
M  V30 3151 C 297.036 -1.43277 -0.703124 0
M  V30 3152 C 297.236 -0.575384 -1.9311 0
M  V30 3153 O 296.292 -0.0595362 -2.5243 0
M  V30 3154 C 297.605 -2.8653 -0.9122 0
M  V30 3155 C 299.153 -2.96191 -1.01193 0
M  V30 3156 C 299.628 -4.40514 -1.25345 0
M  V30 3157 N 301.119 -4.43962 -1.32105 0
M  V30 3158 C 301.854 -5.52746 -1.5251 0
M  V30 3159 N 301.35 -6.71567 -1.70203 0
M  V30 3160 N 303.143 -5.40331 -1.54916 0
M  V30 3161 H 295.294 -2.07654 0.446475 0
M  V30 3162 H 297.557 -0.937944 0.137715 0
M  V30 3163 H 297.263 -3.51605 -0.0816414 0
M  V30 3164 H 297.137 -3.30441 -1.81903 0
M  V30 3165 H 299.524 -2.31266 -1.83303 0
M  V30 3166 H 299.605 -2.55667 -0.0823929 0
M  V30 3167 H 299.249 -5.06014 -0.437346 0
M  V30 3168 H 299.179 -4.78614 -2.19627 0
M  V30 3169 H 301.67 -3.58332 -1.20028 0
M  V30 3170 H 301.983 -7.50241 -1.85359 0
M  V30 3171 H 300.328 -6.74545 -1.67373 0
M  V30 3172 H 303.519 -4.46465 -1.40663 0
M  V30 3173 H 303.692 -6.25173 -1.70477 0
M  V30 3174 N 297.098 0.621204 -1.44841 0
M  V30 3175 C 298.344 1.3826 -1.48365 0
M  V30 3176 C 298.677 1.93831 -0.119624 0
M  V30 3177 O 297.952 1.74251 0.864111 0
M  V30 3178 C 298.235 2.54058 -2.55199 0
M  V30 3179 C 298.088 2.03772 -4.00995 0
M  V30 3180 C 299.407 3.56225 -2.58442 0
M  V30 3181 H 296.526 0.501374 -0.540179 0
M  V30 3182 H 299.168 0.7015 -1.76576 0
M  V30 3183 H 297.318 3.12162 -2.31274 0
M  V30 3184 H 298.99 1.50423 -4.36086 0
M  V30 3185 H 297.233 1.34876 -4.12299 0
M  V30 3186 H 297.904 2.87185 -4.71411 0
M  V30 3187 H 300.38 3.07939 -2.79844 0
M  V30 3188 H 299.256 4.34756 -3.3508 0
M  V30 3189 H 299.517 4.10949 -1.63013 0
M  V30 3190 N 298.576 1.31904 0.862503 0
M  V30 3191 C 299.822 1.22197 1.61851 0
M  V30 3192 C 300.155 -0.217641 1.92977 0
M  V30 3193 O 299.43 -1.15264 1.56666 0
M  V30 3194 C 299.713 2.07378 2.94391 0
M  V30 3195 C 299.566 3.59678 2.70096 0
M  V30 3196 C 300.885 1.92891 3.95577 0
M  V30 3197 H 298.004 0.445255 0.587296 0
M  V30 3198 H 300.646 1.6177 0.99651 0
M  V30 3199 H 298.796 1.73758 3.47477 0
M  V30 3200 H 300.468 4.03472 2.23625 0
M  V30 3201 H 298.711 3.82735 2.04197 0
M  V30 3202 H 299.382 4.14595 3.64438 0
M  V30 3203 H 301.858 2.22327 3.51724 0
M  V30 3204 H 300.734 2.54781 4.86187 0
M  V30 3205 H 300.995 0.894315 4.3296 0
M  V30 3206 N 300.054 -1.07777 1.14986 0
M  V30 3207 C 301.001 -2.14867 0.842672 0
M  V30 3208 C 301.971 -1.6486 -0.202552 0
M  V30 3209 O 303.156 -1.90668 -0.0710568 0
M  V30 3210 C 300.296 -3.43486 0.333363 0
M  V30 3211 C 299.409 -4.07306 1.43965 0
M  V30 3212 C 298.544 -5.23744 0.886914 0
M  V30 3213 C 297.583 -5.79517 1.97043 0
M  V30 3214 N 296.72 -6.87291 1.4344 0
M  V30 3215 H 301.56 -2.40485 1.75986 0
M  V30 3216 H 299.097 -1.1801 0.878179 0
M  V30 3217 H 301.055 -4.17195 0.0198163 0
M  V30 3218 H 299.685 -3.18133 -0.546916 0
M  V30 3219 H 298.737 -3.31293 1.86946 0
M  V30 3220 H 300.049 -4.44771 2.25788 0
M  V30 3221 H 299.203 -6.04419 0.525651 0
M  V30 3222 H 297.942 -4.87685 0.0377957 0
M  V30 3223 H 296.947 -4.97491 2.34057 0
M  V30 3224 H 298.172 -6.17632 2.82325 0
M  V30 3225 H 296.118 -6.5318 0.607567 0
M  V30 3226 H 296.035 -7.23617 2.18895 0
M  V30 3227 H 297.303 -7.71682 1.10124 0
M  V30 3228 N 301.532 -0.945985 -1.26051 0
M  V30 3229 C 302.479 -0.45809 -2.26208 0
M  V30 3230 C 303.449 0.484816 -1.58867 0
M  V30 3231 O 304.634 0.399969 -1.86561 0
M  V30 3232 C 301.774 0.266131 -3.44072 0
M  V30 3233 C 300.887 -0.713005 -4.26075 0
M  V30 3234 C 300.022 0.0329013 -5.3119 0
M  V30 3235 C 299.061 -0.93774 -6.04874 0
M  V30 3236 N 298.198 -0.223274 -7.01745 0
M  V30 3237 H 303.038 -1.3171 -2.67313 0
M  V30 3238 H 300.575 -0.66069 -1.31428 0
M  V30 3239 H 302.533 0.702514 -4.11243 0
M  V30 3240 H 301.163 1.08925 -3.03867 0
M  V30 3241 H 300.215 -1.26789 -3.58648 0
M  V30 3242 H 301.527 -1.45406 -4.77136 0
M  V30 3243 H 300.681 0.528335 -6.04395 0
M  V30 3244 H 299.42 0.806801 -4.8098 0
M  V30 3245 H 298.425 -1.44425 -5.30492 0
M  V30 3246 H 299.65 -1.71172 -6.57173 0
M  V30 3247 H 297.596 0.532046 -6.53839 0
M  V30 3248 H 297.513 -0.90357 -7.50581 0
M  V30 3249 H 298.781 0.250907 -7.79096 0
M  V30 3250 N 303.011 1.40521 -0.713556 0
M  V30 3251 C 303.958 2.30723 -0.059684 0
M  V30 3252 C 304.928 1.48079 0.752448 0
M  V30 3253 O 306.113 1.76823 0.71681 0
M  V30 3254 C 303.253 3.34274 0.857594 0
M  V30 3255 C 302.366 4.31986 0.0351536 0
M  V30 3256 C 301.501 5.22605 0.951724 0
M  V30 3257 C 300.54 6.11976 0.123253 0
M  V30 3258 N 299.677 6.9502 0.99459 0
M  V30 3259 H 304.517 2.86074 -0.834596 0
M  V30 3260 H 302.054 1.40879 -0.42326 0
M  V30 3261 H 304.012 3.92879 1.40364 0
M  V30 3262 H 302.642 2.8043 1.59871 0
M  V30 3263 H 301.694 3.7518 -0.628052 0
M  V30 3264 H 303.006 4.95101 -0.606347 0
M  V30 3265 H 302.16 5.86131 1.56638 0
M  V30 3266 H 300.899 4.59759 1.62705 0
M  V30 3267 H 299.904 5.47482 -0.50435 0
M  V30 3268 H 301.129 6.76881 -0.548539 0
M  V30 3269 H 299.075 6.34764 1.6556 0
M  V30 3270 H 298.992 7.54892 0.40908 0
M  V30 3271 H 300.26 7.62997 1.59549 0
M  V30 3272 N 304.489 0.459591 1.5075 0
M  V30 3273 C 305.738 -0.100971 2.01447 0
M  V30 3274 C 306.051 -1.41816 1.34713 0
M  V30 3275 O 307.257 -2.06299 1.76502 0
M  V30 3276 C 305.713 -0.23047 3.59161 0
M  V30 3277 C 305.321 1.0776 4.34847 0
M  V30 3278 C 307.065 -0.743608 4.17936 0
M  V30 3279 C 304.972 0.91253 5.84317 0
M  V30 3280 H 303.902 -0.0415102 0.752856 0
M  V30 3281 H 306.553 0.592742 1.73663 0
M  V30 3282 H 304.935 -0.987703 3.83485 0
M  V30 3283 H 306.109 1.8449 4.22256 0
M  V30 3284 H 304.424 1.52097 3.87628 0
M  V30 3285 H 307.021 -0.883959 5.27343 0
M  V30 3286 H 307.364 -1.73196 3.78562 0
M  V30 3287 H 307.897 -0.04408 3.97776 0
M  V30 3288 H 304.636 1.87391 6.28144 0
M  V30 3289 H 304.156 0.185422 5.99513 0
M  V30 3290 H 305.835 0.574547 6.44444 0
M  V30 3291 N 305.967 -1.56429 0.191757 0
M  V30 3292 C 307.378 -1.83912 -0.321428 0
M  V30 3293 C 307.729 -1.11231 -1.61623 0
M  V30 3294 O 306.854 -0.37202 -2.13178 0
M  V30 3295 C 307.449 -3.33624 -0.589961 0
M  V30 3296 C 306.008 -3.6153 -1.04753 0
M  V30 3297 C 305.155 -2.7714 -0.0943327 0
M  V30 3298 H 308.106 -1.53161 0.415612 0
M  V30 3299 H 308.127 -3.52213 -1.43966 0
M  V30 3300 H 307.639 -3.86495 0.352588 0
M  V30 3301 H 305.74 -3.14089 -2.00447 0
M  V30 3302 H 305.853 -4.69737 -0.942549 0
M  V30 3303 H 304.217 -2.47638 -0.595589 0
M  V30 3304 H 305 -3.32799 0.842601 0
M  V30 3305 N 307.445 0.0818655 -1.57387 0
M  V30 3306 C 308.722 0.815343 -1.77796 0
M  V30 3307 C 309.102 1.96289 -0.77679 0
M  V30 3308 O 308.45 2.27691 0.192106 0
M  V30 3309 C 308.66 1.29765 -3.23978 0
M  V30 3310 C 310.008 1.7351 -3.8753 0
M  V30 3311 O 311.032 1.39356 -3.27808 0
M  V30 3312 O 309.891 2.36708 -4.92576 0
M  V30 3313 H 306.985 0.389914 -0.729312 0
M  V30 3314 H 309.531 0.0627213 -1.69584 0
M  V30 3315 H 308.303 0.47608 -3.88393 0
M  V30 3316 H 307.926 2.11189 -3.36875 0
M  V30 3317 N 308.923 1.53595 0.353017 0
M  V30 3318 C 309.886 1.80232 1.41594 0
M  V30 3319 C 310.886 0.673081 1.46035 0
M  V30 3320 O 312.076 0.941335 1.46576 0
M  V30 3321 C 309.208 1.93578 2.80607 0
M  V30 3322 H 310.401 2.75174 1.19244 0
M  V30 3323 H 307.954 1.44864 0.586872 0
M  V30 3324 H 308.689 1.00746 3.08254 0
M  V30 3325 H 308.474 2.75724 2.78781 0
M  V30 3326 H 309.964 2.15735 3.57558 0
M  V30 3327 N 310.401 -0.613514 1.45168 0
M  V30 3328 C 311.812 -1.19539 1.43413 0
M  V30 3329 C 312.163 -1.95558 0.158632 0
M  V30 3330 O 311.288 -2.0335 -0.740119 0
M  V30 3331 C 311.883 -2.17445 2.59813 0
M  V30 3332 C 310.442 -2.71022 2.61197 0
M  V30 3333 C 309.589 -1.46323 2.35552 0
M  V30 3334 H 312.54 -0.403163 1.53494 0
M  V30 3335 H 312.561 -3.00373 2.33574 0
M  V30 3336 H 312.073 -1.62089 3.52631 0
M  V30 3337 H 310.174 -3.30332 1.7237 0
M  V30 3338 H 310.287 -3.15859 3.60236 0
M  V30 3339 H 308.651 -1.75072 1.84992 0
M  V30 3340 H 309.434 -0.92844 3.30507 0
M  V30 3341 N 311.879 -1.3236 -0.855495 0
M  V30 3342 C 312.829 -1.17809 -1.95205 0
M  V30 3343 C 313.813 -0.0852319 -1.60674 0
M  V30 3344 O 315.005 -0.311651 -1.74235 0
M  V30 3345 C 312.134 -0.902437 -3.31226 0
M  V30 3346 C 311.22 -2.03695 -3.7198 0
M  V30 3347 N 311.611 -3.28544 -3.84568 0
M  V30 3348 C 309.909 -1.93993 -4.016 0
M  V30 3349 C 310.61 -4.02847 -4.19629 0
M  V30 3350 N 309.586 -3.31138 -4.31102 0
M  V30 3351 H 313.388 -2.12462 -2.0307 0
M  V30 3352 H 310.902 -1.24127 -1.0472 0
M  V30 3353 H 312.899 -0.77915 -4.09554 0
M  V30 3354 H 311.559 0.0357267 -3.2468 0
M  V30 3355 H 312.57 -3.6349 -3.68911 0
M  V30 3356 H 309.247 -1.07733 -4.03361 0
M  V30 3357 H 310.637 -5.10506 -4.36845 0
M  V30 3358 N 313.357 1.07166 -1.15556 0
M  V30 3359 C 314.267 2.17947 -0.868116 0
M  V30 3360 C 315.283 1.73297 0.156297 0
M  V30 3361 O 316.459 2.01392 -0.0182327 0
M  V30 3362 C 313.524 3.44789 -0.36355 0
M  V30 3363 C 312.585 4.03996 -1.45209 0
M  V30 3364 C 311.818 5.24783 -0.971508 0
M  V30 3365 O 312.041 5.70109 0.182194 0
M  V30 3366 O 310.975 5.75715 -1.75603 0
M  V30 3367 H 314.801 2.4503 -1.79427 0
M  V30 3368 H 312.386 1.16539 -0.934824 0
M  V30 3369 H 314.268 4.21307 -0.0887113 0
M  V30 3370 H 312.943 3.19253 0.534708 0
M  V30 3371 H 311.85 3.29009 -1.78056 0
M  V30 3372 H 313.183 4.33808 -2.32533 0
M  V30 3373 N 314.835 0.952656 1.25548 0
M  V30 3374 C 316.063 0.623496 1.97282 0
M  V30 3375 C 316.478 -0.803987 1.70826 0
M  V30 3376 O 315.835 -1.53755 0.983147 0
M  V30 3377 C 315.886 0.870209 3.5087 0
M  V30 3378 O 315.607 2.24156 3.76412 0
M  V30 3379 C 317.108 0.553164 4.39835 0
M  V30 3380 H 314.328 0.233931 0.628902 0
M  V30 3381 H 316.872 1.27649 1.59768 0
M  V30 3382 H 315.027 0.263652 3.86502 0
M  V30 3383 H 315.441 2.31021 4.70882 0
M  V30 3384 H 316.915 0.776342 5.46513 0
M  V30 3385 H 317.392 -0.512215 4.36203 0
M  V30 3386 H 317.998 1.13896 4.09766 0
M  V30 3387 N 316.313 -1.40141 0.720998 0
M  V30 3388 C 317.243 -2.33339 0.0867621 0
M  V30 3389 C 318.224 -1.53178 -0.739622 0
M  V30 3390 O 319.409 -1.81625 -0.687449 0
M  V30 3391 C 316.539 -3.37194 -0.831728 0
M  V30 3392 C 315.493 -4.27857 -0.110558 0
M  V30 3393 C 314.819 -5.22294 -1.14513 0
M  V30 3394 C 316.119 -5.11872 1.0385 0
M  V30 3395 H 317.813 -2.86626 0.865219 0
M  V30 3396 H 315.359 -1.37814 0.417516 0
M  V30 3397 H 317.312 -4.01335 -1.28485 0
M  V30 3398 H 316.036 -2.82314 -1.64214 0
M  V30 3399 H 314.695 -3.65176 0.322797 0
M  V30 3400 H 314.343 -4.63717 -1.94874 0
M  V30 3401 H 314.043 -5.83797 -0.667446 0
M  V30 3402 H 315.567 -5.89312 -1.59824 0
M  V30 3403 H 316.981 -5.69436 0.664482 0
M  V30 3404 H 315.378 -5.82445 1.4449 0
M  V30 3405 H 316.448 -4.4753 1.86668 0
M  V30 3406 N 317.792 -0.46758 -1.50504 0
M  V30 3407 C 318.722 0.318381 -2.31319 0
M  V30 3408 C 319.703 0.993564 -1.38066 0
M  V30 3409 O 320.888 0.991411 -1.66987 0
M  V30 3410 C 318.018 1.40275 -3.17711 0
M  V30 3411 C 316.972 0.849373 -4.19487 0
M  V30 3412 C 316.298 2.03177 -4.94594 0
M  V30 3413 C 317.598 -0.136942 -5.2212 0
M  V30 3414 H 319.292 -0.356106 -2.97275 0
M  V30 3415 H 316.838 -0.172703 -1.42961 0
M  V30 3416 H 318.791 1.96004 -3.73042 0
M  V30 3417 H 317.515 2.10596 -2.49634 0
M  V30 3418 H 316.174 0.314076 -3.65252 0
M  V30 3419 H 315.822 2.72187 -4.22993 0
M  V30 3420 H 315.522 1.66774 -5.63436 0
M  V30 3421 H 317.046 2.59403 -5.52759 0
M  V30 3422 H 318.46 0.331056 -5.72343 0
M  V30 3423 H 316.857 -0.41507 -5.98663 0
M  V30 3424 H 317.927 -1.06398 -4.73083 0
M  V30 3425 N 319.27 1.56325 -0.20005 0
M  V30 3426 C 320.516 1.98012 0.438059 0
M  V30 3427 C 320.849 1.08702 1.60927 0
M  V30 3428 O 320.124 0.140064 1.93995 0
M  V30 3429 C 320.407 3.48841 0.893419 0
M  V30 3430 C 320.26 4.48928 -0.279947 0
M  V30 3431 C 321.579 4.03498 1.75719 0
M  V30 3432 H 318.698 0.719918 0.157757 0
M  V30 3433 H 321.34 1.87743 -0.291968 0
M  V30 3434 H 319.49 3.57723 1.51547 0
M  V30 3435 H 321.162 4.52079 -0.91772 0
M  V30 3436 H 319.405 4.23694 -0.930919 0
M  V30 3437 H 320.076 5.5194 0.0812601 0
M  V30 3438 H 322.552 3.97427 1.23253 0
M  V30 3439 H 321.428 5.09393 2.04476 0
M  V30 3440 H 321.689 3.4906 2.71311 0
M  V30 3441 N 320.748 -0.0735177 1.57428 0
M  V30 3442 C 321.997 -0.771809 1.86349 0
M  V30 3443 C 322.31 -1.78828 0.792452 0
M  V30 3444 O 323.516 -2.53602 0.96945 0
M  V30 3445 C 321.972 -1.42358 3.30548 0
M  V30 3446 C 321.58 -0.445761 4.45777 0
M  V30 3447 C 323.324 -2.10434 3.6867 0
M  V30 3448 C 321.231 -1.10335 5.81016 0
M  V30 3449 H 320.161 -0.291999 0.695164 0
M  V30 3450 H 322.812 -0.0250749 1.83483 0
M  V30 3451 H 321.194 -2.21852 3.28021 0
M  V30 3452 H 322.368 0.319239 4.59693 0
M  V30 3453 H 320.683 0.130457 4.16196 0
M  V30 3454 H 323.28 -2.60405 4.67004 0
M  V30 3455 H 323.623 -2.90298 2.98383 0
M  V30 3456 H 324.156 -1.37773 3.7318 0
M  V30 3457 H 320.895 -0.345061 6.54591 0
M  V30 3458 H 320.415 -1.83925 5.70904 0
M  V30 3459 H 322.094 -1.62367 6.26295 0
M  V30 3460 N 322.226 -1.5378 -0.344866 0
M  V30 3461 C 323.503 -1.61589 -1.10219 0
M  V30 3462 C 323.883 -0.436316 -2.06542 0
M  V30 3463 O 323.231 0.571543 -2.21237 0
M  V30 3464 C 323.441 -2.97602 -1.82301 0
M  V30 3465 C 324.789 -3.5291 -2.36093 0
M  V30 3466 O 325.813 -2.99768 -1.924 0
M  V30 3467 O 324.672 -4.45859 -3.16026 0
M  V30 3468 H 321.766 -0.653522 -0.506792 0
M  V30 3469 H 324.312 -1.66126 -0.346465 0
M  V30 3470 H 323.084 -3.74893 -1.12121 0
M  V30 3471 H 322.707 -2.9665 -2.64735 0
M  V30 3472 N 323.704 0.605807 -1.45491 0
M  V30 3473 C 324.667 1.69836 -1.5391 0
M  V30 3474 C 325.667 1.55261 -0.418424 0
M  V30 3475 O 326.857 1.60296 -0.681965 0
M  V30 3476 C 323.989 3.09117 -1.43734 0
M  V30 3477 H 325.182 1.63738 -2.51257 0
M  V30 3478 H 322.735 0.821689 -1.32959 0
M  V30 3479 H 323.47 3.20791 -0.475788 0
M  V30 3480 H 323.255 3.21104 -2.25021 0
M  V30 3481 H 324.745 3.88696 -1.52661 0
M  V30 3482 N 325.182 1.32811 0.848464 0
M  V30 3483 C 326.41 1.26739 1.63538 0
M  V30 3484 C 326.825 -0.163484 1.88091 0
M  V30 3485 O 326.182 -1.10258 1.45429 0
M  V30 3486 C 326.233 2.03013 2.99112 0
M  V30 3487 O 325.954 3.40518 2.75643 0
M  V30 3488 C 327.455 2.04038 3.93552 0
M  V30 3489 H 324.675 0.437024 0.509167 0
M  V30 3490 H 327.219 1.75033 1.05753 0
M  V30 3491 H 325.374 1.58426 3.53525 0
M  V30 3492 H 325.788 3.79635 3.61908 0
M  V30 3493 H 327.262 2.61877 4.85926 0
M  V30 3494 H 327.739 1.0282 4.26995 0
M  V30 3495 H 328.345 2.486 3.45077 0
M  V30 3496 N 326.66 -1.06551 1.16123 0
M  V30 3497 C 327.888 -1.83005 0.965237 0
M  V30 3498 C 328.303 -1.82423 -0.486542 0
M  V30 3499 O 327.66 -1.24152 -1.33763 0
M  V30 3500 C 327.711 -3.29733 1.48183 0
M  V30 3501 O 327.432 -3.30416 2.87674 0
M  V30 3502 C 328.933 -4.22926 1.32848 0
M  V30 3503 H 326.153 -0.577118 0.342309 0
M  V30 3504 H 328.697 -1.3445 1.54089 0
M  V30 3505 H 326.852 -3.75609 0.948517 0
M  V30 3506 H 327.266 -4.22149 3.11272 0
M  V30 3507 H 328.74 -5.23916 1.73827 0
M  V30 3508 H 329.217 -4.38346 0.273692 0
M  V30 3509 H 329.823 -3.82894 1.85127 0
M  V30 3510 N 328.138 -0.959301 -1.25041 0
M  V30 3511 C 329.386 -0.615393 -1.92503 0
M  V30 3512 C 329.707 0.850969 -1.75452 0
M  V30 3513 O 328.977 1.60658 -1.12098 0
M  V30 3514 H 327.557 -0.224613 -0.712431 0
M  V30 3515 H 330.219 -1.21855 -1.5211 0
M  V30 3516 H 329.315 -0.848738 -3.00338 0
M  V30 3517 N 329.616 1.39756 -0.72842 0
M  V30 3518 C 330.548 2.29157 -0.0446202 0
M  V30 3519 C 331.561 1.46484 0.710367 0
M  V30 3520 O 332.75 1.69632 0.55562 0
M  V30 3521 C 329.85 3.24987 0.961071 0
M  V30 3522 C 329.023 4.36572 0.268967 0
M  V30 3523 C 328.082 5.12756 1.18184 0
M  V30 3524 O 327.108 5.6534 0.661794 0
M  V30 3525 N 328.31 5.23331 2.51206 0
M  V30 3526 H 331.075 2.88482 -0.812295 0
M  V30 3527 H 328.636 1.51265 -0.577098 0
M  V30 3528 H 330.628 3.72827 1.57423 0
M  V30 3529 H 329.198 2.66739 1.63 0
M  V30 3530 H 328.418 3.90694 -0.524574 0
M  V30 3531 H 329.706 5.08363 -0.210934 0
M  V30 3532 H 329.104 4.82116 2.9594 0
M  V30 3533 H 327.661 5.74634 3.07634 0
M  V30 3534 N 331.094 0.475555 1.50254 0
M  V30 3535 C 332.042 -0.330276 2.30243 0
M  V30 3536 C 333.036 -0.986306 1.37726 0
M  V30 3537 O 334.242 -0.9169 1.54897 0
M  V30 3538 H 330.617 -0.125353 0.741479 0
M  V30 3539 H 332.588 0.364702 2.96163 0
M  V30 3540 C 331.337 -1.39704 3.18399 0
M  V30 3541 H 330.66 -0.901621 3.89501 0
M  V30 3542 H 332.1 -1.93336 3.77355 0
M  V30 3543 C 330.559 -2.4014 2.36293 0
M  V30 3544 O 331.089 -3.45504 2.04914 0
M  V30 3545 N 329.295 -2.1197 1.98789 0
M  V30 3546 H 328.842 -1.2631 2.24507 0
M  V30 3547 H 328.8 -2.79403 1.44157 0
M  V30 3548 N 332.573 -1.56217 0.208337 0
M  V30 3549 C 333.821 -1.97558 -0.426076 0
M  V30 3550 C 334.142 -1.09683 -1.61229 0
M  V30 3551 O 333.412 -0.170956 -1.95153 0
M  V30 3552 H 331.992 -0.729575 -0.160405 0
M  V30 3553 H 334.654 -1.92606 0.298155 0
M  V30 3554 H 333.75 -3.02672 -0.761312 0
M  V30 3555 N 334.051 0.0651679 -1.57465 0
M  V30 3556 C 334.981 1.07693 -2.07182 0
M  V30 3557 C 335.962 1.39962 -0.966673 0
M  V30 3558 O 337.147 1.49475 -1.2398 0
M  V30 3559 C 334.277 2.3885 -2.52127 0
M  V30 3560 C 333.231 2.20917 -3.66579 0
M  V30 3561 C 332.557 3.57515 -3.97601 0
M  V30 3562 C 333.857 1.62493 -4.9638 0
M  V30 3563 H 335.551 0.663199 -2.91962 0
M  V30 3564 H 333.097 0.317569 -1.40455 0
M  V30 3565 H 335.05 3.09928 -2.85522 0
M  V30 3566 H 333.774 2.82215 -1.64384 0
M  V30 3567 H 332.433 1.52279 -3.33477 0
M  V30 3568 H 332.081 3.98463 -3.06979 0
M  V30 3569 H 331.781 3.46353 -4.74672 0
M  V30 3570 H 333.305 4.30013 -4.33499 0
M  V30 3571 H 334.719 2.23445 -5.27963 0
M  V30 3572 H 333.116 1.62009 -5.77818 0
M  V30 3573 H 334.186 0.587041 -4.81333 0
M  V30 3574 N 335.529 1.53961 0.336706 0
M  V30 3575 C 336.775 1.7179 1.07777 0
M  V30 3576 C 337.108 0.483263 1.88091 0
M  V30 3577 O 336.383 -0.519747 1.87427 0
M  V30 3578 C 336.666 2.98558 2.01334 0
M  V30 3579 C 336.519 4.32245 1.24437 0
M  V30 3580 C 337.838 3.21023 3.01052 0
M  V30 3581 H 334.957 0.625089 0.390426 0
M  V30 3582 H 337.599 1.86641 0.35567 0
M  V30 3583 H 335.749 2.86028 2.62908 0
M  V30 3584 H 337.421 4.56637 0.654243 0
M  V30 3585 H 335.664 4.30344 0.546458 0
M  V30 3586 H 336.335 5.17137 1.93063 0
M  V30 3587 H 338.811 3.32929 2.49595 0
M  V30 3588 H 337.687 4.11104 3.6371 0
M  V30 3589 H 337.948 2.37637 3.72802 0
M  V30 3590 N 337.007 -0.598083 1.45811 0
M  V30 3591 C 337.939 -1.72231 1.51225 0
M  V30 3592 C 338.952 -1.57757 0.402059 0
M  V30 3593 O 340.141 -1.65464 0.669624 0
M  V30 3594 C 337.241 -3.10331 1.3619 0
M  V30 3595 C 336.414 -3.50955 2.61054 0
M  V30 3596 C 335.473 -4.68055 2.40439 0
M  V30 3597 O 334.499 -4.74691 3.14097 0
M  V30 3598 N 335.701 -5.61941 1.45612 0
M  V30 3599 H 338.466 -1.68046 2.48154 0
M  V30 3600 H 336.027 -0.783637 1.41671 0
M  V30 3601 H 338.019 -3.86439 1.20195 0
M  V30 3602 H 336.589 -3.0897 0.475015 0
M  V30 3603 H 335.809 -2.64711 2.92099 0
M  V30 3604 H 337.097 -3.74858 3.44034 0
M  V30 3605 H 336.495 -5.59301 0.848431 0
M  V30 3606 H 335.052 -6.37542 1.35585 0
M  V30 3607 N 338.485 -1.33259 -0.841409 0
M  V30 3608 C 339.448 -1.23221 -1.9326 0
M  V30 3609 C 340.448 -0.151895 -1.60081 0
M  V30 3610 O 341.638 -0.403246 -1.69468 0
M  V30 3611 C 338.77 -0.898123 -3.28856 0
M  V30 3612 H 339.963 -2.2021 -2.03587 0
M  V30 3613 H 337.516 -1.17281 -1.03319 0
M  V30 3614 H 338.251 0.0693841 -3.24226 0
M  V30 3615 H 338.036 -1.67934 -3.54317 0
M  V30 3616 H 339.526 -0.852563 -4.08805 0
M  V30 3617 N 339.963 1.05934 -1.16686 0
M  V30 3618 C 340.91 2.13499 -0.876748 0
M  V30 3619 C 341.88 1.65162 0.176299 0
M  V30 3620 O 343.065 1.90757 0.0407143 0
M  V30 3621 C 340.205 3.42912 -0.387967 0
M  V30 3622 C 339.318 4.04964 -1.50426 0
M  V30 3623 C 338.453 5.22266 -0.970125 0
M  V30 3624 C 337.492 5.76309 -2.06238 0
M  V30 3625 N 336.629 6.84922 -1.54356 0
M  V30 3626 H 341.469 2.37654 -1.7979 0
M  V30 3627 H 339.006 1.16598 -0.896843 0
M  V30 3628 H 340.964 4.17111 -0.086186 0
M  V30 3629 H 339.594 3.18963 0.496235 0
M  V30 3630 H 338.646 3.28277 -1.92193 0
M  V30 3631 H 339.958 4.41122 -2.32836 0
M  V30 3632 H 339.112 6.03506 -0.621743 0
M  V30 3633 H 337.851 4.87564 -0.115377 0
M  V30 3634 H 336.856 4.93704 -2.41942 0
M  V30 3635 H 338.081 6.13062 -2.92115 0
M  V30 3636 H 336.027 6.52131 -0.711406 0
M  V30 3637 H 335.944 7.20043 -2.30379 0
M  V30 3638 H 337.212 7.69832 -1.22387 0
M  V30 3639 N 341.441 0.965919 1.2453 0
M  V30 3640 C 342.69 0.622437 1.91856 0
M  V30 3641 C 343.003 -0.846006 1.76358 0
M  V30 3642 O 344.209 -1.29993 2.38357 0
M  V30 3643 C 342.665 1.0626 3.43856 0
M  V30 3644 C 342.273 2.55437 3.68043 0
M  V30 3645 C 344.017 0.792183 4.17043 0
M  V30 3646 C 341.924 2.93196 5.13605 0
M  V30 3647 H 340.854 0.229092 0.718354 0
M  V30 3648 H 343.505 1.17189 1.41206 0
M  V30 3649 H 341.887 0.441476 3.93531 0
M  V30 3650 H 343.061 3.22665 3.28974 0
M  V30 3651 H 341.376 2.8007 3.08139 0
M  V30 3652 H 343.973 1.05031 5.24283 0
M  V30 3653 H 344.316 -0.271584 4.15413 0
M  V30 3654 H 344.849 1.37419 3.73311 0
M  V30 3655 H 341.588 3.98636 5.20355 0
M  V30 3656 H 341.108 2.30651 5.53679 0
M  V30 3657 H 342.787 2.83004 5.81823 0
M  V30 3658 N 342.919 -1.39368 0.735821 0
M  V30 3659 C 344.166 -2.00497 0.284123 0
M  V30 3660 C 344.494 -1.58387 -1.12889 0
M  V30 3661 O 343.749 -0.804359 -1.78406 0
M  V30 3662 C 344.048 -3.5583 0.334651 0
M  V30 3663 C 343.714 -4.17593 1.7008 0
M  V30 3664 C 342.376 -4.34176 2.07472 0
M  V30 3665 C 344.728 -4.51848 2.59775 0
M  V30 3666 C 342.056 -4.82304 3.34065 0
M  V30 3667 C 344.408 -5.01384 3.85741 0
M  V30 3668 C 343.072 -5.16175 4.23225 0
M  V30 3669 H 342.342 -0.73367 0.103968 0
M  V30 3670 H 344.989 -1.66683 0.942825 0
M  V30 3671 H 343.294 -3.89674 -0.407625 0
M  V30 3672 H 344.991 -4.00986 -0.0329927 0
M  V30 3673 H 341.581 -4.05087 1.40008 0
M  V30 3674 H 345.765 -4.38653 2.32157 0
M  V30 3675 H 341.021 -4.91941 3.63049 0
M  V30 3676 H 345.195 -5.26863 4.55399 0
M  V30 3677 H 342.822 -5.5323 5.21384 0
M  V30 3678 N 344.397 -0.483516 -1.5 0
M  V30 3679 C 345.344 0.304164 -2.28787 0
M  V30 3680 C 346.314 0.976114 -1.34392 0
M  V30 3681 O 347.499 0.986156 -1.63339 0
M  V30 3682 C 344.639 1.37298 -3.16612 0
M  V30 3683 C 343.752 0.714561 -4.26049 0
M  V30 3684 C 342.887 1.76232 -5.01114 0
M  V30 3685 C 341.926 1.08483 -6.0241 0
M  V30 3686 N 341.063 2.076 -6.70706 0
M  V30 3687 H 345.903 -0.373981 -2.95644 0
M  V30 3688 H 343.44 -0.196275 -1.45785 0
M  V30 3689 H 345.398 2.00445 -3.65893 0
M  V30 3690 H 344.028 2.02012 -2.51776 0
M  V30 3691 H 343.08 -0.0297798 -3.80388 0
M  V30 3692 H 344.392 0.180383 -4.98474 0
M  V30 3693 H 343.546 2.46929 -5.54176 0
M  V30 3694 H 342.285 2.33033 -4.28424 0
M  V30 3695 H 341.29 0.363545 -5.48597 0
M  V30 3696 H 342.515 0.523551 -6.77079 0
M  V30 3697 H 340.461 2.63394 -6.00799 0
M  V30 3698 H 340.378 1.59201 -7.39047 0
M  V30 3699 H 341.646 2.77639 -7.2838 0
M  V30 3700 N 345.875 1.56104 -0.216619 0
M  V30 3701 C 346.785 2.23694 0.706982 0
M  V30 3702 C 347.801 1.24295 1.21765 0
M  V30 3703 O 348.977 1.57094 1.2603 0
M  V30 3704 C 346.042 2.8998 1.90033 0
M  V30 3705 C 345.103 4.04708 1.43213 0
M  V30 3706 C 344.336 4.67824 2.56859 0
M  V30 3707 O 344.559 4.29913 3.74874 0
M  V30 3708 O 343.493 5.56905 2.28343 0
M  V30 3709 H 347.319 3.03272 0.161235 0
M  V30 3710 H 344.904 1.49394 0.0136177 0
M  V30 3711 H 346.786 3.31837 2.59735 0
M  V30 3712 H 345.461 2.13365 2.43428 0
M  V30 3713 H 344.368 3.6743 0.70327 0
M  V30 3714 H 345.701 4.83051 0.944615 0
M  V30 3715 N 347.353 -0.0568162 1.57498 0
M  V30 3716 C 348.316 -1.05038 2.03715 0
M  V30 3717 C 349.316 -1.30709 0.936577 0
M  V30 3718 O 350.506 -1.26178 1.20103 0
M  V30 3719 C 347.638 -2.39034 2.43055 0
M  V30 3720 H 348.831 -0.651715 2.92733 0
M  V30 3721 H 346.384 -0.302947 1.53336 0
M  V30 3722 H 347.119 -2.83703 1.57108 0
M  V30 3723 H 346.904 -2.21739 3.2338 0
M  V30 3724 H 348.394 -3.10421 2.79336 0
M  V30 3725 N 348.832 -1.54138 -0.328536 0
M  V30 3726 C 350.078 -1.7236 -1.06865 0
M  V30 3727 C 350.411 -0.493231 -1.87832 0
M  V30 3728 O 349.686 0.5098 -1.877 0
M  V30 3729 C 349.969 -2.99621 -1.99747 0
M  V30 3730 C 349.822 -4.32899 -1.22143 0
M  V30 3731 C 351.141 -3.22615 -2.99345 0
M  V30 3732 H 348.26 -0.627151 -0.387105 0
M  V30 3733 H 350.902 -1.86827 -0.345767 0
M  V30 3734 H 349.052 -2.87418 -2.61387 0
M  V30 3735 H 350.724 -4.56978 -0.630017 0
M  V30 3736 H 348.967 -4.30628 -0.523628 0
M  V30 3737 H 349.638 -5.18154 -1.90318 0
M  V30 3738 H 352.114 -3.34248 -2.47826 0
M  V30 3739 H 350.99 -4.13027 -3.61524 0
M  V30 3740 H 351.251 -2.3961 -3.71536 0
M  V30 3741 N 350.31 0.590341 -1.46126 0
M  V30 3742 C 351.258 1.72105 -1.5647 0
M  V30 3743 C 352.252 1.63756 -0.433612 0
M  V30 3744 O 353.458 1.69342 -0.610194 0
M  V30 3745 H 349.833 0.568889 -0.491802 0
M  V30 3746 H 351.804 1.6051 -2.51553 0
M  V30 3747 C 350.553 3.10493 -1.56491 0
M  V30 3748 H 349.876 3.17583 -2.4286 0
M  V30 3749 H 351.316 3.8939 -1.67785 0
M  V30 3750 C 349.775 3.3563 -0.292231 0
M  V30 3751 O 350.305 3.96875 0.620739 0
M  V30 3752 N 348.511 2.90026 -0.182523 0
M  V30 3753 H 348.058 2.40367 -0.926356 0
M  V30 3754 H 348.016 3.07218 0.668152 0
M  V30 3755 N 351.788 1.33704 0.83433 0
M  V30 3756 C 353.034 1.25603 1.59222 0
M  V30 3757 C 353.367 -0.176659 1.93395 0
M  V30 3758 O 352.642 -1.11915 1.59076 0
M  V30 3759 C 352.925 2.13576 2.89926 0
M  V30 3760 C 352.778 3.65326 2.62406 0
M  V30 3761 C 354.097 2.01238 3.91397 0
M  V30 3762 H 351.216 0.457613 0.577719 0
M  V30 3763 H 353.858 1.63848 0.961972 0
M  V30 3764 H 352.008 1.8109 3.43713 0
M  V30 3765 H 353.68 4.08124 2.15017 0
M  V30 3766 H 351.923 3.8698 1.96033 0
M  V30 3767 H 352.594 4.22232 3.55562 0
M  V30 3768 H 355.07 2.29738 3.46929 0
M  V30 3769 H 353.946 2.65036 4.80673 0
M  V30 3770 H 354.207 0.985951 4.30966 0
M  V30 3771 N 353.266 -1.05314 1.17247 0
M  V30 3772 C 354.494 -1.81971 0.984593 0
M  V30 3773 C 354.909 -1.82929 -0.467166 0
M  V30 3774 O 354.266 -1.25564 -1.32438 0
M  V30 3775 C 354.317 -3.28143 1.51672 0
M  V30 3776 O 354.038 -3.27347 2.91163 0
M  V30 3777 C 355.539 -4.21493 1.37326 0
M  V30 3778 H 352.759 -0.573455 0.348411 0
M  V30 3779 H 355.303 -1.32808 1.55506 0
M  V30 3780 H 353.458 -3.74582 0.988302 0
M  V30 3781 H 353.872 -4.18824 3.15732 0
M  V30 3782 H 355.346 -5.22043 1.79375 0
M  V30 3783 H 355.823 -4.38031 0.320169 0
M  V30 3784 H 356.429 -3.80909 1.89178 0
M  V30 3785 N 354.744 -0.972509 -1.24016 0
M  V30 3786 C 355.992 -0.635776 -1.91839 0
M  V30 3787 C 356.313 0.832312 -1.76345 0
M  V30 3788 O 355.583 1.5946 -1.13795 0
M  V30 3789 H 354.163 -0.232157 -0.710009 0
M  V30 3790 H 356.825 -1.23462 -1.50809 0
M  V30 3791 H 355.921 -0.880545 -2.99421 0
M  V30 3792 N 356.222 1.38976 -0.743202 0
M  V30 3793 C 357.471 1.99581 -0.291592 0
M  V30 3794 C 357.784 1.59656 1.13001 0
M  V30 3795 O 358.99 2.13157 1.68156 0
M  V30 3796 C 357.446 3.56813 -0.470391 0
M  V30 3797 C 357.054 4.05695 -1.90041 0
M  V30 3798 C 358.798 4.24423 -0.0809709 0
M  V30 3799 C 356.705 5.5553 -2.02832 0
M  V30 3800 H 355.635 0.746615 -0.105272 0
M  V30 3801 H 358.286 1.58872 -0.918258 0
M  V30 3802 H 356.668 3.95359 0.225299 0
M  V30 3803 H 357.842 3.78464 -2.62872 0
M  V30 3804 H 356.157 3.50775 -2.24379 0
M  V30 3805 H 358.754 5.34474 -0.155445 0
M  V30 3806 H 359.097 4.04962 0.96497 0
M  V30 3807 H 359.63 3.9108 -0.728124 0
M  V30 3808 H 356.369 5.79881 -3.05643 0
M  V30 3809 H 355.889 5.84537 -1.34448 0
M  V30 3810 H 357.568 6.21069 -1.81335 0
M  V30 3811 N 357.7 0.491464 1.49741 0
M  V30 3812 C 358.949 -0.0582189 2.01616 0
M  V30 3813 C 359.262 -1.38927 1.3769 0
M  V30 3814 O 360.468 -2.02509 1.80838 0
M  V30 3815 C 358.924 -0.154235 3.59569 0
M  V30 3816 C 358.532 1.1696 4.32463 0
M  V30 3817 C 360.276 -0.65479 4.1942 0
M  V30 3818 C 358.183 1.03627 5.8225 0
M  V30 3819 H 357.113 -0.0255317 0.753568 0
M  V30 3820 H 359.764 0.629445 1.72367 0
M  V30 3821 H 358.146 -0.906138 3.85493 0
M  V30 3822 H 359.32 1.93405 4.18248 0
M  V30 3823 H 357.635 1.60285 3.84315 0
M  V30 3824 H 360.232 -0.771903 5.29099 0
M  V30 3825 H 360.575 -1.65127 3.8215 0
M  V30 3826 H 361.108 0.040304 3.9778 0
M  V30 3827 H 357.847 2.00672 6.24028 0
M  V30 3828 H 357.367 0.312546 5.98985 0
M  V30 3829 H 359.046 0.711114 6.4308 0
M  V30 3830 N 359.178 -1.55987 0.224894 0
M  V30 3831 C 360.108 -2.23426 -0.678457 0
M  V30 3832 C 361.089 -1.20709 -1.19847 0
M  V30 3833 O 362.274 -1.49304 -1.24186 0
M  V30 3834 C 359.404 -2.91676 -1.88527 0
M  V30 3835 C 358.358 -4.00893 -1.49896 0
M  V30 3836 C 357.684 -4.56455 -2.78483 0
M  V30 3837 C 358.984 -5.17769 -0.686461 0
M  V30 3838 H 360.678 -2.99175 -0.116173 0
M  V30 3839 H 358.224 -1.43897 -0.054436 0
M  V30 3840 H 360.177 -3.37547 -2.5227 0
M  V30 3841 H 358.901 -2.1338 -2.47258 0
M  V30 3842 H 357.56 -3.55758 -0.884985 0
M  V30 3843 H 357.208 -3.74886 -3.35365 0
M  V30 3844 H 356.908 -5.30169 -2.53368 0
M  V30 3845 H 358.432 -5.05047 -3.43162 0
M  V30 3846 H 359.846 -5.60001 -1.22767 0
M  V30 3847 H 358.243 -5.97735 -0.532259 0
M  V30 3848 H 359.313 -4.83932 0.306196 0
M  V30 3849 N 360.656 0.0484629 -1.57525 0
M  V30 3850 C 361.884 0.755421 -1.92616 0
M  V30 3851 C 362.299 1.69919 -0.822984 0
M  V30 3852 O 361.656 1.81378 0.202085 0
M  V30 3853 C 361.707 1.52915 -3.27566 0
M  V30 3854 O 361.428 0.62329 -4.33644 0
M  V30 3855 C 362.929 2.33502 -3.76818 0
M  V30 3856 H 360.149 0.213465 -0.63614 0
M  V30 3857 H 362.693 0.0117698 -2.04497 0
M  V30 3858 H 360.848 2.22486 -3.17142 0
M  V30 3859 H 361.262 1.16383 -5.11425 0
M  V30 3860 H 362.736 2.83214 -4.73808 0
M  V30 3861 H 363.213 3.14068 -3.07014 0
M  V30 3862 H 363.819 1.69043 -3.90262 0
M  V30 3863 N 362.134 1.5431 0.320358 0
M  V30 3864 C 363.081 1.83918 1.39438 0
M  V30 3865 C 364.051 0.686525 1.51248 0
M  V30 3866 O 365.236 0.933269 1.66417 0
M  V30 3867 C 362.376 2.075 2.75749 0
M  V30 3868 C 361.489 3.35177 2.72544 0
M  V30 3869 C 360.624 3.48704 4.00723 0
M  V30 3870 C 359.663 4.70244 3.91838 0
M  V30 3871 N 358.8 4.80679 5.11754 0
M  V30 3872 H 363.64 2.75544 1.13489 0
M  V30 3873 H 361.177 1.36459 0.549309 0
M  V30 3874 H 363.135 2.19166 3.54996 0
M  V30 3875 H 361.765 1.19163 3 0
M  V30 3876 H 360.817 3.32233 1.85271 0
M  V30 3877 H 362.129 4.24534 2.61863 0
M  V30 3878 H 361.283 3.59928 4.88402 0
M  V30 3879 H 360.022 2.57445 4.14214 0
M  V30 3880 H 359.027 4.59072 3.02544 0
M  V30 3881 H 360.252 5.6289 3.7991 0
M  V30 3882 H 358.198 3.92337 5.25745 0
M  V30 3883 H 358.115 5.64007 5.0342 0
M  V30 3884 H 359.383 4.96239 6.01138 0
M  V30 3885 N 363.613 -0.582584 1.46437 0
M  V30 3886 C 364.543 -1.70187 1.59871 0
M  V30 3887 C 365.524 -1.64066 0.449042 0
M  V30 3888 O 366.709 -1.82081 0.6753 0
M  V30 3889 C 363.839 -3.08827 1.58881 0
M  V30 3890 C 362.793 -3.29779 2.72819 0
M  V30 3891 C 362.119 -4.68947 2.5689 0
M  V30 3892 C 363.419 -3.17601 4.1464 0
M  V30 3893 H 365.113 -1.592 2.53566 0
M  V30 3894 H 362.659 -0.764472 1.22032 0
M  V30 3895 H 364.612 -3.86951 1.66873 0
M  V30 3896 H 363.336 -3.20713 0.617306 0
M  V30 3897 H 361.995 -2.54054 2.64296 0
M  V30 3898 H 361.643 -4.77599 1.57823 0
M  V30 3899 H 361.343 -4.83919 3.33312 0
M  V30 3900 H 362.867 -5.4924 2.66773 0
M  V30 3901 H 364.281 -3.8557 4.24274 0
M  V30 3902 H 362.678 -3.44094 4.9165 0
M  V30 3903 H 363.748 -2.14681 4.34788 0
M  V30 3904 N 365.091 -1.34144 -0.827227 0
M  V30 3905 C 366.368 -1.16844 -1.56865 0
M  V30 3906 C 366.748 0.260654 -2.09485 0
M  V30 3907 O 366.096 1.26138 -1.9053 0
M  V30 3908 C 366.306 -2.21939 -2.6934 0
M  V30 3909 C 367.654 -2.56695 -3.3822 0
M  V30 3910 O 368.678 -2.20695 -2.79593 0
M  V30 3911 O 367.537 -3.18518 -4.44082 0
M  V30 3912 H 364.631 -0.452669 -0.692112 0
M  V30 3913 H 367.177 -1.45763 -0.868973 0
M  V30 3914 H 365.949 -3.17882 -2.28182 0
M  V30 3915 H 365.572 -1.94172 -3.46962 0
M  V30 3916 N 366.569 1.04691 -1.17803 0
M  V30 3917 C 367.817 1.7743 -0.967617 0
M  V30 3918 C 368.138 1.88359 0.504574 0
M  V30 3919 O 367.408 1.40402 1.36617 0
M  V30 3920 H 365.988 0.657242 -0.355024 0
M  V30 3921 H 368.65 1.2638 -1.48371 0
M  V30 3922 H 367.746 2.78924 -1.40027 0
M  V30 3923 N 368.047 0.979072 1.23499 0
M  V30 3924 C 369.275 0.665202 1.95915 0
M  V30 3925 C 369.69 -0.767571 1.72493 0
M  V30 3926 O 369.047 -1.51635 1.01554 0
M  V30 3927 C 369.098 0.944438 3.48945 0
M  V30 3928 O 368.819 2.3209 3.71572 0
M  V30 3929 C 370.32 0.646336 4.38563 0
M  V30 3930 H 367.54 0.247218 0.623798 0
M  V30 3931 H 370.084 1.31009 1.57025 0
M  V30 3932 H 368.239 0.345575 3.85856 0
M  V30 3933 H 368.653 2.40957 4.65876 0
M  V30 3934 H 370.127 0.892091 5.44744 0
M  V30 3935 H 370.604 -0.419575 4.37191 0
M  V30 3936 H 371.21 1.22562 4.07258 0
M  V30 3937 N 369.525 -1.3858 0.750561 0
M  V30 3938 C 370.488 -2.28836 0.129152 0
M  V30 3939 C 371.488 -1.47045 -0.650714 0
M  V30 3940 O 372.678 -1.6753 -0.477428 0
M  V30 3941 C 369.81 -3.30751 -0.825622 0
M  V30 3942 H 371.003 -2.85294 0.924516 0
M  V30 3943 H 368.556 -1.47489 0.517376 0
M  V30 3944 H 369.291 -2.79378 -1.64677 0
M  V30 3945 H 369.076 -3.91177 -0.268852 0
M  V30 3946 H 370.566 -3.98249 -1.2565 0
M  V30 3947 N 371.003 -0.499398 -1.49478 0
M  V30 3948 C 371.95 0.279881 -2.29097 0
M  V30 3949 C 372.92 0.961805 -1.3542 0
M  V30 3950 O 374.105 0.968777 -1.64376 0
M  V30 3951 C 371.245 1.33932 -3.18051 0
M  V30 3952 C 370.358 0.669333 -4.26783 0
M  V30 3953 C 369.493 1.70907 -5.02955 0
M  V30 3954 C 368.532 1.02087 -6.03527 0
M  V30 3955 N 367.669 2.00474 -6.7287 0
M  V30 3956 H 372.509 -0.405317 -2.95231 0
M  V30 3957 H 370.046 -0.211726 -1.45568 0
M  V30 3958 H 372.004 1.96553 -3.67998 0
M  V30 3959 H 370.634 1.9933 -2.53904 0
M  V30 3960 H 369.686 -0.0701234 -3.80335 0
M  V30 3961 H 370.998 0.127503 -4.98637 0
M  V30 3962 H 370.152 2.41037 -5.56764 0
M  V30 3963 H 368.891 2.28476 -4.30871 0
M  V30 3964 H 367.896 0.305338 -5.48951 0
M  V30 3965 H 369.121 0.451708 -6.77596 0
M  V30 3966 H 367.067 2.57007 -6.03559 0
M  V30 3967 H 366.984 1.51353 -7.40694 0
M  V30 3968 H 368.252 2.69897 -7.31284 0
M  V30 3969 N 372.481 1.55866 -0.233164 0
M  V30 3970 C 373.729 1.9821 0.394593 0
M  V30 3971 C 374.05 1.12234 1.59463 0
M  V30 3972 O 373.32 0.201981 1.94856 0
M  V30 3973 H 371.9 0.732034 0.148778 0
M  V30 3974 H 374.562 1.92107 -0.32876 0
M  V30 3975 H 373.658 3.03845 0.713063 0
M  V30 3976 N 373.959 -0.0401083 1.57549 0
M  V30 3977 C 375.207 -0.731677 1.8839 0
M  V30 3978 C 375.528 -1.76481 0.829425 0
M  V30 3979 O 374.798 -1.95411 -0.1383 0
M  V30 3980 H 373.378 -0.273225 0.695239 0
M  V30 3981 H 376.04 -0.00867725 1.94898 0
M  V30 3982 H 375.136 -1.22816 2.86919 0
M  V30 3983 N 375.437 -1.54477 -0.31217 0
M  V30 3984 C 376.686 -1.72438 -1.04633 0
M  V30 3985 C 376.999 -0.511163 -1.88803 0
M  V30 3986 O 378.205 -0.572341 -2.65399 0
M  V30 3987 C 376.661 -3.05043 -1.9099 0
M  V30 3988 C 376.269 -4.33806 -1.11877 0
M  V30 3989 C 378.013 -3.32364 -2.64073 0
M  V30 3990 C 375.92 -5.57467 -1.97445 0
M  V30 3991 H 374.85 -0.642647 -0.394361 0
M  V30 3992 H 377.501 -1.80966 -0.303929 0
M  V30 3993 H 375.883 -2.90451 -2.69173 0
M  V30 3994 H 377.057 -4.59199 -0.383843 0
M  V30 3995 H 375.372 -4.13336 -0.504252 0
M  V30 3996 H 377.969 -4.21951 -3.28423 0
M  V30 3997 H 378.312 -2.50745 -3.32314 0
M  V30 3998 H 378.845 -3.47875 -1.92944 0
M  V30 3999 H 375.584 -6.41722 -1.33692 0
M  V30 4000 H 375.104 -5.36277 -2.6864 0
M  V30 4001 H 376.783 -5.94303 -2.5576 0
M  V30 4002 N 376.915 0.57481 -1.46744 0
M  V30 4003 C 378.143 1.35856 -1.56047 0
M  V30 4004 C 378.558 1.87691 -0.204365 0
M  V30 4005 O 377.915 1.64049 0.79963 0
M  V30 4006 C 377.966 2.54066 -2.57163 0
M  V30 4007 O 377.687 2.04377 -3.87507 0
M  V30 4008 C 379.188 3.46514 -2.76483 0
M  V30 4009 H 376.408 0.414754 -0.527466 0
M  V30 4010 H 378.952 0.698035 -1.92218 0
M  V30 4011 H 377.107 3.16092 -2.23974 0
M  V30 4012 H 377.521 2.81419 -4.4261 0
M  V30 4013 H 378.995 4.25919 -3.51137 0
M  V30 4014 H 379.472 3.98951 -1.83671 0
M  V30 4015 H 380.078 2.90318 -3.10799 0
M  V30 4016 N 378.394 1.34581 0.820102 0
M  V30 4017 C 379.324 1.29038 1.94606 0
M  V30 4018 C 380.305 0.1673 1.69275 0
M  V30 4019 O 381.49 0.360112 1.90832 0
M  V30 4020 C 378.62 1.04793 3.31113 0
M  V30 4021 C 377.574 2.13597 3.70891 0
M  V30 4022 C 376.9 1.74537 5.05412 0
M  V30 4023 C 378.2 3.55451 3.8269 0
M  V30 4024 H 379.894 2.23248 1.99501 0
M  V30 4025 H 377.44 1.0747 0.958449 0
M  V30 4026 H 379.393 0.995592 4.0947 0
M  V30 4027 H 378.117 0.0702565 3.26524 0
M  V30 4028 H 376.776 2.17905 2.9481 0
M  V30 4029 H 376.424 0.754226 4.97313 0
M  V30 4030 H 376.124 2.47361 5.32997 0
M  V30 4031 H 377.648 1.70803 5.86224 0
M  V30 4032 H 379.062 3.5354 4.51312 0
M  V30 4033 H 377.459 4.26922 4.21732 0
M  V30 4034 H 378.529 3.92587 2.84611 0
M  V30 4035 N 379.872 -1.04064 1.18357 0
M  V30 4036 C 380.835 -2.10243 0.912707 0
M  V30 4037 C 381.835 -1.60477 -0.101928 0
M  V30 4038 O 383.025 -1.73703 0.131517 0
M  V30 4039 C 380.157 -3.38893 0.369387 0
M  V30 4040 H 381.35 -2.35706 1.85426 0
M  V30 4041 H 378.903 -1.20489 0.995594 0
M  V30 4042 H 379.638 -3.19094 -0.578776 0
M  V30 4043 H 379.423 -3.76331 1.1008 0
M  V30 4044 H 380.913 -4.17128 0.198575 0
M  V30 4045 N 381.35 -0.985608 -1.22978 0
M  V30 4046 C 382.599 -0.652881 -1.90841 0
M  V30 4047 C 382.912 0.817842 -1.77681 0
M  V30 4048 O 384.118 1.26185 -2.40395 0
M  V30 4049 C 382.574 -1.11717 -3.42122 0
M  V30 4050 C 382.182 -2.6126 -3.63933 0
M  V30 4051 C 383.926 -0.85843 -4.1573 0
M  V30 4052 C 381.833 -3.0133 -5.08876 0
M  V30 4053 H 380.763 -0.240491 -0.714619 0
M  V30 4054 H 383.414 -1.1942 -1.39324 0
M  V30 4055 H 381.796 -0.504027 -3.92779 0
M  V30 4056 H 382.97 -3.27858 -3.23799 0
M  V30 4057 H 381.285 -2.84937 -3.03644 0
M  V30 4058 H 383.882 -1.13359 -5.22546 0
M  V30 4059 H 384.225 0.205461 -4.15793 0
M  V30 4060 H 384.758 -1.43341 -3.71077 0
M  V30 4061 H 381.497 -4.06864 -5.13947 0
M  V30 4062 H 381.017 -2.3943 -5.49939 0
M  V30 4063 H 382.696 -2.92224 -5.77247 0
M  V30 4064 N 382.828 1.3818 -0.7579 0
M  V30 4065 C 383.791 2.28764 -0.141286 0
M  V30 4066 C 384.791 1.47388 0.642907 0
M  V30 4067 O 385.981 1.67781 0.468536 0
M  V30 4068 C 383.113 3.31184 0.808069 0
M  V30 4069 H 384.306 2.848 -0.939633 0
M  V30 4070 H 381.859 1.47212 -0.525191 0
M  V30 4071 H 382.594 2.80247 1.63193 0
M  V30 4072 H 382.379 3.91314 0.248104 0
M  V30 4073 H 383.869 3.98909 1.23536 0
M  V30 4074 N 384.306 0.507319 1.49211 0
M  V30 4075 C 385.722 0.163682 1.58758 0
M  V30 4076 C 385.922 -1.33208 1.51188 0
M  V30 4077 O 384.978 -2.10855 1.38911 0
M  V30 4078 C 386.291 0.746095 2.91297 0
M  V30 4079 C 387.839 0.712773 3.04776 0
M  V30 4080 C 388.314 1.27336 4.39943 0
M  V30 4081 N 389.805 1.23433 4.46451 0
M  V30 4082 C 390.54 1.63821 5.495 0
M  V30 4083 N 390.036 2.11832 6.5962 0
M  V30 4084 N 391.829 1.55198 5.4025 0
M  V30 4085 H 383.98 1.47972 1.52375 0
M  V30 4086 H 386.243 0.614147 0.722168 0
M  V30 4087 H 385.949 1.79534 3.02424 0
M  V30 4088 H 385.823 0.210137 3.76614 0
M  V30 4089 H 388.21 -0.327656 2.93275 0
M  V30 4090 H 388.291 1.28595 2.21127 0
M  V30 4091 H 387.935 2.3126 4.52196 0
M  V30 4092 H 387.865 0.676066 5.22242 0
M  V30 4093 H 390.356 0.882627 3.67448 0
M  V30 4094 H 390.669 2.40703 7.34358 0
M  V30 4095 H 389.014 2.1581 6.60644 0
M  V30 4096 H 392.205 1.17505 4.53112 0
M  V30 4097 H 392.378 1.86997 6.20432 0
M  V30 4098 N 385.784 -1.5574 0.241426 0
M  V30 4099 C 386.694 -2.2479 -0.671305 0
M  V30 4100 C 387.71 -1.26217 -1.19772 0
M  V30 4101 O 388.886 -1.59079 -1.23514 0
M  V30 4102 C 385.951 -2.92966 -1.85396 0
M  V30 4103 C 385.012 -4.06935 -1.36756 0
M  V30 4104 C 384.245 -4.71851 -2.49384 0
M  V30 4105 O 384.468 -4.35823 -3.67987 0
M  V30 4106 O 383.402 -5.60467 -2.19454 0
M  V30 4107 H 387.228 -3.0349 -0.112966 0
M  V30 4108 H 384.813 -1.49397 0.0101513 0
M  V30 4109 H 386.695 -3.35927 -2.54423 0
M  V30 4110 H 385.37 -2.17211 -2.40002 0
M  V30 4111 H 384.277 -3.68503 -0.644726 0
M  V30 4112 H 385.61 -4.84492 -0.867647 0
M  V30 4113 N 387.262 0.0317525 -1.57568 0
M  V30 4114 C 388.192 1.03274 -2.0942 0
M  V30 4115 C 389.173 1.3788 -0.996143 0
M  V30 4116 O 390.358 1.46811 -1.27122 0
M  V30 4117 C 387.488 2.33448 -2.57137 0
M  V30 4118 C 386.442 2.13091 -3.71182 0
M  V30 4119 C 385.768 3.49001 -4.05095 0
M  V30 4120 C 387.068 1.51928 -4.99715 0
M  V30 4121 H 388.762 0.60112 -2.93303 0
M  V30 4122 H 386.308 0.287705 -1.41097 0
M  V30 4123 H 388.261 3.03802 -2.92032 0
M  V30 4124 H 386.985 2.78665 -1.70333 0
M  V30 4125 H 385.644 1.45171 -3.36632 0
M  V30 4126 H 385.292 3.91862 -3.15362 0
M  V30 4127 H 384.992 3.36207 -4.81911 0
M  V30 4128 H 386.516 4.20721 -4.42522 0
M  V30 4129 H 387.93 2.12196 -5.32584 0
M  V30 4130 H 386.327 1.49716 -5.81124 0
M  V30 4131 H 387.397 0.484811 -4.8247 0
M  V30 4132 N 388.74 1.54641 0.303973 0
M  V30 4133 C 389.988 1.73437 1.0375 0
M  V30 4134 C 390.309 0.521449 1.87899 0
M  V30 4135 O 389.579 -0.46432 1.90318 0
M  V30 4136 H 388.159 0.639518 0.386039 0
M  V30 4137 H 390.821 1.91988 0.335675 0
M  V30 4138 H 389.917 2.62235 1.69231 0
M  V30 4139 N 390.218 -0.567019 1.47046 0
M  V30 4140 C 391.467 -1.32091 1.5243 0
M  V30 4141 C 391.78 -1.94704 0.187021 0
M  V30 4142 O 392.986 -2.7124 0.118771 0
M  V30 4143 C 391.442 -2.39479 2.68659 0
M  V30 4144 C 391.05 -1.831 4.08874 0
M  V30 4145 C 392.794 -3.16111 2.83327 0
M  V30 4146 C 390.701 -2.8821 5.16419 0
M  V30 4147 H 389.631 -0.496629 0.56734 0
M  V30 4148 H 392.282 -0.603354 1.73297 0
M  V30 4149 H 390.664 -3.14105 2.41152 0
M  V30 4150 H 391.838 -1.14913 4.46242 0
M  V30 4151 H 390.153 -1.19085 3.99008 0
M  V30 4152 H 392.75 -3.94585 3.60842 0
M  V30 4153 H 393.093 -3.69686 1.91411 0
M  V30 4154 H 393.626 -2.48595 3.10556 0
M  V30 4155 H 390.365 -2.39504 6.10179 0
M  V30 4156 H 389.885 -3.54839 4.8358 0
M  V30 4157 H 391.564 -3.51881 5.42945 0
M  V30 4158 N 391.696 -1.35014 -0.812953 0
M  V30 4159 C 393.107 -1.25035 -1.38648 0
M  V30 4160 C 393.458 0.119967 -1.95833 0
M  V30 4161 O 392.583 1.02069 -1.90816 0
M  V30 4162 C 393.178 -2.26394 -2.52054 0
M  V30 4163 C 391.737 -2.20175 -3.05287 0
M  V30 4164 C 390.884 -2.12451 -1.78213 0
M  V30 4165 H 393.835 -1.46235 -0.616516 0
M  V30 4166 H 393.856 -1.88672 -3.30429 0
M  V30 4167 H 393.368 -3.26116 -2.10404 0
M  V30 4168 H 391.469 -1.23841 -3.51417 0
M  V30 4169 H 391.582 -3.11863 -3.63701 0
M  V30 4170 H 389.946 -1.58328 -1.9951 0
M  V30 4171 H 390.729 -3.14024 -1.38723 0
M  V30 4172 N 393.175 1.03435 -1.18907 0
M  V30 4173 C 394.424 1.76143 -0.982669 0
M  V30 4174 C 394.737 1.89416 0.487953 0
M  V30 4175 O 395.943 2.59041 0.813036 0
M  V30 4176 C 394.399 3.16722 -1.70924 0
M  V30 4177 C 394.007 3.11522 -3.21959 0
M  V30 4178 C 395.751 3.93764 -1.58588 0
M  V30 4179 C 393.658 4.46999 -3.87228 0
M  V30 4180 H 392.588 0.660292 -0.364047 0
M  V30 4181 H 395.239 1.158 -1.42347 0
M  V30 4182 H 393.621 3.775 -1.19623 0
M  V30 4183 H 394.795 2.60158 -3.80335 0
M  V30 4184 H 393.11 2.47978 -3.34508 0
M  V30 4185 H 395.707 4.93963 -2.04707 0
M  V30 4186 H 396.05 4.12794 -0.539142 0
M  V30 4187 H 396.583 3.39576 -2.07203 0
M  V30 4188 H 393.322 4.33174 -4.91976 0
M  V30 4189 H 392.842 4.98441 -3.33642 0
M  V30 4190 H 394.521 5.15898 -3.90459 0
M  V30 4191 N 394.653 0.992116 1.22453 0
M  V30 4192 C 395.6 0.541731 2.24352 0
M  V30 4193 C 396.57 -0.425519 1.60557 0
M  V30 4194 O 397.755 -0.330453 1.87917 0
M  V30 4195 C 394.895 -0.138248 3.44823 0
M  V30 4196 C 394.008 0.870649 4.23136 0
M  V30 4197 C 393.143 0.164269 5.30946 0
M  V30 4198 C 392.182 1.16159 6.00977 0
M  V30 4199 N 391.319 0.483568 7.00433 0
M  V30 4200 H 396.159 1.41541 2.62241 0
M  V30 4201 H 393.696 0.709013 1.28885 0
M  V30 4202 H 395.654 -0.5494 4.13567 0
M  V30 4203 H 394.284 -0.975721 3.077 0
M  V30 4204 H 393.336 1.40013 3.53696 0
M  V30 4205 H 394.648 1.63014 4.7141 0
M  V30 4206 H 393.802 -0.303653 6.0594 0
M  V30 4207 H 392.541 -0.627733 4.83643 0
M  V30 4208 H 391.546 1.64015 5.24766 0
M  V30 4209 H 392.771 1.95445 6.50368 0
M  V30 4210 H 390.717 -0.289012 6.55363 0
M  V30 4211 H 390.634 1.18152 7.4671 0
M  V30 4212 H 391.902 0.0384219 7.79491 0
M  V30 4213 N 396.131 -1.37776 0.765217 0
M  V30 4214 C 397.378 -1.99849 0.326588 0
M  V30 4215 C 397.706 -1.60746 -1.09504 0
M  V30 4216 O 396.961 -0.84202 -1.76659 0
M  V30 4217 C 397.26 -3.5504 0.410053 0
M  V30 4218 C 396.926 -4.13891 1.78899 0
M  V30 4219 C 395.588 -4.29678 2.16635 0
M  V30 4220 C 397.94 -4.46236 2.69301 0
M  V30 4221 C 395.268 -4.7511 3.44221 0
M  V30 4222 C 397.62 -4.93089 3.9629 0
M  V30 4223 C 396.284 -5.07082 4.34078 0
M  V30 4224 H 395.554 -0.7313 0.119507 0
M  V30 4225 H 398.201 -1.64645 0.977968 0
M  V30 4226 H 396.506 -3.90451 -0.324878 0
M  V30 4227 H 398.203 -4.00966 0.0520699 0
M  V30 4228 H 394.793 -4.02026 1.48569 0
M  V30 4229 H 398.977 -4.3363 2.41409 0
M  V30 4230 H 394.233 -4.84129 3.73402 0
M  V30 4231 H 398.407 -5.17084 4.66472 0
M  V30 4232 H 396.034 -5.42046 5.33001 0
M  V30 4233 N 397.609 -0.515225 -1.4894 0
M  V30 4234 C 398.858 0.0261361 -2.01683 0
M  V30 4235 C 399.171 1.36719 -1.39883 0
M  V30 4236 O 400.377 1.99606 -1.84037 0
M  V30 4237 C 398.833 0.0970111 -3.59769 0
M  V30 4238 C 398.441 -1.23825 -4.30548 0
M  V30 4239 C 400.185 0.587981 -4.20408 0
M  V30 4240 C 398.092 -1.12877 -5.80528 0
M  V30 4241 H 397.022 0.0135398 -0.753878 0
M  V30 4242 H 399.673 -0.656787 -1.71343 0
M  V30 4243 H 398.055 0.844694 -3.86886 0
M  V30 4244 H 399.229 -2.00034 -4.15118 0
M  V30 4245 H 397.544 -1.66379 -3.81716 0
M  V30 4246 H 400.141 0.68763 -5.3026 0
M  V30 4247 H 400.484 1.59026 -3.84729 0
M  V30 4248 H 401.017 -0.103582 -3.97665 0
M  V30 4249 H 397.756 -2.10575 -6.20756 0
M  V30 4250 H 397.276 -0.407799 -5.98412 0
M  V30 4251 H 398.955 -0.813332 -6.41868 0
M  V30 4252 N 399.087 1.5561 -0.249682 0
M  V30 4253 C 400.335 1.98618 0.373548 0
M  V30 4254 C 400.656 1.13919 1.58264 0
M  V30 4255 O 399.926 0.222637 1.94631 0
M  V30 4256 H 398.506 0.733571 0.141006 0
M  V30 4257 H 401.168 1.91748 -0.349117 0
M  V30 4258 H 400.264 3.04584 0.680796 0
M  V30 4259 N 400.565 -0.0233959 1.57583 0
M  V30 4260 C 401.811 -0.714119 1.89811 0
M  V30 4261 C 402.144 -1.74702 0.848113 0
M  V30 4262 O 401.419 -1.94023 -0.136135 0
M  V30 4263 C 401.702 -1.37853 3.32669 0
M  V30 4264 C 401.555 -0.358764 4.48367 0
M  V30 4265 C 402.874 -2.31101 3.7454 0
M  V30 4266 H 399.993 -0.25814 0.690314 0
M  V30 4267 H 402.635 0.0230927 1.89986 0
M  V30 4268 H 400.785 -2.00689 3.3265 0
M  V30 4269 H 402.457 0.268115 4.6052 0
M  V30 4270 H 400.7 0.321387 4.32608 0
M  V30 4271 H 401.371 -0.862242 5.45224 0
M  V30 4272 H 403.847 -1.78304 3.75961 0
M  V30 4273 H 402.723 -2.74567 4.75294 0
M  V30 4274 H 402.984 -3.18018 3.0711 0
M  V30 4275 N 402.043 -1.548 -0.295768 0
M  V30 4276 C 403.291 -1.73985 -1.02828 0
M  V30 4277 C 403.612 -0.531406 -1.87619 0
M  V30 4278 O 402.882 0.454221 -1.90561 0
M  V30 4279 H 401.462 -0.641556 -0.382642 0
M  V30 4280 H 404.124 -1.92163 -0.325489 0
M  V30 4281 H 403.22 -2.63129 -1.67838 0
M  V30 4282 N 403.521 0.559213 -1.47345 0
M  V30 4283 C 404.431 1.69388 -1.62311 0
M  V30 4284 C 405.447 1.6648 -0.505993 0
M  V30 4285 O 406.623 1.85964 -0.773262 0
M  V30 4286 C 403.688 3.05894 -1.63185 0
M  V30 4287 C 402.749 3.19885 -2.86307 0
M  V30 4288 C 401.982 4.49879 -2.87131 0
M  V30 4289 O 402.205 5.35217 -1.97229 0
M  V30 4290 O 401.139 4.67618 -3.78968 0
M  V30 4291 H 404.965 1.59706 -2.58317 0
M  V30 4292 H 402.55 0.728989 -1.30407 0
M  V30 4293 H 404.432 3.87133 -1.66451 0
M  V30 4294 H 403.107 3.15964 -0.70345 0
M  V30 4295 H 402.014 2.38052 -2.88587 0
M  V30 4296 H 403.347 3.14718 -3.78435 0
M  V30 4297 N 404.999 1.35443 0.805782 0
M  V30 4298 C 405.946 1.28431 1.91766 0
M  V30 4299 C 406.916 0.156102 1.65365 0
M  V30 4300 O 408.101 0.339936 1.87747 0
M  V30 4301 C 405.241 1.06301 3.2832 0
M  V30 4302 C 404.354 2.2805 3.66902 0
M  V30 4303 C 403.489 1.99064 4.92491 0
M  V30 4304 C 402.528 3.16863 5.23703 0
M  V30 4305 N 401.665 2.87647 6.40471 0
M  V30 4306 H 406.505 2.23511 1.97096 0
M  V30 4307 H 404.042 1.11105 0.964054 0
M  V30 4308 H 406 0.915012 4.07042 0
M  V30 4309 H 404.63 0.148822 3.22457 0
M  V30 4310 H 403.682 2.53711 2.83434 0
M  V30 4311 H 404.994 3.1601 3.85927 0
M  V30 4312 H 404.148 1.81099 5.7904 0
M  V30 4313 H 402.887 1.0839 4.75503 0
M  V30 4314 H 401.892 3.35404 4.35642 0
M  V30 4315 H 403.117 4.08339 5.4262 0
M  V30 4316 H 401.063 1.99568 6.24907 0
M  V30 4317 H 400.98 3.69141 6.59751 0
M  V30 4318 H 402.248 2.73226 7.30047 0
M  V30 4319 N 406.477 -1.02803 1.19454 0
M  V30 4320 C 407.44 -2.09264 0.934955 0
M  V30 4321 C 408.44 -1.60576 -0.0849015 0
M  V30 4322 O 409.63 -1.73554 0.149933 0
M  V30 4323 C 406.762 -3.38482 0.40531 0
M  V30 4324 H 407.955 -2.33726 1.87916 0
M  V30 4325 H 405.508 -1.19426 1.00832 0
M  V30 4326 H 406.243 -3.19689 -0.544899 0
M  V30 4327 H 406.028 -3.75142 1.14065 0
M  V30 4328 H 407.518 -4.16894 0.242806 0
M  V30 4329 N 407.956 -0.998596 -1.21925 0
M  V30 4330 C 408.866 -0.562736 -2.27751 0
M  V30 4331 C 409.882 0.391203 -1.69545 0
M  V30 4332 O 411.058 0.256625 -1.99758 0
M  V30 4333 C 408.123 0.11012 -3.46525 0
M  V30 4334 C 407.184 -0.887495 -4.20026 0
M  V30 4335 C 406.417 -0.246654 -5.3313 0
M  V30 4336 O 406.64 0.958088 -5.62296 0
M  V30 4337 O 405.574 -0.954374 -5.94286 0
M  V30 4338 H 409.4 -1.44329 -2.67213 0
M  V30 4339 H 406.985 -0.767135 -1.28201 0
M  V30 4340 H 408.867 0.486756 -4.18579 0
M  V30 4341 H 407.542 0.965154 -3.08976 0
M  V30 4342 H 406.449 -1.31517 -3.5022 0
M  V30 4343 H 407.782 -1.71191 -4.6147 0
M  V30 4344 N 409.434 1.37368 -0.772513 0
M  V30 4345 C 410.711 1.93839 -0.26188 0
M  V30 4346 C 411.091 1.7061 1.24319 0
M  V30 4347 O 410.439 1.05534 2.02669 0
M  V30 4348 C 410.649 3.43154 -0.636102 0
M  V30 4349 C 411.997 4.20249 -0.606324 0
M  V30 4350 O 413.021 3.5152 -0.575538 0
M  V30 4351 O 411.88 5.42809 -0.634086 0
M  V30 4352 H 408.974 0.82478 -0.0605555 0
M  V30 4353 H 411.52 1.4665 -0.853917 0
M  V30 4354 H 410.292 3.53647 -1.6748 0
M  V30 4355 H 409.915 3.97596 -0.0170516 0
M  V30 4356 N 410.912 0.523116 1.48665 0
M  V30 4357 C 411.842 -0.23231 2.32342 0
M  V30 4358 C 412.823 -0.941637 1.41659 0
M  V30 4359 O 414.008 -0.928751 1.70552 0
M  V30 4360 C 411.138 -1.28387 3.22698 0
M  V30 4361 C 410.092 -0.693098 4.22351 0
M  V30 4362 C 409.418 -1.8468 5.01794 0
M  V30 4363 C 410.718 0.33063 5.21252 0
M  V30 4364 H 412.412 0.466192 2.95748 0
M  V30 4365 H 409.958 0.225643 1.42221 0
M  V30 4366 H 411.911 -1.82024 3.80059 0
M  V30 4367 H 410.635 -2.01186 2.57278 0
M  V30 4368 H 409.294 -0.178299 3.66166 0
M  V30 4369 H 408.942 -2.56301 4.32804 0
M  V30 4370 H 408.642 -1.45747 5.69238 0
M  V30 4371 H 410.166 -2.38709 5.62006 0
M  V30 4372 H 411.58 -0.118407 5.73178 0
M  V30 4373 H 409.977 0.636974 5.9671 0
M  V30 4374 H 411.047 1.23883 4.68808 0
M  V30 4375 N 412.39 -1.55475 0.257931 0
M  V30 4376 C 413.806 -1.59307 -0.0966563 0
M  V30 4377 C 414.006 -1.27514 -1.5602 0
M  V30 4378 O 413.062 -1.02774 -2.30637 0
M  V30 4379 C 414.375 -2.99552 0.262481 0
M  V30 4380 C 415.923 -3.1231 0.207683 0
M  V30 4381 C 416.398 -4.54793 0.541012 0
M  V30 4382 N 417.889 -4.6058 0.491921 0
M  V30 4383 C 418.624 -5.68825 0.722857 0
M  V30 4384 N 418.12 -6.85287 1.0175 0
M  V30 4385 N 419.913 -5.58296 0.652815 0
M  V30 4386 H 412.064 -1.74409 1.21224 0
M  V30 4387 H 414.327 -0.812424 0.48854 0
M  V30 4388 H 414.033 -3.27593 1.27967 0
M  V30 4389 H 413.907 -3.75019 -0.40508 0
M  V30 4390 H 416.294 -2.84044 -0.800195 0
M  V30 4391 H 416.375 -2.39095 0.909255 0
M  V30 4392 H 416.019 -4.83783 1.5465 0
M  V30 4393 H 415.949 -5.26285 -0.18216 0
M  V30 4394 H 418.44 -3.7691 0.273366 0
M  V30 4395 H 418.753 -7.63725 1.18084 0
M  V30 4396 H 417.098 -6.86945 1.05509 0
M  V30 4397 H 420.289 -4.66189 0.422592 0
M  V30 4398 H 420.462 -6.42582 0.836182 0
M  V30 4399 N 413.868 0.0150385 -1.57593 0
M  V30 4400 C 415.279 0.559832 -1.78109 0
M  V30 4401 C 415.63 1.74814 -0.890756 0
M  V30 4402 O 414.755 2.16216 -0.0892482 0
M  V30 4403 C 415.35 1.02238 -3.23006 0
M  V30 4404 C 413.909 1.51258 -3.44671 0
M  V30 4405 C 413.056 0.456955 -2.73509 0
M  V30 4406 H 416.007 -0.211169 -1.57289 0
M  V30 4407 H 416.028 1.88912 -3.30292 0
M  V30 4408 H 415.54 0.157302 -3.87781 0
M  V30 4409 H 413.641 2.39905 -2.8509 0
M  V30 4410 H 413.754 1.55042 -4.5332 0
M  V30 4411 H 412.118 0.915196 -2.37689 0
M  V30 4412 H 412.901 -0.398896 -3.40975 0
M  V30 4413 N 415.346 1.54954 0.287554 0
M  V30 4414 C 416.593 1.74873 1.02106 0
M  V30 4415 C 416.921 0.541829 1.86801 0
M  V30 4416 O 416.176 -0.475992 1.89823 0
M  V30 4417 C 416.475 2.99833 1.94512 0
M  V30 4418 C 416.141 4.33029 1.25686 0
M  V30 4419 C 414.803 4.69233 1.06649 0
M  V30 4420 C 417.155 5.15542 0.765913 0
M  V30 4421 C 414.483 5.85518 0.372222 0
M  V30 4422 C 416.835 6.32542 0.0853101 0
M  V30 4423 C 415.499 6.67398 -0.1169 0
M  V30 4424 H 414.769 0.639906 0.373632 0
M  V30 4425 H 417.416 1.89219 0.294665 0
M  V30 4426 H 415.721 2.80325 2.73725 0
M  V30 4427 H 417.418 3.1244 2.51361 0
M  V30 4428 H 414.008 4.04564 1.41512 0
M  V30 4429 H 418.192 4.88059 0.90066 0
M  V30 4430 H 413.448 6.11057 0.204695 0
M  V30 4431 H 417.622 6.95741 -0.302936 0
M  V30 4432 H 415.249 7.57357 -0.656859 0
M  V30 4433 N 416.824 -0.551391 1.4764 0
M  V30 4434 C 418.101 -1.31229 1.45046 0
M  V30 4435 C 418.481 -2.10563 0.150527 0
M  V30 4436 O 417.829 -2.11374 -0.867956 0
M  V30 4437 C 418.039 -2.21189 2.69956 0
M  V30 4438 C 419.387 -2.82021 3.1741 0
M  V30 4439 O 420.411 -2.31488 2.70724 0
M  V30 4440 O 419.27 -3.73885 3.98588 0
M  V30 4441 H 416.364 -0.591193 0.578291 0
M  V30 4442 H 418.91 -0.569813 1.59847 0
M  V30 4443 H 417.682 -1.62207 3.56096 0
M  V30 4444 H 417.305 -3.02722 2.57769 0
M  V30 4445 N 418.302 -1.35869 -0.798587 0
M  V30 4446 C 419.713 -1.26498 -1.37314 0
M  V30 4447 C 420.064 0.0991899 -1.95949 0
M  V30 4448 O 419.189 1.0004 -1.91888 0
M  V30 4449 C 419.784 -2.29054 -2.49639 0
M  V30 4450 C 418.343 -2.234 -3.02935 0
M  V30 4451 C 417.49 -2.14329 -1.75949 0
M  V30 4452 H 420.441 -1.46881 -0.600971 0
M  V30 4453 H 420.462 -1.92166 -3.28409 0
M  V30 4454 H 419.974 -3.2833 -2.06933 0
M  V30 4455 H 418.075 -1.27562 -3.50084 0
M  V30 4456 H 418.188 -3.15703 -3.60372 0
M  V30 4457 H 416.552 -1.60435 -1.9782 0
M  V30 4458 H 417.335 -3.15477 -1.35384 0
M  V30 4459 N 419.78 1.02168 -1.19998 0
M  V30 4460 C 420.69 2.14069 -0.959774 0
M  V30 4461 C 421.706 1.73804 0.082655 0
M  V30 4462 O 422.882 2.01133 -0.103633 0
M  V30 4463 C 419.947 3.42936 -0.509459 0
M  V30 4464 C 419.008 3.97474 -1.62213 0
M  V30 4465 C 418.241 5.2019 -1.19321 0
M  V30 4466 O 418.464 5.70369 -0.0597726 0
M  V30 4467 O 417.398 5.67749 -1.99863 0
M  V30 4468 H 421.224 2.37199 -1.89658 0
M  V30 4469 H 418.809 1.12469 -0.983411 0
M  V30 4470 H 420.691 4.20551 -0.267322 0
M  V30 4471 H 419.366 3.21234 0.398821 0
M  V30 4472 H 418.273 3.21161 -1.9185 0
M  V30 4473 H 419.606 4.23555 -2.50723 0
M  V30 4474 N 421.258 1.00505 1.21394 0
M  V30 4475 C 422.221 0.570459 2.21987 0
M  V30 4476 C 423.221 -0.353211 1.56873 0
M  V30 4477 O 424.411 -0.14349 1.73608 0
M  V30 4478 C 421.543 -0.168555 3.40483 0
M  V30 4479 H 422.736 1.46021 2.6195 0
M  V30 4480 H 420.289 0.793565 1.34656 0
M  V30 4481 H 421.024 -1.07374 3.06009 0
M  V30 4482 H 420.809 0.494823 3.88965 0
M  V30 4483 H 422.299 -0.460362 4.15055 0
M  V30 4484 N 422.737 -1.36956 0.779787 0
M  V30 4485 C 423.984 -1.99491 0.347766 0
M  V30 4486 C 424.312 -1.61898 -1.07793 0
M  V30 4487 O 423.567 -0.86071 -1.75756 0
M  V30 4488 C 423.866 -3.54585 0.447686 0
M  V30 4489 C 423.532 -4.1197 1.83279 0
M  V30 4490 C 422.194 -4.27356 2.2118 0
M  V30 4491 C 424.546 -4.43354 2.74019 0
M  V30 4492 C 421.874 -4.71432 3.4924 0
M  V30 4493 C 424.226 -4.88858 4.01497 0
M  V30 4494 C 422.89 -5.0245 4.39432 0
M  V30 4495 H 422.16 -0.729991 0.127257 0
M  V30 4496 H 424.807 -1.63599 0.995376 0
M  V30 4497 H 423.112 -3.90773 -0.283447 0
M  V30 4498 H 424.809 -4.00888 0.0945948 0
M  V30 4499 H 421.399 -4.00428 1.52825 0
M  V30 4500 H 425.583 -4.31045 2.45995 0
M  V30 4501 H 420.839 -4.80141 3.78516 0
M  V30 4502 H 425.013 -5.12108 4.71931 0
M  V30 4503 H 422.64 -5.36362 5.38721 0
M  V30 4504 N 424.215 -0.530993 -1.48385 0
M  V30 4505 C 425.461 0.00274135 -2.028 0
M  V30 4506 C 425.794 1.33838 -1.40716 0
M  V30 4507 O 425.069 1.86465 -0.553277 0
M  V30 4508 C 425.352 0.123676 -3.59888 0
M  V30 4509 C 425.205 -1.2372 -4.3245 0
M  V30 4510 C 426.524 0.849967 -4.31814 0
M  V30 4511 H 423.643 -0.000477758 -0.737 0
M  V30 4512 H 426.285 -0.688217 -1.77098 0
M  V30 4513 H 424.435 0.712157 -3.81917 0
M  V30 4514 H 426.107 -1.86687 -4.21836 0
M  V30 4515 H 424.35 -1.81882 -3.93829 0
M  V30 4516 H 425.021 -1.10557 -5.40815 0
M  V30 4517 H 427.497 0.350572 -4.14621 0
M  V30 4518 H 426.373 0.903486 -5.41413 0
M  V30 4519 H 426.634 1.90047 -3.99167 0
M  V30 4520 N 425.693 1.55336 -0.266172 0
M  V30 4521 C 426.603 2.2583 0.635458 0
M  V30 4522 C 427.619 1.28106 1.17749 0
M  V30 4523 O 428.795 1.61024 1.20968 0
M  V30 4524 C 425.86 2.95879 1.80712 0
M  V30 4525 C 424.921 4.09059 1.30265 0
M  V30 4526 C 424.154 4.75759 2.41846 0
M  V30 4527 O 424.377 4.41622 3.61007 0
M  V30 4528 O 423.311 5.63888 2.1051 0
M  V30 4529 H 427.137 3.03631 0.0646693 0
M  V30 4530 H 424.722 1.49361 -0.0339177 0
M  V30 4531 H 426.604 3.39932 2.49047 0
M  V30 4532 H 425.279 2.21002 2.36516 0
M  V30 4533 H 424.186 3.69482 0.586019 0
M  V30 4534 H 425.519 4.85811 0.790458 0
M  V30 4535 N 427.171 -0.0066808 1.57599 0
M  V30 4536 C 428.417 -0.693947 1.90558 0
M  V30 4537 C 428.75 -1.73792 0.866594 0
M  V30 4538 O 428.025 -1.94156 -0.115548 0
M  V30 4539 C 428.308 -1.34317 3.34112 0
M  V30 4540 C 428.161 -0.311189 4.48722 0
M  V30 4541 C 429.48 -2.27116 3.7697 0
M  V30 4542 H 426.599 -0.250803 0.693013 0
M  V30 4543 H 429.241 0.043242 1.89951 0
M  V30 4544 H 427.391 -1.9715 3.3476 0
M  V30 4545 H 429.063 0.316944 4.6021 0
M  V30 4546 H 427.306 0.367253 4.32243 0
M  V30 4547 H 427.977 -0.804366 5.46108 0
M  V30 4548 H 430.453 -1.74306 3.77831 0
M  V30 4549 H 429.329 -2.69511 4.78179 0
M  V30 4550 H 429.59 -3.14743 3.10466 0
M  V30 4551 N 428.649 -1.55105 -0.279332 0
M  V30 4552 C 429.579 -1.90557 -1.34945 0
M  V30 4553 C 430.56 -0.766738 -1.51839 0
M  V30 4554 O 431.745 -1.02434 -1.64988 0
M  V30 4555 C 428.875 -2.17193 -2.71006 0
M  V30 4556 C 427.829 -3.33021 -2.68851 0
M  V30 4557 C 427.155 -3.45123 -4.08405 0
M  V30 4558 C 428.455 -4.69578 -2.28678 0
M  V30 4559 H 430.149 -2.80188 -1.05522 0
M  V30 4560 H 427.695 -1.34811 -0.506173 0
M  V30 4561 H 429.648 -2.40581 -3.45975 0
M  V30 4562 H 428.372 -1.24355 -3.01999 0
M  V30 4563 H 427.031 -3.0959 -1.9634 0
M  V30 4564 H 426.679 -2.49762 -4.3661 0
M  V30 4565 H 426.379 -4.22995 -4.07859 0
M  V30 4566 H 427.903 -3.70796 -4.85121 0
M  V30 4567 H 429.317 -4.92553 -2.93368 0
M  V30 4568 H 427.714 -5.5032 -2.39306 0
M  V30 4569 H 428.784 -4.68828 -1.23807 0
M  V30 4570 N 430.127 0.543554 -1.4793 0
M  V30 4571 C 431.057 1.65888 -1.64327 0
M  V30 4572 C 432.038 1.62818 -0.492383 0
M  V30 4573 O 433.223 1.80226 -0.723338 0
M  V30 4574 C 430.353 3.04506 -1.67013 0
M  V30 4575 C 429.307 3.2243 -2.81466 0
M  V30 4576 C 428.633 4.61972 -2.69233 0
M  V30 4577 C 429.933 3.06496 -4.22915 0
M  V30 4578 H 431.627 1.52421 -2.57698 0
M  V30 4579 H 429.173 0.731849 -1.24016 0
M  V30 4580 H 431.126 3.82391 -1.77074 0
M  V30 4581 H 429.85 3.18964 -0.70212 0
M  V30 4582 H 428.509 2.46957 -2.70938 0
M  V30 4583 H 428.157 4.73247 -1.7043 0
M  V30 4584 H 427.857 4.74911 -3.46025 0
M  V30 4585 H 429.381 5.41974 -2.81242 0
M  V30 4586 H 430.795 3.74186 -4.34348 0
M  V30 4587 H 429.192 3.30938 -5.006 0
M  V30 4588 H 430.262 2.03077 -4.40327 0
M  V30 4589 N 431.605 1.3629 0.791371 0
M  V30 4590 C 432.83 1.33726 1.58531 0
M  V30 4591 C 433.255 -0.0794933 1.87932 0
M  V30 4592 O 432.613 -1.05087 1.47738 0
M  V30 4593 C 432.661 2.16425 2.88431 0
M  V30 4594 O 431.765 1.5554 3.81944 0
M  V30 4595 H 431.106 0.457793 0.480959 0
M  V30 4596 H 433.636 1.79547 0.981031 0
M  V30 4597 H 433.646 2.28933 3.37718 0
M  V30 4598 H 432.321 3.19415 2.66359 0
M  V30 4599 H 430.898 1.51961 3.40532 0
M  V30 4600 N 433.083 -1.0153 1.20538 0
M  V30 4601 C 433.993 -2.13557 0.971113 0
M  V30 4602 C 435.009 -1.73845 -0.0734366 0
M  V30 4603 O 436.185 -2.01075 0.114299 0
M  V30 4604 C 433.25 -3.42661 0.527639 0
M  V30 4605 C 432.311 -3.96608 1.64319 0
M  V30 4606 C 431.544 -5.1955 1.22078 0
M  V30 4607 O 431.767 -5.70329 0.0900198 0
M  V30 4608 O 430.701 -5.66681 2.02871 0
M  V30 4609 H 434.527 -2.3619 1.90913 0
M  V30 4610 H 432.112 -1.11946 0.989362 0
M  V30 4611 H 433.994 -4.20404 0.289621 0
M  V30 4612 H 432.669 -3.21441 -0.381779 0
M  V30 4613 H 431.576 -3.20139 1.93551 0
M  V30 4614 H 432.909 -4.22219 2.52966 0
M  V30 4615 O 434.6 -1.13875 -1.14519 0
M  V30 4616 H 435.291 -0.85746 -1.73687 0
M  V30 END ATOM
M  V30 BEGIN BOND
M  V30 END BOND
M  V30 END CTAB
M  END
$$$$
