drugbank_target|P9WKE9 Guanylate kinase (DB01942)
 OpenBabel12092120233D

  0  0  0     0  0            999 V3000
M  V30 BEGIN CTAB
M  V30 COUNTS 3141 3169 0 0 0
M  V30 BEGIN ATOM
M  V30 1 H -0.908 1.98254 -0.117106 0
M  V30 2 N 0 1.576 0 0
M  V30 3 C 0.933 2.03868 1.02534 0
M  V30 4 C 1.911 0.928543 1.3348 0
M  V30 5 O 3.095 1.19667 1.45644 0
M  V30 6 C 0.222 2.43627 2.35294 0
M  V30 7 C -0.732 3.65373 2.2001 0
M  V30 8 S 0.101 5.13292 1.52614 0
M  V30 9 C 1.257 5.56322 2.86805 0
M  V30 10 H 1.49 2.90518 0.631377 0
M  V30 11 H -0.977 1.52953 0.210867 0
M  V30 12 H 0.981 2.67203 3.11629 0
M  V30 13 H -0.358 1.57376 2.7183 0
M  V30 14 H -1.165 3.90944 3.18086 0
M  V30 15 H -1.563 3.418 1.51819 0
M  V30 16 H 0.729 5.58782 3.83104 0
M  V30 17 H 1.672 6.56266 2.65933 0
M  V30 18 H 2.08 4.83886 2.90714 0
M  V30 19 N 1.4781 -0.272755 1.55222 0
M  V30 20 C 2.7031 -1.02683 1.80197 0
M  V30 21 C 3.1281 -1.79142 0.573551 0
M  V30 22 O 2.4861 -1.74917 -0.476849 0
M  V30 23 C 2.5341 -1.9609 3.02624 0
M  V30 24 O 1.6381 -3.04863 2.77727 0
M  V30 25 H 0.9791 -0.293557 0.595584 0
M  V30 26 H 3.5091 -0.30159 2.02365 0
M  V30 27 H 3.5191 -2.38039 3.31363 0
M  V30 28 H 2.1941 -1.39851 3.91682 0
M  V30 29 H 0.7711 -2.67228 2.60084 0
M  V30 30 N 2.9562 -1.48159 -0.537278 0
M  V30 31 C 4.2022 -1.56035 -1.29541 0
M  V30 32 C 4.5352 -0.230377 -1.92829 0
M  V30 33 O 3.8102 0.762952 -1.78911 0
M  V30 34 C 4.0932 -2.69323 -2.39034 0
M  V30 35 C 3.9462 -4.12002 -1.80485 0
M  V30 36 C 5.2652 -2.78408 -3.40847 0
M  V30 37 H 2.3842 -0.567992 -0.469632 0
M  V30 38 H 5.0262 -1.80302 -0.599277 0
M  V30 39 H 3.1762 -2.48763 -2.98412 0
M  V30 40 H 4.8482 -4.43981 -1.25215 0
M  V30 41 H 3.0912 -4.19344 -1.11055 0
M  V30 42 H 3.7622 -4.87077 -2.59731 0
M  V30 43 H 6.2382 -2.97012 -2.91416 0
M  V30 44 H 5.1142 -3.59416 -4.14863 0
M  V30 45 H 5.3752 -1.86269 -4.00944 0
M  V30 46 N 4.4343 0.785586 -1.36625 0
M  V30 47 C 5.6823 1.54057 -1.30808 0
M  V30 48 C 6.0033 1.94683 0.111157 0
M  V30 49 O 5.2733 1.65241 1.05224 0
M  V30 50 H 3.8533 0.571354 -0.481211 0
M  V30 51 H 6.5153 0.935821 -1.70963 0
M  V30 52 H 5.6113 2.44637 -1.93801 0
M  V30 53 N 5.9124 1.20967 1.01018 0
M  V30 54 C 6.8224 0.980157 2.13143 0
M  V30 55 C 7.8384 -0.0660665 1.73875 0
M  V30 56 O 9.0144 0.122821 2.01025 0
M  V30 57 C 6.0794 0.54216 3.42435 0
M  V30 58 C 5.1404 1.65999 3.95908 0
M  V30 59 C 4.3734 1.2428 5.19028 0
M  V30 60 O 4.5964 0.114196 5.70286 0
M  V30 61 O 3.5304 2.05271 5.65816 0
M  V30 62 H 7.3564 1.91913 2.35379 0
M  V30 63 H 4.9414 0.994099 1.11526 0
M  V30 64 H 6.8234 0.30744 4.20277 0
M  V30 65 H 5.4984 -0.36815 3.216 0
M  V30 66 H 4.4054 1.94906 3.19316 0
M  V30 67 H 5.7384 2.54753 4.21143 0
M  V30 68 N 7.3905 -1.2043 1.01659 0
M  V30 69 C 8.6385 -1.89423 0.704522 0
M  V30 70 C 8.9595 -1.79231 -0.768197 0
M  V30 71 O 8.2295 -1.1947 -1.55254 0
M  V30 72 H 6.8095 -0.701178 0.257602 0
M  V30 73 H 9.4715 -1.4626 1.28818 0
M  V30 74 H 8.5675 -2.96052 0.987916 0
M  V30 75 N 8.8686 -0.792821 -1.36206 0
M  V30 76 C 10.2796 -0.429513 -1.81692 0
M  V30 77 C 10.6306 1.04695 -1.65932 0
M  V30 78 O 9.7556 1.81256 -1.18218 0
M  V30 79 C 10.3506 -0.772831 -3.29868 0
M  V30 80 C 8.9096 -0.462307 -3.7355 0
M  V30 81 C 8.0566 -1.00569 -2.5842 0
M  V30 82 H 11.0076 -0.985672 -1.24379 0
M  V30 83 H 11.0286 -0.0651928 -3.80444 0
M  V30 84 H 10.5406 -1.84747 -3.41307 0
M  V30 85 H 8.6416 0.604158 -3.67669 0
M  V30 86 H 8.7546 -0.985299 -4.68859 0
M  V30 87 H 7.1186 -0.428734 -2.51066 0
M  V30 88 H 7.9016 -2.08616 -2.72643 0
M  V30 89 N 10.3467 1.47872 -0.545128 0
M  V30 90 C 11.6237 1.9554 0.0485222 0
M  V30 91 C 12.0037 1.4876 1.49779 0
M  V30 92 O 11.3517 0.720925 2.16829 0
M  V30 93 C 11.5617 3.48898 -0.084417 0
M  V30 94 C 12.9097 4.24547 0.0671239 0
M  V30 95 O 13.9337 3.56198 -0.0113649 0
M  V30 96 O 12.7927 5.45999 0.233882 0
M  V30 97 H 9.8867 0.823957 0.0708773 0
M  V30 98 H 12.4327 1.58327 -0.610798 0
M  V30 99 H 11.2047 3.75714 -1.09337 0
M  V30 100 H 10.8277 3.92845 0.613066 0
M  V30 101 N 11.8248 0.280983 1.55075 0
M  V30 102 C 13.0528 -0.337293 2.04132 0
M  V30 103 C 13.4678 -1.4903 1.15912 0
M  V30 104 O 12.8248 -1.81606 0.180459 0
M  V30 105 C 12.8758 -0.812706 3.52246 0
M  V30 106 O 12.5968 0.294387 4.3711 0
M  V30 107 C 14.0978 -1.4982 4.17216 0
M  V30 108 H 11.3178 -0.0761638 0.666663 0
M  V30 109 H 13.8618 0.414787 2.00249 0
M  V30 110 H 12.0168 -1.51486 3.56554 0
M  V30 111 H 12.4308 -0.0721325 5.2445 0
M  V30 112 H 13.9048 -1.7822 5.22438 0
M  V30 113 H 14.3818 -2.43168 3.65741 0
M  V30 114 H 14.9878 -0.839742 4.16927 0
M  V30 115 N 13.3029 -1.57598 0.00835791 0
M  V30 116 C 14.2499 -2.08945 -0.980346 0
M  V30 117 C 15.2199 -0.986738 -1.33614 0
M  V30 118 O 16.4049 -1.25968 -1.43306 0
M  V30 119 C 13.5449 -2.60425 -2.26435 0
M  V30 120 C 12.6579 -3.84628 -1.96685 0
M  V30 121 C 11.7929 -4.24579 -3.19228 0
M  V30 122 C 10.8319 -5.41596 -2.85202 0
M  V30 123 N 9.9689 -5.768 -4.00307 0
M  V30 124 H 14.8089 -2.93148 -0.535551 0
M  V30 125 H 12.3459 -1.44912 -0.252776 0
M  V30 126 H 14.3039 -2.88354 -3.01509 0
M  V30 127 H 12.9339 -1.79083 -2.68568 0
M  V30 128 H 11.9859 -3.63556 -1.11942 0
M  V30 129 H 13.2979 -4.69796 -1.67611 0
M  V30 130 H 12.4519 -4.53834 -4.02641 0
M  V30 131 H 11.1909 -3.38137 -3.51447 0
M  V30 132 H 10.1959 -5.12056 -2.00198 0
M  V30 133 H 11.4209 -6.29721 -2.54222 0
M  V30 134 H 9.3669 -4.93316 -4.32407 0
M  V30 135 H 9.2839 -6.5656 -3.74786 0
M  V30 136 H 10.5519 -6.10652 -4.84484 0
M  V30 137 N 14.781 0.264519 -1.55364 0
M  V30 138 C 16.192 0.834936 -1.6699 0
M  V30 139 C 16.543 1.86718 -0.602552 0
M  V30 140 O 15.668 2.14899 0.254425 0
M  V30 141 C 16.263 1.5212 -3.02729 0
M  V30 142 C 14.822 2.03954 -3.16354 0
M  V30 143 C 13.969 0.884498 -2.62815 0
M  V30 144 H 16.92 0.0406869 -1.58648 0
M  V30 145 H 16.941 2.38853 -2.96191 0
M  V30 146 H 16.453 0.769668 -3.80392 0
M  V30 147 H 14.554 2.82041 -2.43482 0
M  V30 148 H 14.667 2.24902 -4.23032 0
M  V30 149 H 13.031 1.2802 -2.20188 0
M  V30 150 H 13.814 0.14634 -3.42988 0
M  V30 151 N 16.2591 1.48442 0.529413 0
M  V30 152 C 17.4871 1.60151 1.30994 0
M  V30 153 C 17.9021 0.261985 1.86973 0
M  V30 154 O 17.2591 -0.748805 1.66431 0
M  V30 155 C 17.3101 2.64854 2.46038 0
M  V30 156 O 17.0311 3.93608 1.92365 0
M  V30 157 C 18.5321 2.87007 3.37849 0
M  V30 158 H 15.7521 0.539971 0.398338 0
M  V30 159 H 18.2961 1.94273 0.638597 0
M  V30 160 H 16.4511 2.33589 3.09055 0
M  V30 161 H 16.8651 4.51055 2.67675 0
M  V30 162 H 18.3391 3.64068 4.14919 0
M  V30 163 H 18.8161 1.95852 3.93114 0
M  V30 164 H 19.4221 3.19579 2.80623 0
M  V30 165 N 17.7372 -0.778329 1.37039 0
M  V30 166 C 18.7002 -1.87301 1.32102 0
M  V30 167 C 19.7002 -1.59198 0.226405 0
M  V30 168 O 20.8902 -1.67403 0.481861 0
M  V30 169 C 18.0222 -3.24309 1.05055 0
M  V30 170 H 19.2152 -1.93093 2.29467 0
M  V30 171 H 16.7682 -0.977358 1.21973 0
M  V30 172 H 17.5032 -3.24196 0.0819373 0
M  V30 173 H 17.2882 -3.46098 1.84279 0
M  V30 174 H 18.7782 -4.04382 1.04234 0
M  V30 175 N 19.2153 -1.21501 -1.00376 0
M  V30 176 C 20.6313 -0.972629 -1.26539 0
M  V30 177 C 20.8313 0.340257 -1.98606 0
M  V30 178 O 19.8873 1.06561 -2.28913 0
M  V30 179 C 21.2003 -2.16404 -2.08781 0
M  V30 180 C 22.7483 -2.20643 -2.22004 0
M  V30 181 C 23.2233 -3.39306 -3.07629 0
M  V30 182 N 24.7143 -3.39401 -3.15217 0
M  V30 183 C 25.4493 -4.27867 -3.81729 0
M  V30 184 N 24.9453 -5.26533 -4.5026 0
M  V30 185 N 26.7383 -4.15672 -3.78382 0
M  V30 186 H 18.8893 -2.05929 -0.520281 0
M  V30 187 H 21.1523 -0.901803 -0.292328 0
M  V30 188 H 20.8583 -3.11554 -1.63178 0
M  V30 189 H 20.7323 -2.15567 -3.09533 0
M  V30 190 H 23.1193 -1.26048 -2.66825 0
M  V30 191 H 23.2003 -2.25523 -1.20718 0
M  V30 192 H 22.8443 -4.34195 -2.63509 0
M  V30 193 H 22.7743 -3.31665 -4.09031 0
M  V30 194 H 25.2653 -2.67997 -2.66432 0
M  V30 195 H 25.5783 -5.90337 -4.98721 0
M  V30 196 H 23.9233 -5.30457 -4.49044 0
M  V30 197 H 27.1143 -3.3785 -3.23998 0
M  V30 198 H 27.2873 -4.84825 -4.2994 0
M  V30 199 N 20.6934 1.19889 -1.02296 0
M  V30 200 C 21.9414 1.89046 -0.714558 0
M  V30 201 C 22.2624 1.79636 0.758681 0
M  V30 202 O 21.5324 1.20292 1.54618 0
M  V30 203 H 20.1124 0.699802 -0.261317 0
M  V30 204 H 22.7744 1.45574 -1.29592 0
M  V30 205 H 21.8704 2.95524 -1.0036 0
M  V30 206 N 22.1715 0.800033 1.35784 0
M  V30 207 C 23.1035 0.163596 2.28615 0
M  V30 208 C 24.1165 -0.633317 1.49976 0
M  V30 209 O 25.3055 -0.466754 1.72289 0
M  V30 210 C 22.4055 -0.790958 3.29541 0
M  V30 211 C 21.5785 -0.0418255 4.3738 0
M  V30 212 C 20.6375 -0.91389 5.18203 0
M  V30 213 O 19.6635 -0.367234 5.68014 0
M  V30 214 N 20.8655 -2.23682 5.35674 0
M  V30 215 H 23.6305 0.96105 2.83873 0
M  V30 216 H 21.1915 0.654894 1.48063 0
M  V30 217 H 23.1835 -1.37844 3.80501 0
M  V30 218 H 21.7535 -1.48925 2.74846 0
M  V30 219 H 20.9735 0.726813 3.87442 0
M  V30 220 H 22.2615 0.474719 5.06581 0
M  V30 221 H 21.6595 -2.70497 4.96838 0
M  V30 222 H 20.2165 -2.77369 5.89839 0
M  V30 223 N 23.6496 -1.47581 0.552962 0
M  V30 224 C 25.0606 -1.86324 0.118463 0
M  V30 225 C 25.4116 -1.46006 -1.3106 0
M  V30 226 O 24.5366 -0.861182 -1.98526 0
M  V30 227 C 25.1316 -3.3816 0.20821 0
M  V30 228 C 23.6906 -3.7601 -0.171226 0
M  V30 229 C 22.8376 -2.71634 0.557686 0
M  V30 230 H 25.7886 -1.39159 0.762928 0
M  V30 231 H 25.8096 -3.76141 -0.574278 0
M  V30 232 H 25.3216 -3.67473 1.24841 0
M  V30 233 H 23.4226 -3.52313 -1.21269 0
M  V30 234 H 23.5356 -4.78745 0.184379 0
M  V30 235 H 21.8996 -2.547 0.00125792 0
M  V30 236 H 22.6826 -3.0379 1.59896 0
M  V30 237 N 25.1277 -0.289203 -1.54924 0
M  V30 238 C 26.0907 0.579144 -2.21762 0
M  V30 239 C 27.0907 1.07047 -1.1999 0
M  V30 240 O 28.2807 0.968384 -1.44803 0
M  V30 241 C 25.4127 1.80055 -2.8947 0
M  V30 242 H 26.6057 -0.00464908 -2.999 0
M  V30 243 H 24.1587 -0.0399306 -1.56249 0
M  V30 244 H 24.8937 2.42449 -2.15381 0
M  V30 245 H 24.6787 1.45602 -3.64064 0
M  V30 246 H 26.1687 2.41773 -3.40493 0
M  V30 247 N 26.6058 1.57591 -0.0167156 0
M  V30 248 C 27.5688 2.08393 0.954204 0
M  V30 249 C 28.5688 0.996531 1.26198 0
M  V30 250 O 29.7588 1.25858 1.20438 0
M  V30 251 C 26.8908 2.5394 2.27436 0
M  V30 252 H 28.0838 2.95455 0.514451 0
M  V30 253 H 25.6368 1.54582 0.231089 0
M  V30 254 H 26.3718 1.70171 2.76066 0
M  V30 255 H 26.1568 3.33371 2.06412 0
M  V30 256 H 27.6468 2.93512 2.97053 0
M  V30 257 N 28.0839 -0.256276 1.55502 0
M  V30 258 C 29.3299 -0.987079 1.77157 0
M  V30 259 C 29.6629 -1.85327 0.580315 0
M  V30 260 O 28.9379 -1.89874 -0.421686 0
M  V30 261 C 29.2209 -1.85553 3.08613 0
M  V30 262 C 29.0739 -1.01816 4.38125 0
M  V30 263 C 30.3929 -2.8397 3.36228 0
M  V30 264 H 27.5119 -0.357428 0.644526 0
M  V30 265 H 30.1539 -0.258239 1.88237 0
M  V30 266 H 28.3039 -2.47695 2.99298 0
M  V30 267 H 29.9759 -0.416159 4.59419 0
M  V30 268 H 28.2189 -0.322178 4.32602 0
M  V30 269 H 28.8899 -1.65939 5.26468 0
M  V30 270 H 31.3659 -2.31964 3.45445 0
M  V30 271 H 30.2419 -3.41864 4.29442 0
M  V30 272 H 30.5029 -3.59955 2.56681 0
M  V30 273 N 29.562 -1.4872 -0.521534 0
M  V30 274 C 30.81 -1.56857 -1.27437 0
M  V30 275 C 31.131 -0.247982 -1.93417 0
M  V30 276 O 30.401 0.731151 -1.81744 0
M  V30 277 H 28.981 -0.577885 -0.473347 0
M  V30 278 H 31.643 -1.85233 -0.606205 0
M  V30 279 H 30.739 -2.35402 -2.0492 0
M  V30 280 N 31.0401 0.771051 -1.3745 0
M  V30 281 C 32.4561 1.07171 -1.18265 0
M  V30 282 C 32.6561 2.01491 -0.019287 0
M  V30 283 O 31.7121 2.44244 0.640408 0
M  V30 284 C 33.0251 1.66854 -2.50161 0
M  V30 285 C 34.5731 1.79109 -2.56689 0
M  V30 286 C 35.0481 2.42205 -3.88717 0
M  V30 287 N 36.5391 2.49655 -3.90162 0
M  V30 288 C 37.2741 2.9933 -4.8907 0
M  V30 289 N 36.7701 3.49172 -5.98374 0
M  V30 290 N 38.5631 2.9821 -4.76474 0
M  V30 291 H 30.7141 0.144796 -2.11906 0
M  V30 292 H 32.9771 0.126863 -0.939473 0
M  V30 293 H 32.6831 1.05017 -3.35655 0
M  V30 294 H 32.5571 2.6614 -2.673 0
M  V30 295 H 34.9441 2.40077 -1.71601 0
M  V30 296 H 35.0251 0.785757 -2.43433 0
M  V30 297 H 34.6691 1.81875 -4.74219 0
M  V30 298 H 34.5991 3.43345 -3.99276 0
M  V30 299 H 37.0901 2.14383 -3.11205 0
M  V30 300 H 37.4031 3.8548 -6.69795 0
M  V30 301 H 35.7481 3.47275 -6.02018 0
M  V30 302 H 38.9391 2.58572 -3.90203 0
M  V30 303 H 39.1121 3.36613 -5.53711 0
M  V30 304 N 32.5182 1.22032 0.997298 0
M  V30 305 C 33.7642 1.04376 1.73878 0
M  V30 306 C 34.0972 -0.420716 1.89588 0
M  V30 307 O 33.3722 -1.31202 1.43583 0
M  V30 308 C 33.6552 1.75047 3.14691 0
M  V30 309 C 33.5082 3.29062 3.06656 0
M  V30 310 C 34.8272 1.49928 4.13775 0
M  V30 311 H 31.9462 0.380578 0.631133 0
M  V30 312 H 34.5882 1.50312 1.16217 0
M  V30 313 H 32.7382 1.35996 3.63919 0
M  V30 314 H 34.4102 3.7753 2.65083 0
M  V30 315 H 32.6532 3.58967 2.43568 0
M  V30 316 H 33.3242 3.73683 4.06282 0
M  V30 317 H 35.8002 1.83842 3.73285 0
M  V30 318 H 34.6762 2.01878 5.10428 0
M  V30 319 H 34.9372 0.430929 4.39995 0
M  V30 320 N 33.9963 -1.19345 1.0293 0
M  V30 321 C 35.2423 -1.89318 0.727083 0
M  V30 322 C 35.5753 -1.79446 -0.742483 0
M  V30 323 O 34.8503 -1.1871 -1.54072 0
M  V30 324 C 35.1333 -3.40238 1.17942 0
M  V30 325 C 34.9863 -3.58979 2.71024 0
M  V30 326 C 36.3053 -4.33479 0.760548 0
M  V30 327 H 33.4243 -0.687475 0.265606 0
M  V30 328 H 36.0663 -1.40477 1.2793 0
M  V30 329 H 34.2163 -3.81964 0.709608 0
M  V30 330 H 35.8883 -3.26421 3.25955 0
M  V30 331 H 34.1313 -3.02018 3.11396 0
M  V30 332 H 34.8023 -4.64823 2.9773 0
M  V30 333 H 37.2783 -3.99469 1.16464 0
M  V30 334 H 36.1543 -5.37664 1.10493 0
M  V30 335 H 36.4153 -4.40813 -0.337063 0
M  V30 336 N 35.4744 -0.807222 -1.35358 0
M  V30 337 C 36.7204 -0.388463 -1.99045 0
M  V30 338 C 37.0534 1.04184 -1.63888 0
M  V30 339 O 36.3284 1.72292 -0.902535 0
M  V30 340 C 36.6114 -0.572783 -3.55515 0
M  V30 341 C 36.4644 -2.04807 -4.00468 0
M  V30 342 C 37.7834 0.00114064 -4.401 0
M  V30 343 H 34.9024 -0.142619 -0.723069 0
M  V30 344 H 37.5444 -1.01687 -1.60498 0
M  V30 345 H 35.6944 -0.0378425 -3.88482 0
M  V30 346 H 37.3664 -2.64544 -3.77908 0
M  V30 347 H 35.6094 -2.54427 -3.51353 0
M  V30 348 H 36.2804 -2.12792 -5.09337 0
M  V30 349 H 38.7564 -0.455716 -4.13597 0
M  V30 350 H 37.6324 -0.157737 -5.48673 0
M  V30 351 H 37.8934 1.09488 -4.28328 0
M  V30 352 N 36.9525 1.47285 -0.560781 0
M  V30 353 C 37.8825 2.32857 0.173105 0
M  V30 354 C 38.8635 1.44009 0.905281 0
M  V30 355 O 40.0485 1.7286 0.885046 0
M  V30 356 C 37.1785 3.25861 1.20133 0
M  V30 357 C 36.1325 4.23978 0.585388 0
M  V30 358 C 35.4585 5.06332 1.7185 0
M  V30 359 C 36.7585 5.20242 -0.463178 0
M  V30 360 H 38.4525 2.94466 -0.541307 0
M  V30 361 H 35.9985 1.41601 -0.261764 0
M  V30 362 H 37.9515 3.84569 1.72293 0
M  V30 363 H 36.6755 2.62315 1.94573 0
M  V30 364 H 35.3345 3.66501 0.085054 0
M  V30 365 H 34.9825 4.39186 2.45203 0
M  V30 366 H 34.6825 5.72762 1.31213 0
M  V30 367 H 36.2065 5.67899 2.24329 0
M  V30 368 H 37.6205 5.73293 -0.027502 0
M  V30 369 H 36.0175 5.94896 -0.788627 0
M  V30 370 H 37.0875 4.65504 -1.35773 0
M  V30 371 N 38.4306 0.297415 1.54768 0
M  V30 372 C 39.6556 -0.318435 2.04941 0
M  V30 373 C 40.0806 -1.4701 1.17345 0
M  V30 374 O 39.4386 -1.80436 0.176758 0
M  V30 375 C 39.4866 -0.755749 3.52592 0
M  V30 376 O 38.5906 -1.86088 3.68028 0
M  V30 377 H 37.9316 -0.062421 0.661059 0
M  V30 378 H 40.4616 0.438215 1.99852 0
M  V30 379 H 40.4716 -1.04552 3.94376 0
M  V30 380 H 39.1466 0.0867233 4.1581 0
M  V30 381 H 37.7236 -1.57193 3.38149 0
M  V30 382 N 39.9087 -1.5758 0.0250728 0
M  V30 383 C 41.1567 -1.91255 -0.653151 0
M  V30 384 C 41.4777 -0.901691 -1.729 0
M  V30 385 O 40.7477 0.0573785 -1.95816 0
M  V30 386 H 39.3277 -0.705942 -0.244243 0
M  V30 387 H 41.9897 -1.94767 0.0719209 0
M  V30 388 H 41.0857 -2.91752 -1.10847 0
M  V30 389 N 41.3868 0.248026 -1.55636 0
M  V30 390 C 42.7978 0.817177 -1.67866 0
M  V30 391 C 43.1488 1.86069 -0.622322 0
M  V30 392 O 42.2738 2.15157 0.231618 0
M  V30 393 C 42.8688 1.489 -3.04326 0
M  V30 394 C 41.4278 2.00587 -3.185 0
M  V30 395 C 40.5748 0.856573 -2.63739 0
M  V30 396 H 43.5258 0.0238579 -1.58682 0
M  V30 397 H 43.5468 2.35698 -2.98708 0
M  V30 398 H 43.0588 0.729279 -3.81186 0
M  V30 399 H 41.1598 2.79443 -2.4646 0
M  V30 400 H 41.2728 2.20402 -4.25393 0
M  V30 401 H 39.6368 1.25678 -2.21534 0
M  V30 402 H 40.4198 0.109953 -3.43124 0
M  V30 403 N 42.8649 1.48995 0.513639 0
M  V30 404 C 44.0899 1.61792 1.29762 0
M  V30 405 C 44.5149 0.284475 1.85936 0
M  V30 406 O 43.8729 -0.746185 1.65232 0
M  V30 407 C 43.9209 2.67993 2.41272 0
M  V30 408 O 43.0249 2.26287 3.44772 0
M  V30 409 H 42.3659 0.541963 0.38363 0
M  V30 410 H 44.8959 1.95097 0.616307 0
M  V30 411 H 44.9059 2.89772 2.87221 0
M  V30 412 H 43.5809 3.64791 1.9975 0
M  V30 413 H 42.1579 2.14788 3.04829 0
M  V30 414 N 44.343 -0.763751 1.37857 0
M  V30 415 C 45.306 -1.85889 1.34081 0
M  V30 416 C 46.306 -1.58949 0.243277 0
M  V30 417 O 47.496 -1.66882 0.499589 0
M  V30 418 C 44.628 -3.23176 1.08489 0
M  V30 419 H 45.821 -1.90648 2.31502 0
M  V30 420 H 43.374 -0.964367 1.23003 0
M  V30 421 H 44.109 -3.24091 0.116318 0
M  V30 422 H 43.894 -3.44124 1.8794 0
M  V30 423 H 45.384 -4.03254 1.08517 0
M  V30 424 N 45.8211 -1.22559 -0.990812 0
M  V30 425 C 47.0671 -1.05297 -1.73322 0
M  V30 426 C 47.4001 0.410655 -1.89808 0
M  V30 427 O 46.6751 1.30439 -1.44277 0
M  V30 428 C 46.9581 -1.76713 -3.13759 0
M  V30 429 C 46.8111 -3.30684 -3.04907 0
M  V30 430 C 48.1301 -1.52121 -4.12974 0
M  V30 431 H 45.2491 -0.38392 -0.629106 0
M  V30 432 H 47.8911 -1.50926 -1.15418 0
M  V30 433 H 46.0411 -1.37924 -3.63193 0
M  V30 434 H 47.7131 -3.7893 -2.63077 0
M  V30 435 H 45.9561 -3.60253 -2.41661 0
M  V30 436 H 46.6271 -3.75833 -4.04294 0
M  V30 437 H 49.1031 -1.85819 -3.72304 0
M  V30 438 H 47.9791 -2.04582 -5.0935 0
M  V30 439 H 48.2401 -0.454257 -4.3976 0
M  V30 440 N 47.2992 1.18797 -1.03562 0
M  V30 441 C 48.5472 1.88278 -0.734569 0
M  V30 442 C 48.8682 1.8043 0.739586 0
M  V30 443 O 48.1382 1.21925 1.53333 0
M  V30 444 H 46.7182 0.696991 -0.268725 0
M  V30 445 H 49.3802 1.44192 -1.31129 0
M  V30 446 H 48.4762 2.94443 -1.03489 0
M  V30 447 N 48.7773 0.814389 1.34928 0
M  V30 448 C 49.7243 0.22822 2.29669 0
M  V30 449 C 50.6943 -0.642164 1.53184 0
M  V30 450 O 51.8793 -0.585605 1.81591 0
M  V30 451 C 49.0193 -0.61089 3.3965 0
M  V30 452 C 48.1323 0.280792 4.31086 0
M  V30 453 C 47.2673 -0.567067 5.28165 0
M  V30 454 C 46.3063 0.324531 6.11239 0
M  V30 455 N 45.4433 -0.483756 7.00431 0
M  V30 456 H 50.2833 1.04153 2.79206 0
M  V30 457 H 47.8203 0.525133 1.37407 0
M  V30 458 H 49.7783 -1.11263 4.0209 0
M  V30 459 H 48.4083 -1.38939 2.91369 0
M  V30 460 H 47.4603 0.900688 3.69583 0
M  V30 461 H 48.7723 0.966723 4.89342 0
M  V30 462 H 47.9263 -1.13363 5.96015 0
M  V30 463 H 46.6653 -1.28654 4.70425 0
M  V30 464 H 45.6703 0.903298 5.42329 0
M  V30 465 H 46.8953 1.04198 6.71059 0
M  V30 466 H 44.8413 -1.18706 6.45171 0
M  V30 467 H 44.7583 0.143965 7.55863 0
M  V30 468 H 46.0263 -1.03334 7.7262 0
M  V30 469 N 50.2554 -1.46986 0.568584 0
M  V30 470 C 51.4804 -2.07335 0.0520528 0
M  V30 471 C 51.9054 -1.41675 -1.23733 0
M  V30 472 O 51.2634 -0.495623 -1.74394 0
M  V30 473 C 51.3114 -3.60417 -0.11501 0
M  V30 474 O 50.4154 -3.95309 -1.17492 0
M  V30 475 H 49.7564 -0.661597 0.0564385 0
M  V30 476 H 52.2864 -1.88837 0.787507 0
M  V30 477 H 52.2964 -4.06698 -0.325644 0
M  V30 478 H 50.9714 -4.07601 0.826675 0
M  V30 479 H 49.5484 -3.60757 -0.943869 0
M  V30 480 N 51.7335 -0.305618 -1.54608 0
M  V30 481 C 52.9615 0.304775 -2.04643 0
M  V30 482 C 53.3765 1.47167 -1.18268 0
M  V30 483 O 52.7335 1.81296 -0.209328 0
M  V30 484 C 52.7845 0.756564 -3.53495 0
M  V30 485 O 52.5055 -0.36389 -4.36586 0
M  V30 486 C 54.0065 1.43163 -4.19546 0
M  V30 487 H 51.2265 0.0655481 -0.667791 0
M  V30 488 H 53.7705 -0.446592 -1.99564 0
M  V30 489 H 51.9255 1.45794 -3.58919 0
M  V30 490 H 52.3395 -0.0113121 -5.24499 0
M  V30 491 H 53.8135 1.69886 -5.25207 0
M  V30 492 H 54.2905 2.37318 -3.69563 0
M  V30 493 H 54.8965 0.773307 -4.18211 0
M  V30 494 N 53.2116 1.57565 -0.0334293 0
M  V30 495 C 54.4576 1.92262 0.645226 0
M  V30 496 C 54.7906 0.910543 1.71531 0
M  V30 497 O 54.0656 -0.066099 1.94388 0
M  V30 498 C 54.3486 3.37422 1.2577 0
M  V30 499 C 54.2016 4.49369 0.196891 0
M  V30 500 C 55.5206 3.82628 2.17449 0
M  V30 501 H 52.6396 0.699171 0.233085 0
M  V30 502 H 55.2816 1.89779 -0.0915694 0
M  V30 503 H 53.4316 3.39669 1.88566 0
M  V30 504 H 55.1036 4.59254 -0.433962 0
M  V30 505 H 53.3466 4.31168 -0.477137 0
M  V30 506 H 54.0176 5.47978 0.665124 0
M  V30 507 H 56.4936 3.82145 1.64634 0
M  V30 508 H 55.3696 4.84883 2.57254 0
M  V30 509 H 55.6306 3.18376 3.0674 0
M  V30 510 N 54.6897 -0.239769 1.55765 0
M  V30 511 C 55.9357 -0.968234 1.78194 0
M  V30 512 C 56.2687 -1.84701 0.599938 0
M  V30 513 O 55.5437 -1.9031 -0.401524 0
M  V30 514 C 55.8267 -1.8227 3.10564 0
M  V30 515 C 55.6797 -0.971633 4.3918 0
M  V30 516 C 56.9987 -2.80388 3.39221 0
M  V30 517 H 54.1177 -0.350572 0.648281 0
M  V30 518 H 56.7597 -0.238259 1.885 0
M  V30 519 H 54.9097 -2.44507 3.01908 0
M  V30 520 H 56.5817 -0.367408 4.59835 0
M  V30 521 H 54.8247 -0.276276 4.32919 0
M  V30 522 H 55.4957 -1.60346 5.28198 0
M  V30 523 H 57.9717 -2.28287 3.47885 0
M  V30 524 H 56.8477 -3.3729 4.33044 0
M  V30 525 H 57.1087 -3.57212 2.60484 0
M  V30 526 N 56.1678 -1.49265 -0.50573 0
M  V30 527 C 57.5838 -1.35923 -0.836486 0
M  V30 528 C 57.7838 -0.388704 -1.97715 0
M  V30 529 O 56.8398 0.181336 -2.51848 0
M  V30 530 C 58.1528 -2.76531 -1.18115 0
M  V30 531 C 59.7008 -2.85197 -1.28964 0
M  V30 532 C 60.1758 -4.26561 -1.66761 0
M  V30 533 N 61.6668 -4.2935 -1.73819 0
M  V30 534 C 62.4018 -5.35693 -2.045 0
M  V30 535 N 61.8978 -6.52287 -2.33438 0
M  V30 536 N 63.6908 -5.23105 -2.05711 0
M  V30 537 H 55.8418 -2.10965 0.246519 0
M  V30 538 H 58.1048 -0.9468 0.0476887 0
M  V30 539 H 57.8108 -3.49226 -0.416398 0
M  V30 540 H 57.6848 -3.11599 -2.1257 0
M  V30 541 H 60.0718 -2.12742 -2.04511 0
M  V30 542 H 60.1528 -2.53718 -0.325704 0
M  V30 543 H 59.7968 -4.99541 -0.917656 0
M  V30 544 H 59.7268 -4.55502 -2.64246 0
M  V30 545 H 62.2178 -3.4526 -1.53635 0
M  V30 546 H 62.5308 -7.29158 -2.56024 0
M  V30 547 H 60.8758 -6.55521 -2.30905 0
M  V30 548 H 64.0668 -4.31026 -1.82577 0
M  V30 549 H 64.2398 -6.06078 -2.29289 0
M  V30 550 N 57.6459 0.756429 -1.3826 0
M  V30 551 C 58.8859 1.52833 -1.35725 0
M  V30 552 C 59.2499 1.91926 0.0534106 0
M  V30 553 O 60.4509 2.68028 0.203613 0
M  V30 554 C 58.7219 2.74919 -2.28373 0
M  V30 555 S 60.2809 3.64817 -2.43832 0
M  V30 556 H 57.0989 0.523043 -0.481608 0
M  V30 557 H 59.7009 0.888212 -1.74158 0
M  V30 558 H 58.4049 2.44304 -3.29763 0
M  V30 559 H 57.9359 3.43878 -1.91079 0
M  V30 560 H 59.9509 4.676 -1.66027 0
M  V30 561 N 59.124 1.23083 0.984299 0
M  V30 562 C 60.054 1.03292 2.09411 0
M  V30 563 C 61.035 -0.048923 1.7003 0
M  V30 564 O 62.22 0.114967 1.93859 0
M  V30 565 C 59.35 0.619155 3.41736 0
M  V30 566 C 58.304 1.64791 3.95004 0
M  V30 567 C 57.63 1.0897 5.23478 0
M  V30 568 C 58.93 3.03999 4.24714 0
M  V30 569 H 60.624 1.96119 2.26225 0
M  V30 570 H 58.17 0.944344 1.08711 0
M  V30 571 H 60.123 0.467777 4.18796 0
M  V30 572 H 58.847 -0.344786 3.24775 0
M  V30 573 H 57.506 1.78721 3.20085 0
M  V30 574 H 57.154 0.11686 5.02864 0
M  V30 575 H 56.854 1.77704 5.60085 0
M  V30 576 H 58.378 0.950093 6.03163 0
M  V30 577 H 59.792 2.93393 4.92538 0
M  V30 578 H 58.189 3.69936 4.72512 0
M  V30 579 H 59.259 3.53285 3.32142 0
M  V30 580 N 60.6021 -1.18246 1.0419 0
M  V30 581 C 62.0181 -1.40269 0.761366 0
M  V30 582 C 62.2181 -1.90777 -0.648578 0
M  V30 583 O 61.2741 -2.0929 -1.41258 0
M  V30 584 C 62.5871 -2.40237 1.8085 0
M  V30 585 C 64.1351 -2.53961 1.82955 0
M  V30 586 C 64.6101 -3.57194 2.86664 0
M  V30 587 N 66.1011 -3.64702 2.85563 0
M  V30 588 C 66.8361 -4.44309 3.6246 0
M  V30 589 N 66.3321 -5.27514 4.49111 0
M  V30 590 N 68.1251 -4.39084 3.50944 0
M  V30 591 H 60.2761 -0.837882 1.95175 0
M  V30 592 H 62.5391 -0.430608 0.84456 0
M  V30 593 H 62.2451 -2.10176 2.81991 0
M  V30 594 H 62.1191 -3.39601 1.64168 0
M  V30 595 H 64.5061 -2.83338 0.824855 0
M  V30 596 H 64.5871 -1.54706 2.03715 0
M  V30 597 H 64.2311 -3.28558 3.87314 0
M  V30 598 H 64.1611 -4.5613 2.6316 0
M  V30 599 H 66.6521 -3.05289 2.22727 0
M  V30 600 H 66.9651 -5.85411 5.04493 0
M  V30 601 H 65.3101 -5.2693 4.53178 0
M  V30 602 H 68.5011 -3.7313 2.82651 0
M  V30 603 H 68.6741 -5.00883 4.11121 0
M  V30 604 N 62.0802 -0.821533 -1.34494 0
M  V30 605 C 62.9902 -0.244355 -2.33324 0
M  V30 606 C 64.0062 0.620527 -1.62559 0
M  V30 607 O 65.1822 0.528754 -1.94335 0
M  V30 608 C 62.2472 0.585368 -3.41723 0
M  V30 609 C 61.3082 -0.301752 -4.28238 0
M  V30 610 C 60.5412 0.488466 -5.3146 0
M  V30 611 O 60.7642 1.72186 -5.4379 0
M  V30 612 O 59.6982 -0.12848 -6.01763 0
M  V30 613 H 63.5242 -1.06231 -2.84515 0
M  V30 614 H 61.1092 -0.583645 -1.37528 0
M  V30 615 H 62.9912 1.05747 -4.07916 0
M  V30 616 H 61.6662 1.38068 -2.92778 0
M  V30 617 H 60.5732 -0.821315 -3.64973 0
M  V30 618 H 61.9062 -1.06138 -4.8062 0
M  V30 619 N 63.5583 1.46682 -0.576371 0
M  V30 620 C 64.9743 1.57822 -0.237562 0
M  V30 621 C 65.1743 1.57237 1.26011 0
M  V30 622 O 64.2303 1.48596 2.04146 0
M  V30 623 C 65.5433 2.87499 -0.881168 0
M  V30 624 C 67.0913 3.01119 -0.85417 0
M  V30 625 C 67.5663 4.33524 -1.4772 0
M  V30 626 N 69.0573 4.40207 -1.44125 0
M  V30 627 C 69.7923 5.4126 -1.89276 0
M  V30 628 N 69.2883 6.49021 -2.42371 0
M  V30 629 N 71.0813 5.32422 -1.80231 0
M  V30 630 H 63.2323 1.45306 -1.54919 0
M  V30 631 H 65.4953 0.692733 -0.647167 0
M  V30 632 H 65.2013 2.9372 -1.93447 0
M  V30 633 H 65.0753 3.75224 -0.385592 0
M  V30 634 H 67.4623 2.94485 0.190491 0
M  V30 635 H 67.5433 2.14887 -1.3877 0
M  V30 636 H 67.1873 4.40916 -2.52103 0
M  V30 637 H 67.1173 5.1852 -0.918947 0
M  V30 638 H 69.6083 3.62931 -1.05307 0
M  V30 639 H 69.9213 7.2233 -2.74698 0
M  V30 640 H 68.2663 6.49858 -2.46393 0
M  V30 641 H 71.4573 4.47137 -1.38514 0
M  V30 642 H 71.6303 6.11034 -2.15735 0
M  V30 643 N 65.0364 0.313813 1.54444 0
M  V30 644 C 66.2854 -0.292519 1.99568 0
M  V30 645 C 66.5984 -1.54011 1.20582 0
M  V30 646 O 67.8044 -2.22183 1.56035 0
M  V30 647 C 66.2604 -0.571752 3.55329 0
M  V30 648 C 65.8684 0.658229 4.43138 0
M  V30 649 C 67.6124 -1.13857 4.08946 0
M  V30 650 C 65.5194 0.351439 5.90355 0
M  V30 651 H 64.4494 -0.113079 0.745472 0
M  V30 652 H 67.1004 0.424518 1.78522 0
M  V30 653 H 65.4824 -1.34872 3.72325 0
M  V30 654 H 66.6564 1.43403 4.37918 0
M  V30 655 H 64.9714 1.14458 4.0036 0
M  V30 656 H 67.5684 -1.38257 5.16516 0
M  V30 657 H 67.9114 -2.08489 3.6033 0
M  V30 658 H 68.4444 -0.423015 3.95544 0
M  V30 659 H 65.1834 1.26667 6.43145 0
M  V30 660 H 64.7034 -0.386842 5.98551 0
M  V30 661 H 66.3824 -0.0423134 6.46986 0
M  V30 662 N 66.5145 -1.57545 0.0417849 0
M  V30 663 C 67.9255 -1.80011 -0.495259 0
M  V30 664 C 68.2765 -0.953199 -1.71489 0
M  V30 665 O 67.4015 -0.167138 -2.15754 0
M  V30 666 C 67.9965 -3.26482 -0.905265 0
M  V30 667 C 66.5555 -3.499 -1.38734 0
M  V30 668 C 65.7025 -2.74979 -0.358056 0
M  V30 669 H 68.6535 -1.56425 0.267736 0
M  V30 670 H 68.6745 -3.36887 -1.76882 0
M  V30 671 H 68.1865 -3.88096 -0.017401 0
M  V30 672 H 66.2875 -2.93553 -2.29471 0
M  V30 673 H 66.4005 -4.58615 -1.38598 0
M  V30 674 H 64.7645 -2.40834 -0.828912 0
M  V30 675 H 65.5475 -3.39315 0.521561 0
M  V30 676 N 67.9926 0.231505 -1.5589 0
M  V30 677 C 68.9406 1.30649 -1.92441 0
M  V30 678 C 69.9346 1.49037 -0.805254 0
M  V30 679 O 71.1406 1.50329 -0.990007 0
M  V30 680 H 67.5156 0.437812 -0.611412 0
M  V30 681 H 69.4866 0.970973 -2.82161 0
M  V30 682 C 68.2356 2.65179 -2.24889 0
M  V30 683 H 67.5586 2.51835 -3.10514 0
M  V30 684 H 68.9986 3.39234 -2.54355 0
M  V30 685 C 67.4576 3.19439 -1.07054 0
M  V30 686 O 67.9876 4.00371 -0.326499 0
M  V30 687 N 66.1936 2.77675 -0.85703 0
M  V30 688 H 65.7406 2.11969 -1.46379 0
M  V30 689 H 65.6986 3.14321 -0.0703223 0
M  V30 690 N 69.4707 1.49531 0.497807 0
M  V30 691 C 70.4007 1.6935 1.60757 0
M  V30 692 C 71.3817 0.542218 1.61227 0
M  V30 693 O 72.5667 0.778417 1.77917 0
M  V30 694 C 69.6967 1.76298 2.99226 0
M  V30 695 C 68.6507 2.91248 3.13622 0
M  V30 696 C 67.9767 2.83312 4.53474 0
M  V30 697 C 69.2767 4.3214 2.93346 0
M  V30 698 H 70.9707 2.62263 1.44425 0
M  V30 699 H 68.5167 1.26208 0.693367 0
M  V30 700 H 70.4697 1.88749 3.76765 0
M  V30 701 H 69.1937 0.799871 3.16654 0
M  V30 702 H 67.8527 2.78404 2.38509 0
M  V30 703 H 67.5007 1.84902 4.67782 0
M  V30 704 H 67.2007 3.60465 4.64046 0
M  V30 705 H 68.7247 2.97775 5.33069 0
M  V30 706 H 70.1387 4.45649 3.60652 0
M  V30 707 H 68.5357 5.1054 3.15387 0
M  V30 708 H 69.6057 4.46363 1.89441 0
M  V30 709 N 70.9488 -0.749086 1.3866 0
M  V30 710 C 71.8988 -1.85368 1.32751 0
M  V30 711 C 72.8828 -1.59511 0.210945 0
M  V30 712 O 74.0748 -1.71255 0.447299 0
M  V30 713 C 71.2038 -3.23131 1.15935 0
M  V30 714 C 70.2898 -3.54864 2.32233 0
M  V30 715 N 70.6808 -3.57625 3.57684 0
M  V30 716 C 68.9788 -3.85154 2.24883 0
M  V30 717 C 69.6798 -3.86753 4.34508 0
M  V30 718 N 68.6558 -4.03812 3.63918 0
M  V30 719 H 72.4578 -1.85787 2.27729 0
M  V30 720 H 69.9718 -0.946658 1.31955 0
M  V30 721 H 71.9688 -4.02185 1.09786 0
M  V30 722 H 70.6288 -3.23961 0.218947 0
M  V30 723 H 71.6398 -3.39276 3.91295 0
M  V30 724 H 68.3168 -3.93672 1.39027 0
M  V30 725 H 69.7068 -3.95474 5.43185 0
M  V30 726 N 72.4269 -1.23603 -0.977757 0
M  V30 727 C 73.6739 -1.06971 -1.71941 0
M  V30 728 C 74.0019 0.393009 -1.90488 0
M  V30 729 O 73.2569 1.30719 -1.4564 0
M  V30 730 C 73.5559 -1.7433 -3.11999 0
M  V30 731 C 73.2219 -3.24252 -3.13323 0
M  V30 732 C 71.8839 -3.65156 -3.13392 0
M  V30 733 C 74.2359 -4.20141 -3.08433 0
M  V30 734 C 71.5639 -5.00403 -3.0629 0
M  V30 735 C 73.9159 -5.55384 -3.02873 0
M  V30 736 C 72.5799 -5.95647 -3.01265 0
M  V30 737 H 71.8499 -0.391433 -0.629175 0
M  V30 738 H 74.4969 -1.53572 -1.14403 0
M  V30 739 H 72.8019 -1.20096 -3.7294 0
M  V30 740 H 74.4989 -1.58936 -3.68158 0
M  V30 741 H 71.0889 -2.91692 -3.14029 0
M  V30 742 H 75.2729 -3.89547 -3.07517 0
M  V30 743 H 70.5289 -5.3081 -3.03399 0
M  V30 744 H 74.7029 -6.29398 -2.98046 0
M  V30 745 H 72.3299 -7.0041 -2.95516 0
M  V30 746 N 73.905 1.17692 -1.04816 0
M  V30 747 C 75.13 1.92327 -0.776207 0
M  V30 748 C 75.555 1.76082 0.661581 0
M  V30 749 O 74.913 1.076 1.45917 0
M  V30 750 C 74.961 3.41539 -1.15687 0
M  V30 751 O 74.065 4.11402 -0.286775 0
M  V30 752 H 73.406 0.599735 -0.284981 0
M  V30 753 H 75.936 1.49201 -1.4 0
M  V30 754 H 75.946 3.92269 -1.12202 0
M  V30 755 H 74.621 3.52684 -2.20425 0
M  V30 756 H 73.198 3.70939 -0.381903 0
M  V30 757 N 75.3831 0.828654 1.34056 0
M  V30 758 C 76.6291 0.42008 1.98402 0
M  V30 759 C 76.9621 -1.01564 1.65525 0
M  V30 760 O 76.2371 -1.70834 0.929831 0
M  V30 761 C 76.5201 0.62927 3.54559 0
M  V30 762 C 76.3731 2.11152 3.97159 0
M  V30 763 C 77.6921 0.0688756 4.40046 0
M  V30 764 H 74.8111 0.154104 0.720709 0
M  V30 765 H 77.4531 1.04228 1.5886 0
M  V30 766 H 75.6031 0.0996418 3.88372 0
M  V30 767 H 77.2751 2.70522 3.73651 0
M  V30 768 H 75.5181 2.59985 3.47261 0
M  V30 769 H 76.1891 2.20868 5.05887 0
M  V30 770 H 78.6651 0.521458 4.1282 0
M  V30 771 H 77.5411 0.245006 5.48353 0
M  V30 772 H 77.8021 -1.0266 4.30015 0
M  V30 773 N 76.8612 -1.46375 0.584142 0
M  V30 774 C 78.0862 -2.07268 0.0740405 0
M  V30 775 C 78.5112 -1.42979 -1.22223 0
M  V30 776 O 77.8692 -0.514092 -1.73859 0
M  V30 777 C 77.9172 -3.60518 -0.0767769 0
M  V30 778 O 77.0212 -3.96533 -1.13292 0
M  V30 779 H 76.3622 -0.660961 0.0634524 0
M  V30 780 H 78.8922 -1.87991 0.807492 0
M  V30 781 H 78.9022 -4.07021 -0.282489 0
M  V30 782 H 77.5772 -4.06702 0.86986 0
M  V30 783 H 76.1542 -3.61738 -0.905553 0
M  V30 784 N 78.3393 -0.321999 -1.54275 0
M  V30 785 C 79.3023 0.531975 -2.22941 0
M  V30 786 C 80.3023 1.04478 -1.22234 0
M  V30 787 O 81.4923 0.937452 -1.46825 0
M  V30 788 C 78.6243 1.73874 -2.93224 0
M  V30 789 H 79.8173 -0.0682612 -2.99822 0
M  V30 790 H 77.3703 -0.0730644 -1.56129 0
M  V30 791 H 78.1053 2.37825 -2.20476 0
M  V30 792 H 77.8903 1.37847 -3.6707 0
M  V30 793 H 79.3803 2.34496 -3.45545 0
M  V30 794 N 79.8174 1.5752 -0.0501392 0
M  V30 795 C 81.0454 1.96963 0.633492 0
M  V30 796 C 81.4604 0.927631 1.6444 0
M  V30 797 O 80.8174 -0.0882665 1.82286 0
M  V30 798 C 80.8684 3.36487 1.32132 0
M  V30 799 O 80.5894 4.36693 0.350894 0
M  V30 800 C 82.0904 3.90682 2.09481 0
M  V30 801 H 79.3104 0.648244 0.173266 0
M  V30 802 H 81.8544 2.0417 -0.116134 0
M  V30 803 H 80.0094 3.30434 2.02218 0
M  V30 804 H 80.4234 5.17702 0.841735 0
M  V30 805 H 81.8974 4.90591 2.5303 0
M  V30 806 H 82.3744 3.26053 2.94255 0
M  V30 807 H 82.9804 4.00069 1.44307 0
M  V30 808 N 81.2955 -0.223234 1.56011 0
M  V30 809 C 82.5235 -0.964812 1.83027 0
M  V30 810 C 82.9385 -1.78013 0.62904 0
M  V30 811 O 82.2955 -1.78008 -0.402414 0
M  V30 812 C 82.3465 -1.88373 3.08542 0
M  V30 813 O 82.0675 -1.10137 4.2403 0
M  V30 814 C 83.5685 -2.73934 3.48533 0
M  V30 815 H 80.7885 -0.282842 0.608475 0
M  V30 816 H 83.3325 -0.238971 2.03099 0
M  V30 817 H 81.4875 -2.56354 2.9045 0
M  V30 818 H 81.9015 -1.72501 4.95322 0
M  V30 819 H 83.3755 -3.34117 4.39397 0
M  V30 820 H 83.8525 -3.46244 2.70207 0
M  V30 821 H 84.4585 -2.11369 3.69057 0
M  V30 822 N 82.7736 -1.49793 -0.48987 0
M  V30 823 C 84.1896 -1.36803 -0.822022 0
M  V30 824 C 84.3896 -0.409652 -1.97292 0
M  V30 825 O 83.4456 0.154614 -2.52026 0
M  V30 826 C 84.7586 -2.77768 -1.15175 0
M  V30 827 C 86.3066 -2.86549 -1.25931 0
M  V30 828 C 86.7816 -4.28306 -1.62228 0
M  V30 829 N 88.2726 -4.31169 -1.69256 0
M  V30 830 C 89.0076 -5.37832 -1.98807 0
M  V30 831 N 88.5036 -6.54726 -2.26507 0
M  V30 832 N 90.2966 -5.25258 -2.00152 0
M  V30 833 H 82.4476 -2.10691 0.268881 0
M  V30 834 H 84.7106 -0.946241 0.057728 0
M  V30 835 H 84.4166 -3.49648 -0.379335 0
M  V30 836 H 84.2906 -3.13836 -2.09253 0
M  V30 837 H 86.6776 -2.14899 -2.02243 0
M  V30 838 H 86.7586 -2.54049 -0.298776 0
M  V30 839 H 86.4026 -5.00486 -0.864622 0
M  V30 840 H 86.3326 -4.58279 -2.594 0
M  V30 841 H 88.8236 -3.4687 -1.49965 0
M  V30 842 H 89.1366 -7.31833 -2.48276 0
M  V30 843 H 87.4816 -6.57933 -2.23939 0
M  V30 844 H 90.6726 -4.32938 -1.77996 0
M  V30 845 H 90.8456 -6.08476 -2.22848 0
M  V30 846 N 84.2517 0.741722 -1.39055 0
M  V30 847 C 85.2147 1.83733 -1.37021 0
M  V30 848 C 86.2147 1.58542 -0.268534 0
M  V30 849 O 87.4047 1.66067 -0.526076 0
M  V30 850 C 84.5367 3.2141 -1.13617 0
M  V30 851 H 85.7297 1.86941 -2.34506 0
M  V30 852 H 83.2827 0.944676 -1.24521 0
M  V30 853 H 84.0177 3.23865 -0.167863 0
M  V30 854 H 83.8027 3.4109 -1.93391 0
M  V30 855 H 85.2927 4.01477 -1.14918 0
M  V30 856 N 85.7298 1.2412 0.971189 0
M  V30 857 C 87.1408 1.07236 1.52831 0
M  V30 858 C 87.4918 -0.357352 1.92918 0
M  V30 859 O 86.6168 -1.24528 1.76979 0
M  V30 860 C 87.2118 1.94043 2.77728 0
M  V30 861 C 85.7708 1.81394 3.29808 0
M  V30 862 C 84.9178 1.89189 2.02738 0
M  V30 863 H 87.8688 1.37648 0.789864 0
M  V30 864 H 87.8898 1.47066 3.5093 0
M  V30 865 H 87.4018 2.98093 2.4852 0
M  V30 866 H 85.5028 0.801634 3.63874 0
M  V30 867 H 85.6158 2.65294 3.98944 0
M  V30 868 H 83.9798 1.32877 2.17292 0
M  V30 869 H 84.7628 2.94812 1.759 0
M  V30 870 N 87.2079 -1.17134 1.05439 0
M  V30 871 C 88.6239 -1.39454 0.776201 0
M  V30 872 C 88.8239 -1.91454 -0.628307 0
M  V30 873 O 87.8799 -2.10777 -1.39031 0
M  V30 874 C 89.1929 -2.38305 1.83388 0
M  V30 875 C 90.7409 -2.52006 1.85639 0
M  V30 876 C 91.2159 -3.54133 2.90437 0
M  V30 877 N 92.7069 -3.61653 2.89415 0
M  V30 878 C 93.4419 -4.4044 3.67152 0
M  V30 879 N 92.9379 -5.22721 4.54681 0
M  V30 880 N 94.7309 -4.35337 3.55581 0
M  V30 881 H 86.8819 -0.817134 1.96053 0
M  V30 882 H 89.1449 -0.421626 0.849079 0
M  V30 883 H 88.8509 -2.07173 2.84204 0
M  V30 884 H 88.7249 -3.37841 1.67761 0
M  V30 885 H 91.1119 -2.82447 0.85486 0
M  V30 886 H 91.1929 -1.52537 2.05344 0
M  V30 887 H 90.8369 -3.24431 3.90777 0
M  V30 888 H 90.7669 -4.53313 2.67983 0
M  V30 889 H 93.2579 -3.02909 2.25952 0
M  V30 890 H 93.5709 -5.80027 5.10674 0
M  V30 891 H 91.9159 -5.22093 4.58741 0
M  V30 892 H 95.1069 -3.70112 2.86592 0
M  V30 893 H 95.2799 -4.96494 4.1641 0
M  V30 894 N 88.686 -0.835752 -1.33615 0
M  V30 895 C 90.097 -0.487099 -1.80234 0
M  V30 896 C 90.448 0.993627 -1.69179 0
M  V30 897 O 89.573 1.77403 -1.23924 0
M  V30 898 C 90.168 -0.877385 -3.27242 0
M  V30 899 C 88.727 -0.580915 -3.7189 0
M  V30 900 C 87.874 -1.0874 -2.5509 0
M  V30 901 H 90.825 -1.02474 -1.2118 0
M  V30 902 H 90.846 -0.186195 -3.80044 0
M  V30 903 H 90.358 -1.95512 -3.35256 0
M  V30 904 H 88.459 0.486881 -3.69405 0
M  V30 905 H 88.572 -1.13396 -4.65487 0
M  V30 906 H 86.936 -0.508392 -2.49575 0
M  V30 907 H 87.719 -2.17184 -2.65868 0
M  V30 908 N 90.1641 1.46063 -0.591896 0
M  V30 909 C 91.4121 2.01938 -0.0808391 0
M  V30 910 C 91.7331 1.46475 1.28725 0
M  V30 911 O 91.0031 0.652944 1.84698 0
M  V30 912 H 89.5831 0.746516 -0.0268938 0
M  V30 913 H 92.2451 1.79055 -0.769752 0
M  V30 914 H 91.3411 3.12094 -0.0187578 0
M  V30 915 N 91.6422 0.330177 1.54103 0
M  V30 916 C 92.5522 -0.541534 2.28264 0
M  V30 917 C 93.5682 -1.12351 1.32866 0
M  V30 918 O 94.7442 -1.14206 1.65888 0
M  V30 919 C 91.8092 -1.68322 3.03098 0
M  V30 920 C 90.8702 -1.13238 4.14096 0
M  V30 921 C 90.1032 -2.21966 4.85352 0
M  V30 922 O 90.3262 -3.42437 4.56172 0
M  V30 923 O 89.2602 -1.87013 5.7211 0
M  V30 924 H 93.0862 0.060938 3.03639 0
M  V30 925 H 90.6712 0.09565 1.49093 0
M  V30 926 H 92.5532 -2.34777 3.49939 0
M  V30 927 H 91.2282 -2.27176 2.30593 0
M  V30 928 H 90.1352 -0.432736 3.71589 0
M  V30 929 H 91.4682 -0.588898 4.88664 0
M  V30 930 N 93.1203 -1.57491 0.0584922 0
M  V30 931 C 94.3663 -1.93264 -0.614558 0
M  V30 932 C 94.6993 -0.937717 -1.7006 0
M  V30 933 O 93.9743 0.0351652 -1.94468 0
M  V30 934 C 94.2573 -3.3938 -1.20386 0
M  V30 935 C 94.1103 -4.49625 -0.125375 0
M  V30 936 C 95.4293 -3.86039 -2.11334 0
M  V30 937 H 92.5483 -0.702791 -0.221933 0
M  V30 938 H 95.1903 -1.8961 0.12175 0
M  V30 939 H 93.3403 -3.42626 -1.83139 0
M  V30 940 H 95.0123 -4.58506 0.506971 0
M  V30 941 H 93.2553 -4.30354 0.545672 0
M  V30 942 H 93.9263 -5.48967 -0.577861 0
M  V30 943 H 96.4023 -3.84716 -1.58534 0
M  V30 944 H 95.2783 -4.88914 -2.49507 0
M  V30 945 H 95.5393 -3.23215 -3.01636 0
M  V30 946 N 94.5984 0.214957 -1.56127 0
M  V30 947 C 95.8754 0.963093 -1.70247 0
M  V30 948 C 96.2554 2.02166 -0.60764 0
M  V30 949 O 95.6034 2.25244 0.384385 0
M  V30 950 C 95.8134 1.56756 -3.11815 0
M  V30 951 C 97.1614 2.0573 -3.7143 0
M  V30 952 O 98.1854 1.66637 -3.14818 0
M  V30 953 O 97.0444 2.77603 -4.70743 0
M  V30 954 H 94.1384 0.450321 -0.693643 0
M  V30 955 H 96.6844 0.206219 -1.68442 0
M  V30 956 H 95.4564 0.803533 -3.82961 0
M  V30 957 H 95.0794 2.3898 -3.17765 0
M  V30 958 N 96.0765 1.50051 0.48192 0
M  V30 959 C 97.3245 1.60181 1.23234 0
M  V30 960 C 97.6455 0.299176 1.92691 0
M  V30 961 O 96.9155 -0.682708 1.83619 0
M  V30 962 H 95.4955 0.590232 0.457859 0
M  V30 963 H 98.1575 1.86775 0.556881 0
M  V30 964 H 97.2535 2.40753 1.98607 0
M  V30 965 N 97.5546 -0.734337 1.39446 0
M  V30 966 C 98.8006 -1.49613 1.36908 0
M  V30 967 C 99.1336 -1.94169 -0.0347829 0
M  V30 968 O 98.4086 -1.66833 -0.999847 0
M  V30 969 C 98.6916 -2.73534 2.34203 0
M  V30 970 C 98.5446 -2.34993 3.83534 0
M  V30 971 C 99.8636 -3.75635 2.29317 0
M  V30 972 H 96.9826 -0.542714 0.498629 0
M  V30 973 H 99.6246 -0.839597 1.70443 0
M  V30 974 H 97.7746 -3.29553 2.05736 0
M  V30 975 H 99.4466 -1.84601 4.22753 0
M  V30 976 H 97.6896 -1.67213 4.00278 0
M  V30 977 H 98.3606 -3.23738 4.47099 0
M  V30 978 H 100.837 -3.29203 2.54489 0
M  V30 979 H 99.7126 -4.60008 2.99472 0
M  V30 980 H 99.9736 -4.22603 1.29842 0
M  V30 981 N 99.0327 -1.24633 -0.964593 0
M  V30 982 C 100.31 -0.995809 -1.68354 0
M  V30 983 C 100.69 0.480964 -2.05548 0
M  V30 984 O 100.038 1.45599 -1.76105 0
M  V30 985 C 100.248 -1.92177 -2.91323 0
M  V30 986 C 101.596 -2.19446 -3.63495 0
M  V30 987 O 102.62 -1.89855 -3.01386 0
M  V30 988 O 101.479 -2.69714 -4.75307 0
M  V30 989 H 98.5727 -0.376854 -0.736146 0
M  V30 990 H 101.119 -1.35745 -1.0184 0
M  V30 991 H 99.8907 -2.91938 -2.60553 0
M  V30 992 H 99.5137 -1.56349 -3.65569 0
M  V30 993 N 100.511 1.16574 -1.06058 0
M  V30 994 C 101.741 1.90675 -0.795397 0
M  V30 995 C 102.149 1.77547 0.653735 0
M  V30 996 O 101.492 1.11611 1.45907 0
M  V30 997 C 101.554 3.42011 -1.10764 0
M  V30 998 C 101.218 3.78924 -2.55471 0
M  V30 999 C 102.215 3.81042 -3.53699 0
M  V30 1000 C 99.8998 4.09626 -2.90708 0
M  V30 1001 C 101.894 4.13346 -4.85205 0
M  V30 1002 C 99.5808 4.41597 -4.22416 0
M  V30 1003 C 100.579 4.43436 -5.19474 0
M  V30 1004 O 100.267 4.74649 -6.48817 0
M  V30 1005 H 99.9988 0.611554 -0.288058 0
M  V30 1006 H 102.553 1.48711 -1.41683 0
M  V30 1007 H 100.783 3.84312 -0.429128 0
M  V30 1008 H 102.472 3.97384 -0.827077 0
M  V30 1009 H 103.238 3.57437 -3.27817 0
M  V30 1010 H 99.1168 4.07361 -2.15819 0
M  V30 1011 H 102.661 4.14696 -5.60957 0
M  V30 1012 H 98.5578 4.64667 -4.48056 0
M  V30 1013 H 99.3258 4.9247 -6.5377 0
M  V30 1014 N 101.989 0.842826 1.3317 0
M  V30 1015 C 102.939 0.250877 2.26616 0
M  V30 1016 C 103.923 -0.596427 1.49437 0
M  V30 1017 O 105.115 -0.447747 1.71243 0
M  V30 1018 C 102.244 -0.569779 3.38539 0
M  V30 1019 C 101.33 0.289254 4.23112 0
M  V30 1020 N 101.721 1.36987 4.86897 0
M  V30 1021 C 100.019 0.0769631 4.45934 0
M  V30 1022 C 100.72 1.89737 5.49886 0
M  V30 1023 N 99.6959 1.19827 5.30229 0
M  V30 1024 H 103.498 1.07718 2.73448 0
M  V30 1025 H 101.012 0.687693 1.47121 0
M  V30 1026 H 103.009 -1.01018 4.04476 0
M  V30 1027 H 101.669 -1.39401 2.93253 0
M  V30 1028 H 102.68 1.75277 4.87338 0
M  V30 1029 H 99.3569 -0.713507 4.11358 0
M  V30 1030 H 100.747 2.80253 6.10662 0
M  V30 1031 N 103.467 -1.45747 0.599634 0
M  V30 1032 C 104.714 -2.02292 0.0917284 0
M  V30 1033 C 105.042 -1.46906 -1.27472 0
M  V30 1034 O 104.297 -0.630652 -1.8526 0
M  V30 1035 C 104.596 -3.57399 -0.00602758 0
M  V30 1036 C 104.262 -4.31902 1.29503 0
M  V30 1037 C 102.924 -4.51974 1.65144 0
M  V30 1038 C 105.276 -4.74551 2.15525 0
M  V30 1039 C 102.604 -5.11949 2.86574 0
M  V30 1040 C 104.956 -5.35868 3.36196 0
M  V30 1041 C 103.62 -5.54165 3.72099 0
M  V30 1042 H 102.89 -0.740239 0.0335658 0
M  V30 1043 H 105.537 -1.7491 0.779661 0
M  V30 1044 H 103.842 -3.84014 -0.777183 0
M  V30 1045 H 105.539 -3.98846 -0.415038 0
M  V30 1046 H 102.129 -4.16588 1.00761 0
M  V30 1047 H 106.313 -4.58784 1.8929 0
M  V30 1048 H 101.569 -5.24305 3.14507 0
M  V30 1049 H 105.743 -5.6787 4.03109 0
M  V30 1050 H 103.37 -6.00406 4.6628 0
M  V30 1051 N 104.945 -0.338344 -1.53925 0
M  V30 1052 C 106.194 0.260732 -2.00008 0
M  V30 1053 C 106.507 1.52073 -1.23017 0
M  V30 1054 O 107.713 2.19672 -1.5955 0
M  V30 1055 C 106.169 0.51515 -3.56194 0
M  V30 1056 C 105.777 -0.728645 -4.42035 0
M  V30 1057 C 107.521 1.07337 -4.10706 0
M  V30 1058 C 105.428 -0.445315 -5.89721 0
M  V30 1059 H 104.358 0.101205 -0.747177 0
M  V30 1060 H 107.009 -0.452866 -1.77824 0
M  V30 1061 H 105.391 1.28932 -3.74423 0
M  V30 1062 H 106.565 -1.50352 -4.35581 0
M  V30 1063 H 104.88 -1.20813 -3.98489 0
M  V30 1064 H 107.477 1.30022 -5.18651 0
M  V30 1065 H 107.82 2.0273 -3.63602 0
M  V30 1066 H 108.353 0.360034 -3.96167 0
M  V30 1067 H 105.092 -1.36883 -6.41049 0
M  V30 1068 H 104.612 0.291569 -5.99091 0
M  V30 1069 H 106.291 -0.0606218 -6.46972 0
M  V30 1070 N 106.423 1.57458 -0.0668435 0
M  V30 1071 C 107.7 1.8469 0.644132 0
M  V30 1072 C 108.08 0.958343 1.88093 0
M  V30 1073 O 107.428 0.0233579 2.28488 0
M  V30 1074 C 107.638 3.34767 0.986509 0
M  V30 1075 C 108.986 4.02159 1.36212 0
M  V30 1076 O 110.01 3.39484 1.07839 0
M  V30 1077 O 108.869 5.12694 1.89227 0
M  V30 1078 H 105.963 0.762816 0.319437 0
M  V30 1079 H 108.509 1.6942 -0.0973986 0
M  V30 1080 H 107.281 3.91151 0.107883 0
M  V30 1081 H 106.904 3.55281 1.78497 0
M  V30 1082 N 107.901 -0.206675 1.56239 0
M  V30 1083 C 109.312 -0.772383 1.69974 0
M  V30 1084 C 109.663 -1.84353 0.671436 0
M  V30 1085 O 108.788 -2.15695 -0.174491 0
M  V30 1086 C 109.383 -1.40779 3.08167 0
M  V30 1087 C 107.942 -1.92072 3.23706 0
M  V30 1088 C 107.089 -0.786347 2.65917 0
M  V30 1089 H 110.04 0.0182223 1.5869 0
M  V30 1090 H 110.061 -2.27696 3.04852 0
M  V30 1091 H 109.573 -0.627958 3.82986 0
M  V30 1092 H 107.674 -2.7281 2.53782 0
M  V30 1093 H 107.787 -2.09046 4.31087 0
M  V30 1094 H 106.151 -1.1976 2.24788 0
M  V30 1095 H 106.934 -0.0189416 3.43295 0
M  V30 1096 N 109.379 -1.50304 -0.473955 0
M  V30 1097 C 110.607 -1.64902 -1.24959 0
M  V30 1098 C 111.022 -0.331198 -1.85872 0
M  V30 1099 O 110.379 0.68652 -1.69095 0
M  V30 1100 C 110.43 -2.73803 -2.36038 0
M  V30 1101 O 110.151 -4.00477 -1.77624 0
M  V30 1102 C 111.652 -2.99349 -3.26964 0
M  V30 1103 H 108.872 -0.554383 -0.378022 0
M  V30 1104 H 111.416 -1.9651 -0.566054 0
M  V30 1105 H 109.571 -2.44898 -3.00173 0
M  V30 1106 H 109.985 -4.60678 -2.5075 0
M  V30 1107 H 111.459 -3.79217 -4.01121 0
M  V30 1108 H 111.936 -2.10307 -3.85574 0
M  V30 1109 H 112.542 -3.29774 -2.68569 0
M  V30 1110 N 110.857 0.726932 -1.39834 0
M  V30 1111 C 112.273 1.03354 -1.21615 0
M  V30 1112 C 112.473 2.01327 -0.08338 0
M  V30 1113 O 111.529 2.46158 0.56238 0
M  V30 1114 C 112.842 1.58811 -2.55342 0
M  V30 1115 C 114.39 1.70851 -2.62257 0
M  V30 1116 C 114.865 2.29716 -3.96225 0
M  V30 1117 N 116.356 2.37116 -3.97907 0
M  V30 1118 C 117.091 2.83619 -4.98345 0
M  V30 1119 N 116.587 3.29958 -6.09179 0
M  V30 1120 N 118.38 2.82901 -4.8572 0
M  V30 1121 H 110.531 0.0773069 -2.12259 0
M  V30 1122 H 112.794 0.0969102 -0.943034 0
M  V30 1123 H 112.5 0.942855 -3.38826 0
M  V30 1124 H 112.374 2.57502 -2.75632 0
M  V30 1125 H 114.761 2.34497 -1.79152 0
M  V30 1126 H 114.842 0.707913 -2.45809 0
M  V30 1127 H 114.486 1.66696 -4.79765 0
M  V30 1128 H 114.416 3.30469 -4.09997 0
M  V30 1129 H 116.907 2.04374 -3.17868 0
M  V30 1130 H 117.22 3.63976 -6.8172 0
M  V30 1131 H 115.565 3.27946 -6.12761 0
M  V30 1132 H 118.756 2.46027 -3.98231 0
M  V30 1133 H 118.929 3.18827 -5.6414 0
M  V30 1134 N 112.336 1.25143 0.95797 0
M  V30 1135 C 113.583 1.09692 1.70217 0
M  V30 1136 C 113.911 -0.362654 1.91089 0
M  V30 1137 O 113.166 -1.28386 1.47701 0
M  V30 1138 C 113.465 1.79272 3.09187 0
M  V30 1139 C 113.131 3.29196 3.08125 0
M  V30 1140 C 111.793 3.70096 3.07543 0
M  V30 1141 C 114.145 4.24995 3.0171 0
M  V30 1142 C 111.473 5.05213 2.9829 0
M  V30 1143 C 113.825 5.60132 2.93999 0
M  V30 1144 C 112.489 6.00365 2.9175 0
M  V30 1145 H 111.759 0.401393 0.622868 0
M  V30 1146 H 114.406 1.55372 1.11945 0
M  V30 1147 H 112.711 1.26014 3.70982 0
M  V30 1148 H 114.408 1.64773 3.65583 0
M  V30 1149 H 110.998 2.96651 3.09348 0
M  V30 1150 H 115.182 3.9439 3.01281 0
M  V30 1151 H 110.438 5.35569 2.94916 0
M  V30 1152 H 114.612 6.3406 2.87996 0
M  V30 1153 H 112.239 7.05023 2.84336 0
M  V30 1154 N 113.814 -1.1601 1.06675 0
M  V30 1155 C 114.746 -2.20115 0.638921 0
M  V30 1156 C 115.759 -1.59916 -0.305057 0
M  V30 1157 O 116.948 -1.78245 -0.0954446 0
M  V30 1158 C 114.048 -3.38798 -0.0830083 0
M  V30 1159 C 113.221 -4.2855 0.875426 0
M  V30 1160 C 112.28 -5.25849 0.192042 0
M  V30 1161 O 111.306 -5.63102 0.830921 0
M  V30 1162 N 112.508 -5.70648 -1.06493 0
M  V30 1163 H 115.273 -2.57439 1.53444 0
M  V30 1164 H 112.834 -1.31057 0.950557 0
M  V30 1165 H 114.826 -4.00936 -0.550685 0
M  V30 1166 H 113.396 -2.99947 -0.880386 0
M  V30 1167 H 112.616 -3.63617 1.52238 0
M  V30 1168 H 113.904 -4.85393 1.52548 0
M  V30 1169 H 113.302 -5.42482 -1.60405 0
M  V30 1170 H 111.859 -6.34859 -1.47641 0
M  V30 1171 N 115.292 -0.849877 -1.32721 0
M  V30 1172 C 116.224 -0.248332 -2.27851 0
M  V30 1173 C 117.237 0.577218 -1.52224 0
M  V30 1174 O 118.426 0.402489 -1.73903 0
M  V30 1175 C 115.526 0.668107 -3.32249 0
M  V30 1176 C 114.699 -0.120534 -4.37234 0
M  V30 1177 C 113.758 0.720932 -5.21238 0
M  V30 1178 O 112.784 0.156166 -5.68986 0
M  V30 1179 N 113.986 2.03647 -5.43607 0
M  V30 1180 H 116.751 -1.06575 -2.80111 0
M  V30 1181 H 114.312 -0.709395 -1.45531 0
M  V30 1182 H 116.304 1.23627 -3.85355 0
M  V30 1183 H 114.874 1.38621 -2.80184 0
M  V30 1184 H 114.094 -0.870108 -3.84477 0
M  V30 1185 H 115.382 -0.662406 -5.0447 0
M  V30 1186 H 114.78 2.51871 -5.06535 0
M  V30 1187 H 113.337 2.55287 -5.99727 0
M  V30 1188 N 116.77 1.45427 -0.607355 0
M  V30 1189 C 117.7 2.3329 0.0989352 0
M  V30 1190 C 118.681 1.46816 0.859007 0
M  V30 1191 O 119.866 1.75588 0.829604 0
M  V30 1192 C 116.996 3.29518 1.09705 0
M  V30 1193 C 115.95 4.25626 0.450206 0
M  V30 1194 C 115.276 5.11542 1.55655 0
M  V30 1195 C 116.576 5.18505 -0.628455 0
M  V30 1196 H 118.27 2.92595 -0.634716 0
M  V30 1197 H 115.816 1.40696 -0.306681 0
M  V30 1198 H 117.769 3.89855 1.59971 0
M  V30 1199 H 116.493 2.68372 1.86129 0
M  V30 1200 H 115.152 3.66586 -0.0315886 0
M  V30 1201 H 114.8 4.46765 2.31107 0
M  V30 1202 H 114.5 5.76647 1.12925 0
M  V30 1203 H 116.024 5.74748 2.06148 0
M  V30 1204 H 117.438 5.72916 -0.209877 0
M  V30 1205 H 115.835 5.92085 -0.977489 0
M  V30 1206 H 116.905 4.60948 -1.50514 0
M  V30 1207 N 118.248 0.346503 1.53744 0
M  V30 1208 C 119.497 -0.250122 2.00143 0
M  V30 1209 C 119.81 -1.51418 1.23822 0
M  V30 1210 O 121.016 -2.18823 1.60713 0
M  V30 1211 C 119.472 -0.496252 3.56462 0
M  V30 1212 C 119.08 0.752077 4.41642 0
M  V30 1213 C 120.824 -1.05157 4.11269 0
M  V30 1214 C 118.731 0.476583 5.89477 0
M  V30 1215 H 117.661 -0.0972409 0.747703 0
M  V30 1216 H 120.312 0.46229 1.77581 0
M  V30 1217 H 118.694 -1.26944 3.75102 0
M  V30 1218 H 119.868 1.5266 4.34778 0
M  V30 1219 H 118.183 1.22925 3.97842 0
M  V30 1220 H 120.78 -1.27269 5.19333 0
M  V30 1221 H 121.123 -2.00799 3.64672 0
M  V30 1222 H 121.656 -0.339019 3.96353 0
M  V30 1223 H 118.395 1.4028 6.40314 0
M  V30 1224 H 117.915 -0.259794 5.99237 0
M  V30 1225 H 119.594 0.0949315 6.4693 0
M  V30 1226 N 119.726 -1.57421 0.075193 0
M  V30 1227 C 121.003 -1.85029 -0.634329 0
M  V30 1228 C 121.383 -0.968305 -1.87582 0
M  V30 1229 O 120.731 -0.0354749 -2.28472 0
M  V30 1230 C 120.941 -3.35286 -0.968742 0
M  V30 1231 C 122.289 -4.02875 -1.34077 0
M  V30 1232 O 123.313 -3.40051 -1.06037 0
M  V30 1233 O 122.172 -5.13691 -1.86506 0
M  V30 1234 H 119.266 -0.7645 -0.315387 0
M  V30 1235 H 121.812 -1.69366 0.106382 0
M  V30 1236 H 120.584 -3.91203 -0.0871376 0
M  V30 1237 H 120.207 -3.56223 -1.7661 0
M  V30 1238 N 121.204 0.198386 -1.56346 0
M  V30 1239 C 122.136 1.26987 -1.90806 0
M  V30 1240 C 123.149 1.41877 -0.798419 0
M  V30 1241 O 124.338 1.42362 -1.07682 0
M  V30 1242 C 121.438 2.64246 -2.12196 0
M  V30 1243 C 120.611 2.71007 -3.43328 0
M  V30 1244 C 119.67 3.89439 -3.5387 0
M  V30 1245 O 118.696 3.76695 -4.26719 0
M  V30 1246 N 119.898 5.04752 -2.86715 0
M  V30 1247 H 122.663 0.977433 -2.83313 0
M  V30 1248 H 120.224 0.388322 -1.57174 0
M  V30 1249 H 122.216 3.41896 -2.1654 0
M  V30 1250 H 120.786 2.85992 -1.26204 0
M  V30 1251 H 120.006 1.79657 -3.50881 0
M  V30 1252 H 121.294 2.72512 -4.29668 0
M  V30 1253 H 120.692 5.18004 -2.2735 0
M  V30 1254 H 119.249 5.8036 -2.96691 0
M  V30 1255 N 122.682 1.50554 0.465978 0
M  V30 1256 C 123.93 1.61479 1.21528 0
M  V30 1257 C 124.251 0.319596 1.92363 0
M  V30 1258 O 123.521 -0.663194 1.84333 0
M  V30 1259 H 122.101 0.595055 0.451573 0
M  V30 1260 H 124.763 1.87355 0.53704 0
M  V30 1261 H 123.859 2.42846 1.96042 0
M  V30 1262 N 124.16 -0.719506 1.40217 0
M  V30 1263 C 125.07 -1.86378 1.42479 0
M  V30 1264 C 126.086 -1.71073 0.317834 0
M  V30 1265 O 127.262 -1.93406 0.561794 0
M  V30 1266 C 124.327 -3.22136 1.28178 0
M  V30 1267 C 123.388 -3.49723 2.48982 0
M  V30 1268 C 122.621 -4.79004 2.35353 0
M  V30 1269 O 122.844 -5.53821 1.36524 0
M  V30 1270 O 121.778 -5.06839 3.2465 0
M  V30 1271 H 125.604 -1.87425 2.38968 0
M  V30 1272 H 123.189 -0.869405 1.21498 0
M  V30 1273 H 125.071 -4.03234 1.22395 0
M  V30 1274 H 123.746 -3.21825 0.347934 0
M  V30 1275 H 122.653 -2.6865 2.60342 0
M  V30 1276 H 123.986 -3.54828 3.41113 0
M  V30 1277 N 125.638 -1.25649 -0.95132 0
M  V30 1278 C 126.568 -1.08808 -2.06599 0
M  V30 1279 C 127.549 0.00382547 -1.701 0
M  V30 1280 O 128.734 -0.166325 -1.93486 0
M  V30 1281 C 125.864 -0.709542 -3.39975 0
M  V30 1282 C 124.818 -1.75206 -3.90496 0
M  V30 1283 C 124.144 -1.22811 -5.20405 0
M  V30 1284 C 125.444 -3.15153 -4.16504 0
M  V30 1285 H 127.138 -2.02048 -2.20946 0
M  V30 1286 H 124.684 -0.972835 -1.06169 0
M  V30 1287 H 126.637 -0.578649 -4.17408 0
M  V30 1288 H 125.361 0.258556 -3.25575 0
M  V30 1289 H 124.02 -1.87145 -3.15234 0
M  V30 1290 H 123.668 -0.250145 -5.02378 0
M  V30 1291 H 123.368 -1.92492 -5.55176 0
M  V30 1292 H 124.892 -1.10968 -6.00432 0
M  V30 1293 H 126.306 -3.06349 -4.84586 0
M  V30 1294 H 124.703 -3.82333 -4.62538 0
M  V30 1295 H 125.773 -3.61966 -3.22658 0
M  V30 1296 N 127.117 1.15442 -1.07289 0
M  V30 1297 C 128.047 2.22312 -0.714107 0
M  V30 1298 C 129.028 1.67467 0.298155 0
M  V30 1299 O 130.213 1.93445 0.171048 0
M  V30 1300 C 127.343 3.47124 -0.110448 0
M  V30 1301 C 126.297 4.14926 -1.04979 0
M  V30 1302 C 125.623 5.33807 -0.308924 0
M  V30 1303 C 126.923 4.64762 -2.38314 0
M  V30 1304 H 128.617 2.5258 -1.6076 0
M  V30 1305 H 126.163 1.21404 -0.77441 0
M  V30 1306 H 128.116 4.21124 0.152482 0
M  V30 1307 H 126.84 3.16187 0.81812 0
M  V30 1308 H 125.499 3.42866 -1.29764 0
M  V30 1309 H 125.147 4.99126 0.623084 0
M  V30 1310 H 124.847 5.80113 -0.935036 0
M  V30 1311 H 126.371 6.10576 -0.0537771 0
M  V30 1312 H 127.785 5.30292 -2.1786 0
M  V30 1313 H 126.182 5.21728 -2.96514 0
M  V30 1314 H 127.252 3.80434 -3.00663 0
M  V30 1315 N 128.595 0.856903 1.32268 0
M  V30 1316 C 129.505 0.306131 2.32594 0
M  V30 1317 C 130.521 -0.577209 1.64147 0
M  V30 1318 O 131.697 -0.477043 1.95669 0
M  V30 1319 C 128.762 -0.494561 3.43154 0
M  V30 1320 C 127.823 0.415186 4.27288 0
M  V30 1321 C 127.056 -0.347387 5.32568 0
M  V30 1322 O 127.279 -1.57708 5.48165 0
M  V30 1323 O 126.213 0.287982 6.01211 0
M  V30 1324 H 130.039 1.13737 2.81598 0
M  V30 1325 H 127.624 0.619902 1.35932 0
M  V30 1326 H 129.506 -0.948944 4.10576 0
M  V30 1327 H 128.181 -1.30257 2.96336 0
M  V30 1328 H 127.088 0.917793 3.62667 0
M  V30 1329 H 128.421 1.18844 4.77637 0
M  V30 1330 N 130.073 -1.45103 0.615059 0
M  V30 1331 C 131.319 -2.03035 0.121804 0
M  V30 1332 C 131.674 -1.47393 -1.23665 0
M  V30 1333 O 130.967 -0.642061 -1.80522 0
M  V30 1334 C 131.161 -3.57386 0.0318797 0
M  V30 1335 C 130.99 -4.28 1.38007 0
M  V30 1336 C 129.76 -4.65624 1.9627 0
M  V30 1337 C 131.958 -4.5948 2.31047 0
M  V30 1338 N 129.94 -5.21132 3.24492 0
M  V30 1339 C 131.311 -5.159 3.43872 0
M  V30 1340 C 133.366 -4.41423 2.30326 0
M  V30 1341 C 132.069 -5.56165 4.5615 0
M  V30 1342 C 134.095 -4.82726 3.41658 0
M  V30 1343 C 133.457 -5.39245 4.53205 0
M  V30 1344 H 129.556 -0.77702 0.0881159 0
M  V30 1345 H 132.14 -1.76819 0.815044 0
M  V30 1346 H 130.311 -3.83247 -0.630599 0
M  V30 1347 H 132.043 -4.01976 -0.468721 0
M  V30 1348 H 128.798 -4.49421 1.49392 0
M  V30 1349 H 129.222 -5.53377 3.90004 0
M  V30 1350 H 133.864 -3.97033 1.45343 0
M  V30 1351 H 131.582 -5.99517 5.41854 0
M  V30 1352 H 135.168 -4.7048 3.42257 0
M  V30 1353 H 134.048 -5.70616 5.37929 0
M  V30 1354 N 131.551 -0.354651 -1.53558 0
M  V30 1355 C 132.514 0.484566 -2.24019 0
M  V30 1356 C 133.514 1.01861 -1.24422 0
M  V30 1357 O 134.704 0.906097 -1.4878 0
M  V30 1358 C 131.836 1.67615 -2.96847 0
M  V30 1359 H 133.029 -0.131843 -2.9961 0
M  V30 1360 H 130.582 -0.106165 -1.55939 0
M  V30 1361 H 131.317 2.33095 -2.25471 0
M  V30 1362 H 131.102 1.30029 -3.69912 0
M  V30 1363 H 132.592 2.27114 -3.50441 0
M  V30 1364 N 133.029 1.57378 -0.0835403 0
M  V30 1365 C 133.939 2.16897 0.894021 0
M  V30 1366 C 134.955 1.13528 1.31861 0
M  V30 1367 O 136.131 1.45848 1.3889 0
M  V30 1368 C 133.196 2.72831 2.13925 0
M  V30 1369 C 132.257 3.91115 1.76997 0
M  V30 1370 C 131.49 4.44371 2.95584 0
M  V30 1371 O 131.713 3.96596 4.09961 0
M  V30 1372 O 130.647 5.35549 2.74719 0
M  V30 1373 H 134.473 3.00814 0.417679 0
M  V30 1374 H 132.058 1.48741 0.140181 0
M  V30 1375 H 133.94 3.0863 2.86924 0
M  V30 1376 H 132.615 1.91967 2.60635 0
M  V30 1377 H 131.522 3.60148 1.01214 0
M  V30 1378 H 132.855 4.73307 1.3506 0
M  V30 1379 N 134.507 -0.190092 1.56449 0
M  V30 1380 C 135.756 -0.907912 1.80111 0
M  V30 1381 C 136.069 -1.84214 0.657619 0
M  V30 1382 O 137.275 -2.60094 0.778663 0
M  V30 1383 C 135.731 -1.66485 3.19078 0
M  V30 1384 C 135.339 -0.7752 4.41242 0
M  V30 1385 C 137.083 -2.37201 3.52045 0
M  V30 1386 C 134.99 -1.53129 5.71231 0
M  V30 1387 H 133.92 -0.34276 0.671589 0
M  V30 1388 H 136.571 -0.161109 1.82791 0
M  V30 1389 H 134.953 -2.45572 3.10661 0
M  V30 1390 H 136.127 -0.0226298 4.60794 0
M  V30 1391 H 134.442 -0.178627 4.16017 0
M  V30 1392 H 137.039 -2.94329 4.46402 0
M  V30 1393 H 137.382 -3.11632 2.76028 0
M  V30 1394 H 137.915 -1.65075 3.61932 0
M  V30 1395 H 134.654 -0.82967 6.50228 0
M  V30 1396 H 134.174 -2.25767 5.55688 0
M  V30 1397 H 135.853 -2.08377 6.12526 0
M  V30 1398 N 135.985 -1.50799 -0.457987 0
M  V30 1399 C 136.935 -1.67003 -1.55222 0
M  V30 1400 C 137.919 -0.52434 -1.52117 0
M  V30 1401 O 139.111 -0.779345 -1.58919 0
M  V30 1402 C 136.24 -1.77956 -2.93576 0
M  V30 1403 C 135.326 -2.98243 -3.01516 0
M  V30 1404 N 135.717 -4.21732 -2.79241 0
M  V30 1405 C 134.015 -2.97072 -3.32662 0
M  V30 1406 C 134.716 -5.02817 -2.92489 0
M  V30 1407 N 133.692 -4.37038 -3.23262 0
M  V30 1408 H 137.494 -2.60163 -1.36721 0
M  V30 1409 H 135.008 -1.48163 -0.664952 0
M  V30 1410 H 137.005 -1.87671 -3.72271 0
M  V30 1411 H 135.665 -0.859634 -3.13114 0
M  V30 1412 H 136.676 -4.51016 -2.54567 0
M  V30 1413 H 133.353 -2.14631 -3.58106 0
M  V30 1414 H 134.743 -6.11054 -2.79396 0
M  V30 1415 N 137.463 0.71206 -1.40597 0
M  V30 1416 C 138.711 1.46907 -1.38791 0
M  V30 1417 C 139.032 1.94998 0.00780391 0
M  V30 1418 O 138.302 1.70587 0.963174 0
M  V30 1419 H 136.882 0.545043 -0.51082 0
M  V30 1420 H 139.544 0.843882 -1.75683 0
M  V30 1421 H 138.64 2.34021 -2.06496 0
M  V30 1422 N 138.941 1.26152 0.944643 0
M  V30 1423 C 140.189 1.11271 1.6871 0
M  V30 1424 C 140.51 -0.345166 1.91921 0
M  V30 1425 O 139.78 -1.24387 1.51343 0
M  V30 1426 H 138.36 0.408783 0.625224 0
M  V30 1427 H 141.022 1.58427 1.1352 0
M  V30 1428 H 140.118 1.62879 2.66227 0
M  V30 1429 N 140.419 -1.14872 1.07899 0
M  V30 1430 C 141.349 -2.2193 0.725887 0
M  V30 1431 C 142.33 -1.67622 -0.28927 0
M  V30 1432 O 143.515 -1.93533 -0.160787 0
M  V30 1433 C 140.645 -3.47061 0.128856 0
M  V30 1434 C 139.599 -4.14363 1.07178 0
M  V30 1435 C 138.925 -5.33636 0.337229 0
M  V30 1436 C 140.225 -4.63492 2.40775 0
M  V30 1437 H 141.919 -2.51724 1.62097 0
M  V30 1438 H 139.465 -1.20991 0.780838 0
M  V30 1439 H 141.418 -4.21199 -0.130147 0
M  V30 1440 H 140.142 -3.16617 -0.80134 0
M  V30 1441 H 138.801 -3.42173 1.3158 0
M  V30 1442 H 138.449 -4.99449 -0.596606 0
M  V30 1443 H 138.149 -5.79609 0.965788 0
M  V30 1444 H 139.673 -6.10539 0.0861567 0
M  V30 1445 H 141.087 -5.2913 2.20669 0
M  V30 1446 H 139.484 -5.20148 2.99276 0
M  V30 1447 H 140.554 -3.78834 3.02676 0
M  V30 1448 N 141.898 -0.863906 -1.31812 0
M  V30 1449 C 142.848 -0.286898 -2.26188 0
M  V30 1450 C 143.832 0.572577 -1.50367 0
M  V30 1451 O 145.024 0.420447 -1.71934 0
M  V30 1452 C 142.153 0.515849 -3.39402 0
M  V30 1453 C 141.239 -0.356531 -4.22599 0
M  V30 1454 N 141.63 -1.44716 -4.84656 0
M  V30 1455 C 139.928 -0.147898 -4.45755 0
M  V30 1456 C 140.629 -1.98462 -5.46798 0
M  V30 1457 N 139.605 -1.28247 -5.28255 0
M  V30 1458 H 143.407 -1.12055 -2.717 0
M  V30 1459 H 140.921 -0.711012 -1.46008 0
M  V30 1460 H 142.918 0.945701 -4.06032 0
M  V30 1461 H 141.578 1.34718 -2.95434 0
M  V30 1462 H 142.589 -1.83008 -4.84488 0
M  V30 1463 H 139.266 0.647973 -4.12441 0
M  V30 1464 H 140.656 -2.89932 -6.06126 0
M  V30 1465 N 143.376 1.44774 -0.622745 0
M  V30 1466 C 144.792 1.56986 -0.287652 0
M  V30 1467 C 144.992 1.61167 1.20944 0
M  V30 1468 O 144.048 1.55015 1.99315 0
M  V30 1469 C 145.361 2.84551 -0.972188 0
M  V30 1470 C 146.909 2.9825 -0.949536 0
M  V30 1471 C 147.384 4.28605 -1.61437 0
M  V30 1472 N 148.875 4.35399 -1.58057 0
M  V30 1473 C 149.61 5.34964 -2.064 0
M  V30 1474 N 149.106 6.40981 -2.62897 0
M  V30 1475 N 150.899 5.26419 -1.97078 0
M  V30 1476 H 143.05 1.40304 -1.59463 0
M  V30 1477 H 145.313 0.671794 -0.668878 0
M  V30 1478 H 145.019 2.87417 -2.02693 0
M  V30 1479 H 144.893 3.73807 -0.504771 0
M  V30 1480 H 147.28 2.94941 0.0967067 0
M  V30 1481 H 147.361 2.10364 -1.45536 0
M  V30 1482 H 147.005 4.32672 -2.66002 0
M  V30 1483 H 146.935 5.15334 -1.08344 0
M  V30 1484 H 149.426 3.59397 -1.16801 0
M  V30 1485 H 149.739 7.13225 -2.97539 0
M  V30 1486 H 148.084 6.4169 -2.66943 0
M  V30 1487 H 151.275 4.42504 -1.52669 0
M  V30 1488 H 151.448 6.03861 -2.35066 0
M  V30 1489 N 144.854 0.36279 1.53368 0
M  V30 1490 C 146.079 -0.231226 2.06107 0
M  V30 1491 C 146.504 -1.419 1.23474 0
M  V30 1492 O 145.862 -1.79524 0.253128 0
M  V30 1493 C 145.91 -0.605523 3.5548 0
M  V30 1494 O 145.014 -1.70312 3.7559 0
M  V30 1495 H 144.355 -0.034327 0.663112 0
M  V30 1496 H 146.885 0.522584 1.97814 0
M  V30 1497 H 146.895 -0.877314 3.98456 0
M  V30 1498 H 145.57 0.263004 4.15068 0
M  V30 1499 H 144.147 -1.4271 3.44512 0
M  V30 1500 N 146.332 -1.57332 0.0918853 0
M  V30 1501 C 147.58 -1.93853 -0.571446 0
M  V30 1502 C 147.901 -0.974212 -1.6892 0
M  V30 1503 O 147.171 -0.0257254 -1.95883 0
M  V30 1504 H 145.751 -0.715666 -0.214082 0
M  V30 1505 H 148.413 -1.94287 0.154464 0
M  V30 1506 H 147.509 -2.96191 -0.983729 0
M  V30 1507 N 147.81 0.181792 -1.56548 0
M  V30 1508 C 149.038 0.915947 -1.85521 0
M  V30 1509 C 149.453 1.76282 -0.676016 0
M  V30 1510 O 148.81 1.79012 0.355077 0
M  V30 1511 C 148.861 1.80126 -3.13427 0
M  V30 1512 O 148.582 0.988562 -4.26801 0
M  V30 1513 C 150.083 2.64597 -3.55673 0
M  V30 1514 H 147.303 0.26661 -0.61576 0
M  V30 1515 H 149.847 0.185039 -2.03661 0
M  V30 1516 H 148.002 2.48563 -2.97145 0
M  V30 1517 H 148.416 1.59308 -4.99721 0
M  V30 1518 H 149.89 3.2235 -4.48101 0
M  V30 1519 H 150.367 3.38958 -2.79292 0
M  V30 1520 H 150.973 2.0151 -3.74532 0
M  V30 1521 N 149.288 1.51039 0.449983 0
M  V30 1522 C 150.218 1.74379 1.55288 0
M  V30 1523 C 151.199 0.593236 1.5942 0
M  V30 1524 O 152.384 0.834625 1.7535 0
M  V30 1525 C 149.514 1.85728 2.93466 0
M  V30 1526 C 148.468 3.01078 3.04197 0
M  V30 1527 C 147.794 2.97595 4.44231 0
M  V30 1528 C 149.094 4.41254 2.7945 0
M  V30 1529 H 150.788 2.66725 1.36008 0
M  V30 1530 H 148.334 1.2835 0.652864 0
M  V30 1531 H 150.287 2.0064 3.70569 0
M  V30 1532 H 149.011 0.900207 3.13949 0
M  V30 1533 H 147.67 2.85851 2.29531 0
M  V30 1534 H 147.318 1.99691 4.61663 0
M  V30 1535 H 147.018 3.75046 4.52343 0
M  V30 1536 H 148.542 3.14583 5.23326 0
M  V30 1537 H 149.956 4.56897 3.46292 0
M  V30 1538 H 148.353 5.20315 2.98985 0
M  V30 1539 H 149.423 4.52164 1.75144 0
M  V30 1540 N 150.766 -0.704594 1.40972 0
M  V30 1541 C 151.729 -1.80035 1.41845 0
M  V30 1542 C 152.729 -1.57774 0.310474 0
M  V30 1543 O 153.919 -1.64613 0.56992 0
M  V30 1544 C 151.051 -3.18284 1.22098 0
M  V30 1545 H 152.244 -1.80658 2.3938 0
M  V30 1546 H 149.797 -0.911329 1.26982 0
M  V30 1547 H 150.532 -3.23306 0.253672 0
M  V30 1548 H 150.317 -3.35843 2.02366 0
M  V30 1549 H 151.807 -3.98289 1.25522 0
M  V30 1550 N 152.244 -1.26651 -0.937939 0
M  V30 1551 C 153.176 -1.04283 -2.04102 0
M  V30 1552 C 154.189 -0.00221014 -1.628 0
M  V30 1553 O 155.378 -0.242645 -1.76843 0
M  V30 1554 C 152.478 -0.557846 -3.34277 0
M  V30 1555 C 151.651 -1.66843 -4.04329 0
M  V30 1556 C 150.71 -1.18095 -5.12777 0
M  V30 1557 O 149.736 -1.87865 -5.37304 0
M  V30 1558 N 150.938 -0.0311006 -5.80492 0
M  V30 1559 H 153.703 -1.9927 -2.23856 0
M  V30 1560 H 151.264 -1.1808 -1.10764 0
M  V30 1561 H 153.256 -0.215836 -4.04124 0
M  V30 1562 H 151.826 0.298523 -3.11171 0
M  V30 1563 H 151.046 -2.18123 -3.28353 0
M  V30 1564 H 152.334 -2.41408 -4.47883 0
M  V30 1565 H 151.732 0.551486 -5.63005 0
M  V30 1566 H 150.289 0.251809 -6.51313 0
M  V30 1567 N 153.722 1.14298 -1.08507 0
M  V30 1568 C 155.133 1.66926 -0.836227 0
M  V30 1569 C 155.484 1.85576 0.63686 0
M  V30 1570 O 154.609 1.56767 1.49175 0
M  V30 1571 C 155.204 3.03219 -1.51142 0
M  V30 1572 C 153.763 3.52876 -1.30979 0
M  V30 1573 C 152.91 2.2833 -1.57356 0
M  V30 1574 H 155.861 0.983491 -1.24552 0
M  V30 1575 H 155.882 3.68726 -0.939211 0
M  V30 1576 H 155.394 2.89612 -2.58353 0
M  V30 1577 H 153.495 3.71703 -0.258429 0
M  V30 1578 H 153.608 4.33586 -2.03814 0
M  V30 1579 H 151.972 2.34454 -0.995164 0
M  V30 1580 H 152.755 2.17298 -2.65775 0
M  V30 1581 N 155.201 0.870884 1.31352 0
M  V30 1582 C 156.447 0.482987 1.96965 0
M  V30 1583 C 156.78 -0.962462 1.68672 0
M  V30 1584 O 156.055 -1.6779 0.98371 0
M  V30 1585 C 156.338 0.741752 3.52378 0
M  V30 1586 C 156.191 2.2368 3.9024 0
M  V30 1587 C 157.51 0.208838 4.39604 0
M  V30 1588 H 154.629 0.176955 0.715441 0
M  V30 1589 H 157.271 1.09229 1.55464 0
M  V30 1590 H 155.421 0.223149 3.87859 0
M  V30 1591 H 157.093 2.82273 3.64856 0
M  V30 1592 H 155.336 2.70901 3.38814 0
M  V30 1593 H 156.007 2.3685 4.98604 0
M  V30 1594 H 158.483 0.652529 4.10952 0
M  V30 1595 H 157.359 0.419336 5.47296 0
M  V30 1596 H 157.62 -0.889275 4.33064 0
M  V30 1597 N 156.679 -1.44442 0.630414 0
M  V30 1598 C 158.095 -1.56832 0.295973 0
M  V30 1599 C 158.295 -1.61806 -1.20088 0
M  V30 1600 O 157.351 -1.5607 -1.9849 0
M  V30 1601 C 158.664 -2.84031 0.987264 0
M  V30 1602 C 160.212 -2.97742 0.96534 0
M  V30 1603 C 160.687 -4.27743 1.63708 0
M  V30 1604 N 162.178 -4.34555 1.60364 0
M  V30 1605 C 162.913 -5.33862 2.09234 0
M  V30 1606 N 162.409 -6.39578 2.66292 0
M  V30 1607 N 164.202 -5.25366 1.99867 0
M  V30 1608 H 156.353 -1.39457 1.60205 0
M  V30 1609 H 158.616 -0.668237 0.672431 0
M  V30 1610 H 158.322 -2.86338 2.04215 0
M  V30 1611 H 158.196 -3.73534 0.524588 0
M  V30 1612 H 160.583 -2.94989 -0.0810639 0
M  V30 1613 H 160.664 -2.09589 1.4665 0
M  V30 1614 H 160.308 -4.31255 2.68293 0
M  V30 1615 H 160.238 -5.14752 1.11076 0
M  V30 1616 H 162.729 -3.58772 1.18705 0
M  V30 1617 H 163.042 -7.11637 3.01317 0
M  V30 1618 H 161.387 -6.40265 2.70343 0
M  V30 1619 H 164.578 -4.41688 1.55013 0
M  V30 1620 H 164.751 -6.02606 2.38265 0
M  V30 1621 N 158.157 -0.370918 -1.53173 0
M  V30 1622 C 159.12 0.460778 -2.24521 0
M  V30 1623 C 160.12 1.00536 -1.25496 0
M  V30 1624 O 161.31 0.890266 -1.49733 0
M  V30 1625 C 158.442 1.64457 -2.98608 0
M  V30 1626 H 159.635 -0.163613 -2.99453 0
M  V30 1627 H 157.188 -0.122699 -1.55818 0
M  V30 1628 H 157.923 2.30691 -2.2793 0
M  V30 1629 H 157.708 1.26099 -3.7127 0
M  V30 1630 H 159.198 2.23384 -3.5283 0
M  V30 1631 N 159.635 1.57281 -0.100228 0
M  V30 1632 C 160.598 2.13158 0.842398 0
M  V30 1633 C 161.598 1.06202 1.20738 0
M  V30 1634 O 162.788 1.32066 1.13597 0
M  V30 1635 C 159.92 2.65639 2.13655 0
M  V30 1636 H 161.113 2.97766 0.357114 0
M  V30 1637 H 158.666 1.5559 0.148823 0
M  V30 1638 H 159.401 1.84566 2.66657 0
M  V30 1639 H 159.186 3.43844 1.88451 0
M  V30 1640 H 160.676 3.08846 2.81077 0
M  V30 1641 N 161.113 -0.173488 1.56642 0
M  V30 1642 C 162.076 -1.19859 1.95362 0
M  V30 1643 C 163.076 -1.37296 0.83704 0
M  V30 1644 O 164.266 -1.34739 1.10413 0
M  V30 1645 C 161.398 -2.56405 2.24654 0
M  V30 1646 H 162.591 -0.867062 2.87092 0
M  V30 1647 H 160.144 -0.415853 1.50666 0
M  V30 1648 H 160.879 -2.94576 1.35631 0
M  V30 1649 H 160.664 -2.45115 3.06041 0
M  V30 1650 H 162.154 -3.30287 2.5554 0
M  V30 1651 N 162.591 -1.51276 -0.441967 0
M  V30 1652 C 163.554 -1.7167 -1.51862 0
M  V30 1653 C 164.554 -0.586793 -1.49711 0
M  V30 1654 O 165.744 -0.854276 -1.51815 0
M  V30 1655 C 162.876 -1.76889 -2.91416 0
M  V30 1656 H 164.069 -2.67754 -1.35084 0
M  V30 1657 H 161.622 -1.41196 -0.670333 0
M  V30 1658 H 162.357 -0.826026 -3.13604 0
M  V30 1659 H 162.142 -2.59001 -2.94382 0
M  V30 1660 H 163.632 -1.94522 -3.69528 0
M  V30 1661 N 164.069 0.697108 -1.41344 0
M  V30 1662 C 165.297 1.48593 -1.43972 0
M  V30 1663 C 165.712 1.88747 -0.0445612 0
M  V30 1664 O 165.069 1.56682 0.935785 0
M  V30 1665 C 165.12 2.74946 -2.34706 0
M  V30 1666 O 164.841 2.36484 -3.68791 0
M  V30 1667 C 166.342 3.687 -2.46121 0
M  V30 1668 H 163.562 0.457964 -0.490418 0
M  V30 1669 H 166.106 0.858429 -1.8561 0
M  V30 1670 H 164.261 3.33937 -1.9638 0
M  V30 1671 H 164.675 3.17918 -4.17167 0
M  V30 1672 H 166.149 4.54145 -3.13777 0
M  V30 1673 H 166.626 4.13081 -1.49199 0
M  V30 1674 H 167.232 3.15613 -2.85076 0
M  V30 1675 N 165.547 1.27147 0.931209 0
M  V30 1676 C 166.795 1.13055 1.6752 0
M  V30 1677 C 167.116 -0.324791 1.92276 0
M  V30 1678 O 166.386 -1.22775 1.52654 0
M  V30 1679 H 164.966 0.415391 0.620854 0
M  V30 1680 H 167.628 1.59623 1.11833 0
M  V30 1681 H 166.724 1.65694 2.64485 0
M  V30 1682 N 167.025 -1.13721 1.09112 0
M  V30 1683 C 168.271 -1.85198 0.826414 0
M  V30 1684 C 168.604 -1.83129 -0.646319 0
M  V30 1685 O 167.879 -1.2671 -1.47563 0
M  V30 1686 C 168.162 -3.33507 1.35812 0
M  V30 1687 C 168.015 -3.44108 2.89672 0
M  V30 1688 C 169.334 -4.28838 0.989256 0
M  V30 1689 H 166.453 -0.67243 0.301675 0
M  V30 1690 H 169.095 -1.33499 1.35197 0
M  V30 1691 H 167.245 -3.77666 0.911082 0
M  V30 1692 H 168.917 -3.08684 3.428 0
M  V30 1693 H 167.16 -2.85087 3.26967 0
M  V30 1694 H 167.831 -4.48388 3.21951 0
M  V30 1695 H 170.307 -3.92734 1.37475 0
M  V30 1696 H 169.183 -5.31051 1.38838 0
M  V30 1697 H 169.444 -4.4198 -0.102924 0
M  V30 1698 N 168.503 -0.877838 -1.30888 0
M  V30 1699 C 169.914 -0.544193 -1.78593 0
M  V30 1700 C 170.265 0.939301 -1.72254 0
M  V30 1701 O 169.39 1.7337 -1.29505 0
M  V30 1702 C 169.985 -0.98105 -3.24285 0
M  V30 1703 C 168.544 -0.698935 -3.69854 0
M  V30 1704 C 167.691 -1.168 -2.51502 0
M  V30 1705 H 170.642 -1.06278 -1.17859 0
M  V30 1706 H 170.663 -0.307009 -3.79259 0
M  V30 1707 H 170.175 -2.06079 -3.28866 0
M  V30 1708 H 168.276 0.369112 -3.70767 0
M  V30 1709 H 168.389 -1.28148 -4.61644 0
M  V30 1710 H 166.753 -0.587535 -2.47831 0
M  V30 1711 H 167.536 -2.25533 -2.58824 0
M  V30 1712 N 169.982 1.44106 -0.638065 0
M  V30 1713 C 171.228 2.02277 -0.145546 0
M  V30 1714 C 171.561 1.50125 1.23191 0
M  V30 1715 O 170.836 0.688133 1.8192 0
M  V30 1716 C 171.119 3.59829 -0.139791 0
M  V30 1717 C 170.972 4.22247 -1.55008 0
M  V30 1718 C 172.291 4.36873 0.531966 0
M  V30 1719 H 169.41 0.734992 -0.0543632 0
M  V30 1720 H 172.052 1.71592 -0.815863 0
M  V30 1721 H 170.202 3.86102 0.431007 0
M  V30 1722 H 171.874 4.07057 -2.1703 0
M  V30 1723 H 170.117 3.79476 -2.10191 0
M  V30 1724 H 170.788 5.31284 -1.49804 0
M  V30 1725 H 173.264 4.16074 0.0464781 0
M  V30 1726 H 172.14 5.4657 0.505206 0
M  V30 1727 H 172.401 4.11995 1.60352 0
M  V30 1728 N 171.46 0.379036 1.52974 0
M  V30 1729 C 172.39 -0.452706 2.29069 0
M  V30 1730 C 173.371 -1.07237 1.32039 0
M  V30 1731 O 174.556 -1.08708 1.60923 0
M  V30 1732 C 171.686 -1.5856 3.08992 0
M  V30 1733 C 170.64 -1.0925 4.13822 0
M  V30 1734 C 169.966 -2.31668 4.81907 0
M  V30 1735 C 171.266 -0.167702 5.22031 0
M  V30 1736 H 172.96 0.182181 2.98845 0
M  V30 1737 H 170.506 0.0890592 1.43724 0
M  V30 1738 H 172.459 -2.1742 3.6098 0
M  V30 1739 H 171.183 -2.24792 2.36931 0
M  V30 1740 H 169.842 -0.526494 3.628 0
M  V30 1741 H 169.49 -2.96386 4.06404 0
M  V30 1742 H 169.19 -1.9934 5.52754 0
M  V30 1743 H 170.714 -2.91189 5.36695 0
M  V30 1744 H 172.128 -0.664186 5.6944 0
M  V30 1745 H 170.525 0.0653265 6.00064 0
M  V30 1746 H 171.595 0.786347 4.78482 0
M  V30 1747 N 172.938 -1.57226 0.108567 0
M  V30 1748 C 174.187 -1.94008 -0.551703 0
M  V30 1749 C 174.5 -0.993442 -1.68494 0
M  V30 1750 O 175.706 -1.25551 -2.40726 0
M  V30 1751 C 174.162 -3.44763 -1.03279 0
M  V30 1752 C 173.77 -4.47943 0.0714193 0
M  V30 1753 C 175.514 -3.90483 -1.66503 0
M  V30 1754 C 173.421 -5.89865 -0.425779 0
M  V30 1755 H 172.351 -0.724206 -0.209863 0
M  V30 1756 H 175.002 -1.82547 0.186741 0
M  V30 1757 H 173.384 -3.51422 -1.82533 0
M  V30 1758 H 174.558 -4.52942 0.847365 0
M  V30 1759 H 172.873 -4.11913 0.609669 0
M  V30 1760 H 175.47 -4.93925 -2.04798 0
M  V30 1761 H 175.813 -3.29877 -2.53942 0
M  V30 1762 H 176.346 -3.86581 -0.938074 0
M  V30 1763 H 173.085 -6.54202 0.412316 0
M  V30 1764 H 172.605 -5.88309 -1.16843 0
M  V30 1765 H 174.284 -6.40844 -0.890397 0
M  V30 1766 N 174.416 0.165178 -1.56732 0
M  V30 1767 C 175.326 1.22423 -2.00125 0
M  V30 1768 C 176.342 1.48084 -0.913619 0
M  V30 1769 O 177.518 1.60112 -1.22172 0
M  V30 1770 C 174.583 2.54197 -2.35764 0
M  V30 1771 C 173.644 2.36343 -3.58386 0
M  V30 1772 C 172.877 3.61834 -3.92316 0
M  V30 1773 O 173.1 4.67267 -3.27135 0
M  V30 1774 O 172.034 3.55579 -4.85641 0
M  V30 1775 H 175.86 0.885886 -2.90492 0
M  V30 1776 H 173.445 0.372518 -1.44681 0
M  V30 1777 H 175.327 3.3192 -2.59629 0
M  V30 1778 H 174.002 2.87598 -1.48557 0
M  V30 1779 H 172.909 1.56632 -3.39731 0
M  V30 1780 H 174.242 2.07865 -4.46154 0
M  V30 1781 N 175.894 1.51508 0.433938 0
M  V30 1782 C 177.14 1.64588 1.18484 0
M  V30 1783 C 177.473 0.362666 1.90784 0
M  V30 1784 O 176.748 -0.637892 1.83742 0
M  V30 1785 C 177.031 2.85149 2.19913 0
M  V30 1786 C 176.884 4.23456 1.51674 0
M  V30 1787 C 178.203 3.01227 3.20858 0
M  V30 1788 H 175.322 0.598994 0.429389 0
M  V30 1789 H 177.964 1.84002 0.473647 0
M  V30 1790 H 176.114 2.68729 2.80566 0
M  V30 1791 H 177.786 4.51552 0.943322 0
M  V30 1792 H 176.029 4.25998 0.819035 0
M  V30 1793 H 176.7 5.03812 2.2556 0
M  V30 1794 H 179.176 3.16382 2.70263 0
M  V30 1795 H 178.052 3.87141 3.89118 0
M  V30 1796 H 178.313 2.13447 3.8716 0
M  V30 1797 N 177.372 -0.689602 1.41712 0
M  V30 1798 C 178.649 -1.44457 1.31877 0
M  V30 1799 C 179.029 -2.11039 -0.0508537 0
M  V30 1800 O 178.377 -2.02138 -1.06547 0
M  V30 1801 C 178.587 -2.45913 2.47645 0
M  V30 1802 C 179.935 -3.10991 2.89084 0
M  V30 1803 O 180.959 -2.56238 2.47428 0
M  V30 1804 O 179.818 -4.10174 3.61137 0
M  V30 1805 H 176.912 -0.64362 0.519309 0
M  V30 1806 H 179.458 -0.719576 1.53689 0
M  V30 1807 H 178.23 -1.95409 3.39015 0
M  V30 1808 H 177.853 -3.25913 2.27742 0
M  V30 1809 N 178.85 -1.27639 -0.924453 0
M  V30 1810 C 179.78 -1.13166 -2.04244 0
M  V30 1811 C 180.761 -0.032256 -1.70069 0
M  V30 1812 O 181.946 -0.207328 -1.9309 0
M  V30 1813 C 179.076 -0.781496 -3.38393 0
M  V30 1814 C 178.03 -1.83449 -3.86692 0
M  V30 1815 C 177.356 -1.33822 -5.17683 0
M  V30 1816 C 178.656 -3.23917 -4.09726 0
M  V30 1817 H 180.35 -2.06689 -2.1661 0
M  V30 1818 H 177.896 -0.995136 -1.04082 0
M  V30 1819 H 179.849 -0.667057 -4.16087 0
M  V30 1820 H 178.573 0.189439 -3.2605 0
M  V30 1821 H 177.232 -1.93789 -3.11193 0
M  V30 1822 H 176.88 -0.35665 -5.01734 0
M  V30 1823 H 176.58 -2.04224 -5.50968 0
M  V30 1824 H 178.104 -1.23679 -5.97943 0
M  V30 1825 H 179.518 -3.16559 -4.77978 0
M  V30 1826 H 177.915 -3.92059 -4.54324 0
M  V30 1827 H 178.985 -3.68729 -3.14908 0
M  V30 1828 N 180.328 1.1314 -1.09713 0
M  V30 1829 C 181.291 2.16831 -0.742751 0
M  V30 1830 C 182.291 1.59159 0.229129 0
M  V30 1831 O 183.481 1.74199 0.00693237 0
M  V30 1832 C 180.613 3.40756 -0.0989168 0
M  V30 1833 H 181.806 2.49695 -1.66109 0
M  V30 1834 H 179.359 1.2802 -0.896699 0
M  V30 1835 H 180.094 3.13485 0.830514 0
M  V30 1836 H 179.879 3.83888 -0.798265 0
M  V30 1837 H 181.369 4.17386 0.133524 0
M  V30 1838 N 181.806 0.884767 1.30421 0
M  V30 1839 C 183.054 0.502112 1.95763 0
M  V30 1840 C 183.375 -0.951815 1.70192 0
M  V30 1841 O 182.645 -1.6692 1.0254 0
M  V30 1842 H 181.225 0.182694 0.724315 0
M  V30 1843 H 183.887 1.1278 1.58955 0
M  V30 1844 H 182.983 0.672188 3.04775 0
M  V30 1845 N 183.284 -1.43765 0.645699 0
M  V30 1846 C 184.247 -2.29163 -0.0409488 0
M  V30 1847 C 185.247 -1.41813 -0.757996 0
M  V30 1848 O 186.437 -1.63527 -0.600382 0
M  V30 1849 C 183.569 -3.23716 -1.06869 0
M  V30 1850 H 184.762 -2.91366 0.710345 0
M  V30 1851 H 182.315 -1.5092 0.406547 0
M  V30 1852 H 183.05 -2.66393 -1.84947 0
M  V30 1853 H 182.835 -3.88105 -0.558277 0
M  V30 1854 H 184.325 -3.87831 -1.54845 0
M  V30 1855 N 184.763 -0.387143 -1.52771 0
M  V30 1856 C 186.179 -0.037007 -1.59557 0
M  V30 1857 C 186.379 1.44801 -1.40124 0
M  V30 1858 O 185.435 2.21227 -1.21716 0
M  V30 1859 C 186.748 -0.512256 -2.96305 0
M  V30 1860 C 188.296 -0.468328 -3.09476 0
M  V30 1861 C 188.771 -0.919731 -4.4867 0
M  V30 1862 N 190.262 -0.875656 -4.54848 0
M  V30 1863 C 190.997 -1.19637 -5.6078 0
M  V30 1864 N 190.493 -1.58745 -6.74368 0
M  V30 1865 N 192.286 -1.11776 -5.50874 0
M  V30 1866 H 184.437 -1.35395 -1.63652 0
M  V30 1867 H 186.7 -0.554818 -0.768688 0
M  V30 1868 H 186.406 -1.54935 -3.15734 0
M  V30 1869 H 186.28 0.089805 -3.77093 0
M  V30 1870 H 188.667 0.559671 -2.89744 0
M  V30 1871 H 188.748 -1.10616 -2.30646 0
M  V30 1872 H 188.392 -1.94595 -4.69143 0
M  V30 1873 H 188.322 -0.258927 -5.25963 0
M  V30 1874 H 190.813 -0.587843 -3.733 0
M  V30 1875 H 191.126 -1.81586 -7.51163 0
M  V30 1876 H 189.471 -1.6263 -6.75705 0
M  V30 1877 H 192.662 -0.811264 -4.61016 0
M  V30 1878 H 192.835 -1.37103 -6.3333 0
M  V30 1879 N 186.241 1.57166 -0.116904 0
M  V30 1880 C 187.204 2.14039 0.819742 0
M  V30 1881 C 188.204 1.07477 1.19605 0
M  V30 1882 O 189.394 1.33263 1.1219 0
M  V30 1883 C 186.526 2.67891 2.10826 0
M  V30 1884 H 187.719 2.98128 0.325511 0
M  V30 1885 H 185.272 1.55739 0.132312 0
M  V30 1886 H 186.007 1.87384 2.64685 0
M  V30 1887 H 185.792 3.45823 1.84793 0
M  V30 1888 H 187.282 3.11809 2.77785 0
M  V30 1889 N 187.719 -0.156864 1.56817 0
M  V30 1890 C 188.968 -0.869504 1.81996 0
M  V30 1891 C 189.281 -1.82777 0.696545 0
M  V30 1892 O 190.487 -2.58384 0.833658 0
M  V30 1893 C 188.943 -1.59679 3.22538 0
M  V30 1894 C 188.551 -0.681431 4.42787 0
M  V30 1895 C 190.295 -2.2968 3.56997 0
M  V30 1896 C 188.202 -1.40978 5.74351 0
M  V30 1897 H 187.132 -0.328438 0.678708 0
M  V30 1898 H 189.783 -0.1223 1.83092 0
M  V30 1899 H 188.165 -2.38927 3.158 0
M  V30 1900 H 189.339 0.0751166 4.60739 0
M  V30 1901 H 187.654 -0.0903431 4.16302 0
M  V30 1902 H 190.251 -2.84794 4.52544 0
M  V30 1903 H 190.594 -3.05707 2.82576 0
M  V30 1904 H 191.127 -1.57361 3.65352 0
M  V30 1905 H 187.866 -0.691561 6.51842 0
M  V30 1906 H 187.386 -2.13929 5.60352 0
M  V30 1907 H 189.065 -1.95337 6.16808 0
M  V30 1908 N 189.197 -1.51736 -0.425897 0
M  V30 1909 C 190.144 -1.73875 -1.51776 0
M  V30 1910 C 191.114 -0.580702 -1.55618 0
M  V30 1911 O 192.299 -0.81641 -1.72451 0
M  V30 1912 C 189.439 -1.88012 -2.89388 0
M  V30 1913 C 188.552 -3.15606 -2.94986 0
M  V30 1914 C 187.687 -3.20271 -4.23793 0
M  V30 1915 C 186.726 -4.42134 -4.23302 0
M  V30 1916 N 185.863 -4.44284 -5.43651 0
M  V30 1917 H 190.703 -2.67071 -1.32201 0
M  V30 1918 H 188.24 -1.32351 -0.642008 0
M  V30 1919 H 190.198 -1.9419 -3.69251 0
M  V30 1920 H 188.828 -0.98213 -3.07496 0
M  V30 1921 H 187.88 -3.18681 -2.07717 0
M  V30 1922 H 189.192 -4.05486 -2.90486 0
M  V30 1923 H 188.346 -3.25428 -5.12036 0
M  V30 1924 H 187.085 -2.28299 -4.30965 0
M  V30 1925 H 186.09 -4.3714 -3.3345 0
M  V30 1926 H 187.315 -5.35382 -4.17783 0
M  V30 1927 H 185.261 -3.55188 -5.51523 0
M  V30 1928 H 185.178 -5.27988 -5.41078 0
M  V30 1929 H 186.446 -4.53649 -6.33895 0
M  V30 1930 N 190.675 0.682077 -1.42076 0
M  V30 1931 C 191.622 1.79578 -1.44984 0
M  V30 1932 C 192.592 1.6332 -0.302614 0
M  V30 1933 O 193.777 1.83978 -0.505633 0
M  V30 1934 C 190.917 3.1756 -1.35091 0
M  V30 1935 C 190.03 3.45156 -2.59791 0
M  V30 1936 C 189.165 4.72826 -2.42093 0
M  V30 1937 C 188.204 4.93433 -3.62202 0
M  V30 1938 N 187.341 6.12338 -3.43491 0
M  V30 1939 H 192.181 1.76427 -2.40161 0
M  V30 1940 H 189.718 0.861376 -1.19242 0
M  V30 1941 H 191.676 3.97287 -1.27354 0
M  V30 1942 H 190.306 3.19854 -0.435133 0
M  V30 1943 H 189.358 2.59736 -2.77923 0
M  V30 1944 H 190.67 3.5628 -3.49094 0
M  V30 1945 H 189.824 5.60631 -2.319 0
M  V30 1946 H 188.563 4.63973 -1.50268 0
M  V30 1947 H 187.568 4.04073 -3.72834 0
M  V30 1948 H 188.793 5.04136 -4.54998 0
M  V30 1949 H 186.739 6.04672 -2.54377 0
M  V30 1950 H 186.656 6.2429 -4.26377 0
M  V30 1951 H 187.924 7.02841 -3.37097 0
M  V30 1952 N 192.153 1.28127 0.917671 0
M  V30 1953 C 193.381 1.17892 1.70026 0
M  V30 1954 C 193.796 -0.262958 1.8696 0
M  V30 1955 O 193.153 -1.17811 1.3938 0
M  V30 1956 C 193.204 1.86872 3.09453 0
M  V30 1957 O 192.925 3.25428 2.93306 0
M  V30 1958 C 194.426 1.8289 4.03815 0
M  V30 1959 H 191.646 0.40942 0.531617 0
M  V30 1960 H 194.19 1.69181 1.14883 0
M  V30 1961 H 192.345 1.39464 3.61426 0
M  V30 1962 H 192.759 3.59918 3.81523 0
M  V30 1963 H 194.233 2.35751 4.99125 0
M  V30 1964 H 194.71 0.800412 4.31845 0
M  V30 1965 H 195.316 2.29959 3.57769 0
M  V30 1966 N 193.631 -1.12557 1.10312 0
M  V30 1967 C 194.564 -2.1737 0.694674 0
M  V30 1968 C 195.542 -1.59745 -0.303373 0
M  V30 1969 O 196.726 -1.87408 -0.202578 0
M  V30 1970 C 193.853 -3.38691 0.0248052 0
M  V30 1971 C 192.899 -4.14943 0.986121 0
M  V30 1972 S 193.732 -4.73413 2.50281 0
M  V30 1973 C 194.888 -5.9807 1.84562 0
M  V30 1974 H 195.121 -2.5168 1.58255 0
M  V30 1975 H 192.654 -1.23998 0.919992 0
M  V30 1976 H 194.612 -4.08959 -0.355361 0
M  V30 1977 H 193.273 -3.02664 -0.839851 0
M  V30 1978 H 192.466 -5.01854 0.464651 0
M  V30 1979 H 192.068 -3.50377 1.30813 0
M  V30 1980 H 194.36 -6.67232 1.17507 0
M  V30 1981 H 195.303 -6.54841 2.69423 0
M  V30 1982 H 195.711 -5.49073 1.31069 0
M  V30 1983 N 195.109 -0.891671 -1.2995 0
M  V30 1984 C 196.52 -0.563104 -1.78006 0
M  V30 1985 C 196.871 0.920978 -1.73241 0
M  V30 1986 O 195.996 1.71987 -1.31337 0
M  V30 1987 C 196.591 -1.01539 -3.23226 0
M  V30 1988 C 195.15 -0.738124 -3.69092 0
M  V30 1989 C 194.297 -1.19461 -2.50249 0
M  V30 1990 H 197.248 -1.07522 -1.16725 0
M  V30 1991 H 197.269 -0.347217 -3.78912 0
M  V30 1992 H 196.781 -2.09555 -3.26662 0
M  V30 1993 H 194.882 0.329766 -3.71138 0
M  V30 1994 H 194.995 -1.33037 -4.60259 0
M  V30 1995 H 193.359 -0.613787 -2.47194 0
M  V30 1996 H 194.142 -2.28265 -2.56417 0
M  V30 1997 N 196.587 1.43421 -0.653314 0
M  V30 1998 C 197.497 2.34568 0.0388565 0
M  V30 1999 C 198.513 1.53888 0.81207 0
M  V30 2000 O 199.689 1.86539 0.759294 0
M  V30 2001 C 196.754 3.32167 0.993269 0
M  V30 2002 C 195.815 4.28751 0.216977 0
M  V30 2003 C 195.048 5.21688 1.12593 0
M  V30 2004 O 195.271 5.19052 2.36519 0
M  V30 2005 O 194.205 5.98919 0.598284 0
M  V30 2006 H 198.031 2.95251 -0.711386 0
M  V30 2007 H 195.616 1.43564 -0.413502 0
M  V30 2008 H 197.498 3.92183 1.54176 0
M  V30 2009 H 196.173 2.73987 1.72374 0
M  V30 2010 H 195.08 3.72215 -0.375101 0
M  V30 2011 H 196.413 4.89913 -0.473924 0
M  V30 2012 N 198.065 0.39524 1.52563 0
M  V30 2013 C 199.028 -0.425001 2.25225 0
M  V30 2014 C 200.028 -0.985266 1.27079 0
M  V30 2015 O 201.218 -0.866332 1.5113 0
M  V30 2016 C 198.35 -1.59686 3.01186 0
M  V30 2017 H 199.543 0.211233 2.99155 0
M  V30 2018 H 197.096 0.147472 1.55603 0
M  V30 2019 H 197.831 -2.27035 2.31572 0
M  V30 2020 H 197.616 -1.20176 3.73229 0
M  V30 2021 H 199.106 -2.17743 3.5634 0
M  V30 2022 N 199.544 -1.57102 0.125237 0
M  V30 2023 C 200.79 -1.95697 -0.532035 0
M  V30 2024 C 201.123 -1.009 -1.6593 0
M  V30 2025 O 200.398 -0.047347 -1.94442 0
M  V30 2026 C 200.681 -3.44181 -1.05884 0
M  V30 2027 C 200.534 -4.49752 0.0654392 0
M  V30 2028 C 201.853 -3.94655 -1.9477 0
M  V30 2029 H 198.972 -0.711571 -0.191925 0
M  V30 2030 H 201.614 -1.88923 0.20206 0
M  V30 2031 H 199.764 -3.50085 -1.68442 0
M  V30 2032 H 201.436 -4.55943 0.700982 0
M  V30 2033 H 199.679 -4.27653 0.727709 0
M  V30 2034 H 200.35 -5.50924 -0.344505 0
M  V30 2035 H 202.826 -3.91094 -1.42074 0
M  V30 2036 H 201.702 -4.99057 -2.28546 0
M  V30 2037 H 201.963 -3.35718 -2.87656 0
M  V30 2038 N 201.022 0.148545 -1.56898 0
M  V30 2039 C 202.25 0.876389 -1.87422 0
M  V30 2040 C 202.665 1.74809 -0.713256 0
M  V30 2041 O 202.022 1.79725 0.317025 0
M  V30 2042 C 202.073 1.73438 -3.17178 0
M  V30 2043 O 201.794 0.897809 -4.28802 0
M  V30 2044 C 203.295 2.56993 -3.61205 0
M  V30 2045 H 200.515 0.253489 -0.621277 0
M  V30 2046 H 203.059 0.141798 -2.04008 0
M  V30 2047 H 201.214 2.42205 -3.0235 0
M  V30 2048 H 201.628 1.48672 -5.02988 0
M  V30 2049 H 203.102 3.12773 -4.54838 0
M  V30 2050 H 203.579 3.32958 -2.86419 0
M  V30 2051 H 204.185 1.9352 -3.78722 0
M  V30 2052 N 202.5 1.5196 0.417844 0
M  V30 2053 C 203.746 1.65836 1.16732 0
M  V30 2054 C 204.079 0.382881 1.90388 0
M  V30 2055 O 203.354 -0.618368 1.84408 0
M  V30 2056 C 203.637 2.87466 2.16876 0
M  V30 2057 C 203.49 4.25041 1.47174 0
M  V30 2058 C 204.809 3.04613 3.17646 0
M  V30 2059 H 201.928 0.603515 0.423011 0
M  V30 2060 H 204.57 1.84494 0.454105 0
M  V30 2061 H 202.72 2.71689 2.777 0
M  V30 2062 H 204.392 4.52527 0.895376 0
M  V30 2063 H 202.635 4.26843 0.773806 0
M  V30 2064 H 203.306 5.06176 2.20204 0
M  V30 2065 H 205.782 3.1923 2.66892 0
M  V30 2066 H 204.658 3.91247 3.8499 0
M  V30 2067 H 204.919 2.17541 3.84874 0
M  V30 2068 N 203.978 -0.674533 1.42435 0
M  V30 2069 C 205.225 -1.43459 1.42919 0
M  V30 2070 C 205.553 -1.94446 0.0457312 0
M  V30 2071 O 204.808 -1.7132 -0.94593 0
M  V30 2072 C 205.107 -2.64767 2.40069 0
M  V30 2073 C 204.773 -2.3232 3.86443 0
M  V30 2074 C 203.435 -2.23182 4.26314 0
M  V30 2075 C 205.787 -2.05977 4.78773 0
M  V30 2076 C 203.115 -1.85827 5.56494 0
M  V30 2077 C 205.467 -1.70125 6.09295 0
M  V30 2078 C 204.131 -1.59498 6.48164 0
M  V30 2079 H 203.401 -0.524952 0.522978 0
M  V30 2080 H 206.048 -0.769097 1.75377 0
M  V30 2081 H 204.353 -3.36349 2.00939 0
M  V30 2082 H 206.05 -3.22949 2.37707 0
M  V30 2083 H 202.64 -2.40334 3.54877 0
M  V30 2084 H 206.824 -2.11969 4.48757 0
M  V30 2085 H 202.08 -1.76168 5.8547 0
M  V30 2086 H 206.254 -1.48767 6.80324 0
M  V30 2087 H 203.881 -1.30322 7.48946 0
M  V30 2088 N 205.456 -1.28612 -0.910864 0
M  V30 2089 C 206.386 -1.15326 -2.03032 0
M  V30 2090 C 207.367 -0.0502924 -1.70026 0
M  V30 2091 O 208.552 -0.227797 -1.92859 0
M  V30 2092 C 205.682 -0.817343 -3.37545 0
M  V30 2093 C 204.636 -1.8754 -3.84724 0
M  V30 2094 C 203.962 -1.39305 -5.16235 0
M  V30 2095 C 205.262 -3.28244 -4.06267 0
M  V30 2096 H 206.956 -2.08975 -2.14406 0
M  V30 2097 H 204.502 -1.00612 -1.03021 0
M  V30 2098 H 206.455 -0.711151 -4.15356 0
M  V30 2099 H 205.179 0.154846 -3.26233 0
M  V30 2100 H 203.838 -1.97079 -3.09121 0
M  V30 2101 H 203.486 -0.409846 -5.01328 0
M  V30 2102 H 203.186 -2.10057 -5.48771 0
M  V30 2103 H 204.71 -1.30014 -5.96598 0
M  V30 2104 H 206.124 -3.21611 -4.74594 0
M  V30 2105 H 204.521 -3.96855 -4.5014 0
M  V30 2106 H 205.591 -3.72048 -3.10979 0
M  V30 2107 N 206.934 1.1197 -1.10907 0
M  V30 2108 C 207.897 2.16031 -0.765707 0
M  V30 2109 C 208.897 1.59393 0.212235 0
M  V30 2110 O 210.087 1.74196 -0.0115441 0
M  V30 2111 C 207.219 3.40632 -0.135053 0
M  V30 2112 H 208.412 2.47919 -1.68748 0
M  V30 2113 H 205.965 1.27061 -0.910226 0
M  V30 2114 H 206.7 3.14348 0.797218 0
M  V30 2115 H 206.485 3.8302 -0.838937 0
M  V30 2116 H 207.975 4.17505 0.0892469 0
M  V30 2117 N 208.412 0.89855 1.29475 0
M  V30 2118 C 209.823 0.572537 1.77705 0
M  V30 2119 C 210.174 -0.911778 1.73727 0
M  V30 2120 O 209.299 -1.71288 1.32247 0
M  V30 2121 C 209.894 1.03252 3.22683 0
M  V30 2122 C 208.453 0.757687 3.68695 0
M  V30 2123 C 207.6 1.20787 2.49612 0
M  V30 2124 H 210.551 1.08139 1.16153 0
M  V30 2125 H 210.572 0.367307 3.78723 0
M  V30 2126 H 210.084 2.11285 3.25546 0
M  V30 2127 H 208.185 -0.310079 3.71308 0
M  V30 2128 H 208.298 1.35476 4.59547 0
M  V30 2129 H 206.662 0.626888 2.46865 0
M  V30 2130 H 207.445 2.29622 2.55203 0
M  V30 2131 N 209.89 -1.43072 0.660911 0
M  V30 2132 C 211.301 -1.84932 0.256348 0
M  V30 2133 C 211.652 -1.55325 -1.19868 0
M  V30 2134 O 210.777 -1.00607 -1.91591 0
M  V30 2135 C 211.372 -3.35684 0.458475 0
M  V30 2136 C 209.931 -3.76245 0.108161 0
M  V30 2137 C 209.078 -2.66749 0.757641 0
M  V30 2138 H 212.029 -1.33116 0.864051 0
M  V30 2139 H 212.05 -3.79365 -0.293683 0
M  V30 2140 H 211.562 -3.572 1.51755 0
M  V30 2141 H 209.663 -3.60338 -0.948014 0
M  V30 2142 H 209.776 -4.76058 0.538992 0
M  V30 2143 H 208.14 -2.53989 0.190185 0
M  V30 2144 H 208.923 -2.91092 1.81989 0
M  V30 2145 N 211.368 -0.403325 -1.52352 0
M  V30 2146 C 212.593 0.176499 -2.06648 0
M  V30 2147 C 213.018 1.38577 -1.27193 0
M  V30 2148 O 212.376 1.7879 -0.300637 0
M  V30 2149 C 212.424 0.511061 -3.5696 0
M  V30 2150 O 211.528 1.60294 -3.79973 0
M  V30 2151 H 210.869 0.0167337 -0.663789 0
M  V30 2152 H 213.399 -0.574848 -1.96359 0
M  V30 2153 H 213.409 0.771362 -4.00642 0
M  V30 2154 H 212.084 -0.37296 -4.14224 0
M  V30 2155 H 210.661 1.33526 -3.48174 0
M  V30 2156 N 212.846 1.57033 -0.133567 0
M  V30 2157 C 214.092 1.96764 0.515326 0
M  V30 2158 C 214.447 1.01653 1.63353 0
M  V30 2159 O 213.74 0.0491374 1.91537 0
M  V30 2160 C 213.934 3.40674 1.08057 0
M  V30 2161 C 213.763 4.49696 0.0186522 0
M  V30 2162 C 212.533 5.03567 -0.418174 0
M  V30 2163 C 214.731 5.08536 -0.767809 0
M  V30 2164 N 212.713 5.9618 -1.46434 0
M  V30 2165 C 214.084 5.97231 -1.6648 0
M  V30 2166 C 216.139 4.9115 -0.817087 0
M  V30 2167 C 214.842 6.70401 -2.60681 0
M  V30 2168 C 216.868 5.65012 -1.74687 0
M  V30 2169 C 216.23 6.53403 -2.63141 0
M  V30 2170 H 212.329 0.765919 0.157771 0
M  V30 2171 H 214.913 1.93395 -0.22506 0
M  V30 2172 H 213.084 3.44662 1.79061 0
M  V30 2173 H 214.816 3.67495 1.69497 0
M  V30 2174 H 211.571 4.73594 -0.0229803 0
M  V30 2175 H 211.995 6.47191 -1.98678 0
M  V30 2176 H 216.637 4.22543 -0.147326 0
M  V30 2177 H 214.355 7.38245 -3.28664 0
M  V30 2178 H 217.941 5.53559 -1.79063 0
M  V30 2179 H 216.821 7.09556 -3.33917 0
M  V30 2180 N 214.325 -0.140222 1.56975 0
M  V30 2181 C 215.257 -1.19818 1.95388 0
M  V30 2182 C 216.27 -1.38816 0.850525 0
M  V30 2183 O 217.459 -1.38267 1.12891 0
M  V30 2184 C 214.559 -2.56189 2.21857 0
M  V30 2185 C 213.732 -2.58077 3.5315 0
M  V30 2186 C 212.791 -3.76037 3.6808 0
M  V30 2187 O 211.817 -3.60598 4.40406 0
M  V30 2188 N 213.019 -4.93763 3.05251 0
M  V30 2189 H 215.784 -0.871609 2.86746 0
M  V30 2190 H 213.345 -0.32972 1.58507 0
M  V30 2191 H 215.337 -3.33623 2.2908 0
M  V30 2192 H 213.907 -2.81111 1.36731 0
M  V30 2193 H 213.127 -1.6651 3.57307 0
M  V30 2194 H 214.415 -2.56377 4.39486 0
M  V30 2195 H 213.813 -5.09209 2.46419 0
M  V30 2196 H 212.37 -5.68949 3.18026 0
M  V30 2197 N 215.803 -1.52179 -0.40978 0
M  V30 2198 C 217.08 -1.56769 -1.16974 0
M  V30 2199 C 217.46 -0.348322 -2.08206 0
M  V30 2200 O 216.808 0.664862 -2.18613 0
M  V30 2201 C 217.018 -2.89603 -1.9476 0
M  V30 2202 C 218.366 -3.42579 -2.50849 0
M  V30 2203 O 219.39 -2.91338 -2.04941 0
M  V30 2204 O 218.249 -4.32054 -3.34652 0
M  V30 2205 H 215.343 -0.631439 -0.534054 0
M  V30 2206 H 217.889 -1.64507 -0.416613 0
M  V30 2207 H 216.661 -3.698 -1.27921 0
M  V30 2208 H 216.284 -2.85155 -2.77079 0
M  V30 2209 N 217.281 0.66697 -1.42791 0
M  V30 2210 C 218.211 1.79218 -1.49677 0
M  V30 2211 C 219.192 1.66405 -0.352623 0
M  V30 2212 O 220.377 1.85708 -0.567993 0
M  V30 2213 C 217.507 3.17565 -1.40605 0
M  V30 2214 C 216.461 3.45124 -2.53127 0
M  V30 2215 C 215.787 4.83127 -2.29112 0
M  V30 2216 C 217.087 3.41236 -3.95418 0
M  V30 2217 H 218.781 1.73713 -2.43853 0
M  V30 2218 H 216.327 0.83432 -1.17367 0
M  V30 2219 H 218.28 3.96022 -1.44029 0
M  V30 2220 H 217.004 3.23767 -0.429271 0
M  V30 2221 H 215.663 2.69031 -2.49034 0
M  V30 2222 H 215.311 4.85988 -1.29709 0
M  V30 2223 H 215.011 5.02528 -3.04531 0
M  V30 2224 H 216.535 5.63859 -2.34297 0
M  V30 2225 H 217.949 4.09651 -4.01073 0
M  V30 2226 H 216.346 3.72173 -4.70752 0
M  V30 2227 H 217.416 2.39665 -4.21532 0
M  V30 2228 N 218.759 1.29093 0.90403 0
M  V30 2229 C 219.691 1.09658 2.01266 0
M  V30 2230 C 220.704 0.0453729 1.62737 0
M  V30 2231 O 221.893 0.289446 1.76138 0
M  V30 2232 C 218.993 0.646278 3.32681 0
M  V30 2233 C 218.166 1.77505 3.99763 0
M  V30 2234 C 217.225 1.31649 5.09465 0
M  V30 2235 O 216.251 2.02045 5.32134 0
M  V30 2236 N 217.453 0.184997 5.80205 0
M  V30 2237 H 220.218 2.05135 2.18494 0
M  V30 2238 H 217.779 1.20975 1.07594 0
M  V30 2239 H 219.771 0.322906 4.0341 0
M  V30 2240 H 218.341 -0.215916 3.11853 0
M  V30 2241 H 217.561 2.26752 3.22455 0
M  V30 2242 H 218.849 2.53198 4.41325 0
M  V30 2243 H 218.247 -0.402021 5.6427 0
M  V30 2244 H 216.804 -0.0790358 6.51752 0
M  V30 2245 N 220.237 -1.11381 1.11499 0
M  V30 2246 C 221.2 -2.15622 0.777153 0
M  V30 2247 C 222.2 -1.59504 -0.203779 0
M  V30 2248 O 223.39 -1.74188 0.020782 0
M  V30 2249 C 220.522 -3.40556 0.153116 0
M  V30 2250 H 221.715 -2.47021 1.70061 0
M  V30 2251 H 219.268 -1.26577 0.916952 0
M  V30 2252 H 220.003 -3.14767 -0.780536 0
M  V30 2253 H 219.788 -3.8257 0.859238 0
M  V30 2254 H 221.278 -4.17546 -0.0671044 0
M  V30 2255 N 221.715 -0.905404 -1.28997 0
M  V30 2256 C 223.131 -0.60233 -1.47798 0
M  V30 2257 C 223.331 0.854645 -1.82478 0
M  V30 2258 O 222.387 1.63439 -1.92468 0
M  V30 2259 C 223.7 -1.53306 -2.58685 0
M  V30 2260 C 225.248 -1.53887 -2.72558 0
M  V30 2261 C 225.723 -2.45602 -3.86579 0
M  V30 2262 N 227.214 -2.43681 -3.93921 0
M  V30 2263 C 227.949 -3.11347 -4.81509 0
M  V30 2264 N 227.445 -3.88313 -5.73746 0
M  V30 2265 N 229.238 -3.00476 -4.75048 0
M  V30 2266 H 221.389 -1.84765 -1.04764 0
M  V30 2267 H 223.652 -0.792025 -0.520961 0
M  V30 2268 H 223.358 -2.57141 -2.39941 0
M  V30 2269 H 223.232 -1.25787 -3.55609 0
M  V30 2270 H 225.619 -0.507941 -2.90696 0
M  V30 2271 H 225.7 -1.85447 -1.76191 0
M  V30 2272 H 225.344 -3.48792 -3.69197 0
M  V30 2273 H 225.274 -2.11349 -4.82327 0
M  V30 2274 H 227.765 -1.87767 -3.27951 0
M  V30 2275 H 228.078 -4.36985 -6.37389 0
M  V30 2276 H 226.423 -3.92419 -5.73614 0
M  V30 2277 H 229.614 -2.39858 -4.01977 0
M  V30 2278 H 229.787 -3.53485 -5.43095 0
M  V30 2279 N 223.193 1.4272 -0.668489 0
M  V30 2280 C 224.123 2.335 -0.000100175 0
M  V30 2281 C 225.104 1.50328 0.795964 0
M  V30 2282 O 226.289 1.78949 0.754385 0
M  V30 2283 C 223.419 3.33874 0.956302 0
M  V30 2284 C 222.373 4.27152 0.269278 0
M  V30 2285 C 221.699 5.17684 1.33818 0
M  V30 2286 C 222.999 5.15373 -0.847805 0
M  V30 2287 H 224.693 2.89639 -0.758244 0
M  V30 2288 H 222.239 1.39269 -0.366079 0
M  V30 2289 H 224.192 3.9629 1.43292 0
M  V30 2290 H 222.916 2.76025 1.74579 0
M  V30 2291 H 221.575 3.66123 -0.187042 0
M  V30 2292 H 221.223 4.56165 2.1195 0
M  V30 2293 H 220.923 5.80918 0.883659 0
M  V30 2294 H 222.447 5.82974 1.81586 0
M  V30 2295 H 223.861 5.7151 -0.452681 0
M  V30 2296 H 222.258 5.87407 -1.22773 0
M  V30 2297 H 223.328 4.5415 -1.69929 0
M  V30 2298 N 224.671 0.411399 1.52136 0
M  V30 2299 C 225.92 -0.165009 2.01024 0
M  V30 2300 C 226.233 -1.4603 1.30133 0
M  V30 2301 O 227.439 -2.1181 1.69849 0
M  V30 2302 C 225.895 -0.344618 3.58246 0
M  V30 2303 C 225.503 0.938716 4.38055 0
M  V30 2304 C 227.247 -0.876195 4.15359 0
M  V30 2305 C 225.154 0.726172 5.86925 0
M  V30 2306 H 224.084 -0.0654407 0.751155 0
M  V30 2307 H 226.735 0.537192 1.75461 0
M  V30 2308 H 225.117 -1.10921 3.80148 0
M  V30 2309 H 226.291 1.70963 4.27912 0
M  V30 2310 H 224.606 1.39688 3.92271 0
M  V30 2311 H 227.203 -1.05128 5.24263 0
M  V30 2312 H 227.546 -1.85152 3.7286 0
M  V30 2313 H 228.079 -0.170607 3.97434 0
M  V30 2314 H 224.818 1.67312 6.33788 0
M  V30 2315 H 224.338 -0.00540283 5.998 0
M  V30 2316 H 226.017 0.369231 6.45946 0
M  V30 2317 N 226.149 -1.5696 0.141893 0
M  V30 2318 C 227.397 -1.95573 -0.509484 0
M  V30 2319 C 227.718 -1.02746 -1.65736 0
M  V30 2320 O 226.988 -0.0880311 -1.95702 0
M  V30 2321 H 225.568 -0.722115 -0.191205 0
M  V30 2322 H 228.23 -1.93697 0.216196 0
M  V30 2323 H 227.326 -2.99171 -0.889 0
M  V30 2324 N 227.627 0.131896 -1.57047 0
M  V30 2325 C 229.043 0.485031 -1.52051 0
M  V30 2326 C 229.243 1.82563 -0.85281 0
M  V30 2327 O 228.299 2.48817 -0.429694 0
M  V30 2328 C 229.612 0.481409 -2.96821 0
M  V30 2329 C 231.16 0.565868 -3.07842 0
M  V30 2330 C 231.635 0.592762 -4.54148 0
M  V30 2331 N 233.126 0.654564 -4.58552 0
M  V30 2332 C 233.861 0.696608 -5.69153 0
M  V30 2333 N 233.357 0.697078 -6.89284 0
M  V30 2334 N 235.15 0.738639 -5.57226 0
M  V30 2335 H 227.301 -0.746664 -1.98843 0
M  V30 2336 H 229.564 -0.273999 -0.90754 0
M  V30 2337 H 229.27 -0.435731 -3.4899 0
M  V30 2338 H 229.144 1.3139 -3.53577 0
M  V30 2339 H 231.531 1.47343 -2.55684 0
M  V30 2340 H 231.612 -0.29406 -2.54104 0
M  V30 2341 H 231.256 -0.310701 -5.06949 0
M  V30 2342 H 231.186 1.46939 -5.05684 0
M  V30 2343 H 233.677 0.660887 -3.72076 0
M  V30 2344 H 233.99 0.731426 -7.69331 0
M  V30 2345 H 232.335 0.66471 -6.91814 0
M  V30 2346 H 235.526 0.735545 -4.62285 0
M  V30 2347 H 235.699 0.767938 -6.43434 0
M  V30 2348 N 229.106 1.52395 0.401703 0
M  V30 2349 C 230.354 1.66488 1.14569 0
M  V30 2350 C 230.675 0.400897 1.90835 0
M  V30 2351 O 229.945 -0.584415 1.8698 0
M  V30 2352 H 228.525 0.613672 0.425929 0
M  V30 2353 H 231.187 1.89464 0.457093 0
M  V30 2354 H 230.283 2.50942 1.85566 0
M  V30 2355 N 230.584 -0.659388 1.43143 0
M  V30 2356 C 231.812 -1.44723 1.47861 0
M  V30 2357 C 232.227 -1.88563 0.0945886 0
M  V30 2358 O 231.584 -1.59108 -0.893915 0
M  V30 2359 C 231.635 -2.68627 2.41913 0
M  V30 2360 O 231.356 -2.26623 3.74932 0
M  V30 2361 C 232.857 -3.62045 2.55809 0
M  V30 2362 H 230.077 -0.444801 0.502387 0
M  V30 2363 H 232.621 -0.808916 1.87821 0
M  V30 2364 H 230.776 -3.28613 2.05164 0
M  V30 2365 H 231.19 -3.06745 4.2545 0
M  V30 2366 H 232.664 -4.45666 3.25708 0
M  V30 2367 H 233.141 -4.08981 1.60099 0
M  V30 2368 H 233.747 -3.07944 2.93344 0
M  V30 2369 N 232.062 -1.29571 -0.897171 0
M  V30 2370 C 232.972 -1.16808 -2.03453 0
M  V30 2371 C 233.988 -0.0907471 -1.73763 0
M  V30 2372 O 235.164 -0.303312 -1.99103 0
M  V30 2373 C 232.229 -0.848264 -3.36163 0
M  V30 2374 C 231.29 -2.0097 -3.79354 0
M  V30 2375 C 230.523 -1.70505 -5.05731 0
M  V30 2376 O 230.746 -0.62718 -5.66941 0
M  V30 2377 O 229.68 -2.5538 -5.45036 0
M  V30 2378 H 233.506 -2.12325 -2.17144 0
M  V30 2379 H 231.091 -1.09047 -1.02123 0
M  V30 2380 H 232.973 -0.684581 -4.15802 0
M  V30 2381 H 231.648 0.0771071 -3.23608 0
M  V30 2382 H 230.555 -2.22863 -3.00471 0
M  V30 2383 H 231.888 -2.91636 -3.96496 0
M  V30 2384 N 233.54 1.10788 -1.12088 0
M  V30 2385 C 234.768 1.86461 -0.896651 0
M  V30 2386 C 235.183 1.80492 0.553912 0
M  V30 2387 O 234.54 1.19102 1.38278 0
M  V30 2388 C 234.591 3.35006 -1.35843 0
M  V30 2389 O 234.312 3.40866 -2.75213 0
M  V30 2390 C 235.813 4.27565 -1.1706 0
M  V30 2391 H 233.033 0.589425 -0.320654 0
M  V30 2392 H 235.577 1.40076 -1.48993 0
M  V30 2393 H 233.732 3.7887 -0.808458 0
M  V30 2394 H 234.146 4.33411 -2.9539 0
M  V30 2395 H 235.62 5.30007 -1.54263 0
M  V30 2396 H 236.097 4.3906 -0.110814 0
M  V30 2397 H 236.703 3.89501 -1.70789 0
M  V30 2398 N 235.018 0.912232 1.28515 0
M  V30 2399 C 235.981 0.404223 2.25607 0
M  V30 2400 C 236.981 -0.468602 1.53821 0
M  V30 2401 O 238.171 -0.271873 1.72065 0
M  V30 2402 C 235.303 -0.420653 3.38295 0
M  V30 2403 H 236.496 1.26188 2.7206 0
M  V30 2404 H 234.049 0.691495 1.40171 0
M  V30 2405 H 234.784 -1.29777 2.97201 0
M  V30 2406 H 234.569 0.204935 3.91564 0
M  V30 2407 H 236.059 -0.766971 4.10496 0
M  V30 2408 N 236.496 -1.42363 0.676048 0
M  V30 2409 C 237.773 -1.95183 0.127726 0
M  V30 2410 C 238.153 -1.61641 -1.35777 0
M  V30 2411 O 237.501 -0.913216 -2.09458 0
M  V30 2412 C 237.711 -3.46721 0.398199 0
M  V30 2413 C 239.059 -4.23427 0.315383 0
M  V30 2414 O 240.083 -3.54649 0.332016 0
M  V30 2415 O 238.942 -5.45888 0.25865 0
M  V30 2416 H 236.036 -0.826992 0.00359427 0
M  V30 2417 H 238.582 -1.52184 0.750864 0
M  V30 2418 H 237.354 -3.64344 1.4272 0
M  V30 2419 H 236.977 -3.96769 -0.256885 0
M  V30 2420 N 237.974 -0.419461 -1.51915 0
M  V30 2421 C 239.22 0.153166 -2.02221 0
M  V30 2422 C 239.553 1.43907 -1.30401 0
M  V30 2423 O 238.828 1.90055 -0.413438 0
M  V30 2424 C 239.111 0.390291 -3.57979 0
M  V30 2425 C 238.964 -0.913014 -4.40436 0
M  V30 2426 C 240.283 1.16794 -4.2432 0
M  V30 2427 H 237.402 0.0541924 -0.735005 0
M  V30 2428 H 240.044 -0.554955 -1.81715 0
M  V30 2429 H 238.194 0.993491 -3.75582 0
M  V30 2430 H 239.866 -1.54882 -4.34522 0
M  V30 2431 H 238.109 -1.52168 -4.06236 0
M  V30 2432 H 238.78 -0.701361 -5.47526 0
M  V30 2433 H 241.256 0.657161 -4.10878 0
M  V30 2434 H 240.132 1.3026 -5.3322 0
M  V30 2435 H 240.393 2.19132 -3.83971 0
M  V30 2436 N 239.452 1.56882 -0.150215 0
M  V30 2437 C 240.701 1.95403 0.500071 0
M  V30 2438 C 241.014 1.03777 1.658 0
M  V30 2439 O 242.22 1.31889 2.37313 0
M  V30 2440 C 240.676 3.4738 0.941018 0
M  V30 2441 C 240.284 4.47596 -0.190158 0
M  V30 2442 C 242.028 3.9476 1.56091 0
M  V30 2443 C 239.935 5.90787 0.269237 0
M  V30 2444 H 238.865 0.729515 0.190588 0
M  V30 2445 H 241.516 1.81988 -0.235074 0
M  V30 2446 H 239.898 3.56138 1.73152 0
M  V30 2447 H 241.072 4.50536 -0.967157 0
M  V30 2448 H 239.387 4.10151 -0.718666 0
M  V30 2449 H 241.984 4.99181 1.9163 0
M  V30 2450 H 242.327 3.36494 2.45107 0
M  V30 2451 H 242.86 3.88932 0.835249 0
M  V30 2452 H 239.599 6.52879 -0.585621 0
M  V30 2453 H 239.119 5.912 1.01204 0
M  V30 2454 H 240.798 6.42979 0.720176 0
M  V30 2455 N 240.93 -0.123565 1.57115 0
M  V30 2456 C 241.862 -1.17739 1.96648 0
M  V30 2457 C 242.875 -1.37906 0.865201 0
M  V30 2458 O 244.064 -1.37062 1.14351 0
M  V30 2459 C 241.164 -2.53821 2.24562 0
M  V30 2460 C 240.337 -2.54317 3.55867 0
M  V30 2461 C 239.396 -3.72112 3.72047 0
M  V30 2462 O 238.422 -3.55907 4.44206 0
M  V30 2463 N 239.624 -4.90498 3.10471 0
M  V30 2464 H 242.389 -0.841147 2.87654 0
M  V30 2465 H 239.95 -0.31289 1.58848 0
M  V30 2466 H 241.942 -3.31175 2.32606 0
M  V30 2467 H 240.512 -2.79645 1.39705 0
M  V30 2468 H 239.732 -1.62711 3.59053 0
M  V30 2469 H 241.02 -2.51701 4.42181 0
M  V30 2470 H 240.418 -5.06567 2.51806 0
M  V30 2471 H 238.975 -5.65544 3.24043 0
M  V30 2472 N 242.408 -1.52605 -0.393616 0
M  V30 2473 C 243.824 -1.41753 -0.733357 0
M  V30 2474 C 244.024 -0.534293 -1.94287 0
M  V30 2475 O 243.08 -0.0059787 -2.52499 0
M  V30 2476 C 244.393 -2.84531 -0.972772 0
M  V30 2477 C 245.941 -2.93978 -1.07453 0
M  V30 2478 C 246.416 -4.37756 -1.3466 0
M  V30 2479 N 247.907 -4.4106 -1.41492 0
M  V30 2480 C 248.642 -5.49387 -1.642 0
M  V30 2481 N 248.138 -6.67806 -1.8441 0
M  V30 2482 N 249.931 -5.36923 -1.66342 0
M  V30 2483 H 242.082 -2.08555 0.402328 0
M  V30 2484 H 244.345 -0.940654 0.117789 0
M  V30 2485 H 244.051 -3.51353 -0.156204 0
M  V30 2486 H 243.925 -3.26508 -1.88871 0
M  V30 2487 H 246.312 -2.27326 -1.88167 0
M  V30 2488 H 246.393 -2.55435 -0.136605 0
M  V30 2489 H 246.037 -5.04972 -0.544581 0
M  V30 2490 H 245.967 -4.73848 -2.2973 0
M  V30 2491 H 248.458 -3.55705 -1.27601 0
M  V30 2492 H 248.771 -7.46141 -2.01231 0
M  V30 2493 H 247.116 -6.70843 -1.81644 0
M  V30 2494 H 250.307 -4.43381 -1.50102 0
M  V30 2495 H 250.48 -6.21416 -1.837 0
M  V30 2496 N 243.887 0.651787 -1.4349 0
M  V30 2497 C 245.303 0.96762 -1.26922 0
M  V30 2498 C 245.503 2.00602 -0.189982 0
M  V30 2499 O 244.559 2.48793 0.431107 0
M  V30 2500 C 245.872 1.45052 -2.63401 0
M  V30 2501 C 247.42 1.5671 -2.70945 0
M  V30 2502 C 247.895 2.0839 -4.07845 0
M  V30 2503 N 249.386 2.1569 -4.09917 0
M  V30 2504 C 250.121 2.56804 -5.12679 0
M  V30 2505 N 249.617 2.97203 -6.25813 0
M  V30 2506 N 251.41 2.56756 -5.00033 0
M  V30 2507 H 243.561 -0.0353158 -2.12371 0
M  V30 2508 H 245.824 0.0467858 -0.946845 0
M  V30 2509 H 245.53 0.761926 -3.43348 0
M  V30 2510 H 245.404 2.42529 -2.88894 0
M  V30 2511 H 247.791 2.2467 -1.9133 0
M  V30 2512 H 247.872 0.57662 -2.49216 0
M  V30 2513 H 247.516 1.41031 -4.87927 0
M  V30 2514 H 247.446 3.08271 -4.26938 0
M  V30 2515 H 249.937 1.87237 -3.28254 0
M  V30 2516 H 250.25 3.27328 -7.00055 0
M  V30 2517 H 248.595 2.95004 -6.29283 0
M  V30 2518 H 251.786 2.24572 -4.10713 0
M  V30 2519 H 251.959 2.88475 -5.80247 0
M  V30 2520 N 245.365 1.30045 0.890287 0
M  V30 2521 C 246.295 1.18541 2.01172 0
M  V30 2522 C 247.276 0.0773356 1.69924 0
M  V30 2523 O 248.461 0.25845 1.92473 0
M  V30 2524 C 245.591 0.870941 3.36202 0
M  V30 2525 C 244.545 1.93637 3.81692 0
M  V30 2526 C 243.871 1.475 5.13953 0
M  V30 2527 C 245.171 3.34666 4.00994 0
M  V30 2528 H 246.865 2.12359 2.11054 0
M  V30 2529 H 244.411 1.02238 1.01407 0
M  V30 2530 H 246.364 0.777141 4.14172 0
M  V30 2531 H 245.088 -0.102926 3.26438 0
M  V30 2532 H 243.747 2.01972 3.05946 0
M  V30 2533 H 243.395 0.489551 5.00612 0
M  V30 2534 H 243.095 2.1876 5.4536 0
M  V30 2535 H 244.619 1.39489 5.94454 0
M  V30 2536 H 246.033 3.2912 4.69417 0
M  V30 2537 H 244.43 4.03966 4.43769 0
M  V30 2538 H 245.5 3.76949 3.05021 0
M  V30 2539 N 246.843 -1.10192 1.12674 0
M  V30 2540 C 248.12 -1.78717 0.794965 0
M  V30 2541 C 248.5 -1.98628 -0.714853 0
M  V30 2542 O 247.848 -1.58135 -1.64941 0
M  V30 2543 C 248.058 -3.11546 1.5729 0
M  V30 2544 C 249.406 -3.86382 1.76052 0
M  V30 2545 O 250.43 -3.21274 1.53823 0
M  V30 2546 O 249.289 -5.03246 2.13087 0
M  V30 2547 H 246.383 -0.774702 0.289423 0
M  V30 2548 H 248.929 -1.16819 1.23091 0
M  V30 2549 H 247.701 -2.92489 2.59935 0
M  V30 2550 H 247.324 -3.81164 1.13137 0
M  V30 2551 N 248.321 -0.919034 -1.28029 0
M  V30 2552 C 249.549 -0.570971 -1.98866 0
M  V30 2553 C 249.964 0.848996 -1.68634 0
M  V30 2554 O 249.321 1.56307 -0.942036 0
M  V30 2555 C 249.372 -0.776876 -3.53054 0
M  V30 2556 O 249.093 -2.14097 -3.82222 0
M  V30 2557 C 250.594 -0.436356 -4.41147 0
M  V30 2558 H 247.814 -0.217175 -0.634883 0
M  V30 2559 H 250.358 -1.23368 -1.63097 0
M  V30 2560 H 248.513 -0.161085 -3.87065 0
M  V30 2561 H 248.927 -2.18455 -4.76841 0
M  V30 2562 H 250.401 -0.63117 -5.4838 0
M  V30 2563 H 250.878 0.627686 -4.34692 0
M  V30 2564 H 251.484 -1.02991 -4.12641 0
M  V30 2565 N 249.799 1.42003 -0.683588 0
M  V30 2566 C 250.762 2.29191 -0.0198243 0
M  V30 2567 C 251.762 1.43773 0.72013 0
M  V30 2568 O 252.952 1.65061 0.556815 0
M  V30 2569 C 250.084 3.26435 0.982487 0
M  V30 2570 H 251.277 2.8938 -0.787345 0
M  V30 2571 H 248.83 1.49789 -0.446418 0
M  V30 2572 H 249.565 2.71203 1.77819 0
M  V30 2573 H 249.35 3.89449 0.455182 0
M  V30 2574 H 250.84 3.918 1.44508 0
M  V30 2575 N 251.277 0.427512 1.51691 0
M  V30 2576 C 252.693 0.0792977 1.59403 0
M  V30 2577 C 252.893 -1.41035 1.43914 0
M  V30 2578 O 251.949 -2.17922 1.27539 0
M  V30 2579 C 253.262 0.590636 2.94842 0
M  V30 2580 C 254.81 0.550215 3.08126 0
M  V30 2581 C 255.285 1.03836 4.46074 0
M  V30 2582 N 256.776 0.995943 4.52366 0
M  V30 2583 C 257.511 1.34463 5.57411 0
M  V30 2584 N 257.007 1.76569 6.69922 0
M  V30 2585 N 258.8 1.26343 5.47717 0
M  V30 2586 H 250.951 1.39687 1.60004 0
M  V30 2587 H 253.214 0.575003 0.753708 0
M  V30 2588 H 252.92 1.63251 3.11516 0
M  V30 2589 H 252.794 0.0102061 3.77199 0
M  V30 2590 H 255.181 -0.482654 2.91126 0
M  V30 2591 H 255.262 1.16693 2.27632 0
M  V30 2592 H 254.906 2.06965 4.63819 0
M  V30 2593 H 254.836 0.398286 5.25092 0
M  V30 2594 H 257.327 0.68661 3.7161 0
M  V30 2595 H 257.64 2.01438 7.46085 0
M  V30 2596 H 255.985 1.80488 6.71155 0
M  V30 2597 H 259.176 0.933209 4.58703 0
M  V30 2598 H 259.349 1.53846 6.29472 0
M  V30 2599 N 252.755 -1.56801 0.158532 0
M  V30 2600 C 254.004 -1.95665 -0.489702 0
M  V30 2601 C 254.317 -1.04654 -1.65248 0
M  V30 2602 O 255.523 -1.33146 -2.3661 0
M  V30 2603 C 253.979 -3.47874 -0.922582 0
M  V30 2604 C 253.587 -4.47489 0.213893 0
M  V30 2605 C 255.331 -3.95583 -1.53996 0
M  V30 2606 C 253.238 -5.90921 -0.237903 0
M  V30 2607 H 252.168 -0.730516 -0.186716 0
M  V30 2608 H 254.819 -1.81861 0.244722 0
M  V30 2609 H 253.201 -3.57051 -1.71261 0
M  V30 2610 H 254.375 -4.50017 0.991036 0
M  V30 2611 H 252.69 -4.09764 0.740407 0
M  V30 2612 H 255.287 -5.0019 -1.8898 0
M  V30 2613 H 255.63 -3.37789 -2.43319 0
M  V30 2614 H 256.163 -3.8937 -0.814611 0
M  V30 2615 H 252.902 -6.52559 0.620236 0
M  V30 2616 H 252.422 -5.91729 -0.980676 0
M  V30 2617 H 254.101 -6.43352 -0.686067 0
M  V30 2618 N 254.233 0.115231 -1.57178 0
M  V30 2619 C 255.143 1.15994 -2.03918 0
M  V30 2620 C 256.159 1.45103 -0.960268 0
M  V30 2621 O 257.335 1.56144 -1.27204 0
M  V30 2622 C 254.4 2.46568 -2.43732 0
M  V30 2623 C 253.461 2.24822 -3.65723 0
M  V30 2624 C 252.694 3.4917 -4.03629 0
M  V30 2625 O 252.917 4.56623 -3.41835 0
M  V30 2626 O 251.851 3.39949 -4.96708 0
M  V30 2627 H 255.677 0.793019 -2.93164 0
M  V30 2628 H 253.262 0.3263 -1.45793 0
M  V30 2629 H 255.144 3.23492 -2.70057 0
M  V30 2630 H 253.819 2.82726 -1.57631 0
M  V30 2631 H 252.726 1.45744 -3.44542 0
M  V30 2632 H 254.059 1.93566 -4.52541 0
M  V30 2633 N 255.711 1.52812 0.385517 0
M  V30 2634 C 256.641 1.80808 1.47752 0
M  V30 2635 C 257.622 0.660318 1.5676 0
M  V30 2636 O 258.807 0.908246 1.71652 0
M  V30 2637 C 255.937 1.98008 2.85324 0
M  V30 2638 C 254.891 3.13709 2.91154 0
M  V30 2639 C 254.217 3.16169 4.31209 0
M  V30 2640 C 255.517 4.52709 2.60483 0
M  V30 2641 H 257.211 2.72253 1.24573 0
M  V30 2642 H 254.757 1.31003 0.597839 0
M  V30 2643 H 256.71 2.16176 3.61726 0
M  V30 2644 H 255.434 1.03255 3.09848 0
M  V30 2645 H 254.093 2.95329 2.17201 0
M  V30 2646 H 253.741 2.19092 4.52778 0
M  V30 2647 H 253.441 3.93894 4.36029 0
M  V30 2648 H 254.965 3.36496 5.09512 0
M  V30 2649 H 256.379 4.71173 3.26602 0
M  V30 2650 H 254.776 5.32528 2.76648 0
M  V30 2651 H 255.846 4.59186 1.55809 0
M  V30 2652 N 257.189 -0.644168 1.43834 0
M  V30 2653 C 258.152 -1.73857 1.49353 0
M  V30 2654 C 259.152 -1.56315 0.377112 0
M  V30 2655 O 260.342 -1.62048 0.639226 0
M  V30 2656 C 257.474 -3.12819 1.35488 0
M  V30 2657 H 258.667 -1.70342 2.46827 0
M  V30 2658 H 256.22 -0.856652 1.30733 0
M  V30 2659 H 256.955 -3.2194 0.390569 0
M  V30 2660 H 256.74 -3.26958 2.16428 0
M  V30 2661 H 258.23 -3.92606 1.42302 0
M  V30 2662 N 258.668 -1.30515 -0.883378 0
M  V30 2663 C 259.631 -1.1701 -1.97082 0
M  V30 2664 C 260.631 -0.10089 -1.60483 0
M  V30 2665 O 261.821 -0.349127 -1.70666 0
M  V30 2666 C 258.953 -0.793045 -3.31547 0
M  V30 2667 H 260.146 -2.13622 -2.10489 0
M  V30 2668 H 257.699 -1.13935 -1.06998 0
M  V30 2669 H 258.434 0.172499 -3.23841 0
M  V30 2670 H 258.219 -1.56576 -3.5948 0
M  V30 2671 H 259.709 -0.722073 -4.1131 0
M  V30 2672 N 260.146 1.09593 -1.13257 0
M  V30 2673 C 261.078 2.16015 -0.766167 0
M  V30 2674 C 262.091 1.61423 0.211303 0
M  V30 2675 O 263.28 1.78498 -0.00863946 0
M  V30 2676 C 260.38 3.38706 -0.114662 0
M  V30 2677 C 259.553 4.22717 -1.12379 0
M  V30 2678 C 258.612 5.23835 -0.498301 0
M  V30 2679 O 257.638 5.573 -1.15781 0
M  V30 2680 N 258.84 5.75886 0.730417 0
M  V30 2681 H 261.605 2.48055 -1.68193 0
M  V30 2682 H 259.166 1.25292 -1.02535 0
M  V30 2683 H 261.158 4.03464 0.315991 0
M  V30 2684 H 259.728 3.04569 0.704011 0
M  V30 2685 H 258.948 3.54122 -1.73179 0
M  V30 2686 H 260.236 4.75673 -1.80589 0
M  V30 2687 H 259.634 5.50911 1.28504 0
M  V30 2688 H 258.191 6.42387 1.10376 0
M  V30 2689 N 261.624 0.925811 1.2754 0
M  V30 2690 C 262.872 0.564138 1.94067 0
M  V30 2691 C 263.193 -0.897188 1.73134 0
M  V30 2692 O 262.463 -1.63573 1.07799 0
M  V30 2693 H 261.043 0.205645 0.718136 0
M  V30 2694 H 263.705 1.1778 1.55287 0
M  V30 2695 H 262.801 0.76881 3.02483 0
M  V30 2696 N 263.102 -1.41638 0.69111 0
M  V30 2697 C 264.379 -1.95036 0.148421 0
M  V30 2698 C 264.759 -1.63072 -1.34055 0
M  V30 2699 O 264.107 -0.93538 -2.08478 0
M  V30 2700 C 264.317 -3.46279 0.434951 0
M  V30 2701 C 265.665 -4.23069 0.360275 0
M  V30 2702 O 266.689 -3.54277 0.369613 0
M  V30 2703 O 265.548 -5.45583 0.316534 0
M  V30 2704 H 262.642 -0.826908 0.0123654 0
M  V30 2705 H 265.188 -1.5138 0.766963 0
M  V30 2706 H 263.96 -3.6281 1.46576 0
M  V30 2707 H 263.583 -3.97019 -0.214787 0
M  V30 2708 N 264.58 -0.43555 -1.51462 0
M  V30 2709 C 265.827 0.131514 -2.02072 0
M  V30 2710 C 266.155 1.42868 -1.31981 0
M  V30 2711 O 265.41 1.91076 -0.422883 0
M  V30 2712 C 265.709 0.39942 -3.55161 0
M  V30 2713 C 265.375 -0.81172 -4.43533 0
M  V30 2714 C 264.037 -1.14387 -4.67407 0
M  V30 2715 C 266.389 -1.61976 -4.95392 0
M  V30 2716 C 263.717 -2.28477 -5.40384 0
M  V30 2717 C 266.069 -2.75164 -5.6962 0
M  V30 2718 C 264.733 -3.08835 -5.91758 0
M  V30 2719 H 264.003 0.0481244 -0.739436 0
M  V30 2720 H 266.65 -0.58238 -1.8243 0
M  V30 2721 H 264.955 1.19519 -3.73125 0
M  V30 2722 H 266.652 0.85157 -3.91854 0
M  V30 2723 H 263.242 -0.542898 -4.25148 0
M  V30 2724 H 267.426 -1.37637 -4.76833 0
M  V30 2725 H 262.682 -2.5488 -5.55739 0
M  V30 2726 H 266.856 -3.38147 -6.08793 0
M  V30 2727 H 264.483 -3.97353 -6.48086 0
M  V30 2728 N 266.058 1.56714 -0.166846 0
M  V30 2729 C 267.335 1.88412 0.525373 0
M  V30 2730 C 267.715 1.07602 1.81618 0
M  V30 2731 O 267.063 0.168621 2.27877 0
M  V30 2732 C 267.273 3.40363 0.771613 0
M  V30 2733 C 268.621 4.10007 1.1036 0
M  V30 2734 O 269.645 3.45655 0.860304 0
M  V30 2735 O 268.504 5.2369 1.56239 0
M  V30 2736 H 265.598 0.781587 0.270278 0
M  V30 2737 H 268.144 1.68458 -0.204946 0
M  V30 2738 H 266.916 3.91046 -0.141093 0
M  V30 2739 H 266.539 3.65914 1.55541 0
M  V30 2740 N 267.536 -0.106894 1.57237 0
M  V30 2741 C 268.483 -1.13049 2.01217 0
M  V30 2742 C 269.453 -1.40471 0.886403 0
M  V30 2743 O 270.638 -1.52133 1.15153 0
M  V30 2744 C 267.778 -2.4487 2.43172 0
M  V30 2745 C 266.891 -2.24281 3.69218 0
M  V30 2746 C 266.026 -3.49417 4.00101 0
M  V30 2747 C 265.065 -3.24038 5.19294 0
M  V30 2748 N 264.202 -4.41409 5.45988 0
M  V30 2749 H 269.042 -0.748456 2.88448 0
M  V30 2750 H 266.579 -0.358054 1.42676 0
M  V30 2751 H 268.537 -3.21786 2.65537 0
M  V30 2752 H 267.167 -2.80944 1.58967 0
M  V30 2753 H 266.219 -1.38224 3.54398 0
M  V30 2754 H 267.531 -2.01512 4.56283 0
M  V30 2755 H 266.685 -4.34746 4.2318 0
M  V30 2756 H 265.424 -3.75229 3.11535 0
M  V30 2757 H 264.429 -2.37102 4.96047 0
M  V30 2758 H 265.654 -2.99584 6.09447 0
M  V30 2759 H 263.6 -4.67319 4.60379 0
M  V30 2760 H 263.517 -4.21788 6.274 0
M  V30 2761 H 264.785 -5.27836 5.73593 0
M  V30 2762 N 269.014 -1.53014 -0.377408 0
M  V30 2763 C 270.26 -1.68872 -1.12294 0
M  V30 2764 C 270.593 -0.433224 -1.89306 0
M  V30 2765 O 269.868 0.569258 -1.85983 0
M  V30 2766 C 270.151 -2.93115 -2.09179 0
M  V30 2767 C 270.004 -4.28794 -1.35853 0
M  V30 2768 C 271.323 -3.12928 -3.09458 0
M  V30 2769 H 268.442 -0.614518 -0.406862 0
M  V30 2770 H 271.084 -1.85633 -0.40503 0
M  V30 2771 H 269.234 -2.78956 -2.70399 0
M  V30 2772 H 270.906 -4.54742 -0.775082 0
M  V30 2773 H 269.149 -4.28744 -0.660364 0
M  V30 2774 H 269.82 -5.11837 -2.06706 0
M  V30 2775 H 272.296 -3.26194 -2.58334 0
M  V30 2776 H 271.172 -4.01316 -3.74482 0
M  V30 2777 H 271.433 -2.27669 -3.78971 0
M  V30 2778 N 270.492 0.636531 -1.44174 0
M  V30 2779 C 271.738 1.39826 -1.4689 0
M  V30 2780 C 272.071 1.93947 -0.0990585 0
M  V30 2781 O 271.346 1.73325 0.882544 0
M  V30 2782 C 271.629 2.56751 -2.5249 0
M  V30 2783 C 271.482 2.08014 -3.98811 0
M  V30 2784 C 272.801 3.58946 -2.54649 0
M  V30 2785 H 269.92 0.507075 -0.53483 0
M  V30 2786 H 272.562 0.720188 -1.75822 0
M  V30 2787 H 270.712 3.14597 -2.2795 0
M  V30 2788 H 272.384 1.5504 -4.34466 0
M  V30 2789 H 270.627 1.39242 -4.10846 0
M  V30 2790 H 271.298 2.92169 -4.68339 0
M  V30 2791 H 273.774 3.1089 -2.76563 0
M  V30 2792 H 272.65 4.38286 -3.3045 0
M  V30 2793 H 272.911 4.12655 -1.58646 0
M  V30 2794 N 271.97 1.30982 0.876444 0
M  V30 2795 C 273.216 1.20474 1.63138 0
M  V30 2796 C 273.549 -0.238096 1.92735 0
M  V30 2797 O 272.824 -1.1692 1.55435 0
M  V30 2798 C 273.107 2.04244 2.96574 0
M  V30 2799 C 272.96 3.56793 2.73896 0
M  V30 2800 C 274.279 1.88684 3.97601 0
M  V30 2801 H 271.398 0.439001 0.591985 0
M  V30 2802 H 274.04 1.60704 1.01361 0
M  V30 2803 H 272.19 1.70063 3.493 0
M  V30 2804 H 273.862 4.01077 2.27892 0
M  V30 2805 H 272.105 3.80548 2.08245 0
M  V30 2806 H 272.776 4.10706 3.68815 0
M  V30 2807 H 275.252 2.18584 3.54062 0
M  V30 2808 H 274.128 2.4961 4.88862 0
M  V30 2809 H 274.389 0.848343 4.33884 0
M  V30 2810 N 273.449 -1.08991 1.13837 0
M  V30 2811 C 274.397 -2.17841 0.815347 0
M  V30 2812 C 275.391 -1.68164 -0.204233 0
M  V30 2813 O 276.597 -1.79897 -0.0609304 0
M  V30 2814 H 272.972 -0.710654 0.245915 0
M  V30 2815 H 274.943 -2.42315 1.74143 0
M  V30 2816 C 273.692 -3.46381 0.302614 0
M  V30 2817 H 273.015 -3.84979 1.0785 0
M  V30 2818 H 274.455 -4.23844 0.115074 0
M  V30 2819 C 272.914 -3.22556 -0.972591 0
M  V30 2820 O 273.444 -3.45599 -2.04754 0
M  V30 2821 N 271.65 -2.76134 -0.905455 0
M  V30 2822 H 271.197 -2.57582 -0.0305421 0
M  V30 2823 H 271.155 -2.60571 -1.75926 0
M  V30 2824 N 274.927 -0.932562 -1.27047 0
M  V30 2825 C 276.343 -0.633544 -1.46487 0
M  V30 2826 C 276.543 0.815746 -1.84249 0
M  V30 2827 O 275.599 1.59319 -1.95892 0
M  V30 2828 C 276.912 -1.58758 -2.55375 0
M  V30 2829 C 278.46 -1.59634 -2.69232 0
M  V30 2830 C 278.935 -2.53747 -3.81283 0
M  V30 2831 N 280.426 -2.51982 -3.88664 0
M  V30 2832 C 281.161 -3.21491 -4.74796 0
M  V30 2833 N 280.657 -4.00395 -5.65381 0
M  V30 2834 N 282.45 -3.10485 -4.68568 0
M  V30 2835 H 274.601 -1.86946 -1.00821 0
M  V30 2836 H 276.864 -0.802897 -0.504044 0
M  V30 2837 H 276.57 -2.62172 -2.34432 0
M  V30 2838 H 276.444 -1.33301 -3.52861 0
M  V30 2839 H 278.831 -0.569488 -2.89553 0
M  V30 2840 H 278.912 -1.89142 -1.72218 0
M  V30 2841 H 278.556 -3.56545 -3.61715 0
M  V30 2842 H 278.486 -2.21532 -4.77735 0
M  V30 2843 H 280.977 -1.94681 -3.23895 0
M  V30 2844 H 281.29 -4.50406 -6.27976 0
M  V30 2845 H 279.635 -4.04498 -5.65161 0
M  V30 2846 H 282.826 -2.48331 -3.96799 0
M  V30 2847 H 282.999 -3.64925 -5.35475 0
M  V30 2848 N 276.405 1.4127 -0.698611 0
M  V30 2849 C 277.821 1.55241 -0.370462 0
M  V30 2850 C 278.021 1.67351 1.12231 0
M  V30 2851 O 277.077 1.65363 1.90818 0
M  V30 2852 C 278.39 2.78997 -1.12165 0
M  V30 2853 C 279.938 2.92797 -1.1063 0
M  V30 2854 C 280.413 4.19445 -1.8393 0
M  V30 2855 N 281.904 4.26409 -1.80914 0
M  V30 2856 C 282.639 5.23271 -2.34467 0
M  V30 2857 N 282.135 6.26145 -2.96504 0
M  V30 2858 N 283.928 5.15232 -2.24706 0
M  V30 2859 H 276.079 1.31654 -1.66676 0
M  V30 2860 H 278.342 0.635393 -0.703548 0
M  V30 2861 H 278.048 2.76268 -2.17644 0
M  V30 2862 H 277.922 3.70606 -0.702209 0
M  V30 2863 H 280.309 2.95039 -0.0597713 0
M  V30 2864 H 280.39 2.02353 -1.56483 0
M  V30 2865 H 280.034 4.17964 -2.88563 0
M  V30 2866 H 279.964 5.08866 -1.35509 0
M  V30 2867 H 282.455 3.527 -1.35687 0
M  V30 2868 H 282.768 6.96451 -3.34927 0
M  V30 2869 H 281.113 6.26638 -3.00583 0
M  V30 2870 H 284.304 4.33789 -1.7591 0
M  V30 2871 H 284.477 5.90552 -2.66745 0
M  V30 2872 N 277.883 0.443576 1.51229 0
M  V30 2873 C 278.813 -0.355142 2.30783 0
M  V30 2874 C 279.794 -1.0154 1.36468 0
M  V30 2875 O 280.979 -1.01785 1.65389 0
M  V30 2876 C 278.109 -1.45312 3.15439 0
M  V30 2877 C 277.063 -0.916002 4.18083 0
M  V30 2878 C 276.389 -2.1102 4.91299 0
M  V30 2879 C 277.689 0.0538602 5.22272 0
M  V30 2880 H 279.383 0.308767 2.97804 0
M  V30 2881 H 276.929 0.149937 1.43217 0
M  V30 2882 H 278.882 -2.01914 3.69876 0
M  V30 2883 H 277.606 -2.14541 2.46252 0
M  V30 2884 H 276.265 -0.372145 3.64706 0
M  V30 2885 H 275.913 -2.78882 4.18609 0
M  V30 2886 H 275.613 -1.75717 5.60712 0
M  V30 2887 H 277.137 -2.68164 5.48562 0
M  V30 2888 H 278.551 -0.422069 5.71744 0
M  V30 2889 H 276.948 0.319776 5.99247 0
M  V30 2890 H 278.018 0.98858 4.74716 0
M  V30 2891 N 279.361 -1.56624 0.175154 0
M  V30 2892 C 280.271 -2.21741 -0.766042 0
M  V30 2893 C 281.287 -1.21023 -1.25018 0
M  V30 2894 O 282.463 -1.53697 -1.3015 0
M  V30 2895 C 279.528 -2.84839 -1.97655 0
M  V30 2896 C 278.589 -4.00769 -1.53892 0
M  V30 2897 C 277.822 -4.60849 -2.69173 0
M  V30 2898 O 278.045 -4.19823 -3.86141 0
M  V30 2899 O 276.979 -5.50655 -2.43028 0
M  V30 2900 H 280.805 -3.02738 -0.241585 0
M  V30 2901 H 278.39 -1.49305 -0.053222 0
M  V30 2902 H 280.272 -3.24834 -2.68442 0
M  V30 2903 H 278.947 -2.06836 -2.48999 0
M  V30 2904 H 277.854 -3.65436 -0.80044 0
M  V30 2905 H 279.187 -4.80376 -1.07236 0
M  V30 2906 N 280.839 0.0985539 -1.57292 0
M  V30 2907 C 282.064 0.820196 -1.90493 0
M  V30 2908 C 282.489 1.71658 -0.769094 0
M  V30 2909 O 281.847 1.79133 0.279495 0
M  V30 2910 C 281.895 1.61242 -3.22542 0
M  V30 2911 O 280.999 2.72108 -3.09888 0
M  V30 2912 H 280.34 0.225547 -0.62452 0
M  V30 2913 H 282.87 0.0748159 -2.04463 0
M  V30 2914 H 282.88 1.99737 -3.55766 0
M  V30 2915 H 281.555 0.954535 -4.04798 0
M  V30 2916 H 280.132 2.36667 -2.88172 0
M  V30 2917 N 282.317 1.53212 0.369288 0
M  V30 2918 C 283.28 1.7872 1.43498 0
M  V30 2919 C 284.28 0.657554 1.46741 0
M  V30 2920 O 285.47 0.925736 1.47566 0
M  V30 2921 C 282.602 1.90591 2.82645 0
M  V30 2922 H 283.795 2.73894 1.22156 0
M  V30 2923 H 281.348 1.44233 0.602203 0
M  V30 2924 H 282.083 0.974709 3.09306 0
M  V30 2925 H 281.868 2.72751 2.8169 0
M  V30 2926 H 283.358 2.11931 3.59826 0
M  V30 2927 N 283.795 -0.628877 1.44509 0
M  V30 2928 C 285.035 -1.39993 1.48934 0
M  V30 2929 C 285.399 -1.91627 0.119604 0
M  V30 2930 O 286.6 -2.68772 0.0385283 0
M  V30 2931 C 284.871 -2.53241 2.52198 0
M  V30 2932 S 286.43 -3.41383 2.75687 0
M  V30 2933 H 283.248 -0.477558 0.526744 0
M  V30 2934 H 285.85 -0.727804 1.81448 0
M  V30 2935 H 284.554 -2.13622 3.50419 0
M  V30 2936 H 284.085 -3.25278 2.21264 0
M  V30 2937 H 286.1 -4.50752 2.07453 0
M  V30 2938 N 285.273 -1.31445 -0.869486 0
M  V30 2939 C 286.236 -1.19094 -1.9583 0
M  V30 2940 C 287.236 -0.117906 -1.60367 0
M  V30 2941 O 288.426 -0.367208 -1.70286 0
M  V30 2942 C 285.558 -0.828165 -3.30688 0
M  V30 2943 H 286.751 -2.15842 -2.08212 0
M  V30 2944 H 284.304 -1.15063 -1.05784 0
M  V30 2945 H 285.039 0.138142 -3.24006 0
M  V30 2946 H 284.824 -1.6038 -3.578 0
M  V30 2947 H 286.314 -0.765658 -4.10521 0
M  V30 2948 N 286.751 1.08385 -1.14413 0
M  V30 2949 C 287.661 2.18856 -0.844951 0
M  V30 2950 C 288.677 1.73121 0.174668 0
M  V30 2951 O 289.853 2.014 0.00312857 0
M  V30 2952 C 286.918 3.45155 -0.32696 0
M  V30 2953 C 285.979 4.05513 -1.40916 0
M  V30 2954 C 285.212 5.25784 -0.915793 0
M  V30 2955 O 285.435 5.69884 0.242651 0
M  V30 2956 O 284.369 5.77545 -1.69487 0
M  V30 2957 H 288.195 2.46919 -1.76818 0
M  V30 2958 H 285.78 1.17524 -0.922411 0
M  V30 2959 H 287.662 4.21377 -0.0440211 0
M  V30 2960 H 286.337 3.18668 0.568539 0
M  V30 2961 H 285.244 3.30879 -1.74556 0
M  V30 2962 H 286.577 4.3625 -2.27919 0
M  V30 2963 N 288.23 0.939286 1.26551 0
M  V30 2964 C 289.16 0.465044 2.28822 0
M  V30 2965 C 290.141 -0.480692 1.63167 0
M  V30 2966 O 291.326 -0.382955 1.90387 0
M  V30 2967 C 288.456 -0.27234 3.46231 0
M  V30 2968 C 287.41 0.58666 4.2396 0
M  V30 2969 C 286.736 -0.280573 5.33963 0
M  V30 2970 C 288.036 1.85704 4.88171 0
M  V30 2971 H 289.73 1.31979 2.68741 0
M  V30 2972 H 287.276 0.636061 1.29191 0
M  V30 2973 H 289.229 -0.615133 4.16886 0
M  V30 2974 H 287.953 -1.16121 3.0526 0
M  V30 2975 H 286.612 0.91232 3.55067 0
M  V30 2976 H 286.26 -1.16874 4.89234 0
M  V30 2977 H 285.96 0.29076 5.8688 0
M  V30 2978 H 287.484 -0.618678 6.07458 0
M  V30 2979 H 288.898 1.58161 5.51052 0
M  V30 2980 H 287.295 2.37279 5.51197 0
M  V30 2981 H 288.365 2.56957 4.11219 0
M  V30 2982 N 289.708 -1.40897 0.706093 0
M  V30 2983 C 290.954 -2.01352 0.241889 0
M  V30 2984 C 291.287 -1.55832 -1.15888 0
M  V30 2985 O 290.562 -0.774145 -1.7843 0
M  V30 2986 C 290.845 -3.58752 0.311311 0
M  V30 2987 C 290.698 -4.1437 1.74978 0
M  V30 2988 C 292.017 -4.38914 -0.322922 0
M  V30 2989 H 289.136 -0.731562 0.0893687 0
M  V30 2990 H 291.778 -1.67504 0.896802 0
M  V30 2991 H 289.928 -3.87718 -0.246302 0
M  V30 2992 H 291.6 -3.96239 2.36205 0
M  V30 2993 H 289.843 -3.69016 2.28057 0
M  V30 2994 H 290.514 -5.23532 1.74981 0
M  V30 2995 H 292.99 -4.15822 0.152089 0
M  V30 2996 H 291.866 -5.48358 -0.243855 0
M  V30 2997 H 292.127 -4.19176 -1.40513 0
M  V30 2998 N 291.186 -0.45159 -1.50991 0
M  V30 2999 C 292.411 0.110667 -2.07105 0
M  V30 3000 C 292.836 1.3446 -1.31538 0
M  V30 3001 O 292.194 1.77743 -0.357365 0
M  V30 3002 C 292.242 0.397238 -3.58405 0
M  V30 3003 O 291.346 1.48124 -3.84881 0
M  V30 3004 H 290.687 -0.00439271 -0.663985 0
M  V30 3005 H 293.217 -0.637026 -1.9443 0
M  V30 3006 H 293.227 0.64351 -4.02893 0
M  V30 3007 H 291.902 -0.504553 -4.12828 0
M  V30 3008 H 290.479 1.22381 -3.52246 0
M  V30 3009 N 292.664 1.56529 -0.183458 0
M  V30 3010 C 293.594 2.21549 0.737456 0
M  V30 3011 C 294.575 1.17489 1.23005 0
M  V30 3012 O 295.76 1.45959 1.281 0
M  V30 3013 C 292.89 2.86575 1.96194 0
M  V30 3014 C 291.844 3.96778 1.60473 0
M  V30 3015 C 291.17 4.48911 2.90487 0
M  V30 3016 C 292.47 5.15767 0.823497 0
M  V30 3017 H 294.164 2.98761 0.195453 0
M  V30 3018 H 291.71 1.43702 0.0925686 0
M  V30 3019 H 293.663 3.30739 2.61131 0
M  V30 3020 H 292.387 2.06749 2.52828 0
M  V30 3021 H 291.046 3.53286 0.978997 0
M  V30 3022 H 290.694 3.65862 3.45186 0
M  V30 3023 H 290.394 5.23265 2.67335 0
M  V30 3024 H 291.918 4.95771 3.56432 0
M  V30 3025 H 293.332 5.56549 1.37571 0
M  V30 3026 H 291.729 5.96114 0.690551 0
M  V30 3027 H 292.799 4.84574 -0.177782 0
M  V30 3028 N 294.142 -0.090211 1.57342 0
M  V30 3029 C 295.072 -1.10976 2.05443 0
M  V30 3030 C 296.053 -1.41482 0.944284 0
M  V30 3031 O 297.238 -1.51428 1.21586 0
M  V30 3032 C 294.368 -2.42831 2.48295 0
M  V30 3033 C 293.322 -2.26721 3.63018 0
M  V30 3034 C 292.648 -3.63796 3.91863 0
M  V30 3035 C 293.948 -1.7037 4.93732 0
M  V30 3036 H 295.642 -0.709564 2.9087 0
M  V30 3037 H 293.188 -0.339874 1.39932 0
M  V30 3038 H 295.141 -3.14431 2.80555 0
M  V30 3039 H 293.865 -2.84795 1.59873 0
M  V30 3040 H 292.524 -1.57565 3.31012 0
M  V30 3041 H 292.172 -4.03297 3.00601 0
M  V30 3042 H 291.872 -3.53861 4.69101 0
M  V30 3043 H 293.396 -4.36855 4.26603 0
M  V30 3044 H 294.81 -2.31816 5.24342 0
M  V30 3045 H 293.207 -1.71181 5.75167 0
M  V30 3046 H 294.277 -0.663542 4.80339 0
M  V30 3047 N 295.62 -1.53406 -0.361157 0
M  V30 3048 C 296.866 -1.70054 -1.10496 0
M  V30 3049 C 297.199 -0.453278 -1.88836 0
M  V30 3050 O 296.474 0.5495 -1.86576 0
M  V30 3051 C 296.757 -2.95317 -2.06058 0
M  V30 3052 C 296.61 -4.3021 -1.31298 0
M  V30 3053 C 297.929 -3.16193 -3.06121 0
M  V30 3054 H 295.048 -0.618799 -0.400321 0
M  V30 3055 H 297.69 -1.86052 -0.385318 0
M  V30 3056 H 295.84 -2.81809 -2.67425 0
M  V30 3057 H 297.512 -4.55538 -0.726807 0
M  V30 3058 H 295.755 -4.29421 -0.614853 0
M  V30 3059 H 296.426 -5.14 -2.01265 0
M  V30 3060 H 298.902 -3.28916 -2.5486 0
M  V30 3061 H 297.778 -4.05266 -3.70204 0
M  V30 3062 H 298.039 -2.31676 -3.76535 0
M  V30 3063 N 297.098 0.621204 -1.44841 0
M  V30 3064 C 298.346 1.37783 -1.47852 0
M  V30 3065 C 298.667 1.94653 -0.116224 0
M  V30 3066 O 297.937 1.76367 0.852737 0
M  V30 3067 H 296.517 0.511453 -0.544449 0
M  V30 3068 H 299.179 0.730446 -1.80694 0
M  V30 3069 H 298.275 2.20414 -2.20961 0
M  V30 3070 N 298.576 1.31904 0.862503 0
M  V30 3071 C 299.804 1.24998 1.64873 0
M  V30 3072 C 300.219 -0.183425 1.87907 0
M  V30 3073 O 299.576 -1.11794 1.44251 0
M  V30 3074 C 299.627 1.99829 3.01248 0
M  V30 3075 O 299.348 3.37575 2.79239 0
M  V30 3076 C 300.849 1.99852 3.95694 0
M  V30 3077 H 298.069 0.431599 0.513773 0
M  V30 3078 H 300.613 1.73901 1.07604 0
M  V30 3079 H 298.768 1.54668 3.55185 0
M  V30 3080 H 299.182 3.75776 3.65914 0
M  V30 3081 H 300.656 2.56709 4.88676 0
M  V30 3082 H 301.133 0.982852 4.28062 0
M  V30 3083 H 301.739 2.44926 3.47694 0
M  V30 3084 N 300.054 -1.07777 1.14986 0
M  V30 3085 C 301.017 -2.13041 0.845358 0
M  V30 3086 C 302.017 -1.60071 -0.152931 0
M  V30 3087 O 303.207 -1.74033 0.0761879 0
M  V30 3088 C 300.339 -3.39896 0.261383 0
M  V30 3089 H 301.532 -2.41485 1.77834 0
M  V30 3090 H 299.085 -1.23595 0.956757 0
M  V30 3091 H 299.82 -3.17091 -0.68 0
M  V30 3092 H 299.605 -3.79642 0.980514 0
M  V30 3093 H 301.095 -4.17548 0.0657687 0
M  V30 3094 N 301.532 -0.945985 -1.26051 0
M  V30 3095 C 302.943 -0.638096 -1.75457 0
M  V30 3096 C 303.294 0.846672 -1.76991 0
M  V30 3097 O 302.419 1.66262 -1.38513 0
M  V30 3098 C 303.014 -1.15157 -3.18629 0
M  V30 3099 C 301.573 -0.894004 -3.65629 0
M  V30 3100 C 300.72 -1.29967 -2.44957 0
M  V30 3101 H 303.671 -1.12376 -1.1206 0
M  V30 3102 H 303.692 -0.507615 -3.77099 0
M  V30 3103 H 303.204 -2.23222 -3.1748 0
M  V30 3104 H 301.305 0.172057 -3.72203 0
M  V30 3105 H 301.418 -1.52439 -4.54202 0
M  V30 3106 H 299.782 -0.718078 -2.44368 0
M  V30 3107 H 300.565 -2.38935 -2.46505 0
M  V30 3108 N 303.011 1.40521 -0.713556 0
M  V30 3109 C 304.259 2.00527 -0.251692 0
M  V30 3110 C 304.58 1.56857 1.15848 0
M  V30 3111 O 303.85 0.807127 1.785 0
M  V30 3112 H 302.43 0.741551 -0.0900646 0
M  V30 3113 H 305.092 1.71887 -0.918733 0
M  V30 3114 H 304.188 3.10813 -0.283192 0
M  V30 3115 N 304.489 0.459591 1.5075 0
M  V30 3116 C 305.714 -0.0996819 2.0716 0
M  V30 3117 C 306.139 -1.33761 1.32249 0
M  V30 3118 O 305.497 -1.77551 0.366786 0
M  V30 3119 C 305.545 -0.378226 3.58611 0
M  V30 3120 O 304.649 -1.46081 3.85661 0
M  V30 3121 H 303.99 0.00791392 0.663953 0
M  V30 3122 H 306.52 0.647329 1.9409 0
M  V30 3123 H 306.53 -0.622135 4.03229 0
M  V30 3124 H 305.205 0.526439 4.12555 0
M  V30 3125 H 303.782 -1.20511 3.5289 0
M  V30 3126 N 305.967 -1.56429 0.191757 0
M  V30 3127 C 307.378 -1.83912 -0.321428 0
M  V30 3128 C 307.729 -1.11231 -1.61623 0
M  V30 3129 O 306.854 -0.37202 -2.13178 0
M  V30 3130 C 307.449 -3.33624 -0.589961 0
M  V30 3131 C 306.008 -3.6153 -1.04753 0
M  V30 3132 C 305.155 -2.7714 -0.0943327 0
M  V30 3133 H 308.106 -1.53161 0.415612 0
M  V30 3134 H 308.127 -3.52213 -1.43966 0
M  V30 3135 H 307.639 -3.86495 0.352588 0
M  V30 3136 H 305.74 -3.14089 -2.00447 0
M  V30 3137 H 305.853 -4.69737 -0.942549 0
M  V30 3138 H 304.217 -2.47638 -0.595589 0
M  V30 3139 H 305 -3.32799 0.842601 0
M  V30 3140 O 307.484 -0.0545306 -1.61408 0
M  V30 3141 H 308.175 0.554314 -1.85599 0
M  V30 END ATOM
M  V30 BEGIN BOND
M  V30 END BOND
M  V30 END CTAB
M  END
$$$$
