drugbank_target|P47869 Gamma-aminobutyric acid receptor subunit alpha-2 (DB00186; DB00189; DB00228; DB00231; DB00237; DB00241; DB00252; DB00292; DB00306; DB00312; DB00349; DB00371; DB00402; DB00404; DB00463; DB00475; DB00543; DB00546; DB00555; DB00603; DB00628; DB00659; DB00683; DB00690; DB00753; DB00794; DB00801; DB00818; DB00829; DB00842; DB00897; DB01028; DB01043; DB01068; DB01107; DB01159; DB01189; DB01205; DB01215; DB01236; DB01437; DB01489; DB01511; DB01544; DB01545; DB01553; DB01558; DB01559; DB01587; DB01588; DB01589; DB01594; DB01595; DB01708; DB01956; DB09017; DB09118; DB09166; DB11582; DB11859; DB11901; DB12404; DB12537; DB13335; DB13437; DB13643; DB13837; DB13872; DB14028; DB14672; DB14715; DB14719; DB15489)
 OpenBabel12092119303D

  0  0  0     0  0            999 V3000
M  V30 BEGIN CTAB
M  V30 COUNTS 7248 7339 0 0 0
M  V30 BEGIN ATOM
M  V30 1 H -0.908 1.98254 -0.117106 0
M  V30 2 N 0 1.576 0 0
M  V30 3 C 0.933 2.03868 1.02534 0
M  V30 4 C 1.911 0.928543 1.3348 0
M  V30 5 O 3.095 1.19667 1.45644 0
M  V30 6 C 0.222 2.43627 2.35294 0
M  V30 7 C -0.732 3.65373 2.2001 0
M  V30 8 S 0.101 5.13292 1.52614 0
M  V30 9 C 1.257 5.56322 2.86805 0
M  V30 10 H 1.49 2.90518 0.631377 0
M  V30 11 H -0.977 1.52953 0.210867 0
M  V30 12 H 0.981 2.67203 3.11629 0
M  V30 13 H -0.358 1.57376 2.7183 0
M  V30 14 H -1.165 3.90944 3.18086 0
M  V30 15 H -1.563 3.418 1.51819 0
M  V30 16 H 0.729 5.58782 3.83104 0
M  V30 17 H 1.672 6.56266 2.65933 0
M  V30 18 H 2.08 4.83886 2.90714 0
M  V30 19 N 1.4781 -0.272755 1.55222 0
M  V30 20 C 2.4251 -1.33716 1.88119 0
M  V30 21 C 3.3951 -1.49066 0.73271 0
M  V30 22 O 4.5801 -1.63469 0.984002 0
M  V30 23 C 1.7201 -2.69238 2.15882 0
M  V30 24 C 0.8331 -2.62108 3.43399 0
M  V30 25 C -0.0319 -3.89811 3.60861 0
M  V30 26 C -0.9929 -3.77193 4.8207 0
M  V30 27 N -1.8559 -4.9673 4.96189 0
M  V30 28 H 2.9841 -1.04962 2.78903 0
M  V30 29 H 0.5211 -0.507088 1.38083 0
M  V30 30 H 2.4791 -3.48089 2.29978 0
M  V30 31 H 1.1091 -2.96194 1.28331 0
M  V30 32 H 0.1611 -1.74967 3.37773 0
M  V30 33 H 1.4731 -2.48685 4.32386 0
M  V30 34 H 0.6271 -4.77103 3.74777 0
M  V30 35 H -0.6339 -4.06102 2.7006 0
M  V30 36 H -1.6289 -2.88284 4.68159 0
M  V30 37 H -0.4039 -3.62421 5.74307 0
M  V30 38 H -2.4579 -5.13431 4.08319 0
M  V30 39 H -2.5409 -4.85839 5.79221 0
M  V30 40 H -1.2729 -5.85594 5.1449 0
M  V30 41 N 2.9562 -1.48159 -0.537278 0
M  V30 42 C 4.1842 -1.59454 -1.31841 0
M  V30 43 C 4.5992 -0.252065 -1.8711 0
M  V30 44 O 3.9562 0.757621 -1.66031 0
M  V30 45 C 4.0072 -2.63546 -2.47439 0
M  V30 46 O 3.7282 -3.92583 -1.94449 0
M  V30 47 C 5.2292 -2.85212 -3.39366 0
M  V30 48 H 2.4492 -0.53785 -0.401196 0
M  V30 49 H 4.9932 -1.93932 -0.648891 0
M  V30 50 H 3.1482 -2.31946 -3.1029 0
M  V30 51 H 3.5622 -4.49629 -2.70063 0
M  V30 52 H 5.0362 -3.61863 -4.16844 0
M  V30 53 H 5.5132 -1.93765 -3.94147 0
M  V30 54 H 6.1192 -3.18086 -2.82314 0
M  V30 55 N 4.4343 0.785586 -1.36625 0
M  V30 56 C 5.3813 1.89838 -1.31264 0
M  V30 57 C 6.3513 1.65115 -0.180633 0
M  V30 58 O 7.5363 1.87222 -0.36777 0
M  V30 59 C 4.6763 3.26706 -1.11163 0
M  V30 60 C 3.7893 3.63476 -2.33472 0
M  V30 61 C 2.9243 4.89481 -2.06353 0
M  V30 62 C 1.9633 5.18941 -3.24602 0
M  V30 63 N 1.1003 6.36131 -2.97123 0
M  V30 64 H 5.9403 1.93756 -2.26413 0
M  V30 65 H 3.4773 0.947454 -1.12524 0
M  V30 66 H 5.4353 4.05639 -0.975337 0
M  V30 67 H 4.0653 3.222 -0.196674 0
M  V30 68 H 3.1173 2.79636 -2.57891 0
M  V30 69 H 4.4293 3.81193 -3.21704 0
M  V30 70 H 3.5833 5.76288 -1.89675 0
M  V30 71 H 2.3223 4.73841 -1.15437 0
M  V30 72 H 1.3273 4.30615 -3.41834 0
M  V30 73 H 2.5523 5.36498 -4.16349 0
M  V30 74 H 0.4983 6.21875 -2.08823 0
M  V30 75 H 0.4153 6.54198 -3.78894 0
M  V30 76 H 1.6833 7.2591 -2.84033 0
M  V30 77 N 5.9124 1.20967 1.01018 0
M  V30 78 C 6.8424 0.988272 2.11555 0
M  V30 79 C 7.8234 -0.0849778 1.69888 0
M  V30 80 O 9.0084 0.0738202 1.9406 0
M  V30 81 C 6.1384 0.546528 3.42973 0
M  V30 82 C 5.0924 1.56375 3.9841 0
M  V30 83 C 4.4184 0.97842 5.25672 0
M  V30 84 C 5.7184 2.94922 4.31066 0
M  V30 85 H 7.4124 1.91276 2.30334 0
M  V30 86 H 4.9584 0.921073 1.1069 0
M  V30 87 H 6.9114 0.378839 4.19694 0
M  V30 88 H 5.6354 -0.413598 3.23971 0
M  V30 89 H 4.2944 1.71891 3.23804 0
M  V30 90 H 3.9424 0.0101688 5.02999 0
M  V30 91 H 3.6424 1.65784 5.63728 0
M  V30 92 H 5.1664 0.821939 6.05043 0
M  V30 93 H 6.5804 2.8288 4.9865 0
M  V30 94 H 4.9774 3.5983 4.80253 0
M  V30 95 H 6.0474 3.4616 3.39561 0
M  V30 96 N 7.3905 -1.2043 1.01659 0
M  V30 97 C 8.3385 -2.25249 0.580143 0
M  V30 98 C 9.3325 -1.65057 -0.381115 0
M  V30 99 O 10.5385 -1.78241 -0.251039 0
M  V30 100 H 6.9135 -0.732695 0.169299 0
M  V30 101 H 8.8845 -2.59389 1.47512 0
M  V30 102 C 7.6335 -3.47638 -0.065788 0
M  V30 103 H 6.9565 -3.94233 0.664874 0
M  V30 104 H 8.3965 -4.2268 -0.334282 0
M  V30 105 C 6.8555 -3.10447 -1.3086 0
M  V30 106 O 7.3855 -3.21981 -2.4019 0
M  V30 107 N 5.5915 -2.64996 -1.1927 0
M  V30 108 H 5.1385 -2.55811 -0.303064 0
M  V30 109 H 5.0965 -2.40482 -2.02523 0
M  V30 110 N 8.8686 -0.792821 -1.36206 0
M  V30 111 C 10.1176 -0.363353 -1.984 0
M  V30 112 C 10.4306 1.07172 -1.63626 0
M  V30 113 O 11.6366 1.60362 -2.19081 0
M  V30 114 C 10.0926 -0.59872 -3.54885 0
M  V30 115 C 9.7006 -2.04543 -3.9858 0
M  V30 116 C 11.4446 -0.233926 -4.23855 0
M  V30 117 C 9.3516 -2.22727 -5.47856 0
M  V30 118 H 8.2816 -0.13212 -0.742334 0
M  V30 119 H 10.9326 -0.974935 -1.55458 0
M  V30 120 H 9.3146 0.0826222 -3.95914 0
M  V30 121 H 10.4886 -2.76345 -3.68741 0
M  V30 122 H 8.8036 -2.36879 -3.42458 0
M  V30 123 H 11.4006 -0.348027 -5.33566 0
M  V30 124 H 11.7436 0.818351 -4.08177 0
M  V30 125 H 12.2766 -0.868639 -3.882 0
M  V30 126 H 9.0156 -3.2635 -5.68486 0
M  V30 127 H 8.5356 -1.55434 -5.7931 0
M  V30 128 H 10.2146 -2.03607 -6.14128 0
M  V30 129 N 10.3467 1.47872 -0.545128 0
M  V30 130 C 11.5767 2.06589 -0.0210534 0
M  V30 131 C 11.9847 1.39997 1.27269 0
M  V30 132 O 11.3277 0.486421 1.77143 0
M  V30 133 C 11.3897 3.58574 0.257933 0
M  V30 134 C 11.0537 4.47132 -0.944573 0
M  V30 135 C 12.0507 4.85986 -1.84699 0
M  V30 136 C 9.7357 4.88821 -1.15584 0
M  V30 137 C 11.7297 5.65314 -2.94446 0
M  V30 138 C 9.4167 5.67916 -2.25642 0
M  V30 139 C 10.4147 6.06073 -3.14905 0
M  V30 140 O 10.1027 6.83578 -4.23057 0
M  V30 141 H 9.8347 0.674971 -0.0372899 0
M  V30 142 H 12.3887 1.91037 -0.754599 0
M  V30 143 H 10.6187 3.72295 1.04564 0
M  V30 144 H 12.3077 3.99356 0.72592 0
M  V30 145 H 13.0737 4.54388 -1.69577 0
M  V30 146 H 8.9527 4.58595 -0.470279 0
M  V30 147 H 12.4967 5.95016 -3.64145 0
M  V30 148 H 8.3937 5.98927 -2.40742 0
M  V30 149 H 9.1617 7.01954 -4.20954 0
M  V30 150 N 11.8248 0.280983 1.55075 0
M  V30 151 C 12.7728 -0.619864 2.24188 0
M  V30 152 C 13.7668 -1.15315 1.24092 0
M  V30 153 O 14.9728 -1.1061 1.42005 0
M  V30 154 H 11.3478 -0.218459 0.719569 0
M  V30 155 H 13.3188 -0.0141831 2.98397 0
M  V30 156 C 12.0678 -1.7899 2.98091 0
M  V30 157 H 11.3908 -1.38874 3.74905 0
M  V30 158 H 12.8308 -2.39672 3.49762 0
M  V30 159 C 11.2898 -2.68192 2.03899 0
M  V30 160 O 11.8198 -3.6872 1.594 0
M  V30 161 N 10.0258 -2.35488 1.70275 0
M  V30 162 H 9.5728 -1.53787 2.06658 0
M  V30 163 H 9.5308 -2.95442 1.07524 0
M  V30 164 N 13.3029 -1.57598 0.00835791 0
M  V30 165 C 14.2359 -2.04409 -1.01451 0
M  V30 166 C 15.2139 -0.935609 -1.32985 0
M  V30 167 O 16.3979 -1.20437 -1.45007 0
M  V30 168 C 13.5249 -2.44872 -2.33999 0
M  V30 169 C 12.5709 -3.66535 -2.18069 0
M  V30 170 S 13.4039 -5.14095 -1.4989 0
M  V30 171 C 14.5599 -5.57835 -2.8385 0
M  V30 172 H 14.7929 -2.90849 -0.615961 0
M  V30 173 H 12.3259 -1.53063 -0.202752 0
M  V30 174 H 14.2839 -2.68852 -3.10208 0
M  V30 175 H 12.9449 -1.58815 -2.70992 0
M  V30 176 H 12.1379 -3.92626 -3.16008 0
M  V30 177 H 11.7399 -3.426 -1.50004 0
M  V30 178 H 14.0319 -5.60806 -3.80136 0
M  V30 179 H 14.9749 -6.57667 -2.62449 0
M  V30 180 H 15.3829 -4.85421 -2.88144 0
M  V30 181 N 14.781 0.264519 -1.55364 0
M  V30 182 C 15.713 1.34965 -1.85248 0
M  V30 183 C 16.726 1.45136 -0.737525 0
M  V30 184 O 17.915 1.46801 -1.01547 0
M  V30 185 C 15.015 2.73008 -2.00797 0
M  V30 186 C 14.188 2.85324 -3.31525 0
M  V30 187 C 13.247 4.04097 -3.37034 0
M  V30 188 O 12.273 3.94455 -4.10358 0
M  V30 189 N 13.475 5.16458 -2.65049 0
M  V30 190 H 16.24 1.09672 -2.78913 0
M  V30 191 H 13.801 0.454635 -1.55386 0
M  V30 192 H 15.793 3.50772 -2.01844 0
M  V30 193 H 14.363 2.91087 -1.1396 0
M  V30 194 H 13.583 1.94377 -3.42945 0
M  V30 195 H 14.871 2.9049 -4.17724 0
M  V30 196 H 14.269 5.27181 -2.05175 0
M  V30 197 H 12.826 5.92422 -2.71809 0
M  V30 198 N 16.2591 1.48442 0.529413 0
M  V30 199 C 17.5061 1.56488 1.28521 0
M  V30 200 C 17.8341 0.239042 1.93025 0
M  V30 201 O 17.0891 -0.770713 1.79885 0
M  V30 202 C 17.3881 2.6523 2.39558 0
M  V30 203 C 17.0541 4.07648 1.92702 0
M  V30 204 C 15.7161 4.46411 1.79641 0
M  V30 205 C 18.0681 4.96896 1.573 0
M  V30 206 C 15.3961 5.72226 1.29514 0
M  V30 207 C 17.7481 6.23202 1.08636 0
M  V30 208 C 16.4121 6.60821 0.941919 0
M  V30 209 H 15.6821 0.572631 0.470292 0
M  V30 210 H 18.3291 1.82161 0.59072 0
M  V30 211 H 16.6341 2.33419 3.14679 0
M  V30 212 H 18.3311 2.68671 2.97686 0
M  V30 213 H 14.9211 3.77036 2.03819 0
M  V30 214 H 19.1051 4.67626 1.66251 0
M  V30 215 H 14.3611 6.00097 1.17019 0
M  V30 216 H 18.5351 6.91753 0.803136 0
M  V30 217 H 16.1621 7.58198 0.5513 0
M  V30 218 N 17.7372 -0.778329 1.37039 0
M  V30 219 C 18.6672 -1.90546 1.34962 0
M  V30 220 C 19.6482 -1.68681 0.219274 0
M  V30 221 O 20.8332 -1.89634 0.418624 0
M  V30 222 C 17.9632 -3.27734 1.14925 0
M  V30 223 C 16.9172 -3.64147 2.24902 0
M  V30 224 C 16.2432 -4.99806 1.89996 0
M  V30 225 C 17.5432 -3.71579 3.67051 0
M  V30 226 H 19.2372 -1.92541 2.29277 0
M  V30 227 H 16.7832 -0.924948 1.10366 0
M  V30 228 H 18.7362 -4.06215 1.12104 0
M  V30 229 H 17.4602 -3.26154 0.170631 0
M  V30 230 H 16.1192 -2.8797 2.26868 0
M  V30 231 H 15.7672 -4.94759 0.906796 0
M  V30 232 H 15.4672 -5.25139 2.63634 0
M  V30 233 H 16.9912 -5.80694 1.88749 0
M  V30 234 H 18.4052 -4.40227 3.67251 0
M  V30 235 H 16.8022 -4.08405 4.39688 0
M  V30 236 H 17.8722 -2.72404 4.01154 0
M  V30 237 N 19.2153 -1.21501 -1.00376 0
M  V30 238 C 20.1453 -0.999478 -2.11028 0
M  V30 239 C 21.1263 0.0759671 -1.6993 0
M  V30 240 O 22.3113 -0.0841106 -1.94018 0
M  V30 241 C 19.4413 -0.564709 -3.42678 0
M  V30 242 C 18.3953 -1.58486 -3.97576 0
M  V30 243 C 17.7213 -1.00628 -5.25146 0
M  V30 244 C 19.0213 -2.97204 -4.29496 0
M  V30 245 H 20.7153 -1.92495 -2.29317 0
M  V30 246 H 18.2613 -0.92693 -1.102 0
M  V30 247 H 20.2143 -0.401091 -4.19487 0
M  V30 248 H 18.9383 0.396411 -3.24185 0
M  V30 249 H 17.5973 -1.73606 -3.22888 0
M  V30 250 H 17.2453 -0.0368439 -5.02987 0
M  V30 251 H 16.9453 -1.68771 -5.62841 0
M  V30 252 H 18.4693 -0.854015 -6.04598 0
M  V30 253 H 19.8833 -2.8552 -4.97143 0
M  V30 254 H 18.2803 -3.62372 -4.78338 0
M  V30 255 H 19.3503 -3.47956 -3.3772 0
M  V30 256 N 20.6934 1.19889 -1.02296 0
M  V30 257 C 21.9404 1.8942 -0.715972 0
M  V30 258 C 22.2684 1.79251 0.754944 0
M  V30 259 O 21.5234 1.17526 1.56481 0
M  V30 260 C 21.8224 3.39883 -1.10518 0
M  V30 261 C 21.4884 3.70254 -2.57337 0
M  V30 262 C 20.1504 3.78254 -2.97452 0
M  V30 263 C 22.5024 3.84052 -3.52354 0
M  V30 264 C 19.8304 3.97514 -4.31509 0
M  V30 265 C 22.1824 4.04824 -4.86108 0
M  V30 266 C 20.8464 4.11054 -5.25919 0
M  V30 267 H 20.1164 0.693138 -0.261993 0
M  V30 268 H 22.7634 1.42012 -1.28472 0
M  V30 269 H 21.0684 3.8915 -0.454953 0
M  V30 270 H 22.7654 3.9199 -0.845261 0
M  V30 271 H 19.3554 3.64632 -2.25258 0
M  V30 272 H 23.5394 3.77221 -3.22518 0
M  V30 273 H 18.7954 4.00574 -4.61898 0
M  V30 274 H 22.9694 4.14442 -5.59653 0
M  V30 275 H 20.5964 4.2573 -6.29808 0
M  V30 276 N 22.1715 0.800033 1.35784 0
M  V30 277 C 23.4175 0.377901 1.99248 0
M  V30 278 C 23.7505 -1.05052 1.63333 0
M  V30 279 O 23.0255 -1.72768 0.893385 0
M  V30 280 C 23.3085 0.553922 3.55814 0
M  V30 281 C 23.1615 2.0268 4.01548 0
M  V30 282 C 24.4805 -0.0244802 4.40093 0
M  V30 283 H 21.5995 0.138782 0.723815 0
M  V30 284 H 24.2415 1.00835 1.61035 0
M  V30 285 H 22.3915 0.0172398 3.88496 0
M  V30 286 H 24.0635 2.62536 3.79305 0
M  V30 287 H 22.3065 2.5256 3.52698 0
M  V30 288 H 22.9775 2.10087 5.10458 0
M  V30 289 H 25.4535 0.433775 4.13833 0
M  V30 290 H 24.3295 0.128637 5.48749 0
M  V30 291 H 24.5905 -1.11758 4.27741 0
M  V30 292 N 23.6496 -1.47581 0.552962 0
M  V30 293 C 24.8966 -2.02482 0.0273243 0
M  V30 294 C 25.2246 -1.42776 -1.32081 0
M  V30 295 O 24.4796 -0.571393 -1.87173 0
M  V30 296 C 24.7786 -3.57199 -0.119728 0
M  V30 297 C 24.4446 -4.35804 1.15697 0
M  V30 298 C 23.1066 -4.57 1.50681 0
M  V30 299 C 25.4586 -4.81167 2.00319 0
M  V30 300 C 22.7866 -5.20807 2.70142 0
M  V30 301 C 25.1386 -5.46293 3.18978 0
M  V30 302 C 23.8026 -5.65722 3.54281 0
M  V30 303 H 23.0726 -0.740933 0.00999866 0
M  V30 304 H 25.7196 -1.77302 0.72362 0
M  V30 305 H 24.0246 -3.81348 -0.89896 0
M  V30 306 H 25.7216 -3.97324 -0.541718 0
M  V30 307 H 22.3116 -4.19582 0.874561 0
M  V30 308 H 26.4956 -4.64574 1.74599 0
M  V30 309 H 21.7516 -5.34045 2.97668 0
M  V30 310 H 25.9256 -5.80407 3.84838 0
M  V30 311 H 23.5526 -6.14936 4.46942 0
M  V30 312 N 25.1277 -0.289203 -1.54924 0
M  V30 313 C 26.0577 0.58549 -2.2604 0
M  V30 314 C 27.0387 1.14753 -1.25562 0
M  V30 315 O 28.2237 1.17906 -1.54311 0
M  V30 316 C 25.3537 1.76305 -2.99222 0
M  V30 317 C 24.3077 1.33191 -4.06748 0
M  V30 318 C 23.6337 2.5937 -4.6758 0
M  V30 319 C 24.9337 0.471775 -5.20165 0
M  V30 320 H 26.6277 -0.00763532 -2.99399 0
M  V30 321 H 24.1737 -0.00511229 -1.43999 0
M  V30 322 H 26.1267 2.38097 -3.47689 0
M  V30 323 H 24.8507 2.38223 -2.23422 0
M  V30 324 H 23.5097 0.737121 -3.59113 0
M  V30 325 H 23.1577 3.19576 -3.88433 0
M  V30 326 H 22.8577 2.31228 -5.40192 0
M  V30 327 H 24.3817 3.21985 -5.18804 0
M  V30 328 H 25.7957 0.995056 -5.64599 0
M  V30 329 H 24.1927 0.284639 -5.99425 0
M  V30 330 H 25.2627 -0.506041 -4.82252 0
M  V30 331 N 26.6058 1.57591 -0.0167156 0
M  V30 332 C 27.8518 1.91567 0.665582 0
M  V30 333 C 28.1848 0.892298 1.72487 0
M  V30 334 O 27.4598 -0.0867127 1.94307 0
M  V30 335 C 27.7428 3.36069 1.29342 0
M  V30 336 C 27.5958 4.49135 0.244541 0
M  V30 337 C 28.9148 3.803 2.21495 0
M  V30 338 H 26.0338 0.69666 0.240488 0
M  V30 339 H 28.6758 1.89866 -0.0714356 0
M  V30 340 H 26.8258 3.3765 1.92158 0
M  V30 341 H 28.4978 4.59689 -0.385228 0
M  V30 342 H 26.7408 4.3165 -0.431379 0
M  V30 343 H 27.4118 5.47242 0.723207 0
M  V30 344 H 29.8878 3.80377 1.68678 0
M  V30 345 H 28.7638 4.82127 2.62382 0
M  V30 346 H 29.0248 3.15104 3.101 0
M  V30 347 N 28.0839 -0.256276 1.55502 0
M  V30 348 C 29.3299 -0.982884 1.78076 0
M  V30 349 C 29.6849 -1.83319 0.584109 0
M  V30 350 O 28.9779 -1.86875 -0.422877 0
M  V30 351 C 29.1719 -1.88432 3.03691 0
M  V30 352 C 29.0009 -1.12276 4.35459 0
M  V30 353 C 27.7709 -0.831647 4.98409 0
M  V30 354 C 29.9689 -0.504933 5.11815 0
M  V30 355 N 27.9509 -0.0450423 6.13883 0
M  V30 356 C 29.3219 0.146696 6.19826 0
M  V30 357 C 31.3769 -0.414455 4.96172 0
M  V30 358 C 30.0799 0.880103 7.13895 0
M  V30 359 C 32.1059 0.305398 5.90611 0
M  V30 360 C 31.4679 0.945701 6.98023 0
M  V30 361 H 27.5669 -0.341084 0.703694 0
M  V30 362 H 30.1509 -0.256909 1.92998 0
M  V30 363 H 28.3219 -2.58241 2.90114 0
M  V30 364 H 30.0539 -2.54579 3.14598 0
M  V30 365 H 26.8089 -1.14111 4.59647 0
M  V30 366 H 27.2329 0.336079 6.76165 0
M  V30 367 H 31.8749 -0.895163 4.13215 0
M  V30 368 H 29.5929 1.37244 7.9636 0
M  V30 369 H 33.1789 0.375946 5.80584 0
M  V30 370 H 32.0589 1.49383 7.6984 0
M  V30 371 N 29.562 -1.4872 -0.521534 0
M  V30 372 C 30.839 -1.4766 -1.2828 0
M  V30 373 C 31.219 -0.19292 -2.10217 0
M  V30 374 O 30.567 0.825193 -2.13079 0
M  V30 375 C 30.777 -2.74358 -2.15705 0
M  V30 376 C 32.125 -3.23028 -2.75569 0
M  V30 377 O 33.149 -2.75333 -2.25987 0
M  V30 378 O 32.008 -4.0604 -3.65778 0
M  V30 379 H 29.102 -0.590085 -0.579421 0
M  V30 380 H 31.648 -1.60963 -0.537492 0
M  V30 381 H 30.42 -3.59292 -1.54999 0
M  V30 382 H 30.043 -2.63816 -2.97467 0
M  V30 383 N 31.0401 0.771051 -1.3745 0
M  V30 384 C 32.4511 1.34737 -1.29239 0
M  V30 385 C 32.8021 1.96109 0.0596908 0
M  V30 386 O 31.9271 1.93865 0.961534 0
M  V30 387 C 32.5221 2.44973 -2.34037 0
M  V30 388 C 31.0811 2.98372 -2.29458 0
M  V30 389 C 30.2281 1.71595 -2.17831 0
M  V30 390 H 33.1791 0.571256 -1.48062 0
M  V30 391 H 33.2001 3.24471 -1.98744 0
M  V30 392 H 32.7121 2.00276 -3.32432 0
M  V30 393 H 30.8131 3.47443 -1.34589 0
M  V30 394 H 30.9261 3.53939 -3.229 0
M  V30 395 H 29.2901 1.94547 -1.64388 0
M  V30 396 H 30.0731 1.29001 -3.18141 0
M  V30 397 N 32.5182 1.22032 0.997298 0
M  V30 398 C 33.4812 0.987909 2.06816 0
M  V30 399 C 34.4812 -0.0440084 1.6074 0
M  V30 400 O 35.6712 0.194053 1.73116 0
M  V30 401 C 32.8032 0.49132 3.37341 0
M  V30 402 H 33.9962 1.93803 2.28868 0
M  V30 403 H 31.5492 1.03838 1.16822 0
M  V30 404 H 32.2842 -0.463364 3.20973 0
M  V30 405 H 32.0692 1.23575 3.72118 0
M  V30 406 H 33.5592 0.348824 4.16141 0
M  V30 407 N 33.9963 -1.19345 1.0293 0
M  V30 408 C 35.4123 -1.41069 0.746446 0
M  V30 409 C 35.6123 -1.90078 -0.668776 0
M  V30 410 O 34.6683 -2.0778 -1.4347 0
M  V30 411 C 35.9813 -2.42141 1.78292 0
M  V30 412 C 37.5293 -2.55887 1.80252 0
M  V30 413 C 38.0043 -3.60214 2.8286 0
M  V30 414 N 39.4953 -3.67711 2.81679 0
M  V30 415 C 40.2303 -4.48128 3.57727 0
M  V30 416 N 39.7263 -5.32248 4.43491 0
M  V30 417 N 41.5193 -4.42782 3.46267 0
M  V30 418 H 33.6703 -0.858536 1.94275 0
M  V30 419 H 35.9333 -0.439541 0.839945 0
M  V30 420 H 35.6393 -2.13155 2.79746 0
M  V30 421 H 35.5133 -3.41323 1.60557 0
M  V30 422 H 37.9003 -2.84196 0.794757 0
M  V30 423 H 37.9813 -1.56858 2.02062 0
M  V30 424 H 37.6253 -3.32647 3.83807 0
M  V30 425 H 37.5553 -4.58895 2.58307 0
M  V30 426 H 40.0463 -3.07634 2.19476 0
M  V30 427 H 40.3593 -5.90729 4.98256 0
M  V30 428 H 38.7043 -5.31707 4.47564 0
M  V30 429 H 41.8953 -3.76107 2.78677 0
M  V30 430 H 42.0683 -5.05215 4.05785 0
M  V30 431 N 35.4744 -0.807222 -1.35358 0
M  V30 432 C 36.4044 -0.232509 -2.3234 0
M  V30 433 C 37.3854 0.642386 -1.57504 0
M  V30 434 O 38.5704 0.572526 -1.85569 0
M  V30 435 C 35.7004 0.619238 -3.41735 0
M  V30 436 C 34.6544 -0.157215 -4.27711 0
M  V30 437 C 33.9804 0.816273 -5.28433 0
M  V30 438 C 35.2804 -1.35656 -5.04376 0
M  V30 439 H 36.9744 -1.04276 -2.80654 0
M  V30 440 H 34.5204 -0.50288 -1.34934 0
M  V30 441 H 36.4734 1.03137 -4.08584 0
M  V30 442 H 35.1974 1.46239 -2.92031 0
M  V30 443 H 33.8564 -0.550525 -3.62443 0
M  V30 444 H 33.5044 1.65494 -4.74996 0
M  V30 445 H 33.2044 0.301067 -5.86828 0
M  V30 446 H 34.7284 1.22659 -5.98153 0
M  V30 447 H 36.1424 -1.01927 -5.64166 0
M  V30 448 H 34.5394 -1.8063 -5.7227 0
M  V30 449 H 35.6094 -2.14288 -4.34981 0
M  V30 450 N 36.9525 1.47285 -0.560781 0
M  V30 451 C 38.1985 2.02764 -0.0381184 0
M  V30 452 C 38.5315 1.43384 1.30976 0
M  V30 453 O 37.8065 0.590733 1.85312 0
M  V30 454 C 38.0895 3.60064 0.0511427 0
M  V30 455 C 37.9425 4.2987 -1.32408 0
M  V30 456 C 39.2615 4.33439 0.762795 0
M  V30 457 H 36.3805 0.736841 -0.0153264 0
M  V30 458 H 39.0225 1.75675 -0.723759 0
M  V30 459 H 37.1725 3.83274 0.635065 0
M  V30 460 H 38.8445 4.17989 -1.95148 0
M  V30 461 H 37.0875 3.90085 -1.8978 0
M  V30 462 H 37.7585 5.38478 -1.21431 0
M  V30 463 H 40.2345 4.15243 0.266965 0
M  V30 464 H 39.1105 5.43124 0.794221 0
M  V30 465 H 39.3715 4.02915 1.81966 0
M  V30 466 N 38.4306 0.297415 1.54768 0
M  V30 467 C 39.3606 -0.573494 2.26348 0
M  V30 468 C 40.3416 -1.14085 1.26169 0
M  V30 469 O 41.5266 -1.17086 1.54934 0
M  V30 470 C 38.6566 -1.74716 3.00153 0
M  V30 471 C 37.6106 -1.31032 4.07449 0
M  V30 472 C 36.9366 -2.56887 4.68949 0
M  V30 473 C 38.2366 -0.444183 5.20408 0
M  V30 474 H 39.9306 0.0235131 2.99391 0
M  V30 475 H 37.4766 0.0127488 1.43994 0
M  V30 476 H 39.4296 -2.3625 3.48947 0
M  V30 477 H 38.1536 -2.37035 2.24682 0
M  V30 478 H 36.8126 -0.718066 3.59499 0
M  V30 479 H 36.4606 -3.17512 3.90122 0
M  V30 480 H 36.1606 -2.2836 5.41411 0
M  V30 481 H 37.6846 -3.19229 5.20505 0
M  V30 482 H 39.0986 -0.9651 5.65118 0
M  V30 483 H 37.4956 -0.252846 5.99567 0
M  V30 484 H 38.5656 0.531609 4.81977 0
M  V30 485 N 39.9087 -1.5758 0.0250728 0
M  V30 486 C 40.8717 -2.08896 -0.943139 0
M  V30 487 C 41.8717 -1.00321 -1.25668 0
M  V30 488 O 43.0617 -1.26495 -1.19769 0
M  V30 489 C 40.1937 -2.55143 -2.26086 0
M  V30 490 H 41.3867 -2.95723 -0.498775 0
M  V30 491 H 38.9397 -1.54703 -0.222888 0
M  V30 492 H 39.6747 -1.71633 -2.75159 0
M  V30 493 H 39.4597 -3.34461 -2.04641 0
M  V30 494 H 40.9497 -2.95083 -2.95492 0
M  V30 495 N 41.3868 0.248026 -1.55636 0
M  V30 496 C 42.3348 1.32683 -1.91045 0
M  V30 497 C 43.3288 1.49883 -0.789401 0
M  V30 498 O 44.5348 1.51371 -0.974007 0
M  V30 499 H 40.9098 0.444272 -0.606734 0
M  V30 500 H 42.8808 1.00085 -2.81115 0
M  V30 501 C 41.6298 2.6755 -2.22064 0
M  V30 502 H 40.9528 2.55114 -3.07826 0
M  V30 503 H 42.3928 3.41912 -2.50743 0
M  V30 504 C 40.8518 3.20556 -1.0366 0
M  V30 505 O 41.3818 4.00695 -0.284016 0
M  V30 506 N 39.5878 2.78568 -0.82753 0
M  V30 507 H 39.1348 2.1351 -1.44123 0
M  V30 508 H 39.0928 3.14378 -0.0369803 0
M  V30 509 N 42.8649 1.48995 0.513639 0
M  V30 510 C 44.1139 1.57093 1.2651 0
M  V30 511 C 44.4269 0.257091 1.93903 0
M  V30 512 O 45.6329 0.216478 2.70636 0
M  V30 513 C 44.0889 2.77118 2.29638 0
M  V30 514 C 43.6969 4.15209 1.68241 0
M  V30 515 C 45.4409 2.94538 3.05692 0
M  V30 516 C 43.3479 5.26474 2.69406 0
M  V30 517 H 42.2779 0.584876 0.475854 0
M  V30 518 H 44.9289 1.7536 0.540487 0
M  V30 519 H 43.3109 2.52319 3.05207 0
M  V30 520 H 44.4849 4.50094 0.987505 0
M  V30 521 H 42.7999 4.03042 1.04623 0
M  V30 522 H 45.3969 3.74832 3.8132 0
M  V30 523 H 45.7399 2.04614 3.62545 0
M  V30 524 H 46.2729 3.19316 2.37238 0
M  V30 525 H 43.0119 6.18417 2.17351 0
M  V30 526 H 42.5319 4.96058 3.37175 0
M  V30 527 H 44.2109 5.55277 3.32078 0
M  V30 528 N 44.343 -0.763751 1.37857 0
M  V30 529 C 45.275 -1.88664 1.30148 0
M  V30 530 C 46.288 -1.61365 0.215685 0
M  V30 531 O 47.477 -1.72134 0.472459 0
M  V30 532 C 44.577 -3.24075 0.991396 0
M  V30 533 C 43.75 -3.78958 2.18426 0
M  V30 534 C 42.809 -4.92862 1.8432 0
M  V30 535 O 41.835 -5.08027 2.56704 0
M  V30 536 N 43.037 -5.75071 0.792081 0
M  V30 537 H 45.802 -1.95791 2.26905 0
M  V30 538 H 43.363 -0.943226 1.31586 0
M  V30 539 H 45.355 -3.97804 0.743935 0
M  V30 540 H 43.925 -3.12399 0.112122 0
M  V30 541 H 43.145 -2.96913 2.59299 0
M  V30 542 H 44.433 -4.12357 2.98058 0
M  V30 543 H 43.831 -5.65375 0.191595 0
M  V30 544 H 42.388 -6.48991 0.60449 0
M  V30 545 N 45.8211 -1.22559 -0.990812 0
M  V30 546 C 46.7311 -1.01394 -2.11557 0
M  V30 547 C 47.7471 0.0383962 -1.73958 0
M  V30 548 O 48.9231 -0.154787 -2.00804 0
M  V30 549 C 45.9881 -0.596569 -3.41529 0
M  V30 550 C 45.0491 -1.72276 -3.93217 0
M  V30 551 C 44.2821 -1.32521 -5.16985 0
M  V30 552 O 44.5051 -0.204909 -5.70032 0
M  V30 553 O 43.4391 -2.14247 -5.62478 0
M  V30 554 H 47.2651 -1.95633 -2.32296 0
M  V30 555 H 44.8501 -1.01172 -1.0993 0
M  V30 556 H 46.7321 -0.374263 -4.19735 0
M  V30 557 H 45.4071 0.316939 -3.22145 0
M  V30 558 H 44.3141 -1.99961 -3.16174 0
M  V30 559 H 45.6471 -2.61421 -4.17037 0
M  V30 560 N 47.2992 1.18797 -1.03562 0
M  V30 561 C 48.5762 1.84469 -0.650434 0
M  V30 562 C 48.9562 1.92319 0.870433 0
M  V30 563 O 48.3042 1.44528 1.76986 0
M  V30 564 C 48.5142 3.2306 -1.32036 0
M  V30 565 C 49.8622 3.9915 -1.44792 0
M  V30 566 O 50.8862 3.32481 -1.27806 0
M  V30 567 O 49.7452 5.18587 -1.72423 0
M  V30 568 H 46.8392 0.795251 -0.226946 0
M  V30 569 H 49.3852 1.26231 -1.13419 0
M  V30 570 H 48.1572 3.1222 -2.3587 0
M  V30 571 H 47.7802 3.88949 -0.8249 0
M  V30 572 N 48.7773 0.814389 1.34928 0
M  V30 573 C 49.6873 0.231978 2.3345 0
M  V30 574 C 50.7033 -0.629139 1.62228 0
M  V30 575 O 51.8793 -0.539052 1.94052 0
M  V30 576 C 48.9443 -0.603482 3.41407 0
M  V30 577 C 48.0053 0.279037 4.28392 0
M  V30 578 C 47.2383 -0.516643 5.31193 0
M  V30 579 O 47.4613 -1.75068 5.4287 0
M  V30 580 O 46.3953 0.0965652 6.01823 0
M  V30 581 H 50.2213 1.04721 2.85074 0
M  V30 582 H 47.8063 0.576343 1.37836 0
M  V30 583 H 49.6883 -1.07908 4.0735 0
M  V30 584 H 48.3633 -1.39618 2.92042 0
M  V30 585 H 47.2703 0.801948 3.65403 0
M  V30 586 H 48.6033 1.03588 4.81176 0
M  V30 587 N 50.2554 -1.46986 0.568584 0
M  V30 588 C 51.2184 -2.28624 -0.162366 0
M  V30 589 C 52.2184 -1.37596 -0.832103 0
M  V30 590 O 53.4084 -1.60115 -0.68622 0
M  V30 591 C 50.5404 -3.17596 -1.23878 0
M  V30 592 H 51.7334 -2.94722 0.554899 0
M  V30 593 H 49.2864 -1.52863 0.325976 0
M  V30 594 H 50.0214 -2.56214 -1.98808 0
M  V30 595 H 49.8064 -3.846 -0.763219 0
M  V30 596 H 51.2964 -3.79078 -1.75185 0
M  V30 597 N 51.7335 -0.305618 -1.54608 0
M  V30 598 C 52.6805 0.568421 -2.23691 0
M  V30 599 C 53.6505 1.12592 -1.22116 0
M  V30 600 O 54.8355 1.16959 -1.50749 0
M  V30 601 C 51.9755 1.7322 -2.98477 0
M  V30 602 C 51.0885 1.20566 -4.14835 0
M  V30 603 C 50.2235 2.33368 -4.77193 0
M  V30 604 C 49.2625 1.7787 -5.85686 0
M  V30 605 N 48.3995 2.84263 -6.4198 0
M  V30 606 H 53.2395 -0.0272867 -2.97988 0
M  V30 607 H 50.7765 -0.0252363 -1.47078 0
M  V30 608 H 52.7345 2.41675 -3.40072 0
M  V30 609 H 51.3645 2.29947 -2.26548 0
M  V30 610 H 50.4165 0.413223 -3.78149 0
M  V30 611 H 51.7285 0.759417 -4.92985 0
M  V30 612 H 50.8825 3.09761 -5.21664 0
M  V30 613 H 49.6215 2.8132 -3.98385 0
M  V30 614 H 48.6265 0.99968 -5.40635 0
M  V30 615 H 49.8515 1.30816 -6.66381 0
M  V30 616 H 47.7975 3.31541 -5.66053 0
M  V30 617 H 47.7145 2.44149 -7.15491 0
M  V30 618 H 48.9825 3.6054 -6.91109 0
M  V30 619 N 53.2116 1.57565 -0.0334293 0
M  V30 620 C 54.1596 2.1164 0.96496 0
M  V30 621 C 55.1536 1.04398 1.33407 0
M  V30 622 O 56.3596 1.22828 1.3158 0
M  V30 623 H 52.7346 0.676222 0.32898 0
M  V30 624 H 54.7056 2.94455 0.483614 0
M  V30 625 C 53.4546 2.66207 2.23672 0
M  V30 626 H 52.7776 3.48378 1.96145 0
M  V30 627 H 54.2176 3.07685 2.9173 0
M  V30 628 C 52.6766 1.59151 2.96939 0
M  V30 629 O 53.2066 0.993858 3.89211 0
M  V30 630 N 51.4126 1.31093 2.59351 0
M  V30 631 H 50.9596 1.7988 1.84393 0
M  V30 632 H 50.9176 0.596889 3.08682 0
M  V30 633 N 54.6897 -0.239769 1.55765 0
M  V30 634 C 55.6377 -1.31668 1.91745 0
M  V30 635 C 56.6317 -1.49462 0.797338 0
M  V30 636 O 57.8377 -1.50852 0.982021 0
M  V30 637 H 54.2127 -0.441048 0.609082 0
M  V30 638 H 56.1837 -0.985923 2.81642 0
M  V30 639 C 54.9327 -2.66368 2.2348 0
M  V30 640 H 54.2557 -2.53478 3.09175 0
M  V30 641 H 55.6957 -3.40578 2.52553 0
M  V30 642 C 54.1547 -3.20002 1.05359 0
M  V30 643 O 54.6847 -4.00538 0.305261 0
M  V30 644 N 52.8907 -2.78126 0.842292 0
M  V30 645 H 52.4377 -2.12742 1.45253 0
M  V30 646 H 52.3957 -3.14354 0.053652 0
M  V30 647 N 56.1678 -1.49265 -0.50573 0
M  V30 648 C 57.4168 -1.57761 -1.25675 0
M  V30 649 C 57.7298 -0.267371 -1.93764 0
M  V30 650 O 58.9358 -0.230827 -2.70517 0
M  V30 651 C 57.3918 -2.78332 -2.28165 0
M  V30 652 C 56.9998 -4.16096 -1.66037 0
M  V30 653 C 58.7438 -2.96155 -3.04125 0
M  V30 654 C 56.6508 -5.27895 -2.6661 0
M  V30 655 H 55.5808 -0.587391 -0.472745 0
M  V30 656 H 58.2318 -1.75644 -0.53118 0
M  V30 657 H 56.6138 -2.53934 -3.03865 0
M  V30 658 H 57.7878 -4.50612 -0.963622 0
M  V30 659 H 56.1028 -4.03591 -1.02484 0
M  V30 660 H 58.6998 -3.76849 -3.79327 0
M  V30 661 H 59.0428 -2.06534 -3.61455 0
M  V30 662 H 59.5758 -3.2057 -2.35541 0
M  V30 663 H 56.3148 -6.1956 -2.14068 0
M  V30 664 H 55.8348 -4.97839 -3.34539 0
M  V30 665 H 57.5138 -5.57031 -3.29129 0
M  V30 666 N 57.6459 0.756429 -1.3826 0
M  V30 667 C 58.8739 1.54565 -1.3754 0
M  V30 668 C 59.2889 1.88767 0.0355331 0
M  V30 669 O 58.6459 1.52572 1.0014 0
M  V30 670 C 58.6969 2.84654 -2.22833 0
M  V30 671 O 58.4179 2.51912 -3.5843 0
M  V30 672 C 59.9189 3.78807 -2.30261 0
M  V30 673 H 57.1389 0.478353 -0.470553 0
M  V30 674 H 59.6829 0.936381 -1.81803 0
M  V30 675 H 57.8379 3.41965 -1.8204 0
M  V30 676 H 58.2519 3.35325 -4.03308 0
M  V30 677 H 59.7259 4.67045 -2.94233 0
M  V30 678 H 60.2029 4.19038 -1.31545 0
M  V30 679 H 60.8089 3.2742 -2.71433 0
M  V30 680 N 59.124 1.23083 0.984299 0
M  V30 681 C 60.373 1.05466 1.71929 0
M  V30 682 C 60.686 -0.409211 1.91272 0
M  V30 683 O 61.892 -0.705226 2.62181 0
M  V30 684 C 60.348 1.83874 3.09384 0
M  V30 685 C 59.956 3.34566 2.97943 0
M  V30 686 C 61.7 1.74734 3.8687 0
M  V30 687 C 59.607 4.05381 4.30605 0
M  V30 688 H 58.537 0.391039 0.644674 0
M  V30 689 H 61.188 1.47013 1.09815 0
M  V30 690 H 59.57 1.35131 3.72231 0
M  V30 691 H 60.744 3.90767 2.44209 0
M  V30 692 H 59.059 3.44476 2.33934 0
M  V30 693 H 61.656 2.24957 4.85076 0
M  V30 694 H 61.999 0.709372 4.10212 0
M  V30 695 H 62.532 2.21067 3.30717 0
M  V30 696 H 59.271 5.09467 4.1246 0
M  V30 697 H 58.791 3.53967 4.84218 0
M  V30 698 H 60.47 4.11458 4.99311 0
M  V30 699 N 60.6021 -1.18246 1.0419 0
M  V30 700 C 61.8491 -1.88257 0.746017 0
M  V30 701 C 62.1771 -1.80429 -0.726331 0
M  V30 702 O 61.4321 -1.2 -1.54591 0
M  V30 703 C 61.7311 -3.38082 1.15911 0
M  V30 704 C 61.3971 -3.66114 2.63195 0
M  V30 705 C 60.0591 -3.73474 3.03432 0
M  V30 706 C 62.4111 -3.78398 3.5842 0
M  V30 707 C 59.7391 -3.90599 4.37778 0
M  V30 708 C 62.0911 -3.97039 4.92487 0
M  V30 709 C 60.7551 -4.02635 5.32392 0
M  V30 710 H 60.0251 -0.688883 0.272987 0
M  V30 711 H 62.6721 -1.3995 1.30715 0
M  V30 712 H 60.9771 -3.88377 0.516806 0
M  V30 713 H 62.6741 -3.90596 0.907516 0
M  V30 714 H 59.2641 -3.61003 2.3103 0
M  V30 715 H 63.4481 -3.72042 3.28479 0
M  V30 716 H 58.7041 -3.93175 4.68213 0
M  V30 717 H 62.8781 -4.05486 5.66175 0
M  V30 718 H 60.5051 -4.15657 6.36501 0
M  V30 719 N 62.0802 -0.821533 -1.34494 0
M  V30 720 C 63.3082 -0.421884 -2.02553 0
M  V30 721 C 63.7232 0.971745 -1.61872 0
M  V30 722 O 63.0802 1.62864 -0.823496 0
M  V30 723 C 63.1312 -0.51285 -3.57844 0
M  V30 724 O 62.8522 -1.85155 -3.97051 0
M  V30 725 C 64.3532 -0.107921 -4.43169 0
M  V30 726 H 61.5732 -0.169482 -0.649243 0
M  V30 727 H 64.1172 -1.1093 -1.71798 0
M  V30 728 H 62.2722 0.126474 -3.87193 0
M  V30 729 H 62.6862 -1.82482 -4.91732 0
M  V30 730 H 64.1602 -0.222657 -5.51551 0
M  V30 731 H 64.6372 0.948401 -4.28838 0
M  V30 732 H 65.2432 -0.720989 -4.19144 0
M  V30 733 N 63.5583 1.46682 -0.576371 0
M  V30 734 C 64.9743 1.57822 -0.237562 0
M  V30 735 C 65.1743 1.57237 1.26011 0
M  V30 736 O 64.2303 1.48596 2.04146 0
M  V30 737 C 65.5433 2.87499 -0.881168 0
M  V30 738 C 67.0913 3.01119 -0.85417 0
M  V30 739 C 67.5663 4.33524 -1.4772 0
M  V30 740 N 69.0573 4.40207 -1.44125 0
M  V30 741 C 69.7923 5.4126 -1.89276 0
M  V30 742 N 69.2883 6.49021 -2.42371 0
M  V30 743 N 71.0813 5.32422 -1.80231 0
M  V30 744 H 63.2323 1.45306 -1.54919 0
M  V30 745 H 65.4953 0.692733 -0.647167 0
M  V30 746 H 65.2013 2.9372 -1.93447 0
M  V30 747 H 65.0753 3.75224 -0.385592 0
M  V30 748 H 67.4623 2.94485 0.190491 0
M  V30 749 H 67.5433 2.14887 -1.3877 0
M  V30 750 H 67.1873 4.40916 -2.52103 0
M  V30 751 H 67.1173 5.1852 -0.918947 0
M  V30 752 H 69.6083 3.62931 -1.05307 0
M  V30 753 H 69.9213 7.2233 -2.74698 0
M  V30 754 H 68.2663 6.49858 -2.46393 0
M  V30 755 H 71.4573 4.47137 -1.38514 0
M  V30 756 H 71.6303 6.11034 -2.15735 0
M  V30 757 N 65.0364 0.313813 1.54444 0
M  V30 758 C 66.2854 -0.292519 1.99568 0
M  V30 759 C 66.5984 -1.54011 1.20582 0
M  V30 760 O 67.8044 -2.22183 1.56035 0
M  V30 761 C 66.2604 -0.571752 3.55329 0
M  V30 762 C 65.8684 0.658229 4.43138 0
M  V30 763 C 67.6124 -1.13857 4.08946 0
M  V30 764 C 65.5194 0.351439 5.90355 0
M  V30 765 H 64.4494 -0.113079 0.745472 0
M  V30 766 H 67.1004 0.424518 1.78522 0
M  V30 767 H 65.4824 -1.34872 3.72325 0
M  V30 768 H 66.6564 1.43403 4.37918 0
M  V30 769 H 64.9714 1.14458 4.0036 0
M  V30 770 H 67.5684 -1.38257 5.16516 0
M  V30 771 H 67.9114 -2.08489 3.6033 0
M  V30 772 H 68.4444 -0.423015 3.95544 0
M  V30 773 H 65.1834 1.26667 6.43145 0
M  V30 774 H 64.7034 -0.386842 5.98551 0
M  V30 775 H 66.3824 -0.0423134 6.46986 0
M  V30 776 N 66.5145 -1.57545 0.0417849 0
M  V30 777 C 67.4445 -2.14009 -0.933929 0
M  V30 778 C 68.4255 -1.05938 -1.33083 0
M  V30 779 O 69.6105 -1.33833 -1.40721 0
M  V30 780 C 66.7405 -2.67747 -2.21199 0
M  V30 781 C 65.6945 -3.80718 -1.95544 0
M  V30 782 C 65.0205 -4.20935 -3.29724 0
M  V30 783 C 66.3205 -5.06258 -1.28452 0
M  V30 784 H 68.0145 -2.95788 -0.463645 0
M  V30 785 H 65.5605 -1.42285 -0.221573 0
M  V30 786 H 67.5135 -3.05886 -2.89848 0
M  V30 787 H 66.2375 -1.83147 -2.70416 0
M  V30 788 H 64.8965 -3.43037 -1.2931 0
M  V30 789 H 64.5445 -3.33298 -3.76724 0
M  V30 790 H 64.2445 -4.9707 -3.13361 0
M  V30 791 H 65.7685 -4.61666 -3.9962 0
M  V30 792 H 67.1825 -5.41903 -1.8712 0
M  V30 793 H 65.5795 -5.87475 -1.22445 0
M  V30 794 H 66.6495 -4.84207 -0.259219 0
M  V30 795 N 67.9926 0.231505 -1.5589 0
M  V30 796 C 69.2696 0.981096 -1.69215 0
M  V30 797 C 69.6496 2.02799 -0.586164 0
M  V30 798 O 68.9976 2.24823 0.408253 0
M  V30 799 C 69.2076 1.60054 -3.10135 0
M  V30 800 C 70.5556 2.09658 -3.69227 0
M  V30 801 O 71.5796 1.69967 -3.13033 0
M  V30 802 O 70.4386 2.8258 -4.67772 0
M  V30 803 H 67.5326 0.457653 -0.688827 0
M  V30 804 H 70.0786 0.224073 -1.68214 0
M  V30 805 H 68.8506 0.844105 -3.82087 0
M  V30 806 H 68.4736 2.42336 -3.15212 0
M  V30 807 N 69.4707 1.49531 0.497807 0
M  V30 808 C 70.8867 1.36365 0.829266 0
M  V30 809 C 71.0867 0.399184 1.97506 0
M  V30 810 O 70.1427 -0.167977 2.51941 0
M  V30 811 C 71.4557 2.77153 1.16647 0
M  V30 812 C 73.0037 2.85877 1.27449 0
M  V30 813 C 73.4787 4.2744 1.64497 0
M  V30 814 N 74.9697 4.30265 1.7154 0
M  V30 815 C 75.7047 5.3677 2.01656 0
M  V30 816 N 75.2007 6.53516 2.29976 0
M  V30 817 N 76.9937 5.24189 2.02934 0
M  V30 818 H 69.1447 2.10831 -0.257703 0
M  V30 819 H 71.4077 0.946534 -0.0527091 0
M  V30 820 H 71.1137 3.49442 0.397872 0
M  V30 821 H 70.9877 3.12722 2.10915 0
M  V30 822 H 73.3747 2.13824 2.0338 0
M  V30 823 H 73.4557 2.53887 0.312244 0
M  V30 824 H 73.0997 5.00021 0.891151 0
M  V30 825 H 73.0297 4.56896 2.61827 0
M  V30 826 H 75.5207 3.4607 1.51802 0
M  V30 827 H 75.8337 7.30506 2.52153 0
M  V30 828 H 74.1787 6.56737 2.27425 0
M  V30 829 H 77.3697 4.31988 1.80289 0
M  V30 830 H 77.5427 6.07286 2.26071 0
M  V30 831 N 70.9488 -0.749086 1.3866 0
M  V30 832 C 71.8788 -1.8764 1.38973 0
M  V30 833 C 72.8598 -1.68178 0.255004 0
M  V30 834 O 74.0448 -1.88704 0.458754 0
M  V30 835 C 71.1748 -3.25222 1.21851 0
M  V30 836 C 70.1288 -3.59295 2.32575 0
M  V30 837 C 69.4548 -4.95663 2.00555 0
M  V30 838 C 70.7548 -3.63709 3.7485 0
M  V30 839 H 72.4488 -1.87635 2.3331 0
M  V30 840 H 69.9948 -0.901329 1.12303 0
M  V30 841 H 71.9478 -4.03746 1.20695 0
M  V30 842 H 70.6718 -3.25719 0.239775 0
M  V30 843 H 69.3308 -2.83093 2.32925 0
M  V30 844 H 68.9788 -4.92724 1.01154 0
M  V30 845 H 68.6788 -5.19429 2.74714 0
M  V30 846 H 70.2028 -5.7656 2.01024 0
M  V30 847 H 71.6168 -4.32338 3.76506 0
M  V30 848 H 70.0138 -3.98986 4.48252 0
M  V30 849 H 71.0838 -2.63834 4.06841 0
M  V30 850 N 72.4269 -1.23603 -0.977757 0
M  V30 851 C 73.3569 -1.04401 -2.0886 0
M  V30 852 C 74.3379 0.0399052 -1.70053 0
M  V30 853 O 75.5229 -0.125246 -1.93796 0
M  V30 854 C 72.6529 -0.637269 -3.41403 0
M  V30 855 C 71.6069 -1.66883 -3.94124 0
M  V30 856 C 70.9329 -1.11745 -5.22893 0
M  V30 857 C 72.2329 -3.06247 -4.23096 0
M  V30 858 H 73.9269 -1.97316 -2.25182 0
M  V30 859 H 71.4729 -0.950096 -1.08209 0
M  V30 860 H 73.4259 -0.48998 -4.18542 0
M  V30 861 H 72.1499 0.327557 -3.24953 0
M  V30 862 H 70.8089 -1.80416 -3.19133 0
M  V30 863 H 70.4569 -0.143527 -5.02795 0
M  V30 864 H 70.1569 -1.80672 -5.59134 0
M  V30 865 H 71.6809 -0.982067 -6.02651 0
M  V30 866 H 73.0949 -2.96001 -4.90975 0
M  V30 867 H 71.4919 -3.72436 -4.70544 0
M  V30 868 H 72.5619 -3.55041 -3.30263 0
M  V30 869 N 73.905 1.17692 -1.04816 0
M  V30 870 C 75.182 1.83768 -0.669963 0
M  V30 871 C 75.562 1.93232 0.849986 0
M  V30 872 O 74.91 1.46397 1.75443 0
M  V30 873 C 75.12 3.21641 -1.35455 0
M  V30 874 C 76.468 3.97592 -1.49017 0
M  V30 875 O 77.492 3.31107 -1.31326 0
M  V30 876 O 76.351 5.16729 -1.77914 0
M  V30 877 H 73.445 0.792799 -0.235368 0
M  V30 878 H 75.991 1.25021 -1.14751 0
M  V30 879 H 74.763 3.097 -2.39168 0
M  V30 880 H 74.386 3.88052 -0.866107 0
M  V30 881 N 75.3831 0.828654 1.34056 0
M  V30 882 C 76.6311 0.41863 1.97717 0
M  V30 883 C 76.9521 -1.02314 1.66002 0
M  V30 884 O 76.2221 -1.71119 0.953683 0
M  V30 885 H 74.8021 0.151809 0.731412 0
M  V30 886 H 77.4641 1.05936 1.63596 0
M  V30 887 H 76.5601 0.542318 3.07352 0
M  V30 888 N 76.8612 -1.46375 0.584142 0
M  V30 889 C 78.0912 -2.06461 0.0758195 0
M  V30 890 C 78.4992 -1.43322 -1.23512 0
M  V30 891 O 77.8422 -0.533216 -1.75791 0
M  V30 892 C 77.9042 -3.59131 -0.162773 0
M  V30 893 C 77.5682 -4.4447 1.06279 0
M  V30 894 C 78.5652 -4.80918 1.97519 0
M  V30 895 C 76.2502 -4.85584 1.28504 0
M  V30 896 C 78.2442 -5.57309 3.09331 0
M  V30 897 C 75.9312 -5.61734 2.4062 0
M  V30 898 C 76.9292 -5.9751 3.30863 0
M  V30 899 O 76.6172 -6.72121 4.41032 0
M  V30 900 H 76.3492 -0.673745 0.0551725 0
M  V30 901 H 78.9032 -1.88969 0.804984 0
M  V30 902 H 77.1332 -3.74936 -0.946565 0
M  V30 903 H 78.8222 -4.0114 -0.619782 0
M  V30 904 H 79.5882 -4.49732 1.81565 0
M  V30 905 H 75.4672 -4.57187 0.591702 0
M  V30 906 H 79.0112 -5.85152 3.79793 0
M  V30 907 H 74.9082 -5.92334 2.56537 0
M  V30 908 H 75.6762 -6.90547 4.39417 0
M  V30 909 N 78.3393 -0.321999 -1.54275 0
M  V30 910 C 79.6163 0.335232 -1.92706 0
M  V30 911 C 79.9963 1.70006 -1.25145 0
M  V30 912 O 79.3443 2.25067 -0.394596 0
M  V30 913 C 79.5543 0.429008 -3.46353 0
M  V30 914 C 80.9023 0.690029 -4.18956 0
M  V30 915 O 81.9263 0.511992 -3.52501 0
M  V30 916 O 80.7853 1.03338 -5.36641 0
M  V30 917 H 77.8793 0.191143 -0.804608 0
M  V30 918 H 80.4253 -0.3716 -1.65581 0
M  V30 919 H 79.1973 -0.529611 -3.87699 0
M  V30 920 H 78.8203 1.18348 -3.79578 0
M  V30 921 N 79.8174 1.5752 -0.0501392 0
M  V30 922 C 80.7654 2.12651 0.942459 0
M  V30 923 C 81.7594 1.05807 1.32292 0
M  V30 924 O 82.9654 1.24217 1.3027 0
M  V30 925 H 79.3404 0.679673 0.321789 0
M  V30 926 H 81.3114 2.94951 0.452356 0
M  V30 927 C 80.0604 2.68565 2.20836 0
M  V30 928 H 79.3834 3.50439 1.92439 0
M  V30 929 H 80.8234 3.10761 2.8845 0
M  V30 930 C 79.2824 1.62291 2.95234 0
M  V30 931 O 79.8124 1.03508 3.88135 0
M  V30 932 N 78.0184 1.33836 2.57946 0
M  V30 933 H 77.5654 1.81826 1.82475 0
M  V30 934 H 77.5234 0.629595 3.08032 0
M  V30 935 N 81.2955 -0.223234 1.56011 0
M  V30 936 C 82.7115 -0.572856 1.48965 0
M  V30 937 C 82.9115 -1.87225 0.74492 0
M  V30 938 O 81.9675 -2.50899 0.283896 0
M  V30 939 C 83.2805 -0.653646 2.9351 0
M  V30 940 C 84.8285 -0.744386 3.0402 0
M  V30 941 C 85.3035 -0.856535 4.49919 0
M  V30 942 N 86.7945 -0.9208 4.53955 0
M  V30 943 C 87.5295 -1.02726 5.64123 0
M  V30 944 N 87.0255 -1.09777 6.84047 0
M  V30 945 N 88.8185 -1.06226 5.51971 0
M  V30 946 H 80.9695 0.629462 2.02858 0
M  V30 947 H 83.2325 0.220621 0.921971 0
M  V30 948 H 82.9385 0.231518 3.50937 0
M  V30 949 H 82.8125 -1.51781 3.45315 0
M  V30 950 H 85.1995 -1.61999 2.46658 0
M  V30 951 H 85.2805 0.14541 2.55386 0
M  V30 952 H 84.9245 0.0146069 5.07898 0
M  V30 953 H 84.8545 -1.76172 4.96257 0
M  V30 954 H 87.3455 -0.876694 3.6759 0
M  V30 955 H 87.6585 -1.17872 7.63758 0
M  V30 956 H 86.0035 -1.06693 6.86762 0
M  V30 957 H 89.1945 -1.00382 4.5721 0
M  V30 958 H 89.3675 -1.14177 6.37862 0
M  V30 959 N 82.7736 -1.49793 -0.48987 0
M  V30 960 C 83.7036 -1.70201 -1.59856 0
M  V30 961 C 84.6846 -0.55076 -1.60937 0
M  V30 962 O 85.8696 -0.787841 -1.77501 0
M  V30 963 C 82.9996 -1.77882 -2.98287 0
M  V30 964 C 81.9536 -2.92907 -3.12073 0
M  V30 965 C 81.2796 -2.85712 -4.51965 0
M  V30 966 C 82.5796 -4.3369 -2.91051 0
M  V30 967 H 84.2736 -2.63025 -1.43032 0
M  V30 968 H 81.8196 -1.26574 -0.686664 0
M  V30 969 H 83.7726 -1.90744 -3.75759 0
M  V30 970 H 82.4966 -0.816653 -3.16225 0
M  V30 971 H 81.1556 -2.79665 -2.37029 0
M  V30 972 H 80.8036 -1.8738 -4.66795 0
M  V30 973 H 80.5036 -3.62921 -4.62128 0
M  V30 974 H 82.0276 -3.00598 -5.31482 0
M  V30 975 H 83.4416 -4.47555 -3.58284 0
M  V30 976 H 81.8386 -5.12205 -3.12675 0
M  V30 977 H 82.9086 -4.47362 -1.87071 0
M  V30 978 N 84.2517 0.741722 -1.39055 0
M  V30 979 C 85.6677 1.04638 -1.20512 0
M  V30 980 C 85.8677 2.01405 -0.0620218 0
M  V30 981 O 84.9237 2.45547 0.588457 0
M  V30 982 C 86.2367 1.6151 -2.53643 0
M  V30 983 C 87.7847 1.73623 -2.6043 0
M  V30 984 C 88.2597 2.33906 -3.93767 0
M  V30 985 N 89.7507 2.41323 -3.9537 0
M  V30 986 C 90.4857 2.88888 -4.95309 0
M  V30 987 N 89.9817 3.36401 -6.05645 0
M  V30 988 N 91.7747 2.88037 -4.82692 0
M  V30 989 H 83.9257 0.0998155 -2.12165 0
M  V30 990 H 86.1887 0.106907 -0.941953 0
M  V30 991 H 85.8947 0.978739 -3.37807 0
M  V30 992 H 85.7687 2.60411 -2.72885 0
M  V30 993 H 88.1557 2.36384 -1.76655 0
M  V30 994 H 88.2367 0.733945 -2.45045 0
M  V30 995 H 87.8807 1.71776 -4.7797 0
M  V30 996 H 87.8107 3.34799 -4.06469 0
M  V30 997 H 90.3017 2.07734 -3.15682 0
M  V30 998 H 90.6147 3.71186 -6.77821 0
M  V30 999 H 88.9597 3.34427 -6.09248 0
M  V30 1000 H 92.1507 2.50237 -3.95599 0
M  V30 1001 H 92.3237 3.24792 -5.60726 0
M  V30 1002 N 85.7298 1.2412 0.971189 0
M  V30 1003 C 87.1408 1.07236 1.52831 0
M  V30 1004 C 87.4918 -0.357352 1.92918 0
M  V30 1005 O 86.6168 -1.24528 1.76979 0
M  V30 1006 C 87.2118 1.94043 2.77728 0
M  V30 1007 C 85.7708 1.81394 3.29808 0
M  V30 1008 C 84.9178 1.89189 2.02738 0
M  V30 1009 H 87.8688 1.37648 0.789864 0
M  V30 1010 H 87.8898 1.47066 3.5093 0
M  V30 1011 H 87.4018 2.98093 2.4852 0
M  V30 1012 H 85.5028 0.801634 3.63874 0
M  V30 1013 H 85.6158 2.65294 3.98944 0
M  V30 1014 H 83.9798 1.32877 2.17292 0
M  V30 1015 H 84.7628 2.94812 1.759 0
M  V30 1016 N 87.2079 -1.17134 1.05439 0
M  V30 1017 C 88.4559 -1.87085 0.764429 0
M  V30 1018 C 88.7769 -1.81584 -0.710787 0
M  V30 1019 O 88.0469 -1.24349 -1.51374 0
M  V30 1020 H 86.6269 -0.692627 0.279779 0
M  V30 1021 H 89.2889 -1.42087 1.33406 0
M  V30 1022 H 88.3849 -2.92759 1.0816 0
M  V30 1023 N 88.686 -0.835752 -1.33615 0
M  V30 1024 C 89.616 -0.281739 -2.31794 0
M  V30 1025 C 90.597 0.608833 -1.58831 0
M  V30 1026 O 91.782 0.533035 -1.86741 0
M  V30 1027 C 88.912 0.546612 -3.42971 0
M  V30 1028 C 87.866 -0.247904 -4.27281 0
M  V30 1029 C 87.192 0.704001 -5.30045 0
M  V30 1030 C 88.492 -1.46324 -5.01385 0
M  V30 1031 H 90.186 -1.10206 -2.78379 0
M  V30 1032 H 87.732 -0.531388 -1.33837 0
M  V30 1033 H 89.685 0.944467 -4.1068 0
M  V30 1034 H 88.409 1.40011 -2.95067 0
M  V30 1035 H 87.068 -0.627281 -3.61194 0
M  V30 1036 H 86.716 1.55381 -4.78399 0
M  V30 1037 H 86.416 0.176524 -5.87335 0
M  V30 1038 H 87.94 1.09944 -6.0062 0
M  V30 1039 H 89.354 -1.13871 -5.61877 0
M  V30 1040 H 87.751 -1.92728 -5.6831 0
M  V30 1041 H 88.821 -2.23467 -4.30338 0
M  V30 1042 N 90.1641 1.46063 -0.591896 0
M  V30 1043 C 91.4121 2.01938 -0.0808391 0
M  V30 1044 C 91.7331 1.46475 1.28725 0
M  V30 1045 O 91.0031 0.652944 1.84698 0
M  V30 1046 H 89.5831 0.746516 -0.0268938 0
M  V30 1047 H 92.2451 1.79055 -0.769752 0
M  V30 1048 H 91.3411 3.12094 -0.0187578 0
M  V30 1049 N 91.6422 0.330177 1.54103 0
M  V30 1050 C 92.9192 -0.325007 1.92881 0
M  V30 1051 C 93.2992 -1.6934 1.26045 0
M  V30 1052 O 92.6472 -2.24855 0.406526 0
M  V30 1053 C 92.8572 -0.410634 3.46576 0
M  V30 1054 C 94.2052 -0.667801 4.19316 0
M  V30 1055 O 95.2292 -0.49329 3.52768 0
M  V30 1056 O 94.0882 -1.00491 5.37181 0
M  V30 1057 H 91.1822 -0.186873 0.80561 0
M  V30 1058 H 93.7282 0.380376 1.65382 0
M  V30 1059 H 92.5002 0.550164 3.87413 0
M  V30 1060 H 92.1232 -1.16333 3.802 0
M  V30 1061 N 93.1203 -1.57491 0.0584922 0
M  V30 1062 C 94.3453 -1.97711 -0.62652 0
M  V30 1063 C 94.7703 -0.936132 -1.63151 0
M  V30 1064 O 94.1283 0.099811 -1.81025 0
M  V30 1065 C 94.1763 -3.36989 -1.28338 0
M  V30 1066 O 93.2803 -3.35433 -2.39913 0
M  V30 1067 H 92.6213 -0.643868 -0.162266 0
M  V30 1068 H 95.1513 -2.04193 0.129064 0
M  V30 1069 H 95.1613 -3.73879 -1.63335 0
M  V30 1070 H 93.8363 -4.12289 -0.546889 0
M  V30 1071 H 92.4133 -3.10298 -2.06809 0
M  V30 1072 N 94.5984 0.214957 -1.56127 0
M  V30 1073 C 95.8474 0.936451 -1.78643 0
M  V30 1074 C 96.1604 1.85237 -0.628229 0
M  V30 1075 O 97.3664 2.613 -0.737186 0
M  V30 1076 C 95.8224 1.7154 -3.16389 0
M  V30 1077 C 95.4304 0.845299 -4.39953 0
M  V30 1078 C 97.1744 2.42772 -3.48227 0
M  V30 1079 C 95.0814 1.62198 -5.68723 0
M  V30 1080 H 94.0114 0.353401 -0.666051 0
M  V30 1081 H 96.6624 0.190169 -1.82512 0
M  V30 1082 H 95.0444 2.50484 -3.06715 0
M  V30 1083 H 96.2184 0.0959353 -4.607 0
M  V30 1084 H 94.5334 0.244789 -4.1568 0
M  V30 1085 H 97.1304 3.01394 -4.41663 0
M  V30 1086 H 97.4734 3.15984 -2.71035 0
M  V30 1087 H 98.0064 1.70813 -3.5926 0
M  V30 1088 H 94.7454 0.933011 -6.48826 0
M  V30 1089 H 94.2654 2.34579 -5.52026 0
M  V30 1090 H 95.9444 2.18095 -6.09133 0
M  V30 1091 N 96.0765 1.50051 0.48192 0
M  V30 1092 C 97.3045 1.64237 1.25832 0
M  V30 1093 C 97.7195 0.321336 1.86045 0
M  V30 1094 O 97.0765 -0.695478 1.68729 0
M  V30 1095 C 97.1275 2.72548 2.37487 0
M  V30 1096 O 96.8485 3.99529 1.79745 0
M  V30 1097 C 98.3495 2.9761 3.28547 0
M  V30 1098 H 95.5695 0.55237 0.380957 0
M  V30 1099 H 98.1135 1.96207 0.576467 0
M  V30 1100 H 96.2685 2.43303 3.01467 0
M  V30 1101 H 96.6825 4.59342 2.5319 0
M  V30 1102 H 98.1565 3.77084 4.03127 0
M  V30 1103 H 98.6335 2.0826 3.86684 0
M  V30 1104 H 99.2395 3.28345 2.70314 0
M  V30 1105 N 97.5546 -0.734337 1.39446 0
M  V30 1106 C 98.4646 -1.87879 1.40495 0
M  V30 1107 C 99.4806 -1.714 0.299672 0
M  V30 1108 O 100.657 -1.93991 0.541249 0
M  V30 1109 C 97.7216 -3.23477 1.24754 0
M  V30 1110 C 96.7826 -3.52344 2.45259 0
M  V30 1111 C 96.0156 -4.81473 2.30259 0
M  V30 1112 O 96.2386 -5.55237 1.30643 0
M  V30 1113 O 95.1726 -5.10254 3.19256 0
M  V30 1114 H 98.9986 -1.89949 2.36966 0
M  V30 1115 H 96.5836 -0.882243 1.20569 0
M  V30 1116 H 98.4656 -4.04509 1.18111 0
M  V30 1117 H 97.1406 -3.22176 0.313781 0
M  V30 1118 H 96.0476 -2.71396 2.57478 0
M  V30 1119 H 97.3806 -3.58426 3.37331 0
M  V30 1120 N 99.0327 -1.24633 -0.964593 0
M  V30 1121 C 100.279 -1.08949 -1.71049 0
M  V30 1122 C 100.612 0.370302 -1.90637 0
M  V30 1123 O 99.8867 1.27349 -1.47011 0
M  V30 1124 C 100.17 -1.83329 -3.0994 0
M  V30 1125 C 100.023 -3.37077 -2.97824 0
M  V30 1126 C 101.342 -1.60846 -4.09654 0
M  V30 1127 H 98.4607 -0.397178 -0.620821 0
M  V30 1128 H 101.103 -1.5334 -1.12191 0
M  V30 1129 H 99.2527 -1.45597 -3.60186 0
M  V30 1130 H 100.925 -3.84425 -2.5498 0
M  V30 1131 H 99.1677 -3.65298 -2.33965 0
M  V30 1132 H 99.8387 -3.84324 -3.96231 0
M  V30 1133 H 102.315 -1.93674 -3.68279 0
M  V30 1134 H 101.191 -2.1534 -5.04896 0
M  V30 1135 H 101.452 -0.547434 -4.38698 0
M  V30 1136 N 100.511 1.16574 -1.06058 0
M  V30 1137 C 101.758 1.87047 -0.775873 0
M  V30 1138 C 102.086 1.81562 0.697534 0
M  V30 1139 O 101.341 1.22445 1.52662 0
M  V30 1140 C 101.64 3.36195 -1.21275 0
M  V30 1141 C 101.306 3.6188 -2.68986 0
M  V30 1142 C 99.9678 3.68599 -3.09335 0
M  V30 1143 C 102.32 3.72648 -3.64394 0
M  V30 1144 C 99.6478 3.83584 -4.43937 0
M  V30 1145 C 102 3.89154 -4.98741 0
M  V30 1146 C 100.664 3.94114 -5.3873 0
M  V30 1147 H 99.9338 0.684452 -0.283912 0
M  V30 1148 H 102.581 1.37853 -1.32925 0
M  V30 1149 H 100.886 3.87505 -0.578528 0
M  V30 1150 H 102.583 3.89103 -0.969542 0
M  V30 1151 H 99.1728 3.57281 -2.36744 0
M  V30 1152 H 103.357 3.66769 -3.34356 0
M  V30 1153 H 98.6128 3.85677 -4.74409 0
M  V30 1154 H 102.787 3.96427 -5.72554 0
M  V30 1155 H 100.414 4.05478 -6.43033 0
M  V30 1156 N 101.989 0.842826 1.3317 0
M  V30 1157 C 103.217 0.454055 2.01856 0
M  V30 1158 C 103.632 -0.94587 1.63397 0
M  V30 1159 O 102.989 -1.61534 0.849302 0
M  V30 1160 C 103.04 0.569715 3.56982 0
M  V30 1161 O 102.761 1.91448 3.94055 0
M  V30 1162 C 104.262 0.178412 4.42941 0
M  V30 1163 H 101.482 0.17979 0.646465 0
M  V30 1164 H 104.026 1.1365 1.70012 0
M  V30 1165 H 102.181 -0.0648587 3.87346 0
M  V30 1166 H 102.595 1.90282 4.88767 0
M  V30 1167 H 104.069 0.310376 5.51127 0
M  V30 1168 H 104.546 -0.880056 4.30293 0
M  V30 1169 H 105.152 0.787579 4.17944 0
M  V30 1170 N 103.467 -1.45747 0.599634 0
M  V30 1171 C 104.415 -2.322 -0.136426 0
M  V30 1172 C 105.409 -1.45497 -0.867583 0
M  V30 1173 O 106.615 -1.62027 -0.78405 0
M  V30 1174 H 102.99 -0.749368 -0.0628588 0
M  V30 1175 H 104.961 -2.92072 0.611281 0
M  V30 1176 C 103.71 -3.28974 -1.12567 0
M  V30 1177 H 103.033 -3.9568 -0.572484 0
M  V30 1178 H 104.473 -3.92212 -1.61077 0
M  V30 1179 C 102.932 -2.55561 -2.19523 0
M  V30 1180 O 103.462 -2.33111 -3.27143 0
M  V30 1181 N 101.668 -2.15832 -1.94589 0
M  V30 1182 H 101.215 -2.3429 -1.07078 0
M  V30 1183 H 101.173 -1.67034 -2.66359 0
M  V30 1184 N 104.945 -0.338344 -1.53925 0
M  V30 1185 C 106.194 0.260732 -2.00008 0
M  V30 1186 C 106.507 1.52073 -1.23017 0
M  V30 1187 O 107.713 2.19672 -1.5955 0
M  V30 1188 C 106.169 0.51515 -3.56194 0
M  V30 1189 C 105.777 -0.728645 -4.42035 0
M  V30 1190 C 107.521 1.07337 -4.10706 0
M  V30 1191 C 105.428 -0.445315 -5.89721 0
M  V30 1192 H 104.358 0.101205 -0.747177 0
M  V30 1193 H 107.009 -0.452866 -1.77824 0
M  V30 1194 H 105.391 1.28932 -3.74423 0
M  V30 1195 H 106.565 -1.50352 -4.35581 0
M  V30 1196 H 104.88 -1.20813 -3.98489 0
M  V30 1197 H 107.477 1.30022 -5.18651 0
M  V30 1198 H 107.82 2.0273 -3.63602 0
M  V30 1199 H 108.353 0.360034 -3.96167 0
M  V30 1200 H 105.092 -1.36883 -6.41049 0
M  V30 1201 H 104.612 0.291569 -5.99091 0
M  V30 1202 H 106.291 -0.0606218 -6.46972 0
M  V30 1203 N 106.423 1.57458 -0.0668435 0
M  V30 1204 C 107.653 1.97337 0.611677 0
M  V30 1205 C 108.061 0.943744 1.63982 0
M  V30 1206 O 107.404 -0.0785584 1.83532 0
M  V30 1207 C 107.466 3.33511 1.34205 0
M  V30 1208 C 107.13 4.54598 0.467941 0
M  V30 1209 C 108.127 5.19186 -0.272439 0
M  V30 1210 C 105.812 5.0075 0.39427 0
M  V30 1211 C 107.806 6.28274 -1.07476 0
M  V30 1212 C 105.493 6.09711 -0.411729 0
M  V30 1213 C 106.491 6.73335 -1.14492 0
M  V30 1214 O 106.179 7.80199 -1.93763 0
M  V30 1215 H 105.911 0.654042 0.170893 0
M  V30 1216 H 108.465 2.04961 -0.134289 0
M  V30 1217 H 106.695 3.22487 2.13398 0
M  V30 1218 H 108.384 3.58029 1.91233 0
M  V30 1219 H 109.15 4.84477 -0.225086 0
M  V30 1220 H 105.029 4.51009 0.954569 0
M  V30 1221 H 108.573 6.77866 -1.64755 0
M  V30 1222 H 104.47 6.43854 -0.460664 0
M  V30 1223 H 105.238 7.97053 -1.86142 0
M  V30 1224 N 107.901 -0.206675 1.56239 0
M  V30 1225 C 109.147 -0.930218 1.80208 0
M  V30 1226 C 109.48 -1.83387 0.638981 0
M  V30 1227 O 108.755 -1.91119 -0.361066 0
M  V30 1228 C 109.038 -1.75641 3.1436 0
M  V30 1229 C 108.891 -0.878257 4.41142 0
M  V30 1230 C 110.21 -2.73129 3.45092 0
M  V30 1231 H 107.329 -0.336742 0.655571 0
M  V30 1232 H 109.971 -0.198222 1.88963 0
M  V30 1233 H 108.121 -2.38048 3.07027 0
M  V30 1234 H 109.793 -0.269787 4.6051 0
M  V30 1235 H 108.036 -0.184385 4.33408 0
M  V30 1236 H 108.707 -1.49106 5.3148 0
M  V30 1237 H 111.183 -2.20856 3.52649 0
M  V30 1238 H 110.059 -3.28028 4.40101 0
M  V30 1239 H 110.32 -3.51606 2.68003 0
M  V30 1240 N 109.379 -1.50304 -0.473955 0
M  V30 1241 C 110.607 -1.64902 -1.24959 0
M  V30 1242 C 111.022 -0.331198 -1.85872 0
M  V30 1243 O 110.379 0.68652 -1.69095 0
M  V30 1244 C 110.43 -2.73803 -2.36038 0
M  V30 1245 O 110.151 -4.00477 -1.77624 0
M  V30 1246 C 111.652 -2.99349 -3.26964 0
M  V30 1247 H 108.872 -0.554383 -0.378022 0
M  V30 1248 H 111.416 -1.9651 -0.566054 0
M  V30 1249 H 109.571 -2.44898 -3.00173 0
M  V30 1250 H 109.985 -4.60678 -2.5075 0
M  V30 1251 H 111.459 -3.79217 -4.01121 0
M  V30 1252 H 111.936 -2.10307 -3.85574 0
M  V30 1253 H 112.542 -3.29774 -2.68569 0
M  V30 1254 N 110.857 0.726932 -1.39834 0
M  V30 1255 C 112.082 1.52121 -1.40976 0
M  V30 1256 C 112.507 1.88098 -0.00826029 0
M  V30 1257 O 111.865 1.52479 0.980807 0
M  V30 1258 C 111.913 2.78021 -2.29644 0
M  V30 1259 O 111.017 3.74272 -1.73188 0
M  V30 1260 H 110.358 0.45908 -0.479731 0
M  V30 1261 H 112.888 0.896207 -1.83927 0
M  V30 1262 H 112.898 3.26671 -2.44438 0
M  V30 1263 H 111.573 2.51169 -3.31492 0
M  V30 1264 H 110.15 3.33073 -1.6768 0
M  V30 1265 N 112.336 1.25143 0.95797 0
M  V30 1266 C 113.583 1.09692 1.70217 0
M  V30 1267 C 113.911 -0.362654 1.91089 0
M  V30 1268 O 113.166 -1.28386 1.47701 0
M  V30 1269 C 113.465 1.79272 3.09187 0
M  V30 1270 C 113.131 3.29196 3.08125 0
M  V30 1271 C 111.793 3.70096 3.07543 0
M  V30 1272 C 114.145 4.24995 3.0171 0
M  V30 1273 C 111.473 5.05213 2.9829 0
M  V30 1274 C 113.825 5.60132 2.93999 0
M  V30 1275 C 112.489 6.00365 2.9175 0
M  V30 1276 H 111.759 0.401393 0.622868 0
M  V30 1277 H 114.406 1.55372 1.11945 0
M  V30 1278 H 112.711 1.26014 3.70982 0
M  V30 1279 H 114.408 1.64773 3.65583 0
M  V30 1280 H 110.998 2.96651 3.09348 0
M  V30 1281 H 115.182 3.9439 3.01281 0
M  V30 1282 H 110.438 5.35569 2.94916 0
M  V30 1283 H 114.612 6.3406 2.87996 0
M  V30 1284 H 112.239 7.05023 2.84336 0
M  V30 1285 N 113.814 -1.1601 1.06675 0
M  V30 1286 C 115.062 -1.86264 0.784229 0
M  V30 1287 C 115.383 -1.82328 -0.691488 0
M  V30 1288 O 114.653 -1.25947 -1.50047 0
M  V30 1289 H 113.233 -0.689621 0.28711 0
M  V30 1290 H 115.895 -1.40664 1.34906 0
M  V30 1291 H 114.991 -2.91595 1.11259 0
M  V30 1292 N 115.292 -0.849877 -1.32721 0
M  V30 1293 C 116.703 -0.506188 -1.79707 0
M  V30 1294 C 117.054 0.975627 -1.70223 0
M  V30 1295 O 116.179 1.76078 -1.25799 0
M  V30 1296 C 116.774 -0.912044 -3.26293 0
M  V30 1297 C 115.333 -0.620326 -3.71253 0
M  V30 1298 C 114.48 -1.11439 -2.53922 0
M  V30 1299 H 117.431 -1.03754 -1.20087 0
M  V30 1300 H 117.452 -0.226493 -3.79825 0
M  V30 1301 H 116.964 -1.99057 -3.33164 0
M  V30 1302 H 115.065 0.447674 -3.69901 0
M  V30 1303 H 115.178 -1.18327 -4.64258 0
M  V30 1304 H 113.542 -0.534834 -2.49021 0
M  V30 1305 H 114.325 -2.19992 -2.6355 0
M  V30 1306 N 116.77 1.45427 -0.607355 0
M  V30 1307 C 118.016 2.0254 -0.102607 0
M  V30 1308 C 118.349 1.47478 1.26348 0
M  V30 1309 O 117.624 0.64939 1.83339 0
M  V30 1310 C 117.907 3.60044 -0.0634347 0
M  V30 1311 C 117.76 4.2544 -1.46017 0
M  V30 1312 C 119.079 4.35646 0.624514 0
M  V30 1313 H 116.198 0.73598 -0.0387607 0
M  V30 1314 H 118.84 1.73284 -0.779282 0
M  V30 1315 H 116.99 3.85101 0.512808 0
M  V30 1316 H 118.662 4.11569 -2.08347 0
M  V30 1317 H 116.905 3.83849 -2.02094 0
M  V30 1318 H 117.576 5.34342 -1.385 0
M  V30 1319 H 120.052 4.15882 0.134723 0
M  V30 1320 H 118.928 5.45376 0.621028 0
M  V30 1321 H 119.189 4.08501 1.69055 0
M  V30 1322 N 118.248 0.346503 1.53744 0
M  V30 1323 C 119.473 -0.253074 2.0585 0
M  V30 1324 C 119.898 -1.43202 1.21962 0
M  V30 1325 O 119.256 -1.79783 0.234073 0
M  V30 1326 C 119.304 -0.643193 3.54817 0
M  V30 1327 O 118.408 -1.74286 3.73762 0
M  V30 1328 H 117.749 -0.0413583 0.662711 0
M  V30 1329 H 120.279 0.501574 1.98357 0
M  V30 1330 H 120.289 -0.919526 3.97503 0
M  V30 1331 H 118.964 0.218966 4.15323 0
M  V30 1332 H 117.541 -1.46356 3.42979 0
M  V30 1333 N 119.726 -1.57421 0.075193 0
M  V30 1334 C 121.003 -1.85029 -0.634329 0
M  V30 1335 C 121.383 -0.968305 -1.87582 0
M  V30 1336 O 120.731 -0.0354749 -2.28472 0
M  V30 1337 C 120.941 -3.35286 -0.968742 0
M  V30 1338 C 122.289 -4.02875 -1.34077 0
M  V30 1339 O 123.313 -3.40051 -1.06037 0
M  V30 1340 O 122.172 -5.13691 -1.86506 0
M  V30 1341 H 119.266 -0.7645 -0.315387 0
M  V30 1342 H 121.812 -1.69366 0.106382 0
M  V30 1343 H 120.584 -3.91203 -0.0871376 0
M  V30 1344 H 120.207 -3.56223 -1.7661 0
M  V30 1345 N 121.204 0.198386 -1.56346 0
M  V30 1346 C 122.432 0.935572 -1.84539 0
M  V30 1347 C 122.847 1.76989 -0.657281 0
M  V30 1348 O 122.204 1.78626 0.374043 0
M  V30 1349 C 122.255 1.8344 -3.11499 0
M  V30 1350 O 121.976 1.03377 -4.25728 0
M  V30 1351 C 123.477 2.68355 -3.52846 0
M  V30 1352 H 120.697 0.273126 -0.612897 0
M  V30 1353 H 123.241 0.20663 -2.03453 0
M  V30 1354 H 121.396 2.51701 -2.94492 0
M  V30 1355 H 121.81 1.64599 -4.98003 0
M  V30 1356 H 123.284 3.27085 -4.44657 0
M  V30 1357 H 123.761 3.41901 -2.75681 0
M  V30 1358 H 124.367 2.05471 -3.72373 0
M  V30 1359 N 122.682 1.50554 0.465978 0
M  V30 1360 C 123.959 1.5232 1.22712 0
M  V30 1361 C 124.339 0.270807 2.09356 0
M  V30 1362 O 123.687 -0.745541 2.15995 0
M  V30 1363 C 123.897 2.82175 2.05374 0
M  V30 1364 C 125.245 3.33033 2.6339 0
M  V30 1365 O 126.269 2.83531 2.15612 0
M  V30 1366 O 125.128 4.19336 3.50456 0
M  V30 1367 H 122.222 0.611183 0.557122 0
M  V30 1368 H 124.768 1.62847 0.477381 0
M  V30 1369 H 123.54 3.64797 1.41558 0
M  V30 1370 H 123.163 2.74675 2.87471 0
M  V30 1371 N 124.16 -0.719506 1.40217 0
M  V30 1372 C 125.093 -1.84298 1.34571 0
M  V30 1373 C 126.071 -1.61149 0.216741 0
M  V30 1374 O 127.255 -1.84212 0.399756 0
M  V30 1375 C 124.382 -3.20568 1.09335 0
M  V30 1376 C 123.428 -3.62551 2.24631 0
M  V30 1377 S 124.261 -3.7012 3.87004 0
M  V30 1378 C 125.417 -5.09154 3.64024 0
M  V30 1379 H 125.65 -1.88807 2.2965 0
M  V30 1380 H 123.183 -0.885901 1.26456 0
M  V30 1381 H 125.141 -3.99246 0.954602 0
M  V30 1382 H 123.802 -3.13696 0.159164 0
M  V30 1383 H 122.995 -4.61483 2.02606 0
M  V30 1384 H 122.597 -2.91119 2.34789 0
M  V30 1385 H 124.889 -5.95955 3.22248 0
M  V30 1386 H 125.832 -5.36213 4.62473 0
M  V30 1387 H 126.24 -4.79562 2.97793 0
M  V30 1388 N 125.638 -1.25649 -0.95132 0
M  V30 1389 C 126.548 -1.08073 -2.08224 0
M  V30 1390 C 127.564 -0.0169666 -1.73992 0
M  V30 1391 O 128.74 -0.218593 -2.0021 0
M  V30 1392 C 125.805 -0.704922 -3.39458 0
M  V30 1393 C 124.866 -1.84699 -3.87537 0
M  V30 1394 C 124.099 -1.48902 -5.12508 0
M  V30 1395 O 124.322 -0.386156 -5.69091 0
M  V30 1396 O 123.256 -2.32033 -5.55378 0
M  V30 1397 H 127.082 -2.02924 -2.25954 0
M  V30 1398 H 124.667 -1.04618 -1.06656 0
M  V30 1399 H 126.549 -0.507609 -4.18332 0
M  V30 1400 H 125.224 0.214291 -3.2299 0
M  V30 1401 H 124.131 -2.09919 -3.09653 0
M  V30 1402 H 125.464 -2.74557 -4.08509 0
M  V30 1403 N 127.117 1.15442 -1.07289 0
M  V30 1404 C 128.347 1.89821 -0.815576 0
M  V30 1405 C 128.755 1.7823 0.634867 0
M  V30 1406 O 128.098 1.13152 1.44715 0
M  V30 1407 C 128.16 3.40817 -1.14385 0
M  V30 1408 C 127.824 3.76193 -2.59476 0
M  V30 1409 C 128.821 3.77269 -3.57721 0
M  V30 1410 C 126.506 4.0652 -2.95037 0
M  V30 1411 C 128.5 4.08176 -4.89562 0
M  V30 1412 C 126.187 4.37092 -4.27076 0
M  V30 1413 C 127.185 4.37902 -5.24148 0
M  V30 1414 O 126.873 4.67741 -6.53815 0
M  V30 1415 H 126.605 0.608465 -0.294528 0
M  V30 1416 H 129.159 1.472 -1.43252 0
M  V30 1417 H 127.389 3.83835 -0.469865 0
M  V30 1418 H 129.078 3.96485 -0.869179 0
M  V30 1419 H 129.844 3.5394 -3.3159 0
M  V30 1420 H 125.723 4.05049 -2.20128 0
M  V30 1421 H 129.267 4.08723 -5.65324 0
M  V30 1422 H 125.164 4.59889 -4.5296 0
M  V30 1423 H 125.932 4.85509 -6.58957 0
M  V30 1424 N 128.595 0.856903 1.32268 0
M  V30 1425 C 129.823 0.475439 2.01363 0
M  V30 1426 C 130.238 -0.928486 1.64392 0
M  V30 1427 O 129.595 -1.60624 0.866387 0
M  V30 1428 C 129.646 0.607545 3.56358 0
M  V30 1429 O 129.367 1.95617 3.92002 0
M  V30 1430 C 130.868 0.225382 4.42727 0
M  V30 1431 H 128.088 0.186636 0.644521 0
M  V30 1432 H 130.632 1.15446 1.68797 0
M  V30 1433 H 128.787 -0.0237719 3.87393 0
M  V30 1434 H 129.201 1.95455 4.86721 0
M  V30 1435 H 130.675 0.368813 5.50767 0
M  V30 1436 H 131.152 -0.834369 4.31202 0
M  V30 1437 H 131.758 0.831864 4.17085 0
M  V30 1438 N 130.073 -1.45103 0.615059 0
M  V30 1439 C 131.322 -2.01396 0.110718 0
M  V30 1440 C 131.635 -1.48834 -1.26916 0
M  V30 1441 O 132.841 -1.97152 -1.86664 0
M  V30 1442 C 131.297 -3.59599 0.14723 0
M  V30 1443 C 130.905 -4.21158 1.52743 0
M  V30 1444 C 132.649 -4.23428 -0.30148 0
M  V30 1445 C 130.556 -5.71535 1.51992 0
M  V30 1446 H 129.486 -0.753061 0.0376241 0
M  V30 1447 H 132.137 -1.66494 0.77149 0
M  V30 1448 H 130.519 -3.91724 -0.580339 0
M  V30 1449 H 131.693 -4.00594 2.2773 0
M  V30 1450 H 130.008 -3.69552 1.91886 0
M  V30 1451 H 132.605 -5.33703 -0.326392 0
M  V30 1452 H 132.948 -3.94629 -1.32565 0
M  V30 1453 H 133.481 -3.96047 0.373065 0
M  V30 1454 H 130.22 -6.05044 2.52193 0
M  V30 1455 H 129.74 -5.94268 0.81274 0
M  V30 1456 H 131.419 -6.34873 1.24681 0
M  V30 1457 N 131.551 -0.354651 -1.53558 0
M  V30 1458 C 132.828 0.294281 -1.93374 0
M  V30 1459 C 133.208 1.67313 -1.28723 0
M  V30 1460 O 132.556 2.24179 -0.442247 0
M  V30 1461 C 132.766 0.355445 -3.47185 0
M  V30 1462 C 134.114 0.601007 -4.20325 0
M  V30 1463 O 135.138 0.437106 -3.53508 0
M  V30 1464 O 133.997 0.919322 -5.38712 0
M  V30 1465 H 131.091 0.174033 -0.808481 0
M  V30 1466 H 133.637 -0.406638 -1.64756 0
M  V30 1467 H 132.409 -0.611729 -3.86489 0
M  V30 1468 H 132.032 1.1027 -3.82003 0
M  V30 1469 N 133.029 1.57378 -0.0835403 0
M  V30 1470 C 134.275 1.94217 0.583733 0
M  V30 1471 C 134.608 0.964653 1.68547 0
M  V30 1472 O 133.883 -0.00422258 1.945 0
M  V30 1473 C 134.166 3.41253 1.14972 0
M  V30 1474 C 134.019 4.49768 0.0538277 0
M  V30 1475 C 135.338 3.89352 2.05166 0
M  V30 1476 H 132.457 0.706233 0.210724 0
M  V30 1477 H 135.099 1.89392 -0.1519 0
M  V30 1478 H 133.249 3.45496 1.77665 0
M  V30 1479 H 134.921 4.57641 -0.579851 0
M  V30 1480 H 133.164 4.29432 -0.614068 0
M  V30 1481 H 133.835 5.49817 0.490452 0
M  V30 1482 H 136.311 3.87189 1.52393 0
M  V30 1483 H 135.187 4.92822 2.41698 0
M  V30 1484 H 135.448 3.27973 2.96456 0
M  V30 1485 N 134.507 -0.190092 1.56449 0
M  V30 1486 C 135.754 -0.909705 1.80916 0
M  V30 1487 C 136.082 -1.83047 0.657583 0
M  V30 1488 O 135.337 -1.92428 -0.356356 0
M  V30 1489 C 135.636 -1.75382 3.1141 0
M  V30 1490 C 135.302 -0.983606 4.40041 0
M  V30 1491 C 133.964 -0.770967 4.74984 0
M  V30 1492 C 136.316 -0.442024 5.19322 0
M  V30 1493 C 133.644 -0.0053448 5.867 0
M  V30 1494 C 135.996 0.310412 6.31838 0
M  V30 1495 C 134.66 0.534023 6.6536 0
M  V30 1496 H 133.93 -0.332885 0.662019 0
M  V30 1497 H 136.577 -0.175762 1.90692 0
M  V30 1498 H 134.882 -2.55659 2.96893 0
M  V30 1499 H 136.579 -2.31331 3.27547 0
M  V30 1500 H 133.169 -1.15936 4.12622 0
M  V30 1501 H 137.353 -0.593693 4.92736 0
M  V30 1502 H 132.609 0.177825 6.11141 0
M  V30 1503 H 136.783 0.737419 6.92485 0
M  V30 1504 H 134.41 1.12918 7.51767 0
M  V30 1505 N 135.985 -1.50799 -0.457987 0
M  V30 1506 C 137.232 -1.62442 -1.20908 0
M  V30 1507 C 137.56 -0.330865 -1.91665 0
M  V30 1508 O 136.815 0.68401 -1.83357 0
M  V30 1509 C 137.114 -2.76358 -2.2663 0
M  V30 1510 C 136.78 -4.16378 -1.73033 0
M  V30 1511 C 135.442 -4.54473 -1.58138 0
M  V30 1512 C 137.794 -5.03836 -1.33413 0
M  V30 1513 C 135.122 -5.77754 -1.02065 0
M  V30 1514 C 137.474 -6.27676 -0.78778 0
M  V30 1515 C 136.138 -6.64562 -0.625561 0
M  V30 1516 H 135.408 -0.594417 -0.442435 0
M  V30 1517 H 138.055 -1.84772 -0.503136 0
M  V30 1518 H 136.36 -2.48167 -3.03184 0
M  V30 1519 H 138.057 -2.82568 -2.84528 0
M  V30 1520 H 134.647 -3.86331 -1.85598 0
M  V30 1521 H 138.831 -4.75026 -1.4375 0
M  V30 1522 H 134.087 -6.04997 -0.882547 0
M  V30 1523 H 138.261 -6.94797 -0.472177 0
M  V30 1524 H 135.888 -7.59965 -0.188926 0
M  V30 1525 N 137.463 0.71206 -1.40597 0
M  V30 1526 C 138.879 1.02058 -1.22704 0
M  V30 1527 C 139.079 2.01228 -0.104729 0
M  V30 1528 O 138.135 2.4674 0.53624 0
M  V30 1529 C 139.448 1.56094 -2.57012 0
M  V30 1530 C 140.996 1.6806 -2.64054 0
M  V30 1531 C 141.471 2.25501 -3.9864 0
M  V30 1532 N 142.962 2.32882 -4.004 0
M  V30 1533 C 143.697 2.78317 -5.01325 0
M  V30 1534 N 143.193 3.23478 -6.12645 0
M  V30 1535 N 144.986 2.77733 -4.88693 0
M  V30 1536 H 137.137 0.0547896 -2.12329 0
M  V30 1537 H 139.4 0.0869027 -0.944008 0
M  V30 1538 H 139.106 0.906865 -3.39807 0
M  V30 1539 H 138.98 2.54564 -2.78347 0
M  V30 1540 H 141.367 2.32583 -1.81629 0
M  V30 1541 H 141.448 0.681802 -2.46546 0
M  V30 1542 H 141.092 1.61598 -4.81506 0
M  V30 1543 H 141.022 3.26102 -4.13479 0
M  V30 1544 H 143.513 2.00991 -3.20017 0
M  V30 1545 H 143.826 3.56725 -6.85542 0
M  V30 1546 H 142.171 3.21429 -6.16205 0
M  V30 1547 H 145.362 2.4179 -4.00818 0
M  V30 1548 H 145.535 3.12826 -5.67489 0
M  V30 1549 N 138.941 1.26152 0.944643 0
M  V30 1550 C 139.873 1.03199 2.04652 0
M  V30 1551 C 140.886 -0.00642356 1.62799 0
M  V30 1552 O 142.075 0.233263 1.76969 0
M  V30 1553 C 139.175 0.540111 3.34568 0
M  V30 1554 C 138.348 1.64697 4.05208 0
M  V30 1555 C 137.407 1.15374 5.13396 0
M  V30 1556 O 136.433 1.85013 5.38293 0
M  V30 1557 N 137.635 0.00031529 5.805 0
M  V30 1558 H 140.4 1.9808 2.2491 0
M  V30 1559 H 137.961 1.17491 1.11389 0
M  V30 1560 H 139.953 0.194401 4.04233 0
M  V30 1561 H 138.523 -0.315021 3.11009 0
M  V30 1562 H 137.743 2.16379 3.29506 0
M  V30 1563 H 139.031 2.3903 4.49157 0
M  V30 1564 H 138.429 -0.581336 5.62705 0
M  V30 1565 H 136.986 -0.286346 6.51171 0
M  V30 1566 N 140.419 -1.14872 1.07899 0
M  V30 1567 C 141.366 -2.19791 0.704319 0
M  V30 1568 C 142.336 -1.63238 -0.306987 0
M  V30 1569 O 143.521 -1.8983 -0.192171 0
M  V30 1570 C 140.661 -3.44911 0.114244 0
M  V30 1571 C 139.774 -4.15637 1.1777 0
M  V30 1572 C 138.909 -5.28324 0.552037 0
M  V30 1573 C 137.948 -5.90875 1.59789 0
M  V30 1574 N 137.085 -6.95022 0.994404 0
M  V30 1575 H 141.925 -2.5119 1.60336 0
M  V30 1576 H 139.462 -1.23356 0.801352 0
M  V30 1577 H 141.42 -4.16477 -0.245544 0
M  V30 1578 H 140.05 -3.14011 -0.74813 0
M  V30 1579 H 139.102 -3.42512 1.65499 0
M  V30 1580 H 140.414 -4.5823 1.97046 0
M  V30 1581 H 139.568 -6.06538 0.1402 0
M  V30 1582 H 138.307 -4.86939 -0.272431 0
M  V30 1583 H 137.312 -5.11369 2.01945 0
M  V30 1584 H 138.537 -6.34337 2.42474 0
M  V30 1585 H 136.483 -6.55722 0.190939 0
M  V30 1586 H 136.4 -7.36073 1.72432 0
M  V30 1587 H 137.668 -7.77123 0.608253 0
M  V30 1588 N 141.898 -0.863906 -1.31812 0
M  V30 1589 C 143.144 -0.481841 -1.9761 0
M  V30 1590 C 143.499 0.954048 -1.6708 0
M  V30 1591 O 142.792 1.66182 -0.953624 0
M  V30 1592 C 142.986 -0.668547 -3.51091 0
M  V30 1593 C 142.815 -2.12103 -3.96538 0
M  V30 1594 C 141.585 -2.76141 -4.23171 0
M  V30 1595 C 143.783 -3.09265 -4.10925 0
M  V30 1596 N 141.765 -4.12205 -4.54929 0
M  V30 1597 C 143.136 -4.30341 -4.46326 0
M  V30 1598 C 145.191 -3.05337 -3.93286 0
M  V30 1599 C 143.894 -5.48 -4.65928 0
M  V30 1600 C 145.92 -4.22248 -4.14078 0
M  V30 1601 C 145.282 -5.42085 -4.49804 0
M  V30 1602 H 141.381 -0.225238 -0.74886 0
M  V30 1603 H 143.965 -1.11723 -1.59455 0
M  V30 1604 H 142.136 -0.0627898 -3.88349 0
M  V30 1605 H 143.868 -0.255467 -4.03893 0
M  V30 1606 H 140.623 -2.27125 -4.15585 0
M  V30 1607 H 141.047 -4.82416 -4.74978 0
M  V30 1608 H 145.689 -2.138 -3.64759 0
M  V30 1609 H 143.407 -6.40059 -4.93305 0
M  V30 1610 H 146.993 -4.20654 -4.01922 0
M  V30 1611 H 145.873 -6.31044 -4.65567 0
M  V30 1612 N 143.376 1.44774 -0.622745 0
M  V30 1613 C 144.323 2.30635 0.0871679 0
M  V30 1614 C 145.293 1.42994 0.845097 0
M  V30 1615 O 146.478 1.71907 0.827812 0
M  V30 1616 C 143.618 3.28144 1.06844 0
M  V30 1617 C 142.731 4.30888 0.309809 0
M  V30 1618 C 141.866 5.15494 1.28215 0
M  V30 1619 C 140.905 6.09953 0.512198 0
M  V30 1620 N 140.042 6.87287 1.43458 0
M  V30 1621 H 144.882 2.90803 -0.650974 0
M  V30 1622 H 142.419 1.43286 -0.33281 0
M  V30 1623 H 144.377 3.83157 1.65066 0
M  V30 1624 H 143.007 2.69695 1.77382 0
M  V30 1625 H 142.059 3.78414 -0.388181 0
M  V30 1626 H 143.371 4.97955 -0.290254 0
M  V30 1627 H 142.525 5.74983 1.93596 0
M  V30 1628 H 141.264 4.48481 1.91614 0
M  V30 1629 H 140.269 5.49581 -0.155151 0
M  V30 1630 H 141.494 6.78999 -0.116958 0
M  V30 1631 H 139.44 6.2295 2.05594 0
M  V30 1632 H 139.357 7.50763 0.888335 0
M  V30 1633 H 140.625 7.51306 2.07749 0
M  V30 1634 N 144.854 0.36279 1.53368 0
M  V30 1635 C 146.131 -0.284021 1.93527 0
M  V30 1636 C 146.511 -1.66628 1.29608 0
M  V30 1637 O 145.859 -2.23942 0.45413 0
M  V30 1638 C 146.069 -0.337028 3.47369 0
M  V30 1639 C 147.417 -0.578708 4.20638 0
M  V30 1640 O 148.441 -0.418352 3.53735 0
M  V30 1641 O 147.3 -0.89074 5.39192 0
M  V30 1642 H 144.394 -0.169743 0.809393 0
M  V30 1643 H 146.94 0.41537 1.64538 0
M  V30 1644 H 145.712 0.632217 3.86159 0
M  V30 1645 H 145.335 -1.08243 3.82582 0
M  V30 1646 N 146.332 -1.57332 0.0918853 0
M  V30 1647 C 147.242 -2.17368 -0.882505 0
M  V30 1648 C 148.258 -1.14226 -1.31257 0
M  V30 1649 O 149.434 -1.46582 -1.38115 0
M  V30 1650 C 146.499 -2.73962 -2.12476 0
M  V30 1651 C 145.56 -3.92048 -1.7492 0
M  V30 1652 C 144.793 -4.45933 -2.93223 0
M  V30 1653 O 145.016 -3.98764 -4.07852 0
M  V30 1654 O 143.95 -5.36999 -2.71875 0
M  V30 1655 H 147.776 -3.01031 -0.40172 0
M  V30 1656 H 145.361 -1.48813 -0.132291 0
M  V30 1657 H 147.243 -3.10147 -2.85283 0
M  V30 1658 H 145.918 -1.93347 -2.59613 0
M  V30 1659 H 144.825 -3.6068 -0.993025 0
M  V30 1660 H 146.158 -4.74017 -1.32548 0
M  V30 1661 N 147.81 0.181792 -1.56548 0
M  V30 1662 C 149.226 0.53316 -1.50431 0
M  V30 1663 C 149.426 1.85184 -0.794297 0
M  V30 1664 O 148.482 2.50058 -0.350318 0
M  V30 1665 C 149.795 0.575597 -2.9514 0
M  V30 1666 C 151.343 0.663519 -3.05886 0
M  V30 1667 C 151.818 0.736946 -4.52032 0
M  V30 1668 N 153.309 0.800118 -4.56237 0
M  V30 1669 C 154.044 0.877327 -5.66649 0
M  V30 1670 N 153.54 0.916016 -6.86718 0
M  V30 1671 N 155.333 0.915542 -5.54594 0
M  V30 1672 H 147.484 -0.683025 -2.01118 0
M  V30 1673 H 149.747 -0.244988 -0.915797 0
M  V30 1674 H 149.453 -0.324482 -3.502 0
M  V30 1675 H 149.327 1.42572 -3.49218 0
M  V30 1676 H 151.714 1.55403 -2.50867 0
M  V30 1677 H 151.795 -0.21307 -2.54911 0
M  V30 1678 H 151.439 -0.149262 -5.07681 0
M  V30 1679 H 151.369 1.62953 -5.00753 0
M  V30 1680 H 153.86 0.778926 -3.69785 0
M  V30 1681 H 154.173 0.975813 -7.66614 0
M  V30 1682 H 152.518 0.884469 -6.89349 0
M  V30 1683 H 155.709 0.882245 -4.59711 0
M  V30 1684 H 155.882 0.972253 -6.40665 0
M  V30 1685 N 149.288 1.51039 0.449983 0
M  V30 1686 C 150.218 1.74379 1.55288 0
M  V30 1687 C 151.199 0.593236 1.5942 0
M  V30 1688 O 152.384 0.834625 1.7535 0
M  V30 1689 C 149.514 1.85728 2.93466 0
M  V30 1690 C 148.468 3.01078 3.04197 0
M  V30 1691 C 147.794 2.97595 4.44231 0
M  V30 1692 C 149.094 4.41254 2.7945 0
M  V30 1693 H 150.788 2.66725 1.36008 0
M  V30 1694 H 148.334 1.2835 0.652864 0
M  V30 1695 H 150.287 2.0064 3.70569 0
M  V30 1696 H 149.011 0.900207 3.13949 0
M  V30 1697 H 147.67 2.85851 2.29531 0
M  V30 1698 H 147.318 1.99691 4.61663 0
M  V30 1699 H 147.018 3.75046 4.52343 0
M  V30 1700 H 148.542 3.14583 5.23326 0
M  V30 1701 H 149.956 4.56897 3.46292 0
M  V30 1702 H 148.353 5.20315 2.98985 0
M  V30 1703 H 149.423 4.52164 1.75144 0
M  V30 1704 N 150.766 -0.704594 1.40972 0
M  V30 1705 C 151.713 -1.81862 1.42109 0
M  V30 1706 C 152.683 -1.63781 0.276593 0
M  V30 1707 O 153.868 -1.84759 0.4763 0
M  V30 1708 C 151.008 -3.19669 1.30022 0
M  V30 1709 C 150.121 -3.49246 2.54267 0
M  V30 1710 C 149.256 -4.76618 2.3454 0
M  V30 1711 C 148.295 -4.99133 3.54306 0
M  V30 1712 N 147.432 -6.17726 3.33706 0
M  V30 1713 H 152.272 -1.80226 2.37324 0
M  V30 1714 H 149.809 -0.880238 1.17857 0
M  V30 1715 H 151.767 -3.99263 1.21018 0
M  V30 1716 H 150.397 -3.20506 0.384192 0
M  V30 1717 H 149.449 -2.64125 2.73756 0
M  V30 1718 H 150.761 -3.61788 3.43381 0
M  V30 1719 H 149.915 -5.64249 2.22952 0
M  V30 1720 H 148.654 -4.66305 1.42867 0
M  V30 1721 H 147.659 -4.09953 3.66359 0
M  V30 1722 H 148.884 -5.11311 4.4692 0
M  V30 1723 H 146.83 -6.08642 2.44725 0
M  V30 1724 H 146.747 -6.30995 4.16391 0
M  V30 1725 H 148.015 -7.08115 3.25873 0
M  V30 1726 N 152.244 -1.26651 -0.937939 0
M  V30 1727 C 153.491 -1.12387 -1.6845 0
M  V30 1728 C 153.819 0.332208 -1.91642 0
M  V30 1729 O 153.074 1.2602 -1.49725 0
M  V30 1730 C 153.373 -1.84168 -3.06295 0
M  V30 1731 C 153.039 -3.34056 -3.02849 0
M  V30 1732 C 151.701 -3.74942 -3.01616 0
M  V30 1733 C 154.053 -4.29741 -2.9491 0
M  V30 1734 C 151.381 -5.09894 -2.90215 0
M  V30 1735 C 153.733 -5.64738 -2.8505 0
M  V30 1736 C 152.397 -6.0493 -2.82162 0
M  V30 1737 H 151.667 -0.411252 -0.616403 0
M  V30 1738 H 154.314 -1.57134 -1.09459 0
M  V30 1739 H 152.619 -1.319 -3.6893 0
M  V30 1740 H 154.316 -1.70569 -3.62915 0
M  V30 1741 H 150.906 -3.01534 -3.0459 0
M  V30 1742 H 155.09 -3.99133 -2.94969 0
M  V30 1743 H 150.346 -5.40194 -2.86358 0
M  V30 1744 H 154.52 -6.38561 -2.77872 0
M  V30 1745 H 152.147 -7.09457 -2.73084 0
M  V30 1746 N 153.722 1.14298 -1.08507 0
M  V30 1747 C 154.669 2.19414 -0.715965 0
M  V30 1748 C 155.639 1.63399 0.298326 0
M  V30 1749 O 156.824 1.89929 0.182101 0
M  V30 1750 C 153.964 3.44845 -0.132534 0
M  V30 1751 C 153.077 4.15007 -1.19973 0
M  V30 1752 C 152.212 5.28024 -0.580048 0
M  V30 1753 C 151.251 5.9002 -1.62921 0
M  V30 1754 N 150.388 6.94485 -1.03125 0
M  V30 1755 H 155.228 2.50336 -1.61666 0
M  V30 1756 H 152.765 1.2293 -0.807882 0
M  V30 1757 H 154.723 4.16601 0.223454 0
M  V30 1758 H 153.353 3.14403 0.731467 0
M  V30 1759 H 152.405 3.41629 -1.67313 0
M  V30 1760 H 153.717 4.57178 -1.99473 0
M  V30 1761 H 152.871 6.06455 -0.172364 0
M  V30 1762 H 151.61 4.87076 0.246603 0
M  V30 1763 H 150.615 5.10291 -2.04654 0
M  V30 1764 H 151.84 6.33042 -2.45835 0
M  V30 1765 H 149.786 6.55612 -0.225711 0
M  V30 1766 H 149.703 7.35148 -1.76334 0
M  V30 1767 H 150.971 7.7679 -0.649458 0
M  V30 1768 N 155.201 0.870884 1.31352 0
M  V30 1769 C 156.449 0.48132 1.96285 0
M  V30 1770 C 156.77 -0.969813 1.69173 0
M  V30 1771 O 156.04 -1.67998 1.00764 0
M  V30 1772 H 154.62 0.175002 0.726212 0
M  V30 1773 H 157.282 1.11087 1.60143 0
M  V30 1774 H 156.378 0.639825 3.05471 0
M  V30 1775 N 156.679 -1.44442 0.630414 0
M  V30 1776 C 158.09 -1.85434 0.217063 0
M  V30 1777 C 158.441 -1.52748 -1.23136 0
M  V30 1778 O 157.566 -0.965205 -1.93682 0
M  V30 1779 C 158.161 -3.36581 0.387168 0
M  V30 1780 C 156.72 -3.76389 0.0283297 0
M  V30 1781 C 155.867 -2.68296 0.700889 0
M  V30 1782 H 158.818 -1.34919 0.83562 0
M  V30 1783 H 158.839 -3.78657 -0.374086 0
M  V30 1784 H 158.351 -3.60339 1.44144 0
M  V30 1785 H 156.452 -3.58246 -1.02423 0
M  V30 1786 H 156.565 -4.77095 0.437892 0
M  V30 1787 H 154.929 -2.54335 0.136267 0
M  V30 1788 H 155.712 -2.94887 1.75774 0
M  V30 1789 N 158.157 -0.370918 -1.53173 0
M  V30 1790 C 159.09 0.516727 -2.22273 0
M  V30 1791 C 160.068 1.07877 -1.21661 0
M  V30 1792 O 161.252 1.13389 -1.50583 0
M  V30 1793 C 158.379 1.71346 -2.92161 0
M  V30 1794 C 157.425 1.27838 -4.0689 0
M  V30 1795 S 158.258 0.275217 -5.34792 0
M  V30 1796 C 159.414 1.47816 -6.08195 0
M  V30 1797 H 159.647 -0.0701054 -2.97217 0
M  V30 1798 H 157.18 -0.155038 -1.5362 0
M  V30 1799 H 159.138 2.39988 -3.3304 0
M  V30 1800 H 157.799 2.27156 -2.16931 0
M  V30 1801 H 156.992 2.17141 -4.54825 0
M  V30 1802 H 156.594 0.671105 -3.6793 0
M  V30 1803 H 158.886 2.40831 -6.33251 0
M  V30 1804 H 159.829 1.04008 -7.0042 0
M  V30 1805 H 160.237 1.68663 -5.38714 0
M  V30 1806 N 159.635 1.57281 -0.100228 0
M  V30 1807 C 160.583 2.15542 0.874328 0
M  V30 1808 C 161.577 1.09962 1.28859 0
M  V30 1809 O 162.783 1.28298 1.26252 0
M  V30 1810 H 159.158 0.689567 0.300003 0
M  V30 1811 H 161.129 2.96241 0.35829 0
M  V30 1812 C 159.878 2.75454 2.1218 0
M  V30 1813 H 159.201 3.56384 1.81193 0
M  V30 1814 H 160.641 3.19781 2.78417 0
M  V30 1815 C 159.1 1.71602 2.89921 0
M  V30 1816 O 159.63 1.15804 3.84646 0
M  V30 1817 N 157.836 1.41975 2.53558 0
M  V30 1818 H 157.383 1.87539 1.76598 0
M  V30 1819 H 157.341 0.727274 3.05873 0
M  V30 1820 N 161.113 -0.173488 1.56642 0
M  V30 1821 C 162.362 -0.888758 1.81063 0
M  V30 1822 C 162.675 -1.83506 0.67712 0
M  V30 1823 O 163.881 -2.59254 0.806206 0
M  V30 1824 C 162.337 -1.63091 3.20826 0
M  V30 1825 C 161.945 -0.728357 4.4204 0
M  V30 1826 C 163.689 -2.33454 3.54541 0
M  V30 1827 C 161.596 -1.47062 5.72823 0
M  V30 1828 H 160.526 -0.335618 0.675186 0
M  V30 1829 H 163.177 -0.141712 1.82952 0
M  V30 1830 H 161.559 -2.42263 3.13248 0
M  V30 1831 H 162.733 0.0262449 4.60793 0
M  V30 1832 H 161.048 -0.134492 4.16183 0
M  V30 1833 H 163.645 -2.89578 4.49498 0
M  V30 1834 H 163.988 -3.08687 2.79317 0
M  V30 1835 H 164.521 -1.61227 3.63663 0
M  V30 1836 H 161.26 -0.760658 6.51072 0
M  V30 1837 H 160.78 -2.1986 5.58052 0
M  V30 1838 H 162.459 -2.01868 6.14702 0
M  V30 1839 N 162.591 -1.51276 -0.441967 0
M  V30 1840 C 163.521 -1.752 -1.54361 0
M  V30 1841 C 164.502 -0.601682 -1.59103 0
M  V30 1842 O 165.687 -0.843913 -1.74905 0
M  V30 1843 C 162.817 -1.87282 -2.92477 0
M  V30 1844 C 161.771 -3.02687 -3.02596 0
M  V30 1845 C 161.097 -2.99947 -4.42647 0
M  V30 1846 C 162.397 -4.4273 -2.77106 0
M  V30 1847 H 164.091 -2.67442 -1.34592 0
M  V30 1848 H 161.637 -1.28694 -0.646048 0
M  V30 1849 H 163.59 -2.02602 -3.695 0
M  V30 1850 H 162.314 -0.916844 -3.13467 0
M  V30 1851 H 160.973 -2.87065 -2.28012 0
M  V30 1852 H 160.621 -2.02136 -4.60597 0
M  V30 1853 H 160.321 -3.77439 -4.50348 0
M  V30 1854 H 161.845 -3.17354 -5.2165 0
M  V30 1855 H 163.259 -4.58727 -3.43864 0
M  V30 1856 H 161.656 -5.21893 -2.96222 0
M  V30 1857 H 162.726 -4.53087 -1.72744 0
M  V30 1858 N 164.069 0.697108 -1.41344 0
M  V30 1859 C 165.485 1.00751 -1.2378 0
M  V30 1860 C 165.685 2.01105 -0.126066 0
M  V30 1861 O 164.741 2.47295 0.51004 0
M  V30 1862 C 166.054 1.53359 -2.58653 0
M  V30 1863 C 167.602 1.6525 -2.65822 0
M  V30 1864 C 168.077 2.2126 -4.01009 0
M  V30 1865 N 169.568 2.28622 -4.02847 0
M  V30 1866 C 170.303 2.72984 -5.04249 0
M  V30 1867 N 169.799 3.16962 -6.16041 0
M  V30 1868 N 171.592 2.72534 -4.91611 0
M  V30 1869 H 163.743 0.0322662 -2.12375 0
M  V30 1870 H 166.006 0.0768853 -0.944877 0
M  V30 1871 H 165.712 0.870773 -3.4075 0
M  V30 1872 H 165.586 2.51597 -2.81032 0
M  V30 1873 H 167.973 2.30644 -1.84086 0
M  V30 1874 H 168.054 0.655614 -2.47256 0
M  V30 1875 H 167.698 1.56482 -4.83193 0
M  V30 1876 H 167.628 3.21698 -4.16915 0
M  V30 1877 H 170.119 1.97585 -3.22131 0
M  V30 1878 H 170.432 3.49434 -6.89287 0
M  V30 1879 H 168.777 3.14875 -6.1958 0
M  V30 1880 H 171.968 2.37525 -4.0336 0
M  V30 1881 H 172.141 3.06789 -5.70775 0
M  V30 1882 N 165.547 1.27147 0.931209 0
M  V30 1883 C 166.477 1.12081 2.04842 0
M  V30 1884 C 167.458 0.0232364 1.70084 0
M  V30 1885 O 168.643 0.197085 1.93197 0
M  V30 1886 C 165.773 0.76354 3.38803 0
M  V30 1887 C 164.727 1.81396 3.87659 0
M  V30 1888 C 164.053 1.31075 5.18385 0
M  V30 1889 C 165.353 3.21739 4.11438 0
M  V30 1890 H 167.047 2.05537 2.17703 0
M  V30 1891 H 164.593 0.989603 1.04608 0
M  V30 1892 H 166.546 0.644982 4.16435 0
M  V30 1893 H 165.27 -0.206727 3.25945 0
M  V30 1894 H 163.929 1.92136 3.12217 0
M  V30 1895 H 163.577 0.330037 5.01916 0
M  V30 1896 H 163.277 2.013 5.52044 0
M  V30 1897 H 164.801 1.20506 5.98591 0
M  V30 1898 H 166.215 3.14019 4.79651 0
M  V30 1899 H 164.612 3.89644 4.56397 0
M  V30 1900 H 165.682 3.67054 3.16859 0
M  V30 1901 N 167.025 -1.13721 1.09112 0
M  V30 1902 C 167.973 -2.21103 0.722219 0
M  V30 1903 C 168.967 -1.67147 -0.275374 0
M  V30 1904 O 170.173 -1.79477 -0.137176 0
M  V30 1905 H 166.548 -0.720445 0.215553 0
M  V30 1906 H 168.519 -2.49483 1.63709 0
M  V30 1907 C 167.268 -3.47352 0.15543 0
M  V30 1908 H 166.591 -3.89206 0.914246 0
M  V30 1909 H 168.031 -4.2395 -0.0647967 0
M  V30 1910 C 166.49 -3.1814 -1.10852 0
M  V30 1911 O 167.02 -3.36604 -2.19227 0
M  V30 1912 N 165.226 -2.72045 -1.02176 0
M  V30 1913 H 164.773 -2.57221 -0.139764 0
M  V30 1914 H 164.731 -2.52875 -1.8682 0
M  V30 1915 N 168.503 -0.877838 -1.30888 0
M  V30 1916 C 169.451 -0.328662 -2.30266 0
M  V30 1917 C 170.445 0.560496 -1.59859 0
M  V30 1918 O 171.651 0.445722 -1.74394 0
M  V30 1919 H 168.026 -0.0876142 -0.746879 0
M  V30 1920 H 169.997 -1.18061 -2.74051 0
M  V30 1921 C 168.746 0.448071 -3.44801 0
M  V30 1922 H 168.069 -0.226859 -3.99156 0
M  V30 1923 H 169.509 0.797541 -4.16432 0
M  V30 1924 C 167.968 1.64239 -2.94155 0
M  V30 1925 O 168.498 2.74175 -2.93583 0
M  V30 1926 N 166.704 1.47716 -2.50256 0
M  V30 1927 H 166.251 0.582821 -2.5092 0
M  V30 1928 H 166.209 2.27765 -2.16727 0
M  V30 1929 N 169.982 1.44106 -0.638065 0
M  V30 1930 C 170.912 2.33448 0.0494287 0
M  V30 1931 C 171.893 1.48606 0.827672 0
M  V30 1932 O 173.078 1.77308 0.792173 0
M  V30 1933 C 170.208 3.31771 1.02691 0
M  V30 1934 C 169.162 4.26485 0.359823 0
M  V30 1935 C 168.488 5.14729 1.44769 0
M  V30 1936 C 169.788 5.17056 -0.738296 0
M  V30 1937 H 171.482 2.91183 -0.696636 0
M  V30 1938 H 169.028 1.40014 -0.336456 0
M  V30 1939 H 170.981 3.93161 1.51666 0
M  V30 1940 H 169.705 2.7226 1.80395 0
M  V30 1941 H 168.364 3.66437 -0.10934 0
M  V30 1942 H 168.012 4.51566 2.21578 0
M  V30 1943 H 167.712 5.78913 1.00668 0
M  V30 1944 H 169.236 5.78991 1.93911 0
M  V30 1945 H 170.65 5.72342 -0.331354 0
M  V30 1946 H 169.047 5.89879 -1.10286 0
M  V30 1947 H 170.117 4.57652 -1.60258 0
M  V30 1948 N 171.46 0.379036 1.52974 0
M  V30 1949 C 172.393 -0.504932 2.22544 0
M  V30 1950 C 173.371 -1.0723 1.22231 0
M  V30 1951 O 174.555 -1.12589 1.51182 0
M  V30 1952 C 171.682 -1.69794 2.93066 0
M  V30 1953 C 170.728 -1.25678 4.07563 0
M  V30 1954 S 171.561 -0.246852 5.34931 0
M  V30 1955 C 172.717 -1.44588 6.08971 0
M  V30 1956 H 172.95 0.0858666 2.97176 0
M  V30 1957 H 170.483 0.163183 1.53535 0
M  V30 1958 H 172.441 -2.38219 3.34308 0
M  V30 1959 H 171.102 -2.26002 2.18133 0
M  V30 1960 H 170.295 -2.14725 4.5597 0
M  V30 1961 H 169.897 -0.651584 3.6828 0
M  V30 1962 H 172.189 -2.37469 6.34519 0
M  V30 1963 H 173.132 -1.00292 7.00962 0
M  V30 1964 H 173.54 -1.65804 5.39601 0
M  V30 1965 N 172.938 -1.57226 0.108567 0
M  V30 1966 C 173.901 -2.13602 -0.831082 0
M  V30 1967 C 174.901 -1.06841 -1.20173 0
M  V30 1968 O 176.091 -1.32666 -1.12895 0
M  V30 1969 C 173.223 -2.66769 -2.12243 0
M  V30 1970 H 174.416 -2.97951 -0.341317 0
M  V30 1971 H 171.969 -1.55667 -0.14057 0
M  V30 1972 H 172.704 -1.85977 -2.65675 0
M  V30 1973 H 172.489 -3.44839 -1.86625 0
M  V30 1974 H 173.979 -3.10332 -2.79435 0
M  V30 1975 N 174.416 0.165178 -1.56732 0
M  V30 1976 C 175.641 0.900253 -1.86843 0
M  V30 1977 C 176.066 1.74766 -0.695596 0
M  V30 1978 O 175.424 1.77786 0.35522 0
M  V30 1979 C 175.472 1.74777 -3.15413 0
M  V30 1980 O 174.576 2.85007 -2.98068 0
M  V30 1981 H 173.917 0.251832 -0.614391 0
M  V30 1982 H 176.447 0.161468 -2.03962 0
M  V30 1983 H 176.457 2.14646 -3.46974 0
M  V30 1984 H 175.132 1.12537 -4.00385 0
M  V30 1985 H 173.709 2.48676 -2.77875 0
M  V30 1986 N 175.894 1.51508 0.433938 0
M  V30 1987 C 176.841 1.73068 1.52696 0
M  V30 1988 C 177.811 0.572441 1.55924 0
M  V30 1989 O 178.996 0.807253 1.72882 0
M  V30 1990 C 176.136 1.86474 2.90381 0
M  V30 1991 C 175.249 3.14037 2.96656 0
M  V30 1992 C 174.384 3.18019 4.25485 0
M  V30 1993 C 173.423 4.39882 4.2564 0
M  V30 1994 N 172.56 4.41394 5.45999 0
M  V30 1995 H 177.4 2.66366 1.33615 0
M  V30 1996 H 174.937 1.32008 0.649018 0
M  V30 1997 H 176.895 1.92229 3.70275 0
M  V30 1998 H 175.525 0.965809 3.08013 0
M  V30 1999 H 174.577 3.17575 2.09404 0
M  V30 2000 H 175.889 4.0394 2.92633 0
M  V30 2001 H 175.043 3.22708 5.13755 0
M  V30 2002 H 173.782 2.2601 4.3217 0
M  V30 2003 H 172.787 4.35366 3.35763 0
M  V30 2004 H 174.012 5.33159 4.20617 0
M  V30 2005 H 171.958 3.52258 5.53399 0
M  V30 2006 H 171.875 5.25111 5.4387 0
M  V30 2007 H 173.143 4.50281 6.36292 0
M  V30 2008 N 177.372 -0.689602 1.41712 0
M  V30 2009 C 178.621 -1.44534 1.40686 0
M  V30 2010 C 178.934 -1.95588 0.0213352 0
M  V30 2011 O 180.14 -2.71271 -0.111534 0
M  V30 2012 C 178.596 -2.61387 2.47396 0
M  V30 2013 C 178.204 -2.17094 3.91885 0
M  V30 2014 C 179.948 -3.38986 2.55517 0
M  V30 2015 C 177.855 -3.3094 4.90135 0
M  V30 2016 H 176.785 -0.542925 0.52321 0
M  V30 2017 H 179.436 -0.748054 1.6756 0
M  V30 2018 H 177.818 -3.33412 2.13664 0
M  V30 2019 H 178.992 -1.52318 4.34897 0
M  V30 2020 H 177.307 -1.52473 3.8748 0
M  V30 2021 H 179.904 -4.23747 3.26102 0
M  V30 2022 H 180.247 -3.84578 1.59391 0
M  V30 2023 H 180.78 -2.74021 2.8837 0
M  V30 2024 H 177.519 -2.90355 5.87685 0
M  V30 2025 H 177.039 -3.94546 4.51767 0
M  V30 2026 H 178.718 -3.9663 5.11169 0
M  V30 2027 N 178.85 -1.27639 -0.924453 0
M  V30 2028 C 180.096 -1.15345 -1.67532 0
M  V30 2029 C 180.451 0.297096 -1.90092 0
M  V30 2030 O 179.744 1.21374 -1.48253 0
M  V30 2031 C 179.938 -1.87407 -3.04325 0
M  V30 2032 C 179.767 -3.3932 -2.95114 0
M  V30 2033 C 178.537 -4.08644 -2.97218 0
M  V30 2034 C 180.735 -4.35242 -2.73987 0
M  V30 2035 N 178.717 -5.47102 -2.78482 0
M  V30 2036 C 180.088 -5.6099 -2.63988 0
M  V30 2037 C 182.143 -4.25294 -2.589 0
M  V30 2038 C 180.846 -6.77924 -2.40442 0
M  V30 2039 C 182.872 -5.41952 -2.36731 0
M  V30 2040 C 182.234 -6.66658 -2.27478 0
M  V30 2041 H 178.333 -0.47696 -0.619704 0
M  V30 2042 H 180.917 -1.6115 -1.09265 0
M  V30 2043 H 179.088 -1.44053 -3.60699 0
M  V30 2044 H 180.82 -1.6759 -3.68369 0
M  V30 2045 H 177.575 -3.60136 -3.07569 0
M  V30 2046 H 177.999 -6.19852 -2.72236 0
M  V30 2047 H 182.641 -3.29598 -2.64811 0
M  V30 2048 H 180.359 -7.73699 -2.3327 0
M  V30 2049 H 183.945 -5.36137 -2.25938 0
M  V30 2050 H 182.825 -7.55405 -2.10555 0
M  V30 2051 N 180.328 1.1314 -1.09713 0
M  V30 2052 C 181.556 1.88321 -0.856898 0
M  V30 2053 C 181.971 1.79276 0.592073 0
M  V30 2054 O 181.328 1.16142 1.40774 0
M  V30 2055 C 181.379 3.37812 -1.28706 0
M  V30 2056 O 181.1 3.46627 -2.67921 0
M  V30 2057 C 182.601 4.29952 -1.07964 0
M  V30 2058 H 179.821 0.596094 -0.308079 0
M  V30 2059 H 182.365 1.43205 -1.45988 0
M  V30 2060 H 180.52 3.805 -0.727912 0
M  V30 2061 H 180.934 4.39579 -2.8613 0
M  V30 2062 H 182.408 5.33159 -1.42986 0
M  V30 2063 H 182.885 4.39196 -0.0176577 0
M  V30 2064 H 183.491 3.93036 -1.62489 0
M  V30 2065 N 181.806 0.884767 1.30421 0
M  V30 2066 C 183.217 0.553656 1.78302 0
M  V30 2067 C 183.568 -0.930153 1.7275 0
M  V30 2068 O 182.693 -1.72681 1.30423 0
M  V30 2069 C 183.288 0.998234 3.2376 0
M  V30 2070 C 181.847 0.71854 3.69478 0
M  V30 2071 C 180.994 1.18132 2.50879 0
M  V30 2072 H 183.945 1.06901 1.17294 0
M  V30 2073 H 183.966 0.327118 3.79091 0
M  V30 2074 H 183.478 2.0782 3.27769 0
M  V30 2075 H 181.579 -0.349444 3.70958 0
M  V30 2076 H 181.692 1.30595 4.60958 0
M  V30 2077 H 180.056 0.600669 2.47516 0
M  V30 2078 H 180.839 2.26902 2.57624 0
M  V30 2079 N 183.284 -1.43765 0.645699 0
M  V30 2080 C 184.561 -1.9541 0.0862963 0
M  V30 2081 C 184.941 -1.58725 -1.39175 0
M  V30 2082 O 184.289 -0.868581 -2.11348 0
M  V30 2083 C 184.499 -3.47488 0.324565 0
M  V30 2084 C 185.847 -4.24001 0.225497 0
M  V30 2085 O 186.871 -3.55274 0.256715 0
M  V30 2086 O 185.73 -5.46313 0.142801 0
M  V30 2087 H 182.824 -0.826882 -0.0139483 0
M  V30 2088 H 185.37 -1.53743 0.718415 0
M  V30 2089 H 184.142 -3.67289 1.3496 0
M  V30 2090 H 183.765 -3.96135 -0.340987 0
M  V30 2091 N 184.763 -0.387143 -1.52771 0
M  V30 2092 C 185.991 0.195869 -2.05971 0
M  V30 2093 C 186.406 1.40691 -1.25903 0
M  V30 2094 O 185.763 1.79931 -0.305134 0
M  V30 2095 C 185.814 0.56812 -3.57008 0
M  V30 2096 O 185.535 -0.594803 -4.34043 0
M  V30 2097 C 187.036 1.20723 -4.26545 0
M  V30 2098 H 184.256 0.0300578 -0.670326 0
M  V30 2099 H 186.8 -0.551749 -1.96916 0
M  V30 2100 H 184.955 1.26564 -3.66143 0
M  V30 2101 H 185.369 -0.289322 -5.23701 0
M  V30 2102 H 186.843 1.41807 -5.33474 0
M  V30 2103 H 187.32 2.17395 -3.81623 0
M  V30 2104 H 187.926 0.550535 -4.21722 0
M  V30 2105 N 186.241 1.57166 -0.116904 0
M  V30 2106 C 187.488 1.95123 0.541603 0
M  V30 2107 C 187.816 1.00006 1.6682 0
M  V30 2108 O 187.071 0.0235658 1.95686 0
M  V30 2109 C 187.37 3.39508 1.11664 0
M  V30 2110 C 187.036 4.50762 0.111606 0
M  V30 2111 C 185.698 4.80918 -0.164758 0
M  V30 2112 C 188.05 5.18036 -0.573438 0
M  V30 2113 C 185.378 5.75666 -1.13249 0
M  V30 2114 C 187.73 6.13824 -1.52978 0
M  V30 2115 C 186.394 6.42374 -1.81415 0
M  V30 2116 H 185.664 0.714005 0.198187 0
M  V30 2117 H 188.311 1.9048 -0.197365 0
M  V30 2118 H 186.616 3.40835 1.93232 0
M  V30 2119 H 188.313 3.66189 1.63422 0
M  V30 2120 H 184.903 4.27272 0.337192 0
M  V30 2121 H 189.087 4.94896 -0.373092 0
M  V30 2122 H 184.343 5.96092 -1.35958 0
M  V30 2123 H 188.517 6.65039 -2.06629 0
M  V30 2124 H 186.144 7.15599 -2.56557 0
M  V30 2125 N 187.719 -0.156864 1.56817 0
M  V30 2126 C 188.966 -0.871125 1.82805 0
M  V30 2127 C 189.294 -1.81611 0.696262 0
M  V30 2128 O 188.549 -1.93141 -0.315459 0
M  V30 2129 C 188.848 -1.68737 3.1506 0
M  V30 2130 C 188.514 -0.890045 4.42028 0
M  V30 2131 C 187.176 -0.670042 4.76512 0
M  V30 2132 C 189.528 -0.331769 5.20143 0
M  V30 2133 C 186.856 0.119104 5.86579 0
M  V30 2134 C 189.208 0.444365 6.31037 0
M  V30 2135 C 187.872 0.675035 6.64078 0
M  V30 2136 H 187.142 -0.318767 0.668931 0
M  V30 2137 H 189.789 -0.135274 1.91022 0
M  V30 2138 H 188.094 -2.49304 3.0225 0
M  V30 2139 H 189.791 -2.24331 3.3238 0
M  V30 2140 H 186.381 -1.07157 4.14988 0
M  V30 2141 H 190.565 -0.489043 4.93885 0
M  V30 2142 H 185.821 0.307417 6.10627 0
M  V30 2143 H 189.995 0.884139 6.90765 0
M  V30 2144 H 187.622 1.28839 7.49203 0
M  V30 2145 N 189.197 -1.51736 -0.425897 0
M  V30 2146 C 190.147 -1.70258 -1.51645 0
M  V30 2147 C 191.131 -0.556488 -1.5097 0
M  V30 2148 O 192.323 -0.812879 -1.5723 0
M  V30 2149 C 189.452 -1.84143 -2.89735 0
M  V30 2150 C 188.538 -3.04572 -2.95122 0
M  V30 2151 N 188.929 -4.2756 -2.70233 0
M  V30 2152 C 187.227 -3.04061 -3.26286 0
M  V30 2153 C 187.928 -5.08908 -2.81757 0
M  V30 2154 N 186.904 -4.43797 -3.13919 0
M  V30 2155 H 190.706 -2.63004 -1.31172 0
M  V30 2156 H 188.22 -1.4954 -0.633375 0
M  V30 2157 H 190.217 -1.95525 -3.68206 0
M  V30 2158 H 188.877 -0.925857 -3.1122 0
M  V30 2159 H 189.888 -4.56315 -2.44943 0
M  V30 2160 H 186.565 -2.22179 -3.53473 0
M  V30 2161 H 187.955 -6.16843 -2.66372 0
M  V30 2162 N 190.675 0.682077 -1.42076 0
M  V30 2163 C 191.623 1.81707 -1.45208 0
M  V30 2164 C 192.617 1.66183 -0.328591 0
M  V30 2165 O 193.823 1.7288 -0.501264 0
M  V30 2166 H 190.198 0.599014 -0.454628 0
M  V30 2167 H 192.169 1.76183 -2.40836 0
M  V30 2168 C 190.918 3.19816 -1.36428 0
M  V30 2169 H 190.241 3.32385 -2.22171 0
M  V30 2170 H 191.681 3.99272 -1.42681 0
M  V30 2171 C 190.14 3.36809 -0.078191 0
M  V30 2172 O 190.67 3.92124 0.87188 0
M  V30 2173 N 188.876 2.906 0.00229266 0
M  V30 2174 H 188.423 2.45772 -0.771616 0
M  V30 2175 H 188.381 3.02347 0.862179 0
M  V30 2176 N 192.153 1.28127 0.917671 0
M  V30 2177 C 193.401 1.14825 1.66312 0
M  V30 2178 C 193.722 -0.304379 1.9261 0
M  V30 2179 O 192.992 -1.21149 1.53947 0
M  V30 2180 H 191.572 0.421953 0.616413 0
M  V30 2181 H 194.234 1.608 1.10134 0
M  V30 2182 H 193.33 1.68489 2.62712 0
M  V30 2183 N 193.631 -1.12557 1.10312 0
M  V30 2184 C 194.578 -2.18247 0.750781 0
M  V30 2185 C 195.548 -1.63853 -0.272293 0
M  V30 2186 O 196.733 -1.90195 -0.151862 0
M  V30 2187 C 193.873 -3.44591 0.187379 0
M  V30 2188 C 192.986 -4.13046 1.2656 0
M  V30 2189 C 192.121 -5.27034 0.663978 0
M  V30 2190 C 191.16 -5.87353 1.72287 0
M  V30 2191 N 190.297 -6.92757 1.1416 0
M  V30 2192 H 195.137 -2.47732 1.65628 0
M  V30 2193 H 192.674 -1.21629 0.827337 0
M  V30 2194 H 194.632 -4.16904 -0.157148 0
M  V30 2195 H 193.262 -3.15527 -0.681355 0
M  V30 2196 H 192.314 -3.38924 1.72727 0
M  V30 2197 H 193.626 -4.53947 2.06721 0
M  V30 2198 H 192.78 -6.06104 0.268824 0
M  V30 2199 H 191.519 -4.87407 -0.169082 0
M  V30 2200 H 190.524 -5.06971 2.12746 0
M  V30 2201 H 191.749 -6.29051 2.55875 0
M  V30 2202 H 189.695 -6.5517 0.329984 0
M  V30 2203 H 189.612 -7.3225 1.88007 0
M  V30 2204 H 190.88 -7.75658 0.772956 0
M  V30 2205 N 195.109 -0.891671 -1.2995 0
M  V30 2206 C 196.056 -0.361736 -2.27948 0
M  V30 2207 C 197.026 0.551761 -1.56668 0
M  V30 2208 O 198.211 0.478736 -1.84696 0
M  V30 2209 C 195.351 0.411825 -3.42634 0
M  V30 2210 C 194.464 -0.531651 -4.28716 0
M  V30 2211 C 193.599 0.258167 -5.30572 0
M  V30 2212 C 192.638 -0.680349 -6.08307 0
M  V30 2213 N 191.775 0.0745613 -7.0206 0
M  V30 2214 H 196.615 -1.20254 -2.72659 0
M  V30 2215 H 194.152 -0.604352 -1.34112 0
M  V30 2216 H 196.11 0.876304 -4.07893 0
M  V30 2217 H 194.74 1.21715 -2.98974 0
M  V30 2218 H 193.792 -1.11463 -3.63703 0
M  V30 2219 H 195.104 -1.25038 -4.82874 0
M  V30 2220 H 194.258 0.784204 -6.0161 0
M  V30 2221 H 192.997 1.01008 -4.77126 0
M  V30 2222 H 192.002 -1.21796 -5.3614 0
M  V30 2223 H 193.227 -1.43145 -6.63842 0
M  V30 2224 H 191.173 0.808883 -6.50994 0
M  V30 2225 H 191.09 -0.584409 -7.53738 0
M  V30 2226 H 192.358 0.581123 -7.77331 0
M  V30 2227 N 196.587 1.43421 -0.653314 0
M  V30 2228 C 197.812 2.06678 -0.172846 0
M  V30 2229 C 198.237 1.48648 1.15262 0
M  V30 2230 O 197.595 0.596457 1.71208 0
M  V30 2231 C 197.643 3.60474 -0.0953184 0
M  V30 2232 O 196.747 4.01487 0.942442 0
M  V30 2233 H 196.088 0.657181 -0.0949155 0
M  V30 2234 H 198.618 1.83925 -0.896265 0
M  V30 2235 H 198.628 4.07905 0.0879728 0
M  V30 2236 H 197.303 4.02088 -1.06291 0
M  V30 2237 H 195.88 3.65646 0.731932 0
M  V30 2238 N 198.065 0.39524 1.52563 0
M  V30 2239 C 199.311 -0.185318 2.01952 0
M  V30 2240 C 199.644 -1.45964 1.28095 0
M  V30 2241 O 198.919 -1.90689 0.38315 0
M  V30 2242 C 199.202 -0.447193 3.57312 0
M  V30 2243 C 199.055 0.842828 4.41833 0
M  V30 2244 C 200.374 -1.23529 4.22408 0
M  V30 2245 H 197.493 -0.0658788 0.73405 0
M  V30 2246 H 200.135 0.525975 1.82575 0
M  V30 2247 H 198.285 -1.05312 3.73954 0
M  V30 2248 H 199.957 1.4795 4.36931 0
M  V30 2249 H 198.2 1.45686 4.08605 0
M  V30 2250 H 198.871 0.614165 5.48573 0
M  V30 2251 H 201.347 -0.722445 4.0978 0
M  V30 2252 H 200.223 -1.38727 5.3108 0
M  V30 2253 H 200.484 -2.25213 3.80436 0
M  V30 2254 N 199.544 -1.57102 0.125237 0
M  V30 2255 C 200.507 -2.14471 -0.80838 0
M  V30 2256 C 201.507 -1.0811 -1.19033 0
M  V30 2257 O 202.697 -1.33856 -1.11482 0
M  V30 2258 C 199.829 -2.69005 -2.09402 0
M  V30 2259 H 201.022 -2.98297 -0.309696 0
M  V30 2260 H 198.575 -1.55807 -0.124051 0
M  V30 2261 H 199.31 -1.88785 -2.63687 0
M  V30 2262 H 199.095 -3.46799 -1.82957 0
M  V30 2263 H 200.585 -3.13278 -2.76128 0
M  V30 2264 N 201.022 0.148545 -1.56898 0
M  V30 2265 C 201.972 1.1886 -1.94567 0
M  V30 2266 C 202.956 1.3863 -0.816735 0
M  V30 2267 O 204.148 1.40218 -1.08018 0
M  V30 2268 C 201.277 2.52262 -2.32849 0
M  V30 2269 C 200.363 2.36092 -3.52309 0
M  V30 2270 N 200.754 1.89674 -4.6889 0
M  V30 2271 C 199.052 2.66848 -3.57363 0
M  V30 2272 C 199.753 1.86511 -5.50989 0
M  V30 2273 N 198.729 2.29766 -4.92655 0
M  V30 2274 H 202.531 0.821793 -2.82177 0
M  V30 2275 H 200.045 0.356615 -1.58436 0
M  V30 2276 H 202.042 3.27447 -2.58039 0
M  V30 2277 H 200.702 2.89727 -1.46589 0
M  V30 2278 H 201.713 1.59663 -4.92674 0
M  V30 2279 H 198.39 3.08198 -2.81639 0
M  V30 2280 H 199.78 1.52128 -6.54452 0
M  V30 2281 N 202.5 1.5196 0.417844 0
M  V30 2282 C 203.448 1.75278 1.52907 0
M  V30 2283 C 204.442 0.619611 1.57662 0
M  V30 2284 O 205.648 0.801457 1.61173 0
M  V30 2285 H 202.023 0.554141 0.508362 0
M  V30 2286 H 203.994 2.68389 1.30422 0
M  V30 2287 C 202.743 1.91262 2.90369 0
M  V30 2288 H 202.066 2.77872 2.8745 0
M  V30 2289 H 203.506 2.11581 3.67436 0
M  V30 2290 C 201.965 0.677431 3.30019 0
M  V30 2291 O 202.495 -0.158799 4.01386 0
M  V30 2292 N 200.701 0.515851 2.85985 0
M  V30 2293 H 200.248 1.19744 2.28077 0
M  V30 2294 H 200.206 -0.309315 3.12875 0
M  V30 2295 N 203.978 -0.674533 1.42435 0
M  V30 2296 C 204.911 -1.79924 1.40366 0
M  V30 2297 C 205.889 -1.60378 0.267899 0
M  V30 2298 O 207.073 -1.82847 0.458159 0
M  V30 2299 C 204.2 -3.16927 1.19478 0
M  V30 2300 C 203.246 -3.55221 2.36051 0
M  V30 2301 S 204.079 -3.5762 3.98583 0
M  V30 2302 C 205.235 -4.97315 3.80038 0
M  V30 2303 H 205.468 -1.81405 2.35541 0
M  V30 2304 H 203.001 -0.845221 1.29211 0
M  V30 2305 H 204.959 -3.96007 1.08114 0
M  V30 2306 H 203.62 -3.13031 0.258883 0
M  V30 2307 H 202.813 -4.54804 2.17185 0
M  V30 2308 H 202.415 -2.83502 2.43932 0
M  V30 2309 H 204.707 -5.85401 3.41045 0
M  V30 2310 H 205.65 -5.21228 4.79298 0
M  V30 2311 H 206.058 -4.69845 3.12899 0
M  V30 2312 N 205.456 -1.28612 -0.910864 0
M  V30 2313 C 206.684 -1.18792 -1.69399 0
M  V30 2314 C 207.099 0.253039 -1.87097 0
M  V30 2315 O 206.456 1.17071 -1.40003 0
M  V30 2316 C 206.507 -1.88511 -3.08457 0
M  V30 2317 O 206.228 -3.26979 -2.91576 0
M  V30 2318 C 207.729 -1.85029 -4.02839 0
M  V30 2319 H 204.949 -0.412233 -0.529438 0
M  V30 2320 H 207.493 -1.69788 -1.13984 0
M  V30 2321 H 205.648 -1.41379 -3.60681 0
M  V30 2322 H 206.062 -3.61936 -3.79608 0
M  V30 2323 H 207.536 -2.38395 -4.97867 0
M  V30 2324 H 208.013 -0.823303 -4.31414 0
M  V30 2325 H 208.619 -2.31853 -3.56545 0
M  V30 2326 N 206.934 1.1197 -1.10907 0
M  V30 2327 C 207.867 2.16998 -0.706192 0
M  V30 2328 C 208.845 1.59903 0.294897 0
M  V30 2329 O 210.029 1.87513 0.192636 0
M  V30 2330 C 207.156 3.38673 -0.0427664 0
M  V30 2331 C 206.202 4.14414 -1.00811 0
M  V30 2332 S 207.035 4.72079 -2.52789 0
M  V30 2333 C 208.191 5.97083 -1.87731 0
M  V30 2334 H 208.424 2.50837 -1.59587 0
M  V30 2335 H 205.957 1.23508 -0.926555 0
M  V30 2336 H 207.915 4.09142 0.333668 0
M  V30 2337 H 206.576 3.03105 0.823788 0
M  V30 2338 H 205.769 5.016 -0.491259 0
M  V30 2339 H 205.371 3.49678 -1.3267 0
M  V30 2340 H 207.663 6.66599 -1.21044 0
M  V30 2341 H 208.606 6.53403 -2.72892 0
M  V30 2342 H 209.014 5.4837 -1.33979 0
M  V30 2343 N 208.412 0.89855 1.29475 0
M  V30 2344 C 209.823 0.572537 1.77705 0
M  V30 2345 C 210.174 -0.911778 1.73727 0
M  V30 2346 O 209.299 -1.71288 1.32247 0
M  V30 2347 C 209.894 1.03252 3.22683 0
M  V30 2348 C 208.453 0.757687 3.68695 0
M  V30 2349 C 207.6 1.20787 2.49612 0
M  V30 2350 H 210.551 1.08139 1.16153 0
M  V30 2351 H 210.572 0.367307 3.78723 0
M  V30 2352 H 210.084 2.11285 3.25546 0
M  V30 2353 H 208.185 -0.310079 3.71308 0
M  V30 2354 H 208.298 1.35476 4.59547 0
M  V30 2355 H 206.662 0.626888 2.46865 0
M  V30 2356 H 207.445 2.29622 2.55203 0
M  V30 2357 N 209.89 -1.43072 0.660911 0
M  V30 2358 C 210.838 -2.32569 -0.0378199 0
M  V30 2359 C 211.832 -1.49046 -0.805092 0
M  V30 2360 O 213.038 -1.65206 -0.714624 0
M  V30 2361 H 209.413 -0.75136 -0.031019 0
M  V30 2362 H 211.384 -2.89216 0.734609 0
M  V30 2363 C 210.133 -3.33453 -0.985124 0
M  V30 2364 H 209.456 -3.97752 -0.404147 0
M  V30 2365 H 210.896 -3.98691 -1.44297 0
M  V30 2366 C 209.355 -2.64642 -2.08486 0
M  V30 2367 O 209.885 -2.46776 -3.16961 0
M  V30 2368 N 208.091 -2.23891 -1.8526 0
M  V30 2369 H 207.638 -2.38621 -0.970449 0
M  V30 2370 H 207.596 -1.78181 -2.59034 0
M  V30 2371 N 211.368 -0.403325 -1.52352 0
M  V30 2372 C 212.315 0.425011 -2.26853 0
M  V30 2373 C 213.285 1.04598 -1.29029 0
M  V30 2374 O 214.47 1.07135 -1.57882 0
M  V30 2375 C 211.61 1.53888 -3.08889 0
M  V30 2376 C 210.723 0.939396 -4.21663 0
M  V30 2377 C 209.858 2.02547 -4.91068 0
M  V30 2378 C 208.897 1.40263 -5.95813 0
M  V30 2379 N 208.034 2.4286 -6.58759 0
M  V30 2380 H 212.874 -0.21674 -2.97211 0
M  V30 2381 H 210.411 -0.118722 -1.4662 0
M  V30 2382 H 212.369 2.19558 -3.54753 0
M  V30 2383 H 210.999 2.15074 -2.40714 0
M  V30 2384 H 210.051 0.171898 -3.80011 0
M  V30 2385 H 211.363 0.44436 -4.96817 0
M  V30 2386 H 210.517 2.75958 -5.40308 0
M  V30 2387 H 209.256 2.55415 -4.15469 0
M  V30 2388 H 208.261 0.653833 -5.45898 0
M  V30 2389 H 209.486 0.881719 -6.73352 0
M  V30 2390 H 207.432 2.94871 -5.85992 0
M  V30 2391 H 207.349 1.98152 -7.2957 0
M  V30 2392 H 208.617 3.15858 -7.12639 0
M  V30 2393 N 212.846 1.57033 -0.133567 0
M  V30 2394 C 213.776 2.1909 0.807567 0
M  V30 2395 C 214.757 1.13517 1.26681 0
M  V30 2396 O 215.942 1.41809 1.32679 0
M  V30 2397 C 213.072 2.80188 2.05212 0
M  V30 2398 C 212.026 3.91471 1.73015 0
M  V30 2399 C 211.352 4.39443 3.04622 0
M  V30 2400 C 212.652 5.12886 0.987168 0
M  V30 2401 H 214.346 2.97988 0.290403 0
M  V30 2402 H 211.892 1.43335 0.138239 0
M  V30 2403 H 213.845 3.22264 2.71521 0
M  V30 2404 H 212.569 1.98601 2.59278 0
M  V30 2405 H 211.228 3.49993 1.0909 0
M  V30 2406 H 210.876 3.54695 3.56651 0
M  V30 2407 H 210.576 5.14495 2.83847 0
M  V30 2408 H 212.1 4.8418 3.72024 0
M  V30 2409 H 213.514 5.51891 1.55208 0
M  V30 2410 H 211.911 5.93615 0.87985 0
M  V30 2411 H 212.981 4.84894 -0.0235286 0
M  V30 2412 N 214.325 -0.140222 1.56975 0
M  V30 2413 C 215.255 -1.17456 2.01808 0
M  V30 2414 C 216.236 -1.44415 0.898794 0
M  V30 2415 O 217.421 -1.5522 1.16707 0
M  V30 2416 C 214.551 -2.50607 2.40444 0
M  V30 2417 C 213.505 -2.38155 3.55621 0
M  V30 2418 C 212.831 -3.76078 3.80091 0
M  V30 2419 C 214.131 -1.85991 4.88062 0
M  V30 2420 H 215.825 -0.801743 2.88466 0
M  V30 2421 H 213.371 -0.38422 1.38779 0
M  V30 2422 H 215.324 -3.23197 2.7041 0
M  V30 2423 H 214.048 -2.89737 1.50732 0
M  V30 2424 H 212.707 -1.68016 3.25832 0
M  V30 2425 H 212.355 -4.12656 2.87618 0
M  V30 2426 H 212.055 -3.68606 4.57606 0
M  V30 2427 H 213.579 -4.50206 4.12488 0
M  V30 2428 H 214.993 -2.4838 5.16701 0
M  V30 2429 H 213.39 -1.89393 5.6943 0
M  V30 2430 H 214.46 -0.816023 4.77984 0
M  V30 2431 N 215.803 -1.52179 -0.40978 0
M  V30 2432 C 217.219 -1.40968 -0.74835 0
M  V30 2433 C 217.419 -0.513657 -1.94843 0
M  V30 2434 O 216.475 0.0208026 -2.52491 0
M  V30 2435 C 217.788 -2.83483 -1.0029 0
M  V30 2436 C 219.336 -2.92821 -1.10565 0
M  V30 2437 C 219.811 -4.36303 -1.39296 0
M  V30 2438 N 221.302 -4.39535 -1.46162 0
M  V30 2439 C 222.037 -5.47614 -1.70018 0
M  V30 2440 N 221.533 -6.65812 -1.91483 0
M  V30 2441 N 223.326 -5.35129 -1.72027 0
M  V30 2442 H 215.477 -2.0897 0.380186 0
M  V30 2443 H 217.74 -0.94185 0.107805 0
M  V30 2444 H 217.446 -3.51168 -0.193461 0
M  V30 2445 H 217.32 -3.24487 -1.92323 0
M  V30 2446 H 219.707 -2.25318 -1.90568 0
M  V30 2447 H 219.788 -2.55276 -0.16369 0
M  V30 2448 H 219.432 -5.04366 -0.598109 0
M  V30 2449 H 219.362 -4.71385 -2.34743 0
M  V30 2450 H 221.853 -3.54332 -1.31367 0
M  V30 2451 H 222.166 -7.43964 -2.09134 0
M  V30 2452 H 220.511 -6.68879 -1.88749 0
M  V30 2453 H 223.702 -4.41764 -1.54796 0
M  V30 2454 H 223.875 -6.19433 -1.9028 0
M  V30 2455 N 217.281 0.66697 -1.42791 0
M  V30 2456 C 218.53 1.42278 -1.42968 0
M  V30 2457 C 218.843 1.9553 -0.0524489 0
M  V30 2458 O 220.049 2.71414 0.068363 0
M  V30 2459 C 218.505 2.57418 -2.51524 0
M  V30 2460 C 218.113 2.10832 -3.9529 0
M  V30 2461 C 219.857 3.34878 -2.60877 0
M  V30 2462 C 217.764 3.23101 -4.95338 0
M  V30 2463 H 216.694 0.534533 -0.531781 0
M  V30 2464 H 219.345 0.721302 -1.68729 0
M  V30 2465 H 217.727 3.29971 -2.18941 0
M  V30 2466 H 218.901 1.4538 -4.37266 0
M  V30 2467 H 217.216 1.46289 -3.89857 0
M  V30 2468 H 219.813 4.18505 -3.32802 0
M  V30 2469 H 220.156 3.81993 -1.6549 0
M  V30 2470 H 220.689 2.69398 -2.92693 0
M  V30 2471 H 217.428 2.80969 -5.9223 0
M  V30 2472 H 216.948 3.87309 -4.57987 0
M  V30 2473 H 218.627 3.88447 -5.17415 0
M  V30 2474 N 218.759 1.29093 0.90403 0
M  V30 2475 C 219.691 1.09658 2.01266 0
M  V30 2476 C 220.704 0.0453729 1.62737 0
M  V30 2477 O 221.893 0.289446 1.76138 0
M  V30 2478 C 218.993 0.646278 3.32681 0
M  V30 2479 C 218.166 1.77505 3.99763 0
M  V30 2480 C 217.225 1.31649 5.09465 0
M  V30 2481 O 216.251 2.02045 5.32134 0
M  V30 2482 N 217.453 0.184997 5.80205 0
M  V30 2483 H 220.218 2.05135 2.18494 0
M  V30 2484 H 217.779 1.20975 1.07594 0
M  V30 2485 H 219.771 0.322906 4.0341 0
M  V30 2486 H 218.341 -0.215916 3.11853 0
M  V30 2487 H 217.561 2.26752 3.22455 0
M  V30 2488 H 218.849 2.53198 4.41325 0
M  V30 2489 H 218.247 -0.402021 5.6427 0
M  V30 2490 H 216.804 -0.0790358 6.51752 0
M  V30 2491 N 220.237 -1.11381 1.11499 0
M  V30 2492 C 221.514 -1.7955 0.775965 0
M  V30 2493 C 221.894 -1.97859 -0.73588 0
M  V30 2494 O 221.242 -1.56376 -1.66609 0
M  V30 2495 C 221.452 -3.13196 1.53977 0
M  V30 2496 C 222.8 -3.88227 1.71944 0
M  V30 2497 O 223.824 -3.22887 1.50407 0
M  V30 2498 O 222.683 -5.05477 2.07738 0
M  V30 2499 H 219.777 -0.777728 0.28119 0
M  V30 2500 H 222.323 -1.18118 1.21845 0
M  V30 2501 H 221.095 -2.95229 2.56818 0
M  V30 2502 H 220.718 -3.82342 1.09088 0
M  V30 2503 N 221.715 -0.905404 -1.28997 0
M  V30 2504 C 222.992 -0.453513 -1.9027 0
M  V30 2505 C 223.372 1.06721 -1.82137 0
M  V30 2506 O 222.72 1.91159 -1.25182 0
M  V30 2507 C 222.93 -0.974494 -3.35119 0
M  V30 2508 C 224.278 -1.0216 -4.12127 0
M  V30 2509 O 225.302 -0.922557 -3.44046 0
M  V30 2510 O 224.161 -1.17121 -5.33802 0
M  V30 2511 H 221.255 -0.142347 -0.814657 0
M  V30 2512 H 223.801 -0.995642 -1.37423 0
M  V30 2513 H 222.573 -2.01848 -3.35221 0
M  V30 2514 H 222.196 -0.412706 -3.95452 0
M  V30 2515 N 223.193 1.4272 -0.668489 0
M  V30 2516 C 224.441 2.01226 -0.187769 0
M  V30 2517 C 224.762 1.53092 1.2078 0
M  V30 2518 O 224.032 0.74993 1.80977 0
M  V30 2519 H 222.612 0.744041 -0.0664272 0
M  V30 2520 H 225.274 1.74723 -0.863583 0
M  V30 2521 H 224.37 3.11556 -0.184166 0
M  V30 2522 N 224.671 0.411399 1.52136 0
M  V30 2523 C 225.899 -0.163076 2.06256 0
M  V30 2524 C 226.314 -1.3867 1.28125 0
M  V30 2525 O 225.671 -1.79423 0.333721 0
M  V30 2526 C 225.722 -0.511252 3.57867 0
M  V30 2527 O 225.443 0.66378 4.33042 0
M  V30 2528 C 226.944 -1.13921 4.28412 0
M  V30 2529 H 224.164 -0.0193897 0.67072 0
M  V30 2530 H 226.708 0.583007 1.96013 0
M  V30 2531 H 224.863 -1.20723 3.6811 0
M  V30 2532 H 225.277 0.372601 5.23175 0
M  V30 2533 H 226.751 -1.33302 5.35663 0
M  V30 2534 H 227.228 -2.11296 3.85033 0
M  V30 2535 H 227.834 -0.483373 4.22544 0
M  V30 2536 N 226.149 -1.5696 0.141893 0
M  V30 2537 C 227.079 -2.19516 -0.795936 0
M  V30 2538 C 228.06 -1.14187 -1.26077 0
M  V30 2539 O 229.245 -1.42511 -1.31925 0
M  V30 2540 C 226.375 -2.81272 -2.03723 0
M  V30 2541 C 225.329 -3.92384 -1.70936 0
M  V30 2542 C 224.655 -4.41052 -3.02287 0
M  V30 2543 C 225.955 -5.13403 -0.959954 0
M  V30 2544 H 227.649 -2.98138 -0.274596 0
M  V30 2545 H 225.195 -1.43406 -0.130636 0
M  V30 2546 H 227.148 -3.237 -2.69808 0
M  V30 2547 H 225.872 -1.99973 -2.58221 0
M  V30 2548 H 224.531 -3.50566 -1.07232 0
M  V30 2549 H 224.179 -3.56582 -3.54765 0
M  V30 2550 H 223.879 -5.15993 -2.81114 0
M  V30 2551 H 225.403 -4.86146 -3.69451 0
M  V30 2552 H 226.817 -5.52706 -1.52279 0
M  V30 2553 H 225.214 -5.94073 -0.848357 0
M  V30 2554 H 226.284 -4.84875 0.0492434 0
M  V30 2555 N 227.627 0.131896 -1.57047 0
M  V30 2556 C 228.557 1.16384 -2.02428 0
M  V30 2557 C 229.538 1.43936 -0.90644 0
M  V30 2558 O 230.723 1.54599 -1.17528 0
M  V30 2559 C 227.853 2.49328 -2.4177 0
M  V30 2560 C 226.807 2.36266 -3.56879 0
M  V30 2561 C 226.133 3.74057 -3.8208 0
M  V30 2562 C 227.433 1.834 -4.89042 0
M  V30 2563 H 229.127 0.786433 -2.88887 0
M  V30 2564 H 226.673 0.376855 -1.38981 0
M  V30 2565 H 228.626 3.21759 -2.7212 0
M  V30 2566 H 227.35 2.88934 -1.52266 0
M  V30 2567 H 226.009 1.66286 -3.26718 0
M  V30 2568 H 225.657 4.11125 -2.89803 0
M  V30 2569 H 225.357 3.66174 -4.59554 0
M  V30 2570 H 226.881 4.48012 -4.1487 0
M  V30 2571 H 228.295 2.45636 -5.18011 0
M  V30 2572 H 226.692 1.8637 -5.70426 0
M  V30 2573 H 227.762 0.790662 -4.7841 0
M  V30 2574 N 229.106 1.52395 0.401703 0
M  V30 2575 C 230.336 1.70429 1.1678 0
M  V30 2576 C 230.744 0.416702 1.84554 0
M  V30 2577 O 230.087 -0.617697 1.73003 0
M  V30 2578 C 230.149 2.78919 2.26814 0
M  V30 2579 C 229.813 4.20437 1.79113 0
M  V30 2580 C 230.81 5.04028 1.27482 0
M  V30 2581 C 228.495 4.66704 1.85722 0
M  V30 2582 C 230.489 6.31961 0.830913 0
M  V30 2583 C 228.176 5.94625 1.40942 0
M  V30 2584 C 229.174 6.77082 0.897128 0
M  V30 2585 O 228.862 8.02607 0.455822 0
M  V30 2586 H 228.594 0.574272 0.356634 0
M  V30 2587 H 231.148 1.99767 0.477724 0
M  V30 2588 H 229.378 2.44973 2.99207 0
M  V30 2589 H 231.067 2.8548 2.88541 0
M  V30 2590 H 231.833 4.69471 1.21744 0
M  V30 2591 H 227.712 4.0262 2.24539 0
M  V30 2592 H 231.256 6.96271 0.430368 0
M  V30 2593 H 227.153 6.28688 1.46362 0
M  V30 2594 H 227.921 8.16453 0.578457 0
M  V30 2595 N 230.584 -0.659388 1.43143 0
M  V30 2596 C 231.812 -1.44723 1.47861 0
M  V30 2597 C 232.227 -1.88563 0.0945886 0
M  V30 2598 O 231.584 -1.59108 -0.893915 0
M  V30 2599 C 231.635 -2.68627 2.41913 0
M  V30 2600 O 231.356 -2.26623 3.74932 0
M  V30 2601 C 232.857 -3.62045 2.55809 0
M  V30 2602 H 230.077 -0.444801 0.502387 0
M  V30 2603 H 232.621 -0.808916 1.87821 0
M  V30 2604 H 230.776 -3.28613 2.05164 0
M  V30 2605 H 231.19 -3.06745 4.2545 0
M  V30 2606 H 232.664 -4.45666 3.25708 0
M  V30 2607 H 233.141 -4.08981 1.60099 0
M  V30 2608 H 233.747 -3.07944 2.93344 0
M  V30 2609 N 232.062 -1.29571 -0.897171 0
M  V30 2610 C 232.995 -1.0924 -2.00354 0
M  V30 2611 C 233.973 -0.00354011 -1.626 0
M  V30 2612 O 235.157 -0.15473 -1.87864 0
M  V30 2613 C 232.284 -0.66352 -3.32137 0
M  V30 2614 C 231.33 -1.75146 -3.88878 0
M  V30 2615 S 232.163 -3.35124 -4.17674 0
M  V30 2616 C 233.319 -2.9411 -5.52494 0
M  V30 2617 H 233.552 -2.02907 -2.17292 0
M  V30 2618 H 231.085 -1.13746 -1.04408 0
M  V30 2619 H 233.043 -0.422791 -4.08317 0
M  V30 2620 H 231.704 0.253588 -3.13075 0
M  V30 2621 H 230.897 -1.40337 -4.84068 0
M  V30 2622 H 230.499 -1.94584 -3.19395 0
M  V30 2623 H 232.791 -2.41312 -6.33068 0
M  V30 2624 H 233.734 -3.88161 -5.9223 0
M  V30 2625 H 234.142 -2.32332 -5.14473 0
M  V30 2626 N 233.54 1.10788 -1.12088 0
M  V30 2627 C 234.956 1.34691 -0.856186 0
M  V30 2628 C 235.156 1.94791 0.515615 0
M  V30 2629 O 234.212 2.18524 1.26505 0
M  V30 2630 C 235.525 2.27208 -1.9697 0
M  V30 2631 C 237.073 2.40755 -2.00016 0
M  V30 2632 C 237.548 3.36598 -3.1059 0
M  V30 2633 N 239.039 3.44164 -3.10008 0
M  V30 2634 C 239.774 4.18284 -3.92206 0
M  V30 2635 N 239.27 4.95322 -4.84384 0
M  V30 2636 N 241.063 4.13865 -3.80357 0
M  V30 2637 H 233.214 0.70144 -2.00483 0
M  V30 2638 H 235.477 0.371405 -0.872217 0
M  V30 2639 H 235.183 1.90251 -2.958 0
M  V30 2640 H 235.057 3.27485 -1.87172 0
M  V30 2641 H 237.444 2.76982 -1.01808 0
M  V30 2642 H 237.525 1.40305 -2.13888 0
M  V30 2643 H 237.169 3.01096 -4.09028 0
M  V30 2644 H 237.099 4.36918 -2.93956 0
M  V30 2645 H 239.59 2.8922 -2.43228 0
M  V30 2646 H 239.903 5.49267 -5.43623 0
M  V30 2647 H 238.248 4.94459 -4.884 0
M  V30 2648 H 241.439 3.52773 -3.07683 0
M  V30 2649 H 241.612 4.71372 -4.44649 0
M  V30 2650 N 235.018 0.912232 1.28515 0
M  V30 2651 C 235.948 0.416403 2.29757 0
M  V30 2652 C 236.929 -0.515194 1.6211 0
M  V30 2653 O 238.114 -0.423253 1.89532 0
M  V30 2654 C 235.244 -0.34572 3.45575 0
M  V30 2655 C 234.198 0.496599 4.25109 0
M  V30 2656 C 233.524 -0.393771 5.33248 0
M  V30 2657 C 234.824 1.75307 4.92001 0
M  V30 2658 H 236.518 1.26249 2.7148 0
M  V30 2659 H 234.064 0.608515 1.30511 0
M  V30 2660 H 236.017 -0.703422 4.15488 0
M  V30 2661 H 234.741 -1.2257 3.02728 0
M  V30 2662 H 233.4 0.8368 3.56922 0
M  V30 2663 H 233.048 -1.27225 4.86644 0
M  V30 2664 H 232.748 0.166209 5.87365 0
M  V30 2665 H 234.272 -0.747389 6.06009 0
M  V30 2666 H 235.686 1.46437 5.54283 0
M  V30 2667 H 234.083 2.25534 5.56106 0
M  V30 2668 H 235.153 2.48176 4.16577 0
M  V30 2669 N 236.496 -1.42363 0.676048 0
M  V30 2670 C 237.724 -2.05859 0.207268 0
M  V30 2671 C 238.139 -1.50796 -1.13605 0
M  V30 2672 O 237.496 -0.648265 -1.70598 0
M  V30 2673 C 237.547 -3.61248 0.134975 0
M  V30 2674 O 237.268 -4.1427 1.42521 0
M  V30 2675 C 238.769 -4.41859 -0.357151 0
M  V30 2676 H 235.989 -0.663431 0.100503 0
M  V30 2677 H 238.533 -1.82479 0.923136 0
M  V30 2678 H 236.688 -3.83735 -0.531588 0
M  V30 2679 H 237.102 -5.0815 1.29939 0
M  V30 2680 H 238.576 -5.50847 -0.356641 0
M  V30 2681 H 239.053 -4.16536 -1.39264 0
M  V30 2682 H 239.659 -4.24392 0.27772 0
M  V30 2683 N 237.974 -0.419461 -1.51915 0
M  V30 2684 C 239.22 0.153166 -2.02221 0
M  V30 2685 C 239.553 1.43907 -1.30401 0
M  V30 2686 O 238.828 1.90055 -0.413438 0
M  V30 2687 C 239.111 0.390291 -3.57979 0
M  V30 2688 C 238.964 -0.913014 -4.40436 0
M  V30 2689 C 240.283 1.16794 -4.2432 0
M  V30 2690 H 237.402 0.0541924 -0.735005 0
M  V30 2691 H 240.044 -0.554955 -1.81715 0
M  V30 2692 H 238.194 0.993491 -3.75582 0
M  V30 2693 H 239.866 -1.54882 -4.34522 0
M  V30 2694 H 238.109 -1.52168 -4.06236 0
M  V30 2695 H 238.78 -0.701361 -5.47526 0
M  V30 2696 H 241.256 0.657161 -4.10878 0
M  V30 2697 H 240.132 1.3026 -5.3322 0
M  V30 2698 H 240.393 2.19132 -3.83971 0
M  V30 2699 N 239.452 1.56882 -0.150215 0
M  V30 2700 C 240.384 2.14057 0.819286 0
M  V30 2701 C 241.397 1.09082 1.20851 0
M  V30 2702 O 242.586 1.36347 1.15203 0
M  V30 2703 C 239.686 2.65102 2.11127 0
M  V30 2704 C 238.859 3.94511 1.88891 0
M  V30 2705 C 237.918 4.30834 3.02107 0
M  V30 2706 O 236.944 4.99099 2.73659 0
M  V30 2707 N 238.146 3.90676 4.29363 0
M  V30 2708 H 240.911 2.97871 0.330618 0
M  V30 2709 H 238.472 1.61866 0.0332538 0
M  V30 2710 H 240.464 2.86411 2.85921 0
M  V30 2711 H 239.034 1.85994 2.51247 0
M  V30 2712 H 238.254 3.81795 0.981152 0
M  V30 2713 H 239.542 4.7907 1.71376 0
M  V30 2714 H 238.94 3.35677 4.55343 0
M  V30 2715 H 237.497 4.1703 5.00928 0
M  V30 2716 N 240.93 -0.123565 1.57115 0
M  V30 2717 C 241.893 -1.13583 1.99076 0
M  V30 2718 C 242.893 -1.34564 0.880296 0
M  V30 2719 O 244.083 -1.31158 1.14644 0
M  V30 2720 C 241.215 -2.49128 2.32698 0
M  V30 2721 H 242.408 -0.775287 2.89706 0
M  V30 2722 H 239.961 -0.36771 1.51913 0
M  V30 2723 H 240.696 -2.90111 1.44934 0
M  V30 2724 H 240.481 -2.35255 3.13684 0
M  V30 2725 H 241.971 -3.2199 2.65918 0
M  V30 2726 N 242.408 -1.52605 -0.393616 0
M  V30 2727 C 243.318 -1.79971 -1.50492 0
M  V30 2728 C 244.334 -0.686181 -1.59899 0
M  V30 2729 O 245.51 -0.973274 -1.76322 0
M  V30 2730 C 242.575 -1.95867 -2.86072 0
M  V30 2731 C 241.636 -3.19781 -2.86424 0
M  V30 2732 C 240.869 -3.34909 -4.15538 0
M  V30 2733 O 241.092 -2.54948 -5.10253 0
M  V30 2734 O 240.026 -4.28141 -4.23059 0
M  V30 2735 H 243.852 -2.74328 -1.30299 0
M  V30 2736 H 241.437 -1.3764 -0.581005 0
M  V30 2737 H 243.319 -2.08056 -3.66457 0
M  V30 2738 H 241.994 -1.04699 -3.063 0
M  V30 2739 H 240.901 -3.13038 -2.04837 0
M  V30 2740 H 242.234 -4.1078 -2.71147 0
M  V30 2741 N 243.887 0.651787 -1.4349 0
M  V30 2742 C 245.127 1.42345 -1.46688 0
M  V30 2743 C 245.491 1.91793 -0.0891023 0
M  V30 2744 O 246.692 2.688 0.00423594 0
M  V30 2745 C 244.963 2.57221 -2.48137 0
M  V30 2746 S 246.522 3.45725 -2.70221 0
M  V30 2747 H 243.34 0.485878 -0.51908 0
M  V30 2748 H 245.942 0.756578 -1.80267 0
M  V30 2749 H 244.646 2.1917 -3.46976 0
M  V30 2750 H 244.177 3.28757 -2.16061 0
M  V30 2751 H 246.192 4.53996 -2.00255 0
M  V30 2752 N 245.365 1.30045 0.890287 0
M  V30 2753 C 246.776 1.16738 1.45702 0
M  V30 2754 C 247.127 -0.233939 1.948 0
M  V30 2755 O 246.252 -1.13021 1.84541 0
M  V30 2756 C 246.847 2.11313 2.64825 0
M  V30 2757 C 245.406 2.02001 3.17604 0
M  V30 2758 C 244.553 2.01699 1.90296 0
M  V30 2759 H 247.504 1.42392 0.700726 0
M  V30 2760 H 247.525 1.69086 3.40867 0
M  V30 2761 H 247.037 3.13294 2.2906 0
M  V30 2762 H 245.138 1.03142 3.5804 0
M  V30 2763 H 245.251 2.90128 3.81264 0
M  V30 2764 H 243.615 1.46427 2.08402 0
M  V30 2765 H 244.398 3.05402 1.56795 0
M  V30 2766 N 246.843 -1.10192 1.12674 0
M  V30 2767 C 247.776 -2.15847 0.740625 0
M  V30 2768 C 248.754 -1.60352 -0.269421 0
M  V30 2769 O 249.938 -1.87796 -0.16278 0
M  V30 2770 C 247.065 -3.38562 0.096641 0
M  V30 2771 C 246.111 -4.12758 1.07391 0
M  V30 2772 S 246.944 -4.67997 2.60267 0
M  V30 2773 C 248.1 -5.94021 1.97206 0
M  V30 2774 H 248.333 -2.48266 1.63558 0
M  V30 2775 H 245.866 -1.22019 0.946087 0
M  V30 2776 H 247.824 -4.09621 -0.268535 0
M  V30 2777 H 246.485 -3.04377 -0.775462 0
M  V30 2778 H 245.678 -5.00755 0.570997 0
M  V30 2779 H 245.28 -3.47523 1.38216 0
M  V30 2780 H 247.572 -6.64589 1.31634 0
M  V30 2781 H 248.515 -6.48979 2.83253 0
M  V30 2782 H 248.923 -5.46169 1.42686 0
M  V30 2783 N 248.321 -0.919034 -1.28029 0
M  V30 2784 C 249.271 -0.382574 -2.24767 0
M  V30 2785 C 250.255 0.508286 -1.52661 0
M  V30 2786 O 251.447 0.347145 -1.73562 0
M  V30 2787 C 248.576 0.371432 -3.41285 0
M  V30 2788 C 247.662 -0.535449 -4.20706 0
M  V30 2789 N 248.053 -1.65141 -4.78082 0
M  V30 2790 C 246.351 -0.336824 -4.44726 0
M  V30 2791 C 247.052 -2.21475 -5.37888 0
M  V30 2792 N 246.028 -1.50537 -5.22341 0
M  V30 2793 H 249.83 -1.23477 -2.66703 0
M  V30 2794 H 247.344 -0.772299 -1.42861 0
M  V30 2795 H 249.341 0.772638 -4.09678 0
M  V30 2796 H 248.001 1.22066 -3.00882 0
M  V30 2797 H 249.012 -2.03392 -4.7629 0
M  V30 2798 H 245.689 0.47246 -4.14818 0
M  V30 2799 H 247.079 -3.15379 -5.93284 0
M  V30 2800 N 249.799 1.42003 -0.683588 0
M  V30 2801 C 250.729 2.33487 -0.024866 0
M  V30 2802 C 251.71 1.51163 0.779975 0
M  V30 2803 O 252.895 1.79739 0.735362 0
M  V30 2804 C 250.025 3.3487 0.920836 0
M  V30 2805 C 248.979 4.27414 0.223958 0
M  V30 2806 C 248.305 5.19074 1.2832 0
M  V30 2807 C 249.605 5.14445 -0.90242 0
M  V30 2808 H 251.299 2.88819 -0.788921 0
M  V30 2809 H 248.845 1.38873 -0.38083 0
M  V30 2810 H 250.798 3.97787 1.39081 0
M  V30 2811 H 249.522 2.77861 1.71642 0
M  V30 2812 H 248.181 3.65904 -0.225864 0
M  V30 2813 H 247.829 4.58387 2.071 0
M  V30 2814 H 247.529 5.81822 0.821995 0
M  V30 2815 H 249.053 5.84867 1.75392 0
M  V30 2816 H 250.467 5.70998 -0.513272 0
M  V30 2817 H 248.864 5.86072 -1.28997 0
M  V30 2818 H 249.934 4.52322 -1.74737 0
M  V30 2819 N 251.277 0.427512 1.51691 0
M  V30 2820 C 252.187 -0.39527 2.31246 0
M  V30 2821 C 253.203 -1.03674 1.39742 0
M  V30 2822 O 254.379 -1.03425 1.72816 0
M  V30 2823 C 251.444 -1.48706 3.13189 0
M  V30 2824 C 250.505 -0.866743 4.20459 0
M  V30 2825 C 249.738 -1.90651 4.98486 0
M  V30 2826 O 249.961 -3.12733 4.77026 0
M  V30 2827 O 248.895 -1.5025 5.82845 0
M  V30 2828 H 252.721 0.253918 3.02637 0
M  V30 2829 H 250.306 0.190274 1.48183 0
M  V30 2830 H 252.188 -2.12047 3.64162 0
M  V30 2831 H 250.863 -2.12051 2.44573 0
M  V30 2832 H 249.77 -0.195544 3.73589 0
M  V30 2833 H 251.103 -0.276934 4.9142 0
M  V30 2834 N 252.755 -1.56801 0.158532 0
M  V30 2835 C 254.032 -1.88131 -0.535357 0
M  V30 2836 C 254.412 -1.06638 -1.82186 0
M  V30 2837 O 253.76 -0.156533 -2.27963 0
M  V30 2838 C 253.97 -3.39949 -0.789653 0
M  V30 2839 C 255.318 -4.09416 -1.12533 0
M  V30 2840 O 256.342 -3.45194 -0.878622 0
M  V30 2841 O 255.201 -5.22855 -1.59014 0
M  V30 2842 H 252.295 -0.780143 -0.27442 0
M  V30 2843 H 254.841 -1.68564 0.19601 0
M  V30 2844 H 253.613 -3.91115 0.120353 0
M  V30 2845 H 253.236 -3.65084 -1.57479 0
M  V30 2846 N 254.233 0.115231 -1.57178 0
M  V30 2847 C 255.48 0.822351 -1.8505 0
M  V30 2848 C 255.808 1.79701 -0.744168 0
M  V30 2849 O 255.063 1.93909 0.26414 0
M  V30 2850 C 255.362 1.60324 -3.19423 0
M  V30 2851 C 255.028 0.772536 -4.44233 0
M  V30 2852 C 253.69 0.543468 -4.78121 0
M  V30 2853 C 256.042 0.193746 -5.2084 0
M  V30 2854 C 253.37 -0.274583 -5.86057 0
M  V30 2855 C 255.722 -0.611517 -6.29637 0
M  V30 2856 C 254.386 -0.850867 -6.62055 0
M  V30 2857 H 253.656 0.30092 -0.677147 0
M  V30 2858 H 256.303 0.0845802 -1.91313 0
M  V30 2859 H 254.608 2.41203 -3.08753 0
M  V30 2860 H 256.305 2.1544 -3.38211 0
M  V30 2861 H 252.895 0.96117 -4.17683 0
M  V30 2862 H 257.079 0.357926 -4.95008 0
M  V30 2863 H 252.335 -0.469206 -6.09597 0
M  V30 2864 H 256.509 -1.06697 -6.88178 0
M  V30 2865 H 254.136 -1.48657 -7.45523 0
M  V30 2866 N 255.711 1.52812 0.385517 0
M  V30 2867 C 257.122 1.5993 0.963293 0
M  V30 2868 C 257.473 0.454302 1.90868 0
M  V30 2869 O 256.598 -0.422132 2.12243 0
M  V30 2870 C 257.193 2.89871 1.75387 0
M  V30 2871 C 255.752 2.99389 2.28129 0
M  V30 2872 C 254.899 2.55071 1.08783 0
M  V30 2873 H 257.85 1.5784 0.164948 0
M  V30 2874 H 257.871 2.76553 2.61341 0
M  V30 2875 H 257.383 3.73186 1.06554 0
M  V30 2876 H 255.484 2.20619 3.00263 0
M  V30 2877 H 255.597 4.04096 2.57377 0
M  V30 2878 H 253.961 2.09473 1.4489 0
M  V30 2879 H 254.744 3.40785 0.414807 0
M  V30 2880 N 257.189 -0.644168 1.43834 0
M  V30 2881 C 258.122 -1.76906 1.44151 0
M  V30 2882 C 259.1 -1.59774 0.301857 0
M  V30 2883 O 260.284 -1.81834 0.496841 0
M  V30 2884 C 257.411 -3.14321 1.26174 0
M  V30 2885 C 256.457 -3.50134 2.43533 0
M  V30 2886 S 257.29 -3.49085 4.06079 0
M  V30 2887 C 258.446 -4.89142 3.90501 0
M  V30 2888 H 258.679 -1.76368 2.39336 0
M  V30 2889 H 256.212 -0.817624 1.30974 0
M  V30 2890 H 258.17 -3.93625 1.16489 0
M  V30 2891 H 256.831 -3.12412 0.325224 0
M  V30 2892 H 256.024 -4.50095 2.26783 0
M  V30 2893 H 255.626 -2.78264 2.4989 0
M  V30 2894 H 257.918 -5.78036 3.53385 0
M  V30 2895 H 258.861 -5.10945 4.90246 0
M  V30 2896 H 259.269 -4.63102 3.22795 0
M  V30 2897 N 258.668 -1.30515 -0.883378 0
M  V30 2898 C 259.945 -1.10086 -1.6168 0
M  V30 2899 C 260.325 0.349269 -2.08191 0
M  V30 2900 O 259.673 1.34105 -1.85008 0
M  V30 2901 C 259.883 -2.10315 -2.78511 0
M  V30 2902 C 261.231 -2.42119 -3.48803 0
M  V30 2903 O 262.255 -2.08638 -2.88702 0
M  V30 2904 O 261.114 -2.99396 -4.57192 0
M  V30 2905 H 258.208 -0.422907 -0.710689 0
M  V30 2906 H 260.754 -1.41947 -0.930015 0
M  V30 2907 H 259.526 -3.07917 -2.41459 0
M  V30 2908 H 259.149 -1.79282 -3.54886 0
M  V30 2909 N 260.146 1.09593 -1.13257 0
M  V30 2910 C 261.109 2.14359 -0.811358 0
M  V30 2911 C 262.109 1.59808 0.178377 0
M  V30 2912 O 263.299 1.74132 -0.0484911 0
M  V30 2913 C 260.431 3.40269 -0.207276 0
M  V30 2914 H 261.624 2.44284 -1.73969 0
M  V30 2915 H 259.177 1.25102 -0.936973 0
M  V30 2916 H 259.912 3.15969 0.73036 0
M  V30 2917 H 259.697 3.81154 -0.919992 0
M  V30 2918 H 261.187 4.176 0.000667944 0
M  V30 2919 N 261.624 0.925811 1.2754 0
M  V30 2920 C 262.574 0.394488 2.24561 0
M  V30 2921 C 263.558 -0.500183 1.52928 0
M  V30 2922 O 264.75 -0.337936 1.73744 0
M  V30 2923 C 261.879 -0.353328 3.41477 0
M  V30 2924 C 260.965 0.557752 4.20416 0
M  V30 2925 N 261.356 1.67674 4.77199 0
M  V30 2926 C 259.654 0.360404 4.44541 0
M  V30 2927 C 260.355 2.24324 5.36706 0
M  V30 2928 N 259.331 1.53305 5.21535 0
M  V30 2929 H 263.133 1.2489 2.66045 0
M  V30 2930 H 260.647 0.779864 1.4245 0
M  V30 2931 H 262.644 -0.7509 4.10082 0
M  V30 2932 H 261.304 -1.20469 3.01525 0
M  V30 2933 H 262.315 2.05915 4.75204 0
M  V30 2934 H 258.992 -0.450454 4.15063 0
M  V30 2935 H 260.382 3.18521 5.91603 0
M  V30 2936 N 263.102 -1.41638 0.69111 0
M  V30 2937 C 264.327 -2.06148 0.227583 0
M  V30 2938 C 264.752 -1.51652 -1.11281 0
M  V30 2939 O 264.11 -0.64164 -1.69566 0
M  V30 2940 C 264.158 -3.60095 0.190858 0
M  V30 2941 O 263.262 -4.03845 -0.835664 0
M  V30 2942 H 262.603 -0.654434 0.112306 0
M  V30 2943 H 265.133 -1.81484 0.944714 0
M  V30 2944 H 265.143 -4.07995 0.020207 0
M  V30 2945 H 263.818 -3.99129 1.16915 0
M  V30 2946 H 262.395 -3.67458 -0.63473 0
M  V30 2947 N 264.58 -0.43555 -1.51462 0
M  V30 2948 C 265.82 0.130708 -2.03982 0
M  V30 2949 C 266.184 1.40117 -1.31268 0
M  V30 2950 O 267.385 2.04755 -1.74152 0
M  V30 2951 C 265.656 0.346102 -3.5572 0
M  V30 2952 S 267.215 0.876022 -4.29967 0
M  V30 2953 H 264.033 0.0326881 -0.710248 0
M  V30 2954 H 266.635 -0.594544 -1.8624 0
M  V30 2955 H 265.339 -0.584911 -4.0621 0
M  V30 2956 H 264.87 1.09849 -3.77752 0
M  V30 2957 H 266.885 2.15379 -4.47019 0
M  V30 2958 N 266.058 1.56714 -0.166846 0
M  V30 2959 C 267.469 1.83378 0.350646 0
M  V30 2960 C 267.82 1.08646 1.63372 0
M  V30 2961 O 266.945 0.338058 2.13743 0
M  V30 2962 C 267.54 3.32643 0.642963 0
M  V30 2963 C 266.099 3.59818 1.10491 0
M  V30 2964 C 265.246 2.76954 0.138411 0
M  V30 2965 H 268.197 1.53803 -0.391193 0
M  V30 2966 H 268.218 3.49878 1.49551 0
M  V30 2967 H 267.73 3.87007 -0.291055 0
M  V30 2968 H 265.831 3.1086 2.05418 0
M  V30 2969 H 265.944 4.68178 1.01716 0
M  V30 2970 H 264.308 2.4666 0.634911 0
M  V30 2971 H 265.091 3.34097 -0.789549 0
M  V30 2972 N 267.536 -0.106894 1.57237 0
M  V30 2973 C 268.466 -1.13148 2.04254 0
M  V30 2974 C 269.447 -1.42476 0.929224 0
M  V30 2975 O 270.632 -1.52709 1.19973 0
M  V30 2976 C 267.762 -2.4545 2.45706 0
M  V30 2977 C 266.716 -2.30558 3.60592 0
M  V30 2978 C 266.042 -3.67931 3.87983 0
M  V30 2979 C 267.342 -1.75597 4.91897 0
M  V30 2980 H 269.036 -0.740374 2.90101 0
M  V30 2981 H 266.582 -0.354696 1.39563 0
M  V30 2982 H 268.535 -3.17389 2.77205 0
M  V30 2983 H 267.259 -2.86475 1.56843 0
M  V30 2984 H 265.918 -1.61067 3.29322 0
M  V30 2985 H 265.566 -4.06462 2.96306 0
M  V30 2986 H 265.266 -3.58817 4.65322 0
M  V30 2987 H 266.79 -4.41356 4.21945 0
M  V30 2988 H 268.204 -2.37364 5.21854 0
M  V30 2989 H 266.601 -1.77272 5.73319 0
M  V30 2990 H 267.671 -0.714451 4.79608 0
M  V30 2991 N 269.014 -1.53014 -0.377408 0
M  V30 2992 C 269.961 -1.78616 -1.46168 0
M  V30 2993 C 270.931 -0.629917 -1.53692 0
M  V30 2994 O 272.116 -0.870861 -1.69766 0
M  V30 2995 C 269.256 -1.97123 -2.8326 0
M  V30 2996 C 268.369 -3.24831 -2.84796 0
M  V30 2997 C 267.504 -3.33591 -4.13389 0
M  V30 2998 C 266.543 -4.55377 -4.09021 0
M  V30 2999 N 265.68 -4.61355 -5.29241 0
M  V30 3000 H 270.52 -2.71142 -1.23637 0
M  V30 3001 H 268.057 -1.34326 -0.599577 0
M  V30 3002 H 270.015 -2.05839 -3.62886 0
M  V30 3003 H 268.645 -1.07946 -3.04216 0
M  V30 3004 H 267.697 -3.25128 -1.97474 0
M  V30 3005 H 269.009 -4.14523 -2.77439 0
M  V30 3006 H 268.163 -3.41554 -5.01424 0
M  V30 3007 H 266.902 -2.41894 -4.23484 0
M  V30 3008 H 265.907 -4.47527 -3.19373 0
M  V30 3009 H 267.132 -5.48402 -4.00539 0
M  V30 3010 H 265.078 -3.72554 -5.39944 0
M  V30 3011 H 264.995 -5.44935 -5.24006 0
M  V30 3012 H 266.263 -4.73586 -6.19141 0
M  V30 3013 N 270.492 0.636531 -1.44174 0
M  V30 3014 C 271.739 1.39619 -1.46672 0
M  V30 3015 C 272.067 1.94257 -0.0972691 0
M  V30 3016 O 271.322 1.73768 0.900175 0
M  V30 3017 C 271.621 2.58309 -2.47005 0
M  V30 3018 C 271.287 2.21992 -3.92467 0
M  V30 3019 C 269.949 2.118 -4.32081 0
M  V30 3020 C 272.301 1.9321 -4.84065 0
M  V30 3021 C 269.629 1.71007 -5.61225 0
M  V30 3022 C 271.981 1.53911 -6.13591 0
M  V30 3023 C 270.645 1.42257 -6.52165 0
M  V30 3024 H 269.915 0.510902 -0.536712 0
M  V30 3025 H 272.562 0.722328 -1.77355 0
M  V30 3026 H 270.867 3.30903 -2.09786 0
M  V30 3027 H 272.564 3.16533 -2.46186 0
M  V30 3028 H 269.154 2.30841 -3.61124 0
M  V30 3029 H 273.338 1.99997 -4.54219 0
M  V30 3030 H 268.594 1.60583 -5.89935 0
M  V30 3031 H 272.768 1.30677 -6.8403 0
M  V30 3032 H 270.395 1.10419 -7.52138 0
M  V30 3033 N 271.97 1.30982 0.876444 0
M  V30 3034 C 273.218 1.20058 1.62575 0
M  V30 3035 C 273.539 -0.242947 1.93481 0
M  V30 3036 O 272.809 -1.1619 1.57724 0
M  V30 3037 H 271.389 0.44135 0.602677 0
M  V30 3038 H 274.051 1.64222 1.04962 0
M  V30 3039 H 273.147 1.76762 2.57219 0
M  V30 3040 N 273.449 -1.08991 1.13837 0
M  V30 3041 C 274.674 -1.85551 0.926585 0
M  V30 3042 C 275.099 -1.80782 -0.519566 0
M  V30 3043 O 274.457 -1.18855 -1.36906 0
M  V30 3044 C 274.505 -3.31266 1.42462 0
M  V30 3045 O 273.609 -4.07822 0.612789 0
M  V30 3046 H 272.95 -0.575192 0.331738 0
M  V30 3047 H 275.48 -1.37604 1.51414 0
M  V30 3048 H 275.49 -3.82112 1.43019 0
M  V30 3049 H 274.165 -3.34052 2.47754 0
M  V30 3050 H 272.742 -3.66731 0.675463 0
M  V30 3051 N 274.927 -0.932562 -1.27047 0
M  V30 3052 C 276.157 -0.591173 -1.97961 0
M  V30 3053 C 276.565 0.836219 -1.69717 0
M  V30 3054 O 275.908 1.56801 -0.957036 0
M  V30 3055 C 275.97 -0.743082 -3.51736 0
M  V30 3056 C 275.634 -2.1435 -4.03613 0
M  V30 3057 C 276.631 -3.11815 -4.16014 0
M  V30 3058 C 274.316 -2.46175 -4.37839 0
M  V30 3059 C 276.31 -4.39211 -4.61923 0
M  V30 3060 C 273.997 -3.73806 -4.83438 0
M  V30 3061 C 274.995 -4.70137 -4.95439 0
M  V30 3062 O 274.683 -5.95496 -5.40037 0
M  V30 3063 H 274.415 -0.222375 -0.638377 0
M  V30 3064 H 276.969 -1.25317 -1.62742 0
M  V30 3065 H 275.199 -0.0239739 -3.86693 0
M  V30 3066 H 276.888 -0.40603 -4.03864 0
M  V30 3067 H 277.654 -2.88549 -3.89826 0
M  V30 3068 H 273.533 -1.71936 -4.27737 0
M  V30 3069 H 277.077 -5.14404 -4.71205 0
M  V30 3070 H 272.974 -3.96888 -5.09068 0
M  V30 3071 H 273.742 -5.98554 -5.58279 0
M  V30 3072 N 276.405 1.4127 -0.698611 0
M  V30 3073 C 277.368 2.29158 -0.044132 0
M  V30 3074 C 278.368 1.44529 0.704841 0
M  V30 3075 O 279.558 1.65643 0.539276 0
M  V30 3076 C 276.69 3.27459 0.947809 0
M  V30 3077 H 277.883 2.88529 -0.817994 0
M  V30 3078 H 275.436 1.49307 -0.46228 0
M  V30 3079 H 276.171 2.73073 1.74933 0
M  V30 3080 H 275.956 3.8991 0.41385 0
M  V30 3081 H 277.446 3.93311 1.40344 0
M  V30 3082 N 277.883 0.443576 1.51229 0
M  V30 3083 C 279.113 -0.119117 2.06256 0
M  V30 3084 C 279.521 -1.36471 1.31043 0
M  V30 3085 O 278.864 -1.80034 0.365151 0
M  V30 3086 C 278.926 -0.500546 3.55998 0
M  V30 3087 C 278.59 0.639125 4.52509 0
M  V30 3088 C 279.587 1.51311 4.97394 0
M  V30 3089 C 277.272 0.821632 4.95535 0
M  V30 3090 C 279.266 2.55425 5.83984 0
M  V30 3091 C 276.953 1.86603 5.81913 0
M  V30 3092 C 277.951 2.73072 6.26036 0
M  V30 3093 O 277.639 3.75718 7.10698 0
M  V30 3094 H 277.371 -0.00857665 0.675946 0
M  V30 3095 H 279.925 0.623288 1.95715 0
M  V30 3096 H 278.155 -1.29575 3.64345 0
M  V30 3097 H 279.844 -0.995116 3.93513 0
M  V30 3098 H 280.61 1.38367 4.64844 0
M  V30 3099 H 276.489 0.158149 4.60729 0
M  V30 3100 H 280.033 3.22949 6.18344 0
M  V30 3101 H 275.93 1.99564 6.13876 0
M  V30 3102 H 276.698 3.72374 7.2889 0
M  V30 3103 N 279.361 -1.56624 0.175154 0
M  V30 3104 C 280.589 -2.01374 -0.474971 0
M  V30 3105 C 281.004 -1.05537 -1.56548 0
M  V30 3106 O 280.361 -0.0568668 -1.82411 0
M  V30 3107 C 280.412 -3.45923 -1.04975 0
M  V30 3108 O 280.133 -4.381 -0.00276605 0
M  V30 3109 C 281.634 -4.06093 -1.77773 0
M  V30 3110 H 278.854 -0.659962 -0.121206 0
M  V30 3111 H 281.398 -2.02601 0.27801 0
M  V30 3112 H 279.553 -3.45458 -1.75321 0
M  V30 3113 H 279.967 -5.22753 -0.427681 0
M  V30 3114 H 281.441 -5.09147 -2.13245 0
M  V30 3115 H 281.918 -3.48405 -2.67414 0
M  V30 3116 H 282.524 -4.10272 -1.12059 0
M  V30 3117 N 280.839 0.0985539 -1.57292 0
M  V30 3118 C 282.067 0.816318 -1.90115 0
M  V30 3119 C 282.482 1.72451 -0.768509 0
M  V30 3120 O 281.839 1.80643 0.259687 0
M  V30 3121 C 281.89 1.63259 -3.22535 0
M  V30 3122 O 281.611 0.760934 -4.31441 0
M  V30 3123 C 283.112 2.45372 -3.69199 0
M  V30 3124 H 280.332 0.233595 -0.629027 0
M  V30 3125 H 282.876 0.0768229 -2.04356 0
M  V30 3126 H 281.031 2.32463 -3.09903 0
M  V30 3127 H 281.445 1.32595 -5.07463 0
M  V30 3128 H 282.919 2.98144 -4.64558 0
M  V30 3129 H 283.396 3.23677 -2.96867 0
M  V30 3130 H 284.002 1.81373 -3.84687 0
M  V30 3131 N 282.317 1.53212 0.369288 0
M  V30 3132 C 283.542 1.73423 1.1375 0
M  V30 3133 C 283.967 0.460404 1.82378 0
M  V30 3134 O 283.325 -0.585298 1.71592 0
M  V30 3135 C 283.373 2.89769 2.1463 0
M  V30 3136 O 282.477 2.58119 3.21634 0
M  V30 3137 H 281.818 0.576061 0.330227 0
M  V30 3138 H 284.348 2.00083 0.427547 0
M  V30 3139 H 284.358 3.15829 2.58294 0
M  V30 3140 H 283.033 3.8217 1.64071 0
M  V30 3141 H 281.61 2.42864 2.82969 0
M  V30 3142 N 283.795 -0.628877 1.44509 0
M  V30 3143 C 284.705 -1.7694 1.54044 0
M  V30 3144 C 285.721 -1.68705 0.425987 0
M  V30 3145 O 286.897 -1.89442 0.683656 0
M  V30 3146 C 283.962 -3.13332 1.48405 0
M  V30 3147 C 283.023 -3.33181 2.70719 0
M  V30 3148 C 282.256 -4.63067 2.6534 0
M  V30 3149 O 282.479 -5.44017 1.71469 0
M  V30 3150 O 281.413 -4.85167 3.56226 0
M  V30 3151 H 285.239 -1.71848 2.50403 0
M  V30 3152 H 282.824 -0.790378 1.26781 0
M  V30 3153 H 284.706 -3.94634 1.47791 0
M  V30 3154 H 283.381 -3.1896 0.551898 0
M  V30 3155 H 282.288 -2.51549 2.769 0
M  V30 3156 H 283.621 -3.32416 3.62988 0
M  V30 3157 N 285.273 -1.31445 -0.869486 0
M  V30 3158 C 286.519 -1.21337 -1.62496 0
M  V30 3159 C 286.852 0.227872 -1.92858 0
M  V30 3160 O 286.127 1.16094 -1.56053 0
M  V30 3161 C 286.41 -2.05814 -2.95487 0
M  V30 3162 C 286.263 -3.5824 -2.72 0
M  V30 3163 C 287.582 -1.9079 -3.96594 0
M  V30 3164 H 284.701 -0.442135 -0.589649 0
M  V30 3165 H 287.343 -1.6124 -1.00507 0
M  V30 3166 H 285.493 -1.71913 -3.48394 0
M  V30 3167 H 287.165 -4.0228 -2.25762 0
M  V30 3168 H 285.408 -3.81647 -2.06224 0
M  V30 3169 H 286.079 -4.12657 -3.66631 0
M  V30 3170 H 288.555 -2.20459 -3.52898 0
M  V30 3171 H 287.431 -2.52199 -4.87531 0
M  V30 3172 H 287.692 -0.871341 -4.33428 0
M  V30 3173 N 286.751 1.08385 -1.14413 0
M  V30 3174 C 287.979 1.84517 -0.936001 0
M  V30 3175 C 288.394 1.81626 0.515503 0
M  V30 3176 O 287.751 1.22008 1.35721 0
M  V30 3177 C 287.802 3.32049 -1.42918 0
M  V30 3178 O 287.523 3.34951 -2.82381 0
M  V30 3179 C 289.024 4.24986 -1.26103 0
M  V30 3180 H 286.244 0.582491 -0.333084 0
M  V30 3181 H 288.788 1.36885 -1.5193 0
M  V30 3182 H 286.943 3.7707 -0.888641 0
M  V30 3183 H 287.357 4.27048 -3.04517 0
M  V30 3184 H 288.831 5.26615 -1.6547 0
M  V30 3185 H 289.308 4.38726 -0.20392 0
M  V30 3186 H 289.914 3.85791 -1.79012 0
M  V30 3187 N 288.23 0.939286 1.26551 0
M  V30 3188 C 289.46 0.601663 1.97645 0
M  V30 3189 C 289.868 -0.827206 1.70159 0
M  V30 3190 O 289.211 -1.56291 0.965338 0
M  V30 3191 C 289.273 0.761725 3.51337 0
M  V30 3192 C 288.937 2.16487 4.0247 0
M  V30 3193 C 289.934 3.14016 4.14355 0
M  V30 3194 C 287.619 2.48494 4.36527 0
M  V30 3195 C 289.613 4.41654 4.59587 0
M  V30 3196 C 287.3 3.76364 4.81449 0
M  V30 3197 C 288.298 4.72758 4.92939 0
M  V30 3198 O 287.986 5.98352 5.36871 0
M  V30 3199 H 287.718 0.225758 0.637189 0
M  V30 3200 H 290.272 1.26178 1.62075 0
M  V30 3201 H 288.502 0.0444808 3.86674 0
M  V30 3202 H 290.191 0.427442 4.03643 0
M  V30 3203 H 290.957 2.90613 3.8829 0
M  V30 3204 H 286.836 1.74202 4.26819 0
M  V30 3205 H 290.38 5.16896 4.68471 0
M  V30 3206 H 286.277 3.99582 5.06956 0
M  V30 3207 H 287.045 6.01507 5.55096 0
M  V30 3208 N 289.708 -1.40897 0.706093 0
M  V30 3209 C 290.957 -2.00284 0.238574 0
M  V30 3210 C 291.27 -1.56604 -1.17194 0
M  V30 3211 O 292.476 -2.08624 -1.73748 0
M  V30 3212 C 290.932 -3.57934 0.375623 0
M  V30 3213 C 290.54 -4.10591 1.79217 0
M  V30 3214 C 292.284 -4.24488 -0.0315857 0
M  V30 3215 C 290.191 -5.60712 1.88032 0
M  V30 3216 H 289.121 -0.749144 0.0854398 0
M  V30 3217 H 291.772 -1.61251 0.875813 0
M  V30 3218 H 290.154 -3.94622 -0.330042 0
M  V30 3219 H 291.328 -3.85301 2.52745 0
M  V30 3220 H 289.643 -3.56601 2.15 0
M  V30 3221 H 292.24 -5.34698 0.0136842 0
M  V30 3222 H 292.583 -4.02261 -1.072 0
M  V30 3223 H 293.116 -3.92873 0.624181 0
M  V30 3224 H 289.855 -5.87781 2.90161 0
M  V30 3225 H 289.375 -5.87896 1.18903 0
M  V30 3226 H 291.054 -6.25658 1.64805 0
M  V30 3227 N 291.186 -0.45159 -1.50991 0
M  V30 3228 C 292.432 0.102439 -2.03142 0
M  V30 3229 C 292.787 1.39138 -1.32884 0
M  V30 3230 O 292.08 1.86493 -0.439438 0
M  V30 3231 C 292.274 0.361728 -3.55565 0
M  V30 3232 C 292.103 -0.900535 -4.40591 0
M  V30 3233 C 290.873 -1.43821 -4.844 0
M  V30 3234 C 293.071 -1.79063 -4.82121 0
M  V30 3235 N 291.053 -2.65153 -5.53685 0
M  V30 3236 C 292.424 -2.84991 -5.50618 0
M  V30 3237 C 294.479 -1.80334 -4.64095 0
M  V30 3238 C 293.182 -3.92155 -6.02998 0
M  V30 3239 C 295.208 -2.86442 -5.17402 0
M  V30 3240 C 294.57 -3.9109 -5.85857 0
M  V30 3241 H 290.669 -0.00204537 -0.781997 0
M  V30 3242 H 293.253 -0.615446 -1.84717 0
M  V30 3243 H 291.424 1.04865 -3.73976 0
M  V30 3244 H 293.156 0.908372 -3.94374 0
M  V30 3245 H 289.911 -0.990117 -4.63135 0
M  V30 3246 H 290.335 -3.26717 -5.92946 0
M  V30 3247 H 294.977 -1.00753 -4.1062 0
M  V30 3248 H 292.695 -4.72565 -6.55521 0
M  V30 3249 H 296.281 -2.88386 -5.05297 0
M  V30 3250 H 295.161 -4.71845 -6.26364 0
M  V30 3251 N 292.664 1.56529 -0.183458 0
M  V30 3252 C 293.892 2.01623 0.464285 0
M  V30 3253 C 294.307 1.06366 1.55986 0
M  V30 3254 O 293.664 0.0665398 1.82379 0
M  V30 3255 C 293.715 3.46475 1.03139 0
M  V30 3256 O 293.436 4.38095 -0.0204675 0
M  V30 3257 C 294.937 4.0703 1.75617 0
M  V30 3258 H 292.157 0.660596 0.117704 0
M  V30 3259 H 294.701 2.02451 -0.288751 0
M  V30 3260 H 292.856 3.46383 1.73486 0
M  V30 3261 H 293.27 5.22973 0.399952 0
M  V30 3262 H 294.744 5.10271 2.10542 0
M  V30 3263 H 295.221 3.49819 2.65563 0
M  V30 3264 H 295.827 4.1086 1.09882 0
M  V30 3265 N 294.142 -0.090211 1.57342 0
M  V30 3266 C 295.372 -0.805055 1.90269 0
M  V30 3267 C 295.78 -1.72561 0.775842 0
M  V30 3268 O 295.123 -1.81839 -0.260843 0
M  V30 3269 C 295.185 -1.66734 3.18497 0
M  V30 3270 C 294.849 -0.918092 4.47683 0
M  V30 3271 C 295.846 -0.245674 5.19319 0
M  V30 3272 C 293.531 -0.890724 4.94339 0
M  V30 3273 C 295.525 0.444088 6.35851 0
M  V30 3274 C 293.212 -0.197179 6.10782 0
M  V30 3275 C 294.21 0.469044 6.81388 0
M  V30 3276 O 293.898 1.15146 7.95611 0
M  V30 3277 H 293.63 -0.235143 0.633785 0
M  V30 3278 H 296.184 -0.0703805 2.05279 0
M  V30 3279 H 294.414 -2.44437 2.99646 0
M  V30 3280 H 296.103 -2.25919 3.37217 0
M  V30 3281 H 296.869 -0.258246 4.84312 0
M  V30 3282 H 292.748 -1.39873 4.39268 0
M  V30 3283 H 296.292 0.964667 6.90898 0
M  V30 3284 H 292.189 -0.18247 6.45242 0
M  V30 3285 H 292.957 1.05885 8.11622 0
M  V30 3286 N 295.62 -1.53406 -0.361157 0
M  V30 3287 C 296.568 -1.80832 -1.46296 0
M  V30 3288 C 297.562 -0.677699 -1.55253 0
M  V30 3289 O 298.768 -0.860723 -1.58087 0
M  V30 3290 H 295.143 -0.572627 -0.487445 0
M  V30 3291 H 297.114 -2.73045 -1.20371 0
M  V30 3292 C 295.863 -2.01907 -2.8307 0
M  V30 3293 H 295.186 -2.88349 -2.76938 0
M  V30 3294 H 296.626 -2.25072 -3.59331 0
M  V30 3295 C 295.085 -0.799449 -3.27277 0
M  V30 3296 O 295.615 0.00971761 -4.01699 0
M  V30 3297 N 293.821 -0.621637 -2.83873 0
M  V30 3298 H 293.368 -1.28126 -2.23476 0
M  V30 3299 H 293.326 0.19298 -3.13807 0
M  V30 3300 N 297.098 0.621204 -1.44841 0
M  V30 3301 C 298.061 1.71459 -1.521 0
M  V30 3302 C 299.061 1.55696 -0.401933 0
M  V30 3303 O 300.251 1.61011 -0.664925 0
M  V30 3304 C 297.383 3.10624 -1.40447 0
M  V30 3305 H 298.576 1.66394 -2.49506 0
M  V30 3306 H 296.129 0.835745 -1.3208 0
M  V30 3307 H 296.864 3.21277 -0.441737 0
M  V30 3308 H 296.649 3.23473 -2.21602 0
M  V30 3309 H 298.139 3.90293 -1.4853 0
M  V30 3310 N 298.576 1.31904 0.862503 0
M  V30 3311 C 299.801 1.25135 1.65397 0
M  V30 3312 C 300.226 -0.179 1.87246 0
M  V30 3313 O 299.584 -1.1277 1.4196 0
M  V30 3314 C 299.632 2.00832 2.99498 0
M  V30 3315 O 298.736 1.35075 3.89652 0
M  V30 3316 H 298.077 0.431655 0.504549 0
M  V30 3317 H 300.607 1.74094 1.07483 0
M  V30 3318 H 300.617 2.10709 3.49379 0
M  V30 3319 H 299.292 3.04847 2.82916 0
M  V30 3320 H 297.869 1.33696 3.48109 0
M  V30 3321 N 300.054 -1.07777 1.14986 0
M  V30 3322 C 301.331 -1.7699 0.832695 0
M  V30 3323 C 301.711 -2.001 -0.672561 0
M  V30 3324 O 301.059 -1.61598 -1.6155 0
M  V30 3325 C 301.269 -3.08139 1.63863 0
M  V30 3326 C 302.617 -3.8256 1.84208 0
M  V30 3327 O 303.641 -3.17939 1.60603 0
M  V30 3328 O 302.5 -4.98612 2.23714 0
M  V30 3329 H 299.594 -0.768389 0.305791 0
M  V30 3330 H 302.14 -1.14182 1.25541 0
M  V30 3331 H 300.912 -2.86909 2.6608 0
M  V30 3332 H 300.535 -3.78678 1.21197 0
M  V30 3333 N 301.532 -0.945985 -1.26051 0
M  V30 3334 C 302.757 -0.612525 -1.98149 0
M  V30 3335 C 303.182 0.806623 -1.69927 0
M  V30 3336 O 302.54 1.54411 -0.950108 0
M  V30 3337 C 302.588 -0.866981 -3.50023 0
M  V30 3338 O 301.692 0.0585333 -4.12358 0
M  V30 3339 H 301.033 -0.23379 -0.621481 0
M  V30 3340 H 303.563 -1.27023 -1.60395 0
M  V30 3341 H 303.573 -0.789792 -4.00283 0
M  V30 3342 H 302.248 -1.90135 -3.69894 0
M  V30 3343 H 300.825 -0.0701241 -3.72834 0
M  V30 3344 N 303.011 1.40521 -0.713556 0
M  V30 3345 C 304.257 2.01221 -0.252564 0
M  V30 3346 C 304.59 1.56444 1.1506 0
M  V30 3347 O 303.865 0.783597 1.78017 0
M  V30 3348 C 304.148 3.58582 -0.330332 0
M  V30 3349 C 304.001 4.13437 -1.77173 0
M  V30 3350 C 305.32 4.39079 0.299641 0
M  V30 3351 H 302.439 0.731077 -0.0932471 0
M  V30 3352 H 305.081 1.67026 -0.905673 0
M  V30 3353 H 303.231 3.87844 0.225737 0
M  V30 3354 H 304.903 3.9498 -2.38303 0
M  V30 3355 H 303.146 3.67801 -2.3001 0
M  V30 3356 H 303.817 5.22597 -1.77755 0
M  V30 3357 H 306.293 4.15735 -0.174139 0
M  V30 3358 H 305.169 5.4848 0.214771 0
M  V30 3359 H 305.43 4.19915 1.38288 0
M  V30 3360 N 304.489 0.459591 1.5075 0
M  V30 3361 C 305.421 -0.37665 2.26084 0
M  V30 3362 C 306.434 -0.967109 1.30961 0
M  V30 3363 O 307.623 -0.857468 1.56556 0
M  V30 3364 C 304.723 -1.54112 3.01832 0
M  V30 3365 C 303.896 -1.06553 4.24223 0
M  V30 3366 C 302.955 -2.1027 4.82362 0
M  V30 3367 O 301.981 -1.68798 5.43595 0
M  V30 3368 N 303.183 -3.42974 4.68347 0
M  V30 3369 H 305.948 0.269124 2.98489 0
M  V30 3370 H 303.509 0.28972 1.59287 0
M  V30 3371 H 305.501 -2.23165 3.37608 0
M  V30 3372 H 304.071 -2.0918 2.32298 0
M  V30 3373 H 303.291 -0.201274 3.93686 0
M  V30 3374 H 304.579 -0.725516 5.03601 0
M  V30 3375 H 303.977 -3.79385 4.19623 0
M  V30 3376 H 302.534 -4.07858 5.08424 0
M  V30 3377 N 305.967 -1.56429 0.191757 0
M  V30 3378 C 307.213 -1.97777 -0.448554 0
M  V30 3379 C 307.546 -1.07847 -1.61501 0
M  V30 3380 O 306.821 -0.129774 -1.94067 0
M  V30 3381 C 307.104 -3.48362 -0.911906 0
M  V30 3382 C 306.957 -4.4907 0.256136 0
M  V30 3383 C 308.276 -4.02561 -1.77857 0
M  V30 3384 H 305.395 -0.719071 -0.161572 0
M  V30 3385 H 308.037 -1.87896 0.282007 0
M  V30 3386 H 306.187 -3.56914 -1.53442 0
M  V30 3387 H 307.859 -4.5256 0.893733 0
M  V30 3388 H 306.102 -4.24181 0.908436 0
M  V30 3389 H 306.773 -5.51889 -0.11053 0
M  V30 3390 H 309.249 -3.96767 -1.25359 0
M  V30 3391 H 308.125 -5.08301 -2.07174 0
M  V30 3392 H 308.386 -3.47616 -2.73158 0
M  V30 3393 N 307.445 0.0818655 -1.57387 0
M  V30 3394 C 308.408 1.08265 -2.02018 0
M  V30 3395 C 309.408 1.32183 -0.915664 0
M  V30 3396 O 310.598 1.28073 -1.18081 0
M  V30 3397 C 307.73 2.42871 -2.39221 0
M  V30 3398 H 308.923 0.698204 -2.91659 0
M  V30 3399 H 306.476 0.327303 -1.52835 0
M  V30 3400 H 307.211 2.86167 -1.52575 0
M  V30 3401 H 306.996 2.26855 -3.19811 0
M  V30 3402 H 308.486 3.14826 -2.74362 0
M  V30 3403 N 308.923 1.53595 0.353017 0
M  V30 3404 C 310.334 1.61937 0.929153 0
M  V30 3405 C 310.685 0.494686 1.89861 0
M  V30 3406 O 309.81 -0.377017 2.1309 0
M  V30 3407 C 310.405 2.93526 1.69199 0
M  V30 3408 C 308.964 3.04161 2.21727 0
M  V30 3409 C 308.111 2.57322 1.03348 0
M  V30 3410 H 311.062 1.58155 0.131431 0
M  V30 3411 H 311.083 2.82034 2.55416 0
M  V30 3412 H 310.595 3.75362 0.986144 0
M  V30 3413 H 308.696 2.26938 2.95516 0
M  V30 3414 H 308.809 4.09465 2.48748 0
M  V30 3415 H 307.173 2.12499 1.40414 0
M  V30 3416 H 307.956 3.41588 0.342428 0
M  V30 3417 N 310.401 -0.613514 1.45168 0
M  V30 3418 C 311.678 -1.37263 1.39349 0
M  V30 3419 C 312.058 -2.11012 0.0610848 0
M  V30 3420 O 311.406 -2.07502 -0.956825 0
M  V30 3421 C 311.616 -2.3244 2.60332 0
M  V30 3422 C 312.964 -2.9523 3.05163 0
M  V30 3423 O 313.988 -2.42762 2.60663 0
M  V30 3424 O 312.847 -3.90454 3.82372 0
M  V30 3425 H 309.941 -0.615188 0.552696 0
M  V30 3426 H 312.487 -0.637097 1.57287 0
M  V30 3427 H 311.259 -1.77164 3.48896 0
M  V30 3428 H 310.882 -3.13383 2.44698 0
M  V30 3429 N 311.879 -1.3236 -0.855495 0
M  V30 3430 C 313.127 -1.22629 -1.60644 0
M  V30 3431 C 313.448 0.212136 -1.93843 0
M  V30 3432 O 312.718 1.13666 -1.59552 0
M  V30 3433 H 311.298 -0.450882 -0.595579 0
M  V30 3434 H 313.96 -1.65871 -1.02337 0
M  V30 3435 H 313.056 -1.80832 -2.54374 0
M  V30 3436 N 313.357 1.07166 -1.15556 0
M  V30 3437 C 314.582 1.84053 -0.955988 0
M  V30 3438 C 315.007 1.81586 0.490739 0
M  V30 3439 O 314.365 1.21018 1.34997 0
M  V30 3440 C 314.413 3.28957 -1.47714 0
M  V30 3441 O 313.517 4.06795 -0.677593 0
M  V30 3442 H 312.858 0.569842 -0.340847 0
M  V30 3443 H 315.388 1.35178 -1.53584 0
M  V30 3444 H 315.398 3.79788 -1.4908 0
M  V30 3445 H 314.073 3.30068 -2.53037 0
M  V30 3446 H 312.65 3.6561 -0.733721 0
M  V30 3447 N 314.835 0.952656 1.25548 0
M  V30 3448 C 316.251 0.656769 1.4546 0
M  V30 3449 C 316.451 -0.78633 1.85524 0
M  V30 3450 O 315.507 -1.56183 1.98402 0
M  V30 3451 C 316.82 1.62801 2.52817 0
M  V30 3452 C 318.368 1.63897 2.66659 0
M  V30 3453 C 318.843 2.5978 3.77198 0
M  V30 3454 N 320.334 2.58133 3.84606 0
M  V30 3455 C 321.069 3.29003 4.69621 0
M  V30 3456 N 320.565 4.09339 5.58939 0
M  V30 3457 N 322.358 3.179 4.63569 0
M  V30 3458 H 314.509 1.88526 0.978344 0
M  V30 3459 H 316.772 0.810815 0.491206 0
M  V30 3460 H 316.478 2.65869 2.30232 0
M  V30 3461 H 316.352 1.38898 3.50695 0
M  V30 3462 H 318.739 0.615481 2.8861 0
M  V30 3463 H 318.82 1.91858 1.69187 0
M  V30 3464 H 318.464 3.62254 3.55997 0
M  V30 3465 H 318.394 2.29105 4.7415 0
M  V30 3466 H 320.885 1.99809 3.20757 0
M  V30 3467 H 321.198 4.6034 6.20731 0
M  V30 3468 H 319.543 4.13438 5.58654 0
M  V30 3469 H 322.734 2.54612 3.92798 0
M  V30 3470 H 322.907 3.73398 5.29602 0
M  V30 3471 N 316.313 -1.40141 0.720998 0
M  V30 3472 C 317.243 -2.33339 0.0867621 0
M  V30 3473 C 318.224 -1.53178 -0.739622 0
M  V30 3474 O 319.409 -1.81625 -0.687449 0
M  V30 3475 C 316.539 -3.37194 -0.831728 0
M  V30 3476 C 315.493 -4.27857 -0.110558 0
M  V30 3477 C 314.819 -5.22294 -1.14513 0
M  V30 3478 C 316.119 -5.11872 1.0385 0
M  V30 3479 H 317.813 -2.86626 0.865219 0
M  V30 3480 H 315.359 -1.37814 0.417516 0
M  V30 3481 H 317.312 -4.01335 -1.28485 0
M  V30 3482 H 316.036 -2.82314 -1.64214 0
M  V30 3483 H 314.695 -3.65176 0.322797 0
M  V30 3484 H 314.343 -4.63717 -1.94874 0
M  V30 3485 H 314.043 -5.83797 -0.667446 0
M  V30 3486 H 315.567 -5.89312 -1.59824 0
M  V30 3487 H 316.981 -5.69436 0.664482 0
M  V30 3488 H 315.378 -5.82445 1.4449 0
M  V30 3489 H 316.448 -4.4753 1.86668 0
M  V30 3490 N 317.792 -0.46758 -1.50504 0
M  V30 3491 C 318.74 0.342482 -2.30065 0
M  V30 3492 C 319.734 0.993596 -1.37201 0
M  V30 3493 O 320.94 0.925102 -1.54408 0
M  V30 3494 H 317.315 0.129283 -0.740803 0
M  V30 3495 H 319.286 -0.34899 -2.96352 0
M  V30 3496 C 318.035 1.4139 -3.17654 0
M  V30 3497 H 317.358 0.922264 -3.89017 0
M  V30 3498 H 318.798 1.95335 -3.76325 0
M  V30 3499 C 317.257 2.4139 -2.35016 0
M  V30 3500 O 317.787 3.46586 -2.03079 0
M  V30 3501 N 315.993 2.13021 -1.97662 0
M  V30 3502 H 315.54 1.27499 -2.23834 0
M  V30 3503 H 315.498 2.80164 -1.42673 0
M  V30 3504 N 319.27 1.56325 -0.20005 0
M  V30 3505 C 320.202 2.16555 0.750771 0
M  V30 3506 C 321.215 1.12871 1.1732 0
M  V30 3507 O 322.404 1.39943 1.10807 0
M  V30 3508 C 319.504 2.71684 2.02586 0
M  V30 3509 C 318.677 4.00321 1.76244 0
M  V30 3510 C 317.736 4.40227 2.88248 0
M  V30 3511 O 316.762 5.07552 2.57642 0
M  V30 3512 N 317.964 4.04138 4.16717 0
M  V30 3513 H 320.729 2.98772 0.235685 0
M  V30 3514 H 318.29 1.6189 -0.0182594 0
M  V30 3515 H 320.282 2.95363 2.76664 0
M  V30 3516 H 318.852 1.93893 2.45202 0
M  V30 3517 H 318.072 3.84723 0.85919 0
M  V30 3518 H 319.36 4.84279 1.56048 0
M  V30 3519 H 318.758 3.49993 4.44434 0
M  V30 3520 H 317.315 4.32756 4.87407 0
M  V30 3521 N 320.748 -0.0735177 1.57428 0
M  V30 3522 C 321.978 -0.78483 1.91112 0
M  V30 3523 C 322.386 -1.71729 0.7941 0
M  V30 3524 O 321.729 -1.82105 -0.241542 0
M  V30 3525 C 321.791 -1.63346 3.20247 0
M  V30 3526 C 321.455 -0.870557 4.48632 0
M  V30 3527 C 322.452 -0.19058 5.19551 0
M  V30 3528 C 320.137 -0.838242 4.95256 0
M  V30 3529 C 322.131 0.511503 6.35344 0
M  V30 3530 C 319.818 -0.132386 6.10957 0
M  V30 3531 C 320.816 0.541288 6.80852 0
M  V30 3532 O 320.504 1.23578 7.94345 0
M  V30 3533 H 320.236 -0.228408 0.636244 0
M  V30 3534 H 322.79 -0.0486039 2.05342 0
M  V30 3535 H 321.02 -2.41245 3.02222 0
M  V30 3536 H 322.709 -2.22329 3.39595 0
M  V30 3537 H 323.475 -0.206864 4.84559 0
M  V30 3538 H 319.354 -1.35206 4.40727 0
M  V30 3539 H 322.898 1.03789 6.89836 0
M  V30 3540 H 318.795 -0.114023 6.45399 0
M  V30 3541 H 319.563 1.14487 8.10454 0
M  V30 3542 N 322.226 -1.5378 -0.344866 0
M  V30 3543 C 323.503 -1.61589 -1.10219 0
M  V30 3544 C 323.883 -0.436316 -2.06542 0
M  V30 3545 O 323.231 0.571543 -2.21237 0
M  V30 3546 C 323.441 -2.97602 -1.82301 0
M  V30 3547 C 324.789 -3.5291 -2.36093 0
M  V30 3548 O 325.813 -2.99768 -1.924 0
M  V30 3549 O 324.672 -4.45859 -3.16026 0
M  V30 3550 H 321.766 -0.653522 -0.506792 0
M  V30 3551 H 324.312 -1.66126 -0.346465 0
M  V30 3552 H 323.084 -3.74893 -1.12121 0
M  V30 3553 H 322.707 -2.9665 -2.64735 0
M  V30 3554 N 323.704 0.605807 -1.45491 0
M  V30 3555 C 324.634 1.72709 -1.57143 0
M  V30 3556 C 325.615 1.6476 -0.422884 0
M  V30 3557 O 326.8 1.83132 -0.646247 0
M  V30 3558 C 323.93 3.11316 -1.53948 0
M  V30 3559 C 322.884 3.34077 -2.67537 0
M  V30 3560 C 322.21 4.72975 -2.49397 0
M  V30 3561 C 323.51 3.24158 -4.09535 0
M  V30 3562 H 325.204 1.63214 -2.51001 0
M  V30 3563 H 322.75 0.78379 -1.208 0
M  V30 3564 H 324.703 3.89557 -1.60696 0
M  V30 3565 H 323.427 3.21655 -0.566205 0
M  V30 3566 H 322.086 2.58227 -2.6022 0
M  V30 3567 H 321.734 4.8005 -1.50205 0
M  V30 3568 H 321.434 4.8916 -3.25571 0
M  V30 3569 H 322.958 5.53414 -2.58002 0
M  V30 3570 H 324.372 3.92271 -4.18086 0
M  V30 3571 H 322.769 3.51872 -4.86113 0
M  V30 3572 H 323.839 2.2157 -4.31317 0
M  V30 3573 N 325.182 1.32811 0.848464 0
M  V30 3574 C 326.112 1.24882 1.97299 0
M  V30 3575 C 327.093 0.131357 1.69592 0
M  V30 3576 O 328.278 0.319553 1.91553 0
M  V30 3577 C 325.408 0.97746 3.33261 0
M  V30 3578 C 324.362 2.05682 3.75338 0
M  V30 3579 C 323.688 1.63777 5.09 0
M  V30 3580 C 324.988 3.47254 3.90144 0
M  V30 3581 H 326.682 2.18966 2.04191 0
M  V30 3582 H 324.228 1.05413 0.981029 0
M  V30 3583 H 326.181 0.908513 4.1149 0
M  V30 3584 H 324.905 0.000980011 3.266 0
M  V30 3585 H 323.564 2.11603 2.99366 0
M  V30 3586 H 323.212 0.648569 4.98801 0
M  V30 3587 H 322.912 2.36 5.38124 0
M  V30 3588 H 324.436 1.5833 5.89715 0
M  V30 3589 H 325.85 3.43888 4.58709 0
M  V30 3590 H 324.247 4.1788 4.30693 0
M  V30 3591 H 325.317 3.86462 2.92874 0
M  V30 3592 N 326.66 -1.06551 1.16123 0
M  V30 3593 C 327.908 -1.78947 0.939267 0
M  V30 3594 C 328.229 -1.87532 -0.534476 0
M  V30 3595 O 327.499 -1.38211 -1.38833 0
M  V30 3596 H 326.079 -0.662807 0.344523 0
M  V30 3597 H 328.741 -1.28725 1.46342 0
M  V30 3598 H 327.837 -2.81117 1.35572 0
M  V30 3599 N 328.138 -0.959301 -1.25041 0
M  V30 3600 C 329.07 -0.440543 -2.24926 0
M  V30 3601 C 330.083 0.446131 -1.56568 0
M  V30 3602 O 331.272 0.253657 -1.76689 0
M  V30 3603 C 328.372 0.38412 -3.36716 0
M  V30 3604 C 327.545 -0.490658 -4.34639 0
M  V30 3605 C 326.604 0.276587 -5.25473 0
M  V30 3606 O 325.63 -0.326614 -5.68262 0
M  V30 3607 N 326.832 1.56844 -5.5891 0
M  V30 3608 H 329.597 -1.29931 -2.70071 0
M  V30 3609 H 327.158 -0.830181 -1.38995 0
M  V30 3610 H 329.15 0.905228 -3.94446 0
M  V30 3611 H 327.72 1.14377 -2.90924 0
M  V30 3612 H 326.94 -1.19282 -3.7572 0
M  V30 3613 H 328.228 -1.08756 -4.97041 0
M  V30 3614 H 327.626 2.08036 -5.26059 0
M  V30 3615 H 326.183 2.03541 -6.19205 0
M  V30 3616 N 329.616 1.39756 -0.72842 0
M  V30 3617 C 330.841 2.05472 -0.282159 0
M  V30 3618 C 331.266 1.54549 1.07221 0
M  V30 3619 O 330.624 0.686372 1.67805 0
M  V30 3620 C 330.672 3.59462 -0.286264 0
M  V30 3621 O 329.776 4.05918 0.728298 0
M  V30 3622 H 329.117 0.651226 -0.129618 0
M  V30 3623 H 331.647 1.78915 -0.992499 0
M  V30 3624 H 331.657 4.07798 -0.128373 0
M  V30 3625 H 330.332 3.95889 -1.27456 0
M  V30 3626 H 328.909 3.69012 0.537081 0
M  V30 3627 N 331.094 0.475555 1.50254 0
M  V30 3628 C 332.343 -0.0795996 2.01543 0
M  V30 3629 C 332.656 -1.4038 1.36209 0
M  V30 3630 O 333.862 -2.04415 1.7868 0
M  V30 3631 C 332.318 -0.192363 3.59386 0
M  V30 3632 C 331.926 1.12367 4.33679 0
M  V30 3633 C 333.67 -0.699238 4.18701 0
M  V30 3634 C 331.577 0.974453 5.83317 0
M  V30 3635 H 330.507 -0.0335228 0.753254 0
M  V30 3636 H 333.158 0.611128 1.73025 0
M  V30 3637 H 331.54 -0.946974 3.84511 0
M  V30 3638 H 332.714 1.88958 4.20276 0
M  V30 3639 H 331.029 1.562 3.85993 0
M  V30 3640 H 333.626 -0.827978 5.28251 0
M  V30 3641 H 333.969 -1.69171 3.80377 0
M  V30 3642 H 334.502 -0.00188807 3.978 0
M  V30 3643 H 331.241 1.94042 6.26121 0
M  V30 3644 H 330.761 0.248998 5.99283 0
M  V30 3645 H 332.44 0.642867 6.43798 0
M  V30 3646 N 332.573 -1.56217 0.208337 0
M  V30 3647 C 333.821 -1.97558 -0.426076 0
M  V30 3648 C 334.142 -1.09683 -1.61229 0
M  V30 3649 O 333.412 -0.170956 -1.95153 0
M  V30 3650 H 331.992 -0.729575 -0.160405 0
M  V30 3651 H 334.654 -1.92606 0.298155 0
M  V30 3652 H 333.75 -3.02672 -0.761312 0
M  V30 3653 N 334.051 0.0651679 -1.57465 0
M  V30 3654 C 334.998 1.07675 -2.04144 0
M  V30 3655 C 335.968 1.38071 -0.923335 0
M  V30 3656 O 337.153 1.49026 -1.19146 0
M  V30 3657 C 334.293 2.38337 -2.49579 0
M  V30 3658 C 333.406 2.14413 -3.75035 0
M  V30 3659 C 332.541 3.38686 -4.09225 0
M  V30 3660 C 331.58 3.10156 -5.27702 0
M  V30 3661 N 330.717 4.26778 -5.57499 0
M  V30 3662 H 335.557 0.671716 -2.90331 0
M  V30 3663 H 333.094 0.3201 -1.43575 0
M  V30 3664 H 335.052 3.14632 -2.73975 0
M  V30 3665 H 333.682 2.7663 -1.6636 0
M  V30 3666 H 332.734 1.2878 -3.57939 0
M  V30 3667 H 334.046 1.89344 -4.61466 0
M  V30 3668 H 333.2 4.23373 -4.34558 0
M  V30 3669 H 331.939 3.66837 -3.21374 0
M  V30 3670 H 330.944 2.23866 -5.02159 0
M  V30 3671 H 332.169 2.8332 -6.17176 0
M  V30 3672 H 330.115 4.54948 -4.72608 0
M  V30 3673 H 330.032 4.05005 -6.38362 0
M  V30 3674 H 331.3 5.12443 -5.87386 0
M  V30 3675 N 335.529 1.53961 0.336706 0
M  V30 3676 C 336.439 1.85432 1.43708 0
M  V30 3677 C 337.455 0.745053 1.57242 0
M  V30 3678 O 338.631 1.03804 1.72588 0
M  V30 3679 C 335.696 2.06349 2.78605 0
M  V30 3680 C 334.757 3.30191 2.74358 0
M  V30 3681 C 333.99 3.50101 4.02822 0
M  V30 3682 O 334.213 2.7371 5.00439 0
M  V30 3683 O 333.147 4.43547 4.06878 0
M  V30 3684 H 336.973 2.78975 1.20028 0
M  V30 3685 H 334.558 1.39701 0.52952 0
M  V30 3686 H 336.44 2.21513 3.58483 0
M  V30 3687 H 335.115 1.15995 3.02203 0
M  V30 3688 H 334.022 3.20425 1.93078 0
M  V30 3689 H 335.355 4.2056 2.55715 0
M  V30 3690 N 337.007 -0.598083 1.45811 0
M  V30 3691 C 338.235 -1.38322 1.53866 0
M  V30 3692 C 338.65 -1.87992 0.174479 0
M  V30 3693 O 338.007 -1.62756 -0.825627 0
M  V30 3694 C 338.058 -2.58125 2.53089 0
M  V30 3695 O 337.779 -2.10516 3.84206 0
M  V30 3696 C 339.28 -3.50869 2.70935 0
M  V30 3697 H 336.5 -0.423093 0.520801 0
M  V30 3698 H 339.044 -0.728527 1.91083 0
M  V30 3699 H 337.199 -3.19615 2.18917 0
M  V30 3700 H 337.613 -2.88425 4.38077 0
M  V30 3701 H 339.087 -4.31451 3.44317 0
M  V30 3702 H 339.564 -4.01822 1.77301 0
M  V30 3703 H 340.17 -2.95225 3.06141 0
M  V30 3704 N 338.485 -1.33259 -0.841409 0
M  V30 3705 C 339.734 -1.23921 -1.59143 0
M  V30 3706 C 340.047 0.1941 -1.94635 0
M  V30 3707 O 341.253 0.409474 -2.68394 0
M  V30 3708 C 339.709 -2.17119 -2.87032 0
M  V30 3709 C 339.317 -3.65606 -2.58914 0
M  V30 3710 C 341.061 -2.16648 -3.65053 0
M  V30 3711 C 338.968 -4.50726 -3.82884 0
M  V30 3712 H 337.898 -0.460264 -0.597221 0
M  V30 3713 H 340.549 -1.58307 -0.927959 0
M  V30 3714 H 338.931 -1.75663 -3.54906 0
M  V30 3715 H 340.105 -4.15487 -1.99267 0
M  V30 3716 H 338.42 -3.68341 -1.942 0
M  V30 3717 H 341.017 -2.77474 -4.57069 0
M  V30 3718 H 341.36 -1.16088 -3.99787 0
M  V30 3719 H 341.893 -2.56453 -3.041 0
M  V30 3720 H 338.632 -5.52151 -3.53283 0
M  V30 3721 H 338.152 -4.0559 -4.41879 0
M  V30 3722 H 339.831 -4.64401 -4.50489 0
M  V30 3723 N 339.963 1.05934 -1.16686 0
M  V30 3724 C 340.91 2.13499 -0.876748 0
M  V30 3725 C 341.88 1.65162 0.176299 0
M  V30 3726 O 343.065 1.90757 0.0407143 0
M  V30 3727 C 340.205 3.42912 -0.387967 0
M  V30 3728 C 339.318 4.04964 -1.50426 0
M  V30 3729 C 338.453 5.22266 -0.970125 0
M  V30 3730 C 337.492 5.76309 -2.06238 0
M  V30 3731 N 336.629 6.84922 -1.54356 0
M  V30 3732 H 341.469 2.37654 -1.7979 0
M  V30 3733 H 339.006 1.16598 -0.896843 0
M  V30 3734 H 340.964 4.17111 -0.086186 0
M  V30 3735 H 339.594 3.18963 0.496235 0
M  V30 3736 H 338.646 3.28277 -1.92193 0
M  V30 3737 H 339.958 4.41122 -2.32836 0
M  V30 3738 H 339.112 6.03506 -0.621743 0
M  V30 3739 H 337.851 4.87564 -0.115377 0
M  V30 3740 H 336.856 4.93704 -2.41942 0
M  V30 3741 H 338.081 6.13062 -2.92115 0
M  V30 3742 H 336.027 6.52131 -0.711406 0
M  V30 3743 H 335.944 7.20043 -2.30379 0
M  V30 3744 H 337.212 7.69832 -1.22387 0
M  V30 3745 N 341.441 0.965919 1.2453 0
M  V30 3746 C 342.666 0.643971 1.97149 0
M  V30 3747 C 343.091 -0.779487 1.71189 0
M  V30 3748 O 342.449 -1.5288 0.974553 0
M  V30 3749 C 342.497 0.922557 3.48599 0
M  V30 3750 O 341.601 0.00707672 4.12399 0
M  V30 3751 H 340.942 0.243647 0.617683 0
M  V30 3752 H 343.472 1.29558 1.58353 0
M  V30 3753 H 343.482 0.853373 3.98976 0
M  V30 3754 H 342.157 1.95996 3.66822 0
M  V30 3755 H 340.734 0.12943 3.72675 0
M  V30 3756 N 342.919 -1.39368 0.735821 0
M  V30 3757 C 344.144 -2.05319 0.293052 0
M  V30 3758 C 344.569 -1.55115 -1.064 0
M  V30 3759 O 343.927 -0.695261 -1.67439 0
M  V30 3760 C 343.975 -3.59305 0.305323 0
M  V30 3761 O 343.079 -4.06299 -0.706761 0
M  V30 3762 H 342.42 -0.650529 0.13307 0
M  V30 3763 H 344.95 -1.78386 1.00197 0
M  V30 3764 H 344.96 -4.07724 0.149997 0
M  V30 3765 H 343.635 -3.95207 1.29553 0
M  V30 3766 H 342.212 -3.69292 -0.517504 0
M  V30 3767 N 344.397 -0.483516 -1.5 0
M  V30 3768 C 345.625 0.0644831 -2.06799 0
M  V30 3769 C 346.04 1.32399 -1.34596 0
M  V30 3770 O 345.397 1.77626 -0.418946 0
M  V30 3771 C 345.448 0.339927 -3.59898 0
M  V30 3772 O 345.169 -0.869635 -4.29382 0
M  V30 3773 C 346.67 0.933515 -4.33359 0
M  V30 3774 H 343.89 -0.0126333 -0.670881 0
M  V30 3775 H 346.434 -0.675864 -1.93009 0
M  V30 3776 H 344.589 1.03022 -3.7345 0
M  V30 3777 H 345.003 -0.62179 -5.20801 0
M  V30 3778 H 346.477 1.07593 -5.41413 0
M  V30 3779 H 346.954 1.92685 -3.94676 0
M  V30 3780 H 347.56 0.281221 -4.24369 0
M  V30 3781 N 345.875 1.56104 -0.216619 0
M  V30 3782 C 347.123 1.97781 0.415593 0
M  V30 3783 C 347.444 1.10536 1.60645 0
M  V30 3784 O 346.714 0.181303 1.95059 0
M  V30 3785 H 345.294 0.730415 0.156534 0
M  V30 3786 H 347.956 1.92445 -0.308366 0
M  V30 3787 H 347.052 3.03072 0.74525 0
M  V30 3788 N 347.353 -0.0568162 1.57498 0
M  V30 3789 C 348.263 -1.08346 2.08083 0
M  V30 3790 C 349.279 -1.41439 1.01346 0
M  V30 3791 O 350.455 -1.51316 1.32912 0
M  V30 3792 C 347.52 -2.37352 2.52715 0
M  V30 3793 C 346.581 -2.11093 3.73816 0
M  V30 3794 C 345.814 -3.33949 4.1631 0
M  V30 3795 O 346.037 -4.43622 3.58547 0
M  V30 3796 O 344.971 -3.21279 5.08983 0
M  V30 3797 H 348.797 -0.683667 2.95905 0
M  V30 3798 H 346.382 -0.271965 1.46904 0
M  V30 3799 H 348.264 -3.13246 2.81877 0
M  V30 3800 H 346.939 -2.76681 1.68016 0
M  V30 3801 H 345.846 -1.32856 3.49714 0
M  V30 3802 H 347.179 -1.76637 4.59413 0
M  V30 3803 N 348.832 -1.54138 -0.328536 0
M  V30 3804 C 350.062 -1.75807 -1.08516 0
M  V30 3805 C 350.47 -0.50428 -1.82356 0
M  V30 3806 O 349.813 0.534451 -1.75754 0
M  V30 3807 C 349.875 -2.89423 -2.13248 0
M  V30 3808 C 349.539 -4.28504 -1.5885 0
M  V30 3809 C 350.536 -5.09536 -1.03289 0
M  V30 3810 C 348.221 -4.75034 -1.63243 0
M  V30 3811 C 350.215 -6.35206 -0.52845 0
M  V30 3812 C 347.902 -6.00672 -1.12411 0
M  V30 3813 C 348.9 -6.80592 -0.573062 0
M  V30 3814 O 348.588 -8.03867 -0.0723692 0
M  V30 3815 H 348.32 -0.590633 -0.328829 0
M  V30 3816 H 350.874 -2.01819 -0.381868 0
M  V30 3817 H 349.104 -2.5897 -2.87178 0
M  V30 3818 H 350.793 -2.98921 -2.74592 0
M  V30 3819 H 351.559 -4.74745 -0.99206 0
M  V30 3820 H 347.438 -4.12875 -2.05074 0
M  V30 3821 H 350.982 -6.97532 -0.0976774 0
M  V30 3822 H 346.879 -6.34955 -1.162 0
M  V30 3823 H 347.647 -8.18283 -0.188258 0
M  V30 3824 N 350.31 0.590341 -1.46126 0
M  V30 3825 C 351.538 1.37504 -1.54597 0
M  V30 3826 C 351.953 1.87897 -0.184447 0
M  V30 3827 O 351.31 1.63192 0.816984 0
M  V30 3828 C 351.361 2.56779 -2.54454 0
M  V30 3829 O 351.082 2.08476 -3.85317 0
M  V30 3830 C 352.583 3.49427 -2.72792 0
M  V30 3831 H 349.803 0.420325 -0.523037 0
M  V30 3832 H 352.347 0.718383 -1.91467 0
M  V30 3833 H 350.502 3.1845 -2.20609 0
M  V30 3834 H 350.916 2.86097 -4.396 0
M  V30 3835 H 352.39 4.29619 -3.466 0
M  V30 3836 H 352.867 4.00876 -1.79429 0
M  V30 3837 H 353.473 2.93598 -3.07702 0
M  V30 3838 N 351.788 1.33704 0.83433 0
M  V30 3839 C 353.034 1.25603 1.59222 0
M  V30 3840 C 353.367 -0.176659 1.93395 0
M  V30 3841 O 352.642 -1.11915 1.59076 0
M  V30 3842 C 352.925 2.13576 2.89926 0
M  V30 3843 C 352.778 3.65326 2.62406 0
M  V30 3844 C 354.097 2.01238 3.91397 0
M  V30 3845 H 351.216 0.457613 0.577719 0
M  V30 3846 H 353.858 1.63848 0.961972 0
M  V30 3847 H 352.008 1.8109 3.43713 0
M  V30 3848 H 353.68 4.08124 2.15017 0
M  V30 3849 H 351.923 3.8698 1.96033 0
M  V30 3850 H 352.594 4.22232 3.55562 0
M  V30 3851 H 355.07 2.29738 3.46929 0
M  V30 3852 H 353.946 2.65036 4.80673 0
M  V30 3853 H 354.207 0.985951 4.30966 0
M  V30 3854 N 353.266 -1.05314 1.17247 0
M  V30 3855 C 354.199 -2.12512 0.831507 0
M  V30 3856 C 355.177 -1.61351 -0.201168 0
M  V30 3857 O 356.361 -1.88317 -0.0829831 0
M  V30 3858 C 353.488 -3.37848 0.24015 0
M  V30 3859 C 352.534 -4.07832 1.24801 0
M  V30 3860 S 353.367 -4.56537 2.79882 0
M  V30 3861 C 354.523 -5.85122 2.22223 0
M  V30 3862 H 354.756 -2.41106 1.7394 0
M  V30 3863 H 352.289 -1.17896 0.996988 0
M  V30 3864 H 354.247 -4.10391 -0.0945588 0
M  V30 3865 H 352.908 -3.07392 -0.645668 0
M  V30 3866 H 352.101 -4.97883 0.78287 0
M  V30 3867 H 351.703 -3.41348 1.52831 0
M  V30 3868 H 353.995 -6.58408 1.59703 0
M  V30 3869 H 354.938 -6.36381 3.10523 0
M  V30 3870 H 355.346 -5.39626 1.65722 0
M  V30 3871 N 354.744 -0.972509 -1.24016 0
M  V30 3872 C 355.972 -0.654803 -1.96265 0
M  V30 3873 C 356.387 0.776708 -1.72083 0
M  V30 3874 O 355.744 1.52171 -1.00748 0
M  V30 3875 C 355.795 -0.92592 -3.49441 0
M  V30 3876 O 355.516 -2.30116 -3.72798 0
M  V30 3877 C 357.017 -0.623068 -4.38899 0
M  V30 3878 H 354.237 -0.243907 -0.6251 0
M  V30 3879 H 356.781 -1.30175 -1.57717 0
M  V30 3880 H 354.936 -0.325108 -3.86033 0
M  V30 3881 H 355.35 -2.38483 -4.67147 0
M  V30 3882 H 356.824 -0.863189 -5.45209 0
M  V30 3883 H 357.301 0.442754 -4.36963 0
M  V30 3884 H 357.907 -1.204 -4.07902 0
M  V30 3885 N 356.222 1.38976 -0.743202 0
M  V30 3886 C 357.185 2.28901 -0.117014 0
M  V30 3887 C 358.185 1.46698 0.658503 0
M  V30 3888 O 359.375 1.67274 0.486305 0
M  V30 3889 C 356.507 3.30309 0.84315 0
M  V30 3890 H 357.7 2.8578 -0.909373 0
M  V30 3891 H 355.253 1.47761 -0.509547 0
M  V30 3892 H 355.988 2.785 1.66157 0
M  V30 3893 H 355.773 3.91029 0.289594 0
M  V30 3894 H 357.263 3.97577 1.2776 0
M  V30 3895 N 357.7 0.491464 1.49741 0
M  V30 3896 C 358.65 -0.311086 2.25868 0
M  V30 3897 C 359.634 -0.943857 1.30308 0
M  V30 3898 O 360.826 -0.853035 1.55088 0
M  V30 3899 C 357.955 -1.38059 3.14316 0
M  V30 3900 C 357.041 -0.754541 4.17334 0
M  V30 3901 N 357.432 0.137216 5.05614 0
M  V30 3902 C 355.73 -1.01621 4.34269 0
M  V30 3903 C 356.431 0.494614 5.79593 0
M  V30 3904 N 355.407 -0.135169 5.43432 0
M  V30 3905 H 359.209 0.37555 2.91491 0
M  V30 3906 H 356.723 0.306917 1.59473 0
M  V30 3907 H 358.72 -1.96891 3.67477 0
M  V30 3908 H 357.38 -2.06901 2.50244 0
M  V30 3909 H 358.391 0.50741 5.15408 0
M  V30 3910 H 355.068 -1.69808 3.81407 0
M  V30 3911 H 356.458 1.2236 6.60665 0
M  V30 3912 N 359.178 -1.55987 0.224894 0
M  V30 3913 C 360.425 -1.9839 -0.4059 0
M  V30 3914 C 360.753 -1.11261 -1.59535 0
M  V30 3915 O 360.008 -0.158314 -1.95059 0
M  V30 3916 C 360.307 -3.46394 -0.880106 0
M  V30 3917 C 359.973 -4.5046 0.19918 0
M  V30 3918 C 358.635 -4.7864 0.495661 0
M  V30 3919 C 360.987 -5.12855 0.928939 0
M  V30 3920 C 358.315 -5.66497 1.52636 0
M  V30 3921 C 360.667 -6.01828 1.949 0
M  V30 3922 C 359.331 -6.28351 2.25236 0
M  V30 3923 H 358.601 -0.725961 -0.148529 0
M  V30 3924 H 361.248 -1.88668 0.328113 0
M  V30 3925 H 359.553 -3.53337 -1.69294 0
M  V30 3926 H 361.25 -3.76577 -1.37808 0
M  V30 3927 H 357.84 -4.28579 -0.0420526 0
M  V30 3928 H 362.024 -4.9115 0.713129 0
M  V30 3929 H 357.28 -5.8531 1.76698 0
M  V30 3930 H 361.454 -6.49225 2.51951 0
M  V30 3931 H 359.081 -6.96226 3.05244 0
M  V30 3932 N 360.656 0.0484629 -1.57525 0
M  V30 3933 C 361.606 1.06246 -2.01732 0
M  V30 3934 C 362.59 1.33155 -0.903245 0
M  V30 3935 O 363.782 1.33065 -1.16717 0
M  V30 3936 C 360.911 2.36943 -2.48421 0
M  V30 3937 C 359.997 2.13208 -3.6661 0
M  V30 3938 N 360.388 1.5947 -4.80003 0
M  V30 3939 C 358.686 2.43581 -3.7361 0
M  V30 3940 C 359.387 1.51092 -5.61735 0
M  V30 3941 N 358.363 1.9797 -5.0627 0
M  V30 3942 H 362.165 0.640675 -2.86832 0
M  V30 3943 H 359.679 0.255134 -1.60383 0
M  V30 3944 H 361.676 3.10374 -2.78341 0
M  V30 3945 H 360.336 2.79818 -1.64718 0
M  V30 3946 H 361.347 1.28008 -5.01831 0
M  V30 3947 H 358.024 2.89662 -3.00669 0
M  V30 3948 H 359.414 1.10199 -6.62801 0
M  V30 3949 N 362.134 1.5431 0.320358 0
M  V30 3950 C 363.064 1.86912 1.3995 0
M  V30 3951 C 364.045 0.726211 1.53819 0
M  V30 3952 O 365.23 0.980233 1.67646 0
M  V30 3953 C 362.36 2.09932 2.7667 0
M  V30 3954 C 361.314 3.25776 2.77586 0
M  V30 3955 C 360.64 3.34173 4.17412 0
M  V30 3956 C 361.94 4.6335 2.41048 0
M  V30 3957 H 363.634 2.77292 1.12914 0
M  V30 3958 H 361.18 1.33421 0.541738 0
M  V30 3959 H 363.133 2.31324 3.52232 0
M  V30 3960 H 361.857 1.16304 3.0519 0
M  V30 3961 H 360.516 3.04276 2.04479 0
M  V30 3962 H 360.164 2.38098 4.43078 0
M  V30 3963 H 359.864 4.12033 4.18931 0
M  V30 3964 H 361.388 3.57803 4.94782 0
M  V30 3965 H 362.802 4.84602 3.06324 0
M  V30 3966 H 361.199 5.43782 2.53813 0
M  V30 3967 H 362.269 4.65381 1.36193 0
M  V30 3968 N 363.613 -0.582584 1.46437 0
M  V30 3969 C 364.56 -1.69164 1.5701 0
M  V30 3970 C 365.53 -1.60847 0.414403 0
M  V30 3971 O 366.715 -1.80058 0.631171 0
M  V30 3972 C 363.855 -3.075 1.56646 0
M  V30 3973 C 362.968 -3.2644 2.82951 0
M  V30 3974 C 362.103 -4.55026 2.7409 0
M  V30 3975 C 361.142 -4.6731 3.95333 0
M  V30 3976 N 360.279 -5.87221 3.84858 0
M  V30 3977 H 365.119 -1.59464 2.51744 0
M  V30 3978 H 362.656 -0.777186 1.24893 0
M  V30 3979 H 364.614 -3.8757 1.5442 0
M  V30 3980 H 363.244 -3.16096 0.654439 0
M  V30 3981 H 362.296 -2.39974 2.95155 0
M  V30 3982 H 363.608 -3.31385 3.72808 0
M  V30 3983 H 362.762 -5.43324 2.6997 0
M  V30 3984 H 361.501 -4.52519 1.81873 0
M  V30 3985 H 360.506 -3.77429 3.99784 0
M  V30 3986 H 361.731 -4.71595 4.88646 0
M  V30 3987 H 359.677 -5.85712 2.95427 0
M  V30 3988 H 359.594 -5.93435 4.6837 0
M  V30 3989 H 360.862 -6.7795 3.84713 0
M  V30 3990 N 365.091 -1.34144 -0.827227 0
M  V30 3991 C 366.507 -1.13732 -1.11969 0
M  V30 3992 C 366.707 0.0640463 -2.01398 0
M  V30 3993 O 365.763 0.740856 -2.41387 0
M  V30 3994 C 367.076 -2.43047 -1.77055 0
M  V30 3995 C 368.624 -2.49063 -1.89569 0
M  V30 3996 C 369.099 -3.78369 -2.58072 0
M  V30 3997 N 370.59 -3.79505 -2.65575 0
M  V30 3998 C 371.325 -4.76274 -3.19297 0
M  V30 3999 N 370.821 -5.83424 -3.73616 0
M  V30 4000 N 372.614 -4.63735 -3.17658 0
M  V30 4001 H 364.765 -2.11126 -0.232296 0
M  V30 4002 H 367.028 -0.933424 -0.165602 0
M  V30 4003 H 366.734 -3.31025 -1.18807 0
M  V30 4004 H 366.608 -2.56066 -2.76966 0
M  V30 4005 H 368.995 -1.61527 -2.46968 0
M  V30 4006 H 369.076 -2.39975 -0.885745 0
M  V30 4007 H 368.72 -4.66293 -2.01329 0
M  V30 4008 H 368.65 -3.84737 -3.59562 0
M  V30 4009 H 371.141 -3.02074 -2.27068 0
M  V30 4010 H 371.454 -6.53282 -4.12846 0
M  V30 4011 H 369.799 -5.87143 -3.71871 0
M  V30 4012 H 372.99 -3.79177 -2.74486 0
M  V30 4013 H 373.163 -5.39318 -3.59221 0
M  V30 4014 N 366.569 1.04691 -1.17803 0
M  V30 4015 C 367.516 2.12557 -0.899343 0
M  V30 4016 C 368.486 1.65339 0.158771 0
M  V30 4017 O 369.671 1.90789 0.0204797 0
M  V30 4018 C 366.811 3.42481 -0.424315 0
M  V30 4019 C 365.924 4.03346 -1.54713 0
M  V30 4020 C 365.059 5.21208 -1.02546 0
M  V30 4021 C 364.098 5.74089 -2.12339 0
M  V30 4022 N 363.235 6.83247 -1.61612 0
M  V30 4023 H 368.075 2.35734 -1.823 0
M  V30 4024 H 365.612 1.1564 -0.909159 0
M  V30 4025 H 367.57 4.16996 -0.130421 0
M  V30 4026 H 366.2 3.19471 0.462377 0
M  V30 4027 H 365.252 3.2622 -1.95664 0
M  V30 4028 H 366.564 4.38628 -2.37501 0
M  V30 4029 H 365.718 6.02812 -0.685718 0
M  V30 4030 H 364.457 4.87414 -0.167084 0
M  V30 4031 H 363.462 4.91111 -2.47165 0
M  V30 4032 H 364.687 6.0993 -2.98601 0
M  V30 4033 H 362.633 6.5134 -0.780533 0
M  V30 4034 H 362.55 7.17559 -2.38003 0
M  V30 4035 H 363.818 7.68491 -1.30545 0
M  V30 4036 N 368.047 0.979072 1.23499 0
M  V30 4037 C 369.296 0.642751 1.91185 0
M  V30 4038 C 369.609 -0.827253 1.77245 0
M  V30 4039 O 370.815 -1.27458 2.39722 0
M  V30 4040 C 369.271 1.09901 3.42709 0
M  V30 4041 C 368.879 2.59327 3.65313 0
M  V30 4042 C 370.623 0.836371 4.16179 0
M  V30 4043 C 368.53 2.98627 5.10467 0
M  V30 4044 H 367.46 0.236698 0.715884 0
M  V30 4045 H 370.111 1.1868 1.39955 0
M  V30 4046 H 368.493 0.48319 3.93041 0
M  V30 4047 H 369.667 3.26136 3.25533 0
M  V30 4048 H 367.982 2.83323 3.05151 0
M  V30 4049 H 370.579 1.10586 5.23139 0
M  V30 4050 H 370.922 -0.227509 4.15678 0
M  V30 4051 H 371.455 1.41371 3.71832 0
M  V30 4052 H 368.194 4.04133 5.16098 0
M  V30 4053 H 367.714 2.3651 5.51201 0
M  V30 4054 H 369.393 2.89159 5.78788 0
M  V30 4055 N 369.525 -1.3858 0.750561 0
M  V30 4056 C 370.773 -1.99789 0.30477 0
M  V30 4057 C 371.094 -1.59874 -1.11649 0
M  V30 4058 O 370.364 -0.85417 -1.76297 0
M  V30 4059 H 368.944 -0.738902 0.109694 0
M  V30 4060 H 371.606 -1.69391 0.963983 0
M  V30 4061 H 370.702 -3.09952 0.365499 0
M  V30 4062 N 371.003 -0.499398 -1.49478 0
M  V30 4063 C 372.233 0.0424839 -2.06556 0
M  V30 4064 C 372.641 1.31514 -1.36018 0
M  V30 4065 O 371.984 1.78555 -0.431718 0
M  V30 4066 C 372.046 0.368074 -3.57611 0
M  V30 4067 C 371.71 -0.806631 -4.49825 0
M  V30 4068 C 372.707 -1.69667 -4.91436 0
M  V30 4069 C 370.392 -1.00498 -4.92144 0
M  V30 4070 C 372.386 -2.76923 -5.74101 0
M  V30 4071 C 370.073 -2.08072 -5.74586 0
M  V30 4072 C 371.071 -2.96119 -6.15469 0
M  V30 4073 O 370.759 -4.01836 -6.96264 0
M  V30 4074 H 370.491 -0.0165165 -0.675798 0
M  V30 4075 H 373.045 -0.695497 -1.93267 0
M  V30 4076 H 371.275 1.15963 -3.68903 0
M  V30 4077 H 372.964 0.848381 -3.96935 0
M  V30 4078 H 373.73 -1.55524 -4.59388 0
M  V30 4079 H 369.609 -0.329036 -4.59824 0
M  V30 4080 H 373.153 -3.45676 -6.05932 0
M  V30 4081 H 369.05 -2.22211 -6.06047 0
M  V30 4082 H 369.818 -3.9917 -7.14567 0
M  V30 4083 N 372.481 1.55866 -0.233164 0
M  V30 4084 C 373.728 1.98603 0.395374 0
M  V30 4085 C 374.056 1.12105 1.58942 0
M  V30 4086 O 373.311 0.168656 1.94972 0
M  V30 4087 C 373.61 3.46856 0.861724 0
M  V30 4088 C 373.276 4.50348 -0.223066 0
M  V30 4089 C 371.938 4.78371 -0.521038 0
M  V30 4090 C 374.29 5.12355 -0.956124 0
M  V30 4091 C 371.618 5.6568 -1.55638 0
M  V30 4092 C 373.97 6.00786 -1.98089 0
M  V30 4093 C 372.634 6.27148 -2.28565 0
M  V30 4094 H 371.904 0.726739 0.144677 0
M  V30 4095 H 374.551 1.88491 -0.338114 0
M  V30 4096 H 372.856 3.5423 1.67418 0
M  V30 4097 H 374.553 3.77302 1.35809 0
M  V30 4098 H 371.143 4.28596 0.0193234 0
M  V30 4099 H 375.327 4.90765 -0.739166 0
M  V30 4100 H 370.583 5.84365 -1.798 0
M  V30 4101 H 374.757 6.4788 -2.55391 0
M  V30 4102 H 372.384 6.94597 -3.08932 0
M  V30 4103 N 373.959 -0.0401083 1.57549 0
M  V30 4104 C 375.205 -0.734211 1.89043 0
M  V30 4105 C 375.538 -1.75591 0.829535 0
M  V30 4106 O 374.813 -1.93868 -0.156706 0
M  V30 4107 C 375.096 -1.41374 3.31188 0
M  V30 4108 C 374.949 -0.406299 4.47961 0
M  V30 4109 C 376.268 -2.35061 3.72068 0
M  V30 4110 H 373.387 -0.265447 0.687537 0
M  V30 4111 H 376.029 0.00294087 1.9 0
M  V30 4112 H 374.179 -2.04206 3.30503 0
M  V30 4113 H 375.851 0.219255 4.60779 0
M  V30 4114 H 374.094 0.275485 4.32924 0
M  V30 4115 H 374.765 -0.920022 5.44279 0
M  V30 4116 H 377.241 -1.82282 3.74049 0
M  V30 4117 H 376.117 -2.79593 4.72355 0
M  V30 4118 H 376.378 -3.21258 3.0372 0
M  V30 4119 N 375.437 -1.54477 -0.31217 0
M  V30 4120 C 376.686 -1.72438 -1.04633 0
M  V30 4121 C 376.999 -0.511163 -1.88803 0
M  V30 4122 O 378.205 -0.572341 -2.65399 0
M  V30 4123 C 376.661 -3.05043 -1.9099 0
M  V30 4124 C 376.269 -4.33806 -1.11877 0
M  V30 4125 C 378.013 -3.32364 -2.64073 0
M  V30 4126 C 375.92 -5.57467 -1.97445 0
M  V30 4127 H 374.85 -0.642647 -0.394361 0
M  V30 4128 H 377.501 -1.80966 -0.303929 0
M  V30 4129 H 375.883 -2.90451 -2.69173 0
M  V30 4130 H 377.057 -4.59199 -0.383843 0
M  V30 4131 H 375.372 -4.13336 -0.504252 0
M  V30 4132 H 377.969 -4.21951 -3.28423 0
M  V30 4133 H 378.312 -2.50745 -3.32314 0
M  V30 4134 H 378.845 -3.47875 -1.92944 0
M  V30 4135 H 375.584 -6.41722 -1.33692 0
M  V30 4136 H 375.104 -5.36277 -2.6864 0
M  V30 4137 H 376.783 -5.94303 -2.5576 0
M  V30 4138 N 376.915 0.57481 -1.46744 0
M  V30 4139 C 377.847 1.69804 -1.53946 0
M  V30 4140 C 378.86 1.57098 -0.427106 0
M  V30 4141 O 380.049 1.64378 -0.695863 0
M  V30 4142 C 377.149 3.08125 -1.4111 0
M  V30 4143 C 376.322 3.46757 -2.66605 0
M  V30 4144 C 375.381 4.6417 -2.47855 0
M  V30 4145 O 374.407 4.69634 -3.21609 0
M  V30 4146 N 375.609 5.59553 -1.54534 0
M  V30 4147 H 378.374 1.64077 -2.50796 0
M  V30 4148 H 375.935 0.761 -1.429 0
M  V30 4149 H 377.927 3.84478 -1.26328 0
M  V30 4150 H 376.497 3.08175 -0.524109 0
M  V30 4151 H 375.717 2.6003 -2.96274 0
M  V30 4152 H 377.005 3.69337 -3.49954 0
M  V30 4153 H 376.403 5.57881 -0.937304 0
M  V30 4154 H 374.96 6.35304 -1.45711 0
M  V30 4155 N 378.394 1.34581 0.820102 0
M  V30 4156 C 379.622 1.3018 1.60813 0
M  V30 4157 C 380.037 -0.123551 1.88395 0
M  V30 4158 O 379.394 -1.07148 1.47735 0
M  V30 4159 C 379.445 2.09312 2.94739 0
M  V30 4160 O 379.166 3.46288 2.68358 0
M  V30 4161 C 380.667 2.1234 3.89136 0
M  V30 4162 H 377.887 0.447726 0.499782 0
M  V30 4163 H 380.431 1.77237 1.02017 0
M  V30 4164 H 378.586 1.65889 3.50085 0
M  V30 4165 H 379 3.87227 3.53774 0
M  V30 4166 H 380.474 2.72126 4.80262 0
M  V30 4167 H 380.951 1.11854 4.24718 0
M  V30 4168 H 381.557 2.55864 3.39726 0
M  V30 4169 N 379.872 -1.04064 1.18357 0
M  V30 4170 C 381.102 -1.80654 1.00238 0
M  V30 4171 C 381.51 -1.83713 -0.452362 0
M  V30 4172 O 380.853 -1.27135 -1.32599 0
M  V30 4173 C 380.915 -3.27582 1.48088 0
M  V30 4174 C 380.579 -3.48184 2.96002 0
M  V30 4175 C 381.576 -3.39372 3.93856 0
M  V30 4176 C 379.261 -3.7478 3.34433 0
M  V30 4177 C 381.255 -3.5686 5.28138 0
M  V30 4178 C 378.942 -3.91915 4.68877 0
M  V30 4179 C 379.94 -3.82956 5.65539 0
M  V30 4180 O 379.628 -3.996 6.97549 0
M  V30 4181 H 379.36 -0.575751 0.354241 0
M  V30 4182 H 381.914 -1.32044 1.57333 0
M  V30 4183 H 380.144 -3.77161 0.853588 0
M  V30 4184 H 381.833 -3.8573 1.2636 0
M  V30 4185 H 382.599 -3.18789 3.65511 0
M  V30 4186 H 378.478 -3.80852 2.59756 0
M  V30 4187 H 382.022 -3.49783 6.03571 0
M  V30 4188 H 377.919 -4.11992 4.96923 0
M  V30 4189 H 378.687 -4.1676 7.04452 0
M  V30 4190 N 381.35 -0.985608 -1.22978 0
M  V30 4191 C 382.28 -0.549649 -2.26939 0
M  V30 4192 C 383.261 0.419803 -1.64838 0
M  V30 4193 O 384.446 0.31203 -1.91677 0
M  V30 4194 C 381.576 0.143652 -3.47003 0
M  V30 4195 C 380.53 -0.743606 -4.21491 0
M  V30 4196 C 379.856 0.0822027 -5.34637 0
M  V30 4197 C 381.156 -2.03694 -4.80943 0
M  V30 4198 H 382.85 -1.41862 -2.63658 0
M  V30 4199 H 380.396 -0.683571 -1.26741 0
M  V30 4200 H 382.349 0.459985 -4.18882 0
M  V30 4201 H 381.073 1.04711 -3.09359 0
M  V30 4202 H 379.732 -1.04347 -3.51436 0
M  V30 4203 H 379.38 0.986359 -4.93234 0
M  V30 4204 H 379.08 -0.508377 -5.85397 0
M  V30 4205 H 380.604 0.392797 -6.09335 0
M  V30 4206 H 382.018 -1.78504 -5.44802 0
M  V30 4207 H 380.415 -2.57573 -5.42011 0
M  V30 4208 H 381.485 -2.72042 -4.01399 0
M  V30 4209 N 382.828 1.3818 -0.7579 0
M  V30 4210 C 384.239 1.82726 -0.383134 0
M  V30 4211 C 384.59 1.63214 1.08884 0
M  V30 4212 O 383.715 1.13566 1.84205 0
M  V30 4213 C 384.31 3.31728 -0.688631 0
M  V30 4214 C 382.869 3.74606 -0.367091 0
M  V30 4215 C 382.016 2.60896 -0.939599 0
M  V30 4216 H 384.967 1.26847 -0.953699 0
M  V30 4217 H 384.988 3.80487 0.0316492 0
M  V30 4218 H 384.5 3.45898 -1.76001 0
M  V30 4219 H 382.601 3.66013 0.697532 0
M  V30 4220 H 382.714 4.71215 -0.865658 0
M  V30 4221 H 381.078 2.52075 -0.3647 0
M  V30 4222 H 381.861 2.77864 -2.0161 0
M  V30 4223 N 384.306 0.507319 1.49211 0
M  V30 4224 C 385.546 -0.0332372 2.04373 0
M  V30 4225 C 385.91 -1.33694 1.37804 0
M  V30 4226 O 387.111 -1.96213 1.83722 0
M  V30 4227 C 385.382 -0.17599 3.56966 0
M  V30 4228 S 386.941 -0.669882 4.33657 0
M  V30 4229 H 383.759 0.00123603 0.710999 0
M  V30 4230 H 386.361 0.682725 1.83191 0
M  V30 4231 H 385.065 0.778053 4.02957 0
M  V30 4232 H 384.596 -0.917005 3.82563 0
M  V30 4233 H 386.611 -1.93806 4.56786 0
M  V30 4234 N 385.784 -1.5574 0.241426 0
M  V30 4235 C 387.033 -1.97986 -0.385295 0
M  V30 4236 C 387.346 -1.13267 -1.59468 0
M  V30 4237 O 388.552 -1.45501 -2.2922 0
M  V30 4238 C 387.008 -3.52275 -0.736884 0
M  V30 4239 C 386.616 -4.45726 0.450796 0
M  V30 4240 C 388.36 -4.03189 -1.3281 0
M  V30 4241 C 386.267 -5.91352 0.0756662 0
M  V30 4242 H 385.197 -0.739386 -0.147731 0
M  V30 4243 H 387.848 -1.80308 0.340779 0
M  V30 4244 H 386.23 -3.65628 -1.52094 0
M  V30 4245 H 387.404 -4.44131 1.22819 0
M  V30 4246 H 385.719 -4.05264 0.956573 0
M  V30 4247 H 388.316 -5.09505 -1.62201 0
M  V30 4248 H 388.659 -3.50212 -2.25071 0
M  V30 4249 H 389.192 -3.93141 -0.607069 0
M  V30 4250 H 385.931 -6.48354 0.965272 0
M  V30 4251 H 385.451 -5.96095 -0.665635 0
M  V30 4252 H 387.13 -6.46084 -0.344075 0
M  V30 4253 N 387.262 0.0317525 -1.57568 0
M  V30 4254 C 388.195 1.06621 -2.0176 0
M  V30 4255 C 389.173 1.35323 -0.901462 0
M  V30 4256 O 390.357 1.48025 -1.16708 0
M  V30 4257 C 387.484 2.40155 -2.38837 0
M  V30 4258 C 386.53 2.27327 -3.60867 0
M  V30 4259 S 387.363 1.62925 -5.10113 0
M  V30 4260 C 388.519 2.97955 -5.5043 0
M  V30 4261 H 388.752 0.689781 -2.89187 0
M  V30 4262 H 386.285 0.24164 -1.52497 0
M  V30 4263 H 388.243 3.1695 -2.6087 0
M  V30 4264 H 386.904 2.74946 -1.51867 0
M  V30 4265 H 386.097 3.25898 -3.84456 0
M  V30 4266 H 385.699 1.58675 -3.38671 0
M  V30 4267 H 387.991 3.94285 -5.5095 0
M  V30 4268 H 388.934 2.79102 -6.50775 0
M  V30 4269 H 389.342 3.00404 -4.77931 0
M  V30 4270 N 388.74 1.54641 0.303973 0
M  V30 4271 C 389.968 1.77768 1.05858 0
M  V30 4272 C 390.383 0.535722 1.8104 0
M  V30 4273 O 389.74 -0.494337 1.75677 0
M  V30 4274 C 389.791 2.9834 2.04146 0
M  V30 4275 O 389.512 4.17736 1.32015 0
M  V30 4276 C 391.013 3.33832 2.91669 0
M  V30 4277 H 388.233 0.592961 0.314067 0
M  V30 4278 H 390.777 2.01583 0.344149 0
M  V30 4279 H 388.932 2.76742 2.71096 0
M  V30 4280 H 389.346 4.85693 1.97998 0
M  V30 4281 H 390.82 4.21448 3.56491 0
M  V30 4282 H 391.297 2.51857 3.59812 0
M  V30 4283 H 391.903 3.57579 2.30254 0
M  V30 4284 N 390.218 -0.567019 1.47046 0
M  V30 4285 C 391.464 -1.32658 1.53394 0
M  V30 4286 C 391.797 -1.93254 0.19148 0
M  V30 4287 O 391.072 -1.77338 -0.798844 0
M  V30 4288 C 391.355 -2.44412 2.64452 0
M  V30 4289 C 391.208 -1.88749 4.08282 0
M  V30 4290 C 392.527 -3.46387 2.71485 0
M  V30 4291 H 389.646 -0.48098 0.558415 0
M  V30 4292 H 392.288 -0.635481 1.79058 0
M  V30 4293 H 390.438 -3.03363 2.427 0
M  V30 4294 H 392.11 -1.34134 4.41368 0
M  V30 4295 H 390.353 -1.19481 4.17021 0
M  V30 4296 H 391.024 -2.69491 4.81745 0
M  V30 4297 H 393.5 -2.9734 2.91081 0
M  V30 4298 H 392.376 -4.2202 3.50985 0
M  V30 4299 H 392.637 -4.04616 1.78153 0
M  V30 4300 N 391.696 -1.35014 -0.812953 0
M  V30 4301 C 392.945 -1.27269 -1.56479 0
M  V30 4302 C 393.258 0.152771 -1.95002 0
M  V30 4303 O 394.464 0.352451 -2.69203 0
M  V30 4304 C 392.92 -2.23159 -2.82362 0
M  V30 4305 C 392.528 -3.71016 -2.511 0
M  V30 4306 C 394.272 -2.24342 -3.60376 0
M  V30 4307 C 392.179 -4.58746 -3.73237 0
M  V30 4308 H 391.109 -0.472829 -0.587324 0
M  V30 4309 H 393.76 -1.6024 -0.894171 0
M  V30 4310 H 392.142 -1.83151 -3.51101 0
M  V30 4311 H 393.316 -4.1962 -1.90409 0
M  V30 4312 H 391.631 -3.72378 -1.86343 0
M  V30 4313 H 394.228 -2.87107 -4.51081 0
M  V30 4314 H 394.571 -1.24542 -3.97234 0
M  V30 4315 H 395.104 -2.62846 -2.98591 0
M  V30 4316 H 391.843 -5.59521 -3.41492 0
M  V30 4317 H 391.363 -4.14871 -4.33176 0
M  V30 4318 H 393.042 -4.73852 -4.40537 0
M  V30 4319 N 393.175 1.03435 -1.18907 0
M  V30 4320 C 394.105 2.13503 -0.945448 0
M  V30 4321 C 395.086 1.69682 0.119189 0
M  V30 4322 O 396.271 1.94169 -0.034707 0
M  V30 4323 C 393.401 3.44004 -0.477316 0
M  V30 4324 C 392.355 4.0148 -1.48316 0
M  V30 4325 C 391.681 5.27537 -0.872311 0
M  V30 4326 C 392.981 4.36921 -2.86177 0
M  V30 4327 H 394.675 2.34141 -1.86597 0
M  V30 4328 H 392.221 1.12523 -0.898584 0
M  V30 4329 H 394.174 4.20372 -0.294204 0
M  V30 4330 H 392.898 3.23072 0.478786 0
M  V30 4331 H 391.557 3.27201 -1.65332 0
M  V30 4332 H 391.205 5.02917 0.0911752 0
M  V30 4333 H 390.905 5.66954 -1.54393 0
M  V30 4334 H 392.429 6.06576 -0.699871 0
M  V30 4335 H 393.843 5.04248 -2.72776 0
M  V30 4336 H 392.24 4.87405 -3.50081 0
M  V30 4337 H 393.31 3.46466 -3.39248 0
M  V30 4338 N 394.653 0.992116 1.22453 0
M  V30 4339 C 395.878 0.685644 1.95739 0
M  V30 4340 C 396.303 -0.743 1.72804 0
M  V30 4341 O 395.661 -1.50778 1.00676 0
M  V30 4342 C 395.709 0.996293 3.46564 0
M  V30 4343 O 394.813 0.0945512 4.12292 0
M  V30 4344 H 394.154 0.256694 0.612376 0
M  V30 4345 H 396.684 1.32888 1.5557 0
M  V30 4346 H 396.694 0.93781 3.97076 0
M  V30 4347 H 395.369 2.03733 3.62582 0
M  V30 4348 H 393.946 0.208451 3.72317 0
M  V30 4349 N 396.131 -1.37776 0.765217 0
M  V30 4350 C 397.063 -2.28958 0.105361 0
M  V30 4351 C 398.076 -1.48316 -0.67128 0
M  V30 4352 O 399.265 -1.71046 -0.51045 0
M  V30 4353 C 396.365 -3.27421 -0.874569 0
M  V30 4354 C 395.538 -4.37132 -0.153123 0
M  V30 4355 C 394.597 -5.1571 -1.04547 0
M  V30 4356 O 393.623 -5.66896 -0.511672 0
M  V30 4357 N 394.825 -5.29808 -2.37243 0
M  V30 4358 H 397.59 -2.86227 0.888495 0
M  V30 4359 H 395.151 -1.49682 0.617 0
M  V30 4360 H 397.143 -3.7687 -1.47483 0
M  V30 4361 H 395.713 -2.70967 -1.55871 0
M  V30 4362 H 394.933 -3.89166 0.627975 0
M  V30 4363 H 396.221 -5.07625 0.345643 0
M  V30 4364 H 395.619 -4.89793 -2.83054 0
M  V30 4365 H 394.176 -5.82589 -2.9229 0
M  V30 4366 N 397.609 -0.515225 -1.4894 0
M  V30 4367 C 398.855 0.0242508 -2.02785 0
M  V30 4368 C 399.188 1.35323 -1.39289 0
M  V30 4369 O 398.463 1.87041 -0.533469 0
M  V30 4370 C 398.746 0.16184 -3.59736 0
M  V30 4371 C 398.599 -1.19127 -4.33738 0
M  V30 4372 C 399.918 0.895719 -4.30888 0
M  V30 4373 H 397.037 0.00733914 -0.736963 0
M  V30 4374 H 399.679 -0.669395 -1.77818 0
M  V30 4375 H 397.829 0.752624 -3.8114 0
M  V30 4376 H 399.501 -1.82202 -4.23792 0
M  V30 4377 H 397.744 -1.77695 -3.95736 0
M  V30 4378 H 398.415 -1.04815 -5.41957 0
M  V30 4379 H 400.891 0.394528 -4.14225 0
M  V30 4380 H 399.767 0.960859 -5.40425 0
M  V30 4381 H 400.028 1.9427 -3.97129 0
M  V30 4382 N 399.087 1.5561 -0.249682 0
M  V30 4383 C 400.312 2.03865 0.381305 0
M  V30 4384 C 400.737 1.12769 1.50548 0
M  V30 4385 O 400.095 0.121189 1.80895 0
M  V30 4386 C 400.143 3.50101 0.863816 0
M  V30 4387 O 399.247 3.62132 1.97318 0
M  V30 4388 H 398.588 0.658827 0.0827194 0
M  V30 4389 H 401.118 2.01105 -0.376552 0
M  V30 4390 H 401.128 3.90975 1.1663 0
M  V30 4391 H 399.803 4.1588 0.0411816 0
M  V30 4392 H 398.38 3.33155 1.67517 0
M  V30 4393 N 400.565 -0.0233959 1.57583 0
M  V30 4394 C 401.812 -0.713063 1.8953 0
M  V30 4395 C 402.14 -1.75056 0.847673 0
M  V30 4396 O 401.395 -1.95119 -0.150636 0
M  V30 4397 C 401.694 -1.41428 3.28227 0
M  V30 4398 C 401.36 -0.512222 4.47981 0
M  V30 4399 C 400.022 -0.263785 4.80476 0
M  V30 4400 C 402.374 0.110248 5.21083 0
M  V30 4401 C 399.702 0.615804 5.83459 0
M  V30 4402 C 402.054 0.977573 6.25001 0
M  V30 4403 C 400.718 1.23542 6.55968 0
M  V30 4404 H 399.988 -0.260928 0.69354 0
M  V30 4405 H 402.635 0.0271047 1.91481 0
M  V30 4406 H 400.94 -2.22791 3.22291 0
M  V30 4407 H 402.637 -1.95355 3.50196 0
M  V30 4408 H 399.227 -0.716013 4.22577 0
M  V30 4409 H 403.411 -0.0687137 4.96252 0
M  V30 4410 H 398.667 0.82382 6.05824 0
M  V30 4411 H 402.841 1.46638 6.80786 0
M  V30 4412 H 400.468 1.91871 7.35588 0
M  V30 4413 N 402.043 -1.548 -0.295768 0
M  V30 4414 C 403.289 -1.75517 -1.02789 0
M  V30 4415 C 403.644 -0.537266 -1.84746 0
M  V30 4416 O 402.937 0.470299 -1.85738 0
M  V30 4417 C 403.131 -2.98797 -1.961 0
M  V30 4418 C 402.96 -4.3246 -1.23321 0
M  V30 4419 C 401.73 -4.96131 -0.95822 0
M  V30 4420 C 403.928 -5.10365 -0.635024 0
M  V30 4421 N 401.91 -6.1357 -0.201257 0
M  V30 4422 C 403.281 -6.19999 -0.0110937 0
M  V30 4423 C 405.336 -4.94957 -0.540594 0
M  V30 4424 C 404.039 -7.15904 0.698136 0
M  V30 4425 C 406.065 -5.91197 0.154992 0
M  V30 4426 C 405.427 -7.00203 0.767752 0
M  V30 4427 H 401.526 -0.694786 -0.358882 0
M  V30 4428 H 404.11 -1.92281 -0.305943 0
M  V30 4429 H 402.281 -2.83448 -2.6554 0
M  V30 4430 H 404.013 -3.08017 -2.62502 0
M  V30 4431 H 400.768 -4.56595 -1.25771 0
M  V30 4432 H 401.192 -6.76802 0.16389 0
M  V30 4433 H 405.834 -4.10803 -1.00003 0
M  V30 4434 H 403.552 -7.99595 1.16933 0
M  V30 4435 H 407.138 -5.81353 0.228069 0
M  V30 4436 H 406.018 -7.73393 1.29743 0
M  V30 4437 N 403.521 0.559213 -1.47345 0
M  V30 4438 C 404.451 1.67622 -1.62558 0
M  V30 4439 C 405.432 1.63331 -0.475087 0
M  V30 4440 O 406.617 1.80983 -0.704182 0
M  V30 4441 C 403.747 3.0626 -1.63774 0
M  V30 4442 C 402.701 3.25397 -2.7803 0
M  V30 4443 C 402.027 4.64801 -2.64318 0
M  V30 4444 C 403.327 3.10965 -4.19641 0
M  V30 4445 H 405.021 1.55146 -2.56067 0
M  V30 4446 H 402.567 0.744961 -1.23233 0
M  V30 4447 H 404.52 3.84247 -1.73008 0
M  V30 4448 H 403.244 3.1969 -0.66825 0
M  V30 4449 H 401.903 2.49817 -2.68304 0
M  V30 4450 H 401.551 4.75028 -1.65401 0
M  V30 4451 H 401.251 4.78555 -3.40968 0
M  V30 4452 H 402.775 5.44926 -2.75478 0
M  V30 4453 H 404.189 3.78772 -4.30354 0
M  V30 4454 H 402.586 3.36229 -4.97062 0
M  V30 4455 H 403.656 2.07736 -4.38148 0
M  V30 4456 N 404.999 1.35443 0.805782 0
M  V30 4457 C 405.947 1.28465 1.93906 0
M  V30 4458 C 406.941 0.17943 1.68447 0
M  V30 4459 O 408.147 0.345459 1.76654 0
M  V30 4460 H 404.522 0.399528 0.637088 0
M  V30 4461 H 406.493 2.24206 1.96912 0
M  V30 4462 C 405.242 1.07432 3.30687 0
M  V30 4463 H 404.565 1.91716 3.50835 0
M  V30 4464 H 406.005 1.06591 4.10383 0
M  V30 4465 C 404.464 -0.22179 3.36169 0
M  V30 4466 O 404.994 -1.21731 3.82811 0
M  V30 4467 N 403.2 -0.260841 2.89427 0
M  V30 4468 H 402.747 0.549884 2.51663 0
M  V30 4469 H 402.705 -1.12777 2.93477 0
M  V30 4470 N 406.477 -1.02803 1.19454 0
M  V30 4471 C 407.893 -1.28473 0.946937 0
M  V30 4472 C 408.093 -1.97881 -0.380202 0
M  V30 4473 O 407.149 -2.26719 -1.11151 0
M  V30 4474 C 408.462 -2.13099 2.12154 0
M  V30 4475 C 410.01 -2.26404 2.16126 0
M  V30 4476 C 410.485 -3.14402 3.33039 0
M  V30 4477 N 411.976 -3.21991 3.32981 0
M  V30 4478 C 412.711 -3.90272 4.20089 0
M  V30 4479 N 412.207 -4.60777 5.17355 0
M  V30 4480 N 414 -3.8668 4.07964 0
M  V30 4481 H 406.151 -0.561665 2.04839 0
M  V30 4482 H 408.414 -0.310438 0.89573 0
M  V30 4483 H 408.12 -1.69422 3.08203 0
M  V30 4484 H 407.994 -3.13813 2.09287 0
M  V30 4485 H 410.381 -2.69311 1.20647 0
M  V30 4486 H 410.462 -1.25237 2.23045 0
M  V30 4487 H 410.106 -2.72204 4.28798 0
M  V30 4488 H 410.036 -4.1563 3.23356 0
M  V30 4489 H 412.527 -2.71778 2.62574 0
M  V30 4490 H 412.84 -5.10513 5.80169 0
M  V30 4491 H 411.185 -4.5964 5.21302 0
M  V30 4492 H 414.376 -3.30739 3.31254 0
M  V30 4493 H 414.549 -4.39621 4.76064 0
M  V30 4494 N 407.956 -0.998596 -1.21925 0
M  V30 4495 C 408.866 -0.562736 -2.27751 0
M  V30 4496 C 409.882 0.391203 -1.69545 0
M  V30 4497 O 411.058 0.256625 -1.99758 0
M  V30 4498 C 408.123 0.11012 -3.46525 0
M  V30 4499 C 407.184 -0.887495 -4.20026 0
M  V30 4500 C 406.417 -0.246654 -5.3313 0
M  V30 4501 O 406.64 0.958088 -5.62296 0
M  V30 4502 O 405.574 -0.954374 -5.94286 0
M  V30 4503 H 409.4 -1.44329 -2.67213 0
M  V30 4504 H 406.985 -0.767135 -1.28201 0
M  V30 4505 H 408.867 0.486756 -4.18579 0
M  V30 4506 H 407.542 0.965154 -3.08976 0
M  V30 4507 H 406.449 -1.31517 -3.5022 0
M  V30 4508 H 407.782 -1.71191 -4.6147 0
M  V30 4509 N 409.434 1.37368 -0.772513 0
M  V30 4510 C 410.659 2.0447 -0.347386 0
M  V30 4511 C 411.084 1.57882 1.0225 0
M  V30 4512 O 410.442 0.73941 1.65537 0
M  V30 4513 C 410.49 3.58369 -0.400479 0
M  V30 4514 O 409.594 4.0803 0.598789 0
M  V30 4515 H 408.935 0.646773 -0.15027 0
M  V30 4516 H 411.465 1.75667 -1.04892 0
M  V30 4517 H 411.475 4.07183 -0.258045 0
M  V30 4518 H 410.15 3.91633 -1.39986 0
M  V30 4519 H 408.727 3.70534 0.419411 0
M  V30 4520 N 410.912 0.523116 1.48665 0
M  V30 4521 C 412.158 -0.0134963 2.02796 0
M  V30 4522 C 412.491 -1.34582 1.40004 0
M  V30 4523 O 411.766 -1.86756 0.543381 0
M  V30 4524 C 412.049 -0.14276 3.59817 0
M  V30 4525 C 411.902 1.21425 4.331 0
M  V30 4526 C 413.221 -0.872856 4.31357 0
M  V30 4527 H 410.34 -0.00343074 0.736992 0
M  V30 4528 H 412.982 0.678816 1.7746 0
M  V30 4529 H 411.132 -0.732401 3.81534 0
M  V30 4530 H 412.804 1.84447 4.2282 0
M  V30 4531 H 411.047 1.79791 3.94788 0
M  V30 4532 H 411.718 1.07687 5.41394 0
M  V30 4533 H 414.194 -0.372555 4.14429 0
M  V30 4534 H 413.07 -0.932185 5.40927 0
M  V30 4535 H 413.331 -1.92161 3.98154 0
M  V30 4536 N 412.39 -1.55475 0.257931 0
M  V30 4537 C 413.801 -1.8511 -0.243135 0
M  V30 4538 C 414.152 -1.17986 -1.5676 0
M  V30 4539 O 413.277 -0.462102 -2.11409 0
M  V30 4540 C 413.872 -3.35826 -0.447929 0
M  V30 4541 C 412.431 -3.65647 -0.893245 0
M  V30 4542 C 411.578 -2.7729 0.0232965 0
M  V30 4543 H 414.529 -1.51261 0.480199 0
M  V30 4544 H 414.55 -3.58002 -1.28898 0
M  V30 4545 H 414.062 -3.84652 0.516196 0
M  V30 4546 H 412.163 -3.22308 -1.86945 0
M  V30 4547 H 412.276 -4.73312 -0.742469 0
M  V30 4548 H 410.64 -2.49942 -0.490021 0
M  V30 4549 H 411.423 -3.28926 0.982994 0
M  V30 4550 N 413.868 0.0150385 -1.57593 0
M  V30 4551 C 414.831 0.995996 -2.06428 0
M  V30 4552 C 415.831 1.2818 -0.970903 0
M  V30 4553 O 417.021 1.22949 -1.23406 0
M  V30 4554 C 414.153 2.32506 -2.49307 0
M  V30 4555 H 415.346 0.573873 -2.94358 0
M  V30 4556 H 412.899 0.262186 -1.54085 0
M  V30 4557 H 413.634 2.79438 -1.64575 0
M  V30 4558 H 413.419 2.13087 -3.29145 0
M  V30 4559 H 414.909 3.02906 -2.87468 0
M  V30 4560 N 415.346 1.54954 0.287554 0
M  V30 4561 C 416.762 1.46469 0.633964 0
M  V30 4562 C 416.962 0.666865 1.90145 0
M  V30 4563 O 416.018 0.179906 2.51858 0
M  V30 4564 C 417.331 2.90556 0.774454 0
M  V30 4565 C 418.879 3.00681 0.869462 0
M  V30 4566 C 419.354 4.45993 1.04184 0
M  V30 4567 N 420.845 4.4976 1.10772 0
M  V30 4568 C 421.58 5.59393 1.25964 0
M  V30 4569 N 421.076 6.78923 1.37968 0
M  V30 4570 N 422.869 5.47107 1.28959 0
M  V30 4571 H 415.02 2.05288 -0.545041 0
M  V30 4572 H 417.283 0.930305 -0.182308 0
M  V30 4573 H 416.989 3.51594 -0.086207 0
M  V30 4574 H 416.863 3.38743 1.6593 0
M  V30 4575 H 419.25 2.39749 1.7206 0
M  V30 4576 H 419.331 2.55769 -0.0396831 0
M  V30 4577 H 418.975 5.07524 0.195422 0
M  V30 4578 H 418.905 4.88548 1.96542 0
M  V30 4579 H 421.396 3.63651 1.02794 0
M  V30 4580 H 421.709 7.58231 1.49353 0
M  V30 4581 H 420.054 6.81763 1.34999 0
M  V30 4582 H 423.245 4.52668 1.19202 0
M  V30 4583 H 423.418 6.32595 1.40455 0
M  V30 4584 N 416.824 -0.551391 1.4764 0
M  V30 4585 C 418.052 -1.33357 1.58189 0
M  V30 4586 C 418.467 -1.87342 0.234199 0
M  V30 4587 O 417.824 -1.65301 -0.77343 0
M  V30 4588 C 417.875 -2.49942 2.61173 0
M  V30 4589 O 417.596 -1.98187 3.90709 0
M  V30 4590 C 419.097 -3.42072 2.8196 0
M  V30 4591 H 416.317 -0.40631 0.533998 0
M  V30 4592 H 418.861 -0.667367 1.93304 0
M  V30 4593 H 417.016 -3.12489 2.28975 0
M  V30 4594 H 417.43 -2.74342 4.47031 0
M  V30 4595 H 418.904 -4.20278 3.57869 0
M  V30 4596 H 419.381 -3.95978 1.89995 0
M  V30 4597 H 419.987 -2.85336 3.15378 0
M  V30 4598 N 418.302 -1.35869 -0.798587 0
M  V30 4599 C 419.548 -1.2978 -1.55836 0
M  V30 4600 C 419.881 0.125322 -1.93795 0
M  V30 4601 O 419.156 1.07658 -1.61987 0
M  V30 4602 C 419.439 -2.21188 -2.84162 0
M  V30 4603 C 419.292 -3.72155 -2.52628 0
M  V30 4604 C 420.611 -2.11545 -3.85923 0
M  V30 4605 H 417.73 -0.472769 -0.565383 0
M  V30 4606 H 420.372 -1.66341 -0.918192 0
M  V30 4607 H 418.522 -1.90139 -3.38791 0
M  V30 4608 H 420.194 -4.13682 -2.04121 0
M  V30 4609 H 418.437 -3.92042 -1.85704 0
M  V30 4610 H 419.108 -4.31511 -3.44242 0
M  V30 4611 H 421.584 -2.38855 -3.40716 0
M  V30 4612 H 420.46 -2.77688 -4.73477 0
M  V30 4613 H 420.721 -1.09987 -4.282 0
M  V30 4614 N 419.78 1.02168 -1.19998 0
M  V30 4615 C 421.027 1.75685 -1.00702 0
M  V30 4616 C 421.355 1.88947 0.461426 0
M  V30 4617 O 420.61 1.40832 1.35885 0
M  V30 4618 C 420.909 3.18081 -1.62969 0
M  V30 4619 C 420.575 3.24809 -3.12746 0
M  V30 4620 C 419.237 3.26352 -3.53621 0
M  V30 4621 C 421.589 3.23379 -4.08749 0
M  V30 4622 C 418.917 3.2413 -4.89036 0
M  V30 4623 C 421.269 3.22698 -5.44104 0
M  V30 4624 C 419.933 3.22542 -5.84399 0
M  V30 4625 H 419.203 0.642877 -0.368496 0
M  V30 4626 H 421.85 1.19865 -1.49348 0
M  V30 4627 H 420.155 3.77027 -1.06573 0
M  V30 4628 H 421.852 3.73648 -1.45561 0
M  V30 4629 H 418.442 3.2434 -2.80181 0
M  V30 4630 H 422.626 3.21361 -3.78207 0
M  V30 4631 H 417.882 3.22338 -5.19527 0
M  V30 4632 H 422.056 3.20543 -6.18244 0
M  V30 4633 H 419.683 3.20575 -6.89301 0
M  V30 4634 N 421.258 1.00505 1.21394 0
M  V30 4635 C 422.506 0.686415 1.90086 0
M  V30 4636 C 422.827 -0.785264 1.7849 0
M  V30 4637 O 422.097 -1.56387 1.17983 0
M  V30 4638 H 420.677 0.2509 0.703604 0
M  V30 4639 H 423.339 1.27417 1.47482 0
M  V30 4640 H 422.435 0.959621 2.96981 0
M  V30 4641 N 422.737 -1.36956 0.779787 0
M  V30 4642 C 423.983 -1.99787 0.348281 0
M  V30 4643 C 424.316 -1.61756 -1.07465 0
M  V30 4644 O 423.591 -0.867639 -1.74075 0
M  V30 4645 C 423.874 -3.56597 0.50104 0
M  V30 4646 C 423.727 -4.04513 1.96697 0
M  V30 4647 C 425.046 -4.40008 -0.0898097 0
M  V30 4648 H 422.165 -0.725796 0.128022 0
M  V30 4649 H 424.807 -1.62514 0.984331 0
M  V30 4650 H 422.957 -3.88479 -0.0404347 0
M  V30 4651 H 424.629 -3.83161 2.56876 0
M  V30 4652 H 422.872 -3.56408 2.47297 0
M  V30 4653 H 423.543 -5.1352 2.02486 0
M  V30 4654 H 426.019 -4.14431 0.372293 0
M  V30 4655 H 424.895 -5.4888 0.0471605 0
M  V30 4656 H 425.156 -4.26035 -1.18096 0
M  V30 4657 N 424.215 -0.530993 -1.48385 0
M  V30 4658 C 425.443 -0.00134122 -2.069 0
M  V30 4659 C 425.858 1.2805 -1.3874 0
M  V30 4660 O 425.215 1.76204 -0.475244 0
M  V30 4661 C 425.266 0.225256 -3.60798 0
M  V30 4662 O 424.987 -1.0058 -4.26398 0
M  V30 4663 C 426.488 0.795172 -4.3611 0
M  V30 4664 H 423.708 -0.0339704 -0.67014 0
M  V30 4665 H 426.252 -0.736926 -1.90761 0
M  V30 4666 H 424.407 0.910891 -3.76539 0
M  V30 4667 H 424.821 -0.787165 -5.1856 0
M  V30 4668 H 426.295 0.903143 -5.44562 0
M  V30 4669 H 426.772 1.80031 -4.00606 0
M  V30 4670 H 427.378 0.146069 -4.25049 0
M  V30 4671 N 425.693 1.55336 -0.266172 0
M  V30 4672 C 426.921 2.03801 0.356756 0
M  V30 4673 C 427.336 1.14485 1.50129 0
M  V30 4674 O 426.693 0.163121 1.8177 0
M  V30 4675 C 426.744 3.51455 0.846281 0
M  V30 4676 O 426.465 4.37371 -0.252663 0
M  V30 4677 C 427.966 4.15767 1.53794 0
M  V30 4678 H 425.186 0.665906 0.0825218 0
M  V30 4679 H 427.73 2.00636 -0.39566 0
M  V30 4680 H 425.885 3.55092 1.54881 0
M  V30 4681 H 426.299 5.24358 0.122173 0
M  V30 4682 H 427.773 5.20714 1.83198 0
M  V30 4683 H 428.25 3.63404 2.46646 0
M  V30 4684 H 428.856 4.16107 0.879488 0
M  V30 4685 N 427.171 -0.0066808 1.57599 0
M  V30 4686 C 428.417 -0.693947 1.90558 0
M  V30 4687 C 428.75 -1.73792 0.866594 0
M  V30 4688 O 428.025 -1.94156 -0.115548 0
M  V30 4689 C 428.308 -1.34317 3.34112 0
M  V30 4690 C 428.161 -0.311189 4.48722 0
M  V30 4691 C 429.48 -2.27116 3.7697 0
M  V30 4692 H 426.599 -0.250803 0.693013 0
M  V30 4693 H 429.241 0.043242 1.89951 0
M  V30 4694 H 427.391 -1.9715 3.3476 0
M  V30 4695 H 429.063 0.316944 4.6021 0
M  V30 4696 H 427.306 0.367253 4.32243 0
M  V30 4697 H 427.977 -0.804366 5.46108 0
M  V30 4698 H 430.453 -1.74306 3.77831 0
M  V30 4699 H 429.329 -2.69511 4.78179 0
M  V30 4700 H 429.59 -3.14743 3.10466 0
M  V30 4701 N 428.649 -1.55105 -0.279332 0
M  V30 4702 C 429.579 -1.90557 -1.34945 0
M  V30 4703 C 430.56 -0.766738 -1.51839 0
M  V30 4704 O 431.745 -1.02434 -1.64988 0
M  V30 4705 C 428.875 -2.17193 -2.71006 0
M  V30 4706 C 427.829 -3.33021 -2.68851 0
M  V30 4707 C 427.155 -3.45123 -4.08405 0
M  V30 4708 C 428.455 -4.69578 -2.28678 0
M  V30 4709 H 430.149 -2.80188 -1.05522 0
M  V30 4710 H 427.695 -1.34811 -0.506173 0
M  V30 4711 H 429.648 -2.40581 -3.45975 0
M  V30 4712 H 428.372 -1.24355 -3.01999 0
M  V30 4713 H 427.031 -3.0959 -1.9634 0
M  V30 4714 H 426.679 -2.49762 -4.3661 0
M  V30 4715 H 426.379 -4.22995 -4.07859 0
M  V30 4716 H 427.903 -3.70796 -4.85121 0
M  V30 4717 H 429.317 -4.92553 -2.93368 0
M  V30 4718 H 427.714 -5.5032 -2.39306 0
M  V30 4719 H 428.784 -4.68828 -1.23807 0
M  V30 4720 N 430.127 0.543554 -1.4793 0
M  V30 4721 C 431.355 1.32516 -1.58894 0
M  V30 4722 C 431.77 1.87215 -0.244131 0
M  V30 4723 O 431.127 1.65709 0.764652 0
M  V30 4724 C 431.178 2.48554 -2.62494 0
M  V30 4725 O 430.899 1.96112 -3.91755 0
M  V30 4726 C 432.4 3.40572 -2.8377 0
M  V30 4727 H 429.62 0.403472 -0.536145 0
M  V30 4728 H 432.164 0.657106 -1.93655 0
M  V30 4729 H 430.319 3.1127 -2.30629 0
M  V30 4730 H 430.733 2.71967 -4.4848 0
M  V30 4731 H 432.207 4.18375 -3.60093 0
M  V30 4732 H 432.684 3.94965 -1.92092 0
M  V30 4733 H 433.29 2.8366 -3.16887 0
M  V30 4734 N 431.605 1.3629 0.791371 0
M  V30 4735 C 432.538 1.24816 1.9104 0
M  V30 4736 C 433.516 0.132739 1.62057 0
M  V30 4737 O 434.7 0.303527 1.8604 0
M  V30 4738 C 431.827 0.925355 3.25814 0
M  V30 4739 C 430.873 2.05495 3.7373 0
M  V30 4740 S 431.706 3.67255 3.89723 0
M  V30 4741 C 432.862 3.37084 5.27376 0
M  V30 4742 H 433.095 2.19533 2.00481 0
M  V30 4743 H 430.628 1.21684 0.950393 0
M  V30 4744 H 432.586 0.745924 4.03666 0
M  V30 4745 H 431.247 -0.00400098 3.141 0
M  V30 4746 H 430.44 1.7836 4.71385 0
M  V30 4747 H 430.042 2.1935 3.02922 0
M  V30 4748 H 432.334 2.90856 6.1189 0
M  V30 4749 H 433.277 4.33995 5.59512 0
M  V30 4750 H 433.685 2.7248 4.94383 0
M  V30 4751 N 433.083 -1.0153 1.20538 0
M  V30 4752 C 434.311 -1.78746 1.04199 0
M  V30 4753 C 434.726 -1.84323 -0.408733 0
M  V30 4754 O 434.083 -1.29714 -1.28377 0
M  V30 4755 C 434.134 -3.23152 1.62035 0
M  V30 4756 O 433.855 -3.17918 3.0143 0
M  V30 4757 C 435.356 -4.16911 1.50666 0
M  V30 4758 H 432.576 -0.56208 0.366479 0
M  V30 4759 H 435.12 -1.27794 1.59653 0
M  V30 4760 H 433.275 -3.71248 1.10697 0
M  V30 4761 H 433.689 -4.08567 3.28897 0
M  V30 4762 H 435.163 -5.16072 1.95892 0
M  V30 4763 H 435.64 -4.36791 0.459363 0
M  V30 4764 H 436.246 -3.74698 2.01201 0
M  V30 4765 N 434.561 -1.01147 -1.20859 0
M  V30 4766 C 435.789 -0.716911 -1.94082 0
M  V30 4767 C 436.204 0.721568 -1.74467 0
M  V30 4768 O 435.561 1.48889 -1.05539 0
M  V30 4769 C 435.612 -1.03662 -3.46318 0
M  V30 4770 O 435.333 -2.4186 -3.65288 0
M  V30 4771 C 436.834 -0.762386 -4.36695 0
M  V30 4772 H 434.054 -0.26367 -0.617024 0
M  V30 4773 H 436.598 -1.35127 -1.53496 0
M  V30 4774 H 434.753 -0.447757 -3.84804 0
M  V30 4775 H 435.167 -2.53224 -4.59323 0
M  V30 4776 H 436.641 -1.03621 -5.42187 0
M  V30 4777 H 437.118 0.303514 -4.3815 0
M  V30 4778 H 437.724 -1.33316 -4.03865 0
M  V30 4779 N 436.039 1.36541 -0.78704 0
M  V30 4780 C 436.969 2.32659 -0.197992 0
M  V30 4781 C 437.95 1.56533 0.665697 0
M  V30 4782 O 439.135 1.84698 0.60001 0
M  V30 4783 C 436.265 3.40778 0.669901 0
M  V30 4784 C 435.219 4.27897 -0.0937039 0
M  V30 4785 C 434.545 5.27163 0.894629 0
M  V30 4786 C 435.845 5.06334 -1.28154 0
M  V30 4787 H 437.539 2.82171 -1.00099 0
M  V30 4788 H 435.085 1.35665 -0.482793 0
M  V30 4789 H 437.038 4.07008 1.09191 0
M  V30 4790 H 435.762 2.89827 1.50558 0
M  V30 4791 H 434.421 3.6322 -0.49666 0
M  V30 4792 H 434.069 4.72486 1.72527 0
M  V30 4793 H 433.769 5.86317 0.388149 0
M  V30 4794 H 435.293 5.96266 1.31525 0
M  V30 4795 H 436.707 5.65617 -0.93541 0
M  V30 4796 H 435.104 5.74888 -1.72115 0
M  V30 4797 H 436.174 4.38114 -2.07807 0
M  V30 4798 N 437.518 0.538854 1.48102 0
M  V30 4799 C 438.743 0.0102694 2.07397 0
M  V30 4800 C 439.168 -1.26562 1.39153 0
M  V30 4801 O 438.526 -1.75357 0.460387 0
M  V30 4802 C 438.574 -0.187602 3.60112 0
M  V30 4803 O 437.678 -1.25432 3.92862 0
M  V30 4804 H 437.019 0.0430975 0.6626 0
M  V30 4805 H 439.549 0.749301 1.90385 0
M  V30 4806 H 439.559 -0.407517 4.0596 0
M  V30 4807 H 438.234 0.744386 4.09184 0
M  V30 4808 H 436.811 -1.01636 3.58782 0
M  V30 4809 N 438.996 -1.55193 0.274407 0
M  V30 4810 C 440.245 -1.98758 -0.343213 0
M  V30 4811 C 440.558 -1.16624 -1.5703 0
M  V30 4812 O 441.764 -1.5033 -2.26082 0
M  V30 4813 C 440.22 -3.53759 -0.661996 0
M  V30 4814 C 439.828 -4.4467 0.54524 0
M  V30 4815 C 441.572 -4.05916 -1.24228 0
M  V30 4816 C 439.479 -5.91058 0.201084 0
M  V30 4817 H 438.409 -0.742353 -0.132014 0
M  V30 4818 H 441.06 -1.79545 0.378948 0
M  V30 4819 H 439.442 -3.68772 -1.44304 0
M  V30 4820 H 440.616 -4.41426 1.32212 0
M  V30 4821 H 438.931 -4.03143 1.04232 0
M  V30 4822 H 441.528 -5.12831 -1.51357 0
M  V30 4823 H 441.871 -3.54908 -2.17592 0
M  V30 4824 H 442.404 -3.9434 -0.523542 0
M  V30 4825 H 439.143 -6.46161 1.10258 0
M  V30 4826 H 438.663 -5.97373 -0.539045 0
M  V30 4827 H 440.342 -6.46669 -0.206954 0
M  V30 4828 N 440.474 -0.00167713 -1.576 0
M  V30 4829 C 441.699 0.69739 -1.95323 0
M  V30 4830 C 442.124 1.6642 -0.876706 0
M  V30 4831 O 441.482 1.80548 0.165007 0
M  V30 4832 C 441.53 1.40403 -3.32144 0
M  V30 4833 O 440.634 2.5185 -3.26566 0
M  V30 4834 H 439.975 0.185373 -0.637599 0
M  V30 4835 H 442.505 -0.0553665 -2.04525 0
M  V30 4836 H 442.515 1.76707 -3.67748 0
M  V30 4837 H 441.19 0.695167 -4.10049 0
M  V30 4838 H 439.767 2.17861 -3.0264 0
M  V30 4839 N 441.952 1.55251 0.271103 0
M  V30 4840 C 442.915 1.87484 1.31842 0
M  V30 4841 C 443.915 0.749545 1.42262 0
M  V30 4842 O 445.105 1.01771 1.4138 0
M  V30 4843 C 442.237 2.0818 2.69951 0
M  V30 4844 H 443.43 2.81108 1.0449 0
M  V30 4845 H 440.983 1.47771 0.509258 0
M  V30 4846 H 441.718 1.16944 3.02481 0
M  V30 4847 H 441.503 2.90114 2.63774 0
M  V30 4848 H 442.993 2.34385 3.4562 0
M  V30 4849 N 443.43 -0.535701 1.48216 0
M  V30 4850 C 444.846 -0.863701 1.3421 0
M  V30 4851 C 445.046 -1.98458 0.34879 0
M  V30 4852 O 444.102 -2.51432 -0.23204 0
M  V30 4853 C 445.415 -1.23662 2.74095 0
M  V30 4854 C 446.963 -1.34683 2.82541 0
M  V30 4855 C 447.438 -1.75322 4.23115 0
M  V30 4856 N 448.929 -1.82434 4.2576 0
M  V30 4857 C 449.664 -2.15252 5.31464 0
M  V30 4858 N 449.16 -2.46533 6.47452 0
M  V30 4859 N 450.953 -2.16209 5.18855 0
M  V30 4860 H 443.104 0.203965 2.11418 0
M  V30 4861 H 445.367 0.0286033 0.947568 0
M  V30 4862 H 445.073 -0.486674 3.48316 0
M  V30 4863 H 444.947 -2.18805 3.07253 0
M  V30 4864 H 447.334 -2.08756 2.08579 0
M  V30 4865 H 447.415 -0.376756 2.5301 0
M  V30 4866 H 447.059 -1.01812 4.97591 0
M  V30 4867 H 446.989 -2.7337 4.50085 0
M  V30 4868 H 449.48 -1.6056 3.42095 0
M  V30 4869 H 449.793 -2.70662 7.23852 0
M  V30 4870 H 448.138 -2.44065 6.50736 0
M  V30 4871 H 451.329 -1.91224 4.2726 0
M  V30 4872 H 451.502 -2.41453 6.01335 0
M  V30 4873 N 444.908 -1.36708 -0.784132 0
M  V30 4874 C 445.856 -1.31533 -1.91838 0
M  V30 4875 C 446.85 -0.206205 -1.6814 0
M  V30 4876 O 448.056 -0.373519 -1.76082 0
M  V30 4877 H 444.431 -0.409613 -0.630651 0
M  V30 4878 H 446.402 -2.2731 -1.9332 0
M  V30 4879 C 445.151 -1.12679 -3.28936 0
M  V30 4880 H 444.474 -1.97274 -3.4774 0
M  V30 4881 H 445.914 -1.13106 -4.08636 0
M  V30 4882 C 444.373 0.168281 -3.36479 0
M  V30 4883 O 444.903 1.15625 -3.84699 0
M  V30 4884 N 443.109 0.214762 -2.89805 0
M  V30 4885 H 442.656 -0.589852 -2.50756 0
M  V30 4886 H 442.614 1.08094 -2.95234 0
M  V30 4887 N 446.386 1.0089 -1.21074 0
M  V30 4888 C 447.611 1.78727 -1.05221 0
M  V30 4889 C 448.036 1.83932 0.393795 0
M  V30 4890 O 447.394 1.28004 1.28393 0
M  V30 4891 C 447.442 3.20665 -1.64944 0
M  V30 4892 O 446.546 4.02632 -0.892273 0
M  V30 4893 H 445.887 0.550973 -0.370574 0
M  V30 4894 H 448.417 1.26847 -1.60534 0
M  V30 4895 H 448.427 3.71352 -1.69002 0
M  V30 4896 H 447.102 3.16191 -2.70177 0
M  V30 4897 H 445.679 3.61207 -0.926492 0
M  V30 4898 N 447.864 1.01787 1.20321 0
M  V30 4899 C 448.794 0.609625 2.25401 0
M  V30 4900 C 449.775 -0.375951 1.65893 0
M  V30 4901 O 450.96 -0.261101 1.92437 0
M  V30 4902 C 448.09 -0.0515995 3.47262 0
M  V30 4903 C 447.044 0.855095 4.19371 0
M  V30 4904 C 446.37 0.0595757 5.34667 0
M  V30 4905 C 447.67 2.16374 4.75373 0
M  V30 4906 H 449.364 1.48803 2.59804 0
M  V30 4907 H 446.91 0.716934 1.24884 0
M  V30 4908 H 448.863 -0.348764 4.19954 0
M  V30 4909 H 447.587 -0.964726 3.12027 0
M  V30 4910 H 446.246 1.13628 3.48546 0
M  V30 4911 H 445.894 -0.85524 4.95676 0
M  V30 4912 H 445.594 0.663406 5.83843 0
M  V30 4913 H 447.118 -0.231105 6.10162 0
M  V30 4914 H 448.532 1.92885 5.39878 0
M  V30 4915 H 446.929 2.71853 5.34991 0
M  V30 4916 H 447.999 2.82589 3.94045 0
M  V30 4917 N 449.342 -1.36122 0.79427 0
M  V30 4918 C 450.753 -1.81646 0.431446 0
M  V30 4919 C 451.104 -1.66043 -1.04518 0
M  V30 4920 O 450.229 -1.1841 -1.8113 0
M  V30 4921 C 450.824 -3.29785 0.776341 0
M  V30 4922 C 449.383 -3.73501 0.466282 0
M  V30 4923 C 448.53 -2.58313 1.00844 0
M  V30 4924 H 451.481 -1.24274 0.986995 0
M  V30 4925 H 451.502 -3.80437 0.0692413 0
M  V30 4926 H 451.014 -3.4111 1.8511 0
M  V30 4927 H 449.115 -3.67733 -0.600245 0
M  V30 4928 H 449.228 -4.68754 0.990288 0
M  V30 4929 H 447.592 -2.5102 0.431406 0
M  V30 4930 H 448.375 -2.72421 2.08906 0
M  V30 4931 N 450.82 -0.546701 -1.47814 0
M  V30 4932 C 451.767 0.206854 -2.29871 0
M  V30 4933 C 452.737 0.918235 -1.38411 0
M  V30 4934 O 453.922 0.915991 -1.67375 0
M  V30 4935 C 451.062 1.23746 -3.22151 0
M  V30 4936 C 450.175 0.533216 -4.28697 0
M  V30 4937 C 449.31 1.5482 -5.08138 0
M  V30 4938 C 448.349 0.828347 -6.06469 0
M  V30 4939 N 447.486 1.78966 -6.78908 0
M  V30 4940 H 452.326 -0.499037 -2.93792 0
M  V30 4941 H 449.863 -0.25793 -1.44821 0
M  V30 4942 H 451.821 1.84746 -3.74065 0
M  V30 4943 H 450.451 1.91151 -2.60117 0
M  V30 4944 H 449.503 -0.191089 -3.7992 0
M  V30 4945 H 450.815 -0.0311987 -4.9879 0
M  V30 4946 H 449.969 2.23202 -5.6415 0
M  V30 4947 H 448.708 2.14652 -4.37922 0
M  V30 4948 H 447.713 0.130539 -5.49645 0
M  V30 4949 H 448.938 0.235907 -6.7869 0
M  V30 4950 H 446.884 2.37675 -6.1143 0
M  V30 4951 H 446.801 1.27712 -7.45135 0
M  V30 4952 H 448.069 2.46496 -7.395 0
M  V30 4953 N 452.299 1.55045 -0.282633 0
M  V30 4954 C 453.545 2.00056 0.332481 0
M  V30 4955 C 453.878 1.1708 1.54939 0
M  V30 4956 O 453.153 0.2427 1.9298 0
M  V30 4957 C 453.436 3.53086 0.70725 0
M  V30 4958 C 453.289 4.46813 -0.517521 0
M  V30 4959 C 454.608 4.12245 1.54084 0
M  V30 4960 H 451.727 0.727268 0.119373 0
M  V30 4961 H 454.369 1.85932 -0.391076 0
M  V30 4962 H 452.519 3.65253 1.32372 0
M  V30 4963 H 454.191 4.46579 -1.15607 0
M  V30 4964 H 452.434 4.18163 -1.1542 0
M  V30 4965 H 453.105 5.51595 -0.211426 0
M  V30 4966 H 455.581 4.03401 1.02013 0
M  V30 4967 H 454.457 5.19515 1.77186 0
M  V30 4968 H 454.718 3.62951 2.52427 0
M  V30 4969 N 453.777 0.010035 1.57597 0
M  V30 4970 C 454.74 -0.963029 2.07986 0
M  V30 4971 C 455.74 -1.26619 0.991173 0
M  V30 4972 O 456.93 -1.2097 1.25347 0
M  V30 4973 C 454.062 -2.2851 2.52974 0
M  V30 4974 H 455.255 -0.526971 2.95234 0
M  V30 4975 H 452.808 -0.237639 1.54483 0
M  V30 4976 H 453.543 -2.76784 1.69 0
M  V30 4977 H 453.328 -2.07824 3.32493 0
M  V30 4978 H 454.818 -2.98294 2.9225 0
M  V30 4979 N 455.255 -1.55392 -0.262866 0
M  V30 4980 C 456.485 -1.80251 -1.00961 0
M  V30 4981 C 456.893 -0.58117 -1.80053 0
M  V30 4982 O 456.236 0.459427 -1.77862 0
M  V30 4983 C 456.298 -2.98207 -2.00781 0
M  V30 4984 C 455.962 -4.34856 -1.40533 0
M  V30 4985 C 456.959 -5.13459 -0.815853 0
M  V30 4986 C 454.644 -4.8153 -1.42948 0
M  V30 4987 C 456.638 -6.36875 -0.258562 0
M  V30 4988 C 454.325 -6.04899 -0.868334 0
M  V30 4989 C 455.323 -6.8241 -0.283884 0
M  V30 4990 O 455.011 -8.03451 0.268644 0
M  V30 4991 H 454.743 -0.604049 -0.303482 0
M  V30 4992 H 457.297 -2.03257 -0.295926 0
M  V30 4993 H 455.527 -2.70917 -2.75936 0
M  V30 4994 H 457.216 -3.10299 -2.61667 0
M  V30 4995 H 457.982 -4.78526 -0.789812 0
M  V30 4996 H 453.861 -4.21201 -1.87378 0
M  V30 4997 H 457.405 -6.97318 0.198257 0
M  V30 4998 H 453.302 -6.39312 -0.891649 0
M  V30 4999 H 454.07 -8.18346 0.158974 0
M  V30 5000 N 456.733 0.527833 -1.48498 0
M  V30 5001 C 457.696 1.61439 -1.62696 0
M  V30 5002 C 458.696 1.52824 -0.500136 0
M  V30 5003 O 459.886 1.56456 -0.765976 0
M  V30 5004 C 457.018 3.01063 -1.59918 0
M  V30 5005 H 458.211 1.50189 -2.59583 0
M  V30 5006 H 455.764 0.750055 -1.37127 0
M  V30 5007 H 456.499 3.17818 -0.645163 0
M  V30 5008 H 456.284 3.08725 -2.41726 0
M  V30 5009 H 457.774 3.80057 -1.73051 0
M  V30 5010 N 458.211 1.37122 0.776871 0
M  V30 5011 C 459.439 1.3523 1.5659 0
M  V30 5012 C 459.854 -0.0635518 1.88693 0
M  V30 5013 O 459.211 -1.02394 1.51069 0
M  V30 5014 C 459.262 2.18583 2.8793 0
M  V30 5015 O 458.983 3.5465 2.57206 0
M  V30 5016 C 460.484 2.24612 3.82183 0
M  V30 5017 H 457.704 0.4634 0.485285 0
M  V30 5018 H 460.248 1.80392 0.963266 0
M  V30 5019 H 458.403 1.76943 3.4463 0
M  V30 5020 H 458.817 3.98286 3.41275 0
M  V30 5021 H 460.291 2.87267 4.71361 0
M  V30 5022 H 460.768 1.25309 4.20944 0
M  V30 5023 H 461.374 2.66543 3.31414 0
M  V30 5024 N 459.689 -1.00246 1.21608 0
M  V30 5025 C 460.652 -2.07233 0.979133 0
M  V30 5026 C 461.652 -1.6072 -0.0508219 0
M  V30 5027 O 462.842 -1.73196 0.186712 0
M  V30 5028 C 459.974 -3.37546 0.477016 0
M  V30 5029 H 461.167 -2.29687 1.92831 0
M  V30 5030 H 458.72 -1.17261 1.03342 0
M  V30 5031 H 459.455 -3.20773 -0.476966 0
M  V30 5032 H 459.24 -3.72638 1.21997 0
M  V30 5033 H 460.73 -4.16285 0.331181 0
M  V30 5034 N 461.167 -1.02423 -1.1978 0
M  V30 5035 C 462.1 -0.545641 -2.21581 0
M  V30 5036 C 463.078 0.411024 -1.57319 0
M  V30 5037 O 464.262 0.329223 -1.85603 0
M  V30 5038 C 461.389 0.204973 -3.38079 0
M  V30 5039 C 460.435 -0.70241 -4.20676 0
M  V30 5040 S 461.268 -2.17595 -4.89298 0
M  V30 5041 C 462.424 -1.43572 -6.09211 0
M  V30 5042 H 462.657 -1.4082 -2.61834 0
M  V30 5043 H 460.19 -0.833771 -1.29952 0
M  V30 5044 H 462.148 0.631924 -4.05607 0
M  V30 5045 H 460.809 1.0432 -2.9627 0
M  V30 5046 H 460.002 -0.123193 -5.03849 0
M  V30 5047 H 459.604 -1.06747 -3.58442 0
M  V30 5048 H 461.896 -0.719806 -6.73665 0
M  V30 5049 H 462.839 -2.24388 -6.71607 0
M  V30 5050 H 463.247 -0.935252 -5.56699 0
M  V30 5051 N 462.645 1.35699 -0.801477 0
M  V30 5052 C 463.922 1.9324 -0.302937 0
M  V30 5053 C 464.302 1.73209 1.20672 0
M  V30 5054 O 463.65 1.09809 2.00385 0
M  V30 5055 C 463.86 3.41728 -0.708747 0
M  V30 5056 C 465.208 4.18868 -0.695328 0
M  V30 5057 O 466.232 3.5022 -0.649971 0
M  V30 5058 O 465.091 5.41342 -0.749081 0
M  V30 5059 H 462.185 0.82331 -0.0780367 0
M  V30 5060 H 464.731 1.44806 -0.884832 0
M  V30 5061 H 463.503 3.50015 -1.74944 0
M  V30 5062 H 463.126 3.97471 -0.101384 0
M  V30 5063 N 464.123 0.554532 1.47522 0
M  V30 5064 C 465.369 0.0377449 2.03365 0
M  V30 5065 C 465.724 -1.29654 1.42154 0
M  V30 5066 O 465.017 -1.83022 0.566865 0
M  V30 5067 C 465.211 -0.115927 3.57212 0
M  V30 5068 C 465.04 1.20191 4.33341 0
M  V30 5069 C 463.81 1.76849 4.73342 0
M  V30 5070 C 466.008 2.11849 4.68641 0
M  V30 5071 N 463.99 3.02665 5.34104 0
M  V30 5072 C 465.361 3.22245 5.29677 0
M  V30 5073 C 467.416 2.11876 4.5057 0
M  V30 5074 C 466.119 4.32763 5.74551 0
M  V30 5075 C 468.145 3.21405 4.9644 0
M  V30 5076 C 467.507 4.30519 5.57523 0
M  V30 5077 H 463.606 0.0559107 0.779999 0
M  V30 5078 H 466.19 0.741232 1.80038 0
M  V30 5079 H 464.361 -0.788533 3.80311 0
M  V30 5080 H 466.093 -0.634538 3.99695 0
M  V30 5081 H 462.848 1.30681 4.55214 0
M  V30 5082 H 463.272 3.66788 5.69031 0
M  V30 5083 H 467.914 1.28801 4.02704 0
M  V30 5084 H 465.632 5.166 6.2141 0
M  V30 5085 H 469.218 3.22509 4.8423 0
M  V30 5086 H 468.098 5.13873 5.92371 0
M  V30 5087 N 465.601 -1.54893 0.290851 0
M  V30 5088 C 466.848 -1.99933 -0.321391 0
M  V30 5089 C 467.176 -1.17927 -1.54672 0
M  V30 5090 O 466.431 -0.240902 -1.94212 0
M  V30 5091 C 466.73 -3.49815 -0.732397 0
M  V30 5092 C 466.396 -4.4921 0.390056 0
M  V30 5093 C 465.058 -4.76107 0.698223 0
M  V30 5094 C 467.41 -5.08453 1.14562 0
M  V30 5095 C 464.738 -5.59514 1.76526 0
M  V30 5096 C 467.09 -5.9302 2.2025 0
M  V30 5097 C 465.754 -6.18232 2.51684 0
M  V30 5098 H 465.024 -0.731608 -0.117605 0
M  V30 5099 H 467.671 -1.87107 0.407839 0
M  V30 5100 H 465.976 -3.60199 -1.54155 0
M  V30 5101 H 467.673 -3.82083 -1.21712 0
M  V30 5102 H 464.263 -4.28372 0.13976 0
M  V30 5103 H 468.447 -4.87683 0.920801 0
M  V30 5104 H 463.703 -5.77289 2.01364 0
M  V30 5105 H 467.877 -6.37955 2.7926 0
M  V30 5106 H 465.504 -6.82653 3.34499 0
M  V30 5107 N 467.08 -0.0183926 -1.57589 0
M  V30 5108 C 468.329 0.66185 -1.90532 0
M  V30 5109 C 468.642 1.73904 -0.895366 0
M  V30 5110 O 469.848 2.47518 -1.11566 0
M  V30 5111 C 468.304 1.22844 -3.38286 0
M  V30 5112 C 467.912 0.185103 -4.47617 0
M  V30 5113 C 469.656 1.88581 -3.80312 0
M  V30 5114 C 467.563 0.762723 -5.86461 0
M  V30 5115 H 466.493 0.250972 -0.711006 0
M  V30 5116 H 469.144 -0.0819435 -1.83317 0
M  V30 5117 H 467.526 2.0235 -3.40398 0
M  V30 5118 H 468.7 -0.58671 -4.5705 0
M  V30 5119 H 467.015 -0.372889 -4.14727 0
M  V30 5120 H 469.612 2.32735 -4.81392 0
M  V30 5121 H 469.955 2.72408 -3.14801 0
M  V30 5122 H 470.488 1.15782 -3.80578 0
M  V30 5123 H 467.227 -0.0371713 -6.55489 0
M  V30 5124 H 466.747 1.50327 -5.80656 0
M  V30 5125 H 468.426 1.25576 -6.34697 0
M  V30 5126 N 468.558 1.5553 0.254621 0
M  V30 5127 C 469.521 1.88872 1.29846 0
M  V30 5128 C 470.521 0.764591 1.41459 0
M  V30 5129 O 471.711 1.03265 1.40293 0
M  V30 5130 C 468.843 2.11032 2.67728 0
M  V30 5131 H 470.036 2.82201 1.01502 0
M  V30 5132 H 467.589 1.48303 0.493556 0
M  V30 5133 H 468.324 1.20146 3.01223 0
M  V30 5134 H 468.109 2.92895 2.60682 0
M  V30 5135 H 469.599 2.38038 3.43115 0
M  V30 5136 N 470.036 -0.519951 1.48776 0
M  V30 5137 C 471.282 -1.27711 1.57536 0
M  V30 5138 C 471.615 -1.92547 0.252866 0
M  V30 5139 O 470.89 -1.7979 -0.742021 0
M  V30 5140 C 471.173 -2.35875 2.72094 0
M  V30 5141 C 471.026 -1.75664 4.1408 0
M  V30 5142 C 472.345 -3.37575 2.82367 0
M  V30 5143 H 469.464 -0.462971 0.573434 0
M  V30 5144 H 472.106 -0.578194 1.80989 0
M  V30 5145 H 470.256 -2.95488 2.52228 0
M  V30 5146 H 471.928 -1.20025 4.45412 0
M  V30 5147 H 470.171 -1.06154 4.20611 0
M  V30 5148 H 470.842 -2.54029 4.90075 0
M  V30 5149 H 473.318 -2.87929 3.00393 0
M  V30 5150 H 472.194 -4.1064 3.64233 0
M  V30 5151 H 472.455 -3.98743 1.90936 0
M  V30 5152 N 471.514 -1.37532 -0.769588 0
M  V30 5153 C 472.754 -1.34261 -1.54122 0
M  V30 5154 C 473.118 0.0717222 -1.91866 0
M  V30 5155 O 474.319 0.22918 -2.67821 0
M  V30 5156 C 472.59 -2.2574 -2.77086 0
M  V30 5157 S 474.149 -2.40339 -3.67127 0
M  V30 5158 H 470.967 -0.476595 -0.527615 0
M  V30 5159 H 473.569 -1.73303 -0.90479 0
M  V30 5160 H 472.273 -3.27417 -2.4744 0
M  V30 5161 H 471.804 -1.87789 -3.45686 0
M  V30 5162 H 473.819 -1.61558 -4.69163 0
M  V30 5163 N 472.992 0.995999 -1.22138 0
M  V30 5164 C 474.222 1.76809 -1.06874 0
M  V30 5165 C 474.63 1.85265 0.383866 0
M  V30 5166 O 473.973 1.31969 1.27789 0
M  V30 5167 C 474.035 3.2186 -1.60144 0
M  V30 5168 C 473.699 3.36958 -3.0872 0
M  V30 5169 C 474.696 3.2452 -4.0618 0
M  V30 5170 C 472.381 3.62109 -3.48112 0
M  V30 5171 C 474.375 3.37013 -5.41019 0
M  V30 5172 C 472.062 3.74243 -4.831 0
M  V30 5173 C 473.06 3.61702 -5.79362 0
M  V30 5174 O 472.748 3.73436 -7.119 0
M  V30 5175 H 472.48 0.562207 -0.375365 0
M  V30 5176 H 475.034 1.26113 -1.62125 0
M  V30 5177 H 473.264 3.73734 -0.992981 0
M  V30 5178 H 474.953 3.80775 -1.40589 0
M  V30 5179 H 475.719 3.05004 -3.77091 0
M  V30 5180 H 471.598 3.70949 -2.73712 0
M  V30 5181 H 475.142 3.27141 -6.16137 0
M  V30 5182 H 471.039 3.93266 -5.11872 0
M  V30 5183 H 471.807 3.90328 -7.19435 0
M  V30 5184 N 474.47 1.03057 1.19235 0
M  V30 5185 C 475.433 0.617418 2.20727 0
M  V30 5186 C 476.433 -0.319856 1.57587 0
M  V30 5187 O 477.623 -0.106633 1.73873 0
M  V30 5188 C 474.755 -0.096296 3.40764 0
M  V30 5189 H 475.948 1.51544 2.58794 0
M  V30 5190 H 473.501 0.821949 1.32942 0
M  V30 5191 H 474.236 -1.00859 3.08217 0
M  V30 5192 H 474.021 0.577217 3.87828 0
M  V30 5193 H 475.511 -0.372219 4.15938 0
M  V30 5194 N 475.948 -1.35272 0.808662 0
M  V30 5195 C 477.195 -1.98709 0.390003 0
M  V30 5196 C 477.523 -1.64148 -1.04335 0
M  V30 5197 O 476.778 -0.897797 -1.73891 0
M  V30 5198 C 477.077 -3.53556 0.522798 0
M  V30 5199 C 476.743 -4.0799 1.91977 0
M  V30 5200 C 475.405 -4.22568 2.30195 0
M  V30 5201 C 477.757 -4.37442 2.83361 0
M  V30 5202 C 475.085 -4.63918 3.59162 0
M  V30 5203 C 477.437 -4.80232 4.11776 0
M  V30 5204 C 476.101 -4.93016 4.49991 0
M  V30 5205 H 475.371 -0.727127 0.142712 0
M  V30 5206 H 478.018 -1.6145 1.02985 0
M  V30 5207 H 476.323 -3.91287 -0.200494 0
M  V30 5208 H 478.02 -4.00598 0.179608 0
M  V30 5209 H 474.61 -3.97096 1.61284 0
M  V30 5210 H 478.794 -4.25731 2.55083 0
M  V30 5211 H 474.05 -4.72005 3.88615 0
M  V30 5212 H 478.224 -5.01982 4.82687 0
M  V30 5213 H 475.851 -5.24814 5.49976 0
M  V30 5214 N 477.426 -0.562348 -1.47226 0
M  V30 5215 C 478.672 -0.0402761 -2.0276 0
M  V30 5216 C 479.005 1.30823 -1.43523 0
M  V30 5217 O 478.28 1.85249 -0.592705 0
M  V30 5218 C 478.563 0.047311 -3.60069 0
M  V30 5219 C 478.416 -1.32865 -4.29729 0
M  V30 5220 C 479.735 0.758182 -4.3352 0
M  V30 5221 H 476.854 -0.0161105 -0.736824 0
M  V30 5222 H 479.496 -0.725628 -1.75598 0
M  V30 5223 H 477.646 0.630986 -3.83342 0
M  V30 5224 H 479.318 -1.95593 -4.17781 0
M  V30 5225 H 477.561 -1.90195 -3.89882 0
M  V30 5226 H 478.232 -1.22004 -5.38349 0
M  V30 5227 H 480.708 0.262546 -4.15271 0
M  V30 5228 H 479.584 0.78844 -5.43208 0
M  V30 5229 H 479.845 1.81537 -4.03109 0
M  V30 5230 N 478.904 1.54736 -0.299062 0
M  V30 5231 C 480.151 2.00101 0.310784 0
M  V30 5232 C 480.479 1.18746 1.54045 0
M  V30 5233 O 479.734 0.251198 1.94081 0
M  V30 5234 C 480.033 3.50199 0.713835 0
M  V30 5235 C 479.699 4.48997 -0.413873 0
M  V30 5236 C 478.361 4.7573 -0.723462 0
M  V30 5237 C 480.713 5.07839 -1.17257 0
M  V30 5238 C 478.041 5.5857 -1.79491 0
M  V30 5239 C 480.393 5.91844 -2.23392 0
M  V30 5240 C 479.057 6.16889 -2.54959 0
M  V30 5241 H 478.327 0.732221 0.113724 0
M  V30 5242 H 480.974 1.86888 -0.417756 0
M  V30 5243 H 479.279 3.61012 1.52243 0
M  V30 5244 H 480.976 3.82723 1.19684 0
M  V30 5245 H 477.566 4.28292 -0.162476 0
M  V30 5246 H 481.75 4.87188 -0.946651 0
M  V30 5247 H 477.006 5.76213 -2.04423 0
M  V30 5248 H 481.18 6.36465 -2.8264 0
M  V30 5249 H 478.807 6.80869 -3.38114 0
M  V30 5250 N 480.382 0.0267497 1.57577 0
M  V30 5251 C 481.607 -0.666227 1.96408 0
M  V30 5252 C 482.032 -1.65004 0.903071 0
M  V30 5253 O 481.39 -1.80787 -0.136263 0
M  V30 5254 C 481.438 -1.35101 3.34335 0
M  V30 5255 O 480.542 -2.46623 3.30531 0
M  V30 5256 H 479.883 -0.175206 0.640468 0
M  V30 5257 H 482.413 0.0878977 2.04411 0
M  V30 5258 H 482.423 -1.70834 3.70513 0
M  V30 5259 H 481.098 -0.629844 4.11103 0
M  V30 5260 H 479.675 -2.13019 3.06068 0
M  V30 5261 N 481.861 -1.55662 -0.24637 0
M  V30 5262 C 482.824 -1.89558 -1.28842 0
M  V30 5263 C 483.824 -0.772082 -1.41052 0
M  V30 5264 O 485.014 -1.04007 -1.39743 0
M  V30 5265 C 482.146 -2.12449 -2.66605 0
M  V30 5266 H 483.339 -2.82735 -1.00004 0
M  V30 5267 H 480.892 -1.48562 -0.485684 0
M  V30 5268 H 481.627 -1.21742 -3.00582 0
M  V30 5269 H 481.412 -2.94273 -2.59125 0
M  V30 5270 H 482.902 -2.39854 -3.41847 0
M  V30 5271 N 483.339 0.512053 -1.4905 0
M  V30 5272 C 484.269 1.62365 -1.67809 0
M  V30 5273 C 485.25 1.61737 -0.526809 0
M  V30 5274 O 486.435 1.78651 -0.761404 0
M  V30 5275 C 483.565 3.00895 -1.73435 0
M  V30 5276 C 482.519 3.16387 -2.88242 0
M  V30 5277 C 481.845 4.56157 -2.78971 0
M  V30 5278 C 483.145 2.97457 -4.29321 0
M  V30 5279 H 484.839 1.46921 -2.60873 0
M  V30 5280 H 482.385 0.705379 -1.2554 0
M  V30 5281 H 484.338 3.78549 -1.85145 0
M  V30 5282 H 483.062 3.17403 -0.769619 0
M  V30 5283 H 481.721 2.41155 -2.76116 0
M  V30 5284 H 481.369 4.69525 -1.8043 0
M  V30 5285 H 481.069 4.67465 -3.5602 0
M  V30 5286 H 482.593 5.35886 -2.92675 0
M  V30 5287 H 484.007 3.64888 -4.42187 0
M  V30 5288 H 482.404 3.20245 -5.07507 0
M  V30 5289 H 483.474 1.93692 -4.44535 0
M  V30 5290 N 484.817 1.37938 0.762283 0
M  V30 5291 C 486.066 1.32989 1.51647 0
M  V30 5292 C 486.379 -0.0802922 1.95435 0
M  V30 5293 O 487.585 -0.252295 2.70325 0
M  V30 5294 C 486.041 2.33485 2.73885 0
M  V30 5295 C 485.649 3.80079 2.37157 0
M  V30 5296 C 487.393 2.37563 3.51801 0
M  V30 5297 C 485.3 4.72283 3.55954 0
M  V30 5298 H 484.23 0.494301 0.56937 0
M  V30 5299 H 486.881 1.63448 0.834083 0
M  V30 5300 H 485.263 1.96056 3.44061 0
M  V30 5301 H 486.437 4.26398 1.74704 0
M  V30 5302 H 484.752 3.79037 1.72395 0
M  V30 5303 H 487.349 3.0365 4.40114 0
M  V30 5304 H 487.692 1.39199 3.92338 0
M  V30 5305 H 488.225 2.73747 2.8863 0
M  V30 5306 H 484.964 5.7181 3.2049 0
M  V30 5307 H 484.484 4.30663 4.1748 0
M  V30 5308 H 486.163 4.89876 4.22647 0
M  V30 5309 N 486.295 -0.989507 1.22664 0
M  V30 5310 C 487.205 -2.11449 1.01619 0
M  V30 5311 C 488.221 -1.73962 -0.036545 0
M  V30 5312 O 489.397 -2.00788 0.156924 0
M  V30 5313 C 486.462 -3.41465 0.600204 0
M  V30 5314 C 485.523 -3.93033 1.72695 0
M  V30 5315 C 484.756 -5.16844 1.33071 0
M  V30 5316 O 484.979 -5.7001 0.210975 0
M  V30 5317 O 483.913 -5.6225 2.14845 0
M  V30 5318 H 487.739 -2.32088 1.9588 0
M  V30 5319 H 485.324 -1.09823 1.01289 0
M  V30 5320 H 487.206 -4.19695 0.37873 0
M  V30 5321 H 485.881 -3.22178 -0.313511 0
M  V30 5322 H 484.788 -3.15961 2.00298 0
M  V30 5323 H 486.121 -4.16758 2.61865 0
M  V30 5324 N 487.773 -1.03688 -1.18687 0
M  V30 5325 C 489.02 -0.73803 -1.88572 0
M  V30 5326 C 489.348 0.733973 -1.8012 0
M  V30 5327 O 488.603 1.55098 -1.19344 0
M  V30 5328 C 488.902 -1.14477 -3.3857 0
M  V30 5329 C 488.568 -2.61641 -3.67226 0
M  V30 5330 C 487.23 -3.01846 -3.74757 0
M  V30 5331 C 489.582 -3.56812 -3.79914 0
M  V30 5332 C 486.91 -4.36118 -3.92451 0
M  V30 5333 C 489.262 -4.90799 -3.99123 0
M  V30 5334 C 487.926 -5.3068 -4.04888 0
M  V30 5335 H 487.196 -0.270064 -0.690034 0
M  V30 5336 H 489.843 -1.3012 -1.40503 0
M  V30 5337 H 488.148 -0.500337 -3.88592 0
M  V30 5338 H 489.845 -0.89095 -3.90977 0
M  V30 5339 H 486.435 -2.29498 -3.61979 0
M  V30 5340 H 490.619 -3.26899 -3.73431 0
M  V30 5341 H 485.875 -4.66542 -3.95157 0
M  V30 5342 H 490.049 -5.64451 -4.07882 0
M  V30 5343 H 487.676 -6.34733 -4.18351 0
M  V30 5344 N 489.251 1.34841 -0.815825 0
M  V30 5345 C 490.214 2.27959 -0.238185 0
M  V30 5346 C 491.214 1.49983 0.579816 0
M  V30 5347 O 492.404 1.69617 0.396953 0
M  V30 5348 C 489.536 3.34314 0.666876 0
M  V30 5349 H 490.729 2.80558 -1.05958 0
M  V30 5350 H 488.282 1.44852 -0.587156 0
M  V30 5351 H 489.017 2.86916 1.5116 0
M  V30 5352 H 488.802 3.92014 0.0819106 0
M  V30 5353 H 490.292 4.0379 1.06506 0
M  V30 5354 N 490.729 0.570148 1.46925 0
M  V30 5355 C 491.957 0.0561966 2.06824 0
M  V30 5356 C 492.372 -1.24326 1.42086 0
M  V30 5357 O 491.729 -1.74882 0.521794 0
M  V30 5358 C 491.78 -0.129517 3.61268 0
M  V30 5359 O 491.501 1.1185 4.23581 0
M  V30 5360 C 493.002 -0.679266 4.38065 0
M  V30 5361 H 490.222 0.0517261 0.669003 0
M  V30 5362 H 492.766 0.787243 1.8874 0
M  V30 5363 H 490.921 -0.810739 3.78822 0
M  V30 5364 H 491.335 0.924375 5.1629 0
M  V30 5365 H 492.809 -0.758445 5.46765 0
M  V30 5366 H 493.286 -1.69346 4.05239 0
M  V30 5367 H 493.892 -0.0333237 4.25287 0
M  V30 5368 N 492.207 -1.54576 0.307264 0
M  V30 5369 C 493.453 -2.0056 -0.300612 0
M  V30 5370 C 493.786 -1.1953 -1.53057 0
M  V30 5371 O 493.061 -0.27337 -1.92569 0
M  V30 5372 C 493.344 -3.54167 -0.650987 0
M  V30 5373 C 493.197 -4.45933 0.588539 0
M  V30 5374 C 494.516 -4.14645 -1.47506 0
M  V30 5375 H 491.635 -0.729075 -0.107788 0
M  V30 5376 H 494.277 -1.85286 0.420606 0
M  V30 5377 H 492.427 -3.67313 -1.26544 0
M  V30 5378 H 494.099 -4.44683 1.22697 0
M  V30 5379 H 492.342 -4.16274 1.22058 0
M  V30 5380 H 493.013 -5.51189 0.299153 0
M  V30 5381 H 495.489 -4.04973 -0.955821 0
M  V30 5382 H 494.365 -5.22269 -1.68899 0
M  V30 5383 H 494.626 -3.66921 -2.4662 0
M  V30 5384 N 493.685 -0.035106 -1.57561 0
M  V30 5385 C 494.633 0.962707 -2.11742 0
M  V30 5386 C 495.627 1.33296 -1.0454 0
M  V30 5387 O 496.833 1.31449 -1.22968 0
M  V30 5388 H 493.208 0.32826 -0.676572 0
M  V30 5389 H 495.179 0.48048 -2.94506 0
M  V30 5390 C 493.928 2.23388 -2.66445 0
M  V30 5391 H 493.251 1.95774 -3.48587 0
M  V30 5392 H 494.691 2.91402 -3.07995 0
M  V30 5393 C 493.15 2.96769 -1.59467 0
M  V30 5394 O 493.68 3.89105 -0.998 0
M  V30 5395 N 491.886 2.59212 -1.31369 0
M  V30 5396 H 491.433 1.84202 -1.80076 0
M  V30 5397 H 491.391 3.08618 -0.600173 0
M  V30 5398 N 495.163 1.55791 0.238111 0
M  V30 5399 C 496.393 1.81834 0.980809 0
M  V30 5400 C 496.801 0.609741 1.79106 0
M  V30 5401 O 496.144 -0.431073 1.78571 0
M  V30 5402 C 496.206 3.01363 1.96011 0
M  V30 5403 C 495.87 4.37037 1.33597 0
M  V30 5404 C 496.867 5.14692 0.734063 0
M  V30 5405 C 494.552 4.83743 1.3527 0
M  V30 5406 C 496.546 6.37206 0.157208 0
M  V30 5407 C 494.233 6.06204 0.77199 0
M  V30 5408 C 495.231 6.82775 0.175282 0
M  V30 5409 O 494.919 8.02922 -0.396432 0
M  V30 5410 H 494.651 0.6088 0.293834 0
M  V30 5411 H 497.205 2.03702 0.263552 0
M  V30 5412 H 495.435 2.75273 2.71591 0
M  V30 5413 H 497.124 3.14422 2.56697 0
M  V30 5414 H 497.89 4.79722 0.713582 0
M  V30 5415 H 493.769 4.24129 1.80653 0
M  V30 5416 H 497.313 6.96915 -0.30917 0
M  V30 5417 H 493.21 6.4065 0.789828 0
M  V30 5418 H 493.978 8.17989 -0.289145 0
M  V30 5419 N 496.642 -0.504142 1.49319 0
M  V30 5420 C 497.889 -1.25846 1.58647 0
M  V30 5421 C 498.217 -1.92592 0.27177 0
M  V30 5422 O 497.472 -1.81167 -0.74007 0
M  V30 5423 C 497.771 -2.35021 2.69258 0
M  V30 5424 C 497.437 -1.85755 4.1086 0
M  V30 5425 C 496.099 -1.72038 4.49395 0
M  V30 5426 C 498.451 -1.48844 4.99495 0
M  V30 5427 C 495.779 -1.19783 5.74342 0
M  V30 5428 C 498.131 -0.980422 6.24956 0
M  V30 5429 C 496.795 -0.829622 6.62324 0
M  V30 5430 H 496.065 -0.460505 0.580531 0
M  V30 5431 H 498.712 -0.559716 1.83138 0
M  V30 5432 H 497.017 -3.10672 2.38726 0
M  V30 5433 H 498.714 -2.93083 2.73685 0
M  V30 5434 H 495.304 -1.9739 3.80441 0
M  V30 5435 H 499.488 -1.5829 4.70381 0
M  V30 5436 H 494.744 -1.06817 6.01997 0
M  V30 5437 H 498.918 -0.685608 6.93017 0
M  V30 5438 H 496.545 -0.42253 7.59025 0
M  V30 5439 N 498.12 -1.38341 -0.754957 0
M  V30 5440 C 499.348 -1.37704 -1.54419 0
M  V30 5441 C 499.763 0.0335243 -1.8877 0
M  V30 5442 O 499.12 0.999773 -1.52679 0
M  V30 5443 C 499.171 -2.23136 -2.84416 0
M  V30 5444 O 498.892 -3.58697 -2.51531 0
M  V30 5445 C 500.393 -2.30664 -3.78562 0
M  V30 5446 H 497.613 -0.471061 -0.477852 0
M  V30 5447 H 500.157 -1.81902 -0.934446 0
M  V30 5448 H 498.312 -1.82403 -3.41772 0
M  V30 5449 H 498.726 -4.03665 -3.34896 0
M  V30 5450 H 500.2 -2.9473 -4.66732 0
M  V30 5451 H 500.677 -1.3199 -4.18898 0
M  V30 5452 H 501.283 -2.71781 -3.27131 0
M  V30 5453 N 499.598 0.982988 -1.23187 0
M  V30 5454 C 500.545 2.07491 -1.01075 0
M  V30 5455 C 501.515 1.65949 0.070905 0
M  V30 5456 O 502.7 1.90629 -0.0806822 0
M  V30 5457 C 499.84 3.39751 -0.605261 0
M  V30 5458 C 498.953 3.94578 -1.75876 0
M  V30 5459 C 498.088 5.15039 -1.3003 0
M  V30 5460 C 497.127 5.62027 -2.42472 0
M  V30 5461 N 496.264 6.73719 -1.97602 0
M  V30 5462 H 501.104 2.25739 -1.9454 0
M  V30 5463 H 498.641 1.10659 -0.969179 0
M  V30 5464 H 500.599 4.15719 -0.351279 0
M  V30 5465 H 499.229 3.21473 0.292382 0
M  V30 5466 H 498.281 3.1539 -2.12681 0
M  V30 5467 H 499.593 4.25422 -2.60418 0
M  V30 5468 H 498.747 5.9833 -1.00429 0
M  V30 5469 H 497.486 4.85843 -0.425216 0
M  V30 5470 H 496.491 4.77318 -2.7285 0
M  V30 5471 H 497.716 5.93244 -3.30512 0
M  V30 5472 H 495.662 6.46287 -1.1247 0
M  V30 5473 H 495.579 7.03934 -2.75705 0
M  V30 5474 H 496.847 7.6049 -1.71098 0
M  V30 5475 N 501.076 1.04316 1.18135 0
M  V30 5476 C 502.492 0.762858 1.40188 0
M  V30 5477 C 502.692 -0.646547 1.90846 0
M  V30 5478 O 501.748 -1.41036 2.0944 0
M  V30 5479 C 503.061 1.81106 2.40044 0
M  V30 5480 C 504.609 1.83226 2.53766 0
M  V30 5481 C 505.084 2.87044 3.56889 0
M  V30 5482 N 506.575 2.85951 3.64398 0
M  V30 5483 C 507.31 3.62932 4.43923 0
M  V30 5484 N 506.806 4.49672 5.27036 0
M  V30 5485 N 508.599 3.51411 4.38711 0
M  V30 5486 H 500.75 1.95264 0.835805 0
M  V30 5487 H 503.013 0.845017 0.429709 0
M  V30 5488 H 502.719 2.82214 2.09876 0
M  V30 5489 H 502.593 1.64529 3.39426 0
M  V30 5490 H 504.98 0.827869 2.8325 0
M  V30 5491 H 505.061 2.03879 1.54489 0
M  V30 5492 H 504.705 3.87663 3.28145 0
M  V30 5493 H 504.635 2.63645 4.5585 0
M  V30 5494 H 507.126 2.23051 3.05052 0
M  V30 5495 H 507.439 5.05116 5.84874 0
M  V30 5496 H 505.784 4.53738 5.26447 0
M  V30 5497 H 508.975 2.83047 3.72829 0
M  V30 5498 H 509.148 4.11654 5.00445 0
M  V30 5499 N 502.554 -1.34406 0.822964 0
M  V30 5500 C 503.802 -1.97892 0.410245 0
M  V30 5501 C 504.123 -1.65567 -1.03017 0
M  V30 5502 O 503.393 -0.94642 -1.71522 0
M  V30 5503 H 501.973 -0.732049 0.148707 0
M  V30 5504 H 504.635 -1.64043 1.05242 0
M  V30 5505 H 503.731 -3.07579 0.529284 0
M  V30 5506 N 504.032 -0.577932 -1.46621 0
M  V30 5507 C 505.278 -0.0700937 -2.03279 0
M  V30 5508 C 505.633 1.27376 -1.44198 0
M  V30 5509 O 504.926 1.82097 -0.595911 0
M  V30 5510 C 505.12 0.0590832 -3.57351 0
M  V30 5511 C 504.949 -1.2707 -4.31374 0
M  V30 5512 C 503.719 -1.84357 -4.70469 0
M  V30 5513 C 505.917 -2.19278 -4.65211 0
M  V30 5514 N 503.899 -3.11124 -5.29221 0
M  V30 5515 C 505.27 -3.30631 -5.24484 0
M  V30 5516 C 507.325 -2.19018 -4.47142 0
M  V30 5517 C 506.028 -4.41849 -5.67593 0
M  V30 5518 C 508.054 -3.29262 -4.91264 0
M  V30 5519 C 507.416 -4.39335 -5.50604 0
M  V30 5520 H 503.515 -0.0683127 -0.779011 0
M  V30 5521 H 506.099 -0.76978 -1.78836 0
M  V30 5522 H 504.27 0.727929 -3.81518 0
M  V30 5523 H 506.002 0.57087 -4.00653 0
M  V30 5524 H 502.757 -1.37906 -4.53077 0
M  V30 5525 H 503.181 -3.75794 -5.63123 0
M  V30 5526 H 507.823 -1.35191 -4.00604 0
M  V30 5527 H 505.541 -5.26421 -6.13112 0
M  V30 5528 H 509.127 -3.30172 -4.79038 0
M  V30 5529 H 508.007 -5.23233 -5.84121 0
M  V30 5530 N 505.51 1.54411 -0.315457 0
M  V30 5531 C 506.473 2.22713 0.54142 0
M  V30 5532 C 507.473 1.2179 1.04995 0
M  V30 5533 O 508.663 1.46426 0.943667 0
M  V30 5534 C 505.795 2.92485 1.75116 0
M  V30 5535 H 506.988 2.99849 -0.0555508 0
M  V30 5536 H 504.541 1.56159 -0.0664453 0
M  V30 5537 H 505.276 2.19466 2.38758 0
M  V30 5538 H 505.061 3.66483 1.39401 0
M  V30 5539 H 506.551 3.44548 2.35959 0
M  V30 5540 N 506.988 0.0434614 1.5754 0
M  V30 5541 C 508.234 -0.627109 1.93491 0
M  V30 5542 C 508.589 -1.68904 0.921362 0
M  V30 5543 O 507.882 -1.91504 -0.0605799 0
M  V30 5544 C 508.076 -1.2738 3.3393 0
M  V30 5545 C 507.905 -0.27603 4.48852 0
M  V30 5546 C 506.675 0.129244 5.05135 0
M  V30 5547 C 508.873 0.475462 5.12098 0
M  V30 5548 N 506.855 1.12068 6.03584 0
M  V30 5549 C 508.226 1.32021 6.05781 0
M  V30 5550 C 510.281 0.534611 4.95022 0
M  V30 5551 C 508.984 2.2188 6.84223 0
M  V30 5552 C 511.01 1.42059 5.74085 0
M  V30 5553 C 510.372 2.25309 6.67394 0
M  V30 5554 H 506.471 -0.201354 0.755633 0
M  V30 5555 H 509.055 0.113991 1.94366 0
M  V30 5556 H 507.226 -1.98496 3.33847 0
M  V30 5557 H 508.958 -1.90255 3.57191 0
M  V30 5558 H 505.713 -0.248145 4.72949 0
M  V30 5559 H 506.137 1.61306 6.57502 0
M  V30 5560 H 510.779 -0.0947817 4.22694 0
M  V30 5561 H 508.497 2.85868 7.55847 0
M  V30 5562 H 512.083 1.47083 5.62901 0
M  V30 5563 H 510.963 2.92754 7.27506 0
M  V30 5564 N 508.466 -1.55915 -0.229846 0
M  V30 5565 C 509.743 -1.6932 -0.979295 0
M  V30 5566 C 510.123 -0.588321 -2.02736 0
M  V30 5567 O 509.471 0.40586 -2.24867 0
M  V30 5568 C 509.681 -3.10305 -1.59724 0
M  V30 5569 C 511.029 -3.6945 -2.09264 0
M  V30 5570 O 512.053 -3.13214 -1.69633 0
M  V30 5571 O 510.912 -4.68072 -2.82082 0
M  V30 5572 H 508.006 -0.689314 -0.456919 0
M  V30 5573 H 510.552 -1.68238 -0.222283 0
M  V30 5574 H 509.324 -3.82177 -0.840039 0
M  V30 5575 H 508.947 -3.1547 -2.42001 0
M  V30 5576 N 509.944 0.496216 -1.49584 0
M  V30 5577 C 511.192 1.24756 -1.58998 0
M  V30 5578 C 511.513 1.92968 -0.280775 0
M  V30 5579 O 510.783 1.82959 0.700198 0
M  V30 5580 H 509.363 0.463471 -0.585836 0
M  V30 5581 H 512.025 0.574678 -1.86235 0
M  V30 5582 H 511.121 2.00895 -2.38847 0
M  V30 5583 N 511.423 1.38739 0.74761 0
M  V30 5584 C 512.37 1.36449 1.86146 0
M  V30 5585 C 513.34 0.226098 1.64554 0
M  V30 5586 O 514.525 0.41926 1.86137 0
M  V30 5587 C 511.665 1.2013 3.23516 0
M  V30 5588 C 510.778 2.43407 3.56899 0
M  V30 5589 C 509.913 2.19773 4.83605 0
M  V30 5590 C 508.952 3.3879 5.09792 0
M  V30 5591 N 508.089 3.14553 6.27695 0
M  V30 5592 H 512.929 2.3167 1.87438 0
M  V30 5593 H 510.466 1.15094 0.916063 0
M  V30 5594 H 512.424 1.08683 4.02795 0
M  V30 5595 H 511.054 0.285453 3.21535 0
M  V30 5596 H 510.106 2.65504 2.72418 0
M  V30 5597 H 511.418 3.32094 3.72176 0
M  V30 5598 H 510.572 2.05496 5.70838 0
M  V30 5599 H 509.311 1.28461 4.70478 0
M  V30 5600 H 508.316 3.53579 4.21025 0
M  V30 5601 H 509.541 4.30986 5.24812 0
M  V30 5602 H 507.487 2.25893 6.1588 0
M  V30 5603 H 507.404 3.96791 6.435 0
M  V30 5604 H 508.672 3.03943 7.17801 0
M  V30 5605 N 512.901 -0.976442 1.23707 0
M  V30 5606 C 514.126 -1.75875 1.09922 0
M  V30 5607 C 514.551 -1.84911 -0.34489 0
M  V30 5608 O 513.909 -1.31363 -1.24954 0
M  V30 5609 C 513.957 -3.16179 1.73388 0
M  V30 5610 O 513.061 -4.00124 0.99871 0
M  V30 5611 H 512.402 -0.540954 0.385052 0
M  V30 5612 H 514.932 -1.22546 1.6384 0
M  V30 5613 H 514.942 -3.66741 1.78788 0
M  V30 5614 H 513.617 -3.08917 2.78466 0
M  V30 5615 H 512.194 -3.58624 1.02193 0
M  V30 5616 N 514.379 -1.04941 -1.1758 0
M  V30 5617 C 515.625 -0.759112 -1.88057 0
M  V30 5618 C 515.958 0.711918 -1.8068 0
M  V30 5619 O 515.233 1.52035 -1.21308 0
M  V30 5620 C 515.516 -1.237 -3.38187 0
M  V30 5621 C 515.369 -2.77078 -3.54327 0
M  V30 5622 C 516.688 -0.834014 -4.32125 0
M  V30 5623 H 513.807 -0.277237 -0.682868 0
M  V30 5624 H 516.449 -1.30296 -1.38286 0
M  V30 5625 H 514.599 -0.774337 -3.80705 0
M  V30 5626 H 516.271 -3.31449 -3.20842 0
M  V30 5627 H 514.514 -3.16477 -2.96689 0
M  V30 5628 H 515.185 -3.05577 -4.59703 0
M  V30 5629 H 517.661 -1.23228 -3.97434 0
M  V30 5630 H 516.537 -1.19603 -5.35711 0
M  V30 5631 H 516.798 0.262195 -4.41322 0
M  V30 5632 N 515.857 1.33968 -0.830081 0
M  V30 5633 C 517.103 1.98357 -0.422191 0
M  V30 5634 C 517.436 1.65633 1.01387 0
M  V30 5635 O 516.711 0.931648 1.70735 0
M  V30 5636 C 516.994 3.54492 -0.633043 0
M  V30 5637 C 516.847 3.96934 -2.11574 0
M  V30 5638 C 518.166 4.40039 -0.0735584 0
M  V30 5639 H 515.285 0.720544 -0.154871 0
M  V30 5640 H 517.927 1.58749 -1.04397 0
M  V30 5641 H 516.077 3.88361 -0.103775 0
M  V30 5642 H 517.749 3.73363 -2.7092 0
M  V30 5643 H 515.992 3.46984 -2.60354 0
M  V30 5644 H 516.663 5.05651 -2.21406 0
M  V30 5645 H 519.139 4.12764 -0.52585 0
M  V30 5646 H 518.015 5.48327 -0.250841 0
M  V30 5647 H 518.276 4.30124 1.02202 0
M  V30 5648 N 517.335 0.585699 1.46312 0
M  V30 5649 C 518.283 -0.158577 2.32059 0
M  V30 5650 C 519.277 -0.881427 1.44662 0
M  V30 5651 O 520.483 -0.799476 1.61271 0
M  V30 5652 H 516.858 -0.0700066 0.748734 0
M  V30 5653 H 518.829 0.583383 2.92642 0
M  V30 5654 C 517.578 -1.15701 3.27885 0
M  V30 5655 H 516.901 -0.610215 3.95116 0
M  V30 5656 H 518.341 -1.64812 3.90657 0
M  V30 5657 C 516.8 -2.21951 2.53455 0
M  V30 5658 O 517.33 -3.29352 2.29978 0
M  V30 5659 N 515.536 -1.9664 2.13965 0
M  V30 5660 H 515.083 -1.09309 2.33258 0
M  V30 5661 H 515.041 -2.6794 1.64485 0
M  V30 5662 N 518.813 -1.54241 0.323641 0
M  V30 5663 C 520.09 -1.92741 -0.333181 0
M  V30 5664 C 520.47 -1.25326 -1.69872 0
M  V30 5665 O 519.818 -0.396991 -2.25025 0
M  V30 5666 C 520.028 -3.46399 -0.425322 0
M  V30 5667 C 521.376 -4.19029 -0.68557 0
M  V30 5668 O 522.4 -3.52555 -0.50824 0
M  V30 5669 O 521.259 -5.36751 -1.02767 0
M  V30 5670 H 518.353 -0.804811 -0.190286 0
M  V30 5671 H 520.899 -1.65542 0.373361 0
M  V30 5672 H 519.671 -3.87643 0.533737 0
M  V30 5673 H 519.294 -3.79704 -1.17944 0
M  V30 5674 N 520.291 -0.0518155 -1.57515 0
M  V30 5675 C 521.238 0.922352 -2.11569 0
M  V30 5676 C 522.208 1.30842 -1.02321 0
M  V30 5677 O 523.393 1.39778 -1.29872 0
M  V30 5678 C 520.533 2.19167 -2.6657 0
M  V30 5679 C 519.646 1.86003 -3.89906 0
M  V30 5680 C 518.781 3.07398 -4.33221 0
M  V30 5681 C 517.82 2.70158 -5.49255 0
M  V30 5682 N 516.957 3.84248 -5.8762 0
M  V30 5683 H 521.797 0.454506 -2.94514 0
M  V30 5684 H 519.334 0.212718 -1.45554 0
M  V30 5685 H 521.292 2.93443 -2.96559 0
M  V30 5686 H 519.922 2.63528 -1.86421 0
M  V30 5687 H 518.974 1.01874 -3.66505 0
M  V30 5688 H 520.286 1.54592 -4.74239 0
M  V30 5689 H 519.44 3.89972 -4.64765 0
M  V30 5690 H 518.179 3.41988 -3.477 0
M  V30 5691 H 517.184 1.86001 -5.17382 0
M  V30 5692 H 518.409 2.36759 -6.36492 0
M  V30 5693 H 516.355 4.18638 -5.05053 0
M  V30 5694 H 516.272 3.56538 -6.66646 0
M  V30 5695 H 517.54 4.6746 -6.2378 0
M  V30 5696 N 521.769 1.56035 0.221574 0
M  V30 5697 C 522.716 1.92413 1.27459 0
M  V30 5698 C 523.686 0.781323 1.46576 0
M  V30 5699 O 524.871 1.03721 1.60145 0
M  V30 5700 C 522.011 2.24617 2.61995 0
M  V30 5701 C 521.124 3.51831 2.50677 0
M  V30 5702 C 520.259 3.73482 3.77736 0
M  V30 5703 C 519.298 4.94211 3.6114 0
M  V30 5704 N 518.435 5.12252 4.80148 0
M  V30 5705 H 523.275 2.82203 0.957355 0
M  V30 5706 H 520.812 1.39676 0.461415 0
M  V30 5707 H 522.77 2.41298 3.40339 0
M  V30 5708 H 521.4 1.38 2.91815 0
M  V30 5709 H 520.452 3.43343 1.63767 0
M  V30 5710 H 521.764 4.40328 2.34334 0
M  V30 5711 H 520.918 3.9026 4.64523 0
M  V30 5712 H 519.657 2.83266 3.97003 0
M  V30 5713 H 518.662 4.77384 2.72736 0
M  V30 5714 H 519.887 5.85912 3.43343 0
M  V30 5715 H 517.833 4.24978 4.99729 0
M  V30 5716 H 517.75 5.94881 4.66532 0
M  V30 5717 H 519.018 5.33465 5.68362 0
M  V30 5718 N 523.247 -0.488276 1.49845 0
M  V30 5719 C 524.194 -1.58836 1.67451 0
M  V30 5720 C 525.164 -1.57886 0.515857 0
M  V30 5721 O 526.349 -1.75679 0.744403 0
M  V30 5722 C 523.489 -2.96915 1.75885 0
M  V30 5723 C 522.602 -3.07784 3.03138 0
M  V30 5724 C 521.737 -4.36673 3.02473 0
M  V30 5725 C 520.776 -4.41222 4.24252 0
M  V30 5726 N 519.913 -5.61557 4.21424 0
M  V30 5727 H 524.753 -1.43131 2.61376 0
M  V30 5728 H 522.29 -0.696186 1.29583 0
M  V30 5729 H 524.248 -3.76965 1.78755 0
M  V30 5730 H 522.878 -3.11295 0.85414 0
M  V30 5731 H 521.93 -2.20717 3.09819 0
M  V30 5732 H 523.242 -3.07005 3.93128 0
M  V30 5733 H 522.396 -5.25055 3.03977 0
M  V30 5734 H 521.135 -4.40037 2.10283 0
M  V30 5735 H 520.14 -3.5124 4.22978 0
M  V30 5736 H 521.365 -4.39564 5.17649 0
M  V30 5737 H 519.311 -5.65738 3.32078 0
M  V30 5738 H 519.228 -5.62447 5.05163 0
M  V30 5739 H 520.496 -6.52111 4.2705 0
M  V30 5740 N 524.725 -1.39134 -0.740242 0
M  V30 5741 C 525.635 -1.39697 -1.88473 0
M  V30 5742 C 526.651 -0.292403 -1.71526 0
M  V30 5743 O 527.827 -0.533021 -1.94219 0
M  V30 5744 C 524.892 -1.23382 -3.24003 0
M  V30 5745 C 523.953 -2.43763 -3.53381 0
M  V30 5746 C 523.186 -2.28216 -4.82445 0
M  V30 5747 O 523.409 -1.28288 -5.55786 0
M  V30 5748 O 522.343 -3.1709 -5.11603 0
M  V30 5749 H 526.169 -2.36159 -1.90952 0
M  V30 5750 H 523.754 -1.20194 -0.887346 0
M  V30 5751 H 525.636 -1.16395 -4.05006 0
M  V30 5752 H 524.311 -0.300121 -3.22306 0
M  V30 5753 H 523.218 -2.56325 -2.72485 0
M  V30 5754 H 524.551 -3.35808 -3.59852 0
M  V30 5755 N 526.204 0.969867 -1.24223 0
M  V30 5756 C 527.151 2.06407 -1.0327 0
M  V30 5757 C 528.121 1.66014 0.0533 0
M  V30 5758 O 529.306 1.90533 -0.100896 0
M  V30 5759 C 526.446 3.3909 -0.641262 0
M  V30 5760 C 525.559 3.9269 -1.80051 0
M  V30 5761 C 524.694 5.13631 -1.35486 0
M  V30 5762 C 523.733 5.59423 -2.48419 0
M  V30 5763 N 522.87 6.71586 -2.04737 0
M  V30 5764 H 527.71 2.23663 -1.96923 0
M  V30 5765 H 525.247 1.09624 -0.980862 0
M  V30 5766 H 527.205 4.15323 -0.395351 0
M  V30 5767 H 525.835 3.21765 0.258269 0
M  V30 5768 H 524.887 3.13116 -2.16014 0
M  V30 5769 H 526.199 4.22636 -2.64916 0
M  V30 5770 H 525.353 5.97231 -1.0677 0
M  V30 5771 H 524.092 4.85364 -0.476722 0
M  V30 5772 H 523.097 4.74398 -2.77897 0
M  V30 5773 H 524.322 5.89705 -3.36786 0
M  V30 5774 H 522.268 6.45058 -1.19318 0
M  V30 5775 H 522.185 7.0097 -2.83156 0
M  V30 5776 H 523.453 7.58633 -1.79154 0
M  V30 5777 N 527.682 1.05563 1.17022 0
M  V30 5778 C 528.645 0.664098 2.19368 0
M  V30 5779 C 529.645 -0.286358 1.5823 0
M  V30 5780 O 530.835 -0.069728 1.7406 0
M  V30 5781 C 527.967 -0.0239932 3.40892 0
M  V30 5782 H 529.16 1.57 2.55521 0
M  V30 5783 H 526.713 0.849964 1.31169 0
M  V30 5784 H 527.448 -0.942988 3.10287 0
M  V30 5785 H 527.233 0.659351 3.86516 0
M  V30 5786 H 528.723 -0.283909 4.16634 0
M  V30 5787 N 529.16 -1.33526 0.837174 0
M  V30 5788 C 530.385 -2.0258 0.444545 0
M  V30 5789 C 530.81 -1.6258 -0.946006 0
M  V30 5790 O 530.168 -0.817548 -1.6182 0
M  V30 5791 C 530.216 -3.5605 0.571006 0
M  V30 5792 O 529.32 -4.10422 -0.403431 0
M  V30 5793 H 528.661 -0.638866 0.180958 0
M  V30 5794 H 531.191 -1.70462 1.13154 0
M  V30 5795 H 531.201 -4.05488 0.452024 0
M  V30 5796 H 529.876 -3.84509 1.58512 0
M  V30 5797 H 528.453 -3.72113 -0.242147 0
M  V30 5798 N 530.638 -0.59345 -1.46 0
M  V30 5799 C 531.884 -0.0832754 -2.02629 0
M  V30 5800 C 532.217 1.27749 -1.46266 0
M  V30 5801 O 531.492 1.8395 -0.631866 0
M  V30 5802 C 531.775 -0.0290756 -3.60088 0
M  V30 5803 C 531.628 -1.41951 -4.26814 0
M  V30 5804 C 532.947 0.666055 -4.35031 0
M  V30 5805 H 530.066 -0.031736 -0.736316 0
M  V30 5806 H 532.708 -0.762711 -1.74019 0
M  V30 5807 H 530.858 0.549532 -3.84594 0
M  V30 5808 H 532.53 -2.04411 -4.13538 0
M  V30 5809 H 530.773 -1.98422 -3.8576 0
M  V30 5810 H 531.444 -1.33395 -5.3564 0
M  V30 5811 H 533.92 0.174401 -4.15734 0
M  V30 5812 H 532.796 0.673041 -5.44758 0
M  V30 5813 H 533.057 1.72946 -4.06869 0
M  V30 5814 N 532.116 1.54067 -0.331816 0
M  V30 5815 C 533.049 2.20886 0.573127 0
M  V30 5816 C 534.027 1.18876 1.10938 0
M  V30 5817 O 535.211 1.47649 1.17184 0
M  V30 5818 C 532.338 2.87706 1.78726 0
M  V30 5819 C 531.384 4.03505 1.38152 0
M  V30 5820 S 532.217 5.33919 0.41123 0
M  V30 5821 C 533.373 6.04236 1.63246 0
M  V30 5822 H 533.606 2.97299 0.00555737 0
M  V30 5823 H 531.139 1.53964 -0.115893 0
M  V30 5824 H 533.097 3.26825 2.48386 0
M  V30 5825 H 531.758 2.1108 2.32603 0
M  V30 5826 H 530.951 4.49152 2.28645 0
M  V30 5827 H 530.553 3.66102 0.764524 0
M  V30 5828 H 532.845 6.26917 2.56869 0
M  V30 5829 H 533.788 6.97546 1.218 0
M  V30 5830 H 534.196 5.34247 1.82318 0
M  V30 5831 N 533.594 0.0601682 1.57485 0
M  V30 5832 C 534.843 -0.611101 1.9222 0
M  V30 5833 C 535.156 -1.71469 0.941159 0
M  V30 5834 O 536.362 -2.44473 1.18089 0
M  V30 5835 C 534.818 -1.13832 3.41424 0
M  V30 5836 C 534.426 -0.0663596 4.47951 0
M  V30 5837 C 536.17 -1.78432 3.85178 0
M  V30 5838 C 534.077 -0.606965 5.88277 0
M  V30 5839 H 533.007 -0.232033 0.71741 0
M  V30 5840 H 535.658 0.130518 1.83035 0
M  V30 5841 H 534.04 -1.93254 3.45643 0
M  V30 5842 H 535.214 0.707682 4.55333 0
M  V30 5843 H 533.529 0.482715 4.13593 0
M  V30 5844 H 536.126 -2.1989 4.87394 0
M  V30 5845 H 536.469 -2.63966 3.21913 0
M  V30 5846 H 537.002 -1.05651 3.83514 0
M  V30 5847 H 533.741 0.21095 6.5516 0
M  V30 5848 H 533.261 -1.34879 5.84438 0
M  V30 5849 H 534.94 -1.08704 6.37803 0
M  V30 5850 N 535.072 -1.5615 -0.213296 0
M  V30 5851 C 536.004 -1.89586 -1.28802 0
M  V30 5852 C 537.017 -0.784844 -1.42633 0
M  V30 5853 O 538.206 -1.06319 -1.43383 0
M  V30 5854 C 535.306 -2.09665 -2.66259 0
M  V30 5855 C 534.479 -3.40726 -2.7427 0
M  V30 5856 C 533.538 -3.50137 -3.92798 0
M  V30 5857 O 532.564 -4.23105 -3.8075 0
M  V30 5858 N 533.766 -2.81886 -5.07465 0
M  V30 5859 H 536.531 -2.82368 -1.00442 0
M  V30 5860 H 534.092 -1.56796 -0.403302 0
M  V30 5861 H 536.084 -2.13268 -3.43946 0
M  V30 5862 H 534.654 -1.23469 -2.87183 0
M  V30 5863 H 533.874 -3.4915 -1.82997 0
M  V30 5864 H 535.162 -4.27048 -2.76599 0
M  V30 5865 H 534.56 -2.22397 -5.2015 0
M  V30 5866 H 533.117 -2.91139 -5.83165 0
M  V30 5867 N 536.55 0.480323 -1.50102 0
M  V30 5868 C 537.498 1.60024 -1.68805 0
M  V30 5869 C 538.492 1.60089 -0.553888 0
M  V30 5870 O 539.698 1.64349 -0.734127 0
M  V30 5871 H 536.073 0.530841 -0.532646 0
M  V30 5872 H 538.044 1.41408 -2.62767 0
M  V30 5873 C 536.793 2.98029 -1.79092 0
M  V30 5874 H 536.116 2.98694 -2.65748 0
M  V30 5875 H 537.556 3.75871 -1.96206 0
M  V30 5876 C 536.015 3.32538 -0.540388 0
M  V30 5877 O 536.545 4.00386 0.324637 0
M  V30 5878 N 534.751 2.87873 -0.397154 0
M  V30 5879 H 534.298 2.32834 -1.1021 0
M  V30 5880 H 534.256 3.11328 0.438425 0
M  V30 5881 N 538.028 1.39524 0.732853 0
M  V30 5882 C 538.976 1.38563 1.86824 0
M  V30 5883 C 539.97 0.268467 1.67259 0
M  V30 5884 O 541.176 0.438613 1.74574 0
M  V30 5885 H 537.551 0.432737 0.615014 0
M  V30 5886 H 539.522 2.34328 1.84751 0
M  V30 5887 C 538.271 1.2481 3.24527 0
M  V30 5888 H 537.594 2.10044 3.40179 0
M  V30 5889 H 539.034 1.28194 4.04156 0
M  V30 5890 C 537.493 -0.0432825 3.36872 0
M  V30 5891 O 538.023 -1.01268 3.88726 0
M  V30 5892 N 536.229 -0.107055 2.90403 0
M  V30 5893 H 535.776 0.682512 2.48394 0
M  V30 5894 H 535.734 -0.970618 2.99042 0
M  V30 5895 N 539.506 -0.963266 1.24736 0
M  V30 5896 C 540.469 -2.04013 1.04457 0
M  V30 5897 C 541.469 -1.608 0.000335555 0
M  V30 5898 O 542.659 -1.72515 0.241719 0
M  V30 5899 C 539.791 -3.35858 0.584162 0
M  V30 5900 H 540.984 -2.23436 2.00041 0
M  V30 5901 H 538.537 -1.13914 1.07021 0
M  V30 5902 H 539.272 -3.22128 -0.374673 0
M  V30 5903 H 539.057 -3.68568 1.3379 0
M  V30 5904 H 540.547 -4.1502 0.463451 0
M  V30 5905 N 540.985 -1.06182 -1.16461 0
M  V30 5906 C 542.215 -0.797425 -1.9059 0
M  V30 5907 C 542.623 0.651845 -1.77616 0
M  V30 5908 O 541.966 1.45788 -1.11766 0
M  V30 5909 C 542.028 -1.11128 -3.41893 0
M  V30 5910 C 541.692 -2.55874 -3.78652 0
M  V30 5911 C 542.689 -3.54104 -3.80665 0
M  V30 5912 C 540.374 -2.91144 -4.09317 0
M  V30 5913 C 542.368 -4.85645 -4.12829 0
M  V30 5914 C 540.055 -4.22885 -4.41148 0
M  V30 5915 C 541.053 -5.19945 -4.42883 0
M  V30 5916 O 540.741 -6.49322 -4.73959 0
M  V30 5917 H 540.473 -0.288709 -0.611247 0
M  V30 5918 H 543.027 -1.41841 -1.4856 0
M  V30 5919 H 541.257 -0.433217 -3.84266 0
M  V30 5920 H 542.946 -0.831306 -3.97296 0
M  V30 5921 H 543.712 -3.28197 -3.57088 0
M  V30 5922 H 539.591 -2.16252 -4.07131 0
M  V30 5923 H 543.135 -5.61398 -4.14099 0
M  V30 5924 H 539.032 -4.48551 -4.6419 0
M  V30 5925 H 539.8 -6.54294 -4.91774 0
M  V30 5926 N 542.463 1.3308 -0.844243 0
M  V30 5927 C 543.426 2.27403 -0.286485 0
M  V30 5928 C 544.426 1.51179 0.547872 0
M  V30 5929 O 545.616 1.70421 0.360886 0
M  V30 5930 C 542.748 3.35653 0.595813 0
M  V30 5931 H 543.941 2.78248 -1.11885 0
M  V30 5932 H 541.494 1.43574 -0.617749 0
M  V30 5933 H 542.229 2.90058 1.4504 0
M  V30 5934 H 542.014 3.921 -0.00125994 0
M  V30 5935 H 543.504 4.05958 0.979168 0
M  V30 5936 N 543.941 0.601185 1.45683 0
M  V30 5937 C 545.187 0.0940202 2.02582 0
M  V30 5938 C 545.52 -1.26972 1.46941 0
M  V30 5939 O 544.795 -1.83613 0.641612 0
M  V30 5940 C 545.078 0.0481715 3.60068 0
M  V30 5941 C 544.931 1.44212 4.26055 0
M  V30 5942 C 546.25 -0.642975 4.35378 0
M  V30 5943 H 543.369 0.0356404 0.736138 0
M  V30 5944 H 546.011 0.771929 1.73612 0
M  V30 5945 H 544.161 -0.529128 3.8488 0
M  V30 5946 H 545.833 2.06601 4.12449 0
M  V30 5947 H 544.076 2.00465 3.84703 0
M  V30 5948 H 544.747 1.36234 5.34925 0
M  V30 5949 H 547.223 -0.152351 4.15821 0
M  V30 5950 H 546.099 -0.644141 5.45107 0
M  V30 5951 H 546.36 -1.70785 4.0778 0
M  V30 5952 N 545.419 -1.53889 0.339982 0
M  V30 5953 C 546.382 -2.23547 -0.50592 0
M  V30 5954 C 547.382 -1.23445 -1.03044 0
M  V30 5955 O 548.572 -1.47909 -0.920253 0
M  V30 5956 C 545.704 -2.95234 -1.7044 0
M  V30 5957 H 546.897 -2.99722 0.103247 0
M  V30 5958 H 544.45 -1.56033 0.0912804 0
M  V30 5959 H 545.185 -2.23236 -2.35236 0
M  V30 5960 H 544.97 -3.68654 -1.33553 0
M  V30 5961 H 546.46 -3.48258 -2.30447 0
M  V30 5962 N 546.897 -0.0685191 -1.57451 0
M  V30 5963 C 548.143 0.602239 -1.93652 0
M  V30 5964 C 548.476 1.6946 -0.948526 0
M  V30 5965 O 547.751 1.94487 0.022782 0
M  V30 5966 C 548.034 1.18223 -3.4014 0
M  V30 5967 C 547.887 0.0967431 -4.49696 0
M  V30 5968 C 549.206 2.08872 -3.87377 0
M  V30 5969 H 546.325 0.217453 -0.70419 0
M  V30 5970 H 548.967 -0.133821 -1.89528 0
M  V30 5971 H 547.117 1.80953 -3.43785 0
M  V30 5972 H 548.789 -0.536155 -4.58174 0
M  V30 5973 H 547.032 -0.573063 -4.29998 0
M  V30 5974 H 547.703 0.542894 -5.49324 0
M  V30 5975 H 550.179 1.56081 -3.85717 0
M  V30 5976 H 549.055 2.46389 -4.90493 0
M  V30 5977 H 549.316 2.99572 -3.25129 0
M  V30 5978 N 548.375 1.56261 0.205012 0
M  V30 5979 C 549.338 1.92908 1.23771 0
M  V30 5980 C 550.338 0.809208 1.38955 0
M  V30 5981 O 551.528 1.07676 1.36936 0
M  V30 5982 C 548.66 2.19442 2.60879 0
M  V30 5983 H 549.853 2.85287 0.924728 0
M  V30 5984 H 547.406 1.49798 0.446125 0
M  V30 5985 H 548.141 1.29668 2.97248 0
M  V30 5986 H 547.926 3.0104 2.51232 0
M  V30 5987 H 549.416 2.48833 3.35368 0
M  V30 5988 N 549.853 -0.472356 1.50355 0
M  V30 5989 C 550.801 -1.59126 1.69651 0
M  V30 5990 C 551.795 -1.59793 0.56237 0
M  V30 5991 O 553.001 -1.63957 0.742832 0
M  V30 5992 H 549.376 -0.528008 0.535454 0
M  V30 5993 H 551.347 -1.40013 2.63513 0
M  V30 5994 C 550.096 -2.97075 1.8067 0
M  V30 5995 H 549.419 -2.9728 2.67329 0
M  V30 5996 H 550.859 -3.74825 1.98197 0
M  V30 5997 C 549.318 -3.32247 0.558016 0
M  V30 5998 O 549.848 -4.00553 -0.303399 0
M  V30 5999 N 548.054 -2.87659 0.412415 0
M  V30 6000 H 547.601 -2.32246 1.11443 0
M  V30 6001 H 547.559 -3.11556 -0.421908 0
M  V30 6002 N 551.331 -1.39911 -0.725443 0
M  V30 6003 C 552.561 -1.40744 -1.51244 0
M  V30 6004 C 552.969 -0.00275403 -1.892 0
M  V30 6005 O 552.312 0.981299 -1.55294 0
M  V30 6006 C 552.374 -2.22527 -2.82351 0
M  V30 6007 C 552.038 -3.71053 -2.66774 0
M  V30 6008 C 553.035 -4.63916 -2.34686 0
M  V30 6009 C 550.72 -4.14753 -2.83347 0
M  V30 6010 C 552.714 -5.98463 -2.19366 0
M  V30 6011 C 550.401 -5.49372 -2.67644 0
M  V30 6012 C 551.399 -6.41042 -2.357 0
M  V30 6013 O 551.087 -7.73181 -2.20107 0
M  V30 6014 H 550.819 -0.482314 -0.473655 0
M  V30 6015 H 553.373 -1.84472 -0.903284 0
M  V30 6016 H 551.603 -1.73563 -3.45562 0
M  V30 6017 H 553.292 -2.15421 -3.44018 0
M  V30 6018 H 554.058 -4.31453 -2.21525 0
M  V30 6019 H 549.937 -3.43728 -3.072 0
M  V30 6020 H 553.481 -6.69979 -1.94354 0
M  V30 6021 H 549.378 -5.81424 -2.80387 0
M  V30 6022 H 550.146 -7.84008 -2.35103 0
M  V30 6023 N 552.809 0.956637 -1.25245 0
M  V30 6024 C 553.772 2.03457 -1.05537 0
M  V30 6025 C 554.772 1.60798 -0.00886317 0
M  V30 6026 O 555.962 1.72384 -0.250865 0
M  V30 6027 C 553.094 3.35543 -0.601965 0
M  V30 6028 H 554.287 2.22372 -2.01223 0
M  V30 6029 H 551.84 1.13344 -1.07623 0
M  V30 6030 H 552.575 3.22323 0.357584 0
M  V30 6031 H 552.36 3.67854 -1.35743 0
M  V30 6032 H 553.85 4.14769 -0.485454 0
M  V30 6033 N 554.287 1.06798 1.15896 0
M  V30 6034 C 555.698 0.811355 1.68149 0
M  V30 6035 C 556.049 -0.664339 1.8461 0
M  V30 6036 O 555.174 -1.51485 1.54535 0
M  V30 6037 C 555.769 1.46624 3.05429 0
M  V30 6038 C 554.328 1.25726 3.54781 0
M  V30 6039 C 553.475 1.53949 2.3064 0
M  V30 6040 H 556.426 1.23078 1.00187 0
M  V30 6041 H 556.447 0.88437 3.7008 0
M  V30 6042 H 555.959 2.54025 2.93416 0
M  V30 6043 H 554.06 0.20322 3.72045 0
M  V30 6044 H 554.173 1.97354 4.36564 0
M  V30 6045 H 552.537 0.96025 2.35905 0
M  V30 6046 H 553.32 2.6252 2.2122 0
M  V30 6047 N 555.766 -1.3263 0.851289 0
M  V30 6048 C 556.714 -2.30882 0.282202 0
M  V30 6049 C 557.708 -1.58697 -0.592589 0
M  V30 6050 O 558.914 -1.73461 -0.480768 0
M  V30 6051 H 555.289 -0.748492 0.0725487 0
M  V30 6052 H 557.26 -2.76374 1.12516 0
M  V30 6053 C 556.009 -3.43828 -0.517449 0
M  V30 6054 H 555.332 -3.99532 0.146392 0
M  V30 6055 H 556.772 -4.1474 -0.88128 0
M  V30 6056 C 555.231 -2.90786 -1.70133 0
M  V30 6057 O 555.761 -2.88 -2.80034 0
M  V30 6058 N 553.967 -2.4723 -1.52728 0
M  V30 6059 H 553.514 -2.49695 -0.633257 0
M  V30 6060 H 553.472 -2.12094 -2.32085 0
M  V30 6061 N 557.244 -0.608902 -1.45362 0
M  V30 6062 C 558.174 0.0964526 -2.33301 0
M  V30 6063 C 559.155 0.857444 -1.46908 0
M  V30 6064 O 560.34 0.827735 -1.75676 0
M  V30 6065 C 557.47 1.09354 -3.29635 0
M  V30 6066 C 556.424 0.445676 -4.25673 0
M  V30 6067 C 555.75 1.5511 -5.11708 0
M  V30 6068 C 557.05 -0.633972 -5.18438 0
M  V30 6069 H 558.744 -0.637829 -2.92527 0
M  V30 6070 H 556.29 -0.308178 -1.40664 0
M  V30 6071 H 558.243 1.59556 -3.90025 0
M  V30 6072 H 556.967 1.85843 -2.6857 0
M  V30 6073 H 555.626 -0.0354897 -3.66583 0
M  V30 6074 H 555.274 2.30631 -4.4701 0
M  V30 6075 H 554.974 1.12311 -5.76767 0
M  V30 6076 H 556.498 2.05537 -5.74967 0
M  V30 6077 H 557.912 -0.215974 -5.72893 0
M  V30 6078 H 556.309 -0.983789 -5.91981 0
M  V30 6079 H 557.379 -1.51005 -4.60788 0
M  V30 6080 N 558.722 1.53707 -0.348139 0
M  V30 6081 C 559.947 2.05877 0.250883 0
M  V30 6082 C 560.372 1.22115 1.43072 0
M  V30 6083 O 559.73 0.235986 1.79758 0
M  V30 6084 C 559.778 3.54886 0.639416 0
M  V30 6085 O 558.882 3.73948 1.73888 0
M  V30 6086 H 558.223 0.662754 0.040653 0
M  V30 6087 H 560.753 1.98303 -0.503685 0
M  V30 6088 H 560.763 3.97601 0.915295 0
M  V30 6089 H 559.438 4.153 -0.223386 0
M  V30 6090 H 558.015 3.43134 1.45991 0
M  V30 6091 N 560.2 0.0768682 1.57412 0
M  V30 6092 C 561.147 -0.888577 2.13009 0
M  V30 6093 C 562.117 -1.29198 1.0439 0
M  V30 6094 O 563.302 -1.37694 1.3208 0
M  V30 6095 C 560.442 -2.14899 2.70023 0
M  V30 6096 C 559.555 -1.79777 3.92816 0
M  V30 6097 C 558.69 -3.00467 4.38056 0
M  V30 6098 C 557.729 -2.61385 5.53484 0
M  V30 6099 N 556.866 -3.74851 5.93659 0
M  V30 6100 H 561.706 -0.407593 2.95199 0
M  V30 6101 H 559.243 -0.189534 1.45874 0
M  V30 6102 H 561.201 -2.88688 3.0119 0
M  V30 6103 H 559.831 -2.60529 1.9059 0
M  V30 6104 H 558.883 -0.960301 3.68079 0
M  V30 6105 H 560.195 -1.47027 4.76639 0
M  V30 6106 H 559.349 -3.82529 4.7091 0
M  V30 6107 H 558.088 -3.36413 3.53097 0
M  V30 6108 H 557.093 -1.77746 5.20275 0
M  V30 6109 H 558.318 -2.26603 6.40178 0
M  V30 6110 H 556.264 -4.1055 5.11649 0
M  V30 6111 H 556.181 -3.45887 6.72234 0
M  V30 6112 H 557.449 -4.57477 6.31138 0
M  V30 6113 N 561.678 -1.56367 -0.196722 0
M  V30 6114 C 562.955 -1.71359 -0.943159 0
M  V30 6115 C 563.335 -0.631192 -2.01443 0
M  V30 6116 O 562.683 0.358071 -2.25677 0
M  V30 6117 C 562.893 -3.13623 -1.53106 0
M  V30 6118 C 564.241 -3.73806 -2.01381 0
M  V30 6119 O 565.265 -3.16742 -1.62951 0
M  V30 6120 O 564.124 -4.73951 -2.7209 0
M  V30 6121 H 561.218 -0.698851 -0.442195 0
M  V30 6122 H 563.764 -1.68672 -0.186547 0
M  V30 6123 H 562.536 -3.83873 -0.758785 0
M  V30 6124 H 562.159 -3.20532 -2.35255 0
M  V30 6125 N 563.156 0.464375 -1.50603 0
M  V30 6126 C 564.567 1.04507 -1.5471 0
M  V30 6127 C 564.918 1.9297 -0.354542 0
M  V30 6128 O 564.043 2.09763 0.531812 0
M  V30 6129 C 564.638 1.90207 -2.80369 0
M  V30 6130 C 563.197 2.43373 -2.87135 0
M  V30 6131 C 562.344 1.21886 -2.49076 0
M  V30 6132 H 565.295 0.246716 -1.56771 0
M  V30 6133 H 565.316 2.75353 -2.62604 0
M  V30 6134 H 564.828 1.25796 -3.67147 0
M  V30 6135 H 562.929 3.11318 -2.04724 0
M  V30 6136 H 563.042 2.7802 -3.90181 0
M  V30 6137 H 561.406 1.55575 -2.01664 0
M  V30 6138 H 562.189 0.591268 -3.3817 0
M  V30 6139 N 564.634 1.40294 0.718013 0
M  V30 6140 C 565.88 1.38645 1.48005 0
M  V30 6141 C 566.213 -0.0121202 1.94196 0
M  V30 6142 O 565.488 -0.980309 1.67989 0
M  V30 6143 C 565.771 2.37379 2.70782 0
M  V30 6144 C 565.624 3.8625 2.30501 0
M  V30 6145 C 566.943 2.33685 3.72933 0
M  V30 6146 H 564.062 0.504928 0.536858 0
M  V30 6147 H 566.704 1.71411 0.819649 0
M  V30 6148 H 564.854 2.09568 3.27129 0
M  V30 6149 H 566.526 4.24879 1.79655 0
M  V30 6150 H 564.769 4.02202 1.6253 0
M  V30 6151 H 565.44 4.50847 3.18498 0
M  V30 6152 H 567.916 2.58314 3.2621 0
M  V30 6153 H 566.792 3.0482 4.56482 0
M  V30 6154 H 567.053 1.34765 4.21059 0
M  V30 6155 N 566.112 -0.949982 1.2575 0
M  V30 6156 C 567.042 -2.06483 1.09028 0
M  V30 6157 C 568.023 -1.701 -0.00201532 0
M  V30 6158 O 569.208 -1.93469 0.168383 0
M  V30 6159 C 566.338 -3.39899 0.71316 0
M  V30 6160 C 565.292 -3.90309 1.75621 0
M  V30 6161 C 564.618 -5.20274 1.23365 0
M  V30 6162 C 565.918 -4.16169 3.15596 0
M  V30 6163 H 567.612 -2.20731 2.02283 0
M  V30 6164 H 565.158 -1.06066 0.973964 0
M  V30 6165 H 567.111 -4.17346 0.58309 0
M  V30 6166 H 565.835 -3.25602 -0.255091 0
M  V30 6167 H 564.494 -3.15035 1.8748 0
M  V30 6168 H 564.142 -5.02351 0.255491 0
M  V30 6169 H 563.842 -5.54971 1.93082 0
M  V30 6170 H 565.366 -6.00314 1.11607 0
M  V30 6171 H 566.78 -4.84259 3.06864 0
M  V30 6172 H 565.177 -4.62131 3.82825 0
M  V30 6173 H 566.247 -3.22273 3.6231 0
M  V30 6174 N 567.59 -1.07411 -1.15328 0
M  V30 6175 C 568.815 -0.818856 -1.90551 0
M  V30 6176 C 569.24 0.622194 -1.77512 0
M  V30 6177 O 568.598 1.43484 -1.10824 0
M  V30 6178 C 568.646 -1.23267 -3.38877 0
M  V30 6179 O 567.75 -0.378345 -4.10661 0
M  V30 6180 H 567.091 -0.29827 -0.593238 0
M  V30 6181 H 569.621 -1.43289 -1.46046 0
M  V30 6182 H 569.631 -1.20912 -3.89672 0
M  V30 6183 H 568.306 -2.28226 -3.47686 0
M  V30 6184 H 566.883 -0.464437 -3.69996 0
M  V30 6185 N 569.068 1.32177 -0.85831 0
M  V30 6186 C 570.296 2.01313 -0.477582 0
M  V30 6187 C 570.711 1.6449 0.926736 0
M  V30 6188 O 570.068 0.868096 1.60531 0
M  V30 6189 C 570.119 3.56293 -0.611337 0
M  V30 6190 O 569.84 3.91794 -1.96034 0
M  V30 6191 C 571.341 4.42702 -0.230093 0
M  V30 6192 H 568.561 0.644323 -0.187322 0
M  V30 6193 H 571.105 1.68674 -1.15626 0
M  V30 6194 H 569.26 3.87395 0.0196494 0
M  V30 6195 H 569.674 4.86513 -1.95973 0
M  V30 6196 H 571.148 5.50727 -0.374674 0
M  V30 6197 H 571.625 4.3129 0.829779 0
M  V30 6198 H 572.231 4.16997 -0.836302 0
M  V30 6199 N 570.547 0.616602 1.45037 0
M  V30 6200 C 571.796 0.112861 2.01384 0
M  V30 6201 C 572.109 -1.26758 1.48969 0
M  V30 6202 O 573.315 -1.86454 1.9735 0
M  V30 6203 C 571.771 0.151057 3.59583 0
M  V30 6204 C 571.379 1.53191 4.20995 0
M  V30 6205 C 573.123 -0.296974 4.2346 0
M  V30 6206 C 571.03 1.526 5.71373 0
M  V30 6207 H 569.96 0.0384254 0.75302 0
M  V30 6208 H 572.611 0.773262 1.66412 0
M  V30 6209 H 570.993 -0.57617 3.91786 0
M  V30 6210 H 572.167 2.28156 4.00352 0
M  V30 6211 H 570.482 1.92279 3.69348 0
M  V30 6212 H 573.079 -0.320712 5.33737 0
M  V30 6213 H 573.422 -1.32145 3.9477 0
M  V30 6214 H 573.955 0.377279 3.96007 0
M  V30 6215 H 570.694 2.52837 6.04776 0
M  V30 6216 H 570.214 0.819064 5.94181 0
M  V30 6217 H 571.893 1.25357 6.3474 0
M  V30 6218 N 572.025 -1.5352 0.356285 0
M  V30 6219 C 573.25 -2.06007 -0.239961 0
M  V30 6220 C 573.675 -1.22872 -1.42422 0
M  V30 6221 O 573.033 -0.245516 -1.7963 0
M  V30 6222 C 573.081 -3.5522 -0.620587 0
M  V30 6223 O 572.185 -3.74864 -1.71902 0
M  V30 6224 H 571.526 -0.662961 -0.0371377 0
M  V30 6225 H 574.056 -1.98033 0.514194 0
M  V30 6226 H 574.066 -3.98081 -0.894197 0
M  V30 6227 H 572.741 -4.15175 0.245407 0
M  V30 6228 H 571.318 -3.43904 -1.44169 0
M  V30 6229 N 573.503 -0.0852151 -1.57369 0
M  V30 6230 C 574.45 0.877268 -2.13478 0
M  V30 6231 C 575.42 1.28642 -1.05073 0
M  V30 6232 O 576.605 1.36992 -1.32808 0
M  V30 6233 C 573.745 2.13464 -2.71159 0
M  V30 6234 C 572.858 1.77691 -3.93764 0
M  V30 6235 C 571.993 2.98139 -4.39643 0
M  V30 6236 C 571.032 2.58447 -5.54862 0
M  V30 6237 N 570.169 3.71698 -5.95639 0
M  V30 6238 H 575.009 0.391933 -2.95411 0
M  V30 6239 H 572.546 0.181796 -1.45972 0
M  V30 6240 H 574.504 2.87086 -3.02717 0
M  V30 6241 H 573.134 2.59514 -1.91969 0
M  V30 6242 H 572.186 0.940768 -3.68583 0
M  V30 6243 H 573.498 1.44497 -4.77412 0
M  V30 6244 H 572.652 3.80026 -4.72933 0
M  V30 6245 H 571.391 3.34536 -3.54876 0
M  V30 6246 H 570.396 1.74984 -5.21211 0
M  V30 6247 H 571.621 2.23205 -6.41371 0
M  V30 6248 H 569.567 4.07831 -5.13819 0
M  V30 6249 H 569.484 3.42317 -6.74059 0
M  V30 6250 H 570.752 4.54123 -6.33555 0
M  V30 6251 N 574.981 1.5647 0.188427 0
M  V30 6252 C 576.206 1.85486 0.927891 0
M  V30 6253 C 576.631 0.669575 1.75779 0
M  V30 6254 O 575.989 -0.381573 1.77239 0
M  V30 6255 C 576.037 3.12784 1.7944 0
M  V30 6256 O 575.141 2.93805 2.894 0
M  V30 6257 H 574.482 0.610585 0.260925 0
M  V30 6258 H 577.012 2.037 0.191729 0
M  V30 6259 H 577.022 3.43749 2.19774 0
M  V30 6260 H 575.697 3.98671 1.18468 0
M  V30 6261 H 574.274 2.74153 2.52774 0
M  V30 6262 N 576.459 -0.456382 1.50847 0
M  V30 6263 C 577.422 -1.53493 1.70213 0
M  V30 6264 C 578.422 -1.50264 0.572481 0
M  V30 6265 O 579.612 -1.52623 0.839751 0
M  V30 6266 C 576.744 -2.93091 1.741 0
M  V30 6267 H 577.937 -1.37633 2.66453 0
M  V30 6268 H 575.49 -0.683776 1.4055 0
M  V30 6269 H 576.225 -3.14378 0.796063 0
M  V30 6270 H 576.01 -2.9684 2.5618 0
M  V30 6271 H 577.5 -3.71368 1.90987 0
M  V30 6272 N 577.937 -1.40673 -0.710563 0
M  V30 6273 C 579.165 -1.42547 -1.4996 0
M  V30 6274 C 579.58 -0.0265485 -1.88781 0
M  V30 6275 O 578.937 0.950694 -1.55782 0
M  V30 6276 C 578.988 -2.32071 -2.77173 0
M  V30 6277 O 578.709 -3.66518 -2.39992 0
M  V30 6278 C 580.21 -2.42591 -3.71032 0
M  V30 6279 H 577.43 -0.486025 -0.462623 0
M  V30 6280 H 579.974 -1.84783 -0.876102 0
M  V30 6281 H 578.129 -1.93184 -3.35795 0
M  V30 6282 H 578.543 -4.14115 -3.21884 0
M  V30 6283 H 580.017 -3.09429 -4.57119 0
M  V30 6284 H 580.494 -1.4525 -4.14486 0
M  V30 6285 H 581.1 -2.82051 -3.18319 0
M  V30 6286 N 579.415 0.9433 -1.26252 0
M  V30 6287 C 580.643 1.72367 -1.14443 0
M  V30 6288 C 581.058 1.86392 0.300572 0
M  V30 6289 O 580.415 1.36978 1.20596 0
M  V30 6290 C 580.466 3.13155 -1.806 0
M  V30 6291 O 580.187 2.99803 -3.19452 0
M  V30 6292 C 581.688 4.07417 -1.74717 0
M  V30 6293 H 578.908 0.539758 -0.398626 0
M  V30 6294 H 581.452 1.18268 -1.66832 0
M  V30 6295 H 579.607 3.64162 -1.32154 0
M  V30 6296 H 580.021 3.88697 -3.52158 0
M  V30 6297 H 581.495 5.03773 -2.25647 0
M  V30 6298 H 581.972 4.3337 -0.713244 0
M  V30 6299 H 582.578 3.6233 -2.22704 0
M  V30 6300 N 580.893 1.08022 1.14757 0
M  V30 6301 C 582.304 0.829144 1.67279 0
M  V30 6302 C 582.655 -0.644721 1.85305 0
M  V30 6303 O 581.78 -1.49838 1.56133 0
M  V30 6304 C 582.375 1.49855 3.03857 0
M  V30 6305 C 580.934 1.29482 3.53428 0
M  V30 6306 C 580.081 1.56386 2.28995 0
M  V30 6307 H 583.032 1.24134 0.988762 0
M  V30 6308 H 583.053 0.923572 3.69121 0
M  V30 6309 H 582.565 2.57123 2.90705 0
M  V30 6310 H 580.666 0.242669 3.71809 0
M  V30 6311 H 580.779 2.01974 4.34446 0
M  V30 6312 H 579.143 0.985217 2.34874 0
M  V30 6313 H 579.926 2.64851 2.18423 0
M  V30 6314 N 582.371 -1.3172 0.865308 0
M  V30 6315 C 583.281 -2.32394 0.320935 0
M  V30 6316 C 584.297 -1.64511 -0.566746 0
M  V30 6317 O 585.473 -1.95969 -0.464575 0
M  V30 6318 C 582.538 -3.43462 -0.472701 0
M  V30 6319 C 581.599 -4.27015 0.442385 0
M  V30 6320 C 580.832 -5.32779 -0.313469 0
M  V30 6321 O 581.055 -5.49158 -1.54214 0
M  V30 6322 O 579.989 -6.01015 0.326257 0
M  V30 6323 H 583.815 -2.80868 1.15528 0
M  V30 6324 H 581.4 -1.35535 0.628545 0
M  V30 6325 H 583.282 -4.11172 -0.922781 0
M  V30 6326 H 581.957 -2.97159 -1.28367 0
M  V30 6327 H 580.864 -3.62075 0.940866 0
M  V30 6328 H 582.197 -4.76871 1.21882 0
M  V30 6329 N 583.85 -0.624285 -1.44708 0
M  V30 6330 C 585.26 -0.2092 -1.85524 0
M  V30 6331 C 585.611 1.23783 -1.52225 0
M  V30 6332 O 584.736 1.94089 -0.956986 0
M  V30 6333 C 585.332 -0.372897 -3.36742 0
M  V30 6334 C 583.891 -0.012374 -3.76398 0
M  V30 6335 C 583.038 -0.68951 -2.68591 0
M  V30 6336 H 585.989 -0.829894 -1.35272 0
M  V30 6337 H 586.01 0.390134 -3.78495 0
M  V30 6338 H 585.522 -1.42615 -3.60947 0
M  V30 6339 H 583.623 1.03941 -3.57809 0
M  V30 6340 H 583.736 -0.417663 -4.77276 0
M  V30 6341 H 582.1 -0.125484 -2.54391 0
M  V30 6342 H 582.883 -1.74522 -2.9563 0
M  V30 6343 N 585.328 1.53329 -0.364422 0
M  V30 6344 C 586.276 2.27212 0.497737 0
M  V30 6345 C 587.27 1.30146 1.08437 0
M  V30 6346 O 588.476 1.47778 1.0277 0
M  V30 6347 H 584.851 0.730329 0.179232 0
M  V30 6348 H 586.822 2.98037 -0.147182 0
M  V30 6349 C 585.571 3.07333 1.6261 0
M  V30 6350 H 584.894 3.81866 1.184 0
M  V30 6351 H 586.334 3.62209 2.20409 0
M  V30 6352 C 584.793 2.18102 2.56775 0
M  V30 6353 O 585.323 1.79104 3.59562 0
M  V30 6354 N 583.529 1.82759 2.25937 0
M  V30 6355 H 583.076 2.14671 1.42387 0
M  V30 6356 H 583.034 1.23342 2.89196 0
M  V30 6357 N 586.806 0.0935595 1.57322 0
M  V30 6358 C 587.753 -0.865935 2.1394 0
M  V30 6359 C 588.723 -1.28083 1.05754 0
M  V30 6360 O 589.908 -1.36285 1.33533 0
M  V30 6361 C 587.048 -2.12023 2.72287 0
M  V30 6362 C 586.161 -1.756 3.94701 0
M  V30 6363 C 585.296 -2.95804 4.41218 0
M  V30 6364 C 584.335 -2.555 5.56225 0
M  V30 6365 N 583.472 -3.68534 5.97601 0
M  V30 6366 H 588.312 -0.376261 2.95615 0
M  V30 6367 H 585.849 -0.174052 1.46067 0
M  V30 6368 H 587.807 -2.85477 3.04235 0
M  V30 6369 H 586.437 -2.58492 1.93343 0
M  V30 6370 H 585.489 -0.921208 3.69077 0
M  V30 6371 H 586.801 -1.41964 4.78171 0
M  V30 6372 H 585.955 -3.77513 4.74941 0
M  V30 6373 H 584.694 -3.32649 3.56645 0
M  V30 6374 H 583.699 -1.72218 5.22131 0
M  V30 6375 H 584.924 -2.19801 6.42545 0
M  V30 6376 H 582.87 -4.051 5.15974 0
M  V30 6377 H 582.787 -3.38737 6.75865 0
M  V30 6378 H 584.055 -4.50757 6.35955 0
M  V30 6379 N 588.284 -1.56567 -0.180126 0
M  V30 6380 C 589.231 -1.95725 -1.22313 0
M  V30 6381 C 590.201 -0.819911 -1.44453 0
M  V30 6382 O 591.386 -1.07931 -1.57339 0
M  V30 6383 C 588.526 -2.31484 -2.55947 0
M  V30 6384 C 587.639 -3.58354 -2.4126 0
M  V30 6385 C 586.774 -3.83366 -3.67701 0
M  V30 6386 C 585.813 -5.03612 -3.47909 0
M  V30 6387 N 584.95 -5.24802 -4.66398 0
M  V30 6388 H 589.79 -2.84642 -0.882198 0
M  V30 6389 H 587.327 -1.4085 -0.42422 0
M  V30 6390 H 589.285 -2.50237 -3.33822 0
M  V30 6391 H 587.915 -1.45689 -2.88053 0
M  V30 6392 H 586.967 -3.47565 -1.54606 0
M  V30 6393 H 588.279 -4.46386 -2.22577 0
M  V30 6394 H 587.433 -4.02439 -4.54013 0
M  V30 6395 H 586.172 -2.93692 -3.89353 0
M  V30 6396 H 585.177 -4.84447 -2.59983 0
M  V30 6397 H 586.402 -5.94809 -3.27688 0
M  V30 6398 H 584.348 -4.38079 -4.88286 0
M  V30 6399 H 584.265 -6.07041 -4.50596 0
M  V30 6400 H 585.533 -5.48346 -5.54019 0
M  V30 6401 N 589.762 0.448376 -1.51087 0
M  V30 6402 C 591.173 1.0286 -1.5581 0
M  V30 6403 C 591.524 1.92583 -0.374989 0
M  V30 6404 O 590.649 2.10316 0.509533 0
M  V30 6405 C 591.244 1.87223 -2.8237 0
M  V30 6406 C 589.803 2.40314 -2.897 0
M  V30 6407 C 588.95 1.19238 -2.50355 0
M  V30 6408 H 591.901 0.230075 -1.57023 0
M  V30 6409 H 591.922 2.72553 -2.6551 0
M  V30 6410 H 591.434 1.21894 -3.68461 0
M  V30 6411 H 589.535 3.09129 -2.08014 0
M  V30 6412 H 589.648 2.73866 -3.93108 0
M  V30 6413 H 588.012 1.53428 -2.03303 0
M  V30 6414 H 588.795 0.555367 -3.38778 0
M  V30 6415 N 591.24 1.41047 0.703093 0
M  V30 6416 C 592.15 1.44645 1.84703 0
M  V30 6417 C 593.166 0.337778 1.7069 0
M  V30 6418 O 594.342 0.584327 1.92737 0
M  V30 6419 C 591.407 1.31928 3.20618 0
M  V30 6420 C 590.468 2.53047 3.46794 0
M  V30 6421 C 589.701 2.40927 4.76224 0
M  V30 6422 O 589.924 1.42978 5.5219 0
M  V30 6423 O 588.858 3.30543 5.03016 0
M  V30 6424 H 592.684 2.41139 1.84624 0
M  V30 6425 H 590.269 1.22504 0.855167 0
M  V30 6426 H 592.151 1.27092 4.01778 0
M  V30 6427 H 590.826 0.385469 3.21397 0
M  V30 6428 H 589.733 2.6346 2.65593 0
M  V30 6429 H 591.066 3.45231 3.50822 0
M  V30 6430 N 592.718 -0.936591 1.26751 0
M  V30 6431 C 593.666 -2.0573 1.08527 0
M  V30 6432 C 594.66 -1.69397 0.0108784 0
M  V30 6433 O 595.866 -1.79215 0.167915 0
M  V30 6434 H 592.241 -0.673691 0.334133 0
M  V30 6435 H 594.212 -2.1825 2.03493 0
M  V30 6436 C 592.961 -3.39738 0.739845 0
M  V30 6437 H 592.284 -3.68174 1.55845 0
M  V30 6438 H 593.724 -4.18955 0.652149 0
M  V30 6439 C 592.183 -3.32292 -0.555288 0
M  V30 6440 O 592.713 -3.68794 -1.59229 0
M  V30 6441 N 590.919 -2.85394 -0.54762 0
M  V30 6442 H 590.466 -2.55886 0.296667 0
M  V30 6443 H 590.424 -2.80795 -1.41427 0
M  V30 6444 N 594.196 -1.08629 -1.14182 0
M  V30 6445 C 595.143 -0.718299 -2.19338 0
M  V30 6446 C 596.113 0.296587 -1.63431 0
M  V30 6447 O 597.298 0.180079 -1.89948 0
M  V30 6448 C 594.438 -0.136203 -3.44831 0
M  V30 6449 C 593.551 -1.20414 -4.14879 0
M  V30 6450 C 592.686 -0.585666 -5.27962 0
M  V30 6451 C 591.725 -1.63548 -5.89846 0
M  V30 6452 N 590.862 -1.03864 -6.94375 0
M  V30 6453 H 595.702 -1.61932 -2.50164 0
M  V30 6454 H 593.239 -0.80919 -1.22844 0
M  V30 6455 H 595.197 0.219021 -4.16625 0
M  V30 6456 H 593.827 0.728121 -3.14481 0
M  V30 6457 H 592.879 -1.67676 -3.41451 0
M  V30 6458 H 594.191 -1.99959 -4.56966 0
M  V30 6459 H 593.345 -0.178818 -6.06436 0
M  V30 6460 H 592.084 0.24142 -4.87102 0
M  V30 6461 H 591.089 -2.05197 -5.10073 0
M  V30 6462 H 592.314 -2.46509 -6.3278 0
M  V30 6463 H 590.26 -0.232687 -6.55587 0
M  V30 6464 H 590.177 -1.77116 -7.3496 0
M  V30 6465 H 591.445 -0.657724 -7.7672 0
M  V30 6466 N 595.674 1.31259 -0.872281 0
M  V30 6467 C 597.085 1.78822 -0.536617 0
M  V30 6468 C 597.436 1.71855 0.946594 0
M  V30 6469 O 596.561 1.28769 1.73918 0
M  V30 6470 C 597.156 3.24698 -0.967294 0
M  V30 6471 C 595.715 3.70147 -0.683251 0
M  V30 6472 C 594.862 2.51994 -1.15733 0
M  V30 6473 H 597.813 1.18308 -1.05777 0
M  V30 6474 H 597.834 3.79386 -0.290929 0
M  V30 6475 H 597.346 3.29737 -2.04683 0
M  V30 6476 H 595.447 3.70607 0.384825 0
M  V30 6477 H 595.56 4.62183 -1.2619 0
M  V30 6478 H 593.924 2.48078 -0.577024 0
M  V30 6479 H 594.707 2.59778 -2.24434 0
M  V30 6480 N 597.152 0.631951 1.44375 0
M  V30 6481 C 598.115 -0.0628142 2.29114 0
M  V30 6482 C 599.115 -0.771494 1.41084 0
M  V30 6483 O 600.305 -0.615959 1.62947 0
M  V30 6484 C 597.437 -1.09953 3.22681 0
M  V30 6485 H 598.63 0.682509 2.92031 0
M  V30 6486 H 596.183 0.392128 1.51301 0
M  V30 6487 H 596.918 -1.87481 2.64616 0
M  V30 6488 H 596.703 -0.595286 3.87555 0
M  V30 6489 H 598.193 -1.58538 3.86336 0
M  V30 6490 N 598.631 -1.53133 0.372548 0
M  V30 6491 C 599.541 -2.29671 -0.478379 0
M  V30 6492 C 600.557 -1.35913 -1.08644 0
M  V30 6493 O 601.733 -1.68975 -1.09588 0
M  V30 6494 C 598.798 -3.07625 -1.599 0
M  V30 6495 C 597.859 -4.17061 -1.01776 0
M  V30 6496 C 597.092 -4.91289 -2.08497 0
M  V30 6497 O 597.315 -4.65442 -3.29727 0
M  V30 6498 O 596.249 -5.7705 -1.71164 0
M  V30 6499 H 600.075 -3.03355 0.144649 0
M  V30 6500 H 597.66 -1.48773 0.136729 0
M  V30 6501 H 599.542 -3.56281 -2.25038 0
M  V30 6502 H 598.217 -2.3677 -2.2073 0
M  V30 6503 H 597.124 -3.72641 -0.330098 0
M  V30 6504 H 598.457 -4.90102 -0.453915 0
M  V30 6505 N 600.109 -0.101901 -1.5727 0
M  V30 6506 C 601.072 0.840129 -2.13247 0
M  V30 6507 C 602.072 1.20625 -1.06331 0
M  V30 6508 O 603.262 1.13456 -1.32186 0
M  V30 6509 C 600.394 2.13372 -2.65867 0
M  V30 6510 H 601.587 0.353945 -2.97804 0
M  V30 6511 H 599.14 0.147167 -1.55606 0
M  V30 6512 H 599.875 2.66461 -1.84849 0
M  V30 6513 H 599.66 1.88085 -3.44044 0
M  V30 6514 H 601.15 2.80748 -3.09145 0
M  V30 6515 N 601.587 1.56661 0.17182 0
M  V30 6516 C 602.534 1.96371 1.21273 0
M  V30 6517 C 603.504 0.82756 1.44016 0
M  V30 6518 O 604.689 1.08764 1.56764 0
M  V30 6519 C 601.829 2.32838 2.54716 0
M  V30 6520 C 600.942 3.59628 2.39356 0
M  V30 6521 C 600.077 3.85311 3.65662 0
M  V30 6522 C 599.116 5.0545 3.45234 0
M  V30 6523 N 598.253 5.27268 4.63608 0
M  V30 6524 H 603.093 2.85106 0.86709 0
M  V30 6525 H 600.63 1.41073 0.416744 0
M  V30 6526 H 602.588 2.52004 3.3249 0
M  V30 6527 H 601.218 1.47214 2.87277 0
M  V30 6528 H 600.27 3.4838 1.52761 0
M  V30 6529 H 601.582 4.4756 2.20207 0
M  V30 6530 H 600.736 4.04841 4.51872 0
M  V30 6531 H 599.475 2.95753 3.8779 0
M  V30 6532 H 598.48 4.85819 2.5741 0
M  V30 6533 H 599.705 5.96538 3.24529 0
M  V30 6534 H 597.651 4.40662 4.85956 0
M  V30 6535 H 597.568 6.09422 4.4737 0
M  V30 6536 H 598.836 5.51277 5.51103 0
M  V30 6537 N 603.065 -0.440357 1.51323 0
M  V30 6538 C 604.012 -1.53429 1.72419 0
M  V30 6539 C 604.982 -1.56165 0.565826 0
M  V30 6540 O 606.167 -1.73222 0.799917 0
M  V30 6541 C 603.307 -2.91169 1.85242 0
M  V30 6542 C 602.42 -2.97985 3.12777 0
M  V30 6543 C 601.555 -4.26829 3.16212 0
M  V30 6544 C 600.594 -4.27501 4.38074 0
M  V30 6545 N 599.731 -5.47866 4.39076 0
M  V30 6546 H 604.571 -1.34743 2.65797 0
M  V30 6547 H 602.108 -0.654608 1.31732 0
M  V30 6548 H 604.066 -3.71087 1.90658 0
M  V30 6549 H 602.696 -3.0842 0.952744 0
M  V30 6550 H 601.748 -2.10749 3.16685 0
M  V30 6551 H 603.06 -2.94342 4.02696 0
M  V30 6552 H 602.214 -5.15118 3.20527 0
M  V30 6553 H 600.953 -4.33124 2.24176 0
M  V30 6554 H 599.958 -3.37606 4.33938 0
M  V30 6555 H 601.183 -4.22873 5.31371 0
M  V30 6556 H 599.129 -5.54887 3.49909 0
M  V30 6557 H 599.046 -5.46091 5.22801 0
M  V30 6558 H 600.314 -6.38195 4.4758 0
M  V30 6559 N 604.543 -1.41418 -0.695603 0
M  V30 6560 C 605.771 -1.4413 -1.48439 0
M  V30 6561 C 606.186 -0.0465698 -1.88743 0
M  V30 6562 O 605.543 0.934117 -1.56782 0
M  V30 6563 C 605.594 -2.34998 -2.74696 0
M  V30 6564 O 605.315 -3.69043 -2.36091 0
M  V30 6565 C 606.816 -2.46513 -3.68438 0
M  V30 6566 H 604.036 -0.490905 -0.457442 0
M  V30 6567 H 606.58 -1.85702 -0.856454 0
M  V30 6568 H 604.735 -1.96735 -3.33728 0
M  V30 6569 H 605.149 -4.17505 -3.17474 0
M  V30 6570 H 606.623 -3.1426 -4.53811 0
M  V30 6571 H 607.1 -1.49638 -4.12922 0
M  V30 6572 H 607.706 -2.85412 -3.1531 0
M  V30 6573 N 606.021 0.929856 -1.27246 0
M  V30 6574 C 607.268 1.67731 -1.13457 0
M  V30 6575 C 607.596 1.9185 0.319998 0
M  V30 6576 O 606.851 1.50524 1.25064 0
M  V30 6577 C 607.15 3.05116 -1.86115 0
M  V30 6578 C 606.816 3.00715 -3.35978 0
M  V30 6579 C 605.478 2.99222 -3.76855 0
M  V30 6580 C 607.83 2.92168 -4.3161 0
M  V30 6581 C 605.158 2.86962 -5.11732 0
M  V30 6582 C 607.51 2.81449 -5.66542 0
M  V30 6583 C 606.174 2.78305 -6.06715 0
M  V30 6584 H 605.444 0.613772 -0.415168 0
M  V30 6585 H 608.091 1.08456 -1.57827 0
M  V30 6586 H 606.396 3.68083 -1.34246 0
M  V30 6587 H 608.093 3.61822 -1.72876 0
M  V30 6588 H 604.683 3.02664 -3.03468 0
M  V30 6589 H 608.867 2.92421 -4.01003 0
M  V30 6590 H 604.123 2.82913 -5.42006 0
M  V30 6591 H 608.297 2.738 -6.40317 0
M  V30 6592 H 605.924 2.68561 -7.11181 0
M  V30 6593 N 607.499 1.09233 1.13605 0
M  V30 6594 C 608.447 0.724572 2.21027 0
M  V30 6595 C 609.441 -0.273595 1.67176 0
M  V30 6596 O 610.647 -0.135266 1.79491 0
M  V30 6597 H 607.022 0.216319 0.720215 0
M  V30 6598 H 608.993 1.63975 2.49309 0
M  V30 6599 C 607.742 0.159126 3.47336 0
M  V30 6600 H 607.065 0.918387 3.89109 0
M  V30 6601 H 608.505 -0.0602851 4.23957 0
M  V30 6602 C 606.964 -1.10514 3.18258 0
M  V30 6603 O 607.494 -2.18869 3.36837 0
M  V30 6604 N 605.7 -1.01886 2.72154 0
M  V30 6605 H 605.247 -0.137027 2.57235 0
M  V30 6606 H 605.205 -1.8655 2.53074 0
M  V30 6607 N 608.977 -1.30795 0.87923 0
M  V30 6608 C 610.202 -2.01063 0.508769 0
M  V30 6609 C 610.627 -1.65508 -0.893803 0
M  V30 6610 O 609.985 -0.868616 -1.59138 0
M  V30 6611 C 610.033 -3.54054 0.683991 0
M  V30 6612 O 609.137 -4.11498 -0.272654 0
M  V30 6613 H 608.478 -0.632786 0.201191 0
M  V30 6614 H 611.008 -1.66776 1.18519 0
M  V30 6615 H 611.018 -4.03845 0.580798 0
M  V30 6616 H 609.693 -3.79271 1.70665 0
M  V30 6617 H 608.27 -3.72695 -0.12364 0
M  V30 6618 N 610.455 -0.639598 -1.44038 0
M  V30 6619 C 611.701 -0.147698 -2.02261 0
M  V30 6620 C 612.034 1.23031 -1.50256 0
M  V30 6621 O 611.309 1.81847 -0.690068 0
M  V30 6622 C 611.592 -0.14362 -3.59813 0
M  V30 6623 C 611.445 -1.55458 -4.22082 0
M  V30 6624 C 612.764 0.527317 -4.36929 0
M  V30 6625 H 609.883 -0.0551453 -0.734934 0
M  V30 6626 H 612.525 -0.817688 -1.71505 0
M  V30 6627 H 610.675 0.426898 -3.86147 0
M  V30 6628 H 612.347 -2.17464 -4.06826 0
M  V30 6629 H 610.59 -2.10594 -3.79253 0
M  V30 6630 H 611.261 -1.50369 -5.31124 0
M  V30 6631 H 613.737 0.0420504 -4.16079 0
M  V30 6632 H 612.613 0.499389 -5.46624 0
M  V30 6633 H 612.874 1.59914 -4.12165 0
M  V30 6634 N 611.933 1.52934 -0.380664 0
M  V30 6635 C 613.158 2.06363 0.207157 0
M  V30 6636 C 613.583 1.25122 1.4045 0
M  V30 6637 O 612.941 0.274062 1.79217 0
M  V30 6638 C 612.989 3.56162 0.563996 0
M  V30 6639 O 612.093 3.77552 1.65917 0
M  V30 6640 H 611.434 0.663468 0.0265859 0
M  V30 6641 H 613.964 1.9719 -0.545635 0
M  V30 6642 H 613.974 3.99453 0.830752 0
M  V30 6643 H 612.649 4.14732 -0.311427 0
M  V30 6644 H 611.226 3.46154 1.3868 0
M  V30 6645 N 613.412 0.11024 1.57214 0
M  V30 6646 C 614.359 -0.843195 2.14846 0
M  V30 6647 C 615.329 -1.26954 1.07107 0
M  V30 6648 O 616.514 -1.34861 1.34971 0
M  V30 6649 C 613.654 -2.09123 2.74521 0
M  V30 6650 C 612.767 -1.71404 3.96541 0
M  V30 6651 C 611.902 -2.91107 4.44331 0
M  V30 6652 C 610.941 -2.49586 5.58903 0
M  V30 6653 N 610.078 -3.62175 6.01477 0
M  V30 6654 H 614.918 -0.344886 2.95998 0
M  V30 6655 H 612.455 -0.15855 1.46243 0
M  V30 6656 H 614.413 -2.82234 3.07246 0
M  V30 6657 H 613.043 -2.56427 1.96074 0
M  V30 6658 H 612.095 -0.88201 3.70033 0
M  V30 6659 H 613.407 -1.36884 4.7965 0
M  V30 6660 H 612.561 -3.72454 4.78919 0
M  V30 6661 H 611.3 -3.28848 3.60153 0
M  V30 6662 H 610.305 -1.6667 5.23929 0
M  V30 6663 H 611.53 -2.12973 6.4484 0
M  V30 6664 H 609.476 -3.99605 5.20242 0
M  V30 6665 H 609.393 -3.3155 6.79419 0
M  V30 6666 H 610.661 -4.43987 6.407 0
M  V30 6667 N 614.89 -1.56749 -0.16351 0
M  V30 6668 C 616.139 -1.81626 -0.877211 0
M  V30 6669 C 616.452 -0.688791 -1.83071 0
M  V30 6670 O 617.658 -0.822697 -2.58735 0
M  V30 6671 C 616.114 -3.21858 -1.61045 0
M  V30 6672 C 615.722 -4.42494 -0.700195 0
M  V30 6673 C 617.466 -3.56021 -2.31192 0
M  V30 6674 C 615.373 -5.73748 -1.43412 0
M  V30 6675 H 614.303 -0.67731 -0.331312 0
M  V30 6676 H 616.954 -1.83039 -0.13006 0
M  V30 6677 H 615.336 -3.14784 -2.40264 0
M  V30 6678 H 616.51 -4.60766 0.0555849 0
M  V30 6679 H 614.825 -4.1626 -0.10799 0
M  V30 6680 H 617.422 -4.51333 -2.8671 0
M  V30 6681 H 617.765 -2.81277 -3.06902 0
M  V30 6682 H 618.298 -3.64682 -1.58909 0
M  V30 6683 H 615.037 -6.51543 -0.719186 0
M  V30 6684 H 614.557 -5.5944 -2.16302 0
M  V30 6685 H 616.236 -6.15975 -1.9795 0
M  V30 6686 N 616.368 0.432326 -1.51554 0
M  V30 6687 C 617.645 1.19288 -1.55015 0
M  V30 6688 C 618.025 2.08701 -0.317375 0
M  V30 6689 O 617.373 2.17602 0.697243 0
M  V30 6690 C 617.583 1.99037 -2.86679 0
M  V30 6691 C 618.931 2.55907 -3.38817 0
M  V30 6692 O 619.955 2.09243 -2.88263 0
M  V30 6693 O 618.814 3.41029 -4.27038 0
M  V30 6694 H 615.908 0.543369 -0.623441 0
M  V30 6695 H 618.454 0.440988 -1.6387 0
M  V30 6696 H 617.226 1.33397 -3.6786 0
M  V30 6697 H 616.849 2.81281 -2.8101 0
M  V30 6698 N 617.846 1.41785 0.688094 0
M  V30 6699 C 619.262 1.24419 0.999608 0
M  V30 6700 C 619.462 0.138868 2.01021 0
M  V30 6701 O 618.518 -0.494283 2.47615 0
M  V30 6702 C 619.831 2.59625 1.51709 0
M  V30 6703 C 621.379 2.66869 1.63554 0
M  V30 6704 C 621.854 4.0241 2.18702 0
M  V30 6705 N 623.345 4.04295 2.26053 0
M  V30 6706 C 624.08 5.05977 2.69768 0
M  V30 6707 N 623.576 6.18047 3.13033 0
M  V30 6708 N 625.369 4.93336 2.69398 0
M  V30 6709 H 617.52 2.12392 0.0187427 0
M  V30 6710 H 619.783 0.945347 0.0708673 0
M  V30 6711 H 619.489 3.41297 0.849059 0
M  V30 6712 H 619.363 2.82628 2.49803 0
M  V30 6713 H 621.75 1.8555 2.29467 0
M  V30 6714 H 621.831 2.47668 0.639857 0
M  V30 6715 H 621.475 4.8418 1.53402 0
M  V30 6716 H 621.405 4.18955 3.19037 0
M  V30 6717 H 623.896 3.23383 1.9553 0
M  V30 6718 H 624.209 6.91498 3.45038 0
M  V30 6719 H 622.554 6.21572 3.10923 0
M  V30 6720 H 625.745 4.04865 2.34952 0
M  V30 6721 H 625.918 5.72717 3.03148 0
M  V30 6722 N 619.324 -0.923095 1.27737 0
M  V30 6723 C 620.257 -2.02515 1.05181 0
M  V30 6724 C 621.235 -1.62574 -0.0292204 0
M  V30 6725 O 622.419 -1.88137 0.116848 0
M  V30 6726 C 619.546 -3.33407 0.596468 0
M  V30 6727 C 618.592 -3.92328 1.67276 0
M  V30 6728 S 619.425 -4.24342 3.26641 0
M  V30 6729 C 620.581 -5.58308 2.82919 0
M  V30 6730 H 620.814 -2.21336 1.98488 0
M  V30 6731 H 618.347 -1.06679 1.1162 0
M  V30 6732 H 620.305 -4.09086 0.34044 0
M  V30 6733 H 618.966 -3.125 -0.316614 0
M  V30 6734 H 618.159 -4.86797 1.30556 0
M  V30 6735 H 617.761 -3.2325 1.8811 0
M  V30 6736 H 620.053 -6.37801 2.28509 0
M  V30 6737 H 620.996 -5.99931 3.7615 0
M  V30 6738 H 621.404 -5.19049 2.21919 0
M  V30 6739 N 620.802 -1.09834 -1.13024 0
M  V30 6740 C 622.027 -0.85909 -1.88771 0
M  V30 6741 C 622.452 0.584402 -1.78791 0
M  V30 6742 O 621.81 1.41101 -1.13842 0
M  V30 6743 C 621.858 -1.30427 -3.36186 0
M  V30 6744 O 620.962 -0.465368 -4.09766 0
M  V30 6745 H 620.303 -0.310786 -0.586778 0
M  V30 6746 H 622.833 -1.46355 -1.42973 0
M  V30 6747 H 622.843 -1.2915 -3.8702 0
M  V30 6748 H 621.518 -2.3555 -3.42767 0
M  V30 6749 H 620.095 -0.542814 -3.68928 0
M  V30 6750 N 622.28 1.30327 -0.886154 0
M  V30 6751 C 623.696 1.48676 -0.580323 0
M  V30 6752 C 623.896 1.81189 0.881639 0
M  V30 6753 O 622.952 1.90021 1.66278 0
M  V30 6754 C 624.265 2.60932 -1.49449 0
M  V30 6755 C 625.813 2.74812 -1.49824 0
M  V30 6756 C 626.288 3.90183 -2.39836 0
M  V30 6757 N 627.779 3.97495 -2.37806 0
M  V30 6758 C 628.514 4.86078 -3.04165 0
M  V30 6759 N 628.01 5.79448 -3.79753 0
M  V30 6760 N 629.803 4.79456 -2.93391 0
M  V30 6761 H 621.954 1.07495 -1.8319 0
M  V30 6762 H 624.217 0.532661 -0.784204 0
M  V30 6763 H 623.923 2.43731 -2.5355 0
M  V30 6764 H 623.797 3.57437 -1.20494 0
M  V30 6765 H 626.184 2.91418 -0.464731 0
M  V30 6766 H 626.265 1.78924 -1.82811 0
M  V30 6767 H 625.909 3.74334 -3.43273 0
M  V30 6768 H 625.839 4.85411 -2.04166 0
M  V30 6769 H 628.33 3.30703 -1.82877 0
M  V30 6770 H 628.643 6.43805 -4.27475 0
M  V30 6771 H 626.988 5.79376 -3.8386 0
M  V30 6772 H 630.179 4.05494 -2.33864 0
M  V30 6773 H 630.352 5.48283 -3.45383 0
M  V30 6774 N 623.758 0.647228 1.43697 0
M  V30 6775 C 625.007 0.155552 2.01099 0
M  V30 6776 C 625.32 -1.23569 1.51624 0
M  V30 6777 O 626.526 -1.82226 2.01261 0
M  V30 6778 C 624.982 0.227296 3.59182 0
M  V30 6779 C 624.59 1.62086 4.17651 0
M  V30 6780 C 626.334 -0.207085 4.23995 0
M  V30 6781 C 624.241 1.64685 5.68008 0
M  V30 6782 H 623.171 0.0543895 0.752036 0
M  V30 6783 H 625.822 0.808386 1.64734 0
M  V30 6784 H 624.204 -0.492937 3.9292 0
M  V30 6785 H 625.378 2.36597 3.95422 0
M  V30 6786 H 623.693 2.0007 3.65186 0
M  V30 6787 H 626.29 -0.207426 5.34298 0
M  V30 6788 H 626.633 -1.23742 3.97484 0
M  V30 6789 H 627.166 0.461193 3.95118 0
M  V30 6790 H 623.905 2.65608 5.99277 0
M  V30 6791 H 623.425 0.944914 5.9231 0
M  V30 6792 H 625.104 1.38792 6.31938 0
M  V30 6793 N 625.236 -1.5273 0.388769 0
M  V30 6794 C 626.482 -2.01871 -0.193877 0
M  V30 6795 C 626.815 -1.27475 -1.46505 0
M  V30 6796 O 626.09 -0.375063 -1.90849 0
M  V30 6797 C 626.373 -3.5712 -0.462336 0
M  V30 6798 C 626.226 -4.42186 0.824091 0
M  V30 6799 C 627.545 -4.21881 -1.25319 0
M  V30 6800 H 624.664 -0.733764 -0.0689899 0
M  V30 6801 H 627.306 -1.82796 0.518231 0
M  V30 6802 H 625.456 -3.73504 -1.06896 0
M  V30 6803 H 627.128 -4.37554 1.46096 0
M  V30 6804 H 625.371 -4.09219 1.43952 0
M  V30 6805 H 626.042 -5.48828 0.590905 0
M  V30 6806 H 628.518 -4.0947 -0.73981 0
M  V30 6807 H 627.394 -5.30487 -1.40977 0
M  V30 6808 H 627.655 -3.79478 -2.26824 0
M  V30 6809 N 626.714 -0.118576 -1.57153 0
M  V30 6810 C 627.961 0.539526 -1.9518 0
M  V30 6811 C 628.289 1.66714 -1.00184 0
M  V30 6812 O 627.544 1.95683 -0.0256482 0
M  V30 6813 C 627.843 1.11303 -3.39627 0
M  V30 6814 C 627.509 0.106809 -4.50773 0
M  V30 6815 C 626.171 -0.169876 -4.809 0
M  V30 6816 C 628.523 -0.57895 -5.17975 0
M  V30 6817 C 625.851 -1.13861 -5.75545 0
M  V30 6818 C 628.203 -1.53631 -6.13661 0
M  V30 6819 C 626.867 -1.82099 -6.42181 0
M  V30 6820 H 626.137 0.197427 -0.714215 0
M  V30 6821 H 628.784 -0.199391 -1.90459 0
M  V30 6822 H 627.089 1.92869 -3.4104 0
M  V30 6823 H 628.786 1.63032 -3.66363 0
M  V30 6824 H 625.376 0.332645 -4.27307 0
M  V30 6825 H 629.56 -0.378359 -4.94856 0
M  V30 6826 H 624.816 -1.36592 -5.95947 0
M  V30 6827 H 628.99 -2.07337 -6.64819 0
M  V30 6828 H 626.617 -2.57319 -7.15326 0
M  V30 6829 N 628.193 1.56834 0.155195 0
M  V30 6830 C 629.604 1.72421 0.716082 0
M  V30 6831 C 629.955 0.731685 1.82046 0
M  V30 6832 O 629.08 -0.103481 2.16152 0
M  V30 6833 C 629.675 3.12629 1.30571 0
M  V30 6834 C 628.234 3.29846 1.81325 0
M  V30 6835 C 627.381 2.68359 0.698494 0
M  V30 6836 H 630.332 1.58544 -0.0703861 0
M  V30 6837 H 630.353 3.12174 2.1755 0
M  V30 6838 H 629.865 3.84844 0.501701 0
M  V30 6839 H 627.966 2.62614 2.64319 0
M  V30 6840 H 628.079 4.37727 1.9476 0
M  V30 6841 H 626.443 2.28604 1.12305 0
M  V30 6842 H 627.226 3.43171 -0.0939366 0
M  V30 6843 N 629.671 -0.424282 1.51781 0
M  V30 6844 C 630.917 -1.17434 1.6534 0
M  V30 6845 C 631.25 -1.90549 0.374806 0
M  V30 6846 O 630.525 -1.84145 -0.626179 0
M  V30 6847 C 630.808 -2.18093 2.86544 0
M  V30 6848 C 630.661 -1.48975 4.24413 0
M  V30 6849 C 631.98 -3.18934 3.03264 0
M  V30 6850 H 629.099 -0.425566 0.601716 0
M  V30 6851 H 631.741 -0.461921 1.84299 0
M  V30 6852 H 629.891 -2.78849 2.7051 0
M  V30 6853 H 631.563 -0.914551 4.52143 0
M  V30 6854 H 629.806 -0.791893 4.26511 0
M  V30 6855 H 630.477 -2.22347 5.05238 0
M  V30 6856 H 632.953 -2.68243 3.18096 0
M  V30 6857 H 631.829 -3.86645 3.89611 0
M  V30 6858 H 632.09 -3.85793 2.15908 0
M  V30 6859 N 631.149 -1.42148 -0.680565 0
M  V30 6860 C 632.079 -1.4796 -1.80638 0
M  V30 6861 C 633.06 -0.336728 -1.66734 0
M  V30 6862 O 634.245 -0.550247 -1.86242 0
M  V30 6863 C 631.375 -1.37569 -3.18892 0
M  V30 6864 C 630.329 -2.49823 -3.47524 0
M  V30 6865 C 629.655 -2.24491 -4.85291 0
M  V30 6866 C 630.955 -3.92144 -3.44994 0
M  V30 6867 H 632.649 -2.42184 -1.76032 0
M  V30 6868 H 630.195 -1.16566 -0.845481 0
M  V30 6869 H 632.148 -1.40243 -3.97379 0
M  V30 6870 H 630.872 -0.398357 -3.24162 0
M  V30 6871 H 629.531 -2.46455 -2.71395 0
M  V30 6872 H 629.179 -1.25066 -4.87204 0
M  V30 6873 H 628.879 -2.99722 -5.05411 0
M  V30 6874 H 630.403 -2.28906 -5.66069 0
M  V30 6875 H 631.817 -3.97145 -4.13459 0
M  V30 6876 H 630.214 -4.67179 -3.76648 0
M  V30 6877 H 631.284 -4.19225 -2.43676 0
M  V30 6878 N 632.627 0.916307 -1.28225 0
M  V30 6879 C 633.874 1.66518 -1.1523 0
M  V30 6880 C 634.202 1.92178 0.299632 0
M  V30 6881 O 633.457 1.51842 1.2346 0
M  V30 6882 C 633.756 3.03125 -1.8934 0
M  V30 6883 C 633.422 2.97135 -3.39148 0
M  V30 6884 C 632.084 2.95208 -3.80007 0
M  V30 6885 C 634.436 2.87574 -4.34685 0
M  V30 6886 C 631.764 2.81518 -5.14747 0
M  V30 6887 C 634.116 2.75424 -5.69495 0
M  V30 6888 C 632.78 2.71854 -6.09632 0
M  V30 6889 H 632.05 0.609334 -0.421655 0
M  V30 6890 H 634.697 1.06776 -1.58969 0
M  V30 6891 H 633.002 3.66639 -1.38143 0
M  V30 6892 H 634.699 3.59968 -1.76704 0
M  V30 6893 H 631.289 2.99428 -3.06661 0
M  V30 6894 H 635.473 2.88152 -4.04082 0
M  V30 6895 H 630.729 2.77148 -5.44976 0
M  V30 6896 H 634.903 2.66993 -6.43185 0
M  V30 6897 H 632.53 2.61003 -7.1399 0
M  V30 6898 N 634.105 1.10431 1.1244 0
M  V30 6899 C 635.353 0.845045 1.83585 0
M  V30 6900 C 635.674 -0.631168 1.84503 0
M  V30 6901 O 634.944 -1.45825 1.30813 0
M  V30 6902 H 633.524 0.309628 0.679809 0
M  V30 6903 H 636.186 1.39458 1.36153 0
M  V30 6904 H 635.282 1.20786 2.8778 0
M  V30 6905 N 635.583 -1.29855 0.893053 0
M  V30 6906 C 636.811 -1.99976 0.530788 0
M  V30 6907 C 637.226 -1.66889 -0.882799 0
M  V30 6908 O 636.583 -0.910352 -1.58173 0
M  V30 6909 C 636.634 -3.54547 0.705587 0
M  V30 6910 O 636.355 -3.86458 2.06353 0
M  V30 6911 C 637.856 -4.41937 0.347387 0
M  V30 6912 H 635.076 -0.639129 0.204339 0
M  V30 6913 H 637.62 -1.65549 1.20057 0
M  V30 6914 H 635.775 -3.87311 0.0830685 0
M  V30 6915 H 636.189 -4.81146 2.08803 0
M  V30 6916 H 637.663 -5.4954 0.520557 0
M  V30 6917 H 638.14 -4.33339 -0.715139 0
M  V30 6918 H 638.746 -4.14633 0.946567 0
M  V30 6919 N 637.061 -0.65484 -1.43351 0
M  V30 6920 C 638.308 -0.168892 -2.01794 0
M  V30 6921 C 638.636 1.2177 -1.51665 0
M  V30 6922 O 637.891 1.82717 -0.70092 0
M  V30 6923 C 638.19 -0.130424 -3.57162 0
M  V30 6924 C 637.856 -1.45898 -4.26643 0
M  V30 6925 C 636.518 -1.82279 -4.4534 0
M  V30 6926 C 638.87 -2.33485 -4.65976 0
M  V30 6927 C 636.198 -3.0591 -5.00635 0
M  V30 6928 C 638.55 -3.5641 -5.22642 0
M  V30 6929 C 637.214 -3.92985 -5.39555 0
M  V30 6930 H 636.484 -0.061802 -0.738418 0
M  V30 6931 H 639.131 -0.845869 -1.71806 0
M  V30 6932 H 637.436 0.630008 -3.86702 0
M  V30 6933 H 639.133 0.262465 -4.0014 0
M  V30 6934 H 635.723 -1.16591 -4.12437 0
M  V30 6935 H 639.907 -2.06668 -4.51223 0
M  V30 6936 H 635.163 -3.34295 -5.11915 0
M  V30 6937 H 639.337 -4.24495 -5.52066 0
M  V30 6938 H 636.964 -4.88862 -5.82167 0
M  V30 6939 N 638.539 1.52521 -0.396863 0
M  V30 6940 C 639.487 2.28217 0.44943 0
M  V30 6941 C 640.481 1.32416 1.05652 0
M  V30 6942 O 641.687 1.49925 0.996124 0
M  V30 6943 H 638.062 0.733966 0.1637 0
M  V30 6944 H 640.033 2.97658 -0.210367 0
M  V30 6945 C 638.782 3.10713 1.56054 0
M  V30 6946 H 638.105 3.84291 1.10273 0
M  V30 6947 H 639.545 3.66803 2.12677 0
M  V30 6948 C 638.004 2.23499 2.52091 0
M  V30 6949 O 638.534 1.8669 3.55682 0
M  V30 6950 N 636.74 1.8751 2.2201 0
M  V30 6951 H 636.287 2.17643 1.37802 0
M  V30 6952 H 636.245 1.29448 2.86514 0
M  V30 6953 N 640.017 0.126909 1.57088 0
M  V30 6954 C 640.947 -0.816847 2.18746 0
M  V30 6955 C 641.928 -1.27161 1.12979 0
M  V30 6956 O 643.113 -1.33279 1.41246 0
M  V30 6957 C 640.243 -2.06398 2.79315 0
M  V30 6958 C 639.197 -1.74673 3.90735 0
M  V30 6959 C 638.523 -3.06482 4.38147 0
M  V30 6960 C 639.823 -1.0089 5.12463 0
M  V30 6961 H 641.517 -0.303032 2.97863 0
M  V30 6962 H 639.063 -0.144314 1.43275 0
M  V30 6963 H 641.016 -2.72885 3.2111 0
M  V30 6964 H 639.74 -2.60118 1.975 0
M  V30 6965 H 638.399 -1.10572 3.49527 0
M  V30 6966 H 638.047 -3.58152 3.5318 0
M  V30 6967 H 637.747 -2.86025 5.13287 0
M  V30 6968 H 639.271 -3.74073 4.82599 0
M  V30 6969 H 640.685 -1.57546 5.51228 0
M  V30 6970 H 639.082 -0.905006 5.93237 0
M  V30 6971 H 640.152 0.00297335 4.849 0
M  V30 6972 N 641.495 -1.56914 -0.146875 0
M  V30 6973 C 642.741 -1.83628 -0.860741 0
M  V30 6974 C 643.074 -0.708528 -1.80813 0
M  V30 6975 O 642.349 0.287838 -1.92358 0
M  V30 6976 C 642.632 -3.20836 -1.63511 0
M  V30 6977 C 642.485 -4.44174 -0.709199 0
M  V30 6978 C 643.804 -3.55268 -2.59756 0
M  V30 6979 H 640.923 -0.667949 -0.311468 0
M  V30 6980 H 643.565 -1.89582 -0.125936 0
M  V30 6981 H 641.715 -3.15891 -2.26153 0
M  V30 6982 H 643.387 -4.61205 -0.0937781 0
M  V30 6983 H 641.63 -4.33796 -0.0187856 0
M  V30 6984 H 642.301 -5.36785 -1.28707 0
M  V30 6985 H 644.777 -3.60824 -2.07232 0
M  V30 6986 H 643.653 -4.52303 -3.10987 0
M  V30 6987 H 643.914 -2.81231 -3.41118 0
M  V30 6988 N 642.974 0.416227 -1.52004 0
M  V30 6989 C 644.204 1.18401 -1.69307 0
M  V30 6990 C 644.612 1.84943 -0.399072 0
M  V30 6991 O 643.955 1.72406 0.634177 0
M  V30 6992 C 644.017 2.29465 -2.76742 0
M  V30 6993 C 643.681 1.83117 -4.18709 0
M  V30 6994 C 644.678 1.32286 -5.02789 0
M  V30 6995 C 642.363 1.90167 -4.64911 0
M  V30 6996 C 644.357 0.891178 -6.31139 0
M  V30 6997 C 642.044 1.4661 -5.93253 0
M  V30 6998 C 643.042 0.961696 -6.76196 0
M  V30 6999 O 642.73 0.532388 -8.02135 0
M  V30 7000 H 642.462 0.362098 -0.570843 0
M  V30 7001 H 645.016 0.496764 -1.99302 0
M  V30 7002 H 643.246 3.01531 -2.42107 0
M  V30 7003 H 644.935 2.91252 -2.82713 0
M  V30 7004 H 645.701 1.26218 -4.68288 0
M  V30 7005 H 641.58 2.28371 -4.00459 0
M  V30 7006 H 645.124 0.496788 -6.95829 0
M  V30 7007 H 641.021 1.52355 -6.27263 0
M  V30 7008 H 641.789 0.656339 -8.15864 0
M  V30 7009 N 644.452 1.42507 0.673017 0
M  V30 7010 C 645.698 1.44282 1.43367 0
M  V30 7011 C 646.053 0.0588239 1.9231 0
M  V30 7012 O 645.346 -0.919288 1.68106 0
M  V30 7013 C 645.54 2.40351 2.64511 0
M  V30 7014 C 645.369 3.87955 2.27423 0
M  V30 7015 C 644.139 4.56476 2.16697 0
M  V30 7016 C 646.337 4.7833 1.88957 0
M  V30 7017 N 644.319 5.89099 1.72731 0
M  V30 7018 C 645.69 6.00073 1.55923 0
M  V30 7019 C 647.745 4.65769 1.75965 0
M  V30 7020 C 646.448 7.10652 1.112 0
M  V30 7021 C 648.474 5.76332 1.32647 0
M  V30 7022 C 647.836 6.97188 1.00538 0
M  V30 7023 H 643.935 0.583134 0.521036 0
M  V30 7024 H 646.519 1.78547 0.776481 0
M  V30 7025 H 644.69 2.08145 3.27918 0
M  V30 7026 H 646.422 2.32694 3.31113 0
M  V30 7027 H 643.177 4.10712 2.35823 0
M  V30 7028 H 643.601 6.59446 1.53166 0
M  V30 7029 H 648.243 3.72808 1.99435 0
M  V30 7030 H 645.961 8.0346 0.864768 0
M  V30 7031 H 649.547 5.68625 1.23112 0
M  V30 7032 H 648.427 7.81287 0.675283 0
M  V30 7033 N 645.93 -0.909495 1.28709 0
M  V30 7034 C 646.893 -1.99399 1.13016 0
M  V30 7035 C 647.893 -1.60654 0.068536 0
M  V30 7036 O 649.083 -1.71334 0.314671 0
M  V30 7037 C 646.215 -3.33078 0.726085 0
M  V30 7038 H 647.408 -2.14751 2.09338 0
M  V30 7039 H 644.961 -1.09272 1.11756 0
M  V30 7040 H 645.696 -3.23428 -0.23771 0
M  V30 7041 H 645.481 -3.62562 1.49302 0
M  V30 7042 H 646.971 -4.12681 0.639058 0
M  V30 7043 N 647.408 -1.11026 -1.11852 0
M  V30 7044 C 648.636 -0.878818 -1.87308 0
M  V30 7045 C 649.051 0.57111 -1.79955 0
M  V30 7046 O 648.408 1.39409 -1.17777 0
M  V30 7047 C 648.459 -1.3264 -3.36287 0
M  V30 7048 O 648.18 -2.71948 -3.43476 0
M  V30 7049 C 649.681 -1.12974 -4.28663 0
M  V30 7050 H 646.901 -0.315015 -0.592458 0
M  V30 7051 H 649.445 -1.47649 -1.41492 0
M  V30 7052 H 647.6 -0.772269 -3.79625 0
M  V30 7053 H 648.014 -2.91241 -4.3621 0
M  V30 7054 H 649.488 -1.49198 -5.31454 0
M  V30 7055 H 649.965 -0.0689127 -4.39146 0
M  V30 7056 H 650.571 -1.67064 -3.91113 0
M  V30 7057 N 648.886 1.2938 -0.899927 0
M  V30 7058 C 650.116 1.99402 -0.540601 0
M  V30 7059 C 650.524 1.67534 0.87914 0
M  V30 7060 O 649.867 0.916821 1.59186 0
M  V30 7061 C 649.929 3.53514 -0.653326 0
M  V30 7062 C 649.593 4.08937 -2.04009 0
M  V30 7063 C 650.59 4.23815 -3.01126 0
M  V30 7064 C 648.275 4.43962 -2.34953 0
M  V30 7065 C 650.269 4.72951 -4.27313 0
M  V30 7066 C 647.956 4.92795 -3.61382 0
M  V30 7067 C 648.954 5.07244 -4.57376 0
M  V30 7068 O 648.642 5.55017 -5.8156 0
M  V30 7069 H 648.374 0.64383 -0.206057 0
M  V30 7070 H 650.928 1.65878 -1.21134 0
M  V30 7071 H 649.158 3.86628 0.0744449 0
M  V30 7072 H 650.847 4.04767 -0.303118 0
M  V30 7073 H 651.613 3.97043 -2.78535 0
M  V30 7074 H 647.492 4.31974 -1.60994 0
M  V30 7075 H 651.036 4.84144 -5.02245 0
M  V30 7076 H 646.933 5.19004 -3.83804 0
M  V30 7077 H 647.701 5.73331 -5.84153 0
M  V30 7078 N 650.364 0.662433 1.43002 0
M  V30 7079 C 651.294 -0.00979809 2.33498 0
M  V30 7080 C 652.275 -0.802329 1.49989 0
M  V30 7081 O 653.46 -0.761964 1.78627 0
M  V30 7082 C 650.59 -0.970446 3.33466 0
M  V30 7083 C 649.544 -0.287383 4.27034 0
M  V30 7084 C 648.87 -1.36012 5.17112 0
M  V30 7085 C 650.17 0.82595 5.15728 0
M  V30 7086 H 651.864 0.745959 2.89958 0
M  V30 7087 H 649.41 0.360172 1.39423 0
M  V30 7088 H 651.363 -1.44971 3.95679 0
M  V30 7089 H 650.087 -1.75748 2.75282 0
M  V30 7090 H 648.746 0.17152 3.66199 0
M  V30 7091 H 648.394 -2.13882 4.55262 0
M  V30 7092 H 648.094 -0.908276 5.80538 0
M  V30 7093 H 649.618 -1.84056 5.82199 0
M  V30 7094 H 651.032 0.42845 5.71697 0
M  V30 7095 H 649.429 1.20282 5.87922 0
M  V30 7096 H 650.499 1.68003 4.54866 0
M  V30 7097 N 651.842 -1.52309 0.404946 0
M  V30 7098 C 652.79 -2.28452 -0.437321 0
M  V30 7099 C 653.784 -1.32975 -1.04948 0
M  V30 7100 O 654.99 -1.50451 -0.988159 0
M  V30 7101 H 651.365 -0.734824 -0.159805 0
M  V30 7102 H 653.336 -2.97542 0.22615 0
M  V30 7103 C 652.085 -3.11536 -1.54404 0
M  V30 7104 H 651.408 -3.84871 -1.08233 0
M  V30 7105 H 652.848 -3.67926 -2.10729 0
M  V30 7106 C 651.307 -2.24833 -2.50902 0
M  V30 7107 O 651.837 -1.88574 -3.54687 0
M  V30 7108 N 650.043 -1.88685 -2.21012 0
M  V30 7109 H 649.59 -2.18371 -1.36646 0
M  V30 7110 H 649.548 -1.30966 -2.85824 0
M  V30 7111 N 653.32 -0.135238 -1.57019 0
M  V30 7112 C 654.736 0.221262 -1.58059 0
M  V30 7113 C 654.936 1.65538 -1.14889 0
M  V30 7114 O 653.992 2.37985 -0.843751 0
M  V30 7115 C 655.305 -0.0268114 -3.00688 0
M  V30 7116 C 656.853 0.0378206 -3.12977 0
M  V30 7117 C 657.328 -0.182769 -4.57635 0
M  V30 7118 N 658.819 -0.129292 -4.6302 0
M  V30 7119 C 659.554 -0.274648 -5.72742 0
M  V30 7120 N 659.05 -0.477075 -6.91155 0
M  V30 7121 N 660.843 -0.213077 -5.61696 0
M  V30 7122 H 652.994 -1.07177 -1.83376 0
M  V30 7123 H 655.257 -0.423338 -0.848227 0
M  V30 7124 H 654.963 -1.01889 -3.36618 0
M  V30 7125 H 654.837 0.697863 -3.70688 0
M  V30 7126 H 657.224 1.02043 -2.76896 0
M  V30 7127 H 657.305 -0.718996 -2.45487 0
M  V30 7128 H 656.949 -1.16243 -4.94419 0
M  V30 7129 H 656.879 0.59423 -5.23237 0
M  V30 7130 H 659.37 0.0229896 -3.77893 0
M  V30 7131 H 659.683 -0.578413 -7.70632 0
M  V30 7132 H 658.028 -0.513252 -6.93102 0
M  V30 7133 H 661.219 -0.0557796 -4.68067 0
M  V30 7134 H 661.392 -0.329796 -6.4716 0
M  V30 7135 N 654.798 1.5699 0.138552 0
M  V30 7136 C 655.708 2.02174 1.19008 0
M  V30 7137 C 656.724 0.938622 1.46512 0
M  V30 7138 O 657.9 1.24872 1.58016 0
M  V30 7139 C 654.965 2.40045 2.50159 0
M  V30 7140 C 654.026 3.62346 2.30226 0
M  V30 7141 C 653.259 3.98401 3.55123 0
M  V30 7142 O 653.482 3.35019 4.61647 0
M  V30 7143 O 652.416 4.91606 3.47285 0
M  V30 7144 H 656.242 2.91954 0.836452 0
M  V30 7145 H 653.827 1.45293 0.347907 0
M  V30 7146 H 655.709 2.65225 3.27465 0
M  V30 7147 H 654.384 1.53417 2.85035 0
M  V30 7148 H 653.291 3.42341 1.50843 0
M  V30 7149 H 654.624 4.49617 2.00262 0
M  V30 7150 N 656.276 -0.40816 1.52223 0
M  V30 7151 C 657.687 -0.986929 1.58482 0
M  V30 7152 C 658.038 -1.91521 0.425917 0
M  V30 7153 O 657.163 -2.11593 -0.453593 0
M  V30 7154 C 657.758 -1.7967 2.87235 0
M  V30 7155 C 656.317 -2.32549 2.9597 0
M  V30 7156 C 655.464 -1.12558 2.53428 0
M  V30 7157 H 658.415 -0.188362 1.57578 0
M  V30 7158 H 658.436 -2.65417 2.72642 0
M  V30 7159 H 657.948 -1.12082 3.71563 0
M  V30 7160 H 656.049 -3.03505 2.16137 0
M  V30 7161 H 656.162 -2.63348 4.00231 0
M  V30 7162 H 654.526 -1.47984 2.07299 0
M  V30 7163 H 655.309 -0.465351 3.40131 0
M  V30 7164 N 657.755 -1.42862 -0.66545 0
M  V30 7165 C 659.001 -1.44043 -1.42757 0
M  V30 7166 C 659.334 -0.0599629 -1.94107 0
M  V30 7167 O 658.609 0.917286 -1.71511 0
M  V30 7168 C 658.892 -2.47266 -2.61786 0
M  V30 7169 C 658.745 -3.94539 -2.16007 0
M  V30 7170 C 660.064 -2.47365 -3.64003 0
M  V30 7171 H 657.183 -0.524506 -0.517748 0
M  V30 7172 H 659.825 -1.74335 -0.755466 0
M  V30 7173 H 657.975 -2.21565 -3.19126 0
M  V30 7174 H 659.647 -4.31254 -1.63762 0
M  V30 7175 H 657.89 -4.07957 -1.47491 0
M  V30 7176 H 658.561 -4.62357 -3.01546 0
M  V30 7177 H 661.037 -2.70243 -3.16399 0
M  V30 7178 H 659.913 -3.21552 -4.44854 0
M  V30 7179 H 660.174 -1.50299 -4.15767 0
M  V30 7180 N 659.233 0.902656 -1.29189 0
M  V30 7181 C 660.163 2.02294 -1.16616 0
M  V30 7182 C 661.144 1.6999 -0.0611175 0
M  V30 7183 O 662.329 1.9271 -0.240072 0
M  V30 7184 C 659.459 3.37018 -0.83882 0
M  V30 7185 C 658.413 3.83522 -1.89986 0
M  V30 7186 C 657.739 5.15337 -1.42589 0
M  V30 7187 C 659.039 4.04169 -3.30824 0
M  V30 7188 H 660.733 2.13071 -2.10336 0
M  V30 7189 H 658.279 1.02378 -1.01266 0
M  V30 7190 H 660.232 4.14895 -0.737584 0
M  V30 7191 H 658.956 3.26325 0.134071 0
M  V30 7192 H 657.615 3.07859 -1.99043 0
M  V30 7193 H 657.263 5.01056 -0.441759 0
M  V30 7194 H 656.963 5.47423 -2.13547 0
M  V30 7195 H 658.487 5.95758 -1.3381 0
M  V30 7196 H 659.901 4.72537 -3.24626 0
M  V30 7197 H 658.298 4.47604 -3.99713 0
M  V30 7198 H 659.368 3.08604 -3.74021 0
M  V30 7199 N 660.711 1.11618 1.11262 0
M  V30 7200 C 661.959 0.864469 1.82678 0
M  V30 7201 C 662.28 -0.611564 1.85162 0
M  V30 7202 O 661.55 -1.44429 1.32352 0
M  V30 7203 H 660.13 0.316821 0.676486 0
M  V30 7204 H 662.792 1.40894 1.34666 0
M  V30 7205 H 661.888 1.23832 2.86482 0
M  V30 7206 N 662.189 -1.289 0.906776 0
M  V30 7207 C 663.435 -1.95558 0.53712 0
M  V30 7208 C 663.768 -1.71262 -0.915582 0
M  V30 7209 O 663.043 -1.02961 -1.65013 0
M  V30 7210 C 663.326 -3.50198 0.838645 0
M  V30 7211 C 663.179 -3.83923 2.34357 0
M  V30 7212 C 664.498 -4.38861 0.329988 0
M  V30 7213 H 661.617 -0.710289 0.196617 0
M  V30 7214 H 664.259 -1.52392 1.13475 0
M  V30 7215 H 662.409 -3.87096 0.330024 0
M  V30 7216 H 664.081 -3.56933 2.92227 0
M  V30 7217 H 662.324 -3.31215 2.80141 0
M  V30 7218 H 662.995 -4.91883 2.5051 0
M  V30 7219 H 665.471 -4.08996 0.765609 0
M  V30 7220 H 664.347 -5.45931 0.570105 0
M  V30 7221 H 664.608 -4.35352 -0.769511 0
M  V30 7222 N 663.667 -0.670007 -1.42649 0
M  V30 7223 C 664.892 -0.196955 -2.06463 0
M  V30 7224 C 665.317 1.1352 -1.49983 0
M  V30 7225 O 664.675 1.705 -0.616397 0
M  V30 7226 C 664.723 -0.137381 -3.60338 0
M  V30 7227 O 663.827 0.895523 -4.02559 0
M  V30 7228 H 663.168 -0.102579 -0.656029 0
M  V30 7229 H 665.698 -0.917669 -1.82866 0
M  V30 7230 H 665.708 0.0403625 -4.0798 0
M  V30 7231 H 664.383 -1.10977 -4.0082 0
M  V30 7232 H 662.96 0.689209 -3.66476 0
M  V30 7233 N 665.145 1.52092 -0.413018 0
M  V30 7234 C 666.556 1.86617 0.0556967 0
M  V30 7235 C 666.907 1.33156 1.44097 0
M  V30 7236 O 666.032 0.672417 2.05688 0
M  V30 7237 C 666.627 3.38628 0.107844 0
M  V30 7238 C 665.186 3.72778 0.520904 0
M  V30 7239 C 664.333 2.75649 -0.302109 0
M  V30 7240 H 667.284 1.45663 -0.629919 0
M  V30 7241 H 667.305 3.69152 0.922324 0
M  V30 7242 H 666.817 3.77508 -0.900506 0
M  V30 7243 H 664.918 3.39478 1.53575 0
M  V30 7244 H 665.031 4.7838 0.262591 0
M  V30 7245 H 663.395 2.53603 0.236115 0
M  V30 7246 H 664.178 3.17369 -1.30888 0
M  V30 7247 O 666.662 0.284301 1.58978 0
M  V30 7248 H 667.353 -0.283792 1.9161 0
M  V30 END ATOM
M  V30 BEGIN BOND
M  V30 END BOND
M  V30 END CTAB
M  END
$$$$
