drugbank_target|P20964 GTPase Obg (DB04022)
 OpenBabel12092120003D

  0  0  0     0  0            999 V3000
M  V30 BEGIN CTAB
M  V30 COUNTS 6652 6714 0 0 0
M  V30 BEGIN ATOM
M  V30 1 H -0.908 1.98254 -0.117106 0
M  V30 2 N 0 1.576 0 0
M  V30 3 C 0.933 2.03868 1.02534 0
M  V30 4 C 1.911 0.928543 1.3348 0
M  V30 5 O 3.095 1.19667 1.45644 0
M  V30 6 C 0.222 2.43627 2.35294 0
M  V30 7 C -0.732 3.65373 2.2001 0
M  V30 8 S 0.101 5.13292 1.52614 0
M  V30 9 C 1.257 5.56322 2.86805 0
M  V30 10 H 1.49 2.90518 0.631377 0
M  V30 11 H -0.977 1.52953 0.210867 0
M  V30 12 H 0.981 2.67203 3.11629 0
M  V30 13 H -0.358 1.57376 2.7183 0
M  V30 14 H -1.165 3.90944 3.18086 0
M  V30 15 H -1.563 3.418 1.51819 0
M  V30 16 H 0.729 5.58782 3.83104 0
M  V30 17 H 1.672 6.56266 2.65933 0
M  V30 18 H 2.08 4.83886 2.90714 0
M  V30 19 N 1.4781 -0.272755 1.55222 0
M  V30 20 C 2.7251 -1.00433 1.7584 0
M  V30 21 C 3.0531 -1.86275 0.559629 0
M  V30 22 O 2.3081 -1.90269 -0.457857 0
M  V30 23 C 2.6071 -1.91642 3.01675 0
M  V30 24 C 2.2731 -1.21548 4.34208 0
M  V30 25 C 0.9351 -1.02166 4.70229 0
M  V30 26 C 3.2871 -0.716684 5.16249 0
M  V30 27 C 0.6151 -0.316334 5.85847 0
M  V30 28 C 2.9671 -0.0249476 6.32595 0
M  V30 29 C 1.6311 0.180579 6.67256 0
M  V30 30 H 0.9011 -0.367509 0.643443 0
M  V30 31 H 3.5481 -0.276596 1.89492 0
M  V30 32 H 1.8531 -2.71037 2.82924 0
M  V30 33 H 3.5501 -2.48369 3.14824 0
M  V30 34 H 0.1401 -1.37645 4.05896 0
M  V30 35 H 4.3241 -0.854047 4.88896 0
M  V30 36 H -0.4199 -0.146378 6.11225 0
M  V30 37 H 3.7541 0.369311 6.9542 0
M  V30 38 H 1.3811 0.729098 7.56696 0
M  V30 39 N 2.9562 -1.48159 -0.537278 0
M  V30 40 C 4.2022 -1.56035 -1.29541 0
M  V30 41 C 4.5352 -0.230377 -1.92829 0
M  V30 42 O 3.8102 0.762952 -1.78911 0
M  V30 43 C 4.0932 -2.69323 -2.39034 0
M  V30 44 C 3.9462 -4.12002 -1.80485 0
M  V30 45 C 5.2652 -2.78408 -3.40847 0
M  V30 46 H 2.3842 -0.567992 -0.469632 0
M  V30 47 H 5.0262 -1.80302 -0.599277 0
M  V30 48 H 3.1762 -2.48763 -2.98412 0
M  V30 49 H 4.8482 -4.43981 -1.25215 0
M  V30 50 H 3.0912 -4.19344 -1.11055 0
M  V30 51 H 3.7622 -4.87077 -2.59731 0
M  V30 52 H 6.2382 -2.97012 -2.91416 0
M  V30 53 H 5.1142 -3.59416 -4.14863 0
M  V30 54 H 5.3752 -1.86269 -4.00944 0
M  V30 55 N 4.4343 0.785586 -1.36625 0
M  V30 56 C 5.7113 1.53198 -1.21613 0
M  V30 57 C 6.0913 2.10187 0.196113 0
M  V30 58 O 5.4393 1.94318 1.20219 0
M  V30 59 C 5.6493 2.62388 -2.30116 0
M  V30 60 C 6.9973 3.30167 -2.66974 0
M  V30 61 O 8.0213 2.72674 -2.29188 0
M  V30 62 O 6.8803 4.34077 -3.32023 0
M  V30 63 H 3.9743 0.677865 -0.473738 0
M  V30 64 H 6.5203 0.823739 -1.48367 0
M  V30 65 H 5.2923 2.18299 -3.24748 0
M  V30 66 H 4.9153 3.40827 -2.0475 0
M  V30 67 N 5.9124 1.20967 1.01018 0
M  V30 68 C 6.8444 0.922059 2.09835 0
M  V30 69 C 7.8574 -0.0927106 1.62536 0
M  V30 70 O 9.0464 0.139127 1.77957 0
M  V30 71 C 6.1464 0.362004 3.36961 0
M  V30 72 C 5.3194 1.42986 4.13369 0
M  V30 73 C 4.3784 0.879976 5.1879 0
M  V30 74 O 3.4044 1.56219 5.47343 0
M  V30 75 N 4.6064 -0.307396 5.79686 0
M  V30 76 H 7.3714 1.8588 2.35093 0
M  V30 77 H 4.9324 1.11422 1.1746 0
M  V30 78 H 6.9244 -0.0201474 4.04695 0
M  V30 79 H 5.4944 -0.479437 3.08902 0
M  V30 80 H 4.7144 1.98608 3.40512 0
M  V30 81 H 6.0024 2.14885 4.61196 0
M  V30 82 H 5.4004 -0.878796 5.58832 0
M  V30 83 H 3.9574 -0.631115 6.48737 0
M  V30 84 N 7.3905 -1.2043 1.01659 0
M  V30 85 C 8.6365 -1.90079 0.706963 0
M  V30 86 C 8.9695 -1.78648 -0.761474 0
M  V30 87 O 8.2445 -1.17069 -1.55323 0
M  V30 88 C 8.5275 -3.41469 1.14327 0
M  V30 89 C 8.3805 -3.61833 2.67201 0
M  V30 90 C 9.6995 -4.34261 0.714529 0
M  V30 91 H 6.8185 -0.690254 0.2583 0
M  V30 92 H 9.4605 -1.41826 1.26433 0
M  V30 93 H 7.6105 -3.82696 0.669056 0
M  V30 94 H 9.2825 -3.2986 3.22475 0
M  V30 95 H 7.5255 -3.05304 3.08175 0
M  V30 96 H 8.1965 -4.67955 2.92783 0
M  V30 97 H 10.6725 -4.00682 1.12221 0
M  V30 98 H 9.5485 -5.38806 1.04784 0
M  V30 99 H 9.8095 -4.40431 -0.383799 0
M  V30 100 N 8.8686 -0.792821 -1.36206 0
M  V30 101 C 9.8156 -0.191653 -2.30003 0
M  V30 102 C 10.7856 0.666453 -1.52143 0
M  V30 103 O 11.9706 0.61442 -1.80636 0
M  V30 104 C 9.1106 0.664848 -3.38635 0
M  V30 105 C 8.2236 -0.212175 -4.31479 0
M  V30 106 C 7.3586 0.651022 -5.27196 0
M  V30 107 C 6.3976 -0.227247 -6.11678 0
M  V30 108 N 5.5346 0.595127 -6.99573 0
M  V30 109 H 10.3746 -0.996978 -2.80828 0
M  V30 110 H 7.9116 -0.503206 -1.38225 0
M  V30 111 H 9.8696 1.17645 -4.00269 0
M  V30 112 H 8.4996 1.43557 -2.89122 0
M  V30 113 H 7.5516 -0.841777 -3.70969 0
M  V30 114 H 8.8636 -0.888751 -4.90818 0
M  V30 115 H 8.0176 1.2283 -5.94136 0
M  V30 116 H 6.7566 1.36121 -4.68319 0
M  V30 117 H 5.7616 -0.816904 -5.43697 0
M  V30 118 H 6.9866 -0.93509 -6.72631 0
M  V30 119 H 4.9326 1.28955 -6.432 0
M  V30 120 H 4.8496 -0.0236952 -7.55996 0
M  V30 121 H 6.1176 1.15613 -7.70879 0
M  V30 122 N 10.3467 1.47872 -0.545128 0
M  V30 123 C 11.5927 2.02793 -0.0166104 0
M  V30 124 C 11.9257 1.41987 1.32489 0
M  V30 125 O 11.2007 0.571045 1.85928 0
M  V30 126 C 11.4837 3.59989 0.0893294 0
M  V30 127 C 11.3367 4.3125 -1.27841 0
M  V30 128 C 12.6557 4.32606 0.808724 0
M  V30 129 H 9.7747 0.736962 -0.00751035 0
M  V30 130 H 12.4167 1.76433 -0.705085 0
M  V30 131 H 10.5667 3.82579 0.675681 0
M  V30 132 H 12.2387 4.20035 -1.90704 0
M  V30 133 H 10.4817 3.92076 -1.85632 0
M  V30 134 H 11.1527 5.39736 -1.15713 0
M  V30 135 H 13.6287 4.14936 0.310992 0
M  V30 136 H 12.5047 5.42251 0.851782 0
M  V30 137 H 12.7657 4.00963 1.86229 0
M  V30 138 N 11.8248 0.280983 1.55075 0
M  V30 139 C 13.0548 -0.336804 2.03836 0
M  V30 140 C 13.4628 -1.49577 1.15859 0
M  V30 141 O 12.8058 -1.82888 0.172503 0
M  V30 142 C 12.8678 -0.874616 3.48699 0
M  V30 143 C 12.5318 0.156478 4.56732 0
M  V30 144 C 13.5288 0.978032 5.10618 0
M  V30 145 C 11.2138 0.292409 5.01448 0
M  V30 146 C 13.2078 1.92165 6.07743 0
M  V30 147 C 10.8948 1.23949 5.98398 0
M  V30 148 C 11.8928 2.05261 6.51427 0
M  V30 149 O 11.5808 2.98367 7.4648 0
M  V30 150 H 11.3128 -0.0800885 0.671239 0
M  V30 151 H 13.8668 0.412589 2.01213 0
M  V30 152 H 12.0968 -1.67418 3.4858 0
M  V30 153 H 13.7858 -1.40612 3.80766 0
M  V30 154 H 14.5518 0.883782 4.7688 0
M  V30 155 H 10.4308 -0.330498 4.59814 0
M  V30 156 H 13.9748 2.55672 6.49059 0
M  V30 157 H 9.8718 1.33454 6.31554 0
M  V30 158 H 10.6398 2.93116 7.64215 0
M  V30 159 N 13.3029 -1.57598 0.00835791 0
M  V30 160 C 14.5489 -1.91211 -0.675732 0
M  V30 161 C 14.8819 -0.883139 -1.72958 0
M  V30 162 O 14.1569 0.097016 -1.94258 0
M  V30 163 C 14.4399 -3.35379 -1.31123 0
M  V30 164 C 14.2929 -4.48999 -0.268356 0
M  V30 165 C 15.6119 -3.7912 -2.23508 0
M  V30 166 H 12.7309 -0.695374 -0.244179 0
M  V30 167 H 15.3729 -1.89901 0.0613655 0
M  V30 168 H 13.5229 -3.36626 -1.93946 0
M  V30 169 H 15.1949 -4.59887 0.360844 0
M  V30 170 H 13.4379 -4.31873 0.408482 0
M  V30 171 H 14.1089 -5.46851 -0.752218 0
M  V30 172 H 16.5849 -3.79477 -1.70693 0
M  V30 173 H 15.4609 -4.80729 -2.64936 0
M  V30 174 H 15.7219 -3.13455 -3.11766 0
M  V30 175 N 14.781 0.264519 -1.55364 0
M  V30 176 C 15.728 1.32717 -1.88825 0
M  V30 177 C 16.698 1.48675 -0.740605 0
M  V30 178 O 17.883 1.62945 -0.992657 0
M  V30 179 C 15.023 2.68089 -2.17307 0
M  V30 180 C 14.136 2.60284 -3.44785 0
M  V30 181 C 13.271 3.87892 -3.62924 0
M  V30 182 C 12.31 3.74631 -4.84064 0
M  V30 183 N 11.447 4.94092 -4.98816 0
M  V30 184 H 16.287 1.03481 -2.79456 0
M  V30 185 H 13.824 0.499757 -1.3835 0
M  V30 186 H 15.782 3.46864 -2.31821 0
M  V30 187 H 14.412 2.95509 -1.299 0
M  V30 188 H 13.464 1.73173 -3.38697 0
M  V30 189 H 14.776 2.46388 -4.33698 0
M  V30 190 H 13.93 4.75109 -3.77302 0
M  V30 191 H 12.669 4.04664 -2.7221 0
M  V30 192 H 11.674 2.85797 -4.69681 0
M  V30 193 H 12.899 3.5937 -5.76221 0
M  V30 194 H 10.845 5.11259 -4.11036 0
M  V30 195 H 10.762 4.8276 -5.81789 0
M  V30 196 H 12.03 5.82857 -5.17588 0
M  V30 197 N 16.2591 1.48442 0.529413 0
M  V30 198 C 17.5071 1.56179 1.28267 0
M  V30 199 C 17.8281 0.237721 1.93546 0
M  V30 200 O 17.0981 -0.740779 1.81354 0
M  V30 201 H 15.6781 0.575367 0.476405 0
M  V30 202 H 18.3401 1.84909 0.61602 0
M  V30 203 H 17.4361 2.34312 2.06165 0
M  V30 204 N 17.7372 -0.778329 1.37039 0
M  V30 205 C 18.9852 -1.53361 1.31623 0
M  V30 206 C 19.3062 -1.94739 -0.100831 0
M  V30 207 O 18.5762 -1.65797 -1.04347 0
M  V30 208 H 17.1562 -0.568794 0.484234 0
M  V30 209 H 19.8182 -0.926742 1.71457 0
M  V30 210 H 18.9142 -2.43606 1.95096 0
M  V30 211 N 19.2153 -1.21501 -1.00376 0
M  V30 212 C 20.4923 -0.941745 -1.71437 0
M  V30 213 C 20.8723 0.546114 -2.03914 0
M  V30 214 O 20.2203 1.51128 -1.71384 0
M  V30 215 C 20.4303 -1.82812 -2.97289 0
M  V30 216 C 21.7783 -2.07771 -3.70292 0
M  V30 217 O 22.8023 -1.80171 -3.07273 0
M  V30 218 O 21.6613 -2.54456 -4.83647 0
M  V30 219 H 18.7553 -0.353243 -0.747762 0
M  V30 220 H 21.3013 -1.32436 -1.06108 0
M  V30 221 H 20.0733 -2.83501 -2.69709 0
M  V30 222 H 19.6963 -1.4464 -3.70358 0
M  V30 223 N 20.6934 1.19889 -1.02296 0
M  V30 224 C 21.9414 1.89046 -0.714558 0
M  V30 225 C 22.2624 1.79636 0.758681 0
M  V30 226 O 21.5324 1.20292 1.54618 0
M  V30 227 H 20.1124 0.699802 -0.261317 0
M  V30 228 H 22.7744 1.45574 -1.29592 0
M  V30 229 H 21.8704 2.95524 -1.0036 0
M  V30 230 N 22.1715 0.800033 1.35784 0
M  V30 231 C 23.4195 0.376597 1.9856 0
M  V30 232 C 23.7405 -1.05812 1.63795 0
M  V30 233 O 23.0105 -1.73103 0.917171 0
M  V30 234 H 21.5905 0.136261 0.734467 0
M  V30 235 H 24.2525 1.02442 1.65806 0
M  V30 236 H 23.3485 0.477002 3.08433 0
M  V30 237 N 23.6496 -1.47581 0.552962 0
M  V30 238 C 24.5976 -2.31648 -0.21023 0
M  V30 239 C 25.5916 -1.42663 -0.913432 0
M  V30 240 O 26.7976 -1.5945 -0.835201 0
M  V30 241 H 23.1726 -0.746989 -0.0866676 0
M  V30 242 H 25.1436 -2.93869 0.518051 0
M  V30 243 C 23.8926 -3.25226 -1.22976 0
M  V30 244 H 23.2156 -3.93658 -0.698077 0
M  V30 245 H 24.6556 -3.86889 -1.73473 0
M  V30 246 C 23.1146 -2.48448 -2.27542 0
M  V30 247 O 23.6446 -2.22585 -3.34393 0
M  V30 248 N 21.8506 -2.09532 -2.01357 0
M  V30 249 H 21.3976 -2.30765 -1.14478 0
M  V30 250 H 21.3556 -1.58476 -2.71538 0
M  V30 251 N 25.1277 -0.289203 -1.54924 0
M  V30 252 C 26.3757 0.322879 -1.99504 0
M  V30 253 C 26.6967 1.55313 -1.1791 0
M  V30 254 O 25.9667 1.94001 -0.272097 0
M  V30 255 H 24.5467 0.122291 -0.736922 0
M  V30 256 H 27.2087 -0.397802 -1.90797 0
M  V30 257 H 26.3047 0.603061 -3.06218 0
M  V30 258 N 26.6058 1.57591 -0.0167156 0
M  V30 259 C 27.5388 2.04944 1.00366 0
M  V30 260 C 28.5168 0.942648 1.32487 0
M  V30 261 O 29.7008 1.21205 1.44367 0
M  V30 262 C 26.8278 2.46109 2.32697 0
M  V30 263 C 25.8738 3.67686 2.16123 0
M  V30 264 S 26.7068 5.14882 1.47161 0
M  V30 265 C 27.8628 5.59332 2.80888 0
M  V30 266 H 28.0958 2.91172 0.600528 0
M  V30 267 H 25.6288 1.53168 0.194632 0
M  V30 268 H 27.5868 2.70493 3.08778 0
M  V30 269 H 26.2478 1.6025 2.70146 0
M  V30 270 H 25.4408 3.94296 3.13922 0
M  V30 271 H 25.0428 3.43391 1.48185 0
M  V30 272 H 27.3348 5.62814 3.77156 0
M  V30 273 H 28.2778 6.5905 2.58958 0
M  V30 274 H 28.6858 4.86942 2.85565 0
M  V30 275 N 28.0839 -0.256276 1.55502 0
M  V30 276 C 29.3299 -0.987079 1.77157 0
M  V30 277 C 29.6629 -1.85327 0.580315 0
M  V30 278 O 28.9379 -1.89874 -0.421686 0
M  V30 279 C 29.2209 -1.85553 3.08613 0
M  V30 280 C 29.0739 -1.01816 4.38125 0
M  V30 281 C 30.3929 -2.8397 3.36228 0
M  V30 282 H 27.5119 -0.357428 0.644526 0
M  V30 283 H 30.1539 -0.258239 1.88237 0
M  V30 284 H 28.3039 -2.47695 2.99298 0
M  V30 285 H 29.9759 -0.416159 4.59419 0
M  V30 286 H 28.2189 -0.322178 4.32602 0
M  V30 287 H 28.8899 -1.65939 5.26468 0
M  V30 288 H 31.3659 -2.31964 3.45445 0
M  V30 289 H 30.2419 -3.41864 4.29442 0
M  V30 290 H 30.5029 -3.59955 2.56681 0
M  V30 291 N 29.562 -1.4872 -0.521534 0
M  V30 292 C 30.525 -1.63379 -1.60748 0
M  V30 293 C 31.525 -0.50661 -1.52611 0
M  V30 294 O 32.715 -0.772601 -1.5613 0
M  V30 295 C 29.847 -1.61192 -3.00383 0
M  V30 296 H 31.04 -2.60217 -1.49087 0
M  V30 297 H 28.593 -1.37444 -0.744235 0
M  V30 298 H 29.328 -0.65863 -3.17541 0
M  V30 299 H 29.113 -2.43032 -3.07698 0
M  V30 300 H 30.603 -1.7466 -3.7932 0
M  V30 301 N 31.0401 0.771051 -1.3745 0
M  V30 302 C 32.2871 1.52963 -1.32697 0
M  V30 303 C 32.6151 1.94299 0.0883274 0
M  V30 304 O 31.8701 1.64397 1.0617 0
M  V30 305 C 32.1691 2.80676 -2.2126 0
M  V30 306 C 31.8351 2.58389 -3.69521 0
M  V30 307 C 30.4971 2.52019 -4.09927 0
M  V30 308 C 32.8491 2.38469 -4.63446 0
M  V30 309 C 30.1771 2.23721 -5.42371 0
M  V30 310 C 32.5291 2.11694 -5.96128 0
M  V30 311 C 31.1931 2.03769 -6.35637 0
M  V30 312 H 30.4631 0.559732 -0.485573 0
M  V30 313 H 33.1101 0.888083 -1.69662 0
M  V30 314 H 31.4151 3.49392 -1.77291 0
M  V30 315 H 33.1121 3.38557 -2.14895 0
M  V30 316 H 29.7021 2.6421 -3.37478 0
M  V30 317 H 33.8861 2.4238 -4.33089 0
M  V30 318 H 29.1421 2.16081 -5.71943 0
M  V30 319 H 33.3161 1.9528 -6.6846 0
M  V30 320 H 30.9431 1.81606 -7.38189 0
M  V30 321 N 32.5182 1.22032 0.997298 0
M  V30 322 C 33.9342 0.979326 1.26021 0
M  V30 323 C 34.1342 -0.32972 1.98784 0
M  V30 324 O 33.1902 -1.05345 2.29475 0
M  V30 325 C 34.5032 2.17509 2.07631 0
M  V30 326 C 36.0512 2.21817 2.2083 0
M  V30 327 C 36.5262 3.40933 3.05825 0
M  V30 328 N 38.0172 3.41067 3.13412 0
M  V30 329 C 38.7522 4.29885 3.79455 0
M  V30 330 N 38.2482 5.28914 4.47462 0
M  V30 331 N 40.0412 4.17673 3.76173 0
M  V30 332 H 32.1922 2.06202 0.509352 0
M  V30 333 H 34.4552 0.90334 0.287541 0
M  V30 334 H 34.1612 3.12415 1.61524 0
M  V30 335 H 34.0352 2.17206 3.08385 0
M  V30 336 H 36.4222 1.27462 2.66153 0
M  V30 337 H 36.5032 2.2616 1.1952 0
M  V30 338 H 36.1472 4.35586 2.61203 0
M  V30 339 H 36.0772 3.33829 4.07266 0
M  V30 340 H 38.5682 2.69406 2.65007 0
M  V30 341 H 38.8812 5.92973 4.95583 0
M  V30 342 H 37.2262 5.32831 4.46224 0
M  V30 343 H 40.4172 3.39564 3.22202 0
M  V30 344 H 40.5902 4.87098 4.27363 0
M  V30 345 N 33.9963 -1.19345 1.0293 0
M  V30 346 C 35.4123 -1.41069 0.746446 0
M  V30 347 C 35.6123 -1.90078 -0.668776 0
M  V30 348 O 34.6683 -2.0778 -1.4347 0
M  V30 349 C 35.9813 -2.42141 1.78292 0
M  V30 350 C 37.5293 -2.55887 1.80252 0
M  V30 351 C 38.0043 -3.60214 2.8286 0
M  V30 352 N 39.4953 -3.67711 2.81679 0
M  V30 353 C 40.2303 -4.48128 3.57727 0
M  V30 354 N 39.7263 -5.32248 4.43491 0
M  V30 355 N 41.5193 -4.42782 3.46267 0
M  V30 356 H 33.6703 -0.858536 1.94275 0
M  V30 357 H 35.9333 -0.439541 0.839945 0
M  V30 358 H 35.6393 -2.13155 2.79746 0
M  V30 359 H 35.5133 -3.41323 1.60557 0
M  V30 360 H 37.9003 -2.84196 0.794757 0
M  V30 361 H 37.9813 -1.56858 2.02062 0
M  V30 362 H 37.6253 -3.32647 3.83807 0
M  V30 363 H 37.5553 -4.58895 2.58307 0
M  V30 364 H 40.0463 -3.07634 2.19476 0
M  V30 365 H 40.3593 -5.90729 4.98256 0
M  V30 366 H 38.7043 -5.31707 4.47564 0
M  V30 367 H 41.8953 -3.76107 2.78677 0
M  V30 368 H 42.0683 -5.05215 4.05785 0
M  V30 369 N 35.4744 -0.807222 -1.35358 0
M  V30 370 C 36.3844 -0.219594 -2.3357 0
M  V30 371 C 37.4004 0.637734 -1.61892 0
M  V30 372 O 38.5764 0.549336 -1.93763 0
M  V30 373 C 35.6414 0.62158 -3.41083 0
M  V30 374 C 34.7024 -0.256315 -4.28534 0
M  V30 375 C 33.9354 0.544807 -5.30912 0
M  V30 376 O 34.1584 1.77944 -5.41934 0
M  V30 377 O 33.0924 -0.0646478 -6.01865 0
M  V30 378 H 36.9184 -1.03208 -2.85625 0
M  V30 379 H 34.5034 -0.569025 -1.38139 0
M  V30 380 H 36.3854 1.10067 -4.06772 0
M  V30 381 H 35.0604 1.41165 -2.91297 0
M  V30 382 H 33.9674 -0.782559 -3.65823 0
M  V30 383 H 35.3004 -1.01034 -4.81719 0
M  V30 384 N 36.9525 1.47285 -0.560781 0
M  V30 385 C 37.8995 2.30058 0.18491 0
M  V30 386 C 38.8695 1.39281 0.904986 0
M  V30 387 O 40.0545 1.68241 0.899979 0
M  V30 388 C 37.1945 3.23317 1.20666 0
M  V30 389 C 36.3075 4.29186 0.492285 0
M  V30 390 C 35.4425 5.09592 1.49964 0
M  V30 391 C 34.4815 6.07232 0.770439 0
M  V30 392 N 33.6185 6.80584 1.72479 0
M  V30 393 H 38.4585 2.93302 -0.527048 0
M  V30 394 H 35.9955 1.44568 -0.271738 0
M  V30 395 H 37.9535 3.75811 1.81168 0
M  V30 396 H 36.5835 2.61929 1.88661 0
M  V30 397 H 35.6355 3.7972 -0.227333 0
M  V30 398 H 36.9475 4.98738 -0.0787929 0
M  V30 399 H 36.1015 5.66254 2.17809 0
M  V30 400 H 34.8405 4.3995 2.10464 0
M  V30 401 H 33.8455 5.49745 0.0780846 0
M  V30 402 H 35.0705 6.78884 0.171134 0
M  V30 403 H 33.0165 6.1367 2.3183 0
M  V30 404 H 32.9335 7.46319 1.20596 0
M  V30 405 H 34.2015 7.41818 2.39428 0
M  V30 406 N 38.4306 0.297415 1.54768 0
M  V30 407 C 39.6606 -0.315165 2.04182 0
M  V30 408 C 40.0686 -1.4834 1.17439 0
M  V30 409 O 39.4116 -1.82695 0.191891 0
M  V30 410 C 39.4736 -0.837583 3.49607 0
M  V30 411 C 39.1376 0.204912 4.5654 0
M  V30 412 C 40.1346 1.03214 5.09552 0
M  V30 413 C 37.8196 0.345578 5.0111 0
M  V30 414 C 39.8136 1.986 6.05671 0
M  V30 415 C 37.5006 1.30289 5.97049 0
M  V30 416 C 38.4986 2.12159 6.49213 0
M  V30 417 O 38.1866 3.06268 7.43273 0
M  V30 418 H 37.9186 -0.0729646 0.672051 0
M  V30 419 H 40.4726 0.433907 2.00765 0
M  V30 420 H 38.7026 -1.63712 3.50336 0
M  V30 421 H 40.3916 -1.36566 3.82236 0
M  V30 422 H 41.1576 0.934312 4.75916 0
M  V30 423 H 37.0366 -0.28171 4.60138 0
M  V30 424 H 40.5806 2.62542 6.46311 0
M  V30 425 H 36.4776 1.40145 6.30103 0
M  V30 426 H 37.2456 3.01205 7.61064 0
M  V30 427 N 39.9087 -1.5758 0.0250728 0
M  V30 428 C 41.1547 -1.91917 -0.655413 0
M  V30 429 C 41.4877 -0.901433 -1.72011 0
M  V30 430 O 40.7627 0.0764069 -1.9435 0
M  V30 431 C 41.0457 -3.36751 -1.27558 0
M  V30 432 C 40.8987 -4.49258 -0.220719 0
M  V30 433 C 42.2177 -3.81469 -2.19475 0
M  V30 434 H 39.3367 -0.697925 -0.23679 0
M  V30 435 H 41.9787 -1.89825 0.0815036 0
M  V30 436 H 40.1287 -3.38664 -1.90365 0
M  V30 437 H 41.8007 -4.59478 0.409601 0
M  V30 438 H 40.0437 -4.31415 0.454264 0
M  V30 439 H 40.7147 -5.47618 -0.694175 0
M  V30 440 H 43.1907 -3.81266 -1.66659 0
M  V30 441 H 42.0667 -4.83512 -2.59822 0
M  V30 442 H 42.3277 -3.16744 -3.08424 0
M  V30 443 N 41.3868 0.248026 -1.55636 0
M  V30 444 C 42.7978 0.817177 -1.67866 0
M  V30 445 C 43.1488 1.86069 -0.622322 0
M  V30 446 O 42.2738 2.15157 0.231618 0
M  V30 447 C 42.8688 1.489 -3.04326 0
M  V30 448 C 41.4278 2.00587 -3.185 0
M  V30 449 C 40.5748 0.856573 -2.63739 0
M  V30 450 H 43.5258 0.0238579 -1.58682 0
M  V30 451 H 43.5468 2.35698 -2.98708 0
M  V30 452 H 43.0588 0.729279 -3.81186 0
M  V30 453 H 41.1598 2.79443 -2.4646 0
M  V30 454 H 41.2728 2.20402 -4.25393 0
M  V30 455 H 39.6368 1.25678 -2.21534 0
M  V30 456 H 40.4198 0.109953 -3.43124 0
M  V30 457 N 42.8649 1.48995 0.513639 0
M  V30 458 C 43.8119 1.6473 1.61656 0
M  V30 459 C 44.7819 0.488984 1.58739 0
M  V30 460 O 45.9669 0.714478 1.76918 0
M  V30 461 C 43.1069 1.7082 2.99858 0
M  V30 462 C 42.2199 2.9787 3.12885 0
M  V30 463 C 41.3549 2.95017 4.41744 0
M  V30 464 C 40.3939 4.16702 4.48359 0
M  V30 465 N 39.5309 4.11832 5.68629 0
M  V30 466 H 44.3709 2.58909 1.47547 0
M  V30 467 H 41.9079 1.28382 0.71808 0
M  V30 468 H 43.8659 1.72331 3.79944 0
M  V30 469 H 42.4959 0.801181 3.12699 0
M  V30 470 H 41.5479 3.06029 2.25944 0
M  V30 471 H 42.8599 3.8786 3.13633 0
M  V30 472 H 42.0139 2.95021 5.30139 0
M  V30 473 H 40.7529 2.02784 4.43542 0
M  V30 474 H 39.7579 4.16955 3.58369 0
M  V30 475 H 40.9829 5.10113 4.48287 0
M  V30 476 H 38.9289 3.22428 5.71293 0
M  V30 477 H 38.8459 4.95543 5.7094 0
M  V30 478 H 40.1139 4.1592 6.59266 0
M  V30 479 N 44.343 -0.763751 1.37857 0
M  V30 480 C 45.591 -1.51957 1.33243 0
M  V30 481 C 45.912 -1.94835 -0.0801709 0
M  V30 482 O 45.182 -1.66894 -1.02582 0
M  V30 483 H 43.762 -0.563626 0.49024 0
M  V30 484 H 46.424 -0.908504 1.7243 0
M  V30 485 H 45.52 -2.41523 1.97669 0
M  V30 486 N 45.8211 -1.22559 -0.990812 0
M  V30 487 C 47.0691 -1.04933 -1.72724 0
M  V30 488 C 47.3901 0.416158 -1.90508 0
M  V30 489 O 46.6601 1.29918 -1.46622 0
M  V30 490 H 45.2401 -0.385296 -0.639965 0
M  V30 491 H 47.9021 -1.54105 -1.19322 0
M  V30 492 H 46.9981 -1.52886 -2.72089 0
M  V30 493 N 47.2992 1.18797 -1.03562 0
M  V30 494 C 48.7102 1.70322 -0.764676 0
M  V30 495 C 49.0612 1.82708 0.714996 0
M  V30 496 O 48.1862 1.50299 1.55689 0
M  V30 497 C 48.7812 3.09356 -1.38145 0
M  V30 498 C 47.3402 3.58114 -1.15895 0
M  V30 499 C 46.4872 2.34798 -1.4753 0
M  V30 500 H 49.4382 1.03543 -1.20268 0
M  V30 501 H 49.4592 3.72378 -0.781977 0
M  V30 502 H 48.9712 3.00309 -2.45837 0
M  V30 503 H 47.0722 3.72464 -0.100544 0
M  V30 504 H 47.1852 4.4184 -1.8524 0
M  V30 505 H 45.5492 2.38464 -0.894829 0
M  V30 506 H 46.3322 2.28375 -2.56319 0
M  V30 507 N 48.7773 0.814389 1.34928 0
M  V30 508 C 49.7403 0.235759 2.27984 0
M  V30 509 C 50.7403 -0.581412 1.49921 0
M  V30 510 O 51.9303 -0.398758 1.69575 0
M  V30 511 C 49.0623 -0.670433 3.34242 0
M  V30 512 H 50.2553 1.05659 2.80671 0
M  V30 513 H 47.8083 0.585614 1.44915 0
M  V30 514 H 48.5433 -1.51466 2.86755 0
M  V30 515 H 48.3283 -0.0860822 3.92005 0
M  V30 516 H 49.8183 -1.06935 4.03676 0
M  V30 517 N 50.2554 -1.46986 0.568584 0
M  V30 518 C 51.5034 -2.02041 0.0487022 0
M  V30 519 C 51.8244 -1.44408 -1.31039 0
M  V30 520 O 51.0944 -0.623477 -1.85714 0
M  V30 521 H 49.6744 -0.746849 0.015014 0
M  V30 522 H 52.3364 -1.80257 0.741168 0
M  V30 523 H 51.4324 -3.12085 -0.0308961 0
M  V30 524 N 51.7335 -0.305618 -1.54608 0
M  V30 525 C 52.9815 0.301701 -1.99835 0
M  V30 526 C 53.3025 1.54054 -1.19551 0
M  V30 527 O 52.5725 1.93702 -0.292658 0
M  V30 528 H 51.1525 0.114468 -0.738178 0
M  V30 529 H 53.8145 -0.418016 -1.90364 0
M  V30 530 H 52.9105 0.570548 -3.06841 0
M  V30 531 N 53.2116 1.57565 -0.0334293 0
M  V30 532 C 54.4886 1.83282 0.683163 0
M  V30 533 C 54.8686 0.91823 1.90084 0
M  V30 534 O 54.2166 -0.025113 2.28486 0
M  V30 535 C 54.4266 3.32599 1.0573 0
M  V30 536 C 55.7746 3.99179 1.44711 0
M  V30 537 O 56.7986 3.3712 1.15015 0
M  V30 538 O 55.6576 5.08565 2.0006 0
M  V30 539 H 52.7516 0.755869 0.335546 0
M  V30 540 H 55.2976 1.69589 -0.0614402 0
M  V30 541 H 54.0696 3.90834 0.190828 0
M  V30 542 H 53.6926 3.51415 1.85993 0
M  V30 543 N 54.6897 -0.239769 1.55765 0
M  V30 544 C 55.9377 -0.964892 1.77579 0
M  V30 545 C 56.2587 -1.85582 0.598699 0
M  V30 546 O 55.5287 -1.92075 -0.385226 0
M  V30 547 H 54.1087 -0.359265 0.654933 0
M  V30 548 H 56.7707 -0.256001 1.93211 0
M  V30 549 H 55.8667 -1.58243 2.69009 0
M  V30 550 N 56.1678 -1.49265 -0.50573 0
M  V30 551 C 57.4158 -1.582 -1.25766 0
M  V30 552 C 57.7368 -0.268482 -1.93143 0
M  V30 553 O 57.0068 0.711833 -1.8251 0
M  V30 554 H 55.5868 -0.582873 -0.467191 0
M  V30 555 H 58.2488 -1.85865 -0.586525 0
M  V30 556 H 57.3448 -2.37563 -2.02412 0
M  V30 557 N 57.6459 0.756429 -1.3826 0
M  V30 558 C 58.5929 1.87011 -1.35261 0
M  V30 559 C 59.5629 1.64695 -0.215616 0
M  V30 560 O 60.7479 1.864 -0.407399 0
M  V30 561 C 57.8879 3.24275 -1.18068 0
M  V30 562 C 57.0009 3.58442 -2.41129 0
M  V30 563 C 56.1359 4.84994 -2.16689 0
M  V30 564 C 55.1749 5.11939 -3.35537 0
M  V30 565 N 54.3119 6.29685 -3.10549 0
M  V30 566 H 59.1519 1.8891 -2.30472 0
M  V30 567 H 56.6889 0.923373 -1.14509 0
M  V30 568 H 58.6469 4.03479 -1.06116 0
M  V30 569 H 57.2769 3.21711 -0.264973 0
M  V30 570 H 56.3289 2.74103 -2.63764 0
M  V30 571 H 57.6409 3.74283 -3.29717 0
M  V30 572 H 56.7949 5.72135 -2.01857 0
M  V30 573 H 55.5339 4.71286 -1.25462 0
M  V30 574 H 54.5389 4.23268 -3.50891 0
M  V30 575 H 55.7639 5.27546 -4.27635 0
M  V30 576 H 53.7099 6.17306 -2.21967 0
M  V30 577 H 53.6269 6.46014 -3.92686 0
M  V30 578 H 54.8949 7.19722 -2.99367 0
M  V30 579 N 59.124 1.23083 0.984299 0
M  V30 580 C 60.372 1.05848 1.72165 0
M  V30 581 C 60.693 -0.406049 1.90726 0
M  V30 582 O 59.963 -1.29139 1.47309 0
M  V30 583 H 58.543 0.388685 0.637913 0
M  V30 584 H 61.205 1.54736 1.18503 0
M  V30 585 H 60.301 1.54327 2.71274 0
M  V30 586 N 60.6021 -1.18246 1.0419 0
M  V30 587 C 61.8501 -1.87886 0.744543 0
M  V30 588 C 62.1711 -1.8082 -0.730006 0
M  V30 589 O 61.4411 -1.22736 -1.52685 0
M  V30 590 H 60.0211 -0.695556 0.272417 0
M  V30 591 H 62.6831 -1.43494 1.31892 0
M  V30 592 H 61.7791 -2.9389 1.05049 0
M  V30 593 N 62.0802 -0.821533 -1.34494 0
M  V30 594 C 63.3572 -0.33159 -1.92769 0
M  V30 595 C 63.7372 1.18088 -1.74981 0
M  V30 596 O 63.0852 1.98733 -1.12772 0
M  V30 597 C 63.2952 -0.759398 -3.40638 0
M  V30 598 C 64.6432 -0.757433 -4.1779 0
M  V30 599 O 65.6672 -0.70189 -3.49216 0
M  V30 600 O 64.5262 -0.829361 -5.4017 0
M  V30 601 H 61.6202 -0.0902502 -0.822061 0
M  V30 602 H 64.1662 -0.906231 -1.43477 0
M  V30 603 H 62.9382 -1.8012 -3.47379 0
M  V30 604 H 62.5612 -0.160378 -3.97276 0
M  V30 605 N 63.5583 1.46682 -0.576371 0
M  V30 606 C 64.8043 2.02712 -0.0596221 0
M  V30 607 C 65.1373 1.44765 1.29448 0
M  V30 608 O 64.4123 0.610355 1.84675 0
M  V30 609 C 64.6953 3.60098 0.0129503 0
M  V30 610 C 64.5483 4.28441 -1.3696 0
M  V30 611 C 65.8673 4.34224 0.71678 0
M  V30 612 H 62.9863 0.736637 -0.0231407 0
M  V30 613 H 65.6283 1.74898 -0.742351 0
M  V30 614 H 63.7783 3.83926 0.594378 0
M  V30 615 H 65.4503 4.15896 -1.9957 0
M  V30 616 H 63.6933 3.8805 -1.93907 0
M  V30 617 H 64.3643 5.3716 -1.27135 0
M  V30 618 H 66.8403 4.15503 0.222908 0
M  V30 619 H 65.7163 5.43936 0.73657 0
M  V30 620 H 65.9773 4.04823 1.77682 0
M  V30 621 N 65.0364 0.313813 1.54444 0
M  V30 622 C 66.2824 -0.292108 2.00685 0
M  V30 623 C 66.6154 -1.52548 1.20177 0
M  V30 624 O 65.8904 -1.92452 0.281531 0
M  V30 625 C 66.1734 -0.635968 3.5444 0
M  V30 626 C 66.0264 0.607437 4.4568 0
M  V30 627 C 67.3454 -1.45747 4.15266 0
M  V30 628 H 64.4644 -0.104697 0.729526 0
M  V30 629 H 67.1064 0.428457 1.85106 0
M  V30 630 H 65.2564 -1.24986 3.67846 0
M  V30 631 H 66.9284 1.24581 4.44159 0
M  V30 632 H 65.1714 1.23822 4.15753 0
M  V30 633 H 65.8424 0.322515 5.51057 0
M  V30 634 H 68.3184 -0.938645 4.05375 0
M  V30 635 H 67.1944 -1.66683 5.2298 0
M  V30 636 H 67.4554 -2.45063 3.67963 0
M  V30 637 N 66.5145 -1.57545 0.0417849 0
M  V30 638 C 67.7615 -1.92317 -0.634082 0
M  V30 639 C 68.0895 -0.919334 -1.71402 0
M  V30 640 O 67.3445 0.0698253 -1.95575 0
M  V30 641 C 67.6435 -3.33794 -1.27735 0
M  V30 642 C 67.3095 -4.49716 -0.326543 0
M  V30 643 C 65.9715 -4.81156 -0.0648814 0
M  V30 644 C 68.3235 -5.20182 0.325623 0
M  V30 645 C 65.6515 -5.80414 0.856539 0
M  V30 646 C 68.0035 -6.20424 1.23518 0
M  V30 647 C 66.6675 -6.50298 1.5056 0
M  V30 648 H 65.9375 -0.703736 -0.232027 0
M  V30 649 H 68.5845 -1.91205 0.106259 0
M  V30 650 H 66.8895 -3.31228 -2.09274 0
M  V30 651 H 68.5865 -3.57975 -1.80707 0
M  V30 652 H 65.1765 -4.25176 -0.540665 0
M  V30 653 H 69.3605 -4.96112 0.136546 0
M  V30 654 H 64.6165 -6.019 1.07363 0
M  V30 655 H 68.7905 -6.74141 1.74664 0
M  V30 656 H 66.4175 -7.27025 2.22123 0
M  V30 657 N 67.9926 0.231505 -1.5589 0
M  V30 658 C 68.9026 1.308 -1.94752 0
M  V30 659 C 69.9186 1.51826 -0.849989 0
M  V30 660 O 71.0946 1.6515 -1.15271 0
M  V30 661 C 68.1596 2.63968 -2.24771 0
M  V30 662 C 67.2206 2.51331 -3.48039 0
M  V30 663 C 66.4536 3.78148 -3.76616 0
M  V30 664 O 66.6766 4.80722 -3.07022 0
M  V30 665 O 65.6106 3.75857 -4.70123 0
M  V30 666 H 69.4366 1.0083 -2.86474 0
M  V30 667 H 67.0216 0.433547 -1.42971 0
M  V30 668 H 68.9036 3.42633 -2.45318 0
M  V30 669 H 67.5786 2.9364 -1.36225 0
M  V30 670 H 66.4856 1.709 -3.32782 0
M  V30 671 H 67.8186 2.26601 -4.36936 0
M  V30 672 N 69.4707 1.49531 0.497807 0
M  V30 673 C 70.7167 1.59415 1.25358 0
M  V30 674 C 71.0497 0.281422 1.9215 0
M  V30 675 O 70.3247 -0.715249 1.80871 0
M  V30 676 C 70.6077 2.75566 2.3181 0
M  V30 677 C 70.4607 4.16642 1.69498 0
M  V30 678 C 71.7797 2.87347 3.33346 0
M  V30 679 H 68.8987 0.580244 0.454408 0
M  V30 680 H 71.5407 1.81827 0.551262 0
M  V30 681 H 69.6907 2.56587 2.91711 0
M  V30 682 H 71.3627 4.47145 1.13399 0
M  V30 683 H 69.6057 4.22141 0.998978 0
M  V30 684 H 70.2767 4.93792 2.46725 0
M  V30 685 H 72.7527 3.04634 2.83438 0
M  V30 686 H 71.6287 3.70289 4.05188 0
M  V30 687 H 71.8897 1.96834 3.95865 0
M  V30 688 N 70.9488 -0.749086 1.3866 0
M  V30 689 C 72.2258 -1.4992 1.25632 0
M  V30 690 C 72.6058 -2.10633 -0.140317 0
M  V30 691 O 71.9538 -1.97437 -1.15025 0
M  V30 692 C 72.1638 -2.56195 2.36992 0
M  V30 693 C 73.5118 -3.22972 2.75634 0
M  V30 694 O 74.5358 -2.66502 2.36337 0
M  V30 695 O 73.3948 -4.25122 3.43415 0
M  V30 696 H 70.4888 -0.665067 0.491544 0
M  V30 697 H 73.0348 -0.784113 1.50498 0
M  V30 698 H 71.8068 -2.09612 3.30422 0
M  V30 699 H 71.4298 -3.35279 2.13714 0
M  V30 700 N 72.4269 -1.23603 -0.977757 0
M  V30 701 C 73.3369 -1.03632 -2.1047 0
M  V30 702 C 74.3529 0.0199435 -1.73989 0
M  V30 703 O 75.5289 -0.176076 -2.00629 0
M  V30 704 C 72.5939 -0.63276 -3.40877 0
M  V30 705 C 71.6549 -1.76437 -3.91367 0
M  V30 706 C 70.8879 -1.37997 -5.15551 0
M  V30 707 O 71.1109 -0.265357 -5.69782 0
M  V30 708 O 70.0449 -2.20201 -5.60174 0
M  V30 709 H 73.8709 -1.98086 -2.30208 0
M  V30 710 H 71.4559 -1.02332 -1.08851 0
M  V30 711 H 73.3379 -0.418761 -4.19314 0
M  V30 712 H 72.0129 0.282754 -3.22463 0
M  V30 713 H 70.9199 -2.03304 -3.14036 0
M  V30 714 H 72.2529 -2.6583 -4.14241 0
M  V30 715 N 73.905 1.17692 -1.04816 0
M  V30 716 C 75.153 1.87488 -0.754497 0
M  V30 717 C 75.474 1.81205 0.720407 0
M  V30 718 O 74.744 1.23544 1.52032 0
M  V30 719 H 73.324 0.694101 -0.276102 0
M  V30 720 H 75.986 1.42793 -1.32651 0
M  V30 721 H 75.082 2.93328 -1.06606 0
M  V30 722 N 75.3831 0.828654 1.34056 0
M  V30 723 C 76.3131 0.269443 2.3194 0
M  V30 724 C 77.2941 -0.617247 1.58506 0
M  V30 725 O 78.4791 -0.542931 1.86456 0
M  V30 726 C 75.6091 -0.564793 3.42677 0
M  V30 727 C 74.5631 0.225241 4.27407 0
M  V30 728 C 73.8891 -0.7321 5.29664 0
M  V30 729 C 75.1891 1.43663 5.02154 0
M  V30 730 H 76.8831 1.08728 2.7896 0
M  V30 731 H 74.4291 0.524283 1.34117 0
M  V30 732 H 76.3821 -0.966233 4.10173 0
M  V30 733 H 75.1061 -1.41574 2.9432 0
M  V30 734 H 73.7651 0.608117 3.61521 0
M  V30 735 H 73.4131 -1.57916 4.77568 0
M  V30 736 H 73.1131 -0.20767 5.87233 0
M  V30 737 H 74.6371 -1.13128 6.00029 0
M  V30 738 H 76.0511 1.1089 5.62473 0
M  V30 739 H 74.4481 1.89711 5.69324 0
M  V30 740 H 75.5181 2.21181 4.31517 0
M  V30 741 N 76.8612 -1.46375 0.584142 0
M  V30 742 C 78.2772 -1.57694 0.245929 0
M  V30 743 C 78.4772 -1.57903 -1.25175 0
M  V30 744 O 77.5332 -1.49676 -2.03355 0
M  V30 745 C 78.8462 -2.87028 0.896402 0
M  V30 746 C 80.3942 -3.00662 0.870127 0
M  V30 747 C 80.8692 -4.32734 1.50017 0
M  V30 748 N 82.3602 -4.39436 1.46458 0
M  V30 749 C 83.0952 -5.40248 1.92144 0
M  V30 750 N 82.5912 -6.47726 2.4581 0
M  V30 751 N 84.3842 -5.31459 1.83052 0
M  V30 752 H 76.5352 -1.44483 1.55687 0
M  V30 753 H 78.7982 -0.689291 0.650831 0
M  V30 754 H 78.5042 -2.9269 1.95002 0
M  V30 755 H 78.3782 -3.75014 0.405486 0
M  V30 756 H 80.7652 -2.94581 -0.174871 0
M  V30 757 H 80.8462 -2.14148 1.39908 0
M  V30 758 H 80.4902 -4.39573 2.54437 0
M  V30 759 H 80.4202 -5.18025 0.946432 0
M  V30 760 H 82.9112 -3.62367 1.07231 0
M  V30 761 H 83.2242 -7.20863 2.78525 0
M  V30 762 H 81.5692 -6.48542 2.49836 0
M  V30 763 H 84.7602 -4.46396 1.40883 0
M  V30 764 H 84.9332 -6.09881 2.18973 0
M  V30 765 N 78.3393 -0.321999 -1.54275 0
M  V30 766 C 79.5673 0.283052 -2.04955 0
M  V30 767 C 79.9823 1.45904 -1.19823 0
M  V30 768 O 79.3393 1.81063 -0.228545 0
M  V30 769 C 79.3903 0.719028 -3.54277 0
M  V30 770 O 79.1113 -0.410175 -4.36176 0
M  V30 771 C 80.6123 1.38705 -4.21041 0
M  V30 772 H 77.8323 0.0584616 -0.668448 0
M  V30 773 H 80.3763 -0.467734 -1.99079 0
M  V30 774 H 78.5313 1.41979 -3.60445 0
M  V30 775 H 78.9453 -0.0669416 -5.24457 0
M  V30 776 H 80.4193 1.64306 -5.2698 0
M  V30 777 H 80.8963 2.33385 -3.72059 0
M  V30 778 H 81.5023 0.728906 -4.19007 0
M  V30 779 N 79.8174 1.5752 -0.0501392 0
M  V30 780 C 80.7474 2.14502 0.922566 0
M  V30 781 C 81.7284 1.06642 1.3252 0
M  V30 782 O 82.9134 1.34577 1.4001 0
M  V30 783 C 80.0434 2.68916 2.19776 0
M  V30 784 C 78.9974 3.8175 1.93523 0
M  V30 785 C 78.3234 4.22677 3.27487 0
M  V30 786 C 79.6234 5.06932 1.25765 0
M  V30 787 H 81.3174 2.9603 0.447952 0
M  V30 788 H 78.8634 1.42401 0.214024 0
M  V30 789 H 80.8164 3.07419 2.88222 0
M  V30 790 H 79.5404 1.84578 2.69441 0
M  V30 791 H 78.1994 3.43718 1.27489 0
M  V30 792 H 77.8474 3.35291 3.74952 0
M  V30 793 H 77.5474 4.98725 3.1072 0
M  V30 794 H 79.0714 4.63779 3.97166 0
M  V30 795 H 80.4854 5.42888 1.84244 0
M  V30 796 H 78.8824 5.88116 1.19328 0
M  V30 797 H 79.9524 4.84337 0.233536 0
M  V30 798 N 81.2955 -0.223234 1.56011 0
M  V30 799 C 82.2285 -1.30377 1.87289 0
M  V30 800 C 83.2065 -1.45286 0.730112 0
M  V30 801 O 84.3905 -1.61126 0.978302 0
M  V30 802 C 81.5175 -2.67431 2.07843 0
M  V30 803 C 80.5635 -2.69546 3.30526 0
M  V30 804 S 81.3965 -2.23781 4.865 0
M  V30 805 C 82.5525 -3.62714 5.10088 0
M  V30 806 H 82.7855 -1.03652 2.78646 0
M  V30 807 H 80.3185 -0.425393 1.48424 0
M  V30 808 H 82.2765 -3.46336 2.20368 0
M  V30 809 H 80.9375 -2.91381 1.17285 0
M  V30 810 H 80.1305 -3.70255 3.41947 0
M  V30 811 H 79.7325 -1.98703 3.16849 0
M  V30 812 H 82.0245 -4.58391 4.98883 0
M  V30 813 H 82.9675 -3.5621 6.11981 0
M  V30 814 H 83.3755 -3.56323 4.37829 0
M  V30 815 N 82.7736 -1.49793 -0.48987 0
M  V30 816 C 84.0506 -1.50348 -1.25119 0
M  V30 817 C 84.4306 -0.237466 -2.0976 0
M  V30 818 O 83.7786 0.77981 -2.14782 0
M  V30 819 C 83.9886 -2.78872 -2.09837 0
M  V30 820 C 85.3366 -3.288 -2.68655 0
M  V30 821 O 86.3606 -2.80065 -2.20096 0
M  V30 822 O 85.2196 -4.13707 -3.57083 0
M  V30 823 H 82.3136 -0.602242 -0.566775 0
M  V30 824 H 84.8596 -1.62067 -0.503229 0
M  V30 825 H 83.6316 -3.62499 -1.47343 0
M  V30 826 H 83.2546 -2.70066 -2.91805 0
M  V30 827 N 84.2517 0.741722 -1.39055 0
M  V30 828 C 85.4987 1.50114 -1.35912 0
M  V30 829 C 85.8267 1.94443 0.0470937 0
M  V30 830 O 85.0817 1.66612 1.02659 0
M  V30 831 C 85.3807 2.7592 -2.27163 0
M  V30 832 C 85.0467 2.50493 -3.74919 0
M  V30 833 C 83.7087 2.43267 -4.1518 0
M  V30 834 C 86.0607 2.28585 -4.684 0
M  V30 835 C 83.3887 2.12166 -5.46994 0
M  V30 836 C 85.7407 1.99002 -6.00484 0
M  V30 837 C 84.4047 1.90241 -6.39816 0
M  V30 838 H 83.6747 0.549306 -0.497336 0
M  V30 839 H 86.3217 0.851896 -1.71508 0
M  V30 840 H 84.6267 3.45553 -1.84663 0
M  V30 841 H 86.3237 3.33923 -2.22028 0
M  V30 842 H 82.9137 2.56992 -3.43006 0
M  V30 843 H 87.0977 2.33139 -4.38132 0
M  V30 844 H 82.3537 2.03901 -5.76398 0
M  V30 845 H 86.5277 1.81057 -6.72452 0
M  V30 846 H 84.1547 1.65907 -7.41875 0
M  V30 847 N 85.7298 1.2412 0.971189 0
M  V30 848 C 87.1458 1.00584 1.23916 0
M  V30 849 C 87.3458 -0.287481 1.99439 0
M  V30 850 O 86.4018 -1.00454 2.31658 0
M  V30 851 C 87.7148 2.21864 2.0297 0
M  V30 852 C 89.2628 2.26452 2.16076 0
M  V30 853 C 89.7378 3.47343 2.98524 0
M  V30 854 N 91.2288 3.47639 3.06107 0
M  V30 855 C 91.9638 4.37837 3.70251 0
M  V30 856 N 91.4598 5.38286 4.36142 0
M  V30 857 N 93.2528 4.25558 3.67228 0
M  V30 858 H 85.4038 2.07236 0.465499 0
M  V30 859 H 87.6668 0.909236 0.268315 0
M  V30 860 H 87.3728 3.15771 1.54861 0
M  V30 861 H 87.2468 2.23698 3.03709 0
M  V30 862 H 89.6338 1.33078 2.6339 0
M  V30 863 H 89.7148 2.28645 1.14696 0
M  V30 864 H 89.3588 4.41029 2.51905 0
M  V30 865 H 89.2888 3.42393 4.00093 0
M  V30 866 H 91.7798 2.74966 2.59233 0
M  V30 867 H 92.0928 6.03352 4.82894 0
M  V30 868 H 90.4378 5.42176 4.34822 0
M  V30 869 H 93.6288 3.46322 3.14927 0
M  V30 870 H 93.8018 4.96054 4.16935 0
M  V30 871 N 87.2079 -1.17134 1.05439 0
M  V30 872 C 88.4379 -1.91094 0.785274 0
M  V30 873 C 88.8459 -1.77198 -0.663142 0
M  V30 874 O 88.1889 -1.10835 -1.46497 0
M  V30 875 C 88.2509 -3.42594 1.08949 0
M  V30 876 C 87.9149 -3.80274 2.53458 0
M  V30 877 C 88.9119 -3.82912 3.51673 0
M  V30 878 C 86.5969 -4.11162 2.88532 0
M  V30 879 C 88.5909 -4.15913 4.83006 0
M  V30 880 C 86.2779 -4.43831 4.20068 0
M  V30 881 C 87.2759 -4.46185 5.17115 0
M  V30 882 O 86.9639 -4.78083 6.46291 0
M  V30 883 H 86.6959 -0.613073 0.284811 0
M  V30 884 H 89.2499 -1.49461 1.40893 0
M  V30 885 H 87.4799 -3.84534 0.408741 0
M  V30 886 H 89.1689 -3.97817 0.805991 0
M  V30 887 H 89.9349 -3.5917 3.25917 0
M  V30 888 H 85.8139 -4.085 2.13656 0
M  V30 889 H 89.3579 -4.17665 5.5875 0
M  V30 890 H 85.2549 -4.67037 4.45586 0
M  V30 891 H 86.0229 -4.9593 6.51149 0
M  V30 892 N 88.686 -0.835752 -1.33615 0
M  V30 893 C 89.633 -0.26473 -2.29277 0
M  V30 894 C 90.603 0.617712 -1.54187 0
M  V30 895 O 91.788 0.556641 -1.825 0
M  V30 896 C 88.928 0.556777 -3.40579 0
M  V30 897 C 88.041 -0.349339 -4.30585 0
M  V30 898 C 87.176 0.482969 -5.29 0
M  V30 899 C 86.215 -0.421732 -6.10645 0
M  V30 900 N 85.352 0.372262 -7.01112 0
M  V30 901 H 90.192 -1.08582 -2.77514 0
M  V30 902 H 87.729 -0.546927 -1.36554 0
M  V30 903 H 89.687 1.04852 -4.03809 0
M  V30 904 H 88.317 1.34286 -2.93542 0
M  V30 905 H 87.369 -0.959372 -3.68104 0
M  V30 906 H 88.681 -1.04445 -4.87742 0
M  V30 907 H 87.835 1.03866 -5.97743 0
M  V30 908 H 86.574 1.21153 -4.72412 0
M  V30 909 H 85.579 -0.989464 -5.40823 0
M  V30 910 H 86.804 -1.14861 -6.69316 0
M  V30 911 H 84.75 1.08426 -6.46977 0
M  V30 912 H 84.667 -0.264198 -7.55538 0
M  V30 913 H 85.935 0.910293 -7.74167 0
M  V30 914 N 90.1641 1.46063 -0.591896 0
M  V30 915 C 91.1111 2.30399 0.136069 0
M  V30 916 C 92.0811 1.41169 0.875238 0
M  V30 917 O 93.2661 1.70112 0.86409 0
M  V30 918 C 90.4061 3.25804 1.13781 0
M  V30 919 C 89.5191 4.30134 0.401137 0
M  V30 920 C 88.6541 5.12659 1.39121 0
M  V30 921 C 87.6931 6.0873 0.641462 0
M  V30 922 N 86.8301 6.8409 1.58004 0
M  V30 923 H 91.6701 2.92118 -0.589144 0
M  V30 924 H 89.2071 1.43959 -0.302342 0
M  V30 925 H 91.1651 3.79569 1.73156 0
M  V30 926 H 89.7951 2.65872 1.83062 0
M  V30 927 H 88.8471 3.79152 -0.307826 0
M  V30 928 H 90.1591 4.98458 -0.184565 0
M  V30 929 H 89.3131 5.70747 2.05749 0
M  V30 930 H 88.0521 4.44316 2.01084 0
M  V30 931 H 87.0571 5.49786 -0.0385419 0
M  V30 932 H 88.2821 6.79095 0.0270945 0
M  V30 933 H 86.2281 6.18449 2.18761 0
M  V30 934 H 86.1451 7.48709 1.04738 0
M  V30 935 H 87.4131 7.4673 2.23639 0
M  V30 936 N 91.6422 0.330177 1.54103 0
M  V30 937 C 92.5922 -0.548456 2.21305 0
M  V30 938 C 93.5762 -1.07651 1.19583 0
M  V30 939 O 94.7682 -1.01243 1.45186 0
M  V30 940 C 91.8972 -1.70559 2.97934 0
M  V30 941 C 90.9832 -1.19212 4.07 0
M  V30 942 N 91.3742 -0.398831 5.04225 0
M  V30 943 C 89.6722 -1.47024 4.2107 0
M  V30 944 C 90.3732 -0.121761 5.81573 0
M  V30 945 N 89.3492 -0.709722 5.38947 0
M  V30 946 H 93.1512 0.0648483 2.93828 0
M  V30 947 H 90.6652 0.136363 1.61826 0
M  V30 948 H 92.6622 -2.34688 3.44568 0
M  V30 949 H 91.3222 -2.32231 2.26934 0
M  V30 950 H 92.3332 -0.0410869 5.17884 0
M  V30 951 H 89.0102 -2.09232 3.61287 0
M  V30 952 H 90.4002 0.517298 6.69906 0
M  V30 953 N 93.1203 -1.57491 0.0584922 0
M  V30 954 C 94.3673 -1.92978 -0.613648 0
M  V30 955 C 94.6953 -0.937461 -1.70417 0
M  V30 956 O 93.9503 0.049078 -1.95638 0
M  V30 957 C 94.2493 -3.3513 -1.24188 0
M  V30 958 C 93.9153 -4.50037 -0.278826 0
M  V30 959 C 92.5773 -4.81198 -0.0138447 0
M  V30 960 C 94.9293 -5.19807 0.380777 0
M  V30 961 C 92.2573 -5.79473 0.918052 0
M  V30 962 C 94.6093 -6.19079 1.30091 0
M  V30 963 C 93.2733 -6.48665 1.57449 0
M  V30 964 H 92.5433 -0.706157 -0.22455 0
M  V30 965 H 95.1903 -1.91082 0.126533 0
M  V30 966 H 93.4953 -3.33429 -2.05749 0
M  V30 967 H 95.1923 -3.59871 -1.769 0
M  V30 968 H 91.7823 -4.25726 -0.495539 0
M  V30 969 H 95.9663 -4.95939 0.189158 0
M  V30 970 H 91.2223 -6.00727 1.1374 0
M  V30 971 H 95.3963 -6.7225 1.81804 0
M  V30 972 H 93.0233 -7.24628 2.29822 0
M  V30 973 N 94.5984 0.214957 -1.56127 0
M  V30 974 C 95.5454 1.26642 -1.92952 0
M  V30 975 C 96.5154 1.46244 -0.78753 0
M  V30 976 O 97.7004 1.59704 -1.04399 0
M  V30 977 C 94.8404 2.6104 -2.25726 0
M  V30 978 C 93.9534 2.49183 -3.52891 0
M  V30 979 C 93.0884 3.76149 -3.7508 0
M  V30 980 C 92.1274 3.59041 -4.95738 0
M  V30 981 N 91.2644 4.77972 -5.14283 0
M  V30 982 H 96.1044 0.945384 -2.82607 0
M  V30 983 H 93.6414 0.455489 -1.3987 0
M  V30 984 H 95.5994 3.39313 -2.42739 0
M  V30 985 H 94.2294 2.91227 -1.39236 0
M  V30 986 H 93.2814 1.6231 -3.44034 0
M  V30 987 H 94.5934 2.32466 -4.41318 0
M  V30 988 H 93.7474 4.62865 -3.92226 0
M  V30 989 H 92.4864 3.95799 -2.84947 0
M  V30 990 H 91.4914 2.7071 -4.78535 0
M  V30 991 H 92.7164 3.40856 -5.87362 0
M  V30 992 H 90.6624 4.97923 -4.27093 0
M  V30 993 H 90.5794 4.64006 -5.96853 0
M  V30 994 H 91.8474 5.66096 -5.35869 0
M  V30 995 N 96.0765 1.50051 0.48192 0
M  V30 996 C 97.0395 1.67584 1.5636 0
M  V30 997 C 98.0395 0.546894 1.51214 0
M  V30 998 O 99.2295 0.813725 1.54026 0
M  V30 999 C 96.3615 1.691 2.96003 0
M  V30 1000 H 97.5545 2.64078 1.42136 0
M  V30 1001 H 95.1075 1.39369 0.707533 0
M  V30 1002 H 95.8425 0.742589 3.15684 0
M  V30 1003 H 95.6275 2.51105 3.01146 0
M  V30 1004 H 97.1175 1.84656 3.74556 0
M  V30 1005 N 97.5546 -0.734337 1.39446 0
M  V30 1006 C 98.8036 -1.48937 1.36017 0
M  V30 1007 C 99.1166 -1.95557 -0.0409005 0
M  V30 1008 O 100.323 -2.70779 -0.19778 0
M  V30 1009 C 98.7786 -2.69125 2.38955 0
M  V30 1010 C 98.3866 -2.29452 3.8478 0
M  V30 1011 C 100.131 -3.46944 2.44603 0
M  V30 1012 C 98.0376 -3.46366 4.79358 0
M  V30 1013 H 96.9676 -0.559296 0.505672 0
M  V30 1014 H 99.6186 -0.800983 1.65095 0
M  V30 1015 H 98.0006 -3.40041 2.02948 0
M  V30 1016 H 99.1746 -1.66077 4.29831 0
M  V30 1017 H 97.4896 -1.64723 3.82433 0
M  V30 1018 H 100.087 -4.33907 3.12456 0
M  V30 1019 H 100.43 -3.89454 1.47076 0
M  V30 1020 H 100.963 -2.83056 2.79507 0
M  V30 1021 H 97.7016 -3.08905 5.78151 0
M  V30 1022 H 97.2216 -4.08719 4.38986 0
M  V30 1023 H 98.9006 -4.12691 4.98292 0
M  V30 1024 N 99.0327 -1.24633 -0.964593 0
M  V30 1025 C 100.449 -1.01239 -1.2338 0
M  V30 1026 C 100.649 0.2769 -1.99588 0
M  V30 1027 O 99.7047 0.992241 -2.32187 0
M  V30 1028 C 101.018 -2.22937 -2.01791 0
M  V30 1029 C 102.566 -2.27594 -2.14872 0
M  V30 1030 C 103.041 -3.48921 -2.96678 0
M  V30 1031 N 104.532 -3.49257 -3.04259 0
M  V30 1032 C 105.267 -4.39795 -3.67924 0
M  V30 1033 N 104.763 -5.40591 -4.33281 0
M  V30 1034 N 106.556 -4.275 -3.64966 0
M  V30 1035 H 98.7067 -2.0748 -0.454502 0
M  V30 1036 H 100.97 -0.910647 -0.26349 0
M  V30 1037 H 100.676 -3.16587 -1.53184 0
M  V30 1038 H 100.55 -2.25306 -3.02518 0
M  V30 1039 H 102.937 -1.34473 -2.6268 0
M  V30 1040 H 103.018 -2.2925 -1.13482 0
M  V30 1041 H 102.662 -4.42359 -2.49562 0
M  V30 1042 H 102.592 -3.4451 -3.98272 0
M  V30 1043 H 105.083 -2.76337 -2.57771 0
M  V30 1044 H 105.396 -6.05904 -4.79687 0
M  V30 1045 H 103.741 -5.44475 -4.3194 0
M  V30 1046 H 106.932 -3.47987 -3.13086 0
M  V30 1047 H 107.105 -4.98258 -4.14298 0
M  V30 1048 N 100.511 1.16574 -1.06058 0
M  V30 1049 C 101.759 1.86677 -0.77434 0
M  V30 1050 C 102.08 1.81959 0.701147 0
M  V30 1051 O 101.35 1.2515 1.50713 0
M  V30 1052 H 99.9298 0.691134 -0.283449 0
M  V30 1053 H 102.592 1.41378 -1.34158 0
M  V30 1054 H 101.688 2.92181 -1.09711 0
M  V30 1055 N 101.989 0.842826 1.3317 0
M  V30 1056 C 102.899 0.281444 2.32906 0
M  V30 1057 C 103.915 -0.594587 1.63526 0
M  V30 1058 O 105.091 -0.49777 1.95152 0
M  V30 1059 C 102.156 -0.530929 3.42611 0
M  V30 1060 C 101.217 0.369843 4.27704 0
M  V30 1061 C 100.45 -0.403853 5.3217 0
M  V30 1062 O 100.673 -1.63513 5.46461 0
M  V30 1063 O 99.6069 0.224199 6.01482 0
M  V30 1064 H 103.433 1.10744 2.82789 0
M  V30 1065 H 101.018 0.60545 1.36582 0
M  V30 1066 H 102.9 -0.992437 4.09547 0
M  V30 1067 H 101.575 -1.33392 2.94938 0
M  V30 1068 H 100.482 0.879275 3.6362 0
M  V30 1069 H 101.815 1.13771 4.78871 0
M  V30 1070 N 103.467 -1.45747 0.599634 0
M  V30 1071 C 104.417 -2.27538 -0.145107 0
M  V30 1072 C 105.401 -1.3686 -0.846055 0
M  V30 1073 O 106.593 -1.6091 -0.737357 0
M  V30 1074 C 103.722 -3.23569 -1.14708 0
M  V30 1075 C 102.808 -4.21734 -0.447383 0
M  V30 1076 N 103.199 -5.03257 0.506535 0
M  V30 1077 C 101.497 -4.40536 -0.695966 0
M  V30 1078 C 102.198 -5.74426 0.917068 0
M  V30 1079 N 101.174 -5.42966 0.26253 0
M  V30 1080 H 104.976 -2.87965 0.587672 0
M  V30 1081 H 102.49 -1.56803 0.422697 0
M  V30 1082 H 104.487 -3.8089 -1.69495 0
M  V30 1083 H 103.147 -2.64702 -1.8805 0
M  V30 1084 H 104.158 -5.10319 0.882899 0
M  V30 1085 H 100.835 -3.92802 -1.41467 0
M  V30 1086 H 102.225 -6.4995 1.70338 0
M  V30 1087 N 104.945 -0.338344 -1.53925 0
M  V30 1088 C 106.193 0.259245 -2.0043 0
M  V30 1089 C 106.514 1.51484 -1.22791 0
M  V30 1090 O 105.784 1.93037 -0.33368 0
M  V30 1091 H 104.364 0.0987845 -0.740439 0
M  V30 1092 H 107.026 -0.458302 -1.89435 0
M  V30 1093 H 106.122 0.505334 -3.07982 0
M  V30 1094 N 106.423 1.57458 -0.0668435 0
M  V30 1095 C 107.356 2.08033 0.93795 0
M  V30 1096 C 108.334 0.984321 1.29421 0
M  V30 1097 O 109.518 1.25736 1.40437 0
M  V30 1098 C 106.645 2.53388 2.24749 0
M  V30 1099 C 105.691 3.74376 2.04315 0
M  V30 1100 S 106.524 5.19303 1.30706 0
M  V30 1101 C 107.68 5.67986 2.62951 0
M  V30 1102 H 107.913 2.92935 0.50759 0
M  V30 1103 H 105.446 1.5371 0.145804 0
M  V30 1104 H 107.404 2.8018 3.00016 0
M  V30 1105 H 106.065 1.68763 2.64911 0
M  V30 1106 H 105.258 4.04083 3.01218 0
M  V30 1107 H 104.86 3.47931 1.37186 0
M  V30 1108 H 107.152 5.74528 3.5906 0
M  V30 1109 H 108.095 6.66955 2.3786 0
M  V30 1110 H 108.503 4.95781 2.69929 0
M  V30 1111 N 107.901 -0.206675 1.56239 0
M  V30 1112 C 109.126 -0.949474 1.8439 0
M  V30 1113 C 109.551 -1.76549 0.649016 0
M  V30 1114 O 108.909 -1.76782 -0.402231 0
M  V30 1115 C 108.957 -1.83078 3.10668 0
M  V30 1116 O 108.061 -2.9281 2.90407 0
M  V30 1117 H 107.402 -0.268033 0.607499 0
M  V30 1118 H 109.932 -0.215488 2.03462 0
M  V30 1119 H 109.942 -2.2377 3.41161 0
M  V30 1120 H 108.617 -1.23112 3.97261 0
M  V30 1121 H 107.194 -2.55956 2.71184 0
M  V30 1122 N 109.379 -1.50304 -0.473955 0
M  V30 1123 C 110.326 -1.68959 -1.57231 0
M  V30 1124 C 111.296 -0.530899 -1.57387 0
M  V30 1125 O 112.481 -0.761133 -1.74961 0
M  V30 1126 C 109.621 -1.7871 -2.95223 0
M  V30 1127 C 108.734 -3.06061 -3.04878 0
M  V30 1128 C 107.869 -3.06626 -4.33767 0
M  V30 1129 C 106.908 -4.28443 -4.37154 0
M  V30 1130 N 106.045 -4.26763 -5.5751 0
M  V30 1131 H 110.885 -2.6273 -1.40631 0
M  V30 1132 H 108.422 -1.30241 -0.683789 0
M  V30 1133 H 110.38 -1.82344 -3.75242 0
M  V30 1134 H 109.01 -0.883806 -3.10465 0
M  V30 1135 H 108.062 -3.11911 -2.17751 0
M  V30 1136 H 109.374 -3.96039 -3.0324 0
M  V30 1137 H 108.528 -3.08973 -5.22131 0
M  V30 1138 H 107.267 -2.14473 -4.3801 0
M  V30 1139 H 106.272 -4.2631 -3.47188 0
M  V30 1140 H 107.497 -5.2182 -4.34605 0
M  V30 1141 H 105.443 -3.37462 -5.62544 0
M  V30 1142 H 105.36 -5.10507 -5.57601 0
M  V30 1143 H 106.628 -4.33253 -6.48006 0
M  V30 1144 N 110.857 0.726932 -1.39834 0
M  V30 1145 C 111.805 1.86235 -1.39353 0
M  V30 1146 C 112.799 1.67144 -0.275555 0
M  V30 1147 O 114.005 1.74387 -0.44601 0
M  V30 1148 H 110.38 0.613174 -0.43534 0
M  V30 1149 H 112.351 1.83756 -2.35109 0
M  V30 1150 C 111.1 3.23995 -1.26185 0
M  V30 1151 H 110.423 3.39285 -2.11484 0
M  V30 1152 H 111.863 4.03609 -1.29907 0
M  V30 1153 C 110.322 3.36888 0.0290018 0
M  V30 1154 O 110.852 3.89152 0.99619 0
M  V30 1155 N 109.058 2.90446 0.0947437 0
M  V30 1156 H 108.605 2.48102 -0.693035 0
M  V30 1157 H 108.563 2.99451 0.957932 0
M  V30 1158 N 112.336 1.25143 0.95797 0
M  V30 1159 C 113.268 1.01023 2.05735 0
M  V30 1160 C 114.281 -0.0236902 1.62783 0
M  V30 1161 O 115.47 0.21448 1.77207 0
M  V30 1162 C 112.57 0.504595 3.35122 0
M  V30 1163 C 111.743 1.6039 4.06932 0
M  V30 1164 C 110.802 1.09922 5.14591 0
M  V30 1165 O 109.828 1.79293 5.40225 0
M  V30 1166 N 111.03 -0.0612545 5.80468 0
M  V30 1167 H 113.795 1.95683 2.26998 0
M  V30 1168 H 111.356 1.16303 1.12629 0
M  V30 1169 H 113.348 0.151516 4.04416 0
M  V30 1170 H 111.918 -0.347989 3.10657 0
M  V30 1171 H 111.138 2.12872 3.31782 0
M  V30 1172 H 112.426 2.34252 4.51667 0
M  V30 1173 H 111.824 -0.640985 5.62057 0
M  V30 1174 H 110.381 -0.355395 6.5083 0
M  V30 1175 N 113.814 -1.1601 1.06675 0
M  V30 1176 C 114.764 -2.18512 0.650888 0
M  V30 1177 C 115.748 -1.57677 -0.320441 0
M  V30 1178 O 116.94 -1.76482 -0.135266 0
M  V30 1179 C 114.069 -3.43273 0.0429255 0
M  V30 1180 C 113.155 -4.11176 1.03898 0
M  V30 1181 N 113.546 -4.54672 2.216 0
M  V30 1182 C 111.844 -4.37417 0.870779 0
M  V30 1183 C 112.545 -5.07248 2.84736 0
M  V30 1184 N 111.521 -5.0037 2.12441 0
M  V30 1185 H 115.323 -2.49863 1.54745 0
M  V30 1186 H 112.837 -1.32503 0.938975 0
M  V30 1187 H 114.834 -4.16006 -0.272857 0
M  V30 1188 H 113.494 -3.13408 -0.84884 0
M  V30 1189 H 114.505 -4.4828 2.59356 0
M  V30 1190 H 111.182 -4.17488 0.0313293 0
M  V30 1191 H 112.572 -5.50912 3.84636 0
M  V30 1192 N 115.292 -0.849877 -1.32721 0
M  V30 1193 C 116.54 -0.450032 -1.97026 0
M  V30 1194 C 116.861 0.996604 -1.67609 0
M  V30 1195 O 116.131 1.6958 -0.980786 0
M  V30 1196 H 114.711 -0.163426 -0.728904 0
M  V30 1197 H 117.373 -1.08526 -1.6189 0
M  V30 1198 H 116.469 -0.591146 -3.0645 0
M  V30 1199 N 116.77 1.45427 -0.607355 0
M  V30 1200 C 118.186 1.57283 -0.270985 0
M  V30 1201 C 118.386 1.59875 1.22647 0
M  V30 1202 O 117.442 1.52893 2.00948 0
M  V30 1203 C 118.755 2.85566 -0.941952 0
M  V30 1204 C 120.303 2.9924 -0.917849 0
M  V30 1205 C 120.778 4.30293 -1.56882 0
M  V30 1206 N 122.269 4.37051 -1.5343 0
M  V30 1207 C 123.004 5.37123 -2.00715 0
M  V30 1208 N 122.5 6.43734 -2.56084 0
M  V30 1209 N 124.293 5.28479 -1.91484 0
M  V30 1210 H 116.444 1.41988 -1.57966 0
M  V30 1211 H 118.707 0.67885 -0.661715 0
M  V30 1212 H 118.413 2.8955 -1.99633 0
M  V30 1213 H 118.287 3.74322 -0.465096 0
M  V30 1214 H 120.674 2.94822 0.127984 0
M  V30 1215 H 120.755 2.11895 -1.43297 0
M  V30 1216 H 120.399 4.35469 -2.61398 0
M  V30 1217 H 120.329 5.16454 -1.02873 0
M  V30 1218 H 122.82 3.60615 -1.12982 0
M  V30 1219 H 123.133 7.16341 -2.89958 0
M  V30 1220 H 121.478 6.44485 -2.60122 0
M  V30 1221 H 124.669 4.44098 -1.47967 0
M  V30 1222 H 124.842 6.0632 -2.28648 0
M  V30 1223 N 118.248 0.346503 1.53744 0
M  V30 1224 C 119.196 -0.52422 2.26616 0
M  V30 1225 C 120.19 -1.09948 1.28871 0
M  V30 1226 O 121.396 -1.04488 1.46568 0
M  V30 1227 H 117.771 -0.187743 0.728187 0
M  V30 1228 H 119.742 0.11239 2.98188 0
M  V30 1229 C 118.491 -1.66186 3.05414 0
M  V30 1230 H 117.814 -1.22848 3.80458 0
M  V30 1231 H 119.254 -2.24622 3.59612 0
M  V30 1232 C 117.713 -2.59302 2.1509 0
M  V30 1233 O 118.243 -3.61628 1.74895 0
M  V30 1234 N 116.449 -2.28055 1.8011 0
M  V30 1235 H 115.996 -1.44883 2.12994 0
M  V30 1236 H 115.954 -2.90615 1.19958 0
M  V30 1237 N 119.726 -1.57421 0.075193 0
M  V30 1238 C 120.689 -2.11791 -0.876203 0
M  V30 1239 C 121.689 -1.04268 -1.22412 0
M  V30 1240 O 122.879 -1.30242 -1.15684 0
M  V30 1241 C 120.011 -2.62207 -2.17854 0
M  V30 1242 H 121.204 -2.9716 -0.40444 0
M  V30 1243 H 118.757 -1.55333 -0.173557 0
M  V30 1244 H 119.492 -1.803 -2.6956 0
M  V30 1245 H 119.277 -3.40802 -1.93897 0
M  V30 1246 H 120.767 -3.04335 -2.85955 0
M  V30 1247 N 121.204 0.198386 -1.56346 0
M  V30 1248 C 122.481 0.944982 -1.71258 0
M  V30 1249 C 122.861 2.0151 -0.629048 0
M  V30 1250 O 122.209 2.25639 0.360473 0
M  V30 1251 C 122.419 1.5344 -3.1346 0
M  V30 1252 C 123.767 2.01778 -3.73591 0
M  V30 1253 O 124.791 1.63288 -3.16568 0
M  V30 1254 O 123.65 2.72594 -4.73661 0
M  V30 1255 H 120.744 0.442939 -0.69838 0
M  V30 1256 H 123.29 0.188342 -1.68652 0
M  V30 1257 H 122.062 0.762869 -3.83792 0
M  V30 1258 H 121.685 2.35596 -3.20282 0
M  V30 1259 N 122.682 1.50554 0.465978 0
M  V30 1260 C 123.959 1.5232 1.22712 0
M  V30 1261 C 124.339 0.270807 2.09356 0
M  V30 1262 O 123.687 -0.745541 2.15995 0
M  V30 1263 C 123.897 2.82175 2.05374 0
M  V30 1264 C 125.245 3.33033 2.6339 0
M  V30 1265 O 126.269 2.83531 2.15612 0
M  V30 1266 O 125.128 4.19336 3.50456 0
M  V30 1267 H 122.222 0.611183 0.557122 0
M  V30 1268 H 124.768 1.62847 0.477381 0
M  V30 1269 H 123.54 3.64797 1.41558 0
M  V30 1270 H 123.163 2.74675 2.87471 0
M  V30 1271 N 124.16 -0.719506 1.40217 0
M  V30 1272 C 125.093 -1.84298 1.34571 0
M  V30 1273 C 126.071 -1.61149 0.216741 0
M  V30 1274 O 127.255 -1.84212 0.399756 0
M  V30 1275 C 124.382 -3.20568 1.09335 0
M  V30 1276 C 123.428 -3.62551 2.24631 0
M  V30 1277 S 124.261 -3.7012 3.87004 0
M  V30 1278 C 125.417 -5.09154 3.64024 0
M  V30 1279 H 125.65 -1.88807 2.2965 0
M  V30 1280 H 123.183 -0.885901 1.26456 0
M  V30 1281 H 125.141 -3.99246 0.954602 0
M  V30 1282 H 123.802 -3.13696 0.159164 0
M  V30 1283 H 122.995 -4.61483 2.02606 0
M  V30 1284 H 122.597 -2.91119 2.34789 0
M  V30 1285 H 124.889 -5.95955 3.22248 0
M  V30 1286 H 125.832 -5.36213 4.62473 0
M  V30 1287 H 126.24 -4.79562 2.97793 0
M  V30 1288 N 125.638 -1.25649 -0.95132 0
M  V30 1289 C 126.884 -1.10757 -1.69884 0
M  V30 1290 C 127.217 0.350061 -1.91019 0
M  V30 1291 O 126.492 1.25783 -1.48354 0
M  V30 1292 C 126.775 -1.86606 -3.07978 0
M  V30 1293 C 126.628 -3.40217 -2.94232 0
M  V30 1294 C 127.947 -1.65182 -4.07925 0
M  V30 1295 H 125.066 -0.40374 -0.616574 0
M  V30 1296 H 127.708 -1.54521 -1.10558 0
M  V30 1297 H 125.858 -1.49409 -3.58621 0
M  V30 1298 H 127.53 -3.87108 -2.50889 0
M  V30 1299 H 125.773 -3.67759 -2.30078 0
M  V30 1300 H 126.444 -3.88505 -3.92133 0
M  V30 1301 H 128.92 -1.9757 -3.66204 0
M  V30 1302 H 127.796 -2.20683 -5.02583 0
M  V30 1303 H 128.057 -0.593933 -4.38092 0
M  V30 1304 N 127.117 1.15442 -1.07289 0
M  V30 1305 C 128.366 1.85557 -0.790669 0
M  V30 1306 C 128.679 1.83186 0.685739 0
M  V30 1307 O 129.885 2.48977 1.0827 0
M  V30 1308 C 128.341 3.33038 -1.36433 0
M  V30 1309 C 127.949 3.43856 -2.8717 0
M  V30 1310 C 129.693 4.0834 -1.1601 0
M  V30 1311 C 127.6 4.85482 -3.3773 0
M  V30 1312 H 126.53 0.695122 -0.292098 0
M  V30 1313 H 129.181 1.30219 -1.29287 0
M  V30 1314 H 127.563 3.88043 -0.789864 0
M  V30 1315 H 128.737 2.98961 -3.50655 0
M  V30 1316 H 127.052 2.81998 -3.06376 0
M  V30 1317 H 129.649 5.12859 -1.51262 0
M  V30 1318 H 129.992 4.16182 -0.0991007 0
M  V30 1319 H 130.525 3.59603 -1.70089 0
M  V30 1320 H 127.264 4.82823 -4.43353 0
M  V30 1321 H 126.784 5.30961 -2.78999 0
M  V30 1322 H 128.463 5.54335 -3.33648 0
M  V30 1323 N 128.595 0.856903 1.32268 0
M  V30 1324 C 129.542 0.301172 2.28827 0
M  V30 1325 C 130.512 -0.593104 1.5515 0
M  V30 1326 O 131.697 -0.527537 1.83362 0
M  V30 1327 C 128.837 -0.502523 3.41422 0
M  V30 1328 C 127.95 0.417797 4.29975 0
M  V30 1329 C 127.085 -0.398749 5.29701 0
M  V30 1330 C 126.124 0.518827 6.09897 0
M  V30 1331 N 125.261 -0.260674 7.01616 0
M  V30 1332 H 130.101 1.12983 2.75751 0
M  V30 1333 H 127.638 0.568582 1.35667 0
M  V30 1334 H 129.596 -0.984141 4.05426 0
M  V30 1335 H 128.226 -1.29599 2.95642 0
M  V30 1336 H 127.278 1.01781 3.66531 0
M  V30 1337 H 128.59 1.12191 4.86019 0
M  V30 1338 H 127.744 -0.943435 5.9932 0
M  V30 1339 H 126.483 -1.13622 4.7428 0
M  V30 1340 H 125.488 1.07538 5.39181 0
M  V30 1341 H 126.713 1.25495 6.67404 0
M  V30 1342 H 124.659 -0.981198 6.4862 0
M  V30 1343 H 124.576 0.384364 7.55022 0
M  V30 1344 H 125.844 -0.787014 7.75517 0
M  V30 1345 N 130.073 -1.45103 0.615059 0
M  V30 1346 C 131.319 -2.02483 0.113347 0
M  V30 1347 C 131.652 -1.48146 -1.25564 0
M  V30 1348 O 130.927 -0.659104 -1.82992 0
M  V30 1349 C 131.21 -3.60005 0.0825278 0
M  V30 1350 C 131.063 -4.2466 1.48271 0
M  V30 1351 C 132.382 -4.35972 -0.601401 0
M  V30 1352 H 129.501 -0.735764 0.0426632 0
M  V30 1353 H 132.143 -1.72868 0.788461 0
M  V30 1354 H 130.293 -3.85367 -0.492378 0
M  V30 1355 H 131.965 -4.10458 2.10527 0
M  V30 1356 H 130.208 -3.82772 2.04127 0
M  V30 1357 H 130.879 -5.336 1.41332 0
M  V30 1358 H 133.355 -4.15947 -0.112666 0
M  V30 1359 H 132.231 -5.45697 -0.592097 0
M  V30 1360 H 132.492 -4.09391 -1.66887 0
M  V30 1361 N 131.551 -0.354651 -1.53558 0
M  V30 1362 C 132.962 0.126902 -1.86268 0
M  V30 1363 C 133.313 1.49075 -1.27558 0
M  V30 1364 O 132.438 2.08105 -0.5934 0
M  V30 1365 C 133.033 0.237046 -3.3797 0
M  V30 1366 C 131.592 0.662842 -3.70518 0
M  V30 1367 C 130.739 -0.196652 -2.76602 0
M  V30 1368 H 133.69 -0.573849 -1.47962 0
M  V30 1369 H 133.711 1.06259 -3.65362 0
M  V30 1370 H 133.223 -0.755725 -3.80671 0
M  V30 1371 H 131.324 1.66424 -3.33367 0
M  V30 1372 H 131.437 0.445034 -4.77029 0
M  V30 1373 H 129.801 0.332763 -2.52517 0
M  V30 1374 H 130.584 -1.18676 -3.22135 0
M  V30 1375 N 133.029 1.57378 -0.0835403 0
M  V30 1376 C 134.44 1.81261 0.447358 0
M  V30 1377 C 134.791 0.998331 1.68902 0
M  V30 1378 O 133.916 0.224282 2.15235 0
M  V30 1379 C 134.511 3.28767 0.818386 0
M  V30 1380 C 133.07 3.53455 1.29409 0
M  V30 1381 C 132.217 2.75831 0.285024 0
M  V30 1382 H 135.168 1.5566 -0.309115 0
M  V30 1383 H 135.189 3.41459 1.67887 0
M  V30 1384 H 134.701 3.88006 -0.0855019 0
M  V30 1385 H 132.802 2.99534 2.21608 0
M  V30 1386 H 132.915 4.62128 1.2639 0
M  V30 1387 H 131.279 2.42947 0.764767 0
M  V30 1388 H 132.062 3.37813 -0.611341 0
M  V30 1389 N 134.507 -0.190092 1.56449 0
M  V30 1390 C 135.755 -0.907908 1.80559 0
M  V30 1391 C 136.076 -1.83583 0.657438 0
M  V30 1392 O 135.346 -1.93203 -0.323924 0
M  V30 1393 H 133.926 -0.338247 0.666032 0
M  V30 1394 H 136.588 -0.194403 1.93928 0
M  V30 1395 H 135.684 -1.49604 2.73907 0
M  V30 1396 N 135.985 -1.50799 -0.457987 0
M  V30 1397 C 137.213 -1.66218 -1.23203 0
M  V30 1398 C 137.628 -0.350894 -1.85511 0
M  V30 1399 O 136.985 0.668546 -1.69814 0
M  V30 1400 C 137.036 -2.76291 -2.33121 0
M  V30 1401 O 136.757 -4.02338 -1.73366 0
M  V30 1402 C 138.258 -3.028 -3.2377 0
M  V30 1403 H 135.478 -0.558361 -0.372121 0
M  V30 1404 H 138.022 -1.97099 -0.545179 0
M  V30 1405 H 136.177 -2.48068 -2.97558 0
M  V30 1406 H 136.591 -4.63312 -2.4585 0
M  V30 1407 H 138.065 -3.8345 -3.97077 0
M  V30 1408 H 138.542 -2.14385 -3.83322 0
M  V30 1409 H 139.148 -3.32604 -2.65056 0
M  V30 1410 N 137.463 0.71206 -1.40597 0
M  V30 1411 C 138.709 1.47416 -1.39271 0
M  V30 1412 C 139.042 1.942 0.00388791 0
M  V30 1413 O 138.317 1.68403 0.973179 0
M  V30 1414 C 138.6 2.69774 -2.38525 0
M  V30 1415 C 138.453 2.28861 -3.87224 0
M  V30 1416 C 139.772 3.71939 -2.35264 0
M  V30 1417 H 136.891 0.534713 -0.5072 0
M  V30 1418 H 139.533 0.812375 -1.71757 0
M  V30 1419 H 137.683 3.26238 -2.10953 0
M  V30 1420 H 139.355 1.77852 -4.25636 0
M  V30 1421 H 137.598 1.60824 -4.02887 0
M  V30 1422 H 138.269 3.16584 -4.52193 0
M  V30 1423 H 140.745 3.25113 -2.59694 0
M  V30 1424 H 139.621 4.55186 -3.06753 0
M  V30 1425 H 139.882 4.20484 -1.36549 0
M  V30 1426 N 138.941 1.26152 0.944643 0
M  V30 1427 C 140.187 1.11657 1.69294 0
M  V30 1428 C 140.52 -0.339926 1.91202 0
M  V30 1429 O 139.795 -1.24994 1.49019 0
M  V30 1430 C 140.078 1.88236 3.06984 0
M  V30 1431 C 139.931 3.41772 2.92424 0
M  V30 1432 C 141.25 1.67343 4.07043 0
M  V30 1433 H 138.369 0.407004 0.614424 0
M  V30 1434 H 141.011 1.55106 1.09737 0
M  V30 1435 H 139.161 1.51308 3.57824 0
M  V30 1436 H 140.833 3.88433 2.48832 0
M  V30 1437 H 139.076 3.68974 2.28124 0
M  V30 1438 H 139.747 3.90579 3.90067 0
M  V30 1439 H 142.223 1.99509 3.65151 0
M  V30 1440 H 141.099 2.23346 5.01406 0
M  V30 1441 H 141.36 0.617158 4.37771 0
M  V30 1442 N 140.419 -1.14872 1.07899 0
M  V30 1443 C 141.647 -1.89661 0.82683 0
M  V30 1444 C 142.062 -1.78312 -0.620519 0
M  V30 1445 O 141.419 -1.13888 -1.42604 0
M  V30 1446 C 141.47 -3.39817 1.23316 0
M  V30 1447 O 141.191 -3.50845 2.62372 0
M  V30 1448 C 142.692 -4.31615 1.0111 0
M  V30 1449 H 139.912 -0.60092 0.298557 0
M  V30 1450 H 142.456 -1.4551 1.43691 0
M  V30 1451 H 140.611 -3.8161 0.667286 0
M  V30 1452 H 141.025 -4.44076 2.79101 0
M  V30 1453 H 142.499 -5.35367 1.34486 0
M  V30 1454 H 142.976 -4.39169 -0.0522168 0
M  V30 1455 H 143.582 -3.95572 1.56215 0
M  V30 1456 N 141.898 -0.863906 -1.31812 0
M  V30 1457 C 143.175 -0.39275 -1.91616 0
M  V30 1458 C 143.555 1.12461 -1.7865 0
M  V30 1459 O 142.903 1.95045 -1.19037 0
M  V30 1460 C 143.113 -0.867385 -3.38049 0
M  V30 1461 C 144.461 -0.889966 -4.15168 0
M  V30 1462 O 145.485 -0.812635 -3.46806 0
M  V30 1463 O 144.344 -1.00079 -5.37258 0
M  V30 1464 H 141.438 -0.116358 -0.818773 0
M  V30 1465 H 143.984 -0.951418 -1.40521 0
M  V30 1466 H 142.756 -1.91081 -3.41473 0
M  V30 1467 H 142.379 -0.286687 -3.96565 0
M  V30 1468 N 143.376 1.44774 -0.622745 0
M  V30 1469 C 144.653 1.95522 -0.0551974 0
M  V30 1470 C 145.033 1.5649 1.41683 0
M  V30 1471 O 144.381 0.834848 2.12703 0
M  V30 1472 C 144.591 3.4796 -0.269242 0
M  V30 1473 C 145.939 4.24306 -0.158014 0
M  V30 1474 O 146.963 3.55637 -0.200162 0
M  V30 1475 O 145.822 5.46471 -0.0558693 0
M  V30 1476 H 142.916 0.826556 0.0271015 0
M  V30 1477 H 145.462 1.54866 -0.693864 0
M  V30 1478 H 144.234 3.6939 -1.29099 0
M  V30 1479 H 143.857 3.95543 0.403966 0
M  V30 1480 N 144.854 0.36279 1.53368 0
M  V30 1481 C 146.131 -0.284021 1.93527 0
M  V30 1482 C 146.511 -1.66628 1.29608 0
M  V30 1483 O 145.859 -2.23942 0.45413 0
M  V30 1484 C 146.069 -0.337028 3.47369 0
M  V30 1485 C 147.417 -0.578708 4.20638 0
M  V30 1486 O 148.441 -0.418352 3.53735 0
M  V30 1487 O 147.3 -0.89074 5.39192 0
M  V30 1488 H 144.394 -0.169743 0.809393 0
M  V30 1489 H 146.94 0.41537 1.64538 0
M  V30 1490 H 145.712 0.632217 3.86159 0
M  V30 1491 H 145.335 -1.08243 3.82582 0
M  V30 1492 N 146.332 -1.57332 0.0918853 0
M  V30 1493 C 147.56 -1.98574 -0.581048 0
M  V30 1494 C 147.975 -0.970903 -1.61923 0
M  V30 1495 O 147.332 0.0399054 -1.82456 0
M  V30 1496 C 147.383 -3.39872 -1.23164 0
M  V30 1497 O 147.104 -4.37469 -0.234989 0
M  V30 1498 C 148.605 -3.96099 -1.99049 0
M  V30 1499 H 145.825 -0.65261 -0.156018 0
M  V30 1500 H 148.369 -2.0379 0.170225 0
M  V30 1501 H 146.524 -3.35679 -1.93386 0
M  V30 1502 H 146.938 -5.19751 -0.70418 0
M  V30 1503 H 148.412 -4.97127 -2.39934 0
M  V30 1504 H 148.889 -3.3374 -2.85507 0
M  V30 1505 H 149.495 -4.03755 -1.3365 0
M  V30 1506 N 147.81 0.181792 -1.56548 0
M  V30 1507 C 148.757 1.22521 -1.95595 0
M  V30 1508 C 149.727 1.4454 -0.818373 0
M  V30 1509 O 150.912 1.57454 -1.07763 0
M  V30 1510 C 148.052 2.56193 -2.31212 0
M  V30 1511 C 147.165 2.41641 -3.58097 0
M  V30 1512 C 146.3 3.68108 -3.82975 0
M  V30 1513 C 145.339 3.48445 -5.03242 0
M  V30 1514 N 144.476 4.66956 -5.24306 0
M  V30 1515 H 149.316 0.885226 -2.84548 0
M  V30 1516 H 146.853 0.425718 -1.40805 0
M  V30 1517 H 148.811 3.34088 -2.49882 0
M  V30 1518 H 147.441 2.88208 -1.45382 0
M  V30 1519 H 146.493 1.54976 -3.474 0
M  V30 1520 H 147.805 2.23052 -4.46149 0
M  V30 1521 H 146.959 4.54441 -4.01956 0
M  V30 1522 H 145.698 3.89666 -2.93278 0
M  V30 1523 H 144.703 2.60499 -4.8417 0
M  V30 1524 H 145.928 3.2832 -5.9446 0
M  V30 1525 H 143.874 4.88752 -4.37559 0
M  V30 1526 H 143.791 4.51242 -6.06561 0
M  V30 1527 H 145.059 5.54602 -5.47756 0
M  V30 1528 N 149.288 1.51039 0.449983 0
M  V30 1529 C 150.22 1.67617 1.56324 0
M  V30 1530 C 151.233 0.557083 1.52972 0
M  V30 1531 O 152.422 0.830989 1.57977 0
M  V30 1532 C 149.522 1.66402 2.95235 0
M  V30 1533 C 148.695 2.9469 3.23229 0
M  V30 1534 C 147.754 2.85832 4.41799 0
M  V30 1535 O 146.78 3.59785 4.41071 0
M  V30 1536 N 147.982 2.00821 5.44657 0
M  V30 1537 H 150.747 2.63648 1.42512 0
M  V30 1538 H 148.308 1.48767 0.638737 0
M  V30 1539 H 150.3 1.58062 3.72557 0
M  V30 1540 H 148.87 0.780182 3.02708 0
M  V30 1541 H 148.09 3.16996 2.34323 0
M  V30 1542 H 149.378 3.79636 3.38754 0
M  V30 1543 H 148.776 1.40091 5.48079 0
M  V30 1544 H 147.333 1.98368 6.20881 0
M  V30 1545 N 150.766 -0.704594 1.40972 0
M  V30 1546 C 152.012 -1.46675 1.40051 0
M  V30 1547 C 152.345 -1.94199 0.00641102 0
M  V30 1548 O 151.62 -1.68916 -0.964235 0
M  V30 1549 C 151.903 -2.68505 2.39952 0
M  V30 1550 C 151.756 -2.26805 3.88432 0
M  V30 1551 C 153.075 -3.70686 2.37233 0
M  V30 1552 H 150.194 -0.532015 0.510028 0
M  V30 1553 H 152.836 -0.803255 1.72185 0
M  V30 1554 H 150.986 -3.25114 2.1268 0
M  V30 1555 H 152.658 -1.75592 4.26574 0
M  V30 1556 H 150.901 -1.58685 4.03734 0
M  V30 1557 H 151.572 -3.14181 4.53866 0
M  V30 1558 H 154.048 -3.23731 2.61415 0
M  V30 1559 H 152.924 -4.53553 3.09162 0
M  V30 1560 H 153.185 -4.19754 1.38777 0
M  V30 1561 N 152.244 -1.26651 -0.937939 0
M  V30 1562 C 153.493 -1.11775 -1.67897 0
M  V30 1563 C 153.806 0.33794 -1.92659 0
M  V30 1564 O 155.012 0.607434 -2.64618 0
M  V30 1565 C 153.468 -1.9523 -3.02346 0
M  V30 1566 C 153.076 -3.45393 -2.8532 0
M  V30 1567 C 154.82 -1.88972 -3.80118 0
M  V30 1568 C 152.727 -4.21083 -4.15263 0
M  V30 1569 H 151.657 -0.414696 -0.629717 0
M  V30 1570 H 154.308 -1.50988 -1.04283 0
M  V30 1571 H 152.69 -1.48853 -3.66959 0
M  V30 1572 H 153.864 -3.99561 -2.29537 0
M  V30 1573 H 152.179 -3.52921 -2.20988 0
M  V30 1574 H 154.776 -2.42805 -4.76392 0
M  V30 1575 H 155.119 -0.86113 -4.07296 0
M  V30 1576 H 155.652 -2.33189 -3.22285 0
M  V30 1577 H 152.391 -5.24425 -3.93267 0
M  V30 1578 H 151.911 -3.71695 -4.70747 0
M  V30 1579 H 153.59 -4.29706 -4.83696 0
M  V30 1580 N 153.722 1.14298 -1.08507 0
M  V30 1581 C 154.685 2.17607 -0.719711 0
M  V30 1582 C 155.685 1.58907 0.245997 0
M  V30 1583 O 156.875 1.74181 0.0254081 0
M  V30 1584 C 154.007 3.40842 -0.0627695 0
M  V30 1585 H 155.2 2.51443 -1.63452 0
M  V30 1586 H 152.753 1.28963 -0.88307 0
M  V30 1587 H 153.488 3.12587 0.863716 0
M  V30 1588 H 153.273 3.84713 -0.757504 0
M  V30 1589 H 154.763 4.17221 0.177786 0
M  V30 1590 N 155.201 0.870884 1.31352 0
M  V30 1591 C 156.478 0.402907 1.91405 0
M  V30 1592 C 156.858 -1.11512 1.79244 0
M  V30 1593 O 156.206 -1.94411 1.2007 0
M  V30 1594 C 156.416 0.885301 3.37585 0
M  V30 1595 C 157.764 0.911971 4.14691 0
M  V30 1596 O 158.788 0.831016 3.46371 0
M  V30 1597 O 157.647 1.02927 5.3672 0
M  V30 1598 H 154.741 0.120698 0.818145 0
M  V30 1599 H 157.287 0.958857 1.40014 0
M  V30 1600 H 156.059 1.92889 3.40455 0
M  V30 1601 H 155.682 0.307714 3.96407 0
M  V30 1602 N 156.679 -1.44442 0.630414 0
M  V30 1603 C 157.609 -2.33418 -0.0618083 0
M  V30 1604 C 158.59 -1.48165 -0.835541 0
M  V30 1605 O 159.775 -1.76886 -0.801564 0
M  V30 1606 C 156.905 -3.31222 -1.04449 0
M  V30 1607 C 155.859 -4.26288 -0.382436 0
M  V30 1608 C 155.185 -5.13954 -1.47497 0
M  V30 1609 C 156.485 -5.1744 0.710865 0
M  V30 1610 H 158.179 -2.91548 0.681184 0
M  V30 1611 H 155.725 -1.40191 0.329026 0
M  V30 1612 H 157.678 -3.92351 -1.53748 0
M  V30 1613 H 156.402 -2.71299 -1.81836 0
M  V30 1614 H 155.061 -3.6649 0.0899054 0
M  V30 1615 H 154.709 -4.50385 -2.2397 0
M  V30 1616 H 154.409 -5.7837 -1.03737 0
M  V30 1617 H 155.933 -5.77955 -1.96979 0
M  V30 1618 H 157.347 -5.72509 0.300996 0
M  V30 1619 H 155.744 -5.90455 1.07156 0
M  V30 1620 H 156.814 -4.58496 1.57829 0
M  V30 1621 N 158.157 -0.370918 -1.53173 0
M  V30 1622 C 159.385 0.217704 -2.05751 0
M  V30 1623 C 159.8 1.42018 -1.24404 0
M  V30 1624 O 159.157 1.80245 -0.286033 0
M  V30 1625 C 159.208 0.605954 -3.56385 0
M  V30 1626 O 158.929 -0.548734 -4.3465 0
M  V30 1627 C 160.43 1.2524 -4.25241 0
M  V30 1628 H 157.65 0.0371659 -0.66997 0
M  V30 1629 H 160.194 -0.530832 -1.9749 0
M  V30 1630 H 158.349 1.3044 -3.6478 0
M  V30 1631 H 158.763 -0.23376 -5.23979 0
M  V30 1632 H 160.237 1.47458 -5.3194 0
M  V30 1633 H 160.714 2.2143 -3.79296 0
M  V30 1634 H 161.32 0.595233 -4.21114 0
M  V30 1635 N 159.635 1.57281 -0.100228 0
M  V30 1636 C 160.545 2.17833 0.870965 0
M  V30 1637 C 161.561 1.14921 1.30649 0
M  V30 1638 O 162.737 1.47313 1.37335 0
M  V30 1639 C 159.802 2.75085 2.1102 0
M  V30 1640 C 158.863 3.9297 1.72838 0
M  V30 1641 C 158.096 4.47482 2.90854 0
M  V30 1642 O 158.319 4.00922 4.05731 0
M  V30 1643 O 157.253 5.38433 2.69023 0
M  V30 1644 H 161.079 3.0124 0.38575 0
M  V30 1645 H 158.664 1.48881 0.124397 0
M  V30 1646 H 160.546 3.11656 2.83634 0
M  V30 1647 H 159.221 1.94721 2.58584 0
M  V30 1648 H 158.128 3.61201 0.973883 0
M  V30 1649 H 159.461 4.74713 1.30033 0
M  V30 1650 N 161.113 -0.173488 1.56642 0
M  V30 1651 C 162.063 -1.21941 1.92651 0
M  V30 1652 C 163.047 -1.39912 0.794577 0
M  V30 1653 O 164.239 -1.41919 1.05773 0
M  V30 1654 C 161.368 -2.55935 2.28806 0
M  V30 1655 C 160.454 -2.41667 3.48508 0
M  V30 1656 N 160.845 -1.9711 4.65813 0
M  V30 1657 C 159.143 -2.72499 3.53072 0
M  V30 1658 C 159.844 -1.95253 5.47952 0
M  V30 1659 N 158.82 -2.37575 4.88937 0
M  V30 1660 H 162.622 -0.866581 2.80834 0
M  V30 1661 H 160.136 -0.381776 1.57849 0
M  V30 1662 H 162.133 -3.31511 2.52797 0
M  V30 1663 H 160.793 -2.92022 1.41961 0
M  V30 1664 H 161.804 -1.67481 4.90072 0
M  V30 1665 H 158.481 -3.12639 2.767 0
M  V30 1666 H 159.871 -1.6252 6.51948 0
M  V30 1667 N 162.591 -1.51276 -0.441967 0
M  V30 1668 C 163.839 -1.63392 -1.18943 0
M  V30 1669 C 164.16 -0.350159 -1.9183 0
M  V30 1670 O 163.43 0.633784 -1.85364 0
M  V30 1671 H 162.01 -0.602164 -0.442049 0
M  V30 1672 H 164.672 -1.88186 -0.507165 0
M  V30 1673 H 163.768 -2.45934 -1.92154 0
M  V30 1674 N 164.069 0.697108 -1.41344 0
M  V30 1675 C 165.001 1.8224 -1.39001 0
M  V30 1676 C 166.014 1.60152 -0.292428 0
M  V30 1677 O 167.203 1.69684 -0.554048 0
M  V30 1678 C 164.303 3.18976 -1.14489 0
M  V30 1679 C 163.476 3.68105 -2.36258 0
M  V30 1680 C 162.535 4.83506 -2.07625 0
M  V30 1681 O 161.561 4.95201 -2.8065 0
M  V30 1682 N 162.763 5.70637 -1.06555 0
M  V30 1683 H 165.528 1.84742 -2.35988 0
M  V30 1684 H 163.089 0.87937 -1.35936 0
M  V30 1685 H 165.081 3.93801 -0.932885 0
M  V30 1686 H 163.651 3.11508 -0.261043 0
M  V30 1687 H 162.871 2.84204 -2.7317 0
M  V30 1688 H 164.159 3.97667 -3.17393 0
M  V30 1689 H 163.557 5.63817 -0.461125 0
M  V30 1690 H 162.114 6.45368 -0.913444 0
M  V30 1691 N 165.547 1.27147 0.931209 0
M  V30 1692 C 166.963 1.04475 1.20653 0
M  V30 1693 C 167.163 -0.223885 2.00252 0
M  V30 1694 O 166.219 -0.930332 2.34736 0
M  V30 1695 C 167.532 2.28209 1.95809 0
M  V30 1696 C 169.08 2.33211 2.08762 0
M  V30 1697 C 169.555 3.56665 2.87323 0
M  V30 1698 N 171.046 3.57201 2.94892 0
M  V30 1699 C 171.781 4.49395 3.56134 0
M  V30 1700 N 171.277 5.51889 4.18796 0
M  V30 1701 N 173.07 4.37026 3.53504 0
M  V30 1702 H 165.221 2.08612 0.399333 0
M  V30 1703 H 167.484 0.917312 0.239253 0
M  V30 1704 H 167.19 3.20538 1.44736 0
M  V30 1705 H 167.064 2.33247 2.96438 0
M  V30 1706 H 169.451 1.41391 2.59023 0
M  V30 1707 H 169.532 2.32178 1.07364 0
M  V30 1708 H 169.176 4.4882 2.37746 0
M  V30 1709 H 169.106 3.54948 3.88998 0
M  V30 1710 H 171.597 2.83074 2.50354 0
M  V30 1711 H 171.91 6.18409 4.63454 0
M  V30 1712 H 170.255 5.55735 4.17353 0
M  V30 1713 H 173.446 3.56166 3.03749 0
M  V30 1714 H 173.619 5.09067 4.00942 0
M  V30 1715 N 167.025 -1.13721 1.09112 0
M  V30 1716 C 167.988 -2.17222 0.731241 0
M  V30 1717 C 168.988 -1.59035 -0.237566 0
M  V30 1718 O 170.178 -1.74192 -0.0161704 0
M  V30 1719 C 167.31 -3.40804 0.0808443 0
M  V30 1720 H 168.503 -2.50573 1.64783 0
M  V30 1721 H 166.056 -1.28493 0.889897 0
M  V30 1722 H 166.791 -3.1304 -0.847127 0
M  V30 1723 H 166.576 -3.84306 0.777896 0
M  V30 1724 H 168.066 -4.1731 -0.155657 0
M  V30 1725 N 168.503 -0.877838 -1.30888 0
M  V30 1726 C 169.749 -0.493426 -1.96706 0
M  V30 1727 C 170.082 0.953504 -1.6918 0
M  V30 1728 O 169.357 1.67266 -0.992594 0
M  V30 1729 C 169.64 -0.760429 -3.51979 0
M  V30 1730 C 169.493 -2.25747 -3.89048 0
M  V30 1731 C 170.812 -0.232148 -4.39487 0
M  V30 1732 H 167.931 -0.180746 -0.714493 0
M  V30 1733 H 170.573 -1.10052 -1.54882 0
M  V30 1734 H 168.723 -0.243715 -3.87735 0
M  V30 1735 H 170.395 -2.84204 -3.63354 0
M  V30 1736 H 168.638 -2.72694 -3.37373 0
M  V30 1737 H 169.309 -2.39491 -4.97341 0
M  V30 1738 H 171.785 -0.674314 -4.106 0
M  V30 1739 H 170.661 -0.448355 -5.47066 0
M  V30 1740 H 170.922 0.866297 -4.33529 0
M  V30 1741 N 169.982 1.44106 -0.638065 0
M  V30 1742 C 171.231 2.01194 -0.142744 0
M  V30 1743 C 171.544 1.50835 1.24532 0
M  V30 1744 O 172.75 2.00096 1.83504 0
M  V30 1745 C 171.206 3.59319 -0.20442 0
M  V30 1746 C 170.814 4.18674 -1.59423 0
M  V30 1747 C 172.558 4.23854 0.234079 0
M  V30 1748 C 170.465 5.69045 -1.61065 0
M  V30 1749 H 169.395 0.752367 -0.0495998 0
M  V30 1750 H 172.046 1.65246 -0.797881 0
M  V30 1751 H 170.428 3.92598 0.517946 0
M  V30 1752 H 171.602 3.96921 -2.34074 0
M  V30 1753 H 169.917 3.66453 -1.97741 0
M  V30 1754 H 172.514 5.34155 0.241443 0
M  V30 1755 H 172.857 3.96688 1.2627 0
M  V30 1756 H 173.39 3.95403 -0.436025 0
M  V30 1757 H 170.129 6.00956 -2.61787 0
M  V30 1758 H 169.649 5.929 -0.90718 0
M  V30 1759 H 171.328 6.32809 -1.34766 0
M  V30 1760 N 171.46 0.379036 1.52974 0
M  V30 1761 C 172.423 -0.448865 2.24762 0
M  V30 1762 C 173.423 -0.998689 1.26027 0
M  V30 1763 O 174.613 -0.882313 1.50203 0
M  V30 1764 C 171.745 -1.62872 2.99476 0
M  V30 1765 H 172.938 0.179491 2.99362 0
M  V30 1766 H 170.491 0.13096 1.5575 0
M  V30 1767 H 171.226 -2.29479 2.29151 0
M  V30 1768 H 171.011 -1.24128 3.71934 0
M  V30 1769 H 172.501 -2.2151 3.5401 0
M  V30 1770 N 172.938 -1.57226 0.108567 0
M  V30 1771 C 174.354 -1.5766 -0.248058 0
M  V30 1772 C 174.554 -1.12063 -1.67464 0
M  V30 1773 O 173.61 -0.803236 -2.39383 0
M  V30 1774 C 174.923 -3.0069 -0.0242287 0
M  V30 1775 C 176.471 -3.12868 -0.0909372 0
M  V30 1776 C 176.946 -4.57879 0.105067 0
M  V30 1777 N 178.437 -4.63172 0.0506846 0
M  V30 1778 C 179.172 -5.73126 0.177396 0
M  V30 1779 N 178.668 -6.91866 0.359696 0
M  V30 1780 N 180.461 -5.61977 0.117709 0
M  V30 1781 H 172.612 -1.85169 1.04049 0
M  V30 1782 H 174.875 -0.85529 0.40888 0
M  V30 1783 H 174.581 -3.38299 0.961604 0
M  V30 1784 H 174.455 -3.6945 -0.76068 0
M  V30 1785 H 176.842 -2.75124 -1.06729 0
M  V30 1786 H 176.923 -2.46672 0.677225 0
M  V30 1787 H 176.567 -4.96321 1.07834 0
M  V30 1788 H 176.497 -5.22153 -0.682954 0
M  V30 1789 H 178.988 -3.778 -0.0871266 0
M  V30 1790 H 179.301 -7.71503 0.447529 0
M  V30 1791 H 177.646 -6.93874 0.395536 0
M  V30 1792 H 180.837 -4.68094 -0.0236741 0
M  V30 1793 H 181.01 -6.47627 0.219905 0
M  V30 1794 N 174.416 0.165178 -1.56732 0
M  V30 1795 C 175.664 0.879068 -1.8198 0
M  V30 1796 C 175.985 1.82514 -0.686561 0
M  V30 1797 O 175.255 1.93694 0.293146 0
M  V30 1798 H 173.835 0.327608 -0.671329 0
M  V30 1799 H 176.497 0.163526 -1.94213 0
M  V30 1800 H 175.593 1.45228 -2.76252 0
M  V30 1801 N 175.894 1.51508 0.433938 0
M  V30 1802 C 177.142 1.6402 1.18075 0
M  V30 1803 C 177.463 0.360328 1.91642 0
M  V30 1804 O 176.733 -0.623945 1.85698 0
M  V30 1805 H 175.313 0.6045 0.43885 0
M  V30 1806 H 177.975 1.88452 0.497178 0
M  V30 1807 H 177.071 2.46949 1.90847 0
M  V30 1808 N 177.372 -0.689602 1.41712 0
M  V30 1809 C 178.788 -1.00093 1.24312 0
M  V30 1810 C 178.988 -2.01036 0.136729 0
M  V30 1811 O 178.044 -2.47562 -0.496918 0
M  V30 1812 C 179.357 -1.51985 2.59463 0
M  V30 1813 C 180.905 -1.63838 2.66695 0
M  V30 1814 C 181.38 -2.1913 4.02177 0
M  V30 1815 N 182.871 -2.26483 4.04054 0
M  V30 1816 C 183.606 -2.70306 5.0569 0
M  V30 1817 N 183.102 -3.13691 6.17713 0
M  V30 1818 N 184.895 -2.69923 4.9305 0
M  V30 1819 H 177.046 -0.0210029 2.1239 0
M  V30 1820 H 179.309 -0.0718733 0.945272 0
M  V30 1821 H 179.015 -0.85269 3.41207 0
M  V30 1822 H 178.889 -2.50103 2.82362 0
M  V30 1823 H 181.276 -2.29664 1.85306 0
M  V30 1824 H 181.357 -0.642492 2.476 0
M  V30 1825 H 181.001 -1.53918 4.84016 0
M  V30 1826 H 180.931 -3.19482 4.18615 0
M  V30 1827 H 183.422 -1.95874 3.23174 0
M  V30 1828 H 183.735 -3.45773 6.9113 0
M  V30 1829 H 182.08 -3.11585 6.21241 0
M  V30 1830 H 185.271 -2.35382 4.04614 0
M  V30 1831 H 185.444 -3.03758 5.72394 0
M  V30 1832 N 178.85 -1.27639 -0.924453 0
M  V30 1833 C 180.098 -1.13941 -1.66918 0
M  V30 1834 C 180.419 0.314589 -1.92446 0
M  V30 1835 O 179.689 1.21964 -1.53303 0
M  V30 1836 H 178.269 -0.418678 -0.618642 0
M  V30 1837 H 180.931 -1.60213 -1.10985 0
M  V30 1838 H 180.027 -1.67094 -2.63602 0
M  V30 1839 N 180.328 1.1314 -1.09713 0
M  V30 1840 C 181.576 1.84119 -0.833338 0
M  V30 1841 C 181.897 1.84097 0.642904 0
M  V30 1842 O 181.167 1.29881 1.46655 0
M  V30 1843 H 179.747 0.681766 -0.305293 0
M  V30 1844 H 182.409 1.37038 -1.38588 0
M  V30 1845 H 181.505 2.88543 -1.18951 0
M  V30 1846 N 181.806 0.884767 1.30421 0
M  V30 1847 C 183.222 0.57874 1.48737 0
M  V30 1848 C 183.422 -0.883567 1.81095 0
M  V30 1849 O 182.478 -1.6648 1.89844 0
M  V30 1850 C 183.791 1.49171 2.61091 0
M  V30 1851 C 185.339 1.49532 2.74971 0
M  V30 1852 C 185.814 2.39421 3.90438 0
M  V30 1853 N 187.305 2.37383 3.97748 0
M  V30 1854 C 188.04 3.03647 4.86401 0
M  V30 1855 N 187.536 3.79136 5.79852 0
M  V30 1856 N 189.329 2.9288 4.79768 0
M  V30 1857 H 181.48 1.83075 1.0769 0
M  V30 1858 H 183.743 0.783637 0.533495 0
M  V30 1859 H 183.449 2.53291 2.44001 0
M  V30 1860 H 183.323 1.20113 3.57565 0
M  V30 1861 H 185.71 0.46163 2.91467 0
M  V30 1862 H 185.791 1.8262 1.79119 0
M  V30 1863 H 185.435 3.42874 3.74699 0
M  V30 1864 H 185.365 2.03649 4.85628 0
M  V30 1865 H 187.856 1.82525 3.30897 0
M  V30 1866 H 188.169 4.26789 6.4426 0
M  V30 1867 H 186.514 3.83243 5.79784 0
M  V30 1868 H 189.705 2.33433 4.05742 0
M  V30 1869 H 189.878 3.448 5.4865 0
M  V30 1870 N 183.284 -1.43765 0.645699 0
M  V30 1871 C 184.532 -2.01499 0.155731 0
M  V30 1872 C 184.853 -1.51151 -1.232 0
M  V30 1873 O 184.123 -0.721044 -1.82148 0
M  V30 1874 H 182.703 -0.745003 0.0545817 0
M  V30 1875 H 185.365 -1.76075 0.835677 0
M  V30 1876 H 184.461 -3.1181 0.134577 0
M  V30 1877 N 184.763 -0.387143 -1.52771 0
M  V30 1878 C 185.711 0.463953 -2.27926 0
M  V30 1879 C 186.705 1.06493 -1.31741 0
M  V30 1880 O 187.911 1.00565 -1.49287 0
M  V30 1881 H 184.286 0.16837 -0.732909 0
M  V30 1882 H 186.257 -0.19141 -2.97785 0
M  V30 1883 C 185.006 1.5803 -3.09713 0
M  V30 1884 H 184.329 1.12718 -3.83581 0
M  V30 1885 H 185.769 2.15008 -3.65442 0
M  V30 1886 C 184.228 2.53509 -2.2189 0
M  V30 1887 O 184.758 3.56863 -1.84422 0
M  V30 1888 N 182.964 2.23199 -1.86093 0
M  V30 1889 H 182.511 1.39185 -2.16761 0
M  V30 1890 H 182.469 2.87333 -1.27621 0
M  V30 1891 N 186.241 1.57166 -0.116904 0
M  V30 1892 C 187.466 1.999 0.55271 0
M  V30 1893 C 187.891 0.996039 1.59564 0
M  V30 1894 O 187.249 -0.032556 1.81271 0
M  V30 1895 C 187.297 3.4152 1.15742 0
M  V30 1896 O 186.401 3.44106 2.27299 0
M  V30 1897 H 185.742 0.649447 0.138258 0
M  V30 1898 H 188.272 2.03573 -0.204759 0
M  V30 1899 H 188.282 3.79684 1.49346 0
M  V30 1900 H 186.957 4.14034 0.393493 0
M  V30 1901 H 185.534 3.17759 1.9515 0
M  V30 1902 N 187.719 -0.156864 1.56817 0
M  V30 1903 C 189.135 -0.50916 1.5126 0
M  V30 1904 C 189.335 -1.83897 0.823658 0
M  V30 1905 O 188.391 -2.49469 0.390055 0
M  V30 1906 C 189.704 -0.52857 2.96018 0
M  V30 1907 C 191.252 -0.614771 3.06903 0
M  V30 1908 C 191.727 -0.664938 4.53147 0
M  V30 1909 N 193.218 -0.727433 4.57452 0
M  V30 1910 C 193.953 -0.787067 5.67973 0
M  V30 1911 N 193.449 -0.806649 6.88088 0
M  V30 1912 N 195.242 -0.827195 5.5598 0
M  V30 1913 H 187.393 0.714935 2.00006 0
M  V30 1914 H 189.656 0.259526 0.911784 0
M  V30 1915 H 189.362 0.380154 3.49639 0
M  V30 1916 H 189.236 -1.36998 3.51442 0
M  V30 1917 H 191.623 -1.51392 2.53307 0
M  V30 1918 H 191.704 0.253597 2.5454 0
M  V30 1919 H 191.348 0.230011 5.07379 0
M  V30 1920 H 191.278 -1.54966 5.03282 0
M  V30 1921 H 193.769 -0.719998 3.70978 0
M  V30 1922 H 194.082 -0.853727 7.6807 0
M  V30 1923 H 192.427 -0.774687 6.90669 0
M  V30 1924 H 195.618 -0.808998 4.61056 0
M  V30 1925 H 195.791 -0.870206 6.4213 0
M  V30 1926 N 189.197 -1.51736 -0.425897 0
M  V30 1927 C 190.444 -1.6497 -1.17436 0
M  V30 1928 C 190.772 -0.371445 -1.9092 0
M  V30 1929 O 190.027 0.644963 -1.84767 0
M  V30 1930 C 190.326 -2.81103 -2.20717 0
M  V30 1931 C 189.992 -4.19954 -1.64162 0
M  V30 1932 C 188.654 -4.57725 -1.48462 0
M  V30 1933 C 191.006 -5.06552 -1.22696 0
M  V30 1934 C 188.334 -5.79789 -0.897873 0
M  V30 1935 C 190.686 -6.29205 -0.654464 0
M  V30 1936 C 189.35 -6.6574 -0.484456 0
M  V30 1937 H 188.62 -0.603668 -0.429727 0
M  V30 1938 H 191.267 -1.85798 -0.463829 0
M  V30 1939 H 189.572 -2.54542 -2.97852 0
M  V30 1940 H 191.269 -2.8854 -2.78471 0
M  V30 1941 H 187.859 -3.90181 -1.77361 0
M  V30 1942 H 192.043 -4.77968 -1.33642 0
M  V30 1943 H 187.299 -6.06733 -0.75402 0
M  V30 1944 H 191.473 -6.95643 -0.324694 0
M  V30 1945 H 189.1 -7.60195 -0.0276833 0
M  V30 1946 N 190.675 0.682077 -1.42076 0
M  V30 1947 C 191.638 1.77756 -1.44691 0
M  V30 1948 C 192.638 1.5726 -0.335535 0
M  V30 1949 O 193.828 1.63686 -0.596037 0
M  V30 1950 C 190.96 3.16301 -1.27146 0
M  V30 1951 H 192.153 1.76826 -2.42224 0
M  V30 1952 H 189.706 0.891012 -1.28416 0
M  V30 1953 H 190.441 3.22862 -0.305075 0
M  V30 1954 H 190.226 3.32581 -2.07683 0
M  V30 1955 H 191.716 3.96241 -1.31843 0
M  V30 1956 N 192.153 1.28127 0.917671 0
M  V30 1957 C 193.381 1.17892 1.70026 0
M  V30 1958 C 193.796 -0.262958 1.8696 0
M  V30 1959 O 193.153 -1.17811 1.3938 0
M  V30 1960 C 193.204 1.86872 3.09453 0
M  V30 1961 O 192.925 3.25428 2.93306 0
M  V30 1962 C 194.426 1.8289 4.03815 0
M  V30 1963 H 191.646 0.40942 0.531617 0
M  V30 1964 H 194.19 1.69181 1.14883 0
M  V30 1965 H 192.345 1.39464 3.61426 0
M  V30 1966 H 192.759 3.59918 3.81523 0
M  V30 1967 H 194.233 2.35751 4.99125 0
M  V30 1968 H 194.71 0.800412 4.31845 0
M  V30 1969 H 195.316 2.29959 3.57769 0
M  V30 1970 N 193.631 -1.12557 1.10312 0
M  V30 1971 C 195.042 -1.65574 0.862678 0
M  V30 1972 C 195.393 -1.86566 -0.607256 0
M  V30 1973 O 194.518 -1.59121 -1.46662 0
M  V30 1974 C 195.113 -3.00776 1.55947 0
M  V30 1975 C 193.672 -3.50748 1.36576 0
M  V30 1976 C 192.819 -2.25797 1.60968 0
M  V30 1977 H 195.77 -0.963552 1.26101 0
M  V30 1978 H 195.791 -3.67185 0.997753 0
M  V30 1979 H 195.303 -2.85465 2.62928 0
M  V30 1980 H 193.404 -3.71245 0.317531 0
M  V30 1981 H 193.517 -4.30289 2.10686 0
M  V30 1982 H 191.881 -2.32841 1.03234 0
M  V30 1983 H 192.664 -2.13043 2.69198 0
M  V30 1984 N 195.109 -0.891671 -1.2995 0
M  V30 1985 C 196.072 -0.36828 -2.26222 0
M  V30 1986 C 197.072 0.493014 -1.53056 0
M  V30 1987 O 198.262 0.299213 -1.71611 0
M  V30 1988 C 195.394 0.47442 -3.37583 0
M  V30 1989 H 196.587 -1.21844 -2.74033 0
M  V30 1990 H 194.14 -0.669107 -1.41254 0
M  V30 1991 H 194.875 1.34489 -2.95099 0
M  V30 1992 H 194.66 -0.142615 -3.91841 0
M  V30 1993 H 196.15 0.83218 -4.09224 0
M  V30 1994 N 196.587 1.43421 -0.653314 0
M  V30 1995 C 197.535 2.32546 0.0501531 0
M  V30 1996 C 198.529 1.48617 0.812985 0
M  V30 1997 O 199.735 1.64825 0.723375 0
M  V30 1998 H 196.11 0.751185 0.0350032 0
M  V30 1999 H 198.081 2.89602 -0.719261 0
M  V30 2000 C 196.83 3.32925 1.00279 0
M  V30 2001 H 196.153 3.97532 0.425236 0
M  V30 2002 H 197.593 3.9792 1.46409 0
M  V30 2003 C 196.052 2.63532 2.09886 0
M  V30 2004 O 196.582 2.45092 3.18265 0
M  V30 2005 N 194.788 2.22905 1.86445 0
M  V30 2006 H 194.335 2.38103 0.98309 0
M  V30 2007 H 194.293 1.76805 2.59976 0
M  V30 2008 N 198.065 0.39524 1.52563 0
M  V30 2009 C 199.476 -0.0774719 1.86539 0
M  V30 2010 C 199.827 -1.45641 1.31466 0
M  V30 2011 O 198.952 -2.06459 0.648367 0
M  V30 2012 C 199.547 -0.147356 3.38479 0
M  V30 2013 C 198.106 -0.564373 3.72145 0
M  V30 2014 C 197.253 0.269919 2.75983 0
M  V30 2015 H 200.204 0.612876 1.46388 0
M  V30 2016 H 200.225 -0.965343 3.68051 0
M  V30 2017 H 199.737 0.856387 3.78534 0
M  V30 2018 H 197.838 -1.57527 3.37663 0
M  V30 2019 H 197.951 -0.318402 4.78041 0
M  V30 2020 H 196.315 -0.265696 2.5331 0
M  V30 2021 H 197.098 1.27175 3.18875 0
M  V30 2022 N 199.544 -1.57102 0.125237 0
M  V30 2023 C 200.507 -2.14471 -0.80838 0
M  V30 2024 C 201.507 -1.0811 -1.19033 0
M  V30 2025 O 202.697 -1.33856 -1.11482 0
M  V30 2026 C 199.829 -2.69005 -2.09402 0
M  V30 2027 H 201.022 -2.98297 -0.309696 0
M  V30 2028 H 198.575 -1.55807 -0.124051 0
M  V30 2029 H 199.31 -1.88785 -2.63687 0
M  V30 2030 H 199.095 -3.46799 -1.82957 0
M  V30 2031 H 200.585 -3.13278 -2.76128 0
M  V30 2032 N 201.022 0.148545 -1.56898 0
M  V30 2033 C 202.433 0.708766 -1.72723 0
M  V30 2034 C 202.784 1.81734 -0.739395 0
M  V30 2035 O 201.909 2.16194 0.0943169 0
M  V30 2036 C 202.504 1.29245 -3.13179 0
M  V30 2037 C 201.063 1.79925 -3.30611 0
M  V30 2038 C 200.21 0.687111 -2.68652 0
M  V30 2039 H 203.161 -0.0771063 -1.58513 0
M  V30 2040 H 203.182 2.16224 -3.13093 0
M  V30 2041 H 202.694 0.485382 -3.85053 0
M  V30 2042 H 200.795 2.63203 -2.63732 0
M  V30 2043 H 200.908 1.92903 -4.38549 0
M  V30 2044 H 199.272 1.11335 -2.29078 0
M  V30 2045 H 200.055 -0.108483 -3.43129 0
M  V30 2046 N 202.5 1.5196 0.417844 0
M  V30 2047 C 203.432 1.70895 1.52733 0
M  V30 2048 C 204.445 0.589405 1.51756 0
M  V30 2049 O 205.634 0.864312 1.56179 0
M  V30 2050 C 202.734 1.72627 2.91639 0
M  V30 2051 C 201.907 3.01479 3.16905 0
M  V30 2052 C 200.966 2.95139 4.35637 0
M  V30 2053 O 199.992 3.69059 4.3334 0
M  V30 2054 N 201.194 2.12328 5.40275 0
M  V30 2055 H 203.959 2.66612 1.36888 0
M  V30 2056 H 201.52 1.50089 0.607037 0
M  V30 2057 H 203.512 1.65928 3.6912 0
M  V30 2058 H 202.082 0.844216 3.00985 0
M  V30 2059 H 201.302 3.21895 2.27546 0
M  V30 2060 H 202.59 3.86736 3.30625 0
M  V30 2061 H 201.988 1.51685 5.44985 0
M  V30 2062 H 200.545 2.11494 6.16534 0
M  V30 2063 N 203.978 -0.674533 1.42435 0
M  V30 2064 C 204.908 -1.80009 1.48724 0
M  V30 2065 C 205.889 -1.6659 0.343793 0
M  V30 2066 O 207.074 -1.86007 0.558137 0
M  V30 2067 C 204.204 -3.18306 1.38919 0
M  V30 2068 C 203.158 -3.46461 2.51294 0
M  V30 2069 C 202.484 -4.84335 2.26547 0
M  V30 2070 C 203.784 -3.43328 3.93603 0
M  V30 2071 H 205.478 -1.75004 2.42928 0
M  V30 2072 H 203.024 -0.840533 1.16923 0
M  V30 2073 H 204.977 -3.9678 1.41927 0
M  V30 2074 H 203.701 -3.2399 0.412094 0
M  V30 2075 H 202.36 -2.70348 2.47604 0
M  V30 2076 H 202.008 -4.86669 1.2713 0
M  V30 2077 H 201.708 -5.04136 3.01861 0
M  V30 2078 H 203.232 -5.65094 2.31304 0
M  V30 2079 H 204.646 -4.11772 3.98894 0
M  V30 2080 H 203.043 -3.74664 4.68771 0
M  V30 2081 H 204.113 -2.41897 4.20255 0
M  V30 2082 N 205.456 -1.28612 -0.910864 0
M  V30 2083 C 206.681 -1.1891 -1.69927 0
M  V30 2084 C 207.106 0.248372 -1.86453 0
M  V30 2085 O 206.464 1.17961 -1.37676 0
M  V30 2086 C 206.512 -1.89578 -3.06745 0
M  V30 2087 O 205.616 -1.20521 -3.94396 0
M  V30 2088 H 204.957 -0.412632 -0.520222 0
M  V30 2089 H 207.487 -1.69985 -1.1387 0
M  V30 2090 H 207.497 -1.97597 -3.56958 0
M  V30 2091 H 206.172 -2.94136 -2.94035 0
M  V30 2092 H 204.749 -1.20684 -3.52831 0
M  V30 2093 N 206.934 1.1197 -1.10907 0
M  V30 2094 C 207.844 2.21433 -0.774896 0
M  V30 2095 C 208.86 1.72478 0.229657 0
M  V30 2096 O 210.036 2.01288 0.0672008 0
M  V30 2097 C 207.101 3.4602 -0.216986 0
M  V30 2098 C 206.162 4.09791 -1.27944 0
M  V30 2099 C 205.395 5.28431 -0.748055 0
M  V30 2100 O 205.618 5.68823 0.423833 0
M  V30 2101 O 204.552 5.82644 -1.51027 0
M  V30 2102 H 208.378 2.5242 -1.68873 0
M  V30 2103 H 205.963 1.20399 -0.884555 0
M  V30 2104 H 207.845 4.21304 0.090059 0
M  V30 2105 H 206.52 3.16698 0.669633 0
M  V30 2106 H 205.427 3.36265 -1.63941 0
M  V30 2107 H 206.76 4.4328 -2.13925 0
M  V30 2108 N 208.412 0.89855 1.29475 0
M  V30 2109 C 209.36 0.365253 2.29714 0
M  V30 2110 C 210.354 -0.534993 1.6073 0
M  V30 2111 O 211.56 -0.417921 1.75081 0
M  V30 2112 H 207.935 0.0994853 0.74539 0
M  V30 2113 H 209.906 1.22406 2.72138 0
M  V30 2114 C 208.655 -0.393159 3.4547 0
M  V30 2115 H 207.978 0.290332 3.98744 0
M  V30 2116 H 209.418 -0.731189 4.17648 0
M  V30 2117 C 207.877 -1.59539 2.9673 0
M  V30 2118 O 208.407 -2.69469 2.97908 0
M  V30 2119 N 206.613 -1.43716 2.52575 0
M  V30 2120 H 206.16 -0.542828 2.51816 0
M  V30 2121 H 206.118 -2.24288 2.20323 0
M  V30 2122 N 209.89 -1.43072 0.660911 0
M  V30 2123 C 211.138 -2.01323 0.177094 0
M  V30 2124 C 211.459 -1.5245 -1.2159 0
M  V30 2125 O 210.729 -0.740322 -1.81373 0
M  V30 2126 H 209.309 -0.744382 0.0624804 0
M  V30 2127 H 211.971 -1.75179 0.854305 0
M  V30 2128 H 211.067 -3.11649 0.167641 0
M  V30 2129 N 211.368 -0.403325 -1.52352 0
M  V30 2130 C 212.278 0.432009 -2.30588 0
M  V30 2131 C 213.294 1.05884 -1.38075 0
M  V30 2132 O 214.47 1.06161 -1.71148 0
M  V30 2133 C 211.535 1.53669 -3.10784 0
M  V30 2134 C 210.596 0.933525 -4.19027 0
M  V30 2135 C 209.829 1.98557 -4.9539 0
M  V30 2136 O 210.052 3.20283 -4.71991 0
M  V30 2137 O 208.986 1.59504 -5.80381 0
M  V30 2138 H 212.812 -0.205739 -3.03002 0
M  V30 2139 H 210.397 -0.166675 -1.48467 0
M  V30 2140 H 212.279 2.17814 -3.60742 0
M  V30 2141 H 210.954 2.15915 -2.41169 0
M  V30 2142 H 209.861 0.254954 -3.7323 0
M  V30 2143 H 211.194 0.35508 -4.90918 0
M  V30 2144 N 212.846 1.57033 -0.133567 0
M  V30 2145 C 214.257 1.82593 0.389464 0
M  V30 2146 C 214.608 1.05156 1.6564 0
M  V30 2147 O 213.733 0.292644 2.14412 0
M  V30 2148 C 214.328 3.31204 0.713377 0
M  V30 2149 C 212.887 3.57393 1.18098 0
M  V30 2150 C 212.034 2.76598 0.197126 0
M  V30 2151 H 214.985 1.54598 -0.358481 0
M  V30 2152 H 215.006 3.46627 1.56939 0
M  V30 2153 H 214.518 3.87537 -0.2089 0
M  V30 2154 H 212.619 3.06433 2.11966 0
M  V30 2155 H 212.732 4.65915 1.11624 0
M  V30 2156 H 211.096 2.45257 0.687088 0
M  V30 2157 H 211.879 3.35697 -0.718504 0
M  V30 2158 N 214.325 -0.140222 1.56975 0
M  V30 2159 C 215.573 -0.850005 1.83356 0
M  V30 2160 C 215.894 -1.81399 0.71551 0
M  V30 2161 O 215.164 -1.94136 -0.262294 0
M  V30 2162 H 213.744 -0.316886 0.676456 0
M  V30 2163 H 216.406 -0.132608 1.94448 0
M  V30 2164 H 215.502 -1.40814 2.78528 0
M  V30 2165 N 215.803 -1.52179 -0.40978 0
M  V30 2166 C 216.75 -1.75475 -1.49924 0
M  V30 2167 C 217.72 -0.597175 -1.54994 0
M  V30 2168 O 218.905 -0.834655 -1.71575 0
M  V30 2169 C 216.045 -1.9107 -2.87378 0
M  V30 2170 C 215.158 -3.18717 -2.91622 0
M  V30 2171 C 214.293 -3.24747 -4.20372 0
M  V30 2172 C 213.332 -4.46598 -4.18588 0
M  V30 2173 N 212.469 -4.50025 -5.38908 0
M  V30 2174 H 217.309 -2.68458 -1.29361 0
M  V30 2175 H 214.846 -1.33024 -0.627934 0
M  V30 2176 H 216.804 -1.98096 -3.6717 0
M  V30 2177 H 215.434 -1.01469 -3.06437 0
M  V30 2178 H 214.486 -3.20866 -2.04326 0
M  V30 2179 H 215.798 -4.08544 -2.86169 0
M  V30 2180 H 214.952 -3.30841 -5.08556 0
M  V30 2181 H 213.691 -2.32857 -4.28519 0
M  V30 2182 H 212.696 -4.40652 -3.28794 0
M  V30 2183 H 213.921 -5.39783 -4.12081 0
M  V30 2184 H 211.867 -3.61017 -5.47725 0
M  V30 2185 H 211.784 -5.33697 -5.35447 0
M  V30 2186 H 213.052 -4.60347 -6.29048 0
M  V30 2187 N 217.281 0.66697 -1.42791 0
M  V30 2188 C 218.191 1.80962 -1.49299 0
M  V30 2189 C 219.207 1.69775 -0.381108 0
M  V30 2190 O 220.383 1.91188 -0.633188 0
M  V30 2191 C 217.448 3.17156 -1.40045 0
M  V30 2192 C 216.509 3.40242 -2.6179 0
M  V30 2193 C 215.742 4.69939 -2.52969 0
M  V30 2194 O 215.965 5.48372 -1.56985 0
M  V30 2195 O 214.899 4.94441 -3.43237 0
M  V30 2196 H 218.725 1.78427 -2.45759 0
M  V30 2197 H 216.31 0.823713 -1.24641 0
M  V30 2198 H 218.192 3.98413 -1.37276 0
M  V30 2199 H 216.867 3.20312 -0.467138 0
M  V30 2200 H 215.774 2.58802 -2.70134 0
M  V30 2201 H 217.107 3.41923 -3.54047 0
M  V30 2202 N 218.759 1.29093 0.90403 0
M  V30 2203 C 220.175 1.07011 1.1841 0
M  V30 2204 C 220.375 -0.181358 2.00682 0
M  V30 2205 O 219.431 -0.880331 2.36657 0
M  V30 2206 C 220.744 2.32311 1.90924 0
M  V30 2207 C 222.292 2.37587 2.03768 0
M  V30 2208 C 222.767 3.62679 2.79693 0
M  V30 2209 N 224.258 3.63376 2.87249 0
M  V30 2210 C 224.993 4.56848 3.46522 0
M  V30 2211 N 224.489 5.60648 4.06996 0
M  V30 2212 N 226.282 4.44426 3.44154 0
M  V30 2213 H 218.433 2.09412 0.354993 0
M  V30 2214 H 220.696 0.922181 0.219742 0
M  V30 2215 H 220.402 3.23536 1.37905 0
M  V30 2216 H 220.276 2.39483 2.91424 0
M  V30 2217 H 222.663 1.46853 2.55965 0
M  V30 2218 H 222.744 2.34403 1.02415 0
M  V30 2219 H 222.388 4.53762 2.28173 0
M  V30 2220 H 222.318 3.63119 3.81381 0
M  V30 2221 H 224.809 2.88321 2.44293 0
M  V30 2222 H 225.122 6.28101 4.50232 0
M  V30 2223 H 223.467 5.64463 4.05471 0
M  V30 2224 H 226.658 3.62529 2.96126 0
M  V30 2225 H 226.831 5.17457 3.90054 0
M  V30 2226 N 220.237 -1.11381 1.11499 0
M  V30 2227 C 221.467 -1.86663 0.885464 0
M  V30 2228 C 221.875 -1.80464 -0.568281 0
M  V30 2229 O 221.218 -1.18445 -1.40415 0
M  V30 2230 C 221.28 -3.36337 1.26956 0
M  V30 2231 C 220.944 -3.66304 2.73259 0
M  V30 2232 C 221.941 -3.63733 3.71476 0
M  V30 2233 C 219.626 -3.9529 3.09921 0
M  V30 2234 C 221.62 -3.89725 5.04374 0
M  V30 2235 C 219.307 -4.20941 4.43004 0
M  V30 2236 C 220.305 -4.18147 5.40039 0
M  V30 2237 O 219.993 -4.43153 6.70724 0
M  V30 2238 H 219.725 -0.597114 0.316908 0
M  V30 2239 H 222.279 -1.41782 1.48617 0
M  V30 2240 H 220.509 -3.81826 0.611999 0
M  V30 2241 H 222.198 -3.92986 1.01573 0
M  V30 2242 H 222.964 -3.41389 3.44498 0
M  V30 2243 H 218.843 -3.966 2.35009 0
M  V30 2244 H 222.387 -3.8746 5.80104 0
M  V30 2245 H 218.284 -4.42761 4.69716 0
M  V30 2246 H 219.052 -4.60717 6.76522 0
M  V30 2247 N 221.715 -0.905404 -1.28997 0
M  V30 2248 C 222.964 -0.530191 -1.94607 0
M  V30 2249 C 223.277 0.929185 -1.72121 0
M  V30 2250 O 224.483 1.41218 -2.31883 0
M  V30 2251 C 222.939 -0.897333 -3.48534 0
M  V30 2252 C 222.547 -2.37587 -3.79811 0
M  V30 2253 C 224.291 -0.592304 -4.20347 0
M  V30 2254 C 222.198 -2.68357 -5.27009 0
M  V30 2255 H 221.128 -0.194558 -0.728466 0
M  V30 2256 H 223.779 -1.10318 -1.46636 0
M  V30 2257 H 222.161 -0.253214 -3.9519 0
M  V30 2258 H 223.335 -3.06602 -3.43994 0
M  V30 2259 H 221.65 -2.6505 -3.2115 0
M  V30 2260 H 224.247 -0.798975 -5.28697 0
M  V30 2261 H 224.59 0.469474 -4.13644 0
M  V30 2262 H 225.123 -1.19452 -3.79442 0
M  V30 2263 H 221.862 -3.73355 -5.38782 0
M  V30 2264 H 221.382 -2.03971 -5.64053 0
M  V30 2265 H 223.061 -2.54922 -5.94663 0
M  V30 2266 N 223.193 1.4272 -0.668489 0
M  V30 2267 C 224.439 2.01923 -0.188419 0
M  V30 2268 C 224.772 1.52704 1.19979 0
M  V30 2269 O 224.047 0.726566 1.8042 0
M  V30 2270 C 224.33 3.59451 -0.216085 0
M  V30 2271 C 224.183 4.18864 -1.6393 0
M  V30 2272 C 225.502 4.37903 0.439179 0
M  V30 2273 H 222.621 0.733674 -0.0699412 0
M  V30 2274 H 225.263 1.69822 -0.852076 0
M  V30 2275 H 223.413 3.86929 0.349012 0
M  V30 2276 H 225.085 4.02362 -2.25616 0
M  V30 2277 H 223.328 3.74933 -2.18193 0
M  V30 2278 H 223.999 5.27987 -1.61039 0
M  V30 2279 H 226.475 4.16079 -0.0417878 0
M  V30 2280 H 225.351 5.47519 0.389157 0
M  V30 2281 H 225.612 4.15303 1.51577 0
M  V30 2282 N 224.671 0.411399 1.52136 0
M  V30 2283 C 225.601 -0.404015 2.29978 0
M  V30 2284 C 226.582 -1.04412 1.34284 0
M  V30 2285 O 227.767 -1.0527 1.63192 0
M  V30 2286 C 224.897 -1.5197 3.12286 0
M  V30 2287 C 223.851 -1.00448 4.16046 0
M  V30 2288 C 223.177 -2.21393 4.86712 0
M  V30 2289 C 224.477 -0.0569336 5.22269 0
M  V30 2290 H 226.171 0.245529 2.98392 0
M  V30 2291 H 223.717 0.119525 1.43503 0
M  V30 2292 H 225.67 -2.09715 3.6551 0
M  V30 2293 H 224.394 -2.19716 2.41646 0
M  V30 2294 H 223.053 -0.449421 3.63835 0
M  V30 2295 H 222.701 -2.87699 4.12599 0
M  V30 2296 H 222.401 -1.87571 5.56858 0
M  V30 2297 H 223.925 -2.7974 5.4275 0
M  V30 2298 H 225.339 -0.54325 5.7072 0
M  V30 2299 H 223.736 0.192594 5.99791 0
M  V30 2300 H 224.806 0.887663 4.76706 0
M  V30 2301 N 226.149 -1.5696 0.141893 0
M  V30 2302 C 227.059 -2.20066 -0.812905 0
M  V30 2303 C 228.075 -1.18344 -1.27557 0
M  V30 2304 O 229.251 -1.50902 -1.33381 0
M  V30 2305 C 226.316 -2.80583 -2.03652 0
M  V30 2306 C 225.377 -3.97414 -1.62359 0
M  V30 2307 C 224.61 -4.55036 -2.78887 0
M  V30 2308 O 224.833 -4.11538 -3.94959 0
M  V30 2309 O 223.767 -5.45376 -2.54653 0
M  V30 2310 H 227.593 -3.02157 -0.305746 0
M  V30 2311 H 225.178 -1.49159 -0.0848799 0
M  V30 2312 H 227.06 -3.19067 -2.75272 0
M  V30 2313 H 225.735 -2.01508 -2.5333 0
M  V30 2314 H 224.642 -3.63656 -0.877775 0
M  V30 2315 H 225.975 -4.77994 -1.17401 0
M  V30 2316 N 227.627 0.131896 -1.57047 0
M  V30 2317 C 228.557 1.16384 -2.02428 0
M  V30 2318 C 229.538 1.43936 -0.90644 0
M  V30 2319 O 230.723 1.54599 -1.17528 0
M  V30 2320 C 227.853 2.49328 -2.4177 0
M  V30 2321 C 226.807 2.36266 -3.56879 0
M  V30 2322 C 226.133 3.74057 -3.8208 0
M  V30 2323 C 227.433 1.834 -4.89042 0
M  V30 2324 H 229.127 0.786433 -2.88887 0
M  V30 2325 H 226.673 0.376855 -1.38981 0
M  V30 2326 H 228.626 3.21759 -2.7212 0
M  V30 2327 H 227.35 2.88934 -1.52266 0
M  V30 2328 H 226.009 1.66286 -3.26718 0
M  V30 2329 H 225.657 4.11125 -2.89803 0
M  V30 2330 H 225.357 3.66174 -4.59554 0
M  V30 2331 H 226.881 4.48012 -4.1487 0
M  V30 2332 H 228.295 2.45636 -5.18011 0
M  V30 2333 H 226.692 1.8637 -5.70426 0
M  V30 2334 H 227.762 0.790662 -4.7841 0
M  V30 2335 N 229.106 1.52395 0.401703 0
M  V30 2336 C 230.053 1.76268 1.48991 0
M  V30 2337 C 231.023 0.605386 1.54675 0
M  V30 2338 O 232.208 0.843742 1.7113 0
M  V30 2339 C 229.348 1.92592 2.86361 0
M  V30 2340 C 228.461 3.20259 2.89928 0
M  V30 2341 C 227.596 3.26972 4.18644 0
M  V30 2342 C 226.635 4.48812 4.16214 0
M  V30 2343 N 225.772 4.52877 5.36514 0
M  V30 2344 H 230.612 2.6914 1.27935 0
M  V30 2345 H 228.149 1.33355 0.620871 0
M  V30 2346 H 230.107 2.0004 3.66115 0
M  V30 2347 H 228.737 1.03093 3.05895 0
M  V30 2348 H 227.789 3.21945 2.02621 0
M  V30 2349 H 229.101 4.10056 2.83999 0
M  V30 2350 H 228.255 3.33533 5.06794 0
M  V30 2351 H 226.994 2.35126 4.27278 0
M  V30 2352 H 225.999 4.4239 3.26453 0
M  V30 2353 H 227.224 5.41961 4.09213 0
M  V30 2354 H 225.17 3.63917 5.45802 0
M  V30 2355 H 225.087 5.36529 5.32609 0
M  V30 2356 H 226.355 4.63676 6.26597 0
M  V30 2357 N 230.584 -0.659388 1.43143 0
M  V30 2358 C 231.83 -1.42145 1.44647 0
M  V30 2359 C 232.163 -1.9408 0.0681907 0
M  V30 2360 O 231.438 -1.71899 -0.910007 0
M  V30 2361 C 231.721 -2.60735 2.48373 0
M  V30 2362 C 231.574 -2.14332 3.95451 0
M  V30 2363 C 232.893 -3.62951 2.48906 0
M  V30 2364 H 230.012 -0.51552 0.526696 0
M  V30 2365 H 232.654 -0.748069 1.74654 0
M  V30 2366 H 230.804 -3.18184 2.22916 0
M  V30 2367 H 232.476 -1.61932 4.31944 0
M  V30 2368 H 230.719 -1.4576 4.08578 0
M  V30 2369 H 231.39 -2.99583 4.63631 0
M  V30 2370 H 233.866 -3.1525 2.71582 0
M  V30 2371 H 232.742 -4.43487 3.23435 0
M  V30 2372 H 233.003 -4.15126 1.52061 0
M  V30 2373 N 232.062 -1.29571 -0.897171 0
M  V30 2374 C 232.992 -1.17473 -2.01798 0
M  V30 2375 C 233.973 -0.068323 -1.69963 0
M  V30 2376 O 235.158 -0.248239 -1.92607 0
M  V30 2377 C 232.288 -0.853099 -3.36659 0
M  V30 2378 C 231.242 -1.9161 -3.82713 0
M  V30 2379 C 230.568 -1.44773 -5.14728 0
M  V30 2380 C 231.868 -3.32535 -4.02763 0
M  V30 2381 H 233.562 -2.11237 -2.12177 0
M  V30 2382 H 231.108 -1.01699 -1.01948 0
M  V30 2383 H 233.061 -0.755165 -4.14578 0
M  V30 2384 H 231.785 0.120236 -3.26379 0
M  V30 2385 H 230.444 -2.00346 -3.07013 0
M  V30 2386 H 230.092 -0.462995 -5.00865 0
M  V30 2387 H 229.792 -2.15865 -5.46513 0
M  V30 2388 H 231.316 -1.36334 -5.95185 0
M  V30 2389 H 232.73 -3.26626 -4.71156 0
M  V30 2390 H 231.127 -4.01607 -4.45905 0
M  V30 2391 H 232.197 -3.75326 -3.07016 0
M  V30 2392 N 233.54 1.10788 -1.12088 0
M  V30 2393 C 234.503 2.15207 -0.788577 0
M  V30 2394 C 235.503 1.59609 0.195317 0
M  V30 2395 O 236.693 1.74174 -0.0300193 0
M  V30 2396 C 233.825 3.4047 -0.171174 0
M  V30 2397 H 235.018 2.46116 -1.71368 0
M  V30 2398 H 232.571 1.26089 -0.923652 0
M  V30 2399 H 233.306 3.15176 0.763832 0
M  V30 2400 H 233.091 3.82109 -0.879514 0
M  V30 2401 H 234.581 4.17576 0.04496 0
M  V30 2402 N 235.018 0.912232 1.28515 0
M  V30 2403 C 236.295 0.463597 1.90027 0
M  V30 2404 C 236.675 -1.05753 1.82701 0
M  V30 2405 O 236.023 -1.90492 1.26194 0
M  V30 2406 C 236.233 0.992253 3.34597 0
M  V30 2407 C 237.581 1.04344 4.11579 0
M  V30 2408 O 238.605 0.94079 3.43551 0
M  V30 2409 O 237.464 1.1995 5.33174 0
M  V30 2410 H 234.558 0.146666 0.813891 0
M  V30 2411 H 237.104 1.00292 1.36893 0
M  V30 2412 H 235.876 2.03623 3.34146 0
M  V30 2413 H 235.499 0.433672 3.95228 0
M  V30 2414 N 236.496 -1.42363 0.676048 0
M  V30 2415 C 237.742 -2.0182 0.199125 0
M  V30 2416 C 238.075 -1.53339 -1.19168 0
M  V30 2417 O 237.35 -0.736124 -1.80032 0
M  V30 2418 C 237.633 -3.59331 0.235144 0
M  V30 2419 C 237.486 -4.17989 1.66149 0
M  V30 2420 C 238.805 -4.3813 -0.41595 0
M  V30 2421 H 235.924 -0.733293 0.0738311 0
M  V30 2422 H 238.566 -1.69368 0.86107 0
M  V30 2423 H 236.716 -3.87109 -0.328487 0
M  V30 2424 H 238.388 -4.0116 2.27747 0
M  V30 2425 H 236.631 -3.7377 2.20178 0
M  V30 2426 H 237.302 -5.27126 1.63837 0
M  V30 2427 H 239.778 -4.16051 0.0638529 0
M  V30 2428 H 238.654 -5.47717 -0.360115 0
M  V30 2429 H 238.915 -4.16101 -1.49373 0
M  V30 2430 N 237.974 -0.419461 -1.51915 0
M  V30 2431 C 239.222 0.152637 -2.01523 0
M  V30 2432 C 239.543 1.44762 -1.30649 0
M  V30 2433 O 238.813 1.90997 -0.435535 0
M  V30 2434 H 237.393 0.0593966 -0.744635 0
M  V30 2435 H 240.055 -0.558073 -1.86739 0
M  V30 2436 H 239.151 0.341369 -3.10227 0
M  V30 2437 N 239.452 1.56882 -0.150215 0
M  V30 2438 C 240.382 2.19935 0.784284 0
M  V30 2439 C 241.363 1.14854 1.25469 0
M  V30 2440 O 242.548 1.43209 1.31168 0
M  V30 2441 C 239.678 2.82349 2.02229 0
M  V30 2442 C 238.632 3.93285 1.68853 0
M  V30 2443 C 237.958 4.42649 2.99944 0
M  V30 2444 C 239.258 5.13904 0.932714 0
M  V30 2445 H 240.952 2.9828 0.258781 0
M  V30 2446 H 238.498 1.43473 0.123029 0
M  V30 2447 H 240.451 3.25126 2.68088 0
M  V30 2448 H 239.175 2.0134 2.57157 0
M  V30 2449 H 237.834 3.5113 1.05371 0
M  V30 2450 H 237.482 3.58458 3.52869 0
M  V30 2451 H 237.182 5.17476 2.78374 0
M  V30 2452 H 238.706 4.88099 3.66868 0
M  V30 2453 H 240.12 5.53506 1.49345 0
M  V30 2454 H 238.517 5.94515 0.81684 0
M  V30 2455 H 239.587 4.84842 -0.0749568 0
M  V30 2456 N 240.93 -0.123565 1.57115 0
M  V30 2457 C 242.176 -0.833386 1.84885 0
M  V30 2458 C 242.509 -1.79742 0.735292 0
M  V30 2459 O 241.784 -1.92764 -0.25925 0
M  V30 2460 C 242.067 -1.5873 3.23228 0
M  V30 2461 C 241.92 -0.643183 4.45178 0
M  V30 2462 C 243.239 -2.54453 3.59085 0
M  V30 2463 H 240.358 -0.301518 0.6725 0
M  V30 2464 H 243 -0.097778 1.89748 0
M  V30 2465 H 241.15 -2.21438 3.19214 0
M  V30 2466 H 242.822 -0.0253015 4.61293 0
M  V30 2467 H 241.065 0.0456139 4.33776 0
M  V30 2468 H 241.736 -1.20724 5.38637 0
M  V30 2469 H 244.212 -2.01853 3.63861 0
M  V30 2470 H 243.088 -3.04238 4.5687 0
M  V30 2471 H 243.349 -3.36906 2.86264 0
M  V30 2472 N 242.408 -1.52605 -0.393616 0
M  V30 2473 C 243.656 -1.67093 -1.13685 0
M  V30 2474 C 243.977 -0.411011 -1.90619 0
M  V30 2475 O 243.247 0.574491 -1.87287 0
M  V30 2476 H 241.827 -0.615923 -0.422668 0
M  V30 2477 H 244.489 -1.89704 -0.447039 0
M  V30 2478 H 243.585 -2.51922 -1.84232 0
M  V30 2479 N 243.887 0.651787 -1.4349 0
M  V30 2480 C 245.134 1.41167 -1.45183 0
M  V30 2481 C 245.462 1.94349 -0.0766601 0
M  V30 2482 O 244.717 1.72804 0.918555 0
M  V30 2483 C 245.016 2.60914 -2.44251 0
M  V30 2484 C 244.682 2.26142 -3.9009 0
M  V30 2485 C 243.344 2.16371 -4.2981 0
M  V30 2486 C 245.696 1.98334 -4.81989 0
M  V30 2487 C 243.024 1.7695 -5.5938 0
M  V30 2488 C 245.376 1.6041 -6.11924 0
M  V30 2489 C 244.04 1.49166 -6.5062 0
M  V30 2490 H 243.31 0.516566 -0.531263 0
M  V30 2491 H 245.957 0.741099 -1.76579 0
M  V30 2492 H 244.262 3.3311 -2.06265 0
M  V30 2493 H 245.959 3.19127 -2.42815 0
M  V30 2494 H 242.549 2.34658 -3.58655 0
M  V30 2495 H 246.733 2.04803 -4.52072 0
M  V30 2496 H 241.989 1.66831 -5.88198 0
M  V30 2497 H 246.163 1.37925 -6.82605 0
M  V30 2498 H 243.79 1.1839 -7.50925 0
M  V30 2499 N 245.365 1.30045 0.890287 0
M  V30 2500 C 246.776 1.16738 1.45702 0
M  V30 2501 C 247.127 -0.233939 1.948 0
M  V30 2502 O 246.252 -1.13021 1.84541 0
M  V30 2503 C 246.847 2.11313 2.64825 0
M  V30 2504 C 245.406 2.02001 3.17604 0
M  V30 2505 C 244.553 2.01699 1.90296 0
M  V30 2506 H 247.504 1.42392 0.700726 0
M  V30 2507 H 247.525 1.69086 3.40867 0
M  V30 2508 H 247.037 3.13294 2.2906 0
M  V30 2509 H 245.138 1.03142 3.5804 0
M  V30 2510 H 245.251 2.90128 3.81264 0
M  V30 2511 H 243.615 1.46427 2.08402 0
M  V30 2512 H 244.398 3.05402 1.56795 0
M  V30 2513 N 246.843 -1.10192 1.12674 0
M  V30 2514 C 248.068 -1.86523 0.906853 0
M  V30 2515 C 248.493 -1.80221 -0.538711 0
M  V30 2516 O 247.851 -1.17396 -1.38158 0
M  V30 2517 C 247.899 -3.32758 1.3894 0
M  V30 2518 O 247.003 -4.08449 0.5695 0
M  V30 2519 H 246.344 -0.578678 0.325619 0
M  V30 2520 H 248.874 -1.39203 1.49946 0
M  V30 2521 H 248.884 -3.83608 1.38958 0
M  V30 2522 H 247.559 -3.36661 2.44197 0
M  V30 2523 H 246.136 -3.67427 0.636528 0
M  V30 2524 N 248.321 -0.919034 -1.28029 0
M  V30 2525 C 249.567 -0.555757 -1.95036 0
M  V30 2526 C 249.9 0.899198 -1.72128 0
M  V30 2527 O 249.175 1.64023 -1.04531 0
M  V30 2528 C 249.458 -0.872024 -3.49382 0
M  V30 2529 C 249.311 -2.3801 -3.81669 0
M  V30 2530 C 250.63 -0.37185 -4.38526 0
M  V30 2531 H 247.749 -0.203386 -0.708381 0
M  V30 2532 H 250.391 -1.14924 -1.51303 0
M  V30 2533 H 248.541 -0.366946 -3.86763 0
M  V30 2534 H 250.213 -2.9562 -3.54128 0
M  V30 2535 H 248.456 -2.83289 -3.28526 0
M  V30 2536 H 249.127 -2.55192 -4.8947 0
M  V30 2537 H 251.603 -0.804602 -4.08247 0
M  V30 2538 H 250.479 -0.622173 -5.45362 0
M  V30 2539 H 250.74 0.727934 -4.36066 0
M  V30 2540 N 249.799 1.42003 -0.683588 0
M  V30 2541 C 251.047 2.01015 -0.209101 0
M  V30 2542 C 251.368 1.54365 1.19149 0
M  V30 2543 O 250.638 0.769083 1.80172 0
M  V30 2544 H 249.218 0.743294 -0.074315 0
M  V30 2545 H 251.88 1.73798 -0.882066 0
M  V30 2546 H 250.976 3.11343 -0.2172 0
M  V30 2547 N 251.277 0.427512 1.51691 0
M  V30 2548 C 252.224 -0.388867 2.275 0
M  V30 2549 C 253.194 -1.02532 1.30677 0
M  V30 2550 O 254.379 -1.0461 1.59566 0
M  V30 2551 C 251.519 -1.48954 3.11298 0
M  V30 2552 C 250.632 -0.872194 4.23104 0
M  V30 2553 C 249.767 -1.94709 4.94228 0
M  V30 2554 C 248.806 -1.30766 5.97969 0
M  V30 2555 N 247.943 -2.32349 6.62539 0
M  V30 2556 H 252.783 0.263997 2.96828 0
M  V30 2557 H 250.32 0.142033 1.46413 0
M  V30 2558 H 252.278 -2.13887 3.58201 0
M  V30 2559 H 250.908 -2.11217 2.44105 0
M  V30 2560 H 249.96 -0.111419 3.80237 0
M  V30 2561 H 251.272 -0.365264 4.97461 0
M  V30 2562 H 250.426 -2.67327 5.44629 0
M  V30 2563 H 249.165 -2.48773 4.1948 0
M  V30 2564 H 248.17 -0.566902 5.4687 0
M  V30 2565 H 249.395 -0.774483 6.74669 0
M  V30 2566 H 247.341 -2.85511 5.90609 0
M  V30 2567 H 247.258 -1.8652 7.3263 0
M  V30 2568 H 248.526 -3.04481 7.17574 0
M  V30 2569 N 252.755 -1.56801 0.158532 0
M  V30 2570 C 253.98 -2.01295 -0.499516 0
M  V30 2571 C 254.405 -1.03799 -1.56867 0
M  V30 2572 O 253.763 -0.0155162 -1.81293 0
M  V30 2573 C 253.811 -3.44469 -1.06647 0
M  V30 2574 O 252.915 -3.50012 -2.18095 0
M  V30 2575 H 252.256 -0.652884 -0.12099 0
M  V30 2576 H 254.786 -2.02958 0.258661 0
M  V30 2577 H 254.796 -3.8351 -1.39227 0
M  V30 2578 H 253.471 -4.14932 -0.283581 0
M  V30 2579 H 252.048 -3.22822 -1.86656 0
M  V30 2580 N 254.233 0.115231 -1.57178 0
M  V30 2581 C 255.461 0.836437 -1.89239 0
M  V30 2582 C 255.876 1.73256 -0.750175 0
M  V30 2583 O 255.233 1.80357 0.278832 0
M  V30 2584 C 255.284 1.66671 -3.20785 0
M  V30 2585 O 255.005 0.806652 -4.3061 0
M  V30 2586 C 256.506 2.49274 -3.66575 0
M  V30 2587 H 253.726 0.240253 -0.626514 0
M  V30 2588 H 256.27 0.0984932 -2.04263 0
M  V30 2589 H 254.425 2.35737 -3.0742 0
M  V30 2590 H 254.839 1.37969 -5.06028 0
M  V30 2591 H 256.313 3.03055 -4.6137 0
M  V30 2592 H 256.79 3.26807 -2.93417 0
M  V30 2593 H 257.396 1.85443 -3.82741 0
M  V30 2594 N 255.711 1.52812 0.385517 0
M  V30 2595 C 256.641 1.80808 1.47752 0
M  V30 2596 C 257.622 0.660318 1.5676 0
M  V30 2597 O 258.807 0.908246 1.71652 0
M  V30 2598 C 255.937 1.98008 2.85324 0
M  V30 2599 C 254.891 3.13709 2.91154 0
M  V30 2600 C 254.217 3.16169 4.31209 0
M  V30 2601 C 255.517 4.52709 2.60483 0
M  V30 2602 H 257.211 2.72253 1.24573 0
M  V30 2603 H 254.757 1.31003 0.597839 0
M  V30 2604 H 256.71 2.16176 3.61726 0
M  V30 2605 H 255.434 1.03255 3.09848 0
M  V30 2606 H 254.093 2.95329 2.17201 0
M  V30 2607 H 253.741 2.19092 4.52778 0
M  V30 2608 H 253.441 3.93894 4.36029 0
M  V30 2609 H 254.965 3.36496 5.09512 0
M  V30 2610 H 256.379 4.71173 3.26602 0
M  V30 2611 H 254.776 5.32528 2.76648 0
M  V30 2612 H 255.846 4.59186 1.55809 0
M  V30 2613 N 257.189 -0.644168 1.43834 0
M  V30 2614 C 258.119 -1.76814 1.52509 0
M  V30 2615 C 259.1 -1.65823 0.379052 0
M  V30 2616 O 260.285 -1.84781 0.597466 0
M  V30 2617 C 257.415 -3.15288 1.4564 0
M  V30 2618 C 256.369 -3.41053 2.58586 0
M  V30 2619 C 255.695 -4.79421 2.36769 0
M  V30 2620 C 256.995 -3.34902 4.00797 0
M  V30 2621 H 258.689 -1.69812 2.46586 0
M  V30 2622 H 256.235 -0.815542 1.1868 0
M  V30 2623 H 258.188 -3.93681 1.50311 0
M  V30 2624 H 256.912 -3.23043 0.480725 0
M  V30 2625 H 255.571 -2.65035 2.53282 0
M  V30 2626 H 255.219 -4.83863 1.37424 0
M  V30 2627 H 254.919 -4.9762 3.12487 0
M  V30 2628 H 256.443 -5.6006 2.43238 0
M  V30 2629 H 257.857 -4.03218 4.07539 0
M  V30 2630 H 256.254 -3.64637 4.76613 0
M  V30 2631 H 257.324 -2.32928 4.25291 0
M  V30 2632 N 258.668 -1.30515 -0.883378 0
M  V30 2633 C 259.893 -1.22487 -1.67367 0
M  V30 2634 C 260.318 0.208767 -1.86938 0
M  V30 2635 O 259.676 1.15015 -1.40148 0
M  V30 2636 C 259.724 -1.96041 -3.02655 0
M  V30 2637 O 258.828 -1.28859 -3.91751 0
M  V30 2638 H 258.169 -0.423573 -0.511353 0
M  V30 2639 H 260.699 -1.72362 -1.10239 0
M  V30 2640 H 260.709 -2.05124 -3.52687 0
M  V30 2641 H 259.384 -3.00307 -2.8773 0
M  V30 2642 H 257.961 -1.28141 -3.50192 0
M  V30 2643 N 260.146 1.09593 -1.13257 0
M  V30 2644 C 261.392 1.82003 -0.89458 0
M  V30 2645 C 261.725 1.85402 0.577906 0
M  V30 2646 O 261 1.32099 1.42759 0
M  V30 2647 C 261.283 3.28237 -1.48096 0
M  V30 2648 C 261.136 3.3312 -3.02244 0
M  V30 2649 C 262.455 4.24871 -1.14774 0
M  V30 2650 H 259.574 0.66077 -0.326424 0
M  V30 2651 H 262.216 1.28389 -1.40058 0
M  V30 2652 H 260.366 3.74024 -1.05062 0
M  V30 2653 H 262.038 2.95748 -3.54021 0
M  V30 2654 H 260.281 2.72756 -3.37323 0
M  V30 2655 H 260.952 4.3613 -3.38371 0
M  V30 2656 H 263.428 3.87361 -1.51957 0
M  V30 2657 H 262.304 5.25532 -1.58452 0
M  V30 2658 H 262.565 4.42058 -0.0611849 0
M  V30 2659 N 261.624 0.925811 1.2754 0
M  V30 2660 C 262.87 0.566092 1.94739 0
M  V30 2661 C 263.203 -0.890057 1.72603 0
M  V30 2662 O 262.478 -1.63467 1.05399 0
M  V30 2663 C 262.761 0.89054 3.48915 0
M  V30 2664 C 262.614 2.4003 3.80402 0
M  V30 2665 C 263.933 0.395101 4.38323 0
M  V30 2666 H 261.052 0.20714 0.707292 0
M  V30 2667 H 263.694 1.15725 1.50691 0
M  V30 2668 H 261.844 0.387452 3.86563 0
M  V30 2669 H 263.516 2.97494 3.52555 0
M  V30 2670 H 261.759 2.85028 3.2702 0
M  V30 2671 H 262.43 2.57785 4.8811 0
M  V30 2672 H 264.906 0.826241 4.07814 0
M  V30 2673 H 263.782 0.651086 5.45025 0
M  V30 2674 H 264.043 -0.704798 4.36446 0
M  V30 2675 N 263.102 -1.41638 0.69111 0
M  V30 2676 C 264.327 -2.06148 0.227583 0
M  V30 2677 C 264.752 -1.51652 -1.11281 0
M  V30 2678 O 264.11 -0.64164 -1.69566 0
M  V30 2679 C 264.158 -3.60095 0.190858 0
M  V30 2680 O 263.262 -4.03845 -0.835664 0
M  V30 2681 H 262.603 -0.654434 0.112306 0
M  V30 2682 H 265.133 -1.81484 0.944714 0
M  V30 2683 H 265.143 -4.07995 0.020207 0
M  V30 2684 H 263.818 -3.99129 1.16915 0
M  V30 2685 H 262.395 -3.67458 -0.63473 0
M  V30 2686 N 264.58 -0.43555 -1.51462 0
M  V30 2687 C 265.805 0.132627 -2.06976 0
M  V30 2688 C 266.23 1.35848 -1.30104 0
M  V30 2689 O 265.588 1.78112 -0.338493 0
M  V30 2690 C 265.636 0.43523 -3.57964 0
M  V30 2691 O 264.74 1.52198 -3.83288 0
M  V30 2692 H 264.081 0.00265 -0.663995 0
M  V30 2693 H 266.611 -0.616369 -1.95095 0
M  V30 2694 H 266.621 0.686206 -4.02188 0
M  V30 2695 H 265.296 -0.460739 -4.1334 0
M  V30 2696 H 263.873 1.2611 -3.50928 0
M  V30 2697 N 266.058 1.56714 -0.166846 0
M  V30 2698 C 267.021 2.16539 0.751232 0
M  V30 2699 C 268.021 1.11228 1.16125 0
M  V30 2700 O 269.211 1.36765 1.07894 0
M  V30 2701 C 266.343 2.74462 2.02196 0
M  V30 2702 H 267.536 2.99013 0.230499 0
M  V30 2703 H 265.089 1.56081 0.0826982 0
M  V30 2704 H 265.824 1.95709 2.58589 0
M  V30 2705 H 265.609 3.51527 1.73698 0
M  V30 2706 H 267.099 3.20489 2.67725 0
M  V30 2707 N 267.536 -0.106894 1.57237 0
M  V30 2708 C 268.483 -1.13049 2.01217 0
M  V30 2709 C 269.453 -1.40471 0.886403 0
M  V30 2710 O 270.638 -1.52133 1.15153 0
M  V30 2711 C 267.778 -2.4487 2.43172 0
M  V30 2712 C 266.891 -2.24281 3.69218 0
M  V30 2713 C 266.026 -3.49417 4.00101 0
M  V30 2714 C 265.065 -3.24038 5.19294 0
M  V30 2715 N 264.202 -4.41409 5.45988 0
M  V30 2716 H 269.042 -0.748456 2.88448 0
M  V30 2717 H 266.579 -0.358054 1.42676 0
M  V30 2718 H 268.537 -3.21786 2.65537 0
M  V30 2719 H 267.167 -2.80944 1.58967 0
M  V30 2720 H 266.219 -1.38224 3.54398 0
M  V30 2721 H 267.531 -2.01512 4.56283 0
M  V30 2722 H 266.685 -4.34746 4.2318 0
M  V30 2723 H 265.424 -3.75229 3.11535 0
M  V30 2724 H 264.429 -2.37102 4.96047 0
M  V30 2725 H 265.654 -2.99584 6.09447 0
M  V30 2726 H 263.6 -4.67319 4.60379 0
M  V30 2727 H 263.517 -4.21788 6.274 0
M  V30 2728 H 264.785 -5.27836 5.73593 0
M  V30 2729 N 269.014 -1.53014 -0.377408 0
M  V30 2730 C 270.425 -1.60438 -0.954798 0
M  V30 2731 C 270.776 -0.464418 -1.90624 0
M  V30 2732 O 269.901 0.41087 -2.12464 0
M  V30 2733 C 270.496 -2.90797 -1.73847 0
M  V30 2734 C 269.055 -3.00595 -2.26538 0
M  V30 2735 C 268.202 -2.55645 -1.07429 0
M  V30 2736 H 271.153 -1.57926 -0.156575 0
M  V30 2737 H 271.174 -2.77935 -2.5987 0
M  V30 2738 H 270.686 -3.73746 -1.04574 0
M  V30 2739 H 268.787 -2.22208 -2.99089 0
M  V30 2740 H 268.9 -4.05456 -2.5523 0
M  V30 2741 H 267.264 -2.10239 -1.43777 0
M  V30 2742 H 268.047 -3.41 -0.396728 0
M  V30 2743 N 270.492 0.636531 -1.44174 0
M  V30 2744 C 271.439 1.74875 -1.50624 0
M  V30 2745 C 272.409 1.62275 -0.35442 0
M  V30 2746 O 273.594 1.82276 -0.563908 0
M  V30 2747 C 270.734 3.13102 -1.45125 0
M  V30 2748 C 269.847 3.36717 -2.7064 0
M  V30 2749 C 268.982 4.64885 -2.57013 0
M  V30 2750 C 268.021 4.8166 -3.77717 0
M  V30 2751 N 267.158 6.01101 -3.62798 0
M  V30 2752 H 271.998 1.68697 -2.45653 0
M  V30 2753 H 269.535 0.823004 -1.21922 0
M  V30 2754 H 271.493 3.93034 -1.39929 0
M  V30 2755 H 270.123 3.18308 -0.536671 0
M  V30 2756 H 269.175 2.50763 -2.86046 0
M  V30 2757 H 270.487 3.44993 -3.60252 0
M  V30 2758 H 269.641 5.52969 -2.49619 0
M  V30 2759 H 268.38 4.58957 -1.64953 0
M  V30 2760 H 267.385 3.92007 -3.85501 0
M  V30 2761 H 268.61 4.89406 -4.70807 0
M  V30 2762 H 266.556 5.96273 -2.73486 0
M  V30 2763 H 266.473 6.10409 -4.46023 0
M  V30 2764 H 267.741 6.91761 -3.59286 0
M  V30 2765 N 271.97 1.30982 0.876444 0
M  V30 2766 C 273.219 1.19658 1.62373 0
M  V30 2767 C 273.532 -0.245636 1.94052 0
M  V30 2768 O 274.738 -0.48049 2.67214 0
M  V30 2769 C 273.194 2.09433 2.92687 0
M  V30 2770 C 272.802 3.58613 2.68516 0
M  V30 2771 C 274.546 2.06893 3.70669 0
M  V30 2772 C 272.453 4.40416 3.94699 0
M  V30 2773 H 271.383 0.444268 0.609214 0
M  V30 2774 H 274.034 1.55791 0.969605 0
M  V30 2775 H 272.416 1.66191 3.59439 0
M  V30 2776 H 273.59 4.10058 2.10212 0
M  V30 2777 H 271.905 3.63063 2.03898 0
M  V30 2778 H 274.502 2.65258 4.64265 0
M  V30 2779 H 274.845 1.05448 4.02724 0
M  V30 2780 H 275.378 2.48301 3.10792 0
M  V30 2781 H 272.117 5.42591 3.67798 0
M  V30 2782 H 271.637 3.93731 4.52477 0
M  V30 2783 H 273.316 4.52294 4.62644 0
M  V30 2784 N 273.449 -1.08991 1.13837 0
M  V30 2785 C 274.412 -2.13925 0.822715 0
M  V30 2786 C 275.412 -1.599 -0.1699 0
M  V30 2787 O 276.602 -1.74104 0.0577251 0
M  V30 2788 C 273.734 -3.40155 0.225318 0
M  V30 2789 H 274.927 -2.43358 1.75262 0
M  V30 2790 H 272.48 -1.24603 0.943594 0
M  V30 2791 H 273.215 -3.16352 -0.713594 0
M  V30 2792 H 273 -3.80661 0.940193 0
M  V30 2793 H 274.49 -4.17594 0.0214784 0
M  V30 2794 N 274.927 -0.932562 -1.27047 0
M  V30 2795 C 276.204 -0.49377 -1.89265 0
M  V30 2796 C 276.584 1.02833 -1.8436 0
M  V30 2797 O 275.932 1.88461 -1.29209 0
M  V30 2798 C 276.142 -1.04536 -3.32976 0
M  V30 2799 C 277.49 -1.10879 -4.09867 0
M  V30 2800 O 278.514 -0.995327 -3.42011 0
M  V30 2801 O 277.373 -1.28417 -5.31198 0
M  V30 2802 H 274.467 -0.159596 -0.811454 0
M  V30 2803 H 277.013 -1.02457 -1.3528 0
M  V30 2804 H 275.785 -2.08913 -3.30864 0
M  V30 2805 H 275.408 -0.496494 -3.94488 0
M  V30 2806 N 276.405 1.4127 -0.698611 0
M  V30 2807 C 277.635 2.05205 -0.239644 0
M  V30 2808 C 278.043 1.52684 1.11733 0
M  V30 2809 O 277.386 0.671222 1.70998 0
M  V30 2810 C 277.448 3.59289 -0.123126 0
M  V30 2811 C 277.112 4.34619 -1.41263 0
M  V30 2812 C 278.109 4.63701 -2.35111 0
M  V30 2813 C 275.794 4.73837 -1.66684 0
M  V30 2814 C 277.788 5.30966 -3.52639 0
M  V30 2815 C 275.475 5.40837 -2.84498 0
M  V30 2816 C 276.473 5.69329 -3.77298 0
M  V30 2817 O 276.161 6.34949 -4.93047 0
M  V30 2818 H 275.893 0.66723 -0.108537 0
M  V30 2819 H 278.447 1.81974 -0.952602 0
M  V30 2820 H 276.677 3.81272 0.645628 0
M  V30 2821 H 278.366 4.04797 0.299056 0
M  V30 2822 H 279.132 4.33882 -2.16729 0
M  V30 2823 H 275.011 4.51039 -0.953135 0
M  V30 2824 H 278.555 5.53121 -4.25091 0
M  V30 2825 H 274.452 5.70075 -3.02795 0
M  V30 2826 H 275.22 6.53445 -4.92902 0
M  V30 2827 N 277.883 0.443576 1.51229 0
M  V30 2828 C 278.833 -0.382787 2.24764 0
M  V30 2829 C 279.817 -0.984836 1.27239 0
M  V30 2830 O 281.009 -0.901943 1.52296 0
M  V30 2831 C 278.138 -1.47989 3.09765 0
M  V30 2832 C 277.224 -0.886931 4.14722 0
M  V30 2833 N 277.615 -0.0237103 5.05794 0
M  V30 2834 C 275.913 -1.15385 4.30816 0
M  V30 2835 C 276.614 0.309971 5.80874 0
M  V30 2836 N 275.59 -0.307989 5.42727 0
M  V30 2837 H 279.392 0.282624 2.92538 0
M  V30 2838 H 276.906 0.256027 1.60369 0
M  V30 2839 H 278.903 -2.08482 3.61027 0
M  V30 2840 H 277.563 -2.14758 2.43535 0
M  V30 2841 H 278.574 0.34318 5.16762 0
M  V30 2842 H 275.251 -1.81857 3.75812 0
M  V30 2843 H 276.641 1.01279 6.64223 0
M  V30 2844 N 279.361 -1.56624 0.175154 0
M  V30 2845 C 280.608 -1.96999 -0.468811 0
M  V30 2846 C 280.936 -1.06129 -1.62994 0
M  V30 2847 O 280.191 -0.0961771 -1.95464 0
M  V30 2848 C 280.49 -3.43419 -0.989864 0
M  V30 2849 C 280.156 -4.50866 0.0557687 0
M  V30 2850 C 278.818 -4.79975 0.343134 0
M  V30 2851 C 281.17 -5.15551 0.765308 0
M  V30 2852 C 278.498 -5.71066 1.34536 0
M  V30 2853 C 280.85 -6.07724 1.75654 0
M  V30 2854 C 279.514 -6.35199 2.05132 0
M  V30 2855 H 278.784 -0.720869 -0.17155 0
M  V30 2856 H 281.431 -1.89616 0.267924 0
M  V30 2857 H 279.736 -3.47772 -1.80449 0
M  V30 2858 H 281.433 -3.72002 -1.49719 0
M  V30 2859 H 278.023 -4.28229 -0.178381 0
M  V30 2860 H 282.207 -4.9317 0.556513 0
M  V30 2861 H 277.463 -5.90635 1.57988 0
M  V30 2862 H 281.637 -6.56912 2.31169 0
M  V30 2863 H 279.264 -7.05584 2.8294 0
M  V30 2864 N 280.839 0.0985539 -1.57292 0
M  V30 2865 C 282.067 0.816318 -1.90115 0
M  V30 2866 C 282.482 1.72451 -0.768509 0
M  V30 2867 O 281.839 1.80643 0.259687 0
M  V30 2868 C 281.89 1.63259 -3.22535 0
M  V30 2869 O 281.611 0.760934 -4.31441 0
M  V30 2870 C 283.112 2.45372 -3.69199 0
M  V30 2871 H 280.332 0.233595 -0.629027 0
M  V30 2872 H 282.876 0.0768229 -2.04356 0
M  V30 2873 H 281.031 2.32463 -3.09903 0
M  V30 2874 H 281.445 1.32595 -5.07463 0
M  V30 2875 H 282.919 2.98144 -4.64558 0
M  V30 2876 H 283.396 3.23677 -2.96867 0
M  V30 2877 H 284.002 1.81373 -3.84687 0
M  V30 2878 N 282.317 1.53212 0.369288 0
M  V30 2879 C 283.545 1.73119 1.13303 0
M  V30 2880 C 283.96 0.458455 1.83149 0
M  V30 2881 O 283.317 -0.568403 1.73423 0
M  V30 2882 C 283.368 2.89413 2.16616 0
M  V30 2883 O 283.089 4.11761 1.49614 0
M  V30 2884 C 284.59 3.21161 3.05566 0
M  V30 2885 H 281.81 0.579107 0.338934 0
M  V30 2886 H 284.354 1.99942 0.429338 0
M  V30 2887 H 282.509 2.64994 2.82589 0
M  V30 2888 H 282.923 4.76858 2.18419 0
M  V30 2889 H 284.397 4.05949 3.74045 0
M  V30 2890 H 284.874 2.36369 3.70171 0
M  V30 2891 H 285.48 3.47492 2.45213 0
M  V30 2892 N 283.795 -0.628877 1.44509 0
M  V30 2893 C 284.725 -1.75187 1.54376 0
M  V30 2894 C 285.706 -1.65411 0.396618 0
M  V30 2895 O 286.891 -1.84137 0.617031 0
M  V30 2896 C 284.021 -3.13725 1.48976 0
M  V30 2897 C 282.975 -3.38291 2.62189 0
M  V30 2898 C 282.301 -4.76883 2.41841 0
M  V30 2899 C 283.601 -3.30632 4.04326 0
M  V30 2900 H 285.295 -1.67187 2.48373 0
M  V30 2901 H 282.841 -0.802909 1.19538 0
M  V30 2902 H 284.794 -3.92064 1.54478 0
M  V30 2903 H 283.518 -3.22515 0.514961 0
M  V30 2904 H 282.177 -2.62334 2.56079 0
M  V30 2905 H 281.825 -4.82378 1.42548 0
M  V30 2906 H 281.525 -4.94278 3.17747 0
M  V30 2907 H 283.049 -5.57449 2.49165 0
M  V30 2908 H 284.463 -3.98873 4.11793 0
M  V30 2909 H 282.86 -3.59561 4.80454 0
M  V30 2910 H 283.93 -2.28404 4.27738 0
M  V30 2911 N 285.273 -1.31445 -0.869486 0
M  V30 2912 C 286.519 -1.21337 -1.62496 0
M  V30 2913 C 286.852 0.227872 -1.92858 0
M  V30 2914 O 286.127 1.16094 -1.56053 0
M  V30 2915 C 286.41 -2.05814 -2.95487 0
M  V30 2916 C 286.263 -3.5824 -2.72 0
M  V30 2917 C 287.582 -1.9079 -3.96594 0
M  V30 2918 H 284.701 -0.442135 -0.589649 0
M  V30 2919 H 287.343 -1.6124 -1.00507 0
M  V30 2920 H 285.493 -1.71913 -3.48394 0
M  V30 2921 H 287.165 -4.0228 -2.25762 0
M  V30 2922 H 285.408 -3.81647 -2.06224 0
M  V30 2923 H 286.079 -4.12657 -3.66631 0
M  V30 2924 H 288.555 -2.20459 -3.52898 0
M  V30 2925 H 287.431 -2.52199 -4.87531 0
M  V30 2926 H 287.692 -0.871341 -4.33428 0
M  V30 2927 N 286.751 1.08385 -1.14413 0
M  V30 2928 C 288.162 1.62258 -0.923535 0
M  V30 2929 C 288.513 1.88691 0.537595 0
M  V30 2930 O 287.638 1.64454 1.40655 0
M  V30 2931 C 288.233 2.94781 -1.67002 0
M  V30 2932 C 286.792 3.45437 -1.495 0
M  V30 2933 C 285.939 2.19668 -1.69238 0
M  V30 2934 H 288.89 0.916086 -1.2959 0
M  V30 2935 H 288.911 3.63229 -1.13334 0
M  V30 2936 H 288.423 2.7551 -2.73342 0
M  V30 2937 H 286.524 3.6981 -0.455097 0
M  V30 2938 H 286.637 4.22173 -2.2651 0
M  V30 2939 H 285.001 2.28849 -1.11804 0
M  V30 2940 H 285.784 2.02905 -2.7692 0
M  V30 2941 N 288.23 0.939286 1.26551 0
M  V30 2942 C 289.178 0.43815 2.28436 0
M  V30 2943 C 290.172 -0.483587 1.62351 0
M  V30 2944 O 291.378 -0.362009 1.76322 0
M  V30 2945 H 287.753 0.123149 0.741848 0
M  V30 2946 H 289.724 1.31002 2.68106 0
M  V30 2947 C 288.473 -0.283052 3.46546 0
M  V30 2948 H 287.796 0.417043 3.97619 0
M  V30 2949 H 289.236 -0.597948 4.19763 0
M  V30 2950 C 287.695 -1.50018 3.01656 0
M  V30 2951 O 288.225 -2.59855 3.0633 0
M  V30 2952 N 286.431 -1.35608 2.57019 0
M  V30 2953 H 285.978 -0.46244 2.53415 0
M  V30 2954 H 285.936 -2.17165 2.27347 0
M  V30 2955 N 289.708 -1.40897 0.706093 0
M  V30 2956 C 290.638 -2.33418 0.0620085 0
M  V30 2957 C 291.619 -1.52385 -0.755827 0
M  V30 2958 O 292.804 -1.80886 -0.706674 0
M  V30 2959 C 289.934 -3.36293 -0.867445 0
M  V30 2960 C 288.888 -4.27716 -0.155932 0
M  V30 2961 C 288.214 -5.2105 -1.20046 0
M  V30 2962 C 289.514 -5.12944 0.984149 0
M  V30 2963 H 291.208 -2.87527 0.83477 0
M  V30 2964 H 288.754 -1.38249 0.402875 0
M  V30 2965 H 290.707 -3.99949 -1.32735 0
M  V30 2966 H 289.431 -2.80556 -1.67199 0
M  V30 2967 H 288.09 -3.65498 0.284047 0
M  V30 2968 H 287.738 -4.61624 -1.99781 0
M  V30 2969 H 287.438 -5.83056 -0.729328 0
M  V30 2970 H 288.962 -5.87584 -1.66066 0
M  V30 2971 H 290.376 -5.70109 0.604048 0
M  V30 2972 H 288.773 -5.83945 1.38304 0
M  V30 2973 H 289.843 -4.49485 1.81911 0
M  V30 2974 N 291.186 -0.45159 -1.50991 0
M  V30 2975 C 292.434 0.109857 -2.01801 0
M  V30 2976 C 292.755 1.41958 -1.3369 0
M  V30 2977 O 292.025 1.9003 -0.475951 0
M  V30 2978 H 290.605 0.0435884 -0.745727 0
M  V30 2979 H 293.267 -0.597557 -1.85514 0
M  V30 2980 H 292.363 0.275489 -3.10882 0
M  V30 2981 N 292.664 1.56529 -0.183458 0
M  V30 2982 C 293.597 2.14417 0.781052 0
M  V30 2983 C 294.575 1.07761 1.21763 0
M  V30 2984 O 295.759 1.35807 1.30724 0
M  V30 2985 C 292.886 2.69361 2.05335 0
M  V30 2986 C 291.932 3.885 1.75982 0
M  V30 2987 S 292.765 5.27568 0.918256 0
M  V30 2988 C 293.921 5.85926 2.20095 0
M  V30 2989 H 294.154 2.95893 0.2889 0
M  V30 2990 H 291.687 1.54368 0.0313844 0
M  V30 2991 H 293.645 3.01662 2.78406 0
M  V30 2992 H 292.306 1.87949 2.51663 0
M  V30 2993 H 291.499 4.25314 2.70415 0
M  V30 2994 H 291.101 3.57149 1.10999 0
M  V30 2995 H 293.393 5.99579 3.15453 0
M  V30 2996 H 294.336 6.82761 1.87731 0
M  V30 2997 H 294.744 5.14438 2.32409 0
M  V30 2998 N 294.142 -0.090211 1.57342 0
M  V30 2999 C 295.388 -0.793982 1.86611 0
M  V30 3000 C 295.721 -1.78142 0.773252 0
M  V30 3001 O 294.996 -1.93271 -0.218304 0
M  V30 3002 C 295.279 -1.51839 3.26523 0
M  V30 3003 C 295.132 -0.548609 4.46442 0
M  V30 3004 C 296.451 -2.46779 3.64401 0
M  V30 3005 H 293.57 -0.287186 0.678744 0
M  V30 3006 H 296.212 -0.0575076 1.89913 0
M  V30 3007 H 294.362 -2.14617 3.23839 0
M  V30 3008 H 296.034 0.0725513 4.61243 0
M  V30 3009 H 294.277 0.137614 4.33582 0
M  V30 3010 H 294.948 -1.09271 5.41076 0
M  V30 3011 H 297.424 -1.94089 3.68061 0
M  V30 3012 H 296.3 -2.94479 4.63221 0
M  V30 3013 H 296.561 -3.30758 2.93346 0
M  V30 3014 N 295.62 -1.53406 -0.361157 0
M  V30 3015 C 296.53 -1.83122 -1.4664 0
M  V30 3016 C 297.546 -0.719943 -1.58407 0
M  V30 3017 O 298.722 -1.01046 -1.74218 0
M  V30 3018 C 295.787 -2.01891 -2.81853 0
M  V30 3019 C 294.848 -3.25784 -2.79577 0
M  V30 3020 C 294.081 -3.43648 -4.0834 0
M  V30 3021 O 294.304 -2.65714 -5.0473 0
M  V30 3022 O 293.238 -4.37018 -4.13883 0
M  V30 3023 H 297.064 -2.7703 -1.24451 0
M  V30 3024 H 294.649 -1.38841 -0.551678 0
M  V30 3025 H 296.531 -2.15782 -3.61962 0
M  V30 3026 H 295.206 -1.11173 -3.0401 0
M  V30 3027 H 294.113 -3.17312 -1.98151 0
M  V30 3028 H 295.446 -4.16439 -2.62373 0
M  V30 3029 N 297.098 0.621204 -1.44841 0
M  V30 3030 C 298.326 1.40752 -1.51646 0
M  V30 3031 C 298.741 1.88246 -0.144549 0
M  V30 3032 O 298.098 1.61422 0.851416 0
M  V30 3033 C 298.149 2.62119 -2.4895 0
M  V30 3034 O 297.87 2.16602 -3.80808 0
M  V30 3035 C 299.371 3.55135 -2.65319 0
M  V30 3036 H 296.591 0.431325 -0.514004 0
M  V30 3037 H 299.135 0.758835 -1.899 0
M  V30 3038 H 297.29 3.23058 -2.13805 0
M  V30 3039 H 297.704 2.95358 -4.33433 0
M  V30 3040 H 299.178 4.36874 -3.37409 0
M  V30 3041 H 299.655 4.04592 -1.70886 0
M  V30 3042 H 300.261 3.00058 -3.01405 0
M  V30 3043 N 298.576 1.31904 0.862503 0
M  V30 3044 C 299.853 1.12644 1.59908 0
M  V30 3045 C 300.233 -0.316104 2.0872 0
M  V30 3046 O 299.581 -1.31145 1.87118 0
M  V30 3047 C 299.791 2.1472 2.7513 0
M  V30 3048 C 301.139 2.47637 3.44907 0
M  V30 3049 O 302.163 2.13205 2.85346 0
M  V30 3050 O 301.022 3.06632 4.52371 0
M  V30 3051 H 298.116 0.43416 0.703871 0
M  V30 3052 H 300.662 1.43408 0.907314 0
M  V30 3053 H 299.434 3.1172 2.3653 0
M  V30 3054 H 299.057 1.84905 3.51989 0
M  V30 3055 N 300.054 -1.07777 1.14986 0
M  V30 3056 C 301.331 -1.7699 0.832695 0
M  V30 3057 C 301.711 -2.001 -0.672561 0
M  V30 3058 O 301.059 -1.61598 -1.6155 0
M  V30 3059 C 301.269 -3.08139 1.63863 0
M  V30 3060 C 302.617 -3.8256 1.84208 0
M  V30 3061 O 303.641 -3.17939 1.60603 0
M  V30 3062 O 302.5 -4.98612 2.23714 0
M  V30 3063 H 299.594 -0.768389 0.305791 0
M  V30 3064 H 302.14 -1.14182 1.25541 0
M  V30 3065 H 300.912 -2.86909 2.6608 0
M  V30 3066 H 300.535 -3.78678 1.21197 0
M  V30 3067 N 301.532 -0.945985 -1.26051 0
M  V30 3068 C 302.78 -0.594941 -1.93145 0
M  V30 3069 C 303.101 0.86953 -1.7454 0
M  V30 3070 O 302.371 1.61838 -1.10387 0
M  V30 3071 H 300.951 -0.217044 -0.714773 0
M  V30 3072 H 303.613 -1.20235 -1.53393 0
M  V30 3073 H 302.709 -0.816835 -3.01221 0
M  V30 3074 N 303.011 1.40521 -0.713556 0
M  V30 3075 C 304.427 1.54839 -0.386907 0
M  V30 3076 C 304.627 1.68532 1.1045 0
M  V30 3077 O 303.683 1.67377 1.89053 0
M  V30 3078 C 304.996 2.77792 -1.15118 0
M  V30 3079 C 306.544 2.91607 -1.13729 0
M  V30 3080 C 307.019 4.1747 -1.88368 0
M  V30 3081 N 308.51 4.24466 -1.85427 0
M  V30 3082 C 309.245 5.20755 -2.40004 0
M  V30 3083 N 308.741 6.22965 -3.03129 0
M  V30 3084 N 310.534 5.1282 -2.30158 0
M  V30 3085 H 302.685 1.29879 -1.68063 0
M  V30 3086 H 304.948 0.627896 -0.710247 0
M  V30 3087 H 304.654 2.73944 -2.20561 0
M  V30 3088 H 304.528 3.6984 -0.741477 0
M  V30 3089 H 306.915 2.94959 -0.0910608 0
M  V30 3090 H 306.996 2.00682 -1.5862 0
M  V30 3091 H 306.64 4.1488 -2.9298 0
M  V30 3092 H 306.57 5.074 -1.40898 0
M  V30 3093 H 309.061 3.51241 -1.3942 0
M  V30 3094 H 309.374 6.92859 -3.42295 0
M  V30 3095 H 307.719 6.23415 -3.07212 0
M  V30 3096 H 310.91 4.31899 -1.80501 0
M  V30 3097 H 311.083 5.87689 -2.72993 0
M  V30 3098 N 304.489 0.459591 1.5075 0
M  V30 3099 C 305.714 -0.0996819 2.0716 0
M  V30 3100 C 306.139 -1.33761 1.32249 0
M  V30 3101 O 305.497 -1.77551 0.366786 0
M  V30 3102 C 305.545 -0.378226 3.58611 0
M  V30 3103 O 304.649 -1.46081 3.85661 0
M  V30 3104 H 303.99 0.00791392 0.663953 0
M  V30 3105 H 306.52 0.647329 1.9409 0
M  V30 3106 H 306.53 -0.622135 4.03229 0
M  V30 3107 H 305.205 0.526439 4.12555 0
M  V30 3108 H 303.782 -1.20511 3.5289 0
M  V30 3109 N 305.967 -1.56429 0.191757 0
M  V30 3110 C 307.214 -1.97485 -0.447891 0
M  V30 3111 C 307.542 -1.07852 -1.61859 0
M  V30 3112 O 306.797 -0.116903 -1.95351 0
M  V30 3113 C 307.096 -3.44449 -0.953384 0
M  V30 3114 C 306.762 -4.50781 0.103586 0
M  V30 3115 C 305.424 -4.79584 0.394023 0
M  V30 3116 C 307.776 -5.1471 0.819946 0
M  V30 3117 C 305.104 -5.69607 1.40585 0
M  V30 3118 C 307.456 -6.05827 1.8209 0
M  V30 3119 C 306.12 -6.32987 2.11857 0
M  V30 3120 H 305.39 -0.722648 -0.163895 0
M  V30 3121 H 308.037 -1.89322 0.28802 0
M  V30 3122 H 306.342 -3.49666 -1.76751 0
M  V30 3123 H 308.039 -3.73569 -1.45765 0
M  V30 3124 H 304.629 -4.28394 -0.132951 0
M  V30 3125 H 308.813 -4.92552 0.608789 0
M  V30 3126 H 304.069 -5.88926 1.64243 0
M  V30 3127 H 308.243 -6.54424 2.38123 0
M  V30 3128 H 305.87 -7.02544 2.90407 0
M  V30 3129 N 307.445 0.0818655 -1.57387 0
M  V30 3130 C 308.691 0.784074 -1.8703 0
M  V30 3131 C 309.024 1.77729 -0.782689 0
M  V30 3132 O 308.299 1.93384 0.208051 0
M  V30 3133 C 308.582 1.50105 -3.27323 0
M  V30 3134 C 308.435 0.524925 -4.46727 0
M  V30 3135 C 309.754 2.44843 -3.65705 0
M  V30 3136 H 306.873 0.283582 -0.680257 0
M  V30 3137 H 309.515 0.0474352 -1.89941 0
M  V30 3138 H 307.665 2.12897 -3.24972 0
M  V30 3139 H 309.337 -0.0970111 -4.61198 0
M  V30 3140 H 307.58 -0.160606 -4.33503 0
M  V30 3141 H 308.251 1.064 -5.41648 0
M  V30 3142 H 310.727 1.92135 -3.69085 0
M  V30 3143 H 309.603 2.92018 -4.64776 0
M  V30 3144 H 309.864 3.29197 -2.95096 0
M  V30 3145 N 308.923 1.53595 0.353017 0
M  V30 3146 C 309.856 1.7572 1.45594 0
M  V30 3147 C 310.834 0.605961 1.50887 0
M  V30 3148 O 312.018 0.840023 1.68748 0
M  V30 3149 C 309.145 1.84732 2.83887 0
M  V30 3150 C 308.191 3.06808 2.96262 0
M  V30 3151 S 309.024 4.66065 2.63711 0
M  V30 3152 C 310.18 4.77943 4.04131 0
M  V30 3153 H 310.413 2.68994 1.26608 0
M  V30 3154 H 307.946 1.44343 0.548117 0
M  V30 3155 H 309.904 1.9061 3.63563 0
M  V30 3156 H 308.565 0.92488 3.00175 0
M  V30 3157 H 307.758 3.09761 3.97573 0
M  V30 3158 H 307.36 2.99108 2.24523 0
M  V30 3159 H 309.652 4.5877 4.98534 0
M  V30 3160 H 310.595 5.80022 4.06177 0
M  V30 3161 H 311.003 4.06472 3.91715 0
M  V30 3162 N 310.401 -0.613514 1.45168 0
M  V30 3163 C 311.364 -1.7065 1.53007 0
M  V30 3164 C 312.364 -1.5548 0.410184 0
M  V30 3165 O 313.554 -1.60656 0.673455 0
M  V30 3166 C 310.686 -3.09875 1.42093 0
M  V30 3167 H 311.879 -1.65068 2.50385 0
M  V30 3168 H 309.432 -0.828728 1.32521 0
M  V30 3169 H 310.167 -3.21039 0.458769 0
M  V30 3170 H 309.952 -3.22293 2.23315 0
M  V30 3171 H 311.442 -3.895 1.50598 0
M  V30 3172 N 311.879 -1.3236 -0.855495 0
M  V30 3173 C 313.156 -1.13491 -1.59309 0
M  V30 3174 C 313.536 0.30503 -2.08885 0
M  V30 3175 O 312.884 1.30151 -1.87811 0
M  V30 3176 C 313.094 -2.16176 -2.73987 0
M  V30 3177 C 314.442 -2.49463 -3.43589 0
M  V30 3178 O 315.466 -2.14715 -2.84211 0
M  V30 3179 O 314.325 -3.09027 -4.50738 0
M  V30 3180 H 311.419 -0.437887 -0.701559 0
M  V30 3181 H 313.965 -1.43887 -0.899696 0
M  V30 3182 H 312.737 -3.1297 -2.34873 0
M  V30 3183 H 312.36 -1.86769 -3.51003 0
M  V30 3184 N 313.357 1.07166 -1.15556 0
M  V30 3185 C 314.287 2.16403 -0.877046 0
M  V30 3186 C 315.268 1.69217 0.173111 0
M  V30 3187 O 316.453 1.94181 0.027084 0
M  V30 3188 C 313.583 3.45349 -0.367632 0
M  V30 3189 C 312.537 4.05995 -1.35468 0
M  V30 3190 C 311.863 5.30045 -0.704038 0
M  V30 3191 C 313.163 4.45804 -2.72132 0
M  V30 3192 H 314.857 2.39959 -1.79053 0
M  V30 3193 H 312.403 1.15325 -0.862331 0
M  V30 3194 H 314.356 4.21095 -0.160317 0
M  V30 3195 H 313.08 3.21385 0.581326 0
M  V30 3196 H 311.739 3.32296 -1.54839 0
M  V30 3197 H 311.387 5.02373 0.251128 0
M  V30 3198 H 311.087 5.71579 -1.36277 0
M  V30 3199 H 312.611 6.08495 -0.50654 0
M  V30 3200 H 314.025 5.12671 -2.56595 0
M  V30 3201 H 312.422 4.98296 -3.34397 0
M  V30 3202 H 313.492 3.57083 -3.28054 0
M  V30 3203 N 314.835 0.952656 1.25548 0
M  V30 3204 C 316.246 0.647392 1.75116 0
M  V30 3205 C 316.597 -0.837274 1.77438 0
M  V30 3206 O 315.722 -1.65525 1.39393 0
M  V30 3207 C 316.317 1.16845 3.18014 0
M  V30 3208 C 314.876 0.913382 3.6515 0
M  V30 3209 C 314.023 1.31265 2.44264 0
M  V30 3210 H 316.974 1.12968 1.11462 0
M  V30 3211 H 316.995 0.527606 3.76824 0
M  V30 3212 H 316.507 2.24902 3.16292 0
M  V30 3213 H 314.608 -0.152316 3.72289 0
M  V30 3214 H 314.721 1.54845 4.53387 0
M  V30 3215 H 313.085 0.731028 2.43984 0
M  V30 3216 H 313.868 2.40239 2.45234 0
M  V30 3217 N 316.313 -1.40141 0.720998 0
M  V30 3218 C 317.561 -2.0039 0.262323 0
M  V30 3219 C 317.882 -1.57469 -1.15015 0
M  V30 3220 O 317.152 -0.816582 -1.78069 0
M  V30 3221 H 315.732 -0.741063 0.093996 0
M  V30 3222 H 318.394 -1.71398 0.927835 0
M  V30 3223 H 317.49 -3.10658 0.299671 0
M  V30 3224 N 317.792 -0.46758 -1.50504 0
M  V30 3225 C 318.722 0.318381 -2.31319 0
M  V30 3226 C 319.703 0.993564 -1.38066 0
M  V30 3227 O 320.888 0.991411 -1.66987 0
M  V30 3228 C 318.018 1.40275 -3.17711 0
M  V30 3229 C 316.972 0.849373 -4.19487 0
M  V30 3230 C 316.298 2.03177 -4.94594 0
M  V30 3231 C 317.598 -0.136942 -5.2212 0
M  V30 3232 H 319.292 -0.356106 -2.97275 0
M  V30 3233 H 316.838 -0.172703 -1.42961 0
M  V30 3234 H 318.791 1.96004 -3.73042 0
M  V30 3235 H 317.515 2.10596 -2.49634 0
M  V30 3236 H 316.174 0.314076 -3.65252 0
M  V30 3237 H 315.822 2.72187 -4.22993 0
M  V30 3238 H 315.522 1.66774 -5.63436 0
M  V30 3239 H 317.046 2.59403 -5.52759 0
M  V30 3240 H 318.46 0.331056 -5.72343 0
M  V30 3241 H 316.857 -0.41507 -5.98663 0
M  V30 3242 H 317.927 -1.06398 -4.73083 0
M  V30 3243 N 319.27 1.56325 -0.20005 0
M  V30 3244 C 320.519 1.96895 0.437652 0
M  V30 3245 C 320.832 1.08999 1.62415 0
M  V30 3246 O 322.038 1.39372 2.32997 0
M  V30 3247 C 320.494 3.50198 0.830025 0
M  V30 3248 C 320.102 4.46765 -0.332461 0
M  V30 3249 C 321.846 3.99526 1.43453 0
M  V30 3250 C 319.753 5.91344 0.0811468 0
M  V30 3251 H 318.683 0.735209 0.167282 0
M  V30 3252 H 321.334 1.81148 -0.292853 0
M  V30 3253 H 319.716 3.61467 1.61734 0
M  V30 3254 H 320.89 4.47231 -1.11 0
M  V30 3255 H 319.205 4.07657 -0.848789 0
M  V30 3256 H 321.802 5.05025 1.75652 0
M  V30 3257 H 322.145 3.44122 2.34277 0
M  V30 3258 H 322.678 3.91393 0.71109 0
M  V30 3259 H 319.417 6.50685 -0.793033 0
M  V30 3260 H 318.937 5.94121 0.823445 0
M  V30 3261 H 320.616 6.44945 0.515252 0
M  V30 3262 N 320.748 -0.0735177 1.57428 0
M  V30 3263 C 321.658 -1.10547 2.06922 0
M  V30 3264 C 322.674 -1.42506 0.998402 0
M  V30 3265 O 323.85 -1.52717 1.31299 0
M  V30 3266 C 320.915 -2.40019 2.50184 0
M  V30 3267 C 319.976 -2.15046 3.71556 0
M  V30 3268 C 319.209 -3.38345 4.12745 0
M  V30 3269 O 319.432 -4.47399 3.53822 0
M  V30 3270 O 318.366 -3.2666 5.05546 0
M  V30 3271 H 322.192 -0.715013 2.95163 0
M  V30 3272 H 319.777 -0.287531 1.46607 0
M  V30 3273 H 321.659 -3.16218 2.78539 0
M  V30 3274 H 320.334 -2.78447 1.65072 0
M  V30 3275 H 319.241 -1.36558 3.48285 0
M  V30 3276 H 320.574 -1.81499 4.57514 0
M  V30 3277 N 322.226 -1.5378 -0.344866 0
M  V30 3278 C 323.474 -1.70625 -1.08311 0
M  V30 3279 C 323.795 -0.471447 -1.89215 0
M  V30 3280 O 323.065 0.514616 -1.8902 0
M  V30 3281 H 321.645 -0.629058 -0.402859 0
M  V30 3282 H 324.307 -1.9103 -0.386459 0
M  V30 3283 H 323.403 -2.57656 -1.76124 0
M  V30 3284 N 323.704 0.605807 -1.45491 0
M  V30 3285 C 324.667 1.69836 -1.5391 0
M  V30 3286 C 325.667 1.55261 -0.418424 0
M  V30 3287 O 326.857 1.60296 -0.681965 0
M  V30 3288 C 323.989 3.09117 -1.43734 0
M  V30 3289 H 325.182 1.63738 -2.51257 0
M  V30 3290 H 322.735 0.821689 -1.32959 0
M  V30 3291 H 323.47 3.20791 -0.475788 0
M  V30 3292 H 323.255 3.21104 -2.25021 0
M  V30 3293 H 324.745 3.88696 -1.52661 0
M  V30 3294 N 325.182 1.32811 0.848464 0
M  V30 3295 C 326.132 1.18842 1.94578 0
M  V30 3296 C 327.116 0.0937517 1.60627 0
M  V30 3297 O 328.308 0.320887 1.74067 0
M  V30 3298 C 325.437 0.91999 3.30743 0
M  V30 3299 C 324.523 2.05665 3.70894 0
M  V30 3300 N 324.914 3.30579 3.8282 0
M  V30 3301 C 323.212 1.9612 4.00566 0
M  V30 3302 C 323.913 4.05067 4.17487 0
M  V30 3303 N 322.889 3.33419 4.2934 0
M  V30 3304 H 326.691 2.13536 2.0194 0
M  V30 3305 H 324.205 1.2468 1.0406 0
M  V30 3306 H 326.202 0.800859 4.09136 0
M  V30 3307 H 324.862 -0.0185076 3.24695 0
M  V30 3308 H 325.873 3.65441 3.66978 0
M  V30 3309 H 322.55 1.09871 4.02784 0
M  V30 3310 H 323.94 5.12815 4.34131 0
M  V30 3311 N 326.66 -1.06551 1.16123 0
M  V30 3312 C 327.592 -2.13908 0.823171 0
M  V30 3313 C 328.605 -1.61926 -0.16843 0
M  V30 3314 O 329.794 -1.78412 0.055962 0
M  V30 3315 C 326.894 -3.38283 0.204424 0
M  V30 3316 C 326.067 -4.19589 1.23548 0
M  V30 3317 C 325.126 -5.2233 0.637011 0
M  V30 3318 O 324.152 -5.54034 1.30516 0
M  V30 3319 N 325.354 -5.77621 -0.577474 0
M  V30 3320 H 328.119 -2.43508 1.74711 0
M  V30 3321 H 325.68 -1.2253 1.05821 0
M  V30 3322 H 327.672 -4.0416 -0.208909 0
M  V30 3323 H 326.242 -3.06329 -0.623012 0
M  V30 3324 H 325.462 -3.49406 1.82507 0
M  V30 3325 H 326.75 -4.70718 1.93137 0
M  V30 3326 H 326.148 -5.54125 -1.13853 0
M  V30 3327 H 324.705 -6.45087 -0.933053 0
M  V30 3328 N 328.138 -0.959301 -1.25041 0
M  V30 3329 C 329.386 -0.615393 -1.92503 0
M  V30 3330 C 329.707 0.850969 -1.75452 0
M  V30 3331 O 328.977 1.60658 -1.12098 0
M  V30 3332 H 327.557 -0.224613 -0.712431 0
M  V30 3333 H 330.219 -1.21855 -1.5211 0
M  V30 3334 H 329.315 -0.848738 -3.00338 0
M  V30 3335 N 329.616 1.39756 -0.72842 0
M  V30 3336 C 330.862 2.00942 -0.273892 0
M  V30 3337 C 331.195 1.57656 1.13394 0
M  V30 3338 O 330.47 0.802434 1.77176 0
M  V30 3339 C 330.753 3.58211 -0.368346 0
M  V30 3340 C 330.606 4.11534 -1.81548 0
M  V30 3341 C 331.925 4.39372 0.253054 0
M  V30 3342 H 329.044 0.730047 -0.100996 0
M  V30 3343 H 331.686 1.66056 -0.923337 0
M  V30 3344 H 329.836 3.88061 0.184588 0
M  V30 3345 H 331.508 3.92431 -2.42478 0
M  V30 3346 H 329.751 3.65341 -2.33898 0
M  V30 3347 H 330.422 5.20682 -1.83288 0
M  V30 3348 H 332.898 4.15527 -0.218224 0
M  V30 3349 H 331.774 5.48677 0.156585 0
M  V30 3350 H 332.035 4.21358 1.33826 0
M  V30 3351 N 331.094 0.475555 1.50254 0
M  V30 3352 C 332.342 -0.077738 2.0195 0
M  V30 3353 C 332.663 -1.39813 1.35931 0
M  V30 3354 O 331.933 -1.89249 0.506123 0
M  V30 3355 H 330.513 -0.031719 0.746326 0
M  V30 3356 H 333.175 0.626995 1.84539 0
M  V30 3357 H 332.271 -0.225995 3.11281 0
M  V30 3358 N 332.573 -1.56217 0.208337 0
M  V30 3359 C 333.503 -2.22694 -0.702116 0
M  V30 3360 C 334.484 -1.19432 -1.2112 0
M  V30 3361 O 335.669 -1.47978 -1.25762 0
M  V30 3362 C 332.799 -2.8966 -1.9161 0
M  V30 3363 C 331.753 -3.9928 -1.5414 0
M  V30 3364 C 331.079 -4.53476 -2.83308 0
M  V30 3365 C 332.379 -5.17012 -0.741339 0
M  V30 3366 H 334.073 -2.99034 -0.147898 0
M  V30 3367 H 331.619 -1.43831 -0.0696951 0
M  V30 3368 H 333.572 -3.34852 -2.55836 0
M  V30 3369 H 332.296 -2.10746 -2.49507 0
M  V30 3370 H 330.955 -3.54799 -0.922668 0
M  V30 3371 H 330.603 -3.71308 -3.39322 0
M  V30 3372 H 330.303 -5.27451 -2.58976 0
M  V30 3373 H 331.827 -5.01378 -3.485 0
M  V30 3374 H 333.241 -5.58667 -1.28699 0
M  V30 3375 H 331.638 -5.97137 -0.595627 0
M  V30 3376 H 332.708 -4.8423 0.254851 0
M  V30 3377 N 334.051 0.0651679 -1.57465 0
M  V30 3378 C 335.299 0.761555 -1.87202 0
M  V30 3379 C 335.62 1.77778 -0.801243 0
M  V30 3380 O 334.89 1.95166 0.16937 0
M  V30 3381 H 333.47 0.284251 -0.690804 0
M  V30 3382 H 336.132 0.0396827 -1.9486 0
M  V30 3383 H 335.228 1.27365 -2.84929 0
M  V30 3384 N 335.529 1.53961 0.336706 0
M  V30 3385 C 336.479 1.7881 1.41461 0
M  V30 3386 C 337.463 0.643561 1.47469 0
M  V30 3387 O 338.655 0.903166 1.52223 0
M  V30 3388 C 335.784 2.00722 2.78506 0
M  V30 3389 C 334.87 3.2126 2.76862 0
M  V30 3390 N 335.261 4.42588 2.44845 0
M  V30 3391 C 333.559 3.22568 3.08004 0
M  V30 3392 C 334.26 5.2447 2.51607 0
M  V30 3393 N 333.236 4.61344 2.87511 0
M  V30 3394 H 337.038 2.70205 1.15615 0
M  V30 3395 H 334.552 1.52978 0.545112 0
M  V30 3396 H 336.549 2.1666 3.5618 0
M  V30 3397 H 335.209 1.10573 3.05293 0
M  V30 3398 H 336.22 4.69819 2.17922 0
M  V30 3399 H 332.897 2.42409 3.39918 0
M  V30 3400 H 334.287 6.31324 2.29955 0
M  V30 3401 N 337.007 -0.598083 1.45811 0
M  V30 3402 C 337.939 -1.72231 1.51225 0
M  V30 3403 C 338.952 -1.57757 0.402059 0
M  V30 3404 O 340.141 -1.65464 0.669624 0
M  V30 3405 C 337.241 -3.10331 1.3619 0
M  V30 3406 C 336.414 -3.50955 2.61054 0
M  V30 3407 C 335.473 -4.68055 2.40439 0
M  V30 3408 O 334.499 -4.74691 3.14097 0
M  V30 3409 N 335.701 -5.61941 1.45612 0
M  V30 3410 H 338.466 -1.68046 2.48154 0
M  V30 3411 H 336.027 -0.783637 1.41671 0
M  V30 3412 H 338.019 -3.86439 1.20195 0
M  V30 3413 H 336.589 -3.0897 0.475015 0
M  V30 3414 H 335.809 -2.64711 2.92099 0
M  V30 3415 H 337.097 -3.74858 3.44034 0
M  V30 3416 H 336.495 -5.59301 0.848431 0
M  V30 3417 H 335.052 -6.37542 1.35585 0
M  V30 3418 N 338.485 -1.33259 -0.841409 0
M  V30 3419 C 339.732 -1.24572 -1.5965 0
M  V30 3420 C 340.06 0.189137 -1.93578 0
M  V30 3421 O 339.315 1.14566 -1.5866 0
M  V30 3422 C 339.614 -2.06381 -2.9179 0
M  V30 3423 C 339.28 -3.556 -2.77235 0
M  V30 3424 C 337.942 -3.96282 -2.72973 0
M  V30 3425 C 340.294 -4.50433 -2.62221 0
M  V30 3426 C 337.622 -5.30017 -2.51592 0
M  V30 3427 C 339.974 -5.84327 -2.42374 0
M  V30 3428 C 338.638 -6.24194 -2.36512 0
M  V30 3429 H 337.908 -0.455842 -0.5842 0
M  V30 3430 H 340.555 -1.6482 -0.975016 0
M  V30 3431 H 338.86 -1.58903 -3.5813 0
M  V30 3432 H 340.557 -1.97019 -3.49263 0
M  V30 3433 H 337.147 -3.23298 -2.81384 0
M  V30 3434 H 341.331 -4.19914 -2.64549 0
M  V30 3435 H 336.587 -5.59947 -2.45499 0
M  V30 3436 H 340.761 -6.57414 -2.29739 0
M  V30 3437 H 338.388 -7.27759 -2.19706 0
M  V30 3438 N 339.963 1.05934 -1.16686 0
M  V30 3439 C 340.893 2.1546 -0.899949 0
M  V30 3440 C 341.874 1.69391 0.155154 0
M  V30 3441 O 343.059 1.94199 0.00648693 0
M  V30 3442 C 340.189 3.44939 -0.404241 0
M  V30 3443 C 339.143 4.04536 -1.39767 0
M  V30 3444 C 338.469 5.29268 -0.760216 0
M  V30 3445 C 339.769 4.42893 -2.76845 0
M  V30 3446 H 341.463 2.38046 -1.81588 0
M  V30 3447 H 339.009 1.14404 -0.874514 0
M  V30 3448 H 340.962 4.20901 -0.204971 0
M  V30 3449 H 339.686 3.21983 0.547206 0
M  V30 3450 H 338.345 3.30635 -1.58355 0
M  V30 3451 H 337.993 5.02611 0.197831 0
M  V30 3452 H 337.693 5.70101 -1.42332 0
M  V30 3453 H 339.217 6.07924 -0.57105 0
M  V30 3454 H 340.631 5.09921 -2.62019 0
M  V30 3455 H 339.028 4.94721 -3.39663 0
M  V30 3456 H 340.098 3.53584 -3.31823 0
M  V30 3457 N 341.441 0.965919 1.2453 0
M  V30 3458 C 342.857 0.67216 1.44756 0
M  V30 3459 C 343.057 -0.766609 1.86347 0
M  V30 3460 O 342.113 -1.5407 2.00047 0
M  V30 3461 C 343.426 1.65473 2.51076 0
M  V30 3462 C 344.974 1.66716 2.64905 0
M  V30 3463 C 345.449 2.63766 3.74421 0
M  V30 3464 N 346.94 2.62198 3.81846 0
M  V30 3465 C 347.675 3.33966 4.66106 0
M  V30 3466 N 347.171 4.15245 5.54566 0
M  V30 3467 N 348.964 3.22799 4.60171 0
M  V30 3468 H 341.115 1.89553 0.958293 0
M  V30 3469 H 343.378 0.815979 0.482579 0
M  V30 3470 H 343.084 2.68296 2.27399 0
M  V30 3471 H 342.958 1.4261 3.49202 0
M  V30 3472 H 345.345 0.646057 2.87941 0
M  V30 3473 H 345.426 1.93642 1.67142 0
M  V30 3474 H 345.07 3.6601 3.52135 0
M  V30 3475 H 345 2.34121 4.71694 0
M  V30 3476 H 347.491 2.032 3.18619 0
M  V30 3477 H 347.804 4.66898 6.15814 0
M  V30 3478 H 346.149 4.1934 5.54237 0
M  V30 3479 H 349.34 2.58764 3.90075 0
M  V30 3480 H 349.513 3.78994 5.25612 0
M  V30 3481 N 342.919 -1.39368 0.735821 0
M  V30 3482 C 343.869 -2.27885 0.0724287 0
M  V30 3483 C 344.853 -1.44301 -0.711756 0
M  V30 3484 O 346.045 -1.67206 -0.58063 0
M  V30 3485 C 343.174 -3.33029 -0.833454 0
M  V30 3486 C 342.26 -4.24078 -0.0433749 0
M  V30 3487 N 342.651 -4.96138 0.983903 0
M  V30 3488 C 340.949 -4.45164 -0.272905 0
M  V30 3489 C 341.65 -5.63069 1.4604 0
M  V30 3490 N 340.626 -5.37991 0.778857 0
M  V30 3491 H 344.428 -2.81052 0.859467 0
M  V30 3492 H 341.942 -1.5206 0.570227 0
M  V30 3493 H 343.939 -3.95311 -1.32419 0
M  V30 3494 H 342.599 -2.81421 -1.61964 0
M  V30 3495 H 343.61 -4.9958 1.36528 0
M  V30 3496 H 340.287 -4.04497 -1.03383 0
M  V30 3497 H 341.677 -6.30755 2.31511 0
M  V30 3498 N 344.397 -0.483516 -1.5 0
M  V30 3499 C 345.646 0.0689102 -2.01582 0
M  V30 3500 C 345.959 1.39655 -1.36952 0
M  V30 3501 O 347.165 2.03465 -1.79762 0
M  V30 3502 C 345.621 0.173302 -3.59483 0
M  V30 3503 C 345.229 -1.14665 -4.33077 0
M  V30 3504 C 346.973 0.677024 -4.19066 0
M  V30 3505 C 344.88 -1.00537 -5.82792 0
M  V30 3506 H 343.81 0.0295277 -0.753422 0
M  V30 3507 H 346.461 -0.620295 -1.72698 0
M  V30 3508 H 344.843 0.926569 -3.85007 0
M  V30 3509 H 346.017 -1.91184 -4.19268 0
M  V30 3510 H 344.332 -1.58244 -3.85159 0
M  V30 3511 H 346.929 0.799952 -5.28682 0
M  V30 3512 H 347.272 1.67151 -3.81269 0
M  V30 3513 H 347.805 -0.0192083 -3.97795 0
M  V30 3514 H 344.544 -1.9736 -6.25083 0
M  V30 3515 H 344.064 -0.280776 -5.99142 0
M  V30 3516 H 345.743 -0.677 -6.43448 0
M  V30 3517 N 345.875 1.56104 -0.216619 0
M  V30 3518 C 346.785 2.23694 0.706982 0
M  V30 3519 C 347.801 1.24295 1.21765 0
M  V30 3520 O 348.977 1.57094 1.2603 0
M  V30 3521 C 346.042 2.8998 1.90033 0
M  V30 3522 C 345.103 4.04708 1.43213 0
M  V30 3523 C 344.336 4.67824 2.56859 0
M  V30 3524 O 344.559 4.29913 3.74874 0
M  V30 3525 O 343.493 5.56905 2.28343 0
M  V30 3526 H 347.319 3.03272 0.161235 0
M  V30 3527 H 344.904 1.49394 0.0136177 0
M  V30 3528 H 346.786 3.31837 2.59735 0
M  V30 3529 H 345.461 2.13365 2.43428 0
M  V30 3530 H 344.368 3.6743 0.70327 0
M  V30 3531 H 345.701 4.83051 0.944615 0
M  V30 3532 N 347.353 -0.0568162 1.57498 0
M  V30 3533 C 348.769 -0.411933 1.54192 0
M  V30 3534 C 348.969 -1.78287 0.938942 0
M  V30 3535 O 348.025 -2.46483 0.547919 0
M  V30 3536 C 349.338 -0.339244 2.9878 0
M  V30 3537 C 350.886 -0.418348 3.10192 0
M  V30 3538 C 351.361 -0.375407 4.56459 0
M  V30 3539 N 352.852 -0.435038 4.61153 0
M  V30 3540 C 353.587 -0.424265 5.71828 0
M  V30 3541 N 353.083 -0.367418 6.91825 0
M  V30 3542 N 354.876 -0.471938 5.60115 0
M  V30 3543 H 347.027 0.840684 1.95055 0
M  V30 3544 H 349.29 0.316987 0.893433 0
M  V30 3545 H 348.996 0.601742 3.46514 0
M  V30 3546 H 348.87 -1.14371 3.59443 0
M  V30 3547 H 351.257 -1.34976 2.62422 0
M  V30 3548 H 351.338 0.414962 2.52412 0
M  V30 3549 H 350.982 0.552219 5.04889 0
M  V30 3550 H 350.912 -1.22645 5.12119 0
M  V30 3551 H 353.403 -0.482612 3.74806 0
M  V30 3552 H 353.716 -0.363535 7.71944 0
M  V30 3553 H 352.061 -0.333879 6.94198 0
M  V30 3554 H 355.252 -0.514145 4.65268 0
M  V30 3555 H 355.425 -0.460073 6.46365 0
M  V30 3556 N 348.832 -1.54138 -0.328536 0
M  V30 3557 C 350.06 -1.76062 -1.08673 0
M  V30 3558 C 350.475 -0.506852 -1.81869 0
M  V30 3559 O 349.832 0.522223 -1.74869 0
M  V30 3560 C 349.883 -2.95054 -2.08866 0
M  V30 3561 O 349.604 -4.15583 -1.38644 0
M  V30 3562 C 351.105 -3.2915 -2.96943 0
M  V30 3563 H 348.325 -0.587889 -0.323461 0
M  V30 3564 H 350.869 -2.0101 -0.376175 0
M  V30 3565 H 349.024 -2.72394 -2.75464 0
M  V30 3566 H 349.438 -4.82481 -2.05699 0
M  V30 3567 H 350.912 -4.15723 -3.63151 0
M  V30 3568 H 351.389 -2.461 -3.63774 0
M  V30 3569 H 351.995 -3.53871 -2.35914 0
M  V30 3570 N 350.31 0.590341 -1.46126 0
M  V30 3571 C 351.726 0.912917 -1.30912 0
M  V30 3572 C 351.926 1.99616 -0.274893 0
M  V30 3573 O 350.982 2.50397 0.325197 0
M  V30 3574 C 352.295 1.3375 -2.69317 0
M  V30 3575 C 353.843 1.45077 -2.77348 0
M  V30 3576 C 354.318 1.90904 -4.16317 0
M  V30 3577 N 355.809 1.9811 -4.18696 0
M  V30 3578 C 356.544 2.34828 -5.23109 0
M  V30 3579 N 356.04 2.70393 -6.37856 0
M  V30 3580 N 357.833 2.35317 -5.10473 0
M  V30 3581 H 349.984 -0.125358 -2.1203 0
M  V30 3582 H 352.247 0.00658481 -0.947977 0
M  V30 3583 H 351.953 0.615614 -3.4627 0
M  V30 3584 H 351.827 2.30058 -2.9892 0
M  V30 3585 H 354.214 2.16353 -2.00687 0
M  V30 3586 H 354.295 0.4704 -2.51438 0
M  V30 3587 H 353.939 1.20209 -4.9347 0
M  V30 3588 H 353.869 2.89886 -4.39629 0
M  V30 3589 H 356.36 1.73146 -3.359 0
M  V30 3590 H 356.673 2.97341 -7.13308 0
M  V30 3591 H 355.018 2.68048 -6.41229 0
M  V30 3592 H 358.209 2.0695 -4.19868 0
M  V30 3593 H 358.382 2.63605 -5.9196 0
M  V30 3594 N 351.788 1.33704 0.83433 0
M  V30 3595 C 353.034 1.25603 1.59222 0
M  V30 3596 C 353.367 -0.176659 1.93395 0
M  V30 3597 O 352.642 -1.11915 1.59076 0
M  V30 3598 C 352.925 2.13576 2.89926 0
M  V30 3599 C 352.778 3.65326 2.62406 0
M  V30 3600 C 354.097 2.01238 3.91397 0
M  V30 3601 H 351.216 0.457613 0.577719 0
M  V30 3602 H 353.858 1.63848 0.961972 0
M  V30 3603 H 352.008 1.8109 3.43713 0
M  V30 3604 H 353.68 4.08124 2.15017 0
M  V30 3605 H 351.923 3.8698 1.96033 0
M  V30 3606 H 352.594 4.22232 3.55562 0
M  V30 3607 H 355.07 2.29738 3.46929 0
M  V30 3608 H 353.946 2.65036 4.80673 0
M  V30 3609 H 354.207 0.985951 4.30966 0
M  V30 3610 N 353.266 -1.05314 1.17247 0
M  V30 3611 C 354.515 -1.77685 0.954521 0
M  V30 3612 C 354.828 -1.88616 -0.518025 0
M  V30 3613 O 356.034 -2.57714 -0.854144 0
M  V30 3614 C 354.49 -3.19402 1.65863 0
M  V30 3615 C 354.098 -3.16605 3.16963 0
M  V30 3616 C 355.842 -3.96237 1.52303 0
M  V30 3617 C 353.749 -4.53103 3.80068 0
M  V30 3618 H 352.679 -0.666 0.353496 0
M  V30 3619 H 355.33 -1.1805 1.40486 0
M  V30 3620 H 353.712 -3.79355 1.13602 0
M  V30 3621 H 354.886 -2.66176 3.76148 0
M  V30 3622 H 353.201 -2.53268 3.30521 0
M  V30 3623 H 355.798 -4.97157 1.96822 0
M  V30 3624 H 356.141 -4.136 0.473401 0
M  V30 3625 H 356.674 -3.42829 2.01775 0
M  V30 3626 H 353.413 -4.40946 4.85023 0
M  V30 3627 H 352.933 -5.03686 3.2567 0
M  V30 3628 H 354.612 -5.22045 3.82202 0
M  V30 3629 N 354.744 -0.972509 -1.24016 0
M  V30 3630 C 355.99 -0.637978 -1.92504 0
M  V30 3631 C 356.323 0.825383 -1.75787 0
M  V30 3632 O 355.598 1.59442 -1.11393 0
M  V30 3633 C 355.881 -1.01942 -3.45369 0
M  V30 3634 C 355.734 -2.53983 -3.71231 0
M  V30 3635 C 357.053 -0.55751 -4.36555 0
M  V30 3636 H 354.172 -0.233248 -0.699117 0
M  V30 3637 H 356.814 -1.21238 -1.46292 0
M  V30 3638 H 354.964 -0.530656 -3.84859 0
M  V30 3639 H 356.636 -3.10374 -3.41271 0
M  V30 3640 H 354.879 -2.96968 -3.16216 0
M  V30 3641 H 355.55 -2.75723 -4.78206 0
M  V30 3642 H 358.026 -0.977029 -4.04467 0
M  V30 3643 H 356.902 -0.85292 -5.42233 0
M  V30 3644 H 357.163 0.542328 -4.38761 0
M  V30 3645 N 356.222 1.38976 -0.743202 0
M  V30 3646 C 357.172 2.27843 -0.084513 0
M  V30 3647 C 358.156 1.44677 0.704094 0
M  V30 3648 O 359.348 1.67511 0.571755 0
M  V30 3649 C 356.477 3.33466 0.815781 0
M  V30 3650 C 355.563 4.24095 0.0208844 0
M  V30 3651 N 355.954 4.95609 -1.0102 0
M  V30 3652 C 354.252 4.45303 0.249293 0
M  V30 3653 C 354.953 5.62287 -1.49024 0
M  V30 3654 N 353.929 5.37571 -0.807377 0
M  V30 3655 H 357.731 2.80593 -0.87436 0
M  V30 3656 H 355.245 1.51755 -0.578283 0
M  V30 3657 H 357.242 3.96008 1.30321 0
M  V30 3658 H 355.902 2.82276 1.6047 0
M  V30 3659 H 356.913 4.98849 -1.39176 0
M  V30 3660 H 353.59 4.0504 1.01237 0
M  V30 3661 H 354.98 6.29519 -2.34853 0
M  V30 3662 N 357.7 0.491464 1.49741 0
M  V30 3663 C 358.946 -0.0565092 2.02721 0
M  V30 3664 C 359.279 -1.37522 1.37118 0
M  V30 3665 O 358.554 -1.87866 0.503645 0
M  V30 3666 C 358.837 -0.219051 3.59433 0
M  V30 3667 C 358.69 1.12211 4.35579 0
M  V30 3668 C 360.009 -0.964157 4.29409 0
M  V30 3669 H 357.128 -0.0190627 0.736753 0
M  V30 3670 H 359.77 0.641021 1.7886 0
M  V30 3671 H 357.92 -0.813165 3.79895 0
M  V30 3672 H 359.592 1.75437 4.26637 0
M  V30 3673 H 357.835 1.71377 3.98513 0
M  V30 3674 H 358.506 0.961794 5.43556 0
M  V30 3675 H 360.982 -0.460378 4.13545 0
M  V30 3676 H 359.858 -1.04671 5.38828 0
M  V30 3677 H 360.119 -2.00563 3.93988 0
M  V30 3678 N 359.178 -1.55987 0.224894 0
M  V30 3679 C 360.427 -1.97566 -0.406273 0
M  V30 3680 C 360.74 -1.11569 -1.6066 0
M  V30 3681 O 361.946 -1.43062 -2.3075 0
M  V30 3682 C 360.402 -3.51474 -0.774207 0
M  V30 3683 C 360.01 -4.46179 0.403496 0
M  V30 3684 C 361.754 -4.01758 -1.37079 0
M  V30 3685 C 359.661 -5.91399 0.0129412 0
M  V30 3686 H 358.591 -0.737777 -0.155565 0
M  V30 3687 H 361.242 -1.80659 0.321635 0
M  V30 3688 H 359.624 -3.63994 -1.55963 0
M  V30 3689 H 360.798 -4.45409 1.18101 0
M  V30 3690 H 359.113 -4.06255 0.913536 0
M  V30 3691 H 361.71 -5.07756 -1.67596 0
M  V30 3692 H 362.053 -3.47805 -2.28773 0
M  V30 3693 H 362.586 -3.92475 -0.648733 0
M  V30 3694 H 359.325 -6.49341 0.896451 0
M  V30 3695 H 358.845 -5.95356 -0.728821 0
M  V30 3696 H 360.524 -6.45683 -0.412582 0
M  V30 3697 N 360.656 0.0484629 -1.57525 0
M  V30 3698 C 361.933 0.777447 -1.79486 0
M  V30 3699 C 362.313 1.94597 -0.818251 0
M  V30 3700 O 361.661 2.28047 0.143767 0
M  V30 3701 C 361.871 1.22864 -3.26658 0
M  V30 3702 C 363.219 1.65251 -3.91123 0
M  V30 3703 O 364.243 1.32372 -3.3069 0
M  V30 3704 O 363.102 2.26207 -4.97486 0
M  V30 3705 H 360.196 0.374357 -0.737419 0
M  V30 3706 H 362.742 0.0267359 -1.69679 0
M  V30 3707 H 361.514 0.393589 -3.89316 0
M  V30 3708 H 361.137 2.03996 -3.41279 0
M  V30 3709 N 362.134 1.5431 0.320358 0
M  V30 3710 C 363.067 1.78769 1.41834 0
M  V30 3711 C 364.045 0.63783 1.49568 0
M  V30 3712 O 365.229 0.875628 1.66928 0
M  V30 3713 C 362.356 1.90712 2.79905 0
M  V30 3714 C 361.402 3.13023 2.89687 0
M  V30 3715 S 362.235 4.71554 2.53766 0
M  V30 3716 C 363.391 4.86408 3.93902 0
M  V30 3717 H 363.624 2.71619 1.20874 0
M  V30 3718 H 361.157 1.45474 0.517377 0
M  V30 3719 H 363.115 1.98279 3.59438 0
M  V30 3720 H 361.776 0.988343 2.98145 0
M  V30 3721 H 360.969 3.18124 3.90913 0
M  V30 3722 H 360.571 3.03803 2.18128 0
M  V30 3723 H 362.863 4.69241 4.88691 0
M  V30 3724 H 363.806 5.88508 3.93782 0
M  V30 3725 H 364.214 4.14689 3.83005 0
M  V30 3726 N 363.613 -0.582584 1.46437 0
M  V30 3727 C 364.838 -1.37168 1.55563 0
M  V30 3728 C 365.263 -1.87061 0.19743 0
M  V30 3729 O 364.621 -1.61572 -0.822451 0
M  V30 3730 C 364.669 -2.53511 2.56446 0
M  V30 3731 O 363.773 -3.54953 2.09958 0
M  V30 3732 H 363.114 -0.408494 0.523477 0
M  V30 3733 H 365.644 -0.706646 1.9201 0
M  V30 3734 H 365.654 -3.00426 2.76058 0
M  V30 3735 H 364.329 -2.16549 3.55076 0
M  V30 3736 H 362.906 -3.14516 2.00334 0
M  V30 3737 N 365.091 -1.34144 -0.827227 0
M  V30 3738 C 366.339 -1.26009 -1.58007 0
M  V30 3739 C 366.66 0.170971 -1.94249 0
M  V30 3740 O 365.93 1.10256 -1.61927 0
M  V30 3741 H 364.51 -0.463414 -0.585881 0
M  V30 3742 H 367.172 -1.68005 -0.987951 0
M  V30 3743 H 366.268 -1.86187 -2.50481 0
M  V30 3744 N 366.569 1.04691 -1.17803 0
M  V30 3745 C 367.499 2.14494 -0.92275 0
M  V30 3746 C 368.48 1.69546 0.137179 0
M  V30 3747 O 369.665 1.94195 -0.0141108 0
M  V30 3748 C 366.795 3.44491 -0.440803 0
M  V30 3749 C 365.749 4.03031 -1.4405 0
M  V30 3750 C 365.075 5.28432 -0.81631 0
M  V30 3751 C 366.375 4.39932 -2.81527 0
M  V30 3752 H 368.069 2.36107 -1.84103 0
M  V30 3753 H 365.615 1.1347 -0.886599 0
M  V30 3754 H 367.568 4.2066 -0.249602 0
M  V30 3755 H 366.292 3.22546 0.513025 0
M  V30 3756 H 364.951 3.28937 -1.61853 0
M  V30 3757 H 364.599 5.02792 0.144511 0
M  V30 3758 H 364.299 5.68559 -1.48371 0
M  V30 3759 H 365.823 6.07284 -0.635496 0
M  V30 3760 H 367.237 5.07113 -2.67412 0
M  V30 3761 H 365.634 4.9109 -3.44892 0
M  V30 3762 H 366.704 3.50045 -3.35554 0
M  V30 3763 N 368.047 0.979072 1.23499 0
M  V30 3764 C 368.957 0.526431 2.28617 0
M  V30 3765 C 369.973 -0.418126 1.68901 0
M  V30 3766 O 371.149 -0.288372 1.99325 0
M  V30 3767 C 368.214 -0.165235 3.46306 0
M  V30 3768 C 367.275 0.82056 4.21385 0
M  V30 3769 C 366.508 0.161807 5.33455 0
M  V30 3770 O 366.731 -1.04742 5.60701 0
M  V30 3771 O 365.665 0.859708 5.95729 0
M  V30 3772 H 369.491 1.4006 2.69475 0
M  V30 3773 H 367.076 0.746643 1.29405 0
M  V30 3774 H 368.958 -0.553287 4.17752 0
M  V30 3775 H 367.633 -1.01419 3.07402 0
M  V30 3776 H 366.54 1.25929 3.52268 0
M  V30 3777 H 367.873 1.63828 4.64135 0
M  V30 3778 N 369.525 -1.3858 0.750561 0
M  V30 3779 C 370.773 -1.99789 0.30477 0
M  V30 3780 C 371.094 -1.59874 -1.11649 0
M  V30 3781 O 370.364 -0.85417 -1.76297 0
M  V30 3782 H 368.944 -0.738902 0.109694 0
M  V30 3783 H 371.606 -1.69391 0.963983 0
M  V30 3784 H 370.702 -3.09952 0.365499 0
M  V30 3785 N 371.003 -0.499398 -1.49478 0
M  V30 3786 C 372.419 -0.155261 -1.58843 0
M  V30 3787 C 372.619 1.34008 -1.50479 0
M  V30 3788 O 371.675 2.11589 -1.37791 0
M  V30 3789 C 372.988 -0.730636 -2.91689 0
M  V30 3790 C 374.536 -0.696599 -3.0515 0
M  V30 3791 C 375.011 -1.25001 -4.40612 0
M  V30 3792 N 376.502 -1.21064 -4.47099 0
M  V30 3793 C 377.237 -1.60905 -5.50361 0
M  V30 3794 N 376.733 -2.08331 -6.60735 0
M  V30 3795 N 378.526 -1.52331 -5.41065 0
M  V30 3796 H 370.677 -1.47162 -1.53158 0
M  V30 3797 H 372.94 -0.610309 -0.725415 0
M  V30 3798 H 372.646 -1.77928 -3.03372 0
M  V30 3799 H 372.52 -0.190161 -3.7672 0
M  V30 3800 H 374.907 0.343204 -2.93097 0
M  V30 3801 H 374.988 -1.2742 -2.21806 0
M  V30 3802 H 374.632 -2.28859 -4.53416 0
M  V30 3803 H 374.562 -0.64836 -5.22593 0
M  V30 3804 H 377.053 -0.863128 -3.67911 0
M  V30 3805 H 377.366 -2.36805 -7.35624 0
M  V30 3806 H 375.711 -2.12304 -6.6178 0
M  V30 3807 H 378.902 -1.151 -4.53729 0
M  V30 3808 H 379.075 -1.83704 -6.21415 0
M  V30 3809 N 372.481 1.55866 -0.233164 0
M  V30 3810 C 373.758 1.90471 0.444988 0
M  V30 3811 C 374.138 1.15209 1.7689 0
M  V30 3812 O 373.486 0.265119 2.26957 0
M  V30 3813 C 373.696 3.4333 0.626559 0
M  V30 3814 C 375.044 4.14319 0.92871 0
M  V30 3815 O 376.068 3.48993 0.712926 0
M  V30 3816 O 374.927 5.29846 1.33887 0
M  V30 3817 H 372.021 0.792347 0.236885 0
M  V30 3818 H 374.567 1.67437 -0.276211 0
M  V30 3819 H 373.339 3.90095 -0.306822 0
M  V30 3820 H 372.962 3.72181 1.39881 0
M  V30 3821 N 373.959 -0.0401083 1.57549 0
M  V30 3822 C 375.37 -0.588097 1.77196 0
M  V30 3823 C 375.721 -1.76209 0.862832 0
M  V30 3824 O 374.846 -2.16331 0.0548389 0
M  V30 3825 C 375.441 -1.07363 3.21339 0
M  V30 3826 C 374 -1.56723 3.42221 0
M  V30 3827 C 373.147 -0.50041 2.72747 0
M  V30 3828 H 376.098 0.186119 1.57605 0
M  V30 3829 H 376.119 -1.94143 3.27244 0
M  V30 3830 H 375.631 -0.218975 3.87482 0
M  V30 3831 H 373.732 -2.4441 2.81237 0
M  V30 3832 H 373.845 -1.62234 4.50796 0
M  V30 3833 H 372.209 -0.952894 2.36203 0
M  V30 3834 H 372.992 0.344599 3.41566 0
M  V30 3835 N 375.437 -1.54477 -0.31217 0
M  V30 3836 C 376.667 -1.76948 -1.06645 0
M  V30 3837 C 377.075 -0.523593 -1.81811 0
M  V30 3838 O 376.418 0.51578 -1.76311 0
M  V30 3839 C 376.48 -2.91668 -2.10166 0
M  V30 3840 C 376.144 -4.30165 -1.54296 0
M  V30 3841 C 377.141 -5.10603 -0.978793 0
M  V30 3842 C 374.826 -4.76738 -1.58196 0
M  V30 3843 C 376.82 -6.3573 -0.461048 0
M  V30 3844 C 374.507 -6.01831 -1.06034 0
M  V30 3845 C 375.505 -6.81161 -0.500844 0
M  V30 3846 O 375.193 -8.03899 0.0128958 0
M  V30 3847 H 374.925 -0.594088 -0.322546 0
M  V30 3848 H 377.479 -2.02213 -0.360441 0
M  V30 3849 H 375.709 -2.62001 -2.84416 0
M  V30 3850 H 377.398 -3.01817 -2.71406 0
M  V30 3851 H 378.164 -4.75771 -0.941651 0
M  V30 3852 H 374.043 -4.15027 -2.00683 0
M  V30 3853 H 377.587 -6.97596 -0.0236894 0
M  V30 3854 H 373.484 -6.36152 -1.09459 0
M  V30 3855 H 374.252 -8.18437 -0.101457 0
M  V30 3856 N 376.915 0.57481 -1.46744 0
M  V30 3857 C 378.192 1.3352 -1.4294 0
M  V30 3858 C 378.572 2.10775 -0.117009 0
M  V30 3859 O 377.92 2.09966 0.901474 0
M  V30 3860 C 378.13 2.25456 -2.66403 0
M  V30 3861 C 379.478 2.87035 -3.12883 0
M  V30 3862 O 380.502 2.35766 -2.67007 0
M  V30 3863 O 379.361 3.80179 -3.92589 0
M  V30 3864 H 376.455 0.600318 -0.568812 0
M  V30 3865 H 379.001 0.595171 -1.58921 0
M  V30 3866 H 377.773 1.67851 -3.53471 0
M  V30 3867 H 377.396 3.06785 -2.52921 0
M  V30 3868 N 378.394 1.34581 0.820102 0
M  V30 3869 C 379.671 1.17675 1.56244 0
M  V30 3870 C 380.051 -0.249541 2.0962 0
M  V30 3871 O 379.399 -1.25125 1.91196 0
M  V30 3872 C 379.609 2.23364 2.6816 0
M  V30 3873 C 380.957 2.58485 3.36854 0
M  V30 3874 O 381.981 2.22175 2.78418 0
M  V30 3875 O 380.84 3.20868 4.42386 0
M  V30 3876 H 377.934 0.456333 0.689702 0
M  V30 3877 H 380.48 1.46222 0.861231 0
M  V30 3878 H 379.252 3.19087 2.26493 0
M  V30 3879 H 378.875 1.96009 3.45928 0
M  V30 3880 N 379.872 -1.04064 1.18357 0
M  V30 3881 C 381.102 -1.80654 1.00238 0
M  V30 3882 C 381.51 -1.83713 -0.452362 0
M  V30 3883 O 380.853 -1.27135 -1.32599 0
M  V30 3884 C 380.915 -3.27582 1.48088 0
M  V30 3885 C 380.579 -3.48184 2.96002 0
M  V30 3886 C 381.576 -3.39372 3.93856 0
M  V30 3887 C 379.261 -3.7478 3.34433 0
M  V30 3888 C 381.255 -3.5686 5.28138 0
M  V30 3889 C 378.942 -3.91915 4.68877 0
M  V30 3890 C 379.94 -3.82956 5.65539 0
M  V30 3891 O 379.628 -3.996 6.97549 0
M  V30 3892 H 379.36 -0.575751 0.354241 0
M  V30 3893 H 381.914 -1.32044 1.57333 0
M  V30 3894 H 380.144 -3.77161 0.853588 0
M  V30 3895 H 381.833 -3.8573 1.2636 0
M  V30 3896 H 382.599 -3.18789 3.65511 0
M  V30 3897 H 378.478 -3.80852 2.59756 0
M  V30 3898 H 382.022 -3.49783 6.03571 0
M  V30 3899 H 377.919 -4.11992 4.96923 0
M  V30 3900 H 378.687 -4.1676 7.04452 0
M  V30 3901 N 381.35 -0.985608 -1.22978 0
M  V30 3902 C 382.28 -0.549649 -2.26939 0
M  V30 3903 C 383.261 0.419803 -1.64838 0
M  V30 3904 O 384.446 0.31203 -1.91677 0
M  V30 3905 C 381.576 0.143652 -3.47003 0
M  V30 3906 C 380.53 -0.743606 -4.21491 0
M  V30 3907 C 379.856 0.0822027 -5.34637 0
M  V30 3908 C 381.156 -2.03694 -4.80943 0
M  V30 3909 H 382.85 -1.41862 -2.63658 0
M  V30 3910 H 380.396 -0.683571 -1.26741 0
M  V30 3911 H 382.349 0.459985 -4.18882 0
M  V30 3912 H 381.073 1.04711 -3.09359 0
M  V30 3913 H 379.732 -1.04347 -3.51436 0
M  V30 3914 H 379.38 0.986359 -4.93234 0
M  V30 3915 H 379.08 -0.508377 -5.85397 0
M  V30 3916 H 380.604 0.392797 -6.09335 0
M  V30 3917 H 382.018 -1.78504 -5.44802 0
M  V30 3918 H 380.415 -2.57573 -5.42011 0
M  V30 3919 H 381.485 -2.72042 -4.01399 0
M  V30 3920 N 382.828 1.3818 -0.7579 0
M  V30 3921 C 384.056 2.04301 -0.326937 0
M  V30 3922 C 384.471 1.57163 1.0462 0
M  V30 3923 O 383.828 0.746626 1.66529 0
M  V30 3924 C 383.879 3.59846 -0.345363 0
M  V30 3925 O 383.6 4.05256 -1.66432 0
M  V30 3926 C 385.101 4.4319 0.098927 0
M  V30 3927 H 382.321 0.656443 -0.139012 0
M  V30 3928 H 384.865 1.76786 -1.02796 0
M  V30 3929 H 383.02 3.86182 0.306955 0
M  V30 3930 H 383.434 4.99709 -1.59345 0
M  V30 3931 H 384.908 5.51989 0.0348745 0
M  V30 3932 H 385.385 4.23947 1.14741 0
M  V30 3933 H 385.991 4.22051 -0.52468 0
M  V30 3934 N 384.306 0.507319 1.49211 0
M  V30 3935 C 385.555 -0.0368315 2.01666 0
M  V30 3936 C 385.868 -1.37459 1.39156 0
M  V30 3937 O 387.074 -2.00579 1.82976 0
M  V30 3938 C 385.53 -0.116089 3.59713 0
M  V30 3939 C 385.138 1.2154 4.31198 0
M  V30 3940 C 386.882 -0.610268 4.2009 0
M  V30 3941 C 384.789 1.09796 5.81119 0
M  V30 3942 H 383.719 -0.0175376 0.753796 0
M  V30 3943 H 386.37 0.647691 1.71689 0
M  V30 3944 H 384.752 -0.8652 3.86433 0
M  V30 3945 H 385.926 1.9783 4.16173 0
M  V30 3946 H 384.241 1.64352 3.82593 0
M  V30 3947 H 386.838 -0.715742 5.29888 0
M  V30 3948 H 387.181 -1.61064 3.8388 0
M  V30 3949 H 387.714 0.0824916 3.97714 0
M  V30 3950 H 384.453 2.0728 6.21864 0
M  V30 3951 H 383.973 0.376058 5.9862 0
M  V30 3952 H 385.652 0.779281 6.4229 0
M  V30 3953 N 385.784 -1.5574 0.241426 0
M  V30 3954 C 386.732 -2.22538 -0.676718 0
M  V30 3955 C 387.726 -1.21117 -1.18436 0
M  V30 3956 O 388.932 -1.39144 -1.14188 0
M  V30 3957 H 385.307 -0.713776 -0.236701 0
M  V30 3958 H 387.278 -2.98264 -0.0901187 0
M  V30 3959 C 386.027 -2.93439 -1.86518 0
M  V30 3960 H 385.35 -3.7125 -1.4837 0
M  V30 3961 H 386.79 -3.43549 -2.48495 0
M  V30 3962 C 385.249 -1.97008 -2.73294 0
M  V30 3963 O 385.779 -1.49965 -3.72657 0
M  V30 3964 N 383.985 -1.64227 -2.39745 0
M  V30 3965 H 383.532 -2.02677 -1.58996 0
M  V30 3966 H 383.49 -0.999708 -2.98083 0
M  V30 3967 N 387.262 0.0317525 -1.57568 0
M  V30 3968 C 388.194 1.06073 -2.03178 0
M  V30 3969 C 389.207 1.32627 -0.944132 0
M  V30 3970 O 390.396 1.30162 -1.22148 0
M  V30 3971 C 387.496 2.40297 -2.38978 0
M  V30 3972 C 386.669 2.33137 -3.70089 0
M  V30 3973 C 385.728 3.49787 -3.9311 0
M  V30 3974 O 384.754 3.29403 -4.64201 0
M  V30 3975 N 385.956 4.71562 -3.38541 0
M  V30 3976 H 388.721 0.672006 -2.92069 0
M  V30 3977 H 386.282 0.219745 -1.60402 0
M  V30 3978 H 388.274 3.1705 -2.51518 0
M  V30 3979 H 386.844 2.71024 -1.55771 0
M  V30 3980 H 386.064 1.415 -3.67928 0
M  V30 3981 H 387.352 2.25493 -4.56104 0
M  V30 3982 H 386.75 4.91024 -2.80912 0
M  V30 3983 H 385.307 5.45689 -3.56464 0
M  V30 3984 N 388.74 1.54641 0.303973 0
M  V30 3985 C 389.65 1.88439 1.39743 0
M  V30 3986 C 390.666 0.778239 1.55626 0
M  V30 3987 O 391.842 1.07442 1.70347 0
M  V30 3988 C 388.907 2.12212 2.74166 0
M  V30 3989 C 387.968 3.35936 2.67293 0
M  V30 3990 C 387.201 3.58566 3.95305 0
M  V30 3991 O 387.424 2.84263 4.9452 0
M  V30 3992 O 386.358 4.52078 3.97378 0
M  V30 3993 H 390.184 2.81458 1.14083 0
M  V30 3994 H 387.769 1.40793 0.499768 0
M  V30 3995 H 389.651 2.29067 3.53704 0
M  V30 3996 H 388.326 1.22379 2.99675 0
M  V30 3997 H 387.233 3.24448 1.86237 0
M  V30 3998 H 388.566 4.2589 2.46736 0
M  V30 3999 N 390.218 -0.567019 1.47046 0
M  V30 4000 C 391.148 -1.68482 1.61667 0
M  V30 4001 C 392.129 -1.6358 0.466418 0
M  V30 4002 O 393.314 -1.81354 0.694574 0
M  V30 4003 C 390.444 -3.07124 1.62148 0
M  V30 4004 C 389.398 -3.26867 2.76301 0
M  V30 4005 C 388.724 -4.66196 2.61849 0
M  V30 4006 C 390.024 -3.13186 4.17986 0
M  V30 4007 H 391.718 -1.56502 2.5524 0
M  V30 4008 H 389.264 -0.751486 1.22836 0
M  V30 4009 H 391.217 -3.8516 1.70968 0
M  V30 4010 H 389.941 -3.2004 0.651287 0
M  V30 4011 H 388.6 -2.51237 2.66975 0
M  V30 4012 H 388.248 -4.75898 1.62879 0
M  V30 4013 H 387.948 -4.80356 3.38425 0
M  V30 4014 H 389.472 -5.46379 2.72584 0
M  V30 4015 H 390.886 -3.81049 4.2834 0
M  V30 4016 H 389.283 -3.3886 4.95272 0
M  V30 4017 H 390.353 -2.10057 4.3704 0
M  V30 4018 N 391.696 -1.35014 -0.812953 0
M  V30 4019 C 392.921 -1.31187 -1.60639 0
M  V30 4020 C 393.346 0.109382 -1.87782 0
M  V30 4021 O 392.704 1.07424 -1.46047 0
M  V30 4022 C 392.752 -2.11809 -2.91838 0
M  V30 4023 O 391.856 -1.49444 -3.8437 0
M  V30 4024 H 391.197 -0.450084 -0.488181 0
M  V30 4025 H 393.727 -1.77963 -1.00947 0
M  V30 4026 H 393.737 -2.23531 -3.41318 0
M  V30 4027 H 392.412 -3.15137 -2.71407 0
M  V30 4028 H 390.989 -1.46524 -3.42907 0
M  V30 4029 N 393.175 1.03435 -1.18907 0
M  V30 4030 C 394.085 2.15075 -0.937015 0
M  V30 4031 C 395.101 1.73706 0.101085 0
M  V30 4032 O 396.277 2.01232 -0.0822948 0
M  V30 4033 C 393.342 3.43458 -0.473057 0
M  V30 4034 C 392.403 3.99172 -1.57989 0
M  V30 4035 C 391.636 5.21427 -1.13797 0
M  V30 4036 O 391.859 5.704 0.000725941 0
M  V30 4037 O 390.793 5.69837 -1.9383 0
M  V30 4038 H 394.619 2.39198 -1.87131 0
M  V30 4039 H 392.204 1.13506 -0.971427 0
M  V30 4040 H 394.086 4.20811 -0.222702 0
M  V30 4041 H 392.761 3.20793 0.432869 0
M  V30 4042 H 391.668 3.23178 -1.88433 0
M  V30 4043 H 393.001 4.2619 -2.46217 0
M  V30 4044 N 394.653 0.992116 1.22453 0
M  V30 4045 C 395.883 0.684949 1.94915 0
M  V30 4046 C 396.291 -0.754292 1.73514 0
M  V30 4047 O 395.634 -1.52056 1.03076 0
M  V30 4048 C 395.696 0.910054 3.47791 0
M  V30 4049 C 395.36 2.33363 3.92926 0
M  V30 4050 C 396.357 3.31308 4.00663 0
M  V30 4051 C 394.042 2.66785 4.25595 0
M  V30 4052 C 396.036 4.6075 4.40441 0
M  V30 4053 C 393.723 3.96446 4.65053 0
M  V30 4054 C 394.721 4.9324 4.72444 0
M  V30 4055 O 394.409 6.20584 5.1101 0
M  V30 4056 H 394.141 0.25258 0.62704 0
M  V30 4057 H 396.695 1.32939 1.56577 0
M  V30 4058 H 394.925 0.208443 3.86138 0
M  V30 4059 H 396.614 0.598257 4.01467 0
M  V30 4060 H 397.38 3.0682 3.75615 0
M  V30 4061 H 393.259 1.92148 4.19047 0
M  V30 4062 H 396.803 5.363 4.46126 0
M  V30 4063 H 392.7 4.20724 4.89552 0
M  V30 4064 H 393.468 6.24509 5.29085 0
M  V30 4065 N 396.131 -1.37776 0.765217 0
M  V30 4066 C 397.079 -2.32209 0.134798 0
M  V30 4067 C 398.073 -1.54607 -0.692315 0
M  V30 4068 O 399.279 -1.70052 -0.590109 0
M  V30 4069 H 395.654 -0.751591 0.0248005 0
M  V30 4070 H 397.625 -2.8297 0.947119 0
M  V30 4071 C 396.374 -3.39841 -0.735063 0
M  V30 4072 H 395.697 -3.99654 -0.107991 0
M  V30 4073 H 397.137 -4.08296 -1.14326 0
M  V30 4074 C 395.596 -2.79378 -1.88281 0
M  V30 4075 O 396.126 -2.69608 -2.97783 0
M  V30 4076 N 394.332 -2.37016 -1.68142 0
M  V30 4077 H 393.879 -2.45162 -0.790772 0
M  V30 4078 H 393.837 -1.96905 -2.45104 0
M  V30 4079 N 397.609 -0.515225 -1.4894 0
M  V30 4080 C 398.539 0.244628 -2.32215 0
M  V30 4081 C 399.52 0.949136 -1.41157 0
M  V30 4082 O 400.705 0.937783 -1.70057 0
M  V30 4083 C 397.835 1.30096 -3.22013 0
M  V30 4084 C 396.789 0.715486 -4.21977 0
M  V30 4085 C 396.115 1.87339 -5.00808 0
M  V30 4086 C 397.415 -0.302982 -5.2142 0
M  V30 4087 H 399.109 -0.450501 -2.95991 0
M  V30 4088 H 396.655 -0.218098 -1.42339 0
M  V30 4089 H 398.608 1.84037 -3.79089 0
M  V30 4090 H 397.332 2.02547 -2.56207 0
M  V30 4091 H 395.991 0.197715 -3.66066 0
M  V30 4092 H 395.639 2.58592 -4.31438 0
M  V30 4093 H 395.339 1.48764 -5.68457 0
M  V30 4094 H 396.863 2.41686 -5.60732 0
M  V30 4095 H 398.277 0.148802 -5.73107 0
M  V30 4096 H 396.674 -0.60532 -5.97039 0
M  V30 4097 H 397.744 -1.21395 -4.69459 0
M  V30 4098 N 399.087 1.5561 -0.249682 0
M  V30 4099 C 400.503 1.59254 0.105103 0
M  V30 4100 C 400.703 1.26685 1.56694 0
M  V30 4101 O 399.759 1.0155 2.31179 0
M  V30 4102 C 401.072 2.99687 -0.246592 0
M  V30 4103 C 402.62 3.12416 -0.191118 0
M  V30 4104 C 403.095 4.55074 -0.516885 0
M  V30 4105 N 404.586 4.60835 -0.467489 0
M  V30 4106 C 405.321 5.69201 -0.69268 0
M  V30 4107 N 404.817 6.85817 -0.981146 0
M  V30 4108 N 406.61 5.58635 -0.623198 0
M  V30 4109 H 398.761 1.75049 -1.20298 0
M  V30 4110 H 401.024 0.815003 -0.484225 0
M  V30 4111 H 400.73 3.28267 -1.26228 0
M  V30 4112 H 400.604 3.74798 0.424962 0
M  V30 4113 H 402.991 2.83615 0.815247 0
M  V30 4114 H 403.072 2.39573 -0.896563 0
M  V30 4115 H 402.716 4.84596 -1.52082 0
M  V30 4116 H 402.646 5.26181 0.210068 0
M  V30 4117 H 405.137 3.7705 -0.253373 0
M  V30 4118 H 405.45 7.64341 -1.14032 0
M  V30 4119 H 403.795 6.87494 -1.01865 0
M  V30 4120 H 406.986 4.66406 -0.397863 0
M  V30 4121 H 407.159 6.43017 -0.802093 0
M  V30 4122 N 400.565 -0.0233959 1.57583 0
M  V30 4123 C 401.495 -1.02162 2.09965 0
M  V30 4124 C 402.476 -1.3735 1.00344 0
M  V30 4125 O 403.661 -1.46135 1.27899 0
M  V30 4126 C 400.791 -2.32081 2.58371 0
M  V30 4127 C 399.745 -2.1112 3.72307 0
M  V30 4128 C 399.071 -3.46848 4.06941 0
M  V30 4129 C 400.371 -1.49276 5.00514 0
M  V30 4130 H 402.065 -0.585557 2.93618 0
M  V30 4131 H 399.611 -0.280218 1.41247 0
M  V30 4132 H 401.564 -3.02249 2.93639 0
M  V30 4133 H 400.288 -2.77758 1.71808 0
M  V30 4134 H 398.947 -1.43384 3.37397 0
M  V30 4135 H 398.595 -3.90184 3.17436 0
M  V30 4136 H 398.295 -3.33646 4.83688 0
M  V30 4137 H 399.819 -4.18369 4.44747 0
M  V30 4138 H 401.233 -2.09368 5.33702 0
M  V30 4139 H 399.63 -1.46632 5.8191 0
M  V30 4140 H 400.7 -0.459217 4.82721 0
M  V30 4141 N 402.043 -1.548 -0.295768 0
M  V30 4142 C 403.271 -1.78327 -1.04914 0
M  V30 4143 C 403.686 -0.545316 -1.80753 0
M  V30 4144 O 403.043 0.485013 -1.75937 0
M  V30 4145 C 403.094 -2.99418 -2.02561 0
M  V30 4146 O 402.815 -4.18431 -1.29798 0
M  V30 4147 C 404.316 -3.35375 -2.89895 0
M  V30 4148 H 401.536 -0.594618 -0.310918 0
M  V30 4149 H 404.08 -2.01763 -0.333454 0
M  V30 4150 H 402.235 -2.78175 -2.69624 0
M  V30 4151 H 402.649 -4.86736 -1.95419 0
M  V30 4152 H 404.123 -4.23332 -3.54251 0
M  V30 4153 H 404.6 -2.53761 -3.58472 0
M  V30 4154 H 405.206 -3.58796 -2.28355 0
M  V30 4155 N 403.521 0.559213 -1.47345 0
M  V30 4156 C 404.431 1.69388 -1.62311 0
M  V30 4157 C 405.447 1.6648 -0.505993 0
M  V30 4158 O 406.623 1.85964 -0.773262 0
M  V30 4159 C 403.688 3.05894 -1.63185 0
M  V30 4160 C 402.749 3.19885 -2.86307 0
M  V30 4161 C 401.982 4.49879 -2.87131 0
M  V30 4162 O 402.205 5.35217 -1.97229 0
M  V30 4163 O 401.139 4.67618 -3.78968 0
M  V30 4164 H 404.965 1.59706 -2.58317 0
M  V30 4165 H 402.55 0.728989 -1.30407 0
M  V30 4166 H 404.432 3.87133 -1.66451 0
M  V30 4167 H 403.107 3.15964 -0.70345 0
M  V30 4168 H 402.014 2.38052 -2.88587 0
M  V30 4169 H 403.347 3.14718 -3.78435 0
M  V30 4170 N 404.999 1.35443 0.805782 0
M  V30 4171 C 406.415 1.15499 1.10146 0
M  V30 4172 C 406.615 -0.0319975 2.01475 0
M  V30 4173 O 405.671 -0.70236 2.42535 0
M  V30 4174 C 406.984 2.45833 1.73166 0
M  V30 4175 C 408.532 2.52047 1.85583 0
M  V30 4176 C 409.007 3.82427 2.52019 0
M  V30 4177 N 410.498 3.83682 2.59504 0
M  V30 4178 C 411.233 4.81294 3.11679 0
M  V30 4179 N 410.729 5.89294 3.64287 0
M  V30 4180 N 412.522 4.6873 3.1024 0
M  V30 4181 H 404.673 2.11469 0.198678 0
M  V30 4182 H 406.936 0.93594 0.150731 0
M  V30 4183 H 406.642 3.32874 1.13526 0
M  V30 4184 H 406.516 2.6044 2.72857 0
M  V30 4185 H 408.903 1.65435 2.44367 0
M  V30 4186 H 408.984 2.41354 0.847455 0
M  V30 4187 H 408.628 4.69437 1.93885 0
M  V30 4188 H 408.558 3.90409 3.53395 0
M  V30 4189 H 411.049 3.05648 2.22234 0
M  V30 4190 H 411.362 6.59768 4.02401 0
M  V30 4191 H 409.707 5.92985 3.62483 0
M  V30 4192 H 412.898 3.83496 2.68419 0
M  V30 4193 H 413.071 5.44965 3.50596 0
M  V30 4194 N 406.477 -1.02803 1.19454 0
M  V30 4195 C 407.888 -1.57667 0.999899 0
M  V30 4196 C 408.239 -1.91041 -0.446956 0
M  V30 4197 O 407.364 -1.70978 -1.32648 0
M  V30 4198 C 407.959 -2.86477 1.80877 0
M  V30 4199 C 406.518 -3.37911 1.65811 0
M  V30 4200 C 405.665 -2.11343 1.79526 0
M  V30 4201 H 408.616 -0.853214 1.33813 0
M  V30 4202 H 408.637 -3.57408 1.30536 0
M  V30 4203 H 408.149 -2.62155 2.86175 0
M  V30 4204 H 406.25 -3.67218 0.63102 0
M  V30 4205 H 406.363 -4.10885 2.46395 0
M  V30 4206 H 404.727 -2.23254 1.22596 0
M  V30 4207 H 405.51 -1.89461 2.86285 0
M  V30 4208 N 407.956 -0.998596 -1.21925 0
M  V30 4209 C 408.888 -0.511879 -2.23411 0
M  V30 4210 C 409.901 0.396094 -1.57908 0
M  V30 4211 O 411.09 0.197316 -1.77406 0
M  V30 4212 C 408.19 0.276802 -3.37768 0
M  V30 4213 C 407.363 -0.628687 -4.32858 0
M  V30 4214 C 406.422 0.109272 -5.26087 0
M  V30 4215 O 405.448 -0.507237 -5.66935 0
M  V30 4216 N 406.65 1.38983 -5.63617 0
M  V30 4217 H 409.415 -1.38457 -2.658 0
M  V30 4218 H 406.976 -0.873981 -1.36283 0
M  V30 4219 H 408.968 0.77928 -3.97126 0
M  V30 4220 H 407.538 1.05063 -2.94415 0
M  V30 4221 H 406.758 -1.31175 -3.71735 0
M  V30 4222 H 408.046 -1.24514 -4.93329 0
M  V30 4223 H 407.444 1.91194 -5.32411 0
M  V30 4224 H 406.001 1.83739 -6.25367 0
M  V30 4225 N 409.434 1.37368 -0.772513 0
M  V30 4226 C 410.683 1.98918 -0.333861 0
M  V30 4227 C 410.996 1.62017 1.09589 0
M  V30 4228 O 412.202 2.16676 1.63596 0
M  V30 4229 C 410.658 3.55735 -0.545971 0
M  V30 4230 C 410.266 4.01573 -1.98603 0
M  V30 4231 C 412.01 4.24156 -0.170979 0
M  V30 4232 C 409.917 5.51102 -2.1457 0
M  V30 4233 H 408.847 0.744214 -0.121085 0
M  V30 4234 H 411.498 1.56888 -0.95175 0
M  V30 4235 H 409.88 3.95748 0.141387 0
M  V30 4236 H 411.054 3.72803 -2.7084 0
M  V30 4237 H 409.369 3.45937 -2.31769 0
M  V30 4238 H 411.966 5.34024 -0.26878 0
M  V30 4239 H 412.309 4.06917 0.878855 0
M  V30 4240 H 412.842 3.89447 -0.810914 0
M  V30 4241 H 409.581 5.73268 -3.17875 0
M  V30 4242 H 409.101 5.81554 -1.46817 0
M  V30 4243 H 410.78 6.17083 -1.94468 0
M  V30 4244 N 410.912 0.523116 1.48665 0
M  V30 4245 C 412.161 -0.01544 2.01694 0
M  V30 4246 C 412.474 -1.35975 1.40606 0
M  V30 4247 O 413.68 -1.98627 1.85093 0
M  V30 4248 C 412.136 -0.0779303 3.59816 0
M  V30 4249 C 411.744 1.26107 4.29885 0
M  V30 4250 C 413.488 -0.565678 4.20714 0
M  V30 4251 C 411.395 1.15954 5.79921 0
M  V30 4252 H 410.325 -0.00954163 0.75394 0
M  V30 4253 H 412.976 0.665865 1.70993 0
M  V30 4254 H 411.358 -0.824165 3.87329 0
M  V30 4255 H 412.532 2.02233 4.14051 0
M  V30 4256 H 410.847 1.68401 3.80828 0
M  V30 4257 H 413.444 -0.6595 5.30617 0
M  V30 4258 H 413.787 -1.56984 3.85567 0
M  V30 4259 H 414.32 0.12467 3.97605 0
M  V30 4260 H 411.059 2.13864 6.19631 0
M  V30 4261 H 410.579 0.439529 5.98187 0
M  V30 4262 H 412.258 0.847361 6.41427 0
M  V30 4263 N 412.39 -1.55475 0.257931 0
M  V30 4264 C 413.636 -1.99502 -0.364266 0
M  V30 4265 C 413.969 -1.146 -1.56782 0
M  V30 4266 O 413.244 -0.211968 -1.93342 0
M  V30 4267 C 413.527 -3.51917 -0.763333 0
M  V30 4268 C 413.38 -4.4758 0.446371 0
M  V30 4269 C 414.699 -4.09742 -1.60623 0
M  V30 4270 H 411.818 -0.725277 -0.130929 0
M  V30 4271 H 414.46 -1.8653 0.361446 0
M  V30 4272 H 412.61 -3.63101 -1.38166 0
M  V30 4273 H 414.282 -4.48362 1.08487 0
M  V30 4274 H 412.525 -4.19947 1.08753 0
M  V30 4275 H 413.196 -5.51862 0.123645 0
M  V30 4276 H 415.672 -4.01727 -1.08418 0
M  V30 4277 H 414.548 -5.16631 -1.85429 0
M  V30 4278 H 414.809 -3.58889 -2.58169 0
M  V30 4279 N 413.868 0.0150385 -1.57593 0
M  V30 4280 C 414.831 0.995996 -2.06428 0
M  V30 4281 C 415.831 1.2818 -0.970903 0
M  V30 4282 O 417.021 1.22949 -1.23406 0
M  V30 4283 C 414.153 2.32506 -2.49307 0
M  V30 4284 H 415.346 0.573873 -2.94358 0
M  V30 4285 H 412.899 0.262186 -1.54085 0
M  V30 4286 H 413.634 2.79438 -1.64575 0
M  V30 4287 H 413.419 2.13087 -3.29145 0
M  V30 4288 H 414.909 3.02906 -2.87468 0
M  V30 4289 N 415.346 1.54954 0.287554 0
M  V30 4290 C 416.294 1.87606 1.37502 0
M  V30 4291 C 417.288 0.751001 1.51843 0
M  V30 4292 O 418.494 0.935169 1.53801 0
M  V30 4293 H 414.869 0.595231 0.459569 0
M  V30 4294 H 416.84 2.78477 1.07206 0
M  V30 4295 C 415.589 2.15183 2.73115 0
M  V30 4296 H 414.912 3.01234 2.62866 0
M  V30 4297 H 416.352 2.4196 3.48183 0
M  V30 4298 C 414.811 0.954686 3.2309 0
M  V30 4299 O 415.341 0.181949 4.01288 0
M  V30 4300 N 413.547 0.756368 2.80584 0
M  V30 4301 H 413.094 1.38643 2.17108 0
M  V30 4302 H 413.052 -0.0430391 3.14371 0
M  V30 4303 N 416.824 -0.551391 1.4764 0
M  V30 4304 C 417.771 -1.65796 1.60563 0
M  V30 4305 C 418.741 -1.59932 0.448428 0
M  V30 4306 O 419.926 -1.78679 0.669222 0
M  V30 4307 C 417.066 -3.04108 1.63133 0
M  V30 4308 C 416.179 -3.20365 2.89811 0
M  V30 4309 C 415.314 -4.49109 2.8368 0
M  V30 4310 C 414.353 -4.58819 4.05156 0
M  V30 4311 N 413.49 -5.78926 3.97227 0
M  V30 4312 H 418.33 -1.54088 2.5507 0
M  V30 4313 H 415.867 -0.75052 1.26513 0
M  V30 4314 H 417.825 -3.84207 1.62606 0
M  V30 4315 H 416.455 -3.14637 0.721341 0
M  V30 4316 H 415.507 -2.33659 3.00179 0
M  V30 4317 H 416.819 -3.23402 3.79753 0
M  V30 4318 H 415.973 -5.37475 2.81434 0
M  V30 4319 H 414.712 -4.4856 1.91431 0
M  V30 4320 H 413.717 -3.68864 4.077 0
M  V30 4321 H 414.942 -4.61124 4.98539 0
M  V30 4322 H 412.888 -5.79314 3.07785 0
M  V30 4323 H 412.805 -5.83367 4.80853 0
M  V30 4324 H 414.073 -6.69637 3.99007 0
M  V30 4325 N 418.302 -1.35869 -0.798587 0
M  V30 4326 C 419.235 -1.23801 -1.91699 0
M  V30 4327 C 420.213 -0.124143 -1.62125 0
M  V30 4328 O 421.397 -0.293656 -1.86199 0
M  V30 4329 C 418.524 -0.908063 -3.263 0
M  V30 4330 C 417.57 -2.0351 -3.74815 0
M  V30 4331 S 418.403 -3.65183 -3.91665 0
M  V30 4332 C 419.559 -3.34283 -5.29156 0
M  V30 4333 H 419.792 -2.18466 -2.01643 0
M  V30 4334 H 417.325 -1.21178 -0.956833 0
M  V30 4335 H 419.283 -0.724506 -4.04056 0
M  V30 4336 H 417.944 0.0206584 -3.14093 0
M  V30 4337 H 417.137 -1.75858 -4.72324 0
M  V30 4338 H 416.739 -2.1774 -3.04081 0
M  V30 4339 H 419.031 -2.87607 -6.13424 0
M  V30 4340 H 419.974 -4.31022 -5.61806 0
M  V30 4341 H 420.382 -2.69854 -4.95822 0
M  V30 4342 N 419.78 1.02168 -1.19998 0
M  V30 4343 C 421.057 1.72816 -0.916191 0
M  V30 4344 C 421.437 2.03081 0.576325 0
M  V30 4345 O 420.785 1.69122 1.53656 0
M  V30 4346 C 420.995 2.9997 -1.78378 0
M  V30 4347 C 422.343 3.73336 -2.02251 0
M  V30 4348 O 423.367 3.09914 -1.75589 0
M  V30 4349 O 422.226 4.87371 -2.47249 0
M  V30 4350 H 419.32 0.752924 -0.342103 0
M  V30 4351 H 421.866 1.08062 -1.30846 0
M  V30 4352 H 420.638 2.73888 -2.79466 0
M  V30 4353 H 420.261 3.72464 -1.39126 0
M  V30 4354 N 421.258 1.00505 1.21394 0
M  V30 4355 C 422.191 0.51032 2.22421 0
M  V30 4356 C 423.169 -0.436 1.56645 0
M  V30 4357 O 424.353 -0.358709 1.85055 0
M  V30 4358 C 421.48 -0.258733 3.3771 0
M  V30 4359 C 420.526 0.635395 4.2174 0
M  V30 4360 S 421.359 2.09783 4.92698 0
M  V30 4361 C 422.515 1.33862 6.11418 0
M  V30 4362 H 422.748 1.36637 2.64041 0
M  V30 4363 H 420.281 0.812991 1.31262 0
M  V30 4364 H 422.239 -0.696372 4.0455 0
M  V30 4365 H 420.9 -1.0902 2.94573 0
M  V30 4366 H 420.093 0.0430189 5.03982 0
M  V30 4367 H 419.695 1.01031 3.60095 0
M  V30 4368 H 421.987 0.612541 6.74725 0
M  V30 4369 H 422.93 2.13675 6.75092 0
M  V30 4370 H 423.338 0.846568 5.58116 0
M  V30 4371 N 422.737 -1.36956 0.779787 0
M  V30 4372 C 424.148 -1.82094 0.412156 0
M  V30 4373 C 424.499 -1.64926 -1.06273 0
M  V30 4374 O 423.624 -1.16483 -1.82375 0
M  V30 4375 C 424.219 -3.3059 0.741319 0
M  V30 4376 C 422.778 -3.73974 0.426641 0
M  V30 4377 C 421.925 -2.59368 0.980987 0
M  V30 4378 H 424.876 -1.25314 0.973758 0
M  V30 4379 H 424.897 -3.80489 0.028887 0
M  V30 4380 H 424.409 -3.43054 1.81482 0
M  V30 4381 H 422.51 -3.67076 -0.639215 0
M  V30 4382 H 422.623 -4.69778 0.940515 0
M  V30 4383 H 420.987 -2.51463 0.404757 0
M  V30 4384 H 421.77 -2.74621 2.06005 0
M  V30 4385 N 424.215 -0.530993 -1.48385 0
M  V30 4386 C 425.125 0.23503 -2.3342 0
M  V30 4387 C 426.141 0.93801 -1.46552 0
M  V30 4388 O 427.317 0.912745 -1.7953 0
M  V30 4389 C 424.382 1.26778 -3.22689 0
M  V30 4390 C 423.443 0.575038 -4.25431 0
M  V30 4391 C 422.676 1.55858 -5.10435 0
M  V30 4392 O 422.899 2.79129 -4.97437 0
M  V30 4393 O 421.833 1.09742 -5.91811 0
M  V30 4394 H 425.659 -0.461794 -3.00169 0
M  V30 4395 H 423.244 -0.291903 -1.46521 0
M  V30 4396 H 425.126 1.86457 -3.77904 0
M  V30 4397 H 423.801 1.94699 -2.586 0
M  V30 4398 H 422.708 -0.0622782 -3.74048 0
M  V30 4399 H 424.041 -0.062253 -4.92161 0
M  V30 4400 N 425.693 1.55336 -0.266172 0
M  V30 4401 C 426.656 2.20878 0.612001 0
M  V30 4402 C 427.656 1.18388 1.08816 0
M  V30 4403 O 428.846 1.4335 0.989774 0
M  V30 4404 C 425.978 2.86765 1.84332 0
M  V30 4405 H 427.171 2.99873 0.0398718 0
M  V30 4406 H 424.724 1.56291 -0.0167309 0
M  V30 4407 H 425.459 2.11759 2.45619 0
M  V30 4408 H 425.244 3.61862 1.5099 0
M  V30 4409 H 426.734 3.36867 2.46801 0
M  V30 4410 N 427.171 -0.0066808 1.57599 0
M  V30 4411 C 428.134 -0.985035 2.06953 0
M  V30 4412 C 429.134 -1.27663 0.977687 0
M  V30 4413 O 430.324 -1.22293 1.24057 0
M  V30 4414 C 427.456 -2.3118 2.50536 0
M  V30 4415 H 428.649 -0.558255 2.94658 0
M  V30 4416 H 426.202 -0.254011 1.54222 0
M  V30 4417 H 426.937 -2.78561 1.66054 0
M  V30 4418 H 426.722 -2.11338 3.3027 0
M  V30 4419 H 428.212 -3.01377 2.8907 0
M  V30 4420 N 428.649 -1.55105 -0.279332 0
M  V30 4421 C 429.559 -1.90638 -1.36727 0
M  V30 4422 C 430.575 -0.802899 -1.54368 0
M  V30 4423 O 431.751 -1.10138 -1.68616 0
M  V30 4424 C 428.816 -2.16547 -2.70755 0
M  V30 4425 C 427.877 -3.40146 -2.61915 0
M  V30 4426 C 427.11 -3.6481 -3.8955 0
M  V30 4427 O 427.333 -2.92095 -4.89935 0
M  V30 4428 O 426.267 -4.58343 -3.90135 0
M  V30 4429 H 430.093 -2.83237 -1.09591 0
M  V30 4430 H 427.678 -1.4157 -0.477306 0
M  V30 4431 H 429.56 -2.34665 -3.50014 0
M  V30 4432 H 428.235 -1.27131 -2.9769 0
M  V30 4433 H 427.142 -3.2737 -1.81052 0
M  V30 4434 H 428.475 -4.29761 -2.3993 0
M  V30 4435 N 430.127 0.543554 -1.4793 0
M  V30 4436 C 431.075 1.67039 -1.61866 0
M  V30 4437 C 432.069 1.62294 -0.48549 0
M  V30 4438 O 433.275 1.67315 -0.66376 0
M  V30 4439 H 429.65 0.552954 -0.509652 0
M  V30 4440 H 431.621 1.52426 -2.56533 0
M  V30 4441 C 430.37 3.05357 -1.6629 0
M  V30 4442 H 429.693 3.09696 -2.5284 0
M  V30 4443 H 431.133 3.83855 -1.80088 0
M  V30 4444 C 429.592 3.34531 -0.398861 0
M  V30 4445 O 430.122 3.98649 0.494162 0
M  V30 4446 N 428.328 2.89299 -0.2747 0
M  V30 4447 H 427.875 2.37298 -1.00236 0
M  V30 4448 H 427.833 3.09188 0.570075 0
M  V30 4449 N 431.605 1.3629 0.791371 0
M  V30 4450 C 432.535 1.33137 1.91825 0
M  V30 4451 C 433.516 0.203168 1.68882 0
M  V30 4452 O 434.701 0.400509 1.90025 0
M  V30 4453 C 431.831 1.11793 3.28816 0
M  V30 4454 C 430.785 2.21417 3.66277 0
M  V30 4455 C 430.111 1.85218 5.01596 0
M  V30 4456 C 431.411 3.63489 3.75064 0
M  V30 4457 H 433.105 2.2743 1.9472 0
M  V30 4458 H 430.651 1.09479 0.935437 0
M  V30 4459 H 432.604 1.08222 4.07266 0
M  V30 4460 H 431.328 0.139501 3.26302 0
M  V30 4461 H 429.987 2.2411 2.90121 0
M  V30 4462 H 429.635 0.859544 4.95602 0
M  V30 4463 H 429.335 2.58611 5.27631 0
M  V30 4464 H 430.859 1.832 5.82469 0
M  V30 4465 H 432.273 3.63034 4.43711 0
M  V30 4466 H 430.67 4.35771 4.12582 0
M  V30 4467 H 431.74 3.98536 2.76219 0
M  V30 4468 N 433.083 -1.0153 1.20538 0
M  V30 4469 C 433.993 -2.13557 0.971113 0
M  V30 4470 C 435.009 -1.73845 -0.0734366 0
M  V30 4471 O 436.185 -2.01075 0.114299 0
M  V30 4472 C 433.25 -3.42661 0.527639 0
M  V30 4473 C 432.311 -3.96608 1.64319 0
M  V30 4474 C 431.544 -5.1955 1.22078 0
M  V30 4475 O 431.767 -5.70329 0.0900198 0
M  V30 4476 O 430.701 -5.66681 2.02871 0
M  V30 4477 H 434.527 -2.3619 1.90913 0
M  V30 4478 H 432.112 -1.11946 0.989362 0
M  V30 4479 H 433.994 -4.20404 0.289621 0
M  V30 4480 H 432.669 -3.21441 -0.381779 0
M  V30 4481 H 431.576 -3.20139 1.93551 0
M  V30 4482 H 432.909 -4.22219 2.52966 0
M  V30 4483 N 434.561 -1.01147 -1.20859 0
M  V30 4484 C 435.524 -0.582224 -2.21682 0
M  V30 4485 C 436.524 0.344887 -1.57058 0
M  V30 4486 O 437.714 0.134281 -1.73682 0
M  V30 4487 C 434.846 0.150496 -3.40568 0
M  V30 4488 H 436.039 -1.47408 -2.61172 0
M  V30 4489 H 433.592 -0.800695 -1.34233 0
M  V30 4490 H 434.327 1.0575 -3.06574 0
M  V30 4491 H 434.112 -0.515444 -3.88697 0
M  V30 4492 H 435.602 0.438344 -4.15293 0
M  V30 4493 N 436.039 1.36541 -0.78704 0
M  V30 4494 C 437.286 1.99304 -0.358341 0
M  V30 4495 C 437.614 1.62467 1.06933 0
M  V30 4496 O 436.869 0.870019 1.75297 0
M  V30 4497 C 437.168 3.54343 -0.466485 0
M  V30 4498 C 436.834 4.10993 -1.85461 0
M  V30 4499 C 435.496 4.26177 -2.23443 0
M  V30 4500 C 437.848 4.41895 -2.76366 0
M  V30 4501 C 435.176 4.69573 -3.51736 0
M  V30 4502 C 437.528 4.86722 -4.04084 0
M  V30 4503 C 436.192 5.00112 -4.42091 0
M  V30 4504 H 435.462 0.729306 -0.131126 0
M  V30 4505 H 438.109 1.63068 -1.00404 0
M  V30 4506 H 436.414 3.90918 0.262719 0
M  V30 4507 H 438.111 4.00833 -0.115854 0
M  V30 4508 H 434.701 3.99612 -1.54946 0
M  V30 4509 H 438.885 4.29735 -2.48277 0
M  V30 4510 H 434.141 4.78127 -3.81057 0
M  V30 4511 H 438.315 5.09598 -4.7464 0
M  V30 4512 H 435.942 5.33498 -5.41557 0
M  V30 4513 N 437.518 0.538854 1.48102 0
M  V30 4514 C 438.465 -0.219042 2.29758 0
M  V30 4515 C 439.435 -0.925562 1.37922 0
M  V30 4516 O 440.62 -0.924855 1.66886 0
M  V30 4517 C 437.76 -1.25452 3.2149 0
M  V30 4518 C 436.873 -0.555943 4.28408 0
M  V30 4519 C 436.008 -1.57512 5.0731 0
M  V30 4520 C 435.047 -0.860498 6.06021 0
M  V30 4521 N 434.184 -1.82564 6.77949 0
M  V30 4522 H 439.024 0.483449 2.94052 0
M  V30 4523 H 436.561 0.250247 1.44956 0
M  V30 4524 H 438.519 -1.86727 3.7308 0
M  V30 4525 H 437.149 -1.92528 2.591 0
M  V30 4526 H 436.201 0.170938 3.80016 0
M  V30 4527 H 437.513 0.00474616 4.988 0
M  V30 4528 H 436.667 -2.26191 5.62959 0
M  V30 4529 H 435.406 -2.16972 4.36778 0
M  V30 4530 H 434.411 -0.159686 5.49568 0
M  V30 4531 H 435.636 -0.271897 6.78555 0
M  V30 4532 H 433.582 -2.40915 6.10161 0
M  V30 4533 H 433.499 -1.31662 7.44447 0
M  V30 4534 H 434.767 -2.50414 7.38182 0
M  V30 4535 N 438.996 -1.55193 0.274407 0
M  V30 4536 C 439.906 -2.26164 -0.623473 0
M  V30 4537 C 440.922 -1.28729 -1.17068 0
M  V30 4538 O 442.098 -1.61663 -1.20112 0
M  V30 4539 C 439.163 -2.96833 -1.7914 0
M  V30 4540 C 438.224 -4.09745 -1.28093 0
M  V30 4541 C 437.457 -4.77034 -2.3932 0
M  V30 4542 O 437.68 -4.4353 -3.5866 0
M  V30 4543 O 436.614 -5.64996 -2.07516 0
M  V30 4544 H 440.44 -3.03661 -0.0485661 0
M  V30 4545 H 438.025 -1.49341 0.0418382 0
M  V30 4546 H 439.907 -3.41248 -2.4724 0
M  V30 4547 H 438.582 -2.22253 -2.35341 0
M  V30 4548 H 437.489 -3.69787 -0.566416 0
M  V30 4549 H 438.822 -4.86224 -0.764683 0
M  V30 4550 N 440.474 -0.00167713 -1.576 0
M  V30 4551 C 441.421 0.989195 -2.08527 0
M  V30 4552 C 442.391 1.34031 -0.981065 0
M  V30 4553 O 443.576 1.43839 -1.2536 0
M  V30 4554 C 440.716 2.27537 -2.59463 0
M  V30 4555 C 439.829 1.98314 -3.83791 0
M  V30 4556 C 438.964 3.21025 -4.23222 0
M  V30 4557 C 438.003 2.87495 -5.40382 0
M  V30 4558 N 437.14 4.02749 -5.75098 0
M  V30 4559 H 441.98 0.547973 -2.92919 0
M  V30 4560 H 439.517 0.258917 -1.44803 0
M  V30 4561 H 441.475 3.02729 -2.87073 0
M  V30 4562 H 440.105 2.69325 -1.77943 0
M  V30 4563 H 439.157 1.13482 -3.63078 0
M  V30 4564 H 440.469 1.69601 -4.69081 0
M  V30 4565 H 439.623 4.04561 -4.52123 0
M  V30 4566 H 438.362 3.52877 -3.36644 0
M  V30 4567 H 437.367 2.02367 -5.11202 0
M  V30 4568 H 438.592 2.56889 -6.28637 0
M  V30 4569 H 436.538 4.34494 -4.91478 0
M  V30 4570 H 436.455 3.77566 -6.54966 0
M  V30 4571 H 437.723 4.87068 -6.08592 0
M  V30 4572 N 441.952 1.55251 0.271103 0
M  V30 4573 C 442.882 1.9127 1.33933 0
M  V30 4574 C 443.863 0.77478 1.5143 0
M  V30 4575 O 445.048 1.03307 1.64442 0
M  V30 4576 C 442.178 2.18627 2.69851 0
M  V30 4577 C 441.132 3.34442 2.67081 0
M  V30 4578 C 440.458 3.47284 4.06569 0
M  V30 4579 C 441.758 4.70784 2.26185 0
M  V30 4580 H 443.452 2.80744 1.04035 0
M  V30 4581 H 440.998 1.35077 0.499017 0
M  V30 4582 H 442.951 2.42413 3.44694 0
M  V30 4583 H 441.675 1.25955 3.01335 0
M  V30 4584 H 440.334 3.10627 1.94695 0
M  V30 4585 H 439.982 2.52074 4.35279 0
M  V30 4586 H 439.682 4.25152 4.0561 0
M  V30 4587 H 441.206 3.73363 4.83148 0
M  V30 4588 H 442.62 4.94102 2.90751 0
M  V30 4589 H 441.017 5.51582 2.36384 0
M  V30 4590 H 442.087 4.69478 1.21319 0
M  V30 4591 N 443.43 -0.535701 1.48216 0
M  V30 4592 C 444.658 -1.31671 1.59594 0
M  V30 4593 C 445.073 -1.87083 0.254056 0
M  V30 4594 O 444.43 -1.66112 -0.755854 0
M  V30 4595 C 444.481 -2.47158 2.63809 0
M  V30 4596 O 444.202 -1.94032 3.92789 0
M  V30 4597 C 445.703 -3.39062 2.85573 0
M  V30 4598 H 442.923 -0.400623 0.538277 0
M  V30 4599 H 445.467 -0.646827 1.94001 0
M  V30 4600 H 443.622 -3.10043 2.32276 0
M  V30 4601 H 444.036 -2.69585 4.49916 0
M  V30 4602 H 445.51 -4.16459 3.62306 0
M  V30 4603 H 445.987 -3.93941 1.94184 0
M  V30 4604 H 446.593 -2.81975 3.18387 0
M  V30 4605 N 444.908 -1.36708 -0.784132 0
M  V30 4606 C 446.185 -1.21776 -1.53069 0
M  V30 4607 C 446.565 0.193876 -2.10208 0
M  V30 4608 O 445.913 1.20012 -1.94446 0
M  V30 4609 C 446.123 -2.30395 -2.62143 0
M  V30 4610 C 447.471 -2.67325 -3.29882 0
M  V30 4611 O 448.495 -2.29478 -2.7243 0
M  V30 4612 O 447.354 -3.32485 -4.33724 0
M  V30 4613 H 444.448 -0.474459 -0.677361 0
M  V30 4614 H 446.994 -1.48454 -0.82216 0
M  V30 4615 H 445.766 -3.2498 -2.17953 0
M  V30 4616 H 445.389 -2.05112 -3.40609 0
M  V30 4617 N 446.386 1.0089 -1.21074 0
M  V30 4618 C 447.663 1.71834 -0.934469 0
M  V30 4619 C 448.043 2.0368 0.554753 0
M  V30 4620 O 447.391 1.70742 1.51854 0
M  V30 4621 C 447.601 2.98061 -1.8155 0
M  V30 4622 C 448.949 3.7117 -2.06199 0
M  V30 4623 O 449.973 3.08034 -1.78867 0
M  V30 4624 O 448.832 4.84721 -2.52404 0
M  V30 4625 H 445.926 0.749253 -0.35007 0
M  V30 4626 H 448.472 1.06668 -1.31985 0
M  V30 4627 H 447.244 2.70908 -2.82355 0
M  V30 4628 H 446.867 3.70968 -1.43068 0
M  V30 4629 N 447.864 1.01787 1.20321 0
M  V30 4630 C 449.094 0.72614 1.93419 0
M  V30 4631 C 449.502 -0.717317 1.75075 0
M  V30 4632 O 448.845 -1.49836 1.06278 0
M  V30 4633 C 448.907 0.983621 3.45782 0
M  V30 4634 C 448.571 2.41645 3.87888 0
M  V30 4635 C 449.568 3.39732 3.93545 0
M  V30 4636 C 447.253 2.75752 4.19841 0
M  V30 4637 C 449.247 4.69988 4.30569 0
M  V30 4638 C 446.934 4.06221 4.56539 0
M  V30 4639 C 447.932 5.0315 4.61876 0
M  V30 4640 O 447.62 6.31284 4.97731 0
M  V30 4641 H 447.352 0.265824 0.621541 0
M  V30 4642 H 449.906 1.3623 1.53722 0
M  V30 4643 H 448.136 0.290301 3.85609 0
M  V30 4644 H 449.825 0.683279 4.00108 0
M  V30 4645 H 450.591 3.14718 3.69022 0
M  V30 4646 H 446.47 2.00993 4.14877 0
M  V30 4647 H 450.014 5.45642 4.3465 0
M  V30 4648 H 445.911 4.31013 4.80518 0
M  V30 4649 H 446.679 6.35591 5.15719 0
M  V30 4650 N 449.342 -1.36122 0.79427 0
M  V30 4651 C 450.753 -1.81646 0.431446 0
M  V30 4652 C 451.104 -1.66043 -1.04518 0
M  V30 4653 O 450.229 -1.1841 -1.8113 0
M  V30 4654 C 450.824 -3.29785 0.776341 0
M  V30 4655 C 449.383 -3.73501 0.466282 0
M  V30 4656 C 448.53 -2.58313 1.00844 0
M  V30 4657 H 451.481 -1.24274 0.986995 0
M  V30 4658 H 451.502 -3.80437 0.0692413 0
M  V30 4659 H 451.014 -3.4111 1.8511 0
M  V30 4660 H 449.115 -3.67733 -0.600245 0
M  V30 4661 H 449.228 -4.68754 0.990288 0
M  V30 4662 H 447.592 -2.5102 0.431406 0
M  V30 4663 H 448.375 -2.72421 2.08906 0
M  V30 4664 N 450.82 -0.546701 -1.47814 0
M  V30 4665 C 452.066 -0.0187684 -2.02791 0
M  V30 4666 C 452.399 1.32338 -1.42128 0
M  V30 4667 O 451.674 1.85867 -0.573023 0
M  V30 4668 C 451.957 0.0854985 -3.59998 0
M  V30 4669 C 451.81 -1.283 -4.31114 0
M  V30 4670 C 453.129 0.80412 -4.32691 0
M  V30 4671 H 450.248 -0.0082946 -0.736953 0
M  V30 4672 H 452.89 -0.706962 -1.76358 0
M  V30 4673 H 451.04 0.671609 -3.82651 0
M  V30 4674 H 452.712 -1.91151 -4.19832 0
M  V30 4675 H 450.955 -1.86049 -3.91878 0
M  V30 4676 H 451.626 -1.16287 -5.39612 0
M  V30 4677 H 454.102 0.306576 -4.14969 0
M  V30 4678 H 452.978 0.846011 -5.42341 0
M  V30 4679 H 453.239 1.85802 -4.01161 0
M  V30 4680 N 452.299 1.55045 -0.282633 0
M  V30 4681 C 453.546 1.9976 0.33199 0
M  V30 4682 C 453.874 1.17105 1.55295 0
M  V30 4683 O 453.129 0.230599 1.94337 0
M  V30 4684 C 453.428 3.49422 0.750938 0
M  V30 4685 C 453.094 4.4941 -0.366228 0
M  V30 4686 C 451.756 4.76471 -0.672964 0
M  V30 4687 C 454.108 5.09054 -1.11864 0
M  V30 4688 C 451.436 5.60442 -1.73556 0
M  V30 4689 C 453.788 5.9418 -2.17102 0
M  V30 4690 C 452.452 6.19558 -2.48402 0
M  V30 4691 H 451.722 0.730974 0.121484 0
M  V30 4692 H 454.369 1.8732 -0.39791 0
M  V30 4693 H 452.674 3.59377 1.56063 0
M  V30 4694 H 454.371 3.81432 1.23736 0
M  V30 4695 H 450.961 4.2844 -0.117041 0
M  V30 4696 H 455.145 4.88165 -0.894925 0
M  V30 4697 H 450.401 5.78349 -1.983 0
M  V30 4698 H 454.575 6.39427 -2.75873 0
M  V30 4699 H 452.202 6.84417 -3.30874 0
M  V30 4700 N 453.777 0.010035 1.57597 0
M  V30 4701 C 455.188 -0.531426 1.78977 0
M  V30 4702 C 455.539 -1.73375 0.918454 0
M  V30 4703 O 454.664 -2.16047 0.123635 0
M  V30 4704 C 455.259 -0.97086 3.24592 0
M  V30 4705 C 453.818 -1.45756 3.47033 0
M  V30 4706 C 452.965 -0.413384 2.74201 0
M  V30 4707 H 455.916 0.236166 1.56933 0
M  V30 4708 H 455.937 -1.83633 3.33255 0
M  V30 4709 H 455.449 -0.0955893 3.87982 0
M  V30 4710 H 453.55 -2.35339 2.88871 0
M  V30 4711 H 453.663 -1.4781 4.55729 0
M  V30 4712 H 452.027 -0.877266 2.39115 0
M  V30 4713 H 452.81 0.453092 3.40297 0
M  V30 4714 N 455.255 -1.55392 -0.262866 0
M  V30 4715 C 456.504 -1.75679 -0.990943 0
M  V30 4716 C 456.817 -0.57097 -1.87081 0
M  V30 4717 O 458.023 -0.656486 -2.63444 0
M  V30 4718 C 456.479 -3.10964 -1.81188 0
M  V30 4719 C 456.087 -4.37146 -0.980188 0
M  V30 4720 C 457.831 -3.40597 -2.53365 0
M  V30 4721 C 455.738 -5.63466 -1.7961 0
M  V30 4722 H 454.668 -0.654868 -0.373716 0
M  V30 4723 H 457.319 -1.81841 -0.246203 0
M  V30 4724 H 455.701 -2.98867 -2.59797 0
M  V30 4725 H 456.875 -4.60187 -0.237558 0
M  V30 4726 H 455.19 -4.14731 -0.372497 0
M  V30 4727 H 457.787 -4.32186 -3.14833 0
M  V30 4728 H 458.13 -2.6119 -3.24169 0
M  V30 4729 H 458.663 -3.53838 -1.81779 0
M  V30 4730 H 455.402 -6.4565 -1.13209 0
M  V30 4731 H 454.922 -5.44552 -2.51443 0
M  V30 4732 H 456.601 -6.02139 -2.36723 0
M  V30 4733 N 456.733 0.527833 -1.48498 0
M  V30 4734 C 457.958 1.313 -1.60546 0
M  V30 4735 C 458.383 1.86199 -0.26672 0
M  V30 4736 O 457.741 1.64513 0.761918 0
M  V30 4737 C 457.789 2.43818 -2.65678 0
M  V30 4738 O 456.893 3.46916 -2.22987 0
M  V30 4739 H 456.234 0.388784 -0.538277 0
M  V30 4740 H 458.764 0.634896 -1.945 0
M  V30 4741 H 458.774 2.89973 -2.87018 0
M  V30 4742 H 457.449 2.03222 -3.62869 0
M  V30 4743 H 456.026 3.06864 -2.11869 0
M  V30 4744 N 458.211 1.37122 0.776871 0
M  V30 4745 C 459.174 1.32301 1.8716 0
M  V30 4746 C 460.174 0.228099 1.59174 0
M  V30 4747 O 461.364 0.483642 1.67352 0
M  V30 4748 C 458.496 1.054 3.24197 0
M  V30 4749 H 459.689 2.29673 1.92848 0
M  V30 4750 H 457.242 1.22077 0.97606 0
M  V30 4751 H 457.977 0.0853872 3.24188 0
M  V30 4752 H 457.762 1.84648 3.45901 0
M  V30 4753 H 459.252 1.04664 4.04271 0
M  V30 4754 N 459.689 -1.00246 1.21608 0
M  V30 4755 C 460.935 -1.74319 1.03638 0
M  V30 4756 C 461.268 -1.89408 -0.428749 0
M  V30 4757 O 460.543 -1.43026 -1.3181 0
M  V30 4758 C 460.826 -3.15431 1.73711 0
M  V30 4759 C 460.679 -3.08049 3.27759 0
M  V30 4760 C 461.998 -4.14407 1.48173 0
M  V30 4761 H 459.117 -0.632741 0.377899 0
M  V30 4762 H 461.759 -1.16853 1.49818 0
M  V30 4763 H 459.909 -3.64493 1.34452 0
M  V30 4764 H 461.581 -2.66681 3.76403 0
M  V30 4765 H 459.824 -2.45088 3.57931 0
M  V30 4766 H 460.495 -4.07862 3.71958 0
M  V30 4767 H 462.971 -3.74061 1.82258 0
M  V30 4768 H 461.847 -5.11279 1.99713 0
M  V30 4769 H 462.108 -4.40174 0.412273 0
M  V30 4770 N 461.167 -1.02423 -1.1978 0
M  V30 4771 C 462.395 -0.737456 -1.93311 0
M  V30 4772 C 462.81 0.703023 -1.75223 0
M  V30 4773 O 462.167 1.47761 -1.07112 0
M  V30 4774 C 462.218 -1.0733 -3.45199 0
M  V30 4775 O 461.939 -2.4572 -3.62702 0
M  V30 4776 C 463.44 -0.80866 -4.35862 0
M  V30 4777 H 460.66 -0.2702 -0.614193 0
M  V30 4778 H 463.204 -1.36747 -1.52054 0
M  V30 4779 H 461.359 -0.488545 -3.84307 0
M  V30 4780 H 461.773 -2.58081 -4.56612 0
M  V30 4781 H 463.247 -1.09365 -5.41057 0
M  V30 4782 H 463.724 0.257025 -4.38447 0
M  V30 4783 H 464.33 -1.37592 -4.02428 0
M  V30 4784 N 462.645 1.35699 -0.801477 0
M  V30 4785 C 464.061 1.52065 -0.484596 0
M  V30 4786 C 464.261 1.75215 0.995084 0
M  V30 4787 O 463.317 1.79061 1.78026 0
M  V30 4788 C 464.63 2.69908 -1.32552 0
M  V30 4789 C 466.178 2.83784 -1.32044 0
M  V30 4790 C 466.653 4.04646 -2.14536 0
M  V30 4791 N 468.144 4.11814 -2.12046 0
M  V30 4792 C 468.879 5.04437 -2.72636 0
M  V30 4793 N 468.375 6.02426 -3.42133 0
M  V30 4794 N 470.168 4.97144 -2.62305 0
M  V30 4795 H 462.319 1.18928 -1.75983 0
M  V30 4796 H 464.582 0.581455 -0.748741 0
M  V30 4797 H 464.288 2.59363 -2.37537 0
M  V30 4798 H 464.162 3.64376 -0.975181 0
M  V30 4799 H 466.549 2.93783 -0.27846 0
M  V30 4800 H 466.63 1.90188 -1.71062 0
M  V30 4801 H 466.274 3.95407 -3.18772 0
M  V30 4802 H 466.204 4.97413 -1.72882 0
M  V30 4803 H 468.695 3.41664 -1.61476 0
M  V30 4804 H 469.008 6.69688 -3.85666 0
M  V30 4805 H 467.353 6.02615 -3.46237 0
M  V30 4806 H 470.544 4.19546 -2.07603 0
M  V30 4807 H 470.717 5.69138 -3.09815 0
M  V30 4808 N 464.123 0.554532 1.47522 0
M  V30 4809 C 465.033 -0.197865 2.33764 0
M  V30 4810 C 466.049 -0.914576 1.48025 0
M  V30 4811 O 467.225 -0.884067 1.80959 0
M  V30 4812 C 464.29 -1.21628 3.24665 0
M  V30 4813 C 463.351 -0.507283 4.26292 0
M  V30 4814 C 462.584 -1.47718 5.1285 0
M  V30 4815 O 462.807 -2.7118 5.01814 0
M  V30 4816 O 461.741 -1.00313 5.93482 0
M  V30 4817 H 465.567 0.50949 2.99396 0
M  V30 4818 H 463.152 0.315176 1.46038 0
M  V30 4819 H 465.034 -1.80421 3.80823 0
M  V30 4820 H 463.709 -1.9056 2.61665 0
M  V30 4821 H 462.616 0.121778 3.73902 0
M  V30 4822 H 463.949 0.140544 4.91999 0
M  V30 4823 N 465.601 -1.54893 0.290851 0
M  V30 4824 C 466.849 -1.99538 -0.320756 0
M  V30 4825 C 467.17 -1.18075 -1.55188 0
M  V30 4826 O 466.44 -0.274162 -1.93972 0
M  V30 4827 H 465.02 -0.737052 -0.121507 0
M  V30 4828 H 467.682 -1.90755 0.399832 0
M  V30 4829 H 466.778 -3.06282 -0.599802 0
M  V30 4830 N 467.08 -0.0183926 -1.57589 0
M  V30 4831 C 468.01 0.965596 -2.12599 0
M  V30 4832 C 468.991 1.34641 -1.0395 0
M  V30 4833 O 470.176 1.42693 -1.31729 0
M  V30 4834 C 467.306 2.25149 -2.64434 0
M  V30 4835 C 466.26 2.01175 -3.77773 0
M  V30 4836 C 465.586 3.35937 -4.15994 0
M  V30 4837 C 466.886 1.35953 -5.04296 0
M  V30 4838 H 468.58 0.507504 -2.95067 0
M  V30 4839 H 466.126 0.242671 -1.41941 0
M  V30 4840 H 468.079 2.94357 -3.01549 0
M  V30 4841 H 466.803 2.73105 -1.79112 0
M  V30 4842 H 465.462 1.34388 -3.4108 0
M  V30 4843 H 465.11 3.81631 -3.27669 0
M  V30 4844 H 464.81 3.20705 -4.92364 0
M  V30 4845 H 466.334 4.0643 -4.55683 0
M  V30 4846 H 467.748 1.95144 -5.39065 0
M  V30 4847 H 466.145 1.31152 -5.85593 0
M  V30 4848 H 467.215 0.331071 -4.83768 0
M  V30 4849 N 468.558 1.5553 0.254621 0
M  V30 4850 C 469.974 1.4778 0.602753 0
M  V30 4851 C 470.174 0.707047 1.88688 0
M  V30 4852 O 469.23 0.233288 2.5142 0
M  V30 4853 C 470.543 2.92133 0.712648 0
M  V30 4854 C 472.091 3.02458 0.805488 0
M  V30 4855 C 472.566 4.48102 0.947009 0
M  V30 4856 N 474.057 4.52008 1.01207 0
M  V30 4857 C 474.792 5.61939 1.1407 0
M  V30 4858 N 474.288 6.81697 1.23536 0
M  V30 4859 N 476.081 5.49719 1.17325 0
M  V30 4860 H 468.232 2.04085 -0.588463 0
M  V30 4861 H 470.495 0.926229 -0.202001 0
M  V30 4862 H 470.201 3.51332 -0.160766 0
M  V30 4863 H 470.075 3.42187 1.58707 0
M  V30 4864 H 472.462 2.43344 1.66936 0
M  V30 4865 H 472.543 2.55627 -0.0939266 0
M  V30 4866 H 472.187 5.07824 0.087725 0
M  V30 4867 H 472.117 4.92607 1.86135 0
M  V30 4868 H 474.608 3.65749 0.950577 0
M  V30 4869 H 474.921 7.61228 1.33236 0
M  V30 4870 H 473.266 6.84473 1.20508 0
M  V30 4871 H 476.457 4.55095 1.09573 0
M  V30 4872 H 476.63 6.35432 1.27005 0
M  V30 4873 N 470.036 -0.519951 1.48776 0
M  V30 4874 C 470.946 -1.65025 1.66745 0
M  V30 4875 C 471.962 -1.6508 0.549954 0
M  V30 4876 O 473.138 -1.83848 0.822295 0
M  V30 4877 C 470.203 -3.0146 1.71238 0
M  V30 4878 C 469.264 -3.12182 2.94688 0
M  V30 4879 C 468.497 -4.42109 2.98958 0
M  V30 4880 O 468.72 -5.29799 2.1135 0
M  V30 4881 O 467.654 -4.57406 3.91233 0
M  V30 4882 H 471.48 -1.52801 2.62461 0
M  V30 4883 H 469.065 -0.694157 1.32294 0
M  V30 4884 H 470.947 -3.82584 1.76657 0
M  V30 4885 H 469.622 -3.13988 0.786975 0
M  V30 4886 H 468.529 -2.30316 2.94797 0
M  V30 4887 H 469.862 -3.04574 3.86646 0
M  V30 4888 N 471.514 -1.37532 -0.769588 0
M  V30 4889 C 472.444 -1.36172 -1.89682 0
M  V30 4890 C 473.425 -0.23001 -1.68538 0
M  V30 4891 O 474.61 -0.43069 -1.89364 0
M  V30 4892 C 471.74 -1.1701 -3.26995 0
M  V30 4893 C 470.694 -2.27216 -3.62708 0
M  V30 4894 C 470.02 -1.93174 -4.98586 0
M  V30 4895 C 471.32 -3.6941 -3.69234 0
M  V30 4896 H 473.014 -2.30499 -1.91078 0
M  V30 4897 H 470.56 -1.10953 -0.917902 0
M  V30 4898 H 472.513 -1.14688 -4.05493 0
M  V30 4899 H 471.237 -0.191395 -3.26039 0
M  V30 4900 H 469.896 -2.28697 -2.86519 0
M  V30 4901 H 469.544 -0.938281 -4.94171 0
M  V30 4902 H 469.244 -2.66973 -5.23449 0
M  V30 4903 H 470.768 -1.92443 -5.79481 0
M  V30 4904 H 472.182 -3.70047 -4.37879 0
M  V30 4905 H 470.579 -4.4228 -4.05597 0
M  V30 4906 H 471.649 -4.0288 -2.69844 0
M  V30 4907 N 472.992 0.995999 -1.22138 0
M  V30 4908 C 473.922 2.10387 -1.01289 0
M  V30 4909 C 474.903 1.69975 0.0651454 0
M  V30 4910 O 476.088 1.9396 -0.0964628 0
M  V30 4911 C 473.218 3.42312 -0.586517 0
M  V30 4912 C 472.172 3.96558 -1.61014 0
M  V30 4913 C 471.498 5.24494 -1.0397 0
M  V30 4914 C 472.798 4.27595 -2.99933 0
M  V30 4915 H 474.492 2.28086 -1.93951 0
M  V30 4916 H 472.038 1.09607 -0.933928 0
M  V30 4917 H 473.991 4.19223 -0.427793 0
M  V30 4918 H 472.715 3.24431 0.375761 0
M  V30 4919 H 471.374 3.21776 -1.75658 0
M  V30 4920 H 471.022 5.02953 -0.0688703 0
M  V30 4921 H 470.722 5.61755 -1.72352 0
M  V30 4922 H 472.246 6.04042 -0.892494 0
M  V30 4923 H 473.66 4.95315 -2.8868 0
M  V30 4924 H 472.057 4.76021 -3.6541 0
M  V30 4925 H 473.127 3.35498 -3.50099 0
M  V30 4926 N 474.47 1.03057 1.19235 0
M  V30 4927 C 475.717 0.728019 1.88961 0
M  V30 4928 C 476.045 -0.743515 1.79728 0
M  V30 4929 O 475.3 -1.55729 1.1852 0
M  V30 4930 C 475.599 1.1268 3.39172 0
M  V30 4931 C 475.265 2.5969 3.68608 0
M  V30 4932 C 473.927 2.99854 3.76352 0
M  V30 4933 C 476.279 3.54793 3.81801 0
M  V30 4934 C 473.607 4.34031 3.94758 0
M  V30 4935 C 475.959 4.88675 4.0172 0
M  V30 4936 C 474.623 5.28526 4.07697 0
M  V30 4937 H 473.893 0.266401 0.691456 0
M  V30 4938 H 476.54 1.29373 1.41191 0
M  V30 4939 H 474.845 0.479722 3.88852 0
M  V30 4940 H 476.542 0.870203 3.91444 0
M  V30 4941 H 473.132 2.27575 3.63191 0
M  V30 4942 H 477.316 3.24914 3.7516 0
M  V30 4943 H 472.572 4.6444 3.97625 0
M  V30 4944 H 476.746 5.6228 4.1087 0
M  V30 4945 H 474.373 6.32506 4.21712 0
M  V30 4946 N 475.948 -1.35272 0.808662 0
M  V30 4947 C 476.858 -2.33546 0.222079 0
M  V30 4948 C 477.874 -1.6196 -0.636011 0
M  V30 4949 O 479.05 -1.93822 -0.547274 0
M  V30 4950 C 476.115 -3.41148 -0.61795 0
M  V30 4951 C 475.176 -4.28507 0.260875 0
M  V30 4952 C 474.409 -5.3097 -0.539156 0
M  V30 4953 O 474.632 -5.42123 -1.77367 0
M  V30 4954 O 473.566 -6.01858 0.0710526 0
M  V30 4955 H 477.392 -2.85515 1.03512 0
M  V30 4956 H 474.977 -1.38079 0.570495 0
M  V30 4957 H 476.859 -4.06889 -1.09634 0
M  V30 4958 H 475.534 -2.91447 -1.40855 0
M  V30 4959 H 474.441 -3.6574 0.786451 0
M  V30 4960 H 475.774 -4.81611 1.01547 0
M  V30 4961 N 477.426 -0.562348 -1.47226 0
M  V30 4962 C 478.672 -0.0402761 -2.0276 0
M  V30 4963 C 479.005 1.30823 -1.43523 0
M  V30 4964 O 478.28 1.85249 -0.592705 0
M  V30 4965 C 478.563 0.047311 -3.60069 0
M  V30 4966 C 478.416 -1.32865 -4.29729 0
M  V30 4967 C 479.735 0.758182 -4.3352 0
M  V30 4968 H 476.854 -0.0161105 -0.736824 0
M  V30 4969 H 479.496 -0.725628 -1.75598 0
M  V30 4970 H 477.646 0.630986 -3.83342 0
M  V30 4971 H 479.318 -1.95593 -4.17781 0
M  V30 4972 H 477.561 -1.90195 -3.89882 0
M  V30 4973 H 478.232 -1.22004 -5.38349 0
M  V30 4974 H 480.708 0.262546 -4.15271 0
M  V30 4975 H 479.584 0.78844 -5.43208 0
M  V30 4976 H 479.845 1.81537 -4.03109 0
M  V30 4977 N 478.904 1.54736 -0.299062 0
M  V30 4978 C 479.867 2.22127 0.565012 0
M  V30 4979 C 480.867 1.20669 1.06281 0
M  V30 4980 O 482.057 1.45417 0.959145 0
M  V30 4981 C 479.189 2.90611 1.78208 0
M  V30 4982 H 480.382 2.99891 -0.0237448 0
M  V30 4983 H 477.935 1.5622 -0.0498788 0
M  V30 4984 H 478.67 2.16921 2.41072 0
M  V30 4985 H 478.455 3.64984 1.43281 0
M  V30 4986 H 479.945 3.42026 2.396 0
M  V30 4987 N 480.382 0.0267497 1.57577 0
M  V30 4988 C 481.33 -0.973923 2.11229 0
M  V30 4989 C 482.324 -1.33849 1.03831 0
M  V30 4990 O 483.53 -1.321 1.22269 0
M  V30 4991 H 479.905 -0.331844 0.674821 0
M  V30 4992 H 481.876 -0.496092 2.94247 0
M  V30 4993 C 480.625 -2.24798 2.65257 0
M  V30 4994 H 479.948 -1.9762 3.47543 0
M  V30 4995 H 481.388 -2.93031 3.06445 0
M  V30 4996 C 479.847 -2.97611 1.57891 0
M  V30 4997 O 480.377 -3.89629 0.97735 0
M  V30 4998 N 478.583 -2.59905 1.29992 0
M  V30 4999 H 478.13 -1.85154 1.79097 0
M  V30 5000 H 478.088 -3.08932 0.583798 0
M  V30 5001 N 481.861 -1.55662 -0.24637 0
M  V30 5002 C 482.793 -1.86811 -1.32794 0
M  V30 5003 C 483.806 -0.754413 -1.44265 0
M  V30 5004 O 484.995 -1.03253 -1.45606 0
M  V30 5005 C 482.095 -2.0397 -2.70646 0
M  V30 5006 C 481.268 -3.34832 -2.81436 0
M  V30 5007 C 480.327 -3.41727 -4.00136 0
M  V30 5008 O 479.353 -4.14934 -3.89639 0
M  V30 5009 N 480.555 -2.71058 -5.1333 0
M  V30 5010 H 483.32 -2.80174 -1.06409 0
M  V30 5011 H 480.881 -1.55906 -0.43647 0
M  V30 5012 H 482.873 -2.05924 -3.48393 0
M  V30 5013 H 481.443 -1.1735 -2.89738 0
M  V30 5014 H 480.663 -3.4519 -1.90361 0
M  V30 5015 H 481.951 -4.21085 -2.85595 0
M  V30 5016 H 481.349 -2.11314 -5.2475 0
M  V30 5017 H 479.906 -2.78704 -5.89209 0
M  V30 5018 N 483.339 0.512053 -1.4905 0
M  V30 5019 C 484.269 1.62365 -1.67809 0
M  V30 5020 C 485.25 1.61737 -0.526809 0
M  V30 5021 O 486.435 1.78651 -0.761404 0
M  V30 5022 C 483.565 3.00895 -1.73435 0
M  V30 5023 C 482.519 3.16387 -2.88242 0
M  V30 5024 C 481.845 4.56157 -2.78971 0
M  V30 5025 C 483.145 2.97457 -4.29321 0
M  V30 5026 H 484.839 1.46921 -2.60873 0
M  V30 5027 H 482.385 0.705379 -1.2554 0
M  V30 5028 H 484.338 3.78549 -1.85145 0
M  V30 5029 H 483.062 3.17403 -0.769619 0
M  V30 5030 H 481.721 2.41155 -2.76116 0
M  V30 5031 H 481.369 4.69525 -1.8043 0
M  V30 5032 H 481.069 4.67465 -3.5602 0
M  V30 5033 H 482.593 5.35886 -2.92675 0
M  V30 5034 H 484.007 3.64888 -4.42187 0
M  V30 5035 H 482.404 3.20245 -5.07507 0
M  V30 5036 H 483.474 1.93692 -4.44535 0
M  V30 5037 N 484.817 1.37938 0.762283 0
M  V30 5038 C 485.727 1.36681 1.90671 0
M  V30 5039 C 486.743 0.265078 1.71969 0
M  V30 5040 O 487.919 0.502055 1.95042 0
M  V30 5041 C 484.984 1.18211 3.25925 0
M  V30 5042 C 484.045 2.3811 3.57214 0
M  V30 5043 C 483.278 2.20512 4.86014 0
M  V30 5044 O 483.501 1.19429 5.57757 0
M  V30 5045 O 482.435 3.08911 5.16583 0
M  V30 5046 H 486.261 2.33091 1.94685 0
M  V30 5047 H 483.846 1.18767 0.906356 0
M  V30 5048 H 485.728 1.09937 4.06807 0
M  V30 5049 H 484.403 0.248807 3.22742 0
M  V30 5050 H 483.31 2.51958 2.76529 0
M  V30 5051 H 484.643 3.30041 3.65149 0
M  V30 5052 N 486.295 -0.989507 1.22664 0
M  V30 5053 C 487.243 -2.10148 0.997035 0
M  V30 5054 C 488.237 -1.6929 -0.0609783 0
M  V30 5055 O 489.443 -1.79766 0.0917523 0
M  V30 5056 H 485.818 -0.687256 0.305259 0
M  V30 5057 H 487.789 -2.26685 1.94053 0
M  V30 5058 C 486.538 -3.4257 0.595085 0
M  V30 5059 H 485.861 -3.74453 1.40089 0
M  V30 5060 H 487.301 -4.21344 0.473869 0
M  V30 5061 C 485.76 -3.29638 -0.695725 0
M  V30 5062 O 486.29 -3.61709 -1.74727 0
M  V30 5063 N 484.496 -2.82814 -0.668173 0
M  V30 5064 H 484.043 -2.56914 0.18787 0
M  V30 5065 H 484.001 -2.74544 -1.5321 0
M  V30 5066 N 487.773 -1.03688 -1.18687 0
M  V30 5067 C 489.001 -0.757918 -1.92518 0
M  V30 5068 C 489.416 0.684398 -1.75959 0
M  V30 5069 O 488.773 1.46617 -1.08673 0
M  V30 5070 C 488.824 -1.10985 -3.44042 0
M  V30 5071 O 488.545 -2.49554 -3.60076 0
M  V30 5072 C 490.046 -0.854844 -4.3498 0
M  V30 5073 H 487.266 -0.276699 -0.611293 0
M  V30 5074 H 489.81 -1.38352 -1.50595 0
M  V30 5075 H 487.965 -0.529279 -3.83767 0
M  V30 5076 H 488.379 -2.6291 -4.53849 0
M  V30 5077 H 489.853 -1.15098 -5.39867 0
M  V30 5078 H 490.33 0.210507 -4.38695 0
M  V30 5079 H 490.936 -1.41853 -4.00946 0
M  V30 5080 N 489.251 1.34841 -0.815825 0
M  V30 5081 C 490.662 1.80937 -0.46029 0
M  V30 5082 C 491.013 1.67685 1.01863 0
M  V30 5083 O 490.138 1.21277 1.79223 0
M  V30 5084 C 490.733 3.28509 -0.828708 0
M  V30 5085 C 489.292 3.72712 -0.525644 0
M  V30 5086 C 488.439 2.56676 -1.04941 0
M  V30 5087 H 491.39 1.22688 -1.00664 0
M  V30 5088 H 491.411 3.80279 -0.129757 0
M  V30 5089 H 490.923 3.38122 -1.90513 0
M  V30 5090 H 489.024 3.68642 0.541666 0
M  V30 5091 H 489.137 4.67119 -1.06474 0
M  V30 5092 H 487.501 2.50302 -0.471286 0
M  V30 5093 H 488.284 2.69063 -2.13214 0
M  V30 5094 N 490.729 0.570148 1.46925 0
M  V30 5095 C 491.639 -0.173061 2.33961 0
M  V30 5096 C 492.655 -0.898825 1.48987 0
M  V30 5097 O 493.831 -0.864825 1.81887 0
M  V30 5098 C 490.896 -1.18177 3.25937 0
M  V30 5099 C 489.957 -0.462041 4.26806 0
M  V30 5100 C 489.19 -1.4227 5.14388 0
M  V30 5101 O 489.413 -2.65842 5.04662 0
M  V30 5102 O 488.347 -0.940127 5.94513 0
M  V30 5103 H 492.173 0.541216 2.98839 0
M  V30 5104 H 489.758 0.330647 1.45695 0
M  V30 5105 H 491.64 -1.76372 3.82715 0
M  V30 5106 H 490.315 -1.87774 2.63671 0
M  V30 5107 H 489.222 0.161429 3.73752 0
M  V30 5108 H 490.555 0.192719 4.91823 0
M  V30 5109 N 492.207 -1.54576 0.307264 0
M  V30 5110 C 493.454 -2.00263 -0.300167 0
M  V30 5111 C 493.782 -1.19561 -1.53413 0
M  V30 5112 O 493.037 -0.261487 -1.93945 0
M  V30 5113 C 493.336 -3.50572 -0.695253 0
M  V30 5114 C 493.002 -4.48771 0.437679 0
M  V30 5115 C 491.664 -4.7534 0.748681 0
M  V30 5116 C 494.016 -5.0721 1.19949 0
M  V30 5117 C 491.344 -5.5761 1.8245 0
M  V30 5118 C 493.696 -5.90651 2.26527 0
M  V30 5119 C 492.36 -6.15528 2.58227 0
M  V30 5120 H 491.63 -0.732814 -0.109839 0
M  V30 5121 H 494.277 -1.86664 0.427661 0
M  V30 5122 H 492.582 -3.61814 -1.50326 0
M  V30 5123 H 494.279 -3.83352 -1.17653 0
M  V30 5124 H 490.869 -4.282 0.185187 0
M  V30 5125 H 495.053 -4.86679 0.972474 0
M  V30 5126 H 490.309 -5.75121 2.07476 0
M  V30 5127 H 494.483 -6.34957 2.86011 0
M  V30 5128 H 492.11 -6.79066 3.4172 0
M  V30 5129 N 493.685 -0.035106 -1.57561 0
M  V30 5130 C 495.096 0.502885 -1.798 0
M  V30 5131 C 495.447 1.71892 -0.945921 0
M  V30 5132 O 494.572 2.15822 -0.157991 0
M  V30 5133 C 495.167 0.919097 -3.26095 0
M  V30 5134 C 493.726 1.40216 -3.49308 0
M  V30 5135 C 492.873 0.369709 -2.74824 0
M  V30 5136 H 495.824 -0.261102 -1.56537 0
M  V30 5137 H 495.845 1.78308 -3.36135 0
M  V30 5138 H 495.357 0.0338526 -3.88085 0
M  V30 5139 H 493.458 2.30714 -2.92578 0
M  V30 5140 H 493.571 1.40541 -4.58023 0
M  V30 5141 H 491.935 0.839113 -2.40481 0
M  V30 5142 H 492.718 -0.507173 -3.39533 0
M  V30 5143 N 495.163 1.55791 0.238111 0
M  V30 5144 C 496.093 1.94068 1.29846 0
M  V30 5145 C 497.074 0.806726 1.49753 0
M  V30 5146 O 498.259 1.06772 1.62214 0
M  V30 5147 C 495.389 2.24302 2.65153 0
M  V30 5148 C 494.343 3.40032 2.59927 0
M  V30 5149 C 493.669 3.55829 3.99111 0
M  V30 5150 C 494.969 4.75476 2.16148 0
M  V30 5151 H 496.663 2.82887 0.980563 0
M  V30 5152 H 494.209 1.36105 0.470253 0
M  V30 5153 H 496.162 2.4967 3.39475 0
M  V30 5154 H 494.886 1.32318 2.98596 0
M  V30 5155 H 493.545 3.14687 1.88063 0
M  V30 5156 H 493.193 2.6125 4.29834 0
M  V30 5157 H 492.893 4.3366 3.96501 0
M  V30 5158 H 494.417 3.83528 4.7512 0
M  V30 5159 H 495.831 5.00158 2.80205 0
M  V30 5160 H 494.228 5.56472 2.24631 0
M  V30 5161 H 495.298 4.71946 1.11333 0
M  V30 5162 N 496.642 -0.504142 1.49319 0
M  V30 5163 C 497.872 -1.28071 1.62116 0
M  V30 5164 C 498.28 -1.86955 0.290566 0
M  V30 5165 O 497.623 -1.68415 -0.733616 0
M  V30 5166 C 497.685 -2.4521 2.62893 0
M  V30 5167 C 497.349 -2.07218 4.0732 0
M  V30 5168 C 498.346 -1.61375 4.94221 0
M  V30 5169 C 496.031 -2.16949 4.53033 0
M  V30 5170 C 498.025 -1.25763 6.2487 0
M  V30 5171 C 495.712 -1.80949 5.83696 0
M  V30 5172 C 496.71 -1.3543 6.69438 0
M  V30 5173 O 496.398 -0.99915 7.97667 0
M  V30 5174 H 496.13 -0.394763 0.54876 0
M  V30 5175 H 498.684 -0.612118 1.96067 0
M  V30 5176 H 496.914 -3.15134 2.24115 0
M  V30 5177 H 498.603 -3.0724 2.65252 0
M  V30 5178 H 499.369 -1.53306 4.60133 0
M  V30 5179 H 495.248 -2.5133 3.86463 0
M  V30 5180 H 498.792 -0.901631 6.91749 0
M  V30 5181 H 494.689 -1.88667 6.17313 0
M  V30 5182 H 495.457 -1.13089 8.1065 0
M  V30 5183 N 498.12 -1.38341 -0.754957 0
M  V30 5184 C 499.397 -1.24995 -1.50451 0
M  V30 5185 C 499.777 0.149244 -2.10572 0
M  V30 5186 O 499.125 1.15861 -1.96948 0
M  V30 5187 C 499.335 -2.35904 -2.57197 0
M  V30 5188 C 500.683 -2.74262 -3.24138 0
M  V30 5189 O 501.707 -2.35205 -2.67501 0
M  V30 5190 O 500.566 -3.4161 -4.26574 0
M  V30 5191 H 497.66 -0.48872 -0.667144 0
M  V30 5192 H 500.206 -1.50165 -0.790486 0
M  V30 5193 H 498.978 -3.2953 -2.11011 0
M  V30 5194 H 498.601 -2.12291 -3.36182 0
M  V30 5195 N 499.598 0.982988 -1.23187 0
M  V30 5196 C 500.508 2.10907 -1.02739 0
M  V30 5197 C 501.524 1.73979 0.0273188 0
M  V30 5198 O 502.7 2.00702 -0.16757 0
M  V30 5199 C 499.765 3.41142 -0.618304 0
M  V30 5200 C 498.826 3.92112 -1.74777 0
M  V30 5201 C 498.059 5.16131 -1.3581 0
M  V30 5202 O 498.282 5.6989 -0.241201 0
M  V30 5203 O 497.216 5.61103 -2.17824 0
M  V30 5204 H 501.042 2.31046 -1.97108 0
M  V30 5205 H 498.627 1.09284 -1.01869 0
M  V30 5206 H 500.509 4.19488 -0.400982 0
M  V30 5207 H 499.184 3.2234 0.296421 0
M  V30 5208 H 498.091 3.14895 -2.0197 0
M  V30 5209 H 499.424 4.15364 -2.64071 0
M  V30 5210 N 501.076 1.04316 1.18135 0
M  V30 5211 C 501.986 0.646876 2.25505 0
M  V30 5212 C 503.002 -0.328008 1.7088 0
M  V30 5213 O 504.178 -0.182309 2.00573 0
M  V30 5214 C 501.243 0.0185664 3.46695 0
M  V30 5215 C 500.304 1.04277 4.16443 0
M  V30 5216 C 499.537 0.444352 5.31847 0
M  V30 5217 O 499.76 -0.748735 5.65465 0
M  V30 5218 O 498.694 1.17428 5.90334 0
M  V30 5219 H 502.52 1.54147 2.61672 0
M  V30 5220 H 500.105 0.814188 1.25265 0
M  V30 5221 H 501.987 -0.331068 4.20097 0
M  V30 5222 H 500.662 -0.849814 3.12346 0
M  V30 5223 H 499.569 1.44425 3.45098 0
M  V30 5224 H 500.902 1.882 4.54798 0
M  V30 5225 N 502.554 -1.34406 0.822964 0
M  V30 5226 C 503.464 -2.33298 0.246838 0
M  V30 5227 C 504.48 -1.62625 -0.618797 0
M  V30 5228 O 505.656 -1.94391 -0.526685 0
M  V30 5229 C 502.721 -3.41785 -0.581731 0
M  V30 5230 C 501.782 -4.28206 0.306309 0
M  V30 5231 C 501.015 -5.31512 -0.48281 0
M  V30 5232 O 501.238 -5.43973 -1.71607 0
M  V30 5233 O 500.172 -6.01749 0.134884 0
M  V30 5234 H 503.998 -2.84401 1.06534 0
M  V30 5235 H 501.583 -1.37466 0.585108 0
M  V30 5236 H 503.465 -4.08028 -1.05313 0
M  V30 5237 H 502.14 -2.92925 -1.37756 0
M  V30 5238 H 501.047 -3.64885 0.825199 0
M  V30 5239 H 502.38 -4.80507 1.06649 0
M  V30 5240 N 504.032 -0.577932 -1.46621 0
M  V30 5241 C 504.962 0.145917 -2.33044 0
M  V30 5242 C 505.943 0.888412 -1.45056 0
M  V30 5243 O 507.128 0.864812 -1.73881 0
M  V30 5244 C 504.258 1.16322 -3.27241 0
M  V30 5245 C 503.212 0.535868 -4.24632 0
M  V30 5246 C 502.538 1.65929 -5.08303 0
M  V30 5247 C 503.838 -0.523861 -5.19666 0
M  V30 5248 H 505.532 -0.575636 -2.93814 0
M  V30 5249 H 503.078 -0.278272 -1.41286 0
M  V30 5250 H 505.031 1.67793 -3.86553 0
M  V30 5251 H 503.755 1.91498 -2.64567 0
M  V30 5252 H 502.414 0.0422759 -3.66576 0
M  V30 5253 H 502.062 2.40061 -4.42018 0
M  V30 5254 H 501.762 1.2452 -5.74255 0
M  V30 5255 H 503.286 2.17686 -5.70478 0
M  V30 5256 H 504.7 -0.0944059 -5.73222 0
M  V30 5257 H 503.097 -0.858 -5.93935 0
M  V30 5258 H 504.167 -1.41197 -4.63887 0
M  V30 5259 N 505.51 1.54411 -0.315457 0
M  V30 5260 C 506.738 2.04833 0.291738 0
M  V30 5261 C 507.153 1.19203 1.46411 0
M  V30 5262 O 506.51 0.220867 1.81159 0
M  V30 5263 C 506.561 3.53969 0.73404 0
M  V30 5264 O 506.282 4.36346 -0.391682 0
M  V30 5265 C 507.783 4.2045 1.40489 0
M  V30 5266 H 505.003 0.668195 0.0612947 0
M  V30 5267 H 507.547 1.99276 -0.45929 0
M  V30 5268 H 505.702 3.5984 1.43506 0
M  V30 5269 H 506.116 5.24481 -0.0447088 0
M  V30 5270 H 507.59 5.26278 1.66539 0
M  V30 5271 H 508.067 3.71067 2.3496 0
M  V30 5272 H 508.673 4.18694 0.746662 0
M  V30 5273 N 506.988 0.0434614 1.5754 0
M  V30 5274 C 507.92 -0.962586 2.08007 0
M  V30 5275 C 508.933 -1.27972 1.00634 0
M  V30 5276 O 510.122 -1.24186 1.28219 0
M  V30 5277 C 507.222 -2.28621 2.50171 0
M  V30 5278 C 506.395 -2.15214 3.80791 0
M  V30 5279 C 505.454 -3.30633 4.09351 0
M  V30 5280 O 504.48 -3.0688 4.79388 0
M  V30 5281 N 505.682 -4.54873 3.60654 0
M  V30 5282 H 508.447 -0.531891 2.94942 0
M  V30 5283 H 506.008 -0.142965 1.61268 0
M  V30 5284 H 508 -3.04689 2.66359 0
M  V30 5285 H 506.57 -2.63283 1.68525 0
M  V30 5286 H 505.79 -1.23785 3.74261 0
M  V30 5287 H 507.078 -2.03475 4.66343 0
M  V30 5288 H 506.476 -4.77063 3.04019 0
M  V30 5289 H 505.033 -5.2806 3.82094 0
M  V30 5290 N 508.466 -1.55915 -0.229846 0
M  V30 5291 C 509.414 -1.9258 -1.30444 0
M  V30 5292 C 510.408 -0.806839 -1.48951 0
M  V30 5293 O 511.614 -0.991606 -1.50224 0
M  V30 5294 H 507.989 -0.611878 -0.437161 0
M  V30 5295 H 509.96 -2.82264 -0.96797 0
M  V30 5296 C 508.709 -2.25171 -2.6494 0
M  V30 5297 H 508.032 -3.10782 -2.51504 0
M  V30 5298 H 509.472 -2.54716 -3.38963 0
M  V30 5299 C 507.931 -1.07394 -3.19324 0
M  V30 5300 O 508.461 -0.330759 -4.00336 0
M  V30 5301 N 506.667 -0.859984 -2.77584 0
M  V30 5302 H 506.214 -1.46605 -2.11813 0
M  V30 5303 H 506.172 -0.0736671 -3.14314 0
M  V30 5304 N 509.944 0.496216 -1.49584 0
M  V30 5305 C 511.36 0.827814 -1.36453 0
M  V30 5306 C 511.56 1.97464 -0.401285 0
M  V30 5307 O 510.616 2.51958 0.165296 0
M  V30 5308 C 511.929 1.16352 -2.77277 0
M  V30 5309 C 513.477 1.27145 -2.86013 0
M  V30 5310 C 513.952 1.64042 -4.27615 0
M  V30 5311 N 515.443 1.71082 -4.30448 0
M  V30 5312 C 516.178 2.01085 -5.36984 0
M  V30 5313 N 515.674 2.2928 -6.5376 0
M  V30 5314 N 517.467 2.02376 -5.24405 0
M  V30 5315 H 509.618 -0.259947 -2.10803 0
M  V30 5316 H 511.881 -0.0537163 -0.946477 0
M  V30 5317 H 511.587 0.394153 -3.49484 0
M  V30 5318 H 511.461 2.10582 -3.12946 0
M  V30 5319 H 513.848 2.03152 -2.1404 0
M  V30 5320 H 513.929 0.309542 -2.5392 0
M  V30 5321 H 513.573 0.88583 -5.00115 0
M  V30 5322 H 513.503 2.6134 -4.57175 0
M  V30 5323 H 515.994 1.51434 -3.46232 0
M  V30 5324 H 516.307 2.51376 -7.30774 0
M  V30 5325 H 514.652 2.26726 -6.56978 0
M  V30 5326 H 517.843 1.79829 -4.32179 0
M  V30 5327 H 518.016 2.25425 -6.07526 0
M  V30 5328 N 511.423 1.38739 0.74761 0
M  V30 5329 C 512.669 1.35475 1.50912 0
M  V30 5330 C 513.002 -0.0533093 1.94127 0
M  V30 5331 O 512.277 -1.01572 1.65871 0
M  V30 5332 C 512.56 2.31582 2.75757 0
M  V30 5333 C 512.413 3.81274 2.38642 0
M  V30 5334 C 513.732 2.25722 3.77806 0
M  V30 5335 H 510.851 0.493427 0.547447 0
M  V30 5336 H 513.493 1.69634 0.855823 0
M  V30 5337 H 511.643 2.02582 3.31501 0
M  V30 5338 H 513.315 4.20972 1.88626 0
M  V30 5339 H 511.558 3.98664 1.71025 0
M  V30 5340 H 512.229 4.4399 3.27989 0
M  V30 5341 H 514.705 2.51336 3.31616 0
M  V30 5342 H 513.581 2.95069 4.62845 0
M  V30 5343 H 513.842 1.25803 4.23823 0
M  V30 5344 N 512.901 -0.976442 1.23707 0
M  V30 5345 C 513.834 -2.06793 0.964973 0
M  V30 5346 C 514.812 -1.62304 -0.0981472 0
M  V30 5347 O 515.996 -1.88464 0.0369477 0
M  V30 5348 C 513.123 -3.35636 0.454522 0
M  V30 5349 C 512.169 -3.99069 1.50485 0
M  V30 5350 S 513.002 -4.37814 3.0835 0
M  V30 5351 C 514.158 -5.69805 2.58985 0
M  V30 5352 H 514.391 -2.29556 1.88922 0
M  V30 5353 H 511.924 -1.11317 1.06995 0
M  V30 5354 H 513.882 -4.10162 0.166626 0
M  V30 5355 H 512.543 -3.10876 -0.448871 0
M  V30 5356 H 511.736 -4.91896 1.09792 0
M  V30 5357 H 511.338 -3.30938 1.7423 0
M  V30 5358 H 513.63 -6.46919 2.01252 0
M  V30 5359 H 514.573 -6.15345 3.50366 0
M  V30 5360 H 514.981 -5.27994 1.99705 0
M  V30 5361 N 514.379 -1.04941 -1.1758 0
M  V30 5362 C 515.609 -0.777166 -1.91425 0
M  V30 5363 C 516.017 0.670647 -1.76915 0
M  V30 5364 O 515.36 1.46965 -1.10213 0
M  V30 5365 C 515.422 -1.07495 -3.43052 0
M  V30 5366 C 515.086 -2.51844 -3.81345 0
M  V30 5367 C 516.083 -3.50047 -3.844 0
M  V30 5368 C 513.768 -2.86787 -4.12382 0
M  V30 5369 C 515.762 -4.81239 -4.17957 0
M  V30 5370 C 513.449 -4.18182 -4.45608 0
M  V30 5371 C 514.447 -5.15219 -4.48373 0
M  V30 5372 O 514.135 -6.44258 -4.80819 0
M  V30 5373 H 513.867 -0.282209 -0.614275 0
M  V30 5374 H 516.421 -1.40258 -1.50056 0
M  V30 5375 H 514.651 -0.392437 -3.84704 0
M  V30 5376 H 516.34 -0.78912 -3.98155 0
M  V30 5377 H 517.106 -3.24391 -3.60548 0
M  V30 5378 H 512.985 -2.11922 -4.09402 0
M  V30 5379 H 516.529 -5.56974 -4.2003 0
M  V30 5380 H 512.426 -4.43602 -4.68922 0
M  V30 5381 H 513.194 -6.49041 -4.98686 0
M  V30 5382 N 515.857 1.33968 -0.830081 0
M  V30 5383 C 517.085 2.0228 -0.434773 0
M  V30 5384 C 517.5 1.62487 0.961419 0
M  V30 5385 O 516.857 0.833849 1.62337 0
M  V30 5386 C 516.908 3.5751 -0.535625 0
M  V30 5387 O 516.629 3.95864 -1.87679 0
M  V30 5388 C 518.13 4.43091 -0.136137 0
M  V30 5389 H 515.35 0.648151 -0.173613 0
M  V30 5390 H 517.894 1.71089 -1.12022 0
M  V30 5391 H 516.049 3.87266 0.101817 0
M  V30 5392 H 516.463 4.9056 -1.85609 0
M  V30 5393 H 517.937 5.51398 -0.257772 0
M  V30 5394 H 518.414 4.29433 0.921076 0
M  V30 5395 H 519.02 4.18677 -0.747662 0
M  V30 5396 N 517.335 0.585699 1.46312 0
M  V30 5397 C 518.268 -0.194257 2.27372 0
M  V30 5398 C 519.246 -0.894116 1.3581 0
M  V30 5399 O 520.43 -0.907402 1.65222 0
M  V30 5400 C 517.557 -1.27901 3.13622 0
M  V30 5401 C 516.603 -0.684666 4.20969 0
M  V30 5402 S 517.436 0.490745 5.33247 0
M  V30 5403 C 518.592 -0.595137 6.23064 0
M  V30 5404 H 518.825 0.493515 2.93175 0
M  V30 5405 H 516.358 0.372666 1.49835 0
M  V30 5406 H 518.316 -1.90008 3.63878 0
M  V30 5407 H 516.977 -1.93875 2.47126 0
M  V30 5408 H 516.17 -1.50015 4.81156 0
M  V30 5409 H 515.772 -0.139204 3.73741 0
M  V30 5410 H 518.064 -1.48002 6.61137 0
M  V30 5411 H 519.007 -0.0299446 7.08094 0
M  V30 5412 H 519.415 -0.900627 5.57269 0
M  V30 5413 N 518.813 -1.54241 0.323641 0
M  V30 5414 C 519.723 -2.28033 -0.551205 0
M  V30 5415 C 520.739 -1.32388 -1.12913 0
M  V30 5416 O 521.915 -1.65403 -1.14908 0
M  V30 5417 C 518.98 -3.02382 -1.69606 0
M  V30 5418 C 518.041 -4.13612 -1.14993 0
M  V30 5419 C 517.274 -4.84407 -2.24022 0
M  V30 5420 O 517.497 -4.54716 -3.44368 0
M  V30 5421 O 516.431 -5.71312 -1.89436 0
M  V30 5422 H 520.257 -3.03662 0.048066 0
M  V30 5423 H 517.842 -1.49133 0.0893289 0
M  V30 5424 H 519.724 -3.48941 -2.36259 0
M  V30 5425 H 518.399 -2.29628 -2.28151 0
M  V30 5426 H 517.306 -3.71402 -0.448484 0
M  V30 5427 H 518.639 -4.8841 -0.609608 0
M  V30 5428 N 520.291 -0.0518155 -1.57515 0
M  V30 5429 C 521.239 0.940195 -2.12751 0
M  V30 5430 C 522.233 1.3218 -1.05948 0
M  V30 5431 O 523.439 1.30138 -1.24355 0
M  V30 5432 H 519.814 0.321066 -0.680015 0
M  V30 5433 H 521.785 0.449217 -2.94999 0
M  V30 5434 C 520.534 2.2055 -2.68799 0
M  V30 5435 H 519.857 1.92066 -3.50643 0
M  V30 5436 H 521.297 2.88119 -3.11068 0
M  V30 5437 C 519.756 2.95061 -1.62605 0
M  V30 5438 O 520.286 3.88025 -1.03921 0
M  V30 5439 N 518.492 2.57804 -1.34111 0
M  V30 5440 H 518.039 1.82281 -1.8202 0
M  V30 5441 H 517.997 3.07964 -0.632872 0
M  V30 5442 N 521.769 1.56035 0.221574 0
M  V30 5443 C 522.679 1.95581 1.29558 0
M  V30 5444 C 523.695 0.859639 1.51282 0
M  V30 5445 O 524.871 1.16321 1.64413 0
M  V30 5446 C 521.936 2.26447 2.62531 0
M  V30 5447 C 520.997 3.49632 2.4911 0
M  V30 5448 C 520.23 3.79017 3.75742 0
M  V30 5449 O 520.453 3.10077 4.78757 0
M  V30 5450 O 519.387 4.72507 3.72855 0
M  V30 5451 H 523.213 2.8711 0.990035 0
M  V30 5452 H 520.798 1.43244 0.424434 0
M  V30 5453 H 522.68 2.47494 3.41064 0
M  V30 5454 H 521.355 1.38092 2.92766 0
M  V30 5455 H 520.262 3.33864 1.68777 0
M  V30 5456 H 521.595 4.3837 2.23814 0
M  V30 5457 N 523.247 -0.488276 1.49845 0
M  V30 5458 C 524.157 -1.61451 1.70207 0
M  V30 5459 C 525.173 -1.63877 0.584846 0
M  V30 5460 O 526.349 -1.82063 0.861107 0
M  V30 5461 C 523.414 -2.9776 1.77594 0
M  V30 5462 C 522.475 -3.05861 3.01243 0
M  V30 5463 C 521.708 -4.35668 3.08268 0
M  V30 5464 O 521.931 -5.25197 2.22541 0
M  V30 5465 O 520.865 -4.49005 4.00847 0
M  V30 5466 H 524.691 -1.47199 2.65643 0
M  V30 5467 H 522.276 -0.665939 1.33737 0
M  V30 5468 H 524.158 -3.7875 1.84732 0
M  V30 5469 H 522.833 -3.12248 0.8534 0
M  V30 5470 H 521.74 -2.24012 2.99616 0
M  V30 5471 H 523.073 -2.96304 3.9302 0
M  V30 5472 N 524.725 -1.39134 -0.740242 0
M  V30 5473 C 525.971 -1.36273 -1.50192 0
M  V30 5474 C 526.304 0.0430136 -1.94152 0
M  V30 5475 O 525.579 1.00691 -1.66408 0
M  V30 5476 C 525.862 -2.33041 -2.74525 0
M  V30 5477 C 525.715 -3.82535 -2.36617 0
M  V30 5478 C 527.034 -2.27723 -3.76604 0
M  V30 5479 H 524.153 -0.496323 -0.544823 0
M  V30 5480 H 526.795 -1.70085 -0.846815 0
M  V30 5481 H 524.945 -2.04337 -3.30422 0
M  V30 5482 H 526.617 -4.21967 -1.86391 0
M  V30 5483 H 524.86 -3.99565 -1.68909 0
M  V30 5484 H 525.531 -4.45723 -3.2563 0
M  V30 5485 H 528.007 -2.53091 -3.30279 0
M  V30 5486 H 526.883 -2.97519 -4.61274 0
M  V30 5487 H 527.144 -1.28049 -4.2315 0
M  V30 5488 N 526.204 0.969867 -1.24223 0
M  V30 5489 C 527.615 1.52717 -1.07399 0
M  V30 5490 C 527.966 1.92956 0.355298 0
M  V30 5491 O 527.091 1.77112 1.2434 0
M  V30 5492 C 527.686 2.77521 -1.94339 0
M  V30 5493 C 526.245 3.29615 -1.81744 0
M  V30 5494 C 525.392 2.02537 -1.89405 0
M  V30 5495 H 528.343 0.788399 -1.37732 0
M  V30 5496 H 528.364 3.50773 -1.47439 0
M  V30 5497 H 527.876 2.48203 -2.98357 0
M  V30 5498 H 525.977 3.63789 -0.805505 0
M  V30 5499 H 526.09 3.98661 -2.65718 0
M  V30 5500 H 524.454 2.17151 -1.33108 0
M  V30 5501 H 525.237 1.75587 -2.94999 0
M  V30 5502 N 527.682 1.05563 1.17022 0
M  V30 5503 C 528.929 0.767937 1.87374 0
M  V30 5504 C 529.257 -0.705224 1.81265 0
M  V30 5505 O 528.512 -1.5318 1.21796 0
M  V30 5506 C 528.811 1.19849 3.36706 0
M  V30 5507 C 528.477 2.6745 3.63017 0
M  V30 5508 C 527.139 3.0777 3.69907 0
M  V30 5509 C 529.491 3.62811 3.74189 0
M  V30 5510 C 526.819 4.42307 3.85463 0
M  V30 5511 C 529.171 4.97087 3.91264 0
M  V30 5512 C 527.835 5.37055 3.96394 0
M  V30 5513 H 527.105 0.281008 0.68565 0
M  V30 5514 H 529.752 1.32339 1.38415 0
M  V30 5515 H 528.057 0.562096 3.87747 0
M  V30 5516 H 529.754 0.953038 3.8951 0
M  V30 5517 H 526.344 2.35228 3.58282 0
M  V30 5518 H 530.528 3.32798 3.68183 0
M  V30 5519 H 525.784 4.72769 3.87684 0
M  V30 5520 H 529.958 5.70869 3.9885 0
M  V30 5521 H 527.585 6.41308 4.082 0
M  V30 5522 N 529.16 -1.33526 0.837174 0
M  V30 5523 C 530.108 -2.31168 0.257698 0
M  V30 5524 C 531.102 -1.5806 -0.609388 0
M  V30 5525 O 532.308 -1.72941 -0.499139 0
M  V30 5526 H 528.683 -0.74922 0.0646058 0
M  V30 5527 H 530.654 -2.77552 1.09578 0
M  V30 5528 C 529.403 -3.4326 -0.553887 0
M  V30 5529 H 528.726 -3.99665 0.104008 0
M  V30 5530 H 530.166 -4.13782 -0.925219 0
M  V30 5531 C 528.625 -2.88965 -1.73207 0
M  V30 5532 O 529.155 -2.85013 -2.83073 0
M  V30 5533 N 527.361 -2.45596 -1.55342 0
M  V30 5534 H 526.908 -2.49009 -0.659705 0
M  V30 5535 H 526.866 -2.0962 -2.34322 0
M  V30 5536 N 530.638 -0.59345 -1.46 0
M  V30 5537 C 531.887 -0.0808084 -2.01538 0
M  V30 5538 C 532.2 1.29112 -1.46934 0
M  V30 5539 O 533.406 1.8957 -1.94359 0
M  V30 5540 C 531.862 -0.0938311 -3.59778 0
M  V30 5541 C 531.47 -1.46474 -4.23379 0
M  V30 5542 C 533.214 0.364306 -4.22934 0
M  V30 5543 C 531.121 -1.4349 -5.73729 0
M  V30 5544 H 530.051 -0.0264407 -0.753536 0
M  V30 5545 H 532.702 -0.746689 -1.67621 0
M  V30 5546 H 531.084 0.638427 -3.9082 0
M  V30 5547 H 532.258 -2.21758 -4.03931 0
M  V30 5548 H 530.573 -1.86379 -3.7236 0
M  V30 5549 H 533.17 0.405584 -5.3316 0
M  V30 5550 H 533.513 1.38409 -3.92618 0
M  V30 5551 H 534.046 -0.31423 -3.96557 0
M  V30 5552 H 530.785 -2.43184 -6.08722 0
M  V30 5553 H 530.305 -0.724431 -5.95409 0
M  V30 5554 H 531.984 -1.15243 -6.36654 0
M  V30 5555 N 532.116 1.54067 -0.331816 0
M  V30 5556 C 533.344 2.05131 0.269996 0
M  V30 5557 C 533.759 1.20749 1.45138 0
M  V30 5558 O 533.116 0.240069 1.80914 0
M  V30 5559 C 533.167 3.54728 0.696456 0
M  V30 5560 O 532.888 4.35906 -0.43794 0
M  V30 5561 C 534.389 4.21916 1.36021 0
M  V30 5562 H 531.609 0.668807 0.0542042 0
M  V30 5563 H 534.153 1.98777 -0.4804 0
M  V30 5564 H 532.308 3.61342 1.39681 0
M  V30 5565 H 532.722 5.24404 -0.100334 0
M  V30 5566 H 534.196 5.28015 1.60947 0
M  V30 5567 H 534.673 3.73538 2.31011 0
M  V30 5568 H 535.279 4.19463 0.702212 0
M  V30 5569 N 533.594 0.0601682 1.57485 0
M  V30 5570 C 535.01 -0.296422 1.56823 0
M  V30 5571 C 535.21 -1.70831 1.0686 0
M  V30 5572 O 534.266 -2.4174 0.729245 0
M  V30 5573 C 535.579 -0.116681 3.00474 0
M  V30 5574 C 537.127 -0.187103 3.1244 0
M  V30 5575 C 537.602 -0.035783 4.57986 0
M  V30 5576 N 539.093 -0.0917676 4.63109 0
M  V30 5577 C 539.828 0.00107251 5.734 0
M  V30 5578 N 539.324 0.146773 6.92645 0
M  V30 5579 N 541.117 -0.0551577 5.62073 0
M  V30 5580 H 533.268 0.983055 1.88281 0
M  V30 5581 H 535.531 0.382386 0.867459 0
M  V30 5582 H 535.237 0.85712 3.41096 0
M  V30 5583 H 535.111 -0.873929 3.66936 0
M  V30 5584 H 537.498 -1.15138 2.71712 0
M  V30 5585 H 537.579 0.601052 2.48638 0
M  V30 5586 H 537.223 0.925212 4.99402 0
M  V30 5587 H 537.153 -0.843196 5.19806 0
M  V30 5588 H 539.644 -0.203261 3.77353 0
M  V30 5589 H 539.957 0.210076 7.72514 0
M  V30 5590 H 538.302 0.181979 6.94762 0
M  V30 5591 H 541.493 -0.167605 4.678 0
M  V30 5592 H 541.666 0.020652 6.47997 0
M  V30 5593 N 535.072 -1.5615 -0.213296 0
M  V30 5594 C 536.349 -1.70349 -0.961281 0
M  V30 5595 C 536.729 -0.609791 -2.02101 0
M  V30 5596 O 536.077 0.381987 -2.25285 0
M  V30 5597 C 536.287 -3.11982 -1.56424 0
M  V30 5598 C 537.635 -3.71649 -2.05334 0
M  V30 5599 O 538.659 -3.14995 -1.66302 0
M  V30 5600 O 537.518 -4.71038 -2.77102 0
M  V30 5601 H 534.612 -0.694121 -0.449582 0
M  V30 5602 H 537.158 -1.68464 -0.204426 0
M  V30 5603 H 535.93 -3.83046 -0.799457 0
M  V30 5604 H 535.553 -3.18019 -2.38641 0
M  V30 5605 N 536.55 0.480323 -1.50102 0
M  V30 5606 C 537.961 1.06142 -1.53593 0
M  V30 5607 C 538.312 1.93335 -0.334055 0
M  V30 5608 O 537.437 2.09188 0.55403 0
M  V30 5609 C 538.032 1.9317 -2.78336 0
M  V30 5610 C 536.591 2.46405 -2.84538 0
M  V30 5611 C 535.738 1.24521 -2.4777 0
M  V30 5612 H 538.689 0.26333 -1.565 0
M  V30 5613 H 538.71 2.78123 -2.59669 0
M  V30 5614 H 538.222 1.29683 -3.65792 0
M  V30 5615 H 536.323 3.13472 -2.01411 0
M  V30 5616 H 536.436 2.82143 -3.87211 0
M  V30 5617 H 534.8 1.57706 -2.00003 0
M  V30 5618 H 535.583 0.627102 -3.37524 0
M  V30 5619 N 538.028 1.39524 0.732853 0
M  V30 5620 C 539.305 1.27373 1.48444 0
M  V30 5621 C 539.685 -0.115725 2.10783 0
M  V30 5622 O 539.033 -1.12713 1.98766 0
M  V30 5623 C 539.243 2.39966 2.53412 0
M  V30 5624 C 540.591 2.79384 3.19733 0
M  V30 5625 O 541.615 2.39431 2.63725 0
M  V30 5626 O 540.474 3.48353 4.21085 0
M  V30 5627 H 537.568 0.499272 0.659285 0
M  V30 5628 H 540.114 1.51403 0.766496 0
M  V30 5629 H 538.886 3.32845 2.05742 0
M  V30 5630 H 538.509 2.17612 3.32762 0
M  V30 5631 N 539.506 -0.963266 1.24736 0
M  V30 5632 C 540.754 -1.70343 1.08755 0
M  V30 5633 C 541.075 -1.91387 -0.373619 0
M  V30 5634 O 540.345 -1.4948 -1.2662 0
M  V30 5635 H 538.925 -0.631224 0.399456 0
M  V30 5636 H 541.587 -1.15859 1.56725 0
M  V30 5637 H 540.683 -2.68616 1.58909 0
M  V30 5638 N 540.985 -1.06182 -1.16461 0
M  V30 5639 C 542.231 -0.779015 -1.87241 0
M  V30 5640 C 542.564 0.692715 -1.81425 0
M  V30 5641 O 541.839 1.5074 -1.22913 0
M  V30 5642 C 542.122 -1.2728 -3.36856 0
M  V30 5643 C 541.975 -2.80821 -3.51368 0
M  V30 5644 C 543.294 -0.879799 -4.31216 0
M  V30 5645 H 540.413 -0.284464 -0.679889 0
M  V30 5646 H 543.055 -1.31755 -1.36896 0
M  V30 5647 H 541.205 -0.814673 -3.79862 0
M  V30 5648 H 542.877 -3.34833 -3.17308 0
M  V30 5649 H 541.12 -3.19606 -2.93316 0
M  V30 5650 H 541.791 -3.10435 -4.56436 0
M  V30 5651 H 544.267 -1.27436 -3.96105 0
M  V30 5652 H 543.143 -1.25278 -5.34412 0
M  V30 5653 H 543.404 0.215372 -4.41575 0
M  V30 5654 N 542.463 1.3308 -0.844243 0
M  V30 5655 C 543.71 1.97605 -0.44255 0
M  V30 5656 C 544.038 1.66856 0.999458 0
M  V30 5657 O 543.293 0.943586 1.7145 0
M  V30 5658 C 543.592 3.52045 -0.616354 0
M  V30 5659 C 543.258 4.02757 -2.02726 0
M  V30 5660 C 541.92 4.16316 -2.41317 0
M  V30 5661 C 544.272 4.29776 -2.9486 0
M  V30 5662 C 541.6 4.54232 -3.71335 0
M  V30 5663 C 543.952 4.69146 -4.24364 0
M  V30 5664 C 542.616 4.80911 -4.62904 0
M  V30 5665 H 541.886 0.723088 -0.161941 0
M  V30 5666 H 544.533 1.58663 -1.0723 0
M  V30 5667 H 542.838 3.91681 0.0966812 0
M  V30 5668 H 544.535 3.99981 -0.285756 0
M  V30 5669 H 541.125 3.9268 -1.71756 0
M  V30 5670 H 545.309 4.18818 -2.6628 0
M  V30 5671 H 540.565 4.61535 -4.00993 0
M  V30 5672 H 544.739 4.89008 -4.95827 0
M  V30 5673 H 542.366 5.10048 -5.63698 0
M  V30 5674 N 543.941 0.601185 1.45683 0
M  V30 5675 C 545.187 0.0940202 2.02582 0
M  V30 5676 C 545.52 -1.26972 1.46941 0
M  V30 5677 O 544.795 -1.83613 0.641612 0
M  V30 5678 C 545.078 0.0481715 3.60068 0
M  V30 5679 C 544.931 1.44212 4.26055 0
M  V30 5680 C 546.25 -0.642975 4.35378 0
M  V30 5681 H 543.369 0.0356404 0.736138 0
M  V30 5682 H 546.011 0.771929 1.73612 0
M  V30 5683 H 544.161 -0.529128 3.8488 0
M  V30 5684 H 545.833 2.06601 4.12449 0
M  V30 5685 H 544.076 2.00465 3.84703 0
M  V30 5686 H 544.747 1.36234 5.34925 0
M  V30 5687 H 547.223 -0.152351 4.15821 0
M  V30 5688 H 546.099 -0.644141 5.45107 0
M  V30 5689 H 546.36 -1.70785 4.0778 0
M  V30 5690 N 545.419 -1.53889 0.339982 0
M  V30 5691 C 546.349 -2.27843 -0.510856 0
M  V30 5692 C 547.33 -1.29267 -1.10563 0
M  V30 5693 O 548.515 -1.58104 -1.12768 0
M  V30 5694 C 545.645 -3.04857 -1.66372 0
M  V30 5695 C 544.599 -4.10907 -1.19746 0
M  V30 5696 C 543.925 -4.75855 -2.43857 0
M  V30 5697 C 545.225 -5.21435 -0.300501 0
M  V30 5698 H 546.919 -2.99212 0.106067 0
M  V30 5699 H 544.465 -1.43904 0.0524533 0
M  V30 5700 H 546.418 -3.5533 -2.26537 0
M  V30 5701 H 545.142 -2.31133 -2.30749 0
M  V30 5702 H 543.801 -3.61342 -0.618654 0
M  V30 5703 H 543.449 -3.9873 -3.06633 0
M  V30 5704 H 543.149 -5.47502 -2.13343 0
M  V30 5705 H 544.673 -5.2911 -3.04754 0
M  V30 5706 H 546.087 -5.67565 -0.80889 0
M  V30 5707 H 544.484 -6.00036 -0.0874076 0
M  V30 5708 H 545.554 -4.80328 0.664321 0
M  V30 5709 N 546.897 -0.0685191 -1.57451 0
M  V30 5710 C 548.122 0.613919 -1.98106 0
M  V30 5711 C 548.547 1.62551 -0.946501 0
M  V30 5712 O 547.905 1.81085 0.0882824 0
M  V30 5713 C 547.953 1.26189 -3.378 0
M  V30 5714 O 547.057 2.37773 -3.36954 0
M  V30 5715 H 546.398 0.158163 -0.644888 0
M  V30 5716 H 548.928 -0.142063 -2.04106 0
M  V30 5717 H 548.938 1.60951 -3.74912 0
M  V30 5718 H 547.613 0.520625 -4.12629 0
M  V30 5719 H 546.19 2.04829 -3.11608 0
M  V30 5720 N 548.375 1.56261 0.205012 0
M  V30 5721 C 549.623 1.79684 0.925096 0
M  V30 5722 C 549.944 0.63989 1.84202 0
M  V30 5723 O 549.214 -0.342345 1.92885 0
M  V30 5724 H 547.794 0.662774 0.344587 0
M  V30 5725 H 550.456 1.93734 0.212899 0
M  V30 5726 H 549.552 2.72467 1.52211 0
M  V30 5727 N 549.853 -0.472356 1.50355 0
M  V30 5728 C 551.13 -1.23356 1.51798 0
M  V30 5729 C 551.51 -2.09469 0.26193 0
M  V30 5730 O 550.858 -2.15677 -0.754691 0
M  V30 5731 C 551.068 -2.06568 2.81302 0
M  V30 5732 C 552.416 -2.648 3.31913 0
M  V30 5733 O 553.44 -2.16812 2.82614 0
M  V30 5734 O 552.299 -3.52231 4.17846 0
M  V30 5735 H 549.393 -0.559707 0.608816 0
M  V30 5736 H 551.939 -0.48428 1.62643 0
M  V30 5737 H 550.711 -1.43103 3.64194 0
M  V30 5738 H 550.334 -2.88633 2.73454 0
M  V30 5739 N 551.331 -1.39911 -0.725443 0
M  V30 5740 C 552.556 -1.41137 -1.5197 0
M  V30 5741 C 552.981 -0.010262 -1.88097 0
M  V30 5742 O 552.339 0.979184 -1.52583 0
M  V30 5743 C 552.387 -2.2994 -2.77777 0
M  V30 5744 O 551.491 -1.73586 -3.74088 0
M  V30 5745 H 550.832 -0.480219 -0.458569 0
M  V30 5746 H 553.362 -1.84023 -0.894249 0
M  V30 5747 H 553.372 -2.44785 -3.26411 0
M  V30 5748 H 552.047 -3.31759 -2.50816 0
M  V30 5749 H 550.624 -1.68035 -3.32894 0
M  V30 5750 N 552.809 0.956637 -1.25245 0
M  V30 5751 C 553.739 2.07058 -1.07931 0
M  V30 5752 C 554.72 1.70096 0.0110361 0
M  V30 5753 O 555.905 1.93555 -0.158121 0
M  V30 5754 C 553.035 3.40272 -0.695124 0
M  V30 5755 C 551.989 3.91235 -1.73549 0
M  V30 5756 C 551.315 5.20921 -1.20604 0
M  V30 5757 C 552.615 4.17837 -3.13385 0
M  V30 5758 H 554.309 2.218 -2.01109 0
M  V30 5759 H 551.855 1.06581 -0.968326 0
M  V30 5760 H 553.808 4.1765 -0.560949 0
M  V30 5761 H 552.532 3.25462 0.272355 0
M  V30 5762 H 551.191 3.16025 -1.85807 0
M  V30 5763 H 550.839 5.02479 -0.228846 0
M  V30 5764 H 550.539 5.55987 -1.90136 0
M  V30 5765 H 552.063 6.00897 -1.08421 0
M  V30 5766 H 553.477 4.8588 -3.04292 0
M  V30 5767 H 551.874 4.64154 -3.80369 0
M  V30 5768 H 552.944 3.2419 -3.60595 0
M  V30 5769 N 554.287 1.06798 1.15896 0
M  V30 5770 C 555.197 0.694564 2.24083 0
M  V30 5771 C 556.213 -0.291687 1.71538 0
M  V30 5772 O 557.389 -0.139723 2.00915 0
M  V30 5773 C 554.454 0.0921014 3.46578 0
M  V30 5774 C 553.515 1.13087 4.14137 0
M  V30 5775 C 552.748 0.557064 5.30785 0
M  V30 5776 O 552.971 -0.628623 5.66925 0
M  V30 5777 O 551.905 1.29924 5.8771 0
M  V30 5778 H 555.731 1.59663 2.58344 0
M  V30 5779 H 553.316 0.840575 1.2351 0
M  V30 5780 H 555.198 -0.241884 4.20705 0
M  V30 5781 H 553.873 -0.78337 3.14078 0
M  V30 5782 H 552.78 1.51712 3.41957 0
M  V30 5783 H 554.113 1.97805 4.50704 0
M  V30 5784 N 555.766 -1.3263 0.851289 0
M  V30 5785 C 557.182 -1.50162 0.5407 0
M  V30 5786 C 557.382 -1.78788 -0.929369 0
M  V30 5787 O 556.438 -1.85545 -1.71258 0
M  V30 5788 C 557.751 -2.64803 1.42478 0
M  V30 5789 C 559.299 -2.78688 1.42485 0
M  V30 5790 C 559.774 -3.96405 2.29407 0
M  V30 5791 N 561.265 -4.0366 2.27184 0
M  V30 5792 C 562 -4.93971 2.9117 0
M  V30 5793 N 561.496 -5.89313 3.64256 0
M  V30 5794 N 563.289 -4.87066 2.80576 0
M  V30 5795 H 555.44 -1.12315 1.80275 0
M  V30 5796 H 557.703 -0.553266 0.769806 0
M  V30 5797 H 557.409 -2.50368 2.46999 0
M  V30 5798 H 557.283 -3.60506 1.10974 0
M  V30 5799 H 559.67 -2.92547 0.387304 0
M  V30 5800 H 559.751 -1.83708 1.78002 0
M  V30 5801 H 559.395 -3.83304 3.33228 0
M  V30 5802 H 559.325 -4.90654 1.91224 0
M  V30 5803 H 561.816 -3.35435 1.74045 0
M  V30 5804 H 562.129 -6.54913 4.10255 0
M  V30 5805 H 560.474 -5.8935 3.68364 0
M  V30 5806 H 563.665 -4.11552 2.23031 0
M  V30 5807 H 563.838 -5.57248 3.30725 0
M  V30 5808 N 557.244 -0.608902 -1.45362 0
M  V30 5809 C 558.174 0.0964526 -2.33301 0
M  V30 5810 C 559.155 0.857444 -1.46908 0
M  V30 5811 O 560.34 0.827735 -1.75676 0
M  V30 5812 C 557.47 1.09354 -3.29635 0
M  V30 5813 C 556.424 0.445676 -4.25673 0
M  V30 5814 C 555.75 1.5511 -5.11708 0
M  V30 5815 C 557.05 -0.633972 -5.18438 0
M  V30 5816 H 558.744 -0.637829 -2.92527 0
M  V30 5817 H 556.29 -0.308178 -1.40664 0
M  V30 5818 H 558.243 1.59556 -3.90025 0
M  V30 5819 H 556.967 1.85843 -2.6857 0
M  V30 5820 H 555.626 -0.0354897 -3.66583 0
M  V30 5821 H 555.274 2.30631 -4.4701 0
M  V30 5822 H 554.974 1.12311 -5.76767 0
M  V30 5823 H 556.498 2.05537 -5.74967 0
M  V30 5824 H 557.912 -0.215974 -5.72893 0
M  V30 5825 H 556.309 -0.983789 -5.91981 0
M  V30 5826 H 557.379 -1.51005 -4.60788 0
M  V30 5827 N 558.722 1.53707 -0.348139 0
M  V30 5828 C 559.969 2.00988 0.246966 0
M  V30 5829 C 560.297 1.23586 1.50189 0
M  V30 5830 O 559.552 0.312817 1.93184 0
M  V30 5831 C 559.851 3.52292 0.602061 0
M  V30 5832 C 559.517 4.47453 -0.556509 0
M  V30 5833 C 558.179 4.73188 -0.874446 0
M  V30 5834 C 560.531 5.03851 -1.33354 0
M  V30 5835 C 557.859 5.52577 -1.9717 0
M  V30 5836 C 560.211 5.84437 -2.42108 0
M  V30 5837 C 558.875 6.08465 -2.74456 0
M  V30 5838 H 558.145 0.735469 0.0903712 0
M  V30 5839 H 560.792 1.85464 -0.477001 0
M  V30 5840 H 559.097 3.65672 1.40681 0
M  V30 5841 H 560.794 3.86337 1.07447 0
M  V30 5842 H 557.384 4.27558 -0.298652 0
M  V30 5843 H 561.568 4.8393 -1.10117 0
M  V30 5844 H 556.824 5.69418 -2.22651 0
M  V30 5845 H 560.998 6.27151 -3.02745 0
M  V30 5846 H 558.625 6.69768 -3.59604 0
M  V30 5847 N 560.2 0.0768682 1.57412 0
M  V30 5848 C 561.147 -0.888577 2.13009 0
M  V30 5849 C 562.117 -1.29198 1.0439 0
M  V30 5850 O 563.302 -1.37694 1.3208 0
M  V30 5851 C 560.442 -2.14899 2.70023 0
M  V30 5852 C 559.555 -1.79777 3.92816 0
M  V30 5853 C 558.69 -3.00467 4.38056 0
M  V30 5854 C 557.729 -2.61385 5.53484 0
M  V30 5855 N 556.866 -3.74851 5.93659 0
M  V30 5856 H 561.706 -0.407593 2.95199 0
M  V30 5857 H 559.243 -0.189534 1.45874 0
M  V30 5858 H 561.201 -2.88688 3.0119 0
M  V30 5859 H 559.831 -2.60529 1.9059 0
M  V30 5860 H 558.883 -0.960301 3.68079 0
M  V30 5861 H 560.195 -1.47027 4.76639 0
M  V30 5862 H 559.349 -3.82529 4.7091 0
M  V30 5863 H 558.088 -3.36413 3.53097 0
M  V30 5864 H 557.093 -1.77746 5.20275 0
M  V30 5865 H 558.318 -2.26603 6.40178 0
M  V30 5866 H 556.264 -4.1055 5.11649 0
M  V30 5867 H 556.181 -3.45887 6.72234 0
M  V30 5868 H 557.449 -4.57477 6.31138 0
M  V30 5869 N 561.678 -1.56367 -0.196722 0
M  V30 5870 C 562.611 -1.89475 -1.2718 0
M  V30 5871 C 563.589 -0.754667 -1.44026 0
M  V30 5872 O 564.773 -1.00551 -1.59442 0
M  V30 5873 C 561.9 -2.12352 -2.63864 0
M  V30 5874 C 560.946 -3.35053 -2.63897 0
M  V30 5875 S 561.779 -4.90228 -2.15492 0
M  V30 5876 C 562.935 -5.16171 -3.54004 0
M  V30 5877 H 563.168 -2.80365 -0.989075 0
M  V30 5878 H 560.701 -1.49125 -0.40014 0
M  V30 5879 H 562.659 -2.26214 -3.42545 0
M  V30 5880 H 561.32 -1.22214 -2.89349 0
M  V30 5881 H 560.513 -3.48182 -3.64397 0
M  V30 5882 H 560.115 -3.20176 -1.93296 0
M  V30 5883 H 562.407 -5.06591 -4.49857 0
M  V30 5884 H 563.35 -6.17938 -3.45771 0
M  V30 5885 H 563.758 -4.43814 -3.48841 0
M  V30 5886 N 563.156 0.464375 -1.50603 0
M  V30 5887 C 564.384 1.23907 -1.65695 0
M  V30 5888 C 564.799 1.85658 -0.343027 0
M  V30 5889 O 564.156 1.69529 0.675739 0
M  V30 5890 C 564.207 2.3429 -2.75301 0
M  V30 5891 O 563.928 1.7507 -4.01599 0
M  V30 5892 C 565.429 3.25051 -3.01424 0
M  V30 5893 H 562.649 0.374485 -0.556778 0
M  V30 5894 H 565.193 0.55353 -1.96866 0
M  V30 5895 H 563.348 2.98607 -2.46804 0
M  V30 5896 H 563.762 2.47812 -4.62266 0
M  V30 5897 H 565.236 3.98699 -3.81763 0
M  V30 5898 H 565.713 3.84227 -2.12758 0
M  V30 5899 H 566.319 2.66463 -3.31477 0
M  V30 5900 N 564.634 1.40294 0.718013 0
M  V30 5901 C 565.911 1.2894 1.47084 0
M  V30 5902 C 566.291 -0.0933625 2.10893 0
M  V30 5903 O 565.639 -1.10598 1.99951 0
M  V30 5904 C 565.849 2.4264 2.50852 0
M  V30 5905 C 567.197 2.8276 3.16752 0
M  V30 5906 O 568.221 2.42215 2.61171 0
M  V30 5907 O 567.08 3.528 4.17366 0
M  V30 5908 H 564.174 0.506236 0.653952 0
M  V30 5909 H 566.72 1.52208 0.750394 0
M  V30 5910 H 565.492 3.35009 2.022 0
M  V30 5911 H 565.115 2.21129 3.30435 0
M  V30 5912 N 566.112 -0.949982 1.2575 0
M  V30 5913 C 567.359 -1.69515 1.10774 0
M  V30 5914 C 567.687 -1.91316 -0.350479 0
M  V30 5915 O 566.942 -1.48515 -1.27443 0
M  V30 5916 C 567.241 -3.08039 1.81237 0
M  V30 5917 C 566.907 -3.06023 3.31151 0
M  V30 5918 C 565.569 -3.0518 3.72047 0
M  V30 5919 C 567.921 -2.98998 4.26907 0
M  V30 5920 C 565.249 -2.95067 5.07102 0
M  V30 5921 C 567.601 -2.90426 5.61992 0
M  V30 5922 C 566.265 -2.87922 6.0221 0
M  V30 5923 H 565.535 -0.6203 0.405351 0
M  V30 5924 H 568.182 -1.10953 1.56082 0
M  V30 5925 H 566.487 -3.70172 1.28373 0
M  V30 5926 H 568.184 -3.64526 1.67098 0
M  V30 5927 H 564.774 -3.07453 2.98614 0
M  V30 5928 H 568.958 -2.98764 3.963 0
M  V30 5929 H 564.214 -2.915 5.37436 0
M  V30 5930 H 568.388 -2.83952 6.35881 0
M  V30 5931 H 566.015 -2.79841 7.06819 0
M  V30 5932 N 567.59 -1.07411 -1.15328 0
M  V30 5933 C 568.815 -0.818856 -1.90551 0
M  V30 5934 C 569.24 0.622194 -1.77512 0
M  V30 5935 O 568.598 1.43484 -1.10824 0
M  V30 5936 C 568.646 -1.23267 -3.38877 0
M  V30 5937 O 567.75 -0.378345 -4.10661 0
M  V30 5938 H 567.091 -0.29827 -0.593238 0
M  V30 5939 H 569.621 -1.43289 -1.46046 0
M  V30 5940 H 569.631 -1.20912 -3.89672 0
M  V30 5941 H 568.306 -2.28226 -3.47686 0
M  V30 5942 H 566.883 -0.464437 -3.69996 0
M  V30 5943 N 569.068 1.32177 -0.85831 0
M  V30 5944 C 570.484 1.49873 -0.548656 0
M  V30 5945 C 570.684 1.79278 0.919874 0
M  V30 5946 O 569.74 1.86451 1.70271 0
M  V30 5947 C 571.053 2.64043 -1.4388 0
M  V30 5948 C 572.601 2.77928 -1.43961 0
M  V30 5949 C 573.076 3.95182 -2.31506 0
M  V30 5950 N 574.567 4.0245 -2.29321 0
M  V30 5951 C 575.302 4.9242 -2.93786 0
M  V30 5952 N 574.798 5.87373 -3.67376 0
M  V30 5953 N 576.591 4.85572 -2.83155 0
M  V30 5954 H 568.742 1.11357 -1.80868 0
M  V30 5955 H 571.005 0.549175 -0.772729 0
M  V30 5956 H 570.711 2.49055 -2.48324 0
M  V30 5957 H 570.585 3.59912 -1.12885 0
M  V30 5958 H 572.972 2.92338 -0.402813 0
M  V30 5959 H 573.053 1.82762 -1.78974 0
M  V30 5960 H 572.697 3.81531 -3.35256 0
M  V30 5961 H 572.627 4.89633 -1.93823 0
M  V30 5962 H 575.118 3.34507 -1.75822 0
M  V30 5963 H 575.431 6.52728 -4.13722 0
M  V30 5964 H 573.776 5.87388 -3.71484 0
M  V30 5965 H 576.967 4.10363 -2.25211 0
M  V30 5966 H 577.14 5.55486 -3.33676 0
M  V30 5967 N 570.547 0.616602 1.45037 0
M  V30 5968 C 571.824 0.0469086 1.95544 0
M  V30 5969 C 572.204 -1.42345 1.55888 0
M  V30 5970 O 571.552 -2.13055 0.825824 0
M  V30 5971 C 571.762 0.254489 3.48071 0
M  V30 5972 C 573.11 0.140025 4.24369 0
M  V30 5973 O 574.134 0.185084 3.55719 0
M  V30 5974 O 572.993 0.0327034 5.4649 0
M  V30 5975 H 570.087 -0.0306051 0.826433 0
M  V30 5976 H 572.633 0.687293 1.55159 0
M  V30 5977 H 571.405 1.27532 3.69934 0
M  V30 5978 H 571.028 -0.42073 3.95368 0
M  V30 5979 N 572.025 -1.5352 0.356285 0
M  V30 5980 C 572.935 -2.29151 -0.502712 0
M  V30 5981 C 573.951 -1.34753 -1.1008 0
M  V30 5982 O 575.127 -1.67803 -1.11374 0
M  V30 5983 C 572.192 -3.05911 -1.63154 0
M  V30 5984 C 571.253 -4.15958 -1.06194 0
M  V30 5985 C 570.486 -4.8905 -2.13696 0
M  V30 5986 O 570.709 -4.61919 -3.34645 0
M  V30 5987 O 569.643 -5.75202 -1.77275 0
M  V30 5988 H 573.469 -3.03492 0.112466 0
M  V30 5989 H 571.054 -1.4891 0.120942 0
M  V30 5990 H 572.936 -3.53874 -2.28804 0
M  V30 5991 H 571.611 -2.34415 -2.23229 0
M  V30 5992 H 570.518 -3.7227 -0.369603 0
M  V30 5993 H 571.851 -4.89593 -0.505872 0
M  V30 5994 N 573.503 -0.0852151 -1.57369 0
M  V30 5995 C 574.728 0.592872 -1.98746 0
M  V30 5996 C 575.153 1.61538 -0.963689 0
M  V30 5997 O 574.511 1.81168 0.069071 0
M  V30 5998 C 574.559 1.22599 -3.39119 0
M  V30 5999 O 573.663 2.34185 -3.39457 0
M  V30 6000 H 573.004 0.151314 -0.646529 0
M  V30 6001 H 575.534 -0.163703 -2.03944 0
M  V30 6002 H 575.544 1.56965 -3.76598 0
M  V30 6003 H 574.219 0.476831 -4.13158 0
M  V30 6004 H 572.796 2.01512 -3.13763 0
M  V30 6005 N 574.981 1.5647 0.188427 0
M  V30 6006 C 576.227 1.81281 0.909124 0
M  V30 6007 C 576.56 0.66034 1.82628 0
M  V30 6008 O 575.835 -0.338737 1.91528 0
M  V30 6009 C 576.118 3.16388 1.7196 0
M  V30 6010 C 575.971 4.42137 0.826714 0
M  V30 6011 C 577.29 3.48256 2.69083 0
M  V30 6012 H 574.409 0.659457 0.329068 0
M  V30 6013 H 577.051 1.89182 0.176156 0
M  V30 6014 H 575.201 3.09784 2.34448 0
M  V30 6015 H 576.873 4.60794 0.216025 0
M  V30 6016 H 575.116 4.33594 0.133792 0
M  V30 6017 H 575.787 5.33184 1.42893 0
M  V30 6018 H 578.263 3.55203 2.16726 0
M  V30 6019 H 577.139 4.43899 3.2287 0
M  V30 6020 H 577.4 2.72088 3.48455 0
M  V30 6021 N 576.459 -0.456382 1.50847 0
M  V30 6022 C 577.406 -1.55249 1.70782 0
M  V30 6023 C 578.376 -1.56757 0.549231 0
M  V30 6024 O 579.561 -1.74061 0.7815 0
M  V30 6025 C 576.701 -2.93118 1.82143 0
M  V30 6026 C 575.814 -3.01285 3.09598 0
M  V30 6027 C 574.949 -4.30159 3.11667 0
M  V30 6028 C 573.988 -4.32124 4.33515 0
M  V30 6029 N 573.125 -5.52492 4.3324 0
M  V30 6030 H 577.965 -1.37555 2.64353 0
M  V30 6031 H 575.502 -0.668543 1.3103 0
M  V30 6032 H 577.46 -3.73088 1.86711 0
M  V30 6033 H 576.09 -3.09413 0.919978 0
M  V30 6034 H 575.142 -2.14096 3.14431 0
M  V30 6035 H 576.454 -2.98597 3.99551 0
M  V30 6036 H 575.608 -5.18489 3.15046 0
M  V30 6037 H 574.347 -4.35477 2.1957 0
M  V30 6038 H 573.352 -3.42189 4.30333 0
M  V30 6039 H 574.577 -4.28485 5.26856 0
M  V30 6040 H 572.523 -5.58567 3.44004 0
M  V30 6041 H 572.44 -5.51605 5.16979 0
M  V30 6042 H 573.708 -6.42906 4.40786 0
M  V30 6043 N 577.937 -1.40673 -0.710563 0
M  V30 6044 C 579.353 -1.22813 -1.01928 0
M  V30 6045 C 579.553 -0.10687 -2.01216 0
M  V30 6046 O 578.609 0.533614 -2.46797 0
M  V30 6047 C 579.922 -2.57178 -1.5582 0
M  V30 6048 C 581.47 -2.64233 -1.67779 0
M  V30 6049 C 581.945 -3.98879 -2.25076 0
M  V30 6050 N 583.436 -4.00647 -2.32456 0
M  V30 6051 C 584.171 -5.01621 -2.77784 0
M  V30 6052 N 583.667 -6.12989 -3.22826 0
M  V30 6053 N 585.46 -4.88988 -2.77213 0
M  V30 6054 H 577.611 -2.12335 -0.05253 0
M  V30 6055 H 579.874 -0.9441 -0.085898 0
M  V30 6056 H 579.58 -3.39903 -0.903249 0
M  V30 6057 H 579.454 -2.78618 -2.54267 0
M  V30 6058 H 581.841 -1.81876 -2.3239 0
M  V30 6059 H 581.922 -2.46619 -0.679178 0
M  V30 6060 H 581.566 -4.81678 -1.61086 0
M  V30 6061 H 581.496 -4.13826 -3.25661 0
M  V30 6062 H 583.987 -3.20231 -2.0065 0
M  V30 6063 H 584.3 -6.85921 -3.55995 0
M  V30 6064 H 582.645 -6.16547 -3.20773 0
M  V30 6065 H 585.836 -4.01075 -2.41363 0
M  V30 6066 H 586.009 -5.67822 -3.12221 0
M  V30 6067 N 579.415 0.9433 -1.26252 0
M  V30 6068 C 580.662 1.68925 -1.11672 0
M  V30 6069 C 580.99 1.91499 0.340329 0
M  V30 6070 O 580.245 1.49189 1.26653 0
M  V30 6071 C 580.544 3.07073 -1.82868 0
M  V30 6072 C 580.21 3.04262 -3.32769 0
M  V30 6073 C 578.872 3.03203 -3.7366 0
M  V30 6074 C 581.224 2.96729 -4.28487 0
M  V30 6075 C 578.552 2.92373 -5.0866 0
M  V30 6076 C 580.904 2.87442 -5.63525 0
M  V30 6077 C 579.568 2.84724 -6.03729 0
M  V30 6078 H 578.838 0.618141 -0.408635 0
M  V30 6079 H 581.485 1.10124 -1.56668 0
M  V30 6080 H 579.79 3.69486 -1.30335 0
M  V30 6081 H 581.487 3.63635 -1.69029 0
M  V30 6082 H 578.077 3.05865 -3.00241 0
M  V30 6083 H 582.261 2.96658 -3.97879 0
M  V30 6084 H 577.517 2.88645 -5.38975 0
M  V30 6085 H 581.691 2.80576 -6.37377 0
M  V30 6086 H 579.318 2.76089 -7.08293 0
M  V30 6087 N 580.893 1.08022 1.14757 0
M  V30 6088 C 581.856 0.71048 2.1791 0
M  V30 6089 C 582.856 -0.252731 1.58801 0
M  V30 6090 O 584.046 -0.0327915 1.74169 0
M  V30 6091 C 581.178 0.0483203 3.40866 0
M  V30 6092 H 582.371 1.62384 2.52134 0
M  V30 6093 H 579.924 0.877595 1.29337 0
M  V30 6094 H 580.659 -0.876959 3.12218 0
M  V30 6095 H 580.444 0.741189 3.85031 0
M  V30 6096 H 581.934 -0.195471 4.17142 0
M  V30 6097 N 582.371 -1.3172 0.865308 0
M  V30 6098 C 583.787 -1.4958 0.556596 0
M  V30 6099 C 583.987 -1.79763 -0.910353 0
M  V30 6100 O 583.043 -1.87351 -1.6928 0
M  V30 6101 C 584.356 -2.63277 1.45279 0
M  V30 6102 C 585.904 -2.77161 1.45433 0
M  V30 6103 C 586.379 -3.93949 2.33598 0
M  V30 6104 N 587.87 -4.01228 2.31453 0
M  V30 6105 C 588.605 -4.90855 2.96393 0
M  V30 6106 N 588.101 -5.85416 3.70486 0
M  V30 6107 N 589.894 -4.84063 2.85726 0
M  V30 6108 H 582.045 -1.10396 1.81456 0
M  V30 6109 H 584.308 -0.54507 0.775631 0
M  V30 6110 H 584.014 -2.47734 2.49641 0
M  V30 6111 H 583.888 -3.59309 1.14792 0
M  V30 6112 H 586.275 -2.9212 0.41831 0
M  V30 6113 H 586.356 -1.8181 1.79941 0
M  V30 6114 H 586 -3.79748 3.37274 0
M  V30 6115 H 585.93 -4.88598 1.96417 0
M  V30 6116 H 588.421 -3.3357 1.77593 0
M  V30 6117 H 588.734 -6.50525 4.17178 0
M  V30 6118 H 587.079 -5.85409 3.74594 0
M  V30 6119 H 590.27 -4.09163 2.27384 0
M  V30 6120 H 590.443 -5.53708 3.36617 0
M  V30 6121 N 583.85 -0.624285 -1.44708 0
M  V30 6122 C 584.782 0.12305 -2.28869 0
M  V30 6123 C 585.795 0.81557 -1.40898 0
M  V30 6124 O 586.984 0.678162 -1.65116 0
M  V30 6125 C 584.084 1.19612 -3.1709 0
M  V30 6126 C 583.257 0.587452 -4.33437 0
M  V30 6127 C 582.316 1.55358 -5.02743 0
M  V30 6128 O 581.341 1.07338 -5.58988 0
M  V30 6129 N 582.543 2.88798 -5.03563 0
M  V30 6130 H 585.308 -0.599193 -2.93649 0
M  V30 6131 H 582.87 -0.464954 -1.5508 0
M  V30 6132 H 584.861 1.84261 -3.60319 0
M  V30 6133 H 583.432 1.82067 -2.54107 0
M  V30 6134 H 582.652 -0.237509 -3.93484 0
M  V30 6135 H 583.94 0.161326 -5.08544 0
M  V30 6136 H 583.338 3.30399 -4.59188 0
M  V30 6137 H 581.894 3.48826 -5.50603 0
M  V30 6138 N 585.328 1.53329 -0.364422 0
M  V30 6139 C 586.261 2.22052 0.526145 0
M  V30 6140 C 587.239 1.21203 1.08391 0
M  V30 6141 O 588.423 1.50101 1.14026 0
M  V30 6142 C 585.55 2.91432 1.72583 0
M  V30 6143 C 584.596 4.06345 1.29562 0
M  V30 6144 S 585.429 5.34671 0.297885 0
M  V30 6145 C 586.585 6.07563 1.50392 0
M  V30 6146 H 586.818 2.97244 -0.0575055 0
M  V30 6147 H 584.351 1.53684 -0.148525 0
M  V30 6148 H 586.309 3.3202 2.41398 0
M  V30 6149 H 584.97 2.15966 2.28073 0
M  V30 6150 H 584.163 4.53901 2.19067 0
M  V30 6151 H 583.765 3.67642 0.686696 0
M  V30 6152 H 586.057 6.32224 2.43513 0
M  V30 6153 H 587 6.99973 1.06977 0
M  V30 6154 H 587.408 5.37994 1.70945 0
M  V30 6155 N 586.806 0.0935595 1.57322 0
M  V30 6156 C 588.222 -0.263091 1.57417 0
M  V30 6157 C 588.422 -1.68526 1.1046 0
M  V30 6158 O 587.478 -2.40139 0.780357 0
M  V30 6159 C 588.791 -0.0529201 3.00653 0
M  V30 6160 C 590.339 -0.120788 3.12767 0
M  V30 6161 C 590.814 0.0613707 4.57959 0
M  V30 6162 N 592.305 0.00648534 4.632 0
M  V30 6163 C 593.04 0.122699 5.73269 0
M  V30 6164 N 592.536 0.29366 6.92177 0
M  V30 6165 N 594.329 0.0640787 5.62063 0
M  V30 6166 H 586.48 1.02277 1.86154 0
M  V30 6167 H 588.743 0.4007 0.859153 0
M  V30 6168 H 588.449 0.929279 3.39201 0
M  V30 6169 H 588.323 -0.795899 3.68708 0
M  V30 6170 H 590.71 -1.09349 2.74093 0
M  V30 6171 H 590.791 0.653656 2.47307 0
M  V30 6172 H 590.435 1.03093 4.97327 0
M  V30 6173 H 590.365 -0.732748 5.21477 0
M  V30 6174 H 592.856 -0.123173 3.77699 0
M  V30 6175 H 593.169 0.37389 7.71895 0
M  V30 6176 H 591.514 0.329307 6.94219 0
M  V30 6177 H 594.705 -0.0683396 4.6805 0
M  V30 6178 H 594.878 0.158097 6.47807 0
M  V30 6179 N 588.284 -1.56567 -0.180126 0
M  V30 6180 C 589.532 -1.81133 -0.896392 0
M  V30 6181 C 589.853 -0.669114 -1.83161 0
M  V30 6182 O 589.123 0.311616 -1.93406 0
M  V30 6183 H 587.703 -0.668172 -0.333999 0
M  V30 6184 H 590.365 -1.94048 -0.182051 0
M  V30 6185 H 589.461 -2.74854 -1.47857 0
M  V30 6186 N 589.762 0.448376 -1.51087 0
M  V30 6187 C 590.695 1.56298 -1.66272 0
M  V30 6188 C 591.673 1.54381 -0.510419 0
M  V30 6189 O 592.857 1.73671 -0.732854 0
M  V30 6190 C 589.984 2.94883 -1.66618 0
M  V30 6191 C 589.03 3.14868 -2.87681 0
M  V30 6192 S 589.863 2.9234 -4.48662 0
M  V30 6193 C 591.019 4.33227 -4.51735 0
M  V30 6194 H 591.252 1.43182 -2.6055 0
M  V30 6195 H 588.785 0.637309 -1.40633 0
M  V30 6196 H 590.743 3.74771 -1.67502 0
M  V30 6197 H 589.404 3.05371 -0.735358 0
M  V30 6198 H 588.597 4.16166 -2.84292 0
M  V30 6199 H 588.199 2.42788 -2.84482 0
M  V30 6200 H 590.491 5.26247 -4.26697 0
M  V30 6201 H 591.434 4.41653 -5.53487 0
M  V30 6202 H 591.842 4.16367 -3.81181 0
M  V30 6203 N 591.24 1.41047 0.703093 0
M  V30 6204 C 592.488 1.39723 1.4602 0
M  V30 6205 C 592.809 0.00461257 1.94999 0
M  V30 6206 O 592.079 -0.952292 1.71196 0
M  V30 6207 H 590.659 0.514281 0.541779 0
M  V30 6208 H 593.321 1.76217 0.832678 0
M  V30 6209 H 592.417 2.07982 2.32701 0
M  V30 6210 N 592.718 -0.936591 1.26751 0
M  V30 6211 C 593.964 -1.6858 1.12733 0
M  V30 6212 C 594.297 -1.91414 -0.327745 0
M  V30 6213 O 593.572 -1.49812 -1.24043 0
M  V30 6214 C 593.855 -3.05779 1.90187 0
M  V30 6215 C 593.708 -2.90242 3.43627 0
M  V30 6216 C 595.027 -4.0597 1.69931 0
M  V30 6217 H 592.146 -0.61182 0.410908 0
M  V30 6218 H 594.788 -1.08747 1.55801 0
M  V30 6219 H 592.938 -3.56853 1.53584 0
M  V30 6220 H 594.61 -2.46354 3.9001 0
M  V30 6221 H 592.853 -2.2577 3.70419 0
M  V30 6222 H 593.524 -3.87572 3.93055 0
M  V30 6223 H 596 -3.63874 2.0183 0
M  V30 6224 H 594.876 -4.99974 2.26534 0
M  V30 6225 H 595.137 -4.37369 0.64502 0
M  V30 6226 N 594.196 -1.08629 -1.14182 0
M  V30 6227 C 595.473 -0.73002 -1.81466 0
M  V30 6228 C 595.853 0.785996 -1.95922 0
M  V30 6229 O 595.201 1.70535 -1.52086 0
M  V30 6230 C 595.411 -1.45957 -3.17014 0
M  V30 6231 C 596.759 -1.62008 -3.92477 0
M  V30 6232 O 597.783 -1.42141 -3.26611 0
M  V30 6233 O 596.642 -1.94806 -5.106 0
M  V30 6234 H 593.736 -0.261307 -0.784632 0
M  V30 6235 H 596.282 -1.188 -1.2118 0
M  V30 6236 H 595.054 -2.49221 -3.01669 0
M  V30 6237 H 594.677 -0.993222 -3.84995 0
M  V30 6238 N 595.674 1.31259 -0.872281 0
M  V30 6239 C 596.584 2.32221 -0.333255 0
M  V30 6240 C 597.6 1.6481 0.558013 0
M  V30 6241 O 598.776 1.96212 0.454175 0
M  V30 6242 C 595.841 3.43708 0.454479 0
M  V30 6243 C 594.902 4.26774 -0.465024 0
M  V30 6244 C 594.135 5.32937 0.28521 0
M  V30 6245 O 594.358 5.49968 1.513 0
M  V30 6246 O 593.292 6.00834 -0.358126 0
M  V30 6247 H 597.118 2.80252 -1.17016 0
M  V30 6248 H 594.703 1.352 -0.635724 0
M  V30 6249 H 596.585 4.11656 0.900963 0
M  V30 6250 H 595.26 2.97836 1.26789 0
M  V30 6251 H 594.167 3.61571 -0.960055 0
M  V30 6252 H 595.5 4.76217 -1.2441 0
M  V30 6253 N 597.152 0.631951 1.44375 0
M  V30 6254 C 598.115 -0.0628142 2.29114 0
M  V30 6255 C 599.115 -0.771494 1.41084 0
M  V30 6256 O 600.305 -0.615959 1.62947 0
M  V30 6257 C 597.437 -1.09953 3.22681 0
M  V30 6258 H 598.63 0.682509 2.92031 0
M  V30 6259 H 596.183 0.392128 1.51301 0
M  V30 6260 H 596.918 -1.87481 2.64616 0
M  V30 6261 H 596.703 -0.595286 3.87555 0
M  V30 6262 H 598.193 -1.58538 3.86336 0
M  V30 6263 N 598.631 -1.53133 0.372548 0
M  V30 6264 C 599.561 -2.28876 -0.462412 0
M  V30 6265 C 600.542 -1.31583 -1.07796 0
M  V30 6266 O 601.727 -1.60461 -1.09389 0
M  V30 6267 C 598.857 -3.08317 -1.59868 0
M  V30 6268 C 597.811 -4.13355 -1.11003 0
M  V30 6269 C 597.137 -4.8092 -2.33708 0
M  V30 6270 C 598.437 -5.21955 -0.18983 0
M  V30 6271 H 600.131 -2.9892 0.169511 0
M  V30 6272 H 597.677 -1.43761 0.0829658 0
M  V30 6273 H 599.63 -3.60055 -2.18949 0
M  V30 6274 H 598.354 -2.35976 -2.25794 0
M  V30 6275 H 597.013 -3.62573 -0.541869 0
M  V30 6276 H 596.661 -4.05144 -2.98106 0
M  V30 6277 H 596.361 -5.51904 -2.01682 0
M  V30 6278 H 597.885 -5.35455 -2.93462 0
M  V30 6279 H 599.299 -5.69153 -0.688319 0
M  V30 6280 H 597.696 -6.00087 0.0398887 0
M  V30 6281 H 598.766 -4.78811 0.766057 0
M  V30 6282 N 600.109 -0.101901 -1.5727 0
M  V30 6283 C 601.525 0.254739 -1.57554 0
M  V30 6284 C 601.725 1.67937 -1.11352 0
M  V30 6285 O 600.781 2.39722 -0.793081 0
M  V30 6286 C 602.094 0.036975 -3.00677 0
M  V30 6287 C 603.642 0.104199 -3.12827 0
M  V30 6288 C 604.117 -0.0856565 -4.5792 0
M  V30 6289 N 605.608 -0.0310498 -4.6319 0
M  V30 6290 C 606.343 -0.153099 -5.73196 0
M  V30 6291 N 605.839 -0.330364 -6.92012 0
M  V30 6292 N 607.632 -0.0938854 -5.62022 0
M  V30 6293 H 599.783 -1.03263 -1.85609 0
M  V30 6294 H 602.046 -0.405251 -0.857016 0
M  V30 6295 H 601.752 -0.947254 -3.38703 0
M  V30 6296 H 601.626 0.776335 -3.69124 0
M  V30 6297 H 604.013 1.07894 -2.74669 0
M  V30 6298 H 604.094 -0.666762 -2.46957 0
M  V30 6299 H 603.738 -1.05729 -4.96773 0
M  V30 6300 H 603.668 0.705082 -5.21858 0
M  V30 6301 H 606.159 0.103141 -3.77759 0
M  V30 6302 H 606.472 -0.41482 -7.71686 0
M  V30 6303 H 604.817 -0.366119 -6.94035 0
M  V30 6304 H 608.008 0.0435168 -4.6808 0
M  V30 6305 H 608.181 -0.19245 -6.47714 0
M  V30 6306 N 601.587 1.56661 0.17182 0
M  V30 6307 C 602.497 1.99604 1.2327 0
M  V30 6308 C 603.513 0.907333 1.4847 0
M  V30 6309 O 604.689 1.21492 1.60629 0
M  V30 6310 C 601.754 2.34685 2.55194 0
M  V30 6311 C 600.815 3.57381 2.3786 0
M  V30 6312 C 600.048 3.90779 3.63494 0
M  V30 6313 O 600.271 3.25152 4.6865 0
M  V30 6314 O 599.205 4.84129 3.57634 0
M  V30 6315 H 603.031 2.90114 0.898192 0
M  V30 6316 H 600.616 1.44522 0.378647 0
M  V30 6317 H 602.498 2.5822 3.33017 0
M  V30 6318 H 601.173 1.47336 2.88225 0
M  V30 6319 H 600.08 3.39064 1.5807 0
M  V30 6320 H 601.413 4.45268 2.09754 0
M  V30 6321 N 603.065 -0.440357 1.51323 0
M  V30 6322 C 604.481 -0.7766 1.39431 0
M  V30 6323 C 604.681 -1.95838 0.474296 0
M  V30 6324 O 603.737 -2.52398 -0.0716692 0
M  V30 6325 C 605.05 -1.05981 2.81405 0
M  V30 6326 C 606.598 -1.16442 2.90534 0
M  V30 6327 C 607.073 -1.48058 4.33408 0
M  V30 6328 N 608.564 -1.54988 4.36501 0
M  V30 6329 C 609.299 -1.81017 5.44078 0
M  V30 6330 N 608.795 -2.04858 6.61819 0
M  V30 6331 N 610.588 -1.82774 5.31554 0
M  V30 6332 H 602.739 0.338006 2.09693 0
M  V30 6333 H 605.002 0.0888072 0.943831 0
M  V30 6334 H 604.708 -0.264173 3.50706 0
M  V30 6335 H 604.582 -1.98822 3.20546 0
M  V30 6336 H 606.969 -1.95068 2.21432 0
M  V30 6337 H 607.05 -0.215088 2.54894 0
M  V30 6338 H 606.694 -0.699605 5.03059 0
M  V30 6339 H 606.624 -2.44192 4.66559 0
M  V30 6340 H 609.115 -1.38479 3.51613 0
M  V30 6341 H 609.428 -2.2408 7.396 0
M  V30 6342 H 607.773 -2.02187 6.6494 0
M  V30 6343 H 610.964 -1.63665 4.38556 0
M  V30 6344 H 611.137 -2.02722 6.15474 0
M  V30 6345 N 604.543 -1.41418 -0.695603 0
M  V30 6346 C 605.791 -1.40496 -1.45277 0
M  V30 6347 C 606.112 -0.0149538 -1.94994 0
M  V30 6348 O 605.382 0.9432 -1.71699 0
M  V30 6349 H 603.962 -0.517147 -0.539044 0
M  V30 6350 H 606.624 -1.76656 -0.823321 0
M  V30 6351 H 605.72 -2.09214 -2.31595 0
M  V30 6352 N 606.021 0.929856 -1.27246 0
M  V30 6353 C 606.984 2.01172 -1.09829 0
M  V30 6354 C 607.984 1.60743 -0.0429687 0
M  V30 6355 O 609.174 1.71813 -0.287373 0
M  V30 6356 C 606.306 3.34191 -0.673003 0
M  V30 6357 H 607.499 2.18054 -2.05895 0
M  V30 6358 H 605.052 1.11036 -1.10003 0
M  V30 6359 H 605.787 3.23009 0.289134 0
M  V30 6360 H 605.572 3.64892 -1.43515 0
M  V30 6361 H 607.062 4.13646 -0.573323 0
M  V30 6362 N 607.499 1.09233 1.13605 0
M  V30 6363 C 608.446 0.729921 2.18954 0
M  V30 6364 C 609.416 -0.287916 1.63586 0
M  V30 6365 O 610.601 -0.170003 1.90041 0
M  V30 6366 C 607.741 0.154489 3.44754 0
M  V30 6367 C 606.854 1.22613 4.14234 0
M  V30 6368 C 605.989 0.613657 5.27644 0
M  V30 6369 C 605.028 1.66674 5.8897 0
M  V30 6370 N 604.165 1.07545 6.93814 0
M  V30 6371 H 609.005 1.63257 2.49302 0
M  V30 6372 H 606.542 0.815693 1.22413 0
M  V30 6373 H 608.5 -0.196923 4.16735 0
M  V30 6374 H 607.13 -0.711433 3.14863 0
M  V30 6375 H 606.182 1.69485 3.40557 0
M  V30 6376 H 607.494 2.0238 4.55899 0
M  V30 6377 H 606.648 0.210976 6.06333 0
M  V30 6378 H 605.387 -0.215584 4.87223 0
M  V30 6379 H 604.392 2.07899 5.08978 0
M  V30 6380 H 605.617 2.49861 6.31464 0
M  V30 6381 H 603.563 0.267451 6.55455 0
M  V30 6382 H 603.48 1.81011 7.3401 0
M  V30 6383 H 604.748 0.698906 7.7636 0
M  V30 6384 N 608.977 -1.30795 0.87923 0
M  V30 6385 C 610.254 -1.91145 0.415086 0
M  V30 6386 C 610.634 -1.7995 -1.10368 0
M  V30 6387 O 609.982 -1.21305 -1.93642 0
M  V30 6388 C 610.192 -3.37014 0.906778 0
M  V30 6389 C 611.54 -4.14101 0.938358 0
M  V30 6390 O 612.564 -3.45834 0.853053 0
M  V30 6391 O 611.423 -5.36054 1.06342 0
M  V30 6392 H 608.517 -0.81736 0.125905 0
M  V30 6393 H 611.063 -1.39401 0.967753 0
M  V30 6394 H 609.835 -3.3922 1.95053 0
M  V30 6395 H 609.458 -3.96204 0.332948 0
M  V30 6396 N 610.455 -0.639598 -1.44038 0
M  V30 6397 C 611.703 -0.147188 -2.01563 0
M  V30 6398 C 612.024 1.2384 -1.50628 0
M  V30 6399 O 611.294 1.82452 -0.713316 0
M  V30 6400 H 609.874 -0.0514231 -0.745228 0
M  V30 6401 H 612.536 -0.828205 -1.76428 0
M  V30 6402 H 611.632 -0.121358 -3.11864 0
M  V30 6403 N 611.933 1.52934 -0.380664 0
M  V30 6404 C 613.21 1.93845 0.261417 0
M  V30 6405 C 613.59 1.31544 1.65104 0
M  V30 6406 O 612.938 0.480234 2.23397 0
M  V30 6407 C 613.148 3.47739 0.296466 0
M  V30 6408 C 614.496 4.21284 0.529578 0
M  V30 6409 O 615.52 3.54199 0.377041 0
M  V30 6410 O 614.379 5.40195 0.827753 0
M  V30 6411 H 611.473 0.811318 0.160285 0
M  V30 6412 H 614.019 1.64042 -0.434544 0
M  V30 6413 H 612.791 3.85395 -0.67724 0
M  V30 6414 H 612.414 3.8382 1.0377 0
M  V30 6415 N 613.412 0.11024 1.57214 0
M  V30 6416 C 614.661 -0.549638 1.94067 0
M  V30 6417 C 614.974 -1.68388 0.995234 0
M  V30 6418 O 616.18 -2.40593 1.25807 0
M  V30 6419 C 614.636 -1.02912 3.44873 0
M  V30 6420 C 614.244 0.0761861 4.47935 0
M  V30 6421 C 615.988 -1.66087 3.9066 0
M  V30 6422 C 613.895 -0.419502 5.8991 0
M  V30 6423 H 612.825 -0.209092 0.724428 0
M  V30 6424 H 615.476 0.188683 1.82527 0
M  V30 6425 H 613.858 -1.82159 3.51616 0
M  V30 6426 H 615.032 0.852185 4.52851 0
M  V30 6427 H 613.347 0.614052 4.11847 0
M  V30 6428 H 615.944 -2.04272 4.94143 0
M  V30 6429 H 616.287 -2.53591 3.30148 0
M  V30 6430 H 616.82 -0.933959 3.86681 0
M  V30 6431 H 613.559 0.419277 6.54158 0
M  V30 6432 H 613.079 -1.16217 5.88433 0
M  V30 6433 H 614.758 -0.883577 6.40938 0
M  V30 6434 N 614.89 -1.56749 -0.16351 0
M  V30 6435 C 616.139 -1.81626 -0.877211 0
M  V30 6436 C 616.452 -0.688791 -1.83071 0
M  V30 6437 O 617.658 -0.822697 -2.58735 0
M  V30 6438 C 616.114 -3.21858 -1.61045 0
M  V30 6439 C 615.722 -4.42494 -0.700195 0
M  V30 6440 C 617.466 -3.56021 -2.31192 0
M  V30 6441 C 615.373 -5.73748 -1.43412 0
M  V30 6442 H 614.303 -0.67731 -0.331312 0
M  V30 6443 H 616.954 -1.83039 -0.13006 0
M  V30 6444 H 615.336 -3.14784 -2.40264 0
M  V30 6445 H 616.51 -4.60766 0.0555849 0
M  V30 6446 H 614.825 -4.1626 -0.10799 0
M  V30 6447 H 617.422 -4.51333 -2.8671 0
M  V30 6448 H 617.765 -2.81277 -3.06902 0
M  V30 6449 H 618.298 -3.64682 -1.58909 0
M  V30 6450 H 615.037 -6.51543 -0.719186 0
M  V30 6451 H 614.557 -5.5944 -2.16302 0
M  V30 6452 H 616.236 -6.15975 -1.9795 0
M  V30 6453 N 616.368 0.432326 -1.51554 0
M  V30 6454 C 617.784 0.769195 -1.39841 0
M  V30 6455 C 617.984 1.95584 -0.484675 0
M  V30 6456 O 617.04 2.52433 0.0582829 0
M  V30 6457 C 618.353 1.04487 -2.81963 0
M  V30 6458 C 619.901 1.149 -2.91148 0
M  V30 6459 C 620.376 1.45758 -4.34187 0
M  V30 6460 N 621.867 1.52671 -4.37317 0
M  V30 6461 C 622.602 1.78129 -5.4503 0
M  V30 6462 N 622.098 2.01345 -6.62897 0
M  V30 6463 N 623.891 1.79953 -5.32516 0
M  V30 6464 H 616.042 -0.349122 -2.09511 0
M  V30 6465 H 618.305 -0.0938113 -0.943347 0
M  V30 6466 H 618.011 0.24557 -3.50842 0
M  V30 6467 H 617.885 1.97119 -3.21596 0
M  V30 6468 H 620.272 1.93891 -2.22464 0
M  V30 6469 H 620.353 0.201568 -2.55005 0
M  V30 6470 H 619.997 0.672917 -5.03423 0
M  V30 6471 H 619.927 2.41715 -4.67848 0
M  V30 6472 H 622.418 1.36612 -3.52343 0
M  V30 6473 H 622.731 2.20155 -7.40778 0
M  V30 6474 H 621.076 1.98657 -6.66003 0
M  V30 6475 H 624.267 1.61337 -4.39418 0
M  V30 6476 H 624.44 1.99455 -6.1654 0
M  V30 6477 N 617.846 1.41785 0.688094 0
M  V30 6478 C 618.776 1.47 1.8142 0
M  V30 6479 C 619.757 0.327881 1.6691 0
M  V30 6480 O 620.942 0.540362 1.86531 0
M  V30 6481 C 618.072 1.35876 3.19617 0
M  V30 6482 C 617.026 2.47976 3.48844 0
M  V30 6483 C 616.352 2.21915 4.86475 0
M  V30 6484 C 617.652 3.90309 3.47068 0
M  V30 6485 H 619.346 2.41247 1.77314 0
M  V30 6486 H 616.892 1.16116 0.851651 0
M  V30 6487 H 618.845 1.38134 3.98117 0
M  V30 6488 H 617.569 0.38116 3.24368 0
M  V30 6489 H 616.228 2.45013 2.72698 0
M  V30 6490 H 615.876 1.2248 4.8786 0
M  V30 6491 H 615.576 2.97037 5.06994 0
M  V30 6492 H 617.1 2.25901 5.67275 0
M  V30 6493 H 618.514 3.94947 4.1556 0
M  V30 6494 H 616.911 4.65175 3.7912 0
M  V30 6495 H 617.981 4.17927 2.45896 0
M  V30 6496 N 619.324 -0.923095 1.27737 0
M  V30 6497 C 620.254 -2.04124 1.13383 0
M  V30 6498 C 621.235 -1.70066 0.0340658 0
M  V30 6499 O 622.42 -1.93068 0.209383 0
M  V30 6500 C 619.55 -3.3831 0.785097 0
M  V30 6501 C 618.504 -3.86496 1.8386 0
M  V30 6502 C 617.83 -5.1754 1.34373 0
M  V30 6503 C 619.13 -4.09381 3.24353 0
M  V30 6504 H 620.824 -2.1639 2.06919 0
M  V30 6505 H 618.37 -1.03976 0.996243 0
M  V30 6506 H 620.323 -4.16016 0.671485 0
M  V30 6507 H 619.047 -3.2607 -0.185969 0
M  V30 6508 H 617.706 -3.10987 1.9412 0
M  V30 6509 H 617.354 -5.01696 0.361989 0
M  V30 6510 H 617.054 -5.50751 2.04811 0
M  V30 6511 H 618.578 -5.97811 1.24315 0
M  V30 6512 H 619.992 -4.77641 3.17067 0
M  V30 6513 H 618.389 -4.53906 3.92542 0
M  V30 6514 H 619.459 -3.14515 3.69064 0
M  V30 6515 N 620.802 -1.09834 -1.13024 0
M  V30 6516 C 621.712 -0.753731 -2.22162 0
M  V30 6517 C 622.728 0.246105 -1.72251 0
M  V30 6518 O 623.904 0.0864051 -2.01215 0
M  V30 6519 C 620.969 -0.183958 -3.46212 0
M  V30 6520 C 620.03 -1.24028 -4.10993 0
M  V30 6521 C 619.263 -0.697597 -5.29121 0
M  V30 6522 O 619.486 0.478092 -5.68393 0
M  V30 6523 O 618.42 -1.4546 -5.84059 0
M  V30 6524 H 622.246 -1.66456 -2.5402 0
M  V30 6525 H 619.831 -0.873026 -1.21238 0
M  V30 6526 H 621.713 0.130257 -4.21199 0
M  V30 6527 H 620.388 0.699823 -3.16045 0
M  V30 6528 H 619.295 -1.60725 -3.37814 0
M  V30 6529 H 620.628 -2.09685 -4.45301 0
M  V30 6530 N 622.28 1.30327 -0.886154 0
M  V30 6531 C 623.527 1.96097 -0.505192 0
M  V30 6532 C 623.855 1.69952 0.945868 0
M  V30 6533 O 623.11 0.997653 1.68361 0
M  V30 6534 C 623.409 3.49906 -0.728042 0
M  V30 6535 C 623.075 3.96103 -2.15437 0
M  V30 6536 C 621.737 4.08428 -2.5444 0
M  V30 6537 C 624.089 4.20177 -3.08384 0
M  V30 6538 C 621.417 4.42189 -3.85598 0
M  V30 6539 C 623.769 4.55407 -4.39075 0
M  V30 6540 C 622.433 4.65941 -4.7797 0
M  V30 6541 H 621.703 0.71757 -0.184863 0
M  V30 6542 H 624.35 1.55171 -1.12223 0
M  V30 6543 H 622.655 3.9179 -0.027978 0
M  V30 6544 H 624.352 3.98869 -0.412862 0
M  V30 6545 H 620.942 3.87017 -1.84162 0
M  V30 6546 H 625.126 4.10134 -2.7947 0
M  V30 6547 H 620.382 4.48544 -4.15473 0
M  V30 6548 H 624.556 4.72986 -5.11133 0
M  V30 6549 H 622.183 4.91856 -5.79639 0
M  V30 6550 N 623.758 0.647228 1.43697 0
M  V30 6551 C 624.668 -0.0487997 2.34549 0
M  V30 6552 C 625.684 -0.818586 1.53542 0
M  V30 6553 O 626.86 -0.767195 1.86215 0
M  V30 6554 C 623.925 -1.00734 3.31743 0
M  V30 6555 C 622.986 -0.23515 4.28655 0
M  V30 6556 C 622.219 -1.14803 5.21206 0
M  V30 6557 O 622.442 -2.38717 5.18045 0
M  V30 6558 O 621.376 -0.623667 5.9866 0
M  V30 6559 H 625.202 0.698863 2.9555 0
M  V30 6560 H 622.787 0.407412 1.43738 0
M  V30 6561 H 624.669 -1.55837 3.91526 0
M  V30 6562 H 623.344 -1.73534 2.73254 0
M  V30 6563 H 622.251 0.359319 3.7237 0
M  V30 6564 H 623.584 0.453152 4.9011 0
M  V30 6565 N 625.236 -1.5273 0.388769 0
M  V30 6566 C 626.483 -2.01573 -0.19359 0
M  V30 6567 C 626.811 -1.27525 -1.46859 0
M  V30 6568 O 626.066 -0.363926 -1.92286 0
M  V30 6569 C 626.365 -3.53765 -0.508445 0
M  V30 6570 C 626.031 -4.4582 0.674947 0
M  V30 6571 C 624.693 -4.70703 0.999596 0
M  V30 6572 C 627.045 -5.00138 1.46666 0
M  V30 6573 C 624.373 -5.47155 2.11751 0
M  V30 6574 C 626.725 -5.77812 2.57518 0
M  V30 6575 C 625.389 -6.00975 2.90492 0
M  V30 6576 H 624.659 -0.737606 -0.0708397 0
M  V30 6577 H 627.306 -1.84134 0.526006 0
M  V30 6578 H 625.611 -3.69274 -1.30936 0
M  V30 6579 H 627.308 -3.8905 -0.971664 0
M  V30 6580 H 623.898 -4.26616 0.411906 0
M  V30 6581 H 628.082 -4.8084 1.22909 0
M  V30 6582 H 623.338 -5.63314 2.3767 0
M  V30 6583 H 627.512 -6.18904 3.19267 0
M  V30 6584 H 625.139 -6.59998 3.77236 0
M  V30 6585 N 626.714 -0.118576 -1.57153 0
M  V30 6586 C 627.624 0.845484 -2.18835 0
M  V30 6587 C 628.64 1.29299 -1.16438 0
M  V30 6588 O 629.816 1.35607 -1.48905 0
M  V30 6589 C 626.881 2.07795 -2.77529 0
M  V30 6590 C 625.942 1.6824 -3.9496 0
M  V30 6591 C 625.175 2.85612 -4.50845 0
M  V30 6592 O 625.398 4.01025 -4.05629 0
M  V30 6593 O 624.332 2.62721 -5.41536 0
M  V30 6594 H 628.158 0.350568 -3.0167 0
M  V30 6595 H 625.743 0.107013 -1.49016 0
M  V30 6596 H 627.625 2.79978 -3.14945 0
M  V30 6597 H 626.3 2.56294 -1.97725 0
M  V30 6598 H 625.207 0.931663 -3.62313 0
M  V30 6599 H 626.54 1.24484 -4.76198 0
M  V30 6600 N 628.193 1.56834 0.155195 0
M  V30 6601 C 629.44 1.82898 0.869179 0
M  V30 6602 C 629.768 0.698194 1.81537 0
M  V30 6603 O 629.023 -0.313404 1.93174 0
M  V30 6604 C 629.322 3.15239 1.68402 0
M  V30 6605 C 628.988 4.42123 0.885341 0
M  V30 6606 C 627.65 4.76583 0.664971 0
M  V30 6607 C 630.002 5.20178 0.326234 0
M  V30 6608 C 627.33 5.86566 -0.125346 0
M  V30 6609 C 629.682 6.3099 -0.45108 0
M  V30 6610 C 628.346 6.64006 -0.682102 0
M  V30 6611 H 627.616 0.66927 0.318055 0
M  V30 6612 H 630.263 1.91036 0.133241 0
M  V30 6613 H 628.568 3.02515 2.48982 0
M  V30 6614 H 630.265 3.32618 2.23978 0
M  V30 6615 H 626.855 4.15102 1.06716 0
M  V30 6616 H 631.039 4.93936 0.483787 0
M  V30 6617 H 626.295 6.10594 -0.313915 0
M  V30 6618 H 630.469 6.9067 -0.89149 0
M  V30 6619 H 628.096 7.49065 -1.29636 0
M  V30 6620 N 629.671 -0.424282 1.51781 0
M  V30 6621 C 630.92 -1.16961 1.64326 0
M  V30 6622 C 631.233 -1.92035 0.371749 0
M  V30 6623 O 632.439 -2.68873 0.37676 0
M  V30 6624 C 630.895 -2.12782 2.90262 0
M  V30 6625 C 630.503 -1.43295 4.24465 0
M  V30 6626 C 632.247 -2.87667 3.12166 0
M  V30 6627 C 630.154 -2.37676 5.41538 0
M  V30 6628 H 629.084 -0.440293 0.612093 0
M  V30 6629 H 631.735 -0.435431 1.78259 0
M  V30 6630 H 630.117 -2.8969 2.69992 0
M  V30 6631 H 631.291 -0.718564 4.55163 0
M  V30 6632 H 629.606 -0.805118 4.08542 0
M  V30 6633 H 632.203 -3.58395 3.96808 0
M  V30 6634 H 632.546 -3.49758 2.25776 0
M  V30 6635 H 633.079 -2.17863 3.32837 0
M  V30 6636 H 629.818 -1.80255 6.30229 0
M  V30 6637 H 629.338 -3.07132 5.15199 0
M  V30 6638 H 631.017 -2.98529 5.74012 0
M  V30 6639 N 631.149 -1.42148 -0.680565 0
M  V30 6640 C 632.426 -1.32795 -1.43614 0
M  V30 6641 C 632.806 0.037415 -2.11067 0
M  V30 6642 O 632.154 1.05258 -2.02813 0
M  V30 6643 C 632.364 -2.49206 -2.44331 0
M  V30 6644 C 633.712 -2.91059 -3.09144 0
M  V30 6645 O 634.736 -2.49054 -2.54657 0
M  V30 6646 O 633.595 -3.63741 -4.07866 0
M  V30 6647 H 630.689 -0.523397 -0.640301 0
M  V30 6648 H 633.235 -1.54144 -0.709775 0
M  V30 6649 H 632.007 -3.40252 -1.93247 0
M  V30 6650 H 631.63 -2.29813 -3.24456 0
M  V30 6651 O 632.666 0.823011 -1.38956 0
M  V30 6652 H 633.357 1.46633 -1.26564 0
M  V30 END ATOM
M  V30 BEGIN BOND
M  V30 END BOND
M  V30 END CTAB
M  END
$$$$
