drugbank_target|Q72LA6 Hypothetical membrane spanning protein (DB08689)
 OpenBabel12092120523D

  0  0  0     0  0            999 V3000
M  V30 BEGIN CTAB
M  V30 COUNTS 3995 4063 0 0 0
M  V30 BEGIN ATOM
M  V30 1 H -0.908 1.98254 -0.117106 0
M  V30 2 N 0 1.576 0 0
M  V30 3 C 0.933 2.03868 1.02534 0
M  V30 4 C 1.911 0.928543 1.3348 0
M  V30 5 O 3.095 1.19667 1.45644 0
M  V30 6 C 0.222 2.43627 2.35294 0
M  V30 7 C -0.732 3.65373 2.2001 0
M  V30 8 S 0.101 5.13292 1.52614 0
M  V30 9 C 1.257 5.56322 2.86805 0
M  V30 10 H 1.49 2.90518 0.631377 0
M  V30 11 H -0.977 1.52953 0.210867 0
M  V30 12 H 0.981 2.67203 3.11629 0
M  V30 13 H -0.358 1.57376 2.7183 0
M  V30 14 H -1.165 3.90944 3.18086 0
M  V30 15 H -1.563 3.418 1.51819 0
M  V30 16 H 0.729 5.58782 3.83104 0
M  V30 17 H 1.672 6.56266 2.65933 0
M  V30 18 H 2.08 4.83886 2.90714 0
M  V30 19 N 1.4781 -0.272755 1.55222 0
M  V30 20 C 2.4411 -1.32041 1.87344 0
M  V30 21 C 3.4411 -1.42342 0.74803 0
M  V30 22 O 4.6311 -1.41488 1.0162 0
M  V30 23 C 1.7631 -2.70173 2.07893 0
M  V30 24 H 2.9561 -1.04789 2.80997 0
M  V30 25 H 0.5091 -0.51083 1.47717 0
M  V30 26 H 1.2441 -3.02605 1.16622 0
M  V30 27 H 1.0291 -2.64082 2.89833 0
M  V30 28 H 2.5191 -3.45869 2.34017 0
M  V30 29 N 2.9562 -1.48159 -0.537278 0
M  V30 30 C 3.8662 -1.64807 -1.6696 0
M  V30 31 C 4.8822 -0.530651 -1.65711 0
M  V30 32 O 6.0582 -0.800784 -1.84796 0
M  V30 33 C 3.1232 -1.67708 -3.03438 0
M  V30 34 C 2.1842 -2.91025 -3.156 0
M  V30 35 C 1.4172 -2.93778 -4.45567 0
M  V30 36 O 1.6402 -2.05153 -5.3223 0
M  V30 37 O 0.5742 -3.85868 -4.61941 0
M  V30 38 H 4.4002 -2.6066 -1.55853 0
M  V30 39 H 1.9852 -1.31475 -0.709549 0
M  V30 40 H 3.8672 -1.7218 -3.84619 0
M  V30 41 H 2.5422 -0.750278 -3.14885 0
M  V30 42 H 1.4492 -2.92089 -2.33741 0
M  V30 43 H 2.7822 -3.83065 -3.09066 0
M  V30 44 N 4.4343 0.785586 -1.36625 0
M  V30 45 C 5.6813 1.54362 -1.31067 0
M  V30 46 C 6.0093 1.94195 0.10893 0
M  V30 47 O 5.2643 1.63262 1.07908 0
M  V30 48 C 5.5633 2.83007 -2.1827 0
M  V30 49 C 5.2293 2.62294 -3.6676 0
M  V30 50 C 3.8913 2.56353 -4.0723 0
M  V30 51 C 6.2433 2.43371 -4.6089 0
M  V30 52 C 3.5713 2.29461 -5.39967 0
M  V30 53 C 5.9233 2.18005 -5.93849 0
M  V30 54 C 4.5873 2.105 -6.3344 0
M  V30 55 H 3.8573 0.564851 -0.479609 0
M  V30 56 H 6.5043 0.906028 -1.68711 0
M  V30 57 H 4.8093 3.51253 -1.73576 0
M  V30 58 H 6.5063 3.40817 -2.11292 0
M  V30 59 H 3.0963 2.67774 -3.34656 0
M  V30 60 H 7.2803 2.46959 -4.30494 0
M  V30 61 H 2.5363 2.22135 -5.69619 0
M  V30 62 H 6.7103 2.02359 -6.66351 0
M  V30 63 H 4.3373 1.89425 -7.36222 0
M  V30 64 N 5.9124 1.20967 1.01018 0
M  V30 65 C 7.1424 1.04803 1.78044 0
M  V30 66 C 7.5504 -0.405462 1.84804 0
M  V30 67 O 6.8934 -1.2932 1.30468 0
M  V30 68 C 6.9554 1.56377 3.23707 0
M  V30 69 C 6.6194 3.04767 3.40538 0
M  V30 70 C 7.6164 4.02366 3.29239 0
M  V30 71 C 5.3014 3.43862 3.66147 0
M  V30 72 C 7.2954 5.37049 3.43304 0
M  V30 73 C 4.9824 4.78699 3.79855 0
M  V30 74 C 5.9804 5.75101 3.68439 0
M  V30 75 O 5.6684 7.07493 3.81719 0
M  V30 76 H 5.4004 0.368778 0.56655 0
M  V30 77 H 7.9544 1.60642 1.27997 0
M  V30 78 H 6.1844 0.949297 3.74867 0
M  V30 79 H 7.8734 1.36136 3.8239 0
M  V30 80 H 8.6394 3.73506 3.09384 0
M  V30 81 H 4.5184 2.69364 3.74118 0
M  V30 82 H 8.0624 6.12277 3.34309 0
M  V30 83 H 3.9594 5.07247 3.99213 0
M  V30 84 H 4.7274 7.1483 3.98697 0
M  V30 85 N 7.3905 -1.2043 1.01659 0
M  V30 86 C 8.6385 -1.89423 0.704522 0
M  V30 87 C 8.9595 -1.79231 -0.768197 0
M  V30 88 O 8.2295 -1.1947 -1.55254 0
M  V30 89 H 6.8095 -0.701178 0.257602 0
M  V30 90 H 9.4715 -1.4626 1.28818 0
M  V30 91 H 8.5675 -2.96052 0.987916 0
M  V30 92 N 8.8686 -0.792821 -1.36206 0
M  V30 93 C 9.7986 -0.207853 -2.32573 0
M  V30 94 C 10.7796 0.659055 -1.56813 0
M  V30 95 O 11.9646 0.592176 -1.84951 0
M  V30 96 C 9.0946 0.655449 -3.41059 0
M  V30 97 C 8.0486 -0.111842 -4.27854 0
M  V30 98 C 7.3746 0.872274 -5.27537 0
M  V30 99 C 8.6746 -1.30299 -5.05786 0
M  V30 100 H 10.3686 -1.01294 -2.81744 0
M  V30 101 H 7.9146 -0.48854 -1.3546 0
M  V30 102 H 9.8676 1.07464 -4.07467 0
M  V30 103 H 8.5916 1.49328 -2.90463 0
M  V30 104 H 7.2506 -0.512053 -3.63006 0
M  V30 105 H 6.8986 1.70523 -4.73214 0
M  V30 106 H 6.5986 0.363291 -5.86476 0
M  V30 107 H 8.1226 1.28996 -5.96818 0
M  V30 108 H 9.5366 -0.959379 -5.65216 0
M  V30 109 H 7.9336 -1.7455 -5.74154 0
M  V30 110 H 9.0036 -2.09663 -4.37229 0
M  V30 111 N 10.3467 1.47872 -0.545128 0
M  V30 112 C 11.7577 1.86384 -0.108581 0
M  V30 113 C 12.1087 1.45309 1.31832 0
M  V30 114 O 11.2337 0.850641 1.9898 0
M  V30 115 C 11.8287 3.38265 -0.190274 0
M  V30 116 C 10.3877 3.75914 0.191164 0
M  V30 117 C 9.5347 2.71926 -0.543273 0
M  V30 118 H 12.4857 1.39561 -0.755537 0
M  V30 119 H 12.5067 3.75831 0.594217 0
M  V30 120 H 12.0187 3.6813 -1.2289 0
M  V30 121 H 10.1197 3.51665 1.23136 0
M  V30 122 H 10.2327 4.78836 -0.158987 0
M  V30 123 H 8.5967 2.54697 0.0122495 0
M  V30 124 H 9.3797 3.04634 -1.58282 0
M  V30 125 N 11.8248 0.280983 1.55075 0
M  V30 126 C 12.7728 -0.619864 2.24188 0
M  V30 127 C 13.7668 -1.15315 1.24092 0
M  V30 128 O 14.9728 -1.1061 1.42005 0
M  V30 129 H 11.3478 -0.218459 0.719569 0
M  V30 130 H 13.3188 -0.0141831 2.98397 0
M  V30 131 C 12.0678 -1.7899 2.98091 0
M  V30 132 H 11.3908 -1.38874 3.74905 0
M  V30 133 H 12.8308 -2.39672 3.49762 0
M  V30 134 C 11.2898 -2.68192 2.03899 0
M  V30 135 O 11.8198 -3.6872 1.594 0
M  V30 136 N 10.0258 -2.35488 1.70275 0
M  V30 137 H 9.5728 -1.53787 2.06658 0
M  V30 138 H 9.5308 -2.95442 1.07524 0
M  V30 139 N 13.3029 -1.57598 0.00835791 0
M  V30 140 C 14.2659 -2.07884 -0.965242 0
M  V30 141 C 15.2659 -0.989825 -1.26725 0
M  V30 142 O 16.4559 -1.25218 -1.21104 0
M  V30 143 C 13.5879 -2.52731 -2.28779 0
M  V30 144 H 14.7809 -2.95178 -0.530112 0
M  V30 145 H 12.3339 -1.54458 -0.239283 0
M  V30 146 H 13.0689 -1.68705 -2.76964 0
M  V30 147 H 12.8539 -3.32272 -2.08177 0
M  V30 148 H 14.3439 -2.91933 -2.98605 0
M  V30 149 N 14.781 0.264519 -1.55364 0
M  V30 150 C 15.713 1.34965 -1.85248 0
M  V30 151 C 16.726 1.45136 -0.737525 0
M  V30 152 O 17.915 1.46801 -1.01547 0
M  V30 153 C 15.015 2.73008 -2.00797 0
M  V30 154 C 14.188 2.85324 -3.31525 0
M  V30 155 C 13.247 4.04097 -3.37034 0
M  V30 156 O 12.273 3.94455 -4.10358 0
M  V30 157 N 13.475 5.16458 -2.65049 0
M  V30 158 H 16.24 1.09672 -2.78913 0
M  V30 159 H 13.801 0.454635 -1.55386 0
M  V30 160 H 15.793 3.50772 -2.01844 0
M  V30 161 H 14.363 2.91087 -1.1396 0
M  V30 162 H 13.583 1.94377 -3.42945 0
M  V30 163 H 14.871 2.9049 -4.17724 0
M  V30 164 H 14.269 5.27181 -2.05175 0
M  V30 165 H 12.826 5.92422 -2.71809 0
M  V30 166 N 16.2591 1.48442 0.529413 0
M  V30 167 C 17.1691 1.6569 1.66084 0
M  V30 168 C 18.1851 0.539432 1.65427 0
M  V30 169 O 19.3611 0.810572 1.84368 0
M  V30 170 C 16.4261 1.69315 3.02545 0
M  V30 171 C 15.4871 2.92694 3.14052 0
M  V30 172 C 14.7201 2.96137 4.44003 0
M  V30 173 O 14.9431 2.07973 5.31134 0
M  V30 174 O 13.8771 3.88312 4.59888 0
M  V30 175 H 17.7031 2.61483 1.54469 0
M  V30 176 H 15.2881 1.3185 0.702567 0
M  V30 177 H 17.1701 1.74217 3.83701 0
M  V30 178 H 15.8451 0.766966 3.14483 0
M  V30 179 H 14.7521 2.93324 2.32189 0
M  V30 180 H 16.0851 3.84699 3.0703 0
M  V30 181 N 17.7372 -0.778329 1.37039 0
M  V30 182 C 18.9842 -1.53665 1.31884 0
M  V30 183 C 19.3122 -1.9425 -0.0986303 0
M  V30 184 O 18.5672 -1.63832 -1.07041 0
M  V30 185 C 18.8662 -2.81845 2.19768 0
M  V30 186 C 18.5322 -2.60345 3.68146 0
M  V30 187 C 17.1942 -2.5419 4.08584 0
M  V30 188 C 19.5462 -2.40923 4.62175 0
M  V30 189 C 16.8742 -2.26594 5.41177 0
M  V30 190 C 19.2262 -2.14852 5.94997 0
M  V30 191 C 17.8902 -2.07137 6.34547 0
M  V30 192 H 17.1602 -0.562299 0.482598 0
M  V30 193 H 19.8072 -0.897069 1.69189 0
M  V30 194 H 18.1122 -3.50328 1.75436 0
M  V30 195 H 19.8092 -3.39692 2.13097 0
M  V30 196 H 16.3992 -2.65996 3.36072 0
M  V30 197 H 20.5832 -2.44673 4.31797 0
M  V30 198 H 15.8392 -2.19111 5.70789 0
M  V30 199 H 20.0132 -1.98822 6.67415 0
M  V30 200 H 17.6402 -1.85518 7.37216 0
M  V30 201 N 19.2153 -1.21501 -1.00376 0
M  V30 202 C 20.4613 -1.04457 -1.74529 0
M  V30 203 C 20.8163 0.417386 -1.87818 0
M  V30 204 O 20.1093 1.30556 -1.40234 0
M  V30 205 C 20.3033 -1.67673 -3.15627 0
M  V30 206 C 20.1323 -3.19865 -3.16096 0
M  V30 207 C 18.9023 -3.88915 -3.22604 0
M  V30 208 C 21.1003 -4.16936 -3.01112 0
M  V30 209 N 19.0823 -5.28284 -3.12712 0
M  V30 210 C 20.4533 -5.43066 -2.99131 0
M  V30 211 C 22.5083 -4.07968 -2.85423 0
M  V30 212 C 21.2113 -6.6126 -2.83068 0
M  V30 213 C 23.2373 -5.258 -2.70718 0
M  V30 214 C 22.5993 -6.50842 -2.69414 0
M  V30 215 H 18.6983 -0.436584 -0.648782 0
M  V30 216 H 21.2823 -1.53875 -1.19293 0
M  V30 217 H 19.4533 -1.20822 -3.6913 0
M  V30 218 H 21.1853 -1.43824 -3.78281 0
M  V30 219 H 17.9403 -3.39847 -3.2985 0
M  V30 220 H 18.3643 -6.01284 -3.11105 0
M  V30 221 H 23.0063 -3.1209 -2.85236 0
M  V30 222 H 20.7243 -7.57298 -2.82002 0
M  V30 223 H 24.3103 -5.20683 -2.59577 0
M  V30 224 H 23.1903 -7.40485 -2.5817 0
M  V30 225 N 20.6934 1.19889 -1.02296 0
M  V30 226 C 21.6434 2.20777 -0.56934 0
M  V30 227 C 22.6274 1.56379 0.378741 0
M  V30 228 O 23.8194 1.75859 0.200673 0
M  V30 229 C 20.9484 3.43196 0.0845077 0
M  V30 230 C 20.0344 4.14749 -0.88566 0
M  V30 231 N 20.4254 4.62584 -2.04573 0
M  V30 232 C 18.7234 4.40347 -0.707835 0
M  V30 233 C 19.4244 5.17466 -2.65714 0
M  V30 234 N 18.4004 5.0791 -1.93723 0
M  V30 235 H 22.2024 2.55434 -1.45365 0
M  V30 236 H 19.7164 1.35897 -0.88915 0
M  V30 237 H 21.7134 4.14707 0.427067 0
M  V30 238 H 20.3734 3.10042 0.964574 0
M  V30 239 H 21.3844 4.57597 -2.4254 0
M  V30 240 H 18.0614 4.17317 0.12364 0
M  V30 241 H 19.4514 5.64808 -3.63925 0
M  V30 242 N 22.1715 0.800033 1.35784 0
M  V30 243 C 23.4175 0.38701 1.99684 0
M  V30 244 C 23.7725 -1.03268 1.62338 0
M  V30 245 O 23.0655 -1.70543 0.87325 0
M  V30 246 C 23.2595 0.500276 3.53881 0
M  V30 247 C 23.0885 1.92942 4.06206 0
M  V30 248 C 21.8585 2.55637 4.35865 0
M  V30 249 C 24.0565 2.89307 4.25213 0
M  V30 250 N 22.0385 3.9003 4.74078 0
M  V30 251 C 23.4095 4.08556 4.66349 0
M  V30 252 C 25.4645 2.86225 4.07406 0
M  V30 253 C 24.1675 5.25146 4.91543 0
M  V30 254 C 26.1935 4.02011 4.33752 0
M  V30 255 C 25.5555 5.20007 4.75155 0
M  V30 256 H 21.6545 0.189252 0.758754 0
M  V30 257 H 24.2385 1.03988 1.64604 0
M  V30 258 H 22.4095 -0.122568 3.88207 0
M  V30 259 H 24.1415 0.0624733 4.04652 0
M  V30 260 H 20.8965 2.07039 4.25948 0
M  V30 261 H 21.3205 4.59205 4.97454 0
M  V30 262 H 25.9625 1.96154 3.74544 0
M  V30 263 H 23.6805 6.15794 5.23281 0
M  V30 264 H 27.2665 4.00999 4.21534 0
M  V30 265 H 26.1465 6.08113 4.95145 0
M  V30 266 N 23.6496 -1.47581 0.552962 0
M  V30 267 C 24.8776 -2.06875 0.0320556 0
M  V30 268 C 25.2926 -1.40625 -1.25976 0
M  V30 269 O 24.6496 -0.501349 -1.75479 0
M  V30 270 C 24.7006 -3.61092 -0.17167 0
M  V30 271 O 24.4216 -4.24858 1.06899 0
M  V30 272 C 25.9226 -4.37242 -0.730344 0
M  V30 273 H 23.1426 -0.669561 0.043915 0
M  V30 274 H 25.6866 -1.89646 0.765163 0
M  V30 275 H 23.8416 -3.7785 -0.854894 0
M  V30 276 H 24.2556 -5.17334 0.864059 0
M  V30 277 H 25.7296 -5.45842 -0.822203 0
M  V30 278 H 26.2066 -4.03235 -1.74064 0
M  V30 279 H 26.8126 -4.25219 -0.0829543 0
M  V30 280 N 25.1277 -0.289203 -1.54924 0
M  V30 281 C 26.0757 0.607966 -2.24514 0
M  V30 282 C 27.0697 1.14655 -1.24702 0
M  V30 283 O 28.2757 1.09856 -1.4259 0
M  V30 284 H 24.6507 0.21464 -0.720718 0
M  V30 285 H 26.6217 -0.00164182 -2.984 0
M  V30 286 C 25.3707 1.77406 -2.99036 0
M  V30 287 H 24.6937 1.36884 -3.75637 0
M  V30 288 H 26.1337 2.37814 -3.51028 0
M  V30 289 C 24.5927 2.67107 -2.05318 0
M  V30 290 O 25.1227 3.6787 -1.61353 0
M  V30 291 N 23.3287 2.34582 -1.71521 0
M  V30 292 H 22.8757 1.52688 -2.07471 0
M  V30 293 H 22.8337 2.94867 -1.0909 0
M  V30 294 N 26.6058 1.57591 -0.0167156 0
M  V30 295 C 27.5688 2.08393 0.954204 0
M  V30 296 C 28.5688 0.996531 1.26198 0
M  V30 297 O 29.7588 1.25858 1.20438 0
M  V30 298 C 26.8908 2.5394 2.27436 0
M  V30 299 H 28.0838 2.95455 0.514451 0
M  V30 300 H 25.6368 1.54582 0.231089 0
M  V30 301 H 26.3718 1.70171 2.76066 0
M  V30 302 H 26.1568 3.33371 2.06412 0
M  V30 303 H 27.6468 2.93512 2.97053 0
M  V30 304 N 28.0839 -0.256276 1.55502 0
M  V30 305 C 29.0139 -1.32102 1.92539 0
M  V30 306 C 29.9949 -1.50684 0.789194 0
M  V30 307 O 31.1799 -1.63449 1.04872 0
M  V30 308 C 28.3099 -2.67752 2.21192 0
M  V30 309 C 27.2639 -2.63878 3.36975 0
M  V30 310 C 26.5899 -4.03236 3.51147 0
M  V30 311 C 27.8899 -2.21682 4.72921 0
M  V30 312 H 29.5839 -1.01351 2.81724 0
M  V30 313 H 27.1299 -0.486105 1.35547 0
M  V30 314 H 29.0829 -3.42365 2.45691 0
M  V30 315 H 27.8069 -3.0012 1.28824 0
M  V30 316 H 26.4659 -1.91722 3.12471 0
M  V30 317 H 26.1139 -4.32854 2.56216 0
M  V30 318 H 25.8139 -4.01535 4.29003 0
M  V30 319 H 27.3379 -4.79563 3.77957 0
M  V30 320 H 28.7519 -2.86023 4.96854 0
M  V30 321 H 27.1489 -2.3111 5.53812 0
M  V30 322 H 28.2189 -1.16833 4.70615 0
M  V30 323 N 29.562 -1.4872 -0.521534 0
M  V30 324 C 30.512 -1.60269 -1.62166 0
M  V30 325 C 31.496 -0.45935 -1.54204 0
M  V30 326 O 32.688 -0.711241 -1.62081 0
M  V30 327 C 29.817 -1.65344 -3.00859 0
M  V30 328 C 28.903 -2.85187 -3.13894 0
M  V30 329 N 29.294 -4.09509 -2.96877 0
M  V30 330 C 27.592 -2.82695 -3.44963 0
M  V30 331 C 28.293 -4.89959 -3.13552 0
M  V30 332 N 27.269 -4.22934 -3.41508 0
M  V30 333 H 31.071 -2.5413 -1.47632 0
M  V30 334 H 28.585 -1.45209 -0.727194 0
M  V30 335 H 30.582 -1.71713 -3.79895 0
M  V30 336 H 29.242 -0.726058 -3.16478 0
M  V30 337 H 30.253 -4.39814 -2.73467 0
M  V30 338 H 26.93 -1.99249 -3.66887 0
M  V30 339 H 28.32 -5.98654 -3.05061 0
M  V30 340 N 31.0401 0.771051 -1.3745 0
M  V30 341 C 32.2871 1.52963 -1.32697 0
M  V30 342 C 32.6151 1.94299 0.0883274 0
M  V30 343 O 31.8701 1.64397 1.0617 0
M  V30 344 C 32.1691 2.80676 -2.2126 0
M  V30 345 C 31.8351 2.58389 -3.69521 0
M  V30 346 C 30.4971 2.52019 -4.09927 0
M  V30 347 C 32.8491 2.38469 -4.63446 0
M  V30 348 C 30.1771 2.23721 -5.42371 0
M  V30 349 C 32.5291 2.11694 -5.96128 0
M  V30 350 C 31.1931 2.03769 -6.35637 0
M  V30 351 H 30.4631 0.559732 -0.485573 0
M  V30 352 H 33.1101 0.888083 -1.69662 0
M  V30 353 H 31.4151 3.49392 -1.77291 0
M  V30 354 H 33.1121 3.38557 -2.14895 0
M  V30 355 H 29.7021 2.6421 -3.37478 0
M  V30 356 H 33.8861 2.4238 -4.33089 0
M  V30 357 H 29.1421 2.16081 -5.71943 0
M  V30 358 H 33.3161 1.9528 -6.6846 0
M  V30 359 H 30.9431 1.81606 -7.38189 0
M  V30 360 N 32.5182 1.22032 0.997298 0
M  V30 361 C 33.7642 1.04376 1.73878 0
M  V30 362 C 34.0972 -0.420716 1.89588 0
M  V30 363 O 33.3722 -1.31202 1.43583 0
M  V30 364 C 33.6552 1.75047 3.14691 0
M  V30 365 C 33.5082 3.29062 3.06656 0
M  V30 366 C 34.8272 1.49928 4.13775 0
M  V30 367 H 31.9462 0.380578 0.631133 0
M  V30 368 H 34.5882 1.50312 1.16217 0
M  V30 369 H 32.7382 1.35996 3.63919 0
M  V30 370 H 34.4102 3.7753 2.65083 0
M  V30 371 H 32.6532 3.58967 2.43568 0
M  V30 372 H 33.3242 3.73683 4.06282 0
M  V30 373 H 35.8002 1.83842 3.73285 0
M  V30 374 H 34.6762 2.01878 5.10428 0
M  V30 375 H 34.9372 0.430929 4.39995 0
M  V30 376 N 33.9963 -1.19345 1.0293 0
M  V30 377 C 34.9263 -2.2481 0.631105 0
M  V30 378 C 35.9073 -1.66245 -0.360104 0
M  V30 379 O 37.0923 -1.92677 -0.242726 0
M  V30 380 C 34.2223 -3.47295 -0.0184607 0
M  V30 381 C 33.1763 -4.18536 0.895073 0
M  V30 382 C 32.5023 -5.34586 0.110592 0
M  V30 383 C 33.8023 -4.73287 2.209 0
M  V30 384 H 35.4963 -2.58372 1.51275 0
M  V30 385 H 33.0423 -1.24194 0.728818 0
M  V30 386 H 34.9953 -4.20268 -0.308675 0
M  V30 387 H 33.7193 -3.12933 -0.934907 0
M  V30 388 H 32.3783 -3.47446 1.16949 0
M  V30 389 H 32.0263 -4.96469 -0.807902 0
M  V30 390 H 31.7263 -5.83183 0.719087 0
M  V30 391 H 33.2503 -6.10355 -0.172871 0
M  V30 392 H 34.6643 -5.38013 1.98028 0
M  V30 393 H 33.0613 -5.32373 2.76946 0
M  V30 394 H 34.1313 -3.91331 2.86336 0
M  V30 395 N 35.4744 -0.807222 -1.35358 0
M  V30 396 C 36.7204 -0.388463 -1.99045 0
M  V30 397 C 37.0534 1.04184 -1.63888 0
M  V30 398 O 36.3284 1.72292 -0.902535 0
M  V30 399 C 36.6114 -0.572783 -3.55515 0
M  V30 400 C 36.4644 -2.04807 -4.00468 0
M  V30 401 C 37.7834 0.00114064 -4.401 0
M  V30 402 H 34.9024 -0.142619 -0.723069 0
M  V30 403 H 37.5444 -1.01687 -1.60498 0
M  V30 404 H 35.6944 -0.0378425 -3.88482 0
M  V30 405 H 37.3664 -2.64544 -3.77908 0
M  V30 406 H 35.6094 -2.54427 -3.51353 0
M  V30 407 H 36.2804 -2.12792 -5.09337 0
M  V30 408 H 38.7564 -0.455716 -4.13597 0
M  V30 409 H 37.6324 -0.157737 -5.48673 0
M  V30 410 H 37.8934 1.09488 -4.28328 0
M  V30 411 N 36.9525 1.47285 -0.560781 0
M  V30 412 C 38.2005 2.02064 -0.0379868 0
M  V30 413 C 38.5215 1.43711 1.31803 0
M  V30 414 O 37.7915 0.61362 1.86042 0
M  V30 415 H 36.3715 0.746918 -0.0110531 0
M  V30 416 H 39.0335 1.80648 -0.731598 0
M  V30 417 H 38.1295 3.12064 0.0474463 0
M  V30 418 N 38.4306 0.297415 1.54768 0
M  V30 419 C 39.3606 -0.573494 2.26348 0
M  V30 420 C 40.3416 -1.14085 1.26169 0
M  V30 421 O 41.5266 -1.17086 1.54934 0
M  V30 422 C 38.6566 -1.74716 3.00153 0
M  V30 423 C 37.6106 -1.31032 4.07449 0
M  V30 424 C 36.9366 -2.56887 4.68949 0
M  V30 425 C 38.2366 -0.444183 5.20408 0
M  V30 426 H 39.9306 0.0235131 2.99391 0
M  V30 427 H 37.4766 0.0127488 1.43994 0
M  V30 428 H 39.4296 -2.3625 3.48947 0
M  V30 429 H 38.1536 -2.37035 2.24682 0
M  V30 430 H 36.8126 -0.718066 3.59499 0
M  V30 431 H 36.4606 -3.17512 3.90122 0
M  V30 432 H 36.1606 -2.2836 5.41411 0
M  V30 433 H 37.6846 -3.19229 5.20505 0
M  V30 434 H 39.0986 -0.9651 5.65118 0
M  V30 435 H 37.4956 -0.252846 5.99567 0
M  V30 436 H 38.5656 0.531609 4.81977 0
M  V30 437 N 39.9087 -1.5758 0.0250728 0
M  V30 438 C 40.8717 -2.08896 -0.943139 0
M  V30 439 C 41.8717 -1.00321 -1.25668 0
M  V30 440 O 43.0617 -1.26495 -1.19769 0
M  V30 441 C 40.1937 -2.55143 -2.26086 0
M  V30 442 H 41.3867 -2.95723 -0.498775 0
M  V30 443 H 38.9397 -1.54703 -0.222888 0
M  V30 444 H 39.6747 -1.71633 -2.75159 0
M  V30 445 H 39.4597 -3.34461 -2.04641 0
M  V30 446 H 40.9497 -2.95083 -2.95492 0
M  V30 447 N 41.3868 0.248026 -1.55636 0
M  V30 448 C 42.6348 0.974295 -1.77065 0
M  V30 449 C 42.9558 1.85897 -0.588849 0
M  V30 450 O 42.2258 1.91868 0.395407 0
M  V30 451 H 40.8058 0.362733 -0.653019 0
M  V30 452 H 43.4678 0.266244 -1.93073 0
M  V30 453 H 42.5638 1.59667 -2.68166 0
M  V30 454 N 42.8649 1.48995 0.513639 0
M  V30 455 C 44.1129 1.57531 1.26604 0
M  V30 456 C 44.4339 0.258236 1.93283 0
M  V30 457 O 43.7039 -0.721502 1.8213 0
M  V30 458 H 42.2839 0.580387 0.470276 0
M  V30 459 H 44.9459 1.85552 0.596373 0
M  V30 460 H 44.0419 2.36486 2.03669 0
M  V30 461 N 44.343 -0.763751 1.37857 0
M  V30 462 C 45.589 -1.52483 1.33704 0
M  V30 463 C 45.922 -1.94051 -0.0759612 0
M  V30 464 O 45.197 -1.64675 -1.03501 0
M  V30 465 C 45.48 -2.78441 2.28348 0
M  V30 466 C 45.333 -2.43075 3.78463 0
M  V30 467 C 46.652 -3.80415 2.21298 0
M  V30 468 H 43.771 -0.553169 0.487005 0
M  V30 469 H 46.413 -0.875562 1.68624 0
M  V30 470 H 44.563 -3.33842 1.987 0
M  V30 471 H 46.235 -1.93527 4.18742 0
M  V30 472 H 44.478 -1.75666 3.96641 0
M  V30 473 H 45.149 -3.33149 4.40132 0
M  V30 474 H 47.625 -3.34527 2.47449 0
M  V30 475 H 46.501 -4.66257 2.89647 0
M  V30 476 H 46.762 -4.25262 1.20849 0
M  V30 477 N 45.8211 -1.22559 -0.990812 0
M  V30 478 C 46.7841 -0.998863 -2.0629 0
M  V30 479 C 47.7841 0.0354834 -1.60761 0
M  V30 480 O 48.9741 -0.203231 -1.7301 0
M  V30 481 C 46.1061 -0.509203 -3.37076 0
M  V30 482 H 47.2991 -1.95014 -2.27837 0
M  V30 483 H 44.8521 -1.04456 -1.16269 0
M  V30 484 H 45.5871 0.446335 -3.21214 0
M  V30 485 H 45.3721 -1.25547 -3.71457 0
M  V30 486 H 46.8621 -0.370888 -4.1595 0
M  V30 487 N 47.2992 1.18797 -1.03562 0
M  V30 488 C 48.2292 2.24472 -0.643019 0
M  V30 489 C 49.2102 1.66433 0.351283 0
M  V30 490 O 50.3952 1.92803 0.232505 0
M  V30 491 C 47.5252 3.473 4.24935e-05 0
M  V30 492 C 46.4792 4.18055 -0.917257 0
M  V30 493 C 45.8052 5.34519 -0.138941 0
M  V30 494 C 47.1052 4.72109 -2.23407 0
M  V30 495 H 48.7992 2.57566 -1.52643 0
M  V30 496 H 46.3452 1.23806 -0.735394 0
M  V30 497 H 48.2982 4.20426 0.286383 0
M  V30 498 H 47.0222 3.13424 0.918299 0
M  V30 499 H 45.6812 3.46821 -1.1879 0
M  V30 500 H 45.3292 4.96891 0.781562 0
M  V30 501 H 45.0292 5.82794 -0.750005 0
M  V30 502 H 46.5532 6.10438 0.1405 0
M  V30 503 H 47.9672 5.36955 -2.00879 0
M  V30 504 H 46.3642 5.30897 -2.79765 0
M  V30 505 H 47.4342 3.89807 -2.88407 0
M  V30 506 N 48.7773 0.814389 1.34928 0
M  V30 507 C 49.7073 0.244827 2.32213 0
M  V30 508 C 50.6883 -0.634024 1.57842 0
M  V30 509 O 51.8733 -0.562676 1.8587 0
M  V30 510 C 49.0033 -0.601106 3.42058 0
M  V30 511 C 47.9573 0.179896 4.27622 0
M  V30 512 C 47.2833 -0.788237 5.28858 0
M  V30 513 C 48.5833 1.38329 5.03649 0
M  V30 514 H 50.2773 1.05763 2.80097 0
M  V30 515 H 47.8233 0.510029 1.34665 0
M  V30 516 H 49.7763 -1.00968 4.09125 0
M  V30 517 H 48.5003 -1.44688 2.92802 0
M  V30 518 H 47.1593 0.569739 3.62146 0
M  V30 519 H 46.8073 -1.62973 4.75866 0
M  V30 520 H 46.5073 -0.269942 5.8698 0
M  V30 521 H 48.0313 -1.19485 5.98795 0
M  V30 522 H 49.4453 1.04918 5.63618 0
M  V30 523 H 47.8423 1.83662 5.71304 0
M  V30 524 H 48.9123 2.16592 4.33839 0
M  V30 525 N 50.2554 -1.46986 0.568584 0
M  V30 526 C 51.2184 -2.28624 -0.162366 0
M  V30 527 C 52.2184 -1.37596 -0.832103 0
M  V30 528 O 53.4084 -1.60115 -0.68622 0
M  V30 529 C 50.5404 -3.17596 -1.23878 0
M  V30 530 H 51.7334 -2.94722 0.554899 0
M  V30 531 H 49.2864 -1.52863 0.325976 0
M  V30 532 H 50.0214 -2.56214 -1.98808 0
M  V30 533 H 49.8064 -3.846 -0.763219 0
M  V30 534 H 51.2964 -3.79078 -1.75185 0
M  V30 535 N 51.7335 -0.305618 -1.54608 0
M  V30 536 C 52.6965 0.555591 -2.22364 0
M  V30 537 C 53.6965 1.05768 -1.21119 0
M  V30 538 O 54.8865 0.952972 -1.45822 0
M  V30 539 C 52.0185 1.76974 -2.91364 0
M  V30 540 H 53.2115 -0.0364572 -2.99878 0
M  V30 541 H 50.7645 -0.0565007 -1.56198 0
M  V30 542 H 51.4995 2.40151 -2.17941 0
M  V30 543 H 51.2845 1.41732 -3.65588 0
M  V30 544 H 52.7745 2.38148 -3.43038 0
M  V30 545 N 53.2116 1.57565 -0.0334293 0
M  V30 546 C 54.1416 2.13511 0.945265 0
M  V30 547 C 55.1226 1.05231 1.33643 0
M  V30 548 O 56.3076 1.33084 1.41429 0
M  V30 549 C 53.4376 2.6657 2.22616 0
M  V30 550 C 52.3916 3.79676 1.97561 0
M  V30 551 C 51.7176 4.1918 3.31952 0
M  V30 552 C 53.0176 5.0557 1.31135 0
M  V30 553 H 54.7116 2.95538 0.479325 0
M  V30 554 H 52.2576 1.42166 0.229115 0
M  V30 555 H 54.2106 3.04344 2.91466 0
M  V30 556 H 52.9346 1.8171 2.71384 0
M  V30 557 H 51.5936 3.42347 1.31127 0
M  V30 558 H 51.2416 3.31296 3.78487 0
M  V30 559 H 50.9416 4.95402 3.15992 0
M  V30 560 H 52.4656 4.59541 4.02063 0
M  V30 561 H 53.8796 5.40903 1.89992 0
M  V30 562 H 52.2766 5.86818 1.25559 0
M  V30 563 H 53.3466 4.84062 0.284894 0
M  V30 564 N 54.6897 -0.239769 1.55765 0
M  V30 565 C 55.6197 -1.30052 1.9393 0
M  V30 566 C 56.6007 -1.49839 0.805132 0
M  V30 567 O 57.7857 -1.62328 1.06599 0
M  V30 568 C 54.9157 -2.65391 2.2402 0
M  V30 569 C 53.8697 -2.60289 3.39755 0
M  V30 570 C 53.1957 -3.99489 3.55405 0
M  V30 571 C 54.4957 -2.16654 4.75246 0
M  V30 572 H 56.1897 -0.983573 2.82783 0
M  V30 573 H 53.7357 -0.471701 1.36055 0
M  V30 574 H 55.6887 -3.3974 2.49308 0
M  V30 575 H 54.4127 -2.98736 1.32 0
M  V30 576 H 53.0717 -1.88398 3.14487 0
M  V30 577 H 52.7197 -4.30112 2.60793 0
M  V30 578 H 52.4197 -3.96962 4.33238 0
M  V30 579 H 53.9437 -4.75528 3.83022 0
M  V30 580 H 55.3577 -2.80737 4.99859 0
M  V30 581 H 53.7547 -2.25223 5.56232 0
M  V30 582 H 54.8247 -1.11835 4.71827 0
M  V30 583 N 56.1678 -1.49265 -0.50573 0
M  V30 584 C 57.1178 -1.6198 -1.60457 0
M  V30 585 C 58.1018 -0.47568 -1.53708 0
M  V30 586 O 59.2938 -0.728392 -1.61318 0
M  V30 587 C 56.4228 -1.68526 -2.99089 0
M  V30 588 C 55.5088 -2.885 -3.10852 0
M  V30 589 N 55.8998 -4.12635 -2.92517 0
M  V30 590 C 54.1978 -2.86338 -3.41945 0
M  V30 591 C 54.8988 -4.93258 -3.08337 0
M  V30 592 N 53.8748 -4.26533 -3.37003 0
M  V30 593 H 57.6768 -2.55681 -1.44928 0
M  V30 594 H 55.1908 -1.45972 -0.711752 0
M  V30 595 H 57.1878 -1.75732 -3.78053 0
M  V30 596 H 55.8478 -0.759584 -3.1569 0
M  V30 597 H 56.8588 -4.42689 -2.68787 0
M  V30 598 H 53.5358 -2.03129 -3.64753 0
M  V30 599 H 54.9258 -6.01856 -2.98695 0
M  V30 600 N 57.6459 0.756429 -1.3826 0
M  V30 601 C 58.5759 1.88374 -1.37976 0
M  V30 602 C 59.5569 1.68311 -0.246082 0
M  V30 603 O 60.7419 1.88944 -0.44874 0
M  V30 604 C 57.8719 3.25864 -1.20125 0
M  V30 605 C 56.8259 3.60523 -2.30666 0
M  V30 606 C 56.1519 4.9672 -1.97923 0
M  V30 607 C 57.4519 3.65692 -3.72916 0
M  V30 608 H 59.1459 1.88869 -2.32312 0
M  V30 609 H 56.6919 0.907272 -1.11824 0
M  V30 610 H 58.6449 4.0438 -1.18552 0
M  V30 611 H 57.3689 3.25841 -0.222498 0
M  V30 612 H 56.0279 2.84324 -2.3142 0
M  V30 613 H 55.6759 4.93253 -0.985393 0
M  V30 614 H 55.3759 5.20878 -2.71955 0
M  V30 615 H 56.8999 5.77618 -1.97964 0
M  V30 616 H 58.3139 4.34328 -3.74208 0
M  V30 617 H 56.7109 4.01358 -4.4613 0
M  V30 618 H 57.7809 2.65987 -4.05436 0
M  V30 619 N 59.124 1.23083 0.984299 0
M  V30 620 C 60.071 1.00854 2.07598 0
M  V30 621 C 61.041 -0.0726709 1.65941 0
M  V30 622 O 62.226 0.0786535 1.90638 0
M  V30 623 C 59.366 0.601645 3.39815 0
M  V30 624 C 58.479 1.75456 3.94765 0
M  V30 625 C 57.614 1.29482 5.15177 0
M  V30 626 C 56.653 2.41873 5.62284 0
M  V30 627 N 55.79 1.96885 6.73929 0
M  V30 628 H 60.63 1.943 2.25946 0
M  V30 629 H 58.167 0.968001 1.10762 0
M  V30 630 H 60.125 0.346854 4.15756 0
M  V30 631 H 58.755 -0.295803 3.21442 0
M  V30 632 H 57.807 2.12346 3.15616 0
M  V30 633 H 59.119 2.59965 4.25699 0
M  V30 634 H 58.273 0.997923 5.98437 0
M  V30 635 H 57.012 0.420046 4.85888 0
M  V30 636 H 56.017 2.72342 4.77608 0
M  V30 637 H 57.242 3.29881 5.93595 0
M  V30 638 H 55.188 1.11782 6.46406 0
M  V30 639 H 55.105 2.74956 7.04227 0
M  V30 640 H 56.373 1.70289 7.60672 0
M  V30 641 N 60.6021 -1.18246 1.0419 0
M  V30 642 C 61.8501 -1.87886 0.744543 0
M  V30 643 C 62.1711 -1.8082 -0.730006 0
M  V30 644 O 61.4411 -1.22736 -1.52685 0
M  V30 645 H 60.0211 -0.695556 0.272417 0
M  V30 646 H 62.6831 -1.43494 1.31892 0
M  V30 647 H 61.7791 -2.9389 1.05049 0
M  V30 648 N 62.0802 -0.821533 -1.34494 0
M  V30 649 C 63.3572 -0.33159 -1.92769 0
M  V30 650 C 63.7372 1.18088 -1.74981 0
M  V30 651 O 63.0852 1.98733 -1.12772 0
M  V30 652 C 63.2952 -0.759398 -3.40638 0
M  V30 653 C 64.6432 -0.757433 -4.1779 0
M  V30 654 O 65.6672 -0.70189 -3.49216 0
M  V30 655 O 64.5262 -0.829361 -5.4017 0
M  V30 656 H 61.6202 -0.0902502 -0.822061 0
M  V30 657 H 64.1662 -0.906231 -1.43477 0
M  V30 658 H 62.9382 -1.8012 -3.47379 0
M  V30 659 H 62.5612 -0.160378 -3.97276 0
M  V30 660 N 63.5583 1.46682 -0.576371 0
M  V30 661 C 64.5213 2.28707 0.150239 0
M  V30 662 C 65.5213 1.38035 0.824794 0
M  V30 663 O 66.7113 1.60476 0.677719 0
M  V30 664 C 63.8433 3.18248 1.22192 0
M  V30 665 H 65.0363 2.94423 -0.570521 0
M  V30 666 H 62.5893 1.52688 -0.334078 0
M  V30 667 H 63.3243 2.57265 1.97447 0
M  V30 668 H 63.1093 3.85 0.742812 0
M  V30 669 H 64.5993 3.80001 1.73172 0
M  V30 670 N 65.0364 0.313813 1.54444 0
M  V30 671 C 65.9464 -0.565714 2.27677 0
M  V30 672 C 66.9624 -1.13754 1.31666 0
M  V30 673 O 68.1384 -1.15959 1.64668 0
M  V30 674 C 65.2034 -1.71528 3.01296 0
M  V30 675 C 64.2644 -1.17624 4.12872 0
M  V30 676 C 63.4974 -2.27102 4.8297 0
M  V30 677 O 63.7204 -3.47256 4.52514 0
M  V30 678 O 62.6544 -1.9307 5.70094 0
M  V30 679 H 66.4804 0.0287296 3.03686 0
M  V30 680 H 64.0654 0.0798312 1.49187 0
M  V30 681 H 65.9474 -2.38476 3.4743 0
M  V30 682 H 64.6224 -2.29608 2.2817 0
M  V30 683 H 63.5294 -0.472124 3.71109 0
M  V30 684 H 64.8624 -0.640695 4.88012 0
M  V30 685 N 66.5145 -1.57545 0.0417849 0
M  V30 686 C 67.4775 -2.09885 -0.92093 0
M  V30 687 C 68.4775 -1.01648 -1.24596 0
M  V30 688 O 69.6675 -1.27759 -1.1842 0
M  V30 689 C 66.7995 -2.57527 -2.23367 0
M  V30 690 H 67.9925 -2.96236 -0.467382 0
M  V30 691 H 65.5455 -1.5493 -0.206467 0
M  V30 692 H 66.2805 -1.74542 -2.73323 0
M  V30 693 H 66.0655 -3.36613 -2.01083 0
M  V30 694 H 67.5555 -2.98201 -2.92346 0
M  V30 695 N 67.9926 0.231505 -1.5589 0
M  V30 696 C 69.4086 0.580748 -1.48659 0
M  V30 697 C 69.6086 1.87617 -0.73498 0
M  V30 698 O 68.6646 2.51046 -0.270586 0
M  V30 699 C 69.9776 0.669202 -2.93159 0
M  V30 700 C 71.5256 0.760499 -3.03621 0
M  V30 701 C 72.0006 0.880383 -4.49459 0
M  V30 702 N 73.4916 0.944861 -4.53461 0
M  V30 703 C 74.2266 1.05716 -5.63571 0
M  V30 704 N 73.7226 1.13403 -6.83456 0
M  V30 705 N 75.5156 1.09152 -5.514 0
M  V30 706 H 67.6666 -0.618695 -2.03189 0
M  V30 707 H 69.9296 -0.215728 -0.923128 0
M  V30 708 H 69.6356 -0.212904 -3.51055 0
M  V30 709 H 69.5096 1.5361 -3.44505 0
M  V30 710 H 71.8966 1.63305 -2.45796 0
M  V30 711 H 71.9776 -0.131864 -2.5546 0
M  V30 712 H 71.6216 0.0123284 -5.07899 0
M  V30 713 H 71.5516 1.78802 -4.95316 0
M  V30 714 H 74.0426 0.896176 -3.6712 0
M  V30 715 H 74.3556 1.21921 -7.63122 0
M  V30 716 H 72.7006 1.10333 -6.86186 0
M  V30 717 H 75.8916 1.02805 -4.56671 0
M  V30 718 H 76.0646 1.17558 -6.37247 0
M  V30 719 N 69.4707 1.49531 0.497807 0
M  V30 720 C 70.8867 1.36365 0.829266 0
M  V30 721 C 71.0867 0.399184 1.97506 0
M  V30 722 O 70.1427 -0.167977 2.51941 0
M  V30 723 C 71.4557 2.77153 1.16647 0
M  V30 724 C 73.0037 2.85877 1.27449 0
M  V30 725 C 73.4787 4.2744 1.64497 0
M  V30 726 N 74.9697 4.30265 1.7154 0
M  V30 727 C 75.7047 5.3677 2.01656 0
M  V30 728 N 75.2007 6.53516 2.29976 0
M  V30 729 N 76.9937 5.24189 2.02934 0
M  V30 730 H 69.1447 2.10831 -0.257703 0
M  V30 731 H 71.4077 0.946534 -0.0527091 0
M  V30 732 H 71.1137 3.49442 0.397872 0
M  V30 733 H 70.9877 3.12722 2.10915 0
M  V30 734 H 73.3747 2.13824 2.0338 0
M  V30 735 H 73.4557 2.53887 0.312244 0
M  V30 736 H 73.0997 5.00021 0.891151 0
M  V30 737 H 73.0297 4.56896 2.61827 0
M  V30 738 H 75.5207 3.4607 1.51802 0
M  V30 739 H 75.8337 7.30506 2.52153 0
M  V30 740 H 74.1787 6.56737 2.27425 0
M  V30 741 H 77.3697 4.31988 1.80289 0
M  V30 742 H 77.5427 6.07286 2.26071 0
M  V30 743 N 70.9488 -0.749086 1.3866 0
M  V30 744 C 72.1788 -1.53611 1.38157 0
M  V30 745 C 72.5868 -1.89177 -0.0293595 0
M  V30 746 O 71.9298 -1.53606 -1.00752 0
M  V30 747 C 71.9918 -2.86087 2.17702 0
M  V30 748 C 71.6558 -2.73034 3.66472 0
M  V30 749 C 72.6528 -2.42526 4.59866 0
M  V30 750 C 70.3378 -2.90345 4.09884 0
M  V30 751 C 72.3318 -2.29492 5.94653 0
M  V30 752 C 70.0188 -2.7693 5.4475 0
M  V30 753 C 71.0168 -2.46547 6.36949 0
M  V30 754 O 70.7048 -2.33199 7.69333 0
M  V30 755 H 70.4368 -0.481773 0.474205 0
M  V30 756 H 72.9908 -0.934465 1.82912 0
M  V30 757 H 71.2208 -3.48458 1.67672 0
M  V30 758 H 72.9098 -3.47625 2.09551 0
M  V30 759 H 73.6758 -2.28816 4.27631 0
M  V30 760 H 69.5548 -3.1299 3.38464 0
M  V30 761 H 73.0988 -2.05698 6.66584 0
M  V30 762 H 68.9958 -2.90215 5.76581 0
M  V30 763 H 69.7638 -2.48376 7.79905 0
M  V30 764 N 72.4269 -1.23603 -0.977757 0
M  V30 765 C 73.6549 -1.09646 -1.75458 0
M  V30 766 C 74.0699 0.351859 -1.85492 0
M  V30 767 O 73.4269 1.24327 -1.336 0
M  V30 768 C 73.4779 -1.71895 -3.18016 0
M  V30 769 O 73.1989 -3.11063 -3.08498 0
M  V30 770 C 74.6999 -1.63415 -4.12081 0
M  V30 771 H 71.9199 -0.38359 -0.550545 0
M  V30 772 H 74.4639 -1.63507 -1.22824 0
M  V30 773 H 72.6189 -1.22061 -3.67668 0
M  V30 774 H 73.0329 -3.41305 -3.9826 0
M  V30 775 H 74.5069 -2.11669 -5.09804 0
M  V30 776 H 74.9839 -0.593462 -4.35172 0
M  V30 777 H 75.5899 -2.12628 -3.68334 0
M  V30 778 N 73.905 1.17692 -1.04816 0
M  V30 779 C 74.835 2.23777 -0.666791 0
M  V30 780 C 75.816 1.66796 0.33361 0
M  V30 781 O 77.001 1.93039 0.212042 0
M  V30 782 C 74.131 3.47281 -0.0367933 0
M  V30 783 C 73.085 4.17059 -0.961546 0
M  V30 784 C 72.411 5.34342 -0.195626 0
M  V30 785 C 73.711 4.69713 -2.28402 0
M  V30 786 H 75.405 2.55933 -1.55367 0
M  V30 787 H 72.951 1.23019 -0.748484 0
M  V30 788 H 74.904 4.20706 0.241775 0
M  V30 789 H 73.628 3.14381 0.885004 0
M  V30 790 H 72.287 3.45541 -1.22462 0
M  V30 791 H 71.935 4.97692 0.728816 0
M  V30 792 H 71.635 5.81966 -0.811775 0
M  V30 793 H 73.159 6.10553 0.0757473 0
M  V30 794 H 74.573 5.34794 -2.06563 0
M  V30 795 H 72.97 5.279 -2.8538 0
M  V30 796 H 74.04 3.86726 -2.92525 0
M  V30 797 N 75.3831 0.828654 1.34056 0
M  V30 798 C 76.6131 0.431993 2.02033 0
M  V30 799 C 77.0211 -0.96844 1.62536 0
M  V30 800 O 76.3641 -1.6391 0.829408 0
M  V30 801 C 76.4261 0.461224 3.56529 0
M  V30 802 C 76.0901 1.81599 4.1937 0
M  V30 803 C 77.0871 2.7777 4.39477 0
M  V30 804 C 74.7721 2.10604 4.56017 0
M  V30 805 C 76.7661 4.01115 4.95364 0
M  V30 806 C 74.4531 3.34207 5.11614 0
M  V30 807 C 75.4511 4.2928 5.31232 0
M  V30 808 O 75.1391 5.50699 5.8565 0
M  V30 809 H 74.8711 0.170943 0.654029 0
M  V30 810 H 77.4251 1.11988 1.72185 0
M  V30 811 H 75.6551 -0.283388 3.8566 0
M  V30 812 H 77.3441 0.0838149 4.05813 0
M  V30 813 H 78.1101 2.56659 4.11523 0
M  V30 814 H 73.9891 1.37402 4.40047 0
M  V30 815 H 77.5331 4.75333 5.10592 0
M  V30 816 H 73.4301 3.55179 5.38997 0
M  V30 817 H 74.1981 5.52298 6.04077 0
M  V30 818 N 76.8612 -1.46375 0.584142 0
M  V30 819 C 77.8242 -2.28784 -0.138108 0
M  V30 820 C 78.8242 -1.38471 -0.817462 0
M  V30 821 O 80.0142 -1.60833 -0.669199 0
M  V30 822 C 77.1462 -3.18892 -1.20503 0
M  V30 823 H 78.3392 -2.94117 0.586127 0
M  V30 824 H 75.8922 -1.52509 0.342171 0
M  V30 825 H 76.6272 -2.58309 -1.96079 0
M  V30 826 H 76.4122 -3.85388 -0.722384 0
M  V30 827 H 77.9022 -3.80914 -1.71155 0
M  V30 828 N 78.3393 -0.321999 -1.54275 0
M  V30 829 C 79.2693 0.537411 -2.27231 0
M  V30 830 C 80.2503 1.12064 -1.27968 0
M  V30 831 O 81.4353 1.14606 -1.56777 0
M  V30 832 C 78.5653 1.69919 -3.02894 0
M  V30 833 C 77.5193 1.24534 -4.09482 0
M  V30 834 C 76.8453 2.49394 -4.72977 0
M  V30 835 C 78.1453 0.361335 -5.21049 0
M  V30 836 H 79.8393 -0.0711406 -2.99315 0
M  V30 837 H 77.3853 -0.0356555 -1.43956 0
M  V30 838 H 79.3383 2.30668 -3.52662 0
M  V30 839 H 78.0623 2.33431 -2.28424 0
M  V30 840 H 76.7213 0.660782 -3.60596 0
M  V30 841 H 76.3693 3.11265 -3.95124 0
M  V30 842 H 76.0693 2.19718 -5.44975 0
M  V30 843 H 77.5933 3.10908 -5.25517 0
M  V30 844 H 79.0073 0.875072 -5.66582 0
M  V30 845 H 77.4043 0.157428 -5.99893 0
M  V30 846 H 78.4743 -0.60822 -4.8107 0
M  V30 847 N 79.8174 1.5752 -0.0501392 0
M  V30 848 C 80.7504 2.07026 0.959962 0
M  V30 849 C 81.7284 0.970539 1.30458 0
M  V30 850 O 82.9124 1.2424 1.41763 0
M  V30 851 C 80.0394 2.5099 2.27424 0
M  V30 852 C 79.0854 3.72188 2.08275 0
M  V30 853 S 79.9184 5.17888 1.36207 0
M  V30 854 C 81.0744 5.65165 2.6896 0
M  V30 855 H 81.3074 2.9238 0.538631 0
M  V30 856 H 78.8404 1.53547 0.162099 0
M  V30 857 H 80.7984 2.76982 3.02971 0
M  V30 858 H 79.4594 1.65944 2.66686 0
M  V30 859 H 78.6524 4.00866 3.05487 0
M  V30 860 H 78.2544 3.46457 1.40868 0
M  V30 861 H 80.5464 5.70687 3.65133 0
M  V30 862 H 81.4894 6.64394 2.4492 0
M  V30 863 H 81.8974 4.9289 2.75172 0
M  V30 864 N 81.2955 -0.223234 1.56011 0
M  V30 865 C 82.2255 -1.27988 1.95298 0
M  V30 866 C 83.2065 -1.48976 0.820979 0
M  V30 867 O 84.3915 -1.61188 1.08315 0
M  V30 868 C 81.5215 -2.63 2.26822 0
M  V30 869 C 80.4755 -2.56671 3.42497 0
M  V30 870 C 79.8015 -3.95697 3.59622 0
M  V30 871 C 81.1015 -2.11601 4.77517 0
M  V30 872 H 82.7955 -0.953525 2.8381 0
M  V30 873 H 80.3415 -0.457244 1.36548 0
M  V30 874 H 82.2945 -3.37077 2.52898 0
M  V30 875 H 81.0185 -2.9732 1.35161 0
M  V30 876 H 79.6775 -1.85051 3.16467 0
M  V30 877 H 79.3255 -4.27322 2.6534 0
M  V30 878 H 79.0255 -3.92345 4.37424 0
M  V30 879 H 80.5495 -4.71438 3.88044 0
M  V30 880 H 81.9635 -2.7542 5.02809 0
M  V30 881 H 80.3605 -2.19311 5.5859 0
M  V30 882 H 81.4305 -1.06824 4.72987 0
M  V30 883 N 82.7736 -1.49793 -0.48987 0
M  V30 884 C 84.0226 -1.59085 -1.23995 0
M  V30 885 C 84.3356 -0.287907 -1.9347 0
M  V30 886 O 85.5416 -0.259506 -2.70257 0
M  V30 887 C 83.9976 -2.80736 -2.252 0
M  V30 888 C 83.6056 -4.17833 -1.61614 0
M  V30 889 C 85.3496 -2.99364 -3.00967 0
M  V30 890 C 83.2566 -5.30693 -2.60996 0
M  V30 891 H 82.1866 -0.592372 -0.466488 0
M  V30 892 H 84.8376 -1.76197 -0.51252 0
M  V30 893 H 83.2196 -2.57142 -3.01154 0
M  V30 894 H 84.3936 -4.51608 -0.915774 0
M  V30 895 H 82.7086 -4.04656 -0.981977 0
M  V30 896 H 85.3056 -3.80851 -3.75308 0
M  V30 897 H 85.6486 -2.10356 -3.59244 0
M  V30 898 H 86.1816 -3.2305 -2.32128 0
M  V30 899 H 82.9206 -6.21796 -2.07485 0
M  V30 900 H 82.4406 -5.01359 -3.2924 0
M  V30 901 H 84.1196 -5.6049 -3.23202 0
M  V30 902 N 84.2517 0.741722 -1.39055 0
M  V30 903 C 85.2147 1.83733 -1.37021 0
M  V30 904 C 86.2147 1.58542 -0.268534 0
M  V30 905 O 87.4047 1.66067 -0.526076 0
M  V30 906 C 84.5367 3.2141 -1.13617 0
M  V30 907 H 85.7297 1.86941 -2.34506 0
M  V30 908 H 83.2827 0.944676 -1.24521 0
M  V30 909 H 84.0177 3.23865 -0.167863 0
M  V30 910 H 83.8027 3.4109 -1.93391 0
M  V30 911 H 85.2927 4.01477 -1.14918 0
M  V30 912 N 85.7298 1.2412 0.971189 0
M  V30 913 C 86.6598 1.05508 2.08304 0
M  V30 914 C 87.6408 -0.0308864 1.70072 0
M  V30 915 O 88.8258 0.135521 1.93727 0
M  V30 916 C 85.9558 0.655365 3.4106 0
M  V30 917 C 84.9098 1.68971 3.93234 0
M  V30 918 C 84.2358 1.14516 5.22293 0
M  V30 919 C 85.5358 3.08487 4.21465 0
M  V30 920 H 87.2298 1.98507 2.24132 0
M  V30 921 H 84.7758 0.955821 1.07704 0
M  V30 922 H 86.7288 0.51217 4.18276 0
M  V30 923 H 85.4528 -0.31032 3.25122 0
M  V30 924 H 84.1118 1.82106 3.18171 0
M  V30 925 H 83.7598 0.170189 5.02712 0
M  V30 926 H 83.4598 1.83635 5.58168 0
M  V30 927 H 84.9838 1.01401 6.02121 0
M  V30 928 H 86.3978 2.98601 4.89398 0
M  V30 929 H 84.7948 3.74926 4.68562 0
M  V30 930 H 85.8648 3.56787 3.28376 0
M  V30 931 N 87.2079 -1.17134 1.05439 0
M  V30 932 C 88.4849 -1.83411 0.679699 0
M  V30 933 C 88.8649 -1.9368 -0.839726 0
M  V30 934 O 88.2129 -1.47325 -1.74664 0
M  V30 935 C 88.4229 -3.20918 1.37159 0
M  V30 936 C 89.7709 -3.96796 1.51123 0
M  V30 937 O 90.7949 -3.30406 1.3308 0
M  V30 938 O 89.6539 -5.15778 1.80651 0
M  V30 939 H 86.7479 -0.79154 0.239569 0
M  V30 940 H 89.2939 -1.24411 1.15413 0
M  V30 941 H 88.0659 -3.08428 2.40807 0
M  V30 942 H 87.6889 -3.87587 0.886674 0
M  V30 943 N 88.686 -0.835752 -1.33615 0
M  V30 944 C 89.616 -0.281739 -2.31794 0
M  V30 945 C 90.597 0.608833 -1.58831 0
M  V30 946 O 91.782 0.533035 -1.86741 0
M  V30 947 C 88.912 0.546612 -3.42971 0
M  V30 948 C 87.866 -0.247904 -4.27281 0
M  V30 949 C 87.192 0.704001 -5.30045 0
M  V30 950 C 88.492 -1.46324 -5.01385 0
M  V30 951 H 90.186 -1.10206 -2.78379 0
M  V30 952 H 87.732 -0.531388 -1.33837 0
M  V30 953 H 89.685 0.944467 -4.1068 0
M  V30 954 H 88.409 1.40011 -2.95067 0
M  V30 955 H 87.068 -0.627281 -3.61194 0
M  V30 956 H 86.716 1.55381 -4.78399 0
M  V30 957 H 86.416 0.176524 -5.87335 0
M  V30 958 H 87.94 1.09944 -6.0062 0
M  V30 959 H 89.354 -1.13871 -5.61877 0
M  V30 960 H 87.751 -1.92728 -5.6831 0
M  V30 961 H 88.821 -2.23467 -4.30338 0
M  V30 962 N 90.1641 1.46063 -0.591896 0
M  V30 963 C 91.4111 2.02338 -0.0809991 0
M  V30 964 C 91.7391 1.46228 1.28249 0
M  V30 965 O 90.9941 0.620818 1.85592 0
M  V30 966 C 91.2931 3.57391 0.0249813 0
M  V30 967 C 90.9591 4.32583 -1.27211 0
M  V30 968 C 89.6211 4.52844 -1.62745 0
M  V30 969 C 91.9731 4.75687 -2.13005 0
M  V30 970 C 89.3011 5.13462 -2.83855 0
M  V30 971 C 91.6531 5.37644 -3.3335 0
M  V30 972 C 90.3171 5.5613 -3.69155 0
M  V30 973 H 89.5871 0.740407 -0.0296397 0
M  V30 974 H 92.2341 1.75321 -0.770374 0
M  V30 975 H 90.5391 3.83597 0.797537 0
M  V30 976 H 92.2361 3.98621 0.436184 0
M  V30 977 H 88.8261 4.17116 -0.985499 0
M  V30 978 H 93.0101 4.59782 -1.86855 0
M  V30 979 H 88.2661 5.25965 -3.11722 0
M  V30 980 H 92.4401 5.7 -4.00092 0
M  V30 981 H 90.0671 6.0287 -4.63089 0
M  V30 982 N 91.6422 0.330177 1.54103 0
M  V30 983 C 92.8912 -0.271336 1.99867 0
M  V30 984 C 93.2042 -1.52723 1.22209 0
M  V30 985 O 94.4102 -2.20515 1.58383 0
M  V30 986 C 92.8662 -0.534032 3.55916 0
M  V30 987 C 92.4742 0.705193 4.42415 0
M  V30 988 C 94.2182 -1.09514 4.1013 0
M  V30 989 C 92.1252 0.414035 5.89949 0
M  V30 990 H 91.0552 -0.105166 0.74663 0
M  V30 991 H 93.7062 0.443429 1.78062 0
M  V30 992 H 92.0882 -1.30915 3.73734 0
M  V30 993 H 93.2622 1.4804 4.36372 0
M  V30 994 H 91.5772 1.18698 3.99124 0
M  V30 995 H 94.1742 -1.3277 5.17954 0
M  V30 996 H 94.5172 -2.04656 3.62521 0
M  V30 997 H 95.0502 -0.381038 3.95971 0
M  V30 998 H 91.7892 1.33481 6.41766 0
M  V30 999 H 91.3092 -0.323336 5.98928 0
M  V30 1000 H 92.9882 0.0263105 6.46995 0
M  V30 1001 N 93.1203 -1.57491 0.0584922 0
M  V30 1002 C 94.0503 -2.14988 -0.911178 0
M  V30 1003 C 95.0313 -1.07343 -1.31952 0
M  V30 1004 O 96.2163 -1.35318 -1.39294 0
M  V30 1005 C 93.3463 -2.70078 -2.18347 0
M  V30 1006 C 92.3003 -3.82771 -1.91495 0
M  V30 1007 C 91.6263 -4.24408 -3.25241 0
M  V30 1008 C 92.9263 -5.07592 -1.23075 0
M  V30 1009 H 94.6203 -2.96263 -0.432246 0
M  V30 1010 H 92.1663 -1.42512 -0.206469 0
M  V30 1011 H 94.1193 -3.08943 -2.86587 0
M  V30 1012 H 92.8433 -1.86005 -2.68458 0
M  V30 1013 H 91.5023 -3.44389 -1.25664 0
M  V30 1014 H 91.1503 -3.37275 -3.73168 0
M  V30 1015 H 90.8503 -5.00366 -3.08071 0
M  V30 1016 H 92.3743 -4.65879 -3.94701 0
M  V30 1017 H 93.7883 -5.43857 -1.81362 0
M  V30 1018 H 92.1853 -5.88741 -1.16207 0
M  V30 1019 H 93.2553 -4.84454 -0.207847 0
M  V30 1020 N 94.5984 0.214957 -1.56127 0
M  V30 1021 C 95.8444 0.935325 -1.80619 0
M  V30 1022 C 96.1994 1.81706 -0.632507 0
M  V30 1023 O 95.4924 1.87931 0.373182 0
M  V30 1024 C 95.6864 1.80314 -3.0858 0
M  V30 1025 C 95.5154 1.00691 -4.38282 0
M  V30 1026 C 94.2854 0.699211 -5.00439 0
M  V30 1027 C 96.4834 0.369057 -5.12974 0
M  V30 1028 N 94.4654 -0.117734 -6.13787 0
M  V30 1029 C 95.8364 -0.310981 -6.1922 0
M  V30 1030 C 97.8914 0.282759 -4.97096 0
M  V30 1031 C 96.5944 -1.06907 -7.11311 0
M  V30 1032 C 98.6204 -0.461881 -5.89594 0
M  V30 1033 C 97.9824 -1.13044 -6.9527 0
M  V30 1034 H 94.0814 0.322307 -0.71249 0
M  V30 1035 H 96.6654 0.205649 -1.93611 0
M  V30 1036 H 94.8364 2.50458 -2.96859 0
M  V30 1037 H 96.5684 2.46148 -3.21237 0
M  V30 1038 H 93.3234 1.01884 -4.62511 0
M  V30 1039 H 93.7474 -0.515235 -6.75037 0
M  V30 1040 H 98.3894 0.785292 -4.15443 0
M  V30 1041 H 96.1074 -1.5831 -7.92442 0
M  V30 1042 H 99.6934 -0.529746 -5.79383 0
M  V30 1043 H 98.5734 -1.69742 -7.65609 0
M  V30 1044 N 96.0765 1.50051 0.48192 0
M  V30 1045 C 97.0395 1.67584 1.5636 0
M  V30 1046 C 98.0395 0.546894 1.51214 0
M  V30 1047 O 99.2295 0.813725 1.54026 0
M  V30 1048 C 96.3615 1.691 2.96003 0
M  V30 1049 H 97.5545 2.64078 1.42136 0
M  V30 1050 H 95.1075 1.39369 0.707533 0
M  V30 1051 H 95.8425 0.742589 3.15684 0
M  V30 1052 H 95.6275 2.51105 3.01146 0
M  V30 1053 H 97.1175 1.84656 3.74556 0
M  V30 1054 N 97.5546 -0.734337 1.39446 0
M  V30 1055 C 98.4646 -1.87879 1.40495 0
M  V30 1056 C 99.4806 -1.714 0.299672 0
M  V30 1057 O 100.657 -1.93991 0.541249 0
M  V30 1058 C 97.7216 -3.23477 1.24754 0
M  V30 1059 C 96.7826 -3.52344 2.45259 0
M  V30 1060 C 96.0156 -4.81473 2.30259 0
M  V30 1061 O 96.2386 -5.55237 1.30643 0
M  V30 1062 O 95.1726 -5.10254 3.19256 0
M  V30 1063 H 98.9986 -1.89949 2.36966 0
M  V30 1064 H 96.5836 -0.882243 1.20569 0
M  V30 1065 H 98.4656 -4.04509 1.18111 0
M  V30 1066 H 97.1406 -3.22176 0.313781 0
M  V30 1067 H 96.0476 -2.71396 2.57478 0
M  V30 1068 H 97.3806 -3.58426 3.37331 0
M  V30 1069 N 99.0327 -1.24633 -0.964593 0
M  V30 1070 C 100.258 -1.11596 -1.74818 0
M  V30 1071 C 100.683 0.32723 -1.85232 0
M  V30 1072 O 100.041 1.23695 -1.32549 0
M  V30 1073 C 100.089 -1.76397 -3.1451 0
M  V30 1074 O 99.1927 -1.03685 -3.99153 0
M  V30 1075 H 98.5337 -0.390196 -0.537255 0
M  V30 1076 H 101.064 -1.65002 -1.20977 0
M  V30 1077 H 101.074 -1.8228 -3.65018 0
M  V30 1078 H 99.7487 -2.81401 -3.06246 0
M  V30 1079 H 98.3257 -1.05611 -3.57632 0
M  V30 1080 N 100.511 1.16574 -1.06058 0
M  V30 1081 C 101.922 1.68662 -0.800632 0
M  V30 1082 C 102.273 1.84184 0.67608 0
M  V30 1083 O 101.398 1.53568 1.52466 0
M  V30 1084 C 101.993 3.06356 -1.44676 0
M  V30 1085 C 100.552 3.55575 -1.23465 0
M  V30 1086 C 99.6988 2.31616 -1.52477 0
M  V30 1087 H 102.65 1.00969 -1.22438 0
M  V30 1088 H 102.671 3.70636 -0.860788 0
M  V30 1089 H 102.183 2.95027 -2.52152 0
M  V30 1090 H 100.284 3.72167 -0.179527 0
M  V30 1091 H 100.397 4.37812 -1.94571 0
M  V30 1092 H 98.7608 2.36512 -0.945209 0
M  V30 1093 H 99.5438 2.22887 -2.61106 0
M  V30 1094 N 101.989 0.842826 1.3317 0
M  V30 1095 C 102.952 0.284065 2.27433 0
M  V30 1096 C 103.952 -0.54948 1.5112 0
M  V30 1097 O 105.142 -0.362699 1.70382 0
M  V30 1098 C 102.274 -0.599384 3.35589 0
M  V30 1099 H 103.467 1.11589 2.78366 0
M  V30 1100 H 101.02 0.616221 1.4364 0
M  V30 1101 H 101.755 -1.45349 2.89904 0
M  V30 1102 H 101.54 -0.00291266 3.921 0
M  V30 1103 H 103.03 -0.983488 4.05854 0
M  V30 1104 N 103.467 -1.45747 0.599634 0
M  V30 1105 C 104.883 -1.57424 0.26264 0
M  V30 1106 C 105.083 -1.59222 -1.23493 0
M  V30 1107 O 104.139 -1.51825 -2.01756 0
M  V30 1108 C 105.452 -2.86061 0.926795 0
M  V30 1109 C 107 -2.99722 0.901967 0
M  V30 1110 C 107.475 -4.31119 1.54598 0
M  V30 1111 N 108.966 -4.37858 1.5111 0
M  V30 1112 C 109.701 -5.3818 1.97863 0
M  V30 1113 N 109.197 -6.45083 2.52666 0
M  V30 1114 N 110.99 -5.29487 1.88679 0
M  V30 1115 H 103.141 -1.42823 1.57211 0
M  V30 1116 H 105.404 -0.68235 0.658105 0
M  V30 1117 H 105.11 -2.90605 1.98095 0
M  V30 1118 H 104.984 -3.74563 0.445238 0
M  V30 1119 H 107.371 -2.9475 -0.143617 0
M  V30 1120 H 107.452 -2.12652 1.42171 0
M  V30 1121 H 107.096 -4.36849 2.59085 0
M  V30 1122 H 107.026 -5.16992 1.00132 0
M  V30 1123 H 109.517 -3.61209 1.11068 0
M  V30 1124 H 109.83 -7.17869 2.86155 0
M  V30 1125 H 108.175 -6.45856 2.56701 0
M  V30 1126 H 111.366 -4.44877 1.4561 0
M  V30 1127 H 111.539 -6.07524 2.25429 0
M  V30 1128 N 104.945 -0.338344 -1.53925 0
M  V30 1129 C 106.192 0.259758 -2.00827 0
M  V30 1130 C 106.52 1.50973 -1.22628 0
M  V30 1131 O 105.775 1.93379 -0.300509 0
M  V30 1132 C 106.074 0.62448 -3.51902 0
M  V30 1133 C 105.74 -0.528006 -4.47798 0
M  V30 1134 C 104.402 -0.844298 -4.73735 0
M  V30 1135 C 106.754 -1.30143 -5.0469 0
M  V30 1136 C 104.082 -1.93648 -5.53821 0
M  V30 1137 C 106.434 -2.38382 -5.85967 0
M  V30 1138 C 105.098 -2.70576 -6.10201 0
M  V30 1139 H 104.368 0.0950523 -0.734878 0
M  V30 1140 H 107.015 -0.465182 -1.85764 0
M  V30 1141 H 105.32 1.43006 -3.64769 0
M  V30 1142 H 107.017 1.09905 -3.85645 0
M  V30 1143 H 103.607 -0.271421 -4.2774 0
M  V30 1144 H 107.791 -1.07033 -4.84621 0
M  V30 1145 H 103.047 -2.19021 -5.70824 0
M  V30 1146 H 107.221 -2.98746 -6.29066 0
M  V30 1147 H 104.848 -3.55333 -6.72044 0
M  V30 1148 N 106.423 1.57458 -0.0668435 0
M  V30 1149 C 107.839 1.56947 0.289772 0
M  V30 1150 C 108.039 1.07584 1.70376 0
M  V30 1151 O 107.095 0.739486 2.41429 0
M  V30 1152 C 108.408 3.0052 0.103943 0
M  V30 1153 C 109.956 3.12517 0.173857 0
M  V30 1154 C 110.431 4.57997 0.0163682 0
M  V30 1155 N 111.922 4.63144 0.0721352 0
M  V30 1156 C 112.657 5.73394 -0.0253794 0
M  V30 1157 N 112.153 6.92576 -0.176133 0
M  V30 1158 N 113.946 5.62091 0.0313305 0
M  V30 1159 H 106.097 1.87863 -0.991027 0
M  V30 1160 H 108.36 0.86583 -0.38606 0
M  V30 1161 H 108.066 3.40729 -0.871572 0
M  V30 1162 H 107.94 3.67304 0.858366 0
M  V30 1163 H 110.327 2.72197 1.13985 0
M  V30 1164 H 110.408 2.48381 -0.611586 0
M  V30 1165 H 110.052 4.99005 -0.946374 0
M  V30 1166 H 109.982 5.20158 0.821153 0
M  V30 1167 H 112.473 3.77436 0.187263 0
M  V30 1168 H 112.786 7.72418 -0.242821 0
M  V30 1169 H 111.131 6.94678 -0.211429 0
M  V30 1170 H 114.322 4.67867 0.147773 0
M  V30 1171 H 114.495 6.47982 -0.048121 0
M  V30 1172 N 107.901 -0.206675 1.56239 0
M  V30 1173 C 109.148 -0.928842 1.79941 0
M  V30 1174 C 109.476 -1.83734 0.638131 0
M  V30 1175 O 108.731 -1.92039 -0.376746 0
M  V30 1176 C 109.03 -1.78675 3.09532 0
M  V30 1177 C 108.696 -1.03022 4.38973 0
M  V30 1178 C 107.358 -0.821302 4.74139 0
M  V30 1179 C 109.71 -0.497081 5.18824 0
M  V30 1180 C 107.038 -0.0675719 5.86661 0
M  V30 1181 C 109.39 0.24338 6.32132 0
M  V30 1182 C 108.054 0.463422 6.65889 0
M  V30 1183 H 107.324 -0.339887 0.658451 0
M  V30 1184 H 109.971 -0.195977 1.90495 0
M  V30 1185 H 108.276 -2.58794 2.94165 0
M  V30 1186 H 109.973 -2.34792 3.25075 0
M  V30 1187 H 106.563 -1.20306 4.11369 0
M  V30 1188 H 110.747 -0.645921 4.92079 0
M  V30 1189 H 106.003 0.112995 6.11296 0
M  V30 1190 H 110.177 0.66393 6.93228 0
M  V30 1191 H 107.804 1.04938 7.52922 0
M  V30 1192 N 109.379 -1.50304 -0.473955 0
M  V30 1193 C 110.607 -1.64902 -1.24959 0
M  V30 1194 C 111.022 -0.331198 -1.85872 0
M  V30 1195 O 110.379 0.68652 -1.69095 0
M  V30 1196 C 110.43 -2.73803 -2.36038 0
M  V30 1197 O 110.151 -4.00477 -1.77624 0
M  V30 1198 C 111.652 -2.99349 -3.26964 0
M  V30 1199 H 108.872 -0.554383 -0.378022 0
M  V30 1200 H 111.416 -1.9651 -0.566054 0
M  V30 1201 H 109.571 -2.44898 -3.00173 0
M  V30 1202 H 109.985 -4.60678 -2.5075 0
M  V30 1203 H 111.459 -3.79217 -4.01121 0
M  V30 1204 H 111.936 -2.10307 -3.85574 0
M  V30 1205 H 112.542 -3.29774 -2.68569 0
M  V30 1206 N 110.857 0.726932 -1.39834 0
M  V30 1207 C 111.807 1.83232 -1.35683 0
M  V30 1208 C 112.791 1.59155 -0.236295 0
M  V30 1209 O 113.983 1.70522 -0.474488 0
M  V30 1210 C 111.112 3.21246 -1.21062 0
M  V30 1211 C 110.198 3.51125 -2.37849 0
M  V30 1212 N 110.589 3.51889 -3.63329 0
M  V30 1213 C 108.887 3.81527 -2.30982 0
M  V30 1214 C 109.588 3.79791 -4.40606 0
M  V30 1215 N 108.564 3.97971 -3.70297 0
M  V30 1216 H 112.366 1.8214 -2.30656 0
M  V30 1217 H 109.88 0.925545 -1.33444 0
M  V30 1218 H 111.877 4.00387 -1.16171 0
M  V30 1219 H 110.537 3.23572 -0.270458 0
M  V30 1220 H 111.548 3.33008 -3.96643 0
M  V30 1221 H 108.225 3.91411 -1.45272 0
M  V30 1222 H 109.615 3.86783 -5.49408 0
M  V30 1223 N 112.336 1.25143 0.95797 0
M  V30 1224 C 113.585 1.0909 1.69654 0
M  V30 1225 C 113.898 -0.368548 1.92097 0
M  V30 1226 O 115.104 -0.649455 2.63618 0
M  V30 1227 C 113.56 1.90395 3.05414 0
M  V30 1228 C 113.168 3.4081 2.90779 0
M  V30 1229 C 114.912 1.82901 3.83076 0
M  V30 1230 C 112.819 4.14423 4.21909 0
M  V30 1231 H 111.749 0.404625 0.636235 0
M  V30 1232 H 114.4 1.4931 1.06672 0
M  V30 1233 H 112.782 1.42996 3.69281 0
M  V30 1234 H 113.956 3.95859 2.35865 0
M  V30 1235 H 112.271 3.49361 2.26575 0
M  V30 1236 H 114.868 2.35196 4.80195 0
M  V30 1237 H 115.211 0.796224 4.08615 0
M  V30 1238 H 115.744 2.28033 3.25954 0
M  V30 1239 H 112.483 5.18102 4.01561 0
M  V30 1240 H 112.003 3.64159 4.76601 0
M  V30 1241 H 113.682 4.21956 4.90471 0
M  V30 1242 N 113.814 -1.1601 1.06675 0
M  V30 1243 C 115.06 -1.87145 0.796766 0
M  V30 1244 C 115.415 -1.8037 -0.669658 0
M  V30 1245 O 114.708 -1.21116 -1.48463 0
M  V30 1246 C 114.902 -3.35547 1.23057 0
M  V30 1247 C 114.731 -3.56769 2.73762 0
M  V30 1248 C 113.501 -3.72635 3.41279 0
M  V30 1249 C 115.699 -3.55166 3.7197 0
M  V30 1250 N 113.681 -3.81845 4.80695 0
M  V30 1251 C 115.052 -3.70406 4.97191 0
M  V30 1252 C 117.107 -3.384 3.65226 0
M  V30 1253 C 115.81 -3.70615 6.16471 0
M  V30 1254 C 117.836 -3.39904 4.83962 0
M  V30 1255 C 117.198 -3.55667 6.08013 0
M  V30 1256 H 113.297 -0.702267 0.344014 0
M  V30 1257 H 115.881 -1.39165 1.36166 0
M  V30 1258 H 114.052 -3.82159 0.693456 0
M  V30 1259 H 115.784 -3.94363 0.908844 0
M  V30 1260 H 112.539 -3.73121 2.91681 0
M  V30 1261 H 112.963 -3.90209 5.53232 0
M  V30 1262 H 117.605 -3.25138 2.70269 0
M  V30 1263 H 115.323 -3.82658 7.11757 0
M  V30 1264 H 118.909 -3.28169 4.80413 0
M  V30 1265 H 117.789 -3.56755 6.98352 0
M  V30 1266 N 115.292 -0.849877 -1.32721 0
M  V30 1267 C 116.222 -0.306308 -2.31482 0
M  V30 1268 C 117.203 0.591952 -1.59468 0
M  V30 1269 O 118.388 0.513199 -1.87296 0
M  V30 1270 C 115.518 0.510204 -3.43532 0
M  V30 1271 C 114.472 -0.293209 -4.26994 0
M  V30 1272 C 113.798 0.647743 -5.30762 0
M  V30 1273 C 115.098 -1.51634 -4.99804 0
M  V30 1274 H 116.792 -1.13153 -2.77195 0
M  V30 1275 H 114.338 -0.545553 -1.33266 0
M  V30 1276 H 116.291 0.900856 -4.11658 0
M  V30 1277 H 115.015 1.36874 -2.96535 0
M  V30 1278 H 113.674 -0.665555 -3.60508 0
M  V30 1279 H 113.322 1.50299 -4.8002 0
M  V30 1280 H 113.022 0.11422 -5.87489 0
M  V30 1281 H 114.546 1.03567 -6.01753 0
M  V30 1282 H 115.96 -1.19824 -5.60638 0
M  V30 1283 H 114.357 -1.98745 -5.66234 0
M  V30 1284 H 115.427 -2.28018 -4.27943 0
M  V30 1285 N 116.77 1.45427 -0.607355 0
M  V30 1286 C 118.017 2.02241 -0.102455 0
M  V30 1287 C 118.345 1.4758 1.26691 0
M  V30 1288 O 117.6 0.640468 1.84923 0
M  V30 1289 C 117.899 3.57398 -0.0129263 0
M  V30 1290 C 117.565 4.3121 -1.31792 0
M  V30 1291 C 116.227 4.51092 -1.67539 0
M  V30 1292 C 118.579 4.73401 -2.18039 0
M  V30 1293 C 115.907 5.10422 -2.89285 0
M  V30 1294 C 118.259 5.34078 -3.39034 0
M  V30 1295 C 116.923 5.52184 -3.75033 0
M  V30 1296 H 116.193 0.740051 -0.037491 0
M  V30 1297 H 118.84 1.74494 -0.788926 0
M  V30 1298 H 117.145 3.84421 0.756806 0
M  V30 1299 H 118.842 3.99061 0.393881 0
M  V30 1300 H 115.432 4.16047 -1.02968 0
M  V30 1301 H 119.616 4.57774 -1.91721 0
M  V30 1302 H 114.872 5.22629 -3.17283 0
M  V30 1303 H 119.046 5.65724 -4.06115 0
M  V30 1304 H 116.673 5.97925 -4.69457 0
M  V30 1305 N 118.248 0.346503 1.53744 0
M  V30 1306 C 119.178 -0.501193 2.28058 0
M  V30 1307 C 120.159 -1.10014 1.29734 0
M  V30 1308 O 121.344 -1.12097 1.58581 0
M  V30 1309 C 118.474 -1.65078 3.05559 0
M  V30 1310 C 117.428 -1.18003 4.11411 0
M  V30 1311 C 116.754 -2.41837 4.76884 0
M  V30 1312 C 118.054 -0.278394 5.21558 0
M  V30 1313 H 119.748 0.11875 2.99164 0
M  V30 1314 H 117.294 0.0585531 1.43881 0
M  V30 1315 H 119.247 -2.25028 3.56287 0
M  V30 1316 H 117.971 -2.29767 2.32109 0
M  V30 1317 H 116.63 -0.603331 3.61601 0
M  V30 1318 H 116.278 -3.0494 4.00026 0
M  V30 1319 H 115.978 -2.1102 5.48402 0
M  V30 1320 H 117.502 -3.02508 5.30397 0
M  V30 1321 H 118.916 -0.784823 5.67903 0
M  V30 1322 H 117.313 -0.0619707 6.00068 0
M  V30 1323 H 118.383 0.684677 4.80042 0
M  V30 1324 N 119.726 -1.57421 0.075193 0
M  V30 1325 C 120.951 -1.98364 -0.605515 0
M  V30 1326 C 121.376 -0.953383 -1.62149 0
M  V30 1327 O 120.734 0.0806053 -1.81121 0
M  V30 1328 C 120.782 -3.38332 -1.24756 0
M  V30 1329 O 119.886 -3.37959 -2.36342 0
M  V30 1330 H 119.227 -0.645553 -0.155428 0
M  V30 1331 H 121.757 -2.04044 0.150714 0
M  V30 1332 H 121.767 -3.75591 -1.5936 0
M  V30 1333 H 120.442 -4.12846 -0.503129 0
M  V30 1334 H 119.019 -3.12474 -2.03506 0
M  V30 1335 N 121.204 0.198386 -1.56346 0
M  V30 1336 C 122.451 0.919286 -1.80431 0
M  V30 1337 C 122.779 1.83393 -0.647866 0
M  V30 1338 O 122.034 1.92236 0.366556 0
M  V30 1339 C 122.333 1.77031 -3.10475 0
M  V30 1340 C 121.999 1.00693 -4.39513 0
M  V30 1341 C 120.661 0.796145 -4.74568 0
M  V30 1342 C 123.013 0.469559 -5.19081 0
M  V30 1343 C 120.341 0.0364588 -5.86689 0
M  V30 1344 C 122.693 -0.2769 -6.31994 0
M  V30 1345 C 121.357 -0.49873 -6.65634 0
M  V30 1346 H 120.627 0.336391 -0.660244 0
M  V30 1347 H 123.274 0.185872 -1.90596 0
M  V30 1348 H 121.579 2.5723 -2.95533 0
M  V30 1349 H 123.276 2.33065 -3.26315 0
M  V30 1350 H 119.866 1.18122 -4.12001 0
M  V30 1351 H 124.05 0.619816 -4.92414 0
M  V30 1352 H 119.306 -0.145412 -6.11227 0
M  V30 1353 H 123.48 -0.700684 -6.92866 0
M  V30 1354 H 121.107 -1.0893 -7.52355 0
M  V30 1355 N 122.682 1.50554 0.465978 0
M  V30 1356 C 123.632 1.66177 1.56106 0
M  V30 1357 C 124.616 0.516265 1.52393 0
M  V30 1358 O 125.808 0.770906 1.5933 0
M  V30 1359 C 122.937 1.76396 2.94515 0
M  V30 1360 C 122.023 2.9664 3.03093 0
M  V30 1361 N 122.414 4.20245 2.81474 0
M  V30 1362 C 120.712 2.95304 3.34233 0
M  V30 1363 C 121.413 5.01259 2.95151 0
M  V30 1364 N 120.389 4.35318 3.25576 0
M  V30 1365 H 124.191 2.59434 1.38099 0
M  V30 1366 H 121.705 1.47808 0.6728 0
M  V30 1367 H 123.702 1.85694 3.73261 0
M  V30 1368 H 122.362 0.843017 3.13565 0
M  V30 1369 H 123.373 4.4966 2.56956 0
M  V30 1370 H 120.05 2.12729 3.59239 0
M  V30 1371 H 121.44 6.09564 2.82632 0
M  V30 1372 N 124.16 -0.719506 1.40217 0
M  V30 1373 C 125.571 -1.29848 1.34151 0
M  V30 1374 C 125.922 -1.96196 0.0131349 0
M  V30 1375 O 125.047 -1.973 -0.88892 0
M  V30 1376 C 125.642 -2.36118 2.42968 0
M  V30 1377 C 124.201 -2.8965 2.40374 0
M  V30 1378 C 123.348 -1.63393 2.24049 0
M  V30 1379 H 126.299 -0.51591 1.5008 0
M  V30 1380 H 126.32 -3.16871 2.10649 0
M  V30 1381 H 125.832 -1.878 3.39636 0
M  V30 1382 H 123.933 -3.42208 1.47392 0
M  V30 1383 H 124.046 -3.4171 3.35814 0
M  V30 1384 H 122.41 -1.88312 1.71495 0
M  V30 1385 H 123.193 -1.17104 3.2271 0
M  V30 1386 N 125.638 -1.25649 -0.95132 0
M  V30 1387 C 126.866 -1.13343 -1.73092 0
M  V30 1388 C 127.281 0.312434 -1.86197 0
M  V30 1389 O 126.638 1.21465 -1.36207 0
M  V30 1390 C 126.689 -1.78602 -3.14299 0
M  V30 1391 O 126.41 -3.17537 -3.01831 0
M  V30 1392 C 127.911 -1.72119 -4.08522 0
M  V30 1393 H 125.131 -0.395181 -0.542285 0
M  V30 1394 H 127.675 -1.66076 -1.19328 0
M  V30 1395 H 125.83 -1.29832 -3.64996 0
M  V30 1396 H 126.244 -3.49676 -3.90931 0
M  V30 1397 H 127.718 -2.22435 -5.052 0
M  V30 1398 H 128.195 -0.685635 -4.33815 0
M  V30 1399 H 128.801 -2.20393 -3.63741 0
M  V30 1400 N 127.117 1.15442 -1.07289 0
M  V30 1401 C 128.342 1.90638 -0.816828 0
M  V30 1402 C 128.767 1.77445 0.624083 0
M  V30 1403 O 128.125 1.10671 1.43602 0
M  V30 1404 C 128.173 3.39008 -1.22906 0
M  V30 1405 O 127.277 4.10701 -0.373975 0
M  V30 1406 H 126.618 0.593555 -0.297638 0
M  V30 1407 H 129.148 1.46198 -1.43134 0
M  V30 1408 H 129.158 3.89801 -1.20497 0
M  V30 1409 H 127.833 3.47929 -2.27856 0
M  V30 1410 H 126.41 3.70046 -0.460499 0
M  V30 1411 N 128.595 0.856903 1.32268 0
M  V30 1412 C 130.006 0.515711 1.79436 0
M  V30 1413 C 130.357 -0.966586 1.70738 0
M  V30 1414 O 129.482 -1.75409 1.26731 0
M  V30 1415 C 130.077 0.929335 3.25805 0
M  V30 1416 C 128.636 0.640006 3.70919 0
M  V30 1417 C 127.783 1.12784 2.53328 0
M  V30 1418 H 130.734 1.04389 1.19535 0
M  V30 1419 H 130.755 0.246633 3.797 0
M  V30 1420 H 130.267 2.00821 3.32103 0
M  V30 1421 H 128.368 -0.428051 3.70133 0
M  V30 1422 H 128.481 1.20788 4.63624 0
M  V30 1423 H 126.845 0.548033 2.48734 0
M  V30 1424 H 127.628 2.21387 2.62379 0
M  V30 1425 N 130.073 -1.45103 0.615059 0
M  V30 1426 C 131.322 -2.01396 0.110718 0
M  V30 1427 C 131.635 -1.48834 -1.26916 0
M  V30 1428 O 132.841 -1.97152 -1.86664 0
M  V30 1429 C 131.297 -3.59599 0.14723 0
M  V30 1430 C 130.905 -4.21158 1.52743 0
M  V30 1431 C 132.649 -4.23428 -0.30148 0
M  V30 1432 C 130.556 -5.71535 1.51992 0
M  V30 1433 H 129.486 -0.753061 0.0376241 0
M  V30 1434 H 132.137 -1.66494 0.77149 0
M  V30 1435 H 130.519 -3.91724 -0.580339 0
M  V30 1436 H 131.693 -4.00594 2.2773 0
M  V30 1437 H 130.008 -3.69552 1.91886 0
M  V30 1438 H 132.605 -5.33703 -0.326392 0
M  V30 1439 H 132.948 -3.94629 -1.32565 0
M  V30 1440 H 133.481 -3.96047 0.373065 0
M  V30 1441 H 130.22 -6.05044 2.52193 0
M  V30 1442 H 129.74 -5.94268 0.81274 0
M  V30 1443 H 131.419 -6.34873 1.24681 0
M  V30 1444 N 131.551 -0.354651 -1.53558 0
M  V30 1445 C 132.797 0.231422 -2.02079 0
M  V30 1446 C 133.152 1.47308 -1.23767 0
M  V30 1447 O 132.445 1.8891 -0.319947 0
M  V30 1448 C 132.639 0.587121 -3.52545 0
M  V30 1449 C 132.468 -0.618513 -4.45426 0
M  V30 1450 C 131.238 -1.12724 -4.92566 0
M  V30 1451 C 133.436 -1.48039 -4.92533 0
M  V30 1452 N 131.418 -2.29404 -5.69427 0
M  V30 1453 C 132.789 -2.49397 -5.67628 0
M  V30 1454 C 134.844 -1.50454 -4.74624 0
M  V30 1455 C 133.547 -3.53013 -6.26717 0
M  V30 1456 C 135.573 -2.52958 -5.34571 0
M  V30 1457 C 134.935 -3.5304 -6.09543 0
M  V30 1458 H 131.034 0.0476909 -0.780544 0
M  V30 1459 H 133.618 -0.496727 -1.88257 0
M  V30 1460 H 131.789 1.28436 -3.6655 0
M  V30 1461 H 133.521 1.15734 -3.87799 0
M  V30 1462 H 130.276 -0.693577 -4.68494 0
M  V30 1463 H 130.7 -2.88347 -6.12524 0
M  V30 1464 H 135.342 -0.744356 -4.16196 0
M  V30 1465 H 133.06 -4.2992 -6.84247 0
M  V30 1466 H 136.646 -2.55667 -5.22614 0
M  V30 1467 H 135.526 -4.31056 -6.55103 0
M  V30 1468 N 133.029 1.57378 -0.0835403 0
M  V30 1469 C 134.275 1.95025 0.577664 0
M  V30 1470 C 134.63 0.964049 1.66505 0
M  V30 1471 O 133.923 -0.0118235 1.91596 0
M  V30 1472 C 134.117 3.37063 1.1884 0
M  V30 1473 C 133.946 4.49409 0.16171 0
M  V30 1474 C 132.716 5.04642 -0.257756 0
M  V30 1475 C 134.914 5.10722 -0.605634 0
M  V30 1476 N 132.896 6.00537 -1.27393 0
M  V30 1477 C 134.267 6.02225 -1.47395 0
M  V30 1478 C 136.322 4.93501 -0.660418 0
M  V30 1479 C 135.025 6.78355 -2.39221 0
M  V30 1480 C 137.051 5.70283 -1.56623 0
M  V30 1481 C 136.413 6.61444 -2.4222 0
M  V30 1482 H 132.512 0.760512 0.182058 0
M  V30 1483 H 135.096 1.94013 -0.163419 0
M  V30 1484 H 133.267 3.3879 1.89936 0
M  V30 1485 H 134.999 3.61917 1.81103 0
M  V30 1486 H 131.754 4.73428 0.127702 0
M  V30 1487 H 132.178 6.53184 -1.77987 0
M  V30 1488 H 136.82 4.22798 -0.0128221 0
M  V30 1489 H 134.538 7.48327 -3.05011 0
M  V30 1490 H 138.124 5.58976 -1.61361 0
M  V30 1491 H 137.004 7.1982 -3.11174 0
M  V30 1492 N 134.507 -0.190092 1.56449 0
M  V30 1493 C 135.755 -0.907908 1.80559 0
M  V30 1494 C 136.076 -1.83583 0.657438 0
M  V30 1495 O 135.346 -1.93203 -0.323924 0
M  V30 1496 H 133.926 -0.338247 0.666032 0
M  V30 1497 H 136.588 -0.194403 1.93928 0
M  V30 1498 H 135.684 -1.49604 2.73907 0
M  V30 1499 N 135.985 -1.50799 -0.457987 0
M  V30 1500 C 136.948 -1.7005 -1.53674 0
M  V30 1501 C 137.948 -0.570881 -1.50325 0
M  V30 1502 O 139.138 -0.838126 -1.52712 0
M  V30 1503 C 136.27 -1.73788 -2.93276 0
M  V30 1504 H 137.463 -2.66306 -1.37917 0
M  V30 1505 H 135.016 -1.40477 -0.685271 0
M  V30 1506 H 135.751 -0.792717 -3.14462 0
M  V30 1507 H 135.536 -2.55864 -2.97113 0
M  V30 1508 H 137.026 -1.90591 -3.71571 0
M  V30 1509 N 137.463 0.71206 -1.40597 0
M  V30 1510 C 138.709 1.47292 -1.40274 0
M  V30 1511 C 139.064 1.92399 -0.00576812 0
M  V30 1512 O 138.357 1.65507 0.965297 0
M  V30 1513 C 138.551 2.71039 -2.32965 0
M  V30 1514 C 138.38 2.38035 -3.81536 0
M  V30 1515 C 137.15 2.29203 -4.50327 0
M  V30 1516 C 139.348 2.02076 -4.72938 0
M  V30 1517 N 137.33 1.88911 -5.84111 0
M  V30 1518 C 138.701 1.72412 -5.95545 0
M  V30 1519 C 140.756 1.88742 -4.60739 0
M  V30 1520 C 139.459 1.30756 -7.07316 0
M  V30 1521 C 141.485 1.4849 -5.72455 0
M  V30 1522 C 140.847 1.19726 -6.94151 0
M  V30 1523 H 136.946 0.536919 -0.568544 0
M  V30 1524 H 139.53 0.825424 -1.76337 0
M  V30 1525 H 137.701 3.33533 -1.99023 0
M  V30 1526 H 139.433 3.37404 -2.23474 0
M  V30 1527 H 136.188 2.47059 -4.04053 0
M  V30 1528 H 136.612 1.71293 -6.54972 0
M  V30 1529 H 141.254 2.0964 -3.67166 0
M  V30 1530 H 138.972 1.08601 -8.00769 0
M  V30 1531 H 142.558 1.38747 -5.65014 0
M  V30 1532 H 141.438 0.890482 -7.79128 0
M  V30 1533 N 138.941 1.26152 0.944643 0
M  V30 1534 C 140.189 1.11271 1.6871 0
M  V30 1535 C 140.51 -0.345166 1.91921 0
M  V30 1536 O 139.78 -1.24387 1.51343 0
M  V30 1537 H 138.36 0.408783 0.625224 0
M  V30 1538 H 141.022 1.58427 1.1352 0
M  V30 1539 H 140.118 1.62879 2.66227 0
M  V30 1540 N 140.419 -1.14872 1.07899 0
M  V30 1541 C 141.349 -2.2193 0.725887 0
M  V30 1542 C 142.33 -1.67622 -0.28927 0
M  V30 1543 O 143.515 -1.93533 -0.160787 0
M  V30 1544 C 140.645 -3.47061 0.128856 0
M  V30 1545 C 139.599 -4.14363 1.07178 0
M  V30 1546 C 138.925 -5.33636 0.337229 0
M  V30 1547 C 140.225 -4.63492 2.40775 0
M  V30 1548 H 141.919 -2.51724 1.62097 0
M  V30 1549 H 139.465 -1.20991 0.780838 0
M  V30 1550 H 141.418 -4.21199 -0.130147 0
M  V30 1551 H 140.142 -3.16617 -0.80134 0
M  V30 1552 H 138.801 -3.42173 1.3158 0
M  V30 1553 H 138.449 -4.99449 -0.596606 0
M  V30 1554 H 138.149 -5.79609 0.965788 0
M  V30 1555 H 139.673 -6.10539 0.0861567 0
M  V30 1556 H 141.087 -5.2913 2.20669 0
M  V30 1557 H 139.484 -5.20148 2.99276 0
M  V30 1558 H 140.554 -3.78834 3.02676 0
M  V30 1559 N 141.898 -0.863906 -1.31812 0
M  V30 1560 C 143.146 -0.470904 -1.96537 0
M  V30 1561 C 143.467 0.978771 -1.68657 0
M  V30 1562 O 142.737 1.6853 -0.998717 0
M  V30 1563 H 141.317 -0.171148 -0.72713 0
M  V30 1564 H 143.979 -1.10236 -1.60729 0
M  V30 1565 H 143.075 -0.623616 -3.05806 0
M  V30 1566 N 143.376 1.44774 -0.622745 0
M  V30 1567 C 144.306 2.33382 0.0741861 0
M  V30 1568 C 145.287 1.47719 0.843387 0
M  V30 1569 O 146.472 1.76458 0.810934 0
M  V30 1570 C 143.602 3.30663 1.06204 0
M  V30 1571 C 142.556 4.26079 0.405037 0
M  V30 1572 C 141.882 5.13165 1.5022 0
M  V30 1573 C 143.182 5.1781 -0.683414 0
M  V30 1574 H 144.876 2.91905 -0.665713 0
M  V30 1575 H 142.422 1.40363 -0.321587 0
M  V30 1576 H 144.375 3.9153 1.55827 0
M  V30 1577 H 143.099 2.70331 1.83272 0
M  V30 1578 H 141.758 3.66532 -0.0704683 0
M  V30 1579 H 141.406 4.49191 2.26355 0
M  V30 1580 H 141.106 5.77812 1.06803 0
M  V30 1581 H 142.63 5.76902 2.00041 0
M  V30 1582 H 144.044 5.72661 -0.270631 0
M  V30 1583 H 142.441 5.91015 -1.04023 0
M  V30 1584 H 143.511 4.59326 -1.55395 0
M  V30 1585 N 144.854 0.36279 1.53368 0
M  V30 1586 C 146.102 -0.227326 2.00817 0
M  V30 1587 C 146.423 -1.49511 1.25186 0
M  V30 1588 O 145.693 -1.92482 0.364348 0
M  V30 1589 H 144.273 -0.0869923 0.741917 0
M  V30 1590 H 146.935 0.488381 1.88682 0
M  V30 1591 H 146.031 -0.456273 3.08747 0
M  V30 1592 N 146.332 -1.57332 0.0918853 0
M  V30 1593 C 147.579 -1.94236 -0.572577 0
M  V30 1594 C 147.907 -0.973398 -1.6839 0
M  V30 1595 O 147.162 0.00756912 -1.95699 0
M  V30 1596 C 147.461 -3.37689 -1.17051 0
M  V30 1597 C 147.127 -4.50527 -0.183304 0
M  V30 1598 C 145.789 -4.81119 0.0882276 0
M  V30 1599 C 148.141 -5.18883 0.49095 0
M  V30 1600 C 145.469 -5.77395 1.04076 0
M  V30 1601 C 147.821 -6.1618 1.43193 0
M  V30 1602 C 146.485 -6.45179 1.71173 0
M  V30 1603 H 145.755 -0.710762 -0.209521 0
M  V30 1604 H 148.402 -1.9077 0.167036 0
M  V30 1605 H 146.707 -3.37718 -1.9863 0
M  V30 1606 H 148.404 -3.63543 -1.69227 0
M  V30 1607 H 144.994 -4.26681 -0.405124 0
M  V30 1608 H 149.178 -4.95427 0.294312 0
M  V30 1609 H 144.434 -5.98179 1.26457 0
M  V30 1610 H 148.608 -6.68243 1.96023 0
M  V30 1611 H 146.235 -7.1959 2.4514 0
M  V30 1612 N 147.81 0.181792 -1.56548 0
M  V30 1613 C 148.74 1.22765 -1.98623 0
M  V30 1614 C 149.721 1.46747 -0.860189 0
M  V30 1615 O 150.906 1.58259 -1.12551 0
M  V30 1616 C 148.036 2.56894 -2.33715 0
M  V30 1617 C 146.99 2.475 -3.49182 0
M  V30 1618 C 146.316 3.86023 -3.69986 0
M  V30 1619 C 147.616 1.98866 -4.82959 0
M  V30 1620 H 149.31 0.877942 -2.86239 0
M  V30 1621 H 146.856 0.42088 -1.37712 0
M  V30 1622 H 148.809 3.30253 -2.61746 0
M  V30 1623 H 147.533 2.93632 -1.42997 0
M  V30 1624 H 146.192 1.76596 -3.21262 0
M  V30 1625 H 145.84 4.20136 -2.76576 0
M  V30 1626 H 145.54 3.80609 -4.47672 0
M  V30 1627 H 147.064 4.60984 -4.00407 0
M  V30 1628 H 148.478 2.61992 -5.09934 0
M  V30 1629 H 146.875 2.04424 -5.64208 0
M  V30 1630 H 147.945 0.942465 -4.75653 0
M  V30 1631 N 149.288 1.51039 0.449983 0
M  V30 1632 C 150.516 1.66869 1.2232 0
M  V30 1633 C 150.931 0.360727 1.85322 0
M  V30 1634 O 150.288 -0.659531 1.70166 0
M  V30 1635 C 150.339 2.77524 2.31652 0
M  V30 1636 O 150.06 4.03252 1.7123 0
M  V30 1637 C 151.561 3.04512 3.2216 0
M  V30 1638 H 148.781 0.560326 0.369155 0
M  V30 1639 H 151.325 1.97385 0.534719 0
M  V30 1640 H 149.48 2.49642 2.96239 0
M  V30 1641 H 149.894 4.64609 2.43389 0
M  V30 1642 H 151.368 3.85551 3.95038 0
M  V30 1643 H 151.845 2.16415 3.8218 0
M  V30 1644 H 152.451 3.34005 2.63288 0
M  V30 1645 N 150.766 -0.704594 1.40972 0
M  V30 1646 C 152.014 -1.46169 1.39568 0
M  V30 1647 C 152.335 -1.95 0.00253745 0
M  V30 1648 O 151.605 -1.71095 -0.954114 0
M  V30 1649 H 150.185 -0.542326 0.513704 0
M  V30 1650 H 152.847 -0.834553 1.76128 0
M  V30 1651 H 151.943 -2.32922 2.07735 0
M  V30 1652 N 152.244 -1.26651 -0.937939 0
M  V30 1653 C 153.492 -1.12165 -1.68118 0
M  V30 1654 C 153.813 0.334983 -1.92101 0
M  V30 1655 O 153.083 1.23583 -1.52 0
M  V30 1656 H 151.663 -0.412093 -0.623048 0
M  V30 1657 H 154.325 -1.59027 -1.12678 0
M  V30 1658 H 153.421 -1.64289 -2.6536 0
M  V30 1659 N 153.722 1.14298 -1.08507 0
M  V30 1660 C 154.652 2.21542 -0.737646 0
M  V30 1661 C 155.633 1.67773 0.280377 0
M  V30 1662 O 156.818 1.93616 0.150521 0
M  V30 1663 C 153.948 3.46988 -0.147259 0
M  V30 1664 C 152.902 4.13789 -1.09374 0
M  V30 1665 C 152.228 5.33449 -0.365524 0
M  V30 1666 C 153.528 4.62208 -2.4323 0
M  V30 1667 H 155.222 2.5086 -1.6343 0
M  V30 1668 H 152.768 1.20576 -0.787243 0
M  V30 1669 H 154.721 4.21262 0.107808 0
M  V30 1670 H 153.445 3.17037 0.784538 0
M  V30 1671 H 152.104 3.4147 -1.33393 0
M  V30 1672 H 151.752 4.99759 0.57011 0
M  V30 1673 H 151.452 5.79088 -0.996512 0
M  V30 1674 H 152.976 6.10485 -0.118534 0
M  V30 1675 H 154.39 5.27952 -2.23472 0
M  V30 1676 H 152.787 5.18553 -3.02031 0
M  V30 1677 H 153.857 3.77224 -3.04681 0
M  V30 1678 N 155.201 0.870884 1.31352 0
M  V30 1679 C 156.131 0.343096 2.30966 0
M  V30 1680 C 157.112 -0.566507 1.60389 0
M  V30 1681 O 158.297 -0.483336 1.88089 0
M  V30 1682 C 155.427 -0.455487 3.443 0
M  V30 1683 C 154.381 0.361103 4.26474 0
M  V30 1684 C 153.707 -0.563221 5.31725 0
M  V30 1685 C 155.007 1.59566 4.97329 0
M  V30 1686 H 156.701 1.17548 2.75359 0
M  V30 1687 H 154.247 0.566686 1.32381 0
M  V30 1688 H 156.2 -0.83525 4.13039 0
M  V30 1689 H 154.924 -1.32139 2.98675 0
M  V30 1690 H 153.583 0.722825 3.59403 0
M  V30 1691 H 153.231 -1.42643 4.82351 0
M  V30 1692 H 152.931 -0.0207409 5.87596 0
M  V30 1693 H 154.455 -0.939808 6.03324 0
M  V30 1694 H 155.869 1.28728 5.58661 0
M  V30 1695 H 154.266 2.07728 5.63 0
M  V30 1696 H 155.336 2.34798 4.24262 0
M  V30 1697 N 156.679 -1.44442 0.630414 0
M  V30 1698 C 157.909 -2.06115 0.141465 0
M  V30 1699 C 158.317 -1.47179 -1.1889 0
M  V30 1700 O 157.66 -0.588873 -1.74006 0
M  V30 1701 C 157.722 -3.59467 -0.0484355 0
M  V30 1702 C 157.386 -4.40864 1.20366 0
M  V30 1703 C 158.383 -4.74391 2.12719 0
M  V30 1704 C 156.068 -4.8125 1.43887 0
M  V30 1705 C 158.062 -5.47186 3.26904 0
M  V30 1706 C 155.749 -5.53795 2.5837 0
M  V30 1707 C 156.747 -5.86682 3.49705 0
M  V30 1708 O 156.435 -6.57749 4.62191 0
M  V30 1709 H 156.167 -0.671648 0.0765792 0
M  V30 1710 H 158.721 -1.86312 0.864695 0
M  V30 1711 H 156.951 -3.77758 -0.826803 0
M  V30 1712 H 158.64 -4.02909 -0.491849 0
M  V30 1713 H 159.406 -4.43728 1.95781 0
M  V30 1714 H 155.285 -4.55073 0.736853 0
M  V30 1715 H 158.829 -5.72773 3.98217 0
M  V30 1716 H 154.726 -5.83872 2.75251 0
M  V30 1717 H 155.494 -6.76217 4.61164 0
M  V30 1718 N 158.157 -0.370918 -1.53173 0
M  V30 1719 C 159.087 0.464847 -2.28826 0
M  V30 1720 C 160.068 1.07936 -1.31468 0
M  V30 1721 O 161.253 1.0956 -1.60344 0
M  V30 1722 C 158.383 1.60196 -3.08147 0
M  V30 1723 C 157.337 1.11443 -4.13237 0
M  V30 1724 C 156.663 2.3422 -4.80672 0
M  V30 1725 C 157.963 0.195384 -5.21934 0
M  V30 1726 H 159.657 -0.166329 -2.98938 0
M  V30 1727 H 157.203 -0.0814359 -1.4377 0
M  V30 1728 H 159.156 2.19332 -3.59822 0
M  V30 1729 H 157.88 2.26045 -2.35735 0
M  V30 1730 H 156.539 0.545727 -3.62515 0
M  V30 1731 H 156.187 2.98537 -4.04827 0
M  V30 1732 H 155.887 2.02269 -5.51689 0
M  V30 1733 H 157.411 2.94032 -5.35143 0
M  V30 1734 H 158.825 0.694375 -5.69079 0
M  V30 1735 H 157.222 -0.0335027 -6.00091 0
M  V30 1736 H 158.292 -0.760961 -4.78892 0
M  V30 1737 N 159.635 1.57281 -0.100228 0
M  V30 1738 C 160.883 1.94153 0.561157 0
M  V30 1739 C 161.204 0.983157 1.68401 0
M  V30 1740 O 160.474 0.0361132 1.95867 0
M  V30 1741 H 159.054 0.716791 0.210283 0
M  V30 1742 H 161.716 1.94202 -0.164765 0
M  V30 1743 H 160.812 2.96709 0.968008 0
M  V30 1744 N 161.113 -0.173488 1.56642 0
M  V30 1745 C 162.06 -1.21482 1.96242 0
M  V30 1746 C 163.03 -1.44104 0.826027 0
M  V30 1747 O 164.215 -1.5688 1.08597 0
M  V30 1748 C 161.355 -2.54964 2.32567 0
M  V30 1749 C 160.468 -2.39739 3.59373 0
M  V30 1750 C 159.603 -3.66072 3.84921 0
M  V30 1751 C 158.642 -3.45771 5.05083 0
M  V30 1752 N 157.779 -4.64169 5.26775 0
M  V30 1753 H 162.619 -0.870123 2.85014 0
M  V30 1754 H 160.156 -0.418245 1.41029 0
M  V30 1755 H 162.114 -3.32758 2.5165 0
M  V30 1756 H 160.744 -2.87433 1.46908 0
M  V30 1757 H 159.796 -1.53131 3.48217 0
M  V30 1758 H 161.108 -2.20683 4.47326 0
M  V30 1759 H 160.262 -4.52303 4.0436 0
M  V30 1760 H 159.001 -3.88105 2.9534 0
M  V30 1761 H 158.006 -2.57927 4.85545 0
M  V30 1762 H 159.231 -3.25163 5.96193 0
M  V30 1763 H 157.177 -4.86425 4.40144 0
M  V30 1764 H 157.094 -4.48019 6.08946 0
M  V30 1765 H 158.362 -5.51689 5.5069 0
M  V30 1766 N 162.591 -1.51276 -0.441967 0
M  V30 1767 C 163.839 -1.63392 -1.18943 0
M  V30 1768 C 164.16 -0.350159 -1.9183 0
M  V30 1769 O 163.43 0.633784 -1.85364 0
M  V30 1770 H 162.01 -0.602164 -0.442049 0
M  V30 1771 H 164.672 -1.88186 -0.507165 0
M  V30 1772 H 163.768 -2.45934 -1.92154 0
M  V30 1773 N 164.069 0.697108 -1.41344 0
M  V30 1774 C 165.294 1.49096 -1.44171 0
M  V30 1775 C 165.719 1.88038 -0.0481568 0
M  V30 1776 O 165.077 1.54525 0.948243 0
M  V30 1777 C 165.125 2.73088 -2.3549 0
M  V30 1778 O 164.229 3.70514 -1.81088 0
M  V30 1779 H 163.57 0.448801 -0.489361 0
M  V30 1780 H 166.1 0.856992 -1.85787 0
M  V30 1781 H 166.11 3.21413 -2.51312 0
M  V30 1782 H 164.785 2.44081 -3.36745 0
M  V30 1783 H 163.362 3.29441 -1.74708 0
M  V30 1784 N 165.547 1.27147 0.931209 0
M  V30 1785 C 166.479 1.05364 2.03546 0
M  V30 1786 C 167.492 0.0108438 1.62796 0
M  V30 1787 O 168.681 0.25202 1.76712 0
M  V30 1788 C 165.781 0.575566 3.33977 0
M  V30 1789 C 164.954 1.68985 4.03439 0
M  V30 1790 C 164.013 1.20813 5.12143 0
M  V30 1791 O 163.039 1.90712 5.363 0
M  V30 1792 N 164.241 0.0618851 5.80467 0
M  V30 1793 H 167.006 2.00454 2.22796 0
M  V30 1794 H 164.567 1.18666 1.10136 0
M  V30 1795 H 166.559 0.237264 4.04004 0
M  V30 1796 H 165.129 -0.282016 3.11325 0
M  V30 1797 H 164.349 2.19861 3.27192 0
M  V30 1798 H 165.637 2.4378 4.46597 0
M  V30 1799 H 165.035 -0.521621 5.6329 0
M  V30 1800 H 163.592 -0.217264 6.51438 0
M  V30 1801 N 167.025 -1.13721 1.09112 0
M  V30 1802 C 168.441 -1.36914 0.820174 0
M  V30 1803 C 168.641 -1.93356 -0.567079 0
M  V30 1804 O 167.697 -2.15093 -1.32255 0
M  V30 1805 C 169.01 -2.3235 1.90877 0
M  V30 1806 C 170.558 -2.45973 1.93562 0
M  V30 1807 C 171.033 -3.44714 3.01556 0
M  V30 1808 N 172.524 -3.52263 3.00775 0
M  V30 1809 C 173.259 -4.28536 3.80978 0
M  V30 1810 N 172.755 -5.07991 4.71081 0
M  V30 1811 N 174.548 -4.23804 3.69251 0
M  V30 1812 H 166.699 -0.754348 1.98553 0
M  V30 1813 H 168.962 -0.3944 0.862063 0
M  V30 1814 H 168.668 -1.98027 2.90651 0
M  V30 1815 H 168.542 -3.32332 1.78424 0
M  V30 1816 H 170.929 -2.79584 0.944286 0
M  V30 1817 H 171.01 -1.45926 2.10093 0
M  V30 1818 H 170.654 -3.11835 4.00901 0
M  V30 1819 H 170.584 -4.44558 2.82269 0
M  V30 1820 H 173.075 -2.95567 2.35475 0
M  V30 1821 H 173.388 -5.63487 5.28869 0
M  V30 1822 H 171.733 -5.07235 4.75119 0
M  V30 1823 H 174.924 -3.60806 2.98222 0
M  V30 1824 H 175.097 -4.82995 4.31995 0
M  V30 1825 N 168.503 -0.877838 -1.30888 0
M  V30 1826 C 169.466 -0.344265 -2.266 0
M  V30 1827 C 170.466 0.50922 -1.52524 0
M  V30 1828 O 171.656 0.317398 -1.71284 0
M  V30 1829 C 168.788 0.510198 -3.37061 0
M  V30 1830 H 169.981 -1.1893 -2.7531 0
M  V30 1831 H 167.534 -0.654088 -1.41956 0
M  V30 1832 H 168.269 1.37612 -2.93655 0
M  V30 1833 H 168.054 -0.101047 -3.9197 0
M  V30 1834 H 169.544 0.875537 -4.08319 0
M  V30 1835 N 169.982 1.44106 -0.638065 0
M  V30 1836 C 170.912 2.33448 0.0494287 0
M  V30 1837 C 171.893 1.48606 0.827672 0
M  V30 1838 O 173.078 1.77308 0.792173 0
M  V30 1839 C 170.208 3.31771 1.02691 0
M  V30 1840 C 169.162 4.26485 0.359823 0
M  V30 1841 C 168.488 5.14729 1.44769 0
M  V30 1842 C 169.788 5.17056 -0.738296 0
M  V30 1843 H 171.482 2.91183 -0.696636 0
M  V30 1844 H 169.028 1.40014 -0.336456 0
M  V30 1845 H 170.981 3.93161 1.51666 0
M  V30 1846 H 169.705 2.7226 1.80395 0
M  V30 1847 H 168.364 3.66437 -0.10934 0
M  V30 1848 H 168.012 4.51566 2.21578 0
M  V30 1849 H 167.712 5.78913 1.00668 0
M  V30 1850 H 169.236 5.78991 1.93911 0
M  V30 1851 H 170.65 5.72342 -0.331354 0
M  V30 1852 H 169.047 5.89879 -1.10286 0
M  V30 1853 H 170.117 4.57652 -1.60258 0
M  V30 1854 N 171.46 0.379036 1.52974 0
M  V30 1855 C 172.423 -0.448865 2.24762 0
M  V30 1856 C 173.423 -0.998689 1.26027 0
M  V30 1857 O 174.613 -0.882313 1.50203 0
M  V30 1858 C 171.745 -1.62872 2.99476 0
M  V30 1859 H 172.938 0.179491 2.99362 0
M  V30 1860 H 170.491 0.13096 1.5575 0
M  V30 1861 H 171.226 -2.29479 2.29151 0
M  V30 1862 H 171.011 -1.24128 3.71934 0
M  V30 1863 H 172.501 -2.2151 3.5401 0
M  V30 1864 N 172.938 -1.57226 0.108567 0
M  V30 1865 C 174.184 -1.95919 -0.546564 0
M  V30 1866 C 174.539 -0.990417 -1.6495 0
M  V30 1867 O 173.832 -0.0186593 -1.91591 0
M  V30 1868 C 174.026 -3.38911 -1.13463 0
M  V30 1869 C 173.855 -4.4961 -0.0901926 0
M  V30 1870 C 172.625 -5.04168 0.338008 0
M  V30 1871 C 174.823 -5.09693 0.686808 0
M  V30 1872 N 172.805 -5.98434 1.36931 0
M  V30 1873 C 174.176 -5.99804 1.56958 0
M  V30 1874 C 176.231 -4.92388 0.738846 0
M  V30 1875 C 174.934 -6.74463 2.49983 0
M  V30 1876 C 176.96 -5.67719 1.65676 0
M  V30 1877 C 176.322 -6.57507 2.52713 0
M  V30 1878 H 172.421 -0.763312 -0.169936 0
M  V30 1879 H 175.005 -1.93728 0.194264 0
M  V30 1880 H 173.176 -3.41769 -1.84522 0
M  V30 1881 H 174.908 -3.64752 -1.75322 0
M  V30 1882 H 171.663 -4.73571 -0.0523673 0
M  V30 1883 H 172.087 -6.5027 1.88356 0
M  V30 1884 H 176.729 -4.22724 0.080084 0
M  V30 1885 H 174.447 -7.4338 3.16878 0
M  V30 1886 H 178.033 -5.56338 1.70233 0
M  V30 1887 H 176.913 -7.14778 3.22586 0
M  V30 1888 N 174.416 0.165178 -1.56732 0
M  V30 1889 C 175.379 1.18822 -1.95995 0
M  V30 1890 C 176.379 1.3685 -0.84431 0
M  V30 1891 O 177.569 1.34152 -1.11126 0
M  V30 1892 C 174.701 2.5521 -2.26011 0
M  V30 1893 H 175.894 0.851825 -2.87548 0
M  V30 1894 H 173.447 0.407857 -1.50885 0
M  V30 1895 H 174.182 2.93852 -1.37191 0
M  V30 1896 H 173.967 2.43489 -3.07336 0
M  V30 1897 H 175.457 3.28927 -2.57288 0
M  V30 1898 N 175.894 1.51508 0.433938 0
M  V30 1899 C 176.824 1.76016 1.53429 0
M  V30 1900 C 177.805 0.610112 1.58782 0
M  V30 1901 O 178.99 0.853177 1.74455 0
M  V30 1902 C 176.12 1.88831 2.9148 0
M  V30 1903 C 175.074 3.04288 3.00987 0
M  V30 1904 C 174.4 3.0229 4.4105 0
M  V30 1905 C 175.7 4.44193 2.74754 0
M  V30 1906 H 177.394 2.68152 1.33171 0
M  V30 1907 H 174.94 1.29035 0.639214 0
M  V30 1908 H 176.893 2.04559 3.6842 0
M  V30 1909 H 175.617 0.933455 3.12976 0
M  V30 1910 H 174.276 2.8827 2.26486 0
M  V30 1911 H 173.924 2.04576 4.59519 0
M  V30 1912 H 173.624 3.79822 4.4834 0
M  V30 1913 H 175.148 3.20116 5.1996 0
M  V30 1914 H 176.562 4.60544 3.41426 0
M  V30 1915 H 174.959 5.23457 2.9345 0
M  V30 1916 H 176.029 4.53996 1.70339 0
M  V30 1917 N 177.372 -0.689602 1.41712 0
M  V30 1918 C 178.302 -1.81577 1.46806 0
M  V30 1919 C 179.283 -1.66945 0.326105 0
M  V30 1920 O 180.468 -1.86588 0.538377 0
M  V30 1921 C 177.598 -3.19762 1.35535 0
M  V30 1922 C 176.552 -3.49107 2.47605 0
M  V30 1923 C 175.878 -4.86711 2.21397 0
M  V30 1924 C 177.178 -3.47483 3.89939 0
M  V30 1925 H 178.872 -1.7757 2.41058 0
M  V30 1926 H 176.418 -0.852887 1.16025 0
M  V30 1927 H 178.371 -3.98263 1.3771 0
M  V30 1928 H 177.095 -3.24409 0.377708 0
M  V30 1929 H 175.754 -2.72959 2.44722 0
M  V30 1930 H 175.402 -4.8799 1.21961 0
M  V30 1931 H 175.102 -5.0731 2.96497 0
M  V30 1932 H 176.626 -5.67515 2.25297 0
M  V30 1933 H 178.04 -4.1598 3.94505 0
M  V30 1934 H 176.437 -3.79615 4.64771 0
M  V30 1935 H 177.507 -2.46341 4.17665 0
M  V30 1936 N 178.85 -1.27639 -0.924453 0
M  V30 1937 C 180.096 -1.14336 -1.67497 0
M  V30 1938 C 180.429 0.309465 -1.91718 0
M  V30 1939 O 179.704 1.22608 -1.50989 0
M  V30 1940 C 179.987 -1.93096 -3.0395 0
M  V30 1941 C 179.84 -3.46381 -2.8695 0
M  V30 1942 C 181.159 -1.73798 -4.0433 0
M  V30 1943 H 178.278 -0.416728 -0.607871 0
M  V30 1944 H 180.92 -1.56832 -1.07256 0
M  V30 1945 H 179.07 -1.56982 -3.55372 0
M  V30 1946 H 180.742 -3.92343 -2.42621 0
M  V30 1947 H 178.985 -3.72557 -2.22225 0
M  V30 1948 H 179.656 -3.96735 -3.83804 0
M  V30 1949 H 182.132 -2.05293 -3.61931 0
M  V30 1950 H 181.008 -2.31294 -4.97789 0
M  V30 1951 H 181.269 -0.686725 -4.36734 0
M  V30 1952 N 180.328 1.1314 -1.09713 0
M  V30 1953 C 181.575 1.84484 -0.834987 0
M  V30 1954 C 181.903 1.83689 0.639418 0
M  V30 1955 O 181.158 1.2724 1.4869 0
M  V30 1956 C 181.457 3.32167 -1.3191 0
M  V30 1957 C 181.123 3.53139 -2.80363 0
M  V30 1958 C 179.785 3.58571 -3.20905 0
M  V30 1959 C 182.137 3.60866 -3.76065 0
M  V30 1960 C 179.465 3.69267 -4.55916 0
M  V30 1961 C 181.817 3.73089 -5.10869 0
M  V30 1962 C 180.481 3.76775 -5.50996 0
M  V30 1963 H 179.751 0.675073 -0.305544 0
M  V30 1964 H 182.398 1.33554 -1.37243 0
M  V30 1965 H 180.703 3.85469 -0.701517 0
M  V30 1966 H 182.4 3.85821 -1.09284 0
M  V30 1967 H 178.99 3.49569 -2.47991 0
M  V30 1968 H 183.174 3.55946 -3.45855 0
M  V30 1969 H 178.43 3.70388 -4.86438 0
M  V30 1970 H 182.604 3.78011 -5.84877 0
M  V30 1971 H 180.231 3.84815 -6.55608 0
M  V30 1972 N 181.806 0.884767 1.30421 0
M  V30 1973 C 183.031 0.517288 2.00845 0
M  V30 1974 C 183.456 -0.886779 1.65885 0
M  V30 1975 O 182.814 -1.58768 0.875354 0
M  V30 1976 C 182.862 0.698994 3.5376 0
M  V30 1977 O 181.966 -0.255208 4.1161 0
M  V30 1978 H 181.307 0.203872 0.631927 0
M  V30 1979 H 183.837 1.19225 1.66272 0
M  V30 1980 H 183.847 0.597912 4.03595 0
M  V30 1981 H 182.522 1.72271 3.78544 0
M  V30 1982 H 181.099 -0.10784 3.72744 0
M  V30 1983 N 183.284 -1.43765 0.645699 0
M  V30 1984 C 184.214 -2.33471 -0.0370477 0
M  V30 1985 C 185.195 -1.49042 -0.819779 0
M  V30 1986 O 186.38 -1.77726 -0.782758 0
M  V30 1987 C 183.51 -3.32311 -1.0093 0
M  V30 1988 C 182.464 -4.2667 -0.337201 0
M  V30 1989 C 181.79 -5.1549 -1.42037 0
M  V30 1990 C 183.09 -5.16657 0.765706 0
M  V30 1991 H 184.784 -2.90809 0.712069 0
M  V30 1992 H 182.33 -1.39834 0.343876 0
M  V30 1993 H 184.283 -3.9396 -1.49578 0
M  V30 1994 H 183.007 -2.73213 -1.78948 0
M  V30 1995 H 181.666 -3.66374 0.128771 0
M  V30 1996 H 181.314 -4.52735 -2.1918 0
M  V30 1997 H 181.014 -5.79438 -0.975966 0
M  V30 1998 H 182.538 -5.80012 -1.90838 0
M  V30 1999 H 183.952 -5.72158 0.361702 0
M  V30 2000 H 182.349 -5.89286 1.13413 0
M  V30 2001 H 183.419 -4.56796 1.62683 0
M  V30 2002 N 184.763 -0.387143 -1.52771 0
M  V30 2003 C 186.009 0.196025 -2.0185 0
M  V30 2004 C 186.342 1.46641 -1.27319 0
M  V30 2005 O 185.617 1.90889 -0.373032 0
M  V30 2006 C 185.9 0.466136 -3.5707 0
M  V30 2007 C 185.753 -0.819385 -4.42274 0
M  V30 2008 C 187.072 1.25768 -4.21747 0
M  V30 2009 H 184.191 0.0697708 -0.73369 0
M  V30 2010 H 186.833 -0.516286 -1.82851 0
M  V30 2011 H 184.983 1.07293 -3.7339 0
M  V30 2012 H 186.655 -1.4563 -4.37709 0
M  V30 2013 H 184.898 -1.43517 -4.09372 0
M  V30 2014 H 185.569 -0.585065 -5.48891 0
M  V30 2015 H 188.045 0.744167 -4.09391 0
M  V30 2016 H 186.921 1.41541 -5.30337 0
M  V30 2017 H 187.182 2.27228 -3.79236 0
M  V30 2018 N 186.241 1.57166 -0.116904 0
M  V30 2019 C 187.204 2.14039 0.819742 0
M  V30 2020 C 188.204 1.07477 1.19605 0
M  V30 2021 O 189.394 1.33263 1.1219 0
M  V30 2022 C 186.526 2.67891 2.10826 0
M  V30 2023 H 187.719 2.98128 0.325511 0
M  V30 2024 H 185.272 1.55739 0.132312 0
M  V30 2025 H 186.007 1.87384 2.64685 0
M  V30 2026 H 185.792 3.45823 1.84793 0
M  V30 2027 H 187.282 3.11809 2.77785 0
M  V30 2028 N 187.719 -0.156864 1.56817 0
M  V30 2029 C 188.649 -1.19589 2.00551 0
M  V30 2030 C 189.63 -1.4536 0.883426 0
M  V30 2031 O 190.815 -1.56449 1.15054 0
M  V30 2032 C 187.945 -2.53143 2.37773 0
M  V30 2033 C 186.899 -2.41913 3.53075 0
M  V30 2034 C 186.225 -3.80088 3.76081 0
M  V30 2035 C 187.525 -1.91157 4.86062 0
M  V30 2036 H 189.219 -0.832293 2.87599 0
M  V30 2037 H 186.765 -0.398918 1.38364 0
M  V30 2038 H 188.718 -3.26047 2.66967 0
M  V30 2039 H 187.442 -2.91319 1.4765 0
M  V30 2040 H 186.101 -1.71462 3.24031 0
M  V30 2041 H 185.749 -4.15683 2.83225 0
M  V30 2042 H 185.449 -3.73439 4.53671 0
M  V30 2043 H 186.973 -4.54556 4.0769 0
M  V30 2044 H 188.387 -2.53846 5.14038 0
M  V30 2045 H 186.784 -1.95422 5.67389 0
M  V30 2046 H 187.854 -0.866673 4.77092 0
M  V30 2047 N 189.197 -1.51736 -0.425897 0
M  V30 2048 C 190.422 -1.69082 -1.20108 0
M  V30 2049 C 190.847 -0.392398 -1.83962 0
M  V30 2050 O 190.205 0.64858 -1.69302 0
M  V30 2051 C 190.253 -2.81604 -2.25237 0
M  V30 2052 O 189.357 -2.46004 -3.30992 0
M  V30 2053 H 188.698 -0.563408 -0.35138 0
M  V30 2054 H 191.228 -1.98358 -0.501512 0
M  V30 2055 H 191.238 -3.06025 -2.69838 0
M  V30 2056 H 189.913 -3.75817 -1.78142 0
M  V30 2057 H 188.49 -2.32195 -2.91787 0
M  V30 2058 N 190.675 0.682077 -1.42076 0
M  V30 2059 C 191.905 1.46844 -1.45329 0
M  V30 2060 C 192.313 1.89102 -0.0609328 0
M  V30 2061 O 191.656 1.58238 0.933082 0
M  V30 2062 C 191.718 2.75375 -2.31104 0
M  V30 2063 C 191.382 2.55238 -3.79081 0
M  V30 2064 C 192.379 2.20309 -4.70914 0
M  V30 2065 C 190.064 2.70459 -4.2327 0
M  V30 2066 C 192.058 2.00859 -6.04925 0
M  V30 2067 C 189.745 2.50624 -5.57343 0
M  V30 2068 C 190.743 2.15876 -6.47986 0
M  V30 2069 O 190.431 1.96227 -7.79583 0
M  V30 2070 H 190.163 0.4586 -0.496651 0
M  V30 2071 H 192.717 0.846131 -1.87162 0
M  V30 2072 H 190.947 3.40061 -1.84107 0
M  V30 2073 H 192.636 3.37231 -2.25898 0
M  V30 2074 H 193.402 2.08153 -4.38061 0
M  V30 2075 H 189.281 2.96485 -3.53012 0
M  V30 2076 H 192.825 1.7366 -6.75639 0
M  V30 2077 H 188.722 2.62375 -5.89771 0
M  V30 2078 H 189.49 2.10883 -7.90867 0
M  V30 2079 N 192.153 1.28127 0.917671 0
M  V30 2080 C 193.564 1.13622 1.48145 0
M  V30 2081 C 193.915 -0.275207 1.9426 0
M  V30 2082 O 193.04 -1.1691 1.82102 0
M  V30 2083 C 193.635 2.05648 2.69248 0
M  V30 2084 C 192.194 1.95219 3.21818 0
M  V30 2085 C 191.341 1.97618 1.94532 0
M  V30 2086 H 194.292 1.40874 0.730772 0
M  V30 2087 H 194.313 1.61818 3.44377 0
M  V30 2088 H 193.825 3.08365 2.35653 0
M  V30 2089 H 191.926 0.955244 3.60147 0
M  V30 2090 H 192.039 2.81976 3.87333 0
M  V30 2091 H 190.403 1.41973 2.11461 0
M  V30 2092 H 191.186 3.02007 1.63238 0
M  V30 2093 N 193.631 -1.12557 1.10312 0
M  V30 2094 C 194.879 -1.83675 0.843091 0
M  V30 2095 C 195.2 -1.84435 -0.633131 0
M  V30 2096 O 194.47 -1.30657 -1.45964 0
M  V30 2097 H 193.05 -0.680138 0.308904 0
M  V30 2098 H 195.712 -1.36301 1.39313 0
M  V30 2099 H 194.808 -2.87908 1.2048 0
M  V30 2100 N 195.109 -0.891671 -1.2995 0
M  V30 2101 C 196.039 -0.379797 -2.30391 0
M  V30 2102 C 197.02 0.540919 -1.6127 0
M  V30 2103 O 198.205 0.453352 -1.88834 0
M  V30 2104 C 195.335 0.400654 -3.44981 0
M  V30 2105 C 194.289 -0.428905 -4.25846 0
M  V30 2106 C 193.615 0.478557 -5.32554 0
M  V30 2107 C 194.915 -1.67458 -4.94727 0
M  V30 2108 H 196.609 -1.21914 -2.73454 0
M  V30 2109 H 194.155 -0.587675 -1.31462 0
M  V30 2110 H 196.108 0.769434 -4.14316 0
M  V30 2111 H 194.832 1.27371 -3.0074 0
M  V30 2112 H 193.491 -0.779911 -3.58208 0
M  V30 2113 H 193.139 1.34951 -4.84559 0
M  V30 2114 H 192.839 -0.0727433 -5.87555 0
M  V30 2115 H 194.363 0.843705 -6.04743 0
M  V30 2116 H 195.777 -1.376 -5.56542 0
M  V30 2117 H 194.174 -2.16659 -5.59624 0
M  V30 2118 H 195.244 -2.41518 -4.20473 0
M  V30 2119 N 196.587 1.43421 -0.653314 0
M  V30 2120 C 197.55 2.29182 0.0287951 0
M  V30 2121 C 198.55 1.42213 0.750465 0
M  V30 2122 O 199.74 1.63843 0.591701 0
M  V30 2123 C 196.872 3.24278 1.05151 0
M  V30 2124 H 198.065 2.90985 -0.725786 0
M  V30 2125 H 195.618 1.50702 -0.414545 0
M  V30 2126 H 196.353 2.6737 1.83532 0
M  V30 2127 H 196.138 3.88396 0.537687 0
M  V30 2128 H 197.628 3.88647 1.52786 0
M  V30 2129 N 198.065 0.39524 1.52563 0
M  V30 2130 C 198.995 -0.428384 2.29537 0
M  V30 2131 C 199.976 -1.05831 1.33169 0
M  V30 2132 O 201.161 -1.06995 1.62067 0
M  V30 2133 C 198.291 -1.55274 3.10656 0
M  V30 2134 C 197.245 -1.04855 4.14957 0
M  V30 2135 C 196.571 -2.26543 4.84337 0
M  V30 2136 C 197.871 -0.112324 5.22179 0
M  V30 2137 H 199.565 0.213867 2.98635 0
M  V30 2138 H 197.111 0.104298 1.43622 0
M  V30 2139 H 199.064 -2.1358 3.63265 0
M  V30 2140 H 197.788 -2.22266 2.39302 0
M  V30 2141 H 196.447 -0.487985 3.63338 0
M  V30 2142 H 196.095 -2.92059 4.09525 0
M  V30 2143 H 195.795 -1.93466 5.54837 0
M  V30 2144 H 197.319 -2.85481 5.39753 0
M  V30 2145 H 198.733 -0.603752 5.70112 0
M  V30 2146 H 197.13 0.128968 5.99961 0
M  V30 2147 H 198.2 0.837052 4.77621 0
M  V30 2148 N 199.544 -1.57102 0.125237 0
M  V30 2149 C 200.507 -2.14471 -0.80838 0
M  V30 2150 C 201.507 -1.0811 -1.19033 0
M  V30 2151 O 202.697 -1.33856 -1.11482 0
M  V30 2152 C 199.829 -2.69005 -2.09402 0
M  V30 2153 H 201.022 -2.98297 -0.309696 0
M  V30 2154 H 198.575 -1.55807 -0.124051 0
M  V30 2155 H 199.31 -1.88785 -2.63687 0
M  V30 2156 H 199.095 -3.46799 -1.82957 0
M  V30 2157 H 200.585 -3.13278 -2.76128 0
M  V30 2158 N 201.022 0.148545 -1.56898 0
M  V30 2159 C 202.268 0.862694 -1.83536 0
M  V30 2160 C 202.601 1.80889 -0.706604 0
M  V30 2161 O 201.876 1.92328 0.289885 0
M  V30 2162 C 202.159 1.63853 -3.20662 0
M  V30 2163 C 202.012 0.713925 -4.44098 0
M  V30 2164 C 203.331 2.60133 -3.54991 0
M  V30 2165 H 200.45 0.312179 -0.667618 0
M  V30 2166 H 203.092 0.127953 -1.89569 0
M  V30 2167 H 201.242 2.26489 -3.1565 0
M  V30 2168 H 202.914 0.098686 -4.61194 0
M  V30 2169 H 201.157 0.0234019 -4.33794 0
M  V30 2170 H 201.828 1.29278 -5.36648 0
M  V30 2171 H 204.304 2.07616 -3.60603 0
M  V30 2172 H 203.18 3.11468 -4.51972 0
M  V30 2173 H 203.441 3.41417 -2.80868 0
M  V30 2174 N 202.5 1.5196 0.417844 0
M  V30 2175 C 203.448 1.75278 1.52907 0
M  V30 2176 C 204.442 0.619611 1.57662 0
M  V30 2177 O 205.648 0.801457 1.61173 0
M  V30 2178 H 202.023 0.554141 0.508362 0
M  V30 2179 H 203.994 2.68389 1.30422 0
M  V30 2180 C 202.743 1.91262 2.90369 0
M  V30 2181 H 202.066 2.77872 2.8745 0
M  V30 2182 H 203.506 2.11581 3.67436 0
M  V30 2183 C 201.965 0.677431 3.30019 0
M  V30 2184 O 202.495 -0.158799 4.01386 0
M  V30 2185 N 200.701 0.515851 2.85985 0
M  V30 2186 H 200.248 1.19744 2.28077 0
M  V30 2187 H 200.206 -0.309315 3.12875 0
M  V30 2188 N 203.978 -0.674533 1.42435 0
M  V30 2189 C 204.908 -1.80009 1.48724 0
M  V30 2190 C 205.889 -1.6659 0.343793 0
M  V30 2191 O 207.074 -1.86007 0.558137 0
M  V30 2192 C 204.204 -3.18306 1.38919 0
M  V30 2193 C 203.158 -3.46461 2.51294 0
M  V30 2194 C 202.484 -4.84335 2.26547 0
M  V30 2195 C 203.784 -3.43328 3.93603 0
M  V30 2196 H 205.478 -1.75004 2.42928 0
M  V30 2197 H 203.024 -0.840533 1.16923 0
M  V30 2198 H 204.977 -3.9678 1.41927 0
M  V30 2199 H 203.701 -3.2399 0.412094 0
M  V30 2200 H 202.36 -2.70348 2.47604 0
M  V30 2201 H 202.008 -4.86669 1.2713 0
M  V30 2202 H 201.708 -5.04136 3.01861 0
M  V30 2203 H 203.232 -5.65094 2.31304 0
M  V30 2204 H 204.646 -4.11772 3.98894 0
M  V30 2205 H 203.043 -3.74664 4.68771 0
M  V30 2206 H 204.113 -2.41897 4.20255 0
M  V30 2207 N 205.456 -1.28612 -0.910864 0
M  V30 2208 C 206.404 -1.1265 -2.03501 0
M  V30 2209 C 207.398 -0.0450054 -1.6934 0
M  V30 2210 O 208.604 -0.203988 -1.7884 0
M  V30 2211 H 204.979 -0.347639 -0.666822 0
M  V30 2212 H 206.95 -2.07849 -2.14106 0
M  V30 2213 C 205.699 -0.808143 -3.38178 0
M  V30 2214 H 205.022 -1.63231 -3.6496 0
M  V30 2215 H 206.462 -0.736426 -4.17556 0
M  V30 2216 C 204.921 0.488226 -3.33344 0
M  V30 2217 O 205.451 1.51766 -3.71927 0
M  V30 2218 N 203.657 0.490009 -2.86439 0
M  V30 2219 H 203.204 -0.348161 -2.55236 0
M  V30 2220 H 203.162 1.35741 -2.83587 0
M  V30 2221 N 206.934 1.1197 -1.10907 0
M  V30 2222 C 208.35 1.35591 -0.841852 0
M  V30 2223 C 208.55 1.94233 0.536246 0
M  V30 2224 O 207.606 2.1717 1.28816 0
M  V30 2225 C 208.919 2.29284 -1.94549 0
M  V30 2226 C 210.467 2.42862 -1.97451 0
M  V30 2227 C 210.942 3.39873 -3.07002 0
M  V30 2228 N 212.433 3.47433 -3.06341 0
M  V30 2229 C 213.168 4.22421 -3.87748 0
M  V30 2230 N 212.664 5.00432 -4.79103 0
M  V30 2231 N 214.457 4.17876 -3.75946 0
M  V30 2232 H 206.608 0.722664 -1.99728 0
M  V30 2233 H 208.871 0.380635 -0.868229 0
M  V30 2234 H 208.577 1.93378 -2.93765 0
M  V30 2235 H 208.451 3.29452 -1.83688 0
M  V30 2236 H 210.838 2.78046 -0.988645 0
M  V30 2237 H 210.919 1.42566 -2.12388 0
M  V30 2238 H 210.563 3.05417 -4.05811 0
M  V30 2239 H 210.493 4.40011 -2.89306 0
M  V30 2240 H 212.984 2.91784 -2.40147 0
M  V30 2241 H 213.297 5.55002 -5.37766 0
M  V30 2242 H 211.642 4.99612 -4.83128 0
M  V30 2243 H 214.833 3.56016 -3.03924 0
M  V30 2244 H 215.006 4.76061 -4.39624 0
M  V30 2245 N 208.412 0.89855 1.29475 0
M  V30 2246 C 209.823 0.572537 1.77705 0
M  V30 2247 C 210.174 -0.911778 1.73727 0
M  V30 2248 O 209.299 -1.71288 1.32247 0
M  V30 2249 C 209.894 1.03252 3.22683 0
M  V30 2250 C 208.453 0.757687 3.68695 0
M  V30 2251 C 207.6 1.20787 2.49612 0
M  V30 2252 H 210.551 1.08139 1.16153 0
M  V30 2253 H 210.572 0.367307 3.78723 0
M  V30 2254 H 210.084 2.11285 3.25546 0
M  V30 2255 H 208.185 -0.310079 3.71308 0
M  V30 2256 H 208.298 1.35476 4.59547 0
M  V30 2257 H 206.662 0.626888 2.46865 0
M  V30 2258 H 207.445 2.29622 2.55203 0
M  V30 2259 N 209.89 -1.43072 0.660911 0
M  V30 2260 C 210.82 -2.33497 -0.0122829 0
M  V30 2261 C 211.801 -1.49903 -0.803925 0
M  V30 2262 O 212.986 -1.78546 -0.763864 0
M  V30 2263 C 210.116 -3.33363 -0.973994 0
M  V30 2264 C 209.07 -4.27003 -0.291928 0
M  V30 2265 C 208.396 -5.16967 -1.36562 0
M  V30 2266 C 209.696 -5.15816 0.820462 0
M  V30 2267 H 211.39 -2.90038 0.742873 0
M  V30 2268 H 208.936 -1.39461 0.358688 0
M  V30 2269 H 210.889 -3.95524 -1.45392 0
M  V30 2270 H 209.613 -2.75095 -1.7604 0
M  V30 2271 H 208.272 -3.66217 0.167623 0
M  V30 2272 H 207.92 -4.55034 -2.14366 0
M  V30 2273 H 207.62 -5.80441 -0.914454 0
M  V30 2274 H 209.144 -5.82003 -1.84675 0
M  V30 2275 H 210.558 -5.71742 0.422366 0
M  V30 2276 H 208.955 -5.8805 1.19656 0
M  V30 2277 H 210.025 -4.55045 1.67518 0
M  V30 2278 N 211.368 -0.403325 -1.52352 0
M  V30 2279 C 212.614 0.167015 -2.02713 0
M  V30 2280 C 212.969 1.43296 -1.28391 0
M  V30 2281 O 212.262 1.87796 -0.379885 0
M  V30 2282 C 212.456 0.474665 -3.54234 0
M  V30 2283 C 212.285 -0.759909 -4.43233 0
M  V30 2284 C 211.055 -1.28338 -4.88731 0
M  V30 2285 C 213.253 -1.63634 -4.87574 0
M  V30 2286 N 211.235 -2.47404 -5.6184 0
M  V30 2287 C 212.606 -2.67329 -5.59406 0
M  V30 2288 C 214.661 -1.65478 -4.69597 0
M  V30 2289 C 213.364 -3.72773 -6.15169 0
M  V30 2290 C 215.39 -2.69837 -5.26253 0
M  V30 2291 C 214.752 -3.72253 -5.98002 0
M  V30 2292 H 210.851 0.0228343 -0.781667 0
M  V30 2293 H 213.435 -0.556368 -1.86581 0
M  V30 2294 H 211.606 1.16709 -3.7045 0
M  V30 2295 H 213.338 1.03338 -3.91284 0
M  V30 2296 H 210.093 -0.842273 -4.6605 0
M  V30 2297 H 210.517 -3.07688 -6.0304 0
M  V30 2298 H 215.159 -0.876389 -4.13617 0
M  V30 2299 H 212.877 -4.51471 -6.70223 0
M  V30 2300 H 216.463 -2.72164 -5.14216 0
M  V30 2301 H 215.343 -4.51679 -6.41058 0
M  V30 2302 N 212.846 1.57033 -0.133567 0
M  V30 2303 C 213.794 2.17348 0.828412 0
M  V30 2304 C 214.788 1.12671 1.26498 0
M  V30 2305 O 215.994 1.30947 1.23502 0
M  V30 2306 H 212.369 0.695775 0.285309 0
M  V30 2307 H 214.34 2.96935 0.295372 0
M  V30 2308 C 213.089 2.79893 2.06289 0
M  V30 2309 H 212.412 3.60147 1.73592 0
M  V30 2310 H 213.852 3.25615 2.71572 0
M  V30 2311 C 212.311 1.77713 2.86216 0
M  V30 2312 O 212.841 1.23937 3.82103 0
M  V30 2313 N 211.047 1.47321 2.50489 0
M  V30 2314 H 210.594 1.91243 1.7258 0
M  V30 2315 H 210.552 0.79199 3.04261 0
M  V30 2316 N 214.325 -0.140222 1.56975 0
M  V30 2317 C 215.573 -0.850005 1.83356 0
M  V30 2318 C 215.894 -1.81399 0.71551 0
M  V30 2319 O 215.164 -1.94136 -0.262294 0
M  V30 2320 H 213.744 -0.316886 0.676456 0
M  V30 2321 H 216.406 -0.132608 1.94448 0
M  V30 2322 H 215.502 -1.40814 2.78528 0
M  V30 2323 N 215.803 -1.52179 -0.40978 0
M  V30 2324 C 216.733 -1.78435 -1.5061 0
M  V30 2325 C 217.714 -0.635295 -1.57791 0
M  V30 2326 O 218.899 -0.880823 -1.73076 0
M  V30 2327 C 216.029 -1.93444 -2.88439 0
M  V30 2328 C 214.983 -3.09038 -2.96108 0
M  V30 2329 C 214.309 -3.09268 -4.36185 0
M  V30 2330 C 215.609 -4.48508 -2.67652 0
M  V30 2331 H 217.303 -2.70237 -1.28889 0
M  V30 2332 H 214.849 -1.30036 -0.618605 0
M  V30 2333 H 216.802 -2.10394 -3.65119 0
M  V30 2334 H 215.526 -0.983129 -3.11452 0
M  V30 2335 H 214.185 -2.91837 -2.21872 0
M  V30 2336 H 213.833 -2.11861 -4.56206 0
M  V30 2337 H 213.533 -3.86907 -4.42241 0
M  V30 2338 H 215.057 -3.28348 -5.14801 0
M  V30 2339 H 216.471 -4.65918 -3.34056 0
M  V30 2340 H 214.868 -5.28059 -2.85085 0
M  V30 2341 H 215.938 -4.56649 -1.63095 0
M  V30 2342 N 217.281 0.66697 -1.42791 0
M  V30 2343 C 218.214 1.79177 -1.41318 0
M  V30 2344 C 219.192 1.60234 -0.276401 0
M  V30 2345 O 220.376 1.82602 -0.46785 0
M  V30 2346 C 217.503 3.16289 -1.21157 0
M  V30 2347 C 216.549 3.53964 -2.37932 0
M  V30 2348 S 217.382 3.55501 -4.00474 0
M  V30 2349 C 218.538 4.95292 -3.8267 0
M  V30 2350 H 218.771 1.80153 -2.365 0
M  V30 2351 H 216.304 0.838357 -1.29657 0
M  V30 2352 H 218.262 3.95428 -1.10212 0
M  V30 2353 H 216.923 3.1289 -0.275481 0
M  V30 2354 H 216.116 4.53646 -2.19594 0
M  V30 2355 H 215.718 2.82204 -2.45432 0
M  V30 2356 H 218.01 5.83584 -3.44145 0
M  V30 2357 H 218.953 5.18679 -4.82055 0
M  V30 2358 H 219.361 4.68179 -3.15386 0
M  V30 2359 N 218.759 1.29093 0.90403 0
M  V30 2360 C 219.722 1.1386 1.98919 0
M  V30 2361 C 220.722 0.0753457 1.60623 0
M  V30 2362 O 221.912 0.321931 1.71199 0
M  V30 2363 C 219.044 0.740198 3.32767 0
M  V30 2364 H 220.237 2.10246 2.13861 0
M  V30 2365 H 217.79 1.12218 1.08797 0
M  V30 2366 H 218.525 -0.223997 3.23525 0
M  V30 2367 H 218.31 1.50838 3.61926 0
M  V30 2368 H 219.8 0.656546 4.12407 0
M  V30 2369 N 220.237 -1.11381 1.11499 0
M  V30 2370 C 221.485 -1.8277 0.862524 0
M  V30 2371 C 221.806 -1.85097 -0.613534 0
M  V30 2372 O 221.076 -1.32198 -1.4457 0
M  V30 2373 H 219.656 -0.676823 0.316101 0
M  V30 2374 H 222.318 -1.34816 1.4075 0
M  V30 2375 H 221.414 -2.86614 1.23527 0
M  V30 2376 N 221.715 -0.905404 -1.28997 0
M  V30 2377 C 222.645 -0.404212 -2.29975 0
M  V30 2378 C 223.626 0.523784 -1.61835 0
M  V30 2379 O 224.811 0.433298 -1.89304 0
M  V30 2380 C 221.941 0.364042 -3.45387 0
M  V30 2381 C 220.895 -0.474048 -4.25367 0
M  V30 2382 C 220.221 0.422045 -5.33032 0
M  V30 2383 C 221.521 -1.72696 -4.92923 0
M  V30 2384 H 223.215 -1.24807 -2.72146 0
M  V30 2385 H 220.761 -0.601585 -1.30832 0
M  V30 2386 H 222.714 0.725447 -4.15109 0
M  V30 2387 H 221.438 1.24174 -3.02074 0
M  V30 2388 H 220.097 -0.81786 -3.57361 0
M  V30 2389 H 219.745 1.29804 -4.85963 0
M  V30 2390 H 219.445 -0.135057 -5.87445 0
M  V30 2391 H 220.969 0.779517 -6.05604 0
M  V30 2392 H 222.383 -1.43495 -5.55051 0
M  V30 2393 H 220.78 -2.22582 -5.57295 0
M  V30 2394 H 221.85 -2.45964 -4.17887 0
M  V30 2395 N 223.193 1.4272 -0.668489 0
M  V30 2396 C 224.44 2.01624 -0.18814 0
M  V30 2397 C 224.768 1.5282 1.20317 0
M  V30 2398 O 224.023 0.718323 1.8204 0
M  V30 2399 C 224.322 3.57021 -0.164499 0
M  V30 2400 C 223.988 4.25232 -1.49962 0
M  V30 2401 C 222.65 4.4358 -1.8652 0
M  V30 2402 C 225.002 4.63727 -2.37921 0
M  V30 2403 C 222.33 4.97694 -3.10674 0
M  V30 2404 C 224.682 5.19218 -3.6138 0
M  V30 2405 C 223.346 5.3578 -3.98115 0
M  V30 2406 H 222.616 0.737795 -0.0688454 0
M  V30 2407 H 225.263 1.70991 -0.862225 0
M  V30 2408 H 223.568 3.87285 0.593079 0
M  V30 2409 H 225.265 4.00372 0.224271 0
M  V30 2410 H 221.855 4.11306 -1.20522 0
M  V30 2411 H 226.039 4.4923 -2.10964 0
M  V30 2412 H 221.295 5.08702 -3.39164 0
M  V30 2413 H 225.469 5.4799 -4.29743 0
M  V30 2414 H 223.096 5.77475 -4.94395 0
M  V30 2415 N 224.671 0.411399 1.52136 0
M  V30 2416 C 226.082 -0.0576826 1.86611 0
M  V30 2417 C 226.433 -1.44238 1.33003 0
M  V30 2418 O 225.558 -2.05759 0.670228 0
M  V30 2419 C 226.153 -0.111448 3.38617 0
M  V30 2420 C 224.712 -0.52487 3.72723 0
M  V30 2421 C 223.859 0.299176 2.75681 0
M  V30 2422 H 226.81 0.628368 1.4573 0
M  V30 2423 H 226.831 -0.926252 3.69054 0
M  V30 2424 H 226.343 0.896488 3.77604 0
M  V30 2425 H 224.444 -1.53936 3.39315 0
M  V30 2426 H 224.557 -0.267681 4.78352 0
M  V30 2427 H 222.921 -0.238814 2.53578 0
M  V30 2428 H 223.704 1.3055 3.17508 0
M  V30 2429 N 226.149 -1.5696 0.141893 0
M  V30 2430 C 227.079 -2.19516 -0.795936 0
M  V30 2431 C 228.06 -1.14187 -1.26077 0
M  V30 2432 O 229.245 -1.42511 -1.31925 0
M  V30 2433 C 226.375 -2.81272 -2.03723 0
M  V30 2434 C 225.329 -3.92384 -1.70936 0
M  V30 2435 C 224.655 -4.41052 -3.02287 0
M  V30 2436 C 225.955 -5.13403 -0.959954 0
M  V30 2437 H 227.649 -2.98138 -0.274596 0
M  V30 2438 H 225.195 -1.43406 -0.130636 0
M  V30 2439 H 227.148 -3.237 -2.69808 0
M  V30 2440 H 225.872 -1.99973 -2.58221 0
M  V30 2441 H 224.531 -3.50566 -1.07232 0
M  V30 2442 H 224.179 -3.56582 -3.54765 0
M  V30 2443 H 223.879 -5.15993 -2.81114 0
M  V30 2444 H 225.403 -4.86146 -3.69451 0
M  V30 2445 H 226.817 -5.52706 -1.52279 0
M  V30 2446 H 225.214 -5.94073 -0.848357 0
M  V30 2447 H 226.284 -4.84875 0.0492434 0
M  V30 2448 N 227.627 0.131896 -1.57047 0
M  V30 2449 C 228.855 0.856461 -1.88341 0
M  V30 2450 C 229.27 1.74042 -0.731757 0
M  V30 2451 O 228.627 1.80051 0.297945 0
M  V30 2452 C 228.678 1.70064 -3.18999 0
M  V30 2453 O 228.399 0.852278 -4.2973 0
M  V30 2454 C 229.9 2.53148 -3.63911 0
M  V30 2455 H 227.12 0.246885 -0.62393 0
M  V30 2456 H 229.664 0.120152 -2.04147 0
M  V30 2457 H 227.819 2.38984 -3.04902 0
M  V30 2458 H 228.233 1.43329 -5.04537 0
M  V30 2459 H 229.707 3.07931 -4.58129 0
M  V30 2460 H 230.184 3.29901 -2.89935 0
M  V30 2461 H 230.79 1.89492 -3.80753 0
M  V30 2462 N 229.106 1.52395 0.401703 0
M  V30 2463 C 230.069 1.75636 1.47257 0
M  V30 2464 C 231.069 0.62628 1.48103 0
M  V30 2465 O 232.259 0.894227 1.49497 0
M  V30 2466 C 229.391 1.84553 2.86624 0
M  V30 2467 H 230.584 2.71241 1.27938 0
M  V30 2468 H 228.137 1.42923 0.632662 0
M  V30 2469 H 228.872 0.908882 3.11303 0
M  V30 2470 H 228.657 2.66715 2.87412 0
M  V30 2471 H 230.147 2.04251 3.64241 0
M  V30 2472 N 230.584 -0.659388 1.43143 0
M  V30 2473 C 231.514 -1.78422 1.50625 0
M  V30 2474 C 232.495 -1.66216 0.361443 0
M  V30 2475 O 233.68 -1.85404 0.577834 0
M  V30 2476 C 230.81 -3.16815 1.42287 0
M  V30 2477 C 229.764 -3.43777 2.54954 0
M  V30 2478 C 229.09 -4.81905 2.31671 0
M  V30 2479 C 230.39 -3.39134 3.97222 0
M  V30 2480 H 232.084 -1.72417 2.44771 0
M  V30 2481 H 229.63 -0.828084 1.17808 0
M  V30 2482 H 231.583 -3.95253 1.46127 0
M  V30 2483 H 230.307 -3.23534 0.446435 0
M  V30 2484 H 228.966 -2.67707 2.50457 0
M  V30 2485 H 228.614 -4.85294 1.32284 0
M  V30 2486 H 228.314 -5.00906 3.07192 0
M  V30 2487 H 229.838 -5.62609 2.37284 0
M  V30 2488 H 231.252 -4.07518 4.03239 0
M  V30 2489 H 229.649 -3.69671 4.72719 0
M  V30 2490 H 230.719 -2.37426 4.22797 0
M  V30 2491 N 232.062 -1.29571 -0.897171 0
M  V30 2492 C 233.308 -1.17863 -1.65034 0
M  V30 2493 C 233.641 0.268729 -1.92332 0
M  V30 2494 O 232.916 1.19378 -1.53555 0
M  V30 2495 C 233.199 -1.995 -2.99786 0
M  V30 2496 C 233.052 -3.5239 -2.79538 0
M  V30 2497 C 234.371 -1.82335 -4.00552 0
M  V30 2498 H 231.49 -0.429528 -0.598895 0
M  V30 2499 H 234.132 -1.59072 -1.03905 0
M  V30 2500 H 232.282 -1.64485 -3.51962 0
M  V30 2501 H 233.954 -3.97401 -2.34244 0
M  V30 2502 H 232.197 -3.77187 -2.14273 0
M  V30 2503 H 232.868 -4.04787 -3.75302 0
M  V30 2504 H 235.344 -2.12924 -3.57495 0
M  V30 2505 H 234.22 -2.41801 -4.92771 0
M  V30 2506 H 234.481 -0.779209 -4.35179 0
M  V30 2507 N 233.54 1.10788 -1.12088 0
M  V30 2508 C 234.47 2.19083 -0.807755 0
M  V30 2509 C 235.451 1.6858 0.226859 0
M  V30 2510 O 236.636 1.93997 0.0888475 0
M  V30 2511 C 233.766 3.46344 -0.257576 0
M  V30 2512 C 232.72 4.101 -1.22483 0
M  V30 2513 C 232.046 5.32016 -0.535052 0
M  V30 2514 C 233.346 4.54236 -2.57811 0
M  V30 2515 H 235.04 2.45534 -1.71328 0
M  V30 2516 H 232.586 1.1801 -0.825205 0
M  V30 2517 H 234.539 4.21392 -0.0262679 0
M  V30 2518 H 233.263 3.19373 0.683278 0
M  V30 2519 H 231.922 3.37054 -1.44189 0
M  V30 2520 H 231.57 5.01319 0.410827 0
M  V30 2521 H 231.27 5.75625 -1.18024 0
M  V30 2522 H 232.794 6.09799 -0.312695 0
M  V30 2523 H 234.208 5.20575 -2.40155 0
M  V30 2524 H 232.605 5.08682 -3.18375 0
M  V30 2525 H 233.675 3.6734 -3.16528 0
M  V30 2526 N 235.018 0.912232 1.28515 0
M  V30 2527 C 235.981 0.404223 2.25607 0
M  V30 2528 C 236.981 -0.468602 1.53821 0
M  V30 2529 O 238.171 -0.271873 1.72065 0
M  V30 2530 C 235.303 -0.420653 3.38295 0
M  V30 2531 H 236.496 1.26188 2.7206 0
M  V30 2532 H 234.049 0.691495 1.40171 0
M  V30 2533 H 234.784 -1.29777 2.97201 0
M  V30 2534 H 234.569 0.204935 3.91564 0
M  V30 2535 H 236.059 -0.766971 4.10496 0
M  V30 2536 N 236.496 -1.42363 0.676048 0
M  V30 2537 C 237.426 -2.33497 0.0124832 0
M  V30 2538 C 238.407 -1.50748 -0.787981 0
M  V30 2539 O 239.592 -1.79346 -0.744884 0
M  V30 2540 C 236.722 -3.34377 -0.938582 0
M  V30 2541 C 235.676 -4.27289 -0.246622 0
M  V30 2542 C 235.002 -5.18386 -1.31071 0
M  V30 2543 C 236.302 -5.14916 0.875125 0
M  V30 2544 H 237.996 -2.89233 0.773593 0
M  V30 2545 H 235.542 -1.39073 0.37346 0
M  V30 2546 H 237.495 -3.97044 -1.41188 0
M  V30 2547 H 236.219 -2.76947 -1.73113 0
M  V30 2548 H 234.878 -3.66018 0.206456 0
M  V30 2549 H 234.526 -4.57282 -2.09528 0
M  V30 2550 H 234.226 -5.81378 -0.852839 0
M  V30 2551 H 235.75 -5.83929 -1.78492 0
M  V30 2552 H 237.164 -5.71262 0.482983 0
M  V30 2553 H 235.561 -5.86747 1.25887 0
M  V30 2554 H 236.631 -4.53242 1.72335 0
M  V30 2555 N 237.974 -0.419461 -1.51915 0
M  V30 2556 C 239.222 0.152637 -2.01523 0
M  V30 2557 C 239.543 1.44762 -1.30649 0
M  V30 2558 O 238.813 1.90997 -0.435535 0
M  V30 2559 H 237.393 0.0593966 -0.744635 0
M  V30 2560 H 240.055 -0.558073 -1.86739 0
M  V30 2561 H 239.151 0.341369 -3.10227 0
M  V30 2562 N 239.452 1.56882 -0.150215 0
M  V30 2563 C 240.382 2.19935 0.784284 0
M  V30 2564 C 241.363 1.14854 1.25469 0
M  V30 2565 O 242.548 1.43209 1.31168 0
M  V30 2566 C 239.678 2.82349 2.02229 0
M  V30 2567 C 238.632 3.93285 1.68853 0
M  V30 2568 C 237.958 4.42649 2.99944 0
M  V30 2569 C 239.258 5.13904 0.932714 0
M  V30 2570 H 240.952 2.9828 0.258781 0
M  V30 2571 H 238.498 1.43473 0.123029 0
M  V30 2572 H 240.451 3.25126 2.68088 0
M  V30 2573 H 239.175 2.0134 2.57157 0
M  V30 2574 H 237.834 3.5113 1.05371 0
M  V30 2575 H 237.482 3.58458 3.52869 0
M  V30 2576 H 237.182 5.17476 2.78374 0
M  V30 2577 H 238.706 4.88099 3.66868 0
M  V30 2578 H 240.12 5.53506 1.49345 0
M  V30 2579 H 238.517 5.94515 0.81684 0
M  V30 2580 H 239.587 4.84842 -0.0749568 0
M  V30 2581 N 240.93 -0.123565 1.57115 0
M  V30 2582 C 241.893 -1.13583 1.99076 0
M  V30 2583 C 242.893 -1.34564 0.880296 0
M  V30 2584 O 244.083 -1.31158 1.14644 0
M  V30 2585 C 241.215 -2.49128 2.32698 0
M  V30 2586 H 242.408 -0.775287 2.89706 0
M  V30 2587 H 239.961 -0.36771 1.51913 0
M  V30 2588 H 240.696 -2.90111 1.44934 0
M  V30 2589 H 240.481 -2.35255 3.13684 0
M  V30 2590 H 241.971 -3.2199 2.65918 0
M  V30 2591 N 242.408 -1.52605 -0.393616 0
M  V30 2592 C 243.371 -1.76415 -1.46323 0
M  V30 2593 C 244.371 -0.634126 -1.47768 0
M  V30 2594 O 245.561 -0.902142 -1.4902 0
M  V30 2595 C 242.693 -1.8607 -2.85641 0
M  V30 2596 H 243.886 -2.71916 -1.26498 0
M  V30 2597 H 241.439 -1.43257 -0.625073 0
M  V30 2598 H 242.174 -0.925378 -3.10817 0
M  V30 2599 H 241.959 -2.68235 -2.85993 0
M  V30 2600 H 243.449 -2.06179 -3.63153 0
M  V30 2601 N 243.887 0.651787 -1.4349 0
M  V30 2602 C 244.817 1.77621 -1.51569 0
M  V30 2603 C 245.798 1.66022 -0.370253 0
M  V30 2604 O 246.983 1.85095 -0.587658 0
M  V30 2605 C 244.113 3.16056 -1.43966 0
M  V30 2606 C 243.067 3.4242 -2.56774 0
M  V30 2607 C 242.393 4.8067 -2.34223 0
M  V30 2608 C 243.693 3.37023 -3.99015 0
M  V30 2609 H 245.387 1.71117 -2.45681 0
M  V30 2610 H 242.933 0.821825 -1.18246 0
M  V30 2611 H 244.886 3.94472 -1.48221 0
M  V30 2612 H 243.61 3.23293 -0.463586 0
M  V30 2613 H 242.269 2.66375 -2.51873 0
M  V30 2614 H 241.917 4.84585 -1.34856 0
M  V30 2615 H 241.617 4.9927 -3.09844 0
M  V30 2616 H 243.141 5.61342 -2.40265 0
M  V30 2617 H 244.555 4.05374 -4.05395 0
M  V30 2618 H 242.952 3.67159 -4.74673 0
M  V30 2619 H 244.022 2.3518 -4.2405 0
M  V30 2620 N 245.365 1.30045 0.890287 0
M  V30 2621 C 246.295 1.18541 2.01172 0
M  V30 2622 C 247.276 0.0773356 1.69924 0
M  V30 2623 O 248.461 0.25845 1.92473 0
M  V30 2624 C 245.591 0.870941 3.36202 0
M  V30 2625 C 244.545 1.93637 3.81692 0
M  V30 2626 C 243.871 1.475 5.13953 0
M  V30 2627 C 245.171 3.34666 4.00994 0
M  V30 2628 H 246.865 2.12359 2.11054 0
M  V30 2629 H 244.411 1.02238 1.01407 0
M  V30 2630 H 246.364 0.777141 4.14172 0
M  V30 2631 H 245.088 -0.102926 3.26438 0
M  V30 2632 H 243.747 2.01972 3.05946 0
M  V30 2633 H 243.395 0.489551 5.00612 0
M  V30 2634 H 243.095 2.1876 5.4536 0
M  V30 2635 H 244.619 1.39489 5.94454 0
M  V30 2636 H 246.033 3.2912 4.69417 0
M  V30 2637 H 244.43 4.03966 4.43769 0
M  V30 2638 H 245.5 3.76949 3.05021 0
M  V30 2639 N 246.843 -1.10192 1.12674 0
M  V30 2640 C 247.79 -2.16606 0.796906 0
M  V30 2641 C 248.76 -1.64394 -0.237476 0
M  V30 2642 O 249.945 -1.90474 -0.111484 0
M  V30 2643 C 247.085 -3.44116 0.26043 0
M  V30 2644 C 246.198 -4.10268 1.35293 0
M  V30 2645 C 245.333 -5.25507 0.775621 0
M  V30 2646 C 244.372 -5.83567 1.84706 0
M  V30 2647 N 243.509 -6.90179 1.28829 0
M  V30 2648 H 248.349 -2.44163 1.70846 0
M  V30 2649 H 245.886 -1.19846 0.85295 0
M  V30 2650 H 247.844 -4.17143 -0.0686814 0
M  V30 2651 H 246.474 -3.16901 -0.614274 0
M  V30 2652 H 245.526 -3.35184 1.79877 0
M  V30 2653 H 246.838 -4.4946 2.16303 0
M  V30 2654 H 245.992 -6.05398 0.397327 0
M  V30 2655 H 244.731 -4.87656 -0.0656581 0
M  V30 2656 H 243.736 -5.02344 2.23452 0
M  V30 2657 H 244.961 -6.23482 2.69161 0
M  V30 2658 H 242.907 -6.54322 0.468881 0
M  V30 2659 H 242.824 -7.28097 2.03497 0
M  V30 2660 H 244.092 -7.73844 0.937311 0
M  V30 2661 N 248.321 -0.919034 -1.28029 0
M  V30 2662 C 249.546 -0.570357 -1.99403 0
M  V30 2663 C 249.971 0.842486 -1.68178 0
M  V30 2664 O 249.329 1.56391 -0.917141 0
M  V30 2665 C 249.377 -0.792541 -3.51783 0
M  V30 2666 O 248.481 0.145988 -4.12142 0
M  V30 2667 H 247.822 -0.220555 -0.6263 0
M  V30 2668 H 250.352 -1.23592 -1.63053 0
M  V30 2669 H 250.362 -0.704708 -4.01868 0
M  V30 2670 H 249.037 -1.82247 -3.73844 0
M  V30 2671 H 247.614 0.00897528 -3.72899 0
M  V30 2672 N 249.799 1.42003 -0.683588 0
M  V30 2673 C 251.21 1.84501 -0.285736 0
M  V30 2674 C 251.561 1.57213 1.17382 0
M  V30 2675 O 250.686 1.03642 1.89966 0
M  V30 2676 C 251.281 3.34912 -0.511821 0
M  V30 2677 C 249.84 3.76025 -0.168005 0
M  V30 2678 C 248.987 2.6551 -0.799983 0
M  V30 2679 H 251.938 1.31724 -0.885119 0
M  V30 2680 H 251.959 3.79784 0.233292 0
M  V30 2681 H 251.471 3.54741 -1.57418 0
M  V30 2682 H 249.572 3.61801 0.890567 0
M  V30 2683 H 249.685 4.75141 -0.614661 0
M  V30 2684 H 248.049 2.53654 -0.230568 0
M  V30 2685 H 248.832 2.8816 -1.86597 0
M  V30 2686 N 251.277 0.427512 1.51691 0
M  V30 2687 C 252.523 -0.134744 2.02953 0
M  V30 2688 C 252.878 -1.41235 1.30654 0
M  V30 2689 O 252.171 -1.87168 0.409713 0
M  V30 2690 C 252.365 -0.418249 3.54944 0
M  V30 2691 C 252.194 0.830327 4.41968 0
M  V30 2692 C 250.964 1.36097 4.86627 0
M  V30 2693 C 253.162 1.7137 4.84909 0
M  V30 2694 N 251.144 2.56311 5.57833 0
M  V30 2695 C 252.515 2.76195 5.55082 0
M  V30 2696 C 254.57 1.72928 4.66905 0
M  V30 2697 C 253.273 3.82512 6.09161 0
M  V30 2698 C 255.299 2.78175 5.21894 0
M  V30 2699 C 254.661 3.8172 5.92004 0
M  V30 2700 H 250.76 -0.0103958 0.781931 0
M  V30 2701 H 253.344 0.585981 1.85673 0
M  V30 2702 H 251.515 -1.10801 3.7226 0
M  V30 2703 H 253.247 -0.970999 3.92879 0
M  V30 2704 H 250.002 0.916311 4.64651 0
M  V30 2705 H 250.426 3.17242 5.98069 0
M  V30 2706 H 255.068 0.942081 4.12171 0
M  V30 2707 H 252.786 4.62077 6.62956 0
M  V30 2708 H 256.372 2.8031 5.09821 0
M  V30 2709 H 255.252 4.61821 6.33791 0
M  V30 2710 N 252.755 -1.56801 0.158532 0
M  V30 2711 C 253.718 -2.16138 -0.762705 0
M  V30 2712 C 254.718 -1.1061 -1.16713 0
M  V30 2713 O 255.908 -1.36191 -1.08617 0
M  V30 2714 C 253.04 -2.73386 -2.03649 0
M  V30 2715 H 254.233 -2.98886 -0.246354 0
M  V30 2716 H 251.786 -1.56035 -0.0909744 0
M  V30 2717 H 252.521 -1.94335 -2.59623 0
M  V30 2718 H 252.306 -3.50601 -1.75559 0
M  V30 2719 H 253.796 -3.19065 -2.6942 0
M  V30 2720 N 254.233 0.115231 -1.57178 0
M  V30 2721 C 255.163 1.1423 -2.03651 0
M  V30 2722 C 256.144 1.42967 -0.921655 0
M  V30 2723 O 257.329 1.53343 -1.19162 0
M  V30 2724 C 254.459 2.4675 -2.44401 0
M  V30 2725 C 253.413 2.32467 -3.59365 0
M  V30 2726 C 252.739 3.69984 -3.86026 0
M  V30 2727 C 254.039 1.78203 -4.90959 0
M  V30 2728 H 255.733 0.755749 -2.89705 0
M  V30 2729 H 253.279 0.362093 -1.39373 0
M  V30 2730 H 255.232 3.18854 -2.75517 0
M  V30 2731 H 253.956 2.87302 -1.55322 0
M  V30 2732 H 252.615 1.62811 -3.28463 0
M  V30 2733 H 252.263 4.08028 -2.94147 0
M  V30 2734 H 251.963 3.61279 -4.63412 0
M  V30 2735 H 253.487 4.43587 -4.19599 0
M  V30 2736 H 254.901 2.40128 -5.20587 0
M  V30 2737 H 253.298 1.8031 -5.72371 0
M  V30 2738 H 254.368 0.739876 -4.79222 0
M  V30 2739 N 255.711 1.52812 0.385517 0
M  V30 2740 C 256.958 1.68026 1.1302 0
M  V30 2741 C 257.286 0.421934 1.89868 0
M  V30 2742 O 256.541 -0.595749 1.86412 0
M  V30 2743 C 256.84 2.86856 2.13187 0
M  V30 2744 C 256.506 4.24159 1.5297 0
M  V30 2745 C 255.168 4.61501 1.36274 0
M  V30 2746 C 257.52 5.09627 1.09223 0
M  V30 2747 C 254.848 5.81966 0.743837 0
M  V30 2748 C 257.2 6.30719 0.487411 0
M  V30 2749 C 255.864 6.6679 0.307777 0
M  V30 2750 H 255.134 0.614849 0.413571 0
M  V30 2751 H 257.781 1.86962 0.414405 0
M  V30 2752 H 256.086 2.6235 2.90998 0
M  V30 2753 H 257.783 2.95821 2.70722 0
M  V30 2754 H 254.373 3.94746 1.66954 0
M  V30 2755 H 258.557 4.81343 1.20922 0
M  V30 2756 H 253.813 6.08519 0.592891 0
M  V30 2757 H 257.987 6.96259 0.140143 0
M  V30 2758 H 255.614 7.60001 -0.173879 0
M  V30 2759 N 257.189 -0.644168 1.43834 0
M  V30 2760 C 258.6 -1.22554 1.40845 0
M  V30 2761 C 258.951 -1.9585 0.117115 0
M  V30 2762 O 258.076 -2.01734 -0.783086 0
M  V30 2763 C 258.671 -2.22907 2.55143 0
M  V30 2764 C 257.23 -2.76501 2.5539 0
M  V30 2765 C 256.377 -1.51287 2.32396 0
M  V30 2766 H 259.328 -0.43563 1.52604 0
M  V30 2767 H 259.349 -3.05259 2.2715 0
M  V30 2768 H 258.861 -1.69533 3.49114 0
M  V30 2769 H 256.962 -3.33914 1.65324 0
M  V30 2770 H 257.075 -3.23429 3.53455 0
M  V30 2771 H 255.439 -1.78957 1.81236 0
M  V30 2772 H 256.222 -0.998336 3.28463 0
M  V30 2773 N 258.668 -1.30515 -0.883378 0
M  V30 2774 C 259.598 -1.19607 -2.00541 0
M  V30 2775 C 260.579 -0.086346 -1.69881 0
M  V30 2776 O 261.764 -0.268654 -1.92333 0
M  V30 2777 C 258.894 -0.888758 -3.35736 0
M  V30 2778 C 257.848 -1.95659 -3.8066 0
M  V30 2779 C 257.174 -1.50224 -5.13164 0
M  V30 2780 C 258.474 -3.36788 -3.99213 0
M  V30 2781 H 260.168 -2.13476 -2.09925 0
M  V30 2782 H 257.714 -1.02775 -1.00863 0
M  V30 2783 H 259.667 -0.799094 -4.13754 0
M  V30 2784 H 258.391 0.0856125 -3.26488 0
M  V30 2785 H 257.05 -2.03591 -3.04871 0
M  V30 2786 H 256.698 -0.516092 -5.00345 0
M  V30 2787 H 256.398 -2.2165 -5.44192 0
M  V30 2788 H 257.922 -1.42639 -5.93706 0
M  V30 2789 H 259.336 -3.31605 -4.67665 0
M  V30 2790 H 257.733 -4.06314 -4.41621 0
M  V30 2791 H 258.803 -3.78561 -3.03017 0
M  V30 2792 N 260.146 1.09593 -1.13257 0
M  V30 2793 C 261.562 1.33775 -0.870423 0
M  V30 2794 C 261.762 1.95327 0.494926 0
M  V30 2795 O 260.818 2.19853 1.2418 0
M  V30 2796 C 262.131 2.25106 -1.99369 0
M  V30 2797 C 263.679 2.3862 -2.02558 0
M  V30 2798 C 264.154 3.33285 -3.14142 0
M  V30 2799 N 265.645 3.40857 -3.13641 0
M  V30 2800 C 266.38 4.14101 -3.96621 0
M  V30 2801 N 265.876 4.90157 -4.8961 0
M  V30 2802 N 267.669 4.09808 -3.84726 0
M  V30 2803 H 259.82 0.680136 -2.01216 0
M  V30 2804 H 262.083 0.362133 -0.876107 0
M  V30 2805 H 261.789 1.87103 -2.97801 0
M  V30 2806 H 261.663 3.25481 -1.90635 0
M  V30 2807 H 264.05 2.75887 -1.0474 0
M  V30 2808 H 264.131 1.38028 -2.15364 0
M  V30 2809 H 263.775 2.96741 -4.12198 0
M  V30 2810 H 263.705 4.33776 -2.98574 0
M  V30 2811 H 266.196 2.86624 -2.46282 0
M  V30 2812 H 266.509 5.4347 -5.49418 0
M  V30 2813 H 264.854 4.89251 -4.93617 0
M  V30 2814 H 268.045 3.4949 -3.11408 0
M  V30 2815 H 268.218 4.66629 -4.49623 0
M  V30 2816 N 261.624 0.925811 1.2754 0
M  V30 2817 C 262.87 0.566092 1.94739 0
M  V30 2818 C 263.203 -0.890057 1.72603 0
M  V30 2819 O 262.478 -1.63467 1.05399 0
M  V30 2820 C 262.761 0.89054 3.48915 0
M  V30 2821 C 262.614 2.4003 3.80402 0
M  V30 2822 C 263.933 0.395101 4.38323 0
M  V30 2823 H 261.052 0.20714 0.707292 0
M  V30 2824 H 263.694 1.15725 1.50691 0
M  V30 2825 H 261.844 0.387452 3.86563 0
M  V30 2826 H 263.516 2.97494 3.52555 0
M  V30 2827 H 261.759 2.85028 3.2702 0
M  V30 2828 H 262.43 2.57785 4.8811 0
M  V30 2829 H 264.906 0.826241 4.07814 0
M  V30 2830 H 263.782 0.651086 5.45025 0
M  V30 2831 H 264.043 -0.704798 4.36446 0
M  V30 2832 N 263.102 -1.41638 0.69111 0
M  V30 2833 C 264.032 -2.3347 0.037248 0
M  V30 2834 C 265.013 -1.51575 -0.771947 0
M  V30 2835 O 266.198 -1.80126 -0.72582 0
M  V30 2836 C 263.328 -3.35354 -0.903064 0
M  V30 2837 C 262.282 -4.27526 -0.201288 0
M  V30 2838 C 261.608 -5.19747 -1.25565 0
M  V30 2839 C 262.908 -5.13959 0.929689 0
M  V30 2840 H 264.602 -2.88397 0.804227 0
M  V30 2841 H 262.148 -1.38669 0.388189 0
M  V30 2842 H 264.101 -3.98519 -1.36969 0
M  V30 2843 H 262.825 -2.78767 -1.70166 0
M  V30 2844 H 261.484 -3.65779 0.245265 0
M  V30 2845 H 261.132 -4.59479 -2.04666 0
M  V30 2846 H 260.832 -5.8225 -0.791128 0
M  V30 2847 H 262.356 -5.85789 -1.72288 0
M  V30 2848 H 263.77 -5.70718 0.543546 0
M  V30 2849 H 262.167 -5.85379 1.32103 0
M  V30 2850 H 263.237 -4.51389 1.77133 0
M  V30 2851 N 264.58 -0.43555 -1.51462 0
M  V30 2852 C 265.543 0.365137 -2.26273 0
M  V30 2853 C 266.543 0.951227 -1.29647 0
M  V30 2854 O 267.733 0.825958 -1.53374 0
M  V30 2855 C 264.865 1.51645 -3.05314 0
M  V30 2856 H 266.058 -0.290474 -2.9849 0
M  V30 2857 H 263.611 -0.188676 -1.55157 0
M  V30 2858 H 264.346 2.20816 -2.3751 0
M  V30 2859 H 264.131 1.10238 -3.76284 0
M  V30 2860 H 265.621 2.08218 -3.61987 0
M  V30 2861 N 266.058 1.56714 -0.166846 0
M  V30 2862 C 267.306 1.96358 0.478305 0
M  V30 2863 C 267.627 1.0537 1.6408 0
M  V30 2864 O 266.897 0.119154 1.95537 0
M  V30 2865 H 265.477 0.725065 0.179692 0
M  V30 2866 H 268.139 1.93329 -0.246985 0
M  V30 2867 H 267.235 3.00547 0.841292 0
M  V30 2868 N 267.536 -0.106894 1.57237 0
M  V30 2869 C 268.499 -1.11466 2.0027 0
M  V30 2870 C 269.499 -1.33623 0.894519 0
M  V30 2871 O 270.689 -1.29935 1.16028 0
M  V30 2872 C 267.821 -2.46646 2.35327 0
M  V30 2873 H 269.014 -0.744516 2.90512 0
M  V30 2874 H 266.567 -0.351576 1.52295 0
M  V30 2875 H 267.302 -2.88558 1.48003 0
M  V30 2876 H 267.087 -2.31915 3.16161 0
M  V30 2877 H 268.577 -3.19151 2.69318 0
M  V30 2878 N 269.014 -1.53014 -0.377408 0
M  V30 2879 C 270.239 -1.72818 -1.14668 0
M  V30 2880 C 270.664 -0.450725 -1.8262 0
M  V30 2881 O 270.022 0.59439 -1.7128 0
M  V30 2882 C 270.07 -2.88627 -2.16164 0
M  V30 2883 O 269.174 -2.56409 -3.22998 0
M  V30 2884 H 268.515 -0.574301 -0.333278 0
M  V30 2885 H 271.045 -1.99853 -0.438152 0
M  V30 2886 H 271.055 -3.14455 -2.59966 0
M  V30 2887 H 269.73 -3.81294 -1.66095 0
M  V30 2888 H 268.307 -2.4136 -2.84253 0
M  V30 2889 N 270.492 0.636531 -1.44174 0
M  V30 2890 C 271.422 1.76003 -1.53444 0
M  V30 2891 C 272.403 1.65619 -0.387841 0
M  V30 2892 O 273.588 1.84461 -0.607257 0
M  V30 2893 C 270.718 3.14511 -1.4731 0
M  V30 2894 C 269.672 3.39677 -2.60391 0
M  V30 2895 C 268.998 4.78159 -2.39308 0
M  V30 2896 C 270.298 3.32772 -4.02567 0
M  V30 2897 H 271.992 1.68501 -2.47483 0
M  V30 2898 H 269.538 0.809237 -1.19111 0
M  V30 2899 H 271.491 3.92878 -1.52397 0
M  V30 2900 H 270.215 3.22783 -0.49785 0
M  V30 2901 H 268.874 2.63688 -2.54684 0
M  V30 2902 H 268.522 4.83128 -1.39988 0
M  V30 2903 H 268.222 4.95956 -3.15122 0
M  V30 2904 H 269.746 5.58762 -2.46205 0
M  V30 2905 H 271.16 4.01051 -4.09672 0
M  V30 2906 H 269.557 3.62104 -4.7854 0
M  V30 2907 H 270.627 2.30669 -4.2652 0
M  V30 2908 N 271.97 1.30982 0.876444 0
M  V30 2909 C 272.9 1.20668 1.99903 0
M  V30 2910 C 273.881 0.095354 1.69833 0
M  V30 2911 O 275.066 0.27885 1.92188 0
M  V30 2912 C 272.196 0.90655 3.3526 0
M  V30 2913 C 271.15 1.97675 3.79617 0
M  V30 2914 C 270.476 1.52943 5.1236 0
M  V30 2915 C 271.776 3.389 3.97422 0
M  V30 2916 H 273.47 2.14586 2.0879 0
M  V30 2917 H 271.016 1.03308 1.00317 0
M  V30 2918 H 272.969 0.821025 4.13324 0
M  V30 2919 H 271.693 -0.0682969 3.26529 0
M  V30 2920 H 270.352 2.05205 3.03787 0
M  V30 2921 H 270 0.54262 5.00065 0
M  V30 2922 H 269.7 2.24532 5.43009 0
M  V30 2923 H 271.224 1.45786 5.92941 0
M  V30 2924 H 272.638 3.34081 4.659 0
M  V30 2925 H 271.035 4.0865 4.3946 0
M  V30 2926 H 272.105 3.80163 3.01006 0
M  V30 2927 N 273.449 -1.08991 1.13837 0
M  V30 2928 C 274.379 -2.17771 0.842507 0
M  V30 2929 C 275.36 -1.6892 -0.20001 0
M  V30 2930 O 276.545 -1.94113 -0.0579731 0
M  V30 2931 C 273.675 -3.4589 0.312644 0
M  V30 2932 C 272.629 -4.08099 1.28992 0
M  V30 2933 C 271.955 -5.31098 0.619623 0
M  V30 2934 C 273.255 -4.50077 2.65005 0
M  V30 2935 H 274.949 -2.42777 1.75213 0
M  V30 2936 H 272.495 -1.16682 0.843875 0
M  V30 2937 H 274.448 -4.21297 0.0933043 0
M  V30 2938 H 273.172 -3.20419 -0.632382 0
M  V30 2939 H 271.831 -3.34717 1.49533 0
M  V30 2940 H 271.479 -5.0191 -0.33102 0
M  V30 2941 H 271.179 -5.73674 1.27167 0
M  V30 2942 H 272.703 -6.09224 0.409669 0
M  V30 2943 H 274.117 -5.16688 2.48407 0
M  V30 2944 H 272.514 -5.03553 3.26427 0
M  V30 2945 H 273.584 -3.62257 3.22332 0
M  V30 2946 N 274.927 -0.932562 -1.27047 0
M  V30 2947 C 275.89 -0.440064 -2.24936 0
M  V30 2948 C 276.89 0.444071 -1.54547 0
M  V30 2949 O 278.08 0.244465 -1.72476 0
M  V30 2950 C 275.212 0.36678 -3.38921 0
M  V30 2951 H 276.405 -1.305 -2.70018 0
M  V30 2952 H 273.958 -0.713707 -1.39054 0
M  V30 2953 H 274.693 1.25033 -2.99228 0
M  V30 2954 H 274.478 -0.267204 -3.91188 0
M  V30 2955 H 275.968 0.701567 -4.11665 0
M  V30 2956 N 276.405 1.4127 -0.698611 0
M  V30 2957 C 277.335 2.33447 -0.049629 0
M  V30 2958 C 278.316 1.51982 0.763898 0
M  V30 2959 O 279.501 1.80509 0.716257 0
M  V30 2960 C 276.631 3.35828 0.885267 0
M  V30 2961 C 275.585 4.27627 0.178613 0
M  V30 2962 C 274.911 5.20406 1.22807 0
M  V30 2963 C 276.211 5.13459 -0.956933 0
M  V30 2964 H 277.905 2.87966 -0.81951 0
M  V30 2965 H 275.451 1.38461 -0.395538 0
M  V30 2966 H 277.404 3.9924 1.34854 0
M  V30 2967 H 276.128 2.79666 1.68685 0
M  V30 2968 H 274.787 3.65643 -0.26466 0
M  V30 2969 H 274.435 4.60558 2.02226 0
M  V30 2970 H 274.135 5.82661 0.760239 0
M  V30 2971 H 275.659 5.86695 1.69179 0
M  V30 2972 H 277.073 5.70421 -0.573805 0
M  V30 2973 H 275.47 5.8467 -1.35205 0
M  V30 2974 H 276.54 4.50443 -1.79524 0
M  V30 2975 N 277.883 0.443576 1.51229 0
M  V30 2976 C 278.813 -0.355142 2.30783 0
M  V30 2977 C 279.794 -1.0154 1.36468 0
M  V30 2978 O 280.979 -1.01785 1.65389 0
M  V30 2979 C 278.109 -1.45312 3.15439 0
M  V30 2980 C 277.063 -0.916002 4.18083 0
M  V30 2981 C 276.389 -2.1102 4.91299 0
M  V30 2982 C 277.689 0.0538602 5.22272 0
M  V30 2983 H 279.383 0.308767 2.97804 0
M  V30 2984 H 276.929 0.149937 1.43217 0
M  V30 2985 H 278.882 -2.01914 3.69876 0
M  V30 2986 H 277.606 -2.14541 2.46252 0
M  V30 2987 H 276.265 -0.372145 3.64706 0
M  V30 2988 H 275.913 -2.78882 4.18609 0
M  V30 2989 H 275.613 -1.75717 5.60712 0
M  V30 2990 H 277.137 -2.68164 5.48562 0
M  V30 2991 H 278.551 -0.422069 5.71744 0
M  V30 2992 H 276.948 0.319776 5.99247 0
M  V30 2993 H 278.018 0.98858 4.74716 0
M  V30 2994 N 279.361 -1.56624 0.175154 0
M  V30 2995 C 280.591 -2.01082 -0.474283 0
M  V30 2996 C 280.999 -1.05447 -1.57091 0
M  V30 2997 O 280.342 -0.0480595 -1.83637 0
M  V30 2998 C 280.404 -3.41963 -1.10911 0
M  V30 2999 C 280.068 -4.56742 -0.153666 0
M  V30 3000 C 281.065 -5.16076 0.629448 0
M  V30 3001 C 278.75 -5.02277 -0.0483776 0
M  V30 3002 C 280.744 -6.19377 1.50501 0
M  V30 3003 C 278.431 -6.05427 0.830768 0
M  V30 3004 C 279.429 -6.63849 1.60605 0
M  V30 3005 O 279.117 -7.64998 2.47049 0
M  V30 3006 H 278.849 -0.664261 -0.125432 0
M  V30 3007 H 281.403 -2.03549 0.275163 0
M  V30 3008 H 279.633 -3.36422 -1.90676 0
M  V30 3009 H 281.322 -3.70352 -1.66114 0
M  V30 3010 H 282.088 -4.81776 0.558297 0
M  V30 3011 H 277.967 -4.56513 -0.641611 0
M  V30 3012 H 281.511 -6.64906 2.1106 0
M  V30 3013 H 277.408 -6.39151 0.903107 0
M  V30 3014 H 278.176 -7.82336 2.40607 0
M  V30 3015 N 280.839 0.0985539 -1.57292 0
M  V30 3016 C 282.25 0.653457 -1.74891 0
M  V30 3017 C 282.601 1.7929 -0.796838 0
M  V30 3018 O 281.726 2.16385 0.0254886 0
M  V30 3019 C 282.321 1.19216 -3.17133 0
M  V30 3020 C 280.88 1.69316 -3.36168 0
M  V30 3021 C 280.027 0.601294 -2.70702 0
M  V30 3022 H 282.978 -0.127497 -1.58187 0
M  V30 3023 H 282.999 2.06154 -3.19814 0
M  V30 3024 H 282.511 0.362635 -3.86402 0
M  V30 3025 H 280.612 2.5468 -2.71972 0
M  V30 3026 H 280.725 1.78853 -4.44464 0
M  V30 3027 H 279.089 1.0399 -2.32504 0
M  V30 3028 H 279.872 -0.217592 -3.4261 0
M  V30 3029 N 282.317 1.53212 0.369288 0
M  V30 3030 C 283.247 1.82365 1.45826 0
M  V30 3031 C 284.228 0.676907 1.56051 0
M  V30 3032 O 285.413 0.926401 1.70679 0
M  V30 3033 C 282.543 2.01023 2.83208 0
M  V30 3034 C 281.497 3.1678 2.8781 0
M  V30 3035 C 280.823 3.20724 4.27832 0
M  V30 3036 C 282.123 4.55447 2.55667 0
M  V30 3037 H 283.817 2.73559 1.21678 0
M  V30 3038 H 281.363 1.3163 0.583911 0
M  V30 3039 H 283.316 2.20001 3.59413 0
M  V30 3040 H 282.04 1.06536 3.08736 0
M  V30 3041 H 280.699 2.97616 2.14056 0
M  V30 3042 H 280.347 2.23882 4.50429 0
M  V30 3043 H 280.047 3.98496 4.31827 0
M  V30 3044 H 281.571 3.41881 5.05915 0
M  V30 3045 H 282.985 4.74611 3.21586 0
M  V30 3046 H 281.382 5.35432 2.70984 0
M  V30 3047 H 282.452 4.60812 1.5093 0
M  V30 3048 N 283.795 -0.628877 1.44509 0
M  V30 3049 C 285.023 -1.41554 1.50897 0
M  V30 3050 C 285.438 -1.8832 0.134564 0
M  V30 3051 O 284.795 -1.60969 -0.859965 0
M  V30 3052 C 284.846 -2.63435 2.47556 0
M  V30 3053 O 284.567 -2.18619 3.79654 0
M  V30 3054 C 286.068 -3.56537 2.63431 0
M  V30 3055 H 283.288 -0.434044 0.511709 0
M  V30 3056 H 285.832 -0.768895 1.89495 0
M  V30 3057 H 283.987 -3.24187 2.12089 0
M  V30 3058 H 284.401 -2.97652 4.31861 0
M  V30 3059 H 285.875 -4.38657 3.35088 0
M  V30 3060 H 286.352 -4.05493 1.68738 0
M  V30 3061 H 286.958 -3.01653 2.9981 0
M  V30 3062 N 285.273 -1.31445 -0.869486 0
M  V30 3063 C 286.203 -1.21727 -1.99261 0
M  V30 3064 C 287.184 -0.104359 -1.6978 0
M  V30 3065 O 288.369 -0.289038 -1.92037 0
M  V30 3066 C 285.499 -0.924317 -3.34774 0
M  V30 3067 C 284.453 -1.99685 -3.78563 0
M  V30 3068 C 283.779 -1.55658 -5.11541 0
M  V30 3069 C 285.079 -3.41003 -3.95619 0
M  V30 3070 H 286.773 -2.1569 -2.07649 0
M  V30 3071 H 284.319 -1.03839 -0.997675 0
M  V30 3072 H 286.272 -0.842934 -4.12883 0
M  V30 3073 H 284.996 0.0509793 -3.2656 0
M  V30 3074 H 283.655 -2.06813 -3.02694 0
M  V30 3075 H 283.303 -0.569132 -4.9977 0
M  V30 3076 H 283.003 -2.27409 -5.41811 0
M  V30 3077 H 284.527 -1.48928 -5.92159 0
M  V30 3078 H 285.941 -3.36547 -4.64122 0
M  V30 3079 H 284.338 -4.10975 -4.37286 0
M  V30 3080 H 285.408 -3.81754 -2.98985 0
M  V30 3081 N 286.751 1.08385 -1.14413 0
M  V30 3082 C 288.162 1.62258 -0.923535 0
M  V30 3083 C 288.513 1.88691 0.537595 0
M  V30 3084 O 287.638 1.64454 1.40655 0
M  V30 3085 C 288.233 2.94781 -1.67002 0
M  V30 3086 C 286.792 3.45437 -1.495 0
M  V30 3087 C 285.939 2.19668 -1.69238 0
M  V30 3088 H 288.89 0.916086 -1.2959 0
M  V30 3089 H 288.911 3.63229 -1.13334 0
M  V30 3090 H 288.423 2.7551 -2.73342 0
M  V30 3091 H 286.524 3.6981 -0.455097 0
M  V30 3092 H 286.637 4.22173 -2.2651 0
M  V30 3093 H 285.001 2.28849 -1.11804 0
M  V30 3094 H 285.784 2.02905 -2.7692 0
M  V30 3095 N 288.23 0.939286 1.26551 0
M  V30 3096 C 289.641 0.628782 1.75793 0
M  V30 3097 C 289.992 -0.856046 1.7654 0
M  V30 3098 O 289.117 -1.66994 1.3763 0
M  V30 3099 C 289.712 1.13465 3.19235 0
M  V30 3100 C 288.271 0.874601 3.66098 0
M  V30 3101 C 287.418 1.28667 2.45642 0
M  V30 3102 H 290.369 1.1178 1.12654 0
M  V30 3103 H 290.39 0.487609 3.77363 0
M  V30 3104 H 289.902 2.21535 3.1866 0
M  V30 3105 H 288.003 -0.191793 3.72106 0
M  V30 3106 H 288.116 1.50028 4.55004 0
M  V30 3107 H 286.48 0.705109 2.44745 0
M  V30 3108 H 287.263 2.37625 2.47769 0
M  V30 3109 N 289.708 -1.40897 0.706093 0
M  V30 3110 C 290.618 -2.3455 0.0482286 0
M  V30 3111 C 291.634 -1.56796 -0.754396 0
M  V30 3112 O 292.81 -1.89228 -0.689538 0
M  V30 3113 C 289.875 -3.35625 -0.869303 0
M  V30 3114 C 288.936 -4.29261 -0.0576994 0
M  V30 3115 C 288.169 -5.25508 -0.931531 0
M  V30 3116 O 288.392 -5.27472 -2.17092 0
M  V30 3117 O 287.326 -6.00727 -0.375587 0
M  V30 3118 H 291.152 -2.92407 0.820476 0
M  V30 3119 H 288.737 -1.4193 0.4665 0
M  V30 3120 H 290.619 -3.97635 -1.39514 0
M  V30 3121 H 289.294 -2.80196 -1.62086 0
M  V30 3122 H 288.201 -3.70566 0.512988 0
M  V30 3123 H 289.534 -4.87817 0.655426 0
M  V30 3124 N 291.186 -0.45159 -1.50991 0
M  V30 3125 C 292.149 0.341117 -2.26647 0
M  V30 3126 C 293.149 0.937422 -1.30649 0
M  V30 3127 O 294.339 0.809644 -1.54241 0
M  V30 3128 C 291.471 1.48398 -3.06905 0
M  V30 3129 H 292.664 -0.322117 -2.98165 0
M  V30 3130 H 290.217 -0.205122 -1.54948 0
M  V30 3131 H 290.952 2.18284 -2.39838 0
M  V30 3132 H 290.737 1.06241 -3.77432 0
M  V30 3133 H 292.227 2.04367 -3.64176 0
M  V30 3134 N 292.664 1.56529 -0.183458 0
M  V30 3135 C 294.08 1.58664 0.172554 0
M  V30 3136 C 294.28 1.19925 1.61926 0
M  V30 3137 O 293.336 0.916534 2.35278 0
M  V30 3138 C 294.649 3.00463 -0.119262 0
M  V30 3139 C 296.197 3.12945 -0.0584396 0
M  V30 3140 C 296.672 4.56857 -0.323408 0
M  V30 3141 N 298.163 4.62403 -0.271612 0
M  V30 3142 C 298.898 5.71626 -0.450639 0
M  V30 3143 N 298.394 6.89362 -0.689384 0
M  V30 3144 N 300.187 5.60775 -0.385701 0
M  V30 3145 H 292.338 1.79994 -1.12765 0
M  V30 3146 H 294.601 0.834808 -0.449222 0
M  V30 3147 H 294.307 3.33326 -1.12192 0
M  V30 3148 H 294.181 3.72659 0.583544 0
M  V30 3149 H 296.568 2.79902 0.934805 0
M  V30 3150 H 296.649 2.4316 -0.794144 0
M  V30 3151 H 296.293 4.9061 -1.31392 0
M  V30 3152 H 296.223 5.24816 0.43305 0
M  V30 3153 H 298.714 3.77785 -0.0932256 0
M  V30 3154 H 299.027 7.68489 -0.815113 0
M  V30 3155 H 297.372 6.91196 -0.726142 0
M  V30 3156 H 300.563 4.67674 -0.199687 0
M  V30 3157 H 300.736 6.4584 -0.528646 0
M  V30 3158 N 294.142 -0.090211 1.57342 0
M  V30 3159 C 295.39 -0.791241 1.85967 0
M  V30 3160 C 295.711 -1.7903 0.772859 0
M  V30 3161 O 294.981 -1.94872 -0.200398 0
M  V30 3162 H 293.561 -0.295205 0.686195 0
M  V30 3163 H 296.223 -0.0706782 1.94772 0
M  V30 3164 H 295.319 -1.31882 2.82867 0
M  V30 3165 N 295.62 -1.53406 -0.361157 0
M  V30 3166 C 296.57 -1.76536 -1.44287 0
M  V30 3167 C 297.554 -0.620019 -1.48474 0
M  V30 3168 O 298.746 -0.878834 -1.53641 0
M  V30 3169 C 295.875 -1.96266 -2.81664 0
M  V30 3170 C 294.961 -3.16815 -2.81938 0
M  V30 3171 N 295.352 -4.38637 -2.51855 0
M  V30 3172 C 293.65 -3.17627 -3.13096 0
M  V30 3173 C 294.351 -5.20401 -2.59919 0
M  V30 3174 N 293.327 -4.56712 -2.94814 0
M  V30 3175 H 297.129 -2.68331 -1.19899 0
M  V30 3176 H 294.643 -1.52091 -0.56938 0
M  V30 3177 H 296.64 -2.10966 -3.59582 0
M  V30 3178 H 295.3 -1.05702 -3.07013 0
M  V30 3179 H 296.311 -4.66293 -2.25369 0
M  V30 3180 H 292.988 -2.36971 -3.43731 0
M  V30 3181 H 294.378 -6.27586 -2.39969 0
M  V30 3182 N 297.098 0.621204 -1.44841 0
M  V30 3183 C 298.028 1.74366 -1.55303 0
M  V30 3184 C 299.009 1.65199 -0.405385 0
M  V30 3185 O 300.194 1.83807 -0.626787 0
M  V30 3186 C 297.324 3.12931 -1.50637 0
M  V30 3187 C 296.278 3.36896 -2.63979 0
M  V30 3188 C 295.604 4.75594 -2.44366 0
M  V30 3189 C 296.904 3.28483 -4.06074 0
M  V30 3190 H 298.598 1.65867 -2.49256 0
M  V30 3191 H 296.144 0.796558 -1.19962 0
M  V30 3192 H 298.097 3.9124 -1.56555 0
M  V30 3193 H 296.821 3.22237 -0.532057 0
M  V30 3194 H 295.48 2.60972 -2.57467 0
M  V30 3195 H 295.128 4.81616 -1.45105 0
M  V30 3196 H 294.828 4.92586 -3.20364 0
M  V30 3197 H 296.352 5.5612 -2.52117 0
M  V30 3198 H 297.766 3.96684 -4.13902 0
M  V30 3199 H 296.163 3.57008 -4.82354 0
M  V30 3200 H 297.233 2.26133 -4.28943 0
M  V30 3201 N 298.576 1.31904 0.862503 0
M  V30 3202 C 299.506 1.22782 1.98612 0
M  V30 3203 C 300.487 0.113362 1.69722 0
M  V30 3204 O 301.672 0.299218 1.91881 0
M  V30 3205 C 298.802 0.942058 3.34279 0
M  V30 3206 C 297.756 2.0169 3.77499 0
M  V30 3207 C 297.082 1.58369 5.10709 0
M  V30 3208 C 298.382 3.43096 3.93805 0
M  V30 3209 H 300.076 2.16788 2.06502 0
M  V30 3210 H 297.622 1.04366 0.992154 0
M  V30 3211 H 299.575 0.864818 4.1243 0
M  V30 3212 H 298.299 -0.0336603 3.26583 0
M  V30 3213 H 296.958 2.08416 3.01593 0
M  V30 3214 H 296.606 0.595628 4.99461 0
M  V30 3215 H 296.306 2.30279 5.40597 0
M  V30 3216 H 297.83 1.52067 5.91361 0
M  V30 3217 H 299.244 3.39003 4.62331 0
M  V30 3218 H 297.641 4.13288 4.35101 0
M  V30 3219 H 298.711 3.83334 2.96957 0
M  V30 3220 N 300.054 -1.07777 1.14986 0
M  V30 3221 C 300.964 -2.18404 0.856546 0
M  V30 3222 C 301.98 -1.73211 -0.165485 0
M  V30 3223 O 303.156 -2.01399 0.00755219 0
M  V30 3224 C 300.221 -3.44977 0.34526 0
M  V30 3225 C 299.282 -4.0476 1.43065 0
M  V30 3226 C 298.515 -5.25291 0.943663 0
M  V30 3227 O 298.738 -5.70004 -0.212426 0
M  V30 3228 O 297.672 -5.76638 1.72547 0
M  V30 3229 H 301.498 -2.45978 1.78125 0
M  V30 3230 H 299.083 -1.17033 0.928631 0
M  V30 3231 H 300.965 -4.21348 0.0663671 0
M  V30 3232 H 299.64 -3.18965 -0.551631 0
M  V30 3233 H 298.547 -3.29949 1.76309 0
M  V30 3234 H 299.88 -4.35035 2.30229 0
M  V30 3235 N 301.532 -0.945985 -1.26051 0
M  V30 3236 C 302.442 -0.465633 -2.29933 0
M  V30 3237 C 303.458 0.462761 -1.67733 0
M  V30 3238 O 304.634 0.341118 -1.9849 0
M  V30 3239 C 301.699 0.256994 -3.45746 0
M  V30 3240 C 300.76 -0.708549 -4.23412 0
M  V30 3241 C 299.993 -0.0203135 -5.33696 0
M  V30 3242 O 300.216 1.19571 -5.57726 0
M  V30 3243 O 299.15 -0.701459 -5.97799 0
M  V30 3244 H 302.976 -1.32866 -2.73094 0
M  V30 3245 H 300.561 -0.712071 -1.31339 0
M  V30 3246 H 302.443 0.663852 -4.16138 0
M  V30 3247 H 301.118 1.09533 -3.04605 0
M  V30 3248 H 300.025 -1.16545 -3.55483 0
M  V30 3249 H 301.358 -1.51465 -4.68315 0
M  V30 3250 N 303.011 1.40521 -0.713556 0
M  V30 3251 C 303.974 2.29098 -0.0684347 0
M  V30 3252 C 304.974 1.45268 0.689472 0
M  V30 3253 O 306.164 1.66205 0.521677 0
M  V30 3254 C 303.296 3.28446 0.913024 0
M  V30 3255 H 304.489 2.87645 -0.84855 0
M  V30 3256 H 302.042 1.48809 -0.47809 0
M  V30 3257 H 302.777 2.74913 1.72027 0
M  V30 3258 H 302.562 3.90327 0.372472 0
M  V30 3259 H 304.052 3.94777 1.36165 0
M  V30 3260 N 304.489 0.459591 1.5075 0
M  V30 3261 C 305.737 -0.0991532 2.01857 0
M  V30 3262 C 306.058 -1.41247 1.34441 0
M  V30 3263 O 305.328 -1.89775 0.486022 0
M  V30 3264 H 303.908 -0.039633 0.745948 0
M  V30 3265 H 306.57 0.607387 1.85194 0
M  V30 3266 H 305.666 -0.258998 3.11023 0
M  V30 3267 N 305.967 -1.56429 0.191757 0
M  V30 3268 C 307.214 -1.97485 -0.447891 0
M  V30 3269 C 307.542 -1.07852 -1.61859 0
M  V30 3270 O 306.797 -0.116903 -1.95351 0
M  V30 3271 C 307.096 -3.44449 -0.953384 0
M  V30 3272 C 306.762 -4.50781 0.103586 0
M  V30 3273 C 305.424 -4.79584 0.394023 0
M  V30 3274 C 307.776 -5.1471 0.819946 0
M  V30 3275 C 305.104 -5.69607 1.40585 0
M  V30 3276 C 307.456 -6.05827 1.8209 0
M  V30 3277 C 306.12 -6.32987 2.11857 0
M  V30 3278 H 305.39 -0.722648 -0.163895 0
M  V30 3279 H 308.037 -1.89322 0.28802 0
M  V30 3280 H 306.342 -3.49666 -1.76751 0
M  V30 3281 H 308.039 -3.73569 -1.45765 0
M  V30 3282 H 304.629 -4.28394 -0.132951 0
M  V30 3283 H 308.813 -4.92552 0.608789 0
M  V30 3284 H 304.069 -5.88926 1.64243 0
M  V30 3285 H 308.243 -6.54424 2.38123 0
M  V30 3286 H 305.87 -7.02544 2.90407 0
M  V30 3287 N 307.445 0.0818655 -1.57387 0
M  V30 3288 C 308.691 0.778884 -1.87896 0
M  V30 3289 C 309.046 1.75692 -0.784229 0
M  V30 3290 O 308.339 1.90417 0.212567 0
M  V30 3291 C 308.533 1.53513 -3.22752 0
M  V30 3292 C 308.362 0.631838 -4.45239 0
M  V30 3293 C 307.132 0.272571 -5.04564 0
M  V30 3294 C 309.33 -0.0670191 -5.14256 0
M  V30 3295 N 307.312 -0.637498 -6.10581 0
M  V30 3296 C 308.683 -0.834653 -6.14356 0
M  V30 3297 C 310.738 -0.139551 -4.97704 0
M  V30 3298 C 309.441 -1.66806 -6.99691 0
M  V30 3299 C 311.467 -0.959903 -5.83558 0
M  V30 3300 C 310.829 -1.71561 -6.83188 0
M  V30 3301 H 306.928 0.260764 -0.737242 0
M  V30 3302 H 309.512 0.0408227 -1.94657 0
M  V30 3303 H 307.683 2.24398 -3.17018 0
M  V30 3304 H 309.415 2.18038 -3.40942 0
M  V30 3305 H 306.17 0.62319 -4.69482 0
M  V30 3306 H 306.594 -1.08548 -6.68241 0
M  V30 3307 H 311.236 0.430376 -4.20604 0
M  V30 3308 H 308.954 -2.249 -7.76174 0
M  V30 3309 H 312.54 -1.01887 -5.72809 0
M  V30 3310 H 311.42 -2.34017 -7.48469 0
M  V30 3311 N 308.923 1.53595 0.353017 0
M  V30 3312 C 310.153 1.74058 1.11299 0
M  V30 3313 C 310.561 0.475205 1.83135 0
M  V30 3314 O 309.904 -0.562344 1.74881 0
M  V30 3315 C 309.966 2.85994 2.17825 0
M  V30 3316 C 309.63 4.25923 1.65647 0
M  V30 3317 C 310.627 5.07829 1.11383 0
M  V30 3318 C 308.312 4.72377 1.7078 0
M  V30 3319 C 310.306 6.34285 0.629439 0
M  V30 3320 C 307.993 5.98808 1.21953 0
M  V30 3321 C 308.991 6.79594 0.681265 0
M  V30 3322 O 308.679 8.03651 0.200248 0
M  V30 3323 H 308.411 0.585327 0.338183 0
M  V30 3324 H 310.965 2.01186 0.413927 0
M  V30 3325 H 309.195 2.54368 2.91262 0
M  V30 3326 H 310.884 2.94515 2.79313 0
M  V30 3327 H 311.65 4.73107 1.06746 0
M  V30 3328 H 307.529 4.0956 2.11617 0
M  V30 3329 H 311.073 6.97288 0.208636 0
M  V30 3330 H 306.97 6.33026 1.26287 0
M  V30 3331 H 307.738 8.1788 0.318416 0
M  V30 3332 N 310.401 -0.613514 1.45168 0
M  V30 3333 C 311.649 -1.36997 1.48581 0
M  V30 3334 C 311.97 -1.94589 0.126545 0
M  V30 3335 O 311.24 -1.76816 -0.843372 0
M  V30 3336 H 309.82 -0.508558 0.547154 0
M  V30 3337 H 312.482 -0.720853 1.81079 0
M  V30 3338 H 311.578 -2.1924 2.22127 0
M  V30 3339 N 311.879 -1.3236 -0.855495 0
M  V30 3340 C 312.809 -1.23833 -1.97958 0
M  V30 3341 C 313.79 -0.122361 -1.69659 0
M  V30 3342 O 314.975 -0.30939 -1.9172 0
M  V30 3343 C 312.105 -0.959772 -3.33775 0
M  V30 3344 C 311.059 -2.03689 -3.76424 0
M  V30 3345 C 310.385 -1.61075 -5.09862 0
M  V30 3346 C 311.685 -3.4518 -3.9198 0
M  V30 3347 H 313.379 -2.1788 -2.0535 0
M  V30 3348 H 310.925 -1.04891 -0.986605 0
M  V30 3349 H 312.878 -0.886678 -4.11966 0
M  V30 3350 H 311.602 0.0163404 -3.26596 0
M  V30 3351 H 310.261 -2.10012 -3.00484 0
M  V30 3352 H 309.909 -0.622107 -4.99138 0
M  V30 3353 H 309.609 -2.33143 -5.39368 0
M  V30 3354 H 311.133 -1.55201 -5.90546 0
M  V30 3355 H 312.547 -3.4145 -4.60526 0
M  V30 3356 H 310.944 -4.1559 -4.32903 0
M  V30 3357 H 312.014 -3.84903 -2.94919 0
M  V30 3358 N 313.357 1.07166 -1.15556 0
M  V30 3359 C 314.604 1.79798 -0.931604 0
M  V30 3360 C 314.932 1.8682 0.54115 0
M  V30 3361 O 314.187 1.34942 1.41736 0
M  V30 3362 C 314.486 3.24707 -1.49332 0
M  V30 3363 C 314.152 3.37781 -2.98688 0
M  V30 3364 C 312.814 3.41057 -3.39461 0
M  V30 3365 C 315.166 3.40424 -3.94665 0
M  V30 3366 C 312.494 3.4458 -4.74849 0
M  V30 3367 C 314.846 3.45485 -5.29927 0
M  V30 3368 C 313.51 3.47039 -5.70193 0
M  V30 3369 H 312.78 0.657928 -0.340898 0
M  V30 3370 H 315.427 1.26091 -1.44129 0
M  V30 3371 H 313.732 3.81208 -0.904859 0
M  V30 3372 H 315.429 3.79486 -1.29582 0
M  V30 3373 H 312.019 3.35932 -2.66172 0
M  V30 3374 H 316.203 3.37113 -3.64237 0
M  V30 3375 H 311.459 3.44083 -5.05388 0
M  V30 3376 H 315.633 3.46476 -6.04092 0
M  V30 3377 H 313.26 3.49522 -6.75084 0
M  V30 3378 N 314.835 0.952656 1.25548 0
M  V30 3379 C 315.765 0.489287 2.28316 0
M  V30 3380 C 316.746 -0.463359 1.63667 0
M  V30 3381 O 317.931 -0.36274 1.90782 0
M  V30 3382 C 315.061 -0.235603 3.465 0
M  V30 3383 C 314.015 0.631593 4.23314 0
M  V30 3384 C 313.341 -0.223923 5.34231 0
M  V30 3385 C 314.641 1.90871 4.86174 0
M  V30 3386 H 316.335 1.34822 2.67326 0
M  V30 3387 H 313.881 0.649728 1.28509 0
M  V30 3388 H 315.834 -0.570882 4.17515 0
M  V30 3389 H 314.558 -1.12877 3.06474 0
M  V30 3390 H 313.217 0.949929 3.54079 0
M  V30 3391 H 312.865 -1.11678 4.90446 0
M  V30 3392 H 312.565 0.35299 5.86539 0
M  V30 3393 H 314.089 -0.554214 6.0808 0
M  V30 3394 H 315.503 1.63997 5.49343 0
M  V30 3395 H 313.9 2.43112 5.4865 0
M  V30 3396 H 314.97 2.61304 4.08471 0
M  V30 3397 N 316.313 -1.40141 0.720998 0
M  V30 3398 C 317.243 -2.33339 0.0867621 0
M  V30 3399 C 318.224 -1.53178 -0.739622 0
M  V30 3400 O 319.409 -1.81625 -0.687449 0
M  V30 3401 C 316.539 -3.37194 -0.831728 0
M  V30 3402 C 315.493 -4.27857 -0.110558 0
M  V30 3403 C 314.819 -5.22294 -1.14513 0
M  V30 3404 C 316.119 -5.11872 1.0385 0
M  V30 3405 H 317.813 -2.86626 0.865219 0
M  V30 3406 H 315.359 -1.37814 0.417516 0
M  V30 3407 H 317.312 -4.01335 -1.28485 0
M  V30 3408 H 316.036 -2.82314 -1.64214 0
M  V30 3409 H 314.695 -3.65176 0.322797 0
M  V30 3410 H 314.343 -4.63717 -1.94874 0
M  V30 3411 H 314.043 -5.83797 -0.667446 0
M  V30 3412 H 315.567 -5.89312 -1.59824 0
M  V30 3413 H 316.981 -5.69436 0.664482 0
M  V30 3414 H 315.378 -5.82445 1.4449 0
M  V30 3415 H 316.448 -4.4753 1.86668 0
M  V30 3416 N 317.792 -0.46758 -1.50504 0
M  V30 3417 C 318.722 0.318381 -2.31319 0
M  V30 3418 C 319.703 0.993564 -1.38066 0
M  V30 3419 O 320.888 0.991411 -1.66987 0
M  V30 3420 C 318.018 1.40275 -3.17711 0
M  V30 3421 C 316.972 0.849373 -4.19487 0
M  V30 3422 C 316.298 2.03177 -4.94594 0
M  V30 3423 C 317.598 -0.136942 -5.2212 0
M  V30 3424 H 319.292 -0.356106 -2.97275 0
M  V30 3425 H 316.838 -0.172703 -1.42961 0
M  V30 3426 H 318.791 1.96004 -3.73042 0
M  V30 3427 H 317.515 2.10596 -2.49634 0
M  V30 3428 H 316.174 0.314076 -3.65252 0
M  V30 3429 H 315.822 2.72187 -4.22993 0
M  V30 3430 H 315.522 1.66774 -5.63436 0
M  V30 3431 H 317.046 2.59403 -5.52759 0
M  V30 3432 H 318.46 0.331056 -5.72343 0
M  V30 3433 H 316.857 -0.41507 -5.98663 0
M  V30 3434 H 317.927 -1.06398 -4.73083 0
M  V30 3435 N 319.27 1.56325 -0.20005 0
M  V30 3436 C 320.518 1.97329 0.436547 0
M  V30 3437 C 320.839 1.08826 1.61808 0
M  V30 3438 O 320.109 0.160604 1.95241 0
M  V30 3439 H 318.689 0.728714 0.164272 0
M  V30 3440 H 321.351 1.92761 -0.287937 0
M  V30 3441 H 320.447 3.02264 0.777353 0
M  V30 3442 N 320.748 -0.0735177 1.57428 0
M  V30 3443 C 321.678 -1.0879 2.06608 0
M  V30 3444 C 322.659 -1.40473 0.959237 0
M  V30 3445 O 323.844 -1.5013 1.23185 0
M  V30 3446 C 320.974 -2.40183 2.50857 0
M  V30 3447 C 319.928 -2.22858 3.65402 0
M  V30 3448 C 319.254 -3.59619 3.957 0
M  V30 3449 C 320.554 -1.65123 4.95511 0
M  V30 3450 H 322.248 -0.678673 2.91607 0
M  V30 3451 H 319.794 -0.325013 1.40284 0
M  V30 3452 H 321.747 -3.11437 2.83874 0
M  V30 3453 H 320.471 -2.83083 1.62885 0
M  V30 3454 H 319.13 -1.54045 3.32664 0
M  V30 3455 H 318.778 -4.00086 3.04861 0
M  V30 3456 H 318.478 -3.48866 4.72828 0
M  V30 3457 H 320.002 -4.32306 4.31212 0
M  V30 3458 H 321.416 -2.26241 5.26771 0
M  V30 3459 H 319.813 -1.65071 5.7695 0
M  V30 3460 H 320.883 -0.612559 4.81015 0
M  V30 3461 N 322.226 -1.5378 -0.344866 0
M  V30 3462 C 323.474 -1.70625 -1.08311 0
M  V30 3463 C 323.795 -0.471447 -1.89215 0
M  V30 3464 O 323.065 0.514616 -1.8902 0
M  V30 3465 H 321.645 -0.629058 -0.402859 0
M  V30 3466 H 324.307 -1.9103 -0.386459 0
M  V30 3467 H 323.403 -2.57656 -1.76124 0
M  V30 3468 N 323.704 0.605807 -1.45491 0
M  V30 3469 C 324.932 1.39136 -1.5313 0
M  V30 3470 C 325.347 1.88082 -0.164507 0
M  V30 3471 O 324.704 1.62316 0.834247 0
M  V30 3472 C 324.755 2.59463 -2.51716 0
M  V30 3473 O 324.476 2.12551 -3.83084 0
M  V30 3474 C 325.977 3.52301 -2.6907 0
M  V30 3475 H 323.197 0.425849 -0.51855 0
M  V30 3476 H 325.741 0.73865 -1.90694 0
M  V30 3477 H 323.896 3.20772 -2.17219 0
M  V30 3478 H 324.31 2.90744 -4.36541 0
M  V30 3479 H 325.784 4.33271 -3.42024 0
M  V30 3480 H 326.261 4.02757 -1.75167 0
M  V30 3481 H 326.867 2.96845 -3.04571 0
M  V30 3482 N 325.182 1.32811 0.848464 0
M  V30 3483 C 326.429 1.23724 1.60308 0
M  V30 3484 C 326.757 -0.1994 1.93475 0
M  V30 3485 O 326.012 -1.15406 1.5805 0
M  V30 3486 C 326.311 2.04831 2.92881 0
M  V30 3487 C 325.977 3.54125 2.79117 0
M  V30 3488 C 324.639 3.94829 2.7507 0
M  V30 3489 C 326.991 4.49036 2.64606 0
M  V30 3490 C 324.319 5.28675 2.544 0
M  V30 3491 C 326.671 5.83033 2.4547 0
M  V30 3492 C 325.335 6.22931 2.39819 0
M  V30 3493 H 324.605 0.452737 0.586609 0
M  V30 3494 H 327.252 1.64301 0.983743 0
M  V30 3495 H 325.557 1.57001 3.58968 0
M  V30 3496 H 327.254 1.95164 3.50303 0
M  V30 3497 H 323.844 3.21801 2.83094 0
M  V30 3498 H 328.028 4.18505 2.66772 0
M  V30 3499 H 323.284 5.58637 2.48465 0
M  V30 3500 H 327.458 6.56186 2.33222 0
M  V30 3501 H 325.085 7.26584 2.23562 0
M  V30 3502 N 326.66 -1.06551 1.16123 0
M  V30 3503 C 327.906 -1.79719 0.952505 0
M  V30 3504 C 328.261 -1.85396 -0.514385 0
M  V30 3505 O 327.554 -1.33263 -1.37665 0
M  V30 3506 C 327.748 -3.23911 1.51052 0
M  V30 3507 C 327.577 -3.32284 3.03013 0
M  V30 3508 C 326.347 -3.42371 3.71632 0
M  V30 3509 C 328.545 -3.22363 4.00732 0
M  V30 3510 N 326.527 -3.39732 5.11327 0
M  V30 3511 C 327.898 -3.26937 5.26794 0
M  V30 3512 C 329.953 -3.0623 3.92591 0
M  V30 3513 C 328.656 -3.17035 6.45663 0
M  V30 3514 C 330.682 -2.97665 5.11028 0
M  V30 3515 C 330.044 -3.02858 6.35969 0
M  V30 3516 H 326.143 -0.670585 0.402293 0
M  V30 3517 H 328.727 -1.27125 1.4747 0
M  V30 3518 H 326.898 -3.74907 1.01484 0
M  V30 3519 H 328.63 -3.85242 1.2398 0
M  V30 3520 H 325.385 -3.47058 3.22254 0
M  V30 3521 H 325.809 -3.41919 5.84312 0
M  V30 3522 H 330.451 -3.01063 2.96852 0
M  V30 3523 H 328.169 -3.2096 7.41627 0
M  V30 3524 H 331.755 -2.86273 5.06497 0
M  V30 3525 H 330.635 -2.96286 7.26075 0
M  V30 3526 N 328.138 -0.959301 -1.25041 0
M  V30 3527 C 329.07 -0.440543 -2.24926 0
M  V30 3528 C 330.083 0.446131 -1.56568 0
M  V30 3529 O 331.272 0.253657 -1.76689 0
M  V30 3530 C 328.372 0.38412 -3.36716 0
M  V30 3531 C 327.545 -0.490658 -4.34639 0
M  V30 3532 C 326.604 0.276587 -5.25473 0
M  V30 3533 O 325.63 -0.326614 -5.68262 0
M  V30 3534 N 326.832 1.56844 -5.5891 0
M  V30 3535 H 329.597 -1.29931 -2.70071 0
M  V30 3536 H 327.158 -0.830181 -1.38995 0
M  V30 3537 H 329.15 0.905228 -3.94446 0
M  V30 3538 H 327.72 1.14377 -2.90924 0
M  V30 3539 H 326.94 -1.19282 -3.7572 0
M  V30 3540 H 328.228 -1.08756 -4.97041 0
M  V30 3541 H 327.626 2.08036 -5.26059 0
M  V30 3542 H 326.183 2.03541 -6.19205 0
M  V30 3543 N 329.616 1.39756 -0.72842 0
M  V30 3544 C 330.526 2.34444 -0.0855374 0
M  V30 3545 C 331.542 1.57976 0.729356 0
M  V30 3546 O 332.718 1.90301 0.659346 0
M  V30 3547 C 329.783 3.36965 0.815798 0
M  V30 3548 C 328.844 4.29299 -0.0105996 0
M  V30 3549 C 328.077 5.26923 0.84781 0
M  V30 3550 O 328.3 5.30859 2.08673 0
M  V30 3551 O 327.234 6.01249 0.279969 0
M  V30 3552 H 331.06 2.91065 -0.866892 0
M  V30 3553 H 328.645 1.4117 -0.48902 0
M  V30 3554 H 330.527 3.99804 1.33171 0
M  V30 3555 H 329.202 2.82739 1.57608 0
M  V30 3556 H 328.109 3.69703 -0.571877 0
M  V30 3557 H 329.442 4.86712 -0.73295 0
M  V30 3558 N 331.094 0.475555 1.50254 0
M  V30 3559 C 332.51 0.12997 1.5907 0
M  V30 3560 C 332.71 -1.36385 1.48328 0
M  V30 3561 O 331.766 -2.13754 1.34407 0
M  V30 3562 C 333.079 0.684139 2.92814 0
M  V30 3563 C 334.627 0.647965 3.0622 0
M  V30 3564 C 335.102 1.17975 4.42545 0
M  V30 3565 N 336.593 1.13936 4.48969 0
M  V30 3566 C 337.328 1.52129 5.52851 0
M  V30 3567 N 336.824 1.97793 6.63965 0
M  V30 3568 N 338.617 1.43704 5.4342 0
M  V30 3569 H 330.768 1.44706 1.55479 0
M  V30 3570 H 333.031 0.598691 0.735033 0
M  V30 3571 H 332.737 1.73079 3.06164 0
M  V30 3572 H 332.611 0.130204 3.76975 0
M  V30 3573 H 334.998 -0.38979 2.92514 0
M  V30 3574 H 335.079 1.23876 2.23805 0
M  V30 3575 H 334.723 2.21616 4.57 0
M  V30 3576 H 334.653 0.565138 5.23559 0
M  V30 3577 H 337.144 0.804488 3.69238 0
M  V30 3578 H 337.457 2.25072 7.39299 0
M  V30 3579 H 335.802 2.01749 6.65073 0
M  V30 3580 H 338.993 1.07867 4.55502 0
M  V30 3581 H 339.166 1.73794 6.24259 0
M  V30 3582 N 332.573 -1.56217 0.208337 0
M  V30 3583 C 333.503 -2.22694 -0.702116 0
M  V30 3584 C 334.484 -1.19432 -1.2112 0
M  V30 3585 O 335.669 -1.47978 -1.25762 0
M  V30 3586 C 332.799 -2.8966 -1.9161 0
M  V30 3587 C 331.753 -3.9928 -1.5414 0
M  V30 3588 C 331.079 -4.53476 -2.83308 0
M  V30 3589 C 332.379 -5.17012 -0.741339 0
M  V30 3590 H 334.073 -2.99034 -0.147898 0
M  V30 3591 H 331.619 -1.43831 -0.0696951 0
M  V30 3592 H 333.572 -3.34852 -2.55836 0
M  V30 3593 H 332.296 -2.10746 -2.49507 0
M  V30 3594 H 330.955 -3.54799 -0.922668 0
M  V30 3595 H 330.603 -3.71308 -3.39322 0
M  V30 3596 H 330.303 -5.27451 -2.58976 0
M  V30 3597 H 331.827 -5.01378 -3.485 0
M  V30 3598 H 333.241 -5.58667 -1.28699 0
M  V30 3599 H 331.638 -5.97137 -0.595627 0
M  V30 3600 H 332.708 -4.8423 0.254851 0
M  V30 3601 N 334.051 0.0651679 -1.57465 0
M  V30 3602 C 335.014 1.06117 -2.03155 0
M  V30 3603 C 336.014 1.31204 -0.929632 0
M  V30 3604 O 337.204 1.26813 -1.19432 0
M  V30 3605 C 334.336 2.4032 -2.41783 0
M  V30 3606 H 335.529 0.667231 -2.92383 0
M  V30 3607 H 333.082 0.311075 -1.53173 0
M  V30 3608 H 333.817 2.84532 -1.55601 0
M  V30 3609 H 333.602 2.23451 -3.22199 0
M  V30 3610 H 335.092 3.11898 -2.77685 0
M  V30 3611 N 335.529 1.53961 0.336706 0
M  V30 3612 C 336.94 1.62914 0.911925 0
M  V30 3613 C 337.291 0.514795 1.89326 0
M  V30 3614 O 336.416 -0.354395 2.13478 0
M  V30 3615 C 337.011 2.95304 1.66076 0
M  V30 3616 C 335.57 3.06496 2.18489 0
M  V30 3617 C 334.717 2.58403 1.00613 0
M  V30 3618 H 337.668 1.58285 0.114649 0
M  V30 3619 H 337.689 2.84727 2.5241 0
M  V30 3620 H 337.201 3.76387 0.946276 0
M  V30 3621 H 335.302 2.3006 2.93092 0
M  V30 3622 H 335.415 4.1208 2.44391 0
M  V30 3623 H 333.779 2.13977 1.38152 0
M  V30 3624 H 334.562 3.41932 0.306179 0
M  V30 3625 N 337.007 -0.598083 1.45811 0
M  V30 3626 C 338.253 -1.35679 1.51535 0
M  V30 3627 C 338.608 -1.91745 0.15864 0
M  V30 3628 O 337.901 -1.72654 -0.830724 0
M  V30 3629 C 338.095 -2.51669 2.53766 0
M  V30 3630 C 337.924 -2.06963 3.99245 0
M  V30 3631 C 336.694 -1.92693 4.67116 0
M  V30 3632 C 338.892 -1.63855 4.875 0
M  V30 3633 N 336.874 -1.41897 5.97276 0
M  V30 3634 C 338.245 -1.24541 6.07363 0
M  V30 3635 C 340.3 -1.51533 4.74281 0
M  V30 3636 C 339.003 -0.741354 7.15469 0
M  V30 3637 C 341.029 -1.0253 5.82444 0
M  V30 3638 C 340.391 -0.641869 7.01469 0
M  V30 3639 H 336.49 -0.490042 0.609412 0
M  V30 3640 H 339.074 -0.682687 1.82339 0
M  V30 3641 H 337.245 -3.16663 2.24898 0
M  V30 3642 H 338.977 -3.18578 2.4958 0
M  V30 3643 H 335.732 -2.1417 4.22408 0
M  V30 3644 H 336.156 -1.18704 6.66512 0
M  V30 3645 H 340.798 -1.798 3.82664 0
M  V30 3646 H 338.516 -0.446243 8.06867 0
M  V30 3647 H 342.102 -0.934088 5.74253 0
M  V30 3648 H 340.982 -0.268531 7.8374 0
M  V30 3649 N 338.485 -1.33259 -0.841409 0
M  V30 3650 C 339.448 -1.23221 -1.9326 0
M  V30 3651 C 340.448 -0.151895 -1.60081 0
M  V30 3652 O 341.638 -0.403246 -1.69468 0
M  V30 3653 C 338.77 -0.898123 -3.28856 0
M  V30 3654 H 339.963 -2.2021 -2.03587 0
M  V30 3655 H 337.516 -1.17281 -1.03319 0
M  V30 3656 H 338.251 0.0693841 -3.24226 0
M  V30 3657 H 338.036 -1.67934 -3.54317 0
M  V30 3658 H 339.526 -0.852563 -4.08805 0
M  V30 3659 N 339.963 1.05934 -1.16686 0
M  V30 3660 C 341.211 1.78447 -0.948744 0
M  V30 3661 C 341.532 1.87813 0.524523 0
M  V30 3662 O 340.802 1.38945 1.38098 0
M  V30 3663 H 339.382 0.660971 -0.348033 0
M  V30 3664 H 342.044 1.27947 -1.47022 0
M  V30 3665 H 341.14 2.80394 -1.37061 0
M  V30 3666 N 341.441 0.965919 1.2453 0
M  V30 3667 C 342.371 0.513476 2.27784 0
M  V30 3668 C 343.352 -0.445974 1.6415 0
M  V30 3669 O 344.537 -0.342485 1.91156 0
M  V30 3670 C 341.667 -0.198839 3.4673 0
M  V30 3671 C 340.621 0.676456 4.2262 0
M  V30 3672 C 339.947 -0.167248 5.34438 0
M  V30 3673 C 341.247 1.96017 4.84123 0
M  V30 3674 H 342.941 1.3765 2.65881 0
M  V30 3675 H 340.487 0.663321 1.27813 0
M  V30 3676 H 342.44 -0.526567 4.18097 0
M  V30 3677 H 341.164 -1.0962 3.07654 0
M  V30 3678 H 339.823 0.98743 3.53052 0
M  V30 3679 H 339.471 -1.0647 4.91603 0
M  V30 3680 H 339.171 0.415181 5.86131 0
M  V30 3681 H 340.695 -0.489688 6.08633 0
M  V30 3682 H 342.109 1.69814 5.47573 0
M  V30 3683 H 340.506 2.48918 5.4604 0
M  V30 3684 H 341.576 2.65622 4.05676 0
M  V30 3685 N 342.919 -1.39368 0.735821 0
M  V30 3686 C 343.849 -2.33234 0.111506 0
M  V30 3687 C 344.83 -1.53954 -0.723334 0
M  V30 3688 O 346.015 -1.82344 -0.668147 0
M  V30 3689 C 343.145 -3.38057 -0.795917 0
M  V30 3690 C 342.099 -4.2795 -0.065172 0
M  V30 3691 C 341.425 -5.23479 -1.08967 0
M  V30 3692 C 342.725 -5.10741 1.09273 0
M  V30 3693 H 344.419 -2.85692 0.895571 0
M  V30 3694 H 341.965 -1.37364 0.432109 0
M  V30 3695 H 343.918 -4.02675 -1.24221 0
M  V30 3696 H 342.642 -2.8404 -1.61211 0
M  V30 3697 H 341.301 -3.64813 0.361511 0
M  V30 3698 H 340.949 -4.65758 -1.89944 0
M  V30 3699 H 340.649 -5.84472 -0.605489 0
M  V30 3700 H 342.173 -5.90974 -1.53565 0
M  V30 3701 H 343.587 -5.68699 0.724841 0
M  V30 3702 H 341.984 -5.8088 1.50659 0
M  V30 3703 H 343.054 -4.45525 1.91404 0
M  V30 3704 N 344.397 -0.483516 -1.5 0
M  V30 3705 C 345.36 0.292965 -2.2732 0
M  V30 3706 C 346.36 0.909499 -1.32608 0
M  V30 3707 O 347.55 0.776745 -1.55924 0
M  V30 3708 C 344.682 1.41854 -3.09984 0
M  V30 3709 H 345.875 -0.385289 -2.97415 0
M  V30 3710 H 343.428 -0.237942 -1.54478 0
M  V30 3711 H 344.163 2.13148 -2.44414 0
M  V30 3712 H 343.948 0.982114 -3.79601 0
M  V30 3713 H 345.438 1.96597 -3.68429 0
M  V30 3714 N 345.875 1.56104 -0.216619 0
M  V30 3715 C 346.838 2.18819 0.681962 0
M  V30 3716 C 347.838 1.14866 1.12528 0
M  V30 3717 O 349.028 1.40128 1.03488 0
M  V30 3718 C 346.16 2.80756 1.93362 0
M  V30 3719 H 347.353 2.99595 0.135254 0
M  V30 3720 H 344.906 1.56265 0.0330003 0
M  V30 3721 H 345.641 2.03837 2.52232 0
M  V30 3722 H 345.426 3.56876 1.62426 0
M  V30 3723 H 346.916 3.28844 2.57393 0
M  V30 3724 N 347.353 -0.0568162 1.57498 0
M  V30 3725 C 348.316 -1.05038 2.03715 0
M  V30 3726 C 349.316 -1.30709 0.936577 0
M  V30 3727 O 350.506 -1.26178 1.20103 0
M  V30 3728 C 347.638 -2.39034 2.43055 0
M  V30 3729 H 348.831 -0.651715 2.92733 0
M  V30 3730 H 346.384 -0.302947 1.53336 0
M  V30 3731 H 347.119 -2.83703 1.57108 0
M  V30 3732 H 346.904 -2.21739 3.2338 0
M  V30 3733 H 348.394 -3.10421 2.79336 0
M  V30 3734 N 348.832 -1.54138 -0.328536 0
M  V30 3735 C 350.08 -1.71765 -1.06496 0
M  V30 3736 C 350.401 -0.49149 -1.88704 0
M  V30 3737 O 349.671 0.494539 -1.89555 0
M  V30 3738 H 348.251 -0.633295 -0.396164 0
M  V30 3739 H 350.913 -1.91429 -0.366176 0
M  V30 3740 H 350.009 -2.5951 -1.73381 0
M  V30 3741 N 350.31 0.590341 -1.46126 0
M  V30 3742 C 351.24 1.71032 -1.58966 0
M  V30 3743 C 352.221 1.64302 -0.440335 0
M  V30 3744 O 353.406 1.82436 -0.665634 0
M  V30 3745 C 350.536 3.09665 -1.57241 0
M  V30 3746 C 349.49 3.31221 -2.71066 0
M  V30 3747 C 348.816 4.70303 -2.54399 0
M  V30 3748 C 350.116 3.19796 -4.1295 0
M  V30 3749 H 351.81 1.60543 -2.52718 0
M  V30 3750 H 349.356 0.770933 -1.21625 0
M  V30 3751 H 351.309 3.87831 -1.64819 0
M  V30 3752 H 350.033 3.21036 -0.600289 0
M  V30 3753 H 348.692 2.55452 -2.62944 0
M  V30 3754 H 348.34 4.78429 -1.55288 0
M  V30 3755 H 348.04 4.85679 -3.30741 0
M  V30 3756 H 349.564 5.50647 -2.63857 0
M  V30 3757 H 350.978 3.87815 -4.22223 0
M  V30 3758 H 349.375 3.46696 -4.89818 0
M  V30 3759 H 350.445 2.16983 -4.33643 0
M  V30 3760 N 351.788 1.33704 0.83433 0
M  V30 3761 C 353.204 1.13137 1.12571 0
M  V30 3762 C 353.404 -0.0747261 2.01361 0
M  V30 3763 O 352.46 -0.753647 2.4099 0
M  V30 3764 C 353.773 2.42105 1.78342 0
M  V30 3765 C 355.321 2.48054 1.90888 0
M  V30 3766 C 355.796 3.76995 2.60075 0
M  V30 3767 N 357.287 3.78092 2.67584 0
M  V30 3768 C 358.022 4.74574 3.21818 0
M  V30 3769 N 357.518 5.81434 3.76705 0
M  V30 3770 N 359.311 4.62044 3.20112 0
M  V30 3771 H 351.462 2.11 0.243489 0
M  V30 3772 H 353.725 0.932532 0.17055 0
M  V30 3773 H 353.431 3.30391 1.20561 0
M  V30 3774 H 353.305 2.54594 2.7832 0
M  V30 3775 H 355.692 1.60215 2.47821 0
M  V30 3776 H 355.773 2.39502 0.898459 0
M  V30 3777 H 355.417 4.65219 2.03799 0
M  V30 3778 H 355.347 3.82825 3.61597 0
M  V30 3779 H 357.838 3.00865 2.28667 0
M  V30 3780 H 358.151 6.51084 4.16305 0
M  V30 3781 H 356.496 5.85163 3.7498 0
M  V30 3782 H 359.687 3.77716 2.76493 0
M  V30 3783 H 359.86 5.37406 3.62076 0
M  V30 3784 N 353.266 -1.05314 1.17247 0
M  V30 3785 C 354.229 -2.112 0.890357 0
M  V30 3786 C 355.229 -1.60359 -0.118943 0
M  V30 3787 O 356.419 -1.73833 0.113086 0
M  V30 3788 C 353.551 -3.39266 0.333422 0
M  V30 3789 H 354.744 -2.37659 1.82916 0
M  V30 3790 H 352.297 -1.21538 0.982758 0
M  V30 3791 H 353.032 -3.18462 -0.612587 0
M  V30 3792 H 352.817 -3.77477 1.06082 0
M  V30 3793 H 354.307 -4.17315 0.154322 0
M  V30 3794 N 354.744 -0.972509 -1.24016 0
M  V30 3795 C 355.674 -0.525548 -2.27509 0
M  V30 3796 C 356.655 0.437262 -1.64384 0
M  V30 3797 O 357.84 0.332343 -1.91335 0
M  V30 3798 C 354.97 0.180448 -3.46831 0
M  V30 3799 C 353.924 -0.698859 -4.22256 0
M  V30 3800 C 353.25 0.138903 -5.3452 0
M  V30 3801 C 354.55 -1.98582 -4.83076 0
M  V30 3802 H 356.244 -1.39058 -2.65148 0
M  V30 3803 H 353.79 -0.67009 -1.27459 0
M  V30 3804 H 355.743 0.504387 -4.18371 0
M  V30 3805 H 354.467 1.07987 -3.08231 0
M  V30 3806 H 353.126 -1.00614 -3.52523 0
M  V30 3807 H 352.774 1.03862 -4.9216 0
M  V30 3808 H 352.474 -0.446259 -5.85903 0
M  V30 3809 H 353.998 0.457404 -6.08884 0
M  V30 3810 H 355.412 -1.72715 -5.46665 0
M  V30 3811 H 353.809 -2.5181 -5.44713 0
M  V30 3812 H 354.879 -2.67769 -4.04262 0
M  V30 3813 N 356.222 1.38976 -0.743202 0
M  V30 3814 C 357.152 2.33171 -0.123873 0
M  V30 3815 C 358.133 1.54336 0.71516 0
M  V30 3816 O 359.318 1.82696 0.658467 0
M  V30 3817 C 356.448 3.38474 0.777978 0
M  V30 3818 C 355.402 4.27979 0.0424758 0
M  V30 3819 C 354.728 5.2405 1.06189 0
M  V30 3820 C 356.028 5.10155 -1.1198 0
M  V30 3821 H 357.722 2.85213 -0.910709 0
M  V30 3822 H 355.268 1.37133 -0.439388 0
M  V30 3823 H 357.221 4.03328 1.22084 0
M  V30 3824 H 355.945 2.84891 1.59702 0
M  V30 3825 H 354.604 3.64616 -0.380853 0
M  V30 3826 H 354.252 4.66758 1.87472 0
M  V30 3827 H 353.952 5.84785 0.574485 0
M  V30 3828 H 355.476 5.9178 1.50428 0
M  V30 3829 H 356.89 5.68307 -0.75499 0
M  V30 3830 H 355.287 5.80073 -1.53738 0
M  V30 3831 H 356.357 4.44504 -1.93764 0
M  V30 3832 N 357.7 0.491464 1.49741 0
M  V30 3833 C 358.946 -0.0565092 2.02721 0
M  V30 3834 C 359.279 -1.37522 1.37118 0
M  V30 3835 O 358.554 -1.87866 0.503645 0
M  V30 3836 C 358.837 -0.219051 3.59433 0
M  V30 3837 C 358.69 1.12211 4.35579 0
M  V30 3838 C 360.009 -0.964157 4.29409 0
M  V30 3839 H 357.128 -0.0190627 0.736753 0
M  V30 3840 H 359.77 0.641021 1.7886 0
M  V30 3841 H 357.92 -0.813165 3.79895 0
M  V30 3842 H 359.592 1.75437 4.26637 0
M  V30 3843 H 357.835 1.71377 3.98513 0
M  V30 3844 H 358.506 0.961794 5.43556 0
M  V30 3845 H 360.982 -0.460378 4.13545 0
M  V30 3846 H 359.858 -1.04671 5.38828 0
M  V30 3847 H 360.119 -2.00563 3.93988 0
M  V30 3848 N 359.178 -1.55987 0.224894 0
M  V30 3849 C 360.108 -2.23426 -0.678457 0
M  V30 3850 C 361.089 -1.20709 -1.19847 0
M  V30 3851 O 362.274 -1.49304 -1.24186 0
M  V30 3852 C 359.404 -2.91676 -1.88527 0
M  V30 3853 C 358.358 -4.00893 -1.49896 0
M  V30 3854 C 357.684 -4.56455 -2.78483 0
M  V30 3855 C 358.984 -5.17769 -0.686461 0
M  V30 3856 H 360.678 -2.99175 -0.116173 0
M  V30 3857 H 358.224 -1.43897 -0.054436 0
M  V30 3858 H 360.177 -3.37547 -2.5227 0
M  V30 3859 H 358.901 -2.1338 -2.47258 0
M  V30 3860 H 357.56 -3.55758 -0.884985 0
M  V30 3861 H 357.208 -3.74886 -3.35365 0
M  V30 3862 H 356.908 -5.30169 -2.53368 0
M  V30 3863 H 358.432 -5.05047 -3.43162 0
M  V30 3864 H 359.846 -5.60001 -1.22767 0
M  V30 3865 H 358.243 -5.97735 -0.532259 0
M  V30 3866 H 359.313 -4.83932 0.306196 0
M  V30 3867 N 360.656 0.0484629 -1.57525 0
M  V30 3868 C 361.619 1.03956 -2.04269 0
M  V30 3869 C 362.619 1.30211 -0.943496 0
M  V30 3870 O 363.809 1.25539 -1.20771 0
M  V30 3871 C 360.941 2.37742 -2.44319 0
M  V30 3872 H 362.134 0.636182 -2.93075 0
M  V30 3873 H 359.687 0.294811 -1.53494 0
M  V30 3874 H 360.422 2.82866 -1.5861 0
M  V30 3875 H 360.207 2.20021 -3.24551 0
M  V30 3876 H 361.697 3.08936 -2.80978 0
M  V30 3877 N 362.134 1.5431 0.320358 0
M  V30 3878 C 363.382 1.72327 1.05583 0
M  V30 3879 C 363.703 0.50149 1.88441 0
M  V30 3880 O 362.973 -0.48448 1.89815 0
M  V30 3881 H 361.553 0.635387 0.3928 0
M  V30 3882 H 364.215 1.91621 0.356019 0
M  V30 3883 H 363.311 2.60426 1.72003 0
M  V30 3884 N 363.613 -0.582584 1.46437 0
M  V30 3885 C 364.545 -1.70618 1.53043 0
M  V30 3886 C 365.558 -1.57322 0.418769 0
M  V30 3887 O 366.747 -1.64744 0.687136 0
M  V30 3888 C 363.847 -3.08869 1.39474 0
M  V30 3889 C 363.02 -3.48166 2.64762 0
M  V30 3890 C 362.079 -4.65478 2.4539 0
M  V30 3891 O 361.105 -4.71333 3.19114 0
M  V30 3892 N 362.307 -5.60365 1.51564 0
M  V30 3893 H 365.072 -1.65405 2.49923 0
M  V30 3894 H 362.633 -0.768567 1.42494 0
M  V30 3895 H 364.625 -3.85143 1.24287 0
M  V30 3896 H 363.195 -3.08449 0.507758 0
M  V30 3897 H 362.415 -2.61598 2.9489 0
M  V30 3898 H 363.703 -3.71188 3.4799 0
M  V30 3899 H 363.101 -5.5837 0.907705 0
M  V30 3900 H 361.658 -6.36068 1.4234 0
M  V30 3901 N 365.091 -1.34144 -0.827227 0
M  V30 3902 C 366.337 -1.27455 -1.58515 0
M  V30 3903 C 366.692 0.155271 -1.91772 0
M  V30 3904 O 365.985 1.10042 -1.56848 0
M  V30 3905 C 366.179 -2.09464 -2.89585 0
M  V30 3906 C 366.008 -3.60276 -2.69131 0
M  V30 3907 C 364.778 -4.29565 -2.66087 0
M  V30 3908 C 366.976 -4.54367 -2.40947 0
M  V30 3909 N 364.958 -5.66252 -2.37132 0
M  V30 3910 C 366.329 -5.79027 -2.21648 0
M  V30 3911 C 368.384 -4.43327 -2.26639 0
M  V30 3912 C 367.087 -6.93891 -1.89492 0
M  V30 3913 C 369.113 -5.58019 -1.95878 0
M  V30 3914 C 368.475 -6.81695 -1.774 0
M  V30 3915 H 364.574 -0.521614 -0.582617 0
M  V30 3916 H 367.158 -1.68811 -0.970105 0
M  V30 3917 H 365.329 -1.70411 -3.49019 0
M  V30 3918 H 367.061 -1.94453 -3.54923 0
M  V30 3919 H 363.816 -3.81959 -2.80008 0
M  V30 3920 H 364.24 -6.38338 -2.25507 0
M  V30 3921 H 368.882 -3.48333 -2.39633 0
M  V30 3922 H 366.6 -7.88871 -1.75236 0
M  V30 3923 H 370.186 -5.5142 -1.85546 0
M  V30 3924 H 369.066 -7.68942 -1.53941 0
M  V30 3925 N 366.569 1.04691 -1.17803 0
M  V30 3926 C 367.501 2.12571 -0.857097 0
M  V30 3927 C 368.514 1.62174 0.142647 0
M  V30 3928 O 369.703 1.78301 -0.0843387 0
M  V30 3929 C 366.803 3.37915 -0.258216 0
M  V30 3930 C 365.976 4.1757 -1.30207 0
M  V30 3931 C 365.035 5.2125 -0.720029 0
M  V30 3932 O 364.061 5.51888 -1.39314 0
M  V30 3933 N 365.263 5.78466 0.485507 0
M  V30 3934 H 368.028 2.40698 -1.78562 0
M  V30 3935 H 365.589 1.20831 -1.07757 0
M  V30 3936 H 367.581 4.04442 0.144584 0
M  V30 3937 H 366.151 3.07281 0.574199 0
M  V30 3938 H 365.371 3.46458 -1.88043 0
M  V30 3939 H 366.659 4.67586 -2.00601 0
M  V30 3940 H 366.057 5.55866 1.05022 0
M  V30 3941 H 364.614 6.4649 0.830307 0
M  V30 3942 N 368.047 0.979072 1.23499 0
M  V30 3943 C 369.295 0.645941 1.91499 0
M  V30 3944 C 369.616 -0.822948 1.76784 0
M  V30 3945 O 368.886 -1.58854 1.14639 0
M  V30 3946 H 367.466 0.235919 0.708767 0
M  V30 3947 H 370.128 1.2426 1.50152 0
M  V30 3948 H 369.224 0.896411 2.9895 0
M  V30 3949 N 369.525 -1.3858 0.750561 0
M  V30 3950 C 370.455 -2.33102 0.136237 0
M  V30 3951 C 371.436 -1.54713 -0.706965 0
M  V30 3952 O 372.621 -1.83043 -0.648769 0
M  V30 3953 C 369.751 -3.38882 -0.760017 0
M  V30 3954 C 368.705 -4.27995 -0.0197785 0
M  V30 3955 C 368.031 -5.24605 -1.03408 0
M  V30 3956 C 369.331 -5.09554 1.14684 0
M  V30 3957 H 371.025 -2.84726 0.925822 0
M  V30 3958 H 368.571 -1.36898 0.446654 0
M  V30 3959 H 370.524 -4.0397 -1.19943 0
M  V30 3960 H 369.248 -2.85734 -1.58189 0
M  V30 3961 H 367.907 -3.64409 0.400184 0
M  V30 3962 H 367.555 -4.67746 -1.84994 0
M  V30 3963 H 367.255 -5.85081 -0.543464 0
M  V30 3964 H 368.779 -5.9257 -1.47288 0
M  V30 3965 H 370.193 -5.67899 0.785118 0
M  V30 3966 H 368.59 -5.7925 1.56812 0
M  V30 3967 H 369.66 -4.4347 1.96118 0
M  V30 3968 N 371.003 -0.499398 -1.49478 0
M  V30 3969 C 372.251 0.0455996 -2.02049 0
M  V30 3970 C 372.572 1.37633 -1.38138 0
M  V30 3971 O 371.842 1.8842 -0.536166 0
M  V30 3972 H 370.422 0.0198416 -0.746736 0
M  V30 3973 H 373.084 -0.656274 -1.83519 0
M  V30 3974 H 372.18 0.176445 -3.11601 0
M  V30 3975 N 372.481 1.55866 -0.233164 0
M  V30 3976 C 373.411 2.23783 0.666599 0
M  V30 3977 C 374.392 1.21343 1.19205 0
M  V30 3978 O 375.577 1.4996 1.23392 0
M  V30 3979 C 372.707 2.92671 1.86978 0
M  V30 3980 C 371.661 4.01682 1.47768 0
M  V30 3981 C 370.987 4.57926 2.76058 0
M  V30 3982 C 372.287 5.18126 0.658993 0
M  V30 3983 H 373.981 2.99232 0.100306 0
M  V30 3984 H 371.527 1.43924 0.046804 0
M  V30 3985 H 373.48 3.3888 2.50476 0
M  V30 3986 H 372.204 2.14688 2.46123 0
M  V30 3987 H 370.863 3.56222 0.866106 0
M  V30 3988 H 370.511 3.76659 3.33372 0
M  V30 3989 H 370.211 5.31505 2.50552 0
M  V30 3990 H 371.735 5.06859 3.40479 0
M  V30 3991 H 373.149 5.60644 1.19795 0
M  V30 3992 H 371.546 5.98009 0.500552 0
M  V30 3993 H 372.616 4.83763 -0.331856 0
M  V30 3994 O 373.998 0.0973059 1.61207 0
M  V30 3995 H 374.689 -0.50491 1.87004 0
M  V30 END ATOM
M  V30 BEGIN BOND
M  V30 END BOND
M  V30 END CTAB
M  END
$$$$
