drugbank_target|P47895 Aldehyde dehydrogenase family 1 member A3 (DB00157; DB00162)
 OpenBabel12092119353D

  0  0  0     0  0            999 V3000
M  V30 BEGIN CTAB
M  V30 COUNTS 7917 7999 0 0 0
M  V30 BEGIN ATOM
M  V30 1 H -0.908 1.98254 -0.117106 0
M  V30 2 N 0 1.576 0 0
M  V30 3 C 0.933 2.03868 1.02534 0
M  V30 4 C 1.911 0.928543 1.3348 0
M  V30 5 O 3.095 1.19667 1.45644 0
M  V30 6 C 0.222 2.43627 2.35294 0
M  V30 7 C -0.732 3.65373 2.2001 0
M  V30 8 S 0.101 5.13292 1.52614 0
M  V30 9 C 1.257 5.56322 2.86805 0
M  V30 10 H 1.49 2.90518 0.631377 0
M  V30 11 H -0.977 1.52953 0.210867 0
M  V30 12 H 0.981 2.67203 3.11629 0
M  V30 13 H -0.358 1.57376 2.7183 0
M  V30 14 H -1.165 3.90944 3.18086 0
M  V30 15 H -1.563 3.418 1.51819 0
M  V30 16 H 0.729 5.58782 3.83104 0
M  V30 17 H 1.672 6.56266 2.65933 0
M  V30 18 H 2.08 4.83886 2.90714 0
M  V30 19 N 1.4781 -0.272755 1.55222 0
M  V30 20 C 2.4411 -1.32041 1.87344 0
M  V30 21 C 3.4411 -1.42342 0.74803 0
M  V30 22 O 4.6311 -1.41488 1.0162 0
M  V30 23 C 1.7631 -2.70173 2.07893 0
M  V30 24 H 2.9561 -1.04789 2.80997 0
M  V30 25 H 0.5091 -0.51083 1.47717 0
M  V30 26 H 1.2441 -3.02605 1.16622 0
M  V30 27 H 1.0291 -2.64082 2.89833 0
M  V30 28 H 2.5191 -3.45869 2.34017 0
M  V30 29 N 2.9562 -1.48159 -0.537278 0
M  V30 30 C 4.1842 -1.59454 -1.31841 0
M  V30 31 C 4.5992 -0.252065 -1.8711 0
M  V30 32 O 3.9562 0.757621 -1.66031 0
M  V30 33 C 4.0072 -2.63546 -2.47439 0
M  V30 34 O 3.7282 -3.92583 -1.94449 0
M  V30 35 C 5.2292 -2.85212 -3.39366 0
M  V30 36 H 2.4492 -0.53785 -0.401196 0
M  V30 37 H 4.9932 -1.93932 -0.648891 0
M  V30 38 H 3.1482 -2.31946 -3.1029 0
M  V30 39 H 3.5622 -4.49629 -2.70063 0
M  V30 40 H 5.0362 -3.61863 -4.16844 0
M  V30 41 H 5.5132 -1.93765 -3.94147 0
M  V30 42 H 6.1192 -3.18086 -2.82314 0
M  V30 43 N 4.4343 0.785586 -1.36625 0
M  V30 44 C 5.3973 1.87999 -1.31107 0
M  V30 45 C 6.3973 1.59316 -0.217959 0
M  V30 46 O 7.5873 1.67656 -0.472977 0
M  V30 47 C 4.7193 3.24861 -1.03334 0
M  V30 48 H 5.9123 1.94307 -2.2844 0
M  V30 49 H 3.4653 0.983813 -1.21453 0
M  V30 50 H 4.2003 3.24235 -0.0647432 0
M  V30 51 H 3.9853 3.4707 -1.82441 0
M  V30 52 H 5.4753 4.04929 -1.02088 0
M  V30 53 N 5.9124 1.20967 1.01018 0
M  V30 54 C 6.8604 0.961223 2.1181 0
M  V30 55 C 7.8544 -0.0897034 1.69162 0
M  V30 56 O 9.0604 0.0612271 1.79896 0
M  V30 57 H 5.4354 0.29355 0.692338 0
M  V30 58 H 7.4064 1.90178 2.29946 0
M  V30 59 C 6.1554 0.536854 3.4353 0
M  V30 60 H 5.4784 1.33713 3.76777 0
M  V30 61 H 6.9184 0.402286 4.22087 0
M  V30 62 C 5.3774 -0.751574 3.2841 0
M  V30 63 O 5.9074 -1.80841 3.58691 0
M  V30 64 N 4.1134 -0.716079 2.81639 0
M  V30 65 H 3.6604 0.144236 2.57196 0
M  V30 66 H 3.6184 -1.57847 2.71904 0
M  V30 67 N 7.3905 -1.2043 1.01659 0
M  V30 68 C 8.6385 -1.89423 0.704522 0
M  V30 69 C 8.9595 -1.79231 -0.768197 0
M  V30 70 O 8.2295 -1.1947 -1.55254 0
M  V30 71 H 6.8095 -0.701178 0.257602 0
M  V30 72 H 9.4715 -1.4626 1.28818 0
M  V30 73 H 8.5675 -2.96052 0.987916 0
M  V30 74 N 8.8686 -0.792821 -1.36206 0
M  V30 75 C 9.8316 -0.199459 -2.2833 0
M  V30 76 C 10.8316 0.605189 -1.48977 0
M  V30 77 O 12.0216 0.425685 -1.68919 0
M  V30 78 C 9.1536 0.723523 -3.33134 0
M  V30 79 H 10.3466 -1.01181 -2.82316 0
M  V30 80 H 7.8996 -0.562485 -1.45828 0
M  V30 81 H 8.6346 1.56008 -2.84309 0
M  V30 82 H 8.4196 0.148436 -3.91819 0
M  V30 83 H 9.9096 1.13344 -4.01924 0
M  V30 84 N 10.3467 1.47872 -0.545128 0
M  V30 85 C 11.5927 2.02793 -0.0166104 0
M  V30 86 C 11.9257 1.41987 1.32489 0
M  V30 87 O 11.2007 0.571045 1.85928 0
M  V30 88 C 11.4837 3.59989 0.0893294 0
M  V30 89 C 11.3367 4.3125 -1.27841 0
M  V30 90 C 12.6557 4.32606 0.808724 0
M  V30 91 H 9.7747 0.736962 -0.00751035 0
M  V30 92 H 12.4167 1.76433 -0.705085 0
M  V30 93 H 10.5667 3.82579 0.675681 0
M  V30 94 H 12.2387 4.20035 -1.90704 0
M  V30 95 H 10.4817 3.92076 -1.85632 0
M  V30 96 H 11.1527 5.39736 -1.15713 0
M  V30 97 H 13.6287 4.14936 0.310992 0
M  V30 98 H 12.5047 5.42251 0.851782 0
M  V30 99 H 12.7657 4.00963 1.86229 0
M  V30 100 N 11.8248 0.280983 1.55075 0
M  V30 101 C 12.7348 -0.61388 2.26426 0
M  V30 102 C 13.7508 -1.16521 1.29224 0
M  V30 103 O 14.9268 -1.19426 1.62171 0
M  V30 104 C 11.9918 -1.7788 2.9759 0
M  V30 105 C 11.0528 -1.26355 4.10284 0
M  V30 106 C 10.2858 -2.37295 4.78045 0
M  V30 107 O 10.5088 -3.56777 4.45047 0
M  V30 108 O 9.4428 -2.05119 5.65871 0
M  V30 109 H 13.2688 -0.0356932 3.03679 0
M  V30 110 H 10.8538 0.0481686 1.49322 0
M  V30 111 H 12.7358 -2.45791 3.42293 0
M  V30 112 H 11.4108 -2.34397 2.23249 0
M  V30 113 H 10.3178 -0.550735 3.70024 0
M  V30 114 H 11.6508 -0.744065 4.86543 0
M  V30 115 N 13.3029 -1.57598 0.00835791 0
M  V30 116 C 14.2509 -2.10078 -0.998508 0
M  V30 117 C 15.2449 -1.02262 -1.35051 0
M  V30 118 O 16.4509 -1.20719 -1.33518 0
M  V30 119 H 12.8259 -0.670903 -0.339696 0
M  V30 120 H 14.7969 -2.93648 -0.530398 0
M  V30 121 C 13.5459 -2.62615 -2.27879 0
M  V30 122 H 12.8689 -3.45213 -2.01662 0
M  V30 123 H 14.3089 -3.03004 -2.96588 0
M  V30 124 C 12.7679 -1.54407 -2.99433 0
M  V30 125 O 13.2979 -0.931812 -3.90743 0
M  V30 126 N 11.5039 -1.2695 -2.61404 0
M  V30 127 H 11.0509 -1.76924 -1.87232 0
M  V30 128 H 11.0089 -0.547704 -3.09593 0
M  V30 129 N 14.781 0.264519 -1.55364 0
M  V30 130 C 16.029 0.993021 -1.76021 0
M  V30 131 C 16.35 1.86511 -0.569099 0
M  V30 132 O 15.62 1.91438 0.415735 0
M  V30 133 H 14.2 0.369639 -0.649135 0
M  V30 134 H 16.862 0.286707 -1.9278 0
M  V30 135 H 15.958 1.62502 -2.66457 0
M  V30 136 N 16.2591 1.48442 0.529413 0
M  V30 137 C 17.1911 1.59095 1.64989 0
M  V30 138 C 18.2041 0.475212 1.5571 0
M  V30 139 O 19.3931 0.746081 1.6216 0
M  V30 140 C 16.4931 1.50518 3.0364 0
M  V30 141 C 15.6661 2.77142 3.38395 0
M  V30 142 C 14.7251 2.62012 4.56329 0
M  V30 143 O 13.7511 3.35898 4.59522 0
M  V30 144 N 14.9531 1.71667 5.54536 0
M  V30 145 H 17.7181 2.55723 1.56287 0
M  V30 146 H 15.2791 1.45173 0.716697 0
M  V30 147 H 17.2711 1.38091 3.80412 0
M  V30 148 H 15.8411 0.618627 3.06418 0
M  V30 149 H 15.0611 3.0413 2.50796 0
M  V30 150 H 16.3491 3.61146 3.58401 0
M  V30 151 H 15.7471 1.10841 5.54735 0
M  V30 152 H 14.3041 1.65178 6.30523 0
M  V30 153 N 17.7372 -0.778329 1.37039 0
M  V30 154 C 19.1482 -1.35421 1.28523 0
M  V30 155 C 19.4992 -1.96075 -0.0700901 0
M  V30 156 O 18.6242 -1.93352 -0.971801 0
M  V30 157 C 19.2192 -2.46211 2.32735 0
M  V30 158 C 17.7782 -2.99585 2.27873 0
M  V30 159 C 16.9252 -1.72748 2.16918 0
M  V30 160 H 19.8762 -0.5791 1.47757 0
M  V30 161 H 19.8972 -3.2552 1.9702 0
M  V30 162 H 19.4092 -2.02036 3.31365 0
M  V30 163 H 17.5102 -3.48152 1.32745 0
M  V30 164 H 17.6232 -3.55646 3.21018 0
M  V30 165 H 15.9872 -1.95416 1.63354 0
M  V30 166 H 16.7702 -1.30686 3.17452 0
M  V30 167 N 19.2153 -1.21501 -1.00376 0
M  V30 168 C 20.4923 -0.941745 -1.71437 0
M  V30 169 C 20.8723 0.546114 -2.03914 0
M  V30 170 O 20.2203 1.51128 -1.71384 0
M  V30 171 C 20.4303 -1.82812 -2.97289 0
M  V30 172 C 21.7783 -2.07771 -3.70292 0
M  V30 173 O 22.8023 -1.80171 -3.07273 0
M  V30 174 O 21.6613 -2.54456 -4.83647 0
M  V30 175 H 18.7553 -0.353243 -0.747762 0
M  V30 176 H 21.3013 -1.32436 -1.06108 0
M  V30 177 H 20.0733 -2.83501 -2.69709 0
M  V30 178 H 19.6963 -1.4464 -3.70358 0
M  V30 179 N 20.6934 1.19889 -1.02296 0
M  V30 180 C 22.1094 1.41462 -0.738954 0
M  V30 181 C 22.3094 1.89721 0.678846 0
M  V30 182 O 21.3654 2.07016 1.4457 0
M  V30 183 C 22.6784 2.43083 -1.77005 0
M  V30 184 C 24.2264 2.5684 -1.78892 0
M  V30 185 C 24.7014 3.61709 -2.80945 0
M  V30 186 N 26.1924 3.69199 -2.79725 0
M  V30 187 C 26.9274 4.50019 -3.55345 0
M  V30 188 N 26.4234 5.34592 -4.40662 0
M  V30 189 N 28.2164 4.44612 -3.43914 0
M  V30 190 H 20.3674 0.868827 -1.93817 0
M  V30 191 H 22.6304 0.44399 -0.837602 0
M  V30 192 H 22.3364 2.14636 -2.78612 0
M  V30 193 H 22.2104 3.4217 -1.58744 0
M  V30 194 H 24.5974 2.84614 -0.779674 0
M  V30 195 H 24.6784 1.57927 -2.01228 0
M  V30 196 H 24.3224 3.34678 -3.82038 0
M  V30 197 H 24.2524 4.60259 -2.5587 0
M  V30 198 H 26.7434 3.08794 -2.17842 0
M  V30 199 H 27.0564 5.93363 -4.95116 0
M  V30 200 H 25.4014 5.34073 -4.44737 0
M  V30 201 H 28.5924 3.7758 -2.76679 0
M  V30 202 H 28.7654 5.0736 -4.031 0
M  V30 203 N 22.1715 0.800033 1.35784 0
M  V30 204 C 23.1185 0.203848 2.29898 0
M  V30 205 C 24.0885 -0.658375 1.52495 0
M  V30 206 O 25.2735 -0.604832 1.8096 0
M  V30 207 C 22.4135 -0.64688 3.38983 0
M  V30 208 C 21.5265 0.235054 4.3136 0
M  V30 209 C 20.6615 -0.623054 5.27533 0
M  V30 210 C 19.7005 0.259682 6.11549 0
M  V30 211 N 18.8375 -0.558019 6.99879 0
M  V30 212 H 23.6775 1.01186 2.80295 0
M  V30 213 H 21.2145 0.51053 1.37957 0
M  V30 214 H 23.1725 -1.15521 4.00887 0
M  V30 215 H 21.8025 -1.42021 2.89879 0
M  V30 216 H 20.8545 0.861438 3.70518 0
M  V30 217 H 22.1665 0.914768 4.9034 0
M  V30 218 H 21.3205 -1.19678 5.94779 0
M  V30 219 H 20.0595 -1.33636 4.69034 0
M  V30 220 H 19.0645 0.845726 5.43256 0
M  V30 221 H 20.2895 0.970748 6.72126 0
M  V30 222 H 18.2355 -1.25542 6.43875 0
M  V30 223 H 18.1525 0.0637872 7.55973 0
M  V30 224 H 19.4205 -1.11523 7.71481 0
M  V30 225 N 23.6496 -1.47581 0.552962 0
M  V30 226 C 25.0606 -1.86324 0.118463 0
M  V30 227 C 25.4116 -1.46006 -1.3106 0
M  V30 228 O 24.5366 -0.861182 -1.98526 0
M  V30 229 C 25.1316 -3.3816 0.20821 0
M  V30 230 C 23.6906 -3.7601 -0.171226 0
M  V30 231 C 22.8376 -2.71634 0.557686 0
M  V30 232 H 25.7886 -1.39159 0.762928 0
M  V30 233 H 25.8096 -3.76141 -0.574278 0
M  V30 234 H 25.3216 -3.67473 1.24841 0
M  V30 235 H 23.4226 -3.52313 -1.21269 0
M  V30 236 H 23.5356 -4.78745 0.184379 0
M  V30 237 H 21.8996 -2.547 0.00125792 0
M  V30 238 H 22.6826 -3.0379 1.59896 0
M  V30 239 N 25.1277 -0.289203 -1.54924 0
M  V30 240 C 26.5387 0.205791 -1.85562 0
M  V30 241 C 26.8897 1.54351 -1.2112 0
M  V30 242 O 26.0147 2.10435 -0.504601 0
M  V30 243 C 26.6097 0.380177 -3.3666 0
M  V30 244 C 25.1687 0.819395 -3.67373 0
M  V30 245 C 24.3157 -0.079159 -2.77187 0
M  V30 246 H 27.2667 -0.510577 -1.50262 0
M  V30 247 H 27.2877 1.21659 -3.60526 0
M  V30 248 H 26.7997 -0.593589 -3.83534 0
M  V30 249 H 24.9007 1.80413 -3.26009 0
M  V30 250 H 25.0137 0.646957 -4.74712 0
M  V30 251 H 23.3777 0.439565 -2.50878 0
M  V30 252 H 24.1607 -1.04906 -3.26878 0
M  V30 253 N 26.6058 1.57591 -0.0167156 0
M  V30 254 C 27.5688 2.08393 0.954204 0
M  V30 255 C 28.5688 0.996531 1.26198 0
M  V30 256 O 29.7588 1.25858 1.20438 0
M  V30 257 C 26.8908 2.5394 2.27436 0
M  V30 258 H 28.0838 2.95455 0.514451 0
M  V30 259 H 25.6368 1.54582 0.231089 0
M  V30 260 H 26.3718 1.70171 2.76066 0
M  V30 261 H 26.1568 3.33371 2.06412 0
M  V30 262 H 27.6468 2.93512 2.97053 0
M  V30 263 N 28.0839 -0.256276 1.55502 0
M  V30 264 C 29.0139 -1.32102 1.92539 0
M  V30 265 C 29.9949 -1.50684 0.789194 0
M  V30 266 O 31.1799 -1.63449 1.04872 0
M  V30 267 C 28.3099 -2.67752 2.21192 0
M  V30 268 C 27.2639 -2.63878 3.36975 0
M  V30 269 C 26.5899 -4.03236 3.51147 0
M  V30 270 C 27.8899 -2.21682 4.72921 0
M  V30 271 H 29.5839 -1.01351 2.81724 0
M  V30 272 H 27.1299 -0.486105 1.35547 0
M  V30 273 H 29.0829 -3.42365 2.45691 0
M  V30 274 H 27.8069 -3.0012 1.28824 0
M  V30 275 H 26.4659 -1.91722 3.12471 0
M  V30 276 H 26.1139 -4.32854 2.56216 0
M  V30 277 H 25.8139 -4.01535 4.29003 0
M  V30 278 H 27.3379 -4.79563 3.77957 0
M  V30 279 H 28.7519 -2.86023 4.96854 0
M  V30 280 H 27.1489 -2.3111 5.53812 0
M  V30 281 H 28.2189 -1.16833 4.70615 0
M  V30 282 N 29.562 -1.4872 -0.521534 0
M  V30 283 C 30.973 -1.50607 -1.10337 0
M  V30 284 C 31.324 -0.280612 -1.94183 0
M  V30 285 O 30.449 0.611507 -2.0758 0
M  V30 286 C 31.044 -2.72903 -2.00772 0
M  V30 287 C 29.603 -2.77634 -2.54158 0
M  V30 288 C 28.75 -2.44241 -1.31307 0
M  V30 289 H 31.701 -1.55714 -0.306388 0
M  V30 290 H 31.722 -2.519 -2.85178 0
M  V30 291 H 31.234 -3.62077 -1.39721 0
M  V30 292 H 29.335 -1.92689 -3.18907 0
M  V30 293 H 29.448 -3.79283 -2.92714 0
M  V30 294 H 27.812 -1.95577 -1.63161 0
M  V30 295 H 28.595 -3.35666 -0.719943 0
M  V30 296 N 31.0401 0.771051 -1.3745 0
M  V30 297 C 32.4561 1.07171 -1.18265 0
M  V30 298 C 32.6561 2.01491 -0.019287 0
M  V30 299 O 31.7121 2.44244 0.640408 0
M  V30 300 C 33.0251 1.66854 -2.50161 0
M  V30 301 C 34.5731 1.79109 -2.56689 0
M  V30 302 C 35.0481 2.42205 -3.88717 0
M  V30 303 N 36.5391 2.49655 -3.90162 0
M  V30 304 C 37.2741 2.9933 -4.8907 0
M  V30 305 N 36.7701 3.49172 -5.98374 0
M  V30 306 N 38.5631 2.9821 -4.76474 0
M  V30 307 H 30.7141 0.144796 -2.11906 0
M  V30 308 H 32.9771 0.126863 -0.939473 0
M  V30 309 H 32.6831 1.05017 -3.35655 0
M  V30 310 H 32.5571 2.6614 -2.673 0
M  V30 311 H 34.9441 2.40077 -1.71601 0
M  V30 312 H 35.0251 0.785757 -2.43433 0
M  V30 313 H 34.6691 1.81875 -4.74219 0
M  V30 314 H 34.5991 3.43345 -3.99276 0
M  V30 315 H 37.0901 2.14383 -3.11205 0
M  V30 316 H 37.4031 3.8548 -6.69795 0
M  V30 317 H 35.7481 3.47275 -6.02018 0
M  V30 318 H 38.9391 2.58572 -3.90203 0
M  V30 319 H 39.1121 3.36613 -5.53711 0
M  V30 320 N 32.5182 1.22032 0.997298 0
M  V30 321 C 33.9292 1.0397 1.55071 0
M  V30 322 C 34.2802 -0.398192 1.92117 0
M  V30 323 O 33.4052 -1.28254 1.74298 0
M  V30 324 C 34.0002 1.88109 2.81781 0
M  V30 325 C 32.5592 1.74357 3.33581 0
M  V30 326 C 31.7062 1.84846 2.06706 0
M  V30 327 H 34.6572 1.35941 0.818883 0
M  V30 328 H 34.6782 1.39589 3.53971 0
M  V30 329 H 34.1902 2.92754 2.54787 0
M  V30 330 H 32.2912 0.72427 3.65493 0
M  V30 331 H 32.4042 2.56772 4.04481 0
M  V30 332 H 30.7682 1.28238 2.20062 0
M  V30 333 H 31.5512 2.91014 1.82114 0
M  V30 334 N 33.9963 -1.19345 1.0293 0
M  V30 335 C 35.2453 -1.88363 0.721256 0
M  V30 336 C 35.5583 -1.80514 -0.753254 0
M  V30 337 O 36.7643 -2.44788 -1.17436 0
M  V30 338 C 35.2203 -3.37872 1.23978 0
M  V30 339 C 34.8283 -3.54278 2.74211 0
M  V30 340 C 36.5723 -4.12365 1.00775 0
M  V30 341 C 34.4793 -4.97682 3.19479 0
M  V30 342 H 33.4093 -0.705484 0.266098 0
M  V30 343 H 36.0603 -1.34928 1.24365 0
M  V30 344 H 34.4423 -3.90707 0.6453 0
M  V30 345 H 35.6163 -3.11769 3.39318 0
M  V30 346 H 33.9313 -2.93174 2.95699 0
M  V30 347 H 36.5283 -5.18119 1.32123 0
M  V30 348 H 36.8713 -4.16263 -0.0554308 0
M  V30 349 H 37.4043 -3.65668 1.56625 0
M  V30 350 H 34.1433 -4.98945 4.25128 0
M  V30 351 H 33.6633 -5.4095 2.591 0
M  V30 352 H 35.3423 -5.66337 3.12845 0
M  V30 353 N 35.4744 -0.807222 -1.35358 0
M  V30 354 C 36.8904 -0.491038 -1.51858 0
M  V30 355 C 37.0904 0.987648 -1.75635 0
M  V30 356 O 36.1464 1.77265 -1.79815 0
M  V30 357 C 37.4594 -1.33695 -2.69344 0
M  V30 358 C 39.0074 -1.33246 -2.83222 0
M  V30 359 C 39.4824 -2.1625 -4.03733 0
M  V30 360 N 40.9734 -2.1379 -4.10911 0
M  V30 361 C 41.7084 -2.74772 -5.03277 0
M  V30 362 N 41.2044 -3.44684 -6.0097 0
M  V30 363 N 42.9974 -2.6441 -4.96028 0
M  V30 364 H 35.1484 -1.76485 -1.18181 0
M  V30 365 H 37.4114 -0.751199 -0.578276 0
M  V30 366 H 37.1174 -2.38634 -2.58354 0
M  V30 367 H 36.9914 -0.990618 -3.6396 0
M  V30 368 H 39.3784 -0.290911 -2.93663 0
M  V30 369 H 39.4594 -1.71866 -1.89461 0
M  V30 370 H 39.1034 -3.20445 -3.94052 0
M  V30 371 H 39.0334 -1.74989 -4.96675 0
M  V30 372 H 41.5244 -1.62923 -3.40976 0
M  V30 373 H 41.8374 -3.88501 -6.68047 0
M  V30 374 H 40.1824 -3.48788 -6.01142 0
M  V30 375 H 43.3734 -2.0938 -4.18662 0
M  V30 376 H 43.5464 -3.12225 -5.6782 0
M  V30 377 N 36.9525 1.47285 -0.560781 0
M  V30 378 C 37.9005 2.31756 0.197942 0
M  V30 379 C 38.8945 1.43146 0.905854 0
M  V30 380 O 40.1005 1.59891 0.826733 0
M  V30 381 H 36.4755 0.747438 0.0827049 0
M  V30 382 H 38.4465 2.9359 -0.533629 0
M  V30 383 C 37.1955 3.25874 1.21249 0
M  V30 384 H 36.5185 3.94023 0.67719 0
M  V30 385 H 37.9585 3.87803 1.71419 0
M  V30 386 C 36.4175 2.49651 2.26221 0
M  V30 387 O 36.9475 2.24355 3.33208 0
M  V30 388 N 35.1535 2.10597 2.00243 0
M  V30 389 H 34.7005 2.31369 1.13252 0
M  V30 390 H 34.6585 1.59913 2.70694 0
M  V30 391 N 38.4306 0.297415 1.54768 0
M  V30 392 C 39.3606 -0.573494 2.26348 0
M  V30 393 C 40.3416 -1.14085 1.26169 0
M  V30 394 O 41.5266 -1.17086 1.54934 0
M  V30 395 C 38.6566 -1.74716 3.00153 0
M  V30 396 C 37.6106 -1.31032 4.07449 0
M  V30 397 C 36.9366 -2.56887 4.68949 0
M  V30 398 C 38.2366 -0.444183 5.20408 0
M  V30 399 H 39.9306 0.0235131 2.99391 0
M  V30 400 H 37.4766 0.0127488 1.43994 0
M  V30 401 H 39.4296 -2.3625 3.48947 0
M  V30 402 H 38.1536 -2.37035 2.24682 0
M  V30 403 H 36.8126 -0.718066 3.59499 0
M  V30 404 H 36.4606 -3.17512 3.90122 0
M  V30 405 H 36.1606 -2.2836 5.41411 0
M  V30 406 H 37.6846 -3.19229 5.20505 0
M  V30 407 H 39.0986 -0.9651 5.65118 0
M  V30 408 H 37.4956 -0.252846 5.99567 0
M  V30 409 H 38.5656 0.531609 4.81977 0
M  V30 410 N 39.9087 -1.5758 0.0250728 0
M  V30 411 C 40.8187 -2.1343 -0.973905 0
M  V30 412 C 41.8347 -1.08556 -1.35984 0
M  V30 413 O 43.0107 -1.40592 -1.44207 0
M  V30 414 C 40.0757 -2.64703 -2.23904 0
M  V30 415 C 39.1367 -3.84276 -1.91391 0
M  V30 416 C 38.3697 -4.33095 -3.11873 0
M  V30 417 O 38.5927 -3.81107 -4.24398 0
M  V30 418 O 37.5267 -5.24984 -2.94406 0
M  V30 419 H 41.3527 -2.99057 -0.529036 0
M  V30 420 H 38.9377 -1.48118 -0.195288 0
M  V30 421 H 40.8197 -2.97769 -2.98181 0
M  V30 422 H 39.4947 -1.82161 -2.6758 0
M  V30 423 H 38.4017 -3.56143 -1.14511 0
M  V30 424 H 39.7347 -4.67968 -1.52534 0
M  V30 425 N 41.3868 0.248026 -1.55636 0
M  V30 426 C 42.6328 0.97767 -1.77678 0
M  V30 427 C 42.9658 1.85016 -0.590135 0
M  V30 428 O 42.2408 1.90095 0.411611 0
M  V30 429 C 42.5238 1.83914 -3.09593 0
M  V30 430 C 42.3768 0.99491 -4.38659 0
M  V30 431 C 43.6958 2.82183 -3.37729 0
M  V30 432 H 40.8148 0.354005 -0.646413 0
M  V30 433 H 43.4568 0.248253 -1.88371 0
M  V30 434 H 41.6068 2.46104 -3.00608 0
M  V30 435 H 43.2788 0.391789 -4.59633 0
M  V30 436 H 41.5218 0.299231 -4.32767 0
M  V30 437 H 42.1928 1.63145 -5.2734 0
M  V30 438 H 44.6688 2.30129 -3.4667 0
M  V30 439 H 43.5448 3.39582 -4.31249 0
M  V30 440 H 43.8058 3.58588 -2.58586 0
M  V30 441 N 42.8649 1.48995 0.513639 0
M  V30 442 C 43.8119 1.6473 1.61656 0
M  V30 443 C 44.7819 0.488984 1.58739 0
M  V30 444 O 45.9669 0.714478 1.76918 0
M  V30 445 C 43.1069 1.7082 2.99858 0
M  V30 446 C 42.2199 2.9787 3.12885 0
M  V30 447 C 41.3549 2.95017 4.41744 0
M  V30 448 C 40.3939 4.16702 4.48359 0
M  V30 449 N 39.5309 4.11832 5.68629 0
M  V30 450 H 44.3709 2.58909 1.47547 0
M  V30 451 H 41.9079 1.28382 0.71808 0
M  V30 452 H 43.8659 1.72331 3.79944 0
M  V30 453 H 42.4959 0.801181 3.12699 0
M  V30 454 H 41.5479 3.06029 2.25944 0
M  V30 455 H 42.8599 3.8786 3.13633 0
M  V30 456 H 42.0139 2.95021 5.30139 0
M  V30 457 H 40.7529 2.02784 4.43542 0
M  V30 458 H 39.7579 4.16955 3.58369 0
M  V30 459 H 40.9829 5.10113 4.48287 0
M  V30 460 H 38.9289 3.22428 5.71293 0
M  V30 461 H 38.8459 4.95543 5.7094 0
M  V30 462 H 40.1139 4.1592 6.59266 0
M  V30 463 N 44.343 -0.763751 1.37857 0
M  V30 464 C 45.59 -1.52257 1.33506 0
M  V30 465 C 45.918 -1.94343 -0.078022 0
M  V30 466 O 45.173 -1.64958 -1.05297 0
M  V30 467 C 45.472 -2.79499 2.22745 0
M  V30 468 C 45.138 -2.56426 3.70886 0
M  V30 469 C 43.8 -2.49842 4.11257 0
M  V30 470 C 46.152 -2.36008 4.64704 0
M  V30 471 C 43.48 -2.20841 5.43549 0
M  V30 472 C 45.832 -2.0853 5.97242 0
M  V30 473 C 44.496 -2.00396 6.36709 0
M  V30 474 H 43.766 -0.557149 0.488534 0
M  V30 475 H 46.413 -0.879073 1.70131 0
M  V30 476 H 44.718 -3.48447 1.79142 0
M  V30 477 H 46.415 -3.37413 2.16688 0
M  V30 478 H 43.005 -2.62416 3.38874 0
M  V30 479 H 47.189 -2.40079 4.34368 0
M  V30 480 H 42.445 -2.13045 5.73081 0
M  V30 481 H 46.619 -1.91732 6.69486 0
M  V30 482 H 44.246 -1.77688 7.39142 0
M  V30 483 N 45.8211 -1.22559 -0.990812 0
M  V30 484 C 47.0491 -1.07779 -1.76611 0
M  V30 485 C 47.4641 0.371513 -1.85109 0
M  V30 486 O 46.8211 1.25737 -1.32274 0
M  V30 487 C 46.8721 -1.68512 -3.19822 0
M  V30 488 O 46.5931 -3.07774 -3.1178 0
M  V30 489 C 48.0941 -1.59035 -4.13791 0
M  V30 490 H 45.3141 -0.377729 -0.554583 0
M  V30 491 H 47.8581 -1.62195 -1.24551 0
M  V30 492 H 46.0131 -1.18154 -3.68942 0
M  V30 493 H 46.4271 -3.37062 -4.01858 0
M  V30 494 H 47.9011 -2.0625 -5.1202 0
M  V30 495 H 48.3781 -0.547273 -4.35777 0
M  V30 496 H 48.9841 -2.08709 -3.70568 0
M  V30 497 N 47.2992 1.18797 -1.03562 0
M  V30 498 C 48.2462 2.22253 -0.622259 0
M  V30 499 C 49.2162 1.61987 0.36736 0
M  V30 500 O 50.4012 1.88986 0.262492 0
M  V30 501 C 47.5412 3.45097 0.0138462 0
M  V30 502 C 46.6542 4.19722 -1.02263 0
M  V30 503 C 45.7892 5.30009 -0.355573 0
M  V30 504 C 44.8282 5.96399 -1.37749 0
M  V30 505 N 43.9652 6.98234 -0.735766 0
M  V30 506 H 48.8052 2.56968 -1.50903 0
M  V30 507 H 46.3422 1.26245 -0.755017 0
M  V30 508 H 48.3002 4.15279 0.399948 0
M  V30 509 H 46.9302 3.11018 0.864158 0
M  V30 510 H 45.9822 3.48418 -1.52673 0
M  V30 511 H 47.2942 4.65227 -1.79903 0
M  V30 512 H 46.4482 6.0664 0.0850095 0
M  V30 513 H 45.1872 4.85592 0.452967 0
M  V30 514 H 44.1922 5.18512 -1.82826 0
M  V30 515 H 45.4172 6.42899 -2.18764 0
M  V30 516 H 43.3632 6.55979 0.0525597 0
M  V30 517 H 43.2802 7.41965 -1.44995 0
M  V30 518 H 44.5482 7.78845 -0.31941 0
M  V30 519 N 48.7773 0.814389 1.34928 0
M  V30 520 C 50.0263 0.394871 1.97797 0
M  V30 521 C 50.3393 -1.04555 1.65311 0
M  V30 522 O 51.5453 -1.56856 2.21604 0
M  V30 523 C 50.0013 0.655103 3.53888 0
M  V30 524 C 49.6093 2.10858 3.95276 0
M  V30 525 C 51.3533 0.301329 4.23429 0
M  V30 526 C 49.2603 2.31415 5.44244 0
M  V30 527 H 48.1903 0.143913 0.740139 0
M  V30 528 H 50.8413 0.999544 1.53888 0
M  V30 529 H 49.2233 -0.0196253 3.95995 0
M  V30 530 H 50.3973 2.82176 3.64298 0
M  V30 531 H 48.7123 2.42297 3.38646 0
M  V30 532 H 51.3093 0.432869 5.32945 0
M  V30 533 H 51.6523 -0.75331 4.09428 0
M  V30 534 H 52.1853 0.930288 3.86769 0
M  V30 535 H 48.9243 3.35353 5.63222 0
M  V30 536 H 48.4443 1.6463 5.76764 0
M  V30 537 H 50.1233 2.13352 6.10811 0
M  V30 538 N 50.2554 -1.46986 0.568584 0
M  V30 539 C 51.5024 -2.02441 0.0487986 0
M  V30 540 C 51.8304 -1.44169 -1.30559 0
M  V30 541 O 51.0854 -0.591213 -1.86556 0
M  V30 542 C 51.3844 -3.57306 -0.081836 0
M  V30 543 C 51.0504 -4.34552 1.20313 0
M  V30 544 C 49.7124 -4.55376 1.5552 0
M  V30 545 C 52.0644 -4.79016 2.05411 0
M  V30 546 C 49.3924 -5.17913 2.7565 0
M  V30 547 C 51.7444 -5.42879 3.24754 0
M  V30 548 C 50.4084 -5.61933 3.60261 0
M  V30 549 H 49.6784 -0.740785 0.0178567 0
M  V30 550 H 52.3254 -1.76525 0.742384 0
M  V30 551 H 50.6304 -3.8228 -0.858463 0
M  V30 552 H 52.3274 -3.97876 -0.499546 0
M  V30 553 H 48.9174 -4.18631 0.919014 0
M  V30 554 H 53.1014 -4.62696 1.79516 0
M  V30 555 H 48.3574 -5.30858 3.03315 0
M  V30 556 H 52.5314 -5.76293 3.90973 0
M  V30 557 H 50.1584 -6.10161 4.53439 0
M  V30 558 N 51.7335 -0.305618 -1.54608 0
M  V30 559 C 52.9825 0.303098 -1.9941 0
M  V30 560 C 53.2955 1.54648 -1.19764 0
M  V30 561 O 54.5015 2.23007 -1.54855 0
M  V30 562 C 52.9575 0.590588 -3.55021 0
M  V30 563 C 52.5655 -0.634719 -4.43481 0
M  V30 564 C 54.3095 1.16025 -4.08336 0
M  V30 565 C 52.2165 -0.320126 -5.90533 0
M  V30 566 H 51.1465 0.117031 -0.744862 0
M  V30 567 H 53.7975 -0.415045 -1.78745 0
M  V30 568 H 52.1795 1.36845 -3.71604 0
M  V30 569 H 53.3535 -1.41079 -4.38672 0
M  V30 570 H 51.6685 -1.12333 -4.00962 0
M  V30 571 H 54.2655 1.40994 -5.15776 0
M  V30 572 H 54.6085 2.10397 -3.5922 0
M  V30 573 H 55.1415 0.443985 -3.95315 0
M  V30 574 H 51.8805 -1.23254 -6.43808 0
M  V30 575 H 51.4005 0.418579 -5.98338 0
M  V30 576 H 53.0795 0.0766241 -6.46955 0
M  V30 577 N 53.2116 1.57565 -0.0334293 0
M  V30 578 C 54.1596 2.1164 0.96496 0
M  V30 579 C 55.1536 1.04398 1.33407 0
M  V30 580 O 56.3596 1.22828 1.3158 0
M  V30 581 H 52.7346 0.676222 0.32898 0
M  V30 582 H 54.7056 2.94455 0.483614 0
M  V30 583 C 53.4546 2.66207 2.23672 0
M  V30 584 H 52.7776 3.48378 1.96145 0
M  V30 585 H 54.2176 3.07685 2.9173 0
M  V30 586 C 52.6766 1.59151 2.96939 0
M  V30 587 O 53.2066 0.993858 3.89211 0
M  V30 588 N 51.4126 1.31093 2.59351 0
M  V30 589 H 50.9596 1.7988 1.84393 0
M  V30 590 H 50.9176 0.596889 3.08682 0
M  V30 591 N 54.6897 -0.239769 1.55765 0
M  V30 592 C 55.6377 -1.31668 1.91745 0
M  V30 593 C 56.6317 -1.49462 0.797338 0
M  V30 594 O 57.8377 -1.50852 0.982021 0
M  V30 595 H 54.2127 -0.441048 0.609082 0
M  V30 596 H 56.1837 -0.985923 2.81642 0
M  V30 597 C 54.9327 -2.66368 2.2348 0
M  V30 598 H 54.2557 -2.53478 3.09175 0
M  V30 599 H 55.6957 -3.40578 2.52553 0
M  V30 600 C 54.1547 -3.20002 1.05359 0
M  V30 601 O 54.6847 -4.00538 0.305261 0
M  V30 602 N 52.8907 -2.78126 0.842292 0
M  V30 603 H 52.4377 -2.12742 1.45253 0
M  V30 604 H 52.3957 -3.14354 0.053652 0
M  V30 605 N 56.1678 -1.49265 -0.50573 0
M  V30 606 C 57.0778 -1.68312 -1.63427 0
M  V30 607 C 58.0938 -0.565682 -1.64548 0
M  V30 608 O 59.2698 -0.839801 -1.83055 0
M  V30 609 C 56.3348 -1.74107 -2.99813 0
M  V30 610 C 55.3958 -2.97653 -3.09356 0
M  V30 611 C 54.6288 -3.03163 -4.39236 0
M  V30 612 O 54.8518 -2.16396 -5.27758 0
M  V30 613 O 53.7858 -3.9558 -4.53652 0
M  V30 614 H 57.6118 -2.63907 -1.50289 0
M  V30 615 H 55.1968 -1.32951 -0.681502 0
M  V30 616 H 57.0788 -1.803 -3.80881 0
M  V30 617 H 55.7538 -0.816901 -3.13223 0
M  V30 618 H 54.6608 -2.96981 -2.27493 0
M  V30 619 H 55.9938 -3.89535 -3.00871 0
M  V30 620 N 57.6459 0.756429 -1.3826 0
M  V30 621 C 58.8919 1.5168 -1.35517 0
M  V30 622 C 59.2469 1.9232 0.0554451 0
M  V30 623 O 58.5399 1.62352 1.01746 0
M  V30 624 C 58.7339 2.78313 -2.24224 0
M  V30 625 C 58.5629 2.50053 -3.7377 0
M  V30 626 C 57.3329 2.43414 -4.42807 0
M  V30 627 C 59.5309 2.1702 -4.66269 0
M  V30 628 N 57.5129 2.07398 -5.77805 0
M  V30 629 C 58.8839 1.91271 -5.89759 0
M  V30 630 C 60.9389 2.03305 -4.54501 0
M  V30 631 C 59.6419 1.53192 -7.02798 0
M  V30 632 C 61.6679 1.66627 -5.67441 0
M  V30 633 C 61.0299 1.4175 -6.8999 0
M  V30 634 H 57.1289 0.554735 -0.551174 0
M  V30 635 H 59.7129 0.881106 -1.73622 0
M  V30 636 H 57.8839 3.39696 -1.88311 0
M  V30 637 H 59.6159 3.44343 -2.12627 0
M  V30 638 H 56.3709 2.59789 -3.95988 0
M  V30 639 H 56.7949 1.92044 -6.4919 0
M  V30 640 H 61.4369 2.21215 -3.60311 0
M  V30 641 H 59.1549 1.34022 -7.96909 0
M  V30 642 H 62.7409 1.56652 -5.60314 0
M  V30 643 H 61.6209 1.1379 -7.759 0
M  V30 644 N 59.124 1.23083 0.984299 0
M  V30 645 C 60.074 0.975749 2.06066 0
M  V30 646 C 61.058 -0.0768251 1.60716 0
M  V30 647 O 62.25 0.134805 1.76486 0
M  V30 648 C 59.379 0.564673 3.38624 0
M  V30 649 C 58.465 1.65244 3.90583 0
M  V30 650 N 58.856 2.88193 4.15666 0
M  V30 651 C 57.154 1.52612 4.19077 0
M  V30 652 C 57.855 3.58593 4.58024 0
M  V30 653 N 56.831 2.86093 4.62225 0
M  V30 654 H 60.633 1.90957 2.23411 0
M  V30 655 H 58.147 1.12963 1.16675 0
M  V30 656 H 60.144 0.36322 4.15315 0
M  V30 657 H 58.804 -0.362147 3.22674 0
M  V30 658 H 59.815 3.24537 4.03604 0
M  V30 659 H 56.492 0.666121 4.12152 0
M  V30 660 H 57.882 4.63974 4.85982 0
M  V30 661 N 60.6021 -1.18246 1.0419 0
M  V30 662 C 61.5121 -2.25574 0.644476 0
M  V30 663 C 62.5281 -1.70845 -0.329826 0
M  V30 664 O 63.7041 -2.00554 -0.184443 0
M  V30 665 C 60.7691 -3.46697 0.014877 0
M  V30 666 C 59.8301 -4.16554 1.03834 0
M  V30 667 C 59.0631 -5.31894 0.438692 0
M  V30 668 O 59.2861 -5.65385 -0.754752 0
M  V30 669 O 58.2201 -5.90459 1.168 0
M  V30 670 H 62.0461 -2.61836 1.53869 0
M  V30 671 H 59.6311 -1.25352 0.812854 0
M  V30 672 H 61.5131 -4.20062 -0.335538 0
M  V30 673 H 60.1881 -3.12255 -0.853138 0
M  V30 674 H 59.0951 -3.45251 1.44057 0
M  V30 675 H 60.4281 -4.54998 1.87716 0
M  V30 676 N 62.0802 -0.821533 -1.34494 0
M  V30 677 C 63.3052 -0.420873 -2.03085 0
M  V30 678 C 63.7302 0.964915 -1.61465 0
M  V30 679 O 63.0882 1.62763 -0.798607 0
M  V30 680 C 63.1362 -0.529414 -3.56693 0
M  V30 681 O 62.2402 0.451302 -4.09923 0
M  V30 682 H 61.5812 -0.173489 -0.640935 0
M  V30 683 H 64.1112 -1.11157 -1.71771 0
M  V30 684 H 64.1212 -0.404671 -4.05988 0
M  V30 685 H 62.7962 -1.54014 -3.86332 0
M  V30 686 H 61.3732 0.285558 -3.71805 0
M  V30 687 N 63.5583 1.46682 -0.576371 0
M  V30 688 C 64.5053 2.30241 0.160499 0
M  V30 689 C 65.4753 1.40233 0.890162 0
M  V30 690 O 66.6603 1.69186 0.882084 0
M  V30 691 C 63.8003 3.24578 1.1723 0
M  V30 692 C 62.9133 4.29684 0.446736 0
M  V30 693 C 62.0483 5.11154 1.44551 0
M  V30 694 C 61.0873 6.08015 0.70599 0
M  V30 695 N 60.2243 6.82376 1.65251 0
M  V30 696 H 65.0643 2.92727 -0.558127 0
M  V30 697 H 62.6013 1.44272 -0.287056 0
M  V30 698 H 64.5593 3.77711 1.77172 0
M  V30 699 H 63.1893 2.63916 1.85872 0
M  V30 700 H 62.2413 3.79458 -0.267594 0
M  V30 701 H 63.5533 4.98626 -0.131686 0
M  V30 702 H 62.7073 5.68533 2.11791 0
M  V30 703 H 61.4463 4.42158 2.05786 0
M  V30 704 H 60.4513 5.49796 0.0197725 0
M  V30 705 H 61.6763 6.79028 0.09912 0
M  V30 706 H 59.6223 6.16094 2.25308 0
M  V30 707 H 59.5393 7.47556 1.12673 0
M  V30 708 H 60.8073 7.44316 2.31546 0
M  V30 709 N 65.0364 0.313813 1.54444 0
M  V30 710 C 66.2614 -0.296681 2.05267 0
M  V30 711 C 66.6864 -1.45757 1.18897 0
M  V30 712 O 66.0444 -1.80239 0.195886 0
M  V30 713 C 66.0924 -0.71831 3.53373 0
M  V30 714 O 65.1964 -1.82175 3.69981 0
M  V30 715 H 64.5374 -0.0554061 0.661684 0
M  V30 716 H 67.0674 0.459387 1.99376 0
M  V30 717 H 67.0774 -1.00364 3.95463 0
M  V30 718 H 65.7524 0.130821 4.15694 0
M  V30 719 H 64.3294 -1.53598 3.39797 0
M  V30 720 N 66.5145 -1.57545 0.0417849 0
M  V30 721 C 67.7625 -1.91937 -0.632829 0
M  V30 722 C 68.0835 -0.919978 -1.71934 0
M  V30 723 O 67.3535 0.0366064 -1.95866 0
M  V30 724 H 65.9335 -0.708493 -0.236742 0
M  V30 725 H 68.5955 -1.9468 0.0925745 0
M  V30 726 H 67.6915 -2.92912 -1.07746 0
M  V30 727 N 67.9926 0.231505 -1.5589 0
M  V30 728 C 68.9396 1.28682 -1.91598 0
M  V30 729 C 69.9096 1.47071 -0.771974 0
M  V30 730 O 71.0946 1.60802 -1.027 0
M  V30 731 C 68.2346 2.6342 -2.22944 0
M  V30 732 C 67.3476 2.52912 -3.50228 0
M  V30 733 C 66.4826 3.80106 -3.7107 0
M  V30 734 C 65.5216 3.64279 -4.91902 0
M  V30 735 N 64.6586 4.834 -5.09184 0
M  V30 736 H 69.4986 0.975305 -2.81588 0
M  V30 737 H 67.0356 0.470299 -1.39379 0
M  V30 738 H 68.9936 3.41869 -2.39126 0
M  V30 739 H 67.6236 2.92687 -1.36139 0
M  V30 740 H 66.6756 1.6595 -3.42294 0
M  V30 741 H 67.9876 2.37133 -4.38827 0
M  V30 742 H 67.1416 4.66999 -3.87295 0
M  V30 743 H 65.8806 3.98799 -2.80733 0
M  V30 744 H 64.8856 2.7577 -4.75637 0
M  V30 745 H 66.1106 3.47067 -5.83714 0
M  V30 746 H 64.0566 5.02425 -4.21788 0
M  V30 747 H 63.9736 4.70311 -5.91898 0
M  V30 748 H 65.2416 5.71747 -5.29835 0
M  V30 749 N 69.4707 1.49531 0.497807 0
M  V30 750 C 70.4177 1.66436 1.59899 0
M  V30 751 C 71.3877 0.505793 1.58212 0
M  V30 752 O 72.5727 0.733202 1.7615 0
M  V30 753 C 69.7127 1.7399 2.98029 0
M  V30 754 C 68.8257 3.01172 3.09708 0
M  V30 755 C 67.9607 2.99686 4.38591 0
M  V30 756 C 66.9997 4.21434 4.43914 0
M  V30 757 N 66.1367 4.1784 5.64229 0
M  V30 758 H 70.9767 2.60459 1.44793 0
M  V30 759 H 68.5137 1.29137 0.704423 0
M  V30 760 H 70.4717 1.76352 3.78095 0
M  V30 761 H 69.1017 0.834301 3.11832 0
M  V30 762 H 68.1537 3.08408 2.22685 0
M  V30 763 H 69.4657 3.91165 3.09502 0
M  V30 764 H 68.6197 3.00628 5.2698 0
M  V30 765 H 67.3587 2.07477 4.41367 0
M  V30 766 H 66.3637 4.20733 3.53926 0
M  V30 767 H 67.5887 5.14839 4.42851 0
M  V30 768 H 65.5347 3.28469 5.67841 0
M  V30 769 H 65.4517 5.01571 5.65652 0
M  V30 770 H 66.7197 4.22889 6.54817 0
M  V30 771 N 70.9488 -0.749086 1.3866 0
M  V30 772 C 72.1958 -1.50833 1.35114 0
M  V30 773 C 72.5238 -1.94415 -0.0574049 0
M  V30 774 O 71.7788 -1.66065 -1.03541 0
M  V30 775 C 72.0778 -2.7712 2.25697 0
M  V30 776 C 71.7438 -2.52477 3.73585 0
M  V30 777 C 70.4058 -2.45466 4.13884 0
M  V30 778 C 72.7578 -2.31066 4.67181 0
M  V30 779 C 70.0858 -2.15064 5.45861 0
M  V30 780 C 72.4378 -2.02183 5.9942 0
M  V30 781 C 71.1018 -1.93631 6.38798 0
M  V30 782 H 70.3718 -0.551936 0.494416 0
M  V30 783 H 73.0188 -0.860979 1.71054 0
M  V30 784 H 71.3238 -3.46528 1.82827 0
M  V30 785 H 73.0208 -3.35096 2.20254 0
M  V30 786 H 69.6108 -2.58807 3.41638 0
M  V30 787 H 73.7948 -2.35459 4.3689 0
M  V30 788 H 69.0508 -2.06954 5.75308 0
M  V30 789 H 73.2248 -1.8462 6.71482 0
M  V30 790 H 70.8518 -1.69839 7.40985 0
M  V30 791 N 72.4269 -1.23603 -0.977757 0
M  V30 792 C 73.3899 -1.02069 -2.05218 0
M  V30 793 C 74.3899 0.0184305 -1.60789 0
M  V30 794 O 75.5799 -0.221569 -1.72785 0
M  V30 795 C 72.7119 -0.544926 -3.36517 0
M  V30 796 H 73.9049 -1.9742 -2.25755 0
M  V30 797 H 71.4579 -1.05684 -1.15155 0
M  V30 798 H 72.1929 0.412241 -3.21669 0
M  V30 799 H 71.9779 -1.2948 -3.70105 0
M  V30 800 H 73.4679 -0.414985 -4.15533 0
M  V30 801 N 73.905 1.17692 -1.04816 0
M  V30 802 C 75.133 1.91786 -0.776254 0
M  V30 803 C 75.548 1.76604 0.667577 0
M  V30 804 O 74.905 1.10067 1.45573 0
M  V30 805 C 74.956 3.42967 -1.14263 0
M  V30 806 O 74.677 3.57678 -2.52978 0
M  V30 807 C 76.178 4.34144 -0.896311 0
M  V30 808 H 73.398 0.608624 -0.282519 0
M  V30 809 H 75.942 1.49268 -1.39783 0
M  V30 810 H 74.097 3.83245 -0.565874 0
M  V30 811 H 74.511 4.51319 -2.67229 0
M  V30 812 H 75.985 5.38744 -1.20244 0
M  V30 813 H 76.462 4.38876 0.168636 0
M  V30 814 H 77.068 3.99574 -1.45672 0
M  V30 815 N 75.3831 0.828654 1.34056 0
M  V30 816 C 76.6231 0.425394 1.99924 0
M  V30 817 C 76.9871 -0.994294 1.64249 0
M  V30 818 O 78.1881 -1.50074 2.23005 0
M  V30 819 C 76.4591 0.628071 3.51838 0
M  V30 820 S 78.0181 0.318511 4.37642 0
M  V30 821 H 74.8361 0.160465 0.692656 0
M  V30 822 H 77.4381 1.07572 1.63244 0
M  V30 823 H 76.1421 1.66089 3.7529 0
M  V30 824 H 75.6731 -0.0367799 3.93383 0
M  V30 825 H 77.6881 -0.865632 4.88591 0
M  V30 826 N 76.8612 -1.46375 0.584142 0
M  V30 827 C 77.8092 -2.32042 -0.161047 0
M  V30 828 C 78.8032 -1.44569 -0.882966 0
M  V30 829 O 80.0092 -1.61186 -0.801191 0
M  V30 830 H 76.3842 -0.748659 -0.0708033 0
M  V30 831 H 78.3552 -2.92704 0.580269 0
M  V30 832 C 77.1042 -3.27762 -1.1605 0
M  V30 833 H 76.4272 -3.95051 -0.614419 0
M  V30 834 H 77.8672 -3.90481 -1.65228 0
M  V30 835 C 76.3262 -2.53218 -2.22221 0
M  V30 836 O 76.8562 -2.29628 -3.29597 0
M  V30 837 N 75.0622 -2.13756 -1.96868 0
M  V30 838 H 74.6092 -2.33142 -1.09557 0
M  V30 839 H 74.5672 -1.642 -2.68115 0
M  V30 840 N 78.3393 -0.321999 -1.54275 0
M  V30 841 C 79.7503 0.166384 -1.85957 0
M  V30 842 C 80.1013 1.51747 -1.24367 0
M  V30 843 O 79.2263 2.09317 -0.549124 0
M  V30 844 C 79.8213 0.308681 -3.37391 0
M  V30 845 C 78.3803 0.741286 -3.69028 0
M  V30 846 C 77.5273 -0.137937 -2.76957 0
M  V30 847 H 80.4783 -0.542335 -1.49146 0
M  V30 848 H 80.4993 1.13984 -3.63026 0
M  V30 849 H 80.0113 -0.674809 -3.82188 0
M  V30 850 H 78.1123 1.73458 -3.29762 0
M  V30 851 H 78.2253 0.546118 -4.75977 0
M  V30 852 H 76.5893 0.386251 -2.51754 0
M  V30 853 H 77.3723 -1.11816 -3.2458 0
M  V30 854 N 79.8174 1.5752 -0.0501392 0
M  V30 855 C 81.0424 1.97376 0.636997 0
M  V30 856 C 81.4674 0.927466 1.63645 0
M  V30 857 O 80.8254 -0.10941 1.8097 0
M  V30 858 C 80.8734 3.36304 1.30123 0
M  V30 859 O 79.9774 3.34156 2.41689 0
M  V30 860 H 79.3184 0.642998 0.165679 0
M  V30 861 H 81.8484 2.04258 -0.118233 0
M  V30 862 H 81.8584 3.73008 1.65315 0
M  V30 863 H 80.5334 4.11993 0.568746 0
M  V30 864 H 79.1104 3.09196 2.08451 0
M  V30 865 N 81.2955 -0.223234 1.56011 0
M  V30 866 C 82.5235 -0.964812 1.83027 0
M  V30 867 C 82.9385 -1.78013 0.62904 0
M  V30 868 O 82.2955 -1.78008 -0.402414 0
M  V30 869 C 82.3465 -1.88373 3.08542 0
M  V30 870 O 82.0675 -1.10137 4.2403 0
M  V30 871 C 83.5685 -2.73934 3.48533 0
M  V30 872 H 80.7885 -0.282842 0.608475 0
M  V30 873 H 83.3325 -0.238971 2.03099 0
M  V30 874 H 81.4875 -2.56354 2.9045 0
M  V30 875 H 81.9015 -1.72501 4.95322 0
M  V30 876 H 83.3755 -3.34117 4.39397 0
M  V30 877 H 83.8525 -3.46244 2.70207 0
M  V30 878 H 84.4585 -2.11369 3.69057 0
M  V30 879 N 82.7736 -1.49793 -0.48987 0
M  V30 880 C 84.1896 -1.36803 -0.822022 0
M  V30 881 C 84.3896 -0.409652 -1.97292 0
M  V30 882 O 83.4456 0.154614 -2.52026 0
M  V30 883 C 84.7586 -2.77768 -1.15175 0
M  V30 884 C 86.3066 -2.86549 -1.25931 0
M  V30 885 C 86.7816 -4.28306 -1.62228 0
M  V30 886 N 88.2726 -4.31169 -1.69256 0
M  V30 887 C 89.0076 -5.37832 -1.98807 0
M  V30 888 N 88.5036 -6.54726 -2.26507 0
M  V30 889 N 90.2966 -5.25258 -2.00152 0
M  V30 890 H 82.4476 -2.10691 0.268881 0
M  V30 891 H 84.7106 -0.946241 0.057728 0
M  V30 892 H 84.4166 -3.49648 -0.379335 0
M  V30 893 H 84.2906 -3.13836 -2.09253 0
M  V30 894 H 86.6776 -2.14899 -2.02243 0
M  V30 895 H 86.7586 -2.54049 -0.298776 0
M  V30 896 H 86.4026 -5.00486 -0.864622 0
M  V30 897 H 86.3326 -4.58279 -2.594 0
M  V30 898 H 88.8236 -3.4687 -1.49965 0
M  V30 899 H 89.1366 -7.31833 -2.48276 0
M  V30 900 H 87.4816 -6.57933 -2.23939 0
M  V30 901 H 90.6726 -4.32938 -1.77996 0
M  V30 902 H 90.8456 -6.08476 -2.22848 0
M  V30 903 N 84.2517 0.741722 -1.39055 0
M  V30 904 C 85.1617 1.88621 -1.39496 0
M  V30 905 C 86.1777 1.71557 -0.290578 0
M  V30 906 O 87.3537 1.94275 -0.530954 0
M  V30 907 C 84.4187 3.24134 -1.23037 0
M  V30 908 C 83.4797 3.5364 -2.43387 0
M  V30 909 C 82.7127 4.82687 -2.27703 0
M  V30 910 O 82.9357 5.55922 -1.27696 0
M  V30 911 O 81.8697 5.1194 -3.16545 0
M  V30 912 H 85.6957 1.91203 -2.35956 0
M  V30 913 H 83.2807 0.888625 -1.20099 0
M  V30 914 H 85.1627 4.0513 -1.15964 0
M  V30 915 H 83.8377 3.22337 -0.296691 0
M  V30 916 H 82.7447 2.72758 -2.56035 0
M  V30 917 H 84.0777 3.60209 -3.35425 0
M  V30 918 N 85.7298 1.2412 0.971189 0
M  V30 919 C 86.6618 0.988349 2.06795 0
M  V30 920 C 87.6748 -0.0409541 1.62748 0
M  V30 921 O 88.8638 0.195673 1.77424 0
M  V30 922 C 85.9638 0.469023 3.35639 0
M  V30 923 C 85.1368 1.56065 4.08611 0
M  V30 924 C 84.1958 1.04458 5.15728 0
M  V30 925 O 83.2218 1.73553 5.42096 0
M  V30 926 N 84.4238 -0.122817 5.8037 0
M  V30 927 H 87.1888 1.93265 2.29061 0
M  V30 928 H 84.7498 1.15102 1.13856 0
M  V30 929 H 86.7418 0.108613 4.04554 0
M  V30 930 H 85.3118 -0.380919 3.1027 0
M  V30 931 H 84.5318 2.09341 3.34021 0
M  V30 932 H 85.8198 2.29449 4.54126 0
M  V30 933 H 85.2178 -0.700563 5.61345 0
M  V30 934 H 83.7748 -0.424404 6.50417 0
M  V30 935 N 87.2079 -1.17134 1.05439 0
M  V30 936 C 88.4569 -1.86791 0.761049 0
M  V30 937 C 88.7699 -1.82072 -0.714795 0
M  V30 938 O 89.9759 -2.47223 -1.12218 0
M  V30 939 C 88.4319 -3.35166 1.31117 0
M  V30 940 C 88.0399 -3.48381 2.81664 0
M  V30 941 C 89.7839 -4.10134 1.09499 0
M  V30 942 C 87.6909 -4.90793 3.29964 0
M  V30 943 H 86.6209 -0.699681 0.281002 0
M  V30 944 H 89.2719 -1.3226 1.27199 0
M  V30 945 H 87.6539 -3.8925 0.72803 0
M  V30 946 H 88.8279 -3.04502 3.45855 0
M  V30 947 H 87.1429 -2.86836 3.01851 0
M  V30 948 H 89.7399 -5.152 1.43084 0
M  V30 949 H 90.0829 -4.16287 0.0328772 0
M  V30 950 H 90.6159 -3.62264 1.64346 0
M  V30 951 H 87.3549 -4.89816 4.35616 0
M  V30 952 H 86.8749 -5.35333 2.70516 0
M  V30 953 H 88.5539 -5.59573 3.24787 0
M  V30 954 N 88.686 -0.835752 -1.33615 0
M  V30 955 C 89.926 -0.43599 -1.99696 0
M  V30 956 C 90.29 0.98557 -1.64774 0
M  V30 957 O 91.491 1.48889 -2.23798 0
M  V30 958 C 89.762 -0.646721 -3.515 0
M  V30 959 S 91.321 -0.341715 -4.37467 0
M  V30 960 H 88.139 -0.164136 -0.691795 0
M  V30 961 H 90.741 -1.08436 -1.62671 0
M  V30 962 H 89.445 -1.68077 -3.74404 0
M  V30 963 H 88.976 0.0159173 -3.93397 0
M  V30 964 H 90.991 0.839708 -4.89043 0
M  V30 965 N 90.1641 1.46063 -0.591896 0
M  V30 966 C 91.0741 2.34192 0.13831 0
M  V30 967 C 92.0901 1.50305 0.876608 0
M  V30 968 O 93.2661 1.8315 0.837728 0
M  V30 969 C 90.3311 3.27656 1.13326 0
M  V30 970 C 89.3921 4.27445 0.39863 0
M  V30 971 C 88.6251 5.16443 1.34618 0
M  V30 972 O 88.8481 5.08553 2.58321 0
M  V30 973 O 87.7821 5.95843 0.851768 0
M  V30 974 H 91.6081 2.98002 -0.58552 0
M  V30 975 H 89.1931 1.45188 -0.352239 0
M  V30 976 H 91.0751 3.85291 1.70671 0
M  V30 977 H 89.7501 2.6643 1.83839 0
M  V30 978 H 88.6571 3.73471 -0.216895 0
M  V30 979 H 89.9901 4.91482 -0.265709 0
M  V30 980 N 91.6422 0.330177 1.54103 0
M  V30 981 C 92.8882 -0.270806 2.00984 0
M  V30 982 C 93.2212 -1.51265 1.21789 0
M  V30 983 O 92.4962 -1.92142 0.301927 0
M  V30 984 C 92.7792 -0.598339 3.55094 0
M  V30 985 C 92.6322 0.654674 4.4501 0
M  V30 986 C 93.9512 -1.41334 4.16789 0
M  V30 987 H 91.0702 -0.0969531 0.730595 0
M  V30 988 H 93.7122 0.448066 1.84641 0
M  V30 989 H 91.8622 -1.21078 3.69151 0
M  V30 990 H 93.5342 1.29285 4.42813 0
M  V30 991 H 91.7772 1.28224 4.14416 0
M  V30 992 H 92.4482 0.380944 5.50684 0
M  V30 993 H 94.9242 -0.895597 4.06347 0
M  V30 994 H 93.8002 -1.61127 5.24718 0
M  V30 995 H 94.0612 -2.41146 3.70541 0
M  V30 996 N 93.1203 -1.57491 0.0584922 0
M  V30 997 C 94.0303 -2.15448 -0.928414 0
M  V30 998 C 95.0463 -1.11416 -1.3365 0
M  V30 999 O 96.2223 -1.4362 -1.41193 0
M  V30 1000 C 93.2873 -2.69393 -2.18239 0
M  V30 1001 C 92.3483 -3.88249 -1.83196 0
M  V30 1002 C 91.5813 -4.39613 -3.02616 0
M  V30 1003 O 91.8043 -3.90023 -4.16219 0
M  V30 1004 O 90.7383 -5.31111 -2.83204 0
M  V30 1005 H 94.5643 -3.00112 -0.465483 0
M  V30 1006 H 92.1493 -1.48499 -0.163826 0
M  V30 1007 H 94.0313 -3.04026 -2.91798 0
M  V30 1008 H 92.7063 -1.87796 -2.63656 0
M  V30 1009 H 91.6133 -3.58492 -1.06931 0
M  V30 1010 H 92.9463 -4.71098 -1.42573 0
M  V30 1011 N 94.5984 0.214957 -1.56127 0
M  V30 1012 C 95.5084 1.28727 -1.96129 0
M  V30 1013 C 96.5244 1.50916 -0.866044 0
M  V30 1014 O 97.7004 1.63918 -1.17016 0
M  V30 1015 C 94.7654 2.61569 -2.27558 0
M  V30 1016 C 93.8264 2.47625 -3.50685 0
M  V30 1017 C 93.0594 3.74132 -3.80606 0
M  V30 1018 O 93.2824 4.77438 -3.12104 0
M  V30 1019 O 92.2164 3.70849 -4.74083 0
M  V30 1020 H 96.0424 0.977855 -2.87527 0
M  V30 1021 H 93.6274 0.418358 -1.43423 0
M  V30 1022 H 95.5094 3.40012 -2.48938 0
M  V30 1023 H 94.1844 2.92178 -1.39332 0
M  V30 1024 H 93.0914 1.67361 -3.34576 0
M  V30 1025 H 94.4244 2.21954 -4.39315 0
M  V30 1026 N 96.0765 1.50051 0.48192 0
M  V30 1027 C 97.3245 1.60181 1.23234 0
M  V30 1028 C 97.6455 0.299176 1.92691 0
M  V30 1029 O 96.9155 -0.682708 1.83619 0
M  V30 1030 H 95.4955 0.590232 0.457859 0
M  V30 1031 H 98.1575 1.86775 0.556881 0
M  V30 1032 H 97.2535 2.40753 1.98607 0
M  V30 1033 N 97.5546 -0.734337 1.39446 0
M  V30 1034 C 98.8316 -1.48579 1.27215 0
M  V30 1035 C 99.2116 -2.1077 -0.117968 0
M  V30 1036 O 98.5596 -1.98646 -1.12924 0
M  V30 1037 C 98.7696 -2.53667 2.39696 0
M  V30 1038 C 100.118 -3.20031 2.79044 0
M  V30 1039 O 101.142 -2.6398 2.39151 0
M  V30 1040 O 100.001 -4.21455 3.47905 0
M  V30 1041 H 97.0946 -0.659816 0.49857 0
M  V30 1042 H 99.6406 -0.768106 1.51322 0
M  V30 1043 H 98.4126 -2.06096 3.32626 0
M  V30 1044 H 98.0356 -3.32994 2.17258 0
M  V30 1045 N 99.0327 -1.24633 -0.964593 0
M  V30 1046 C 99.9797 -1.04144 -2.05968 0
M  V30 1047 C 100.95 0.046262 -1.66036 0
M  V30 1048 O 102.135 -0.108972 -1.90489 0
M  V30 1049 C 99.2747 -0.65563 -3.38815 0
M  V30 1050 C 98.3877 -1.81714 -3.91923 0
M  V30 1051 C 97.5227 -1.37662 -5.13052 0
M  V30 1052 C 96.5617 -2.50788 -5.58365 0
M  V30 1053 N 95.6987 -2.07582 -6.70712 0
M  V30 1054 H 100.539 -1.9787 -2.22827 0
M  V30 1055 H 98.0757 -0.9855 -1.09208 0
M  V30 1056 H 100.034 -0.412954 -4.15151 0
M  V30 1057 H 98.6637 0.244627 -3.21872 0
M  V30 1058 H 97.7157 -2.1734 -3.12198 0
M  V30 1059 H 99.0277 -2.66705 -4.21509 0
M  V30 1060 H 98.1817 -1.093 -5.96773 0
M  V30 1061 H 96.9207 -0.497293 -4.85158 0
M  V30 1062 H 95.9257 -2.79906 -4.73215 0
M  V30 1063 H 97.1507 -3.39283 -5.88272 0
M  V30 1064 H 95.0967 -1.22051 -6.44546 0
M  V30 1065 H 95.0137 -2.86125 -6.99763 0
M  V30 1066 H 96.2817 -1.82369 -7.57867 0
M  V30 1067 N 100.511 1.16574 -1.06058 0
M  V30 1068 C 101.922 1.68662 -0.800632 0
M  V30 1069 C 102.273 1.84184 0.67608 0
M  V30 1070 O 101.398 1.53568 1.52466 0
M  V30 1071 C 101.993 3.06356 -1.44676 0
M  V30 1072 C 100.552 3.55575 -1.23465 0
M  V30 1073 C 99.6988 2.31616 -1.52477 0
M  V30 1074 H 102.65 1.00969 -1.22438 0
M  V30 1075 H 102.671 3.70636 -0.860788 0
M  V30 1076 H 102.183 2.95027 -2.52152 0
M  V30 1077 H 100.284 3.72167 -0.179527 0
M  V30 1078 H 100.397 4.37812 -1.94571 0
M  V30 1079 H 98.7608 2.36512 -0.945209 0
M  V30 1080 H 99.5438 2.22887 -2.61106 0
M  V30 1081 N 101.989 0.842826 1.3317 0
M  V30 1082 C 103.266 0.362216 1.92217 0
M  V30 1083 C 103.646 -1.15289 1.76838 0
M  V30 1084 O 102.994 -1.96914 1.15919 0
M  V30 1085 C 103.204 0.813495 3.39387 0
M  V30 1086 C 104.552 0.823804 4.16532 0
M  V30 1087 O 105.576 0.757358 3.48055 0
M  V30 1088 O 104.435 0.915193 5.38782 0
M  V30 1089 H 101.529 0.103317 0.820521 0
M  V30 1090 H 104.075 0.928942 1.42017 0
M  V30 1091 H 102.847 1.85624 3.4447 0
M  V30 1092 H 102.47 0.223561 3.96971 0
M  V30 1093 N 103.467 -1.45747 0.599634 0
M  V30 1094 C 104.713 -2.02592 0.0918643 0
M  V30 1095 C 105.046 -1.46806 -1.27128 0
M  V30 1096 O 104.321 -0.639658 -1.83681 0
M  V30 1097 C 104.604 -3.60073 0.0443398 0
M  V30 1098 C 104.457 -4.26208 1.43759 0
M  V30 1099 C 105.776 -4.35309 -0.647608 0
M  V30 1100 H 102.895 -0.736175 0.034857 0
M  V30 1101 H 105.537 -1.73694 0.770081 0
M  V30 1102 H 103.687 -3.84823 -0.533224 0
M  V30 1103 H 105.359 -4.12668 2.06162 0
M  V30 1104 H 103.602 -3.84916 2.00056 0
M  V30 1105 H 104.273 -5.35069 1.35665 0
M  V30 1106 H 106.749 -4.15805 -0.156776 0
M  V30 1107 H 105.625 -5.45038 -0.649942 0
M  V30 1108 H 105.886 -4.07598 -1.71219 0
M  V30 1109 N 104.945 -0.338344 -1.53925 0
M  V30 1110 C 106.222 0.314774 -1.93051 0
M  V30 1111 C 106.602 1.68669 -1.26941 0
M  V30 1112 O 105.95 2.24636 -0.418445 0
M  V30 1113 C 106.16 0.392249 -3.46789 0
M  V30 1114 C 107.508 0.645554 -4.19664 0
M  V30 1115 O 108.532 0.474575 -3.53024 0
M  V30 1116 O 107.391 0.976408 -5.37707 0
M  V30 1117 H 104.485 0.182598 -0.80659 0
M  V30 1118 H 107.031 -0.389141 -1.65178 0
M  V30 1119 H 105.803 -0.570702 -3.87116 0
M  V30 1120 H 105.426 1.14316 -3.80812 0
M  V30 1121 N 106.423 1.57458 -0.0668435 0
M  V30 1122 C 107.37 2.12439 0.902122 0
M  V30 1123 C 108.34 1.03565 1.2986 0
M  V30 1124 O 109.525 1.312 1.38532 0
M  V30 1125 C 106.665 2.6865 2.16614 0
M  V30 1126 C 105.778 3.91663 1.82274 0
M  V30 1127 C 104.913 4.36134 3.0325 0
M  V30 1128 C 103.952 5.51808 2.64904 0
M  V30 1129 N 103.089 5.9126 3.78624 0
M  V30 1130 H 107.929 2.94934 0.426382 0
M  V30 1131 H 105.466 1.4575 0.198819 0
M  V30 1132 H 107.424 2.99346 2.90599 0
M  V30 1133 H 106.054 1.88928 2.61737 0
M  V30 1134 H 105.106 3.6746 0.983719 0
M  V30 1135 H 106.418 4.75693 1.50059 0
M  V30 1136 H 105.572 4.68465 3.85519 0
M  V30 1137 H 104.311 3.50948 3.38655 0
M  V30 1138 H 103.316 5.19133 1.81055 0
M  V30 1139 H 104.541 6.38722 2.30675 0
M  V30 1140 H 102.487 5.09024 4.138 0
M  V30 1141 H 102.404 6.70018 3.5016 0
M  V30 1142 H 103.672 6.28212 4.61486 0
M  V30 1143 N 107.901 -0.206675 1.56239 0
M  V30 1144 C 108.864 -1.23976 1.92776 0
M  V30 1145 C 109.864 -1.39041 0.807729 0
M  V30 1146 O 111.054 -1.37051 1.0753 0
M  V30 1147 C 108.186 -2.61112 2.19165 0
M  V30 1148 H 109.379 -0.927764 2.85189 0
M  V30 1149 H 106.932 -0.447718 1.4975 0
M  V30 1150 H 107.667 -2.97386 1.29352 0
M  V30 1151 H 107.452 -2.51552 3.00772 0
M  V30 1152 H 108.942 -3.35633 2.48476 0
M  V30 1153 N 109.379 -1.50304 -0.473955 0
M  V30 1154 C 110.625 -1.61389 -1.22806 0
M  V30 1155 C 110.958 -0.311955 -1.91678 0
M  V30 1156 O 110.233 0.686384 -1.81986 0
M  V30 1157 C 110.516 -2.79219 -2.27396 0
M  V30 1158 C 110.369 -4.19286 -1.62848 0
M  V30 1159 C 111.688 -2.92614 -3.28732 0
M  V30 1160 H 108.807 -0.587399 -0.445119 0
M  V30 1161 H 111.449 -1.82681 -0.522265 0
M  V30 1162 H 109.599 -2.61195 -2.87592 0
M  V30 1163 H 111.271 -4.48892 -1.06271 0
M  V30 1164 H 109.514 -4.23677 -0.931693 0
M  V30 1165 H 110.185 -4.97655 -2.38838 0
M  V30 1166 H 112.661 -3.09105 -2.78556 0
M  V30 1167 H 111.537 -3.76688 -3.99246 0
M  V30 1168 H 111.798 -2.03107 -3.92683 0
M  V30 1169 N 110.857 0.726932 -1.39834 0
M  V30 1170 C 111.767 1.87131 -1.41489 0
M  V30 1171 C 112.783 1.71239 -0.308757 0
M  V30 1172 O 113.959 1.93701 -0.551529 0
M  V30 1173 C 111.024 3.22811 -1.26468 0
M  V30 1174 C 110.085 3.51039 -2.47124 0
M  V30 1175 C 109.318 4.80245 -2.3281 0
M  V30 1176 O 109.541 5.54537 -1.33585 0
M  V30 1177 O 108.475 5.08554 -3.21957 0
M  V30 1178 H 112.301 1.8869 -2.3797 0
M  V30 1179 H 109.886 0.875837 -1.21035 0
M  V30 1180 H 111.768 4.03877 -1.20255 0
M  V30 1181 H 110.443 3.22005 -0.330862 0
M  V30 1182 H 109.35 2.70027 -2.58914 0
M  V30 1183 H 110.683 3.56632 -3.39227 0
M  V30 1184 N 112.336 1.25143 0.95797 0
M  V30 1185 C 113.299 1.05321 2.03569 0
M  V30 1186 C 114.299 0.007152 1.60798 0
M  V30 1187 O 115.489 0.24903 1.72411 0
M  V30 1188 C 112.621 0.598394 3.35607 0
M  V30 1189 H 113.814 2.00986 2.22586 0
M  V30 1190 H 111.367 1.07502 1.13459 0
M  V30 1191 H 112.102 -0.361014 3.22284 0
M  V30 1192 H 111.887 1.35351 3.67998 0
M  V30 1193 H 113.377 0.48104 4.1482 0
M  V30 1194 N 113.814 -1.1601 1.06675 0
M  V30 1195 C 114.777 -2.18724 0.685001 0
M  V30 1196 C 115.777 -1.58496 -0.271246 0
M  V30 1197 O 116.967 -1.74119 -0.0531156 0
M  V30 1198 C 114.099 -3.40899 0.00853648 0
M  V30 1199 H 115.292 -2.54011 1.59431 0
M  V30 1200 H 112.845 -1.30352 0.862441 0
M  V30 1201 H 113.58 -3.11173 -0.913337 0
M  V30 1202 H 113.365 -3.8587 0.696204 0
M  V30 1203 H 114.855 -4.16886 -0.24414 0
M  V30 1204 N 115.292 -0.849877 -1.32721 0
M  V30 1205 C 116.224 -0.248332 -2.27851 0
M  V30 1206 C 117.237 0.577218 -1.52224 0
M  V30 1207 O 118.426 0.402489 -1.73903 0
M  V30 1208 C 115.526 0.668107 -3.32249 0
M  V30 1209 C 114.699 -0.120534 -4.37234 0
M  V30 1210 C 113.758 0.720932 -5.21238 0
M  V30 1211 O 112.784 0.156166 -5.68986 0
M  V30 1212 N 113.986 2.03647 -5.43607 0
M  V30 1213 H 116.751 -1.06575 -2.80111 0
M  V30 1214 H 114.312 -0.709395 -1.45531 0
M  V30 1215 H 116.304 1.23627 -3.85355 0
M  V30 1216 H 114.874 1.38621 -2.80184 0
M  V30 1217 H 114.094 -0.870108 -3.84477 0
M  V30 1218 H 115.382 -0.662406 -5.0447 0
M  V30 1219 H 114.78 2.51871 -5.06535 0
M  V30 1220 H 113.337 2.55287 -5.99727 0
M  V30 1221 N 116.77 1.45427 -0.607355 0
M  V30 1222 C 118.016 2.0254 -0.102607 0
M  V30 1223 C 118.349 1.47478 1.26348 0
M  V30 1224 O 117.624 0.64939 1.83339 0
M  V30 1225 C 117.907 3.60044 -0.0634347 0
M  V30 1226 C 117.76 4.2544 -1.46017 0
M  V30 1227 C 119.079 4.35646 0.624514 0
M  V30 1228 H 116.198 0.73598 -0.0387607 0
M  V30 1229 H 118.84 1.73284 -0.779282 0
M  V30 1230 H 116.99 3.85101 0.512808 0
M  V30 1231 H 118.662 4.11569 -2.08347 0
M  V30 1232 H 116.905 3.83849 -2.02094 0
M  V30 1233 H 117.576 5.34342 -1.385 0
M  V30 1234 H 120.052 4.15882 0.134723 0
M  V30 1235 H 118.928 5.45376 0.621028 0
M  V30 1236 H 119.189 4.08501 1.69055 0
M  V30 1237 N 118.248 0.346503 1.53744 0
M  V30 1238 C 119.211 -0.496439 2.23759 0
M  V30 1239 C 120.211 -1.0252 1.2388 0
M  V30 1240 O 121.401 -0.913974 1.48297 0
M  V30 1241 C 118.533 -1.69187 2.95954 0
M  V30 1242 H 119.726 0.115952 2.99676 0
M  V30 1243 H 117.279 0.0978939 1.55993 0
M  V30 1244 H 118.014 -2.34288 2.24231 0
M  V30 1245 H 117.799 -1.31989 3.69217 0
M  V30 1246 H 119.289 -2.28969 3.49232 0
M  V30 1247 N 119.726 -1.57421 0.075193 0
M  V30 1248 C 120.973 -1.93618 -0.593146 0
M  V30 1249 C 121.301 -0.955484 -1.69413 0
M  V30 1250 O 120.556 0.0283251 -1.9568 0
M  V30 1251 C 120.855 -3.36428 -1.20626 0
M  V30 1252 C 120.521 -4.50307 -0.231078 0
M  V30 1253 C 119.183 -4.81186 0.0371936 0
M  V30 1254 C 121.535 -5.19374 0.435888 0
M  V30 1255 C 118.863 -5.78466 0.979461 0
M  V30 1256 C 121.215 -6.17665 1.3665 0
M  V30 1257 C 119.879 -6.46958 1.6432 0
M  V30 1258 H 119.149 -0.708499 -0.217047 0
M  V30 1259 H 121.796 -1.90937 0.146793 0
M  V30 1260 H 120.101 -3.35592 -2.02201 0
M  V30 1261 H 121.798 -3.61727 -1.73073 0
M  V30 1262 H 118.388 -4.26227 -0.450357 0
M  V30 1263 H 122.572 -4.95711 0.241748 0
M  V30 1264 H 117.828 -5.99487 1.20106 0
M  V30 1265 H 122.002 -6.70284 1.88924 0
M  V30 1266 H 119.629 -7.2215 2.37494 0
M  V30 1267 N 121.204 0.198386 -1.56346 0
M  V30 1268 C 122.136 1.26987 -1.90806 0
M  V30 1269 C 123.149 1.41877 -0.798419 0
M  V30 1270 O 124.338 1.42362 -1.07682 0
M  V30 1271 C 121.438 2.64246 -2.12196 0
M  V30 1272 C 120.611 2.71007 -3.43328 0
M  V30 1273 C 119.67 3.89439 -3.5387 0
M  V30 1274 O 118.696 3.76695 -4.26719 0
M  V30 1275 N 119.898 5.04752 -2.86715 0
M  V30 1276 H 122.663 0.977433 -2.83313 0
M  V30 1277 H 120.224 0.388322 -1.57174 0
M  V30 1278 H 122.216 3.41896 -2.1654 0
M  V30 1279 H 120.786 2.85992 -1.26204 0
M  V30 1280 H 120.006 1.79657 -3.50881 0
M  V30 1281 H 121.294 2.72512 -4.29668 0
M  V30 1282 H 120.692 5.18004 -2.2735 0
M  V30 1283 H 119.249 5.8036 -2.96691 0
M  V30 1284 N 122.682 1.50554 0.465978 0
M  V30 1285 C 124.098 1.38093 0.800154 0
M  V30 1286 C 124.298 0.440988 1.96615 0
M  V30 1287 O 123.354 -0.114499 2.5224 0
M  V30 1288 C 124.667 2.79565 1.10742 0
M  V30 1289 C 126.215 2.88516 1.21357 0
M  V30 1290 C 126.69 4.30833 1.55393 0
M  V30 1291 N 128.181 4.33807 1.62375 0
M  V30 1292 C 128.916 5.40927 1.90225 0
M  V30 1293 N 128.412 6.58247 2.16062 0
M  V30 1294 N 130.205 5.28376 1.9177 0
M  V30 1295 H 122.356 2.10237 -0.302366 0
M  V30 1296 H 124.619 0.945203 -0.0727746 0
M  V30 1297 H 124.325 3.50208 0.323661 0
M  V30 1298 H 124.199 3.17125 2.04234 0
M  V30 1299 H 126.586 2.1809 1.98799 0
M  V30 1300 H 126.667 2.54492 0.258321 0
M  V30 1301 H 126.311 5.01799 0.784889 0
M  V30 1302 H 126.241 4.62347 2.52076 0
M  V30 1303 H 128.732 3.49212 1.44427 0
M  V30 1304 H 129.045 7.3569 2.36601 0
M  V30 1305 H 127.39 6.61413 2.13444 0
M  V30 1306 H 130.581 4.35715 1.71085 0
M  V30 1307 H 130.754 6.11944 2.13139 0
M  V30 1308 N 124.16 -0.719506 1.40217 0
M  V30 1309 C 125.408 -1.47641 1.3801 0
M  V30 1310 C 125.729 -1.94992 -0.018145 0
M  V30 1311 O 124.999 -1.70073 -0.972207 0
M  V30 1312 H 123.579 -0.547744 0.507923 0
M  V30 1313 H 126.241 -0.853187 1.75233 0
M  V30 1314 H 125.337 -2.35112 2.05253 0
M  V30 1315 N 125.638 -1.25649 -0.95132 0
M  V30 1316 C 126.863 -1.13443 -1.73624 0
M  V30 1317 C 127.288 0.307565 -1.85568 0
M  V30 1318 O 126.646 1.22282 -1.33854 0
M  V30 1319 C 126.694 -1.79723 -3.12621 0
M  V30 1320 O 125.798 -1.07912 -3.98031 0
M  V30 1321 H 125.139 -0.395872 -0.533086 0
M  V30 1322 H 127.669 -1.66276 -1.1922 0
M  V30 1323 H 127.679 -1.86141 -3.63064 0
M  V30 1324 H 126.354 -2.84633 -3.03244 0
M  V30 1325 H 124.931 -1.09398 -3.56492 0
M  V30 1326 N 127.117 1.15442 -1.07289 0
M  V30 1327 C 128.528 1.67803 -0.818475 0
M  V30 1328 C 128.879 1.8489 0.656507 0
M  V30 1329 O 128.004 1.55176 1.50829 0
M  V30 1330 C 128.599 3.04805 -1.47917 0
M  V30 1331 C 127.158 3.54245 -1.27229 0
M  V30 1332 C 126.305 2.29986 -1.54925 0
M  V30 1333 H 129.256 0.996646 -1.23502 0
M  V30 1334 H 129.277 3.69702 -0.90005 0
M  V30 1335 H 128.789 2.92336 -2.55267 0
M  V30 1336 H 126.89 3.71956 -0.21899 0
M  V30 1337 H 127.003 4.35723 -1.99203 0
M  V30 1338 H 125.367 2.35496 -0.970242 0
M  V30 1339 H 126.15 2.20105 -2.63455 0
M  V30 1340 N 128.595 0.856903 1.32268 0
M  V30 1341 C 129.841 0.471355 1.97863 0
M  V30 1342 C 130.196 -0.962896 1.66572 0
M  V30 1343 O 129.489 -1.66686 0.944797 0
M  V30 1344 C 129.683 0.649919 3.51441 0
M  V30 1345 C 129.512 2.09997 3.97657 0
M  V30 1346 C 128.282 2.73893 4.2463 0
M  V30 1347 C 130.48 3.07081 4.1256 0
M  V30 1348 N 128.462 4.09786 4.57109 0
M  V30 1349 C 129.833 4.27968 4.48602 0
M  V30 1350 C 131.888 3.03247 3.949 0
M  V30 1351 C 130.591 5.45521 4.68827 0
M  V30 1352 C 132.617 4.20046 4.16311 0
M  V30 1353 C 131.979 5.39692 4.52672 0
M  V30 1354 H 128.078 0.221263 0.750044 0
M  V30 1355 H 130.662 1.10876 1.60045 0
M  V30 1356 H 128.833 0.0421938 3.88377 0
M  V30 1357 H 130.565 0.234044 4.04023 0
M  V30 1358 H 127.32 2.24918 4.16784 0
M  V30 1359 H 127.744 4.7989 4.7753 0
M  V30 1360 H 132.386 2.11863 3.65888 0
M  V30 1361 H 130.104 6.37434 4.96693 0
M  V30 1362 H 133.69 4.18517 4.04147 0
M  V30 1363 H 132.57 6.28566 4.68907 0
M  V30 1364 N 130.073 -1.45103 0.615059 0
M  V30 1365 C 131.489 -1.57137 0.279322 0
M  V30 1366 C 131.689 -1.60523 -1.21797 0
M  V30 1367 O 130.745 -1.53956 -2.00134 0
M  V30 1368 C 132.058 -2.85062 0.957083 0
M  V30 1369 C 133.606 -2.98749 0.933706 0
M  V30 1370 C 134.081 -4.29455 1.59162 0
M  V30 1371 N 135.572 -4.36231 1.55746 0
M  V30 1372 C 136.307 -5.36051 2.0356 0
M  V30 1373 N 135.803 -6.42367 2.59494 0
M  V30 1374 N 137.596 -5.27456 1.94284 0
M  V30 1375 H 129.747 -1.41148 1.58717 0
M  V30 1376 H 132.01 -0.675331 0.665306 0
M  V30 1377 H 131.716 -2.88488 2.01166 0
M  V30 1378 H 131.59 -3.7407 0.48494 0
M  V30 1379 H 133.977 -2.94886 -0.112347 0
M  V30 1380 H 134.058 -2.11132 1.44419 0
M  V30 1381 H 133.702 -4.34077 2.63704 0
M  V30 1382 H 133.632 -5.15901 1.0561 0
M  V30 1383 H 136.123 -3.60011 1.14893 0
M  V30 1384 H 136.436 -7.14793 2.93752 0
M  V30 1385 H 134.781 -6.43097 2.63537 0
M  V30 1386 H 137.972 -4.43308 1.5032 0
M  V30 1387 H 138.145 -6.05099 2.3186 0
M  V30 1388 N 131.551 -0.354651 -1.53558 0
M  V30 1389 C 132.967 -0.00315426 -1.596 0
M  V30 1390 C 133.167 1.47741 -1.37021 0
M  V30 1391 O 132.223 2.23759 -1.16996 0
M  V30 1392 C 133.536 -0.44929 -2.97325 0
M  V30 1393 C 135.084 -0.402578 -3.104 0
M  V30 1394 C 135.559 -0.824355 -4.5052 0
M  V30 1395 N 137.05 -0.778979 -4.56603 0
M  V30 1396 C 137.785 -1.07715 -5.63192 0
M  V30 1397 N 137.281 -1.44405 -6.77583 0
M  V30 1398 N 139.074 -1.00066 -5.53121 0
M  V30 1399 H 131.225 -1.31893 -1.66487 0
M  V30 1400 H 133.488 -0.538388 -0.780284 0
M  V30 1401 H 133.194 -1.48202 -3.1895 0
M  V30 1402 H 133.068 0.169772 -3.76818 0
M  V30 1403 H 135.455 0.621004 -2.88492 0
M  V30 1404 H 135.536 -1.05699 -2.32941 0
M  V30 1405 H 135.18 -1.846 -4.73165 0
M  V30 1406 H 135.11 -0.147304 -5.26394 0
M  V30 1407 H 137.601 -0.508528 -3.74463 0
M  V30 1408 H 137.914 -1.65612 -7.54846 0
M  V30 1409 H 136.259 -1.4826 -6.79002 0
M  V30 1410 H 139.45 -0.713293 -4.62633 0
M  V30 1411 H 139.623 -1.23638 -6.36096 0
M  V30 1412 N 133.029 1.57378 -0.0835403 0
M  V30 1413 C 133.959 2.1641 0.87686 0
M  V30 1414 C 134.94 1.09429 1.30228 0
M  V30 1415 O 136.125 1.37516 1.37124 0
M  V30 1416 C 133.255 2.73517 2.14022 0
M  V30 1417 C 132.209 3.85769 1.85381 0
M  V30 1418 C 131.535 4.29529 3.18448 0
M  V30 1419 C 132.835 5.09486 1.14984 0
M  V30 1420 H 134.529 2.96914 0.385059 0
M  V30 1421 H 132.075 1.42823 0.18377 0
M  V30 1422 H 134.028 3.13463 2.81636 0
M  V30 1423 H 132.752 1.90252 2.65465 0
M  V30 1424 H 131.411 3.46345 1.20169 0
M  V30 1425 H 131.059 3.43169 3.67755 0
M  V30 1426 H 130.759 5.05204 3.00071 0
M  V30 1427 H 132.283 4.72099 3.8724 0
M  V30 1428 H 133.697 5.46674 1.72687 0
M  V30 1429 H 132.094 5.90515 1.06826 0
M  V30 1430 H 133.164 4.84724 0.130749 0
M  V30 1431 N 134.507 -0.190092 1.56449 0
M  V30 1432 C 135.784 -0.935886 1.71757 0
M  V30 1433 C 136.164 -2.01173 0.639726 0
M  V30 1434 O 135.512 -2.25827 -0.348502 0
M  V30 1435 C 135.722 -1.51775 3.1427 0
M  V30 1436 C 137.07 -1.99794 3.74656 0
M  V30 1437 O 138.094 -1.61607 3.1743 0
M  V30 1438 O 136.953 -2.70079 4.751 0
M  V30 1439 H 134.047 -0.439229 0.700719 0
M  V30 1440 H 136.593 -0.179395 1.68749 0
M  V30 1441 H 135.365 -0.742505 3.84191 0
M  V30 1442 H 134.988 -2.33894 3.21527 0
M  V30 1443 N 135.985 -1.50799 -0.457987 0
M  V30 1444 C 136.948 -1.7005 -1.53674 0
M  V30 1445 C 137.948 -0.570881 -1.50325 0
M  V30 1446 O 139.138 -0.838126 -1.52712 0
M  V30 1447 C 136.27 -1.73788 -2.93276 0
M  V30 1448 H 137.463 -2.66306 -1.37917 0
M  V30 1449 H 135.016 -1.40477 -0.685271 0
M  V30 1450 H 135.751 -0.792717 -3.14462 0
M  V30 1451 H 135.536 -2.55864 -2.97113 0
M  V30 1452 H 137.026 -1.90591 -3.71571 0
M  V30 1453 N 137.463 0.71206 -1.40597 0
M  V30 1454 C 138.393 1.83889 -1.43899 0
M  V30 1455 C 139.374 1.67442 -0.299504 0
M  V30 1456 O 140.559 1.87421 -0.508624 0
M  V30 1457 C 137.689 3.21877 -1.30431 0
M  V30 1458 C 136.643 3.53002 -2.42019 0
M  V30 1459 C 135.969 4.90172 -2.13626 0
M  V30 1460 C 137.269 3.53643 -3.84362 0
M  V30 1461 H 138.963 1.81383 -2.38203 0
M  V30 1462 H 136.509 0.871237 -1.14654 0
M  V30 1463 H 138.462 4.00404 -1.31357 0
M  V30 1464 H 137.186 3.24968 -0.326049 0
M  V30 1465 H 135.845 2.76818 -2.40349 0
M  V30 1466 H 135.493 4.89869 -1.14182 0
M  V30 1467 H 135.193 5.11962 -2.88389 0
M  V30 1468 H 136.717 5.71028 -2.1624 0
M  V30 1469 H 138.131 4.22203 -3.87837 0
M  V30 1470 H 136.528 3.86961 -4.58673 0
M  V30 1471 H 137.598 2.52954 -4.13693 0
M  V30 1472 N 138.941 1.26152 0.944643 0
M  V30 1473 C 140.166 1.14363 1.7302 0
M  V30 1474 C 140.591 -0.29772 1.85729 0
M  V30 1475 O 139.949 -1.2157 1.34501 0
M  V30 1476 C 139.997 1.81378 3.11664 0
M  V30 1477 O 139.101 1.10022 3.97453 0
M  V30 1478 H 138.442 0.398694 0.53098 0
M  V30 1479 H 140.972 1.66906 1.18337 0
M  V30 1480 H 140.982 1.88064 3.62072 0
M  V30 1481 H 139.657 2.86237 3.0173 0
M  V30 1482 H 138.234 1.11287 3.55907 0
M  V30 1483 N 140.419 -1.14872 1.07899 0
M  V30 1484 C 141.835 -1.37776 0.805606 0
M  V30 1485 C 142.035 -1.92743 -0.587555 0
M  V30 1486 O 141.091 -2.13678 -1.34528 0
M  V30 1487 C 142.404 -2.34361 1.88402 0
M  V30 1488 C 143.952 -2.48012 1.90942 0
M  V30 1489 C 144.427 -3.47893 2.97883 0
M  V30 1490 N 145.918 -3.55433 2.97021 0
M  V30 1491 C 146.653 -4.32553 3.76412 0
M  V30 1492 N 146.149 -5.12959 4.65666 0
M  V30 1493 N 147.942 -4.27697 3.64735 0
M  V30 1494 H 140.093 -0.775365 1.97742 0
M  V30 1495 H 142.356 -0.403521 0.857831 0
M  V30 1496 H 142.062 -2.01098 2.88535 0
M  V30 1497 H 141.936 -3.34206 1.74889 0
M  V30 1498 H 144.323 -2.8057 0.914579 0
M  V30 1499 H 144.404 -1.48147 2.08534 0
M  V30 1500 H 144.048 -3.16069 3.97571 0
M  V30 1501 H 143.978 -4.47527 2.77538 0
M  V30 1502 H 146.469 -2.98048 2.32326 0
M  V30 1503 H 146.782 -5.69065 5.22862 0
M  V30 1504 H 145.127 -5.12245 4.69712 0
M  V30 1505 H 148.318 -3.63949 2.94378 0
M  V30 1506 H 148.491 -4.8755 4.26848 0
M  V30 1507 N 141.898 -0.863906 -1.31812 0
M  V30 1508 C 143.146 -0.470904 -1.96537 0
M  V30 1509 C 143.467 0.978771 -1.68657 0
M  V30 1510 O 142.737 1.6853 -0.998717 0
M  V30 1511 H 141.317 -0.171148 -0.72713 0
M  V30 1512 H 143.979 -1.10236 -1.60729 0
M  V30 1513 H 143.075 -0.623616 -3.05806 0
M  V30 1514 N 143.376 1.44774 -0.622745 0
M  V30 1515 C 144.792 1.56986 -0.287652 0
M  V30 1516 C 144.992 1.61167 1.20944 0
M  V30 1517 O 144.048 1.55015 1.99315 0
M  V30 1518 C 145.361 2.84551 -0.972188 0
M  V30 1519 C 146.909 2.9825 -0.949536 0
M  V30 1520 C 147.384 4.28605 -1.61437 0
M  V30 1521 N 148.875 4.35399 -1.58057 0
M  V30 1522 C 149.61 5.34964 -2.064 0
M  V30 1523 N 149.106 6.40981 -2.62897 0
M  V30 1524 N 150.899 5.26419 -1.97078 0
M  V30 1525 H 143.05 1.40304 -1.59463 0
M  V30 1526 H 145.313 0.671794 -0.668878 0
M  V30 1527 H 145.019 2.87417 -2.02693 0
M  V30 1528 H 144.893 3.73807 -0.504771 0
M  V30 1529 H 147.28 2.94941 0.0967067 0
M  V30 1530 H 147.361 2.10364 -1.45536 0
M  V30 1531 H 147.005 4.32672 -2.66002 0
M  V30 1532 H 146.935 5.15334 -1.08344 0
M  V30 1533 H 149.426 3.59397 -1.16801 0
M  V30 1534 H 149.739 7.13225 -2.97539 0
M  V30 1535 H 148.084 6.4169 -2.66943 0
M  V30 1536 H 151.275 4.42504 -1.52669 0
M  V30 1537 H 151.448 6.03861 -2.35066 0
M  V30 1538 N 144.854 0.36279 1.53368 0
M  V30 1539 C 145.784 -0.476976 2.28576 0
M  V30 1540 C 146.765 -1.08631 1.30894 0
M  V30 1541 O 147.95 -1.10409 1.59761 0
M  V30 1542 C 145.08 -1.61828 3.07293 0
M  V30 1543 C 144.034 -1.13633 4.1264 0
M  V30 1544 C 143.36 -2.36766 4.79423 0
M  V30 1545 C 144.66 -0.223061 5.21823 0
M  V30 1546 H 146.354 0.150474 2.99022 0
M  V30 1547 H 143.9 0.0738103 1.43811 0
M  V30 1548 H 145.853 -2.21237 3.58653 0
M  V30 1549 H 144.577 -2.27292 2.34533 0
M  V30 1550 H 143.236 -0.564945 3.62221 0
M  V30 1551 H 142.884 -3.0068 4.03238 0
M  V30 1552 H 142.584 -2.05192 5.50609 0
M  V30 1553 H 144.108 -2.96865 5.33576 0
M  V30 1554 H 145.522 -0.724545 5.68703 0
M  V30 1555 H 143.919 0.001678 6.001 0
M  V30 1556 H 144.989 0.735553 4.79289 0
M  V30 1557 N 146.332 -1.57332 0.0918853 0
M  V30 1558 C 147.262 -2.16872 -0.865371 0
M  V30 1559 C 148.243 -1.10118 -1.29646 0
M  V30 1560 O 149.428 -1.38242 -1.36392 0
M  V30 1561 C 146.558 -2.74649 -2.12569 0
M  V30 1562 C 145.512 -3.86747 -1.83333 0
M  V30 1563 C 144.838 -4.31212 -3.16166 0
M  V30 1564 C 146.138 -5.10089 -1.1228 0
M  V30 1565 H 147.832 -2.97114 -0.369307 0
M  V30 1566 H 145.378 -1.42918 -0.176194 0
M  V30 1567 H 147.331 -3.14952 -2.7997 0
M  V30 1568 H 146.055 -1.91657 -2.64452 0
M  V30 1569 H 144.714 -3.46978 -1.18331 0
M  V30 1570 H 144.362 -3.45115 -3.6593 0
M  V30 1571 H 144.062 -5.06788 -2.97388 0
M  V30 1572 H 145.586 -4.74146 -3.84731 0
M  V30 1573 H 147 -5.47582 -1.69785 0
M  V30 1574 H 145.397 -5.91073 -1.03693 0
M  V30 1575 H 146.467 -4.84786 -0.105041 0
M  V30 1576 N 147.81 0.181792 -1.56548 0
M  V30 1577 C 148.76 1.22961 -1.92002 0
M  V30 1578 C 149.744 1.40331 -0.787146 0
M  V30 1579 O 150.936 1.42478 -1.05019 0
M  V30 1580 C 148.065 2.57144 -2.27446 0
M  V30 1581 C 147.151 2.43512 -3.47222 0
M  V30 1582 N 147.542 1.99577 -4.64761 0
M  V30 1583 C 145.84 2.74368 -3.51622 0
M  V30 1584 C 146.541 1.98156 -5.46909 0
M  V30 1585 N 145.517 2.40164 -4.8767 0
M  V30 1586 H 149.319 0.881462 -2.8037 0
M  V30 1587 H 146.833 0.390141 -1.57644 0
M  V30 1588 H 148.83 3.32847 -2.51035 0
M  V30 1589 H 147.49 2.92771 -1.40411 0
M  V30 1590 H 148.501 1.70078 -4.89177 0
M  V30 1591 H 145.178 3.14102 -2.75038 0
M  V30 1592 H 146.568 1.65975 -6.51077 0
M  V30 1593 N 149.288 1.51039 0.449983 0
M  V30 1594 C 150.22 1.67617 1.56324 0
M  V30 1595 C 151.233 0.557083 1.52972 0
M  V30 1596 O 152.422 0.830989 1.57977 0
M  V30 1597 C 149.522 1.66402 2.95235 0
M  V30 1598 C 148.695 2.9469 3.23229 0
M  V30 1599 C 147.754 2.85832 4.41799 0
M  V30 1600 O 146.78 3.59785 4.41071 0
M  V30 1601 N 147.982 2.00821 5.44657 0
M  V30 1602 H 150.747 2.63648 1.42512 0
M  V30 1603 H 148.308 1.48767 0.638737 0
M  V30 1604 H 150.3 1.58062 3.72557 0
M  V30 1605 H 148.87 0.780182 3.02708 0
M  V30 1606 H 148.09 3.16996 2.34323 0
M  V30 1607 H 149.378 3.79636 3.38754 0
M  V30 1608 H 148.776 1.40091 5.48079 0
M  V30 1609 H 147.333 1.98368 6.20881 0
M  V30 1610 N 150.766 -0.704594 1.40972 0
M  V30 1611 C 151.696 -1.83124 1.44872 0
M  V30 1612 C 152.677 -1.67281 0.30838 0
M  V30 1613 O 153.862 -1.87149 0.518556 0
M  V30 1614 C 150.992 -3.21181 1.32136 0
M  V30 1615 C 149.946 -3.51714 2.43888 0
M  V30 1616 C 149.272 -4.89032 2.16222 0
M  V30 1617 C 150.572 -3.516 3.86232 0
M  V30 1618 H 152.266 -1.80117 2.39161 0
M  V30 1619 H 149.812 -0.865145 1.15114 0
M  V30 1620 H 151.765 -3.99702 1.33479 0
M  V30 1621 H 150.489 -3.24791 0.343279 0
M  V30 1622 H 149.148 -2.75539 2.41813 0
M  V30 1623 H 148.796 -4.89256 1.16778 0
M  V30 1624 H 148.496 -5.10426 2.911 0
M  V30 1625 H 150.02 -5.69873 2.19265 0
M  V30 1626 H 151.434 -4.2014 3.9007 0
M  V30 1627 H 149.831 -3.84523 4.60719 0
M  V30 1628 H 150.901 -2.50757 4.15029 0
M  V30 1629 N 152.244 -1.26651 -0.937939 0
M  V30 1630 C 153.207 -1.08546 -2.01867 0
M  V30 1631 C 154.207 -0.0327327 -1.60767 0
M  V30 1632 O 155.397 -0.276427 -1.71993 0
M  V30 1633 C 152.529 -0.651711 -3.34613 0
M  V30 1634 H 153.722 -2.04502 -2.1936 0
M  V30 1635 H 151.275 -1.09294 -1.11734 0
M  V30 1636 H 152.01 0.309696 -3.22818 0
M  V30 1637 H 151.795 -1.41189 -3.65798 0
M  V30 1638 H 153.285 -0.546973 -4.14002 0
M  V30 1639 N 153.722 1.14298 -1.08507 0
M  V30 1640 C 154.999 1.81544 -0.728088 0
M  V30 1641 C 155.379 1.95838 0.78808 0
M  V30 1642 O 154.727 1.51904 1.70697 0
M  V30 1643 C 154.937 3.17169 -1.45619 0
M  V30 1644 C 156.285 3.9265 -1.61591 0
M  V30 1645 O 157.309 3.26762 -1.41793 0
M  V30 1646 O 156.168 5.10807 -1.94263 0
M  V30 1647 H 153.262 0.78491 -0.260471 0
M  V30 1648 H 155.808 1.21307 -1.18671 0
M  V30 1649 H 154.58 3.01934 -2.489 0
M  V30 1650 H 154.203 3.851 -0.989124 0
M  V30 1651 N 155.201 0.870884 1.31352 0
M  V30 1652 C 156.131 0.343096 2.30966 0
M  V30 1653 C 157.112 -0.566507 1.60389 0
M  V30 1654 O 158.297 -0.483336 1.88089 0
M  V30 1655 C 155.427 -0.455487 3.443 0
M  V30 1656 C 154.381 0.361103 4.26474 0
M  V30 1657 C 153.707 -0.563221 5.31725 0
M  V30 1658 C 155.007 1.59566 4.97329 0
M  V30 1659 H 156.701 1.17548 2.75359 0
M  V30 1660 H 154.247 0.566686 1.32381 0
M  V30 1661 H 156.2 -0.83525 4.13039 0
M  V30 1662 H 154.924 -1.32139 2.98675 0
M  V30 1663 H 153.583 0.722825 3.59403 0
M  V30 1664 H 153.231 -1.42643 4.82351 0
M  V30 1665 H 152.931 -0.0207409 5.87596 0
M  V30 1666 H 154.455 -0.939808 6.03324 0
M  V30 1667 H 155.869 1.28728 5.58661 0
M  V30 1668 H 154.266 2.07728 5.63 0
M  V30 1669 H 155.336 2.34798 4.24262 0
M  V30 1670 N 156.679 -1.44442 0.630414 0
M  V30 1671 C 157.925 -2.02351 0.134816 0
M  V30 1672 C 158.258 -1.4947 -1.23986 0
M  V30 1673 O 157.533 -0.678475 -1.82283 0
M  V30 1674 C 157.816 -3.59898 0.120707 0
M  V30 1675 C 157.669 -4.23063 1.52767 0
M  V30 1676 C 158.988 -4.36585 -0.555127 0
M  V30 1677 H 156.107 -0.73527 0.0504646 0
M  V30 1678 H 158.749 -1.72022 0.806751 0
M  V30 1679 H 156.899 -3.85868 -0.451477 0
M  V30 1680 H 158.571 -4.08202 2.14869 0
M  V30 1681 H 156.814 -3.80586 2.08175 0
M  V30 1682 H 157.485 -5.32071 1.46984 0
M  V30 1683 H 159.961 -4.16044 -0.0685429 0
M  V30 1684 H 158.837 -5.46294 -0.534185 0
M  V30 1685 H 159.098 -4.11138 -1.62535 0
M  V30 1686 N 158.157 -0.370918 -1.53173 0
M  V30 1687 C 159.067 0.480823 -2.2962 0
M  V30 1688 C 160.083 1.08789 -1.35798 0
M  V30 1689 O 161.259 1.09768 -1.68858 0
M  V30 1690 C 158.324 1.60227 -3.07454 0
M  V30 1691 C 157.385 1.0222 -4.16953 0
M  V30 1692 C 156.618 2.0902 -4.91066 0
M  V30 1693 O 156.841 3.30222 -4.65091 0
M  V30 1694 O 155.775 1.71778 -5.76867 0
M  V30 1695 H 159.601 -0.141421 -3.03371 0
M  V30 1696 H 157.186 -0.135146 -1.48787 0
M  V30 1697 H 159.068 2.25417 -3.56041 0
M  V30 1698 H 157.743 2.20982 -2.36535 0
M  V30 1699 H 156.65 0.334064 -3.72605 0
M  V30 1700 H 157.983 0.459131 -4.90054 0
M  V30 1701 N 159.635 1.57281 -0.100228 0
M  V30 1702 C 161.051 1.57527 0.256416 0
M  V30 1703 C 161.251 1.11173 1.68056 0
M  V30 1704 O 160.307 0.79053 2.39806 0
M  V30 1705 C 161.62 3.00673 0.0401747 0
M  V30 1706 C 163.168 3.12815 0.107528 0
M  V30 1707 C 163.643 4.57929 -0.0807834 0
M  V30 1708 N 165.134 4.63193 -0.0261207 0
M  V30 1709 C 165.869 5.73212 -0.146999 0
M  V30 1710 N 165.365 6.92047 -0.322999 0
M  V30 1711 N 167.158 5.62031 -0.0879044 0
M  V30 1712 H 159.309 1.85718 -1.03065 0
M  V30 1713 H 161.572 0.857446 -0.404339 0
M  V30 1714 H 161.278 3.38804 -0.943649 0
M  V30 1715 H 161.152 3.69042 0.780262 0
M  V30 1716 H 163.539 2.74554 1.08186 0
M  V30 1717 H 163.62 2.47028 -0.664134 0
M  V30 1718 H 163.264 4.96886 -1.05201 0
M  V30 1719 H 163.194 5.21783 0.710635 0
M  V30 1720 H 165.685 3.77748 0.107161 0
M  V30 1721 H 165.998 7.7173 -0.406608 0
M  V30 1722 H 164.343 6.94074 -0.358733 0
M  V30 1723 H 167.534 4.68075 0.048498 0
M  V30 1724 H 167.707 6.47734 -0.185557 0
M  V30 1725 N 161.113 -0.173488 1.56642 0
M  V30 1726 C 162.39 -0.917617 1.7274 0
M  V30 1727 C 162.77 -2.00484 0.661027 0
M  V30 1728 O 162.118 -2.26184 -0.32453 0
M  V30 1729 C 162.328 -1.48433 3.15862 0
M  V30 1730 C 163.676 -1.95809 3.76754 0
M  V30 1731 O 164.7 -1.58231 3.19126 0
M  V30 1732 O 163.559 -2.65024 4.77938 0
M  V30 1733 H 160.653 -0.431772 0.705338 0
M  V30 1734 H 163.199 -0.161487 1.6893 0
M  V30 1735 H 161.971 -0.701715 3.84957 0
M  V30 1736 H 161.594 -2.30471 3.23989 0
M  V30 1737 N 162.591 -1.51276 -0.441967 0
M  V30 1738 C 164.007 -1.39349 -0.778083 0
M  V30 1739 C 164.207 -0.472212 -1.95889 0
M  V30 1740 O 163.263 0.0743551 -2.5239 0
M  V30 1741 C 164.576 -2.81292 -1.0628 0
M  V30 1742 C 166.124 -2.9041 -1.16751 0
M  V30 1743 C 166.599 -4.33251 -1.48519 0
M  V30 1744 N 168.09 -4.36336 -1.55453 0
M  V30 1745 C 168.825 -5.43885 -1.81596 0
M  V30 1746 N 168.321 -6.61601 -2.05562 0
M  V30 1747 N 170.114 -5.3136 -1.8334 0
M  V30 1748 H 162.265 -2.09729 0.335774 0
M  V30 1749 H 164.528 -0.943925 0.0878028 0
M  V30 1750 H 164.234 -3.50678 -0.267905 0
M  V30 1751 H 164.108 -3.20334 -1.99163 0
M  V30 1752 H 166.495 -2.21225 -1.95304 0
M  V30 1753 H 166.576 -2.54871 -0.217801 0
M  V30 1754 H 166.22 -5.02984 -0.704958 0
M  V30 1755 H 166.15 -4.66299 -2.44689 0
M  V30 1756 H 168.641 -3.51466 -1.38853 0
M  V30 1757 H 168.954 -7.39361 -2.24867 0
M  V30 1758 H 167.299 -6.64725 -2.02894 0
M  V30 1759 H 170.49 -4.38382 -1.64132 0
M  V30 1760 H 170.663 -6.15258 -2.03377 0
M  V30 1761 N 164.069 0.697108 -1.41344 0
M  V30 1762 C 165.032 1.79281 -1.42797 0
M  V30 1763 C 166.032 1.57607 -0.318837 0
M  V30 1764 O 167.222 1.64309 -0.578642 0
M  V30 1765 C 164.354 3.17632 -1.23785 0
M  V30 1766 H 165.547 1.79385 -2.40335 0
M  V30 1767 H 163.1 0.904582 -1.27464 0
M  V30 1768 H 163.835 3.23167 -0.270814 0
M  V30 1769 H 163.62 3.34765 -2.04144 0
M  V30 1770 H 165.11 3.97617 -1.27633 0
M  V30 1771 N 165.547 1.27147 0.931209 0
M  V30 1772 C 166.775 1.16082 1.71267 0
M  V30 1773 C 167.19 -0.282772 1.8667 0
M  V30 1774 O 166.547 -1.19283 1.38122 0
M  V30 1775 C 166.598 1.8358 3.11417 0
M  V30 1776 O 166.319 3.22299 2.96741 0
M  V30 1777 C 167.82 1.78597 4.05732 0
M  V30 1778 H 165.04 0.403758 0.535929 0
M  V30 1779 H 167.584 1.67953 1.16671 0
M  V30 1780 H 165.739 1.35623 3.62885 0
M  V30 1781 H 166.153 3.55851 3.85319 0
M  V30 1782 H 167.627 2.30444 5.01597 0
M  V30 1783 H 168.104 0.754564 4.3267 0
M  V30 1784 H 168.71 2.26152 3.60188 0
M  V30 1785 N 167.025 -1.13721 1.09112 0
M  V30 1786 C 167.955 -2.21148 0.749385 0
M  V30 1787 C 168.936 -1.6792 -0.271475 0
M  V30 1788 O 170.121 -1.93693 -0.140251 0
M  V30 1789 C 167.251 -3.46905 0.165659 0
M  V30 1790 C 166.205 -4.13203 1.11567 0
M  V30 1791 C 165.531 -5.33248 0.393809 0
M  V30 1792 C 166.831 -4.60912 2.45678 0
M  V30 1793 H 168.525 -2.4999 1.64758 0
M  V30 1794 H 166.071 -1.20156 0.793626 0
M  V30 1795 H 168.024 -4.21313 -0.085466 0
M  V30 1796 H 166.748 -3.17449 -0.767714 0
M  V30 1797 H 165.407 -3.40758 1.35202 0
M  V30 1798 H 165.055 -5.00054 -0.543599 0
M  V30 1799 H 164.755 -5.78552 1.02721 0
M  V30 1800 H 166.279 -6.10413 0.150908 0
M  V30 1801 H 167.693 -5.26759 2.26269 0
M  V30 1802 H 166.09 -5.16944 3.04776 0
M  V30 1803 H 167.16 -3.75603 3.06677 0
M  V30 1804 N 168.503 -0.877838 -1.30888 0
M  V30 1805 C 169.466 -0.344265 -2.266 0
M  V30 1806 C 170.466 0.50922 -1.52524 0
M  V30 1807 O 171.656 0.317398 -1.71284 0
M  V30 1808 C 168.788 0.510198 -3.37061 0
M  V30 1809 H 169.981 -1.1893 -2.7531 0
M  V30 1810 H 167.534 -0.654088 -1.41956 0
M  V30 1811 H 168.269 1.37612 -2.93655 0
M  V30 1812 H 168.054 -0.101047 -3.9197 0
M  V30 1813 H 169.544 0.875537 -4.08319 0
M  V30 1814 N 169.982 1.44106 -0.638065 0
M  V30 1815 C 170.945 2.29138 0.0531013 0
M  V30 1816 C 171.945 1.41409 0.765506 0
M  V30 1817 O 173.135 1.63206 0.609046 0
M  V30 1818 C 170.267 3.23144 1.08584 0
M  V30 1819 H 171.46 2.91739 -0.694883 0
M  V30 1820 H 169.013 1.51134 -0.398538 0
M  V30 1821 H 169.748 2.65408 1.86357 0
M  V30 1822 H 169.533 3.87804 0.578852 0
M  V30 1823 H 171.023 3.87004 1.56899 0
M  V30 1824 N 171.46 0.379036 1.52974 0
M  V30 1825 C 172.39 -0.452706 2.29069 0
M  V30 1826 C 173.371 -1.07237 1.32039 0
M  V30 1827 O 174.556 -1.08708 1.60923 0
M  V30 1828 C 171.686 -1.5856 3.08992 0
M  V30 1829 C 170.64 -1.0925 4.13822 0
M  V30 1830 C 169.966 -2.31668 4.81907 0
M  V30 1831 C 171.266 -0.167702 5.22031 0
M  V30 1832 H 172.96 0.182181 2.98845 0
M  V30 1833 H 170.506 0.0890592 1.43724 0
M  V30 1834 H 172.459 -2.1742 3.6098 0
M  V30 1835 H 171.183 -2.24792 2.36931 0
M  V30 1836 H 169.842 -0.526494 3.628 0
M  V30 1837 H 169.49 -2.96386 4.06404 0
M  V30 1838 H 169.19 -1.9934 5.52754 0
M  V30 1839 H 170.714 -2.91189 5.36695 0
M  V30 1840 H 172.128 -0.664186 5.6944 0
M  V30 1841 H 170.525 0.0653265 6.00064 0
M  V30 1842 H 171.595 0.786347 4.78482 0
M  V30 1843 N 172.938 -1.57226 0.108567 0
M  V30 1844 C 173.848 -2.18292 -0.859401 0
M  V30 1845 C 174.864 -1.15612 -1.30038 0
M  V30 1846 O 176.04 -1.48039 -1.36552 0
M  V30 1847 C 173.105 -2.762 -2.09558 0
M  V30 1848 C 172.166 -3.93881 -1.70752 0
M  V30 1849 C 171.399 -4.49018 -2.88477 0
M  V30 1850 O 171.622 -4.03068 -4.036 0
M  V30 1851 O 170.556 -5.39852 -2.66164 0
M  V30 1852 H 174.382 -3.01441 -0.369769 0
M  V30 1853 H 171.967 -1.48945 -0.1165 0
M  V30 1854 H 173.849 -3.13156 -2.81978 0
M  V30 1855 H 172.524 -1.96089 -2.57548 0
M  V30 1856 H 171.431 -3.61713 -0.954714 0
M  V30 1857 H 172.764 -4.75396 -1.27513 0
M  V30 1858 N 174.416 0.165178 -1.56732 0
M  V30 1859 C 175.644 0.896218 -1.86482 0
M  V30 1860 C 176.059 1.75555 -0.694675 0
M  V30 1861 O 175.416 1.79379 0.33607 0
M  V30 1862 C 175.467 1.76792 -3.1532 0
M  V30 1863 O 175.188 0.943239 -4.27825 0
M  V30 1864 C 176.689 2.6081 -3.58459 0
M  V30 1865 H 173.909 0.260064 -0.618553 0
M  V30 1866 H 176.453 0.163428 -2.03846 0
M  V30 1867 H 174.608 2.45398 -2.99764 0
M  V30 1868 H 175.022 1.53998 -5.01383 0
M  V30 1869 H 176.496 3.17579 -4.51495 0
M  V30 1870 H 176.973 3.35977 -2.82872 0
M  V30 1871 H 177.579 1.97526 -3.76648 0
M  V30 1872 N 175.894 1.51508 0.433938 0
M  V30 1873 C 176.827 1.67756 1.54704 0
M  V30 1874 C 177.805 0.525127 1.53887 0
M  V30 1875 O 178.989 0.749393 1.72963 0
M  V30 1876 C 176.116 1.69424 2.9328 0
M  V30 1877 C 175.162 2.90673 3.12108 0
M  V30 1878 S 175.995 4.51431 2.88046 0
M  V30 1879 C 177.151 4.55849 4.28897 0
M  V30 1880 H 177.384 2.61904 1.40689 0
M  V30 1881 H 174.917 1.41235 0.62386 0
M  V30 1882 H 176.875 1.7107 3.73156 0
M  V30 1883 H 175.536 0.764464 3.04655 0
M  V30 1884 H 174.729 2.88251 4.13434 0
M  V30 1885 H 174.331 2.86786 2.40062 0
M  V30 1886 H 176.623 4.31699 5.22152 0
M  V30 1887 H 177.566 5.57676 4.36351 0
M  V30 1888 H 177.974 3.85137 4.12711 0
M  V30 1889 N 177.372 -0.689602 1.41712 0
M  V30 1890 C 178.649 -1.44457 1.31877 0
M  V30 1891 C 179.029 -2.11039 -0.0508537 0
M  V30 1892 O 178.377 -2.02138 -1.06547 0
M  V30 1893 C 178.587 -2.45913 2.47645 0
M  V30 1894 C 179.935 -3.10991 2.89084 0
M  V30 1895 O 180.959 -2.56238 2.47428 0
M  V30 1896 O 179.818 -4.10174 3.61137 0
M  V30 1897 H 176.912 -0.64362 0.519309 0
M  V30 1898 H 179.458 -0.719576 1.53689 0
M  V30 1899 H 178.23 -1.95409 3.39015 0
M  V30 1900 H 177.853 -3.25913 2.27742 0
M  V30 1901 N 178.85 -1.27639 -0.924453 0
M  V30 1902 C 180.078 -1.16989 -1.70649 0
M  V30 1903 C 180.493 0.272869 -1.86818 0
M  V30 1904 O 179.85 1.18549 -1.38753 0
M  V30 1905 C 179.901 -1.85229 -3.10439 0
M  V30 1906 O 179.622 -3.23868 -2.95028 0
M  V30 1907 C 181.123 -1.80746 -4.04779 0
M  V30 1908 H 178.343 -0.406595 -0.53378 0
M  V30 1909 H 180.887 -1.68569 -1.15778 0
M  V30 1910 H 179.042 -1.37545 -3.6216 0
M  V30 1911 H 179.456 -3.57889 -3.83426 0
M  V30 1912 H 180.93 -2.33101 -5.00368 0
M  V30 1913 H 181.407 -0.777499 -4.32263 0
M  V30 1914 H 182.013 -2.28059 -3.58984 0
M  V30 1915 N 180.328 1.1314 -1.09713 0
M  V30 1916 C 181.576 1.84119 -0.833338 0
M  V30 1917 C 181.897 1.84097 0.642904 0
M  V30 1918 O 181.167 1.29881 1.46655 0
M  V30 1919 H 179.747 0.681766 -0.305293 0
M  V30 1920 H 182.409 1.37038 -1.38588 0
M  V30 1921 H 181.505 2.88543 -1.18951 0
M  V30 1922 N 181.806 0.884767 1.30421 0
M  V30 1923 C 182.753 0.349642 2.28136 0
M  V30 1924 C 183.723 -0.560061 1.56373 0
M  V30 1925 O 184.908 -0.488524 1.8444 0
M  V30 1926 C 182.048 -0.42999 3.42411 0
M  V30 1927 C 181.161 0.508907 4.28992 0
M  V30 1928 C 180.296 -0.286301 5.30428 0
M  V30 1929 C 179.335 0.648079 6.08659 0
M  V30 1930 N 178.472 -0.111792 7.02011 0
M  V30 1931 H 183.312 1.18807 2.73293 0
M  V30 1932 H 180.849 0.597231 1.3443 0
M  V30 1933 H 182.807 -0.897923 4.07423 0
M  V30 1934 H 181.437 -1.23299 2.98324 0
M  V30 1935 H 180.489 1.09533 3.64289 0
M  V30 1936 H 181.801 1.22475 4.8353 0
M  V30 1937 H 180.955 -0.816098 6.01186 0
M  V30 1938 H 179.694 -1.03536 4.76583 0
M  V30 1939 H 178.699 1.18951 5.36778 0
M  V30 1940 H 179.924 1.39623 6.64592 0
M  V30 1941 H 177.87 -0.843395 6.50556 0
M  V30 1942 H 177.787 0.544429 7.54037 0
M  V30 1943 H 179.055 -0.622339 7.77012 0
M  V30 1944 N 183.284 -1.43765 0.645699 0
M  V30 1945 C 184.695 -1.85193 0.236719 0
M  V30 1946 C 185.046 -1.54045 -1.21509 0
M  V30 1947 O 184.171 -0.985694 -1.92647 0
M  V30 1948 C 184.766 -3.36151 0.422845 0
M  V30 1949 C 183.325 -3.76338 0.0682492 0
M  V30 1950 C 182.472 -2.67538 0.729306 0
M  V30 1951 H 185.423 -1.34025 0.849883 0
M  V30 1952 H 185.444 -3.79032 -0.333904 0
M  V30 1953 H 184.956 -3.5879 1.47958 0
M  V30 1954 H 183.057 -3.59312 -0.986179 0
M  V30 1955 H 183.17 -4.76603 0.488469 0
M  V30 1956 H 181.534 -2.54176 0.163235 0
M  V30 1957 H 182.317 -2.93006 1.78892 0
M  V30 1958 N 184.763 -0.387143 -1.52771 0
M  V30 1959 C 186.01 0.195735 -2.01552 0
M  V30 1960 C 186.338 1.46995 -1.27369 0
M  V30 1961 O 185.593 1.92325 -0.361879 0
M  V30 1962 C 185.892 0.512209 -3.53711 0
M  V30 1963 C 185.558 -0.670202 -4.45891 0
M  V30 1964 C 184.22 -0.994586 -4.70809 0
M  V30 1965 C 186.572 -1.46134 -5.00294 0
M  V30 1966 C 183.9 -2.11169 -5.4738 0
M  V30 1967 C 186.252 -2.56903 -5.78086 0
M  V30 1968 C 184.916 -2.89852 -6.01284 0
M  V30 1969 H 184.186 0.0716246 -0.73753 0
M  V30 1970 H 186.833 -0.524046 -1.8419 0
M  V30 1971 H 185.138 1.31329 -3.69134 0
M  V30 1972 H 186.835 0.975804 -3.88946 0
M  V30 1973 H 183.425 -0.407366 -4.2666 0
M  V30 1974 H 187.609 -1.22397 -4.80971 0
M  V30 1975 H 182.865 -2.3707 -5.63567 0
M  V30 1976 H 187.039 -3.18608 -6.19243 0
M  V30 1977 H 184.666 -3.76533 -6.60399 0
M  V30 1978 N 186.241 1.57166 -0.116904 0
M  V30 1979 C 187.171 2.18222 0.830759 0
M  V30 1980 C 188.152 1.12167 1.27877 0
M  V30 1981 O 189.337 1.40394 1.34176 0
M  V30 1982 C 186.467 2.77996 2.08172 0
M  V30 1983 C 185.421 3.89614 1.77157 0
M  V30 1984 C 184.747 4.36187 3.09265 0
M  V30 1985 C 186.047 5.1181 1.04151 0
M  V30 1986 H 187.741 2.97664 0.321992 0
M  V30 1987 H 185.287 1.4318 0.153434 0
M  V30 1988 H 187.24 3.19366 2.74924 0
M  V30 1989 H 185.964 1.9584 2.6137 0
M  V30 1990 H 184.623 3.48816 1.12796 0
M  V30 1991 H 184.271 3.50893 3.60393 0
M  V30 1992 H 183.971 5.11455 2.89288 0
M  V30 1993 H 185.495 4.80207 3.77139 0
M  V30 1994 H 186.909 5.50214 1.61052 0
M  V30 1995 H 185.306 5.92648 0.942762 0
M  V30 1996 H 186.376 4.84892 0.0279022 0
M  V30 1997 N 187.719 -0.156864 1.56817 0
M  V30 1998 C 188.669 -1.19891 1.93934 0
M  V30 1999 C 189.653 -1.39061 0.809372 0
M  V30 2000 O 190.845 -1.40789 1.07273 0
M  V30 2001 C 187.974 -2.53493 2.31508 0
M  V30 2002 C 187.06 -2.37957 3.51052 0
M  V30 2003 N 187.451 -1.92158 4.67877 0
M  V30 2004 C 185.749 -2.68739 3.55943 0
M  V30 2005 C 186.45 -1.8943 5.49992 0
M  V30 2006 N 185.426 -2.32375 4.91429 0
M  V30 2007 H 189.228 -0.836746 2.81737 0
M  V30 2008 H 186.742 -0.365012 1.58245 0
M  V30 2009 H 188.739 -3.28811 2.56299 0
M  V30 2010 H 187.399 -2.905 1.45051 0
M  V30 2011 H 188.41 -1.62274 4.91821 0
M  V30 2012 H 185.087 -3.09687 2.80001 0
M  V30 2013 H 186.477 -1.55596 6.53636 0
M  V30 2014 N 189.197 -1.51736 -0.425897 0
M  V30 2015 C 190.16 -1.73271 -1.50032 0
M  V30 2016 C 191.16 -0.602639 -1.4908 0
M  V30 2017 O 192.35 -0.87033 -1.509 0
M  V30 2018 C 189.482 -1.79969 -2.89523 0
M  V30 2019 H 190.675 -2.69172 -1.32237 0
M  V30 2020 H 188.228 -1.41899 -0.65532 0
M  V30 2021 H 188.963 -0.859241 -3.1271 0
M  V30 2022 H 188.748 -2.62109 -2.91619 0
M  V30 2023 H 190.238 -1.9843 -3.67444 0
M  V30 2024 N 190.675 0.682077 -1.42076 0
M  V30 2025 C 191.922 1.44215 -1.42156 0
M  V30 2026 C 192.25 1.94468 -0.0354186 0
M  V30 2027 O 191.505 1.70816 0.955002 0
M  V30 2028 C 191.804 2.66036 -2.38662 0
M  V30 2029 C 191.47 2.34366 -3.85206 0
M  V30 2030 C 190.132 2.25439 -4.25124 0
M  V30 2031 C 192.484 2.08513 -4.77673 0
M  V30 2032 C 189.812 1.88775 -5.55501 0
M  V30 2033 C 192.164 1.73354 -6.08384 0
M  V30 2034 C 190.828 1.62933 -6.47309 0
M  V30 2035 H 190.098 0.527718 -0.520187 0
M  V30 2036 H 192.745 0.778387 -1.74967 0
M  V30 2037 H 191.05 3.3741 -1.99152 0
M  V30 2038 H 192.747 3.24205 -2.35991 0
M  V30 2039 H 189.337 2.42213 -3.53597 0
M  V30 2040 H 193.521 2.14346 -4.47626 0
M  V30 2041 H 188.777 1.7927 -5.84527 0
M  V30 2042 H 192.951 1.52373 -6.79526 0
M  V30 2043 H 190.578 1.34292 -7.48244 0
M  V30 2044 N 192.153 1.28127 0.917671 0
M  V30 2045 C 193.4 1.15052 1.66641 0
M  V30 2046 C 193.728 -0.301677 1.92146 0
M  V30 2047 O 192.983 -1.23622 1.51711 0
M  V30 2048 C 193.282 1.89018 3.03327 0
M  V30 2049 C 192.948 3.38832 2.97496 0
M  V30 2050 C 191.61 3.79693 2.95613 0
M  V30 2051 C 193.962 4.34378 2.88036 0
M  V30 2052 C 191.29 5.14447 2.82066 0
M  V30 2053 C 193.642 5.69201 2.7603 0
M  V30 2054 C 192.306 6.09343 2.72502 0
M  V30 2055 H 191.576 0.421006 0.609783 0
M  V30 2056 H 194.223 1.58855 1.06945 0
M  V30 2057 H 192.528 1.37752 3.66785 0
M  V30 2058 H 194.225 1.76321 3.60156 0
M  V30 2059 H 190.815 3.06342 2.99754 0
M  V30 2060 H 194.999 4.03775 2.88581 0
M  V30 2061 H 190.255 5.44681 2.77728 0
M  V30 2062 H 194.429 6.42901 2.67678 0
M  V30 2063 H 192.056 7.13712 2.61762 0
M  V30 2064 N 193.631 -1.12557 1.10312 0
M  V30 2065 C 194.88 -1.83395 0.839588 0
M  V30 2066 C 195.193 -1.84939 -0.636929 0
M  V30 2067 O 196.399 -2.51761 -1.01631 0
M  V30 2068 C 194.855 -3.29303 1.45215 0
M  V30 2069 C 194.463 -3.36122 2.96186 0
M  V30 2070 C 196.207 -4.05121 1.26796 0
M  V30 2071 C 194.114 -4.76357 3.50483 0
M  V30 2072 H 193.044 -0.687133 0.310425 0
M  V30 2073 H 195.695 -1.26746 1.32694 0
M  V30 2074 H 194.077 -3.85812 0.892469 0
M  V30 2075 H 195.251 -2.89559 3.58458 0
M  V30 2076 H 193.566 -2.73776 3.13745 0
M  V30 2077 H 196.163 -5.08668 1.64806 0
M  V30 2078 H 196.506 -4.15773 0.209409 0
M  V30 2079 H 197.039 -3.54967 1.79563 0
M  V30 2080 H 193.778 -4.70899 4.55998 0
M  V30 2081 H 193.298 -5.23377 2.92978 0
M  V30 2082 H 194.977 -5.45294 3.48228 0
M  V30 2083 N 195.109 -0.891671 -1.2995 0
M  V30 2084 C 196.386 -0.433307 -1.9074 0
M  V30 2085 C 196.766 1.08646 -1.80995 0
M  V30 2086 O 196.114 1.92476 -1.23147 0
M  V30 2087 C 196.324 -0.938895 -3.36134 0
M  V30 2088 C 197.672 -0.977829 -4.13187 0
M  V30 2089 O 198.696 -0.886015 -3.45005 0
M  V30 2090 O 197.555 -1.11453 -5.35015 0
M  V30 2091 H 194.649 -0.133699 -0.816121 0
M  V30 2092 H 197.195 -0.981011 -1.38471 0
M  V30 2093 H 195.967 -1.98281 -3.37343 0
M  V30 2094 H 195.59 -0.37074 -3.95868 0
M  V30 2095 N 196.587 1.43421 -0.653314 0
M  V30 2096 C 197.517 2.33487 0.0246656 0
M  V30 2097 C 198.498 1.49475 0.811863 0
M  V30 2098 O 199.683 1.78139 0.773322 0
M  V30 2099 C 196.813 3.32841 0.99166 0
M  V30 2100 C 195.767 4.26842 0.314568 0
M  V30 2101 C 195.093 5.16236 1.39302 0
M  V30 2102 C 196.393 5.16243 -0.793095 0
M  V30 2103 H 198.087 2.90427 -0.727481 0
M  V30 2104 H 195.633 1.39649 -0.351287 0
M  V30 2105 H 197.586 3.94747 1.47487 0
M  V30 2106 H 196.31 2.74158 1.77497 0
M  V30 2107 H 194.969 3.663 -0.148199 0
M  V30 2108 H 194.617 4.53891 2.16776 0
M  V30 2109 H 194.317 5.79948 0.945223 0
M  V30 2110 H 195.841 5.81015 1.87759 0
M  V30 2111 H 197.255 5.71958 -0.392039 0
M  V30 2112 H 195.652 5.88676 -1.16536 0
M  V30 2113 H 196.722 4.55927 -1.65103 0
M  V30 2114 N 198.065 0.39524 1.52563 0
M  V30 2115 C 198.975 -0.444232 2.30356 0
M  V30 2116 C 199.991 -1.06615 1.37511 0
M  V30 2117 O 201.167 -1.07067 1.70583 0
M  V30 2118 C 198.232 -1.55315 3.09964 0
M  V30 2119 C 197.293 -0.955734 4.18526 0
M  V30 2120 C 196.526 -2.01181 4.9433 0
M  V30 2121 O 196.749 -3.22781 4.70285 0
M  V30 2122 O 195.683 -1.62579 5.79527 0
M  V30 2123 H 199.509 0.189667 3.03107 0
M  V30 2124 H 197.094 0.1588 1.48554 0
M  V30 2125 H 198.976 -2.19724 3.59582 0
M  V30 2126 H 197.651 -2.17191 2.4002 0
M  V30 2127 H 196.558 -0.274743 3.7309 0
M  V30 2128 H 197.891 -0.381109 4.90722 0
M  V30 2129 N 199.544 -1.57102 0.125237 0
M  V30 2130 C 200.792 -1.95021 -0.530198 0
M  V30 2131 C 201.113 -1.00982 -1.66816 0
M  V30 2132 O 200.383 -0.0672693 -1.95784 0
M  V30 2133 H 198.963 -0.720046 -0.198853 0
M  V30 2134 H 201.625 -1.93916 0.19564 0
M  V30 2135 H 200.721 -2.98211 -0.920681 0
M  V30 2136 N 201.022 0.148545 -1.56898 0
M  V30 2137 C 202.262 0.86765 -1.85071 0
M  V30 2138 C 202.626 1.78417 -0.709317 0
M  V30 2139 O 203.827 2.54261 -0.872049 0
M  V30 2140 C 202.098 1.62306 -3.1842 0
M  V30 2141 S 203.657 2.3878 -3.68143 0
M  V30 2142 H 200.475 0.290174 -0.649092 0
M  V30 2143 H 203.077 0.127755 -1.95082 0
M  V30 2144 H 201.781 0.941192 -3.99462 0
M  V30 2145 H 201.312 2.4039 -3.1141 0
M  V30 2146 H 203.327 3.63942 -3.37285 0
M  V30 2147 N 202.5 1.5196 0.417844 0
M  V30 2148 C 203.749 1.6482 1.16264 0
M  V30 2149 C 204.062 0.379886 1.91876 0
M  V30 2150 O 205.268 0.388154 2.68711 0
M  V30 2151 C 203.724 2.91161 2.1155 0
M  V30 2152 C 203.332 4.25068 1.41495 0
M  V30 2153 C 205.076 3.13383 2.86341 0
M  V30 2154 C 202.983 5.42541 2.35379 0
M  V30 2155 H 201.913 0.613954 0.437694 0
M  V30 2156 H 204.564 1.78442 0.427871 0
M  V30 2157 H 202.946 2.71218 2.88543 0
M  V30 2158 H 204.12 4.55463 0.699263 0
M  V30 2159 H 202.435 4.0888 0.787792 0
M  V30 2160 H 205.032 3.98324 3.5671 0
M  V30 2161 H 205.375 2.27256 3.48798 0
M  V30 2162 H 205.908 3.33757 2.1645 0
M  V30 2163 H 202.647 6.30987 1.77582 0
M  V30 2164 H 202.167 5.16497 3.04945 0
M  V30 2165 H 203.846 5.75272 2.96093 0
M  V30 2166 N 203.978 -0.674533 1.42435 0
M  V30 2167 C 205.394 -0.98769 1.25367 0
M  V30 2168 C 205.594 -2.00879 0.158044 0
M  V30 2169 O 204.65 -2.48075 -0.470633 0
M  V30 2170 C 205.963 -1.49224 2.6106 0
M  V30 2171 C 207.511 -1.61 2.68417 0
M  V30 2172 C 207.986 -2.14852 4.04478 0
M  V30 2173 N 209.477 -2.22185 4.06434 0
M  V30 2174 C 210.212 -2.64928 5.08528 0
M  V30 2175 N 209.708 -3.07121 6.21006 0
M  V30 2176 N 211.501 -2.64679 4.95885 0
M  V30 2177 H 203.652 0.00152503 2.124 0
M  V30 2178 H 205.915 -0.0618434 0.945981 0
M  V30 2179 H 205.621 -0.816453 3.42092 0
M  V30 2180 H 205.495 -2.47094 2.84999 0
M  V30 2181 H 207.882 -2.27686 1.87732 0
M  V30 2182 H 207.963 -0.616195 2.48267 0
M  V30 2183 H 207.607 -1.48775 4.85622 0
M  V30 2184 H 207.537 -3.15024 4.2198 0
M  V30 2185 H 210.028 -1.92435 3.25234 0
M  V30 2186 H 210.341 -3.38423 6.94759 0
M  V30 2187 H 208.686 -3.04978 6.24511 0
M  V30 2188 H 211.877 -2.31078 4.07088 0
M  V30 2189 H 212.05 -2.9767 5.75584 0
M  V30 2190 N 205.456 -1.28612 -0.910864 0
M  V30 2191 C 206.684 -1.18792 -1.69399 0
M  V30 2192 C 207.099 0.253039 -1.87097 0
M  V30 2193 O 206.456 1.17071 -1.40003 0
M  V30 2194 C 206.507 -1.88511 -3.08457 0
M  V30 2195 O 206.228 -3.26979 -2.91576 0
M  V30 2196 C 207.729 -1.85029 -4.02839 0
M  V30 2197 H 204.949 -0.412233 -0.529438 0
M  V30 2198 H 207.493 -1.69788 -1.13984 0
M  V30 2199 H 205.648 -1.41379 -3.60681 0
M  V30 2200 H 206.062 -3.61936 -3.79608 0
M  V30 2201 H 207.536 -2.38395 -4.97867 0
M  V30 2202 H 208.013 -0.823303 -4.31414 0
M  V30 2203 H 208.619 -2.31853 -3.56545 0
M  V30 2204 N 206.934 1.1197 -1.10907 0
M  V30 2205 C 207.864 2.19928 -0.784473 0
M  V30 2206 C 208.845 1.6833 0.244726 0
M  V30 2207 O 210.03 1.93892 0.109418 0
M  V30 2208 C 207.16 3.46597 -0.220827 0
M  V30 2209 C 206.114 4.11376 -1.18127 0
M  V30 2210 C 205.44 5.32554 -0.478594 0
M  V30 2211 C 206.74 4.56945 -2.52979 0
M  V30 2212 H 208.434 2.47337 -1.68715 0
M  V30 2213 H 205.98 1.18879 -0.812642 0
M  V30 2214 H 207.933 4.21396 0.0184278 0
M  V30 2215 H 206.657 3.1863 0.717113 0
M  V30 2216 H 205.316 3.38564 -1.40606 0
M  V30 2217 H 204.964 5.00856 0.463976 0
M  V30 2218 H 204.664 5.76844 -1.11912 0
M  V30 2219 H 206.188 6.10096 -0.248 0
M  V30 2220 H 207.602 5.23093 -2.3462 0
M  V30 2221 H 205.999 5.1203 -3.12962 0
M  V30 2222 H 207.069 3.70676 -3.12614 0
M  V30 2223 N 208.412 0.89855 1.29475 0
M  V30 2224 C 209.828 0.594483 1.48115 0
M  V30 2225 C 210.028 -0.86431 1.82022 0
M  V30 2226 O 209.084 -1.64457 1.91599 0
M  V30 2227 C 210.397 1.51932 2.59494 0
M  V30 2228 C 211.945 1.5244 2.7337 0
M  V30 2229 C 212.42 2.43548 3.87877 0
M  V30 2230 N 213.911 2.41589 3.95208 0
M  V30 2231 C 214.646 3.08789 4.83153 0
M  V30 2232 N 214.142 3.85265 5.75798 0
M  V30 2233 N 215.935 2.97952 4.76635 0
M  V30 2234 H 208.086 1.84207 1.05742 0
M  V30 2235 H 210.349 0.789251 0.525154 0
M  V30 2236 H 210.055 2.55865 2.41301 0
M  V30 2237 H 209.929 1.23899 3.56271 0
M  V30 2238 H 212.316 0.492518 2.90961 0
M  V30 2239 H 212.397 1.8451 1.77172 0
M  V30 2240 H 212.041 3.46829 3.71041 0
M  V30 2241 H 211.971 2.08788 4.83441 0
M  V30 2242 H 214.462 1.86025 3.28943 0
M  V30 2243 H 214.775 4.33598 6.39697 0
M  V30 2244 H 213.12 3.89371 5.75687 0
M  V30 2245 H 216.311 2.37723 4.03244 0
M  V30 2246 H 216.484 3.50599 5.44962 0
M  V30 2247 N 209.89 -1.43072 0.660911 0
M  V30 2248 C 211.12 -2.05769 0.185153 0
M  V30 2249 C 211.528 -1.49668 -1.15742 0
M  V30 2250 O 210.871 -0.625649 -1.72717 0
M  V30 2251 C 210.933 -3.59489 0.0278237 0
M  V30 2252 C 210.597 -4.38212 1.2969 0
M  V30 2253 C 211.594 -4.69772 2.22734 0
M  V30 2254 C 209.279 -4.7809 1.54063 0
M  V30 2255 C 211.273 -5.40129 3.38437 0
M  V30 2256 C 208.96 -5.4819 2.70058 0
M  V30 2257 C 209.958 -5.79132 3.62071 0
M  V30 2258 O 209.646 -6.47798 4.76039 0
M  V30 2259 H 209.378 -0.669873 0.0908086 0
M  V30 2260 H 211.932 -1.84436 0.90402 0
M  V30 2261 H 210.162 -3.79426 -0.746489 0
M  V30 2262 H 211.851 -4.03862 -0.406275 0
M  V30 2263 H 212.617 -4.39476 2.05149 0
M  V30 2264 H 208.496 -4.53408 0.833215 0
M  V30 2265 H 212.04 -5.64198 4.10277 0
M  V30 2266 H 207.937 -5.77902 2.87574 0
M  V30 2267 H 208.705 -6.66283 4.75404 0
M  V30 2268 N 211.368 -0.403325 -1.52352 0
M  V30 2269 C 212.615 0.174347 -2.01748 0
M  V30 2270 C 212.943 1.45636 -1.2892 0
M  V30 2271 O 212.198 1.9193 -0.382258 0
M  V30 2272 C 212.497 0.474665 -3.54234 0
M  V30 2273 C 212.163 -0.717458 -4.45155 0
M  V30 2274 C 210.825 -1.04447 -4.69728 0
M  V30 2275 C 213.177 -1.51432 -4.98716 0
M  V30 2276 C 210.505 -2.16963 -5.45109 0
M  V30 2277 C 212.857 -2.6302 -5.75329 0
M  V30 2278 C 211.521 -2.96213 -5.98175 0
M  V30 2279 H 210.791 0.0637981 -0.738248 0
M  V30 2280 H 213.438 -0.543553 -1.83624 0
M  V30 2281 H 211.743 1.27406 -3.70506 0
M  V30 2282 H 213.44 0.934496 -3.89959 0
M  V30 2283 H 210.03 -0.452596 -4.26204 0
M  V30 2284 H 214.214 -1.27491 -4.79645 0
M  V30 2285 H 209.47 -2.43034 -5.61021 0
M  V30 2286 H 213.644 -3.25158 -6.15829 0
M  V30 2287 H 211.271 -3.83516 -6.56368 0
M  V30 2288 N 212.846 1.57033 -0.133567 0
M  V30 2289 C 213.809 2.14897 0.796995 0
M  V30 2290 C 214.809 1.0874 1.18458 0
M  V30 2291 O 215.999 1.34446 1.1077 0
M  V30 2292 C 213.131 2.70112 2.07973 0
M  V30 2293 H 214.324 2.98457 0.293873 0
M  V30 2294 H 211.877 1.55871 0.115787 0
M  V30 2295 H 212.612 1.9018 2.62682 0
M  V30 2296 H 212.397 3.47764 1.81115 0
M  V30 2297 H 213.887 3.14738 2.74462 0
M  V30 2298 N 214.325 -0.140222 1.56975 0
M  V30 2299 C 215.573 -0.850005 1.83356 0
M  V30 2300 C 215.894 -1.81399 0.71551 0
M  V30 2301 O 215.164 -1.94136 -0.262294 0
M  V30 2302 H 213.744 -0.316886 0.676456 0
M  V30 2303 H 216.406 -0.132608 1.94448 0
M  V30 2304 H 215.502 -1.40814 2.78528 0
M  V30 2305 N 215.803 -1.52179 -0.40978 0
M  V30 2306 C 217.049 -1.67408 -1.15525 0
M  V30 2307 C 217.404 -0.398746 -1.88223 0
M  V30 2308 O 216.697 0.60678 -1.81738 0
M  V30 2309 C 216.891 -2.83428 -2.17723 0
M  V30 2310 C 216.72 -4.22121 -1.55061 0
M  V30 2311 C 215.49 -4.87657 -1.3236 0
M  V30 2312 C 217.688 -5.04248 -1.01185 0
M  V30 2313 N 215.67 -6.10387 -0.655834 0
M  V30 2314 C 217.041 -6.18209 -0.470963 0
M  V30 2315 C 219.096 -4.89583 -0.906252 0
M  V30 2316 C 217.799 -7.1911 0.165172 0
M  V30 2317 C 219.825 -5.90718 -0.28397 0
M  V30 2318 C 219.187 -7.03969 0.246243 0
M  V30 2319 H 215.286 -0.666251 -0.409431 0
M  V30 2320 H 217.87 -1.89482 -0.447729 0
M  V30 2321 H 216.041 -2.6297 -2.85834 0
M  V30 2322 H 217.773 -2.87697 -2.84627 0
M  V30 2323 H 214.528 -4.46007 -1.59294 0
M  V30 2324 H 214.952 -6.76153 -0.338596 0
M  V30 2325 H 219.594 -4.02253 -1.302 0
M  V30 2326 H 217.312 -8.06066 0.572986 0
M  V30 2327 H 220.898 -5.81443 -0.203792 0
M  V30 2328 H 219.778 -7.80886 0.720173 0
M  V30 2329 N 217.281 0.66697 -1.42791 0
M  V30 2330 C 218.244 1.76211 -1.46568 0
M  V30 2331 C 219.244 1.56896 -0.352196 0
M  V30 2332 O 220.434 1.63044 -0.613364 0
M  V30 2333 C 217.566 3.14935 -1.30494 0
M  V30 2334 H 218.759 1.74247 -2.44086 0
M  V30 2335 H 216.312 0.877342 -1.29354 0
M  V30 2336 H 217.047 3.2252 -0.339301 0
M  V30 2337 H 216.832 3.30359 -2.11199 0
M  V30 2338 H 218.322 3.94821 -1.36038 0
M  V30 2339 N 218.759 1.29093 0.90403 0
M  V30 2340 C 220.036 1.075 1.63411 0
M  V30 2341 C 220.416 -0.382346 2.07609 0
M  V30 2342 O 219.764 -1.37031 1.82851 0
M  V30 2343 C 219.974 2.05858 2.81822 0
M  V30 2344 C 221.322 2.36539 3.52611 0
M  V30 2345 O 222.346 2.04019 2.91984 0
M  V30 2346 O 221.205 2.92085 4.61897 0
M  V30 2347 H 218.299 0.411547 0.717327 0
M  V30 2348 H 220.845 1.40449 0.952479 0
M  V30 2349 H 219.617 3.04037 2.46327 0
M  V30 2350 H 219.24 1.73613 3.57693 0
M  V30 2351 N 220.237 -1.11381 1.11499 0
M  V30 2352 C 221.184 -2.17439 0.773887 0
M  V30 2353 C 222.154 -1.64132 -0.254899 0
M  V30 2354 O 223.339 -1.90345 -0.13168 0
M  V30 2355 C 220.479 -3.44373 0.223917 0
M  V30 2356 C 219.592 -4.1168 1.30934 0
M  V30 2357 C 218.727 -5.263 0.71984 0
M  V30 2358 C 217.766 -5.85493 1.78507 0
M  V30 2359 N 216.903 -6.91507 1.21502 0
M  V30 2360 H 221.743 -2.45962 1.68246 0
M  V30 2361 H 219.28 -1.20744 0.840191 0
M  V30 2362 H 221.238 -4.17047 -0.112921 0
M  V30 2363 H 219.868 -3.16232 -0.647851 0
M  V30 2364 H 218.92 -3.37073 1.76312 0
M  V30 2365 H 220.232 -4.51729 2.11524 0
M  V30 2366 H 219.386 -6.05785 0.333094 0
M  V30 2367 H 218.125 -4.87559 -0.117377 0
M  V30 2368 H 217.13 -5.04686 2.18111 0
M  V30 2369 H 218.355 -6.26301 2.62533 0
M  V30 2370 H 216.301 -6.54783 0.399455 0
M  V30 2371 H 216.218 -7.30214 1.95763 0
M  V30 2372 H 217.486 -7.74795 0.855181 0
M  V30 2373 N 221.715 -0.905404 -1.28997 0
M  V30 2374 C 222.964 -0.530191 -1.94607 0
M  V30 2375 C 223.277 0.929185 -1.72121 0
M  V30 2376 O 224.483 1.41218 -2.31883 0
M  V30 2377 C 222.939 -0.897333 -3.48534 0
M  V30 2378 C 222.547 -2.37587 -3.79811 0
M  V30 2379 C 224.291 -0.592304 -4.20347 0
M  V30 2380 C 222.198 -2.68357 -5.27009 0
M  V30 2381 H 221.128 -0.194558 -0.728466 0
M  V30 2382 H 223.779 -1.10318 -1.46636 0
M  V30 2383 H 222.161 -0.253214 -3.9519 0
M  V30 2384 H 223.335 -3.06602 -3.43994 0
M  V30 2385 H 221.65 -2.6505 -3.2115 0
M  V30 2386 H 224.247 -0.798975 -5.28697 0
M  V30 2387 H 224.59 0.469474 -4.13644 0
M  V30 2388 H 225.123 -1.19452 -3.79442 0
M  V30 2389 H 221.862 -3.73355 -5.38782 0
M  V30 2390 H 221.382 -2.03971 -5.64053 0
M  V30 2391 H 223.061 -2.54922 -5.94663 0
M  V30 2392 N 223.193 1.4272 -0.668489 0
M  V30 2393 C 224.125 2.2914 0.052613 0
M  V30 2394 C 225.138 1.43339 0.771857 0
M  V30 2395 O 226.327 1.67123 0.627067 0
M  V30 2396 C 223.427 3.20618 1.09804 0
M  V30 2397 C 222.6 4.35039 0.45389 0
M  V30 2398 C 221.659 5.07282 1.39825 0
M  V30 2399 O 220.685 5.62024 0.900978 0
M  V30 2400 N 221.887 5.12206 2.73176 0
M  V30 2401 H 224.652 2.91668 -0.689209 0
M  V30 2402 H 222.213 1.53577 -0.512422 0
M  V30 2403 H 224.205 3.65815 1.73094 0
M  V30 2404 H 222.775 2.59585 1.74167 0
M  V30 2405 H 221.995 3.92567 -0.358396 0
M  V30 2406 H 223.283 5.088 0.00486972 0
M  V30 2407 H 222.681 4.6913 3.16122 0
M  V30 2408 H 221.238 5.61069 3.31729 0
M  V30 2409 N 224.671 0.411399 1.52136 0
M  V30 2410 C 225.919 -0.163322 2.01439 0
M  V30 2411 C 226.24 -1.45453 1.29879 0
M  V30 2412 O 225.51 -1.91225 0.4254 0
M  V30 2413 H 224.09 -0.0633447 0.744309 0
M  V30 2414 H 226.752 0.548161 1.87033 0
M  V30 2415 H 225.848 -0.357817 3.10042 0
M  V30 2416 N 226.149 -1.5696 0.141893 0
M  V30 2417 C 227.096 -2.16501 -0.799737 0
M  V30 2418 C 228.066 -1.09643 -1.24771 0
M  V30 2419 O 229.251 -1.3766 -1.32115 0
M  V30 2420 C 226.391 -2.78679 -2.03549 0
M  V30 2421 C 225.504 -3.99914 -1.6338 0
M  V30 2422 C 224.639 -4.50106 -2.82096 0
M  V30 2423 C 223.678 -5.63819 -2.38275 0
M  V30 2424 N 222.815 -6.08651 -3.49983 0
M  V30 2425 H 227.655 -2.96632 -0.285179 0
M  V30 2426 H 225.192 -1.46533 -0.129053 0
M  V30 2427 H 227.15 -3.1287 -2.75986 0
M  V30 2428 H 225.78 -2.012 -2.52425 0
M  V30 2429 H 224.832 -3.71735 -0.807279 0
M  V30 2430 H 226.144 -4.82311 -1.27192 0
M  V30 2431 H 225.298 -4.86325 -3.62729 0
M  V30 2432 H 224.037 -3.66706 -3.21525 0
M  V30 2433 H 223.042 -5.2718 -1.56081 0
M  V30 2434 H 224.267 -6.49 -1.99938 0
M  V30 2435 H 222.213 -5.28188 -3.89042 0
M  V30 2436 H 222.13 -6.85961 -3.17794 0
M  V30 2437 H 223.398 -6.49515 -4.30988 0
M  V30 2438 N 227.627 0.131896 -1.57047 0
M  V30 2439 C 228.855 0.856461 -1.88341 0
M  V30 2440 C 229.27 1.74042 -0.731757 0
M  V30 2441 O 228.627 1.80051 0.297945 0
M  V30 2442 C 228.678 1.70064 -3.18999 0
M  V30 2443 O 228.399 0.852278 -4.2973 0
M  V30 2444 C 229.9 2.53148 -3.63911 0
M  V30 2445 H 227.12 0.246885 -0.62393 0
M  V30 2446 H 229.664 0.120152 -2.04147 0
M  V30 2447 H 227.819 2.38984 -3.04902 0
M  V30 2448 H 228.233 1.43329 -5.04537 0
M  V30 2449 H 229.707 3.07931 -4.58129 0
M  V30 2450 H 230.184 3.29901 -2.89935 0
M  V30 2451 H 230.79 1.89492 -3.80753 0
M  V30 2452 N 229.106 1.52395 0.401703 0
M  V30 2453 C 230.355 1.66044 1.14509 0
M  V30 2454 C 230.668 0.400216 1.91462 0
M  V30 2455 O 231.874 0.416632 2.68284 0
M  V30 2456 C 230.33 2.93388 2.0845 0
M  V30 2457 C 229.938 4.26545 1.36978 0
M  V30 2458 C 231.682 3.16402 2.83001 0
M  V30 2459 C 229.589 5.45007 2.29611 0
M  V30 2460 H 228.519 0.618562 0.431158 0
M  V30 2461 H 231.17 1.78886 0.40892 0
M  V30 2462 H 229.552 2.74263 2.8565 0
M  V30 2463 H 230.726 4.56179 0.650916 0
M  V30 2464 H 229.041 4.09692 0.74438 0
M  V30 2465 H 231.638 4.02085 3.52465 0
M  V30 2466 H 231.981 2.30943 3.46368 0
M  V30 2467 H 232.514 3.36034 2.12898 0
M  V30 2468 H 229.253 6.32835 1.70879 0
M  V30 2469 H 228.773 5.19702 2.9945 0
M  V30 2470 H 230.452 5.7838 2.89974 0
M  V30 2471 N 230.584 -0.659388 1.43143 0
M  V30 2472 C 231.995 -1.24041 1.39537 0
M  V30 2473 C 232.346 -1.95963 0.0963364 0
M  V30 2474 O 231.471 -2.00892 -0.804438 0
M  V30 2475 C 232.066 -2.25601 2.52764 0
M  V30 2476 C 230.625 -2.79195 2.52443 0
M  V30 2477 C 229.772 -1.53743 2.30778 0
M  V30 2478 H 232.723 -0.451792 1.52133 0
M  V30 2479 H 232.744 -3.07651 2.23899 0
M  V30 2480 H 232.256 -1.73226 3.47296 0
M  V30 2481 H 230.357 -3.35649 1.61773 0
M  V30 2482 H 230.47 -3.2716 3.50004 0
M  V30 2483 H 228.834 -1.80869 1.79328 0
M  V30 2484 H 229.617 -1.03312 3.27386 0
M  V30 2485 N 232.062 -1.29571 -0.897171 0
M  V30 2486 C 233.29 -1.20583 -1.68129 0
M  V30 2487 C 233.705 0.233181 -1.87354 0
M  V30 2488 O 233.062 1.15579 -1.41236 0
M  V30 2489 C 233.113 -1.91772 -3.06441 0
M  V30 2490 O 232.834 -3.30053 -2.88091 0
M  V30 2491 C 234.335 -1.89291 -4.00854 0
M  V30 2492 H 231.555 -0.417826 -0.525036 0
M  V30 2493 H 234.099 -1.70987 -1.12177 0
M  V30 2494 H 232.254 -1.45196 -3.59161 0
M  V30 2495 H 232.668 -3.65942 -3.75748 0
M  V30 2496 H 234.142 -2.43662 -4.95311 0
M  V30 2497 H 234.619 -0.869014 -4.30517 0
M  V30 2498 H 235.225 -2.35622 -3.54066 0
M  V30 2499 N 233.54 1.10788 -1.12088 0
M  V30 2500 C 234.817 1.79136 -0.785476 0
M  V30 2501 C 235.197 1.98246 0.725377 0
M  V30 2502 O 234.545 1.57258 1.65778 0
M  V30 2503 C 234.755 3.12375 -1.55636 0
M  V30 2504 C 236.103 3.8731 -1.74001 0
M  V30 2505 O 237.127 3.22085 -1.52117 0
M  V30 2506 O 235.986 5.04369 -2.10415 0
M  V30 2507 H 233.08 0.776226 -0.285311 0
M  V30 2508 H 235.626 1.1747 -1.2247 0
M  V30 2509 H 234.398 2.93863 -2.5838 0
M  V30 2510 H 234.021 3.81758 -1.11114 0
M  V30 2511 N 235.018 0.912232 1.28515 0
M  V30 2512 C 236.295 0.463597 1.90027 0
M  V30 2513 C 236.675 -1.05753 1.82701 0
M  V30 2514 O 236.023 -1.90492 1.26194 0
M  V30 2515 C 236.233 0.992253 3.34597 0
M  V30 2516 C 237.581 1.04344 4.11579 0
M  V30 2517 O 238.605 0.94079 3.43551 0
M  V30 2518 O 237.464 1.1995 5.33174 0
M  V30 2519 H 234.558 0.146666 0.813891 0
M  V30 2520 H 237.104 1.00292 1.36893 0
M  V30 2521 H 235.876 2.03623 3.34146 0
M  V30 2522 H 235.499 0.433672 3.95228 0
M  V30 2523 N 236.496 -1.42363 0.676048 0
M  V30 2524 C 237.444 -2.32596 -0.0131507 0
M  V30 2525 C 238.438 -1.49891 -0.789238 0
M  V30 2526 O 239.644 -1.65955 -0.697061 0
M  V30 2527 H 236.019 -0.751647 -0.0230481 0
M  V30 2528 H 237.99 -2.88421 0.765243 0
M  V30 2529 C 236.739 -3.34479 -0.949702 0
M  V30 2530 H 236.062 -3.98158 -0.361938 0
M  V30 2531 H 237.502 -4.00199 -1.4006 0
M  V30 2532 C 235.961 -2.66838 -2.05667 0
M  V30 2533 O 236.491 -2.50124 -3.14326 0
M  V30 2534 N 234.697 -2.25843 -1.82875 0
M  V30 2535 H 234.244 -2.39637 -0.945085 0
M  V30 2536 H 234.202 -1.80918 -2.5713 0
M  V30 2537 N 237.974 -0.419461 -1.51915 0
M  V30 2538 C 239.22 0.153166 -2.02221 0
M  V30 2539 C 239.553 1.43907 -1.30401 0
M  V30 2540 O 238.828 1.90055 -0.413438 0
M  V30 2541 C 239.111 0.390291 -3.57979 0
M  V30 2542 C 238.964 -0.913014 -4.40436 0
M  V30 2543 C 240.283 1.16794 -4.2432 0
M  V30 2544 H 237.402 0.0541924 -0.735005 0
M  V30 2545 H 240.044 -0.554955 -1.81715 0
M  V30 2546 H 238.194 0.993491 -3.75582 0
M  V30 2547 H 239.866 -1.54882 -4.34522 0
M  V30 2548 H 238.109 -1.52168 -4.06236 0
M  V30 2549 H 238.78 -0.701361 -5.47526 0
M  V30 2550 H 241.256 0.657161 -4.10878 0
M  V30 2551 H 240.132 1.3026 -5.3322 0
M  V30 2552 H 240.393 2.19132 -3.83971 0
M  V30 2553 N 239.452 1.56882 -0.150215 0
M  V30 2554 C 240.698 1.96518 0.500834 0
M  V30 2555 C 241.031 1.03527 1.64304 0
M  V30 2556 O 240.306 0.0782751 1.94342 0
M  V30 2557 C 240.589 3.45822 1.00395 0
M  V30 2558 C 240.442 4.49591 -0.136983 0
M  V30 2559 C 241.761 3.97704 1.88467 0
M  V30 2560 H 238.88 0.714535 0.18058 0
M  V30 2561 H 241.522 1.88577 -0.232091 0
M  V30 2562 H 239.672 3.5272 1.62851 0
M  V30 2563 H 241.344 4.5477 -0.77343 0
M  V30 2564 H 239.587 4.26441 -0.795652 0
M  V30 2565 H 240.258 5.51402 0.256815 0
M  V30 2566 H 242.734 3.93304 1.35834 0
M  V30 2567 H 241.61 5.0263 2.20578 0
M  V30 2568 H 241.871 3.40252 2.82279 0
M  V30 2569 N 240.93 -0.123565 1.57115 0
M  V30 2570 C 242.17 -0.838097 1.86428 0
M  V30 2571 C 242.534 -1.77266 0.737611 0
M  V30 2572 O 243.735 -2.52842 0.912389 0
M  V30 2573 C 242.006 -1.57219 3.20962 0
M  V30 2574 S 243.565 -2.32893 3.71896 0
M  V30 2575 H 240.383 -0.279811 0.653626 0
M  V30 2576 H 242.985 -0.0967034 1.95261 0
M  V30 2577 H 241.689 -0.877522 4.00909 0
M  V30 2578 H 241.22 -2.35405 3.15195 0
M  V30 2579 H 243.235 -3.5853 3.43032 0
M  V30 2580 N 242.408 -1.52605 -0.393616 0
M  V30 2581 C 243.655 -1.67424 -1.1391 0
M  V30 2582 C 243.983 -0.411859 -1.90089 0
M  V30 2583 O 243.238 0.605626 -1.86093 0
M  V30 2584 C 243.537 -2.85721 -2.14705 0
M  V30 2585 C 243.203 -4.23342 -1.55218 0
M  V30 2586 C 241.865 -4.60771 -1.3872 0
M  V30 2587 C 244.217 -5.09041 -1.11924 0
M  V30 2588 C 241.545 -5.81563 -0.774689 0
M  V30 2589 C 243.897 -6.30452 -0.520853 0
M  V30 2590 C 242.561 -6.66617 -0.343134 0
M  V30 2591 H 241.831 -0.612648 -0.416826 0
M  V30 2592 H 244.478 -1.8674 -0.424315 0
M  V30 2593 H 242.783 -2.60803 -2.92385 0
M  V30 2594 H 244.48 -2.94382 -2.72288 0
M  V30 2595 H 241.07 -3.93855 -1.69045 0
M  V30 2596 H 245.254 -4.80695 -1.23473 0
M  V30 2597 H 240.51 -6.08196 -0.625154 0
M  V30 2598 H 244.684 -6.96175 -0.177065 0
M  V30 2599 H 242.311 -7.60083 0.133571 0
M  V30 2600 N 243.887 0.651787 -1.4349 0
M  V30 2601 C 245.115 1.43937 -1.48626 0
M  V30 2602 C 245.53 1.8851 -0.104587 0
M  V30 2603 O 244.887 1.5958 0.885464 0
M  V30 2604 C 244.938 2.6734 -2.43334 0
M  V30 2605 O 244.659 2.24631 -3.76128 0
M  V30 2606 C 246.16 3.60683 -2.57726 0
M  V30 2607 H 243.38 0.44213 -0.504739 0
M  V30 2608 H 245.924 0.798944 -1.88248 0
M  V30 2609 H 244.079 3.2752 -2.06904 0
M  V30 2610 H 244.493 3.04485 -4.2707 0
M  V30 2611 H 245.967 4.43933 -3.28067 0
M  V30 2612 H 246.444 4.08126 -1.62265 0
M  V30 2613 H 247.05 3.06384 -2.94973 0
M  V30 2614 N 245.365 1.30045 0.890287 0
M  V30 2615 C 246.781 1.08261 1.17268 0
M  V30 2616 C 246.981 -0.160063 2.00863 0
M  V30 2617 O 246.037 -0.855181 2.37577 0
M  V30 2618 C 247.35 2.34323 1.8845 0
M  V30 2619 C 248.898 2.39735 2.01237 0
M  V30 2620 C 249.373 3.65625 2.7583 0
M  V30 2621 N 250.864 3.66402 2.83379 0
M  V30 2622 C 251.599 4.60498 3.41657 0
M  V30 2623 N 251.095 5.64933 4.01026 0
M  V30 2624 N 252.888 4.48051 3.39421 0
M  V30 2625 H 245.039 2.09777 0.332762 0
M  V30 2626 H 247.302 0.92446 0.209948 0
M  V30 2627 H 247.008 3.2498 1.34465 0
M  V30 2628 H 246.882 2.4256 2.88867 0
M  V30 2629 H 249.269 1.4956 2.54393 0
M  V30 2630 H 249.35 2.35476 0.999232 0
M  V30 2631 H 248.994 4.56156 2.23347 0
M  V30 2632 H 248.924 3.67144 3.77509 0
M  V30 2633 H 251.415 2.90896 2.41222 0
M  V30 2634 H 251.728 6.32841 4.43545 0
M  V30 2635 H 250.073 5.68732 3.99461 0
M  V30 2636 H 253.264 3.65649 2.92264 0
M  V30 2637 H 253.437 5.21565 3.84544 0
M  V30 2638 N 246.843 -1.10192 1.12674 0
M  V30 2639 C 247.793 -2.14754 0.765801 0
M  V30 2640 C 248.777 -1.59154 -0.236409 0
M  V30 2641 O 249.969 -1.76951 -0.0415261 0
M  V30 2642 C 247.098 -3.42563 0.224827 0
M  V30 2643 C 246.184 -4.05091 1.25548 0
M  V30 2644 N 246.575 -4.42287 2.4539 0
M  V30 2645 C 244.873 -4.32186 1.10142 0
M  V30 2646 C 245.574 -4.91441 3.11224 0
M  V30 2647 N 244.55 -4.88405 2.38666 0
M  V30 2648 H 248.352 -2.41309 1.67772 0
M  V30 2649 H 245.866 -1.27339 1.00789 0
M  V30 2650 H 247.863 -4.16868 -0.0519578 0
M  V30 2651 H 246.523 -3.17467 -0.681515 0
M  V30 2652 H 247.534 -4.33902 2.82754 0
M  V30 2653 H 244.211 -4.16735 0.252587 0
M  V30 2654 H 245.601 -5.29749 4.13298 0
M  V30 2655 N 248.321 -0.919034 -1.28029 0
M  V30 2656 C 249.231 -0.416756 -2.30869 0
M  V30 2657 C 250.247 0.498235 -1.66714 0
M  V30 2658 O 251.423 0.383144 -1.97722 0
M  V30 2659 C 248.488 0.330274 -3.45123 0
M  V30 2660 C 247.549 -0.618578 -4.2482 0
M  V30 2661 C 246.782 0.0928959 -5.33619 0
M  V30 2662 O 247.005 1.31375 -5.55065 0
M  V30 2663 O 245.939 -0.574499 -5.99152 0
M  V30 2664 H 249.765 -1.27043 -2.75851 0
M  V30 2665 H 247.35 -0.684052 -1.3282 0
M  V30 2666 H 249.232 0.751972 -4.14636 0
M  V30 2667 H 247.907 1.1597 -3.02213 0
M  V30 2668 H 246.814 -1.08978 -3.57875 0
M  V30 2669 H 248.147 -1.41497 -4.71423 0
M  V30 2670 N 249.799 1.42003 -0.683588 0
M  V30 2671 C 251.21 1.84501 -0.285736 0
M  V30 2672 C 251.561 1.57213 1.17382 0
M  V30 2673 O 250.686 1.03642 1.89966 0
M  V30 2674 C 251.281 3.34912 -0.511821 0
M  V30 2675 C 249.84 3.76025 -0.168005 0
M  V30 2676 C 248.987 2.6551 -0.799983 0
M  V30 2677 H 251.938 1.31724 -0.885119 0
M  V30 2678 H 251.959 3.79784 0.233292 0
M  V30 2679 H 251.471 3.54741 -1.57418 0
M  V30 2680 H 249.572 3.61801 0.890567 0
M  V30 2681 H 249.685 4.75141 -0.614661 0
M  V30 2682 H 248.049 2.53654 -0.230568 0
M  V30 2683 H 248.832 2.8816 -1.86597 0
M  V30 2684 N 251.277 0.427512 1.51691 0
M  V30 2685 C 252.526 -0.143679 2.01188 0
M  V30 2686 C 252.839 -1.44642 1.31674 0
M  V30 2687 O 254.045 -2.09997 1.72086 0
M  V30 2688 C 252.501 -0.306602 3.58592 0
M  V30 2689 C 252.109 0.985125 4.37035 0
M  V30 2690 C 253.853 -0.832091 4.16265 0
M  V30 2691 C 251.76 0.788382 5.86122 0
M  V30 2692 H 250.69 -0.0574701 0.751807 0
M  V30 2693 H 253.341 0.555772 1.74881 0
M  V30 2694 H 251.723 -1.06882 3.81303 0
M  V30 2695 H 252.897 1.75492 4.26074 0
M  V30 2696 H 251.212 1.4384 3.90767 0
M  V30 2697 H 253.809 -0.995617 5.25349 0
M  V30 2698 H 254.152 -1.81186 3.74803 0
M  V30 2699 H 254.685 -0.128444 3.97593 0
M  V30 2700 H 251.424 1.74025 6.31978 0
M  V30 2701 H 250.944 0.0582143 5.99772 0
M  V30 2702 H 252.623 0.437722 6.45518 0
M  V30 2703 N 252.755 -1.56801 0.158532 0
M  V30 2704 C 254.003 -1.96102 -0.488712 0
M  V30 2705 C 254.324 -1.04498 -1.64636 0
M  V30 2706 O 253.594 -0.108783 -1.95598 0
M  V30 2707 H 252.174 -0.724102 -0.183535 0
M  V30 2708 H 254.836 -1.93457 0.236728 0
M  V30 2709 H 253.932 -3.00097 -0.857219 0
M  V30 2710 N 254.233 0.115231 -1.57178 0
M  V30 2711 C 255.479 0.82357 -1.85325 0
M  V30 2712 C 255.812 1.79349 -0.744814 0
M  V30 2713 O 255.087 1.92899 0.249024 0
M  V30 2714 C 255.37 1.57014 -3.24066 0
M  V30 2715 C 255.223 0.619565 -4.45513 0
M  V30 2716 C 256.542 2.52545 -3.60429 0
M  V30 2717 H 253.661 0.297948 -0.674089 0
M  V30 2718 H 256.303 0.0877138 -1.89797 0
M  V30 2719 H 254.453 2.19742 -3.20383 0
M  V30 2720 H 256.125 0.000837639 -4.613 0
M  V30 2721 H 254.368 -0.0686174 -4.33746 0
M  V30 2722 H 255.039 1.17866 -5.3927 0
M  V30 2723 H 257.515 1.9992 -3.64926 0
M  V30 2724 H 256.391 3.01811 -4.58477 0
M  V30 2725 H 256.652 3.35383 -2.88047 0
M  V30 2726 N 255.711 1.52812 0.385517 0
M  V30 2727 C 256.951 1.69716 1.13911 0
M  V30 2728 C 257.315 0.42962 1.87132 0
M  V30 2729 O 258.516 0.475071 2.64569 0
M  V30 2730 C 256.787 2.90021 2.0886 0
M  V30 2731 S 258.346 3.27531 2.92009 0
M  V30 2732 H 255.164 0.59739 0.385547 0
M  V30 2733 H 257.766 1.90868 0.423061 0
M  V30 2734 H 256.47 3.80493 1.53797 0
M  V30 2735 H 256.001 2.71213 2.84969 0
M  V30 2736 H 258.016 2.77989 4.11019 0
M  V30 2737 N 257.189 -0.644168 1.43834 0
M  V30 2738 C 258.437 -1.40117 1.45642 0
M  V30 2739 C 258.758 -1.94814 0.0852413 0
M  V30 2740 O 258.028 -1.74988 -0.880688 0
M  V30 2741 H 256.608 -0.52005 0.536243 0
M  V30 2742 H 259.27 -0.7591 1.7951 0
M  V30 2743 H 258.366 -2.23902 2.17427 0
M  V30 2744 N 258.668 -1.30515 -0.883378 0
M  V30 2745 C 259.631 -1.1701 -1.97082 0
M  V30 2746 C 260.631 -0.10089 -1.60483 0
M  V30 2747 O 261.821 -0.349127 -1.70666 0
M  V30 2748 C 258.953 -0.793045 -3.31547 0
M  V30 2749 H 260.146 -2.13622 -2.10489 0
M  V30 2750 H 257.699 -1.13935 -1.06998 0
M  V30 2751 H 258.434 0.172499 -3.23841 0
M  V30 2752 H 258.219 -1.56576 -3.5948 0
M  V30 2753 H 259.709 -0.722073 -4.1131 0
M  V30 2754 N 260.146 1.09593 -1.13257 0
M  V30 2755 C 261.395 1.81105 -0.887917 0
M  V30 2756 C 261.708 1.86563 0.587672 0
M  V30 2757 O 262.914 2.54367 0.949204 0
M  V30 2758 C 261.37 3.25338 -1.53895 0
M  V30 2759 C 260.978 3.28151 -3.04994 0
M  V30 2760 C 262.722 4.01617 -1.37492 0
M  V30 2761 C 260.629 4.66897 -3.6299 0
M  V30 2762 H 259.559 0.678661 -0.328534 0
M  V30 2763 H 262.21 1.23183 -1.36008 0
M  V30 2764 H 260.592 3.8331 -0.994446 0
M  V30 2765 H 261.766 2.79953 -3.66009 0
M  V30 2766 H 260.081 2.65361 -3.20893 0
M  V30 2767 H 262.678 5.04119 -1.78235 0
M  V30 2768 H 263.021 4.15072 -0.31957 0
M  V30 2769 H 263.554 3.50082 -1.88912 0
M  V30 2770 H 260.293 4.58643 -4.68323 0
M  V30 2771 H 259.813 5.15426 -3.06752 0
M  V30 2772 H 261.492 5.3587 -3.62563 0
M  V30 2773 N 261.624 0.925811 1.2754 0
M  V30 2774 C 262.852 0.581509 1.9856 0
M  V30 2775 C 263.267 -0.840041 1.69082 0
M  V30 2776 O 262.624 -1.55805 0.950312 0
M  V30 2777 C 262.675 0.795589 3.52637 0
M  V30 2778 O 262.396 2.16121 3.81082 0
M  V30 2779 C 263.897 0.459744 4.4091 0
M  V30 2780 H 261.117 0.220538 0.633722 0
M  V30 2781 H 263.661 1.24232 1.6244 0
M  V30 2782 H 261.816 0.18161 3.86974 0
M  V30 2783 H 262.23 2.2098 4.75676 0
M  V30 2784 H 263.704 0.660244 5.48037 0
M  V30 2785 H 264.181 -0.604625 4.35018 0
M  V30 2786 H 264.787 1.05178 4.12089 0
M  V30 2787 N 263.102 -1.41638 0.69111 0
M  V30 2788 C 264.513 -1.84346 0.295517 0
M  V30 2789 C 264.864 -1.57833 -1.16547 0
M  V30 2790 O 263.989 -1.04648 -1.89414 0
M  V30 2791 C 264.584 -3.34636 0.529575 0
M  V30 2792 C 263.143 -3.7593 0.187944 0
M  V30 2793 C 262.29 -2.65082 0.814052 0
M  V30 2794 H 265.241 -1.31253 0.892092 0
M  V30 2795 H 265.262 -3.79903 -0.213148 0
M  V30 2796 H 264.774 -3.53901 1.59297 0
M  V30 2797 H 262.875 -3.62268 -0.871367 0
M  V30 2798 H 262.988 -4.74808 0.63985 0
M  V30 2799 H 261.352 -2.53528 0.244017 0
M  V30 2800 H 262.135 -2.87167 1.88123 0
M  V30 2801 N 264.58 -0.43555 -1.51462 0
M  V30 2802 C 265.826 0.123979 -2.03022 0
M  V30 2803 C 266.181 1.4054 -1.31401 0
M  V30 2804 O 265.474 1.86948 -0.419634 0
M  V30 2805 C 265.668 0.39942 -3.55161 0
M  V30 2806 C 265.497 -0.853754 -4.41521 0
M  V30 2807 C 264.267 -1.38675 -4.85898 0
M  V30 2808 C 266.465 -1.73939 -4.83994 0
M  V30 2809 N 264.447 -2.59265 -5.56466 0
M  V30 2810 C 265.818 -2.79135 -5.5361 0
M  V30 2811 C 267.873 -1.75402 -4.65981 0
M  V30 2812 C 266.576 -3.85737 -6.07124 0
M  V30 2813 C 268.602 -2.80938 -5.20411 0
M  V30 2814 C 267.964 -3.84854 -5.89972 0
M  V30 2815 H 264.063 0.00624887 -0.781975 0
M  V30 2816 H 266.647 -0.59582 -1.85359 0
M  V30 2817 H 264.818 1.08825 -3.72843 0
M  V30 2818 H 266.55 0.95015 -3.93388 0
M  V30 2819 H 263.305 -0.94094 -4.64159 0
M  V30 2820 H 263.729 -3.2041 -5.96378 0
M  V30 2821 H 268.371 -0.963926 -4.11665 0
M  V30 2822 H 266.089 -4.65586 -6.60496 0
M  V30 2823 H 269.675 -2.8301 -5.08327 0
M  V30 2824 H 268.555 -4.65176 -6.31333 0
M  V30 2825 N 266.058 1.56714 -0.166846 0
M  V30 2826 C 267.006 2.19056 0.782123 0
M  V30 2827 C 268 1.15328 1.24079 0
M  V30 2828 O 269.206 1.33537 1.20697 0
M  V30 2829 H 265.581 0.70167 0.270486 0
M  V30 2830 H 267.552 2.97494 0.232322 0
M  V30 2831 C 266.301 2.84206 2.00306 0
M  V30 2832 H 265.624 3.63748 1.65914 0
M  V30 2833 H 267.064 3.31302 2.64604 0
M  V30 2834 C 265.523 1.83744 2.82382 0
M  V30 2835 O 266.053 1.32014 3.79388 0
M  V30 2836 N 264.259 1.52601 2.47308 0
M  V30 2837 H 263.806 1.9486 1.68485 0
M  V30 2838 H 263.764 0.856351 3.02513 0
M  V30 2839 N 267.536 -0.106894 1.57237 0
M  V30 2840 C 268.783 -0.812526 1.85484 0
M  V30 2841 C 269.111 -1.79304 0.753687 0
M  V30 2842 O 268.366 -1.94047 -0.253853 0
M  V30 2843 C 268.665 -1.58628 3.20268 0
M  V30 2844 C 268.331 -0.748967 4.44636 0
M  V30 2845 C 266.993 -0.518104 4.78403 0
M  V30 2846 C 269.345 -0.166122 5.20935 0
M  V30 2847 C 266.673 0.305659 5.85903 0
M  V30 2848 C 269.025 0.644899 6.29304 0
M  V30 2849 C 267.689 0.885965 6.61594 0
M  V30 2850 H 266.959 -0.297324 0.678734 0
M  V30 2851 H 269.606 -0.0744332 1.91355 0
M  V30 2852 H 267.911 -2.39562 3.10028 0
M  V30 2853 H 269.608 -2.13643 3.39349 0
M  V30 2854 H 266.198 -0.939006 4.18187 0
M  V30 2855 H 270.382 -0.33167 4.95191 0
M  V30 2856 H 265.638 0.501528 6.0934 0
M  V30 2857 H 269.812 1.10345 6.87602 0
M  V30 2858 H 267.439 1.52609 7.44725 0
M  V30 2859 N 269.014 -1.53014 -0.377408 0
M  V30 2860 C 270.425 -1.60438 -0.954798 0
M  V30 2861 C 270.776 -0.464418 -1.90624 0
M  V30 2862 O 269.901 0.41087 -2.12464 0
M  V30 2863 C 270.496 -2.90797 -1.73847 0
M  V30 2864 C 269.055 -3.00595 -2.26538 0
M  V30 2865 C 268.202 -2.55645 -1.07429 0
M  V30 2866 H 271.153 -1.57926 -0.156575 0
M  V30 2867 H 271.174 -2.77935 -2.5987 0
M  V30 2868 H 270.686 -3.73746 -1.04574 0
M  V30 2869 H 268.787 -2.22208 -2.99089 0
M  V30 2870 H 268.9 -4.05456 -2.5523 0
M  V30 2871 H 267.264 -2.10239 -1.43777 0
M  V30 2872 H 268.047 -3.41 -0.396728 0
M  V30 2873 N 270.492 0.636531 -1.44174 0
M  V30 2874 C 271.422 1.76003 -1.53444 0
M  V30 2875 C 272.403 1.65619 -0.387841 0
M  V30 2876 O 273.588 1.84461 -0.607257 0
M  V30 2877 C 270.718 3.14511 -1.4731 0
M  V30 2878 C 269.672 3.39677 -2.60391 0
M  V30 2879 C 268.998 4.78159 -2.39308 0
M  V30 2880 C 270.298 3.32772 -4.02567 0
M  V30 2881 H 271.992 1.68501 -2.47483 0
M  V30 2882 H 269.538 0.809237 -1.19111 0
M  V30 2883 H 271.491 3.92878 -1.52397 0
M  V30 2884 H 270.215 3.22783 -0.49785 0
M  V30 2885 H 268.874 2.63688 -2.54684 0
M  V30 2886 H 268.522 4.83128 -1.39988 0
M  V30 2887 H 268.222 4.95956 -3.15122 0
M  V30 2888 H 269.746 5.58762 -2.46205 0
M  V30 2889 H 271.16 4.01051 -4.09672 0
M  V30 2890 H 269.557 3.62104 -4.7854 0
M  V30 2891 H 270.627 2.30669 -4.2652 0
M  V30 2892 N 271.97 1.30982 0.876444 0
M  V30 2893 C 272.9 1.20668 1.99903 0
M  V30 2894 C 273.881 0.095354 1.69833 0
M  V30 2895 O 275.066 0.27885 1.92188 0
M  V30 2896 C 272.196 0.90655 3.3526 0
M  V30 2897 C 271.15 1.97675 3.79617 0
M  V30 2898 C 270.476 1.52943 5.1236 0
M  V30 2899 C 271.776 3.389 3.97422 0
M  V30 2900 H 273.47 2.14586 2.0879 0
M  V30 2901 H 271.016 1.03308 1.00317 0
M  V30 2902 H 272.969 0.821025 4.13324 0
M  V30 2903 H 271.693 -0.0682969 3.26529 0
M  V30 2904 H 270.352 2.05205 3.03787 0
M  V30 2905 H 270 0.54262 5.00065 0
M  V30 2906 H 269.7 2.24532 5.43009 0
M  V30 2907 H 271.224 1.45786 5.92941 0
M  V30 2908 H 272.638 3.34081 4.659 0
M  V30 2909 H 271.035 4.0865 4.3946 0
M  V30 2910 H 272.105 3.80163 3.01006 0
M  V30 2911 N 273.449 -1.08991 1.13837 0
M  V30 2912 C 274.382 -2.15049 0.763477 0
M  V30 2913 C 275.36 -1.60629 -0.252398 0
M  V30 2914 O 276.544 -1.87958 -0.142853 0
M  V30 2915 C 273.671 -3.38441 0.132545 0
M  V30 2916 C 272.717 -4.11596 1.11763 0
M  V30 2917 S 273.55 -4.6521 2.65216 0
M  V30 2918 C 274.706 -5.91896 2.03495 0
M  V30 2919 H 274.939 -2.46518 1.66182 0
M  V30 2920 H 272.472 -1.21008 0.958976 0
M  V30 2921 H 274.43 -4.09883 -0.225074 0
M  V30 2922 H 273.091 -3.05182 -0.743135 0
M  V30 2923 H 272.284 -5.00121 0.624076 0
M  V30 2924 H 271.886 -3.46038 1.41894 0
M  V30 2925 H 274.178 -6.63156 1.38675 0
M  V30 2926 H 275.121 -6.45938 2.9012 0
M  V30 2927 H 275.529 -5.44625 1.48471 0
M  V30 2928 N 274.927 -0.932562 -1.27047 0
M  V30 2929 C 275.857 -0.452902 -2.29066 0
M  V30 2930 C 276.838 0.489338 -1.62909 0
M  V30 2931 O 278.023 0.393046 -1.90181 0
M  V30 2932 C 275.153 0.290698 -3.46081 0
M  V30 2933 C 274.107 -0.564168 -4.24265 0
M  V30 2934 C 273.433 0.308886 -5.33807 0
M  V30 2935 C 274.733 -1.83112 -4.89149 0
M  V30 2936 H 276.427 -1.30552 -2.69437 0
M  V30 2937 H 273.973 -0.629201 -1.29526 0
M  V30 2938 H 275.926 0.637233 -4.16554 0
M  V30 2939 H 274.65 1.17738 -3.0464 0
M  V30 2940 H 273.309 -0.893477 -3.55545 0
M  V30 2941 H 272.957 1.19467 -4.88607 0
M  V30 2942 H 272.657 -0.259633 -5.87026 0
M  V30 2943 H 274.181 0.650884 -6.07121 0
M  V30 2944 H 275.595 -1.55236 -5.51883 0
M  V30 2945 H 273.992 -2.34353 -5.52448 0
M  V30 2946 H 275.062 -2.54772 -4.12576 0
M  V30 2947 N 276.405 1.4127 -0.698611 0
M  V30 2948 C 277.651 2.01478 -0.231207 0
M  V30 2949 C 277.984 1.55215 1.16713 0
M  V30 2950 O 277.259 0.764672 1.78838 0
M  V30 2951 C 277.542 3.58912 -0.292281 0
M  V30 2952 C 277.395 4.15293 -1.72778 0
M  V30 2953 C 278.714 4.38736 0.346194 0
M  V30 2954 H 275.833 0.732025 -0.0854878 0
M  V30 2955 H 278.475 1.67977 -0.887906 0
M  V30 2956 H 276.625 3.87582 0.26686 0
M  V30 2957 H 278.297 3.97486 -2.341 0
M  V30 2958 H 276.54 3.7022 -2.26096 0
M  V30 2959 H 277.211 5.24452 -1.72202 0
M  V30 2960 H 279.687 4.15897 -0.130035 0
M  V30 2961 H 278.563 5.48221 0.272932 0
M  V30 2962 H 278.824 4.18425 1.42734 0
M  V30 2963 N 277.883 0.443576 1.51229 0
M  V30 2964 C 279.129 -0.11321 2.03085 0
M  V30 2965 C 279.484 -1.39841 1.32145 0
M  V30 2966 O 278.777 -1.86723 0.429542 0
M  V30 2967 C 278.971 -0.380579 3.55368 0
M  V30 2968 C 278.8 0.877157 4.41062 0
M  V30 2969 C 277.57 1.4125 4.85156 0
M  V30 2970 C 279.768 1.76503 4.83064 0
M  V30 2971 N 277.75 2.62213 5.55083 0
M  V30 2972 C 279.121 2.82067 5.52122 0
M  V30 2973 C 281.176 1.7787 4.65045 0
M  V30 2974 C 279.879 3.88952 6.05069 0
M  V30 2975 C 281.905 2.83694 5.18914 0
M  V30 2976 C 281.267 3.87978 5.87922 0
M  V30 2977 H 277.366 -0.00210178 0.781997 0
M  V30 2978 H 279.95 0.605641 1.85041 0
M  V30 2979 H 278.121 -1.06847 3.73414 0
M  V30 2980 H 279.853 -0.929274 3.93887 0
M  V30 2981 H 276.608 0.965542 4.63653 0
M  V30 2982 H 277.032 3.23568 5.9467 0
M  V30 2983 H 281.674 0.985744 4.11148 0
M  V30 2984 H 279.392 4.69082 6.58018 0
M  V30 2985 H 282.978 2.85702 5.06819 0
M  V30 2986 H 281.858 4.68517 6.28857 0
M  V30 2987 N 279.361 -1.56624 0.175154 0
M  V30 2988 C 280.308 -2.18149 -0.753634 0
M  V30 2989 C 281.278 -1.12265 -1.22417 0
M  V30 2990 O 282.463 -1.40432 -1.29165 0
M  V30 2991 C 279.603 -2.82933 -1.97592 0
M  V30 2992 C 278.716 -4.03289 -1.5486 0
M  V30 2993 C 277.851 -4.55988 -2.72485 0
M  V30 2994 C 276.89 -5.68746 -2.26262 0
M  V30 2995 N 276.027 -6.15938 -3.36994 0
M  V30 2996 H 280.867 -2.9717 -0.222195 0
M  V30 2997 H 278.404 -1.46774 -0.0979422 0
M  V30 2998 H 280.362 -3.18653 -2.69288 0
M  V30 2999 H 278.992 -2.06509 -2.481 0
M  V30 3000 H 278.044 -3.73364 -0.728246 0
M  V30 3001 H 279.356 -4.849 -1.16933 0
M  V30 3002 H 278.51 -4.9391 -3.52332 0
M  V30 3003 H 277.249 -3.73443 -3.13674 0
M  V30 3004 H 276.254 -5.30372 -1.44863 0
M  V30 3005 H 277.479 -6.53095 -1.86127 0
M  V30 3006 H 275.425 -5.36321 -3.77751 0
M  V30 3007 H 275.342 -6.92548 -3.03172 0
M  V30 3008 H 276.61 -6.58511 -4.17114 0
M  V30 3009 N 280.839 0.0985539 -1.57292 0
M  V30 3010 C 281.769 1.12064 -2.04851 0
M  V30 3011 C 282.75 1.41981 -0.936767 0
M  V30 3012 O 283.935 1.52071 -1.20781 0
M  V30 3013 C 281.065 2.44144 -2.47004 0
M  V30 3014 C 280.019 2.28643 -3.6181 0
M  V30 3015 C 279.345 3.65869 -3.89929 0
M  V30 3016 C 280.645 1.72986 -4.92822 0
M  V30 3017 H 282.339 0.724979 -2.9049 0
M  V30 3018 H 279.885 0.34729 -1.39749 0
M  V30 3019 H 281.838 3.15914 -2.78884 0
M  V30 3020 H 280.562 2.85639 -1.5836 0
M  V30 3021 H 279.221 1.59318 -3.30172 0
M  V30 3022 H 278.869 4.04885 -2.98458 0
M  V30 3023 H 278.569 3.56344 -4.67218 0
M  V30 3024 H 280.093 4.39112 -4.2428 0
M  V30 3025 H 281.507 2.34593 -5.23105 0
M  V30 3026 H 279.904 1.74229 -5.74251 0
M  V30 3027 H 280.974 0.689007 -4.7998 0
M  V30 3028 N 282.317 1.53212 0.369288 0
M  V30 3029 C 283.28 1.7872 1.43498 0
M  V30 3030 C 284.28 0.657554 1.46741 0
M  V30 3031 O 285.47 0.925736 1.47566 0
M  V30 3032 C 282.602 1.90591 2.82645 0
M  V30 3033 H 283.795 2.73894 1.22156 0
M  V30 3034 H 281.348 1.44233 0.602203 0
M  V30 3035 H 282.083 0.974709 3.09306 0
M  V30 3036 H 281.868 2.72751 2.8169 0
M  V30 3037 H 283.358 2.11931 3.59826 0
M  V30 3038 N 283.795 -0.628877 1.44509 0
M  V30 3039 C 285.206 -1.21054 1.42137 0
M  V30 3040 C 285.557 -1.95715 0.137881 0
M  V30 3041 O 284.682 -2.02554 -0.761645 0
M  V30 3042 C 285.277 -2.20189 2.57493 0
M  V30 3043 C 283.836 -2.73777 2.58308 0
M  V30 3044 C 282.983 -1.48813 2.33987 0
M  V30 3045 H 285.934 -0.41942 1.53057 0
M  V30 3046 H 285.955 -3.02833 2.30375 0
M  V30 3047 H 285.467 -1.6582 3.50892 0
M  V30 3048 H 283.568 -3.32142 1.68856 0
M  V30 3049 H 283.681 -3.19662 3.56865 0
M  V30 3050 H 282.045 -1.77024 1.83124 0
M  V30 3051 H 282.828 -0.963442 3.29504 0
M  V30 3052 N 285.273 -1.31445 -0.869486 0
M  V30 3053 C 286.236 -1.19094 -1.9583 0
M  V30 3054 C 287.236 -0.117906 -1.60367 0
M  V30 3055 O 288.426 -0.367208 -1.70286 0
M  V30 3056 C 285.558 -0.828165 -3.30688 0
M  V30 3057 H 286.751 -2.15842 -2.08212 0
M  V30 3058 H 284.304 -1.15063 -1.05784 0
M  V30 3059 H 285.039 0.138142 -3.24006 0
M  V30 3060 H 284.824 -1.6038 -3.578 0
M  V30 3061 H 286.314 -0.765658 -4.10521 0
M  V30 3062 N 286.751 1.08385 -1.14413 0
M  V30 3063 C 287.681 2.17321 -0.854044 0
M  V30 3064 C 288.662 1.69024 0.191049 0
M  V30 3065 O 289.847 1.94141 0.0476779 0
M  V30 3066 C 286.977 3.45719 -0.330983 0
M  V30 3067 C 285.931 4.07409 -1.31155 0
M  V30 3068 C 285.257 5.30762 -0.64778 0
M  V30 3069 C 286.557 4.48665 -2.67388 0
M  V30 3070 H 288.251 2.41845 -1.76498 0
M  V30 3071 H 285.797 1.16233 -0.850051 0
M  V30 3072 H 287.75 4.21241 -0.115645 0
M  V30 3073 H 286.474 3.2075 0.615381 0
M  V30 3074 H 285.133 3.33919 -1.51306 0
M  V30 3075 H 284.781 5.02078 0.304398 0
M  V30 3076 H 284.481 5.72992 -1.30207 0
M  V30 3077 H 286.005 6.08998 -0.441972 0
M  V30 3078 H 287.419 5.15364 -2.51143 0
M  V30 3079 H 285.816 5.01814 -3.29093 0
M  V30 3080 H 286.886 3.60543 -3.24248 0
M  V30 3081 N 288.23 0.939286 1.26551 0
M  V30 3082 C 289.47 0.5933 1.956 0
M  V30 3083 C 289.834 -0.851515 1.72085 0
M  V30 3084 O 291.035 -1.30634 2.34921 0
M  V30 3085 C 289.306 0.923996 3.45249 0
M  V30 3086 S 290.865 0.688269 4.33369 0
M  V30 3087 H 287.683 0.218591 0.676564 0
M  V30 3088 H 290.285 1.2102 1.5354 0
M  V30 3089 H 288.989 1.97297 3.59864 0
M  V30 3090 H 288.52 0.296746 3.92279 0
M  V30 3091 H 290.535 -0.448434 4.9417 0
M  V30 3092 N 289.708 -1.40897 0.706093 0
M  V30 3093 C 290.948 -2.02916 0.245827 0
M  V30 3094 C 291.312 -1.54751 -1.13649 0
M  V30 3095 O 292.513 -2.08768 -1.69321 0
M  V30 3096 C 290.784 -3.56031 0.312537 0
M  V30 3097 S 292.343 -4.38741 -0.0721388 0
M  V30 3098 H 289.161 -0.704186 0.0982007 0
M  V30 3099 H 291.763 -1.72168 0.926207 0
M  V30 3100 H 290.467 -3.88579 1.32039 0
M  V30 3101 H 289.998 -3.91495 -0.386641 0
M  V30 3102 H 292.013 -4.78952 -1.29692 0
M  V30 3103 N 291.186 -0.45159 -1.50991 0
M  V30 3104 C 292.434 0.109857 -2.01801 0
M  V30 3105 C 292.755 1.41958 -1.3369 0
M  V30 3106 O 292.025 1.9003 -0.475951 0
M  V30 3107 H 290.605 0.0435884 -0.745727 0
M  V30 3108 H 293.267 -0.597557 -1.85514 0
M  V30 3109 H 292.363 0.275489 -3.10882 0
M  V30 3110 N 292.664 1.56529 -0.183458 0
M  V30 3111 C 293.612 2.19873 0.758845 0
M  V30 3112 C 294.606 1.16638 1.22849 0
M  V30 3113 O 295.812 1.3481 1.19274 0
M  V30 3114 H 292.187 0.7045 0.263029 0
M  V30 3115 H 294.158 2.97724 0.200755 0
M  V30 3116 C 292.907 2.86314 1.9728 0
M  V30 3117 H 292.23 3.65487 1.62047 0
M  V30 3118 H 293.67 3.3409 2.61075 0
M  V30 3119 C 292.129 1.86729 2.80418 0
M  V30 3120 O 292.659 1.36031 3.77966 0
M  V30 3121 N 290.865 1.55216 2.45675 0
M  V30 3122 H 290.412 1.96636 1.66409 0
M  V30 3123 H 290.37 0.888388 3.01588 0
M  V30 3124 N 294.142 -0.090211 1.57342 0
M  V30 3125 C 295.37 -0.806224 1.90546 0
M  V30 3126 C 295.785 -1.72041 0.777644 0
M  V30 3127 O 295.142 -1.80778 -0.250103 0
M  V30 3128 C 295.193 -1.61546 3.23396 0
M  V30 3129 O 294.914 -0.738043 4.31839 0
M  V30 3130 C 296.415 -2.4341 3.70495 0
M  V30 3131 H 293.635 -0.230256 0.630257 0
M  V30 3132 H 296.179 -0.0659843 2.04394 0
M  V30 3133 H 294.334 -2.30816 3.11131 0
M  V30 3134 H 294.748 -1.29901 5.08159 0
M  V30 3135 H 296.222 -2.95676 4.66133 0
M  V30 3136 H 296.699 -3.22098 2.98579 0
M  V30 3137 H 297.305 -1.79331 3.85643 0
M  V30 3138 N 295.62 -1.53406 -0.361157 0
M  V30 3139 C 296.553 -1.74946 -1.46524 0
M  V30 3140 C 297.531 -0.59795 -1.51206 0
M  V30 3141 O 298.715 -0.831062 -1.69191 0
M  V30 3142 C 295.842 -1.83224 -2.84863 0
M  V30 3143 C 294.888 -3.05233 -2.97885 0
M  V30 3144 S 295.721 -4.6466 -2.66179 0
M  V30 3145 C 296.877 -4.75793 -4.06659 0
M  V30 3146 H 297.11 -2.68319 -1.28033 0
M  V30 3147 H 294.643 -1.44051 -0.555764 0
M  V30 3148 H 296.601 -1.88679 -3.64569 0
M  V30 3149 H 295.262 -0.908948 -3.00661 0
M  V30 3150 H 294.455 -3.07648 -3.9921 0
M  V30 3151 H 294.057 -2.97913 -2.26106 0
M  V30 3152 H 296.349 -4.5612 -5.0096 0
M  V30 3153 H 297.292 -5.7786 -4.09247 0
M  V30 3154 H 297.7 -4.04389 -3.93865 0
M  V30 3155 N 297.098 0.621204 -1.44841 0
M  V30 3156 C 298.344 1.3826 -1.48365 0
M  V30 3157 C 298.677 1.93831 -0.119624 0
M  V30 3158 O 297.952 1.74251 0.864111 0
M  V30 3159 C 298.235 2.54058 -2.55199 0
M  V30 3160 C 298.088 2.03772 -4.00995 0
M  V30 3161 C 299.407 3.56225 -2.58442 0
M  V30 3162 H 296.526 0.501374 -0.540179 0
M  V30 3163 H 299.168 0.7015 -1.76576 0
M  V30 3164 H 297.318 3.12162 -2.31274 0
M  V30 3165 H 298.99 1.50423 -4.36086 0
M  V30 3166 H 297.233 1.34876 -4.12299 0
M  V30 3167 H 297.904 2.87185 -4.71411 0
M  V30 3168 H 300.38 3.07939 -2.79844 0
M  V30 3169 H 299.256 4.34756 -3.3508 0
M  V30 3170 H 299.517 4.10949 -1.63013 0
M  V30 3171 N 298.576 1.31904 0.862503 0
M  V30 3172 C 299.506 1.22782 1.98612 0
M  V30 3173 C 300.487 0.113362 1.69722 0
M  V30 3174 O 301.672 0.299218 1.91881 0
M  V30 3175 C 298.802 0.942058 3.34279 0
M  V30 3176 C 297.756 2.0169 3.77499 0
M  V30 3177 C 297.082 1.58369 5.10709 0
M  V30 3178 C 298.382 3.43096 3.93805 0
M  V30 3179 H 300.076 2.16788 2.06502 0
M  V30 3180 H 297.622 1.04366 0.992154 0
M  V30 3181 H 299.575 0.864818 4.1243 0
M  V30 3182 H 298.299 -0.0336603 3.26583 0
M  V30 3183 H 296.958 2.08416 3.01593 0
M  V30 3184 H 296.606 0.595628 4.99461 0
M  V30 3185 H 296.306 2.30279 5.40597 0
M  V30 3186 H 297.83 1.52067 5.91361 0
M  V30 3187 H 299.244 3.39003 4.62331 0
M  V30 3188 H 297.641 4.13288 4.35101 0
M  V30 3189 H 298.711 3.83334 2.96957 0
M  V30 3190 N 300.054 -1.07777 1.14986 0
M  V30 3191 C 301.001 -2.14867 0.842672 0
M  V30 3192 C 301.971 -1.6486 -0.202552 0
M  V30 3193 O 303.156 -1.90668 -0.0710568 0
M  V30 3194 C 300.296 -3.43486 0.333363 0
M  V30 3195 C 299.409 -4.07306 1.43965 0
M  V30 3196 C 298.544 -5.23744 0.886914 0
M  V30 3197 C 297.583 -5.79517 1.97043 0
M  V30 3198 N 296.72 -6.87291 1.4344 0
M  V30 3199 H 301.56 -2.40485 1.75986 0
M  V30 3200 H 299.097 -1.1801 0.878179 0
M  V30 3201 H 301.055 -4.17195 0.0198163 0
M  V30 3202 H 299.685 -3.18133 -0.546916 0
M  V30 3203 H 298.737 -3.31293 1.86946 0
M  V30 3204 H 300.049 -4.44771 2.25788 0
M  V30 3205 H 299.203 -6.04419 0.525651 0
M  V30 3206 H 297.942 -4.87685 0.0377957 0
M  V30 3207 H 296.947 -4.97491 2.34057 0
M  V30 3208 H 298.172 -6.17632 2.82325 0
M  V30 3209 H 296.118 -6.5318 0.607567 0
M  V30 3210 H 296.035 -7.23617 2.18895 0
M  V30 3211 H 297.303 -7.71682 1.10124 0
M  V30 3212 N 301.532 -0.945985 -1.26051 0
M  V30 3213 C 302.943 -0.638096 -1.75457 0
M  V30 3214 C 303.294 0.846672 -1.76991 0
M  V30 3215 O 302.419 1.66262 -1.38513 0
M  V30 3216 C 303.014 -1.15157 -3.18629 0
M  V30 3217 C 301.573 -0.894004 -3.65629 0
M  V30 3218 C 300.72 -1.29967 -2.44957 0
M  V30 3219 H 303.671 -1.12376 -1.1206 0
M  V30 3220 H 303.692 -0.507615 -3.77099 0
M  V30 3221 H 303.204 -2.23222 -3.1748 0
M  V30 3222 H 301.305 0.172057 -3.72203 0
M  V30 3223 H 301.418 -1.52439 -4.54202 0
M  V30 3224 H 299.782 -0.718078 -2.44368 0
M  V30 3225 H 300.565 -2.38935 -2.46505 0
M  V30 3226 N 303.011 1.40521 -0.713556 0
M  V30 3227 C 303.974 2.29098 -0.0684347 0
M  V30 3228 C 304.974 1.45268 0.689472 0
M  V30 3229 O 306.164 1.66205 0.521677 0
M  V30 3230 C 303.296 3.28446 0.913024 0
M  V30 3231 H 304.489 2.87645 -0.84855 0
M  V30 3232 H 302.042 1.48809 -0.47809 0
M  V30 3233 H 302.777 2.74913 1.72027 0
M  V30 3234 H 302.562 3.90327 0.372472 0
M  V30 3235 H 304.052 3.94777 1.36165 0
M  V30 3236 N 304.489 0.459591 1.5075 0
M  V30 3237 C 305.399 -0.34613 2.32033 0
M  V30 3238 C 306.415 -1.00686 1.41909 0
M  V30 3239 O 307.591 -0.997361 1.7497 0
M  V30 3240 C 304.656 -1.42029 3.16273 0
M  V30 3241 C 303.717 -0.777362 4.22203 0
M  V30 3242 C 302.95 -1.80034 5.02418 0
M  V30 3243 O 303.173 -3.02544 4.83553 0
M  V30 3244 O 302.107 -1.37853 5.85901 0
M  V30 3245 H 305.933 0.318054 3.0203 0
M  V30 3246 H 303.518 0.221663 1.47746 0
M  V30 3247 H 305.4 -2.04275 3.68578 0
M  V30 3248 H 304.075 -2.06815 2.49016 0
M  V30 3249 H 302.982 -0.116256 3.73919 0
M  V30 3250 H 304.315 -0.172634 4.91897 0
M  V30 3251 N 305.967 -1.56429 0.191757 0
M  V30 3252 C 306.899 -2.16154 -0.762245 0
M  V30 3253 C 307.912 -1.12247 -1.17917 0
M  V30 3254 O 309.101 -1.39353 -1.11548 0
M  V30 3255 C 306.201 -2.70606 -2.04024 0
M  V30 3256 C 305.374 -3.99381 -1.78364 0
M  V30 3257 C 304.433 -4.38692 -2.90578 0
M  V30 3258 O 303.459 -5.06179 -2.6033 0
M  V30 3259 N 304.661 -4.01922 -4.18854 0
M  V30 3260 H 307.426 -2.98643 -0.251526 0
M  V30 3261 H 304.987 -1.61897 0.00967373 0
M  V30 3262 H 306.979 -2.93891 -2.78227 0
M  V30 3263 H 305.549 -1.9259 -2.46227 0
M  V30 3264 H 304.769 -3.84262 -0.879581 0
M  V30 3265 H 306.057 -4.83445 -1.58614 0
M  V30 3266 H 305.455 -3.47631 -4.46283 0
M  V30 3267 H 304.012 -4.30165 -4.89695 0
M  V30 3268 N 307.445 0.0818655 -1.57387 0
M  V30 3269 C 308.673 0.796108 -1.9097 0
M  V30 3270 C 309.088 1.71626 -0.786757 0
M  V30 3271 O 308.445 1.80908 0.240513 0
M  V30 3272 C 308.496 1.59829 -3.24248 0
M  V30 3273 O 308.217 0.715131 -4.32224 0
M  V30 3274 C 309.718 2.41442 -3.7178 0
M  V30 3275 H 306.938 0.22691 -0.631469 0
M  V30 3276 H 309.482 0.0551439 -2.04426 0
M  V30 3277 H 307.637 2.29163 -3.12351 0
M  V30 3278 H 308.051 1.27205 -5.08841 0
M  V30 3279 H 309.525 2.932 -4.67694 0
M  V30 3280 H 310.002 3.2051 -3.00283 0
M  V30 3281 H 310.608 1.77283 -3.86589 0
M  V30 3282 N 308.923 1.53595 0.353017 0
M  V30 3283 C 310.334 1.61937 0.929153 0
M  V30 3284 C 310.685 0.494686 1.89861 0
M  V30 3285 O 309.81 -0.377017 2.1309 0
M  V30 3286 C 310.405 2.93526 1.69199 0
M  V30 3287 C 308.964 3.04161 2.21727 0
M  V30 3288 C 308.111 2.57322 1.03348 0
M  V30 3289 H 311.062 1.58155 0.131431 0
M  V30 3290 H 311.083 2.82034 2.55416 0
M  V30 3291 H 310.595 3.75362 0.986144 0
M  V30 3292 H 308.696 2.26938 2.95516 0
M  V30 3293 H 308.809 4.09465 2.48748 0
M  V30 3294 H 307.173 2.12499 1.40414 0
M  V30 3295 H 307.956 3.41588 0.342428 0
M  V30 3296 N 310.401 -0.613514 1.45168 0
M  V30 3297 C 311.331 -1.7354 1.56225 0
M  V30 3298 C 312.312 -1.64981 0.41414 0
M  V30 3299 O 313.497 -1.83472 0.636526 0
M  V30 3300 C 310.627 -3.12128 1.52295 0
M  V30 3301 C 309.581 -3.35491 2.65762 0
M  V30 3302 C 308.907 -4.74291 2.46885 0
M  V30 3303 C 310.207 -3.26325 4.0781 0
M  V30 3304 H 311.901 -1.64543 2.50132 0
M  V30 3305 H 309.447 -0.790185 1.20383 0
M  V30 3306 H 311.4 -3.90404 1.58628 0
M  V30 3307 H 310.124 -3.2195 0.549139 0
M  V30 3308 H 308.783 -2.59603 2.58847 0
M  V30 3309 H 308.431 -4.80839 1.47657 0
M  V30 3310 H 308.131 -4.9088 3.22972 0
M  V30 3311 H 309.655 -5.54775 2.55063 0
M  V30 3312 H 311.069 -3.94483 4.16 0
M  V30 3313 H 309.466 -3.54445 4.8424 0
M  V30 3314 H 310.536 -2.23855 4.30136 0
M  V30 3315 N 311.879 -1.3236 -0.855495 0
M  V30 3316 C 313.107 -1.2587 -1.64208 0
M  V30 3317 C 313.522 0.173457 -1.88002 0
M  V30 3318 O 312.879 1.11027 -1.44842 0
M  V30 3319 C 312.93 -2.01424 -3.00184 0
M  V30 3320 O 312.651 -3.39051 -2.77445 0
M  V30 3321 C 314.152 -2.01948 -3.94629 0
M  V30 3322 H 311.372 -0.434318 -0.511477 0
M  V30 3323 H 313.916 -1.74469 -1.0668 0
M  V30 3324 H 312.071 -1.56549 -3.5436 0
M  V30 3325 H 312.485 -3.77711 -3.63916 0
M  V30 3326 H 313.959 -2.59297 -4.87308 0
M  V30 3327 H 314.436 -1.00554 -4.27534 0
M  V30 3328 H 315.042 -2.46767 -3.4639 0
M  V30 3329 N 313.357 1.07166 -1.15556 0
M  V30 3330 C 314.32 2.12589 -0.856644 0
M  V30 3331 C 315.32 1.6015 0.14444 0
M  V30 3332 O 316.51 1.7399 -0.0854163 0
M  V30 3333 C 313.642 3.39753 -0.279405 0
M  V30 3334 H 314.835 2.40539 -1.79112 0
M  V30 3335 H 312.388 1.23086 -0.963298 0
M  V30 3336 H 313.123 3.17447 0.663174 0
M  V30 3337 H 312.908 3.79117 -1.00063 0
M  V30 3338 H 314.398 4.17507 -0.0879113 0
M  V30 3339 N 314.835 0.952656 1.25548 0
M  V30 3340 C 315.765 0.489287 2.28316 0
M  V30 3341 C 316.746 -0.463359 1.63667 0
M  V30 3342 O 317.931 -0.36274 1.90782 0
M  V30 3343 C 315.061 -0.235603 3.465 0
M  V30 3344 C 314.015 0.631593 4.23314 0
M  V30 3345 C 313.341 -0.223923 5.34231 0
M  V30 3346 C 314.641 1.90871 4.86174 0
M  V30 3347 H 316.335 1.34822 2.67326 0
M  V30 3348 H 313.881 0.649728 1.28509 0
M  V30 3349 H 315.834 -0.570882 4.17515 0
M  V30 3350 H 314.558 -1.12877 3.06474 0
M  V30 3351 H 313.217 0.949929 3.54079 0
M  V30 3352 H 312.865 -1.11678 4.90446 0
M  V30 3353 H 312.565 0.35299 5.86539 0
M  V30 3354 H 314.089 -0.554214 6.0808 0
M  V30 3355 H 315.503 1.63997 5.49343 0
M  V30 3356 H 313.9 2.43112 5.4865 0
M  V30 3357 H 314.97 2.61304 4.08471 0
M  V30 3358 N 316.313 -1.40141 0.720998 0
M  V30 3359 C 317.543 -2.04798 0.27226 0
M  V30 3360 C 317.951 -1.54442 -1.09289 0
M  V30 3361 O 317.294 -0.698342 -1.69908 0
M  V30 3362 C 317.356 -3.59048 0.18027 0
M  V30 3363 C 317.02 -4.32317 1.48159 0
M  V30 3364 C 318.017 -4.59902 2.42458 0
M  V30 3365 C 315.702 -4.71125 1.74202 0
M  V30 3366 C 317.696 -5.25288 3.61042 0
M  V30 3367 C 315.383 -5.36242 2.93066 0
M  V30 3368 C 316.381 -5.63254 3.86308 0
M  V30 3369 O 316.069 -6.27024 5.03086 0
M  V30 3370 H 315.801 -0.665419 0.119139 0
M  V30 3371 H 318.355 -1.80436 0.981432 0
M  V30 3372 H 316.585 -3.82251 -0.58489 0
M  V30 3373 H 318.274 -4.05221 -0.234618 0
M  V30 3374 H 319.04 -4.30379 2.23604 0
M  V30 3375 H 314.919 -4.49466 1.02477 0
M  V30 3376 H 318.463 -5.46289 4.33837 0
M  V30 3377 H 314.36 -5.65185 3.11826 0
M  V30 3378 H 315.128 -6.4552 5.03235 0
M  V30 3379 N 317.792 -0.46758 -1.50504 0
M  V30 3380 C 318.722 0.318381 -2.31319 0
M  V30 3381 C 319.703 0.993564 -1.38066 0
M  V30 3382 O 320.888 0.991411 -1.66987 0
M  V30 3383 C 318.018 1.40275 -3.17711 0
M  V30 3384 C 316.972 0.849373 -4.19487 0
M  V30 3385 C 316.298 2.03177 -4.94594 0
M  V30 3386 C 317.598 -0.136942 -5.2212 0
M  V30 3387 H 319.292 -0.356106 -2.97275 0
M  V30 3388 H 316.838 -0.172703 -1.42961 0
M  V30 3389 H 318.791 1.96004 -3.73042 0
M  V30 3390 H 317.515 2.10596 -2.49634 0
M  V30 3391 H 316.174 0.314076 -3.65252 0
M  V30 3392 H 315.822 2.72187 -4.22993 0
M  V30 3393 H 315.522 1.66774 -5.63436 0
M  V30 3394 H 317.046 2.59403 -5.52759 0
M  V30 3395 H 318.46 0.331056 -5.72343 0
M  V30 3396 H 316.857 -0.41507 -5.98663 0
M  V30 3397 H 317.927 -1.06398 -4.73083 0
M  V30 3398 N 319.27 1.56325 -0.20005 0
M  V30 3399 C 320.518 1.97329 0.436547 0
M  V30 3400 C 320.839 1.08826 1.61808 0
M  V30 3401 O 320.109 0.160604 1.95241 0
M  V30 3402 H 318.689 0.728714 0.164272 0
M  V30 3403 H 321.351 1.92761 -0.287937 0
M  V30 3404 H 320.447 3.02264 0.777353 0
M  V30 3405 N 320.748 -0.0735177 1.57428 0
M  V30 3406 C 321.973 -0.789787 1.91774 0
M  V30 3407 C 322.398 -1.70413 0.796306 0
M  V30 3408 O 321.756 -1.79555 -0.250961 0
M  V30 3409 C 321.804 -1.5609 3.25067 0
M  V30 3410 O 320.908 -2.67144 3.14178 0
M  V30 3411 H 320.249 -0.215582 0.628029 0
M  V30 3412 H 322.779 -0.0422781 2.04556 0
M  V30 3413 H 322.789 -1.94052 3.58898 0
M  V30 3414 H 321.464 -0.890015 4.06265 0
M  V30 3415 H 320.041 -2.32052 2.91901 0
M  V30 3416 N 322.226 -1.5378 -0.344866 0
M  V30 3417 C 323.156 -1.84662 -1.42906 0
M  V30 3418 C 324.137 -0.701648 -1.54955 0
M  V30 3419 O 325.322 -0.953438 -1.69184 0
M  V30 3420 C 322.452 -2.05503 -2.79974 0
M  V30 3421 C 321.406 -3.21318 -2.82734 0
M  V30 3422 C 320.732 -3.2749 -4.22675 0
M  V30 3423 C 322.032 -4.59456 -2.48389 0
M  V30 3424 H 323.726 -2.75461 -1.17311 0
M  V30 3425 H 321.272 -1.32542 -0.562896 0
M  V30 3426 H 323.225 -2.25691 -3.55867 0
M  V30 3427 H 321.949 -1.11434 -3.07002 0
M  V30 3428 H 320.608 -3.00984 -2.09294 0
M  V30 3429 H 320.256 -2.31019 -4.4681 0
M  V30 3430 H 319.956 -4.05316 -4.25433 0
M  V30 3431 H 321.48 -3.49887 -5.00412 0
M  V30 3432 H 322.894 -4.79667 -3.13995 0
M  V30 3433 H 321.291 -5.39675 -2.62432 0
M  V30 3434 H 322.361 -4.63155 -1.4358 0
M  V30 3435 N 323.704 0.605807 -1.45491 0
M  V30 3436 C 324.953 1.36086 -1.48874 0
M  V30 3437 C 325.266 1.95131 -0.135333 0
M  V30 3438 O 326.472 2.7146 -0.0468144 0
M  V30 3439 C 324.928 2.46518 -2.62215 0
M  V30 3440 C 324.536 1.93877 -4.03876 0
M  V30 3441 C 326.28 3.23512 -2.74846 0
M  V30 3442 C 324.187 3.01801 -5.08596 0
M  V30 3443 H 323.117 0.511497 -0.553974 0
M  V30 3444 H 325.768 0.649089 -1.71636 0
M  V30 3445 H 324.15 3.20388 -2.32739 0
M  V30 3446 H 325.324 1.26704 -4.43038 0
M  V30 3447 H 323.639 1.29622 -3.95711 0
M  V30 3448 H 326.236 4.04013 -3.50253 0
M  V30 3449 H 326.579 3.74631 -1.81542 0
M  V30 3450 H 327.112 2.56742 -3.03856 0
M  V30 3451 H 323.851 2.55597 -6.03614 0
M  V30 3452 H 323.371 3.67535 -4.74002 0
M  V30 3453 H 325.05 3.66152 -5.33424 0
M  V30 3454 N 325.182 1.32811 0.848464 0
M  V30 3455 C 326.129 1.22265 1.95755 0
M  V30 3456 C 327.099 0.103413 1.65778 0
M  V30 3457 O 328.284 0.280033 1.88734 0
M  V30 3458 C 325.424 0.958014 3.31536 0
M  V30 3459 C 324.537 2.16262 3.73971 0
M  V30 3460 C 323.672 1.83295 4.98575 0
M  V30 3461 C 322.711 3.00041 5.33518 0
M  V30 3462 N 321.848 2.67125 6.49299 0
M  V30 3463 H 326.688 2.17128 2.04107 0
M  V30 3464 H 324.225 1.07982 0.998913 0
M  V30 3465 H 326.183 0.785052 4.09747 0
M  V30 3466 H 324.813 0.046159 3.22767 0
M  V30 3467 H 323.865 2.44565 2.91362 0
M  V30 3468 H 325.177 3.03572 3.95785 0
M  V30 3469 H 324.331 1.62586 5.84509 0
M  V30 3470 H 323.07 0.932078 4.7871 0
M  V30 3471 H 322.075 3.21374 4.46093 0
M  V30 3472 H 323.3 3.90869 5.55336 0
M  V30 3473 H 321.246 1.79586 6.3094 0
M  V30 3474 H 321.163 3.47965 6.71161 0
M  V30 3475 H 322.431 2.49861 7.3837 0
M  V30 3476 N 326.66 -1.06551 1.16123 0
M  V30 3477 C 327.57 -2.17484 0.879662 0
M  V30 3478 C 328.586 -1.73377 -0.147104 0
M  V30 3479 O 329.762 -2.01379 0.0289128 0
M  V30 3480 C 326.827 -3.44591 0.381829 0
M  V30 3481 C 325.888 -4.0322 1.4735 0
M  V30 3482 C 325.121 -5.24261 0.999324 0
M  V30 3483 O 325.344 -5.70198 -0.151957 0
M  V30 3484 O 324.278 -5.74775 1.78653 0
M  V30 3485 H 328.104 -2.44075 1.80724 0
M  V30 3486 H 325.689 -1.16042 0.940992 0
M  V30 3487 H 327.571 -4.21254 0.111053 0
M  V30 3488 H 326.246 -3.19532 -0.51777 0
M  V30 3489 H 325.153 -3.2806 1.79798 0
M  V30 3490 H 326.486 -4.32568 2.34831 0
M  V30 3491 N 328.138 -0.959301 -1.25041 0
M  V30 3492 C 329.101 -0.487677 -2.23952 0
M  V30 3493 C 330.101 0.41119 -1.55454 0
M  V30 3494 O 331.291 0.207825 -1.72956 0
M  V30 3495 C 328.423 0.294807 -3.39623 0
M  V30 3496 H 329.616 -1.36198 -2.67189 0
M  V30 3497 H 327.169 -0.743042 -1.37508 0
M  V30 3498 H 327.904 1.18658 -3.01813 0
M  V30 3499 H 327.689 -0.35012 -3.90534 0
M  V30 3500 H 329.179 0.614089 -4.1306 0
M  V30 3501 N 329.616 1.39756 -0.72842 0
M  V30 3502 C 330.864 2.00248 -0.272946 0
M  V30 3503 C 331.185 1.58077 1.14178 0
M  V30 3504 O 330.455 0.826014 1.77634 0
M  V30 3505 H 329.035 0.740554 -0.0979247 0
M  V30 3506 H 331.697 1.70903 -0.936912 0
M  V30 3507 H 330.793 3.10495 -0.316142 0
M  V30 3508 N 331.094 0.475555 1.50254 0
M  V30 3509 C 332.341 -0.0778919 2.0235 0
M  V30 3510 C 332.669 -1.39319 1.35722 0
M  V30 3511 O 331.924 -1.89888 0.473395 0
M  V30 3512 C 332.223 -0.305114 3.56095 0
M  V30 3513 C 331.889 0.92903 4.41225 0
M  V30 3514 C 330.551 1.26739 4.6421 0
M  V30 3515 C 332.903 1.75054 4.90923 0
M  V30 3516 C 330.231 2.42724 5.34137 0
M  V30 3517 C 332.583 2.9017 5.62125 0
M  V30 3518 C 331.247 3.24416 5.83362 0
M  V30 3519 H 330.517 -0.0285027 0.740452 0
M  V30 3520 H 333.164 0.630543 1.80821 0
M  V30 3521 H 331.469 -1.09584 3.76163 0
M  V30 3522 H 333.166 -0.747377 3.93974 0
M  V30 3523 H 329.756 0.655428 4.23559 0
M  V30 3524 H 333.94 1.50231 4.73016 0
M  V30 3525 H 329.196 2.69525 5.48786 0
M  V30 3526 H 333.37 3.54169 5.99614 0
M  V30 3527 H 330.997 4.14396 6.37323 0
M  V30 3528 N 332.573 -1.56217 0.208337 0
M  V30 3529 C 333.984 -1.84243 -0.301904 0
M  V30 3530 C 334.335 -1.12939 -1.60434 0
M  V30 3531 O 333.46 -0.39461 -2.12772 0
M  V30 3532 C 334.055 -3.34231 -0.554543 0
M  V30 3533 C 332.614 -3.62621 -1.00912 0
M  V30 3534 C 331.761 -2.77224 -0.064933 0
M  V30 3535 H 334.712 -1.52712 0.431833 0
M  V30 3536 H 334.733 -3.5372 -1.40223 0
M  V30 3537 H 334.245 -3.86099 0.393561 0
M  V30 3538 H 332.346 -3.16197 -1.97104 0
M  V30 3539 H 332.459 -4.7071 -0.892674 0
M  V30 3540 H 330.823 -2.48256 -0.56929 0
M  V30 3541 H 331.606 -3.31887 0.877851 0
M  V30 3542 N 334.051 0.0651679 -1.57465 0
M  V30 3543 C 335.462 0.616213 -1.76238 0
M  V30 3544 C 335.813 1.7756 -0.834689 0
M  V30 3545 O 334.938 2.1639 -0.0204156 0
M  V30 3546 C 335.533 1.12462 -3.1959 0
M  V30 3547 C 334.092 1.62147 -3.39684 0
M  V30 3548 C 333.239 0.543739 -2.71917 0
M  V30 3549 H 336.19 -0.161022 -1.57881 0
M  V30 3550 H 336.211 1.99324 -3.24114 0
M  V30 3551 H 335.723 0.280592 -3.87084 0
M  V30 3552 H 333.824 2.48854 -2.77313 0
M  V30 3553 H 333.937 1.69385 -4.48158 0
M  V30 3554 H 332.301 0.990352 -2.34657 0
M  V30 3555 H 333.084 -0.290216 -3.42071 0
M  V30 3556 N 335.529 1.53961 0.336706 0
M  V30 3557 C 336.777 1.71197 1.07405 0
M  V30 3558 C 337.098 0.481475 1.88962 0
M  V30 3559 O 336.368 -0.504585 1.8929 0
M  V30 3560 H 334.948 0.631185 0.399517 0
M  V30 3561 H 337.61 1.91232 0.376323 0
M  V30 3562 H 336.706 2.58587 1.74755 0
M  V30 3563 N 337.007 -0.598083 1.45811 0
M  V30 3564 C 338.253 -1.35882 1.50545 0
M  V30 3565 C 338.586 -1.93616 0.150445 0
M  V30 3566 O 337.861 -1.75604 -0.83628 0
M  V30 3567 C 338.144 -2.49966 2.59208 0
M  V30 3568 C 337.997 -1.97367 4.04186 0
M  V30 3569 C 339.316 -3.52068 2.64076 0
M  V30 3570 H 336.435 -0.492717 0.548087 0
M  V30 3571 H 339.077 -0.673319 1.77669 0
M  V30 3572 H 337.227 -3.08443 2.3621 0
M  V30 3573 H 338.899 -1.43466 4.38423 0
M  V30 3574 H 337.142 -1.283 4.14393 0
M  V30 3575 H 337.813 -2.79649 4.75921 0
M  V30 3576 H 340.289 -3.03448 2.84708 0
M  V30 3577 H 339.165 -4.2937 3.41954 0
M  V30 3578 H 339.426 -4.08304 1.69531 0
M  V30 3579 N 338.485 -1.33259 -0.841409 0
M  V30 3580 C 339.731 -1.24757 -1.59886 0
M  V30 3581 C 340.064 0.186913 -1.93298 0
M  V30 3582 O 339.339 1.12757 -1.5848 0
M  V30 3583 C 339.622 -2.12036 -2.91055 0
M  V30 3584 C 339.475 -3.63929 -2.6434 0
M  V30 3585 C 340.794 -1.9916 -3.92458 0
M  V30 3586 H 337.913 -0.454542 -0.580138 0
M  V30 3587 H 340.555 -1.63335 -0.970647 0
M  V30 3588 H 338.705 -1.79265 -3.44669 0
M  V30 3589 H 340.377 -4.06978 -2.17178 0
M  V30 3590 H 338.62 -3.85935 -1.98082 0
M  V30 3591 H 339.291 -4.20341 -3.57796 0
M  V30 3592 H 341.767 -2.27895 -3.48143 0
M  V30 3593 H 340.643 -2.62484 -4.82072 0
M  V30 3594 H 340.904 -0.963082 -4.31482 0
M  V30 3595 N 339.963 1.05934 -1.16686 0
M  V30 3596 C 340.911 2.15603 -0.872817 0
M  V30 3597 C 341.905 1.68647 0.159576 0
M  V30 3598 O 343.111 1.79995 0.0132125 0
M  V30 3599 H 339.486 0.703885 -0.264671 0
M  V30 3600 H 341.457 2.37613 -1.80507 0
M  V30 3601 C 340.206 3.45457 -0.394344 0
M  V30 3602 H 339.529 3.81984 -1.18019 0
M  V30 3603 H 340.969 4.2339 -0.227408 0
M  V30 3604 C 339.428 3.25021 0.88673 0
M  V30 3605 O 339.958 3.50906 1.95519 0
M  V30 3606 N 338.164 2.78437 0.831925 0
M  V30 3607 H 337.711 2.57572 -0.0377619 0
M  V30 3608 H 337.669 2.65144 1.68956 0
M  V30 3609 N 341.441 0.965919 1.2453 0
M  V30 3610 C 342.69 0.622437 1.91856 0
M  V30 3611 C 343.003 -0.846006 1.76358 0
M  V30 3612 O 344.209 -1.29993 2.38357 0
M  V30 3613 C 342.665 1.0626 3.43856 0
M  V30 3614 C 342.273 2.55437 3.68043 0
M  V30 3615 C 344.017 0.792183 4.17043 0
M  V30 3616 C 341.924 2.93196 5.13605 0
M  V30 3617 H 340.854 0.229092 0.718354 0
M  V30 3618 H 343.505 1.17189 1.41206 0
M  V30 3619 H 341.887 0.441476 3.93531 0
M  V30 3620 H 343.061 3.22665 3.28974 0
M  V30 3621 H 341.376 2.8007 3.08139 0
M  V30 3622 H 343.973 1.05031 5.24283 0
M  V30 3623 H 344.316 -0.271584 4.15413 0
M  V30 3624 H 344.849 1.37419 3.73311 0
M  V30 3625 H 341.588 3.98636 5.20355 0
M  V30 3626 H 341.108 2.30651 5.53679 0
M  V30 3627 H 342.787 2.83004 5.81823 0
M  V30 3628 N 342.919 -1.39368 0.735821 0
M  V30 3629 C 344.165 -2.00794 0.284544 0
M  V30 3630 C 344.498 -1.58255 -1.12557 0
M  V30 3631 O 343.773 -0.811819 -1.76748 0
M  V30 3632 C 344.056 -3.58011 0.387337 0
M  V30 3633 C 343.909 -4.10566 1.83728 0
M  V30 3634 C 345.228 -4.395 -0.22975 0
M  V30 3635 H 342.347 -0.729501 0.104866 0
M  V30 3636 H 344.989 -1.65564 0.93213 0
M  V30 3637 H 343.139 -3.88154 -0.164006 0
M  V30 3638 H 344.811 -3.91139 2.44556 0
M  V30 3639 H 343.054 -3.64095 2.35833 0
M  V30 3640 H 343.725 -5.19702 1.86047 0
M  V30 3641 H 346.201 -4.15406 0.240257 0
M  V30 3642 H 345.077 -5.48752 -0.127485 0
M  V30 3643 H 345.338 -4.22062 -1.3159 0
M  V30 3644 N 344.397 -0.483516 -1.5 0
M  V30 3645 C 345.808 -0.0314176 -1.86674 0
M  V30 3646 C 346.159 1.37728 -1.39733 0
M  V30 3647 O 345.284 2.02327 -0.767635 0
M  V30 3648 C 345.879 -0.0502376 -3.38763 0
M  V30 3649 C 344.438 0.346442 -3.74802 0
M  V30 3650 C 343.585 -0.430366 -2.7394 0
M  V30 3651 H 346.536 -0.697182 -1.42566 0
M  V30 3652 H 346.557 0.749116 -3.73053 0
M  V30 3653 H 346.069 -1.07563 -3.72897 0
M  V30 3654 H 344.17 1.37572 -3.46273 0
M  V30 3655 H 344.283 0.0391486 -4.79084 0
M  V30 3656 H 342.647 0.117557 -2.54429 0
M  V30 3657 H 343.43 -1.4555 -3.10918 0
M  V30 3658 N 345.875 1.56104 -0.216619 0
M  V30 3659 C 347.123 1.97781 0.415593 0
M  V30 3660 C 347.444 1.10536 1.60645 0
M  V30 3661 O 346.714 0.181303 1.95059 0
M  V30 3662 H 345.294 0.730415 0.156534 0
M  V30 3663 H 347.956 1.92445 -0.308366 0
M  V30 3664 H 347.052 3.03072 0.74525 0
M  V30 3665 N 347.353 -0.0568162 1.57498 0
M  V30 3666 C 348.6 -0.753104 1.87975 0
M  V30 3667 C 348.928 -1.76815 0.81035 0
M  V30 3668 O 348.183 -1.94756 -0.19199 0
M  V30 3669 C 348.482 -1.48359 3.25153 0
M  V30 3670 C 348.148 -0.60713 4.46794 0
M  V30 3671 C 346.81 -0.365642 4.79809 0
M  V30 3672 C 349.162 -0.000305978 5.212 0
M  V30 3673 C 346.49 0.491905 5.84634 0
M  V30 3674 C 348.842 0.844781 6.26934 0
M  V30 3675 C 347.506 1.096 6.58441 0
M  V30 3676 H 346.776 -0.27558 0.687849 0
M  V30 3677 H 349.423 -0.0135173 1.91495 0
M  V30 3678 H 347.728 -2.29577 3.17492 0
M  V30 3679 H 349.425 -2.02739 3.45974 0
M  V30 3680 H 346.015 -0.805487 4.20963 0
M  V30 3681 H 350.199 -0.173961 4.95995 0
M  V30 3682 H 345.455 0.695131 6.07436 0
M  V30 3683 H 349.629 1.32165 6.83744 0
M  V30 3684 H 347.256 1.76224 7.39492 0
M  V30 3685 N 348.832 -1.54138 -0.328536 0
M  V30 3686 C 350.08 -1.71765 -1.06496 0
M  V30 3687 C 350.401 -0.49149 -1.88704 0
M  V30 3688 O 349.671 0.494539 -1.89555 0
M  V30 3689 H 348.251 -0.633295 -0.396164 0
M  V30 3690 H 350.913 -1.91429 -0.366176 0
M  V30 3691 H 350.009 -2.5951 -1.73381 0
M  V30 3692 N 350.31 0.590341 -1.46126 0
M  V30 3693 C 351.721 1.17243 -1.45296 0
M  V30 3694 C 352.072 1.95281 -0.189723 0
M  V30 3695 O 351.197 2.04502 0.707674 0
M  V30 3696 C 351.792 2.13284 -2.6324 0
M  V30 3697 C 350.351 2.66832 -2.65476 0
M  V30 3698 C 349.498 1.42557 -2.3785 0
M  V30 3699 H 352.449 0.378692 -1.54116 0
M  V30 3700 H 352.47 2.96619 -2.38323 0
M  V30 3701 H 351.982 1.56459 -3.55165 0
M  V30 3702 H 350.083 3.27548 -1.77603 0
M  V30 3703 H 350.196 3.10088 -3.65215 0
M  V30 3704 H 348.56 1.72107 -1.87753 0
M  V30 3705 H 349.343 0.875741 -3.31942 0
M  V30 3706 N 351.788 1.33704 0.83433 0
M  V30 3707 C 353.016 1.28467 1.62185 0
M  V30 3708 C 353.431 -0.143526 1.88254 0
M  V30 3709 O 352.788 -1.08709 1.4659 0
M  V30 3710 C 352.839 2.06174 2.96942 0
M  V30 3711 O 352.56 3.43422 2.72016 0
M  V30 3712 C 354.061 2.08201 3.91366 0
M  V30 3713 H 351.281 0.4424 0.504503 0
M  V30 3714 H 353.825 1.76145 1.03891 0
M  V30 3715 H 351.98 1.62167 3.51825 0
M  V30 3716 H 352.394 3.83453 3.57861 0
M  V30 3717 H 353.868 2.67017 4.83121 0
M  V30 3718 H 354.345 1.07343 4.2588 0
M  V30 3719 H 354.951 2.52246 3.42421 0
M  V30 3720 N 353.266 -1.05314 1.17247 0
M  V30 3721 C 354.512 -1.78557 0.961513 0
M  V30 3722 C 354.845 -1.87419 -0.508697 0
M  V30 3723 O 354.12 -1.37307 -1.37757 0
M  V30 3724 C 354.403 -3.22514 1.60176 0
M  V30 3725 C 354.256 -3.21673 3.14399 0
M  V30 3726 C 355.575 -4.20318 1.30463 0
M  V30 3727 H 352.694 -0.6482 0.350723 0
M  V30 3728 H 355.336 -1.23102 1.44727 0
M  V30 3729 H 353.486 -3.69867 1.18871 0
M  V30 3730 H 355.158 -2.82405 3.64753 0
M  V30 3731 H 353.401 -2.60048 3.47214 0
M  V30 3732 H 354.072 -4.23271 3.54324 0
M  V30 3733 H 356.548 -3.81454 1.66229 0
M  V30 3734 H 355.424 -5.19289 1.77848 0
M  V30 3735 H 355.685 -4.41526 0.22521 0
M  V30 3736 N 354.744 -0.972509 -1.24016 0
M  V30 3737 C 355.992 -0.635776 -1.91839 0
M  V30 3738 C 356.313 0.832312 -1.76345 0
M  V30 3739 O 355.583 1.5946 -1.13795 0
M  V30 3740 H 354.163 -0.232157 -0.710009 0
M  V30 3741 H 356.825 -1.23462 -1.50809 0
M  V30 3742 H 355.921 -0.880545 -2.99421 0
M  V30 3743 N 356.222 1.38976 -0.743202 0
M  V30 3744 C 357.185 2.28901 -0.117014 0
M  V30 3745 C 358.185 1.46698 0.658503 0
M  V30 3746 O 359.375 1.67274 0.486305 0
M  V30 3747 C 356.507 3.30309 0.84315 0
M  V30 3748 H 357.7 2.8578 -0.909373 0
M  V30 3749 H 355.253 1.47761 -0.509547 0
M  V30 3750 H 355.988 2.785 1.66157 0
M  V30 3751 H 355.773 3.91029 0.289594 0
M  V30 3752 H 357.263 3.97577 1.2776 0
M  V30 3753 N 357.7 0.491464 1.49741 0
M  V30 3754 C 358.663 -0.280906 2.27472 0
M  V30 3755 C 359.663 -0.902454 1.33088 0
M  V30 3756 O 360.853 -0.768465 1.56334 0
M  V30 3757 C 357.985 -1.40209 3.10732 0
M  V30 3758 H 359.178 0.401056 2.97206 0
M  V30 3759 H 356.731 0.246131 1.5435 0
M  V30 3760 H 357.466 -2.11849 2.45541 0
M  V30 3761 H 357.251 -0.961969 3.80117 0
M  V30 3762 H 358.741 -1.9464 3.69466 0
M  V30 3763 N 359.178 -1.55987 0.224894 0
M  V30 3764 C 360.427 -1.97566 -0.406273 0
M  V30 3765 C 360.74 -1.11569 -1.6066 0
M  V30 3766 O 361.946 -1.43062 -2.3075 0
M  V30 3767 C 360.402 -3.51474 -0.774207 0
M  V30 3768 C 360.01 -4.46179 0.403496 0
M  V30 3769 C 361.754 -4.01758 -1.37079 0
M  V30 3770 C 359.661 -5.91399 0.0129412 0
M  V30 3771 H 358.591 -0.737777 -0.155565 0
M  V30 3772 H 361.242 -1.80659 0.321635 0
M  V30 3773 H 359.624 -3.63994 -1.55963 0
M  V30 3774 H 360.798 -4.45409 1.18101 0
M  V30 3775 H 359.113 -4.06255 0.913536 0
M  V30 3776 H 361.71 -5.07756 -1.67596 0
M  V30 3777 H 362.053 -3.47805 -2.28773 0
M  V30 3778 H 362.586 -3.92475 -0.648733 0
M  V30 3779 H 359.325 -6.49341 0.896451 0
M  V30 3780 H 358.845 -5.95356 -0.728821 0
M  V30 3781 H 360.524 -6.45683 -0.412582 0
M  V30 3782 N 360.656 0.0484629 -1.57525 0
M  V30 3783 C 361.881 0.759177 -1.93006 0
M  V30 3784 C 362.306 1.69125 -0.823317 0
M  V30 3785 O 361.664 1.79931 0.222364 0
M  V30 3786 C 361.712 1.50899 -3.27509 0
M  V30 3787 O 360.816 2.62112 -3.18388 0
M  V30 3788 H 360.157 0.205564 -0.631379 0
M  V30 3789 H 362.687 0.00972959 -2.04598 0
M  V30 3790 H 362.697 1.88317 -3.6194 0
M  V30 3791 H 361.372 0.825269 -4.0763 0
M  V30 3792 H 359.949 2.27379 -2.95556 0
M  V30 3793 N 362.134 1.5431 0.320358 0
M  V30 3794 C 363.359 1.76954 1.08175 0
M  V30 3795 C 363.784 0.518193 1.80821 0
M  V30 3796 O 363.142 -0.530411 1.73368 0
M  V30 3797 C 363.19 2.96451 2.05303 0
M  V30 3798 O 362.294 2.68221 3.13259 0
M  V30 3799 H 361.635 0.586275 0.311733 0
M  V30 3800 H 364.165 2.01342 0.363676 0
M  V30 3801 H 364.175 3.23887 2.48116 0
M  V30 3802 H 362.85 3.87196 1.51829 0
M  V30 3803 H 361.427 2.51744 2.75099 0
M  V30 3804 N 363.613 -0.582584 1.46437 0
M  V30 3805 C 364.563 -1.68654 1.53426 0
M  V30 3806 C 365.547 -1.55971 0.395194 0
M  V30 3807 O 366.739 -1.64884 0.643612 0
M  V30 3808 C 363.868 -3.07439 1.52762 0
M  V30 3809 C 362.954 -3.25418 2.71963 0
M  V30 3810 N 363.345 -3.13556 3.96883 0
M  V30 3811 C 361.643 -3.56357 2.68189 0
M  V30 3812 C 362.344 -3.33543 4.76575 0
M  V30 3813 N 361.32 -3.58704 4.08451 0
M  V30 3814 H 365.122 -1.58014 2.47808 0
M  V30 3815 H 362.636 -0.786617 1.42078 0
M  V30 3816 H 364.633 -3.86671 1.55857 0
M  V30 3817 H 363.293 -3.1921 0.594573 0
M  V30 3818 H 364.304 -2.9142 4.28129 0
M  V30 3819 H 360.981 -3.74812 1.83908 0
M  V30 3820 H 362.371 -3.29555 5.85528 0
M  V30 3821 N 365.091 -1.34144 -0.827227 0
M  V30 3822 C 366.502 -1.23557 -1.39966 0
M  V30 3823 C 366.853 0.140731 -1.95695 0
M  V30 3824 O 365.978 1.04087 -1.89723 0
M  V30 3825 C 366.573 -2.23708 -2.54441 0
M  V30 3826 C 365.132 -2.16924 -3.07605 0
M  V30 3827 C 364.279 -2.10549 -1.80456 0
M  V30 3828 H 367.23 -1.45573 -0.631991 0
M  V30 3829 H 367.251 -1.85157 -3.32411 0
M  V30 3830 H 366.763 -3.23866 -2.13851 0
M  V30 3831 H 364.864 -1.20107 -3.52711 0
M  V30 3832 H 364.977 -3.07988 -3.66988 0
M  V30 3833 H 363.341 -1.56203 -2.01178 0
M  V30 3834 H 364.124 -3.12535 -1.42046 0
M  V30 3835 N 366.569 1.04691 -1.17803 0
M  V30 3836 C 367.501 2.12571 -0.857097 0
M  V30 3837 C 368.514 1.62174 0.142647 0
M  V30 3838 O 369.703 1.78301 -0.0843387 0
M  V30 3839 C 366.803 3.37915 -0.258216 0
M  V30 3840 C 365.976 4.1757 -1.30207 0
M  V30 3841 C 365.035 5.2125 -0.720029 0
M  V30 3842 O 364.061 5.51888 -1.39314 0
M  V30 3843 N 365.263 5.78466 0.485507 0
M  V30 3844 H 368.028 2.40698 -1.78562 0
M  V30 3845 H 365.589 1.20831 -1.07757 0
M  V30 3846 H 367.581 4.04442 0.144584 0
M  V30 3847 H 366.151 3.07281 0.574199 0
M  V30 3848 H 365.371 3.46458 -1.88043 0
M  V30 3849 H 366.659 4.67586 -2.00601 0
M  V30 3850 H 366.057 5.55866 1.05022 0
M  V30 3851 H 364.614 6.4649 0.830307 0
M  V30 3852 N 368.047 0.979072 1.23499 0
M  V30 3853 C 369.296 0.642751 1.91185 0
M  V30 3854 C 369.609 -0.827253 1.77245 0
M  V30 3855 O 370.815 -1.27458 2.39722 0
M  V30 3856 C 369.271 1.09901 3.42709 0
M  V30 3857 C 368.879 2.59327 3.65313 0
M  V30 3858 C 370.623 0.836371 4.16179 0
M  V30 3859 C 368.53 2.98627 5.10467 0
M  V30 3860 H 367.46 0.236698 0.715884 0
M  V30 3861 H 370.111 1.1868 1.39955 0
M  V30 3862 H 368.493 0.48319 3.93041 0
M  V30 3863 H 369.667 3.26136 3.25533 0
M  V30 3864 H 367.982 2.83323 3.05151 0
M  V30 3865 H 370.579 1.10586 5.23139 0
M  V30 3866 H 370.922 -0.227509 4.15678 0
M  V30 3867 H 371.455 1.41371 3.71832 0
M  V30 3868 H 368.194 4.04133 5.16098 0
M  V30 3869 H 367.714 2.3651 5.51201 0
M  V30 3870 H 369.393 2.89159 5.78788 0
M  V30 3871 N 369.525 -1.3858 0.750561 0
M  V30 3872 C 370.473 -2.32339 0.110162 0
M  V30 3873 C 371.467 -1.53864 -0.708674 0
M  V30 3874 O 372.673 -1.69417 -0.608112 0
M  V30 3875 H 369.048 -0.751812 0.0168275 0
M  V30 3876 H 371.019 -2.83959 0.917053 0
M  V30 3877 C 369.768 -3.39043 -0.771067 0
M  V30 3878 H 369.091 -3.99517 -0.150374 0
M  V30 3879 H 370.531 -4.07061 -1.1865 0
M  V30 3880 C 368.99 -2.77365 -1.91234 0
M  V30 3881 O 369.52 -2.66434 -3.00626 0
M  V30 3882 N 367.726 -2.35219 -1.70646 0
M  V30 3883 H 367.273 -2.4431 -0.81673 0
M  V30 3884 H 367.231 -1.94294 -2.47178 0
M  V30 3885 N 371.003 -0.499398 -1.49478 0
M  V30 3886 C 371.95 0.279881 -2.29097 0
M  V30 3887 C 372.92 0.961805 -1.3542 0
M  V30 3888 O 374.105 0.968777 -1.64376 0
M  V30 3889 C 371.245 1.33932 -3.18051 0
M  V30 3890 C 370.358 0.669333 -4.26783 0
M  V30 3891 C 369.493 1.70907 -5.02955 0
M  V30 3892 C 368.532 1.02087 -6.03527 0
M  V30 3893 N 367.669 2.00474 -6.7287 0
M  V30 3894 H 372.509 -0.405317 -2.95231 0
M  V30 3895 H 370.046 -0.211726 -1.45568 0
M  V30 3896 H 372.004 1.96553 -3.67998 0
M  V30 3897 H 370.634 1.9933 -2.53904 0
M  V30 3898 H 369.686 -0.0701234 -3.80335 0
M  V30 3899 H 370.998 0.127503 -4.98637 0
M  V30 3900 H 370.152 2.41037 -5.56764 0
M  V30 3901 H 368.891 2.28476 -4.30871 0
M  V30 3902 H 367.896 0.305338 -5.48951 0
M  V30 3903 H 369.121 0.451708 -6.77596 0
M  V30 3904 H 367.067 2.57007 -6.03559 0
M  V30 3905 H 366.984 1.51353 -7.40694 0
M  V30 3906 H 368.252 2.69897 -7.31284 0
M  V30 3907 N 372.481 1.55866 -0.233164 0
M  V30 3908 C 373.73 1.97779 0.39579 0
M  V30 3909 C 374.043 1.12419 1.60066 0
M  V30 3910 O 375.249 1.44283 2.29988 0
M  V30 3911 C 373.705 3.5188 0.755556 0
M  V30 3912 C 373.313 4.45959 -0.427152 0
M  V30 3913 C 375.057 4.02479 1.34946 0
M  V30 3914 C 372.964 5.91383 -0.0443043 0
M  V30 3915 H 371.894 0.738592 0.15165 0
M  V30 3916 H 374.545 1.80486 -0.331212 0
M  V30 3917 H 372.927 3.64816 1.5403 0
M  V30 3918 H 374.101 4.44776 -1.20462 0
M  V30 3919 H 372.416 4.05765 -0.935068 0
M  V30 3920 H 375.013 5.08637 1.649 0
M  V30 3921 H 375.356 3.49014 2.26925 0
M  V30 3922 H 375.889 3.92813 0.62791 0
M  V30 3923 H 372.628 6.48857 -0.930874 0
M  V30 3924 H 372.148 5.95734 0.697238 0
M  V30 3925 H 373.827 6.45893 0.378334 0
M  V30 3926 N 373.959 -0.0401083 1.57549 0
M  V30 3927 C 374.922 -1.02871 2.04817 0
M  V30 3928 C 375.922 -1.29708 0.950388 0
M  V30 3929 O 377.112 -1.24897 1.21435 0
M  V30 3930 C 374.244 -2.36443 2.45576 0
M  V30 3931 H 375.437 -0.620631 2.93408 0
M  V30 3932 H 372.99 -0.286667 1.53649 0
M  V30 3933 H 373.725 -2.82021 1.60108 0
M  V30 3934 H 373.51 -2.18296 3.25713 0
M  V30 3935 H 375 -3.07441 2.82612 0
M  V30 3936 N 375.437 -1.54477 -0.31217 0
M  V30 3937 C 376.684 -1.73227 -1.04875 0
M  V30 3938 C 377.012 -0.512042 -1.87639 0
M  V30 3939 O 376.267 0.506131 -1.89042 0
M  V30 3940 C 376.566 -2.967 -1.99258 0
M  V30 3941 C 376.232 -4.30974 -1.32559 0
M  V30 3942 C 374.894 -4.67477 -1.141 0
M  V30 3943 C 377.246 -5.14258 -0.847835 0
M  V30 3944 C 374.574 -5.84852 -0.465326 0
M  V30 3945 C 376.926 -6.32327 -0.185931 0
M  V30 3946 C 375.59 -6.67499 0.0107077 0
M  V30 3947 H 374.86 -0.633881 -0.383765 0
M  V30 3948 H 377.507 -1.88727 -0.324731 0
M  V30 3949 H 375.812 -2.75935 -2.7815 0
M  V30 3950 H 377.509 -3.08401 -2.563 0
M  V30 3951 H 374.099 -4.02262 -1.4793 0
M  V30 3952 H 378.283 -4.86565 -0.978192 0
M  V30 3953 H 373.539 -6.10654 -0.301883 0
M  V30 3954 H 377.713 -6.96135 0.192211 0
M  V30 3955 H 375.34 -7.58306 0.536287 0
M  V30 3956 N 376.915 0.57481 -1.46744 0
M  V30 3957 C 378.143 1.35856 -1.56047 0
M  V30 3958 C 378.558 1.87691 -0.204365 0
M  V30 3959 O 377.915 1.64049 0.79963 0
M  V30 3960 C 377.966 2.54066 -2.57163 0
M  V30 3961 O 377.687 2.04377 -3.87507 0
M  V30 3962 C 379.188 3.46514 -2.76483 0
M  V30 3963 H 376.408 0.414754 -0.527466 0
M  V30 3964 H 378.952 0.698035 -1.92218 0
M  V30 3965 H 377.107 3.16092 -2.23974 0
M  V30 3966 H 377.521 2.81419 -4.4261 0
M  V30 3967 H 378.995 4.25919 -3.51137 0
M  V30 3968 H 379.472 3.98951 -1.83671 0
M  V30 3969 H 380.078 2.90318 -3.10799 0
M  V30 3970 N 378.394 1.34581 0.820102 0
M  V30 3971 C 379.642 1.26845 1.57336 0
M  V30 3972 C 379.963 -0.160667 1.94337 0
M  V30 3973 O 379.233 -1.09396 1.6251 0
M  V30 3974 H 377.813 0.466514 0.583415 0
M  V30 3975 H 380.475 1.68526 0.979027 0
M  V30 3976 H 379.571 1.87513 2.4949 0
M  V30 3977 N 379.872 -1.04064 1.18357 0
M  V30 3978 C 381.097 -1.81454 1.00445 0
M  V30 3979 C 381.522 -1.82823 -0.442423 0
M  V30 3980 O 380.88 -1.24555 -1.31741 0
M  V30 3981 C 380.928 -3.24925 1.56384 0
M  V30 3982 O 380.032 -4.04856 0.785209 0
M  V30 3983 H 379.373 -0.560604 0.355835 0
M  V30 3984 H 381.903 -1.31059 1.57114 0
M  V30 3985 H 381.913 -3.75702 1.59097 0
M  V30 3986 H 380.588 -3.23244 2.61699 0
M  V30 3987 H 379.165 -3.63537 0.830399 0
M  V30 3988 N 381.35 -0.985608 -1.22978 0
M  V30 3989 C 382.578 -0.675582 -1.95559 0
M  V30 3990 C 382.993 0.758413 -1.72897 0
M  V30 3991 O 382.35 1.51094 -1.02357 0
M  V30 3992 C 382.401 -0.96293 -3.48439 0
M  V30 3993 O 382.122 -2.34057 -3.70336 0
M  V30 3994 C 383.623 -0.669585 -4.38214 0
M  V30 3995 H 380.843 -0.250523 -0.622478 0
M  V30 3996 H 383.387 -1.3184 -1.56328 0
M  V30 3997 H 381.542 -0.366033 -3.85667 0
M  V30 3998 H 381.956 -2.43424 -4.64591 0
M  V30 3999 H 383.43 -0.920967 -5.44263 0
M  V30 4000 H 383.907 0.396383 -4.37408 0
M  V30 4001 H 384.513 -1.2472 -4.06602 0
M  V30 4002 N 382.828 1.3818 -0.7579 0
M  V30 4003 C 383.738 2.3421 -0.135247 0
M  V30 4004 C 384.754 1.59487 0.695683 0
M  V30 4005 O 385.93 1.91657 0.618832 0
M  V30 4006 C 382.995 3.3862 0.744139 0
M  V30 4007 C 382.056 4.2918 -0.101658 0
M  V30 4008 C 381.289 5.28603 0.735851 0
M  V30 4009 O 381.512 5.35166 1.97366 0
M  V30 4010 O 380.446 6.01707 0.152372 0
M  V30 4011 H 384.272 2.8916 -0.928436 0
M  V30 4012 H 381.857 1.40101 -0.518855 0
M  V30 4013 H 383.739 4.02539 1.2466 0
M  V30 4014 H 382.414 2.86019 1.51575 0
M  V30 4015 H 381.321 3.68407 -0.650167 0
M  V30 4016 H 382.654 4.85048 -0.836024 0
M  V30 4017 N 384.306 0.507319 1.49211 0
M  V30 4018 C 385.552 -0.0350047 2.0277 0
M  V30 4019 C 385.885 -1.3606 1.38569 0
M  V30 4020 O 385.16 -1.87321 0.523542 0
M  V30 4021 C 385.443 -0.180916 3.59645 0
M  V30 4022 C 385.296 1.16825 4.34364 0
M  V30 4023 C 386.615 -0.918558 4.30407 0
M  V30 4024 H 383.734 -0.0112473 0.736914 0
M  V30 4025 H 386.376 0.659956 1.7817 0
M  V30 4026 H 384.526 -0.772826 3.80736 0
M  V30 4027 H 386.198 1.79952 4.24753 0
M  V30 4028 H 384.441 1.75594 3.96673 0
M  V30 4029 H 385.112 1.01939 5.42506 0
M  V30 4030 H 387.588 -0.41649 4.1401 0
M  V30 4031 H 386.464 -0.989505 5.39907 0
M  V30 4032 H 386.725 -1.96373 3.96093 0
M  V30 4033 N 385.784 -1.5574 0.241426 0
M  V30 4034 C 387.032 -1.98417 -0.384075 0
M  V30 4035 C 387.353 -1.13078 -1.58866 0
M  V30 4036 O 386.623 -0.212312 -1.94746 0
M  V30 4037 H 385.203 -0.732813 -0.144894 0
M  V30 4038 H 387.865 -1.9193 0.338943 0
M  V30 4039 H 386.961 -3.04219 -0.696939 0
M  V30 4040 N 387.262 0.0317525 -1.57568 0
M  V30 4041 C 388.209 1.0332 -2.06382 0
M  V30 4042 C 389.179 1.36082 -0.952414 0
M  V30 4043 O 390.364 1.46466 -1.2228 0
M  V30 4044 C 387.504 2.32989 -2.54578 0
M  V30 4045 C 386.617 2.0641 -3.79498 0
M  V30 4046 C 385.752 3.2993 -4.16317 0
M  V30 4047 C 384.791 2.98893 -5.34162 0
M  V30 4048 N 383.928 4.14857 -5.66426 0
M  V30 4049 H 388.768 0.609982 -2.9169 0
M  V30 4050 H 386.305 0.289573 -1.44222 0
M  V30 4051 H 388.263 3.0875 -2.80587 0
M  V30 4052 H 386.893 2.73039 -1.7219 0
M  V30 4053 H 385.945 1.21158 -3.6059 0
M  V30 4054 H 387.257 1.79513 -4.65378 0
M  V30 4055 H 386.411 4.1406 -4.4344 0
M  V30 4056 H 385.15 3.59938 -3.29083 0
M  V30 4057 H 384.155 2.13164 -5.06795 0
M  V30 4058 H 385.38 2.70165 -6.23047 0
M  V30 4059 H 383.326 4.44821 -4.82151 0
M  V30 4060 H 383.243 3.91374 -6.4681 0
M  V30 4061 H 384.511 4.99868 -5.98124 0
M  V30 4062 N 388.74 1.54641 0.303973 0
M  V30 4063 C 389.67 1.88386 1.3796 0
M  V30 4064 C 390.651 0.742485 1.5304 0
M  V30 4065 O 391.836 0.997959 1.66597 0
M  V30 4066 C 388.966 2.12854 2.74427 0
M  V30 4067 C 387.92 3.28702 2.74115 0
M  V30 4068 C 387.246 3.38582 4.13844 0
M  V30 4069 C 388.546 4.65881 2.3612 0
M  V30 4070 H 390.24 2.78474 1.09966 0
M  V30 4071 H 387.786 1.33988 0.527556 0
M  V30 4072 H 389.739 2.35047 3.49758 0
M  V30 4073 H 388.463 1.19535 3.03939 0
M  V30 4074 H 387.122 3.06428 2.0124 0
M  V30 4075 H 386.77 2.42784 4.40528 0
M  V30 4076 H 386.47 4.16453 4.14537 0
M  V30 4077 H 387.994 3.63031 4.90959 0
M  V30 4078 H 389.408 4.87823 3.01167 0
M  V30 4079 H 387.805 5.46444 2.48031 0
M  V30 4080 H 388.875 4.66799 1.3125 0
M  V30 4081 N 390.218 -0.567019 1.47046 0
M  V30 4082 C 391.464 -1.32658 1.53394 0
M  V30 4083 C 391.797 -1.93254 0.19148 0
M  V30 4084 O 391.072 -1.77338 -0.798844 0
M  V30 4085 C 391.355 -2.44412 2.64452 0
M  V30 4086 C 391.208 -1.88749 4.08282 0
M  V30 4087 C 392.527 -3.46387 2.71485 0
M  V30 4088 H 389.646 -0.48098 0.558415 0
M  V30 4089 H 392.288 -0.635481 1.79058 0
M  V30 4090 H 390.438 -3.03363 2.427 0
M  V30 4091 H 392.11 -1.34134 4.41368 0
M  V30 4092 H 390.353 -1.19481 4.17021 0
M  V30 4093 H 391.024 -2.69491 4.81745 0
M  V30 4094 H 393.5 -2.9734 2.91081 0
M  V30 4095 H 392.376 -4.2202 3.50985 0
M  V30 4096 H 392.637 -4.04616 1.78153 0
M  V30 4097 N 391.696 -1.35014 -0.812953 0
M  V30 4098 C 392.643 -1.27412 -1.92444 0
M  V30 4099 C 393.613 -0.14733 -1.65445 0
M  V30 4100 O 394.798 -0.329974 -1.87925 0
M  V30 4101 C 391.938 -1.04558 -3.28879 0
M  V30 4102 C 391.051 -2.26101 -3.68106 0
M  V30 4103 C 390.186 -1.96449 -4.9354 0
M  V30 4104 C 389.225 -3.14081 -5.25376 0
M  V30 4105 N 388.362 -2.84246 -6.41988 0
M  V30 4106 H 393.202 -2.22463 -1.98278 0
M  V30 4107 H 390.739 -1.10593 -0.969933 0
M  V30 4108 H 392.697 -0.893413 -4.07522 0
M  V30 4109 H 391.327 -0.131719 -3.22531 0
M  V30 4110 H 390.379 -2.52204 -2.84775 0
M  V30 4111 H 391.691 -3.13959 -3.87597 0
M  V30 4112 H 390.845 -1.78026 -5.79993 0
M  V30 4113 H 389.584 -1.05867 -4.76071 0
M  V30 4114 H 388.589 -3.33089 -4.37415 0
M  V30 4115 H 389.814 -4.05455 -5.44778 0
M  V30 4116 H 387.76 -1.96252 -6.25956 0
M  V30 4117 H 387.677 -3.65637 -6.61699 0
M  V30 4118 H 388.945 -2.6935 -7.31485 0
M  V30 4119 N 393.175 1.03435 -1.18907 0
M  V30 4120 C 394.085 2.15075 -0.937015 0
M  V30 4121 C 395.101 1.73706 0.101085 0
M  V30 4122 O 396.277 2.01232 -0.0822948 0
M  V30 4123 C 393.342 3.43458 -0.473057 0
M  V30 4124 C 392.403 3.99172 -1.57989 0
M  V30 4125 C 391.636 5.21427 -1.13797 0
M  V30 4126 O 391.859 5.704 0.000725941 0
M  V30 4127 O 390.793 5.69837 -1.9383 0
M  V30 4128 H 394.619 2.39198 -1.87131 0
M  V30 4129 H 392.204 1.13506 -0.971427 0
M  V30 4130 H 394.086 4.20811 -0.222702 0
M  V30 4131 H 392.761 3.20793 0.432869 0
M  V30 4132 H 391.668 3.23178 -1.88433 0
M  V30 4133 H 393.001 4.2619 -2.46217 0
M  V30 4134 N 394.653 0.992116 1.22453 0
M  V30 4135 C 395.616 0.546883 2.2258 0
M  V30 4136 C 396.616 -0.369829 1.56489 0
M  V30 4137 O 397.806 -0.161896 1.73446 0
M  V30 4138 C 394.938 -0.204659 3.40285 0
M  V30 4139 H 396.131 1.43234 2.63484 0
M  V30 4140 H 393.684 0.779239 1.3549 0
M  V30 4141 H 394.419 -1.10614 3.04853 0
M  V30 4142 H 394.204 0.45354 3.89468 0
M  V30 4143 H 395.694 -0.504358 4.14543 0
M  V30 4144 N 396.131 -1.37776 0.765217 0
M  V30 4145 C 397.094 -2.28686 0.153416 0
M  V30 4146 C 398.094 -1.47727 -0.635081 0
M  V30 4147 O 399.284 -1.68027 -0.459632 0
M  V30 4148 C 396.416 -3.31608 -0.790495 0
M  V30 4149 H 397.609 -2.84297 0.954723 0
M  V30 4150 H 395.162 -1.46932 0.53299 0
M  V30 4151 H 395.897 -2.81109 -1.61705 0
M  V30 4152 H 395.682 -3.9144 -0.227348 0
M  V30 4153 H 397.172 -3.99559 -1.21419 0
M  V30 4154 N 397.609 -0.515225 -1.4894 0
M  V30 4155 C 398.834 0.022727 -2.07388 0
M  V30 4156 C 399.259 1.2876 -1.37122 0
M  V30 4157 O 398.617 1.76067 -0.432431 0
M  V30 4158 C 398.665 0.244869 -3.59768 0
M  V30 4159 O 397.769 1.31667 -3.90817 0
M  V30 4160 H 397.11 -0.0325506 -0.663202 0
M  V30 4161 H 399.64 -0.718918 -1.91553 0
M  V30 4162 H 399.65 0.47205 -4.0526 0
M  V30 4163 H 398.325 -0.679194 -4.10317 0
M  V30 4164 H 396.902 1.07331 -3.5712 0
M  V30 4165 N 399.087 1.5561 -0.249682 0
M  V30 4166 C 400.503 1.59254 0.105103 0
M  V30 4167 C 400.703 1.26685 1.56694 0
M  V30 4168 O 399.759 1.0155 2.31179 0
M  V30 4169 C 401.072 2.99687 -0.246592 0
M  V30 4170 C 402.62 3.12416 -0.191118 0
M  V30 4171 C 403.095 4.55074 -0.516885 0
M  V30 4172 N 404.586 4.60835 -0.467489 0
M  V30 4173 C 405.321 5.69201 -0.69268 0
M  V30 4174 N 404.817 6.85817 -0.981146 0
M  V30 4175 N 406.61 5.58635 -0.623198 0
M  V30 4176 H 398.761 1.75049 -1.20298 0
M  V30 4177 H 401.024 0.815003 -0.484225 0
M  V30 4178 H 400.73 3.28267 -1.26228 0
M  V30 4179 H 400.604 3.74798 0.424962 0
M  V30 4180 H 402.991 2.83615 0.815247 0
M  V30 4181 H 403.072 2.39573 -0.896563 0
M  V30 4182 H 402.716 4.84596 -1.52082 0
M  V30 4183 H 402.646 5.26181 0.210068 0
M  V30 4184 H 405.137 3.7705 -0.253373 0
M  V30 4185 H 405.45 7.64341 -1.14032 0
M  V30 4186 H 403.795 6.87494 -1.01865 0
M  V30 4187 H 406.986 4.66406 -0.397863 0
M  V30 4188 H 407.159 6.43017 -0.802093 0
M  V30 4189 N 400.565 -0.0233959 1.57583 0
M  V30 4190 C 401.79 -0.728376 1.94189 0
M  V30 4191 C 402.215 -1.67793 0.850119 0
M  V30 4192 O 401.573 -1.80262 -0.19371 0
M  V30 4193 C 401.621 -1.45669 3.29868 0
M  V30 4194 O 400.725 -2.57013 3.22518 0
M  V30 4195 H 400.066 -0.195493 0.63457 0
M  V30 4196 H 402.596 0.0228214 2.04587 0
M  V30 4197 H 402.606 -1.82535 3.6489 0
M  V30 4198 H 401.281 -0.760314 4.08891 0
M  V30 4199 H 399.858 -2.22648 2.99136 0
M  V30 4200 N 402.043 -1.548 -0.295768 0
M  V30 4201 C 402.991 -1.86874 -1.38495 0
M  V30 4202 C 403.985 -0.742938 -1.52239 0
M  V30 4203 O 405.191 -0.926999 -1.54294 0
M  V30 4204 H 401.566 -0.592786 -0.462719 0
M  V30 4205 H 403.537 -2.77904 -1.08682 0
M  V30 4206 C 402.286 -2.13732 -2.74252 0
M  V30 4207 H 401.609 -2.99835 -2.64459 0
M  V30 4208 H 403.049 -2.4011 -3.49461 0
M  V30 4209 C 401.508 -0.937539 -3.23592 0
M  V30 4210 O 402.038 -0.160665 -4.01379 0
M  V30 4211 N 400.244 -0.741478 -2.80981 0
M  V30 4212 H 399.791 -1.37489 -2.1784 0
M  V30 4213 H 399.749 0.0597103 -3.14343 0
M  V30 4214 N 403.521 0.559213 -1.47345 0
M  V30 4215 C 404.451 1.67622 -1.62558 0
M  V30 4216 C 405.432 1.63331 -0.475087 0
M  V30 4217 O 406.617 1.80983 -0.704182 0
M  V30 4218 C 403.747 3.0626 -1.63774 0
M  V30 4219 C 402.701 3.25397 -2.7803 0
M  V30 4220 C 402.027 4.64801 -2.64318 0
M  V30 4221 C 403.327 3.10965 -4.19641 0
M  V30 4222 H 405.021 1.55146 -2.56067 0
M  V30 4223 H 402.567 0.744961 -1.23233 0
M  V30 4224 H 404.52 3.84247 -1.73008 0
M  V30 4225 H 403.244 3.1969 -0.66825 0
M  V30 4226 H 401.903 2.49817 -2.68304 0
M  V30 4227 H 401.551 4.75028 -1.65401 0
M  V30 4228 H 401.251 4.78555 -3.40968 0
M  V30 4229 H 402.775 5.44926 -2.75478 0
M  V30 4230 H 404.189 3.78772 -4.30354 0
M  V30 4231 H 402.586 3.36229 -4.97062 0
M  V30 4232 H 403.656 2.07736 -4.38148 0
M  V30 4233 N 404.999 1.35443 0.805782 0
M  V30 4234 C 405.946 1.28431 1.91766 0
M  V30 4235 C 406.916 0.156102 1.65365 0
M  V30 4236 O 408.101 0.339936 1.87747 0
M  V30 4237 C 405.241 1.06301 3.2832 0
M  V30 4238 C 404.354 2.2805 3.66902 0
M  V30 4239 C 403.489 1.99064 4.92491 0
M  V30 4240 C 402.528 3.16863 5.23703 0
M  V30 4241 N 401.665 2.87647 6.40471 0
M  V30 4242 H 406.505 2.23511 1.97096 0
M  V30 4243 H 404.042 1.11105 0.964054 0
M  V30 4244 H 406 0.915012 4.07042 0
M  V30 4245 H 404.63 0.148822 3.22457 0
M  V30 4246 H 403.682 2.53711 2.83434 0
M  V30 4247 H 404.994 3.1601 3.85927 0
M  V30 4248 H 404.148 1.81099 5.7904 0
M  V30 4249 H 402.887 1.0839 4.75503 0
M  V30 4250 H 401.892 3.35404 4.35642 0
M  V30 4251 H 403.117 4.08339 5.4262 0
M  V30 4252 H 401.063 1.99568 6.24907 0
M  V30 4253 H 400.98 3.69141 6.59751 0
M  V30 4254 H 402.248 2.73226 7.30047 0
M  V30 4255 N 406.477 -1.02803 1.19454 0
M  V30 4256 C 407.893 -1.28473 0.946937 0
M  V30 4257 C 408.093 -1.97881 -0.380202 0
M  V30 4258 O 407.149 -2.26719 -1.11151 0
M  V30 4259 C 408.462 -2.13099 2.12154 0
M  V30 4260 C 410.01 -2.26404 2.16126 0
M  V30 4261 C 410.485 -3.14402 3.33039 0
M  V30 4262 N 411.976 -3.21991 3.32981 0
M  V30 4263 C 412.711 -3.90272 4.20089 0
M  V30 4264 N 412.207 -4.60777 5.17355 0
M  V30 4265 N 414 -3.8668 4.07964 0
M  V30 4266 H 406.151 -0.561665 2.04839 0
M  V30 4267 H 408.414 -0.310438 0.89573 0
M  V30 4268 H 408.12 -1.69422 3.08203 0
M  V30 4269 H 407.994 -3.13813 2.09287 0
M  V30 4270 H 410.381 -2.69311 1.20647 0
M  V30 4271 H 410.462 -1.25237 2.23045 0
M  V30 4272 H 410.106 -2.72204 4.28798 0
M  V30 4273 H 410.036 -4.1563 3.23356 0
M  V30 4274 H 412.527 -2.71778 2.62574 0
M  V30 4275 H 412.84 -5.10513 5.80169 0
M  V30 4276 H 411.185 -4.5964 5.21302 0
M  V30 4277 H 414.376 -3.30739 3.31254 0
M  V30 4278 H 414.549 -4.39621 4.76064 0
M  V30 4279 N 407.956 -0.998596 -1.21925 0
M  V30 4280 C 409.202 -0.678667 -1.91107 0
M  V30 4281 C 409.535 0.78791 -1.77498 0
M  V30 4282 O 408.81 1.57043 -1.1475 0
M  V30 4283 C 409.093 -1.09245 -3.43129 0
M  V30 4284 C 408.946 -2.61801 -3.6576 0
M  V30 4285 C 410.265 -0.649984 -4.35274 0
M  V30 4286 H 407.384 -0.248025 -0.694012 0
M  V30 4287 H 410.026 -1.24314 -1.43688 0
M  V30 4288 H 408.176 -0.612171 -3.83647 0
M  V30 4289 H 409.848 -3.17543 -3.34611 0
M  V30 4290 H 408.091 -3.03609 -3.09845 0
M  V30 4291 H 408.762 -2.85804 -4.7225 0
M  V30 4292 H 411.238 -1.0626 -4.02303 0
M  V30 4293 H 410.114 -0.967743 -5.40302 0
M  V30 4294 H 410.375 0.449139 -4.39813 0
M  V30 4295 N 409.434 1.37368 -0.772513 0
M  V30 4296 C 410.662 2.03942 -0.348588 0
M  V30 4297 C 411.077 1.58264 1.02947 0
M  V30 4298 O 410.434 0.764246 1.65727 0
M  V30 4299 C 410.485 3.5946 -0.38351 0
M  V30 4300 O 410.206 4.03468 -1.70721 0
M  V30 4301 C 411.707 4.4327 0.0519152 0
M  V30 4302 H 408.927 0.654931 -0.145966 0
M  V30 4303 H 411.471 1.75686 -1.04665 0
M  V30 4304 H 409.626 3.86486 0.265978 0
M  V30 4305 H 410.04 4.97991 -1.64636 0
M  V30 4306 H 411.514 5.51995 -0.0236733 0
M  V30 4307 H 411.991 4.2514 1.10238 0
M  V30 4308 H 412.597 4.21471 -0.569415 0
M  V30 4309 N 410.912 0.523116 1.48665 0
M  V30 4310 C 411.842 -0.23231 2.32342 0
M  V30 4311 C 412.823 -0.941637 1.41659 0
M  V30 4312 O 414.008 -0.928751 1.70552 0
M  V30 4313 C 411.138 -1.28387 3.22698 0
M  V30 4314 C 410.092 -0.693098 4.22351 0
M  V30 4315 C 409.418 -1.8468 5.01794 0
M  V30 4316 C 410.718 0.33063 5.21252 0
M  V30 4317 H 412.412 0.466192 2.95748 0
M  V30 4318 H 409.958 0.225643 1.42221 0
M  V30 4319 H 411.911 -1.82024 3.80059 0
M  V30 4320 H 410.635 -2.01186 2.57278 0
M  V30 4321 H 409.294 -0.178299 3.66166 0
M  V30 4322 H 408.942 -2.56301 4.32804 0
M  V30 4323 H 408.642 -1.45747 5.69238 0
M  V30 4324 H 410.166 -2.38709 5.62006 0
M  V30 4325 H 411.58 -0.118407 5.73178 0
M  V30 4326 H 409.977 0.636974 5.9671 0
M  V30 4327 H 411.047 1.23883 4.68808 0
M  V30 4328 N 412.39 -1.55475 0.257931 0
M  V30 4329 C 413.3 -2.2549 -0.647425 0
M  V30 4330 C 414.316 -1.2748 -1.18427 0
M  V30 4331 O 415.492 -1.6038 -1.2182 0
M  V30 4332 C 412.557 -2.94916 -1.82278 0
M  V30 4333 C 411.618 -4.08363 -1.32432 0
M  V30 4334 C 410.851 -4.74469 -2.44366 0
M  V30 4335 O 411.074 -4.39701 -3.63344 0
M  V30 4336 O 410.008 -5.62763 -2.13497 0
M  V30 4337 H 413.834 -3.03593 -0.0807707 0
M  V30 4338 H 411.419 -1.49377 0.0259962 0
M  V30 4339 H 413.301 -3.38606 -2.50846 0
M  V30 4340 H 411.976 -2.19744 -2.37685 0
M  V30 4341 H 410.883 -3.69166 -0.605605 0
M  V30 4342 H 412.216 -4.85385 -0.816211 0
M  V30 4343 N 413.868 0.0150385 -1.57593 0
M  V30 4344 C 414.798 1.01047 -2.10503 0
M  V30 4345 C 415.779 1.36816 -1.01071 0
M  V30 4346 O 416.964 1.45455 -1.28672 0
M  V30 4347 C 414.094 2.30708 -2.59598 0
M  V30 4348 C 413.048 2.09142 -3.73421 0
M  V30 4349 C 412.374 3.44685 -4.08774 0
M  V30 4350 C 413.674 1.46619 -5.01298 0
M  V30 4351 H 415.368 0.569978 -2.93925 0
M  V30 4352 H 412.914 0.272724 -1.41394 0
M  V30 4353 H 414.867 3.00687 -2.95238 0
M  V30 4354 H 413.591 2.76843 -1.73279 0
M  V30 4355 H 412.25 1.41592 -3.38153 0
M  V30 4356 H 411.898 3.88495 -3.195 0
M  V30 4357 H 411.598 3.31077 -4.8545 0
M  V30 4358 H 413.122 4.16004 -4.4696 0
M  V30 4359 H 414.536 2.06535 -5.34805 0
M  V30 4360 H 412.933 1.43544 -5.82679 0
M  V30 4361 H 414.003 0.433611 -4.82957 0
M  V30 4362 N 415.346 1.54954 0.287554 0
M  V30 4363 C 416.594 1.74528 1.01904 0
M  V30 4364 C 416.915 0.541349 1.87335 0
M  V30 4365 O 416.185 -0.444108 1.908 0
M  V30 4366 H 414.765 0.643576 0.379235 0
M  V30 4367 H 417.427 1.92333 0.315294 0
M  V30 4368 H 416.523 2.64015 1.6644 0
M  V30 4369 N 416.824 -0.551391 1.4764 0
M  V30 4370 C 418.072 -1.30572 1.54258 0
M  V30 4371 C 418.393 -1.93877 0.208963 0
M  V30 4372 O 417.663 -1.80234 -0.767619 0
M  V30 4373 H 416.243 -0.484894 0.568231 0
M  V30 4374 H 418.905 -0.643402 1.83974 0
M  V30 4375 H 418.001 -2.09621 2.31226 0
M  V30 4376 N 418.302 -1.35869 -0.798587 0
M  V30 4377 C 419.249 -1.29446 -1.91082 0
M  V30 4378 C 420.219 -0.16487 -1.6528 0
M  V30 4379 O 421.404 -0.349888 -1.87564 0
M  V30 4380 C 418.544 -1.0804 -3.27752 0
M  V30 4381 C 417.657 -2.29993 -3.65687 0
M  V30 4382 C 416.792 -2.01673 -4.91428 0
M  V30 4383 C 415.831 -3.19636 -5.22015 0
M  V30 4384 N 414.968 -2.91039 -6.38937 0
M  V30 4385 H 419.808 -2.24553 -1.95907 0
M  V30 4386 H 417.345 -1.11615 -0.958148 0
M  V30 4387 H 419.303 -0.936586 -4.06551 0
M  V30 4388 H 417.933 -0.16592 -3.22373 0
M  V30 4389 H 416.985 -2.55211 -2.82085 0
M  V30 4390 H 418.297 -3.18052 -3.84245 0
M  V30 4391 H 417.451 -1.84168 -5.78072 0
M  V30 4392 H 416.19 -1.10911 -4.74921 0
M  V30 4393 H 415.195 -3.37709 -4.33858 0
M  V30 4394 H 416.42 -4.11211 -5.40447 0
M  V30 4395 H 414.366 -2.0288 -6.2384 0
M  V30 4396 H 414.283 -3.72635 -6.57784 0
M  V30 4397 H 415.551 -2.77093 -7.28587 0
M  V30 4398 N 419.78 1.02168 -1.19998 0
M  V30 4399 C 420.728 2.12717 -0.940967 0
M  V30 4400 C 421.722 1.69069 0.105841 0
M  V30 4401 O 422.928 1.79946 -0.0440583 0
M  V30 4402 H 419.303 0.695108 -0.28693 0
M  V30 4403 H 421.274 2.3175 -1.87975 0
M  V30 4404 C 420.023 3.44027 -0.504049 0
M  V30 4405 H 419.346 3.78036 -1.30112 0
M  V30 4406 H 420.786 4.22452 -0.361991 0
M  V30 4407 C 419.245 3.27678 0.782878 0
M  V30 4408 O 419.775 3.56949 1.84256 0
M  V30 4409 N 417.981 2.80943 0.742921 0
M  V30 4410 H 417.528 2.57322 -0.119687 0
M  V30 4411 H 417.486 2.70385 1.60435 0
M  V30 4412 N 421.258 1.00505 1.21394 0
M  V30 4413 C 422.669 0.721082 1.72213 0
M  V30 4414 C 423.02 -0.761263 1.80829 0
M  V30 4415 O 422.145 -1.59464 1.46288 0
M  V30 4416 C 422.74 1.30228 3.12772 0
M  V30 4417 C 421.299 1.06743 3.60947 0
M  V30 4418 C 420.446 1.41507 2.38477 0
M  V30 4419 H 423.397 1.17594 1.06571 0
M  V30 4420 H 423.418 0.686955 3.74247 0
M  V30 4421 H 422.93 2.38115 3.06468 0
M  V30 4422 H 421.031 0.00572162 3.726 0
M  V30 4423 H 421.144 1.73936 4.46411 0
M  V30 4424 H 419.508 0.833852 2.40664 0
M  V30 4425 H 420.291 2.50424 2.34824 0
M  V30 4426 N 422.737 -1.36956 0.779787 0
M  V30 4427 C 423.977 -2.01328 0.353043 0
M  V30 4428 C 424.341 -1.60558 -1.05286 0
M  V30 4429 O 425.542 -2.1745 -1.58016 0
M  V30 4430 C 423.813 -3.53874 0.500822 0
M  V30 4431 S 425.372 -4.38506 0.16053 0
M  V30 4432 H 422.19 -0.69799 0.13539 0
M  V30 4433 H 424.792 -1.67016 1.01617 0
M  V30 4434 H 423.496 -3.81034 1.52451 0
M  V30 4435 H 423.027 -3.92994 -0.178574 0
M  V30 4436 H 425.042 -4.85153 -1.04121 0
M  V30 4437 N 424.215 -0.530993 -1.48385 0
M  V30 4438 C 425.464 0.00474348 -2.01699 0
M  V30 4439 C 425.777 1.35227 -1.41325 0
M  V30 4440 O 426.983 1.97643 -1.86144 0
M  V30 4441 C 425.439 0.0588473 -3.59852 0
M  V30 4442 C 425.047 -1.28385 -4.2921 0
M  V30 4443 C 426.791 0.543358 -4.21008 0
M  V30 4444 C 424.698 -1.19028 -5.79298 0
M  V30 4445 H 423.628 0.00554317 -0.75398 0
M  V30 4446 H 426.279 -0.674924 -1.70637 0
M  V30 4447 H 424.661 0.803612 -3.8776 0
M  V30 4448 H 425.835 -2.04426 -4.12973 0
M  V30 4449 H 424.15 -1.70418 -3.7993 0
M  V30 4450 H 426.747 0.631351 -5.3096 0
M  V30 4451 H 427.09 1.54937 -3.86394 0
M  V30 4452 H 427.623 -0.145754 -3.97533 0
M  V30 4453 H 424.362 -2.17147 -6.18488 0
M  V30 4454 H 423.882 -0.471246 -5.97946 0
M  V30 4455 H 425.561 -0.881365 -6.40969 0
M  V30 4456 N 425.693 1.55336 -0.266172 0
M  V30 4457 C 426.939 1.99692 0.353681 0
M  V30 4458 C 427.272 1.1543 1.56172 0
M  V30 4459 O 426.547 0.222218 1.93226 0
M  V30 4460 C 426.83 3.52316 0.74466 0
M  V30 4461 C 426.683 4.47337 -0.470101 0
M  V30 4462 C 428.002 4.10588 1.58447 0
M  V30 4463 H 425.121 0.725961 0.12708 0
M  V30 4464 H 427.763 1.86336 -0.371333 0
M  V30 4465 H 425.913 3.63829 1.36239 0
M  V30 4466 H 427.585 4.4778 -1.10864 0
M  V30 4467 H 425.828 4.19364 -1.10978 0
M  V30 4468 H 426.499 5.51788 -0.15291 0
M  V30 4469 H 428.975 4.02297 1.06286 0
M  V30 4470 H 427.851 5.17607 1.82686 0
M  V30 4471 H 428.112 3.60253 2.56262 0
M  V30 4472 N 427.171 -0.0066808 1.57599 0
M  V30 4473 C 428.411 -0.697501 1.92131 0
M  V30 4474 C 428.775 -1.71306 0.867071 0
M  V30 4475 O 429.976 -2.45377 1.09743 0
M  V30 4476 C 428.247 -1.32978 3.3174 0
M  V30 4477 S 429.806 -2.04665 3.88146 0
M  V30 4478 H 426.624 -0.230555 0.672581 0
M  V30 4479 H 429.226 0.0484026 1.9544 0
M  V30 4480 H 427.93 -0.57772 4.06313 0
M  V30 4481 H 427.461 -2.11376 3.31789 0
M  V30 4482 H 429.476 -3.32097 3.68682 0
M  V30 4483 N 428.649 -1.55105 -0.279332 0
M  V30 4484 C 429.612 -1.86783 -1.32834 0
M  V30 4485 C 430.612 -0.74199 -1.42657 0
M  V30 4486 O 431.802 -1.0102 -1.41918 0
M  V30 4487 C 428.934 -2.06746 -2.71052 0
M  V30 4488 H 430.127 -2.8055 -1.05979 0
M  V30 4489 H 427.68 -1.47499 -0.517087 0
M  V30 4490 H 428.415 -1.15339 -3.03097 0
M  V30 4491 H 428.2 -2.88711 -2.65309 0
M  V30 4492 H 429.69 -2.32549 -3.46858 0
M  V30 4493 N 430.127 0.543554 -1.4793 0
M  V30 4494 C 431.404 1.30458 -1.4574 0
M  V30 4495 C 431.784 2.1048 -0.161692 0
M  V30 4496 O 431.132 2.11831 0.856734 0
M  V30 4497 C 431.342 2.19754 -2.71126 0
M  V30 4498 C 432.69 2.80334 -3.18901 0
M  V30 4499 O 433.714 2.30049 -2.71948 0
M  V30 4500 O 432.573 3.71766 -4.00565 0
M  V30 4501 H 429.667 0.588117 -0.581418 0
M  V30 4502 H 432.213 0.561328 -1.60147 0
M  V30 4503 H 430.985 1.60316 -3.56952 0
M  V30 4504 H 430.608 3.01351 -2.59371 0
M  V30 4505 N 431.605 1.3629 0.791371 0
M  V30 4506 C 432.568 1.30309 1.88553 0
M  V30 4507 C 433.568 0.211204 1.59407 0
M  V30 4508 O 434.758 0.465865 1.67855 0
M  V30 4509 C 431.89 1.01956 3.25297 0
M  V30 4510 H 433.083 2.27614 1.95273 0
M  V30 4511 H 430.636 1.21035 0.988953 0
M  V30 4512 H 431.371 0.050998 3.2426 0
M  V30 4513 H 431.156 1.80968 3.4784 0
M  V30 4514 H 432.646 1.0037 4.05359 0
M  V30 4515 N 433.083 -1.0153 1.20538 0
M  V30 4516 C 434.36 -1.72327 0.925343 0
M  V30 4517 C 434.74 -2.03383 -0.565547 0
M  V30 4518 O 434.088 -1.69934 -1.52757 0
M  V30 4519 C 434.298 -2.9902 1.79967 0
M  V30 4520 C 435.646 -3.72258 2.04228 0
M  V30 4521 O 436.67 -3.08979 1.77231 0
M  V30 4522 O 435.529 -4.86053 2.4983 0
M  V30 4523 H 432.623 -0.751099 0.346092 0
M  V30 4524 H 435.169 -1.07366 1.31417 0
M  V30 4525 H 433.941 -2.72402 2.80915 0
M  V30 4526 H 433.564 -3.71721 1.41099 0
M  V30 4527 N 434.561 -1.01147 -1.20859 0
M  V30 4528 C 435.491 -0.597663 -2.25722 0
M  V30 4529 C 436.472 0.384744 -1.65692 0
M  V30 4530 O 437.657 0.271303 -1.92296 0
M  V30 4531 C 434.787 0.0700149 -3.47229 0
M  V30 4532 C 433.741 -0.832843 -4.19819 0
M  V30 4533 C 433.067 -0.0312202 -5.34691 0
M  V30 4534 C 434.367 -2.1385 -4.76514 0
M  V30 4535 H 436.061 -1.47423 -2.60589 0
M  V30 4536 H 433.607 -0.710301 -1.25263 0
M  V30 4537 H 435.56 0.37103 -4.19763 0
M  V30 4538 H 434.284 0.981259 -3.11511 0
M  V30 4539 H 432.943 -1.11778 -3.49144 0
M  V30 4540 H 432.591 0.881515 -4.95215 0
M  V30 4541 H 432.291 -0.632434 -5.84187 0
M  V30 4542 H 433.815 0.26346 -6.10031 0
M  V30 4543 H 435.229 -1.9002 -5.40893 0
M  V30 4544 H 433.626 -2.69012 -5.36426 0
M  V30 4545 H 434.696 -2.80495 -3.95538 0
M  V30 4546 N 436.039 1.36541 -0.78704 0
M  V30 4547 C 437.316 1.9355 -0.282424 0
M  V30 4548 C 437.696 1.71919 1.22503 0
M  V30 4549 O 437.044 1.07677 2.01539 0
M  V30 4550 C 437.254 3.4246 -0.672462 0
M  V30 4551 C 438.602 4.19582 -0.650863 0
M  V30 4552 O 439.626 3.50889 -0.612789 0
M  V30 4553 O 438.485 5.42106 -0.691623 0
M  V30 4554 H 435.579 0.824091 -0.0693 0
M  V30 4555 H 438.125 1.45736 -0.869423 0
M  V30 4556 H 436.897 3.51851 -1.71221 0
M  V30 4557 H 436.52 3.97556 -0.0592211 0
M  V30 4558 N 437.518 0.538854 1.48102 0
M  V30 4559 C 438.448 -0.207654 2.32575 0
M  V30 4560 C 439.429 -0.926559 1.4265 0
M  V30 4561 O 440.614 -0.91061 1.71527 0
M  V30 4562 C 437.744 -1.24957 3.24042 0
M  V30 4563 C 436.698 -0.648263 4.23062 0
M  V30 4564 C 436.024 -1.79348 5.03725 0
M  V30 4565 C 437.324 0.385897 5.20872 0
M  V30 4566 H 439.018 0.497534 2.95237 0
M  V30 4567 H 436.564 0.240715 1.41974 0
M  V30 4568 H 438.517 -1.77983 3.81969 0
M  V30 4569 H 437.241 -1.98446 2.59397 0
M  V30 4570 H 435.9 -0.139452 3.66335 0
M  V30 4571 H 435.548 -2.51696 4.35498 0
M  V30 4572 H 435.248 -1.39702 5.70751 0
M  V30 4573 H 436.772 -2.32735 5.64506 0
M  V30 4574 H 438.186 -0.057607 5.73271 0
M  V30 4575 H 436.583 0.700227 5.96001 0
M  V30 4576 H 437.653 1.28848 4.67468 0
M  V30 4577 N 438.996 -1.55193 0.274407 0
M  V30 4578 C 439.959 -2.212 -0.600279 0
M  V30 4579 C 440.959 -1.18963 -1.08187 0
M  V30 4580 O 442.149 -1.43873 -0.982158 0
M  V30 4581 C 439.281 -2.87739 -1.82809 0
M  V30 4582 H 440.474 -2.9989 -0.0239682 0
M  V30 4583 H 438.027 -1.5628 0.0250192 0
M  V30 4584 H 438.762 -2.13058 -2.44493 0
M  V30 4585 H 438.547 -3.62658 -1.49069 0
M  V30 4586 H 440.037 -3.38171 -2.45011 0
M  V30 4587 N 440.474 -0.00167713 -1.576 0
M  V30 4588 C 441.72 0.683832 -1.90923 0
M  V30 4589 C 442.053 1.7333 -0.875799 0
M  V30 4590 O 441.328 1.94215 0.10525 0
M  V30 4591 C 441.611 1.32543 -3.3482 0
M  V30 4592 C 441.464 0.287387 -4.48881 0
M  V30 4593 C 442.783 2.25114 -3.78169 0
M  V30 4594 H 439.902 0.247125 -0.694333 0
M  V30 4595 H 442.544 -0.0533149 -1.89925 0
M  V30 4596 H 440.694 1.95372 -3.35801 0
M  V30 4597 H 442.366 -0.341346 -4.60035 0
M  V30 4598 H 440.609 -0.39017 -4.32042 0
M  V30 4599 H 441.28 0.775393 -5.46527 0
M  V30 4600 H 443.756 1.723 -3.7875 0
M  V30 4601 H 442.632 2.66971 -4.79602 0
M  V30 4602 H 442.893 3.13092 -3.12131 0
M  V30 4603 N 441.952 1.55251 0.271103 0
M  V30 4604 C 442.862 1.9136 1.35714 0
M  V30 4605 C 443.878 0.811075 1.5394 0
M  V30 4606 O 445.054 1.11031 1.6803 0
M  V30 4607 C 442.119 2.1798 2.69603 0
M  V30 4608 C 441.18 3.4153 2.60107 0
M  V30 4609 C 440.413 3.66871 3.8761 0
M  V30 4610 O 440.636 2.94689 4.8838 0
M  V30 4611 O 439.57 4.60405 3.87699 0
M  V30 4612 H 443.396 2.83815 1.08088 0
M  V30 4613 H 440.981 1.41821 0.469792 0
M  V30 4614 H 442.863 2.36518 3.48765 0
M  V30 4615 H 441.538 1.28708 2.97012 0
M  V30 4616 H 440.445 3.28325 1.79314 0
M  V30 4617 H 441.778 4.31027 2.37647 0
M  V30 4618 N 443.43 -0.535701 1.48216 0
M  V30 4619 C 444.67 -1.30238 1.57536 0
M  V30 4620 C 445.034 -1.90479 0.241229 0
M  V30 4621 O 446.235 -2.67983 0.20938 0
M  V30 4622 C 444.506 -2.3669 2.67792 0
M  V30 4623 S 446.065 -3.23159 2.9684 0
M  V30 4624 H 442.883 -0.443093 0.556048 0
M  V30 4625 H 445.485 -0.610937 1.85709 0
M  V30 4626 H 444.189 -1.90905 3.63296 0
M  V30 4627 H 443.72 -3.10548 2.41502 0
M  V30 4628 H 445.735 -4.36647 2.35699 0
M  V30 4629 N 444.908 -1.36708 -0.784132 0
M  V30 4630 C 445.871 -1.31307 -1.87859 0
M  V30 4631 C 446.871 -0.219654 -1.59293 0
M  V30 4632 O 448.061 -0.47476 -1.67606 0
M  V30 4633 C 445.193 -1.03679 -3.24751 0
M  V30 4634 H 446.386 -2.28647 -1.94064 0
M  V30 4635 H 443.939 -1.21558 -0.98252 0
M  V30 4636 H 444.674 -0.0681936 -3.24228 0
M  V30 4637 H 444.459 -1.82811 -3.46876 0
M  V30 4638 H 445.949 -1.02518 -4.04821 0
M  V30 4639 N 446.386 1.0089 -1.21074 0
M  V30 4640 C 447.336 2.0799 -0.934034 0
M  V30 4641 C 448.32 1.60529 0.10919 0
M  V30 4642 O 449.512 1.76722 -0.0992198 0
M  V30 4643 C 446.641 3.39693 -0.496334 0
M  V30 4644 C 445.727 3.93833 -1.57341 0
M  V30 4645 N 446.118 4.21388 -2.7976 0
M  V30 4646 C 444.416 4.22067 -1.44137 0
M  V30 4647 C 445.117 4.65156 -3.49292 0
M  V30 4648 N 444.093 4.67895 -2.76722 0
M  V30 4649 H 447.895 2.27213 -1.86417 0
M  V30 4650 H 445.409 1.18927 -1.10589 0
M  V30 4651 H 447.406 4.15962 -0.279471 0
M  V30 4652 H 446.066 3.21879 0.427084 0
M  V30 4653 H 447.077 4.10061 -3.1634 0
M  V30 4654 H 443.754 4.1341 -0.582947 0
M  V30 4655 H 445.144 4.95231 -4.54088 0
M  V30 4656 N 447.864 1.01787 1.20321 0
M  V30 4657 C 448.796 0.547357 2.22568 0
M  V30 4658 C 449.809 -0.370922 1.58518 0
M  V30 4659 O 450.998 -0.169067 1.77698 0
M  V30 4660 C 448.098 -0.223031 3.38165 0
M  V30 4661 C 447.271 0.697472 4.31803 0
M  V30 4662 C 446.33 -0.025562 5.26194 0
M  V30 4663 O 445.356 0.597367 5.66057 0
M  V30 4664 N 446.558 -1.29999 5.65757 0
M  V30 4665 H 449.323 1.42668 2.63564 0
M  V30 4666 H 446.884 0.895552 1.34876 0
M  V30 4667 H 448.876 -0.716002 3.98316 0
M  V30 4668 H 447.446 -1.00366 2.9605 0
M  V30 4669 H 446.666 1.37073 3.69601 0
M  V30 4670 H 447.954 1.32347 4.91286 0
M  V30 4671 H 447.352 -1.827 5.35385 0
M  V30 4672 H 445.909 -1.73766 6.28211 0
M  V30 4673 N 449.342 -1.36122 0.79427 0
M  V30 4674 C 450.59 -1.98718 0.368177 0
M  V30 4675 C 450.911 -1.63345 -1.06506 0
M  V30 4676 O 450.181 -0.909825 -1.73491 0
M  V30 4677 H 448.761 -0.735038 0.133146 0
M  V30 4678 H 451.423 -1.66239 1.01739 0
M  V30 4679 H 450.519 -3.08633 0.463923 0
M  V30 4680 N 450.82 -0.546701 -1.47814 0
M  V30 4681 C 452.066 -0.0187684 -2.02791 0
M  V30 4682 C 452.399 1.32338 -1.42128 0
M  V30 4683 O 451.674 1.85867 -0.573023 0
M  V30 4684 C 451.957 0.0854985 -3.59998 0
M  V30 4685 C 451.81 -1.283 -4.31114 0
M  V30 4686 C 453.129 0.80412 -4.32691 0
M  V30 4687 H 450.248 -0.0082946 -0.736953 0
M  V30 4688 H 452.89 -0.706962 -1.76358 0
M  V30 4689 H 451.04 0.671609 -3.82651 0
M  V30 4690 H 452.712 -1.91151 -4.19832 0
M  V30 4691 H 450.955 -1.86049 -3.91878 0
M  V30 4692 H 451.626 -1.16287 -5.39612 0
M  V30 4693 H 454.102 0.306576 -4.14969 0
M  V30 4694 H 452.978 0.846011 -5.42341 0
M  V30 4695 H 453.239 1.85802 -4.01161 0
M  V30 4696 N 452.299 1.55045 -0.282633 0
M  V30 4697 C 453.546 1.9976 0.33199 0
M  V30 4698 C 453.874 1.17105 1.55295 0
M  V30 4699 O 453.129 0.230599 1.94337 0
M  V30 4700 C 453.428 3.49422 0.750938 0
M  V30 4701 C 453.094 4.4941 -0.366228 0
M  V30 4702 C 451.756 4.76471 -0.672964 0
M  V30 4703 C 454.108 5.09054 -1.11864 0
M  V30 4704 C 451.436 5.60442 -1.73556 0
M  V30 4705 C 453.788 5.9418 -2.17102 0
M  V30 4706 C 452.452 6.19558 -2.48402 0
M  V30 4707 H 451.722 0.730974 0.121484 0
M  V30 4708 H 454.369 1.8732 -0.39791 0
M  V30 4709 H 452.674 3.59377 1.56063 0
M  V30 4710 H 454.371 3.81432 1.23736 0
M  V30 4711 H 450.961 4.2844 -0.117041 0
M  V30 4712 H 455.145 4.88165 -0.894925 0
M  V30 4713 H 450.401 5.78349 -1.983 0
M  V30 4714 H 454.575 6.39427 -2.75873 0
M  V30 4715 H 452.202 6.84417 -3.30874 0
M  V30 4716 N 453.777 0.010035 1.57597 0
M  V30 4717 C 455.024 -0.6727 1.91 0
M  V30 4718 C 455.352 -1.73219 0.884614 0
M  V30 4719 O 454.607 -1.95395 -0.109215 0
M  V30 4720 C 454.906 -1.34434 3.31153 0
M  V30 4721 C 454.572 -0.417083 4.48967 0
M  V30 4722 C 453.234 -0.161809 4.80928 0
M  V30 4723 C 455.586 0.220753 5.20732 0
M  V30 4724 C 452.914 0.739426 5.82022 0
M  V30 4725 C 455.266 1.10993 6.22787 0
M  V30 4726 C 453.93 1.37428 6.532 0
M  V30 4727 H 453.2 -0.246158 0.698918 0
M  V30 4728 H 455.847 0.0677145 1.9138 0
M  V30 4729 H 454.152 -2.15905 3.26944 0
M  V30 4730 H 455.849 -1.87883 3.54261 0
M  V30 4731 H 452.439 -0.626217 4.24001 0
M  V30 4732 H 456.623 0.0365643 4.96287 0
M  V30 4733 H 451.879 0.952139 6.03941 0
M  V30 4734 H 456.053 1.61046 6.77523 0
M  V30 4735 H 453.68 2.0743 7.31353 0
M  V30 4736 N 455.255 -1.55392 -0.262866 0
M  V30 4737 C 456.203 -1.8977 -1.345 0
M  V30 4738 C 457.197 -0.775063 -1.50629 0
M  V30 4739 O 458.403 -0.959519 -1.52293 0
M  V30 4740 H 454.778 -0.602467 -0.450041 0
M  V30 4741 H 456.749 -2.80147 -1.02762 0
M  V30 4742 C 455.498 -2.19501 -2.69657 0
M  V30 4743 H 454.821 -3.05378 -2.5804 0
M  V30 4744 H 456.261 -2.47469 -3.44289 0
M  V30 4745 C 454.72 -1.00597 -3.21531 0
M  V30 4746 O 455.25 -0.245768 -4.00947 0
M  V30 4747 N 453.456 -0.800911 -2.79345 0
M  V30 4748 H 453.003 -1.42079 -2.14875 0
M  V30 4749 H 452.961 -0.00697996 -3.14399 0
M  V30 4750 N 456.733 0.527833 -1.48498 0
M  V30 4751 C 457.665 1.6482 -1.5927 0
M  V30 4752 C 458.678 1.55659 -0.476869 0
M  V30 4753 O 459.867 1.62081 -0.747806 0
M  V30 4754 C 456.967 3.0348 -1.50842 0
M  V30 4755 C 456.14 3.381 -2.77502 0
M  V30 4756 C 455.199 4.5605 -2.62497 0
M  V30 4757 O 454.225 4.59165 -3.36387 0
M  V30 4758 N 455.427 5.54353 -1.72257 0
M  V30 4759 H 458.192 1.56015 -2.55889 0
M  V30 4760 H 455.753 0.715152 -1.45249 0
M  V30 4761 H 457.745 3.80264 -1.38496 0
M  V30 4762 H 456.315 3.06352 -0.621887 0
M  V30 4763 H 455.535 2.50473 -3.04396 0
M  V30 4764 H 456.823 3.58017 -3.61527 0
M  V30 4765 H 456.221 5.54617 -1.11431 0
M  V30 4766 H 454.778 6.30347 -1.65849 0
M  V30 4767 N 458.211 1.37122 0.776871 0
M  V30 4768 C 459.459 1.31787 1.53221 0
M  V30 4769 C 459.78 -0.0987589 1.9475 0
M  V30 4770 O 459.05 -1.0417 1.65908 0
M  V30 4771 H 457.63 0.484839 0.568278 0
M  V30 4772 H 460.292 1.71556 0.924917 0
M  V30 4773 H 459.388 1.95355 2.43398 0
M  V30 4774 N 459.689 -1.00246 1.21608 0
M  V30 4775 C 460.621 -2.09244 0.935401 0
M  V30 4776 C 461.634 -1.62592 -0.0823594 0
M  V30 4777 O 462.823 -1.77865 0.150456 0
M  V30 4778 C 459.923 -3.36724 0.383453 0
M  V30 4779 C 459.096 -4.1245 1.45615 0
M  V30 4780 C 458.155 -5.18219 0.912991 0
M  V30 4781 O 457.181 -5.46337 1.59701 0
M  V30 4782 N 458.383 -5.7987 -0.270478 0
M  V30 4783 H 461.148 -2.33905 1.87373 0
M  V30 4784 H 458.709 -1.16748 1.12167 0
M  V30 4785 H 460.701 -4.047 0.00562157 0
M  V30 4786 H 459.271 -3.09201 -0.459758 0
M  V30 4787 H 458.491 -3.39241 2.00772 0
M  V30 4788 H 459.779 -4.59819 2.17817 0
M  V30 4789 H 459.177 -5.59381 -0.843195 0
M  V30 4790 H 457.734 -6.49126 -0.589794 0
M  V30 4791 N 461.167 -1.02423 -1.1978 0
M  V30 4792 C 462.407 -0.726635 -1.91048 0
M  V30 4793 C 462.771 0.730947 -1.77542 0
M  V30 4794 O 463.972 1.14141 -2.43362 0
M  V30 4795 C 462.243 -1.15964 -3.38064 0
M  V30 4796 S 463.802 -0.985172 -4.27598 0
M  V30 4797 H 460.62 -0.264679 -0.659899 0
M  V30 4798 H 463.222 -1.31309 -1.44838 0
M  V30 4799 H 461.926 -2.21619 -3.45417 0
M  V30 4800 H 461.457 -0.566274 -3.89303 0
M  V30 4801 H 463.472 0.106946 -4.96085 0
M  V30 4802 N 462.645 1.35699 -0.801477 0
M  V30 4803 C 463.885 2.00741 -0.385027 0
M  V30 4804 C 464.249 1.62213 1.02718 0
M  V30 4805 O 465.45 2.19936 1.54537 0
M  V30 4806 C 463.721 3.53032 -0.557057 0
M  V30 4807 S 465.28 4.38195 -0.230272 0
M  V30 4808 H 462.098 0.695748 -0.146477 0
M  V30 4809 H 464.7 1.65378 -1.04261 0
M  V30 4810 H 463.404 3.7856 -1.58494 0
M  V30 4811 H 462.935 3.93229 0.116029 0
M  V30 4812 H 464.95 4.86748 0.963895 0
M  V30 4813 N 464.123 0.554532 1.47522 0
M  V30 4814 C 465.351 0.034257 2.06872 0
M  V30 4815 C 465.766 -1.25826 1.40759 0
M  V30 4816 O 465.123 -1.75425 0.503217 0
M  V30 4817 C 465.174 -0.167827 3.6111 0
M  V30 4818 O 464.895 1.07351 4.24744 0
M  V30 4819 C 466.396 -0.72569 4.3732 0
M  V30 4820 H 463.616 0.0446275 0.669514 0
M  V30 4821 H 466.16 0.767181 1.89564 0
M  V30 4822 H 464.315 -0.850872 3.7794 0
M  V30 4823 H 464.729 0.869563 5.17242 0
M  V30 4824 H 466.203 -0.816394 5.45929 0
M  V30 4825 H 466.68 -1.73635 4.0342 0
M  V30 4826 H 467.286 -0.0784292 4.25228 0
M  V30 4827 N 465.601 -1.54893 0.290851 0
M  V30 4828 C 466.564 -2.21824 -0.576784 0
M  V30 4829 C 467.564 -1.20104 -1.06919 0
M  V30 4830 O 468.754 -1.44906 -0.966843 0
M  V30 4831 C 465.886 -2.89662 -1.79747 0
M  V30 4832 H 467.079 -2.99899 0.00784051 0
M  V30 4833 H 464.632 -1.56245 0.0415934 0
M  V30 4834 H 465.367 -2.15639 -2.42219 0
M  V30 4835 H 465.152 -3.64219 -1.45214 0
M  V30 4836 H 466.642 -3.4075 -2.4141 0
M  V30 4837 N 467.08 -0.0183926 -1.57589 0
M  V30 4838 C 468.043 0.951986 -2.08494 0
M  V30 4839 C 469.043 1.26092 -0.997874 0
M  V30 4840 O 470.233 1.20304 -1.25987 0
M  V30 4841 C 467.365 2.27165 -2.54182 0
M  V30 4842 H 468.558 0.511307 -2.95509 0
M  V30 4843 H 466.111 0.229444 -1.54607 0
M  V30 4844 H 466.846 2.75884 -1.70465 0
M  V30 4845 H 466.631 2.06057 -3.33591 0
M  V30 4846 H 468.121 2.9674 -2.93828 0
M  V30 4847 N 468.558 1.5553 0.254621 0
M  V30 4848 C 469.783 1.81383 1.00573 0
M  V30 4849 C 470.208 0.594419 1.78461 0
M  V30 4850 O 469.566 -0.456403 1.75461 0
M  V30 4851 C 469.614 3.04892 1.92545 0
M  V30 4852 O 468.718 2.81266 3.01601 0
M  V30 4853 H 468.059 0.598969 0.286587 0
M  V30 4854 H 470.589 2.02703 0.277952 0
M  V30 4855 H 470.599 3.34119 2.34155 0
M  V30 4856 H 469.274 3.93287 1.3527 0
M  V30 4857 H 467.851 2.63185 2.64174 0
M  V30 4858 N 470.036 -0.519951 1.48776 0
M  V30 4859 C 471.452 -0.849418 1.35119 0
M  V30 4860 C 471.652 -1.98077 0.36982 0
M  V30 4861 O 470.708 -2.51664 -0.205359 0
M  V30 4862 C 472.021 -1.20748 2.75391 0
M  V30 4863 C 473.569 -1.31679 2.83954 0
M  V30 4864 C 474.044 -1.70824 4.24951 0
M  V30 4865 N 475.535 -1.77908 4.27672 0
M  V30 4866 C 476.27 -2.09603 5.33717 0
M  V30 4867 N 475.766 -2.39652 6.5003 0
M  V30 4868 N 477.559 -2.10694 5.21119 0
M  V30 4869 H 469.71 0.226377 2.1119 0
M  V30 4870 H 471.973 0.0386519 0.947212 0
M  V30 4871 H 471.679 -0.449703 3.48813 0
M  V30 4872 H 471.553 -2.15534 3.09556 0
M  V30 4873 H 473.94 -2.06532 2.10781 0
M  V30 4874 H 474.021 -0.3499 2.53396 0
M  V30 4875 H 473.665 -0.965282 4.98643 0
M  V30 4876 H 473.595 -2.6858 4.52959 0
M  V30 4877 H 476.086 -1.56923 3.43779 0
M  V30 4878 H 476.399 -2.6297 7.26682 0
M  V30 4879 H 474.744 -2.37149 6.53288 0
M  V30 4880 H 477.935 -1.86682 4.29264 0
M  V30 4881 H 478.108 -2.35062 6.03863 0
M  V30 4882 N 471.514 -1.37532 -0.769588 0
M  V30 4883 C 472.76 -1.33057 -1.53048 0
M  V30 4884 C 473.093 0.0841865 -1.94017 0
M  V30 4885 O 472.368 1.04198 -1.64235 0
M  V30 4886 C 472.651 -2.27166 -2.79406 0
M  V30 4887 C 472.504 -3.77429 -2.44677 0
M  V30 4888 C 473.823 -2.19683 -3.81349 0
M  V30 4889 H 470.942 -0.484655 -0.555228 0
M  V30 4890 H 473.584 -1.68251 -0.882702 0
M  V30 4891 H 471.734 -1.97283 -3.34682 0
M  V30 4892 H 473.406 -4.17918 -1.953 0
M  V30 4893 H 471.649 -3.95892 -1.77346 0
M  V30 4894 H 472.32 -4.38716 -3.35011 0
M  V30 4895 H 474.796 -2.46029 -3.35573 0
M  V30 4896 H 473.672 -2.87668 -4.67481 0
M  V30 4897 H 473.933 -1.19045 -4.25771 0
M  V30 4898 N 472.992 0.995999 -1.22138 0
M  V30 4899 C 474.239 1.7351 -1.04406 0
M  V30 4900 C 474.567 1.89884 0.421244 0
M  V30 4901 O 473.822 1.43683 1.32867 0
M  V30 4902 C 474.121 3.14553 -1.6968 0
M  V30 4903 C 473.787 3.18102 -3.19565 0
M  V30 4904 C 472.449 3.18778 -3.60464 0
M  V30 4905 C 474.801 3.14636 -4.15516 0
M  V30 4906 C 472.129 3.13684 -4.95801 0
M  V30 4907 C 474.481 3.11084 -5.50826 0
M  V30 4908 C 473.145 3.10074 -5.91109 0
M  V30 4909 H 472.415 0.634916 -0.38205 0
M  V30 4910 H 475.062 1.1667 -1.51857 0
M  V30 4911 H 473.367 3.74682 -1.14546 0
M  V30 4912 H 475.064 3.70477 -1.53454 0
M  V30 4913 H 471.654 3.18324 -2.86998 0
M  V30 4914 H 475.838 3.13266 -3.84939 0
M  V30 4915 H 471.094 3.11245 -5.26247 0
M  V30 4916 H 475.268 3.07357 -6.24904 0
M  V30 4917 H 472.895 3.05882 -6.95946 0
M  V30 4918 N 474.47 1.03057 1.19235 0
M  V30 4919 C 475.716 0.729098 1.89241 0
M  V30 4920 C 476.049 -0.740573 1.79525 0
M  V30 4921 O 475.324 -1.53946 1.18874 0
M  V30 4922 C 475.607 1.18304 3.40112 0
M  V30 4923 C 475.46 2.71406 3.5869 0
M  V30 4924 C 476.779 0.765161 4.33397 0
M  V30 4925 H 473.898 0.266338 0.687192 0
M  V30 4926 H 476.54 1.28079 1.40341 0
M  V30 4927 H 474.69 0.713672 3.81889 0
M  V30 4928 H 476.362 3.26303 3.26074 0
M  V30 4929 H 474.605 3.11717 3.01687 0
M  V30 4930 H 475.276 2.98225 4.64506 0
M  V30 4931 H 477.752 1.16889 3.99345 0
M  V30 4932 H 476.628 1.11065 5.37546 0
M  V30 4933 H 476.889 -0.332372 4.40849 0
M  V30 4934 N 475.948 -1.35272 0.808662 0
M  V30 4935 C 476.858 -2.33546 0.222079 0
M  V30 4936 C 477.874 -1.6196 -0.636011 0
M  V30 4937 O 479.05 -1.93822 -0.547274 0
M  V30 4938 C 476.115 -3.41148 -0.61795 0
M  V30 4939 C 475.176 -4.28507 0.260875 0
M  V30 4940 C 474.409 -5.3097 -0.539156 0
M  V30 4941 O 474.632 -5.42123 -1.77367 0
M  V30 4942 O 473.566 -6.01858 0.0710526 0
M  V30 4943 H 477.392 -2.85515 1.03512 0
M  V30 4944 H 474.977 -1.38079 0.570495 0
M  V30 4945 H 476.859 -4.06889 -1.09634 0
M  V30 4946 H 475.534 -2.91447 -1.40855 0
M  V30 4947 H 474.441 -3.6574 0.786451 0
M  V30 4948 H 475.774 -4.81611 1.01547 0
M  V30 4949 N 477.426 -0.562348 -1.47226 0
M  V30 4950 C 478.336 0.185466 -2.33866 0
M  V30 4951 C 479.352 0.906713 -1.48508 0
M  V30 4952 O 480.528 0.874458 -1.81425 0
M  V30 4953 C 477.593 1.19904 -3.25306 0
M  V30 4954 C 476.654 0.484669 -4.26555 0
M  V30 4955 C 475.887 1.44996 -5.13626 0
M  V30 4956 O 476.11 2.68515 -5.03245 0
M  V30 4957 O 475.044 0.971642 -5.94006 0
M  V30 4958 H 478.87 -0.525361 -2.99121 0
M  V30 4959 H 476.455 -0.322916 -1.45868 0
M  V30 4960 H 478.337 1.78399 -3.81774 0
M  V30 4961 H 477.012 1.8917 -2.62672 0
M  V30 4962 H 475.919 -0.141605 -3.73832 0
M  V30 4963 H 477.252 -0.166634 -4.91918 0
M  V30 4964 N 478.904 1.54736 -0.299062 0
M  V30 4965 C 479.836 2.20891 0.61153 0
M  V30 4966 C 480.849 1.20104 1.09904 0
M  V30 4967 O 482.038 1.46707 1.01683 0
M  V30 4968 C 479.138 2.84018 1.84897 0
M  V30 4969 C 478.311 4.10719 1.50428 0
M  V30 4970 C 477.37 4.57667 2.59667 0
M  V30 4971 O 476.396 5.2291 2.24842 0
M  V30 4972 N 477.598 4.29821 3.90172 0
M  V30 4973 H 480.363 2.99666 0.0452001 0
M  V30 4974 H 477.924 1.61446 -0.121178 0
M  V30 4975 H 479.916 3.1236 2.5732 0
M  V30 4976 H 478.486 2.09095 2.32375 0
M  V30 4977 H 477.706 3.89408 0.612781 0
M  V30 4978 H 478.994 4.93223 1.24934 0
M  V30 4979 H 478.392 3.77549 4.21276 0
M  V30 4980 H 476.949 4.62877 4.58899 0
M  V30 4981 N 480.382 0.0267497 1.57577 0
M  V30 4982 C 481.628 -0.653371 1.91987 0
M  V30 4983 C 481.961 -1.71915 0.903263 0
M  V30 4984 O 481.236 -1.94358 -0.0743387 0
M  V30 4985 C 481.519 -1.272 3.36886 0
M  V30 4986 C 481.372 -0.215938 4.49281 0
M  V30 4987 C 482.691 -2.19069 3.81703 0
M  V30 4988 H 479.81 -0.236047 0.698177 0
M  V30 4989 H 482.452 0.0835236 1.89816 0
M  V30 4990 H 480.602 -1.90005 3.38866 0
M  V30 4991 H 482.274 0.41449 4.59434 0
M  V30 4992 H 480.517 0.458855 4.31366 0
M  V30 4993 H 481.188 -0.688347 5.47691 0
M  V30 4994 H 483.664 -1.66253 3.81444 0
M  V30 4995 H 482.54 -2.59307 4.83788 0
M  V30 4996 H 482.801 -3.08087 3.17072 0
M  V30 4997 N 481.861 -1.55662 -0.24637 0
M  V30 4998 C 483.091 -1.81312 -0.990438 0
M  V30 4999 C 483.499 -0.600234 -1.79426 0
M  V30 5000 O 482.842 0.440537 -1.78339 0
M  V30 5001 C 482.904 -3.0032 -1.97607 0
M  V30 5002 C 482.568 -4.36322 -1.35912 0
M  V30 5003 C 483.565 -5.14295 -0.761348 0
M  V30 5004 C 481.25 -4.83019 -1.37833 0
M  V30 5005 C 483.244 -6.37114 -0.190998 0
M  V30 5006 C 480.931 -6.05786 -0.804128 0
M  V30 5007 C 481.929 -6.82672 -0.211489 0
M  V30 5008 O 481.617 -8.03121 0.353845 0
M  V30 5009 H 481.349 -0.607233 -0.297058 0
M  V30 5010 H 483.903 -2.0356 -0.274351 0
M  V30 5011 H 482.133 -2.73829 -2.73047 0
M  V30 5012 H 483.822 -3.13057 -2.58361 0
M  V30 5013 H 484.588 -4.79337 -0.739013 0
M  V30 5014 H 480.467 -4.23165 -1.829 0
M  V30 5015 H 484.011 -6.97069 0.272206 0
M  V30 5016 H 479.908 -6.40222 -0.823792 0
M  V30 5017 H 480.676 -8.18131 0.245761 0
M  V30 5018 N 483.339 0.512053 -1.4905 0
M  V30 5019 C 484.564 1.2959 -1.6193 0
M  V30 5020 C 484.989 1.85906 -0.286454 0
M  V30 5021 O 484.347 1.65312 0.744426 0
M  V30 5022 C 484.395 2.40987 -2.68249 0
M  V30 5023 O 483.499 3.44531 -2.26654 0
M  V30 5024 H 482.84 0.383053 -0.542371 0
M  V30 5025 H 485.37 0.614231 -1.95162 0
M  V30 5026 H 485.38 2.86913 -2.90078 0
M  V30 5027 H 484.055 1.99361 -3.65004 0
M  V30 5028 H 482.632 3.046 -2.15112 0
M  V30 5029 N 484.817 1.37938 0.762283 0
M  V30 5030 C 485.727 1.36681 1.90671 0
M  V30 5031 C 486.743 0.265078 1.71969 0
M  V30 5032 O 487.919 0.502055 1.95042 0
M  V30 5033 C 484.984 1.18211 3.25925 0
M  V30 5034 C 484.045 2.3811 3.57214 0
M  V30 5035 C 483.278 2.20512 4.86014 0
M  V30 5036 O 483.501 1.19429 5.57757 0
M  V30 5037 O 482.435 3.08911 5.16583 0
M  V30 5038 H 486.261 2.33091 1.94685 0
M  V30 5039 H 483.846 1.18767 0.906356 0
M  V30 5040 H 485.728 1.09937 4.06807 0
M  V30 5041 H 484.403 0.248807 3.22742 0
M  V30 5042 H 483.31 2.51958 2.76529 0
M  V30 5043 H 484.643 3.30041 3.65149 0
M  V30 5044 N 486.295 -0.989507 1.22664 0
M  V30 5045 C 487.542 -1.72953 1.05325 0
M  V30 5046 C 487.87 -1.90104 -0.411168 0
M  V30 5047 O 487.125 -1.44386 -1.32103 0
M  V30 5048 C 487.424 -3.13649 1.71345 0
M  V30 5049 C 487.09 -3.16403 3.21248 0
M  V30 5050 C 485.752 -3.16862 3.62149 0
M  V30 5051 C 488.104 -3.12428 4.17179 0
M  V30 5052 C 485.432 -3.11051 4.97458 0
M  V30 5053 C 487.784 -3.08159 5.52468 0
M  V30 5054 C 486.448 -3.06935 5.92746 0
M  V30 5055 H 485.718 -0.632881 0.385412 0
M  V30 5056 H 488.365 -1.15863 1.52473 0
M  V30 5057 H 486.67 -3.74069 1.16532 0
M  V30 5058 H 488.367 -3.69658 1.55416 0
M  V30 5059 H 484.957 -3.16798 2.88682 0
M  V30 5060 H 489.141 -3.11221 3.86595 0
M  V30 5061 H 484.397 -3.0845 5.27891 0
M  V30 5062 H 488.571 -3.04039 6.26525 0
M  V30 5063 H 486.198 -3.02186 6.97558 0
M  V30 5064 N 487.773 -1.03688 -1.18687 0
M  V30 5065 C 489.019 -0.739123 -1.88851 0
M  V30 5066 C 489.352 0.731042 -1.79915 0
M  V30 5067 O 488.627 1.53313 -1.19688 0
M  V30 5068 C 488.91 -1.20106 -3.3948 0
M  V30 5069 C 488.763 -2.73304 -3.57246 0
M  V30 5070 C 490.082 -0.788134 -4.32986 0
M  V30 5071 H 487.201 -0.269978 -0.68577 0
M  V30 5072 H 489.843 -1.28822 -1.3966 0
M  V30 5073 H 487.993 -0.733915 -3.81505 0
M  V30 5074 H 489.665 -3.28027 -3.24339 0
M  V30 5075 H 487.908 -3.13313 -3.00029 0
M  V30 5076 H 488.579 -3.00684 -4.62918 0
M  V30 5077 H 491.055 -1.19005 -3.98719 0
M  V30 5078 H 489.931 -1.13915 -5.36949 0
M  V30 5079 H 490.192 0.308988 -4.41019 0
M  V30 5080 N 489.251 1.34841 -0.815825 0
M  V30 5081 C 490.667 1.51543 -0.500697 0
M  V30 5082 C 490.867 1.76261 0.976444 0
M  V30 5083 O 489.923 1.8094 1.76117 0
M  V30 5084 C 491.236 2.68487 -1.35407 0
M  V30 5085 C 492.784 2.82368 -1.35046 0
M  V30 5086 C 493.259 4.02347 -2.18816 0
M  V30 5087 N 494.75 4.09542 -2.16402 0
M  V30 5088 C 495.485 5.01517 -2.77971 0
M  V30 5089 N 494.981 5.98763 -3.48503 0
M  V30 5090 N 496.774 4.94334 -2.67563 0
M  V30 5091 H 488.925 1.17055 -1.77234 0
M  V30 5092 H 491.188 0.573481 -0.754866 0
M  V30 5093 H 490.894 2.56829 -2.40274 0
M  V30 5094 H 490.768 3.63321 -1.01377 0
M  V30 5095 H 493.155 2.93471 -0.309604 0
M  V30 5096 H 493.236 1.88363 -1.73069 0
M  V30 5097 H 492.88 3.92004 -3.22948 0
M  V30 5098 H 492.81 4.95551 -1.78148 0
M  V30 5099 H 495.301 3.39932 -1.65091 0
M  V30 5100 H 495.614 6.6556 -3.92747 0
M  V30 5101 H 493.959 5.98909 -3.52609 0
M  V30 5102 H 497.15 4.1732 -2.12041 0
M  V30 5103 H 497.323 5.6582 -3.15834 0
M  V30 5104 N 490.729 0.570148 1.46925 0
M  V30 5105 C 492.145 0.23087 1.57921 0
M  V30 5106 C 492.345 -1.26676 1.56702 0
M  V30 5107 O 491.401 -2.04774 1.47729 0
M  V30 5108 C 492.714 0.868973 2.8787 0
M  V30 5109 C 494.262 0.841397 3.01479 0
M  V30 5110 C 494.737 1.45881 4.34146 0
M  V30 5111 N 496.228 1.42258 4.40814 0
M  V30 5112 C 496.963 1.8698 5.42057 0
M  V30 5113 N 496.459 2.39618 6.50042 0
M  V30 5114 N 498.252 1.77972 5.33181 0
M  V30 5115 H 490.403 1.54301 1.45962 0
M  V30 5116 H 492.666 0.644224 0.69547 0
M  V30 5117 H 492.372 1.922 2.94537 0
M  V30 5118 H 492.246 0.369682 3.75384 0
M  V30 5119 H 494.633 -0.202973 2.94401 0
M  V30 5120 H 494.714 1.37858 2.15474 0
M  V30 5121 H 494.358 2.50231 4.4198 0
M  V30 5122 H 494.288 0.896958 5.18905 0
M  V30 5123 H 496.779 1.03768 3.63374 0
M  V30 5124 H 497.092 2.71633 7.23488 0
M  V30 5125 H 495.437 2.43636 6.50897 0
M  V30 5126 H 498.628 1.36617 4.4772 0
M  V30 5127 H 498.801 2.13143 6.11943 0
M  V30 5128 N 492.207 -1.54576 0.307264 0
M  V30 5129 C 493.432 -2.05139 -0.305379 0
M  V30 5130 C 493.857 -1.18278 -1.46259 0
M  V30 5131 O 493.215 -0.188243 -1.8032 0
M  V30 5132 C 493.263 -3.53066 -0.733283 0
M  V30 5133 O 492.367 -3.69206 -1.83741 0
M  V30 5134 H 491.708 -0.661444 -0.0582105 0
M  V30 5135 H 494.238 -1.99569 0.450931 0
M  V30 5136 H 494.248 -3.95034 -1.02039 0
M  V30 5137 H 492.923 -4.15746 0.113198 0
M  V30 5138 H 491.5 -3.39143 -1.55037 0
M  V30 5139 N 493.685 -0.035106 -1.57561 0
M  V30 5140 C 494.931 0.64318 -1.92331 0
M  V30 5141 C 495.264 1.71434 -0.912368 0
M  V30 5142 O 494.539 1.94395 0.0640303 0
M  V30 5143 C 494.822 1.25411 -3.37556 0
M  V30 5144 C 494.675 0.192109 -4.4939 0
M  V30 5145 C 495.994 2.17041 -3.82859 0
M  V30 5146 H 493.113 0.232341 -0.699419 0
M  V30 5147 H 495.755 -0.0935889 -1.89769 0
M  V30 5148 H 493.905 1.88205 -3.39869 0
M  V30 5149 H 495.577 -0.438849 -4.59208 0
M  V30 5150 H 493.82 -0.481725 -4.31117 0
M  V30 5151 H 494.491 0.659292 -5.48049 0
M  V30 5152 H 496.967 1.64228 -3.8232 0
M  V30 5153 H 495.843 2.56738 -4.85157 0
M  V30 5154 H 496.104 3.06401 -3.18702 0
M  V30 5155 N 495.163 1.55791 0.238111 0
M  V30 5156 C 496.073 1.94196 1.31625 0
M  V30 5157 C 497.089 0.843545 1.52185 0
M  V30 5158 O 498.265 1.1457 1.65637 0
M  V30 5159 C 495.33 2.2365 2.64918 0
M  V30 5160 C 494.391 3.46971 2.52804 0
M  V30 5161 C 493.624 3.7501 3.79741 0
M  V30 5162 O 493.847 3.04982 4.82019 0
M  V30 5163 O 492.781 4.68525 3.77846 0
M  V30 5164 H 496.607 2.86044 1.02043 0
M  V30 5165 H 494.192 1.42786 0.439603 0
M  V30 5166 H 496.074 2.43863 3.4367 0
M  V30 5167 H 494.749 1.34979 2.94215 0
M  V30 5168 H 493.656 3.32055 1.72309 0
M  V30 5169 H 494.989 4.35971 2.28451 0
M  V30 5170 N 496.642 -0.504142 1.49319 0
M  V30 5171 C 497.872 -1.28071 1.62116 0
M  V30 5172 C 498.28 -1.86955 0.290566 0
M  V30 5173 O 497.623 -1.68415 -0.733616 0
M  V30 5174 C 497.685 -2.4521 2.62893 0
M  V30 5175 C 497.349 -2.07218 4.0732 0
M  V30 5176 C 498.346 -1.61375 4.94221 0
M  V30 5177 C 496.031 -2.16949 4.53033 0
M  V30 5178 C 498.025 -1.25763 6.2487 0
M  V30 5179 C 495.712 -1.80949 5.83696 0
M  V30 5180 C 496.71 -1.3543 6.69438 0
M  V30 5181 O 496.398 -0.99915 7.97667 0
M  V30 5182 H 496.13 -0.394763 0.54876 0
M  V30 5183 H 498.684 -0.612118 1.96067 0
M  V30 5184 H 496.914 -3.15134 2.24115 0
M  V30 5185 H 498.603 -3.0724 2.65252 0
M  V30 5186 H 499.369 -1.53306 4.60133 0
M  V30 5187 H 495.248 -2.5133 3.86463 0
M  V30 5188 H 498.792 -0.901631 6.91749 0
M  V30 5189 H 494.689 -1.88667 6.17313 0
M  V30 5190 H 495.457 -1.13089 8.1065 0
M  V30 5191 N 498.12 -1.38341 -0.754957 0
M  V30 5192 C 499.083 -1.35262 -1.85032 0
M  V30 5193 C 500.083 -0.253393 -1.58791 0
M  V30 5194 O 501.273 -0.510205 -1.66561 0
M  V30 5195 C 498.405 -1.10544 -3.22479 0
M  V30 5196 H 499.598 -2.32712 -1.8917 0
M  V30 5197 H 497.151 -1.23614 -0.956515 0
M  V30 5198 H 497.886 -0.136952 -3.24011 0
M  V30 5199 H 497.671 -1.90127 -3.4292 0
M  V30 5200 H 499.161 -1.11082 -4.02555 0
M  V30 5201 N 499.598 0.982988 -1.23187 0
M  V30 5202 C 500.545 2.07491 -1.01075 0
M  V30 5203 C 501.515 1.65949 0.070905 0
M  V30 5204 O 502.7 1.90629 -0.0806822 0
M  V30 5205 C 499.84 3.39751 -0.605261 0
M  V30 5206 C 498.953 3.94578 -1.75876 0
M  V30 5207 C 498.088 5.15039 -1.3003 0
M  V30 5208 C 497.127 5.62027 -2.42472 0
M  V30 5209 N 496.264 6.73719 -1.97602 0
M  V30 5210 H 501.104 2.25739 -1.9454 0
M  V30 5211 H 498.641 1.10659 -0.969179 0
M  V30 5212 H 500.599 4.15719 -0.351279 0
M  V30 5213 H 499.229 3.21473 0.292382 0
M  V30 5214 H 498.281 3.1539 -2.12681 0
M  V30 5215 H 499.593 4.25422 -2.60418 0
M  V30 5216 H 498.747 5.9833 -1.00429 0
M  V30 5217 H 497.486 4.85843 -0.425216 0
M  V30 5218 H 496.491 4.77318 -2.7285 0
M  V30 5219 H 497.716 5.93244 -3.30512 0
M  V30 5220 H 495.662 6.46287 -1.1247 0
M  V30 5221 H 495.579 7.03934 -2.75705 0
M  V30 5222 H 496.847 7.6049 -1.71098 0
M  V30 5223 N 501.076 1.04316 1.18135 0
M  V30 5224 C 502.023 0.636398 2.21853 0
M  V30 5225 C 502.993 -0.357039 1.62217 0
M  V30 5226 O 504.178 -0.250453 1.89149 0
M  V30 5227 C 501.318 0.00812779 3.45099 0
M  V30 5228 C 500.431 1.04933 4.19062 0
M  V30 5229 C 499.566 0.389313 5.29771 0
M  V30 5230 C 498.605 1.41544 5.9551 0
M  V30 5231 N 497.742 0.78021 6.97751 0
M  V30 5232 H 502.582 1.52536 2.56002 0
M  V30 5233 H 500.119 0.76304 1.25762 0
M  V30 5234 H 502.077 -0.373497 4.15525 0
M  V30 5235 H 500.707 -0.844336 3.11562 0
M  V30 5236 H 499.759 1.54888 3.47439 0
M  V30 5237 H 501.071 1.82862 4.64072 0
M  V30 5238 H 500.225 -0.0463805 6.06682 0
M  V30 5239 H 498.964 -0.422038 4.8587 0
M  V30 5240 H 497.969 1.86124 5.17337 0
M  V30 5241 H 499.194 2.22854 6.41493 0
M  V30 5242 H 497.14 -0.0107899 6.55999 0
M  V30 5243 H 497.057 1.49716 7.41027 0
M  V30 5244 H 498.325 0.368996 7.78626 0
M  V30 5245 N 502.554 -1.34406 0.822964 0
M  V30 5246 C 503.97 -1.51275 0.508727 0
M  V30 5247 C 504.17 -1.76776 -0.967083 0
M  V30 5248 O 503.226 -1.81871 -1.75155 0
M  V30 5249 C 504.539 -2.67765 1.36829 0
M  V30 5250 C 506.087 -2.81647 1.36542 0
M  V30 5251 C 506.562 -4.01181 2.20947 0
M  V30 5252 N 508.053 -4.08388 2.18571 0
M  V30 5253 C 508.788 -5.00036 2.80627 0
M  V30 5254 N 508.284 -5.96906 3.51674 0
M  V30 5255 N 510.077 -4.92908 2.70181 0
M  V30 5256 H 502.228 -1.16113 1.77852 0
M  V30 5257 H 504.491 -0.56947 0.757897 0
M  V30 5258 H 504.197 -2.55551 2.41633 0
M  V30 5259 H 504.071 -3.62779 1.03303 0
M  V30 5260 H 506.458 -2.93303 0.325163 0
M  V30 5261 H 506.539 -1.87443 1.74066 0
M  V30 5262 H 506.183 -3.90286 3.25022 0
M  V30 5263 H 506.113 -4.94599 1.80774 0
M  V30 5264 H 508.604 -3.39051 1.66891 0
M  V30 5265 H 508.917 -6.63468 3.96271 0
M  V30 5266 H 507.262 -5.9703 3.5578 0
M  V30 5267 H 510.453 -4.1619 2.14251 0
M  V30 5268 H 510.626 -5.64137 3.18831 0
M  V30 5269 N 504.032 -0.577932 -1.46621 0
M  V30 5270 C 505.443 -0.150071 -1.86096 0
M  V30 5271 C 505.794 1.28563 -1.48209 0
M  V30 5272 O 504.919 1.97036 -0.894754 0
M  V30 5273 C 505.514 -0.265576 -3.37758 0
M  V30 5274 C 504.073 0.10738 -3.76247 0
M  V30 5275 C 503.22 -0.603711 -2.70649 0
M  V30 5276 H 506.171 -0.786438 -1.37844 0
M  V30 5277 H 506.192 0.510352 -3.77062 0
M  V30 5278 H 505.704 -1.3106 -3.65301 0
M  V30 5279 H 503.805 1.15272 -3.54321 0
M  V30 5280 H 503.918 -0.26561 -4.78363 0
M  V30 5281 H 502.282 -0.0444884 -2.54661 0
M  V30 5282 H 503.065 -1.65029 -3.01032 0
M  V30 5283 N 505.51 1.54411 -0.315457 0
M  V30 5284 C 506.756 2.00716 0.289972 0
M  V30 5285 C 507.089 1.2034 1.5242 0
M  V30 5286 O 506.364 0.283579 1.92422 0
M  V30 5287 C 506.647 3.54507 0.632196 0
M  V30 5288 C 506.5 4.45615 -0.61218 0
M  V30 5289 C 507.819 4.15421 1.45305 0
M  V30 5290 H 504.938 0.729637 0.10392 0
M  V30 5291 H 507.58 1.8506 -0.430427 0
M  V30 5292 H 505.73 3.67979 1.24595 0
M  V30 5293 H 507.402 4.44026 -1.25053 0
M  V30 5294 H 505.645 4.15621 -1.24264 0
M  V30 5295 H 506.316 5.51022 -0.328379 0
M  V30 5296 H 508.792 4.05474 0.934331 0
M  V30 5297 H 507.668 5.23157 1.66127 0
M  V30 5298 H 507.929 3.68223 2.44671 0
M  V30 5299 N 506.988 0.0434614 1.5754 0
M  V30 5300 C 508.236 -0.630786 1.92004 0
M  V30 5301 C 508.557 -1.71836 0.921807 0
M  V30 5302 O 507.827 -1.9587 -0.034522 0
M  V30 5303 H 506.407 -0.235988 0.708745 0
M  V30 5304 H 509.069 0.0946462 1.9467 0
M  V30 5305 H 508.165 -1.07434 2.93026 0
M  V30 5306 N 508.466 -1.55915 -0.229846 0
M  V30 5307 C 509.743 -1.6932 -0.979295 0
M  V30 5308 C 510.123 -0.588321 -2.02736 0
M  V30 5309 O 509.471 0.40586 -2.24867 0
M  V30 5310 C 509.681 -3.10305 -1.59724 0
M  V30 5311 C 511.029 -3.6945 -2.09264 0
M  V30 5312 O 512.053 -3.13214 -1.69633 0
M  V30 5313 O 510.912 -4.68072 -2.82082 0
M  V30 5314 H 508.006 -0.689314 -0.456919 0
M  V30 5315 H 510.552 -1.68238 -0.222283 0
M  V30 5316 H 509.324 -3.82177 -0.840039 0
M  V30 5317 H 508.947 -3.1547 -2.42001 0
M  V30 5318 N 509.944 0.496216 -1.49584 0
M  V30 5319 C 511.355 1.07765 -1.52459 0
M  V30 5320 C 511.706 1.93679 -0.31353 0
M  V30 5321 O 510.831 2.08588 0.576186 0
M  V30 5322 C 511.426 1.96111 -2.76271 0
M  V30 5323 C 509.985 2.49409 -2.81908 0
M  V30 5324 C 509.132 1.27142 -2.46435 0
M  V30 5325 H 512.083 0.279914 -1.56212 0
M  V30 5326 H 512.104 2.80862 -2.56704 0
M  V30 5327 H 511.616 1.33555 -3.64396 0
M  V30 5328 H 509.717 3.1559 -1.98074 0
M  V30 5329 H 509.83 2.86234 -3.84196 0
M  V30 5330 H 508.194 1.59818 -1.98319 0
M  V30 5331 H 508.977 0.662866 -3.3684 0
M  V30 5332 N 511.423 1.38739 0.74761 0
M  V30 5333 C 512.67 1.35274 1.50689 0
M  V30 5334 C 512.998 -0.0553359 1.94421 0
M  V30 5335 O 512.253 -1.03365 1.66175 0
M  V30 5336 C 512.552 2.25992 2.7688 0
M  V30 5337 C 512.218 3.73854 2.5208 0
M  V30 5338 C 510.88 4.14145 2.45025 0
M  V30 5339 C 513.232 4.67427 2.30568 0
M  V30 5340 C 510.56 5.4609 2.14483 0
M  V30 5341 C 512.912 5.99635 2.01545 0
M  V30 5342 C 511.576 6.39004 1.92951 0
M  V30 5343 H 510.846 0.495003 0.55141 0
M  V30 5344 H 513.493 1.71145 0.859158 0
M  V30 5345 H 511.798 1.83196 3.46333 0
M  V30 5346 H 513.495 2.20611 3.34861 0
M  V30 5347 H 510.085 3.41913 2.58444 0
M  V30 5348 H 514.269 4.3714 2.34994 0
M  V30 5349 H 509.525 5.75528 2.06342 0
M  V30 5350 H 513.699 6.71678 1.83906 0
M  V30 5351 H 511.326 7.41165 1.6905 0
M  V30 5352 N 512.901 -0.976442 1.23707 0
M  V30 5353 C 514.178 -1.69296 0.979699 0
M  V30 5354 C 514.558 -2.0508 -0.500555 0
M  V30 5355 O 513.906 -1.74708 -1.47273 0
M  V30 5356 C 514.116 -2.93143 1.89389 0
M  V30 5357 C 515.464 -3.65572 2.15968 0
M  V30 5358 O 516.488 -3.03184 1.86971 0
M  V30 5359 O 515.347 -4.77859 2.65167 0
M  V30 5360 H 512.441 -0.739708 0.369812 0
M  V30 5361 H 514.987 -1.03131 1.34767 0
M  V30 5362 H 513.759 -2.63327 2.89439 0
M  V30 5363 H 513.382 -3.67044 1.52854 0
M  V30 5364 N 514.379 -1.04941 -1.1758 0
M  V30 5365 C 515.625 -0.759112 -1.88057 0
M  V30 5366 C 515.958 0.711918 -1.8068 0
M  V30 5367 O 515.233 1.52035 -1.21308 0
M  V30 5368 C 515.516 -1.237 -3.38187 0
M  V30 5369 C 515.369 -2.77078 -3.54327 0
M  V30 5370 C 516.688 -0.834014 -4.32125 0
M  V30 5371 H 513.807 -0.277237 -0.682868 0
M  V30 5372 H 516.449 -1.30296 -1.38286 0
M  V30 5373 H 514.599 -0.774337 -3.80705 0
M  V30 5374 H 516.271 -3.31449 -3.20842 0
M  V30 5375 H 514.514 -3.16477 -2.96689 0
M  V30 5376 H 515.185 -3.05577 -4.59703 0
M  V30 5377 H 517.661 -1.23228 -3.97434 0
M  V30 5378 H 516.537 -1.19603 -5.35711 0
M  V30 5379 H 516.798 0.262195 -4.41322 0
M  V30 5380 N 515.857 1.33968 -0.830081 0
M  V30 5381 C 516.804 2.29387 -0.255008 0
M  V30 5382 C 517.774 1.53923 0.624243 0
M  V30 5383 O 518.959 1.82262 0.564372 0
M  V30 5384 C 516.099 3.4034 0.571209 0
M  V30 5385 C 515.212 4.30729 -0.331083 0
M  V30 5386 C 514.347 5.2879 0.505389 0
M  V30 5387 C 513.386 6.10819 -0.395843 0
M  V30 5388 N 512.523 7.00948 0.401979 0
M  V30 5389 H 517.363 2.77972 -1.07404 0
M  V30 5390 H 514.9 1.36785 -0.541133 0
M  V30 5391 H 516.858 4.03361 1.06562 0
M  V30 5392 H 515.488 2.9297 1.35529 0
M  V30 5393 H 514.54 3.68507 -0.943759 0
M  V30 5394 H 515.852 4.88181 -1.02377 0
M  V30 5395 H 515.006 5.97297 1.06399 0
M  V30 5396 H 513.745 4.71894 1.23155 0
M  V30 5397 H 512.75 5.41238 -0.966529 0
M  V30 5398 H 513.975 6.69797 -1.12023 0
M  V30 5399 H 511.921 6.46512 1.11168 0
M  V30 5400 H 511.838 7.55643 -0.232167 0
M  V30 5401 H 513.106 7.73774 0.943102 0
M  V30 5402 N 517.335 0.585699 1.46312 0
M  V30 5403 C 518.563 0.0781299 2.06752 0
M  V30 5404 C 518.978 -1.22812 1.43396 0
M  V30 5405 O 518.335 -1.74318 0.540314 0
M  V30 5406 C 518.386 -0.0911927 3.61385 0
M  V30 5407 O 518.107 1.16336 4.22371 0
M  V30 5408 C 519.608 -0.632765 4.38761 0
M  V30 5409 H 516.828 0.0588188 0.668417 0
M  V30 5410 H 519.372 0.807218 1.87894 0
M  V30 5411 H 517.527 -0.770514 3.7966 0
M  V30 5412 H 517.941 0.979082 5.15281 0
M  V30 5413 H 519.415 -0.70041 5.47538 0
M  V30 5414 H 519.892 -1.65039 4.07012 0
M  V30 5415 H 520.498 0.0117856 4.25298 0
M  V30 5416 N 518.813 -1.54241 0.323641 0
M  V30 5417 C 519.723 -2.28033 -0.551205 0
M  V30 5418 C 520.739 -1.32388 -1.12913 0
M  V30 5419 O 521.915 -1.65403 -1.14908 0
M  V30 5420 C 518.98 -3.02382 -1.69606 0
M  V30 5421 C 518.041 -4.13612 -1.14993 0
M  V30 5422 C 517.274 -4.84407 -2.24022 0
M  V30 5423 O 517.497 -4.54716 -3.44368 0
M  V30 5424 O 516.431 -5.71312 -1.89436 0
M  V30 5425 H 520.257 -3.03662 0.048066 0
M  V30 5426 H 517.842 -1.49133 0.0893289 0
M  V30 5427 H 519.724 -3.48941 -2.36259 0
M  V30 5428 H 518.399 -2.29628 -2.28151 0
M  V30 5429 H 517.306 -3.71402 -0.448484 0
M  V30 5430 H 518.639 -4.8841 -0.609608 0
M  V30 5431 N 520.291 -0.0518155 -1.57515 0
M  V30 5432 C 521.223 0.951542 -2.08515 0
M  V30 5433 C 522.236 1.27436 -1.01311 0
M  V30 5434 O 523.425 1.23504 -1.28876 0
M  V30 5435 C 520.525 2.27291 -2.5138 0
M  V30 5436 C 519.698 2.13191 -3.81927 0
M  V30 5437 C 518.757 3.28458 -4.11098 0
M  V30 5438 O 517.783 3.04334 -4.81009 0
M  V30 5439 N 518.985 4.52954 -3.63061 0
M  V30 5440 H 521.75 0.516242 -2.9522 0
M  V30 5441 H 519.311 0.13441 -1.61341 0
M  V30 5442 H 521.303 3.03272 -2.67971 0
M  V30 5443 H 519.873 2.62386 -1.69919 0
M  V30 5444 H 519.093 1.21798 -3.74912 0
M  V30 5445 H 520.381 2.00999 -4.67415 0
M  V30 5446 H 519.779 4.75444 -3.06545 0
M  V30 5447 H 518.336 5.26026 -3.84889 0
M  V30 5448 N 521.769 1.56035 0.221574 0
M  V30 5449 C 523.017 1.78693 0.944102 0
M  V30 5450 C 523.338 0.620317 1.8487 0
M  V30 5451 O 522.608 -0.362784 1.92512 0
M  V30 5452 H 521.188 0.659082 0.351597 0
M  V30 5453 H 523.85 1.93497 0.233435 0
M  V30 5454 H 522.946 2.70837 1.55093 0
M  V30 5455 N 523.247 -0.488276 1.49845 0
M  V30 5456 C 524.658 -1.06955 1.53028 0
M  V30 5457 C 525.009 -1.9351 0.323797 0
M  V30 5458 O 524.134 -2.08891 -0.565116 0
M  V30 5459 C 524.729 -1.94643 2.77307 0
M  V30 5460 C 523.288 -2.4791 2.83227 0
M  V30 5461 C 522.435 -1.25833 2.47106 0
M  V30 5462 H 525.386 -0.271626 1.56358 0
M  V30 5463 H 525.407 -2.79496 2.5819 0
M  V30 5464 H 524.919 -1.31621 3.65099 0
M  V30 5465 H 523.02 -3.14535 1.99745 0
M  V30 5466 H 523.133 -2.84193 3.85709 0
M  V30 5467 H 521.497 -1.58764 1.99163 0
M  V30 5468 H 522.28 -0.644993 3.37186 0
M  V30 5469 N 524.725 -1.39134 -0.740242 0
M  V30 5470 C 525.657 -1.33332 -1.86428 0
M  V30 5471 C 526.67 -0.243042 -1.60976 0
M  V30 5472 O 527.859 -0.501608 -1.71307 0
M  V30 5473 C 524.959 -1.04626 -3.22346 0
M  V30 5474 C 524.132 -2.24826 -3.75196 0
M  V30 5475 C 523.191 -1.92659 -4.89662 0
M  V30 5476 O 522.217 -2.6529 -5.03597 0
M  V30 5477 N 523.419 -0.889575 -5.73643 0
M  V30 5478 H 526.184 -2.30196 -1.91911 0
M  V30 5479 H 523.745 -1.33168 -0.920756 0
M  V30 5480 H 525.737 -0.811347 -3.96484 0
M  V30 5481 H 524.307 -0.165129 -3.12164 0
M  V30 5482 H 523.527 -2.64301 -2.9247 0
M  V30 5483 H 524.815 -3.05015 -4.07239 0
M  V30 5484 H 524.213 -0.287529 -5.64969 0
M  V30 5485 H 522.77 -0.714557 -6.47871 0
M  V30 5486 N 526.204 0.969867 -1.24223 0
M  V30 5487 C 527.453 1.70687 -1.07466 0
M  V30 5488 C 527.766 1.91736 0.386861 0
M  V30 5489 O 528.972 2.62986 0.674581 0
M  V30 5490 C 527.428 3.07217 -1.87472 0
M  V30 5491 C 527.036 2.94018 -3.3802 0
M  V30 5492 C 528.78 3.84804 -1.79237 0
M  V30 5493 C 526.687 4.25844 -4.10379 0
M  V30 5494 H 525.617 0.640067 -0.398536 0
M  V30 5495 H 528.268 1.08092 -1.48285 0
M  V30 5496 H 526.65 3.70628 -1.39466 0
M  V30 5497 H 527.824 2.39632 -3.9359 0
M  V30 5498 H 526.139 2.29898 -3.47183 0
M  V30 5499 H 528.736 4.82417 -2.30603 0
M  V30 5500 H 529.079 4.09356 -0.757197 0
M  V30 5501 H 529.612 3.28115 -2.24912 0
M  V30 5502 H 526.351 4.06486 -5.14246 0
M  V30 5503 H 525.871 4.80054 -3.59594 0
M  V30 5504 H 527.55 4.94475 -4.17257 0
M  V30 5505 N 527.682 1.05563 1.17022 0
M  V30 5506 C 528.959 0.68165 1.83338 0
M  V30 5507 C 529.339 -0.837665 1.93769 0
M  V30 5508 O 528.687 -1.74507 1.47511 0
M  V30 5509 C 528.897 1.375 3.20772 0
M  V30 5510 C 530.245 1.51545 3.96635 0
M  V30 5511 O 531.269 1.33431 3.30264 0
M  V30 5512 O 530.128 1.812 5.15586 0
M  V30 5513 H 527.222 0.240412 0.791285 0
M  V30 5514 H 529.768 1.15545 1.24288 0
M  V30 5515 H 528.54 2.41135 3.08171 0
M  V30 5516 H 528.163 0.890798 3.87493 0
M  V30 5517 N 529.16 -1.33526 0.837174 0
M  V30 5518 C 530.092 -2.28077 0.226579 0
M  V30 5519 C 531.105 -1.51666 -0.591717 0
M  V30 5520 O 532.294 -1.73511 -0.419064 0
M  V30 5521 C 529.394 -3.31597 -0.69978 0
M  V30 5522 C 528.567 -4.37329 0.0788067 0
M  V30 5523 C 527.626 -5.20526 -0.770637 0
M  V30 5524 O 526.652 -5.68811 -0.210453 0
M  V30 5525 N 527.854 -5.41639 -2.08825 0
M  V30 5526 H 530.619 -2.81115 1.03897 0
M  V30 5527 H 528.18 -1.46201 0.695476 0
M  V30 5528 H 530.172 -3.84158 -1.27298 0
M  V30 5529 H 528.742 -2.78848 -1.41288 0
M  V30 5530 H 527.962 -3.8529 0.833381 0
M  V30 5531 H 529.25 -5.05079 0.614238 0
M  V30 5532 H 528.648 -5.04108 -2.56693 0
M  V30 5533 H 527.205 -5.97263 -2.60998 0
M  V30 5534 N 530.638 -0.59345 -1.46 0
M  V30 5535 C 531.585 0.133618 -2.30413 0
M  V30 5536 C 532.555 0.873736 -1.41262 0
M  V30 5537 O 533.74 0.862279 -1.70204 0
M  V30 5538 C 530.88 1.13434 -3.25924 0
M  V30 5539 C 529.993 0.39656 -4.30176 0
M  V30 5540 C 529.128 1.38575 -5.12806 0
M  V30 5541 C 528.167 0.634984 -6.08797 0
M  V30 5542 N 527.304 1.57276 -6.84258 0
M  V30 5543 H 532.144 -0.592252 -2.92055 0
M  V30 5544 H 529.681 -0.303874 -1.43927 0
M  V30 5545 H 531.639 1.72752 -3.79753 0
M  V30 5546 H 530.269 1.82779 -2.66067 0
M  V30 5547 H 529.321 -0.311861 -3.79119 0
M  V30 5548 H 530.633 -0.189869 -4.98438 0
M  V30 5549 H 529.787 2.05141 -5.70966 0
M  V30 5550 H 528.526 2.00611 -4.44529 0
M  V30 5551 H 527.531 -0.0443925 -5.49782 0
M  V30 5552 H 528.756 0.0198678 -6.79097 0
M  V30 5553 H 526.702 2.18103 -6.18682 0
M  V30 5554 H 526.619 1.03941 -7.48821 0
M  V30 5555 H 527.887 2.22844 -7.46968 0
M  V30 5556 N 532.116 1.54067 -0.331816 0
M  V30 5557 C 533.048 2.22139 0.564538 0
M  V30 5558 C 534.061 1.22408 1.07332 0
M  V30 5559 O 535.25 1.4883 0.985481 0
M  V30 5560 C 532.35 2.87876 1.78831 0
M  V30 5561 C 531.523 4.13817 1.41682 0
M  V30 5562 C 530.582 4.63072 2.49901 0
M  V30 5563 O 529.608 5.27562 2.13699 0
M  V30 5564 N 530.81 4.38001 3.80967 0
M  V30 5565 H 533.575 2.99694 -0.0183736 0
M  V30 5566 H 531.136 1.61153 -0.155396 0
M  V30 5567 H 533.128 3.17747 2.50637 0
M  V30 5568 H 531.698 2.13977 2.27887 0
M  V30 5569 H 530.918 3.9062 0.530044 0
M  V30 5570 H 532.206 4.95762 1.14443 0
M  V30 5571 H 531.604 3.864 4.13173 0
M  V30 5572 H 530.161 4.72507 4.48977 0
M  V30 5573 N 533.594 0.0601682 1.57485 0
M  V30 5574 C 534.841 -0.611594 1.93043 0
M  V30 5575 C 535.169 -1.70317 0.939274 0
M  V30 5576 O 534.424 -1.95644 -0.046996 0
M  V30 5577 C 534.723 -1.23831 3.35262 0
M  V30 5578 C 534.389 -0.274037 4.50066 0
M  V30 5579 C 533.051 -0.00872394 4.81199 0
M  V30 5580 C 535.403 0.386308 5.19766 0
M  V30 5581 C 532.731 0.924218 5.79375 0
M  V30 5582 C 535.083 1.3075 6.1894 0
M  V30 5583 C 533.747 1.58139 6.48497 0
M  V30 5584 H 533.017 -0.223798 0.706396 0
M  V30 5585 H 535.664 0.128566 1.91068 0
M  V30 5586 H 533.969 -2.05394 3.33647 0
M  V30 5587 H 535.666 -1.76517 3.60059 0
M  V30 5588 H 532.256 -0.491008 4.25778 0
M  V30 5589 H 536.44 0.194436 4.95919 0
M  V30 5590 H 531.696 1.1438 6.00606 0
M  V30 5591 H 535.87 1.82519 6.72056 0
M  V30 5592 H 533.497 2.30593 7.24383 0
M  V30 5593 N 535.072 -1.5615 -0.213296 0
M  V30 5594 C 536.349 -1.70349 -0.961281 0
M  V30 5595 C 536.729 -0.609791 -2.02101 0
M  V30 5596 O 536.077 0.381987 -2.25285 0
M  V30 5597 C 536.287 -3.11982 -1.56424 0
M  V30 5598 C 537.635 -3.71649 -2.05334 0
M  V30 5599 O 538.659 -3.14995 -1.66302 0
M  V30 5600 O 537.518 -4.71038 -2.77102 0
M  V30 5601 H 534.612 -0.694121 -0.449582 0
M  V30 5602 H 537.158 -1.68464 -0.204426 0
M  V30 5603 H 535.93 -3.83046 -0.799457 0
M  V30 5604 H 535.553 -3.18019 -2.38641 0
M  V30 5605 N 536.55 0.480323 -1.50102 0
M  V30 5606 C 537.497 1.57946 -1.6829 0
M  V30 5607 C 538.467 1.57611 -0.524223 0
M  V30 5608 O 539.652 1.75282 -0.753709 0
M  V30 5609 C 536.792 2.95978 -1.77457 0
M  V30 5610 C 535.905 3.06173 -3.04766 0
M  V30 5611 C 535.04 4.35063 -3.04784 0
M  V30 5612 C 534.079 4.38966 -4.26586 0
M  V30 5613 N 533.216 5.59314 -4.24396 0
M  V30 5614 H 538.056 1.41743 -2.62131 0
M  V30 5615 H 535.593 0.689304 -1.2995 0
M  V30 5616 H 537.551 3.76011 -1.80752 0
M  V30 5617 H 536.181 3.10837 -0.870637 0
M  V30 5618 H 535.233 2.19071 -3.10986 0
M  V30 5619 H 536.545 3.04916 -3.9475 0
M  V30 5620 H 535.699 5.23436 -3.06757 0
M  V30 5621 H 534.438 4.38915 -2.12614 0
M  V30 5622 H 533.443 3.48992 -4.24835 0
M  V30 5623 H 534.668 4.36813 -5.19972 0
M  V30 5624 H 532.614 5.63969 -3.35074 0
M  V30 5625 H 532.531 5.5976 -5.08138 0
M  V30 5626 H 533.799 6.49837 -4.30502 0
M  V30 5627 N 538.028 1.39524 0.732853 0
M  V30 5628 C 539.277 1.36175 1.48792 0
M  V30 5629 C 539.59 -0.0388195 1.95561 0
M  V30 5630 O 540.796 -0.194899 2.708 0
M  V30 5631 C 539.252 2.39242 2.68871 0
M  V30 5632 C 538.86 3.85024 2.29042 0
M  V30 5633 C 540.604 2.44972 3.46683 0
M  V30 5634 C 538.511 4.79727 3.45856 0
M  V30 5635 H 537.441 0.506267 0.558757 0
M  V30 5636 H 540.092 1.65181 0.799226 0
M  V30 5637 H 538.474 2.0331 3.39825 0
M  V30 5638 H 539.648 4.30008 1.6562 0
M  V30 5639 H 537.963 3.82609 1.64316 0
M  V30 5640 H 540.56 3.12918 4.33574 0
M  V30 5641 H 540.903 1.4749 3.89297 0
M  V30 5642 H 541.436 2.79808 2.82759 0
M  V30 5643 H 538.175 5.78479 3.08289 0
M  V30 5644 H 537.695 4.39421 4.08251 0
M  V30 5645 H 539.374 4.98731 4.12161 0
M  V30 5646 N 539.506 -0.963266 1.24736 0
M  V30 5647 C 540.436 -2.07628 1.06832 0
M  V30 5648 C 541.417 -1.70088 -0.0200566 0
M  V30 5649 O 542.602 -1.93636 0.147854 0
M  V30 5650 C 539.732 -3.40636 0.677069 0
M  V30 5651 C 538.686 -3.9215 1.71471 0
M  V30 5652 C 538.012 -5.21553 1.1784 0
M  V30 5653 C 539.312 -4.19493 3.11164 0
M  V30 5654 H 541.006 -2.22864 1.9993 0
M  V30 5655 H 538.552 -1.07093 0.96266 0
M  V30 5656 H 540.505 -4.17941 0.538792 0
M  V30 5657 H 539.229 -3.25313 -0.289612 0
M  V30 5658 H 537.888 -3.17005 1.84128 0
M  V30 5659 H 537.536 -5.02593 0.202195 0
M  V30 5660 H 537.236 -5.56988 1.87185 0
M  V30 5661 H 538.76 -6.01463 1.05233 0
M  V30 5662 H 540.174 -4.87487 3.01711 0
M  V30 5663 H 538.571 -4.66165 3.77902 0
M  V30 5664 H 539.641 -3.26097 3.58871 0
M  V30 5665 N 540.985 -1.06182 -1.16461 0
M  V30 5666 C 541.895 -0.682671 -2.24448 0
M  V30 5667 C 542.911 0.30078 -1.71381 0
M  V30 5668 O 544.087 0.150376 -2.00838 0
M  V30 5669 C 541.152 -0.0737202 -3.46622 0
M  V30 5670 C 540.213 -1.10889 -4.14731 0
M  V30 5671 C 539.446 -0.528908 -5.31073 0
M  V30 5672 O 539.669 0.65868 -5.66584 0
M  V30 5673 O 538.603 -1.26805 -5.88391 0
M  V30 5674 H 542.429 -1.58291 -2.59187 0
M  V30 5675 H 540.014 -0.834013 -1.23954 0
M  V30 5676 H 541.896 0.264192 -4.20571 0
M  V30 5677 H 540.571 0.800015 -3.13658 0
M  V30 5678 H 539.478 -1.49896 -3.42756 0
M  V30 5679 H 540.811 -1.95412 -4.51747 0
M  V30 5680 N 542.463 1.3308 -0.844243 0
M  V30 5681 C 543.393 2.3161 -0.296493 0
M  V30 5682 C 544.374 1.59215 0.598707 0
M  V30 5683 O 545.559 1.87077 0.521134 0
M  V30 5684 C 542.689 3.43313 0.524762 0
M  V30 5685 C 541.643 4.27115 -0.275106 0
M  V30 5686 C 540.969 5.30483 0.670236 0
M  V30 5687 C 542.269 5.00443 -1.49514 0
M  V30 5688 H 543.963 2.77672 -1.11976 0
M  V30 5689 H 541.509 1.33496 -0.539899 0
M  V30 5690 H 543.462 4.11273 0.918298 0
M  V30 5691 H 542.186 2.95952 1.3813 0
M  V30 5692 H 540.845 3.60787 -0.650267 0
M  V30 5693 H 540.493 4.79379 1.52332 0
M  V30 5694 H 540.193 5.87435 0.139123 0
M  V30 5695 H 541.717 6.01308 1.06117 0
M  V30 5696 H 543.131 5.61141 -1.17447 0
M  V30 5697 H 541.528 5.67071 -1.96343 0
M  V30 5698 H 542.598 4.28906 -2.26202 0
M  V30 5699 N 543.941 0.601185 1.45683 0
M  V30 5700 C 545.19 0.0914953 2.01492 0
M  V30 5701 C 545.503 -1.28331 1.47616 0
M  V30 5702 O 546.709 -1.88537 1.95362 0
M  V30 5703 C 545.165 0.11291 3.59723 0
M  V30 5704 C 544.773 1.48717 4.22596 0
M  V30 5705 C 546.517 -0.341871 4.23121 0
M  V30 5706 C 544.424 1.46531 5.7296 0
M  V30 5707 H 543.354 0.0304365 0.753385 0
M  V30 5708 H 546.005 0.755568 1.67223 0
M  V30 5709 H 544.387 -0.617692 3.91153 0
M  V30 5710 H 545.561 2.23897 4.02749 0
M  V30 5711 H 543.876 1.88351 3.71366 0
M  V30 5712 H 546.473 -0.377304 5.33367 0
M  V30 5713 H 546.816 -1.36325 3.93346 0
M  V30 5714 H 547.349 0.335256 3.96385 0
M  V30 5715 H 544.088 2.46408 6.07423 0
M  V30 5716 H 543.608 0.755997 5.95017 0
M  V30 5717 H 545.287 1.18618 6.36034 0
M  V30 5718 N 545.419 -1.53889 0.339982 0
M  V30 5719 C 546.329 -2.28604 -0.526988 0
M  V30 5720 C 547.345 -1.33578 -1.11503 0
M  V30 5721 O 548.521 -1.66612 -1.13148 0
M  V30 5722 C 545.586 -3.04164 -1.66389 0
M  V30 5723 C 544.647 -4.14809 -1.10599 0
M  V30 5724 C 543.88 -4.86756 -2.18871 0
M  V30 5725 O 544.103 -4.58343 -3.39526 0
M  V30 5726 O 543.037 -5.73289 -1.83366 0
M  V30 5727 H 546.863 -3.03594 0.0802707 0
M  V30 5728 H 544.448 -1.4903 0.105141 0
M  V30 5729 H 546.33 -3.51427 -2.32544 0
M  V30 5730 H 545.005 -2.32035 -2.25703 0
M  V30 5731 H 543.912 -3.71857 -0.409067 0
M  V30 5732 H 545.245 -4.89029 -0.557771 0
M  V30 5733 N 546.897 -0.0685191 -1.57451 0
M  V30 5734 C 548.122 0.613919 -1.98106 0
M  V30 5735 C 548.547 1.62551 -0.946501 0
M  V30 5736 O 547.905 1.81085 0.0882824 0
M  V30 5737 C 547.953 1.26189 -3.378 0
M  V30 5738 O 547.057 2.37773 -3.36954 0
M  V30 5739 H 546.398 0.158163 -0.644888 0
M  V30 5740 H 548.928 -0.142063 -2.04106 0
M  V30 5741 H 548.938 1.60951 -3.74912 0
M  V30 5742 H 547.613 0.520625 -4.12629 0
M  V30 5743 H 546.19 2.04829 -3.11608 0
M  V30 5744 N 548.375 1.56261 0.205012 0
M  V30 5745 C 549.623 1.79684 0.925096 0
M  V30 5746 C 549.944 0.63989 1.84202 0
M  V30 5747 O 549.214 -0.342345 1.92885 0
M  V30 5748 H 547.794 0.662774 0.344587 0
M  V30 5749 H 550.456 1.93734 0.212899 0
M  V30 5750 H 549.552 2.72467 1.52211 0
M  V30 5751 N 549.853 -0.472356 1.50355 0
M  V30 5752 C 550.8 -1.57051 1.69126 0
M  V30 5753 C 551.77 -1.5733 0.532574 0
M  V30 5754 O 552.955 -1.7488 0.762994 0
M  V30 5755 C 550.095 -2.95033 1.79024 0
M  V30 5756 C 549.208 -3.04552 3.06386 0
M  V30 5757 C 548.343 -4.33441 3.07087 0
M  V30 5758 C 547.382 -4.36697 4.28908 0
M  V30 5759 N 546.519 -5.57056 4.27356 0
M  V30 5760 H 551.359 -1.40351 2.62879 0
M  V30 5761 H 548.896 -0.682403 1.30314 0
M  V30 5762 H 550.854 -3.75048 1.82744 0
M  V30 5763 H 549.484 -3.10371 0.887109 0
M  V30 5764 H 548.536 -2.17419 3.12143 0
M  V30 5765 H 549.848 -3.02818 3.96362 0
M  V30 5766 H 549.002 -5.21801 3.09529 0
M  V30 5767 H 547.741 -4.37782 2.14939 0
M  V30 5768 H 546.746 -3.46734 4.2668 0
M  V30 5769 H 547.971 -4.34049 5.22282 0
M  V30 5770 H 545.917 -5.62184 3.3806 0
M  V30 5771 H 545.834 -5.57058 5.111 0
M  V30 5772 H 547.102 -6.47545 4.33942 0
M  V30 5773 N 551.331 -1.39911 -0.725443 0
M  V30 5774 C 552.278 -1.39393 -1.83952 0
M  V30 5775 C 553.248 -0.252249 -1.64173 0
M  V30 5776 O 554.433 -0.44882 -1.85446 0
M  V30 5777 C 551.573 -1.25262 -3.21564 0
M  V30 5778 C 550.686 -2.49054 -3.52982 0
M  V30 5779 C 549.821 -2.27439 -4.80047 0
M  V30 5780 C 548.86 -3.46857 -5.04338 0
M  V30 5781 N 547.997 -3.24499 -6.22611 0
M  V30 5782 H 552.837 -2.34622 -1.83729 0
M  V30 5783 H 550.374 -1.16537 -0.897636 0
M  V30 5784 H 552.332 -1.15077 -4.01015 0
M  V30 5785 H 550.962 -0.33657 -3.21041 0
M  V30 5786 H 550.014 -2.69805 -2.6816 0
M  V30 5787 H 551.326 -3.37973 -3.66846 0
M  V30 5788 H 550.48 -2.14551 -5.67497 0
M  V30 5789 H 549.219 -1.35929 -4.68374 0
M  V30 5790 H 548.224 -3.60232 -4.15346 0
M  V30 5791 H 549.449 -4.3928 -5.17889 0
M  V30 5792 H 547.395 -2.35663 -6.12208 0
M  V30 5793 H 547.312 -4.06978 -6.37106 0
M  V30 5794 H 548.58 -3.15325 -7.12875 0
M  V30 5795 N 552.809 0.956637 -1.25245 0
M  V30 5796 C 553.719 2.0868 -1.0719 0
M  V30 5797 C 554.735 1.73997 -0.00959074 0
M  V30 5798 O 555.911 2.00301 -0.210104 0
M  V30 5799 C 552.976 3.39754 -0.690526 0
M  V30 5800 C 552.037 3.88316 -1.83055 0
M  V30 5801 C 551.27 5.13134 -1.46728 0
M  V30 5802 O 551.493 5.6925 -0.362029 0
M  V30 5803 O 550.427 5.56356 -2.29677 0
M  V30 5804 H 554.253 2.26813 -2.01965 0
M  V30 5805 H 551.838 1.07098 -1.04165 0
M  V30 5806 H 553.72 4.18543 -0.489871 0
M  V30 5807 H 552.395 3.22896 0.227981 0
M  V30 5808 H 551.302 3.1054 -2.08604 0
M  V30 5809 H 552.635 4.09669 -2.72822 0
M  V30 5810 N 554.287 1.06798 1.15896 0
M  V30 5811 C 555.535 0.786211 1.8618 0
M  V30 5812 C 555.856 -0.689547 1.82401 0
M  V30 5813 O 555.126 -1.49913 1.26107 0
M  V30 5814 H 553.706 0.287843 0.689315 0
M  V30 5815 H 556.368 1.35055 1.40521 0
M  V30 5816 H 555.464 1.1157 2.91477 0
M  V30 5817 N 555.766 -1.3263 0.851289 0
M  V30 5818 C 556.729 -2.27247 0.298541 0
M  V30 5819 C 557.729 -1.51467 -0.539847 0
M  V30 5820 O 558.919 -1.7061 -0.351843 0
M  V30 5821 C 556.051 -3.35964 -0.578004 0
M  V30 5822 H 557.244 -2.7765 1.13359 0
M  V30 5823 H 554.797 -1.43245 0.625354 0
M  V30 5824 H 555.532 -2.90823 -1.435 0
M  V30 5825 H 555.317 -3.92094 0.0220539 0
M  V30 5826 H 556.807 -4.06472 -0.957626 0
M  V30 5827 N 557.244 -0.608902 -1.45362 0
M  V30 5828 C 558.191 0.109172 -2.30542 0
M  V30 5829 C 559.161 0.858704 -1.42181 0
M  V30 5830 O 560.346 0.844178 -1.71109 0
M  V30 5831 C 557.486 1.09971 -3.27109 0
M  V30 5832 C 556.599 0.350911 -4.30572 0
M  V30 5833 C 555.734 1.33129 -5.14247 0
M  V30 5834 C 554.773 0.570377 -6.09437 0
M  V30 5835 N 553.91 1.5001 -6.85887 0
M  V30 5836 H 558.75 -0.623195 -2.91411 0
M  V30 5837 H 556.287 -0.319122 -1.43597 0
M  V30 5838 H 558.245 1.68714 -3.81564 0
M  V30 5839 H 556.875 1.79947 -2.67991 0
M  V30 5840 H 555.927 -0.352054 -3.78767 0
M  V30 5841 H 557.239 -0.242725 -4.98209 0
M  V30 5842 H 556.393 1.99074 -5.73109 0
M  V30 5843 H 555.132 1.95885 -4.46632 0
M  V30 5844 H 554.137 -0.102702 -5.49704 0
M  V30 5845 H 555.362 -0.0521607 -6.7908 0
M  V30 5846 H 553.308 2.11529 -6.2096 0
M  V30 5847 H 553.225 0.959934 -7.49881 0
M  V30 5848 H 554.493 2.14909 -7.49289 0
M  V30 5849 N 558.722 1.53707 -0.348139 0
M  V30 5850 C 559.652 2.28111 0.498766 0
M  V30 5851 C 560.633 1.29851 1.09876 0
M  V30 5852 O 561.818 1.587 1.11928 0
M  V30 5853 C 558.948 3.05735 1.64753 0
M  V30 5854 C 557.902 4.11537 1.17565 0
M  V30 5855 C 557.228 4.77142 2.4133 0
M  V30 5856 C 558.528 5.21587 0.272844 0
M  V30 5857 H 560.222 2.99152 -0.121934 0
M  V30 5858 H 557.768 1.43875 -0.0600842 0
M  V30 5859 H 559.721 3.56526 2.24649 0
M  V30 5860 H 558.445 2.32354 2.2952 0
M  V30 5861 H 557.104 3.61665 0.599483 0
M  V30 5862 H 556.752 4.0035 3.04514 0
M  V30 5863 H 556.452 5.48626 2.10436 0
M  V30 5864 H 557.976 5.30719 3.01943 0
M  V30 5865 H 559.39 5.67986 0.778779 0
M  V30 5866 H 557.787 6.00074 0.0555849 0
M  V30 5867 H 558.857 4.79969 -0.689785 0
M  V30 5868 N 560.2 0.0768682 1.57412 0
M  V30 5869 C 561.11 -0.903207 2.16516 0
M  V30 5870 C 562.126 -1.32341 1.12968 0
M  V30 5871 O 563.302 -1.39507 1.45258 0
M  V30 5872 C 560.367 -2.1508 2.71922 0
M  V30 5873 C 559.428 -1.78653 3.90361 0
M  V30 5874 C 558.661 -2.97465 4.43114 0
M  V30 5875 O 558.884 -4.11638 3.94854 0
M  V30 5876 O 557.818 -2.76987 5.3438 0
M  V30 5877 H 561.644 -0.430427 3.00634 0
M  V30 5878 H 559.229 -0.146485 1.4868 0
M  V30 5879 H 561.111 -2.8823 3.07411 0
M  V30 5880 H 559.786 -2.61446 1.9086 0
M  V30 5881 H 558.693 -1.0274 3.59716 0
M  V30 5882 H 560.026 -1.37066 4.7273 0
M  V30 5883 N 561.678 -1.56367 -0.196722 0
M  V30 5884 C 562.918 -1.82315 -0.92415 0
M  V30 5885 C 563.282 -0.654117 -1.80514 0
M  V30 5886 O 564.483 -0.79345 -2.56823 0
M  V30 5887 C 562.754 -3.13279 -1.72021 0
M  V30 5888 S 564.313 -3.60627 -2.49988 0
M  V30 5889 H 561.131 -0.639862 -0.309997 0
M  V30 5890 H 563.733 -1.94597 -0.187684 0
M  V30 5891 H 562.437 -3.96379 -1.06358 0
M  V30 5892 H 561.968 -3.03871 -2.49852 0
M  V30 5893 H 563.983 -3.25934 -3.74141 0
M  V30 5894 N 563.156 0.464375 -1.50603 0
M  V30 5895 C 564.404 1.21356 -1.61608 0
M  V30 5896 C 564.725 1.92329 -0.321643 0
M  V30 5897 O 563.995 1.84403 0.661232 0
M  V30 5898 H 562.575 0.45094 -0.595535 0
M  V30 5899 H 565.237 0.535046 -1.87412 0
M  V30 5900 H 564.333 1.95783 -2.43054 0
M  V30 5901 N 564.634 1.40294 0.718013 0
M  V30 5902 C 565.882 1.38167 1.47494 0
M  V30 5903 C 566.203 -0.01607 1.94993 0
M  V30 5904 O 565.473 -0.970396 1.70177 0
M  V30 5905 H 564.053 0.508505 0.547203 0
M  V30 5906 H 566.715 1.75324 0.851322 0
M  V30 5907 H 565.811 2.05503 2.34894 0
M  V30 5908 N 566.112 -0.949982 1.2575 0
M  V30 5909 C 567.337 -1.73503 1.13628 0
M  V30 5910 C 567.762 -1.85601 -0.30559 0
M  V30 5911 O 567.12 -1.33984 -1.22139 0
M  V30 5912 C 567.168 -3.1243 1.80055 0
M  V30 5913 O 566.272 -3.97916 1.08336 0
M  V30 5914 H 565.613 -0.532665 0.396439 0
M  V30 5915 H 568.143 -1.19043 1.66403 0
M  V30 5916 H 568.153 -3.62866 1.86527 0
M  V30 5917 H 566.828 -3.02941 2.84956 0
M  V30 5918 H 565.405 -3.56375 1.09777 0
M  V30 5919 N 567.59 -1.07411 -1.15328 0
M  V30 5920 C 568.553 -0.698914 -2.18284 0
M  V30 5921 C 569.553 0.261149 -1.58665 0
M  V30 5922 O 570.743 0.0420277 -1.74149 0
M  V30 5923 C 567.875 -0.0302427 -3.40887 0
M  V30 5924 H 569.068 -1.61045 -2.52991 0
M  V30 5925 H 566.621 -0.870724 -1.298 0
M  V30 5926 H 567.356 0.893505 -3.11748 0
M  V30 5927 H 567.141 -0.720759 -3.85419 0
M  V30 5928 H 568.631 0.21759 -4.17033 0
M  V30 5929 N 569.068 1.32177 -0.85831 0
M  V30 5930 C 570.001 2.26823 -0.25035 0
M  V30 5931 C 570.979 1.50571 0.61378 0
M  V30 5932 O 572.163 1.79682 0.569777 0
M  V30 5933 C 569.29 3.32472 0.646556 0
M  V30 5934 C 568.336 4.26255 -0.144675 0
M  V30 5935 S 569.169 5.13608 -1.5155 0
M  V30 5936 C 570.325 6.22778 -0.624408 0
M  V30 5937 H 570.558 2.7804 -1.05267 0
M  V30 5938 H 568.091 1.39764 -0.656152 0
M  V30 5939 H 570.049 3.93817 1.15837 0
M  V30 5940 H 568.71 2.80031 1.42272 0
M  V30 5941 H 567.903 5.01114 0.538613 0
M  V30 5942 H 567.505 3.69346 -0.588198 0
M  V30 5943 H 569.797 6.77287 0.169846 0
M  V30 5944 H 570.74 6.95233 -1.34376 0
M  V30 5945 H 571.148 5.64156 -0.197128 0
M  V30 5946 N 570.547 0.616602 1.45037 0
M  V30 5947 C 571.457 -0.0985401 2.34393 0
M  V30 5948 C 572.473 -0.850971 1.51771 0
M  V30 5949 O 573.649 -0.806521 1.84546 0
M  V30 5950 C 570.714 -1.07748 3.29532 0
M  V30 5951 C 569.775 -0.326022 4.2806 0
M  V30 5952 C 569.008 -1.25833 5.18654 0
M  V30 5953 O 569.231 -2.49652 5.12864 0
M  V30 5954 O 568.165 -0.750512 5.97203 0
M  V30 5955 H 571.991 0.636016 2.96966 0
M  V30 5956 H 569.576 0.376832 1.44569 0
M  V30 5957 H 571.458 -1.64107 3.88133 0
M  V30 5958 H 570.133 -1.79291 2.69512 0
M  V30 5959 H 569.04 0.280253 3.73049 0
M  V30 5960 H 570.373 0.349091 4.9096 0
M  V30 5961 N 572.025 -1.5352 0.356285 0
M  V30 5962 C 573.302 -1.93405 -0.292223 0
M  V30 5963 C 573.682 -1.28901 -1.67176 0
M  V30 5964 O 573.03 -0.444632 -2.24132 0
M  V30 5965 C 573.24 -3.47223 -0.35175 0
M  V30 5966 C 574.588 -4.20389 -0.596534 0
M  V30 5967 O 575.612 -3.53554 -0.433344 0
M  V30 5968 O 574.471 -5.3881 -0.913589 0
M  V30 5969 H 571.565 -0.808666 -0.173172 0
M  V30 5970 H 574.111 -1.64713 0.408391 0
M  V30 5971 H 572.883 -3.86423 0.615841 0
M  V30 5972 H 572.506 -3.8212 -1.09864 0
M  V30 5973 N 573.503 -0.0852151 -1.57369 0
M  V30 5974 C 574.45 0.877268 -2.13478 0
M  V30 5975 C 575.42 1.28642 -1.05073 0
M  V30 5976 O 576.605 1.36992 -1.32808 0
M  V30 5977 C 573.745 2.13464 -2.71159 0
M  V30 5978 C 572.858 1.77691 -3.93764 0
M  V30 5979 C 571.993 2.98139 -4.39643 0
M  V30 5980 C 571.032 2.58447 -5.54862 0
M  V30 5981 N 570.169 3.71698 -5.95639 0
M  V30 5982 H 575.009 0.391933 -2.95411 0
M  V30 5983 H 572.546 0.181796 -1.45972 0
M  V30 5984 H 574.504 2.87086 -3.02717 0
M  V30 5985 H 573.134 2.59514 -1.91969 0
M  V30 5986 H 572.186 0.940768 -3.68583 0
M  V30 5987 H 573.498 1.44497 -4.77412 0
M  V30 5988 H 572.652 3.80026 -4.72933 0
M  V30 5989 H 571.391 3.34536 -3.54876 0
M  V30 5990 H 570.396 1.74984 -5.21211 0
M  V30 5991 H 571.621 2.23205 -6.41371 0
M  V30 5992 H 569.567 4.07831 -5.13819 0
M  V30 5993 H 569.484 3.42317 -6.74059 0
M  V30 5994 H 570.752 4.54123 -6.33555 0
M  V30 5995 N 574.981 1.5647 0.188427 0
M  V30 5996 C 576.229 1.80655 0.905986 0
M  V30 5997 C 576.55 0.659391 1.83513 0
M  V30 5998 O 575.82 -0.321868 1.93238 0
M  V30 5999 H 574.4 0.666391 0.337538 0
M  V30 6000 H 577.062 1.93949 0.192339 0
M  V30 6001 H 576.158 2.74066 1.49313 0
M  V30 6002 N 576.459 -0.456382 1.50847 0
M  V30 6003 C 577.389 -1.56025 1.73719 0
M  V30 6004 C 578.37 -1.5967 0.586473 0
M  V30 6005 O 579.555 -1.75702 0.827185 0
M  V30 6006 C 576.685 -2.94251 1.84483 0
M  V30 6007 C 575.639 -3.05471 2.99786 0
M  V30 6008 C 574.965 -4.45489 2.95709 0
M  V30 6009 C 576.265 -2.81318 4.40065 0
M  V30 6010 H 577.959 -1.37138 2.66146 0
M  V30 6011 H 575.505 -0.658299 1.28072 0
M  V30 6012 H 577.458 -3.71417 1.99067 0
M  V30 6013 H 576.182 -3.14328 0.886891 0
M  V30 6014 H 574.841 -2.30741 2.84876 0
M  V30 6015 H 574.489 -4.62505 1.97732 0
M  V30 6016 H 574.189 -4.53929 3.73125 0
M  V30 6017 H 575.713 -5.24655 3.12362 0
M  V30 6018 H 577.127 -3.48226 4.55425 0
M  V30 6019 H 575.524 -3.01188 5.19043 0
M  V30 6020 H 576.594 -1.7706 4.51418 0
M  V30 6021 N 577.937 -1.40673 -0.710563 0
M  V30 6022 C 579.184 -1.39222 -1.47049 0
M  V30 6023 C 579.512 0.0037691 -1.945 0
M  V30 6024 O 578.767 0.989224 -1.68857 0
M  V30 6025 C 579.066 -2.33253 -2.70791 0
M  V30 6026 C 578.732 -3.80406 -2.42079 0
M  V30 6027 C 577.394 -4.20496 -2.33959 0
M  V30 6028 C 579.746 -4.73375 -2.18094 0
M  V30 6029 C 577.074 -5.51584 -1.99929 0
M  V30 6030 C 579.426 -6.04768 -1.85576 0
M  V30 6031 C 578.09 -6.43895 -1.75941 0
M  V30 6032 H 577.36 -0.509449 -0.538092 0
M  V30 6033 H 580.007 -1.73363 -0.81348 0
M  V30 6034 H 578.312 -1.92314 -3.41354 0
M  V30 6035 H 580.009 -2.29412 -3.28894 0
M  V30 6036 H 576.599 -3.48645 -2.49288 0
M  V30 6037 H 580.783 -4.43217 -2.23321 0
M  V30 6038 H 576.039 -5.80797 -1.91011 0
M  V30 6039 H 580.213 -6.76318 -1.66033 0
M  V30 6040 H 577.84 -7.45387 -1.4934 0
M  V30 6041 N 579.415 0.9433 -1.26252 0
M  V30 6042 C 580.664 1.68369 -1.11062 0
M  V30 6043 C 580.977 1.92514 0.346104 0
M  V30 6044 O 582.183 2.64358 0.618646 0
M  V30 6045 C 580.639 3.03171 -1.93946 0
M  V30 6046 C 580.247 2.86782 -3.4418 0
M  V30 6047 C 581.991 3.80916 -1.87359 0
M  V30 6048 C 579.898 4.17044 -4.19319 0
M  V30 6049 H 578.828 0.631469 -0.412023 0
M  V30 6050 H 581.479 1.04922 -1.50544 0
M  V30 6051 H 579.861 3.67587 -1.47296 0
M  V30 6052 H 581.035 2.31229 -3.98585 0
M  V30 6053 H 579.35 2.22482 -3.51981 0
M  V30 6054 H 581.947 4.77417 -2.40784 0
M  V30 6055 H 582.29 4.07658 -0.843857 0
M  V30 6056 H 582.823 3.2327 -2.31821 0
M  V30 6057 H 579.562 3.95487 -5.22753 0
M  V30 6058 H 579.082 4.72319 -3.69696 0
M  V30 6059 H 580.761 4.85513 -4.27651 0
M  V30 6060 N 580.893 1.08022 1.14757 0
M  V30 6061 C 581.84 0.706657 2.19716 0
M  V30 6062 C 582.81 -0.30525 1.63271 0
M  V30 6063 O 583.995 -0.19015 1.8985 0
M  V30 6064 C 581.135 0.117914 3.44898 0
M  V30 6065 C 580.248 1.18212 4.15512 0
M  V30 6066 C 579.383 0.557659 5.28265 0
M  V30 6067 C 578.422 1.60418 5.90705 0
M  V30 6068 N 577.559 1.0018 6.94916 0
M  V30 6069 H 582.399 1.60603 2.51019 0
M  V30 6070 H 579.936 0.802664 1.23271 0
M  V30 6071 H 581.894 -0.241112 4.16503 0
M  V30 6072 H 580.524 -0.744788 3.1409 0
M  V30 6073 H 579.576 1.65863 3.42335 0
M  V30 6074 H 580.888 1.97533 4.5802 0
M  V30 6075 H 580.042 0.146654 6.06523 0
M  V30 6076 H 578.781 -0.267249 4.86967 0
M  V30 6077 H 577.786 2.02489 5.11154 0
M  V30 6078 H 579.011 2.43149 6.34078 0
M  V30 6079 H 576.957 0.197917 6.55701 0
M  V30 6080 H 576.874 1.73216 7.35889 0
M  V30 6081 H 578.142 0.616523 7.77058 0
M  V30 6082 N 582.371 -1.3172 0.865308 0
M  V30 6083 C 583.782 -1.79104 0.527126 0
M  V30 6084 C 584.133 -1.7135 -0.955695 0
M  V30 6085 O 583.258 -1.27845 -1.74598 0
M  V30 6086 C 583.853 -3.25207 0.950061 0
M  V30 6087 C 582.412 -3.70504 0.663611 0
M  V30 6088 C 581.559 -2.52605 1.14395 0
M  V30 6089 H 584.51 -1.18868 1.05148 0
M  V30 6090 H 584.531 -3.79535 0.270805 0
M  V30 6091 H 584.043 -3.30818 2.02931 0
M  V30 6092 H 582.144 -3.70398 -0.404474 0
M  V30 6093 H 582.257 -4.62845 1.23737 0
M  V30 6094 H 580.621 -2.4838 0.563859 0
M  V30 6095 H 581.404 -2.60964 2.23053 0
M  V30 6096 N 583.85 -0.624285 -1.44708 0
M  V30 6097 C 585.077 -0.132919 -2.06473 0
M  V30 6098 C 585.493 1.18967 -1.46602 0
M  V30 6099 O 584.85 1.72824 -0.586341 0
M  V30 6100 C 584.901 -0.00465418 -3.615 0
M  V30 6101 O 584.622 -1.27494 -4.19138 0
M  V30 6102 C 586.123 0.516213 -4.40284 0
M  V30 6103 H 583.343 -0.0765201 -0.666623 0
M  V30 6104 H 585.887 -0.856751 -1.85688 0
M  V30 6105 H 584.042 0.669583 -3.8157 0
M  V30 6106 H 584.456 -1.11536 -5.12504 0
M  V30 6107 H 585.93 0.554994 -5.49203 0
M  V30 6108 H 586.407 1.5419 -4.11245 0
M  V30 6109 H 587.013 -0.124542 -4.25118 0
M  V30 6110 N 585.328 1.53329 -0.364422 0
M  V30 6111 C 586.574 2.01537 0.225969 0
M  V30 6112 C 586.907 1.25128 1.48515 0
M  V30 6113 O 586.182 0.344653 1.91422 0
M  V30 6114 C 586.465 3.56339 0.519092 0
M  V30 6115 C 586.318 4.43441 -0.753639 0
M  V30 6116 C 587.637 4.19833 1.32015 0
M  V30 6117 H 584.756 0.732573 0.0806548 0
M  V30 6118 H 587.398 1.83597 -0.489084 0
M  V30 6119 H 585.548 3.71756 1.12825 0
M  V30 6120 H 587.22 4.39823 -1.39116 0
M  V30 6121 H 585.463 4.11457 -1.37424 0
M  V30 6122 H 586.134 5.49699 -0.503517 0
M  V30 6123 H 588.61 4.08242 0.804859 0
M  V30 6124 H 587.486 5.28177 1.49399 0
M  V30 6125 H 587.747 3.75821 2.32832 0
M  V30 6126 N 586.806 0.0935595 1.57322 0
M  V30 6127 C 588.053 -0.570509 1.94297 0
M  V30 6128 C 588.381 -1.68286 0.97519 0
M  V30 6129 O 587.636 -1.95699 -0.00548655 0
M  V30 6130 C 587.935 -1.16692 3.37813 0
M  V30 6131 C 587.601 -0.178509 4.50547 0
M  V30 6132 C 586.263 0.0933475 4.81109 0
M  V30 6133 C 588.615 0.496472 5.1883 0
M  V30 6134 C 585.943 1.0469 5.77284 0
M  V30 6135 C 588.295 1.43849 6.16028 0
M  V30 6136 C 586.959 1.71859 6.44997 0
M  V30 6137 H 586.229 -0.208764 0.710984 0
M  V30 6138 H 588.876 0.169066 1.90752 0
M  V30 6139 H 587.181 -1.98271 3.37929 0
M  V30 6140 H 588.878 -1.6884 3.63722 0
M  V30 6141 H 585.468 -0.400584 4.26724 0
M  V30 6142 H 589.652 0.299584 4.95395 0
M  V30 6143 H 584.908 1.27094 5.98044 0
M  V30 6144 H 589.082 1.96734 6.68034 0
M  V30 6145 H 586.709 2.45906 7.19329 0
M  V30 6146 N 588.284 -1.56567 -0.180126 0
M  V30 6147 C 589.509 -1.85975 -0.918041 0
M  V30 6148 C 589.934 -0.678888 -1.75422 0
M  V30 6149 O 589.292 0.372168 -1.77439 0
M  V30 6150 C 589.34 -3.13731 -1.77779 0
M  V30 6151 O 588.444 -2.95335 -2.87838 0
M  V30 6152 H 587.785 -0.61196 -0.257683 0
M  V30 6153 H 590.315 -2.03798 -0.180923 0
M  V30 6154 H 590.325 -3.4491 -2.17948 0
M  V30 6155 H 589 -3.99293 -1.16352 0
M  V30 6156 H 587.577 -2.7549 -2.51316 0
M  V30 6157 N 589.762 0.448376 -1.51087 0
M  V30 6158 C 590.672 1.56882 -1.74428 0
M  V30 6159 C 591.688 1.62268 -0.62809 0
M  V30 6160 O 592.864 1.79716 -0.909075 0
M  V30 6161 C 589.929 2.92947 -1.85426 0
M  V30 6162 C 588.99 2.97766 -3.09247 0
M  V30 6163 C 588.223 4.27341 -3.19711 0
M  V30 6164 O 588.446 5.19112 -2.36387 0
M  V30 6165 O 587.38 4.38219 -4.12611 0
M  V30 6166 H 591.206 1.40104 -2.69452 0
M  V30 6167 H 588.791 0.630247 -1.35456 0
M  V30 6168 H 590.673 3.73719 -1.94709 0
M  V30 6169 H 589.348 3.09876 -0.935887 0
M  V30 6170 H 588.255 2.15989 -3.0545 0
M  V30 6171 H 589.588 2.8578 -4.00738 0
M  V30 6172 N 591.24 1.41047 0.703093 0
M  V30 6173 C 592.486 1.40207 1.46526 0
M  V30 6174 C 592.819 0.00847763 1.94198 0
M  V30 6175 O 592.094 -0.962437 1.69019 0
M  V30 6176 C 592.377 2.40238 2.6825 0
M  V30 6177 C 592.23 3.88674 2.26391 0
M  V30 6178 C 593.549 2.37627 3.70434 0
M  V30 6179 H 590.668 0.510594 0.531472 0
M  V30 6180 H 593.31 1.72271 0.801422 0
M  V30 6181 H 591.46 2.13026 3.24888 0
M  V30 6182 H 593.132 4.2676 1.75138 0
M  V30 6183 H 591.375 4.03903 1.58255 0
M  V30 6184 H 592.046 4.542 3.13698 0
M  V30 6185 H 594.522 2.61759 3.23452 0
M  V30 6186 H 593.398 3.09645 4.53223 0
M  V30 6187 H 593.659 1.39223 4.19606 0
M  V30 6188 N 592.718 -0.936591 1.26751 0
M  V30 6189 C 593.946 -1.71758 1.15355 0
M  V30 6190 C 594.361 -1.86549 -0.290683 0
M  V30 6191 O 593.718 -1.37616 -1.19868 0
M  V30 6192 C 593.769 -3.12193 1.82258 0
M  V30 6193 O 593.49 -2.98105 3.21038 0
M  V30 6194 C 594.991 -4.06485 1.76875 0
M  V30 6195 H 592.211 -0.537636 0.401483 0
M  V30 6196 H 594.755 -1.17382 1.67457 0
M  V30 6197 H 592.91 -3.63456 1.34083 0
M  V30 6198 H 593.324 -3.86824 3.54214 0
M  V30 6199 H 594.798 -5.02569 2.28316 0
M  V30 6200 H 595.275 -4.32986 0.736216 0
M  V30 6201 H 595.881 -3.61144 2.24623 0
M  V30 6202 N 594.196 -1.08629 -1.14182 0
M  V30 6203 C 595.473 -0.73002 -1.81466 0
M  V30 6204 C 595.853 0.785996 -1.95922 0
M  V30 6205 O 595.201 1.70535 -1.52086 0
M  V30 6206 C 595.411 -1.45957 -3.17014 0
M  V30 6207 C 596.759 -1.62008 -3.92477 0
M  V30 6208 O 597.783 -1.42141 -3.26611 0
M  V30 6209 O 596.642 -1.94806 -5.106 0
M  V30 6210 H 593.736 -0.261307 -0.784632 0
M  V30 6211 H 596.282 -1.188 -1.2118 0
M  V30 6212 H 595.054 -2.49221 -3.01669 0
M  V30 6213 H 594.677 -0.993222 -3.84995 0
M  V30 6214 N 595.674 1.31259 -0.872281 0
M  V30 6215 C 596.622 2.30404 -0.318897 0
M  V30 6216 C 597.616 1.5962 0.567267 0
M  V30 6217 O 598.822 1.74204 0.453111 0
M  V30 6218 H 595.197 0.747243 -0.0844474 0
M  V30 6219 H 597.168 2.74549 -1.16899 0
M  V30 6220 C 595.917 3.44608 0.462683 0
M  V30 6221 H 595.24 3.99248 -0.209936 0
M  V30 6222 H 596.68 4.1609 0.815187 0
M  V30 6223 C 595.139 2.93456 1.65485 0
M  V30 6224 O 595.669 2.92418 2.75417 0
M  V30 6225 N 593.875 2.49628 1.48776 0
M  V30 6226 H 593.422 2.50671 0.593452 0
M  V30 6227 H 593.38 2.15759 2.28682 0
M  V30 6228 N 597.152 0.631951 1.44375 0
M  V30 6229 C 598.085 -0.121822 2.27875 0
M  V30 6230 C 599.063 -0.850457 1.38586 0
M  V30 6231 O 600.247 -0.854378 1.68026 0
M  V30 6232 C 597.374 -1.17859 3.17533 0
M  V30 6233 C 596.42 -0.550391 4.22934 0
M  V30 6234 S 597.253 0.660145 5.31415 0
M  V30 6235 C 598.409 -0.396613 6.24642 0
M  V30 6236 H 598.642 0.586537 2.91457 0
M  V30 6237 H 596.175 0.420146 1.48574 0
M  V30 6238 H 598.133 -1.78335 3.69739 0
M  V30 6239 H 596.794 -1.85915 2.53169 0
M  V30 6240 H 595.987 -1.34631 4.85685 0
M  V30 6241 H 595.589 -0.0202306 3.73995 0
M  V30 6242 H 597.881 -1.26893 6.65511 0
M  V30 6243 H 598.824 0.195345 7.0783 0
M  V30 6244 H 599.232 -0.72288 5.59852 0
M  V30 6245 N 598.631 -1.53133 0.372548 0
M  V30 6246 C 600.047 -1.59585 0.02178 0
M  V30 6247 C 600.247 -1.38736 -1.46132 0
M  V30 6248 O 599.303 -1.19599 -2.22379 0
M  V30 6249 C 600.616 -2.9678 0.483959 0
M  V30 6250 C 602.164 -3.09909 0.438775 0
M  V30 6251 C 602.639 -4.49527 0.876876 0
M  V30 6252 N 604.13 -4.55663 0.832214 0
M  V30 6253 C 604.865 -5.61896 1.14281 0
M  V30 6254 N 604.361 -6.75852 1.52303 0
M  V30 6255 N 606.154 -5.51916 1.06515 0
M  V30 6256 H 598.305 -1.64936 1.33827 0
M  V30 6257 H 600.568 -0.773947 0.547458 0
M  V30 6258 H 600.274 -3.17198 1.51915 0
M  V30 6259 H 600.148 -3.7699 -0.125784 0
M  V30 6260 H 602.535 -2.89197 -0.587294 0
M  V30 6261 H 602.616 -2.31691 1.0841 0
M  V30 6262 H 602.26 -4.70979 1.90109 0
M  V30 6263 H 602.19 -5.26186 0.208727 0
M  V30 6264 H 604.681 -3.73844 0.552195 0
M  V30 6265 H 604.994 -7.52862 1.7441 0
M  V30 6266 H 603.339 -6.77226 1.56175 0
M  V30 6267 H 606.53 -4.6177 0.767235 0
M  V30 6268 H 606.703 -6.34609 1.31053 0
M  V30 6269 N 600.109 -0.101901 -1.5727 0
M  V30 6270 C 601.358 0.559922 -1.93772 0
M  V30 6271 C 601.671 1.68913 -0.98629 0
M  V30 6272 O 602.877 2.41256 -1.24529 0
M  V30 6273 C 601.333 1.04739 -3.44322 0
M  V30 6274 C 600.941 -0.05243 -4.47969 0
M  V30 6275 C 602.685 1.68157 -3.89774 0
M  V30 6276 C 600.592 0.450781 -5.8968 0
M  V30 6277 H 599.522 0.212931 -0.723309 0
M  V30 6278 H 602.173 -0.179001 -1.82625 0
M  V30 6279 H 600.555 1.84021 -3.50645 0
M  V30 6280 H 601.729 -0.828157 -4.53297 0
M  V30 6281 H 600.044 -0.592202 -4.12167 0
M  V30 6282 H 602.641 2.0689 -4.93052 0
M  V30 6283 H 602.984 2.55338 -3.28798 0
M  V30 6284 H 603.517 0.954453 -3.8618 0
M  V30 6285 H 600.256 -0.38458 -6.54371 0
M  V30 6286 H 599.776 1.19336 -5.87809 0
M  V30 6287 H 601.455 0.917555 -6.40461 0
M  V30 6288 N 601.587 1.56661 0.17182 0
M  V30 6289 C 602.55 1.9549 1.19651 0
M  V30 6290 C 603.55 0.838501 1.37207 0
M  V30 6291 O 604.74 1.10556 1.34622 0
M  V30 6292 C 601.872 2.24927 2.56166 0
M  V30 6293 H 603.065 2.87184 0.864007 0
M  V30 6294 H 600.618 1.50711 0.41425 0
M  V30 6295 H 601.353 1.35944 2.94431 0
M  V30 6296 H 601.138 3.06301 2.4479 0
M  V30 6297 H 602.628 2.55891 3.30014 0
M  V30 6298 N 603.065 -0.440357 1.51323 0
M  V30 6299 C 604.012 -1.53429 1.72419 0
M  V30 6300 C 604.982 -1.56165 0.565826 0
M  V30 6301 O 606.167 -1.73222 0.799917 0
M  V30 6302 C 603.307 -2.91169 1.85242 0
M  V30 6303 C 602.42 -2.97985 3.12777 0
M  V30 6304 C 601.555 -4.26829 3.16212 0
M  V30 6305 C 600.594 -4.27501 4.38074 0
M  V30 6306 N 599.731 -5.47866 4.39076 0
M  V30 6307 H 604.571 -1.34743 2.65797 0
M  V30 6308 H 602.108 -0.654608 1.31732 0
M  V30 6309 H 604.066 -3.71087 1.90658 0
M  V30 6310 H 602.696 -3.0842 0.952744 0
M  V30 6311 H 601.748 -2.10749 3.16685 0
M  V30 6312 H 603.06 -2.94342 4.02696 0
M  V30 6313 H 602.214 -5.15118 3.20527 0
M  V30 6314 H 600.953 -4.33124 2.24176 0
M  V30 6315 H 599.958 -3.37606 4.33938 0
M  V30 6316 H 601.183 -4.22873 5.31371 0
M  V30 6317 H 599.129 -5.54887 3.49909 0
M  V30 6318 H 599.046 -5.46091 5.22801 0
M  V30 6319 H 600.314 -6.38195 4.4758 0
M  V30 6320 N 604.543 -1.41418 -0.695603 0
M  V30 6321 C 605.453 -1.45622 -1.83933 0
M  V30 6322 C 606.469 -0.346825 -1.70508 0
M  V30 6323 O 607.645 -0.59454 -1.92424 0
M  V30 6324 C 604.71 -1.33627 -3.19914 0
M  V30 6325 C 603.771 -2.54882 -3.45447 0
M  V30 6326 C 603.004 -2.43449 -4.7494 0
M  V30 6327 O 603.227 -1.45905 -5.51424 0
M  V30 6328 O 602.161 -3.33206 -5.01256 0
M  V30 6329 H 605.987 -2.42114 -1.83342 0
M  V30 6330 H 603.572 -1.22956 -0.848658 0
M  V30 6331 H 605.454 -1.29221 -4.01098 0
M  V30 6332 H 604.129 -0.402508 -3.21188 0
M  V30 6333 H 603.036 -2.64865 -2.64192 0
M  V30 6334 H 604.369 -3.47087 -3.48987 0
M  V30 6335 N 606.021 0.929856 -1.27246 0
M  V30 6336 C 606.931 2.0636 -1.11592 0
M  V30 6337 C 607.947 1.73938 -0.046496 0
M  V30 6338 O 609.123 1.9981 -0.252544 0
M  V30 6339 C 606.188 3.38213 -0.762437 0
M  V30 6340 C 605.249 3.84346 -1.9125 0
M  V30 6341 C 604.482 5.09906 -1.57579 0
M  V30 6342 O 604.705 5.68354 -0.482694 0
M  V30 6343 O 603.639 5.51359 -2.41426 0
M  V30 6344 H 607.465 2.22478 -2.0673 0
M  V30 6345 H 605.05 1.04865 -1.06413 0
M  V30 6346 H 606.932 4.1741 -0.57854 0
M  V30 6347 H 605.607 3.23307 0.159439 0
M  V30 6348 H 604.514 3.06045 -2.15144 0
M  V30 6349 H 605.847 4.0379 -2.81451 0
M  V30 6350 N 607.499 1.09233 1.13605 0
M  V30 6351 C 608.748 0.82205 1.84188 0
M  V30 6352 C 609.061 -0.654548 1.84323 0
M  V30 6353 O 610.267 -1.04029 2.50779 0
M  V30 6354 C 608.723 1.42066 3.30674 0
M  V30 6355 C 608.331 2.92965 3.38933 0
M  V30 6356 C 610.075 1.22924 4.06313 0
M  V30 6357 C 607.982 3.45922 4.79679 0
M  V30 6358 H 606.912 0.303854 0.690064 0
M  V30 6359 H 609.563 1.31479 1.28006 0
M  V30 6360 H 607.945 0.855613 3.86646 0
M  V30 6361 H 609.119 3.55679 2.92966 0
M  V30 6362 H 607.434 3.11118 2.76757 0
M  V30 6363 H 610.031 1.59945 5.10217 0
M  V30 6364 H 610.374 0.169726 4.15954 0
M  V30 6365 H 610.907 1.76168 3.56665 0
M  V30 6366 H 607.646 4.51484 4.75229 0
M  V30 6367 H 607.166 2.87971 5.26149 0
M  V30 6368 H 608.845 3.43009 5.48592 0
M  V30 6369 N 608.977 -1.30795 0.87923 0
M  V30 6370 C 610.224 -1.96362 0.494786 0
M  V30 6371 C 610.552 -1.69448 -0.954868 0
M  V30 6372 O 609.807 -0.988711 -1.68888 0
M  V30 6373 C 610.106 -3.50287 0.709476 0
M  V30 6374 C 609.772 -3.9724 2.13333 0
M  V30 6375 C 608.434 -4.09772 2.52271 0
M  V30 6376 C 610.786 -4.21807 3.06151 0
M  V30 6377 C 608.114 -4.44227 3.83248 0
M  V30 6378 C 610.466 -4.5773 4.36654 0
M  V30 6379 C 609.13 -4.68469 4.75492 0
M  V30 6380 H 608.4 -0.71854 0.181055 0
M  V30 6381 H 611.047 -1.55764 1.11399 0
M  V30 6382 H 609.352 -3.91799 0.0072 0
M  V30 6383 H 611.049 -3.99082 0.391703 0
M  V30 6384 H 607.639 -3.87988 1.82107 0
M  V30 6385 H 611.823 -4.11611 2.77291 0
M  V30 6386 H 607.079 -4.50741 4.13089 0
M  V30 6387 H 611.253 -4.7569 5.08617 0
M  V30 6388 H 608.88 -4.94923 5.77022 0
M  V30 6389 N 610.455 -0.639598 -1.44038 0
M  V30 6390 C 611.703 -0.147188 -2.01563 0
M  V30 6391 C 612.024 1.2384 -1.50628 0
M  V30 6392 O 611.294 1.82452 -0.713316 0
M  V30 6393 H 609.874 -0.0514231 -0.745228 0
M  V30 6394 H 612.536 -0.828205 -1.76428 0
M  V30 6395 H 611.632 -0.121358 -3.11864 0
M  V30 6396 N 611.933 1.52934 -0.380664 0
M  V30 6397 C 613.344 1.86457 0.0952684 0
M  V30 6398 C 613.695 1.3007 1.46889 0
M  V30 6399 O 612.82 0.628636 2.07068 0
M  V30 6400 C 613.415 3.38323 0.179648 0
M  V30 6401 C 611.974 3.71589 0.599858 0
M  V30 6402 C 611.121 2.76228 -0.243572 0
M  V30 6403 H 614.072 1.46966 -0.59888 0
M  V30 6404 H 614.093 3.67113 1.00042 0
M  V30 6405 H 613.605 3.79333 -0.820228 0
M  V30 6406 H 611.706 3.36144 1.60742 0
M  V30 6407 H 611.819 4.77715 0.364003 0
M  V30 6408 H 610.183 2.53045 0.289855 0
M  V30 6409 H 610.966 3.20074 -1.24127 0
M  V30 6410 N 613.412 0.11024 1.57214 0
M  V30 6411 C 614.658 -0.550684 1.9518 0
M  V30 6412 C 614.991 -1.66885 0.993122 0
M  V30 6413 O 614.266 -1.94479 0.0287907 0
M  V30 6414 C 614.549 -1.09163 3.43155 0
M  V30 6415 C 614.402 0.0225198 4.49794 0
M  V30 6416 C 615.721 -1.98527 3.92778 0
M  V30 6417 H 612.84 -0.198706 0.709708 0
M  V30 6418 H 615.482 0.184024 1.89107 0
M  V30 6419 H 613.632 -1.71775 3.48462 0
M  V30 6420 H 615.304 0.657443 4.56591 0
M  V30 6421 H 613.547 0.686868 4.28328 0
M  V30 6422 H 614.218 -0.39706 5.5057 0
M  V30 6423 H 616.694 -1.458 3.8972 0
M  V30 6424 H 615.57 -2.33298 4.96853 0
M  V30 6425 H 615.831 -2.90846 3.32958 0
M  V30 6426 N 614.89 -1.56749 -0.16351 0
M  V30 6427 C 615.822 -1.93587 -1.22705 0
M  V30 6428 C 616.835 -0.829824 -1.40063 0
M  V30 6429 O 618.024 -1.10826 -1.39928 0
M  V30 6430 C 615.124 -2.1803 -2.59454 0
M  V30 6431 C 614.297 -3.4928 -2.63292 0
M  V30 6432 C 613.356 -3.62457 -3.8146 0
M  V30 6433 O 612.382 -4.35004 -3.67096 0
M  V30 6434 N 613.584 -2.97888 -4.9824 0
M  V30 6435 H 616.349 -2.8542 -0.914081 0
M  V30 6436 H 613.91 -1.58 -0.353214 0
M  V30 6437 H 615.902 -2.24102 -3.36987 0
M  V30 6438 H 614.472 -1.32543 -2.8311 0
M  V30 6439 H 613.692 -3.54795 -1.71796 0
M  V30 6440 H 614.98 -4.35632 -2.62873 0
M  V30 6441 H 614.378 -2.38833 -5.12811 0
M  V30 6442 H 612.935 -3.09545 -5.73607 0
M  V30 6443 N 616.368 0.432326 -1.51554 0
M  V30 6444 C 617.779 1.01202 -1.56892 0
M  V30 6445 C 618.13 1.92175 -0.395394 0
M  V30 6446 O 617.255 2.10844 0.487198 0
M  V30 6447 C 617.85 1.84217 -2.8434 0
M  V30 6448 C 616.409 2.37228 -2.92233 0
M  V30 6449 C 615.556 1.16576 -2.51606 0
M  V30 6450 H 618.507 0.213407 -1.57259 0
M  V30 6451 H 618.528 2.69721 -2.68385 0
M  V30 6452 H 618.04 1.17979 -3.69733 0
M  V30 6453 H 616.141 3.06905 -2.11282 0
M  V30 6454 H 616.254 2.69682 -3.95991 0
M  V30 6455 H 614.618 1.51263 -2.04919 0
M  V30 6456 H 615.401 0.519404 -3.39348 0
M  V30 6457 N 617.846 1.41785 0.688094 0
M  V30 6458 C 619.095 1.4084 1.44385 0
M  V30 6459 C 619.408 0.0234166 1.95586 0
M  V30 6460 O 620.614 -0.108647 2.71283 0
M  V30 6461 C 619.07 2.47675 2.61123 0
M  V30 6462 C 618.678 3.92116 2.16677 0
M  V30 6463 C 620.422 2.55877 3.38714 0
M  V30 6464 C 618.329 4.90487 3.30419 0
M  V30 6465 H 617.259 0.523787 0.542368 0
M  V30 6466 H 619.91 1.6764 0.74627 0
M  V30 6467 H 618.292 2.14018 3.33185 0
M  V30 6468 H 619.466 4.35059 1.51856 0
M  V30 6469 H 617.781 3.87642 1.5206 0
M  V30 6470 H 620.378 3.26553 4.234 0
M  V30 6471 H 620.721 1.59801 3.84408 0
M  V30 6472 H 621.254 2.88662 2.73714 0
M  V30 6473 H 617.993 5.87994 2.89729 0
M  V30 6474 H 617.513 4.52187 3.94065 0
M  V30 6475 H 619.192 5.11591 3.96085 0
M  V30 6476 N 619.324 -0.923095 1.27737 0
M  V30 6477 C 620.254 -2.04124 1.13383 0
M  V30 6478 C 621.235 -1.70066 0.0340658 0
M  V30 6479 O 622.42 -1.93068 0.209383 0
M  V30 6480 C 619.55 -3.3831 0.785097 0
M  V30 6481 C 618.504 -3.86496 1.8386 0
M  V30 6482 C 617.83 -5.1754 1.34373 0
M  V30 6483 C 619.13 -4.09381 3.24353 0
M  V30 6484 H 620.824 -2.1639 2.06919 0
M  V30 6485 H 618.37 -1.03976 0.996243 0
M  V30 6486 H 620.323 -4.16016 0.671485 0
M  V30 6487 H 619.047 -3.2607 -0.185969 0
M  V30 6488 H 617.706 -3.10987 1.9412 0
M  V30 6489 H 617.354 -5.01696 0.361989 0
M  V30 6490 H 617.054 -5.50751 2.04811 0
M  V30 6491 H 618.578 -5.97811 1.24315 0
M  V30 6492 H 619.992 -4.77641 3.17067 0
M  V30 6493 H 618.389 -4.53906 3.92542 0
M  V30 6494 H 619.459 -3.14515 3.69064 0
M  V30 6495 N 620.802 -1.09834 -1.13024 0
M  V30 6496 C 621.749 -0.741522 -2.18564 0
M  V30 6497 C 622.719 0.279236 -1.63736 0
M  V30 6498 O 623.904 0.159923 -1.90129 0
M  V30 6499 C 621.044 -0.17277 -3.44667 0
M  V30 6500 C 620.157 -1.24808 -4.13578 0
M  V30 6501 C 619.292 -0.641631 -5.27311 0
M  V30 6502 C 618.331 -1.69795 -5.88078 0
M  V30 6503 N 617.468 -1.11223 -6.93234 0
M  V30 6504 H 622.308 -1.64576 -2.48432 0
M  V30 6505 H 619.845 -0.822174 -1.21978 0
M  V30 6506 H 621.803 0.17482 -4.16834 0
M  V30 6507 H 620.433 0.694725 -3.15235 0
M  V30 6508 H 619.485 -1.71288 -3.39653 0
M  V30 6509 H 620.797 -2.04795 -4.54819 0
M  V30 6510 H 619.951 -0.243128 -6.06213 0
M  V30 6511 H 618.69 0.189742 -4.87331 0
M  V30 6512 H 617.695 -2.10595 -5.07868 0
M  V30 6513 H 618.92 -2.53206 -6.3013 0
M  V30 6514 H 616.866 -0.302208 -6.55304 0
M  V30 6515 H 616.783 -1.84901 -7.3304 0
M  V30 6516 H 618.051 -0.740068 -7.75979 0
M  V30 6517 N 622.28 1.30327 -0.886154 0
M  V30 6518 C 623.527 1.96097 -0.505192 0
M  V30 6519 C 623.855 1.69952 0.945868 0
M  V30 6520 O 623.11 0.997653 1.68361 0
M  V30 6521 C 623.409 3.49906 -0.728042 0
M  V30 6522 C 623.075 3.96103 -2.15437 0
M  V30 6523 C 621.737 4.08428 -2.5444 0
M  V30 6524 C 624.089 4.20177 -3.08384 0
M  V30 6525 C 621.417 4.42189 -3.85598 0
M  V30 6526 C 623.769 4.55407 -4.39075 0
M  V30 6527 C 622.433 4.65941 -4.7797 0
M  V30 6528 H 621.703 0.71757 -0.184863 0
M  V30 6529 H 624.35 1.55171 -1.12223 0
M  V30 6530 H 622.655 3.9179 -0.027978 0
M  V30 6531 H 624.352 3.98869 -0.412862 0
M  V30 6532 H 620.942 3.87017 -1.84162 0
M  V30 6533 H 625.126 4.10134 -2.7947 0
M  V30 6534 H 620.382 4.48544 -4.15473 0
M  V30 6535 H 624.556 4.72986 -5.11133 0
M  V30 6536 H 622.183 4.91856 -5.79639 0
M  V30 6537 N 623.758 0.647228 1.43697 0
M  V30 6538 C 624.705 -0.0480092 2.3075 0
M  V30 6539 C 625.675 -0.820705 1.44408 0
M  V30 6540 O 626.86 -0.798515 1.73287 0
M  V30 6541 C 624 -1.01259 3.2991 0
M  V30 6542 C 623.113 -0.236629 4.31351 0
M  V30 6543 C 622.248 -1.19447 5.17596 0
M  V30 6544 C 621.287 -0.408595 6.10735 0
M  V30 6545 N 620.424 -1.31772 6.89623 0
M  V30 6546 H 625.264 0.700238 2.89656 0
M  V30 6547 H 622.801 0.357082 1.427 0
M  V30 6548 H 624.759 -1.58538 3.85903 0
M  V30 6549 H 623.389 -1.72778 2.72667 0
M  V30 6550 H 622.441 0.452353 3.77701 0
M  V30 6551 H 623.753 0.374731 4.9739 0
M  V30 6552 H 622.907 -1.83809 5.78186 0
M  V30 6553 H 621.646 -1.83975 4.51669 0
M  V30 6554 H 620.651 0.24841 5.49239 0
M  V30 6555 H 621.876 0.232188 6.78703 0
M  V30 6556 H 619.822 -1.94991 6.2635 0
M  V30 6557 H 619.739 -0.760779 7.52162 0
M  V30 6558 H 621.007 -1.94967 7.54724 0
M  V30 6559 N 625.236 -1.5273 0.388769 0
M  V30 6560 C 626.461 -2.0647 -0.19621 0
M  V30 6561 C 626.886 -1.25865 -1.39784 0
M  V30 6562 O 626.244 -0.283562 -1.79069 0
M  V30 6563 C 626.292 -3.56456 -0.5451 0
M  V30 6564 O 625.396 -3.78426 -1.63912 0
M  V30 6565 H 624.737 -0.663599 -0.023067 0
M  V30 6566 H 627.267 -1.96898 0.556084 0
M  V30 6567 H 627.277 -3.99888 -0.809557 0
M  V30 6568 H 625.952 -4.14561 0.333417 0
M  V30 6569 H 624.529 -3.46884 -1.36842 0
M  V30 6570 N 626.714 -0.118576 -1.57153 0
M  V30 6571 C 627.963 0.539339 -1.94355 0
M  V30 6572 C 628.276 1.67858 -1.00415 0
M  V30 6573 O 629.482 2.39922 -1.27081 0
M  V30 6574 C 627.938 1.01082 -3.45414 0
M  V30 6575 C 627.546 -0.0999402 -4.47889 0
M  V30 6576 C 629.29 1.64013 -3.91535 0
M  V30 6577 C 627.197 0.388212 -5.90124 0
M  V30 6578 H 626.127 0.205247 -0.725527 0
M  V30 6579 H 628.778 -0.19836 -1.82425 0
M  V30 6580 H 627.16 1.80292 -3.52577 0
M  V30 6581 H 628.334 -0.876189 -4.52393 0
M  V30 6582 H 626.649 -0.635885 -4.11516 0
M  V30 6583 H 629.246 2.01649 -4.95219 0
M  V30 6584 H 629.589 2.51836 -3.31488 0
M  V30 6585 H 630.122 0.913439 -3.87171 0
M  V30 6586 H 626.861 -0.453963 -6.53926 0
M  V30 6587 H 626.381 1.13095 -5.89041 0
M  V30 6588 H 628.06 0.849574 -6.41398 0
M  V30 6589 N 628.193 1.56834 0.155195 0
M  V30 6590 C 629.103 2.009 1.21146 0
M  V30 6591 C 630.119 0.923029 1.475 0
M  V30 6592 O 631.295 1.23189 1.59331 0
M  V30 6593 C 628.36 2.37378 2.52691 0
M  V30 6594 C 627.421 3.59883 2.34057 0
M  V30 6595 C 626.654 3.94612 3.59329 0
M  V30 6596 O 626.877 3.30104 4.65175 0
M  V30 6597 O 625.811 4.87895 3.52479 0
M  V30 6598 H 629.637 2.9105 0.867371 0
M  V30 6599 H 627.222 1.44916 0.363298 0
M  V30 6600 H 629.104 2.61737 3.3026 0
M  V30 6601 H 627.779 1.50385 2.86646 0
M  V30 6602 H 626.686 3.40722 1.54465 0
M  V30 6603 H 628.019 4.47468 2.0502 0
M  V30 6604 N 629.671 -0.424282 1.51781 0
M  V30 6605 C 630.581 -1.54087 1.76902 0
M  V30 6606 C 631.597 -1.61249 0.653826 0
M  V30 6607 O 632.773 -1.78247 0.937552 0
M  V30 6608 C 629.838 -2.8996 1.90063 0
M  V30 6609 C 628.899 -2.92809 3.13945 0
M  V30 6610 C 628.132 -4.22201 3.26469 0
M  V30 6611 O 628.355 -5.15286 2.44616 0
M  V30 6612 O 627.289 -4.31599 4.1953 0
M  V30 6613 H 631.115 -1.358 2.71647 0
M  V30 6614 H 628.7 -0.608618 1.36441 0
M  V30 6615 H 630.582 -3.70575 2.0063 0
M  V30 6616 H 629.257 -3.08347 0.985067 0
M  V30 6617 H 628.164 -2.11102 3.08847 0
M  V30 6618 H 629.497 -2.79369 4.05233 0
M  V30 6619 N 631.149 -1.42148 -0.680565 0
M  V30 6620 C 632.395 -1.42521 -1.44277 0
M  V30 6621 C 632.728 -0.0393718 -1.9416 0
M  V30 6622 O 632.003 0.935425 -1.70529 0
M  V30 6623 C 632.286 -2.44475 -2.64394 0
M  V30 6624 C 632.139 -3.92226 -2.20179 0
M  V30 6625 C 633.458 -2.43491 -3.66606 0
M  V30 6626 H 630.577 -0.518985 -0.523282 0
M  V30 6627 H 633.219 -1.73524 -0.773914 0
M  V30 6628 H 631.369 -2.18168 -3.21458 0
M  V30 6629 H 633.041 -4.29493 -1.68327 0
M  V30 6630 H 631.284 -4.0637 -1.5181 0
M  V30 6631 H 631.955 -4.59133 -3.06433 0
M  V30 6632 H 634.431 -2.66872 -3.19247 0
M  V30 6633 H 633.307 -3.16816 -4.4824 0
M  V30 6634 H 633.568 -1.45881 -4.17338 0
M  V30 6635 N 632.627 0.916307 -1.28225 0
M  V30 6636 C 633.876 1.65975 -1.14608 0
M  V30 6637 C 634.189 1.93204 0.305191 0
M  V30 6638 O 635.395 2.65611 0.562432 0
M  V30 6639 C 633.851 2.98989 -2.00333 0
M  V30 6640 C 633.459 2.79417 -3.50186 0
M  V30 6641 C 635.203 3.76856 -1.95397 0
M  V30 6642 C 633.11 4.08056 -4.28071 0
M  V30 6643 H 632.04 0.622587 -0.425324 0
M  V30 6644 H 634.691 1.01705 -1.52736 0
M  V30 6645 H 633.073 3.6438 -1.5506 0
M  V30 6646 H 634.247 2.22723 -4.034 0
M  V30 6647 H 632.562 2.14966 -3.56621 0
M  V30 6648 H 635.159 4.72203 -2.50856 0
M  V30 6649 H 635.502 4.05776 -0.930137 0
M  V30 6650 H 636.035 3.1828 -2.38626 0
M  V30 6651 H 632.774 3.8431 -5.31024 0
M  V30 6652 H 632.294 4.64371 -3.79631 0
M  V30 6653 H 633.973 4.76333 -4.37854 0
M  V30 6654 N 634.105 1.10431 1.1244 0
M  V30 6655 C 635.052 0.753103 2.18167 0
M  V30 6656 C 636.022 -0.270549 1.63882 0
M  V30 6657 O 637.207 -0.149837 1.90211 0
M  V30 6658 C 634.347 0.191046 3.44571 0
M  V30 6659 C 633.46 1.26999 4.12911 0
M  V30 6660 C 632.595 0.669586 5.26963 0
M  V30 6661 C 631.634 1.72912 5.87169 0
M  V30 6662 N 630.771 1.14898 6.92635 0
M  V30 6663 H 635.611 1.65892 2.47556 0
M  V30 6664 H 633.148 0.828631 1.21541 0
M  V30 6665 H 635.106 -0.152712 4.1692 0
M  V30 6666 H 633.736 -0.677997 3.15599 0
M  V30 6667 H 632.788 1.73087 3.3874 0
M  V30 6668 H 634.1 2.07204 4.53727 0
M  V30 6669 H 633.254 0.275274 6.06075 0
M  V30 6670 H 631.993 -0.163895 4.87425 0
M  V30 6671 H 630.998 2.13286 5.06744 0
M  V30 6672 H 632.223 2.56544 6.28778 0
M  V30 6673 H 630.169 0.336956 6.55134 0
M  V30 6674 H 630.086 1.88786 7.32049 0
M  V30 6675 H 631.354 0.78121 7.75576 0
M  V30 6676 N 635.583 -1.29855 0.893053 0
M  V30 6677 C 636.999 -1.48366 0.588199 0
M  V30 6678 C 637.199 -1.81654 -0.872018 0
M  V30 6679 O 636.255 -1.909 -1.65268 0
M  V30 6680 C 637.568 -2.60136 1.5083 0
M  V30 6681 C 639.116 -2.74014 1.51279 0
M  V30 6682 C 639.591 -3.88905 2.41902 0
M  V30 6683 N 641.082 -3.96228 2.39911 0
M  V30 6684 C 641.817 -4.84458 3.06738 0
M  V30 6685 N 641.313 -5.77426 3.8282 0
M  V30 6686 N 643.106 -4.77894 2.95929 0
M  V30 6687 H 635.257 -1.06522 1.83757 0
M  V30 6688 H 637.52 -0.528495 0.787018 0
M  V30 6689 H 637.226 -2.42383 2.54839 0
M  V30 6690 H 637.1 -3.56793 1.22388 0
M  V30 6691 H 639.487 -2.91167 0.480179 0
M  V30 6692 H 639.568 -1.77952 1.83757 0
M  V30 6693 H 639.212 -3.72508 3.45253 0
M  V30 6694 H 639.142 -4.84322 2.06737 0
M  V30 6695 H 641.633 -3.29728 1.84629 0
M  V30 6696 H 641.946 -6.41529 4.30883 0
M  V30 6697 H 640.291 -5.77332 3.86927 0
M  V30 6698 H 643.482 -4.04248 2.36012 0
M  V30 6699 H 643.655 -5.46444 3.48286 0
M  V30 6700 N 637.061 -0.65484 -1.43351 0
M  V30 6701 C 638.024 0.0263562 -2.29185 0
M  V30 6702 C 639.024 0.748951 -1.42293 0
M  V30 6703 O 640.214 0.589957 -1.63906 0
M  V30 6704 C 637.346 1.04806 -3.2439 0
M  V30 6705 H 638.539 -0.728883 -2.90908 0
M  V30 6706 H 636.092 -0.416149 -1.50658 0
M  V30 6707 H 636.827 1.83247 -2.67565 0
M  V30 6708 H 636.612 0.533554 -3.88453 0
M  V30 6709 H 638.102 1.52372 -3.88809 0
M  V30 6710 N 638.539 1.52521 -0.396863 0
M  V30 6711 C 639.487 2.28217 0.44943 0
M  V30 6712 C 640.481 1.32416 1.05652 0
M  V30 6713 O 641.687 1.49925 0.996124 0
M  V30 6714 H 638.062 0.733966 0.1637 0
M  V30 6715 H 640.033 2.97658 -0.210367 0
M  V30 6716 C 638.782 3.10713 1.56054 0
M  V30 6717 H 638.105 3.84291 1.10273 0
M  V30 6718 H 639.545 3.66803 2.12677 0
M  V30 6719 C 638.004 2.23499 2.52091 0
M  V30 6720 O 638.534 1.8669 3.55682 0
M  V30 6721 N 636.74 1.8751 2.2201 0
M  V30 6722 H 636.287 2.17643 1.37802 0
M  V30 6723 H 636.245 1.29448 2.86514 0
M  V30 6724 N 640.017 0.126909 1.57088 0
M  V30 6725 C 641.242 -0.53997 2.00248 0
M  V30 6726 C 641.667 -1.58927 1.00618 0
M  V30 6727 O 641.025 -1.81288 -0.0210131 0
M  V30 6728 C 641.073 -1.13565 3.4225 0
M  V30 6729 O 640.177 -2.25103 3.45547 0
M  V30 6730 H 639.518 -0.13412 0.650314 0
M  V30 6731 H 642.048 0.217718 2.03438 0
M  V30 6732 H 642.058 -1.46925 3.80627 0
M  V30 6733 H 640.733 -0.367122 4.14277 0
M  V30 6734 H 639.31 -1.93123 3.18995 0
M  V30 6735 N 641.495 -1.56914 -0.146875 0
M  V30 6736 C 642.723 -1.87515 -0.874394 0
M  V30 6737 C 643.138 -0.715116 -1.74733 0
M  V30 6738 O 642.495 0.315113 -1.79759 0
M  V30 6739 C 642.546 -3.17362 -1.731 0
M  V30 6740 O 642.267 -4.28897 -0.893245 0
M  V30 6741 C 643.768 -3.61479 -2.56609 0
M  V30 6742 H 640.988 -0.621546 -0.252827 0
M  V30 6743 H 643.532 -2.04023 -0.139627 0
M  V30 6744 H 641.687 -3.02608 -2.41883 0
M  V30 6745 H 642.101 -5.03146 -1.48137 0
M  V30 6746 H 643.575 -4.5517 -3.12289 0
M  V30 6747 H 644.052 -2.86773 -3.32653 0
M  V30 6748 H 644.658 -3.78927 -1.93117 0
M  V30 6749 N 642.974 0.416227 -1.52004 0
M  V30 6750 C 644.251 1.17637 -1.56272 0
M  V30 6751 C 644.631 2.08352 -0.339493 0
M  V30 6752 O 643.979 2.1833 0.674124 0
M  V30 6753 C 644.189 1.95986 -2.88774 0
M  V30 6754 C 645.537 2.52299 -3.41512 0
M  V30 6755 O 646.561 2.06174 -2.90467 0
M  V30 6756 O 645.42 3.3648 -4.30631 0
M  V30 6757 H 642.514 0.536726 -0.629169 0
M  V30 6758 H 645.06 0.423583 -1.64329 0
M  V30 6759 H 643.832 1.29487 -3.69254 0
M  V30 6760 H 643.455 2.78285 -2.83978 0
M  V30 6761 N 644.452 1.42507 0.673017 0
M  V30 6762 C 645.682 1.46261 1.45916 0
M  V30 6763 C 646.09 0.0729724 1.89059 0
M  V30 6764 O 645.433 -0.922987 1.58829 0
M  V30 6765 C 645.495 2.32853 2.73898 0
M  V30 6766 C 645.159 3.80699 2.52819 0
M  V30 6767 C 646.156 4.72307 2.17306 0
M  V30 6768 C 643.841 4.24983 2.67758 0
M  V30 6769 C 645.835 6.06192 1.97003 0
M  V30 6770 C 643.522 5.58927 2.4707 0
M  V30 6771 C 644.52 6.49348 2.11746 0
M  V30 6772 O 644.208 7.80817 1.91259 0
M  V30 6773 H 643.94 0.499561 0.455428 0
M  V30 6774 H 646.494 1.87697 0.834196 0
M  V30 6775 H 644.724 1.86268 3.38882 0
M  V30 6776 H 646.413 2.28041 3.35786 0
M  V30 6777 H 647.179 4.39378 2.05359 0
M  V30 6778 H 643.058 3.54893 2.94231 0
M  V30 6779 H 646.602 6.76731 1.69355 0
M  V30 6780 H 642.499 5.91429 2.58615 0
M  V30 6781 H 643.267 7.92194 2.05843 0
M  V30 6782 N 645.93 -0.909495 1.28709 0
M  V30 6783 C 647.178 -1.65577 1.15882 0
M  V30 6784 C 647.499 -1.928 -0.292108 0
M  V30 6785 O 646.769 -1.54716 -1.20166 0
M  V30 6786 H 645.349 -0.613714 0.425869 0
M  V30 6787 H 648.011 -1.09108 1.61498 0
M  V30 6788 H 647.107 -2.61634 1.70159 0
M  V30 6789 N 647.408 -1.11026 -1.11852 0
M  V30 6790 C 648.338 -0.786812 -2.19844 0
M  V30 6791 C 649.319 0.242935 -1.68356 0
M  V30 6792 O 650.504 0.107355 -1.93903 0
M  V30 6793 C 647.634 -0.224516 -3.46574 0
M  V30 6794 C 646.588 -1.18564 -4.1125 0
M  V30 6795 C 645.914 -0.484261 -5.32503 0
M  V30 6796 C 647.214 -2.53465 -4.56676 0
M  V30 6797 H 648.908 -1.68978 -2.47158 0
M  V30 6798 H 646.454 -0.813906 -1.18792 0
M  V30 6799 H 648.407 0.0139435 -4.21398 0
M  V30 6800 H 647.131 0.713722 -3.18706 0
M  V30 6801 H 645.79 -1.40966 -3.38414 0
M  V30 6802 H 645.438 0.458646 -5.00905 0
M  V30 6803 H 645.138 -1.12526 -5.76725 0
M  V30 6804 H 646.662 -0.254492 -6.10069 0
M  V30 6805 H 648.076 -2.35177 -5.22843 0
M  V30 6806 H 646.473 -3.13507 -5.11697 0
M  V30 6807 H 647.543 -3.13008 -3.70343 0
M  V30 6808 N 648.886 1.2938 -0.899927 0
M  V30 6809 C 650.114 1.99691 -0.541386 0
M  V30 6810 C 650.529 1.67355 0.873936 0
M  V30 6811 O 649.886 0.918728 1.57688 0
M  V30 6812 C 649.937 3.54168 -0.72438 0
M  V30 6813 O 649.658 3.85359 -2.08399 0
M  V30 6814 C 651.159 4.41746 -0.370819 0
M  V30 6815 H 648.379 0.638037 -0.207726 0
M  V30 6816 H 650.923 1.6491 -1.20934 0
M  V30 6817 H 649.078 3.87261 -0.103607 0
M  V30 6818 H 649.492 4.80032 -2.11352 0
M  V30 6819 H 650.966 5.49256 -0.549693 0
M  V30 6820 H 651.443 4.33712 0.692148 0
M  V30 6821 H 652.049 4.14125 -0.968543 0
M  V30 6822 N 650.364 0.662433 1.43002 0
M  V30 6823 C 651.327 -0.0142016 2.29196 0
M  V30 6824 C 652.327 -0.741394 1.42688 0
M  V30 6825 O 653.517 -0.581257 1.64216 0
M  V30 6826 C 650.649 -1.03084 3.24941 0
M  V30 6827 H 651.842 0.7443 2.90517 0
M  V30 6828 H 649.395 0.424133 1.50435 0
M  V30 6829 H 650.13 -1.81826 2.68533 0
M  V30 6830 H 649.915 -0.512946 3.8873 0
M  V30 6831 H 651.405 -1.50308 3.89612 0
M  V30 6832 N 651.842 -1.52309 0.404946 0
M  V30 6833 C 652.805 -2.25491 -0.410651 0
M  V30 6834 C 653.805 -1.27704 -0.977154 0
M  V30 6835 O 654.995 -1.51679 -0.856691 0
M  V30 6836 C 652.127 -3.02197 -1.57765 0
M  V30 6837 H 653.32 -2.99015 0.230277 0
M  V30 6838 H 650.873 -1.55506 0.157377 0
M  V30 6839 H 651.608 -2.33013 -2.25556 0
M  V30 6840 H 651.393 -3.73987 -1.17797 0
M  V30 6841 H 652.883 -3.57719 -2.15469 0
M  V30 6842 N 653.32 -0.135238 -1.57019 0
M  V30 6843 C 654.566 0.519563 -1.96032 0
M  V30 6844 C 654.899 1.65284 -1.01955 0
M  V30 6845 O 654.174 1.94408 -0.059727 0
M  V30 6846 C 654.457 1.0369 -3.44848 0
M  V30 6847 C 654.31 -0.0940754 -4.49702 0
M  V30 6848 C 655.629 1.92254 -3.95887 0
M  V30 6849 H 652.748 0.18739 -0.712779 0
M  V30 6850 H 655.39 -0.214086 -1.8879 0
M  V30 6851 H 653.54 1.66209 -3.5115 0
M  V30 6852 H 655.212 -0.73 -4.55487 0
M  V30 6853 H 653.455 -0.754924 -4.27181 0
M  V30 6854 H 654.126 0.309419 -5.51132 0
M  V30 6855 H 656.602 1.39581 -3.9199 0
M  V30 6856 H 655.478 2.25364 -5.00502 0
M  V30 6857 H 655.739 2.85513 -3.37543 0
M  V30 6858 N 654.798 1.5699 0.138552 0
M  V30 6859 C 656.045 1.83809 0.849732 0
M  V30 6860 C 656.373 0.717409 1.80786 0
M  V30 6861 O 655.628 -0.292897 1.93496 0
M  V30 6862 C 655.927 3.17007 1.65049 0
M  V30 6863 C 655.593 4.43037 0.838398 0
M  V30 6864 C 654.255 4.77262 0.614385 0
M  V30 6865 C 656.607 5.20495 0.271044 0
M  V30 6866 C 653.935 5.864 -0.187552 0
M  V30 6867 C 656.287 6.30476 -0.517979 0
M  V30 6868 C 654.951 6.63245 -0.75249 0
M  V30 6869 H 654.221 0.672605 0.310939 0
M  V30 6870 H 656.868 1.91166 0.112971 0
M  V30 6871 H 655.173 3.05138 2.4576 0
M  V30 6872 H 656.87 3.34975 2.20437 0
M  V30 6873 H 653.46 4.16211 1.02307 0
M  V30 6874 H 657.644 4.94422 0.431371 0
M  V30 6875 H 652.9 6.10226 -0.378659 0
M  V30 6876 H 657.074 6.89686 -0.964694 0
M  V30 6877 H 654.701 7.47648 -1.37573 0
M  V30 6878 N 656.276 -0.40816 1.52223 0
M  V30 6879 C 657.504 -1.17672 1.70179 0
M  V30 6880 C 657.919 -1.84257 0.411696 0
M  V30 6881 O 657.276 -1.7192 -0.612354 0
M  V30 6882 C 657.327 -2.23911 2.83806 0
M  V30 6883 O 657.048 -1.60044 4.0782 0
M  V30 6884 C 658.549 -3.1364 3.13281 0
M  V30 6885 H 655.769 -0.353562 0.570293 0
M  V30 6886 H 658.313 -0.480083 1.98785 0
M  V30 6887 H 656.468 -2.89242 2.57717 0
M  V30 6888 H 656.882 -2.30484 4.71145 0
M  V30 6889 H 658.356 -3.84255 3.96298 0
M  V30 6890 H 658.833 -3.76066 2.26872 0
M  V30 6891 H 659.439 -2.53977 3.41139 0
M  V30 6892 N 657.755 -1.42862 -0.66545 0
M  V30 6893 C 658.702 -1.4707 -1.77874 0
M  V30 6894 C 659.672 -0.321654 -1.62956 0
M  V30 6895 O 660.857 -0.52707 -1.83376 0
M  V30 6896 C 657.997 -1.38788 -3.15962 0
M  V30 6897 C 657.11 -2.63801 -3.42101 0
M  V30 6898 C 656.245 -2.47594 -4.69969 0
M  V30 6899 C 655.284 -3.67936 -4.89172 0
M  V30 6900 N 654.421 -3.50614 -6.08288 0
M  V30 6901 H 659.261 -2.42204 -1.73613 0
M  V30 6902 H 656.798 -1.20239 -0.847401 0
M  V30 6903 H 658.756 -1.31982 -3.95773 0
M  V30 6904 H 657.386 -0.472431 -3.19324 0
M  V30 6905 H 656.438 -2.80935 -2.56475 0
M  V30 6906 H 657.75 -3.53228 -3.52181 0
M  V30 6907 H 656.904 -2.38427 -5.57886 0
M  V30 6908 H 655.643 -1.55672 -4.62188 0
M  V30 6909 H 654.648 -3.77525 -3.99694 0
M  V30 6910 H 655.873 -4.60851 -4.98792 0
M  V30 6911 H 653.819 -2.61417 -6.01662 0
M  V30 6912 H 653.736 -4.33634 -6.19272 0
M  V30 6913 H 655.004 -3.45276 -6.98859 0
M  V30 6914 N 659.233 0.902656 -1.29189 0
M  V30 6915 C 660.181 2.0278 -1.13943 0
M  V30 6916 C 661.175 1.69308 -0.055787 0
M  V30 6917 O 662.381 1.78707 -0.215371 0
M  V30 6918 H 658.756 0.664595 -0.351877 0
M  V30 6919 H 660.727 2.12778 -2.09208 0
M  V30 6920 C 659.476 3.37657 -0.82966 0
M  V30 6921 H 658.799 3.63913 -1.65551 0
M  V30 6922 H 660.239 4.17078 -0.762998 0
M  V30 6923 C 658.698 3.33648 0.466991 0
M  V30 6924 O 659.228 3.72886 1.49395 0
M  V30 6925 N 657.434 2.86745 0.471761 0
M  V30 6926 H 656.981 2.55009 -0.364406 0
M  V30 6927 H 656.939 2.84446 1.33933 0
M  V30 6928 N 660.711 1.11618 1.11262 0
M  V30 6929 C 661.641 0.79846 2.19424 0
M  V30 6930 C 662.622 -0.234003 1.68483 0
M  V30 6931 O 663.807 -0.0970704 1.93957 0
M  V30 6932 C 660.937 0.242892 3.4645 0
M  V30 6933 C 659.891 1.20744 4.10615 0
M  V30 6934 C 659.217 0.512494 5.32238 0
M  V30 6935 C 660.517 2.55884 4.55325 0
M  V30 6936 H 662.211 1.70286 2.46258 0
M  V30 6937 H 659.757 0.820195 1.18359 0
M  V30 6938 H 661.71 0.00840447 4.21399 0
M  V30 6939 H 660.434 -0.696811 3.1908 0
M  V30 6940 H 659.093 1.42759 3.37662 0
M  V30 6941 H 658.741 -0.432075 5.01141 0
M  V30 6942 H 658.441 1.15583 5.7612 0
M  V30 6943 H 659.965 0.286842 6.09926 0
M  V30 6944 H 661.379 2.37946 5.21588 0
M  V30 6945 H 659.776 3.16216 5.10027 0
M  V30 6946 H 660.846 3.14968 3.68678 0
M  V30 6947 N 662.189 -1.289 0.906776 0
M  V30 6948 C 663.466 -1.90221 0.455537 0
M  V30 6949 C 663.846 -1.82251 -1.06527 0
M  V30 6950 O 663.194 -1.25385 -1.91026 0
M  V30 6951 C 663.404 -3.35015 0.97806 0
M  V30 6952 C 664.752 -4.12018 1.02598 0
M  V30 6953 O 665.776 -3.43947 0.926218 0
M  V30 6954 O 664.635 -5.33677 1.17689 0
M  V30 6955 H 661.729 -0.814505 0.143214 0
M  V30 6956 H 664.275 -1.37317 0.997104 0
M  V30 6957 H 663.047 -3.35006 2.02204 0
M  V30 6958 H 662.67 -3.95408 0.416914 0
M  V30 6959 N 663.667 -0.670007 -1.42649 0
M  V30 6960 C 664.614 0.0112928 -2.30797 0
M  V30 6961 C 665.584 0.797627 -1.45695 0
M  V30 6962 O 666.769 0.770845 -1.74535 0
M  V30 6963 C 663.909 0.95998 -3.31479 0
M  V30 6964 C 663.022 0.167975 -4.31673 0
M  V30 6965 C 662.157 1.11198 -5.19431 0
M  V30 6966 C 661.196 0.311381 -6.11307 0
M  V30 6967 N 660.333 1.20784 -6.91633 0
M  V30 6968 H 665.173 -0.746231 -2.88505 0
M  V30 6969 H 662.71 -0.379739 -1.42114 0
M  V30 6970 H 664.668 1.52379 -3.88377 0
M  V30 6971 H 663.298 1.68419 -2.75382 0
M  V30 6972 H 662.35 -0.512385 -3.76933 0
M  V30 6973 H 663.662 -0.453814 -4.96731 0
M  V30 6974 H 662.816 1.74587 -5.81037 0
M  V30 6975 H 661.555 1.76766 -4.54538 0
M  V30 6976 H 660.56 -0.335758 -5.48774 0
M  V30 6977 H 661.785 -0.340135 -6.78248 0
M  V30 6978 H 659.731 1.85001 -6.29373 0
M  V30 6979 H 659.648 0.64102 -7.53277 0
M  V30 6980 H 660.916 1.82936 -7.5773 0
M  V30 6981 N 665.145 1.52092 -0.413018 0
M  V30 6982 C 666.108 2.25706 0.398687 0
M  V30 6983 C 667.108 1.28221 0.970368 0
M  V30 6984 O 668.298 1.52131 0.848635 0
M  V30 6985 C 665.43 3.03029 1.5616 0
M  V30 6986 H 666.623 2.98888 -0.246131 0
M  V30 6987 H 664.176 1.5542 -0.165622 0
M  V30 6988 H 664.911 2.34205 2.24317 0
M  V30 6989 H 664.696 3.74606 1.15812 0
M  V30 6990 H 666.186 3.58857 2.13569 0
M  V30 6991 N 666.623 0.143563 1.56945 0
M  V30 6992 C 667.553 -0.7936 2.196 0
M  V30 6993 C 668.534 -1.25955 1.14321 0
M  V30 6994 O 669.719 -1.31773 1.42651 0
M  V30 6995 C 666.849 -2.03424 2.81489 0
M  V30 6996 C 665.803 -1.70519 3.92565 0
M  V30 6997 C 665.129 -3.01817 4.41373 0
M  V30 6998 C 666.429 -0.95449 5.13504 0
M  V30 6999 H 668.123 -0.271423 2.98167 0
M  V30 7000 H 665.669 -0.12911 1.4342 0
M  V30 7001 H 667.622 -2.69463 3.23987 0
M  V30 7002 H 666.346 -2.58008 2.00248 0
M  V30 7003 H 665.005 -1.06859 3.5068 0
M  V30 7004 H 664.653 -3.54386 3.56959 0
M  V30 7005 H 664.353 -2.80565 5.16292 0
M  V30 7006 H 665.877 -3.68934 4.86539 0
M  V30 7007 H 667.291 -1.5169 5.52868 0
M  V30 7008 H 665.688 -0.842035 5.94163 0
M  V30 7009 H 666.758 0.0544033 4.84869 0
M  V30 7010 N 668.101 -1.57061 -0.130224 0
M  V30 7011 C 669.048 -1.99517 -1.16024 0
M  V30 7012 C 670.018 -0.865452 -1.41771 0
M  V30 7013 O 671.203 -1.12882 -1.53826 0
M  V30 7014 C 668.343 -2.3951 -2.48453 0
M  V30 7015 C 667.456 -3.65848 -2.29737 0
M  V30 7016 C 666.591 -3.9487 -3.55318 0
M  V30 7017 C 665.63 -5.14426 -3.31711 0
M  V30 7018 N 664.767 -5.39375 -4.49466 0
M  V30 7019 H 669.607 -2.87305 -0.791194 0
M  V30 7020 H 667.144 -1.42129 -0.379195 0
M  V30 7021 H 669.102 -2.60731 -3.25692 0
M  V30 7022 H 667.732 -1.54779 -2.83272 0
M  V30 7023 H 666.784 -3.52307 -1.4347 0
M  V30 7024 H 668.096 -4.53241 -2.08263 0
M  V30 7025 H 667.25 -4.16679 -4.4098 0
M  V30 7026 H 665.989 -3.05931 -3.79813 0
M  V30 7027 H 664.994 -4.92473 -2.44439 0
M  V30 7028 H 666.219 -6.04933 -3.08598 0
M  V30 7029 H 664.165 -4.53391 -4.74102 0
M  V30 7030 H 664.082 -6.21069 -4.31055 0
M  V30 7031 H 665.35 -5.65694 -5.36293 0
M  V30 7032 N 669.579 0.400081 -1.52437 0
M  V30 7033 C 670.509 1.4947 -1.7939 0
M  V30 7034 C 671.49 1.57383 -0.645329 0
M  V30 7035 O 672.675 1.72511 -0.891826 0
M  V30 7036 C 669.805 2.87201 -1.95276 0
M  V30 7037 C 668.759 2.94134 -3.10917 0
M  V30 7038 C 668.085 4.34207 -3.1204 0
M  V30 7039 C 669.385 2.64791 -4.50203 0
M  V30 7040 H 671.079 1.27165 -2.71052 0
M  V30 7041 H 668.625 0.610312 -1.30427 0
M  V30 7042 H 670.578 3.63772 -2.12715 0
M  V30 7043 H 669.302 3.10819 -1.00294 0
M  V30 7044 H 667.961 2.20009 -2.93243 0
M  V30 7045 H 667.609 4.54848 -2.14761 0
M  V30 7046 H 667.309 4.39768 -3.89715 0
M  V30 7047 H 668.833 5.127 -3.31619 0
M  V30 7048 H 670.247 3.31083 -4.68035 0
M  V30 7049 H 668.644 2.81717 -5.29864 0
M  V30 7050 H 669.714 1.60184 -4.57678 0
M  V30 7051 N 671.057 1.43213 0.657864 0
M  V30 7052 C 672.02 1.47687 1.75275 0
M  V30 7053 C 673.02 0.362179 1.56668 0
M  V30 7054 O 674.21 0.623734 1.62651 0
M  V30 7055 C 671.342 1.32497 3.14098 0
M  V30 7056 H 672.535 2.4519 1.7269 0
M  V30 7057 H 670.088 1.2991 0.869087 0
M  V30 7058 H 670.823 0.359831 3.22298 0
M  V30 7059 H 670.608 2.13299 3.29008 0
M  V30 7060 H 672.098 1.38549 3.93946 0
M  V30 7061 N 672.536 -0.895792 1.29666 0
M  V30 7062 C 673.761 -1.68528 1.20885 0
M  V30 7063 C 674.186 -1.8673 -0.226595 0
M  V30 7064 O 673.544 -1.39044 -1.16347 0
M  V30 7065 C 673.592 -3.04512 1.93144 0
M  V30 7066 O 672.696 -3.92963 1.25115 0
M  V30 7067 H 672.037 -0.515371 0.418675 0
M  V30 7068 H 674.567 -1.11878 1.71302 0
M  V30 7069 H 674.577 -3.54628 2.0175 0
M  V30 7070 H 673.252 -2.90582 2.97548 0
M  V30 7071 H 671.829 -3.51399 1.24794 0
M  V30 7072 N 674.014 -1.12206 -1.10668 0
M  V30 7073 C 674.977 -0.790867 -2.15123 0
M  V30 7074 C 675.977 0.193618 -1.5963 0
M  V30 7075 O 677.167 -0.0318728 -1.74171 0
M  V30 7076 C 674.299 -0.174797 -3.40452 0
M  V30 7077 H 675.492 -1.7163 -2.45933 0
M  V30 7078 H 673.045 -0.924993 -1.2599 0
M  V30 7079 H 673.78 0.760478 -3.15257 0
M  V30 7080 H 673.565 -0.88358 -3.82015 0
M  V30 7081 H 675.055 0.0405162 -4.1758 0
M  V30 7082 N 675.492 1.28418 -0.913599 0
M  V30 7083 C 676.422 2.29713 -0.418847 0
M  V30 7084 C 677.403 1.62165 0.513469 0
M  V30 7085 O 678.588 1.89576 0.421235 0
M  V30 7086 C 675.718 3.45612 0.342042 0
M  V30 7087 C 674.672 4.25056 -0.501123 0
M  V30 7088 C 673.998 5.3329 0.388097 0
M  V30 7089 C 675.298 4.91814 -1.75831 0
M  V30 7090 H 676.992 2.71346 -1.26538 0
M  V30 7091 H 674.538 1.30446 -0.609903 0
M  V30 7092 H 676.491 4.15562 0.699 0
M  V30 7093 H 675.215 3.02858 1.22248 0
M  V30 7094 H 673.874 3.56833 -0.840598 0
M  V30 7095 H 673.522 4.8678 1.26707 0
M  V30 7096 H 673.222 5.87347 -0.172459 0
M  V30 7097 H 674.746 6.06088 0.74094 0
M  V30 7098 H 676.16 5.54126 -1.47026 0
M  V30 7099 H 674.557 5.55866 -2.26126 0
M  V30 7100 H 675.627 4.16313 -2.4862 0
M  V30 7101 N 676.97 0.677563 1.42291 0
M  V30 7102 C 677.88 0.000962654 2.346 0
M  V30 7103 C 678.896 -0.785833 1.55244 0
M  V30 7104 O 680.072 -0.727523 1.87801 0
M  V30 7105 C 677.137 -0.936746 3.33805 0
M  V30 7106 C 676.198 -0.144173 4.29058 0
M  V30 7107 C 675.431 -1.03722 5.23524 0
M  V30 7108 O 675.654 -2.27675 5.22992 0
M  V30 7109 O 674.588 -0.496542 5.99848 0
M  V30 7110 H 678.414 0.761397 2.94001 0
M  V30 7111 H 675.999 0.43781 1.42841 0
M  V30 7112 H 677.881 -1.47497 3.94744 0
M  V30 7113 H 676.556 -1.67698 2.76874 0
M  V30 7114 H 675.463 0.438224 3.71524 0
M  V30 7115 H 676.796 0.55701 4.89038 0
M  V30 7116 N 678.448 -1.51871 0.421078 0
M  V30 7117 C 679.673 -2.0684 -0.152371 0
M  V30 7118 C 680.098 -1.28802 -1.37083 0
M  V30 7119 O 679.456 -0.321482 -1.78427 0
M  V30 7120 C 679.504 -3.57532 -0.469368 0
M  V30 7121 O 678.608 -3.81818 -1.55848 0
M  V30 7122 H 677.949 -0.663939 -0.00898586 0
M  V30 7123 H 680.479 -1.95674 0.597724 0
M  V30 7124 H 680.489 -4.01515 -0.724553 0
M  V30 7125 H 679.164 -4.13761 0.421276 0
M  V30 7126 H 677.741 -3.49709 -1.29453 0
M  V30 7127 N 679.926 -0.151884 -1.56866 0
M  V30 7128 C 681.174 0.497021 -1.95893 0
M  V30 7129 C 681.495 1.65078 -1.03799 0
M  V30 7130 O 680.765 1.95642 -0.10049 0
M  V30 7131 H 679.345 0.186603 -0.723318 0
M  V30 7132 H 682.007 -0.228525 -1.93556 0
M  V30 7133 H 681.103 0.869933 -2.99731 0
M  V30 7134 N 681.404 1.57128 0.121893 0
M  V30 7135 C 682.632 1.88883 0.844451 0
M  V30 7136 C 683.047 0.742824 1.73573 0
M  V30 7137 O 682.404 -0.286475 1.80238 0
M  V30 7138 C 682.455 3.20076 1.68029 0
M  V30 7139 O 682.176 4.30264 0.824898 0
M  V30 7140 C 683.677 3.65515 2.50826 0
M  V30 7141 H 680.897 0.62549 0.242907 0
M  V30 7142 H 683.441 2.04219 0.107151 0
M  V30 7143 H 681.596 3.06418 2.37038 0
M  V30 7144 H 682.01 5.05439 1.40113 0
M  V30 7145 H 683.484 4.60081 3.05008 0
M  V30 7146 H 683.961 2.92029 3.28048 0
M  V30 7147 H 684.567 3.81952 1.87064 0
M  V30 7148 N 682.882 -0.391992 1.52647 0
M  V30 7149 C 684.128 -1.139 1.67793 0
M  V30 7150 C 684.461 -1.89711 0.41514 0
M  V30 7151 O 683.736 -1.85431 -0.586979 0
M  V30 7152 C 684.019 -2.11966 2.91105 0
M  V30 7153 C 683.872 -1.39939 4.27478 0
M  V30 7154 C 685.191 -3.1243 3.09961 0
M  V30 7155 H 682.31 -0.412707 0.610608 0
M  V30 7156 H 684.952 -0.422725 1.85238 0
M  V30 7157 H 683.102 -2.73048 2.76364 0
M  V30 7158 H 684.774 -0.818439 4.53982 0
M  V30 7159 H 683.017 -0.701246 4.28095 0
M  V30 7160 H 683.688 -2.1158 5.09841 0
M  V30 7161 H 686.164 -2.61435 3.23714 0
M  V30 7162 H 685.04 -3.78294 3.97725 0
M  V30 7163 H 685.301 -3.81127 2.24042 0
M  V30 7164 N 684.36 -1.4356 -0.65026 0
M  V30 7165 C 685.606 -1.46545 -1.41054 0
M  V30 7166 C 685.961 -0.0894113 -1.92192 0
M  V30 7167 O 685.254 0.892427 -1.69547 0
M  V30 7168 C 685.448 -2.44528 -2.60654 0
M  V30 7169 C 685.277 -3.91524 -2.21222 0
M  V30 7170 C 684.047 -4.59866 -2.09408 0
M  V30 7171 C 686.245 -4.81276 -1.81323 0
M  V30 7172 N 684.227 -5.91772 -1.63337 0
M  V30 7173 C 685.598 -6.02478 -1.46356 0
M  V30 7174 C 687.653 -4.6851 -1.68532 0
M  V30 7175 C 686.356 -7.12332 -0.998805 0
M  V30 7176 C 688.382 -5.78369 -1.23461 0
M  V30 7177 C 687.744 -6.98699 -0.894337 0
M  V30 7178 H 683.843 -0.59135 -0.511693 0
M  V30 7179 H 686.427 -1.79759 -0.747978 0
M  V30 7180 H 684.598 -2.13336 -3.24565 0
M  V30 7181 H 686.33 -2.37932 -3.27369 0
M  V30 7182 H 683.085 -4.14412 -2.29259 0
M  V30 7183 H 683.509 -6.61799 -1.42655 0
M  V30 7184 H 688.151 -3.75933 -1.93479 0
M  V30 7185 H 685.869 -8.04734 -0.736835 0
M  V30 7186 H 689.455 -5.70512 -1.1405 0
M  V30 7187 H 688.335 -7.82263 -0.550901 0
M  V30 7188 N 685.838 0.888903 -1.30139 0
M  V30 7189 C 687.087 1.63507 -1.18103 0
M  V30 7190 C 687.4 1.93808 0.264141 0
M  V30 7191 O 688.606 2.66744 0.505966 0
M  V30 7192 C 687.062 2.94673 -2.0663 0
M  V30 7193 C 686.67 2.71926 -3.56034 0
M  V30 7194 C 688.414 3.72626 -2.03346 0
M  V30 7195 C 686.321 3.98884 -4.3663 0
M  V30 7196 H 685.251 0.613426 -0.438435 0
M  V30 7197 H 687.902 0.984427 -1.54859 0
M  V30 7198 H 686.284 3.61009 -1.62754 0
M  V30 7199 H 687.458 2.14116 -4.08033 0
M  V30 7200 H 685.773 2.07353 -3.61101 0
M  V30 7201 H 688.37 4.66775 -2.60816 0
M  V30 7202 H 688.713 4.03712 -1.016 0
M  V30 7203 H 689.246 3.13147 -2.45324 0
M  V30 7204 H 685.985 3.72959 -5.39056 0
M  V30 7205 H 685.505 4.56214 -3.89396 0
M  V30 7206 H 687.184 4.66938 -4.47859 0
M  V30 7207 N 687.317 1.12792 1.10072 0
M  V30 7208 C 688.265 0.794523 2.18609 0
M  V30 7209 C 689.259 -0.220271 1.67962 0
M  V30 7210 O 690.465 -0.0780938 1.79831 0
M  V30 7211 H 686.84 0.239123 0.712969 0
M  V30 7212 H 688.811 1.71823 2.43966 0
M  V30 7213 C 687.56 0.269548 3.46654 0
M  V30 7214 H 686.883 1.04171 3.8599 0
M  V30 7215 H 688.323 0.0746242 4.23934 0
M  V30 7216 C 686.782 -1.00333 3.21613 0
M  V30 7217 O 687.312 -2.08042 3.4363 0
M  V30 7218 N 685.518 -0.931763 2.75257 0
M  V30 7219 H 685.065 -0.0551197 2.57541 0
M  V30 7220 H 685.023 -1.78405 2.58881 0
M  V30 7221 N 688.795 -1.27931 0.920396 0
M  V30 7222 C 690.035 -1.96459 0.564198 0
M  V30 7223 C 690.399 -1.70802 -0.876967 0
M  V30 7224 O 691.6 -2.32956 -1.34107 0
M  V30 7225 C 689.871 -3.46583 0.872641 0
M  V30 7226 S 691.43 -4.34343 0.623859 0
M  V30 7227 H 688.248 -0.679735 0.208523 0
M  V30 7228 H 690.85 -1.55319 1.18727 0
M  V30 7229 H 689.554 -3.62753 1.91933 0
M  V30 7230 H 689.085 -3.92677 0.238479 0
M  V30 7231 H 691.1 -4.93449 -0.521744 0
M  V30 7232 N 690.273 -0.685099 -1.4193 0
M  V30 7233 C 691.503 -0.220052 -2.05425 0
M  V30 7234 C 691.911 1.13185 -1.51611 0
M  V30 7235 O 691.254 1.71631 -0.654875 0
M  V30 7236 C 691.316 -0.0888364 -3.5939 0
M  V30 7237 C 690.98 -1.37109 -4.35947 0
M  V30 7238 C 691.977 -2.30675 -4.65924 0
M  V30 7239 C 689.662 -1.62155 -4.75406 0
M  V30 7240 C 691.656 -3.47556 -5.34306 0
M  V30 7241 C 689.343 -2.79324 -5.43527 0
M  V30 7242 C 690.341 -3.71848 -5.72903 0
M  V30 7243 O 690.029 -4.86966 -6.39624 0
M  V30 7244 H 689.761 -0.102165 -0.668235 0
M  V30 7245 H 692.315 -0.935194 -1.82875 0
M  V30 7246 H 690.545 0.681981 -3.80639 0
M  V30 7247 H 692.234 0.337669 -4.04493 0
M  V30 7248 H 693 -2.12579 -4.3593 0
M  V30 7249 H 688.879 -0.910053 -4.51928 0
M  V30 7250 H 692.423 -4.19794 -5.57153 0
M  V30 7251 H 688.32 -2.97342 -5.72938 0
M  V30 7252 H 689.088 -4.86644 -6.58118 0
M  V30 7253 N 691.751 1.51645 -0.429126 0
M  V30 7254 C 692.699 2.29119 0.400921 0
M  V30 7255 C 693.693 1.34628 1.02819 0
M  V30 7256 O 694.899 1.52004 0.964098 0
M  V30 7257 H 691.274 0.737273 0.148095 0
M  V30 7258 H 693.245 2.97144 -0.273457 0
M  V30 7259 C 691.994 3.13953 1.49429 0
M  V30 7260 H 691.317 3.86544 1.02097 0
M  V30 7261 H 692.757 3.71232 2.04849 0
M  V30 7262 C 691.216 2.28796 2.47293 0
M  V30 7263 O 691.746 1.94193 3.51642 0
M  V30 7264 N 689.952 1.92177 2.17982 0
M  V30 7265 H 689.499 2.20517 1.33154 0
M  V30 7266 H 689.457 1.35497 2.83704 0
M  V30 7267 N 693.229 0.160201 1.56784 0
M  V30 7268 C 694.192 -0.760405 2.16219 0
M  V30 7269 C 695.192 -1.16595 1.10735 0
M  V30 7270 O 696.382 -1.08472 1.36306 0
M  V30 7271 C 693.514 -2.03358 2.73603 0
M  V30 7272 H 694.707 -0.243173 2.98912 0
M  V30 7273 H 692.26 -0.0893139 1.56045 0
M  V30 7274 H 692.995 -2.59416 1.94612 0
M  V30 7275 H 692.78 -1.75186 3.50788 0
M  V30 7276 H 694.27 -2.69081 3.19351 0
M  V30 7277 N 694.707 -1.5719 -0.113559 0
M  V30 7278 C 695.637 -2.03772 -1.14013 0
M  V30 7279 C 696.618 -0.923176 -1.42869 0
M  V30 7280 O 697.803 -1.19325 -1.53216 0
M  V30 7281 C 694.933 -2.44663 -2.4649 0
M  V30 7282 C 693.887 -3.59612 -2.32085 0
M  V30 7283 C 693.213 -3.8642 -3.69573 0
M  V30 7284 C 694.513 -4.91149 -1.7768 0
M  V30 7285 H 696.207 -2.89785 -0.752665 0
M  V30 7286 H 693.753 -1.39412 -0.360609 0
M  V30 7287 H 695.706 -2.75857 -3.18561 0
M  V30 7288 H 694.43 -1.55628 -2.87137 0
M  V30 7289 H 693.089 -3.28636 -1.62461 0
M  V30 7290 H 692.737 -2.94581 -4.07715 0
M  V30 7291 H 692.437 -4.63797 -3.60786 0
M  V30 7292 H 693.961 -4.2007 -4.4314 0
M  V30 7293 H 695.375 -5.20843 -2.39574 0
M  V30 7294 H 693.772 -5.72562 -1.79701 0
M  V30 7295 H 694.842 -4.79301 -0.734776 0
M  V30 7296 N 696.185 0.383891 -1.52853 0
M  V30 7297 C 697.415 1.14783 -1.7178 0
M  V30 7298 C 697.823 1.84055 -0.438211 0
M  V30 7299 O 697.166 1.73713 0.597465 0
M  V30 7300 C 697.228 2.23543 -2.81547 0
M  V30 7301 C 696.892 1.74195 -4.22499 0
M  V30 7302 C 697.889 1.21591 -5.05481 0
M  V30 7303 C 695.574 1.80262 -4.6884 0
M  V30 7304 C 697.568 0.757104 -6.32888 0
M  V30 7305 C 695.255 1.33993 -5.96229 0
M  V30 7306 C 696.253 0.818049 -6.78083 0
M  V30 7307 O 695.941 0.362123 -8.03084 0
M  V30 7308 H 695.673 0.349908 -0.578395 0
M  V30 7309 H 698.227 0.454377 -2.00311 0
M  V30 7310 H 696.457 2.96328 -2.48449 0
M  V30 7311 H 698.146 2.8519 -2.88828 0
M  V30 7312 H 698.912 1.16257 -4.7086 0
M  V30 7313 H 694.791 2.19825 -4.05213 0
M  V30 7314 H 698.335 0.34908 -6.96726 0
M  V30 7315 H 694.232 1.39015 -6.30353 0
M  V30 7316 H 695 0.483134 -8.17073 0
M  V30 7317 N 697.663 1.43903 0.642637 0
M  V30 7318 C 698.626 1.49538 1.73698 0
M  V30 7319 C 699.626 0.378776 1.56275 0
M  V30 7320 O 700.816 0.64095 1.6198 0
M  V30 7321 C 697.948 1.35821 3.12675 0
M  V30 7322 H 699.141 2.47008 1.70079 0
M  V30 7323 H 696.694 1.30824 0.85526 0
M  V30 7324 H 697.429 0.393994 3.21898 0
M  V30 7325 H 697.214 2.16776 3.26727 0
M  V30 7326 H 698.704 1.4272 3.92455 0
M  V30 7327 N 699.141 -0.881989 1.30609 0
M  V30 7328 C 700.073 -1.99375 1.13058 0
M  V30 7329 C 701.086 -1.62636 0.0729879 0
M  V30 7330 O 702.275 -1.75621 0.319301 0
M  V30 7331 C 699.375 -3.31536 0.702651 0
M  V30 7332 C 698.548 -3.96693 1.84265 0
M  V30 7333 C 697.607 -5.07158 1.40277 0
M  V30 7334 O 696.633 -5.28628 2.11048 0
M  V30 7335 N 697.835 -5.79808 0.283449 0
M  V30 7336 H 700.6 -2.14981 2.08814 0
M  V30 7337 H 698.161 -1.05526 1.22784 0
M  V30 7338 H 700.153 -4.02804 0.391331 0
M  V30 7339 H 698.723 -3.12175 -0.162954 0
M  V30 7340 H 697.943 -3.1856 2.32192 0
M  V30 7341 H 699.231 -4.36964 2.60653 0
M  V30 7342 H 698.629 -5.64871 -0.306189 0
M  V30 7343 H 697.186 -6.51792 0.0315985 0
M  V30 7344 N 700.619 -1.13374 -1.09472 0
M  V30 7345 C 701.582 -0.813639 -2.14272 0
M  V30 7346 C 702.582 0.176677 -1.59826 0
M  V30 7347 O 703.772 -0.0503441 -1.74127 0
M  V30 7348 C 700.904 -0.210897 -3.40247 0
M  V30 7349 H 702.097 -1.74229 -2.44099 0
M  V30 7350 H 699.65 -0.938304 -1.25002 0
M  V30 7351 H 700.385 0.726998 -3.16046 0
M  V30 7352 H 700.17 -0.924048 -3.81056 0
M  V30 7353 H 701.66 -0.00377603 -4.176 0
M  V30 7354 N 702.098 1.27442 -0.927168 0
M  V30 7355 C 703.509 1.76385 -0.611979 0
M  V30 7356 C 703.86 1.75715 0.872853 0
M  V30 7357 O 702.985 1.3603 1.683 0
M  V30 7358 C 703.58 3.20303 -1.10414 0
M  V30 7359 C 702.139 3.66916 -0.839628 0
M  V30 7360 C 701.286 2.46859 -1.26317 0
M  V30 7361 H 704.237 1.13716 -1.107 0
M  V30 7362 H 704.258 3.77811 -0.451578 0
M  V30 7363 H 703.77 3.20759 -2.18484 0
M  V30 7364 H 701.871 3.71906 0.227292 0
M  V30 7365 H 701.984 4.56415 -1.45679 0
M  V30 7366 H 700.348 2.45407 -0.681723 0
M  V30 7367 H 701.131 2.50025 -2.3525 0
M  V30 7368 N 703.576 0.692616 1.41565 0
M  V30 7369 C 704.823 0.222335 2.01276 0
M  V30 7370 C 705.151 -1.17706 1.5484 0
M  V30 7371 O 704.406 -1.80795 0.749118 0
M  V30 7372 C 704.705 0.225073 3.56691 0
M  V30 7373 C 704.371 1.57158 4.22625 0
M  V30 7374 C 703.033 1.94022 4.40351 0
M  V30 7375 C 705.385 2.45758 4.59622 0
M  V30 7376 C 702.713 3.19076 4.92349 0
M  V30 7377 C 705.065 3.70141 5.13009 0
M  V30 7378 C 703.729 4.07152 5.28946 0
M  V30 7379 H 702.999 0.0813581 0.73652 0
M  V30 7380 H 705.646 0.891123 1.69503 0
M  V30 7381 H 703.951 -0.527259 3.88236 0
M  V30 7382 H 705.648 -0.156283 4.00695 0
M  V30 7383 H 702.238 1.27486 4.09201 0
M  V30 7384 H 706.422 2.18558 4.45585 0
M  V30 7385 H 701.678 3.4775 5.02872 0
M  V30 7386 H 705.852 4.38983 5.40617 0
M  V30 7387 H 703.479 5.04125 5.69001 0
M  V30 7388 N 705.054 -1.51416 0.437162 0
M  V30 7389 C 706.302 -2.01687 -0.129108 0
M  V30 7390 C 706.623 -1.32329 -1.43227 0
M  V30 7391 O 705.893 -0.457796 -1.90476 0
M  V30 7392 H 704.473 -0.745277 -0.0507023 0
M  V30 7393 H 707.135 -1.86075 0.579828 0
M  V30 7394 H 706.231 -3.10605 -0.305141 0
M  V30 7395 N 706.532 -0.168513 -1.56696 0
M  V30 7396 C 707.78 0.476216 -1.96409 0
M  V30 7397 C 708.101 1.63968 -1.05544 0
M  V30 7398 O 707.371 1.95525 -0.121235 0
M  V30 7399 H 705.951 0.178921 -0.725256 0
M  V30 7400 H 708.613 -0.249042 -1.93302 0
M  V30 7401 H 707.709 0.838094 -3.00637 0
M  V30 7402 N 708.01 1.57248 0.105221 0
M  V30 7403 C 709.257 1.8557 0.810552 0
M  V30 7404 C 709.585 0.755595 1.79223 0
M  V30 7405 O 708.84 -0.251788 1.94073 0
M  V30 7406 C 709.139 3.20437 1.58287 0
M  V30 7407 C 708.805 4.44716 0.744235 0
M  V30 7408 C 707.467 4.78458 0.513013 0
M  V30 7409 C 709.819 5.20953 0.160578 0
M  V30 7410 C 707.147 5.8587 -0.311894 0
M  V30 7411 C 709.499 6.29235 -0.651596 0
M  V30 7412 C 708.163 6.615 -0.893005 0
M  V30 7413 H 707.433 0.67905 0.296602 0
M  V30 7414 H 710.08 1.91363 0.0723968 0
M  V30 7415 H 708.385 3.10283 2.39232 0
M  V30 7416 H 710.082 3.39576 2.13282 0
M  V30 7417 H 706.672 4.18287 0.934555 0
M  V30 7418 H 710.856 4.95226 0.3264 0
M  V30 7419 H 706.112 6.09286 -0.508012 0
M  V30 7420 H 710.286 6.87484 -1.11077 0
M  V30 7421 H 707.913 7.44562 -1.53401 0
M  V30 7422 N 709.488 -0.375779 1.53054 0
M  V30 7423 C 710.435 -1.45978 1.78771 0
M  V30 7424 C 711.405 -1.53625 0.631552 0
M  V30 7425 O 712.59 -1.69674 0.872667 0
M  V30 7426 C 709.73 -2.8305 1.97425 0
M  V30 7427 C 708.843 -2.84451 3.25134 0
M  V30 7428 C 707.978 -4.13034 3.34031 0
M  V30 7429 C 707.017 -4.08536 4.55812 0
M  V30 7430 N 706.154 -5.2875 4.61918 0
M  V30 7431 H 710.994 -1.23349 2.71273 0
M  V30 7432 H 708.531 -0.598147 1.3439 0
M  V30 7433 H 710.489 -3.62666 2.06225 0
M  V30 7434 H 709.119 -3.04101 1.0827 0
M  V30 7435 H 708.171 -1.97127 3.25338 0
M  V30 7436 H 709.483 -2.76998 4.14818 0
M  V30 7437 H 708.637 -5.0106 3.42087 0
M  V30 7438 H 707.376 -4.23226 2.42345 0
M  V30 7439 H 706.381 -3.18897 4.47867 0
M  V30 7440 H 707.606 -3.99955 5.48828 0
M  V30 7441 H 705.552 -5.39547 3.73129 0
M  V30 7442 H 705.469 -5.23426 5.45492 0
M  V30 7443 H 706.737 -6.18637 4.74245 0
M  V30 7444 N 710.966 -1.44241 -0.634997 0
M  V30 7445 C 711.899 -1.45274 -1.75985 0
M  V30 7446 C 712.877 -0.312025 -1.59578 0
M  V30 7447 O 714.061 -0.508409 -1.81514 0
M  V30 7448 C 711.188 -1.28173 -3.13511 0
M  V30 7449 C 710.234 -2.45757 -3.48576 0
M  V30 7450 S 711.067 -4.08293 -3.46492 0
M  V30 7451 C 712.223 -3.93608 -4.86645 0
M  V30 7452 H 712.456 -2.40454 -1.74841 0
M  V30 7453 H 709.989 -1.31492 -0.809268 0
M  V30 7454 H 711.947 -1.18993 -3.92875 0
M  V30 7455 H 710.608 -0.34511 -3.12198 0
M  V30 7456 H 709.801 -2.29644 -4.48642 0
M  V30 7457 H 709.403 -2.51657 -2.76667 0
M  V30 7458 H 711.695 -3.57059 -5.75774 0
M  V30 7459 H 712.638 -4.9349 -5.07813 0
M  V30 7460 H 713.046 -3.25737 -4.61038 0
M  V30 7461 N 712.444 0.87505 -1.31075 0
M  V30 7462 C 713.669 1.66583 -1.23551 0
M  V30 7463 C 714.094 1.87067 0.19686 0
M  V30 7464 O 713.452 1.40877 1.1412 0
M  V30 7465 C 713.5 3.01401 -1.97965 0
M  V30 7466 O 712.604 3.90923 -1.31351 0
M  V30 7467 H 711.945 0.508645 -0.426821 0
M  V30 7468 H 714.475 1.09139 -1.7306 0
M  V30 7469 H 714.485 3.51374 -2.07366 0
M  V30 7470 H 713.16 2.85812 -3.02133 0
M  V30 7471 H 711.737 3.49369 -1.30368 0
M  V30 7472 N 713.922 1.13953 1.08869 0
M  V30 7473 C 715.17 0.903023 1.80803 0
M  V30 7474 C 715.491 -0.572151 1.86417 0
M  V30 7475 O 714.761 -1.41589 1.35386 0
M  V30 7476 H 713.341 0.331099 0.669614 0
M  V30 7477 H 716.003 1.43719 1.31647 0
M  V30 7478 H 715.099 1.29881 2.83791 0
M  V30 7479 N 715.4 -1.26948 0.933913 0
M  V30 7480 C 716.348 -2.2862 0.428463 0
M  V30 7481 C 717.342 -1.62144 -0.490464 0
M  V30 7482 O 718.548 -1.76167 -0.36948 0
M  V30 7483 H 714.923 -0.742363 0.120003 0
M  V30 7484 H 716.894 -2.68659 1.29865 0
M  V30 7485 C 715.643 -3.46423 -0.29774 0
M  V30 7486 H 714.966 -3.97792 0.400183 0
M  V30 7487 H 716.406 -4.19505 -0.615736 0
M  V30 7488 C 714.865 -3.01017 -1.51295 0
M  V30 7489 O 715.395 -3.05226 -2.61151 0
M  V30 7490 N 713.601 -2.56442 -1.36696 0
M  V30 7491 H 713.148 -2.53217 -0.473178 0
M  V30 7492 H 713.106 -2.26424 -2.18127 0
M  V30 7493 N 716.879 -0.700114 -1.41195 0
M  V30 7494 C 718.127 -0.232546 -2.00758 0
M  V30 7495 C 718.448 1.1734 -1.55745 0
M  V30 7496 O 717.718 1.79262 -0.790058 0
M  V30 7497 H 716.298 -0.0829845 -0.742376 0
M  V30 7498 H 718.96 -0.902289 -1.72756 0
M  V30 7499 H 718.056 -0.253521 -3.11069 0
M  V30 7500 N 718.357 1.51182 -0.445186 0
M  V30 7501 C 719.773 1.59299 -0.0978954 0
M  V30 7502 C 719.973 1.4555 1.39346 0
M  V30 7503 O 719.029 1.30073 2.16419 0
M  V30 7504 C 720.342 2.94133 -0.625005 0
M  V30 7505 C 721.89 3.07463 -0.586137 0
M  V30 7506 C 722.365 4.44832 -1.09035 0
M  V30 7507 N 723.856 4.51173 -1.04867 0
M  V30 7508 C 724.591 5.55804 -1.40959 0
M  V30 7509 N 724.087 6.67816 -1.84375 0
M  V30 7510 N 725.88 5.46205 -1.32726 0
M  V30 7511 H 718.031 1.58363 -1.41544 0
M  V30 7512 H 720.294 0.746946 -0.58376 0
M  V30 7513 H 720 3.09589 -1.66876 0
M  V30 7514 H 719.874 3.77161 -0.0542262 0
M  V30 7515 H 722.261 2.9167 0.448646 0
M  V30 7516 H 722.342 2.26255 -1.19341 0
M  V30 7517 H 721.986 4.61372 -2.12364 0
M  V30 7518 H 721.916 5.24591 -0.459539 0
M  V30 7519 H 724.407 3.70783 -0.729932 0
M  V30 7520 H 724.72 7.43683 -2.10131 0
M  V30 7521 H 723.065 6.69003 -1.88308 0
M  V30 7522 H 726.256 4.57583 -0.986678 0
M  V30 7523 H 726.429 6.27634 -1.61182 0
M  V30 7524 N 719.835 0.176821 1.56605 0
M  V30 7525 C 720.745 -0.763682 2.21822 0
M  V30 7526 C 721.761 -1.24889 1.21156 0
M  V30 7527 O 722.937 -1.29987 1.53836 0
M  V30 7528 C 720.002 -1.97352 2.8505 0
M  V30 7529 C 719.063 -1.53466 4.00932 0
M  V30 7530 C 718.296 -2.68682 4.61135 0
M  V30 7531 O 718.519 -3.85694 4.20234 0
M  V30 7532 O 717.453 -2.42442 5.50913 0
M  V30 7533 H 721.279 -0.238363 3.02763 0
M  V30 7534 H 718.864 -0.0516331 1.49311 0
M  V30 7535 H 720.746 -2.68096 3.25119 0
M  V30 7536 H 719.421 -2.48779 2.07101 0
M  V30 7537 H 718.328 -0.796551 3.65521 0
M  V30 7538 H 719.661 -1.06724 4.8049 0
M  V30 7539 N 721.313 -1.57302 -0.09688 0
M  V30 7540 C 722.243 -2.0497 -1.11846 0
M  V30 7541 C 723.224 -0.938278 -1.41882 0
M  V30 7542 O 724.409 -1.20943 -1.51942 0
M  V30 7543 C 721.539 -2.47264 -2.43881 0
M  V30 7544 C 720.493 -3.62053 -2.28257 0
M  V30 7545 C 719.819 -3.90318 -3.65453 0
M  V30 7546 C 721.119 -4.93005 -1.72461 0
M  V30 7547 H 722.813 -2.90567 -0.721888 0
M  V30 7548 H 720.359 -1.39786 -0.345803 0
M  V30 7549 H 722.312 -2.7922 -3.15617 0
M  V30 7550 H 721.036 -1.58664 -2.8547 0
M  V30 7551 H 719.695 -3.30341 -1.58967 0
M  V30 7552 H 719.343 -2.98889 -4.04567 0
M  V30 7553 H 719.043 -4.67597 -3.55846 0
M  V30 7554 H 720.567 -4.24747 -4.3866 0
M  V30 7555 H 721.981 -5.23354 -2.34036 0
M  V30 7556 H 720.378 -5.74436 -1.73618 0
M  V30 7557 H 721.448 -4.80053 -0.683898 0
M  V30 7558 N 722.791 0.367657 -1.53252 0
M  V30 7559 C 724.039 1.10832 -1.68999 0
M  V30 7560 C 724.36 1.89894 -0.443306 0
M  V30 7561 O 723.63 1.88235 0.54262 0
M  V30 7562 H 722.21 0.412153 -0.623008 0
M  V30 7563 H 724.872 0.414775 -1.90435 0
M  V30 7564 H 723.968 1.7993 -2.55013 0
M  V30 7565 N 724.269 1.44576 0.627338 0
M  V30 7566 C 725.179 1.54232 1.76776 0
M  V30 7567 C 726.195 0.427782 1.6866 0
M  V30 7568 O 727.371 0.685671 1.89369 0
M  V30 7569 C 724.436 1.48738 3.13174 0
M  V30 7570 C 723.497 2.71074 3.32893 0
M  V30 7571 C 722.73 2.65832 4.62784 0
M  V30 7572 O 722.953 1.72048 5.43834 0
M  V30 7573 O 721.887 3.56742 4.84787 0
M  V30 7574 H 725.713 2.50586 1.71582 0
M  V30 7575 H 723.298 1.26865 0.789028 0
M  V30 7576 H 725.18 1.48211 3.94476 0
M  V30 7577 H 723.855 0.555292 3.18902 0
M  V30 7578 H 722.762 2.77168 2.51254 0
M  V30 7579 H 724.095 3.63342 3.32029 0
M  V30 7580 N 725.747 -0.868086 1.31537 0
M  V30 7581 C 726.977 -1.65162 1.24118 0
M  V30 7582 C 727.385 -1.88187 -0.195558 0
M  V30 7583 O 726.728 -1.44154 -1.13866 0
M  V30 7584 C 726.79 -3.04119 1.91708 0
M  V30 7585 C 726.454 -3.04194 3.4105 0
M  V30 7586 C 727.451 -2.82016 4.36764 0
M  V30 7587 C 725.136 -3.25256 3.82772 0
M  V30 7588 C 727.13 -2.80881 5.72175 0
M  V30 7589 C 724.817 -3.23749 5.18295 0
M  V30 7590 C 725.815 -3.01589 6.12808 0
M  V30 7591 O 725.503 -2.9993 7.45853 0
M  V30 7592 H 725.235 -0.521597 0.430015 0
M  V30 7593 H 727.789 -1.09165 1.73989 0
M  V30 7594 H 726.019 -3.61849 1.36389 0
M  V30 7595 H 727.708 -3.64701 1.78179 0
M  V30 7596 H 728.474 -2.65525 4.05859 0
M  V30 7597 H 724.353 -3.41534 3.09638 0
M  V30 7598 H 727.897 -2.63503 6.45919 0
M  V30 7599 H 723.794 -3.39781 5.48834 0
M  V30 7600 H 724.562 -3.15979 7.55049 0
M  V30 7601 N 727.225 -1.14528 -1.08264 0
M  V30 7602 C 728.188 -0.83632 -2.13397 0
M  V30 7603 C 729.188 0.159715 -1.60005 0
M  V30 7604 O 730.378 -0.0688098 -1.74064 0
M  V30 7605 C 727.51 -0.246973 -3.40004 0
M  V30 7606 H 728.703 -1.76808 -2.42237 0
M  V30 7607 H 726.256 -0.951509 -1.24 0
M  V30 7608 H 726.991 0.693436 -3.168 0
M  V30 7609 H 726.776 -0.964412 -3.80055 0
M  V30 7610 H 728.266 -0.0480679 -4.17572 0
M  V30 7611 N 728.703 1.26451 -0.940633 0
M  V30 7612 C 729.633 2.28773 -0.467479 0
M  V30 7613 C 730.614 1.63218 0.478955 0
M  V30 7614 O 731.799 1.90427 0.380929 0
M  V30 7615 C 728.929 3.46259 0.268656 0
M  V30 7616 C 727.883 4.23898 -0.591171 0
M  V30 7617 C 727.209 5.33993 0.274891 0
M  V30 7618 C 728.509 4.87974 -1.86223 0
M  V30 7619 H 730.203 2.68601 -1.32265 0
M  V30 7620 H 727.749 1.29123 -0.637436 0
M  V30 7621 H 729.702 4.16951 0.610696 0
M  V30 7622 H 728.426 3.05383 1.15796 0
M  V30 7623 H 727.085 3.54969 -0.916098 0
M  V30 7624 H 726.733 4.89358 1.16353 0
M  V30 7625 H 726.433 5.86849 -0.297006 0
M  V30 7626 H 727.957 6.07523 0.612213 0
M  V30 7627 H 729.371 5.50883 -1.58747 0
M  V30 7628 H 727.768 5.50945 -2.37866 0
M  V30 7629 H 728.838 4.10945 -2.57394 0
M  V30 7630 N 730.181 0.707592 1.40822 0
M  V30 7631 C 731.144 0.0587224 2.29125 0
M  V30 7632 C 732.144 -0.695624 1.44975 0
M  V30 7633 O 733.334 -0.528718 1.65983 0
M  V30 7634 C 730.466 -0.926939 3.28056 0
M  V30 7635 H 731.659 0.836349 2.88002 0
M  V30 7636 H 729.212 0.471778 1.4901 0
M  V30 7637 H 729.947 -1.7319 2.74182 0
M  V30 7638 H 729.732 -0.389015 3.90165 0
M  V30 7639 H 731.222 -1.37837 3.94196 0
M  V30 7640 N 731.66 -1.50943 0.453197 0
M  V30 7641 C 732.57 -2.31884 -0.355963 0
M  V30 7642 C 733.586 -1.41481 -1.01287 0
M  V30 7643 O 734.762 -1.74546 -1.00477 0
M  V30 7644 C 731.827 -3.15668 -1.43369 0
M  V30 7645 C 730.888 -4.2187 -0.795253 0
M  V30 7646 C 730.121 -5.0165 -1.82162 0
M  V30 7647 O 730.344 -4.82266 -3.04592 0
M  V30 7648 O 729.278 -5.85311 -1.40336 0
M  V30 7649 H 733.104 -3.02162 0.305248 0
M  V30 7650 H 730.689 -1.47839 0.215398 0
M  V30 7651 H 732.571 -3.67709 -2.05836 0
M  V30 7652 H 731.246 -2.48137 -2.07869 0
M  V30 7653 H 730.153 -3.73867 -0.132106 0
M  V30 7654 H 731.486 -4.9182 -0.193484 0
M  V30 7655 N 733.138 -0.185124 -1.56509 0
M  V30 7656 C 734.368 0.461469 -2.0138 0
M  V30 7657 C 734.776 1.56417 -1.06445 0
M  V30 7658 O 734.119 1.83603 -0.0597515 0
M  V30 7659 C 734.181 1.08731 -3.42663 0
M  V30 7660 C 733.845 0.124581 -4.5683 0
M  V30 7661 C 734.842 -0.662295 -5.15664 0
M  V30 7662 C 732.527 0.0163947 -5.02297 0
M  V30 7663 C 734.521 -1.54442 -6.18406 0
M  V30 7664 C 732.208 -0.869301 -6.04885 0
M  V30 7665 C 733.206 -1.64828 -6.62813 0
M  V30 7666 O 732.894 -2.51915 -7.63409 0
M  V30 7667 H 732.626 0.1212 -0.665046 0
M  V30 7668 H 735.18 -0.288119 -2.03369 0
M  V30 7669 H 733.41 1.8853 -3.37629 0
M  V30 7670 H 735.099 1.63753 -3.71403 0
M  V30 7671 H 735.865 -0.588963 -4.81411 0
M  V30 7672 H 731.744 0.61253 -4.56913 0
M  V30 7673 H 735.288 -2.15289 -6.63548 0
M  V30 7674 H 731.185 -0.943786 -6.38563 0
M  V30 7675 H 731.953 -2.45584 -7.80789 0
M  V30 7676 N 734.616 1.57351 0.0885366 0
M  V30 7677 C 735.844 1.90631 0.804196 0
M  V30 7678 C 736.259 0.779474 1.71958 0
M  V30 7679 O 735.616 -0.248179 1.80805 0
M  V30 7680 C 735.667 3.23568 1.61202 0
M  V30 7681 O 735.388 4.31917 0.733447 0
M  V30 7682 C 736.889 3.70753 2.43016 0
M  V30 7683 H 734.109 0.630501 0.229585 0
M  V30 7684 H 736.653 2.044 0.0638092 0
M  V30 7685 H 734.808 3.11377 2.30485 0
M  V30 7686 H 735.222 5.08297 1.29361 0
M  V30 7687 H 736.696 4.66447 2.9518 0
M  V30 7688 H 737.173 2.98922 3.2178 0
M  V30 7689 H 737.779 3.85834 1.7892 0
M  V30 7690 N 736.094 -0.359525 1.53444 0
M  V30 7691 C 737.004 -1.46445 1.83278 0
M  V30 7692 C 738.02 -1.5833 0.721629 0
M  V30 7693 O 739.196 -1.7411 1.01231 0
M  V30 7694 C 736.261 -2.81638 2.02191 0
M  V30 7695 C 735.322 -2.7923 3.26082 0
M  V30 7696 C 734.555 -4.07974 3.44082 0
M  V30 7697 O 734.778 -5.04447 2.66251 0
M  V30 7698 O 733.712 -4.13417 4.37458 0
M  V30 7699 H 737.538 -1.24156 2.77162 0
M  V30 7700 H 735.123 -0.550201 1.389 0
M  V30 7701 H 737.005 -3.61732 2.16167 0
M  V30 7702 H 735.68 -3.03892 1.11496 0
M  V30 7703 H 734.587 -1.97813 3.17523 0
M  V30 7704 H 735.92 -2.6193 4.16718 0
M  V30 7705 N 737.572 -1.44907 -0.619662 0
M  V30 7706 C 738.818 -1.48512 -1.38102 0
M  V30 7707 C 739.151 -0.121686 -1.93818 0
M  V30 7708 O 738.426 0.862256 -1.74343 0
M  V30 7709 C 738.709 -2.55469 -2.53787 0
M  V30 7710 C 738.562 -4.01212 -2.03345 0
M  V30 7711 C 739.881 -2.58821 -3.55949 0
M  V30 7712 H 737 -0.540712 -0.500799 0
M  V30 7713 H 739.642 -1.7665 -0.69962 0
M  V30 7714 H 737.792 -2.31606 -3.11915 0
M  V30 7715 H 739.464 -4.36245 -1.49959 0
M  V30 7716 H 737.707 -4.12443 -1.34438 0
M  V30 7717 H 738.378 -4.71717 -2.86683 0
M  V30 7718 H 740.854 -2.80172 -3.07641 0
M  V30 7719 H 739.73 -3.35542 -4.34399 0
M  V30 7720 H 739.991 -1.63451 -4.10775 0
M  V30 7721 N 739.05 0.861098 -1.31996 0
M  V30 7722 C 739.997 1.96912 -1.20392 0
M  V30 7723 C 740.967 1.65869 -0.0875899 0
M  V30 7724 O 742.152 1.88992 -0.262011 0
M  V30 7725 C 739.292 3.32435 -0.926335 0
M  V30 7726 C 738.405 3.76018 -2.12684 0
M  V30 7727 C 737.54 5.00301 -1.78529 0
M  V30 7728 C 736.579 5.36357 -2.94937 0
M  V30 7729 N 735.716 6.51818 -2.60917 0
M  V30 7730 H 740.556 2.06169 -2.1517 0
M  V30 7731 H 738.093 1.00917 -1.07024 0
M  V30 7732 H 740.051 4.10478 -0.745917 0
M  V30 7733 H 738.681 3.22796 -0.0153578 0
M  V30 7734 H 737.733 2.93683 -2.41774 0
M  V30 7735 H 739.045 3.98664 -2.99781 0
M  V30 7736 H 738.199 5.86034 -1.57001 0
M  V30 7737 H 736.938 4.79578 -0.886356 0
M  V30 7738 H 735.943 4.49139 -3.17103 0
M  V30 7739 H 737.168 5.59041 -3.85552 0
M  V30 7740 H 735.114 6.32624 -1.73558 0
M  V30 7741 H 735.031 6.7445 -3.41544 0
M  V30 7742 H 736.299 7.4072 -2.42804 0
M  V30 7743 N 740.528 1.15101 1.07655 0
M  V30 7744 C 741.756 0.947731 1.83918 0
M  V30 7745 C 742.171 -0.503927 1.81951 0
M  V30 7746 O 741.528 -1.34941 1.2287 0
M  V30 7747 C 741.579 1.4503 3.31132 0
M  V30 7748 O 741.3 2.84508 3.33146 0
M  V30 7749 C 742.801 1.28806 4.24174 0
M  V30 7750 H 740.021 0.336786 0.580358 0
M  V30 7751 H 742.565 1.52799 1.35914 0
M  V30 7752 H 740.72 0.912632 3.76497 0
M  V30 7753 H 741.134 3.0723 4.251 0
M  V30 7754 H 742.608 1.6882 5.25551 0
M  V30 7755 H 743.085 0.231851 4.38588 0
M  V30 7756 H 743.691 1.81465 3.84643 0
M  V30 7757 N 742.006 -1.2595 0.947325 0
M  V30 7758 C 743.252 -1.9375 0.599064 0
M  V30 7759 C 743.585 -1.74088 -0.860632 0
M  V30 7760 O 742.86 -1.08158 -1.61654 0
M  V30 7761 C 743.143 -3.47353 0.949634 0
M  V30 7762 C 742.996 -3.76273 2.46452 0
M  V30 7763 C 744.315 -4.37589 0.469442 0
M  V30 7764 H 741.434 -0.703674 0.219115 0
M  V30 7765 H 744.076 -1.48705 1.18266 0
M  V30 7766 H 742.226 -3.8585 0.453008 0
M  V30 7767 H 743.898 -3.47455 3.03435 0
M  V30 7768 H 742.141 -3.22135 2.90537 0
M  V30 7769 H 742.812 -4.83664 2.66032 0
M  V30 7770 H 745.288 -4.06353 0.89534 0
M  V30 7771 H 744.164 -5.43841 0.7435 0
M  V30 7772 H 744.425 -4.37579 -0.630618 0
M  V30 7773 N 743.484 -0.715051 -1.40445 0
M  V30 7774 C 744.712 -0.263959 -2.05209 0
M  V30 7775 C 745.127 1.09403 -1.53871 0
M  V30 7776 O 744.484 1.68746 -0.695064 0
M  V30 7777 C 744.535 -0.234545 -3.60738 0
M  V30 7778 O 744.256 -1.53891 -4.10182 0
M  V30 7779 C 745.757 0.235164 -4.42676 0
M  V30 7780 H 742.977 -0.11876 -0.660407 0
M  V30 7781 H 745.521 -0.973107 -1.79864 0
M  V30 7782 H 743.676 0.425563 -3.85055 0
M  V30 7783 H 744.09 -1.43903 -5.04373 0
M  V30 7784 H 745.564 0.204598 -5.51621 0
M  V30 7785 H 746.041 1.27724 -4.20218 0
M  V30 7786 H 746.647 -0.394649 -4.23465 0
M  V30 7787 N 744.962 1.50701 -0.461195 0
M  V30 7788 C 746.211 2.01458 0.0988277 0
M  V30 7789 C 746.524 1.34863 1.41673 0
M  V30 7790 O 747.73 1.76721 2.06111 0
M  V30 7791 C 746.186 3.59186 0.226648 0
M  V30 7792 C 745.794 4.34732 -1.08223 0
M  V30 7793 C 747.538 4.18015 0.73916 0
M  V30 7794 C 745.445 5.8422 -0.918747 0
M  V30 7795 H 744.375 0.7529 0.040709 0
M  V30 7796 H 747.026 1.736 -0.594589 0
M  V30 7797 H 745.408 3.83589 0.983621 0
M  V30 7798 H 746.582 4.22059 -1.84939 0
M  V30 7799 H 744.897 3.87466 -1.52509 0
M  V30 7800 H 747.494 5.27436 0.878347 0
M  V30 7801 H 747.837 3.78746 1.72793 0
M  V30 7802 H 748.37 3.9778 0.0398469 0
M  V30 7803 H 745.109 6.27944 -1.88059 0
M  V30 7804 H 744.629 5.99493 -0.191801 0
M  V30 7805 H 746.308 6.44382 -0.581405 0
M  V30 7806 N 746.441 0.193421 1.56409 0
M  V30 7807 C 747.388 -0.728124 2.19014 0
M  V30 7808 C 748.358 -1.21098 1.13686 0
M  V30 7809 O 749.543 -1.27517 1.4193 0
M  V30 7810 C 746.683 -1.94277 2.8522 0
M  V30 7811 C 745.796 -1.50143 4.05069 0
M  V30 7812 C 744.931 -2.67145 4.59137 0
M  V30 7813 C 743.97 -2.19609 5.71348 0
M  V30 7814 N 743.107 -3.29782 6.19829 0
M  V30 7815 H 747.947 -0.187499 2.9741 0
M  V30 7816 H 745.484 -0.0808064 1.46878 0
M  V30 7817 H 747.442 -2.65551 3.21774 0
M  V30 7818 H 746.072 -2.45673 2.09391 0
M  V30 7819 H 745.124 -0.684624 3.74189 0
M  V30 7820 H 746.436 -1.11266 4.86232 0
M  V30 7821 H 745.59 -3.46544 4.97988 0
M  V30 7822 H 744.329 -3.09295 3.77078 0
M  V30 7823 H 743.334 -1.38664 5.32027 0
M  V30 7824 H 744.559 -1.78492 6.55223 0
M  V30 7825 H 742.505 -3.71466 5.40693 0
M  V30 7826 H 742.422 -2.95069 6.96039 0
M  V30 7827 H 743.69 -4.094 6.63334 0
M  V30 7828 N 747.919 -1.57396 -0.0801906 0
M  V30 7829 C 748.849 -2.06145 -1.09665 0
M  V30 7830 C 749.83 -0.953273 -1.40878 0
M  V30 7831 O 751.015 -1.22548 -1.50651 0
M  V30 7832 C 748.145 -2.49836 -2.41245 0
M  V30 7833 C 747.099 -3.64454 -2.24405 0
M  V30 7834 C 746.425 -3.94172 -3.61293 0
M  V30 7835 C 747.725 -4.94807 -1.67223 0
M  V30 7836 H 749.419 -2.91316 -0.691028 0
M  V30 7837 H 746.965 -1.40145 -0.330957 0
M  V30 7838 H 748.918 -2.82552 -3.12638 0
M  V30 7839 H 747.642 -1.61683 -2.83771 0
M  V30 7840 H 746.301 -3.32008 -1.55454 0
M  V30 7841 H 745.949 -3.03163 -4.01374 0
M  V30 7842 H 745.649 -4.71345 -3.50867 0
M  V30 7843 H 747.173 -4.29376 -4.3413 0
M  V30 7844 H 748.587 -5.25807 -2.28472 0
M  V30 7845 H 746.984 -5.76245 -1.67515 0
M  V30 7846 H 748.054 -4.80751 -0.632944 0
M  V30 7847 N 749.397 0.351382 -1.53633 0
M  V30 7848 C 750.645 1.09034 -1.70165 0
M  V30 7849 C 750.966 1.89413 -0.463422 0
M  V30 7850 O 750.236 1.888 0.522624 0
M  V30 7851 H 748.816 0.405522 -0.627344 0
M  V30 7852 H 751.478 0.394554 -1.90865 0
M  V30 7853 H 750.574 1.77215 -2.56907 0
M  V30 7854 N 750.875 1.45233 0.611969 0
M  V30 7855 C 752.152 1.39495 1.37115 0
M  V30 7856 C 752.532 0.0633303 2.11005 0
M  V30 7857 O 751.88 -0.954617 2.07604 0
M  V30 7858 C 752.09 2.60579 2.32163 0
M  V30 7859 C 753.438 3.05477 2.94905 0
M  V30 7860 O 754.462 2.60921 2.42485 0
M  V30 7861 O 753.321 3.82787 3.90047 0
M  V30 7862 H 750.415 0.55335 0.614599 0
M  V30 7863 H 752.961 1.57355 0.635423 0
M  V30 7864 H 751.733 3.49085 1.76793 0
M  V30 7865 H 751.356 2.45031 3.13122 0
M  V30 7866 N 752.353 -0.854086 1.3245 0
M  V30 7867 C 753.3 -1.96271 1.21434 0
M  V30 7868 C 754.27 -1.6582 0.0963851 0
M  V30 7869 O 755.455 -1.88851 0.27203 0
M  V30 7870 C 752.595 -3.31939 0.943952 0
M  V30 7871 C 751.708 -3.74885 2.14675 0
M  V30 7872 C 750.843 -4.99347 1.81179 0
M  V30 7873 C 749.882 -5.34785 2.97777 0
M  V30 7874 N 749.019 -6.50425 2.6437 0
M  V30 7875 H 753.859 -2.05025 2.16261 0
M  V30 7876 H 751.396 -1.00348 1.07558 0
M  V30 7877 H 753.354 -4.10076 0.767675 0
M  V30 7878 H 751.984 -3.22784 0.0324763 0
M  V30 7879 H 751.036 -2.92396 2.43328 0
M  V30 7880 H 752.348 -3.97068 3.01891 0
M  V30 7881 H 751.502 -5.85193 1.60107 0
M  V30 7882 H 750.241 -4.79101 0.911777 0
M  V30 7883 H 749.246 -4.47451 3.1948 0
M  V30 7884 H 750.471 -5.56988 3.88511 0
M  V30 7885 H 748.417 -6.31695 1.7691 0
M  V30 7886 H 748.334 -6.7263 3.45116 0
M  V30 7887 H 749.602 -7.39422 2.46729 0
M  V30 7888 N 753.831 -1.1567 -1.07043 0
M  V30 7889 C 754.779 -0.852204 -2.16426 0
M  V30 7890 C 755.773 0.175661 -1.68487 0
M  V30 7891 O 756.979 0.0303874 -1.79974 0
M  V30 7892 H 753.354 -0.257942 -0.706378 0
M  V30 7893 H 755.325 -1.78231 -2.39324 0
M  V30 7894 C 754.074 -0.361362 -3.45817 0
M  V30 7895 H 753.397 -1.14369 -3.83092 0
M  V30 7896 H 754.837 -0.186997 -4.23587 0
M  V30 7897 C 753.296 0.917703 -3.2416 0
M  V30 7898 O 753.826 1.98858 -3.49025 0
M  V30 7899 N 752.032 0.858456 -2.77631 0
M  V30 7900 H 751.579 -0.0131821 -2.57597 0
M  V30 7901 H 751.537 1.71478 -2.6352 0
M  V30 7902 N 755.309 1.25446 -0.953992 0
M  V30 7903 C 756.72 1.75047 -0.649255 0
M  V30 7904 C 757.071 1.77527 0.835385 0
M  V30 7905 O 756.196 1.39569 1.65377 0
M  V30 7906 C 756.791 3.17889 -1.17183 0
M  V30 7907 C 755.35 3.65052 -0.917267 0
M  V30 7908 C 754.497 2.44124 -1.31525 0
M  V30 7909 H 757.448 1.11342 -1.13087 0
M  V30 7910 H 757.469 3.76768 -0.531616 0
M  V30 7911 H 756.981 3.16052 -2.25239 0
M  V30 7912 H 755.082 3.72305 0.148354 0
M  V30 7913 H 755.195 4.53222 -1.55328 0
M  V30 7914 H 753.559 2.43906 -0.733624 0
M  V30 7915 H 754.342 2.44979 -2.405 0
M  V30 7916 O 756.826 0.86056 1.36662 0
M  V30 7917 H 757.517 0.45661 1.88241 0
M  V30 END ATOM
M  V30 BEGIN BOND
M  V30 END BOND
M  V30 END CTAB
M  END
$$$$
