drugbank_target|P15391 B-lymphocyte antigen CD19 (DB06342; DB09052; DB12530; DB13881; DB13915; DB15044; DB15699)
 OpenBabel12092120333D

  0  0  0     0  0            999 V3000
M  V30 BEGIN CTAB
M  V30 COUNTS 8428 8556 0 0 0
M  V30 BEGIN ATOM
M  V30 1 H -0.908 1.98254 -0.117106 0
M  V30 2 N 0 1.576 0 0
M  V30 3 C 0.933 2.03868 1.02534 0
M  V30 4 C 1.911 0.928543 1.3348 0
M  V30 5 O 3.095 1.19667 1.45644 0
M  V30 6 C 0.222 2.43627 2.35294 0
M  V30 7 C -0.732 3.65373 2.2001 0
M  V30 8 S 0.101 5.13292 1.52614 0
M  V30 9 C 1.257 5.56322 2.86805 0
M  V30 10 H 1.49 2.90518 0.631377 0
M  V30 11 H -0.977 1.52953 0.210867 0
M  V30 12 H 0.981 2.67203 3.11629 0
M  V30 13 H -0.358 1.57376 2.7183 0
M  V30 14 H -1.165 3.90944 3.18086 0
M  V30 15 H -1.563 3.418 1.51819 0
M  V30 16 H 0.729 5.58782 3.83104 0
M  V30 17 H 1.672 6.56266 2.65933 0
M  V30 18 H 2.08 4.83886 2.90714 0
M  V30 19 N 1.4781 -0.272755 1.55222 0
M  V30 20 C 2.8891 -0.84378 1.66545 0
M  V30 21 C 3.2401 -1.87035 0.592641 0
M  V30 22 O 2.3651 -2.14761 -0.265818 0
M  V30 23 C 2.9601 -1.53723 3.01918 0
M  V30 24 C 1.5191 -2.05628 3.15268 0
M  V30 25 C 0.6661 -0.898424 2.62343 0
M  V30 26 H 3.6171 -0.0490998 1.58624 0
M  V30 27 H 3.6381 -2.40421 2.94921 0
M  V30 28 H 3.1501 -0.78983 3.79978 0
M  V30 29 H 1.2511 -2.83329 2.41983 0
M  V30 30 H 1.3641 -2.27142 4.21833 0
M  V30 31 H -0.2719 -1.29186 2.19506 0
M  V30 32 H 0.5111 -0.164528 3.42906 0
M  V30 33 N 2.9562 -1.48159 -0.537278 0
M  V30 34 C 4.3672 -1.49429 -1.11928 0
M  V30 35 C 4.7182 -0.26 -1.9447 0
M  V30 36 O 3.8432 0.633489 -2.0692 0
M  V30 37 C 4.4382 -2.70758 -2.03656 0
M  V30 38 C 2.9972 -2.74923 -2.57088 0
M  V30 39 C 2.1442 -2.42835 -1.3389 0
M  V30 40 H 5.0952 -1.55381 -0.322886 0
M  V30 41 H 5.1162 -2.48861 -2.87834 0
M  V30 42 H 4.6282 -3.60575 -1.43553 0
M  V30 43 H 2.7292 -1.89296 -3.20933 0
M  V30 44 H 2.8422 -3.76157 -2.9672 0
M  V30 45 H 1.2062 -1.93836 -1.65226 0
M  V30 46 H 1.9892 -3.34884 -0.755504 0
M  V30 47 N 4.4343 0.785586 -1.36625 0
M  V30 48 C 5.8453 1.36101 -1.27803 0
M  V30 49 C 6.1963 1.96035 0.0804875 0
M  V30 50 O 5.3213 1.92834 0.982042 0
M  V30 51 C 5.9163 2.47442 -2.31426 0
M  V30 52 C 4.4753 3.00789 -2.26281 0
M  V30 53 C 3.6223 1.73896 -2.15999 0
M  V30 54 H 6.5733 0.586928 -1.47448 0
M  V30 55 H 6.5943 3.2656 -1.95291 0
M  V30 56 H 6.1063 2.03791 -3.30289 0
M  V30 57 H 4.2073 3.48851 -1.30896 0
M  V30 58 H 4.3203 3.57343 -3.19128 0
M  V30 59 H 2.6843 1.9628 -1.62316 0
M  V30 60 H 3.4673 1.32368 -3.16755 0
M  V30 61 N 5.9124 1.20967 1.01018 0
M  V30 62 C 7.3284 0.965905 1.27053 0
M  V30 63 C 7.5284 -0.350785 1.98423 0
M  V30 64 O 6.5844 -1.07773 2.28344 0
M  V30 65 C 7.8974 2.15294 2.09926 0
M  V30 66 C 9.4454 2.19463 2.23171 0
M  V30 67 C 9.9204 3.3767 3.09424 0
M  V30 68 N 11.4114 3.37724 3.17012 0
M  V30 69 C 12.1464 4.25837 3.83993 0
M  V30 70 N 11.6424 5.24138 4.53047 0
M  V30 71 N 13.4354 4.1366 3.80581 0
M  V30 72 H 5.5864 2.0565 0.531194 0
M  V30 73 H 7.8494 0.90024 0.297106 0
M  V30 74 H 7.5554 3.10684 1.64828 0
M  V30 75 H 7.4294 2.13923 3.10672 0
M  V30 76 H 9.8164 1.24632 2.6749 0
M  V30 77 H 9.8974 2.2488 1.21912 0
M  V30 78 H 9.5414 4.32791 2.65808 0
M  V30 79 H 9.4714 3.29491 4.10784 0
M  V30 80 H 11.9624 2.6658 2.6785 0
M  V30 81 H 12.2754 5.87684 5.01844 0
M  V30 82 H 10.6204 5.28068 4.5185 0
M  V30 83 H 13.8114 3.36127 3.25785 0
M  V30 84 H 13.9844 4.82538 4.32505 0
M  V30 85 N 7.3905 -1.2043 1.01659 0
M  V30 86 C 8.3205 -2.25466 0.607226 0
M  V30 87 C 9.3015 -1.65853 -0.377716 0
M  V30 88 O 10.4865 -1.92409 -0.263149 0
M  V30 89 C 7.6165 -3.47256 -0.0552949 0
M  V30 90 C 6.5705 -4.19462 0.850632 0
M  V30 91 C 5.8965 -5.34673 0.0538859 0
M  V30 92 C 7.1965 -4.75603 2.15868 0
M  V30 93 H 8.8905 -2.59962 1.48526 0
M  V30 94 H 6.4365 -1.2496 0.715605 0
M  V30 95 H 8.3895 -4.19917 -0.353233 0
M  V30 96 H 7.1135 -3.11924 -0.968045 0
M  V30 97 H 5.7725 -3.48667 1.13257 0
M  V30 98 H 5.4205 -4.95585 -0.860514 0
M  V30 99 H 5.1205 -5.83913 0.657192 0
M  V30 100 H 6.6445 -6.10138 -0.237598 0
M  V30 101 H 8.0585 -5.40083 1.92311 0
M  V30 102 H 6.4555 -5.3528 2.71284 0
M  V30 103 H 7.5255 -3.94346 2.82169 0
M  V30 104 N 8.8686 -0.792821 -1.36206 0
M  V30 105 C 9.7986 -0.207853 -2.32573 0
M  V30 106 C 10.7796 0.659055 -1.56813 0
M  V30 107 O 11.9646 0.592176 -1.84951 0
M  V30 108 C 9.0946 0.655449 -3.41059 0
M  V30 109 C 8.0486 -0.111842 -4.27854 0
M  V30 110 C 7.3746 0.872274 -5.27537 0
M  V30 111 C 8.6746 -1.30299 -5.05786 0
M  V30 112 H 10.3686 -1.01294 -2.81744 0
M  V30 113 H 7.9146 -0.48854 -1.3546 0
M  V30 114 H 9.8676 1.07464 -4.07467 0
M  V30 115 H 8.5916 1.49328 -2.90463 0
M  V30 116 H 7.2506 -0.512053 -3.63006 0
M  V30 117 H 6.8986 1.70523 -4.73214 0
M  V30 118 H 6.5986 0.363291 -5.86476 0
M  V30 119 H 8.1226 1.28996 -5.96818 0
M  V30 120 H 9.5366 -0.959379 -5.65216 0
M  V30 121 H 7.9336 -1.7455 -5.74154 0
M  V30 122 H 9.0036 -2.09663 -4.37229 0
M  V30 123 N 10.3467 1.47872 -0.545128 0
M  V30 124 C 11.5937 2.02493 -0.0165858 0
M  V30 125 C 11.9217 1.42073 1.32836 0
M  V30 126 O 11.1767 0.561459 1.87473 0
M  V30 127 C 11.4757 3.57131 0.13867 0
M  V30 128 C 11.1417 4.36411 -1.13384 0
M  V30 129 C 9.8037 4.57792 -1.48256 0
M  V30 130 C 12.1557 4.82223 -1.97764 0
M  V30 131 C 9.4837 5.22233 -2.67376 0
M  V30 132 C 11.8357 5.47977 -3.16076 0
M  V30 133 C 10.4997 5.67593 -3.51275 0
M  V30 134 H 9.7697 0.740975 -0.00606918 0
M  V30 135 H 12.4167 1.77683 -0.714207 0
M  V30 136 H 10.7217 3.80865 0.919172 0
M  V30 137 H 12.4187 3.97031 0.562782 0
M  V30 138 H 9.0087 4.2004 -0.852297 0
M  V30 139 H 13.1927 4.65493 -1.72132 0
M  V30 140 H 8.4487 5.35616 -2.94831 0
M  V30 141 H 12.6227 5.8244 -3.81755 0
M  V30 142 H 10.2497 6.17298 -4.43675 0
M  V30 143 N 11.8248 0.280983 1.55075 0
M  V30 144 C 13.0718 -0.334115 1.99725 0
M  V30 145 C 13.3998 -1.5542 1.1694 0
M  V30 146 O 12.6548 -1.94361 0.228531 0
M  V30 147 C 12.9538 -0.754656 3.49342 0
M  V30 148 C 12.6198 0.361445 4.49449 0
M  V30 149 C 11.2818 0.667893 4.76542 0
M  V30 150 C 13.6338 1.11322 5.09173 0
M  V30 151 C 10.9618 1.7296 5.60626 0
M  V30 152 C 13.3138 2.1647 5.9441 0
M  V30 153 C 11.9778 2.47742 6.19822 0
M  V30 154 H 11.2478 -0.122261 0.730844 0
M  V30 155 H 13.8948 0.395917 1.87363 0
M  V30 156 H 12.1998 -1.56446 3.5921 0
M  V30 157 H 13.8968 -1.24142 3.813 0
M  V30 158 H 10.4868 0.112481 4.28452 0
M  V30 159 H 14.6708 0.88973 4.8826 0
M  V30 160 H 9.9268 1.97684 5.78559 0
M  V30 161 H 14.1008 2.75193 6.3972 0
M  V30 162 H 11.7278 3.30145 6.84769 0
M  V30 163 N 13.3029 -1.57598 0.00835791 0
M  V30 164 C 14.2329 -2.1198 -0.979113 0
M  V30 165 C 15.2139 -1.03091 -1.35301 0
M  V30 166 O 16.3989 -1.30818 -1.43528 0
M  V30 167 C 13.5289 -2.62995 -2.26828 0
M  V30 168 C 12.4829 -3.76485 -2.03576 0
M  V30 169 C 11.8089 -4.13846 -3.38579 0
M  V30 170 C 13.1089 -5.0342 -1.39161 0
M  V30 171 H 14.8029 -2.94738 -0.526281 0
M  V30 172 H 12.3489 -1.41783 -0.251704 0
M  V30 173 H 14.3019 -2.99669 -2.96271 0
M  V30 174 H 13.0259 -1.7737 -2.7424 0
M  V30 175 H 11.6849 -3.40217 -1.36557 0
M  V30 176 H 11.3329 -3.25232 -3.83709 0
M  V30 177 H 11.0329 -4.90312 -3.23834 0
M  V30 178 H 12.5569 -4.53086 -4.09323 0
M  V30 179 H 13.9709 -5.37812 -1.98573 0
M  V30 180 H 12.3679 -5.84746 -1.34878 0
M  V30 181 H 13.4379 -4.83548 -0.361868 0
M  V30 182 N 14.781 0.264519 -1.55364 0
M  V30 183 C 15.711 1.33121 -1.91836 0
M  V30 184 C 16.692 1.51101 -0.781192 0
M  V30 185 O 17.877 1.64003 -1.04003 0
M  V30 186 C 15.007 2.68921 -2.19769 0
M  V30 187 C 13.961 2.65661 -3.35571 0
M  V30 188 C 13.287 4.05093 -3.49004 0
M  V30 189 C 14.587 2.24187 -4.71739 0
M  V30 190 H 16.281 1.02844 -2.81182 0
M  V30 191 H 13.827 0.493286 -1.35287 0
M  V30 192 H 15.78 3.43663 -2.43872 0
M  V30 193 H 14.504 3.00799 -1.27231 0
M  V30 194 H 13.163 1.93377 -3.1145 0
M  V30 195 H 12.811 4.34206 -2.53917 0
M  V30 196 H 12.511 4.03804 -4.26868 0
M  V30 197 H 14.035 4.81561 -3.75408 0
M  V30 198 H 15.449 2.88654 -4.9533 0
M  V30 199 H 13.846 2.34044 -5.52579 0
M  V30 200 H 14.916 1.19327 -4.69988 0
M  V30 201 N 16.2591 1.48442 0.529413 0
M  V30 202 C 17.5061 1.56488 1.28521 0
M  V30 203 C 17.8341 0.239042 1.93025 0
M  V30 204 O 17.0891 -0.770713 1.79885 0
M  V30 205 C 17.3881 2.6523 2.39558 0
M  V30 206 C 17.0541 4.07648 1.92702 0
M  V30 207 C 15.7161 4.46411 1.79641 0
M  V30 208 C 18.0681 4.96896 1.573 0
M  V30 209 C 15.3961 5.72226 1.29514 0
M  V30 210 C 17.7481 6.23202 1.08636 0
M  V30 211 C 16.4121 6.60821 0.941919 0
M  V30 212 H 15.6821 0.572631 0.470292 0
M  V30 213 H 18.3291 1.82161 0.59072 0
M  V30 214 H 16.6341 2.33419 3.14679 0
M  V30 215 H 18.3311 2.68671 2.97686 0
M  V30 216 H 14.9211 3.77036 2.03819 0
M  V30 217 H 19.1051 4.67626 1.66251 0
M  V30 218 H 14.3611 6.00097 1.17019 0
M  V30 219 H 18.5351 6.91753 0.803136 0
M  V30 220 H 16.1621 7.58198 0.5513 0
M  V30 221 N 17.7372 -0.778329 1.37039 0
M  V30 222 C 18.6672 -1.90546 1.34962 0
M  V30 223 C 19.6482 -1.68681 0.219274 0
M  V30 224 O 20.8332 -1.89634 0.418624 0
M  V30 225 C 17.9632 -3.27734 1.14925 0
M  V30 226 C 16.9172 -3.64147 2.24902 0
M  V30 227 C 16.2432 -4.99806 1.89996 0
M  V30 228 C 17.5432 -3.71579 3.67051 0
M  V30 229 H 19.2372 -1.92541 2.29277 0
M  V30 230 H 16.7832 -0.924948 1.10366 0
M  V30 231 H 18.7362 -4.06215 1.12104 0
M  V30 232 H 17.4602 -3.26154 0.170631 0
M  V30 233 H 16.1192 -2.8797 2.26868 0
M  V30 234 H 15.7672 -4.94759 0.906796 0
M  V30 235 H 15.4672 -5.25139 2.63634 0
M  V30 236 H 16.9912 -5.80694 1.88749 0
M  V30 237 H 18.4052 -4.40227 3.67251 0
M  V30 238 H 16.8022 -4.08405 4.39688 0
M  V30 239 H 17.8722 -2.72404 4.01154 0
M  V30 240 N 19.2153 -1.21501 -1.00376 0
M  V30 241 C 20.4433 -1.059 -1.77744 0
M  V30 242 C 20.8583 0.391125 -1.84704 0
M  V30 243 O 20.2153 1.27133 -1.30933 0
M  V30 244 C 20.2663 -1.65111 -3.21591 0
M  V30 245 O 19.9873 -3.0445 -3.15027 0
M  V30 246 C 21.4883 -1.54637 -4.15454 0
M  V30 247 H 18.7083 -0.371825 -0.558558 0
M  V30 248 H 21.2523 -1.60865 -1.26264 0
M  V30 249 H 19.4073 -1.14235 -3.70175 0
M  V30 250 H 19.8213 -3.3278 -4.0541 0
M  V30 251 H 21.2953 -2.00808 -5.14179 0
M  V30 252 H 21.7723 -0.501022 -4.36333 0
M  V30 253 H 22.3783 -2.04767 -3.72761 0
M  V30 254 N 20.6934 1.19889 -1.02296 0
M  V30 255 C 22.1044 1.71124 -0.746568 0
M  V30 256 C 22.4554 1.81939 0.734335 0
M  V30 257 O 21.5804 1.48639 1.57275 0
M  V30 258 C 22.1754 3.10804 -1.34857 0
M  V30 259 C 20.7344 3.59323 -1.1209 0
M  V30 260 C 19.8814 2.3635 -1.45031 0
M  V30 261 H 22.8324 1.04813 -1.19163 0
M  V30 262 H 22.8534 3.73186 -0.742437 0
M  V30 263 H 22.3654 3.029 -2.42638 0
M  V30 264 H 20.4664 3.7255 -0.0610337 0
M  V30 265 H 20.5794 4.4378 -1.80544 0
M  V30 266 H 18.9434 2.39399 -0.869487 0
M  V30 267 H 19.7264 2.31081 -2.53883 0
M  V30 268 N 22.1715 0.800033 1.35784 0
M  V30 269 C 23.1045 0.151499 2.27697 0
M  V30 270 C 24.0825 -0.678663 1.4776 0
M  V30 271 O 25.2665 -0.647358 1.77035 0
M  V30 272 C 22.3935 -0.790492 3.29346 0
M  V30 273 C 21.4395 -0.0407832 4.26481 0
M  V30 274 S 22.2725 1.29077 5.19711 0
M  V30 275 C 23.4285 0.353055 6.24903 0
M  V30 276 H 23.6615 0.930796 2.82353 0
M  V30 277 H 21.1945 0.594767 1.42485 0
M  V30 278 H 23.1525 -1.3285 3.88409 0
M  V30 279 H 21.8135 -1.54312 2.73581 0
M  V30 280 H 21.0065 -0.755971 4.98298 0
M  V30 281 H 20.6085 0.427063 3.71554 0
M  V30 282 H 22.9005 -0.464147 6.75908 0
M  V30 283 H 23.8435 1.04023 7.00418 0
M  V30 284 H 24.2515 -0.0483344 5.64479 0
M  V30 285 N 23.6496 -1.47581 0.552962 0
M  V30 286 C 24.5596 -2.33743 -0.200353 0
M  V30 287 C 25.5756 -1.47928 -0.916151 0
M  V30 288 O 26.7516 -1.80865 -0.885993 0
M  V30 289 C 23.8166 -3.24536 -1.21973 0
M  V30 290 C 22.8776 -4.26238 -0.511819 0
M  V30 291 C 22.1106 -5.12693 -1.48263 0
M  V30 292 O 22.3336 -5.01525 -2.71714 0
M  V30 293 O 21.2676 -5.93375 -1.00945 0
M  V30 294 H 25.0936 -2.9945 0.506304 0
M  V30 295 H 22.6786 -1.46071 0.313622 0
M  V30 296 H 24.5606 -3.80631 -1.80827 0
M  V30 297 H 23.2356 -2.61462 -1.90839 0
M  V30 298 H 22.1426 -3.73914 0.117799 0
M  V30 299 H 23.4756 -4.92014 0.135308 0
M  V30 300 N 25.1277 -0.289203 -1.54924 0
M  V30 301 C 26.3737 0.323998 -2.00195 0
M  V30 302 C 26.7067 1.54441 -1.17735 0
M  V30 303 O 25.9817 1.92875 -0.250878 0
M  V30 304 C 26.2647 0.692276 -3.53383 0
M  V30 305 C 26.1177 -0.536457 -4.46589 0
M  V30 306 C 27.4367 1.52335 -4.12895 0
M  V30 307 H 24.5557 0.116289 -0.727768 0
M  V30 308 H 27.1977 -0.398954 -1.85764 0
M  V30 309 H 25.3477 1.30822 -3.65811 0
M  V30 310 H 27.0197 -1.17499 -4.46085 0
M  V30 311 H 25.2627 -1.17192 -4.1767 0
M  V30 312 H 25.9337 -0.234806 -5.515 0
M  V30 313 H 28.4097 1.00302 -4.0383 0
M  V30 314 H 27.2857 1.74982 -5.20262 0
M  V30 315 H 27.5467 2.50886 -3.64018 0
M  V30 316 N 26.6058 1.57591 -0.0167156 0
M  V30 317 C 28.0218 1.55946 0.339557 0
M  V30 318 C 28.2218 1.02109 1.73713 0
M  V30 319 O 27.2778 0.662303 2.43659 0
M  V30 320 C 28.5908 3.00037 0.199499 0
M  V30 321 C 30.1388 3.11805 0.273193 0
M  V30 322 C 30.6138 4.57713 0.162068 0
M  V30 323 N 32.1048 4.6268 0.219444 0
M  V30 324 C 32.8398 5.73185 0.157054 0
M  V30 325 N 32.3358 6.92786 0.0442936 0
M  V30 326 N 34.1288 5.61707 0.21014 0
M  V30 327 H 26.2798 1.90921 -0.930758 0
M  V30 328 H 28.5428 0.877674 -0.358319 0
M  V30 329 H 28.2488 3.4333 -0.76273 0
M  V30 330 H 28.1228 3.64387 0.974786 0
M  V30 331 H 30.5098 2.68433 1.22587 0
M  V30 332 H 30.5908 2.50201 -0.532256 0
M  V30 333 H 30.2348 5.01763 -0.78714 0
M  V30 334 H 30.1648 5.17283 0.986222 0
M  V30 335 H 32.6558 3.76649 0.307246 0
M  V30 336 H 32.9688 7.728 0.00304069 0
M  V30 337 H 31.3138 6.94999 0.00968457 0
M  V30 338 H 34.5048 4.6716 0.296546 0
M  V30 339 H 34.6778 6.47807 0.158054 0
M  V30 340 N 28.0839 -0.256276 1.55502 0
M  V30 341 C 29.4949 -0.826068 1.67431 0
M  V30 342 C 29.8459 -1.86396 0.612446 0
M  V30 343 O 28.9709 -2.15031 -0.243025 0
M  V30 344 C 29.5659 -1.50512 3.03532 0
M  V30 345 C 28.1249 -2.02273 3.17431 0
M  V30 346 C 27.2719 -0.870548 2.63281 0
M  V30 347 H 30.2229 -0.0322728 1.58667 0
M  V30 348 H 30.2439 -2.37279 2.97454 0
M  V30 349 H 29.7559 -0.749484 3.80794 0
M  V30 350 H 27.8569 -2.80746 2.44974 0
M  V30 351 H 27.9699 -2.22655 4.24219 0
M  V30 352 H 26.3339 -1.26851 2.20864 0
M  V30 353 H 27.1169 -0.128149 3.43061 0
M  V30 354 N 29.562 -1.4872 -0.521534 0
M  V30 355 C 30.472 -1.66569 -1.65203 0
M  V30 356 C 31.488 -0.548197 -1.65139 0
M  V30 357 O 32.664 -0.820339 -1.83936 0
M  V30 358 C 29.729 -1.70917 -3.01642 0
M  V30 359 C 28.79 -2.94356 -3.12495 0
M  V30 360 C 28.023 -2.98487 -4.42426 0
M  V30 361 O 28.246 -2.10786 -5.30024 0
M  V30 362 O 27.18 -3.90746 -4.57822 0
M  V30 363 H 31.006 -2.62298 -1.5308 0
M  V30 364 H 28.591 -1.3222 -0.695565 0
M  V30 365 H 30.473 -1.7625 -3.82771 0
M  V30 366 H 29.148 -0.783633 -3.14071 0
M  V30 367 H 28.055 -2.94552 -2.3063 0
M  V30 368 H 29.388 -3.86322 -3.04986 0
M  V30 369 N 31.0401 0.771051 -1.3745 0
M  V30 370 C 31.9501 1.91538 -1.35464 0
M  V30 371 C 32.9661 1.72134 -0.254123 0
M  V30 372 O 34.1421 1.95358 -0.489626 0
M  V30 373 C 31.2071 3.26671 -1.16134 0
M  V30 374 C 30.2681 3.58723 -2.35831 0
M  V30 375 C 29.5011 4.87409 -2.17413 0
M  V30 376 O 29.7241 5.58506 -1.15876 0
M  V30 377 O 28.6581 5.18539 -3.05615 0
M  V30 378 H 32.4841 1.96165 -2.31847 0
M  V30 379 H 30.0691 0.9139 -1.18187 0
M  V30 380 H 31.9511 4.07499 -1.07345 0
M  V30 381 H 30.6261 3.22894 -0.228251 0
M  V30 382 H 29.5331 2.78127 -2.50192 0
M  V30 383 H 30.8661 3.67243 -3.27709 0
M  V30 384 N 32.5182 1.22032 0.997298 0
M  V30 385 C 33.9292 1.0397 1.55071 0
M  V30 386 C 34.2802 -0.398192 1.92117 0
M  V30 387 O 33.4052 -1.28254 1.74298 0
M  V30 388 C 34.0002 1.88109 2.81781 0
M  V30 389 C 32.5592 1.74357 3.33581 0
M  V30 390 C 31.7062 1.84846 2.06706 0
M  V30 391 H 34.6572 1.35941 0.818883 0
M  V30 392 H 34.6782 1.39589 3.53971 0
M  V30 393 H 34.1902 2.92754 2.54787 0
M  V30 394 H 32.2912 0.72427 3.65493 0
M  V30 395 H 32.4042 2.56772 4.04481 0
M  V30 396 H 30.7682 1.28238 2.20062 0
M  V30 397 H 31.5512 2.91014 1.82114 0
M  V30 398 N 33.9963 -1.19345 1.0293 0
M  V30 399 C 34.9263 -2.2481 0.631105 0
M  V30 400 C 35.9073 -1.66245 -0.360104 0
M  V30 401 O 37.0923 -1.92677 -0.242726 0
M  V30 402 C 34.2223 -3.47295 -0.0184607 0
M  V30 403 C 33.1763 -4.18536 0.895073 0
M  V30 404 C 32.5023 -5.34586 0.110592 0
M  V30 405 C 33.8023 -4.73287 2.209 0
M  V30 406 H 35.4963 -2.58372 1.51275 0
M  V30 407 H 33.0423 -1.24194 0.728818 0
M  V30 408 H 34.9953 -4.20268 -0.308675 0
M  V30 409 H 33.7193 -3.12933 -0.934907 0
M  V30 410 H 32.3783 -3.47446 1.16949 0
M  V30 411 H 32.0263 -4.96469 -0.807902 0
M  V30 412 H 31.7263 -5.83183 0.719087 0
M  V30 413 H 33.2503 -6.10355 -0.172871 0
M  V30 414 H 34.6643 -5.38013 1.98028 0
M  V30 415 H 33.0613 -5.32373 2.76946 0
M  V30 416 H 34.1313 -3.91331 2.86336 0
M  V30 417 N 35.4744 -0.807222 -1.35358 0
M  V30 418 C 36.7204 -0.388463 -1.99045 0
M  V30 419 C 37.0534 1.04184 -1.63888 0
M  V30 420 O 36.3284 1.72292 -0.902535 0
M  V30 421 C 36.6114 -0.572783 -3.55515 0
M  V30 422 C 36.4644 -2.04807 -4.00468 0
M  V30 423 C 37.7834 0.00114064 -4.401 0
M  V30 424 H 34.9024 -0.142619 -0.723069 0
M  V30 425 H 37.5444 -1.01687 -1.60498 0
M  V30 426 H 35.6944 -0.0378425 -3.88482 0
M  V30 427 H 37.3664 -2.64544 -3.77908 0
M  V30 428 H 35.6094 -2.54427 -3.51353 0
M  V30 429 H 36.2804 -2.12792 -5.09337 0
M  V30 430 H 38.7564 -0.455716 -4.13597 0
M  V30 431 H 37.6324 -0.157737 -5.48673 0
M  V30 432 H 37.8934 1.09488 -4.28328 0
M  V30 433 N 36.9525 1.47285 -0.560781 0
M  V30 434 C 38.1985 2.02764 -0.0381184 0
M  V30 435 C 38.5315 1.43384 1.30976 0
M  V30 436 O 37.8065 0.590733 1.85312 0
M  V30 437 C 38.0895 3.60064 0.0511427 0
M  V30 438 C 37.9425 4.2987 -1.32408 0
M  V30 439 C 39.2615 4.33439 0.762795 0
M  V30 440 H 36.3805 0.736841 -0.0153264 0
M  V30 441 H 39.0225 1.75675 -0.723759 0
M  V30 442 H 37.1725 3.83274 0.635065 0
M  V30 443 H 38.8445 4.17989 -1.95148 0
M  V30 444 H 37.0875 3.90085 -1.8978 0
M  V30 445 H 37.7585 5.38478 -1.21431 0
M  V30 446 H 40.2345 4.15243 0.266965 0
M  V30 447 H 39.1105 5.43124 0.794221 0
M  V30 448 H 39.3715 4.02915 1.81966 0
M  V30 449 N 38.4306 0.297415 1.54768 0
M  V30 450 C 39.3776 -0.580276 2.23386 0
M  V30 451 C 40.3476 -1.13238 1.21517 0
M  V30 452 O 41.5326 -1.17757 1.50126 0
M  V30 453 C 38.6726 -1.74801 2.97555 0
M  V30 454 C 37.7856 -1.22764 4.1419 0
M  V30 455 C 36.9206 -2.35895 4.75949 0
M  V30 456 C 35.9596 -1.80974 5.84735 0
M  V30 457 N 35.0966 -2.87664 6.40464 0
M  V30 458 H 39.9366 0.0114833 2.97998 0
M  V30 459 H 37.4736 0.0174361 1.4709 0
M  V30 460 H 39.4316 -2.43475 3.38786 0
M  V30 461 H 38.0616 -2.31145 2.25326 0
M  V30 462 H 37.1136 -0.433271 3.77924 0
M  V30 463 H 38.4256 -0.785551 4.92575 0
M  V30 464 H 37.5796 -3.12523 5.20014 0
M  V30 465 H 36.3186 -2.83429 3.96887 0
M  V30 466 H 35.3236 -1.02834 5.40097 0
M  V30 467 H 36.5486 -1.34348 6.65678 0
M  V30 468 H 34.4946 -3.34538 5.64287 0
M  V30 469 H 34.4116 -2.4794 7.14186 0
M  V30 470 H 35.6796 -3.642 6.89187 0
M  V30 471 N 39.9087 -1.5758 0.0250728 0
M  V30 472 C 41.1547 -1.91917 -0.655413 0
M  V30 473 C 41.4877 -0.901433 -1.72011 0
M  V30 474 O 40.7627 0.0764069 -1.9435 0
M  V30 475 C 41.0457 -3.36751 -1.27558 0
M  V30 476 C 40.8987 -4.49258 -0.220719 0
M  V30 477 C 42.2177 -3.81469 -2.19475 0
M  V30 478 H 39.3367 -0.697925 -0.23679 0
M  V30 479 H 41.9787 -1.89825 0.0815036 0
M  V30 480 H 40.1287 -3.38664 -1.90365 0
M  V30 481 H 41.8007 -4.59478 0.409601 0
M  V30 482 H 40.0437 -4.31415 0.454264 0
M  V30 483 H 40.7147 -5.47618 -0.694175 0
M  V30 484 H 43.1907 -3.81266 -1.66659 0
M  V30 485 H 42.0667 -4.83512 -2.59822 0
M  V30 486 H 42.3277 -3.16744 -3.08424 0
M  V30 487 N 41.3868 0.248026 -1.55636 0
M  V30 488 C 42.2968 1.32859 -1.93354 0
M  V30 489 C 43.3128 1.52719 -0.833838 0
M  V30 490 O 44.4888 1.66363 -1.13513 0
M  V30 491 C 41.5538 2.66337 -2.21958 0
M  V30 492 C 40.6148 2.55008 -3.45354 0
M  V30 493 C 39.8478 3.82121 -3.72584 0
M  V30 494 O 40.0708 4.83951 -3.01907 0
M  V30 495 O 39.0048 3.80822 -4.6611 0
M  V30 496 H 42.8308 1.03862 -2.85388 0
M  V30 497 H 40.4158 0.448686 -1.42503 0
M  V30 498 H 42.2978 3.45216 -2.4167 0
M  V30 499 H 40.9728 2.95068 -1.33103 0
M  V30 500 H 39.8798 1.7442 -3.30951 0
M  V30 501 H 41.2128 2.31222 -4.34508 0
M  V30 502 N 42.8649 1.48995 0.513639 0
M  V30 503 C 43.7749 1.67443 1.64317 0
M  V30 504 C 44.7909 0.556947 1.64846 0
M  V30 505 O 45.9669 0.830082 1.83498 0
M  V30 506 C 43.0319 1.72515 3.00732 0
M  V30 507 C 42.0929 2.96009 3.1093 0
M  V30 508 C 41.3259 3.00829 4.40837 0
M  V30 509 O 41.5489 2.13594 5.28898 0
M  V30 510 O 40.4829 3.93168 4.55744 0
M  V30 511 H 44.3089 2.63106 1.51687 0
M  V30 512 H 41.8939 1.32588 0.688543 0
M  V30 513 H 43.7759 1.78277 3.81831 0
M  V30 514 H 42.4509 0.800278 3.13651 0
M  V30 515 H 41.3579 2.9577 2.29065 0
M  V30 516 H 42.6909 3.87934 3.02933 0
M  V30 517 N 44.343 -0.763751 1.37857 0
M  V30 518 C 45.591 -1.51957 1.33243 0
M  V30 519 C 45.912 -1.94835 -0.0801709 0
M  V30 520 O 45.182 -1.66894 -1.02582 0
M  V30 521 H 43.762 -0.563626 0.49024 0
M  V30 522 H 46.424 -0.908504 1.7243 0
M  V30 523 H 45.52 -2.41523 1.97669 0
M  V30 524 N 45.8211 -1.22559 -0.990812 0
M  V30 525 C 47.0981 -0.959875 -1.70428 0
M  V30 526 C 47.4781 0.524455 -2.04481 0
M  V30 527 O 46.8261 1.49302 -1.72977 0
M  V30 528 C 47.0361 -1.85955 -2.95333 0
M  V30 529 C 48.3841 -2.11687 -3.68068 0
M  V30 530 O 49.4081 -1.8342 -3.05345 0
M  V30 531 O 48.2671 -2.59572 -4.80921 0
M  V30 532 H 45.3611 -0.361154 -0.743974 0
M  V30 533 H 47.9071 -1.33554 -1.04697 0
M  V30 534 H 46.6791 -2.86346 -2.66687 0
M  V30 535 H 46.3021 -1.4856 -3.68803 0
M  V30 536 N 47.2992 1.18797 -1.03562 0
M  V30 537 C 48.2472 2.24297 -0.615905 0
M  V30 538 C 49.2412 1.65643 0.354808 0
M  V30 539 O 50.4472 1.78618 0.22265 0
M  V30 540 H 46.8222 0.729909 -0.180934 0
M  V30 541 H 48.7932 2.5701 -1.5162 0
M  V30 542 C 47.5422 3.47698 0.0104735 0
M  V30 543 H 46.8652 3.93125 -0.727509 0
M  V30 544 H 48.3052 4.23159 0.266995 0
M  V30 545 C 46.7642 3.12489 1.25905 0
M  V30 546 O 47.2942 3.25761 2.35038 0
M  V30 547 N 45.5002 2.6686 1.15039 0
M  V30 548 H 45.0472 2.56261 0.262328 0
M  V30 549 H 45.0052 2.43674 1.98672 0
M  V30 550 N 48.7773 0.814389 1.34928 0
M  V30 551 C 49.7403 0.235759 2.27984 0
M  V30 552 C 50.7403 -0.581412 1.49921 0
M  V30 553 O 51.9303 -0.398758 1.69575 0
M  V30 554 C 49.0623 -0.670433 3.34242 0
M  V30 555 H 50.2553 1.05659 2.80671 0
M  V30 556 H 47.8083 0.585614 1.44915 0
M  V30 557 H 48.5433 -1.51466 2.86755 0
M  V30 558 H 48.3283 -0.0860822 3.92005 0
M  V30 559 H 49.8183 -1.06935 4.03676 0
M  V30 560 N 50.2554 -1.46986 0.568584 0
M  V30 561 C 51.5014 -2.02741 0.0488709 0
M  V30 562 C 51.8344 -1.44077 -1.30214 0
M  V30 563 O 51.1094 -0.600552 -1.84996 0
M  V30 564 C 51.3924 -3.60086 -0.032047 0
M  V30 565 C 51.2454 -4.29162 1.34686 0
M  V30 566 C 52.5644 -4.33838 -0.739798 0
M  V30 567 H 49.6834 -0.736749 0.0192338 0
M  V30 568 H 52.3254 -1.75289 0.733065 0
M  V30 569 H 50.4754 -3.83606 -0.61473 0
M  V30 570 H 52.1474 -4.16948 1.97362 0
M  V30 571 H 50.3904 -3.89073 1.91846 0
M  V30 572 H 51.0614 -5.37826 1.24285 0
M  V30 573 H 53.5374 -4.15378 -0.244939 0
M  V30 574 H 52.4134 -5.43537 -0.765406 0
M  V30 575 H 52.6744 -4.03875 -1.79827 0
M  V30 576 N 51.7335 -0.305618 -1.54608 0
M  V30 577 C 52.6635 0.561482 -2.26649 0
M  V30 578 C 53.6445 1.13415 -1.26772 0
M  V30 579 O 54.8295 1.16262 -1.55553 0
M  V30 580 C 51.9595 1.73122 -3.01075 0
M  V30 581 C 50.9135 1.2887 -4.08138 0
M  V30 582 C 50.2395 2.54396 -4.70305 0
M  V30 583 C 51.5395 0.416578 -5.20636 0
M  V30 584 H 53.2335 -0.0393902 -2.99374 0
M  V30 585 H 50.7795 -0.020385 -1.43986 0
M  V30 586 H 52.7325 2.34396 -3.50195 0
M  V30 587 H 51.4565 2.3584 -2.25936 0
M  V30 588 H 50.1155 0.698991 -3.59875 0
M  V30 589 H 49.7635 3.15439 -3.918 0
M  V30 590 H 49.4635 2.25486 -5.42614 0
M  V30 591 H 50.9875 3.16464 -5.2219 0
M  V30 592 H 52.4015 0.935116 -5.65622 0
M  V30 593 H 50.7985 0.221046 -5.99693 0
M  V30 594 H 51.8685 -0.557162 -4.81688 0
M  V30 595 N 53.2116 1.57565 -0.0334293 0
M  V30 596 C 54.1436 2.0739 0.975811 0
M  V30 597 C 55.1566 0.998166 1.2861 0
M  V30 598 O 56.3456 1.27426 1.25 0
M  V30 599 C 53.4456 2.4871 2.30209 0
M  V30 600 C 52.6186 3.79413 2.17634 0
M  V30 601 C 51.6776 4.07237 3.33233 0
M  V30 602 O 50.7036 4.77425 3.09927 0
M  V30 603 N 51.9056 3.5775 4.5716 0
M  V30 604 H 54.6706 2.94598 0.55066 0
M  V30 605 H 52.2316 1.61173 0.15323 0
M  V30 606 H 54.2236 2.64413 3.06378 0
M  V30 607 H 52.7936 1.66845 2.64351 0
M  V30 608 H 52.0136 3.73465 1.26165 0
M  V30 609 H 53.3016 4.65038 2.0644 0
M  V30 610 H 52.6996 3.00976 4.78989 0
M  V30 611 H 51.2566 3.78724 5.30482 0
M  V30 612 N 54.6897 -0.239769 1.55765 0
M  V30 613 C 55.9297 -0.974076 1.79697 0
M  V30 614 C 56.2937 -1.82249 0.604088 0
M  V30 615 O 57.4947 -2.58913 0.722324 0
M  V30 616 C 55.7657 -1.80595 3.08416 0
M  V30 617 S 57.3247 -2.59838 3.53596 0
M  V30 618 H 54.1427 -0.327524 0.63107 0
M  V30 619 H 56.7447 -0.241277 1.94005 0
M  V30 620 H 55.4487 -1.17249 3.93295 0
M  V30 621 H 54.9797 -2.58137 2.96865 0
M  V30 622 H 56.9947 -3.82987 3.15492 0
M  V30 623 N 56.1678 -1.49265 -0.50573 0
M  V30 624 C 57.0978 -1.68495 -1.61653 0
M  V30 625 C 58.0788 -0.53366 -1.61512 0
M  V30 626 O 59.2638 -0.76897 -1.78327 0
M  V30 627 C 56.3938 -1.74709 -3.00157 0
M  V30 628 C 55.3478 -2.89581 -3.15162 0
M  V30 629 C 54.6738 -2.80903 -4.5497 0
M  V30 630 C 55.9738 -4.30578 -2.95634 0
M  V30 631 H 57.6678 -2.61493 -1.45814 0
M  V30 632 H 55.2138 -1.25838 -0.70005 0
M  V30 633 H 57.1668 -1.86748 -3.77761 0
M  V30 634 H 55.8908 -0.783067 -3.17074 0
M  V30 635 H 54.5498 -2.77136 -2.39982 0
M  V30 636 H 54.1978 -1.82419 -4.68756 0
M  V30 637 H 53.8978 -3.57999 -4.65951 0
M  V30 638 H 55.4218 -2.94944 -5.34641 0
M  V30 639 H 56.8358 -4.4373 -3.63011 0
M  V30 640 H 55.2328 -5.0886 -3.18091 0
M  V30 641 H 56.3028 -4.45352 -1.91806 0
M  V30 642 N 57.6459 0.756429 -1.3826 0
M  V30 643 C 58.5929 1.87011 -1.35261 0
M  V30 644 C 59.5629 1.64695 -0.215616 0
M  V30 645 O 60.7479 1.864 -0.407399 0
M  V30 646 C 57.8879 3.24275 -1.18068 0
M  V30 647 C 57.0009 3.58442 -2.41129 0
M  V30 648 C 56.1359 4.84994 -2.16689 0
M  V30 649 C 55.1749 5.11939 -3.35537 0
M  V30 650 N 54.3119 6.29685 -3.10549 0
M  V30 651 H 59.1519 1.8891 -2.30472 0
M  V30 652 H 56.6889 0.923373 -1.14509 0
M  V30 653 H 58.6469 4.03479 -1.06116 0
M  V30 654 H 57.2769 3.21711 -0.264973 0
M  V30 655 H 56.3289 2.74103 -2.63764 0
M  V30 656 H 57.6409 3.74283 -3.29717 0
M  V30 657 H 56.7949 5.72135 -2.01857 0
M  V30 658 H 55.5339 4.71286 -1.25462 0
M  V30 659 H 54.5389 4.23268 -3.50891 0
M  V30 660 H 55.7639 5.27546 -4.27635 0
M  V30 661 H 53.7099 6.17306 -2.21967 0
M  V30 662 H 53.6269 6.46014 -3.92686 0
M  V30 663 H 54.8949 7.19722 -2.99367 0
M  V30 664 N 59.124 1.23083 0.984299 0
M  V30 665 C 60.372 1.05848 1.72165 0
M  V30 666 C 60.693 -0.406049 1.90726 0
M  V30 667 O 59.963 -1.29139 1.47309 0
M  V30 668 H 58.543 0.388685 0.637913 0
M  V30 669 H 61.205 1.54736 1.18503 0
M  V30 670 H 60.301 1.54327 2.71274 0
M  V30 671 N 60.6021 -1.18246 1.0419 0
M  V30 672 C 61.8301 -1.92195 0.766072 0
M  V30 673 C 62.2451 -1.76247 -0.676933 0
M  V30 674 O 61.6021 -1.09293 -1.46155 0
M  V30 675 C 61.6531 -3.43568 1.12442 0
M  V30 676 O 61.3741 -3.59015 2.51078 0
M  V30 677 C 62.8751 -4.34613 0.873275 0
M  V30 678 H 60.0951 -0.610114 0.279288 0
M  V30 679 H 62.6391 -1.50007 1.38989 0
M  V30 680 H 60.7941 -3.8354 0.545542 0
M  V30 681 H 61.2081 -4.5273 2.64831 0
M  V30 682 H 62.6821 -5.39374 1.17385 0
M  V30 683 H 63.1591 -4.38781 -0.191909 0
M  V30 684 H 63.7651 -4.00341 1.43551 0
M  V30 685 N 62.0802 -0.821533 -1.34494 0
M  V30 686 C 63.3052 -0.420873 -2.03085 0
M  V30 687 C 63.7302 0.964915 -1.61465 0
M  V30 688 O 63.0882 1.62763 -0.798607 0
M  V30 689 C 63.1362 -0.529414 -3.56693 0
M  V30 690 O 62.2402 0.451302 -4.09923 0
M  V30 691 H 61.5812 -0.173489 -0.640935 0
M  V30 692 H 64.1112 -1.11157 -1.71771 0
M  V30 693 H 64.1212 -0.404671 -4.05988 0
M  V30 694 H 62.7962 -1.54014 -3.86332 0
M  V30 695 H 61.3732 0.285558 -3.71805 0
M  V30 696 N 63.5583 1.46682 -0.576371 0
M  V30 697 C 64.8353 1.95599 0.00703437 0
M  V30 698 C 65.2153 1.51904 1.46589 0
M  V30 699 O 64.5633 0.766755 2.15251 0
M  V30 700 C 64.7733 3.4864 -0.158404 0
M  V30 701 C 66.1213 4.24594 -0.0229439 0
M  V30 702 O 67.1453 3.56094 -0.0869173 0
M  V30 703 O 66.0043 5.46373 0.118015 0
M  V30 704 H 63.0983 0.825275 0.053384 0
M  V30 705 H 65.6443 1.56996 -0.644244 0
M  V30 706 H 64.4163 3.7331 -1.17282 0
M  V30 707 H 64.0393 3.94057 0.5296 0
M  V30 708 N 65.0364 0.313813 1.54444 0
M  V30 709 C 66.2844 -0.291099 1.99993 0
M  V30 710 C 66.6054 -1.53418 1.20366 0
M  V30 711 O 65.8754 -1.93544 0.302927 0
M  V30 712 H 64.4554 -0.110552 0.738774 0
M  V30 713 H 67.1174 0.428106 1.9014 0
M  V30 714 H 66.2134 -0.554268 3.07139 0
M  V30 715 N 66.5145 -1.57545 0.0417849 0
M  V30 716 C 67.9255 -1.80011 -0.495259 0
M  V30 717 C 68.2765 -0.953199 -1.71489 0
M  V30 718 O 67.4015 -0.167138 -2.15754 0
M  V30 719 C 67.9965 -3.26482 -0.905265 0
M  V30 720 C 66.5555 -3.499 -1.38734 0
M  V30 721 C 65.7025 -2.74979 -0.358056 0
M  V30 722 H 68.6535 -1.56425 0.267736 0
M  V30 723 H 68.6745 -3.36887 -1.76882 0
M  V30 724 H 68.1865 -3.88096 -0.017401 0
M  V30 725 H 66.2875 -2.93553 -2.29471 0
M  V30 726 H 66.4005 -4.58615 -1.38598 0
M  V30 727 H 64.7645 -2.40834 -0.828912 0
M  V30 728 H 65.5475 -3.39315 0.521561 0
M  V30 729 N 67.9926 0.231505 -1.5589 0
M  V30 730 C 69.2206 0.974505 -1.82513 0
M  V30 731 C 69.6356 1.78344 -0.619591 0
M  V30 732 O 68.9926 1.77792 0.411848 0
M  V30 733 C 69.0436 1.90007 -3.07538 0
M  V30 734 O 68.7646 1.12385 -4.2344 0
M  V30 735 C 70.2656 2.75779 -3.47075 0
M  V30 736 H 67.4856 0.286065 -0.606966 0
M  V30 737 H 70.0296 0.249739 -2.02969 0
M  V30 738 H 68.1846 2.57891 -2.89086 0
M  V30 739 H 68.5986 1.75125 -4.944 0
M  V30 740 H 70.0726 3.36443 -4.37619 0
M  V30 741 H 70.5496 3.47672 -2.68367 0
M  V30 742 H 71.1556 2.13323 -3.67931 0
M  V30 743 N 69.4707 1.49531 0.497807 0
M  V30 744 C 70.4027 1.62559 1.61578 0
M  V30 745 C 71.4157 0.508134 1.54667 0
M  V30 746 O 72.6047 0.780309 1.60541 0
M  V30 747 C 69.7047 1.56925 3.00379 0
M  V30 748 C 68.8777 2.84257 3.3244 0
M  V30 749 C 67.9367 2.71632 4.50669 0
M  V30 750 O 66.9627 3.4557 4.52294 0
M  V30 751 N 68.1647 1.83391 5.5077 0
M  V30 752 H 70.9297 2.58981 1.50828 0
M  V30 753 H 68.4907 1.4666 0.685743 0
M  V30 754 H 70.4827 1.46129 3.77397 0
M  V30 755 H 69.0527 0.683483 3.05037 0
M  V30 756 H 68.2727 3.09381 2.44289 0
M  V30 757 H 69.5607 3.68666 3.5066 0
M  V30 758 H 68.9587 1.22583 5.52259 0
M  V30 759 H 67.5157 1.78515 6.26878 0
M  V30 760 N 70.9488 -0.749086 1.3866 0
M  V30 761 C 71.8808 -1.87273 1.32142 0
M  V30 762 C 72.8938 -1.61127 0.232787 0
M  V30 763 O 74.0828 -1.71623 0.49069 0
M  V30 764 C 71.1828 -3.23005 1.02571 0
M  V30 765 C 70.3558 -3.7662 2.22433 0
M  V30 766 C 69.4148 -4.90879 1.89537 0
M  V30 767 O 68.4408 -5.05276 2.62078 0
M  V30 768 N 69.6428 -5.74198 0.853031 0
M  V30 769 H 72.4078 -1.93373 2.28969 0
M  V30 770 H 69.9688 -0.929216 1.32579 0
M  V30 771 H 71.9608 -3.96992 0.786085 0
M  V30 772 H 70.5308 -3.12262 0.145249 0
M  V30 773 H 69.7508 -2.94147 2.62434 0
M  V30 774 H 71.0388 -4.09173 3.02415 0
M  V30 775 H 70.4368 -5.6514 0.25155 0
M  V30 776 H 68.9938 -6.48313 0.67329 0
M  V30 777 N 72.4269 -1.23603 -0.977757 0
M  V30 778 C 73.3569 -1.04401 -2.0886 0
M  V30 779 C 74.3379 0.0399052 -1.70053 0
M  V30 780 O 75.5229 -0.125246 -1.93796 0
M  V30 781 C 72.6529 -0.637269 -3.41403 0
M  V30 782 C 71.6069 -1.66883 -3.94124 0
M  V30 783 C 70.9329 -1.11745 -5.22893 0
M  V30 784 C 72.2329 -3.06247 -4.23096 0
M  V30 785 H 73.9269 -1.97316 -2.25182 0
M  V30 786 H 71.4729 -0.950096 -1.08209 0
M  V30 787 H 73.4259 -0.48998 -4.18542 0
M  V30 788 H 72.1499 0.327557 -3.24953 0
M  V30 789 H 70.8089 -1.80416 -3.19133 0
M  V30 790 H 70.4569 -0.143527 -5.02795 0
M  V30 791 H 70.1569 -1.80672 -5.59134 0
M  V30 792 H 71.6809 -0.982067 -6.02651 0
M  V30 793 H 73.0949 -2.96001 -4.90975 0
M  V30 794 H 71.4919 -3.72436 -4.70544 0
M  V30 795 H 72.5619 -3.55041 -3.30263 0
M  V30 796 N 73.905 1.17692 -1.04816 0
M  V30 797 C 75.133 1.91786 -0.776254 0
M  V30 798 C 75.548 1.76604 0.667577 0
M  V30 799 O 74.905 1.10067 1.45573 0
M  V30 800 C 74.956 3.42967 -1.14263 0
M  V30 801 O 74.677 3.57678 -2.52978 0
M  V30 802 C 76.178 4.34144 -0.896311 0
M  V30 803 H 73.398 0.608624 -0.282519 0
M  V30 804 H 75.942 1.49268 -1.39783 0
M  V30 805 H 74.097 3.83245 -0.565874 0
M  V30 806 H 74.511 4.51319 -2.67229 0
M  V30 807 H 75.985 5.38744 -1.20244 0
M  V30 808 H 76.462 4.38876 0.168636 0
M  V30 809 H 77.068 3.99574 -1.45672 0
M  V30 810 N 75.3831 0.828654 1.34056 0
M  V30 811 C 76.6291 0.429279 1.98818 0
M  V30 812 C 76.9841 -0.998011 1.64492 0
M  V30 813 O 76.2771 -1.68652 0.909228 0
M  V30 814 C 76.4711 0.575226 3.52741 0
M  V30 815 C 76.3001 2.01515 4.02022 0
M  V30 816 C 75.0701 2.64825 4.30344 0
M  V30 817 C 77.2681 2.98261 4.18981 0
M  V30 818 N 75.2501 3.99998 4.65698 0
M  V30 819 C 76.6211 4.18356 4.57578 0
M  V30 820 C 78.6761 2.94802 4.01243 0
M  V30 821 C 77.3791 5.35454 4.80293 0
M  V30 822 C 79.4051 4.11121 4.25128 0
M  V30 823 C 78.7671 5.29969 4.64018 0
M  V30 824 H 74.8661 0.205304 0.754569 0
M  V30 825 H 77.4501 1.07457 1.62361 0
M  V30 826 H 75.6211 -0.0401962 3.88379 0
M  V30 827 H 77.3531 0.148292 4.04428 0
M  V30 828 H 74.1081 2.16027 4.21461 0
M  V30 829 H 74.5321 4.69653 4.87601 0
M  V30 830 H 79.1741 2.04054 3.70299 0
M  V30 831 H 76.8921 6.26755 5.10102 0
M  V30 832 H 80.4781 4.0985 4.12934 0
M  V30 833 H 79.3581 6.18479 4.82134 0
M  V30 834 N 76.8612 -1.46375 0.584142 0
M  V30 835 C 78.0862 -2.07268 0.0740405 0
M  V30 836 C 78.5112 -1.42979 -1.22223 0
M  V30 837 O 77.8692 -0.514092 -1.73859 0
M  V30 838 C 77.9172 -3.60518 -0.0767769 0
M  V30 839 O 77.0212 -3.96533 -1.13292 0
M  V30 840 H 76.3622 -0.660961 0.0634524 0
M  V30 841 H 78.8922 -1.87991 0.807492 0
M  V30 842 H 78.9022 -4.07021 -0.282489 0
M  V30 843 H 77.5772 -4.06702 0.86986 0
M  V30 844 H 76.1542 -3.61738 -0.905553 0
M  V30 845 N 78.3393 -0.321999 -1.54275 0
M  V30 846 C 79.7553 0.0306999 -1.5957 0
M  V30 847 C 79.9553 1.50614 -1.33857 0
M  V30 848 O 79.0113 2.2619 -1.12223 0
M  V30 849 C 80.3243 -0.386122 -2.98211 0
M  V30 850 C 81.8723 -0.336647 -3.11184 0
M  V30 851 C 82.3473 -0.728607 -4.52167 0
M  V30 852 N 83.8383 -0.681952 -4.58152 0
M  V30 853 C 84.5733 -0.957449 -5.6535 0
M  V30 854 N 84.0693 -1.3 -6.80494 0
M  V30 855 N 85.8623 -0.883113 -5.55119 0
M  V30 856 H 78.0133 -1.28332 -1.69247 0
M  V30 857 H 80.2763 -0.521716 -0.791528 0
M  V30 858 H 79.9823 -1.41404 -3.22022 0
M  V30 859 H 79.8563 0.249662 -3.76373 0
M  V30 860 H 82.2433 0.682058 -2.8711 0
M  V30 861 H 82.3243 -1.00734 -2.3513 0
M  V30 862 H 81.9683 -1.74522 -4.76974 0
M  V30 863 H 81.8983 -0.0356152 -5.26588 0
M  V30 864 H 84.3893 -0.428985 -3.75457 0
M  V30 865 H 84.7023 -1.49563 -7.58189 0
M  V30 866 H 83.0473 -1.33824 -6.81994 0
M  V30 867 H 86.2383 -0.615001 -4.64042 0
M  V30 868 H 86.4113 -1.10118 -6.38575 0
M  V30 869 N 79.8174 1.5752 -0.0501392 0
M  V30 870 C 80.7274 2.14952 0.939827 0
M  V30 871 C 81.7434 1.10706 1.34239 0
M  V30 872 O 82.9194 1.42869 1.41952 0
M  V30 873 C 79.9844 2.68232 2.19665 0
M  V30 874 C 79.0454 3.87272 1.85253 0
M  V30 875 C 78.2784 4.38002 3.04943 0
M  V30 876 O 78.5014 3.87811 4.18281 0
M  V30 877 O 77.4354 5.29602 2.86017 0
M  V30 878 H 81.2614 2.9986 0.481392 0
M  V30 879 H 78.8464 1.4841 0.171699 0
M  V30 880 H 80.7284 3.02475 2.93406 0
M  V30 881 H 79.4034 1.86395 2.64648 0
M  V30 882 H 78.3104 3.5792 1.0883 0
M  V30 883 H 79.6434 4.70336 1.4507 0
M  V30 884 N 81.2955 -0.223234 1.56011 0
M  V30 885 C 82.5205 -0.968978 1.83373 0
M  V30 886 C 82.9455 -1.77227 0.630254 0
M  V30 887 O 82.3035 -1.76345 -0.420959 0
M  V30 888 C 82.3515 -1.86363 3.08709 0
M  V30 889 O 81.4555 -2.95873 2.87285 0
M  V30 890 H 80.7965 -0.274461 0.604622 0
M  V30 891 H 83.3265 -0.237056 2.03222 0
M  V30 892 H 83.3365 -2.27376 3.38768 0
M  V30 893 H 82.0115 -1.27319 3.95933 0
M  V30 894 H 80.5885 -2.58818 2.68454 0
M  V30 895 N 82.7736 -1.49793 -0.48987 0
M  V30 896 C 84.1846 -1.52914 -1.07118 0
M  V30 897 C 84.5356 -0.321738 -1.93544 0
M  V30 898 O 83.6606 0.567338 -2.08831 0
M  V30 899 C 84.2556 -2.771 -1.94938 0
M  V30 900 C 82.8146 -2.82963 -2.48212 0
M  V30 901 C 81.9616 -2.46972 -1.26096 0
M  V30 902 H 84.9126 -1.56329 -0.273289 0
M  V30 903 H 84.9336 -2.57892 -2.79771 0
M  V30 904 H 84.4456 -3.64959 -1.32009 0
M  V30 905 H 82.5466 -1.99411 -3.14748 0
M  V30 906 H 82.6596 -3.85406 -2.84603 0
M  V30 907 H 81.0236 -1.98994 -1.58976 0
M  V30 908 H 81.8066 -3.37118 -0.648581 0
M  V30 909 N 84.2517 0.741722 -1.39055 0
M  V30 910 C 85.1817 1.869 -1.39966 0
M  V30 911 C 86.1627 1.6804 -0.26392 0
M  V30 912 O 87.3477 1.88458 -0.468755 0
M  V30 913 C 84.4777 3.24572 -1.23574 0
M  V30 914 C 83.4317 3.58056 -2.34477 0
M  V30 915 C 82.7577 4.94593 -2.0318 0
M  V30 916 C 84.0577 3.61716 -3.76774 0
M  V30 917 H 85.7517 1.86395 -2.34302 0
M  V30 918 H 83.2977 0.895361 -1.1278 0
M  V30 919 H 85.2507 4.031 -1.22834 0
M  V30 920 H 83.9747 3.25587 -0.257045 0
M  V30 921 H 82.6337 2.81854 -2.34423 0
M  V30 922 H 82.2817 4.92181 -1.03765 0
M  V30 923 H 81.9817 5.17964 -2.77465 0
M  V30 924 H 83.5057 5.75486 -2.04079 0
M  V30 925 H 84.9197 4.30335 -3.78794 0
M  V30 926 H 83.3167 3.96603 -4.50362 0
M  V30 927 H 84.3867 2.61672 -4.08235 0
M  V30 928 N 85.7298 1.2412 0.971189 0
M  V30 929 C 86.6768 1.0305 2.06517 0
M  V30 930 C 87.6468 -0.0550666 1.66009 0
M  V30 931 O 88.8318 0.0988688 1.90544 0
M  V30 932 C 85.9718 0.637653 3.39158 0
M  V30 933 C 85.0848 1.79633 3.92882 0
M  V30 934 C 84.2198 1.34939 5.13775 0
M  V30 935 C 83.2588 2.47823 5.59687 0
M  V30 936 N 82.3958 2.04022 6.71803 0
M  V30 937 H 87.2358 1.96685 2.23873 0
M  V30 938 H 84.7728 0.979694 1.09729 0
M  V30 939 H 86.7308 0.390931 4.15364 0
M  V30 940 H 85.3608 -0.261693 3.21737 0
M  V30 941 H 84.4128 2.15681 3.13346 0
M  V30 942 H 85.7248 2.64466 4.22918 0
M  V30 943 H 84.8788 1.06134 5.97345 0
M  V30 944 H 83.6178 0.471557 4.85415 0
M  V30 945 H 82.6228 2.77392 4.74693 0
M  V30 946 H 83.8478 3.36158 5.90063 0
M  V30 947 H 81.7938 1.18632 6.45184 0
M  V30 948 H 81.7108 2.82409 7.01271 0
M  V30 949 H 82.9788 1.78347 7.58823 0
M  V30 950 N 87.2079 -1.17134 1.05439 0
M  V30 951 C 88.6189 -1.69084 0.791676 0
M  V30 952 C 88.9699 -1.83822 -0.685839 0
M  V30 953 O 88.0949 -1.52757 -1.53278 0
M  V30 954 C 88.6899 -3.07119 1.4305 0
M  V30 955 C 87.2489 -3.56225 1.21577 0
M  V30 956 C 86.3959 -2.32421 1.51247 0
M  V30 957 H 89.3469 -1.01617 1.219 0
M  V30 958 H 89.3679 -3.71087 0.84112 0
M  V30 959 H 88.8799 -2.9636 2.50584 0
M  V30 960 H 86.9809 -3.72257 0.159787 0
M  V30 961 H 87.0939 -4.38837 1.92246 0
M  V30 962 H 85.4579 -2.3701 0.932653 0
M  V30 963 H 86.2409 -2.24268 2.5992 0
M  V30 964 N 88.686 -0.835752 -1.33615 0
M  V30 965 C 89.933 -0.429959 -1.97883 0
M  V30 966 C 90.261 1.01006 -1.66217 0
M  V30 967 O 89.516 1.72047 -0.93265 0
M  V30 968 C 89.815 -0.593925 -3.52431 0
M  V30 969 C 89.481 -2.00158 -4.04039 0
M  V30 970 C 88.143 -2.38662 -4.17844 0
M  V30 971 C 90.495 -2.92117 -4.31644 0
M  V30 972 C 87.823 -3.68435 -4.56588 0
M  V30 973 C 90.175 -4.21368 -4.71838 0
M  V30 974 C 88.839 -4.59833 -4.83849 0
M  V30 975 H 88.109 -0.157333 -0.724104 0
M  V30 976 H 90.756 -1.06217 -1.59343 0
M  V30 977 H 89.061 0.121619 -3.91611 0
M  V30 978 H 90.758 -0.260282 -4.00154 0
M  V30 979 H 87.348 -1.69252 -3.93766 0
M  V30 980 H 91.532 -2.63608 -4.20505 0
M  V30 981 H 86.788 -3.98046 -4.64079 0
M  V30 982 H 90.962 -4.92703 -4.92155 0
M  V30 983 H 88.589 -5.60438 -5.13627 0
M  V30 984 N 90.1641 1.46063 -0.591896 0
M  V30 985 C 91.0941 2.33172 0.123673 0
M  V30 986 C 92.0751 1.45897 0.87453 0
M  V30 987 O 93.2601 1.74698 0.848181 0
M  V30 988 C 90.3901 3.28336 1.13194 0
M  V30 989 C 89.3441 4.25124 0.495324 0
M  V30 990 C 88.6701 5.09863 1.61071 0
M  V30 991 C 89.9701 5.19143 -0.573425 0
M  V30 992 H 91.6641 2.93252 -0.603646 0
M  V30 993 H 89.2101 1.41014 -0.291741 0
M  V30 994 H 91.1631 3.88137 1.64097 0
M  V30 995 H 89.8871 2.66383 1.88965 0
M  V30 996 H 88.5461 3.66599 0.00729452 0
M  V30 997 H 88.1941 4.44288 2.35832 0
M  V30 998 H 87.8941 5.75417 1.19035 0
M  V30 999 H 89.4181 5.72529 2.12233 0
M  V30 1000 H 90.8321 5.73106 -0.1491 0
M  V30 1001 H 89.2291 5.93089 -0.914636 0
M  V30 1002 H 90.2991 4.62519 -1.45617 0
M  V30 1003 N 91.6422 0.330177 1.54103 0
M  V30 1004 C 92.5892 -0.532762 2.24567 0
M  V30 1005 C 93.5592 -1.10635 1.23892 0
M  V30 1006 O 94.7442 -1.14546 1.5259 0
M  V30 1007 C 91.8842 -1.6845 3.01195 0
M  V30 1008 C 90.9972 -1.13951 4.167 0
M  V30 1009 C 90.1322 -2.25746 4.80845 0
M  V30 1010 C 89.1712 -1.6853 5.88442 0
M  V30 1011 N 88.3082 -2.74014 6.46421 0
M  V30 1012 H 93.1482 0.0746905 2.97906 0
M  V30 1013 H 90.6852 0.048632 1.4702 0
M  V30 1014 H 92.6432 -2.36234 3.43874 0
M  V30 1015 H 91.2732 -2.26314 2.30178 0
M  V30 1016 H 90.3252 -0.35301 3.78758 0
M  V30 1017 H 91.6372 -0.680892 4.94131 0
M  V30 1018 H 90.7912 -3.01422 5.26526 0
M  V30 1019 H 89.5302 -2.74947 4.0281 0
M  V30 1020 H 88.5352 -0.913543 5.42157 0
M  V30 1021 H 89.7602 -1.20198 6.68378 0
M  V30 1022 H 87.7062 -3.22494 5.71256 0
M  V30 1023 H 87.6232 -2.32735 7.19285 0
M  V30 1024 H 88.8912 -3.49499 6.96757 0
M  V30 1025 N 93.1203 -1.57491 0.0584922 0
M  V30 1026 C 94.0503 -2.14988 -0.911178 0
M  V30 1027 C 95.0313 -1.07343 -1.31952 0
M  V30 1028 O 96.2163 -1.35318 -1.39294 0
M  V30 1029 C 93.3463 -2.70078 -2.18347 0
M  V30 1030 C 92.3003 -3.82771 -1.91495 0
M  V30 1031 C 91.6263 -4.24408 -3.25241 0
M  V30 1032 C 92.9263 -5.07592 -1.23075 0
M  V30 1033 H 94.6203 -2.96263 -0.432246 0
M  V30 1034 H 92.1663 -1.42512 -0.206469 0
M  V30 1035 H 94.1193 -3.08943 -2.86587 0
M  V30 1036 H 92.8433 -1.86005 -2.68458 0
M  V30 1037 H 91.5023 -3.44389 -1.25664 0
M  V30 1038 H 91.1503 -3.37275 -3.73168 0
M  V30 1039 H 90.8503 -5.00366 -3.08071 0
M  V30 1040 H 92.3743 -4.65879 -3.94701 0
M  V30 1041 H 93.7883 -5.43857 -1.81362 0
M  V30 1042 H 92.1853 -5.88741 -1.16207 0
M  V30 1043 H 93.2553 -4.84454 -0.207847 0
M  V30 1044 N 94.5984 0.214957 -1.56127 0
M  V30 1045 C 95.8234 0.95924 -1.83884 0
M  V30 1046 C 96.2484 1.7689 -0.639644 0
M  V30 1047 O 95.6064 1.76566 0.411601 0
M  V30 1048 C 95.6544 1.84723 -3.09693 0
M  V30 1049 O 94.7584 2.94346 -2.8885 0
M  V30 1050 H 94.0994 0.27125 -0.606069 0
M  V30 1051 H 96.6294 0.226276 -2.03345 0
M  V30 1052 H 96.6394 2.25576 -3.39969 0
M  V30 1053 H 95.3144 1.25218 -3.96602 0
M  V30 1054 H 93.8914 2.57391 -2.69823 0
M  V30 1055 N 96.0765 1.50051 0.48192 0
M  V30 1056 C 97.0065 1.71046 1.58951 0
M  V30 1057 C 97.9875 0.559288 1.60642 0
M  V30 1058 O 99.1725 0.797243 1.77081 0
M  V30 1059 C 96.3025 1.79462 2.97339 0
M  V30 1060 C 95.2565 2.94558 3.10515 0
M  V30 1061 C 94.5825 2.88105 4.50444 0
M  V30 1062 C 95.8825 4.35227 2.88747 0
M  V30 1063 H 97.5765 2.6378 1.41635 0
M  V30 1064 H 95.1225 1.26936 0.679942 0
M  V30 1065 H 97.0755 1.92734 3.74742 0
M  V30 1066 H 95.7995 0.833412 3.15788 0
M  V30 1067 H 94.4585 2.80918 2.35543 0
M  V30 1068 H 94.1065 1.89853 4.65795 0
M  V30 1069 H 93.8065 3.65366 4.60197 0
M  V30 1070 H 95.3305 3.03412 5.29881 0
M  V30 1071 H 96.7445 4.49449 3.55905 0
M  V30 1072 H 95.1415 5.13856 3.09955 0
M  V30 1073 H 96.2115 4.48347 1.84696 0
M  V30 1074 N 97.5546 -0.734337 1.39446 0
M  V30 1075 C 98.8026 -1.49096 1.36436 0
M  V30 1076 C 99.1236 -1.94961 -0.0388255 0
M  V30 1077 O 98.3936 -1.69033 -0.990191 0
M  V30 1078 H 96.9736 -0.5531 0.502085 0
M  V30 1079 H 99.6356 -0.871725 1.74319 0
M  V30 1080 H 98.7316 -2.37276 2.02747 0
M  V30 1081 N 99.0327 -1.24633 -0.964593 0
M  V30 1082 C 99.9627 -1.06611 -2.07741 0
M  V30 1083 C 100.944 0.0218666 -1.70086 0
M  V30 1084 O 102.129 -0.145793 -1.93652 0
M  V30 1085 C 99.2587 -0.673444 -3.40708 0
M  V30 1086 C 98.2127 -1.71054 -3.92332 0
M  V30 1087 C 97.5387 -1.17285 -5.21678 0
M  V30 1088 C 98.8387 -3.10718 -4.19824 0
M  V30 1089 H 100.533 -1.99693 -2.23076 0
M  V30 1090 H 98.0787 -0.96152 -1.07195 0
M  V30 1091 H 100.032 -0.534345 -4.17998 0
M  V30 1092 H 98.7557 0.293073 -3.25282 0
M  V30 1093 H 97.4147 -1.83791 -3.17201 0
M  V30 1094 H 97.0627 -0.196847 -5.02615 0
M  V30 1095 H 96.7627 -1.86592 -5.57187 0
M  V30 1096 H 98.2867 -1.04593 -6.01575 0
M  V30 1097 H 99.7007 -3.01192 -4.87808 0
M  V30 1098 H 98.0977 -3.77406 -4.66567 0
M  V30 1099 H 99.1677 -3.58524 -3.26479 0
M  V30 1100 N 100.511 1.16574 -1.06058 0
M  V30 1101 C 101.922 1.68662 -0.800632 0
M  V30 1102 C 102.273 1.84184 0.67608 0
M  V30 1103 O 101.398 1.53568 1.52466 0
M  V30 1104 C 101.993 3.06356 -1.44676 0
M  V30 1105 C 100.552 3.55575 -1.23465 0
M  V30 1106 C 99.6988 2.31616 -1.52477 0
M  V30 1107 H 102.65 1.00969 -1.22438 0
M  V30 1108 H 102.671 3.70636 -0.860788 0
M  V30 1109 H 102.183 2.95027 -2.52152 0
M  V30 1110 H 100.284 3.72167 -0.179527 0
M  V30 1111 H 100.397 4.37812 -1.94571 0
M  V30 1112 H 98.7608 2.36512 -0.945209 0
M  V30 1113 H 99.5438 2.22887 -2.61106 0
M  V30 1114 N 101.989 0.842826 1.3317 0
M  V30 1115 C 103.237 0.439577 1.97262 0
M  V30 1116 C 103.558 -1.00548 1.67078 0
M  V30 1117 O 102.828 -1.70098 0.971779 0
M  V30 1118 H 101.408 0.159558 0.72976 0
M  V30 1119 H 104.07 1.07665 1.62463 0
M  V30 1120 H 103.166 0.574886 3.0676 0
M  V30 1121 N 103.467 -1.45747 0.599634 0
M  V30 1122 C 104.397 -2.33235 -0.111306 0
M  V30 1123 C 105.378 -1.46359 -0.866781 0
M  V30 1124 O 106.563 -1.75146 -0.838904 0
M  V30 1125 C 103.693 -3.28932 -1.11451 0
M  V30 1126 C 102.647 -4.25381 -0.472772 0
M  V30 1127 C 101.973 -5.1071 -1.58365 0
M  V30 1128 C 103.273 -5.18831 0.600948 0
M  V30 1129 H 104.967 -2.92927 0.61919 0
M  V30 1130 H 102.513 -1.40857 0.299215 0
M  V30 1131 H 104.466 -3.89002 -1.62036 0
M  V30 1132 H 103.19 -2.67381 -1.8755 0
M  V30 1133 H 101.849 -3.66598 0.0121472 0
M  V30 1134 H 101.497 -4.45533 -2.33473 0
M  V30 1135 H 101.197 -5.7604 -1.15982 0
M  V30 1136 H 102.721 -5.73647 -2.09194 0
M  V30 1137 H 104.135 -5.73019 0.179491 0
M  V30 1138 H 102.532 -5.92595 0.946076 0
M  V30 1139 H 103.602 -4.6174 1.48068 0
M  V30 1140 N 104.945 -0.338344 -1.53925 0
M  V30 1141 C 106.193 0.259245 -2.0043 0
M  V30 1142 C 106.514 1.51484 -1.22791 0
M  V30 1143 O 105.784 1.93037 -0.33368 0
M  V30 1144 H 104.364 0.0987845 -0.740439 0
M  V30 1145 H 107.026 -0.458302 -1.89435 0
M  V30 1146 H 106.122 0.505334 -3.07982 0
M  V30 1147 N 106.423 1.57458 -0.0668435 0
M  V30 1148 C 107.672 1.92477 0.602947 0
M  V30 1149 C 107.985 0.948419 1.71068 0
M  V30 1150 O 109.191 1.19124 2.43971 0
M  V30 1151 C 107.647 3.41903 1.12383 0
M  V30 1152 C 107.255 4.47975 0.04737 0
M  V30 1153 C 108.999 3.85931 1.76797 0
M  V30 1154 C 106.906 5.88529 0.582022 0
M  V30 1155 H 105.836 0.718387 0.22899 0
M  V30 1156 H 108.487 1.82978 -0.138276 0
M  V30 1157 H 106.869 3.46459 1.91787 0
M  V30 1158 H 108.043 4.55029 -0.726978 0
M  V30 1159 H 106.358 4.13384 -0.500243 0
M  V30 1160 H 108.955 4.88322 2.17821 0
M  V30 1161 H 109.298 3.23029 2.62599 0
M  V30 1162 H 109.831 3.83958 1.04024 0
M  V30 1163 H 106.57 6.55065 -0.238721 0
M  V30 1164 H 106.09 5.85004 1.324 0
M  V30 1165 H 107.769 6.38258 1.05999 0
M  V30 1166 N 107.901 -0.206675 1.56239 0
M  V30 1167 C 108.851 -1.26 1.90021 0
M  V30 1168 C 109.835 -1.41566 0.764721 0
M  V30 1169 O 111.027 -1.44131 1.02739 0
M  V30 1170 C 108.156 -2.6073 2.23326 0
M  V30 1171 C 107.242 -2.49005 3.43304 0
M  V30 1172 N 107.633 -2.06946 4.61527 0
M  V30 1173 C 105.931 -2.79927 3.47213 0
M  V30 1174 C 106.632 -2.06832 5.43687 0
M  V30 1175 N 105.608 -2.47892 4.83788 0
M  V30 1176 H 109.41 -0.925955 2.78932 0
M  V30 1177 H 106.924 -0.415172 1.57003 0
M  V30 1178 H 108.921 -3.36798 2.45708 0
M  V30 1179 H 107.581 -2.94968 1.35735 0
M  V30 1180 H 108.592 -1.77839 4.86409 0
M  V30 1181 H 105.269 -3.18438 2.70006 0
M  V30 1182 H 106.659 -1.76312 6.48354 0
M  V30 1183 N 109.379 -1.50304 -0.473955 0
M  V30 1184 C 110.312 -1.63595 -1.59097 0
M  V30 1185 C 111.29 -0.484142 -1.55225 0
M  V30 1186 O 112.474 -0.703271 -1.7489 0
M  V30 1187 C 109.601 -1.61589 -2.97669 0
M  V30 1188 C 108.647 -2.82295 -3.19705 0
M  V30 1189 S 109.48 -4.43635 -2.99913 0
M  V30 1190 C 110.636 -4.44317 -4.40832 0
M  V30 1191 H 110.869 -2.58082 -1.47583 0
M  V30 1192 H 108.402 -1.39531 -0.661087 0
M  V30 1193 H 110.36 -1.61116 -3.7756 0
M  V30 1194 H 109.021 -0.683421 -3.06575 0
M  V30 1195 H 108.214 -2.77188 -4.20931 0
M  V30 1196 H 107.816 -2.8032 -2.47582 0
M  V30 1197 H 110.108 -4.17703 -5.33414 0
M  V30 1198 H 111.051 -5.45911 -4.50984 0
M  V30 1199 H 111.459 -3.74059 -4.22777 0
M  V30 1200 N 110.857 0.726932 -1.39834 0
M  V30 1201 C 112.273 1.03354 -1.21615 0
M  V30 1202 C 112.473 2.01327 -0.08338 0
M  V30 1203 O 111.529 2.46158 0.56238 0
M  V30 1204 C 112.842 1.58811 -2.55342 0
M  V30 1205 C 114.39 1.70851 -2.62257 0
M  V30 1206 C 114.865 2.29716 -3.96225 0
M  V30 1207 N 116.356 2.37116 -3.97907 0
M  V30 1208 C 117.091 2.83619 -4.98345 0
M  V30 1209 N 116.587 3.29958 -6.09179 0
M  V30 1210 N 118.38 2.82901 -4.8572 0
M  V30 1211 H 110.531 0.0773069 -2.12259 0
M  V30 1212 H 112.794 0.0969102 -0.943034 0
M  V30 1213 H 112.5 0.942855 -3.38826 0
M  V30 1214 H 112.374 2.57502 -2.75632 0
M  V30 1215 H 114.761 2.34497 -1.79152 0
M  V30 1216 H 114.842 0.707913 -2.45809 0
M  V30 1217 H 114.486 1.66696 -4.79765 0
M  V30 1218 H 114.416 3.30469 -4.09997 0
M  V30 1219 H 116.907 2.04374 -3.17868 0
M  V30 1220 H 117.22 3.63976 -6.8172 0
M  V30 1221 H 115.565 3.27946 -6.12761 0
M  V30 1222 H 118.756 2.46027 -3.98231 0
M  V30 1223 H 118.929 3.18827 -5.6414 0
M  V30 1224 N 112.336 1.25143 0.95797 0
M  V30 1225 C 113.747 1.08851 1.51685 0
M  V30 1226 C 114.098 -0.33687 1.93286 0
M  V30 1227 O 113.223 -1.22644 1.7829 0
M  V30 1228 C 113.818 1.96978 2.75654 0
M  V30 1229 C 112.377 1.84881 3.27866 0
M  V30 1230 C 111.524 1.91329 2.0072 0
M  V30 1231 H 114.475 1.38478 0.77522 0
M  V30 1232 H 114.496 1.5078 3.4935 0
M  V30 1233 H 114.008 3.00712 2.45345 0
M  V30 1234 H 112.109 0.840182 3.63004 0
M  V30 1235 H 112.222 2.6951 3.96107 0
M  V30 1236 H 110.586 1.35174 2.15871 0
M  V30 1237 H 111.369 2.96661 1.72764 0
M  V30 1238 N 113.814 -1.1601 1.06675 0
M  V30 1239 C 114.744 -2.22688 0.702307 0
M  V30 1240 C 115.725 -1.67306 -0.307032 0
M  V30 1241 O 116.91 -1.93352 -0.181305 0
M  V30 1242 C 114.04 -3.47178 0.092038 0
M  V30 1243 C 112.994 -4.15477 1.02777 0
M  V30 1244 C 112.32 -5.33963 0.28061 0
M  V30 1245 C 113.62 -4.66019 2.35846 0
M  V30 1246 H 115.314 -2.53429 1.59419 0
M  V30 1247 H 112.86 -1.21813 0.767961 0
M  V30 1248 H 114.813 -4.21037 -0.174814 0
M  V30 1249 H 113.537 -3.15749 -0.834877 0
M  V30 1250 H 112.196 -3.43549 1.27944 0
M  V30 1251 H 111.844 -4.98788 -0.649545 0
M  V30 1252 H 111.544 -5.806 0.904258 0
M  V30 1253 H 113.068 -6.10596 0.021396 0
M  V30 1254 H 114.482 -5.3144 2.15045 0
M  V30 1255 H 112.879 -5.23293 2.93743 0
M  V30 1256 H 113.949 -3.82023 2.98641 0
M  V30 1257 N 115.292 -0.849877 -1.32721 0
M  V30 1258 C 116.255 -0.296122 -2.27279 0
M  V30 1259 C 117.255 0.541458 -1.5141 0
M  V30 1260 O 118.445 0.353658 -1.70572 0
M  V30 1261 C 115.577 0.581579 -3.35902 0
M  V30 1262 H 116.77 -1.13064 -2.77771 0
M  V30 1263 H 114.323 -0.62383 -1.43311 0
M  V30 1264 H 115.058 1.43809 -2.9067 0
M  V30 1265 H 114.843 -0.0178814 -3.92096 0
M  V30 1266 H 116.333 0.961951 -4.0637 0
M  V30 1267 N 116.77 1.45427 -0.607355 0
M  V30 1268 C 118.019 2.01452 -0.100036 0
M  V30 1269 C 118.332 1.48159 1.27704 0
M  V30 1270 O 119.538 1.96159 1.87707 0
M  V30 1271 C 117.994 3.59672 -0.128158 0
M  V30 1272 C 117.602 4.21962 -1.50507 0
M  V30 1273 C 119.346 4.23262 0.323932 0
M  V30 1274 C 117.253 5.72333 -1.48959 0
M  V30 1275 H 116.183 0.75325 -0.0336299 0
M  V30 1276 H 118.834 1.66901 -0.76265 0
M  V30 1277 H 117.216 3.91411 0.601105 0
M  V30 1278 H 118.39 4.01796 -2.25602 0
M  V30 1279 H 116.705 3.70565 -1.89923 0
M  V30 1280 H 119.302 5.33522 0.354691 0
M  V30 1281 H 119.645 3.93921 1.34656 0
M  V30 1282 H 120.178 3.96239 -0.352056 0
M  V30 1283 H 116.917 6.06373 -2.48981 0
M  V30 1284 H 116.437 5.94691 -0.781214 0
M  V30 1285 H 118.116 6.35525 -1.21313 0
M  V30 1286 N 118.248 0.346503 1.53744 0
M  V30 1287 C 119.494 -0.242135 2.01954 0
M  V30 1288 C 119.849 -1.47962 1.22984 0
M  V30 1289 O 119.142 -1.89077 0.309924 0
M  V30 1290 C 119.336 -0.605809 3.52228 0
M  V30 1291 C 119.165 0.594882 4.45748 0
M  V30 1292 C 117.935 1.1011 4.93157 0
M  V30 1293 C 120.133 1.45425 4.93311 0
M  V30 1294 N 118.115 2.26381 5.70636 0
M  V30 1295 C 119.486 2.46383 5.68942 0
M  V30 1296 C 121.541 1.47935 4.75415 0
M  V30 1297 C 120.244 3.49684 6.28581 0
M  V30 1298 C 122.27 2.50119 5.35905 0
M  V30 1299 C 121.632 3.49803 6.11406 0
M  V30 1300 H 117.731 -0.0518296 0.780281 0
M  V30 1301 H 120.315 0.486736 1.88518 0
M  V30 1302 H 118.486 -1.30378 3.65864 0
M  V30 1303 H 120.218 -1.17789 3.87179 0
M  V30 1304 H 116.973 0.668721 4.68855 0
M  V30 1305 H 117.397 2.85094 6.14044 0
M  V30 1306 H 122.039 0.722274 4.16585 0
M  V30 1307 H 119.757 4.26285 6.86518 0
M  V30 1308 H 123.343 2.52892 5.23963 0
M  V30 1309 H 122.223 4.27576 6.5738 0
M  V30 1310 N 119.726 -1.57421 0.075193 0
M  V30 1311 C 120.656 -2.15942 -0.888324 0
M  V30 1312 C 121.637 -1.08737 -1.30806 0
M  V30 1313 O 122.822 -1.36787 -1.37851 0
M  V30 1314 C 119.952 -2.72379 -2.1547 0
M  V30 1315 C 118.906 -3.8478 -1.87425 0
M  V30 1316 C 118.232 -4.27834 -3.20721 0
M  V30 1317 C 119.532 -5.08869 -1.17684 0
M  V30 1318 H 121.226 -2.96705 -0.400799 0
M  V30 1319 H 118.772 -1.42723 -0.191342 0
M  V30 1320 H 120.725 -3.11965 -2.83295 0
M  V30 1321 H 119.449 -1.88841 -2.6647 0
M  V30 1322 H 118.108 -3.45703 -1.22004 0
M  V30 1323 H 117.756 -3.41214 -3.6957 0
M  V30 1324 H 117.456 -5.03605 -3.02746 0
M  V30 1325 H 118.98 -4.70039 -3.89738 0
M  V30 1326 H 120.394 -5.4575 -1.75584 0
M  V30 1327 H 118.791 -5.8994 -1.09956 0
M  V30 1328 H 119.861 -4.84648 -0.156453 0
M  V30 1329 N 121.204 0.198386 -1.56346 0
M  V30 1330 C 122.451 0.919286 -1.80431 0
M  V30 1331 C 122.779 1.83393 -0.647866 0
M  V30 1332 O 122.034 1.92236 0.366556 0
M  V30 1333 C 122.333 1.77031 -3.10475 0
M  V30 1334 C 121.999 1.00693 -4.39513 0
M  V30 1335 C 120.661 0.796145 -4.74568 0
M  V30 1336 C 123.013 0.469559 -5.19081 0
M  V30 1337 C 120.341 0.0364588 -5.86689 0
M  V30 1338 C 122.693 -0.2769 -6.31994 0
M  V30 1339 C 121.357 -0.49873 -6.65634 0
M  V30 1340 H 120.627 0.336391 -0.660244 0
M  V30 1341 H 123.274 0.185872 -1.90596 0
M  V30 1342 H 121.579 2.5723 -2.95533 0
M  V30 1343 H 123.276 2.33065 -3.26315 0
M  V30 1344 H 119.866 1.18122 -4.12001 0
M  V30 1345 H 124.05 0.619816 -4.92414 0
M  V30 1346 H 119.306 -0.145412 -6.11227 0
M  V30 1347 H 123.48 -0.700684 -6.92866 0
M  V30 1348 H 121.107 -1.0893 -7.52355 0
M  V30 1349 N 122.682 1.50554 0.465978 0
M  V30 1350 C 123.931 1.61038 1.21448 0
M  V30 1351 C 124.244 0.31865 1.92987 0
M  V30 1352 O 125.45 0.302469 2.6981 0
M  V30 1353 C 123.906 2.84283 2.20706 0
M  V30 1354 C 123.514 4.20352 1.54946 0
M  V30 1355 C 125.258 3.04115 2.96166 0
M  V30 1356 C 123.165 5.34778 2.5252 0
M  V30 1357 H 122.095 0.599718 0.457005 0
M  V30 1358 H 124.746 1.7699 0.484424 0
M  V30 1359 H 123.128 2.61901 2.97025 0
M  V30 1360 H 124.302 4.53008 0.843811 0
M  V30 1361 H 122.617 4.06167 0.917475 0
M  V30 1362 H 125.214 3.86774 3.69202 0
M  V30 1363 H 125.557 2.16045 3.55852 0
M  V30 1364 H 126.09 3.26702 2.26959 0
M  V30 1365 H 122.829 6.25018 1.97566 0
M  V30 1366 H 122.349 5.06534 3.21222 0
M  V30 1367 H 124.028 5.65561 3.14245 0
M  V30 1368 N 124.16 -0.719506 1.40217 0
M  V30 1369 C 125.407 -1.47933 1.38283 0
M  V30 1370 C 125.735 -1.94493 -0.0161536 0
M  V30 1371 O 124.99 -1.68224 -0.999956 0
M  V30 1372 C 125.289 -2.72271 2.31524 0
M  V30 1373 C 124.955 -2.44496 3.78857 0
M  V30 1374 C 123.617 -2.36631 4.18998 0
M  V30 1375 C 125.969 -2.21104 4.71977 0
M  V30 1376 C 123.297 -2.03437 5.503 0
M  V30 1377 C 125.649 -1.89423 6.03574 0
M  V30 1378 C 124.313 -1.80038 6.42762 0
M  V30 1379 H 123.583 -0.541325 0.506012 0
M  V30 1380 H 126.23 -0.824502 1.72842 0
M  V30 1381 H 124.535 -3.42572 1.90137 0
M  V30 1382 H 126.232 -3.30348 2.27313 0
M  V30 1383 H 122.822 -2.51503 3.47051 0
M  V30 1384 H 127.006 -2.26139 4.41786 0
M  V30 1385 H 122.262 -1.94705 5.79569 0
M  V30 1386 H 126.436 -1.70336 6.75247 0
M  V30 1387 H 124.063 -1.54083 7.44421 0
M  V30 1388 N 125.638 -1.25649 -0.95132 0
M  V30 1389 C 126.586 -1.06118 -2.06982 0
M  V30 1390 C 127.58 0.00889169 -1.69398 0
M  V30 1391 O 128.786 -0.146988 -1.79399 0
M  V30 1392 H 125.161 -0.326248 -0.677544 0
M  V30 1393 H 127.132 -2.00932 -2.2061 0
M  V30 1394 C 125.881 -0.700145 -3.40578 0
M  V30 1395 H 125.204 -1.51537 -3.69968 0
M  V30 1396 H 126.644 -0.603211 -4.19687 0
M  V30 1397 C 125.103 0.59403 -3.31622 0
M  V30 1398 O 125.633 1.63522 -3.66911 0
M  V30 1399 N 123.839 0.58089 -2.84735 0
M  V30 1400 H 123.386 -0.266783 -2.56215 0
M  V30 1401 H 123.344 1.44695 -2.79125 0
M  V30 1402 N 127.117 1.15442 -1.07289 0
M  V30 1403 C 128.363 1.86489 -0.796846 0
M  V30 1404 C 128.696 1.82078 0.675371 0
M  V30 1405 O 127.971 1.24346 1.4956 0
M  V30 1406 C 128.254 3.35626 -1.30489 0
M  V30 1407 C 128.107 3.48673 -2.84161 0
M  V30 1408 C 129.426 4.30357 -0.920907 0
M  V30 1409 H 126.545 0.677144 -0.290939 0
M  V30 1410 H 129.187 1.35633 -1.33056 0
M  V30 1411 H 127.337 3.79068 -0.850883 0
M  V30 1412 H 129.009 3.14099 -3.37846 0
M  V30 1413 H 127.252 2.90253 -3.22391 0
M  V30 1414 H 127.923 4.53453 -3.14777 0
M  V30 1415 H 130.399 3.94871 -1.3121 0
M  V30 1416 H 129.275 5.33193 -1.30372 0
M  V30 1417 H 129.536 4.4176 0.173226 0
M  V30 1418 N 128.595 0.856903 1.32268 0
M  V30 1419 C 129.82 0.474569 2.01897 0
M  V30 1420 C 130.245 -0.921766 1.63967 0
M  V30 1421 O 129.603 -1.60589 0.84148 0
M  V30 1422 C 129.651 0.623799 3.55164 0
M  V30 1423 O 128.755 -0.342459 4.10976 0
M  V30 1424 H 128.096 0.190422 0.63611 0
M  V30 1425 H 130.626 1.15672 1.68764 0
M  V30 1426 H 130.636 0.512169 4.04773 0
M  V30 1427 H 129.311 1.64202 3.82113 0
M  V30 1428 H 127.888 -0.18688 3.72431 0
M  V30 1429 N 130.073 -1.45103 0.615059 0
M  V30 1430 C 131.005 -2.28786 -0.13762 0
M  V30 1431 C 132.018 -1.40376 -0.824525 0
M  V30 1432 O 133.207 -1.64681 -0.688662 0
M  V30 1433 C 130.307 -3.16322 -1.21628 0
M  V30 1434 C 129.48 -4.33054 -0.615039 0
M  V30 1435 C 128.539 -5.01743 -1.58556 0
M  V30 1436 O 127.565 -5.58293 -1.10895 0
M  V30 1437 N 128.767 -5.01714 -2.91998 0
M  V30 1438 H 131.532 -2.94025 0.580483 0
M  V30 1439 H 129.093 -1.55373 0.45507 0
M  V30 1440 H 131.085 -3.59139 -1.86552 0
M  V30 1441 H 129.655 -2.52943 -1.83681 0
M  V30 1442 H 128.875 -3.93627 0.21245 0
M  V30 1443 H 130.163 -5.08431 -0.193704 0
M  V30 1444 H 129.561 -4.57075 -3.33316 0
M  V30 1445 H 128.118 -5.48371 -3.52325 0
M  V30 1446 N 131.551 -0.354651 -1.53558 0
M  V30 1447 C 132.483 0.5315 -2.22952 0
M  V30 1448 C 133.496 1.05503 -1.23988 0
M  V30 1449 O 134.685 0.963279 -1.50277 0
M  V30 1450 C 131.785 1.74538 -2.90499 0
M  V30 1451 C 130.958 1.35524 -4.15875 0
M  V30 1452 C 130.017 2.42999 -4.66731 0
M  V30 1453 O 129.043 2.05844 -5.30676 0
M  V30 1454 N 130.245 3.74423 -4.43608 0
M  V30 1455 H 133.01 -0.0628615 -2.99634 0
M  V30 1456 H 130.571 -0.179302 -1.60904 0
M  V30 1457 H 132.563 2.45892 -3.21433 0
M  V30 1458 H 131.133 2.24686 -2.17336 0
M  V30 1459 H 130.353 0.471998 -3.91364 0
M  V30 1460 H 131.641 1.07071 -4.97406 0
M  V30 1461 H 131.039 4.07391 -3.92491 0
M  V30 1462 H 129.596 4.41913 -4.7912 0
M  V30 1463 N 133.029 1.57378 -0.0835403 0
M  V30 1464 C 133.962 2.09016 0.915833 0
M  V30 1465 C 134.94 0.997993 1.2837 0
M  V30 1466 O 136.124 1.27219 1.39096 0
M  V30 1467 C 133.251 2.55757 2.22049 0
M  V30 1468 C 132.297 3.76522 2.00333 0
M  V30 1469 S 133.13 5.20661 1.25191 0
M  V30 1470 C 134.286 5.70743 2.56912 0
M  V30 1471 H 134.519 2.93457 0.476492 0
M  V30 1472 H 132.052 1.53856 0.129493 0
M  V30 1473 H 134.01 2.83346 2.97027 0
M  V30 1474 H 132.671 1.71564 2.63106 0
M  V30 1475 H 131.864 4.07256 2.96916 0
M  V30 1476 H 131.466 3.49367 1.33488 0
M  V30 1477 H 133.758 5.78304 3.52946 0
M  V30 1478 H 134.701 6.6944 2.30772 0
M  V30 1479 H 135.109 4.98616 2.64655 0
M  V30 1480 N 134.507 -0.190092 1.56449 0
M  V30 1481 C 135.755 -0.907908 1.80559 0
M  V30 1482 C 136.076 -1.83583 0.657438 0
M  V30 1483 O 135.346 -1.93203 -0.323924 0
M  V30 1484 H 133.926 -0.338247 0.666032 0
M  V30 1485 H 136.588 -0.194403 1.93928 0
M  V30 1486 H 135.684 -1.49604 2.73907 0
M  V30 1487 N 135.985 -1.50799 -0.457987 0
M  V30 1488 C 137.233 -1.62121 -1.2067 0
M  V30 1489 C 137.554 -0.329793 -1.92191 0
M  V30 1490 O 136.824 0.653409 -1.84682 0
M  V30 1491 H 135.404 -0.597441 -0.448411 0
M  V30 1492 H 138.066 -1.87637 -0.527096 0
M  V30 1493 H 137.162 -2.43882 -1.94751 0
M  V30 1494 N 137.463 0.71206 -1.40597 0
M  V30 1495 C 138.71 1.47197 -1.39065 0
M  V30 1496 C 139.038 1.94499 0.00583891 0
M  V30 1497 O 138.293 1.68752 0.99102 0
M  V30 1498 C 138.592 2.71039 -2.32965 0
M  V30 1499 C 138.258 2.42484 -3.80148 0
M  V30 1500 C 136.92 2.34406 -4.20247 0
M  V30 1501 C 139.272 2.18598 -4.73143 0
M  V30 1502 C 136.6 2.00516 -5.51371 0
M  V30 1503 C 138.952 1.8622 -6.0457 0
M  V30 1504 C 137.616 1.76626 -6.43708 0
M  V30 1505 H 136.886 0.538634 -0.508876 0
M  V30 1506 H 139.533 0.815325 -1.73276 0
M  V30 1507 H 137.838 3.41558 -1.91951 0
M  V30 1508 H 139.535 3.29138 -2.29061 0
M  V30 1509 H 136.125 2.49659 -3.4838 0
M  V30 1510 H 140.309 2.23793 -4.42979 0
M  V30 1511 H 135.565 1.91628 -5.80593 0
M  V30 1512 H 139.739 1.66752 -6.76141 0
M  V30 1513 H 137.366 1.50133 -7.45228 0
M  V30 1514 N 138.941 1.26152 0.944643 0
M  V30 1515 C 140.171 1.14094 1.72239 0
M  V30 1516 C 140.579 -0.306931 1.86694 0
M  V30 1517 O 139.922 -1.22222 1.3714 0
M  V30 1518 C 139.984 1.73316 3.14963 0
M  V30 1519 C 139.648 3.2239 3.23904 0
M  V30 1520 C 140.645 4.19252 3.07447 0
M  V30 1521 C 138.33 3.62788 3.47405 0
M  V30 1522 C 140.324 5.54491 3.14353 0
M  V30 1523 C 138.011 4.98162 3.53947 0
M  V30 1524 C 139.009 5.93823 3.37436 0
M  V30 1525 O 138.697 7.26732 3.43679 0
M  V30 1526 H 138.429 0.398292 0.546205 0
M  V30 1527 H 140.983 1.67201 1.19301 0
M  V30 1528 H 139.213 1.14667 3.69308 0
M  V30 1529 H 140.902 1.56214 3.74636 0
M  V30 1530 H 141.668 3.8938 2.8915 0
M  V30 1531 H 137.547 2.88816 3.59313 0
M  V30 1532 H 141.091 6.29137 3.01384 0
M  V30 1533 H 136.988 5.27695 3.71763 0
M  V30 1534 H 137.756 7.3496 3.60245 0
M  V30 1535 N 140.419 -1.14872 1.07899 0
M  V30 1536 C 141.349 -2.2193 0.725887 0
M  V30 1537 C 142.33 -1.67622 -0.28927 0
M  V30 1538 O 143.515 -1.93533 -0.160787 0
M  V30 1539 C 140.645 -3.47061 0.128856 0
M  V30 1540 C 139.599 -4.14363 1.07178 0
M  V30 1541 C 138.925 -5.33636 0.337229 0
M  V30 1542 C 140.225 -4.63492 2.40775 0
M  V30 1543 H 141.919 -2.51724 1.62097 0
M  V30 1544 H 139.465 -1.20991 0.780838 0
M  V30 1545 H 141.418 -4.21199 -0.130147 0
M  V30 1546 H 140.142 -3.16617 -0.80134 0
M  V30 1547 H 138.801 -3.42173 1.3158 0
M  V30 1548 H 138.449 -4.99449 -0.596606 0
M  V30 1549 H 138.149 -5.79609 0.965788 0
M  V30 1550 H 139.673 -6.10539 0.0861567 0
M  V30 1551 H 141.087 -5.2913 2.20669 0
M  V30 1552 H 139.484 -5.20148 2.99276 0
M  V30 1553 H 140.554 -3.78834 3.02676 0
M  V30 1554 N 141.898 -0.863906 -1.31812 0
M  V30 1555 C 143.138 -0.47825 -1.98726 0
M  V30 1556 C 143.502 0.950397 -1.66828 0
M  V30 1557 O 144.703 1.44109 -2.26905 0
M  V30 1558 C 142.974 -0.721134 -3.50049 0
M  V30 1559 S 144.533 -0.434432 -4.36644 0
M  V30 1560 H 141.351 -0.178773 -0.688158 0
M  V30 1561 H 143.953 -1.11862 -1.60334 0
M  V30 1562 H 142.657 -1.75981 -3.70755 0
M  V30 1563 H 142.188 -0.0675315 -3.93342 0
M  V30 1564 H 144.203 0.735786 -4.90714 0
M  V30 1565 N 143.376 1.44774 -0.622745 0
M  V30 1566 C 144.308 2.28856 0.125485 0
M  V30 1567 C 145.321 1.40811 0.817069 0
M  V30 1568 O 146.51 1.65044 0.679918 0
M  V30 1569 C 143.61 3.16963 1.19949 0
M  V30 1570 C 142.783 4.33374 0.592064 0
M  V30 1571 C 141.842 5.02577 1.55893 0
M  V30 1572 O 140.868 5.58873 1.07933 0
M  V30 1573 N 142.07 5.03256 2.89334 0
M  V30 1574 H 144.835 2.93713 -0.596068 0
M  V30 1575 H 142.396 1.55129 -0.463303 0
M  V30 1576 H 144.388 3.60123 1.84644 0
M  V30 1577 H 142.958 2.53913 1.82337 0
M  V30 1578 H 142.178 3.93509 -0.233322 0
M  V30 1579 H 143.466 5.08527 0.166738 0
M  V30 1580 H 142.864 4.58836 3.30887 0
M  V30 1581 H 141.421 5.50232 3.49412 0
M  V30 1582 N 144.854 0.36279 1.53368 0
M  V30 1583 C 146.265 -0.117022 1.86333 0
M  V30 1584 C 146.616 -1.48397 1.28347 0
M  V30 1585 O 145.741 -2.07787 0.604428 0
M  V30 1586 C 146.336 -0.21912 3.38091 0
M  V30 1587 C 144.895 -0.643184 3.70864 0
M  V30 1588 C 144.042 0.211318 2.76494 0
M  V30 1589 H 146.993 0.581687 1.47655 0
M  V30 1590 H 147.014 -1.04319 3.6592 0
M  V30 1591 H 146.526 0.775902 3.80265 0
M  V30 1592 H 144.627 -1.64654 3.34245 0
M  V30 1593 H 144.74 -0.41973 4.77258 0
M  V30 1594 H 143.104 -0.319367 2.5269 0
M  V30 1595 H 143.887 1.20383 3.21501 0
M  V30 1596 N 146.332 -1.57332 0.0918853 0
M  V30 1597 C 147.58 -1.93853 -0.571446 0
M  V30 1598 C 147.901 -0.974212 -1.6892 0
M  V30 1599 O 147.171 -0.0257254 -1.95883 0
M  V30 1600 H 145.751 -0.715666 -0.214082 0
M  V30 1601 H 148.413 -1.94287 0.154464 0
M  V30 1602 H 147.509 -2.96191 -0.983729 0
M  V30 1603 N 147.81 0.181792 -1.56548 0
M  V30 1604 C 149.221 0.745244 -1.71181 0
M  V30 1605 C 149.572 1.83262 -0.70068 0
M  V30 1606 O 148.697 2.15946 0.140154 0
M  V30 1607 C 149.292 1.35859 -3.10367 0
M  V30 1608 C 147.851 1.86898 -3.2672 0
M  V30 1609 C 146.998 0.743942 -2.67134 0
M  V30 1610 H 149.949 -0.0434661 -1.5864 0
M  V30 1611 H 149.97 2.22817 -3.08436 0
M  V30 1612 H 149.482 0.566948 -3.83937 0
M  V30 1613 H 147.583 2.68738 -2.5809 0
M  V30 1614 H 147.696 2.02162 -4.34359 0
M  V30 1615 H 146.06 1.16169 -2.26665 0
M  V30 1616 H 146.843 -0.035676 -3.43281 0
M  V30 1617 N 149.288 1.51039 0.449983 0
M  V30 1618 C 150.699 1.557 1.03026 0
M  V30 1619 C 151.05 0.372939 1.92623 0
M  V30 1620 O 150.175 -0.511771 2.10261 0
M  V30 1621 C 150.77 2.82171 1.87523 0
M  V30 1622 C 149.329 2.89444 2.40622 0
M  V30 1623 C 148.476 2.50228 1.19504 0
M  V30 1624 H 151.427 1.56999 0.231745 0
M  V30 1625 H 151.448 2.65219 2.72835 0
M  V30 1626 H 150.96 3.68331 1.22286 0
M  V30 1627 H 149.061 2.07685 3.0935 0
M  V30 1628 H 149.174 3.92816 2.74285 0
M  V30 1629 H 147.538 2.03139 1.53644 0
M  V30 1630 H 148.321 3.38719 0.558972 0
M  V30 1631 N 150.766 -0.704594 1.40972 0
M  V30 1632 C 151.991 -1.49858 1.43378 0
M  V30 1633 C 152.416 -1.88061 0.038184 0
M  V30 1634 O 151.774 -1.5402 -0.956425 0
M  V30 1635 C 151.822 -2.74333 2.34038 0
M  V30 1636 O 150.926 -3.7147 1.7912 0
M  V30 1637 H 150.267 -0.45139 0.486974 0
M  V30 1638 H 152.797 -0.866832 1.8533 0
M  V30 1639 H 152.807 -3.22741 2.49604 0
M  V30 1640 H 151.482 -2.45863 3.35446 0
M  V30 1641 H 150.059 -3.30363 1.72958 0
M  V30 1642 N 152.244 -1.26651 -0.937939 0
M  V30 1643 C 153.154 -1.10276 -2.07066 0
M  V30 1644 C 154.17 -0.0354197 -1.73964 0
M  V30 1645 O 155.346 -0.239816 -1.99967 0
M  V30 1646 C 152.411 -0.740887 -3.38691 0
M  V30 1647 C 151.472 -1.88799 -3.85556 0
M  V30 1648 C 150.705 -1.54329 -5.10899 0
M  V30 1649 O 150.928 -0.446494 -5.6865 0
M  V30 1650 O 149.862 -2.37911 -5.52885 0
M  V30 1651 H 153.688 -2.05309 -2.23789 0
M  V30 1652 H 151.273 -1.05743 -1.0554 0
M  V30 1653 H 153.155 -0.55195 -4.1777 0
M  V30 1654 H 151.83 0.180022 -3.23199 0
M  V30 1655 H 150.737 -2.13191 -3.07409 0
M  V30 1656 H 152.07 -2.78874 -4.05574 0
M  V30 1657 N 153.722 1.14298 -1.08507 0
M  V30 1658 C 154.669 2.19414 -0.715965 0
M  V30 1659 C 155.639 1.63399 0.298326 0
M  V30 1660 O 156.824 1.89929 0.182101 0
M  V30 1661 C 153.964 3.44845 -0.132534 0
M  V30 1662 C 153.077 4.15007 -1.19973 0
M  V30 1663 C 152.212 5.28024 -0.580048 0
M  V30 1664 C 151.251 5.9002 -1.62921 0
M  V30 1665 N 150.388 6.94485 -1.03125 0
M  V30 1666 H 155.228 2.50336 -1.61666 0
M  V30 1667 H 152.765 1.2293 -0.807882 0
M  V30 1668 H 154.723 4.16601 0.223454 0
M  V30 1669 H 153.353 3.14403 0.731467 0
M  V30 1670 H 152.405 3.41629 -1.67313 0
M  V30 1671 H 153.717 4.57178 -1.99473 0
M  V30 1672 H 152.871 6.06455 -0.172364 0
M  V30 1673 H 151.61 4.87076 0.246603 0
M  V30 1674 H 150.615 5.10291 -2.04654 0
M  V30 1675 H 151.84 6.33042 -2.45835 0
M  V30 1676 H 149.786 6.55612 -0.225711 0
M  V30 1677 H 149.703 7.35148 -1.76334 0
M  V30 1678 H 150.971 7.7679 -0.649458 0
M  V30 1679 N 155.201 0.870884 1.31352 0
M  V30 1680 C 156.164 0.332243 2.26779 0
M  V30 1681 C 157.164 -0.517302 1.52252 0
M  V30 1682 O 158.354 -0.326477 1.71113 0
M  V30 1683 C 155.486 -0.528066 3.36785 0
M  V30 1684 H 156.679 1.17469 2.75937 0
M  V30 1685 H 154.232 0.64655 1.423 0
M  V30 1686 H 154.967 -1.39167 2.92922 0
M  V30 1687 H 154.752 0.0802582 3.92018 0
M  V30 1688 H 156.242 -0.897179 4.07849 0
M  V30 1689 N 156.679 -1.44442 0.630414 0
M  V30 1690 C 157.925 -2.02894 0.143332 0
M  V30 1691 C 158.28 -1.48697 -1.22094 0
M  V30 1692 O 157.573 -0.661171 -1.79831 0
M  V30 1693 C 157.767 -3.57332 0.0697835 0
M  V30 1694 C 157.596 -4.26512 1.42539 0
M  V30 1695 C 156.366 -4.63516 2.01198 0
M  V30 1696 C 158.564 -4.57004 2.35907 0
M  V30 1697 N 156.546 -5.17661 3.30001 0
M  V30 1698 C 157.917 -5.12223 3.49324 0
M  V30 1699 C 159.972 -4.38955 2.34995 0
M  V30 1700 C 158.675 -5.51295 4.62024 0
M  V30 1701 C 160.701 -4.79075 3.46758 0
M  V30 1702 C 160.063 -5.34407 4.58899 0
M  V30 1703 H 156.162 -0.776041 0.0963523 0
M  V30 1704 H 158.746 -1.75945 0.833752 0
M  V30 1705 H 156.917 -3.83894 -0.589915 0
M  V30 1706 H 158.649 -4.02451 -0.42606 0
M  V30 1707 H 155.404 -4.47811 1.54151 0
M  V30 1708 H 155.828 -5.4921 3.95851 0
M  V30 1709 H 160.47 -3.95469 1.49545 0
M  V30 1710 H 158.188 -5.93736 5.48182 0
M  V30 1711 H 161.774 -4.66824 3.47227 0
M  V30 1712 H 160.654 -5.64878 5.4395 0
M  V30 1713 N 158.157 -0.370918 -1.53173 0
M  V30 1714 C 159.089 0.507823 -2.23503 0
M  V30 1715 C 160.102 1.04182 -1.251 0
M  V30 1716 O 161.291 0.947286 -1.5129 0
M  V30 1717 C 158.391 1.71447 -2.92334 0
M  V30 1718 C 157.564 1.31105 -4.17289 0
M  V30 1719 C 156.623 2.38035 -4.69282 0
M  V30 1720 O 155.649 2.00204 -5.32829 0
M  V30 1721 N 156.851 3.69697 -4.47554 0
M  V30 1722 H 159.616 -0.0946382 -2.99551 0
M  V30 1723 H 157.177 -0.196358 -1.60705 0
M  V30 1724 H 159.169 2.42469 -3.24023 0
M  V30 1725 H 157.739 2.22368 -2.19707 0
M  V30 1726 H 156.959 0.430462 -3.91843 0
M  V30 1727 H 158.247 1.0179 -4.98514 0
M  V30 1728 H 157.645 4.03205 -3.9679 0
M  V30 1729 H 156.202 4.36807 -4.8378 0
M  V30 1730 N 159.635 1.57281 -0.100228 0
M  V30 1731 C 161.046 1.81725 0.428107 0
M  V30 1732 C 161.397 1.01619 1.67833 0
M  V30 1733 O 160.522 0.247098 2.14985 0
M  V30 1734 C 161.117 3.29617 0.78347 0
M  V30 1735 C 159.676 3.54808 1.25653 0
M  V30 1736 C 158.823 2.76118 0.255752 0
M  V30 1737 H 161.774 1.55324 -0.325608 0
M  V30 1738 H 161.795 3.4322 1.64256 0
M  V30 1739 H 161.307 3.87893 -0.12665 0
M  V30 1740 H 159.408 3.01868 2.18418 0
M  V30 1741 H 159.521 4.63443 1.21482 0
M  V30 1742 H 157.885 2.43745 0.738956 0
M  V30 1743 H 158.668 3.37145 -0.647136 0
M  V30 1744 N 161.113 -0.173488 1.56642 0
M  V30 1745 C 162.361 -0.888706 1.81512 0
M  V30 1746 C 162.682 -1.82875 0.676872 0
M  V30 1747 O 161.952 -1.93536 -0.303414 0
M  V30 1748 H 160.532 -0.331164 0.669582 0
M  V30 1749 H 163.194 -0.173823 1.94123 0
M  V30 1750 H 162.29 -1.46691 2.75478 0
M  V30 1751 N 162.591 -1.51276 -0.441967 0
M  V30 1752 C 163.837 -1.6492 -1.1905 0
M  V30 1753 C 164.192 -0.358731 -1.89026 0
M  V30 1754 O 163.485 0.645193 -1.8041 0
M  V30 1755 C 163.679 -2.78746 -2.23686 0
M  V30 1756 C 163.508 -4.18737 -1.63979 0
M  V30 1757 C 162.278 -4.84739 -1.42674 0
M  V30 1758 C 164.476 -5.01988 -1.11858 0
M  V30 1759 N 162.458 -6.08858 -0.785159 0
M  V30 1760 C 163.829 -6.17071 -0.601989 0
M  V30 1761 C 165.884 -4.87551 -1.0099 0
M  V30 1762 C 164.587 -7.19299 0.0126012 0
M  V30 1763 C 166.613 -5.89983 -0.409206 0
M  V30 1764 C 165.975 -7.04333 0.0968651 0
M  V30 1765 H 162.074 -0.657416 -0.423471 0
M  V30 1766 H 164.658 -1.8849 -0.48782 0
M  V30 1767 H 162.829 -2.56848 -2.91348 0
M  V30 1768 H 164.561 -2.81595 -2.90666 0
M  V30 1769 H 161.316 -4.42528 -1.68719 0
M  V30 1770 H 161.74 -6.75282 -0.481942 0
M  V30 1771 H 166.382 -3.99401 -1.38703 0
M  V30 1772 H 164.1 -8.071 0.401879 0
M  V30 1773 H 167.686 -5.8088 -0.327079 0
M  V30 1774 H 166.566 -7.82238 0.554373 0
M  V30 1775 N 164.069 0.697108 -1.41344 0
M  V30 1776 C 165.297 1.48593 -1.43972 0
M  V30 1777 C 165.712 1.88747 -0.0445612 0
M  V30 1778 O 165.069 1.56682 0.935785 0
M  V30 1779 C 165.12 2.74946 -2.34706 0
M  V30 1780 O 164.841 2.36484 -3.68791 0
M  V30 1781 C 166.342 3.687 -2.46121 0
M  V30 1782 H 163.562 0.457964 -0.490418 0
M  V30 1783 H 166.106 0.858429 -1.8561 0
M  V30 1784 H 164.261 3.33937 -1.9638 0
M  V30 1785 H 164.675 3.17918 -4.17167 0
M  V30 1786 H 166.149 4.54145 -3.13777 0
M  V30 1787 H 166.626 4.13081 -1.49199 0
M  V30 1788 H 167.232 3.15613 -2.85076 0
M  V30 1789 N 165.547 1.27147 0.931209 0
M  V30 1790 C 166.793 1.13446 1.68101 0
M  V30 1791 C 167.126 -0.319628 1.91552 0
M  V30 1792 O 166.401 -1.23407 1.50336 0
M  V30 1793 C 166.684 1.91482 3.0497 0
M  V30 1794 C 166.537 3.44855 2.88782 0
M  V30 1795 C 167.856 1.71651 4.05246 0
M  V30 1796 H 164.975 0.413498 0.610072 0
M  V30 1797 H 167.617 1.56261 1.08086 0
M  V30 1798 H 165.767 1.55095 3.56199 0
M  V30 1799 H 167.439 3.9105 2.44698 0
M  V30 1800 H 165.682 3.71373 2.24198 0
M  V30 1801 H 166.353 3.94694 3.85902 0
M  V30 1802 H 168.829 2.0337 3.63015 0
M  V30 1803 H 167.705 2.28651 4.99009 0
M  V30 1804 H 167.966 0.663555 4.37092 0
M  V30 1805 N 167.025 -1.13721 1.09112 0
M  V30 1806 C 167.973 -2.21103 0.722219 0
M  V30 1807 C 168.967 -1.67147 -0.275374 0
M  V30 1808 O 170.173 -1.79477 -0.137176 0
M  V30 1809 H 166.548 -0.720445 0.215553 0
M  V30 1810 H 168.519 -2.49483 1.63709 0
M  V30 1811 C 167.268 -3.47352 0.15543 0
M  V30 1812 H 166.591 -3.89206 0.914246 0
M  V30 1813 H 168.031 -4.2395 -0.0647967 0
M  V30 1814 C 166.49 -3.1814 -1.10852 0
M  V30 1815 O 167.02 -3.36604 -2.19227 0
M  V30 1816 N 165.226 -2.72045 -1.02176 0
M  V30 1817 H 164.773 -2.57221 -0.139764 0
M  V30 1818 H 164.731 -2.52875 -1.8682 0
M  V30 1819 N 168.503 -0.877838 -1.30888 0
M  V30 1820 C 169.749 -0.493426 -1.96706 0
M  V30 1821 C 170.082 0.953504 -1.6918 0
M  V30 1822 O 169.357 1.67266 -0.992594 0
M  V30 1823 C 169.64 -0.760429 -3.51979 0
M  V30 1824 C 169.493 -2.25747 -3.89048 0
M  V30 1825 C 170.812 -0.232148 -4.39487 0
M  V30 1826 H 167.931 -0.180746 -0.714493 0
M  V30 1827 H 170.573 -1.10052 -1.54882 0
M  V30 1828 H 168.723 -0.243715 -3.87735 0
M  V30 1829 H 170.395 -2.84204 -3.63354 0
M  V30 1830 H 168.638 -2.72694 -3.37373 0
M  V30 1831 H 169.309 -2.39491 -4.97341 0
M  V30 1832 H 171.785 -0.674314 -4.106 0
M  V30 1833 H 170.661 -0.448355 -5.47066 0
M  V30 1834 H 170.922 0.866297 -4.33529 0
M  V30 1835 N 169.982 1.44106 -0.638065 0
M  V30 1836 C 170.892 2.34513 0.0637334 0
M  V30 1837 C 171.908 1.53018 0.828346 0
M  V30 1838 O 173.084 1.85723 0.779036 0
M  V30 1839 C 170.149 3.31095 1.02844 0
M  V30 1840 C 169.21 4.28497 0.26244 0
M  V30 1841 C 168.443 5.20465 1.1812 0
M  V30 1842 O 168.666 5.16514 2.42011 0
M  V30 1843 O 167.6 5.98251 0.661774 0
M  V30 1844 H 171.426 2.95989 -0.68003 0
M  V30 1845 H 169.011 1.43994 -0.398252 0
M  V30 1846 H 170.893 3.90526 1.58327 0
M  V30 1847 H 169.568 2.72144 1.7527 0
M  V30 1848 H 168.475 3.72592 -0.335602 0
M  V30 1849 H 169.808 4.90388 -0.421936 0
M  V30 1850 N 171.46 0.379036 1.52974 0
M  V30 1851 C 172.708 -0.206014 2.01047 0
M  V30 1852 C 173.029 -1.48175 1.26765 0
M  V30 1853 O 172.299 -1.92085 0.384743 0
M  V30 1854 H 170.879 -0.0791184 0.742798 0
M  V30 1855 H 173.541 0.508366 1.88153 0
M  V30 1856 H 172.637 -0.423501 3.09213 0
M  V30 1857 N 172.938 -1.57226 0.108567 0
M  V30 1858 C 174.163 -1.99604 -0.563303 0
M  V30 1859 C 174.588 -0.987563 -1.6009 0
M  V30 1860 O 173.946 0.0421687 -1.81251 0
M  V30 1861 C 173.994 -3.40902 -1.17552 0
M  V30 1862 O 173.098 -3.42896 -2.2912 0
M  V30 1863 H 172.439 -0.648704 -0.1417 0
M  V30 1864 H 174.969 -2.03679 0.193961 0
M  V30 1865 H 174.979 -3.78886 -1.51357 0
M  V30 1866 H 173.654 -4.1382 -0.415445 0
M  V30 1867 H 172.231 -3.1672 -1.96832 0
M  V30 1868 N 174.416 0.165178 -1.56732 0
M  V30 1869 C 175.664 0.879068 -1.8198 0
M  V30 1870 C 175.985 1.82514 -0.686561 0
M  V30 1871 O 175.255 1.93694 0.293146 0
M  V30 1872 H 173.835 0.327608 -0.671329 0
M  V30 1873 H 176.497 0.163526 -1.94213 0
M  V30 1874 H 175.593 1.45228 -2.76252 0
M  V30 1875 N 175.894 1.51508 0.433938 0
M  V30 1876 C 176.804 1.75917 1.5521 0
M  V30 1877 C 177.82 0.643545 1.61662 0
M  V30 1878 O 178.996 0.926183 1.7884 0
M  V30 1879 C 176.061 1.88213 2.91164 0
M  V30 1880 C 175.122 3.12074 2.94802 0
M  V30 1881 C 174.355 3.23774 4.24271 0
M  V30 1882 O 174.578 2.4133 5.16833 0
M  V30 1883 O 173.512 4.16774 4.34262 0
M  V30 1884 H 177.338 2.70777 1.37527 0
M  V30 1885 H 174.923 1.36051 0.617293 0
M  V30 1886 H 176.805 1.98267 3.71845 0
M  V30 1887 H 175.48 0.965413 3.08968 0
M  V30 1888 H 174.387 3.07497 2.13065 0
M  V30 1889 H 175.72 4.03446 2.81943 0
M  V30 1890 N 177.372 -0.689602 1.41712 0
M  V30 1891 C 178.302 -1.81577 1.46806 0
M  V30 1892 C 179.283 -1.66945 0.326105 0
M  V30 1893 O 180.468 -1.86588 0.538377 0
M  V30 1894 C 177.598 -3.19762 1.35535 0
M  V30 1895 C 176.552 -3.49107 2.47605 0
M  V30 1896 C 175.878 -4.86711 2.21397 0
M  V30 1897 C 177.178 -3.47483 3.89939 0
M  V30 1898 H 178.872 -1.7757 2.41058 0
M  V30 1899 H 176.418 -0.852887 1.16025 0
M  V30 1900 H 178.371 -3.98263 1.3771 0
M  V30 1901 H 177.095 -3.24409 0.377708 0
M  V30 1902 H 175.754 -2.72959 2.44722 0
M  V30 1903 H 175.402 -4.8799 1.21961 0
M  V30 1904 H 175.102 -5.0731 2.96497 0
M  V30 1905 H 176.626 -5.67515 2.25297 0
M  V30 1906 H 178.04 -4.1598 3.94505 0
M  V30 1907 H 176.437 -3.79615 4.64771 0
M  V30 1908 H 177.507 -2.46341 4.17665 0
M  V30 1909 N 178.85 -1.27639 -0.924453 0
M  V30 1910 C 180.097 -1.14167 -1.67249 0
M  V30 1911 C 180.425 0.311863 -1.91984 0
M  V30 1912 O 179.68 1.24425 -1.51053 0
M  V30 1913 C 179.979 -1.87407 -3.04325 0
M  V30 1914 C 179.645 -3.37249 -2.99289 0
M  V30 1915 C 178.307 -3.7812 -2.97622 0
M  V30 1916 C 180.659 -4.32845 -2.90336 0
M  V30 1917 C 177.987 -5.12944 -2.8479 0
M  V30 1918 C 180.339 -5.6773 -2.79045 0
M  V30 1919 C 179.003 -6.07889 -2.7573 0
M  V30 1920 H 178.273 -0.417766 -0.612007 0
M  V30 1921 H 180.92 -1.58286 -1.07786 0
M  V30 1922 H 179.225 -1.35805 -3.67511 0
M  V30 1923 H 180.922 -1.74408 -3.61086 0
M  V30 1924 H 177.512 -3.04748 -3.01374 0
M  V30 1925 H 181.696 -4.02239 -2.90719 0
M  V30 1926 H 176.952 -5.432 -2.80612 0
M  V30 1927 H 181.126 -6.41472 -2.71083 0
M  V30 1928 H 178.753 -7.12314 -2.65544 0
M  V30 1929 N 180.328 1.1314 -1.09713 0
M  V30 1930 C 181.744 1.36477 -0.827423 0
M  V30 1931 C 181.944 1.93654 0.556817 0
M  V30 1932 O 181 2.15791 1.31112 0
M  V30 1933 C 182.313 2.31334 -1.92106 0
M  V30 1934 C 183.861 2.44943 -1.94864 0
M  V30 1935 C 184.336 3.4311 -3.0338 0
M  V30 1936 N 185.827 3.50662 -3.02639 0
M  V30 1937 C 186.562 4.2651 -3.83246 0
M  V30 1938 N 186.058 5.05485 -4.73768 0
M  V30 1939 N 187.851 4.2184 -3.71493 0
M  V30 1940 H 180.002 0.743807 -1.9895 0
M  V30 1941 H 182.265 0.389823 -0.864143 0
M  V30 1942 H 181.971 1.96483 -2.91698 0
M  V30 1943 H 181.845 3.31381 -1.80184 0
M  V30 1944 H 184.232 2.79079 -0.959099 0
M  V30 1945 H 184.313 1.4481 -2.10864 0
M  V30 1946 H 183.957 3.09704 -4.02549 0
M  V30 1947 H 183.887 4.43055 -2.84622 0
M  V30 1948 H 186.378 2.94315 -2.37039 0
M  V30 1949 H 186.691 5.60675 -5.3185 0
M  V30 1950 H 185.036 5.04708 -4.77802 0
M  V30 1951 H 188.227 3.5922 -3.00131 0
M  V30 1952 H 188.4 4.80697 -4.3455 0
M  V30 1953 N 181.806 0.884767 1.30421 0
M  V30 1954 C 183.052 0.513218 1.96819 0
M  V30 1955 C 183.407 -0.927347 1.68577 0
M  V30 1956 O 182.7 -1.64644 0.979941 0
M  V30 1957 C 182.894 0.724318 3.49983 0
M  V30 1958 C 182.723 2.18385 3.93113 0
M  V30 1959 C 181.493 2.82839 4.18725 0
M  V30 1960 C 183.691 3.15763 4.05953 0
M  V30 1961 N 181.673 4.1939 4.48314 0
M  V30 1962 C 183.044 4.37387 4.39423 0
M  V30 1963 C 185.099 3.11555 3.88379 0
M  V30 1964 C 183.802 5.55343 4.5715 0
M  V30 1965 C 185.828 4.28782 4.07308 0
M  V30 1966 C 185.19 5.49172 4.41123 0
M  V30 1967 H 181.289 0.237123 0.745182 0
M  V30 1968 H 183.873 1.14246 1.57658 0
M  V30 1969 H 182.044 0.124565 3.882 0
M  V30 1970 H 183.776 0.31969 4.03435 0
M  V30 1971 H 180.531 2.33708 4.11919 0
M  V30 1972 H 180.955 4.89911 4.67243 0
M  V30 1973 H 185.597 2.19576 3.61312 0
M  V30 1974 H 183.315 6.47826 4.8306 0
M  V30 1975 H 186.901 4.26995 3.95179 0
M  V30 1976 H 185.781 6.38371 4.55469 0
M  V30 1977 N 183.284 -1.43765 0.645699 0
M  V30 1978 C 184.232 -2.32516 -0.0624849 0
M  V30 1979 C 185.226 -1.48183 -0.820855 0
M  V30 1980 O 186.432 -1.64439 -0.732106 0
M  V30 1981 H 182.807 -0.750989 -0.0389864 0
M  V30 1982 H 184.778 -2.89979 0.703892 0
M  V30 1983 C 183.527 -3.32389 -1.02044 0
M  V30 1984 H 182.85 -3.97301 -0.446312 0
M  V30 1985 H 184.29 -3.97138 -1.48517 0
M  V30 1986 C 182.749 -2.62416 -2.11281 0
M  V30 1987 O 183.279 -2.434 -3.19561 0
M  V30 1988 N 181.485 -2.21913 -1.87624 0
M  V30 1989 H 181.032 -2.37578 -0.995703 0
M  V30 1990 H 180.99 -1.75424 -2.6091 0
M  V30 1991 N 184.763 -0.387143 -1.52771 0
M  V30 1992 C 186.009 0.196025 -2.0185 0
M  V30 1993 C 186.342 1.46641 -1.27319 0
M  V30 1994 O 185.617 1.90889 -0.373032 0
M  V30 1995 C 185.9 0.466136 -3.5707 0
M  V30 1996 C 185.753 -0.819385 -4.42274 0
M  V30 1997 C 187.072 1.25768 -4.21747 0
M  V30 1998 H 184.191 0.0697708 -0.73369 0
M  V30 1999 H 186.833 -0.516286 -1.82851 0
M  V30 2000 H 184.983 1.07293 -3.7339 0
M  V30 2001 H 186.655 -1.4563 -4.37709 0
M  V30 2002 H 184.898 -1.43517 -4.09372 0
M  V30 2003 H 185.569 -0.585065 -5.48891 0
M  V30 2004 H 188.045 0.744167 -4.09391 0
M  V30 2005 H 186.921 1.41541 -5.30337 0
M  V30 2006 H 187.182 2.27228 -3.79236 0
M  V30 2007 N 186.241 1.57166 -0.116904 0
M  V30 2008 C 187.466 1.999 0.55271 0
M  V30 2009 C 187.891 0.996039 1.59564 0
M  V30 2010 O 187.249 -0.032556 1.81271 0
M  V30 2011 C 187.297 3.4152 1.15742 0
M  V30 2012 O 186.401 3.44106 2.27299 0
M  V30 2013 H 185.742 0.649447 0.138258 0
M  V30 2014 H 188.272 2.03573 -0.204759 0
M  V30 2015 H 188.282 3.79684 1.49346 0
M  V30 2016 H 186.957 4.14034 0.393493 0
M  V30 2017 H 185.534 3.17759 1.9515 0
M  V30 2018 N 187.719 -0.156864 1.56817 0
M  V30 2019 C 188.996 -0.899244 1.73704 0
M  V30 2020 C 189.376 -1.99771 0.682254 0
M  V30 2021 O 188.724 -2.26515 -0.300522 0
M  V30 2022 C 188.934 -1.45075 3.17418 0
M  V30 2023 C 190.282 -1.91802 3.7881 0
M  V30 2024 O 191.306 -1.54838 3.20786 0
M  V30 2025 O 190.165 -2.5994 4.80722 0
M  V30 2026 H 187.259 -0.424267 0.709878 0
M  V30 2027 H 189.805 -0.143561 1.69092 0
M  V30 2028 H 188.577 -0.660846 3.85679 0
M  V30 2029 H 188.2 -2.27021 3.26416 0
M  V30 2030 N 189.197 -1.51736 -0.425897 0
M  V30 2031 C 190.127 -1.76827 -1.52494 0
M  V30 2032 C 191.108 -0.618524 -1.58456 0
M  V30 2033 O 192.293 -0.862416 -1.74 0
M  V30 2034 C 189.423 -1.90374 -2.90474 0
M  V30 2035 C 188.377 -3.0588 -2.99369 0
M  V30 2036 C 187.703 -3.04625 -4.3944 0
M  V30 2037 C 189.003 -4.45644 -2.72394 0
M  V30 2038 H 190.697 -2.68855 -1.31748 0
M  V30 2039 H 188.243 -1.29372 -0.632362 0
M  V30 2040 H 190.196 -2.0651 -3.6733 0
M  V30 2041 H 188.92 -0.95004 -3.12477 0
M  V30 2042 H 187.579 -2.89467 -2.24954 0
M  V30 2043 H 187.227 -2.0701 -4.58428 0
M  V30 2044 H 186.927 -3.82195 -4.46319 0
M  V30 2045 H 188.451 -3.22869 -5.18255 0
M  V30 2046 H 189.865 -4.62348 -3.38979 0
M  V30 2047 H 188.262 -5.25006 -2.9067 0
M  V30 2048 H 189.332 -4.54893 -1.67929 0
M  V30 2049 N 190.675 0.682077 -1.42076 0
M  V30 2050 C 191.923 1.4393 -1.41876 0
M  V30 2051 C 192.244 1.94971 -0.0335599 0
M  V30 2052 O 191.514 1.72591 0.926773 0
M  V30 2053 H 190.094 0.534085 -0.522267 0
M  V30 2054 H 192.756 0.806427 -1.77434 0
M  V30 2055 H 191.852 2.29588 -2.11414 0
M  V30 2056 N 192.153 1.28127 0.917671 0
M  V30 2057 C 193.401 1.14825 1.66312 0
M  V30 2058 C 193.722 -0.304379 1.9261 0
M  V30 2059 O 192.992 -1.21149 1.53947 0
M  V30 2060 H 191.572 0.421953 0.616413 0
M  V30 2061 H 194.234 1.608 1.10134 0
M  V30 2062 H 193.33 1.68489 2.62712 0
M  V30 2063 N 193.631 -1.12557 1.10312 0
M  V30 2064 C 194.561 -2.20341 0.772798 0
M  V30 2065 C 195.542 -1.68198 -0.25365 0
M  V30 2066 O 196.727 -1.93831 -0.119699 0
M  V30 2067 C 193.857 -3.46709 0.202443 0
M  V30 2068 C 192.811 -4.11996 1.15943 0
M  V30 2069 C 192.137 -5.328 0.450345 0
M  V30 2070 C 193.437 -4.5828 2.50552 0
M  V30 2071 H 195.131 -2.48229 1.674 0
M  V30 2072 H 192.677 -1.19308 0.806326 0
M  V30 2073 H 194.63 -4.2138 -0.0407752 0
M  V30 2074 H 193.354 -3.18245 -0.734001 0
M  V30 2075 H 192.013 -3.39305 1.38808 0
M  V30 2076 H 191.661 -5.00602 -0.490531 0
M  V30 2077 H 191.361 -5.7743 1.08851 0
M  V30 2078 H 192.885 -6.10219 0.215642 0
M  V30 2079 H 194.299 -5.2433 2.31843 0
M  V30 2080 H 192.696 -5.13683 3.10242 0
M  V30 2081 H 193.766 -3.72329 3.10643 0
M  V30 2082 N 195.109 -0.891671 -1.2995 0
M  V30 2083 C 196.357 -0.512486 -1.95494 0
M  V30 2084 C 196.678 0.942776 -1.70695 0
M  V30 2085 O 195.948 1.66374 -1.03424 0
M  V30 2086 H 194.528 -0.186533 -0.723336 0
M  V30 2087 H 197.19 -1.13621 -1.58355 0
M  V30 2088 H 196.286 -0.688342 -3.04415 0
M  V30 2089 N 196.587 1.43421 -0.653314 0
M  V30 2090 C 197.827 2.03689 -0.170346 0
M  V30 2091 C 198.191 1.50427 1.19314 0
M  V30 2092 O 199.392 2.0234 1.76952 0
M  V30 2093 C 197.663 3.56946 -0.180183 0
M  V30 2094 S 199.222 4.38171 0.234925 0
M  V30 2095 H 196.04 0.707345 -0.0719976 0
M  V30 2096 H 198.642 1.75486 -0.86167 0
M  V30 2097 H 197.346 3.93212 -1.17526 0
M  V30 2098 H 196.877 3.89791 0.531675 0
M  V30 2099 H 198.892 4.73808 1.47378 0
M  V30 2100 N 198.065 0.39524 1.52563 0
M  V30 2101 C 199.313 -0.184678 2.01254 0
M  V30 2102 C 199.634 -1.46822 1.28329 0
M  V30 2103 O 198.904 -1.91666 0.405094 0
M  V30 2104 H 197.484 -0.0712355 0.743596 0
M  V30 2105 H 200.146 0.528293 1.87603 0
M  V30 2106 H 199.242 -0.390681 3.09645 0
M  V30 2107 N 199.544 -1.57102 0.125237 0
M  V30 2108 C 200.474 -2.18659 -0.819174 0
M  V30 2109 C 201.455 -1.12843 -1.27281 0
M  V30 2110 O 202.64 -1.41104 -1.33429 0
M  V30 2111 C 199.77 -2.79096 -2.06695 0
M  V30 2112 C 198.724 -3.90548 -1.75088 0
M  V30 2113 C 198.05 -4.37821 -3.06948 0
M  V30 2114 C 199.35 -5.12356 -1.01435 0
M  V30 2115 H 201.044 -2.9783 -0.306202 0
M  V30 2116 H 198.59 -1.4326 -0.145839 0
M  V30 2117 H 200.543 -3.2082 -2.73226 0
M  V30 2118 H 199.267 -1.97223 -2.60328 0
M  V30 2119 H 197.926 -3.49409 -1.10944 0
M  V30 2120 H 197.574 -3.52799 -3.58527 0
M  V30 2121 H 197.274 -5.12982 -2.86571 0
M  V30 2122 H 198.798 -4.822 -3.74587 0
M  V30 2123 H 200.212 -5.5106 -1.58132 0
M  V30 2124 H 198.609 -5.9314 -0.911319 0
M  V30 2125 H 199.679 -4.849 -0.00218681 0
M  V30 2126 N 201.022 0.148545 -1.56898 0
M  V30 2127 C 201.969 1.18345 -1.98149 0
M  V30 2128 C 202.939 1.42772 -0.848848 0
M  V30 2129 O 204.124 1.55132 -1.11079 0
M  V30 2130 C 201.264 2.51231 -2.36594 0
M  V30 2131 C 200.377 2.33991 -3.63142 0
M  V30 2132 C 199.512 3.59902 -3.90697 0
M  V30 2133 C 198.551 3.37692 -5.1052 0
M  V30 2134 N 197.688 4.5573 -5.34092 0
M  V30 2135 H 202.528 0.82467 -2.86362 0
M  V30 2136 H 200.065 0.395756 -1.41676 0
M  V30 2137 H 202.023 3.28713 -2.56912 0
M  V30 2138 H 200.653 2.85059 -1.51463 0
M  V30 2139 H 199.705 1.47572 -3.50609 0
M  V30 2140 H 201.017 2.13539 -4.5078 0
M  V30 2141 H 200.171 4.45813 -4.11505 0
M  V30 2142 H 198.91 3.83357 -3.01477 0
M  V30 2143 H 197.915 2.5017 -4.89587 0
M  V30 2144 H 199.14 3.15637 -6.0129 0
M  V30 2145 H 197.086 4.79361 -4.47827 0
M  V30 2146 H 197.003 4.38274 -6.15996 0
M  V30 2147 H 198.271 5.42858 -5.59397 0
M  V30 2148 N 202.5 1.5196 0.417844 0
M  V30 2149 C 203.448 1.75278 1.52907 0
M  V30 2150 C 204.442 0.619611 1.57662 0
M  V30 2151 O 205.648 0.801457 1.61173 0
M  V30 2152 H 202.023 0.554141 0.508362 0
M  V30 2153 H 203.994 2.68389 1.30422 0
M  V30 2154 C 202.743 1.91262 2.90369 0
M  V30 2155 H 202.066 2.77872 2.8745 0
M  V30 2156 H 203.506 2.11581 3.67436 0
M  V30 2157 C 201.965 0.677431 3.30019 0
M  V30 2158 O 202.495 -0.158799 4.01386 0
M  V30 2159 N 200.701 0.515851 2.85985 0
M  V30 2160 H 200.248 1.19744 2.28077 0
M  V30 2161 H 200.206 -0.309315 3.12875 0
M  V30 2162 N 203.978 -0.674533 1.42435 0
M  V30 2163 C 205.394 -0.98769 1.25367 0
M  V30 2164 C 205.594 -2.00879 0.158044 0
M  V30 2165 O 204.65 -2.48075 -0.470633 0
M  V30 2166 C 205.963 -1.49224 2.6106 0
M  V30 2167 C 207.511 -1.61 2.68417 0
M  V30 2168 C 207.986 -2.14852 4.04478 0
M  V30 2169 N 209.477 -2.22185 4.06434 0
M  V30 2170 C 210.212 -2.64928 5.08528 0
M  V30 2171 N 209.708 -3.07121 6.21006 0
M  V30 2172 N 211.501 -2.64679 4.95885 0
M  V30 2173 H 203.652 0.00152503 2.124 0
M  V30 2174 H 205.915 -0.0618434 0.945981 0
M  V30 2175 H 205.621 -0.816453 3.42092 0
M  V30 2176 H 205.495 -2.47094 2.84999 0
M  V30 2177 H 207.882 -2.27686 1.87732 0
M  V30 2178 H 207.963 -0.616195 2.48267 0
M  V30 2179 H 207.607 -1.48775 4.85622 0
M  V30 2180 H 207.537 -3.15024 4.2198 0
M  V30 2181 H 210.028 -1.92435 3.25234 0
M  V30 2182 H 210.341 -3.38423 6.94759 0
M  V30 2183 H 208.686 -3.04978 6.24511 0
M  V30 2184 H 211.877 -2.31078 4.07088 0
M  V30 2185 H 212.05 -2.9767 5.75584 0
M  V30 2186 N 205.456 -1.28612 -0.910864 0
M  V30 2187 C 206.681 -1.1891 -1.69927 0
M  V30 2188 C 207.106 0.248372 -1.86453 0
M  V30 2189 O 206.464 1.17961 -1.37676 0
M  V30 2190 C 206.512 -1.89578 -3.06745 0
M  V30 2191 O 205.616 -1.20521 -3.94396 0
M  V30 2192 H 204.957 -0.412632 -0.520222 0
M  V30 2193 H 207.487 -1.69985 -1.1387 0
M  V30 2194 H 207.497 -1.97597 -3.56958 0
M  V30 2195 H 206.172 -2.94136 -2.94035 0
M  V30 2196 H 204.749 -1.20684 -3.52831 0
M  V30 2197 N 206.934 1.1197 -1.10907 0
M  V30 2198 C 208.159 1.87942 -0.877064 0
M  V30 2199 C 208.584 1.79341 0.567314 0
M  V30 2200 O 207.942 1.15184 1.40009 0
M  V30 2201 C 207.99 3.34926 -1.33629 0
M  V30 2202 O 207.094 4.09303 -0.504447 0
M  V30 2203 H 206.435 0.583785 -0.316371 0
M  V30 2204 H 208.965 1.4157 -1.47712 0
M  V30 2205 H 208.975 3.8577 -1.32837 0
M  V30 2206 H 207.65 3.40504 -2.3881 0
M  V30 2207 H 206.227 3.68393 -0.577993 0
M  V30 2208 N 208.412 0.89855 1.29475 0
M  V30 2209 C 209.322 0.379974 2.31502 0
M  V30 2210 C 210.338 -0.524695 1.659 0
M  V30 2211 O 211.514 -0.414551 1.97087 0
M  V30 2212 C 208.579 -0.385138 3.44554 0
M  V30 2213 C 207.64 0.550914 4.2575 0
M  V30 2214 C 206.873 -0.177778 5.33404 0
M  V30 2215 O 207.096 -1.40189 5.52904 0
M  V30 2216 O 206.03 0.479106 5.9999 0
M  V30 2217 H 209.856 1.22639 2.77837 0
M  V30 2218 H 207.441 0.662834 1.33891 0
M  V30 2219 H 209.323 -0.817841 4.13388 0
M  V30 2220 H 207.998 -1.20763 3.0033 0
M  V30 2221 H 206.905 1.03271 3.59564 0
M  V30 2222 H 208.238 1.33979 4.73614 0
M  V30 2223 N 209.89 -1.43072 0.660911 0
M  V30 2224 C 211.138 -2.01323 0.177094 0
M  V30 2225 C 211.459 -1.5245 -1.2159 0
M  V30 2226 O 210.729 -0.740322 -1.81373 0
M  V30 2227 H 209.309 -0.744382 0.0624804 0
M  V30 2228 H 211.971 -1.75179 0.854305 0
M  V30 2229 H 211.067 -3.11649 0.167641 0
M  V30 2230 N 211.368 -0.403325 -1.52352 0
M  V30 2231 C 212.779 0.0675782 -1.86578 0
M  V30 2232 C 213.13 1.44941 -1.32236 0
M  V30 2233 O 212.255 2.06112 -0.659307 0
M  V30 2234 C 212.85 0.129404 -3.38553 0
M  V30 2235 C 211.409 0.544629 -3.72439 0
M  V30 2236 C 210.556 -0.284551 -2.75836 0
M  V30 2237 H 213.507 -0.620631 -1.46061 0
M  V30 2238 H 213.528 0.94581 -3.68558 0
M  V30 2239 H 213.04 -0.87645 -3.78074 0
M  V30 2240 H 211.141 1.55734 -3.38493 0
M  V30 2241 H 211.254 0.293046 -4.78203 0
M  V30 2242 H 209.618 0.252258 -2.53448 0
M  V30 2243 H 210.401 -1.28865 -3.18196 0
M  V30 2244 N 212.846 1.57033 -0.133567 0
M  V30 2245 C 214.071 2.00475 0.531477 0
M  V30 2246 C 214.496 1.01291 1.58499 0
M  V30 2247 O 213.854 -0.0133279 1.81295 0
M  V30 2248 C 213.902 3.42729 1.12113 0
M  V30 2249 O 213.006 3.46498 2.23636 0
M  V30 2250 H 212.347 0.650876 0.131362 0
M  V30 2251 H 214.877 2.03344 -0.22634 0
M  V30 2252 H 214.887 3.81246 1.4531 0
M  V30 2253 H 213.562 4.14428 0.349557 0
M  V30 2254 H 212.139 3.19811 1.91769 0
M  V30 2255 N 214.325 -0.140222 1.56975 0
M  V30 2256 C 215.55 -0.870414 1.88251 0
M  V30 2257 C 215.975 -1.73637 0.723312 0
M  V30 2258 O 215.333 -1.78329 -0.32689 0
M  V30 2259 C 215.381 -1.69737 3.18154 0
M  V30 2260 O 214.485 -2.80229 3.02565 0
M  V30 2261 H 213.826 -0.242025 0.61832 0
M  V30 2262 H 216.356 -0.128999 2.04193 0
M  V30 2263 H 216.366 -2.09099 3.50345 0
M  V30 2264 H 215.041 -1.06152 4.02125 0
M  V30 2265 H 213.618 -2.44224 2.81796 0
M  V30 2266 N 215.803 -1.52179 -0.40978 0
M  V30 2267 C 217.214 -1.58377 -0.988615 0
M  V30 2268 C 217.565 -0.423879 -1.91566 0
M  V30 2269 O 216.69 0.455844 -2.11544 0
M  V30 2270 C 217.285 -2.87044 -1.79976 0
M  V30 2271 C 215.844 -2.95722 -2.32863 0
M  V30 2272 C 214.991 -2.53309 -1.12828 0
M  V30 2273 H 217.942 -1.57558 -0.190039 0
M  V30 2274 H 217.963 -2.7236 -2.65707 0
M  V30 2275 H 217.475 -3.71444 -1.12478 0
M  V30 2276 H 215.576 -2.15814 -3.03735 0
M  V30 2277 H 215.689 -3.99951 -2.63773 0
M  V30 2278 H 214.053 -2.07142 -1.48204 0
M  V30 2279 H 214.836 -3.40082 -0.46897 0
M  V30 2280 N 217.281 0.66697 -1.42791 0
M  V30 2281 C 218.506 1.46004 -1.47301 0
M  V30 2282 C 218.931 1.87894 -0.0880317 0
M  V30 2283 O 218.289 1.56502 0.915253 0
M  V30 2284 C 218.337 2.68031 -2.41229 0
M  V30 2285 O 217.441 3.6659 -1.88906 0
M  V30 2286 H 216.782 0.43832 -0.49877 0
M  V30 2287 H 219.312 0.817391 -1.87563 0
M  V30 2288 H 219.322 3.1601 -2.58073 0
M  V30 2289 H 217.997 2.36883 -3.41847 0
M  V30 2290 H 216.574 3.25661 -1.81656 0
M  V30 2291 N 218.759 1.29093 0.90403 0
M  V30 2292 C 220.007 1.16583 1.65085 0
M  V30 2293 C 220.328 -0.283933 1.92922 0
M  V30 2294 O 219.598 -1.19509 1.55224 0
M  V30 2295 H 218.178 0.428467 0.611903 0
M  V30 2296 H 220.84 1.61959 1.08422 0
M  V30 2297 H 219.936 1.71266 2.6091 0
M  V30 2298 N 220.237 -1.11381 1.11499 0
M  V30 2299 C 221.184 -2.17439 0.773887 0
M  V30 2300 C 222.154 -1.64132 -0.254899 0
M  V30 2301 O 223.339 -1.90345 -0.13168 0
M  V30 2302 C 220.479 -3.44373 0.223917 0
M  V30 2303 C 219.592 -4.1168 1.30934 0
M  V30 2304 C 218.727 -5.263 0.71984 0
M  V30 2305 C 217.766 -5.85493 1.78507 0
M  V30 2306 N 216.903 -6.91507 1.21502 0
M  V30 2307 H 221.743 -2.45962 1.68246 0
M  V30 2308 H 219.28 -1.20744 0.840191 0
M  V30 2309 H 221.238 -4.17047 -0.112921 0
M  V30 2310 H 219.868 -3.16232 -0.647851 0
M  V30 2311 H 218.92 -3.37073 1.76312 0
M  V30 2312 H 220.232 -4.51729 2.11524 0
M  V30 2313 H 219.386 -6.05785 0.333094 0
M  V30 2314 H 218.125 -4.87559 -0.117377 0
M  V30 2315 H 217.13 -5.04686 2.18111 0
M  V30 2316 H 218.355 -6.26301 2.62533 0
M  V30 2317 H 216.301 -6.54783 0.399455 0
M  V30 2318 H 216.218 -7.30214 1.95763 0
M  V30 2319 H 217.486 -7.74795 0.855181 0
M  V30 2320 N 221.715 -0.905404 -1.28997 0
M  V30 2321 C 222.645 -0.404212 -2.29975 0
M  V30 2322 C 223.626 0.523784 -1.61835 0
M  V30 2323 O 224.811 0.433298 -1.89304 0
M  V30 2324 C 221.941 0.364042 -3.45387 0
M  V30 2325 C 220.895 -0.474048 -4.25367 0
M  V30 2326 C 220.221 0.422045 -5.33032 0
M  V30 2327 C 221.521 -1.72696 -4.92923 0
M  V30 2328 H 223.215 -1.24807 -2.72146 0
M  V30 2329 H 220.761 -0.601585 -1.30832 0
M  V30 2330 H 222.714 0.725447 -4.15109 0
M  V30 2331 H 221.438 1.24174 -3.02074 0
M  V30 2332 H 220.097 -0.81786 -3.57361 0
M  V30 2333 H 219.745 1.29804 -4.85963 0
M  V30 2334 H 219.445 -0.135057 -5.87445 0
M  V30 2335 H 220.969 0.779517 -6.05604 0
M  V30 2336 H 222.383 -1.43495 -5.55051 0
M  V30 2337 H 220.78 -2.22582 -5.57295 0
M  V30 2338 H 221.85 -2.45964 -4.17887 0
M  V30 2339 N 223.193 1.4272 -0.668489 0
M  V30 2340 C 224.126 2.28111 0.0637898 0
M  V30 2341 C 225.104 1.40705 0.814912 0
M  V30 2342 O 226.288 1.70146 0.81134 0
M  V30 2343 C 223.415 3.20429 1.0974 0
M  V30 2344 C 222.461 4.24197 0.442579 0
M  V30 2345 S 223.294 5.29563 -0.795173 0
M  V30 2346 C 224.45 6.25449 0.237516 0
M  V30 2347 H 224.683 2.8987 -0.660521 0
M  V30 2348 H 222.216 1.47456 -0.457821 0
M  V30 2349 H 224.174 3.74158 1.68868 0
M  V30 2350 H 222.835 2.57818 1.79411 0
M  V30 2351 H 222.028 4.88954 1.22227 0
M  V30 2352 H 221.63 3.73925 -0.0749554 0
M  V30 2353 H 223.922 6.68524 1.09915 0
M  V30 2354 H 224.865 7.07104 -0.375421 0
M  V30 2355 H 225.273 5.61511 0.580167 0
M  V30 2356 N 224.671 0.411399 1.52136 0
M  V30 2357 C 225.896 -0.165538 2.06738 0
M  V30 2358 C 226.321 -1.379 1.27926 0
M  V30 2359 O 225.679 -1.78628 0.310114 0
M  V30 2360 C 225.727 -0.492124 3.57226 0
M  V30 2361 O 224.831 -1.58276 3.80818 0
M  V30 2362 H 224.172 -0.0132132 0.663869 0
M  V30 2363 H 226.702 0.585253 1.96051 0
M  V30 2364 H 226.712 -0.750104 4.01045 0
M  V30 2365 H 225.387 0.394922 4.14021 0
M  V30 2366 H 223.964 -1.31677 3.48877 0
M  V30 2367 N 226.149 -1.5696 0.141893 0
M  V30 2368 C 227.56 -1.82797 -0.379776 0
M  V30 2369 C 227.911 -1.06033 -1.6508 0
M  V30 2370 O 227.036 -0.304011 -2.14254 0
M  V30 2371 C 227.631 -3.31578 -0.695802 0
M  V30 2372 C 226.19 -3.58014 -1.16201 0
M  V30 2373 C 225.337 -2.76699 -0.182455 0
M  V30 2374 H 228.288 -1.54406 0.366675 0
M  V30 2375 H 228.309 -3.47454 -1.55099 0
M  V30 2376 H 227.821 -3.87421 0.229449 0
M  V30 2377 H 225.922 -3.07553 -2.10338 0
M  V30 2378 H 226.035 -4.66501 -1.09151 0
M  V30 2379 H 224.399 -2.45618 -0.674072 0
M  V30 2380 H 225.182 -3.35311 0.736297 0
M  V30 2381 N 227.627 0.131896 -1.57047 0
M  V30 2382 C 228.574 1.16236 -1.99393 0
M  V30 2383 C 229.544 1.41863 -0.863943 0
M  V30 2384 O 230.729 1.53946 -1.12718 0
M  V30 2385 C 227.869 2.48708 -2.39245 0
M  V30 2386 C 226.982 2.30127 -3.65603 0
M  V30 2387 C 226.117 3.55738 -3.94492 0
M  V30 2388 C 225.156 3.32259 -5.14073 0
M  V30 2389 N 224.293 4.50039 -5.38896 0
M  V30 2390 H 229.133 0.794251 -2.87221 0
M  V30 2391 H 226.67 0.380707 -1.42088 0
M  V30 2392 H 228.628 3.25969 -2.60384 0
M  V30 2393 H 227.258 2.83437 -1.54478 0
M  V30 2394 H 226.31 1.43845 -3.52154 0
M  V30 2395 H 227.622 2.08746 -4.5302 0
M  V30 2396 H 226.776 4.41423 -4.1621 0
M  V30 2397 H 225.515 3.80138 -3.05526 0
M  V30 2398 H 224.52 2.44963 -4.92212 0
M  V30 2399 H 225.745 3.09242 -6.04604 0
M  V30 2400 H 223.691 4.74584 -4.52886 0
M  V30 2401 H 223.608 4.31716 -6.2061 0
M  V30 2402 H 224.876 5.36895 -5.65123 0
M  V30 2403 N 229.106 1.52395 0.401703 0
M  V30 2404 C 230.036 1.79231 1.49661 0
M  V30 2405 C 231.017 0.643654 1.57452 0
M  V30 2406 O 232.202 0.889989 1.72606 0
M  V30 2407 C 229.332 1.94971 2.87409 0
M  V30 2408 C 228.286 3.10604 2.94465 0
M  V30 2409 C 227.612 3.11577 4.34538 0
M  V30 2410 C 228.912 4.49921 2.6527 0
M  V30 2411 H 230.606 2.70917 1.27454 0
M  V30 2412 H 228.152 1.30362 0.6117 0
M  V30 2413 H 230.105 2.12328 3.63999 0
M  V30 2414 H 228.829 0.999632 3.10926 0
M  V30 2415 H 227.488 2.93009 2.20321 0
M  V30 2416 H 227.136 2.14277 4.55076 0
M  V30 2417 H 226.836 3.89247 4.40183 0
M  V30 2418 H 228.36 3.31073 5.13053 0
M  V30 2419 H 229.774 4.67683 3.31581 0
M  V30 2420 H 228.171 5.29564 2.82281 0
M  V30 2421 H 229.241 4.57507 1.60671 0
M  V30 2422 N 230.584 -0.659388 1.43143 0
M  V30 2423 C 231.814 -1.44513 1.47646 0
M  V30 2424 C 232.222 -1.88981 0.0910095 0
M  V30 2425 O 231.565 -1.59702 -0.907789 0
M  V30 2426 C 231.627 -2.71663 2.35456 0
M  V30 2427 C 231.291 -2.49175 3.83094 0
M  V30 2428 C 232.288 -2.1279 4.74359 0
M  V30 2429 C 229.973 -2.63691 4.27519 0
M  V30 2430 C 231.967 -1.9121 6.08044 0
M  V30 2431 C 229.654 -2.41726 5.61259 0
M  V30 2432 C 230.652 -2.0554 6.51339 0
M  V30 2433 O 230.34 -1.838 7.82606 0
M  V30 2434 H 230.072 -0.45064 0.503884 0
M  V30 2435 H 232.626 -0.816248 1.88485 0
M  V30 2436 H 230.856 -3.37089 1.89493 0
M  V30 2437 H 232.545 -3.33595 2.31235 0
M  V30 2438 H 233.311 -2.01157 4.41317 0
M  V30 2439 H 229.19 -2.90832 3.57684 0
M  V30 2440 H 232.734 -1.62889 6.78316 0
M  V30 2441 H 228.631 -2.52959 5.9387 0
M  V30 2442 H 229.399 -1.98275 7.94122 0
M  V30 2443 N 232.062 -1.29571 -0.897171 0
M  V30 2444 C 233.308 -1.17863 -1.65034 0
M  V30 2445 C 233.641 0.268729 -1.92332 0
M  V30 2446 O 232.916 1.19378 -1.53555 0
M  V30 2447 C 233.199 -1.995 -2.99786 0
M  V30 2448 C 233.052 -3.5239 -2.79538 0
M  V30 2449 C 234.371 -1.82335 -4.00552 0
M  V30 2450 H 231.49 -0.429528 -0.598895 0
M  V30 2451 H 234.132 -1.59072 -1.03905 0
M  V30 2452 H 232.282 -1.64485 -3.51962 0
M  V30 2453 H 233.954 -3.97401 -2.34244 0
M  V30 2454 H 232.197 -3.77187 -2.14273 0
M  V30 2455 H 232.868 -4.04787 -3.75302 0
M  V30 2456 H 235.344 -2.12924 -3.57495 0
M  V30 2457 H 234.22 -2.41801 -4.92771 0
M  V30 2458 H 234.481 -0.779209 -4.35179 0
M  V30 2459 N 233.54 1.10788 -1.12088 0
M  V30 2460 C 234.786 1.8313 -0.885148 0
M  V30 2461 C 235.141 1.8336 0.582839 0
M  V30 2462 O 234.434 1.28062 1.42516 0
M  V30 2463 C 234.628 3.29294 -1.38926 0
M  V30 2464 C 234.457 3.43302 -2.90472 0
M  V30 2465 C 233.227 3.55928 -3.58669 0
M  V30 2466 C 235.425 3.37014 -3.88492 0
M  V30 2467 N 233.407 3.58475 -4.98366 0
M  V30 2468 C 234.778 3.46263 -5.14298 0
M  V30 2469 C 236.833 3.20589 -3.80955 0
M  V30 2470 C 235.536 3.4078 -6.33452 0
M  V30 2471 C 237.562 3.16427 -4.99628 0
M  V30 2472 C 236.924 3.26253 -6.2429 0
M  V30 2473 H 233.023 0.685054 -0.377128 0
M  V30 2474 H 235.607 1.3251 -1.4265 0
M  V30 2475 H 233.778 3.78416 -0.874999 0
M  V30 2476 H 235.51 3.89578 -1.09596 0
M  V30 2477 H 232.265 3.58779 -3.09151 0
M  V30 2478 H 232.689 3.6337 -5.71219 0
M  V30 2479 H 237.331 3.11873 -2.85474 0
M  V30 2480 H 235.049 3.48263 -7.29204 0
M  V30 2481 H 238.635 3.04874 -4.95523 0
M  V30 2482 H 237.515 3.2303 -7.14578 0
M  V30 2483 N 235.018 0.912232 1.28515 0
M  V30 2484 C 235.981 0.404223 2.25607 0
M  V30 2485 C 236.981 -0.468602 1.53821 0
M  V30 2486 O 238.171 -0.271873 1.72065 0
M  V30 2487 C 235.303 -0.420653 3.38295 0
M  V30 2488 H 236.496 1.26188 2.7206 0
M  V30 2489 H 234.049 0.691495 1.40171 0
M  V30 2490 H 234.784 -1.29777 2.97201 0
M  V30 2491 H 234.569 0.204935 3.91564 0
M  V30 2492 H 236.059 -0.766971 4.10496 0
M  V30 2493 N 236.496 -1.42363 0.676048 0
M  V30 2494 C 237.443 -2.308 -0.00150904 0
M  V30 2495 C 238.413 -1.46032 -0.791444 0
M  V30 2496 O 239.598 -1.74861 -0.76344 0
M  V30 2497 C 236.738 -3.31883 -0.945919 0
M  V30 2498 C 235.851 -4.31741 -0.149675 0
M  V30 2499 C 234.986 -5.19898 -1.08995 0
M  V30 2500 C 234.025 -6.11434 -0.285465 0
M  V30 2501 N 233.162 -6.92138 -1.17851 0
M  V30 2502 H 238.002 -2.88187 0.758455 0
M  V30 2503 H 235.539 -1.41952 0.38576 0
M  V30 2504 H 237.497 -3.89019 -1.50731 0
M  V30 2505 H 236.127 -2.76093 -1.6725 0
M  V30 2506 H 235.179 -3.76713 0.528359 0
M  V30 2507 H 236.491 -4.96534 0.474866 0
M  V30 2508 H 235.645 -5.81772 -1.72123 0
M  V30 2509 H 234.384 -4.55284 -1.74837 0
M  V30 2510 H 233.389 -5.48627 0.359018 0
M  V30 2511 H 234.614 -6.78097 0.368883 0
M  V30 2512 H 232.56 -6.30152 -1.82332 0
M  V30 2513 H 232.477 -7.53542 -0.609082 0
M  V30 2514 H 233.745 -7.58499 -1.79722 0
M  V30 2515 N 237.974 -0.419461 -1.51915 0
M  V30 2516 C 239.251 0.211999 -1.94448 0
M  V30 2517 C 239.631 1.61703 -1.35703 0
M  V30 2518 O 238.979 2.22102 -0.536931 0
M  V30 2519 C 239.189 0.207872 -3.4838 0
M  V30 2520 C 240.537 0.422192 -4.22496 0
M  V30 2521 O 241.561 0.286778 -3.55044 0
M  V30 2522 O 240.42 0.690009 -5.42126 0
M  V30 2523 H 237.514 0.139586 -0.815135 0
M  V30 2524 H 240.06 -0.476151 -1.62883 0
M  V30 2525 H 238.832 -0.775102 -3.83546 0
M  V30 2526 H 238.455 0.939688 -3.86336 0
M  V30 2527 N 239.452 1.56882 -0.150215 0
M  V30 2528 C 240.868 1.58263 0.20617 0
M  V30 2529 C 241.068 1.16464 1.64434 0
M  V30 2530 O 240.124 0.866422 2.3717 0
M  V30 2531 C 241.437 3.00649 -0.0555025 0
M  V30 2532 C 242.985 3.12999 0.00795388 0
M  V30 2533 C 243.46 4.5744 -0.226429 0
M  V30 2534 N 244.951 4.62875 -0.173469 0
M  V30 2535 C 245.686 5.72454 -0.329288 0
M  V30 2536 N 245.182 6.90669 -0.543005 0
M  V30 2537 N 246.975 5.61467 -0.266666 0
M  V30 2538 H 239.126 1.82345 -1.08922 0
M  V30 2539 H 241.389 0.844149 -0.431413 0
M  V30 2540 H 241.095 3.3563 -1.05096 0
M  V30 2541 H 240.969 3.71337 0.66246 0
M  V30 2542 H 243.356 2.77857 0.993966 0
M  V30 2543 H 243.437 2.4479 -0.742388 0
M  V30 2544 H 243.081 4.93287 -1.20956 0
M  V30 2545 H 243.011 5.2378 0.544274 0
M  V30 2546 H 245.502 3.77898 -0.0130709 0
M  V30 2547 H 245.815 7.70045 -0.651922 0
M  V30 2548 H 244.16 6.92581 -0.579366 0
M  V30 2549 H 247.351 4.67992 -0.100441 0
M  V30 2550 H 247.524 6.46816 -0.391535 0
M  V30 2551 N 240.93 -0.123565 1.57115 0
M  V30 2552 C 242.341 -0.681198 1.73829 0
M  V30 2553 C 242.692 -1.80535 0.768214 0
M  V30 2554 O 241.817 -2.16317 -0.0599103 0
M  V30 2555 C 242.412 -1.24246 3.15196 0
M  V30 2556 C 240.971 -1.74643 3.33432 0
M  V30 2557 C 240.118 -0.644284 2.69711 0
M  V30 2558 H 243.069 0.102315 1.5837 0
M  V30 2559 H 243.09 -2.11216 3.16493 0
M  V30 2560 H 242.602 -0.424062 3.85776 0
M  V30 2561 H 240.703 -2.58974 2.67886 0
M  V30 2562 H 240.816 -1.85902 4.41562 0
M  V30 2563 H 239.18 -1.07676 2.3082 0
M  V30 2564 H 239.963 0.163058 3.42913 0
M  V30 2565 N 242.408 -1.52605 -0.393616 0
M  V30 2566 C 243.318 -1.79971 -1.50492 0
M  V30 2567 C 244.334 -0.686181 -1.59899 0
M  V30 2568 O 245.51 -0.973274 -1.76322 0
M  V30 2569 C 242.575 -1.95867 -2.86072 0
M  V30 2570 C 241.636 -3.19781 -2.86424 0
M  V30 2571 C 240.869 -3.34909 -4.15538 0
M  V30 2572 O 241.092 -2.54948 -5.10253 0
M  V30 2573 O 240.026 -4.28141 -4.23059 0
M  V30 2574 H 243.852 -2.74328 -1.30299 0
M  V30 2575 H 241.437 -1.3764 -0.581005 0
M  V30 2576 H 243.319 -2.08056 -3.66457 0
M  V30 2577 H 241.994 -1.04699 -3.063 0
M  V30 2578 H 240.901 -3.13038 -2.04837 0
M  V30 2579 H 242.234 -4.1078 -2.71147 0
M  V30 2580 N 243.887 0.651787 -1.4349 0
M  V30 2581 C 245.136 1.40754 -1.44469 0
M  V30 2582 C 245.449 1.95463 -0.0731845 0
M  V30 2583 O 246.655 2.71471 0.0395721 0
M  V30 2584 C 245.111 2.54735 -2.5424 0
M  V30 2585 C 244.719 2.06628 -3.97504 0
M  V30 2586 C 246.463 3.32092 -2.64414 0
M  V30 2587 C 244.37 3.17829 -4.98737 0
M  V30 2588 H 243.3 0.528862 -0.53742 0
M  V30 2589 H 245.951 0.703365 -1.69485 0
M  V30 2590 H 244.333 3.2763 -2.22428 0
M  V30 2591 H 245.507 1.40734 -4.38783 0
M  V30 2592 H 243.822 1.42146 -3.91387 0
M  V30 2593 H 246.419 4.14952 -3.37223 0
M  V30 2594 H 246.762 3.80217 -1.69532 0
M  V30 2595 H 247.295 2.66279 -2.95534 0
M  V30 2596 H 244.034 2.74671 -5.95177 0
M  V30 2597 H 243.554 3.82429 -4.62069 0
M  V30 2598 H 245.233 3.82937 -5.21505 0
M  V30 2599 N 245.365 1.30045 0.890287 0
M  V30 2600 C 246.611 1.19747 1.64415 0
M  V30 2601 C 246.966 -0.246591 1.90813 0
M  V30 2602 O 246.259 -1.174 1.51419 0
M  V30 2603 C 246.453 1.95409 2.99249 0
M  V30 2604 C 246.282 3.47025 2.86013 0
M  V30 2605 C 245.052 4.1638 2.86279 0
M  V30 2606 C 247.25 4.42353 2.62351 0
M  V30 2607 N 245.232 5.54293 2.63879 0
M  V30 2608 C 246.603 5.67792 2.49022 0
M  V30 2609 C 248.658 4.32009 2.47533 0
M  V30 2610 C 247.361 6.8406 2.22383 0
M  V30 2611 C 249.387 5.48038 2.22279 0
M  V30 2612 C 248.749 6.72455 2.09722 0
M  V30 2613 H 244.848 0.493223 0.60684 0
M  V30 2614 H 247.432 1.6399 1.04954 0
M  V30 2615 H 245.603 1.53565 3.56752 0
M  V30 2616 H 247.335 1.77298 3.63796 0
M  V30 2617 H 244.09 3.68164 2.97913 0
M  V30 2618 H 244.514 6.26852 2.55706 0
M  V30 2619 H 249.156 3.36503 2.55979 0
M  V30 2620 H 246.874 7.79612 2.12675 0
M  V30 2621 H 250.46 5.41939 2.11643 0
M  V30 2622 H 249.34 7.60722 1.90453 0
M  V30 2623 N 246.843 -1.10192 1.12674 0
M  V30 2624 C 247.753 -2.20172 0.810026 0
M  V30 2625 C 248.769 -1.72821 -0.202188 0
M  V30 2626 O 249.945 -2.01369 -0.0351691 0
M  V30 2627 C 247.01 -3.45631 0.272007 0
M  V30 2628 C 246.071 -4.07704 1.34447 0
M  V30 2629 C 245.304 -5.27175 0.832029 0
M  V30 2630 O 245.527 -5.69425 -0.333284 0
M  V30 2631 O 244.461 -5.80168 1.60277 0
M  V30 2632 H 248.287 -2.49701 1.72867 0
M  V30 2633 H 245.872 -1.18977 0.903597 0
M  V30 2634 H 247.754 -4.21394 -0.0230219 0
M  V30 2635 H 246.429 -3.17723 -0.619164 0
M  V30 2636 H 245.336 -3.33614 1.6927 0
M  V30 2637 H 246.669 -4.3982 2.2095 0
M  V30 2638 N 248.321 -0.919034 -1.28029 0
M  V30 2639 C 249.569 -0.553838 -1.94363 0
M  V30 2640 C 249.89 0.906357 -1.72656 0
M  V30 2641 O 249.16 1.64143 -1.0693 0
M  V30 2642 H 247.74 -0.201834 -0.719216 0
M  V30 2643 H 250.402 -1.16954 -1.55909 0
M  V30 2644 H 249.498 -0.752758 -3.02886 0
M  V30 2645 N 249.799 1.42003 -0.683588 0
M  V30 2646 C 250.709 2.34597 -0.0109075 0
M  V30 2647 C 251.725 1.55576 0.779245 0
M  V30 2648 O 252.901 1.88107 0.719555 0
M  V30 2649 C 249.966 3.34199 0.922588 0
M  V30 2650 C 249.027 4.29115 0.125984 0
M  V30 2651 C 248.26 5.23959 1.01502 0
M  V30 2652 O 248.483 5.23952 2.25456 0
M  V30 2653 O 247.417 6.00053 0.47111 0
M  V30 2654 H 251.243 2.93675 -0.773853 0
M  V30 2655 H 248.828 1.42654 -0.443861 0
M  V30 2656 H 250.71 3.95365 1.45823 0
M  V30 2657 H 249.385 2.77582 1.66523 0
M  V30 2658 H 248.292 3.71335 -0.453969 0
M  V30 2659 H 249.625 4.88798 -0.577736 0
M  V30 2660 N 251.277 0.427512 1.51691 0
M  V30 2661 C 252.688 -0.0378867 1.86662 0
M  V30 2662 C 253.039 -1.42819 1.34525 0
M  V30 2663 O 252.164 -2.05037 0.692014 0
M  V30 2664 C 252.759 -0.0755266 3.38716 0
M  V30 2665 C 251.318 -0.485309 3.73258 0
M  V30 2666 C 250.465 0.328399 2.75349 0
M  V30 2667 H 253.416 0.64379 1.45055 0
M  V30 2668 H 253.437 -0.887056 3.70016 0
M  V30 2669 H 252.949 0.936487 3.76632 0
M  V30 2670 H 251.05 -1.50329 3.40928 0
M  V30 2671 H 251.163 -0.21693 4.78609 0
M  V30 2672 H 249.527 -0.211905 2.53817 0
M  V30 2673 H 250.31 1.3391 3.16106 0
M  V30 2674 N 252.755 -1.56801 0.158532 0
M  V30 2675 C 254.166 -1.83189 -0.360366 0
M  V30 2676 C 254.517 -1.07778 -1.63946 0
M  V30 2677 O 253.642 -0.326718 -2.13919 0
M  V30 2678 C 254.237 -3.32297 -0.660595 0
M  V30 2679 C 252.796 -3.59227 -1.12398 0
M  V30 2680 C 251.943 -2.76877 -0.153097 0
M  V30 2681 H 254.894 -1.54008 0.383031 0
M  V30 2682 H 254.915 -3.4908 -1.51405 0
M  V30 2683 H 254.427 -3.87156 0.270527 0
M  V30 2684 H 252.528 -3.09766 -2.07064 0
M  V30 2685 H 252.641 -4.67632 -1.04197 0
M  V30 2686 H 251.005 -2.46319 -0.647983 0
M  V30 2687 H 251.788 -3.34511 0.77182 0
M  V30 2688 N 254.233 0.115231 -1.57178 0
M  V30 2689 C 255.473 0.828199 -1.8687 0
M  V30 2690 C 255.837 1.76873 -0.747002 0
M  V30 2691 O 257.038 2.52354 -0.925785 0
M  V30 2692 C 255.309 1.55515 -3.21792 0
M  V30 2693 S 256.868 2.30917 -3.73125 0
M  V30 2694 H 253.686 0.27634 -0.655101 0
M  V30 2695 H 256.288 0.0863469 -1.95309 0
M  V30 2696 H 254.992 0.856248 -4.01368 0
M  V30 2697 H 254.523 2.3373 -3.16439 0
M  V30 2698 H 256.538 3.56705 -3.44929 0
M  V30 2699 N 255.711 1.52812 0.385517 0
M  V30 2700 C 256.641 1.80808 1.47752 0
M  V30 2701 C 257.622 0.660318 1.5676 0
M  V30 2702 O 258.807 0.908246 1.71652 0
M  V30 2703 C 255.937 1.98008 2.85324 0
M  V30 2704 C 254.891 3.13709 2.91154 0
M  V30 2705 C 254.217 3.16169 4.31209 0
M  V30 2706 C 255.517 4.52709 2.60483 0
M  V30 2707 H 257.211 2.72253 1.24573 0
M  V30 2708 H 254.757 1.31003 0.597839 0
M  V30 2709 H 256.71 2.16176 3.61726 0
M  V30 2710 H 255.434 1.03255 3.09848 0
M  V30 2711 H 254.093 2.95329 2.17201 0
M  V30 2712 H 253.741 2.19092 4.52778 0
M  V30 2713 H 253.441 3.93894 4.36029 0
M  V30 2714 H 254.965 3.36496 5.09512 0
M  V30 2715 H 256.379 4.71173 3.26602 0
M  V30 2716 H 254.776 5.32528 2.76648 0
M  V30 2717 H 255.846 4.59186 1.55809 0
M  V30 2718 N 257.189 -0.644168 1.43834 0
M  V30 2719 C 258.6 -1.22554 1.40845 0
M  V30 2720 C 258.951 -1.9585 0.117115 0
M  V30 2721 O 258.076 -2.01734 -0.783086 0
M  V30 2722 C 258.671 -2.22907 2.55143 0
M  V30 2723 C 257.23 -2.76501 2.5539 0
M  V30 2724 C 256.377 -1.51287 2.32396 0
M  V30 2725 H 259.328 -0.43563 1.52604 0
M  V30 2726 H 259.349 -3.05259 2.2715 0
M  V30 2727 H 258.861 -1.69533 3.49114 0
M  V30 2728 H 256.962 -3.33914 1.65324 0
M  V30 2729 H 257.075 -3.23429 3.53455 0
M  V30 2730 H 255.439 -1.78957 1.81236 0
M  V30 2731 H 256.222 -0.998336 3.28463 0
M  V30 2732 N 258.668 -1.30515 -0.883378 0
M  V30 2733 C 260.079 -1.17509 -1.45081 0
M  V30 2734 C 260.43 0.223605 -1.94922 0
M  V30 2735 O 259.555 1.12041 -1.85137 0
M  V30 2736 C 260.15 -2.12715 -2.63701 0
M  V30 2737 C 258.709 -2.03682 -3.16529 0
M  V30 2738 C 257.856 -2.02706 -1.89224 0
M  V30 2739 H 260.807 -1.42762 -0.693165 0
M  V30 2740 H 260.828 -1.70891 -3.39965 0
M  V30 2741 H 260.34 -3.14505 -2.27395 0
M  V30 2742 H 258.441 -1.05039 -3.57488 0
M  V30 2743 H 258.554 -2.92146 -3.7972 0
M  V30 2744 H 256.918 -1.4753 -2.07622 0
M  V30 2745 H 257.701 -3.06229 -1.55174 0
M  V30 2746 N 260.146 1.09593 -1.13257 0
M  V30 2747 C 261.562 1.33775 -0.870423 0
M  V30 2748 C 261.762 1.95327 0.494926 0
M  V30 2749 O 260.818 2.19853 1.2418 0
M  V30 2750 C 262.131 2.25106 -1.99369 0
M  V30 2751 C 263.679 2.3862 -2.02558 0
M  V30 2752 C 264.154 3.33285 -3.14142 0
M  V30 2753 N 265.645 3.40857 -3.13641 0
M  V30 2754 C 266.38 4.14101 -3.96621 0
M  V30 2755 N 265.876 4.90157 -4.8961 0
M  V30 2756 N 267.669 4.09808 -3.84726 0
M  V30 2757 H 259.82 0.680136 -2.01216 0
M  V30 2758 H 262.083 0.362133 -0.876107 0
M  V30 2759 H 261.789 1.87103 -2.97801 0
M  V30 2760 H 261.663 3.25481 -1.90635 0
M  V30 2761 H 264.05 2.75887 -1.0474 0
M  V30 2762 H 264.131 1.38028 -2.15364 0
M  V30 2763 H 263.775 2.96741 -4.12198 0
M  V30 2764 H 263.705 4.33776 -2.98574 0
M  V30 2765 H 266.196 2.86624 -2.46282 0
M  V30 2766 H 266.509 5.4347 -5.49418 0
M  V30 2767 H 264.854 4.89251 -4.93617 0
M  V30 2768 H 268.045 3.4949 -3.11408 0
M  V30 2769 H 268.218 4.66629 -4.49623 0
M  V30 2770 N 261.624 0.925811 1.2754 0
M  V30 2771 C 262.901 0.483726 1.89524 0
M  V30 2772 C 263.281 -1.03809 1.83812 0
M  V30 2773 O 262.629 -1.89143 1.28207 0
M  V30 2774 C 262.839 1.02769 3.33526 0
M  V30 2775 C 264.187 1.08703 4.10449 0
M  V30 2776 O 265.211 0.977175 3.42534 0
M  V30 2777 O 264.07 1.25599 5.31871 0
M  V30 2778 H 261.164 0.15529 0.812289 0
M  V30 2779 H 263.71 1.01738 1.35822 0
M  V30 2780 H 262.482 2.07155 3.31967 0
M  V30 2781 H 262.105 0.475567 3.94746 0
M  V30 2782 N 263.102 -1.41638 0.69111 0
M  V30 2783 C 264.327 -2.06148 0.227583 0
M  V30 2784 C 264.752 -1.51652 -1.11281 0
M  V30 2785 O 264.11 -0.64164 -1.69566 0
M  V30 2786 C 264.158 -3.60095 0.190858 0
M  V30 2787 O 263.262 -4.03845 -0.835664 0
M  V30 2788 H 262.603 -0.654434 0.112306 0
M  V30 2789 H 265.133 -1.81484 0.944714 0
M  V30 2790 H 265.143 -4.07995 0.020207 0
M  V30 2791 H 263.818 -3.99129 1.16915 0
M  V30 2792 H 262.395 -3.67458 -0.63473 0
M  V30 2793 N 264.58 -0.43555 -1.51462 0
M  V30 2794 C 265.51 0.367376 -2.30592 0
M  V30 2795 C 266.491 1.02263 -1.35928 0
M  V30 2796 O 267.676 1.02661 -1.64847 0
M  V30 2797 C 264.806 1.46983 -3.14664 0
M  V30 2798 C 263.76 0.938161 -4.17591 0
M  V30 2799 C 263.086 2.13622 -4.90173 0
M  V30 2800 C 264.386 -0.0261621 -5.22293 0
M  V30 2801 H 266.08 -0.292969 -2.97963 0
M  V30 2802 H 263.626 -0.14234 -1.43295 0
M  V30 2803 H 265.579 2.03873 -3.688 0
M  V30 2804 H 264.303 2.15843 -2.4511 0
M  V30 2805 H 262.962 0.391481 -3.64504 0
M  V30 2806 H 262.61 2.81098 -4.17124 0
M  V30 2807 H 262.31 1.78688 -5.59772 0
M  V30 2808 H 263.834 2.7107 -5.47132 0
M  V30 2809 H 265.248 0.452384 -5.71512 0
M  V30 2810 H 263.645 -0.287992 -5.99409 0
M  V30 2811 H 264.715 -0.963391 -4.75233 0
M  V30 2812 N 266.058 1.56714 -0.166846 0
M  V30 2813 C 267.006 2.19056 0.782123 0
M  V30 2814 C 268 1.15328 1.24079 0
M  V30 2815 O 269.206 1.33537 1.20697 0
M  V30 2816 H 265.581 0.70167 0.270486 0
M  V30 2817 H 267.552 2.97494 0.232322 0
M  V30 2818 C 266.301 2.84206 2.00306 0
M  V30 2819 H 265.624 3.63748 1.65914 0
M  V30 2820 H 267.064 3.31302 2.64604 0
M  V30 2821 C 265.523 1.83744 2.82382 0
M  V30 2822 O 266.053 1.32014 3.79388 0
M  V30 2823 N 264.259 1.52601 2.47308 0
M  V30 2824 H 263.806 1.9486 1.68485 0
M  V30 2825 H 263.764 0.856351 3.02513 0
M  V30 2826 N 267.536 -0.106894 1.57237 0
M  V30 2827 C 268.468 -1.15646 1.97885 0
M  V30 2828 C 269.481 -1.36981 0.879779 0
M  V30 2829 O 270.67 -1.35841 1.15799 0
M  V30 2830 C 267.77 -2.51425 2.27241 0
M  V30 2831 C 266.943 -2.50529 3.58545 0
M  V30 2832 C 266.002 -3.68145 3.75973 0
M  V30 2833 O 265.028 -3.51176 4.47956 0
M  V30 2834 N 266.23 -4.87177 3.15656 0
M  V30 2835 H 268.995 -0.81059 2.8853 0
M  V30 2836 H 266.556 -0.296024 1.59171 0
M  V30 2837 H 268.548 -3.28689 2.36105 0
M  V30 2838 H 267.118 -2.78147 1.42663 0
M  V30 2839 H 266.338 -1.58894 3.60758 0
M  V30 2840 H 267.626 -2.46997 4.44826 0
M  V30 2841 H 267.024 -5.03868 2.57165 0
M  V30 2842 H 265.581 -5.62075 3.30023 0
M  V30 2843 N 269.014 -1.53014 -0.377408 0
M  V30 2844 C 270.239 -1.72818 -1.14668 0
M  V30 2845 C 270.664 -0.450725 -1.8262 0
M  V30 2846 O 270.022 0.59439 -1.7128 0
M  V30 2847 C 270.07 -2.88627 -2.16164 0
M  V30 2848 O 269.174 -2.56409 -3.22998 0
M  V30 2849 H 268.515 -0.574301 -0.333278 0
M  V30 2850 H 271.045 -1.99853 -0.438152 0
M  V30 2851 H 271.055 -3.14455 -2.59966 0
M  V30 2852 H 269.73 -3.81294 -1.66095 0
M  V30 2853 H 268.307 -2.4136 -2.84253 0
M  V30 2854 N 270.492 0.636531 -1.44174 0
M  V30 2855 C 271.422 1.76003 -1.53444 0
M  V30 2856 C 272.403 1.65619 -0.387841 0
M  V30 2857 O 273.588 1.84461 -0.607257 0
M  V30 2858 C 270.718 3.14511 -1.4731 0
M  V30 2859 C 269.672 3.39677 -2.60391 0
M  V30 2860 C 268.998 4.78159 -2.39308 0
M  V30 2861 C 270.298 3.32772 -4.02567 0
M  V30 2862 H 271.992 1.68501 -2.47483 0
M  V30 2863 H 269.538 0.809237 -1.19111 0
M  V30 2864 H 271.491 3.92878 -1.52397 0
M  V30 2865 H 270.215 3.22783 -0.49785 0
M  V30 2866 H 268.874 2.63688 -2.54684 0
M  V30 2867 H 268.522 4.83128 -1.39988 0
M  V30 2868 H 268.222 4.95956 -3.15122 0
M  V30 2869 H 269.746 5.58762 -2.46205 0
M  V30 2870 H 271.16 4.01051 -4.09672 0
M  V30 2871 H 269.557 3.62104 -4.7854 0
M  V30 2872 H 270.627 2.30669 -4.2652 0
M  V30 2873 N 271.97 1.30982 0.876444 0
M  V30 2874 C 273.195 1.23373 1.66715 0
M  V30 2875 C 273.62 -0.19885 1.87046 0
M  V30 2876 O 272.978 -1.1427 1.40756 0
M  V30 2877 C 273.026 1.97644 3.01611 0
M  V30 2878 O 272.13 1.30935 3.91062 0
M  V30 2879 H 271.471 0.426279 0.509099 0
M  V30 2880 H 274.001 1.72944 1.09323 0
M  V30 2881 H 274.011 2.06992 3.51594 0
M  V30 2882 H 272.686 3.01829 2.86133 0
M  V30 2883 H 271.263 1.29996 3.49507 0
M  V30 2884 N 273.449 -1.08991 1.13837 0
M  V30 2885 C 274.381 -2.15606 0.777612 0
M  V30 2886 C 275.394 -1.61533 -0.202739 0
M  V30 2887 O 276.583 -1.78491 0.0181055 0
M  V30 2888 C 273.683 -3.3864 0.132623 0
M  V30 2889 C 272.856 -4.22115 1.1462 0
M  V30 2890 C 271.915 -5.23564 0.526074 0
M  V30 2891 O 270.941 -5.56678 1.18735 0
M  V30 2892 N 272.143 -5.76266 -0.699866 0
M  V30 2893 H 274.908 -2.47159 1.69506 0
M  V30 2894 H 272.469 -1.24747 1.03198 0
M  V30 2895 H 274.461 -4.03626 -0.29459 0
M  V30 2896 H 273.031 -3.04938 -0.687849 0
M  V30 2897 H 272.251 -3.53199 1.75055 0
M  V30 2898 H 273.539 -4.74709 1.83109 0
M  V30 2899 H 272.937 -5.51585 -1.25581 0
M  V30 2900 H 271.494 -6.42963 -1.06968 0
M  V30 2901 N 274.927 -0.932562 -1.27047 0
M  V30 2902 C 276.204 -0.49377 -1.89265 0
M  V30 2903 C 276.584 1.02833 -1.8436 0
M  V30 2904 O 275.932 1.88461 -1.29209 0
M  V30 2905 C 276.142 -1.04536 -3.32976 0
M  V30 2906 C 277.49 -1.10879 -4.09867 0
M  V30 2907 O 278.514 -0.995327 -3.42011 0
M  V30 2908 O 277.373 -1.28417 -5.31198 0
M  V30 2909 H 274.467 -0.159596 -0.811454 0
M  V30 2910 H 277.013 -1.02457 -1.3528 0
M  V30 2911 H 275.785 -2.08913 -3.30864 0
M  V30 2912 H 275.408 -0.496494 -3.94488 0
M  V30 2913 N 276.405 1.4127 -0.698611 0
M  V30 2914 C 277.335 2.33447 -0.049629 0
M  V30 2915 C 278.316 1.51982 0.763898 0
M  V30 2916 O 279.501 1.80509 0.716257 0
M  V30 2917 C 276.631 3.35828 0.885267 0
M  V30 2918 C 275.585 4.27627 0.178613 0
M  V30 2919 C 274.911 5.20406 1.22807 0
M  V30 2920 C 276.211 5.13459 -0.956933 0
M  V30 2921 H 277.905 2.87966 -0.81951 0
M  V30 2922 H 275.451 1.38461 -0.395538 0
M  V30 2923 H 277.404 3.9924 1.34854 0
M  V30 2924 H 276.128 2.79666 1.68685 0
M  V30 2925 H 274.787 3.65643 -0.26466 0
M  V30 2926 H 274.435 4.60558 2.02226 0
M  V30 2927 H 274.135 5.82661 0.760239 0
M  V30 2928 H 275.659 5.86695 1.69179 0
M  V30 2929 H 277.073 5.70421 -0.573805 0
M  V30 2930 H 275.47 5.8467 -1.35205 0
M  V30 2931 H 276.54 4.50443 -1.79524 0
M  V30 2932 N 277.883 0.443576 1.51229 0
M  V30 2933 C 279.111 -0.11929 2.06556 0
M  V30 2934 C 279.526 -1.35921 1.31038 0
M  V30 2935 O 278.883 -1.78675 0.371704 0
M  V30 2936 C 278.934 -0.435228 3.5887 0
M  V30 2937 O 278.655 0.755486 4.31537 0
M  V30 2938 C 280.156 -1.04808 4.30732 0
M  V30 2939 H 277.376 -0.0051584 0.67098 0
M  V30 2940 H 279.92 0.624453 1.94733 0
M  V30 2941 H 278.075 -1.12887 3.70588 0
M  V30 2942 H 278.489 0.483491 5.22267 0
M  V30 2943 H 279.963 -1.2191 5.3837 0
M  V30 2944 H 280.44 -2.03081 3.89429 0
M  V30 2945 H 281.046 -0.393637 4.23474 0
M  V30 2946 N 279.361 -1.56624 0.175154 0
M  V30 2947 C 280.294 -2.14 -0.792412 0
M  V30 2948 C 281.272 -1.07114 -1.22333 0
M  V30 2949 O 282.456 -1.35112 -1.31442 0
M  V30 2950 C 279.583 -2.68268 -2.0676 0
M  V30 2951 C 278.629 -3.87562 -1.7804 0
M  V30 2952 S 279.462 -5.27074 -0.946222 0
M  V30 2953 C 280.618 -5.8475 -2.23199 0
M  V30 2954 H 280.851 -2.95736 -0.304588 0
M  V30 2955 H 278.384 -1.54349 -0.0395705 0
M  V30 2956 H 280.342 -3.00182 -2.80002 0
M  V30 2957 H 279.003 -1.86612 -2.52656 0
M  V30 2958 H 278.196 -4.23874 -2.72666 0
M  V30 2959 H 277.798 -3.56555 -1.12891 0
M  V30 2960 H 280.09 -5.97898 -3.18629 0
M  V30 2961 H 281.033 -6.81756 -1.91349 0
M  V30 2962 H 281.441 -5.13198 -2.35134 0
M  V30 2963 N 280.839 0.0985539 -1.57292 0
M  V30 2964 C 281.802 1.10402 -2.00858 0
M  V30 2965 C 282.802 1.33146 -0.901593 0
M  V30 2966 O 283.992 1.29318 -1.16716 0
M  V30 2967 C 281.124 2.45394 -2.36632 0
M  V30 2968 H 282.317 0.729099 -2.90902 0
M  V30 2969 H 279.87 0.343495 -1.52479 0
M  V30 2970 H 280.605 2.87769 -1.49531 0
M  V30 2971 H 280.39 2.30235 -3.17387 0
M  V30 2972 H 281.88 3.17718 -2.71007 0
M  V30 2973 N 282.317 1.53212 0.369288 0
M  V30 2974 C 283.728 1.60943 0.946276 0
M  V30 2975 C 284.079 0.47452 1.90375 0
M  V30 2976 O 283.204 -0.399597 2.12679 0
M  V30 2977 C 283.799 2.91715 1.72302 0
M  V30 2978 C 282.358 3.01792 2.24941 0
M  V30 2979 C 281.505 2.56211 1.06072 0
M  V30 2980 H 284.456 1.58007 0.148198 0
M  V30 2981 H 284.477 2.79309 2.58393 0
M  V30 2982 H 283.989 3.74295 1.0259 0
M  V30 2983 H 282.09 2.23791 2.97906 0
M  V30 2984 H 282.203 4.06803 2.53077 0
M  V30 2985 H 280.567 2.10998 1.4266 0
M  V30 2986 H 281.35 3.41206 0.378639 0
M  V30 2987 N 283.795 -0.628877 1.44509 0
M  V30 2988 C 285.043 -1.38565 1.4712 0
M  V30 2989 C 285.364 -1.94712 0.105899 0
M  V30 2990 O 284.634 -1.75912 -0.862079 0
M  V30 2991 H 283.214 -0.514333 0.541729 0
M  V30 2992 H 285.876 -0.740018 1.80305 0
M  V30 2993 H 284.972 -2.21583 2.19789 0
M  V30 2994 N 285.273 -1.31445 -0.869486 0
M  V30 2995 C 286.498 -1.24256 -1.66058 0
M  V30 2996 C 286.923 0.188928 -1.87149 0
M  V30 2997 O 286.281 1.13522 -1.4136 0
M  V30 2998 C 286.329 -1.9924 -3.00559 0
M  V30 2999 O 285.433 -1.33007 -3.90362 0
M  V30 3000 H 284.774 -0.428973 -0.506831 0
M  V30 3001 H 287.304 -1.73521 -1.08404 0
M  V30 3002 H 287.314 -2.08854 -3.50491 0
M  V30 3003 H 285.989 -3.03342 -2.84528 0
M  V30 3004 H 284.566 -1.31848 -3.48813 0
M  V30 3005 N 286.751 1.08385 -1.14413 0
M  V30 3006 C 287.979 1.84517 -0.936001 0
M  V30 3007 C 288.394 1.81626 0.515503 0
M  V30 3008 O 287.751 1.22008 1.35721 0
M  V30 3009 C 287.802 3.32049 -1.42918 0
M  V30 3010 O 287.523 3.34951 -2.82381 0
M  V30 3011 C 289.024 4.24986 -1.26103 0
M  V30 3012 H 286.244 0.582491 -0.333084 0
M  V30 3013 H 288.788 1.36885 -1.5193 0
M  V30 3014 H 286.943 3.7707 -0.888641 0
M  V30 3015 H 287.357 4.27048 -3.04517 0
M  V30 3016 H 288.831 5.26615 -1.6547 0
M  V30 3017 H 289.308 4.38726 -0.20392 0
M  V30 3018 H 289.914 3.85791 -1.79012 0
M  V30 3019 N 288.23 0.939286 1.26551 0
M  V30 3020 C 289.16 0.465044 2.28822 0
M  V30 3021 C 290.141 -0.480692 1.63167 0
M  V30 3022 O 291.326 -0.382955 1.90387 0
M  V30 3023 C 288.456 -0.27234 3.46231 0
M  V30 3024 C 287.41 0.58666 4.2396 0
M  V30 3025 C 286.736 -0.280573 5.33963 0
M  V30 3026 C 288.036 1.85704 4.88171 0
M  V30 3027 H 289.73 1.31979 2.68741 0
M  V30 3028 H 287.276 0.636061 1.29191 0
M  V30 3029 H 289.229 -0.615133 4.16886 0
M  V30 3030 H 287.953 -1.16121 3.0526 0
M  V30 3031 H 286.612 0.91232 3.55067 0
M  V30 3032 H 286.26 -1.16874 4.89234 0
M  V30 3033 H 285.96 0.29076 5.8688 0
M  V30 3034 H 287.484 -0.618678 6.07458 0
M  V30 3035 H 288.898 1.58161 5.51052 0
M  V30 3036 H 287.295 2.37279 5.51197 0
M  V30 3037 H 288.365 2.56957 4.11219 0
M  V30 3038 N 289.708 -1.40897 0.706093 0
M  V30 3039 C 290.954 -2.01849 0.250681 0
M  V30 3040 C 291.309 -1.5496 -1.14041 0
M  V30 3041 O 290.602 -0.755566 -1.76073 0
M  V30 3042 C 290.796 -3.5646 0.259099 0
M  V30 3043 C 290.625 -4.18357 1.64947 0
M  V30 3044 C 289.395 -4.522 2.25485 0
M  V30 3045 C 291.593 -4.43856 2.598 0
M  V30 3046 N 289.575 -4.9944 3.56977 0
M  V30 3047 C 290.946 -4.92986 3.75985 0
M  V30 3048 C 293.001 -4.25882 2.57933 0
M  V30 3049 C 291.704 -5.2603 4.90597 0
M  V30 3050 C 293.73 -4.6002 3.71665 0
M  V30 3051 C 293.092 -5.09331 4.86581 0
M  V30 3052 H 289.191 -0.769843 0.137353 0
M  V30 3053 H 291.775 -1.71278 0.925845 0
M  V30 3054 H 289.946 -3.86481 -0.385592 0
M  V30 3055 H 291.678 -4.04144 -0.21213 0
M  V30 3056 H 288.433 -4.3901 1.77671 0
M  V30 3057 H 288.857 -5.27454 4.24407 0
M  V30 3058 H 293.499 -3.86986 1.70298 0
M  V30 3059 H 291.217 -5.63843 5.78884 0
M  V30 3060 H 294.803 -4.47762 3.71484 0
M  V30 3061 H 293.683 -5.35251 5.73129 0
M  V30 3062 N 291.186 -0.45159 -1.50991 0
M  V30 3063 C 292.116 0.342898 -2.30969 0
M  V30 3064 C 293.097 1.00815 -1.37005 0
M  V30 3065 O 294.282 1.00907 -1.65926 0
M  V30 3066 C 291.412 1.43637 -3.16205 0
M  V30 3067 C 290.366 0.893818 -4.18563 0
M  V30 3068 C 289.692 2.08411 -4.92411 0
M  V30 3069 C 290.992 -0.0815568 -5.22236 0
M  V30 3070 H 292.686 -0.324556 -2.97636 0
M  V30 3071 H 290.232 -0.157531 -1.43136 0
M  V30 3072 H 292.185 1.9995 -3.70942 0
M  V30 3073 H 290.909 2.13232 -2.47386 0
M  V30 3074 H 289.568 0.352798 -3.64898 0
M  V30 3075 H 289.216 2.76658 -4.20082 0
M  V30 3076 H 288.916 1.72741 -5.61636 0
M  V30 3077 H 290.44 2.65251 -5.49976 0
M  V30 3078 H 291.854 0.391742 -5.7196 0
M  V30 3079 H 290.251 -0.351551 -5.99069 0
M  V30 3080 H 291.321 -1.01374 -4.74185 0
M  V30 3081 N 292.664 1.56529 -0.183458 0
M  V30 3082 C 293.889 2.02064 0.467428 0
M  V30 3083 C 294.314 1.06282 1.55196 0
M  V30 3084 O 293.672 0.0443565 1.81246 0
M  V30 3085 C 293.72 3.46122 1.01153 0
M  V30 3086 O 292.824 3.53437 2.12499 0
M  V30 3087 H 292.165 0.654726 0.110588 0
M  V30 3088 H 294.695 2.02521 -0.290917 0
M  V30 3089 H 294.705 3.85676 1.33108 0
M  V30 3090 H 293.38 4.15331 0.217533 0
M  V30 3091 H 291.957 3.2575 1.81497 0
M  V30 3092 N 294.142 -0.090211 1.57342 0
M  V30 3093 C 295.382 -0.798365 1.88163 0
M  V30 3094 C 295.746 -1.75662 0.775046 0
M  V30 3095 O 296.947 -2.50849 0.965816 0
M  V30 3096 C 295.218 -1.50376 3.24225 0
M  V30 3097 S 296.777 -2.24952 3.76752 0
M  V30 3098 H 293.595 -0.265883 0.659414 0
M  V30 3099 H 296.197 -0.055264 1.95422 0
M  V30 3100 H 294.901 -0.792286 4.0268 0
M  V30 3101 H 294.432 -2.28666 3.20118 0
M  V30 3102 H 296.447 -3.51173 3.5056 0
M  V30 3103 N 295.62 -1.53406 -0.361157 0
M  V30 3104 C 296.868 -1.69467 -1.10115 0
M  V30 3105 C 297.189 -0.451352 -1.89705 0
M  V30 3106 O 296.459 0.534636 -1.88463 0
M  V30 3107 H 295.039 -0.624749 -0.409508 0
M  V30 3108 H 297.701 -1.90609 -0.406699 0
M  V30 3109 H 296.797 -2.55774 -1.78847 0
M  V30 3110 N 297.098 0.621204 -1.44841 0
M  V30 3111 C 298.344 1.3826 -1.48365 0
M  V30 3112 C 298.677 1.93831 -0.119624 0
M  V30 3113 O 297.952 1.74251 0.864111 0
M  V30 3114 C 298.235 2.54058 -2.55199 0
M  V30 3115 C 298.088 2.03772 -4.00995 0
M  V30 3116 C 299.407 3.56225 -2.58442 0
M  V30 3117 H 296.526 0.501374 -0.540179 0
M  V30 3118 H 299.168 0.7015 -1.76576 0
M  V30 3119 H 297.318 3.12162 -2.31274 0
M  V30 3120 H 298.99 1.50423 -4.36086 0
M  V30 3121 H 297.233 1.34876 -4.12299 0
M  V30 3122 H 297.904 2.87185 -4.71411 0
M  V30 3123 H 300.38 3.07939 -2.79844 0
M  V30 3124 H 299.256 4.34756 -3.3508 0
M  V30 3125 H 299.517 4.10949 -1.63013 0
M  V30 3126 N 298.576 1.31904 0.862503 0
M  V30 3127 C 299.987 1.19803 1.43193 0
M  V30 3128 C 300.338 -0.192567 1.95253 0
M  V30 3129 O 299.463 -1.09081 1.86896 0
M  V30 3130 C 300.058 2.16883 2.60283 0
M  V30 3131 C 298.617 2.08692 3.13248 0
M  V30 3132 C 297.764 2.05691 1.85975 0
M  V30 3133 H 300.715 1.43846 0.670365 0
M  V30 3134 H 300.736 1.76278 3.37204 0
M  V30 3135 H 300.248 3.18083 2.22363 0
M  V30 3136 H 298.349 1.10713 3.55771 0
M  V30 3137 H 298.462 2.9815 3.75025 0
M  V30 3138 H 296.826 1.50814 2.05249 0
M  V30 3139 H 297.609 3.08659 1.50282 0
M  V30 3140 N 300.054 -1.07777 1.14986 0
M  V30 3141 C 301.465 -1.61766 0.932127 0
M  V30 3142 C 301.816 -1.88974 -0.527581 0
M  V30 3143 O 300.941 -1.65198 -1.39781 0
M  V30 3144 C 301.536 -2.93891 1.68563 0
M  V30 3145 C 300.095 -3.44639 1.5133 0
M  V30 3146 C 299.242 -2.18767 1.704 0
M  V30 3147 H 302.193 -0.909201 1.30074 0
M  V30 3148 H 302.214 -3.62623 1.15259 0
M  V30 3149 H 301.726 -2.74057 2.74799 0
M  V30 3150 H 299.827 -3.69564 0.474702 0
M  V30 3151 H 299.94 -4.20966 2.28746 0
M  V30 3152 H 298.304 -2.28253 1.13016 0
M  V30 3153 H 299.087 -2.01433 2.77992 0
M  V30 3154 N 301.532 -0.945985 -1.26051 0
M  V30 3155 C 302.809 -0.513816 -1.88731 0
M  V30 3156 C 303.189 1.00872 -1.8544 0
M  V30 3157 O 302.537 1.8708 -1.312 0
M  V30 3158 C 302.747 -1.08062 -3.31849 0
M  V30 3159 C 304.095 -1.1522 -4.08668 0
M  V30 3160 O 305.119 -1.03155 -3.40936 0
M  V30 3161 O 303.978 -1.34044 -5.29806 0
M  V30 3162 H 301.072 -0.168193 -0.809716 0
M  V30 3163 H 303.618 -1.03886 -1.34186 0
M  V30 3164 H 302.39 -2.1241 -3.2863 0
M  V30 3165 H 302.013 -0.538307 -3.93939 0
M  V30 3166 N 303.011 1.40521 -0.713556 0
M  V30 3167 C 304.236 2.05759 -0.26035 0
M  V30 3168 C 304.661 1.53403 1.08854 0
M  V30 3169 O 304.019 0.668535 1.68524 0
M  V30 3170 C 304.067 3.59745 -0.248122 0
M  V30 3171 O 303.171 4.05123 0.77131 0
M  V30 3172 H 302.512 0.652564 -0.122703 0
M  V30 3173 H 305.042 1.79958 -0.973467 0
M  V30 3174 H 305.052 4.07911 -0.0851129 0
M  V30 3175 H 303.727 3.97218 -1.2325 0
M  V30 3176 H 302.304 3.68422 0.57619 0
M  V30 3177 N 304.489 0.459591 1.5075 0
M  V30 3178 C 305.735 -0.0994966 2.02556 0
M  V30 3179 C 306.068 -1.40399 1.3417 0
M  V30 3180 O 305.343 -1.88892 0.463683 0
M  V30 3181 C 305.626 -0.295242 3.58888 0
M  V30 3182 C 305.479 1.02947 4.37861 0
M  V30 3183 C 306.798 -1.05502 4.27267 0
M  V30 3184 H 303.917 -0.034686 0.736183 0
M  V30 3185 H 306.559 0.602938 1.8018 0
M  V30 3186 H 304.709 -0.893563 3.78084 0
M  V30 3187 H 306.381 1.66348 4.30263 0
M  V30 3188 H 304.624 1.62885 4.02058 0
M  V30 3189 H 305.295 0.846281 5.45474 0
M  V30 3190 H 307.771 -0.547993 4.12476 0
M  V30 3191 H 306.647 -1.16077 5.36486 0
M  V30 3192 H 306.908 -2.08875 3.89645 0
M  V30 3193 N 305.967 -1.56429 0.191757 0
M  V30 3194 C 307.192 -2.02309 -0.456706 0
M  V30 3195 C 307.617 -1.07103 -1.5463 0
M  V30 3196 O 306.975 -0.0539677 -1.8122 0
M  V30 3197 C 307.023 -3.46654 -0.993159 0
M  V30 3198 O 306.127 -3.54559 -2.10622 0
M  V30 3199 H 305.468 -0.655303 -0.107114 0
M  V30 3200 H 307.998 -2.02364 0.301653 0
M  V30 3201 H 308.008 -3.86377 -1.31061 0
M  V30 3202 H 306.683 -4.1544 -0.195504 0
M  V30 3203 H 305.26 -3.26708 -1.79767 0
M  V30 3204 N 307.445 0.0818655 -1.57387 0
M  V30 3205 C 308.861 0.436412 -1.53517 0
M  V30 3206 C 309.061 1.79758 -0.910459 0
M  V30 3207 O 308.117 2.47324 -0.508636 0
M  V30 3208 C 309.43 0.386734 -2.98203 0
M  V30 3209 C 310.978 0.467644 -3.09487 0
M  V30 3210 C 311.453 0.447978 -4.55804 0
M  V30 3211 N 312.944 0.508348 -4.60402 0
M  V30 3212 C 313.679 0.515184 -5.71081 0
M  V30 3213 N 313.175 0.477435 -6.91153 0
M  V30 3214 N 314.968 0.560988 -5.59294 0
M  V30 3215 H 307.119 -0.809546 -1.96367 0
M  V30 3216 H 309.382 -0.302733 -0.898363 0
M  V30 3217 H 309.088 -0.546539 -3.47427 0
M  V30 3218 H 308.962 1.20075 -3.57578 0
M  V30 3219 H 311.349 1.39134 -2.60242 0
M  V30 3220 H 311.43 -0.374753 -2.5304 0
M  V30 3221 H 311.074 -0.471826 -5.05704 0
M  V30 3222 H 311.004 1.30777 -5.10103 0
M  V30 3223 H 313.495 0.54218 -3.7399 0
M  V30 3224 H 313.808 0.486299 -7.71268 0
M  V30 3225 H 312.153 0.444278 -6.93579 0
M  V30 3226 H 315.344 0.5881 -4.64391 0
M  V30 3227 H 315.517 0.562846 -6.45551 0
M  V30 3228 N 308.923 1.53595 0.353017 0
M  V30 3229 C 310.171 1.70049 1.09215 0
M  V30 3230 C 310.492 0.461406 1.89463 0
M  V30 3231 O 309.762 -0.524633 1.88744 0
M  V30 3232 H 308.342 0.626912 0.40619 0
M  V30 3233 H 311.004 1.90822 0.396585 0
M  V30 3234 H 310.1 2.56718 1.77488 0
M  V30 3235 N 310.401 -0.613514 1.45168 0
M  V30 3236 C 311.812 -1.19539 1.43413 0
M  V30 3237 C 312.163 -1.95558 0.158632 0
M  V30 3238 O 311.288 -2.0335 -0.740119 0
M  V30 3239 C 311.883 -2.17445 2.59813 0
M  V30 3240 C 310.442 -2.71022 2.61197 0
M  V30 3241 C 309.589 -1.46323 2.35552 0
M  V30 3242 H 312.54 -0.403163 1.53494 0
M  V30 3243 H 312.561 -3.00373 2.33574 0
M  V30 3244 H 312.073 -1.62089 3.52631 0
M  V30 3245 H 310.174 -3.30332 1.7237 0
M  V30 3246 H 310.287 -3.15859 3.60236 0
M  V30 3247 H 308.651 -1.75072 1.84992 0
M  V30 3248 H 309.434 -0.92844 3.30507 0
M  V30 3249 N 311.879 -1.3236 -0.855495 0
M  V30 3250 C 312.809 -1.23833 -1.97958 0
M  V30 3251 C 313.79 -0.122361 -1.69659 0
M  V30 3252 O 314.975 -0.30939 -1.9172 0
M  V30 3253 C 312.105 -0.959772 -3.33775 0
M  V30 3254 C 311.059 -2.03689 -3.76424 0
M  V30 3255 C 310.385 -1.61075 -5.09862 0
M  V30 3256 C 311.685 -3.4518 -3.9198 0
M  V30 3257 H 313.379 -2.1788 -2.0535 0
M  V30 3258 H 310.925 -1.04891 -0.986605 0
M  V30 3259 H 312.878 -0.886678 -4.11966 0
M  V30 3260 H 311.602 0.0163404 -3.26596 0
M  V30 3261 H 310.261 -2.10012 -3.00484 0
M  V30 3262 H 309.909 -0.622107 -4.99138 0
M  V30 3263 H 309.609 -2.33143 -5.39368 0
M  V30 3264 H 311.133 -1.55201 -5.90546 0
M  V30 3265 H 312.547 -3.4145 -4.60526 0
M  V30 3266 H 310.944 -4.1559 -4.32903 0
M  V30 3267 H 312.014 -3.84903 -2.94919 0
M  V30 3268 N 313.357 1.07166 -1.15556 0
M  V30 3269 C 314.582 1.84053 -0.955988 0
M  V30 3270 C 315.007 1.81586 0.490739 0
M  V30 3271 O 314.365 1.21018 1.34997 0
M  V30 3272 C 314.413 3.28957 -1.47714 0
M  V30 3273 O 313.517 4.06795 -0.677593 0
M  V30 3274 H 312.858 0.569842 -0.340847 0
M  V30 3275 H 315.388 1.35178 -1.53584 0
M  V30 3276 H 315.398 3.79788 -1.4908 0
M  V30 3277 H 314.073 3.30068 -2.53037 0
M  V30 3278 H 312.65 3.6561 -0.733721 0
M  V30 3279 N 314.835 0.952656 1.25548 0
M  V30 3280 C 316.081 0.616826 1.93822 0
M  V30 3281 C 316.436 -0.836684 1.73255 0
M  V30 3282 O 315.729 -1.59218 1.06584 0
M  V30 3283 C 315.923 0.908818 3.45652 0
M  V30 3284 C 315.752 2.38916 3.80984 0
M  V30 3285 C 314.522 3.04637 4.03143 0
M  V30 3286 C 316.72 3.36838 3.88645 0
M  V30 3287 N 314.702 4.42565 4.25453 0
M  V30 3288 C 316.073 4.60065 4.1562 0
M  V30 3289 C 318.128 3.31704 3.71318 0
M  V30 3290 C 316.831 5.78795 4.2707 0
M  V30 3291 C 318.857 4.4977 3.84006 0
M  V30 3292 C 318.219 5.71783 4.11392 0
M  V30 3293 H 314.318 0.27629 0.731565 0
M  V30 3294 H 316.902 1.22443 1.5138 0
M  V30 3295 H 315.073 0.330166 3.86994 0
M  V30 3296 H 316.805 0.533093 4.01174 0
M  V30 3297 H 313.56 2.55215 3.98952 0
M  V30 3298 H 313.984 5.1399 4.40617 0
M  V30 3299 H 318.626 2.3842 3.49164 0
M  V30 3300 H 316.344 6.72521 4.48041 0
M  V30 3301 H 319.93 4.47342 3.71989 0
M  V30 3302 H 318.81 6.61617 4.2099 0
M  V30 3303 N 316.313 -1.40141 0.720998 0
M  V30 3304 C 317.541 -2.05096 0.272656 0
M  V30 3305 C 317.956 -1.54334 -1.0875 0
M  V30 3306 O 317.313 -0.702211 -1.6845 0
M  V30 3307 C 317.364 -3.60636 0.249835 0
M  V30 3308 O 317.085 -4.09526 1.55629 0
M  V30 3309 C 318.586 -4.42772 -0.216396 0
M  V30 3310 H 315.806 -0.659897 0.121558 0
M  V30 3311 H 318.35 -1.79449 0.980723 0
M  V30 3312 H 316.505 -3.85232 -0.409237 0
M  V30 3313 H 316.919 -5.03758 1.4604 0
M  V30 3314 H 318.393 -5.51702 -0.181212 0
M  V30 3315 H 318.87 -4.20756 -1.25941 0
M  V30 3316 H 319.476 -4.23294 0.412596 0
M  V30 3317 N 317.792 -0.46758 -1.50504 0
M  V30 3318 C 318.742 0.34698 -2.25344 0
M  V30 3319 C 319.726 0.964469 -1.2879 0
M  V30 3320 O 320.918 0.8776 -1.53711 0
M  V30 3321 C 318.047 1.43042 -3.1208 0
M  V30 3322 C 317.133 0.82084 -4.16081 0
M  V30 3323 N 317.524 -0.0567602 -5.05768 0
M  V30 3324 C 315.822 1.08517 -4.32597 0
M  V30 3325 C 316.523 -0.402343 -5.80307 0
M  V30 3326 N 315.499 0.221607 -5.43148 0
M  V30 3327 H 319.301 -0.329129 -2.92051 0
M  V30 3328 H 316.815 -0.281508 -1.59942 0
M  V30 3329 H 318.812 2.02712 -3.64299 0
M  V30 3330 H 317.472 2.10856 -2.46921 0
M  V30 3331 H 318.483 -0.425349 -5.1615 0
M  V30 3332 H 315.16 1.75855 -3.78657 0
M  V30 3333 H 316.55 -1.11834 -6.62528 0
M  V30 3334 N 319.27 1.56325 -0.20005 0
M  V30 3335 C 320.516 1.98012 0.438059 0
M  V30 3336 C 320.849 1.08702 1.60927 0
M  V30 3337 O 320.124 0.140064 1.93995 0
M  V30 3338 C 320.407 3.48841 0.893419 0
M  V30 3339 C 320.26 4.48928 -0.279947 0
M  V30 3340 C 321.579 4.03498 1.75719 0
M  V30 3341 H 318.698 0.719918 0.157757 0
M  V30 3342 H 321.34 1.87743 -0.291968 0
M  V30 3343 H 319.49 3.57723 1.51547 0
M  V30 3344 H 321.162 4.52079 -0.91772 0
M  V30 3345 H 319.405 4.23694 -0.930919 0
M  V30 3346 H 320.076 5.5194 0.0812601 0
M  V30 3347 H 322.552 3.97427 1.23253 0
M  V30 3348 H 321.428 5.09393 2.04476 0
M  V30 3349 H 321.689 3.4906 2.71311 0
M  V30 3350 N 320.748 -0.0735177 1.57428 0
M  V30 3351 C 321.698 -1.09442 2.00016 0
M  V30 3352 C 322.682 -1.34575 0.881947 0
M  V30 3353 O 323.874 -1.34905 1.14585 0
M  V30 3354 C 321.003 -2.40865 2.4462 0
M  V30 3355 C 320.089 -2.19014 3.63172 0
M  V30 3356 N 320.48 -1.67087 4.77405 0
M  V30 3357 C 318.778 -2.49494 3.69688 0
M  V30 3358 C 319.479 -1.6001 5.5926 0
M  V30 3359 N 318.455 -2.05999 5.03056 0
M  V30 3360 H 322.257 -0.686227 2.85776 0
M  V30 3361 H 319.771 -0.280617 1.59957 0
M  V30 3362 H 321.768 -3.14763 2.73368 0
M  V30 3363 H 320.428 -2.82403 1.60246 0
M  V30 3364 H 321.439 -1.35975 4.99731 0
M  V30 3365 H 318.116 -2.94409 2.96023 0
M  V30 3366 H 319.506 -1.2073 6.60964 0
M  V30 3367 N 322.226 -1.5378 -0.344866 0
M  V30 3368 C 323.637 -1.62428 -0.920552 0
M  V30 3369 C 323.988 -0.504747 -1.89596 0
M  V30 3370 O 323.113 0.365711 -2.13287 0
M  V30 3371 C 323.708 -2.94419 -1.67639 0
M  V30 3372 C 322.267 -3.05333 -2.20111 0
M  V30 3373 C 321.414 -2.57866 -1.01982 0
M  V30 3374 H 324.365 -1.58222 -0.123042 0
M  V30 3375 H 324.386 -2.83384 -2.53917 0
M  V30 3376 H 323.898 -3.7588 -0.966224 0
M  V30 3377 H 321.999 -2.28502 -2.94308 0
M  V30 3378 H 322.112 -4.10778 -2.46573 0
M  V30 3379 H 320.476 -2.13241 -1.39285 0
M  V30 3380 H 321.259 -3.41765 -0.324308 0
M  V30 3381 N 323.704 0.605807 -1.45491 0
M  V30 3382 C 324.651 1.7164 -1.54299 0
M  V30 3383 C 325.621 1.61486 -0.388761 0
M  V30 3384 O 326.806 1.81039 -0.602445 0
M  V30 3385 C 323.946 3.09953 -1.51734 0
M  V30 3386 C 323.059 3.309 -2.77721 0
M  V30 3387 C 322.194 4.59329 -2.66816 0
M  V30 3388 C 321.233 4.7354 -3.87848 0
M  V30 3389 N 320.37 5.9327 -3.75467 0
M  V30 3390 H 325.21 1.63449 -2.49176 0
M  V30 3391 H 322.747 0.796957 -1.23641 0
M  V30 3392 H 324.705 3.89977 -1.48235 0
M  V30 3393 H 323.335 3.17098 -0.604068 0
M  V30 3394 H 322.387 2.44639 -2.913 0
M  V30 3395 H 323.699 3.37274 -3.67488 0
M  V30 3396 H 322.853 5.4755 -2.61292 0
M  V30 3397 H 321.592 4.55355 -1.74651 0
M  V30 3398 H 320.597 3.83741 -3.93729 0
M  V30 3399 H 321.822 4.79309 -4.81082 0
M  V30 3400 H 319.768 5.90338 -2.86072 0
M  V30 3401 H 319.685 6.00811 -4.5887 0
M  V30 3402 H 320.953 6.83984 -3.73879 0
M  V30 3403 N 325.182 1.32811 0.848464 0
M  V30 3404 C 326.43 1.23479 1.59991 0
M  V30 3405 C 326.751 -0.201853 1.93952 0
M  V30 3406 O 326.021 -1.12818 1.60153 0
M  V30 3407 H 324.601 0.454034 0.593179 0
M  V30 3408 H 327.263 1.66412 1.01455 0
M  V30 3409 H 326.359 1.82178 2.53412 0
M  V30 3410 N 326.66 -1.06551 1.16123 0
M  V30 3411 C 328.071 -1.60768 0.949232 0
M  V30 3412 C 328.422 -1.89523 -0.507508 0
M  V30 3413 O 327.547 -1.66671 -1.38021 0
M  V30 3414 C 328.142 -2.92086 1.71671 0
M  V30 3415 C 326.701 -3.43015 1.54977 0
M  V30 3416 C 325.848 -2.16947 1.72711 0
M  V30 3417 H 328.799 -0.895354 1.31031 0
M  V30 3418 H 328.82 -3.6138 1.19099 0
M  V30 3419 H 328.332 -2.71127 2.7769 0
M  V30 3420 H 326.433 -3.69039 0.513873 0
M  V30 3421 H 326.546 -4.18516 2.33198 0
M  V30 3422 H 324.91 -2.27041 1.15431 0
M  V30 3423 H 325.693 -1.98473 2.80113 0
M  V30 3424 N 328.138 -0.959301 -1.25041 0
M  V30 3425 C 329.085 -0.482057 -2.2571 0
M  V30 3426 C 330.055 0.467939 -1.59372 0
M  V30 3427 O 331.24 0.380159 -1.86974 0
M  V30 3428 C 328.38 0.229623 -3.44335 0
M  V30 3429 C 327.493 -0.758156 -4.25295 0
M  V30 3430 C 326.628 -0.0234403 -5.31195 0
M  V30 3431 C 325.667 -1.00184 -6.03846 0
M  V30 3432 N 324.804 -0.29769 -7.01469 0
M  V30 3433 H 329.644 -1.34538 -2.65901 0
M  V30 3434 H 327.181 -0.674592 -1.3072 0
M  V30 3435 H 329.139 0.658856 -4.11965 0
M  V30 3436 H 327.769 1.05696 -3.05005 0
M  V30 3437 H 326.821 -1.30586 -3.57284 0
M  V30 3438 H 328.133 -1.50458 -4.75567 0
M  V30 3439 H 327.287 0.464201 -6.04922 0
M  V30 3440 H 326.026 0.755741 -4.81809 0
M  V30 3441 H 325.031 -1.50044 -5.2893 0
M  V30 3442 H 326.256 -1.78133 -6.55321 0
M  V30 3443 H 324.202 0.462668 -6.54366 0
M  V30 3444 H 324.119 -0.983128 -7.4958 0
M  V30 3445 H 325.387 0.16826 -7.79318 0
M  V30 3446 N 329.616 1.39756 -0.72842 0
M  V30 3447 C 330.841 2.05472 -0.282159 0
M  V30 3448 C 331.266 1.54549 1.07221 0
M  V30 3449 O 330.624 0.686372 1.67805 0
M  V30 3450 C 330.672 3.59462 -0.286264 0
M  V30 3451 O 329.776 4.05918 0.728298 0
M  V30 3452 H 329.117 0.651226 -0.129618 0
M  V30 3453 H 331.647 1.78915 -0.992499 0
M  V30 3454 H 331.657 4.07798 -0.128373 0
M  V30 3455 H 330.332 3.95889 -1.27456 0
M  V30 3456 H 328.909 3.69012 0.537081 0
M  V30 3457 N 331.094 0.475555 1.50254 0
M  V30 3458 C 332.024 -0.30611 2.31485 0
M  V30 3459 C 333.005 -0.986228 1.38591 0
M  V30 3460 O 334.19 -0.982541 1.67511 0
M  V30 3461 C 331.32 -1.38588 3.1845 0
M  V30 3462 C 330.274 -0.827115 4.19932 0
M  V30 3463 C 329.6 -2.00551 4.95665 0
M  V30 3464 C 330.9 0.16463 5.2204 0
M  V30 3465 H 332.594 0.371866 2.97082 0
M  V30 3466 H 330.14 0.180282 1.42867 0
M  V30 3467 H 332.093 -1.94023 3.74076 0
M  V30 3468 H 330.817 -2.09269 2.50747 0
M  V30 3469 H 329.476 -0.294702 3.65414 0
M  V30 3470 H 329.124 -2.6994 4.2443 0
M  V30 3471 H 328.824 -1.63784 5.64313 0
M  V30 3472 H 330.348 -2.56468 5.54127 0
M  V30 3473 H 331.762 -0.300699 5.72511 0
M  V30 3474 H 330.159 0.446813 5.98434 0
M  V30 3475 H 331.229 1.08905 4.72512 0
M  V30 3476 N 332.573 -1.56217 0.208337 0
M  V30 3477 C 333.503 -2.22694 -0.702116 0
M  V30 3478 C 334.484 -1.19432 -1.2112 0
M  V30 3479 O 335.669 -1.47978 -1.25762 0
M  V30 3480 C 332.799 -2.8966 -1.9161 0
M  V30 3481 C 331.753 -3.9928 -1.5414 0
M  V30 3482 C 331.079 -4.53476 -2.83308 0
M  V30 3483 C 332.379 -5.17012 -0.741339 0
M  V30 3484 H 334.073 -2.99034 -0.147898 0
M  V30 3485 H 331.619 -1.43831 -0.0696951 0
M  V30 3486 H 333.572 -3.34852 -2.55836 0
M  V30 3487 H 332.296 -2.10746 -2.49507 0
M  V30 3488 H 330.955 -3.54799 -0.922668 0
M  V30 3489 H 330.603 -3.71308 -3.39322 0
M  V30 3490 H 330.303 -5.27451 -2.58976 0
M  V30 3491 H 331.827 -5.01378 -3.485 0
M  V30 3492 H 333.241 -5.58667 -1.28699 0
M  V30 3493 H 331.638 -5.97137 -0.595627 0
M  V30 3494 H 332.708 -4.8423 0.254851 0
M  V30 3495 N 334.051 0.0651679 -1.57465 0
M  V30 3496 C 335.276 0.779605 -1.9219 0
M  V30 3497 C 335.701 1.69988 -0.805333 0
M  V30 3498 O 335.059 1.79685 0.241435 0
M  V30 3499 C 335.107 1.54364 -3.2589 0
M  V30 3500 O 334.211 2.65474 -3.1559 0
M  V30 3501 H 333.552 0.212249 -0.629163 0
M  V30 3502 H 336.082 0.0314294 -2.04576 0
M  V30 3503 H 336.092 1.92146 -3.59922 0
M  V30 3504 H 334.767 0.868457 -4.06732 0
M  V30 3505 H 333.344 2.30501 -2.93128 0
M  V30 3506 N 335.529 1.53961 0.336706 0
M  V30 3507 C 336.459 1.85417 1.41925 0
M  V30 3508 C 337.44 0.709856 1.5458 0
M  V30 3509 O 338.625 0.962396 1.68676 0
M  V30 3510 C 335.755 2.06985 2.78881 0
M  V30 3511 C 334.709 3.22813 2.81026 0
M  V30 3512 C 334.035 3.29727 4.20932 0
M  V30 3513 C 335.335 4.60767 2.45949 0
M  V30 3514 H 337.029 2.76079 1.15848 0
M  V30 3515 H 334.575 1.32839 0.555859 0
M  V30 3516 H 336.528 2.27575 3.54665 0
M  V30 3517 H 335.252 1.13061 3.06406 0
M  V30 3518 H 333.911 3.0209 2.07695 0
M  V30 3519 H 333.559 2.33385 4.45579 0
M  V30 3520 H 333.259 4.07566 4.23277 0
M  V30 3521 H 334.783 3.52536 4.98549 0
M  V30 3522 H 336.197 4.81325 3.11446 0
M  V30 3523 H 334.594 5.4106 2.59566 0
M  V30 3524 H 335.664 4.6391 1.41122 0
M  V30 3525 N 337.007 -0.598083 1.45811 0
M  V30 3526 C 337.917 -1.73632 1.57763 0
M  V30 3527 C 338.933 -1.67763 0.461676 0
M  V30 3528 O 340.109 -1.87949 0.723685 0
M  V30 3529 C 337.174 -3.10114 1.55018 0
M  V30 3530 C 336.235 -3.27364 2.77726 0
M  V30 3531 C 335.468 -4.57334 2.75102 0
M  V30 3532 O 335.691 -5.40258 1.8297 0
M  V30 3533 O 334.625 -4.77502 3.66437 0
M  V30 3534 H 338.451 -1.66498 2.53992 0
M  V30 3535 H 336.036 -0.763308 1.28429 0
M  V30 3536 H 337.918 -3.9141 1.56129 0
M  V30 3537 H 336.593 -3.17718 0.619431 0
M  V30 3538 H 335.5 -2.45619 2.82174 0
M  V30 3539 H 336.833 -3.24641 3.69958 0
M  V30 3540 N 338.485 -1.33259 -0.841409 0
M  V30 3541 C 339.415 -1.25926 -1.96634 0
M  V30 3542 C 340.396 -0.140349 -1.6952 0
M  V30 3543 O 341.581 -0.329707 -1.91381 0
M  V30 3544 C 338.711 -0.99512 -3.32738 0
M  V30 3545 C 337.665 -2.0767 -3.74242 0
M  V30 3546 C 336.991 -1.66474 -5.08125 0
M  V30 3547 C 338.291 -3.49318 -3.88297 0
M  V30 3548 H 339.985 -2.20046 -2.03027 0
M  V30 3549 H 337.531 -1.05931 -0.975425 0
M  V30 3550 H 339.484 -0.930323 -4.11002 0
M  V30 3551 H 338.208 -0.0183004 -3.26595 0
M  V30 3552 H 336.867 -2.13187 -2.98239 0
M  V30 3553 H 336.515 -0.675012 -4.9845 0
M  V30 3554 H 336.215 -2.3885 -5.36865 0
M  V30 3555 H 337.739 -1.61455 -5.88867 0
M  V30 3556 H 339.153 -3.46316 -4.56879 0
M  V30 3557 H 337.55 -4.20158 -4.28471 0
M  V30 3558 H 338.62 -3.8801 -2.9082 0
M  V30 3559 N 339.963 1.05934 -1.16686 0
M  V30 3560 C 340.91 2.13499 -0.876748 0
M  V30 3561 C 341.88 1.65162 0.176299 0
M  V30 3562 O 343.065 1.90757 0.0407143 0
M  V30 3563 C 340.205 3.42912 -0.387967 0
M  V30 3564 C 339.318 4.04964 -1.50426 0
M  V30 3565 C 338.453 5.22266 -0.970125 0
M  V30 3566 C 337.492 5.76309 -2.06238 0
M  V30 3567 N 336.629 6.84922 -1.54356 0
M  V30 3568 H 341.469 2.37654 -1.7979 0
M  V30 3569 H 339.006 1.16598 -0.896843 0
M  V30 3570 H 340.964 4.17111 -0.086186 0
M  V30 3571 H 339.594 3.18963 0.496235 0
M  V30 3572 H 338.646 3.28277 -1.92193 0
M  V30 3573 H 339.958 4.41122 -2.32836 0
M  V30 3574 H 339.112 6.03506 -0.621743 0
M  V30 3575 H 337.851 4.87564 -0.115377 0
M  V30 3576 H 336.856 4.93704 -2.41942 0
M  V30 3577 H 338.081 6.13062 -2.92115 0
M  V30 3578 H 336.027 6.52131 -0.711406 0
M  V30 3579 H 335.944 7.20043 -2.30379 0
M  V30 3580 H 337.212 7.69832 -1.22387 0
M  V30 3581 N 341.441 0.965919 1.2453 0
M  V30 3582 C 342.718 0.543777 1.87889 0
M  V30 3583 C 343.098 -0.97909 1.87021 0
M  V30 3584 O 342.446 -1.84969 1.3416 0
M  V30 3585 C 342.656 1.13327 3.30088 0
M  V30 3586 C 344.004 1.21707 4.06783 0
M  V30 3587 O 345.028 1.08566 3.39252 0
M  V30 3588 O 343.887 1.42456 5.27606 0
M  V30 3589 H 340.981 0.181054 0.806938 0
M  V30 3590 H 343.527 1.06007 1.32516 0
M  V30 3591 H 342.299 2.17612 3.25209 0
M  V30 3592 H 341.922 0.600911 3.93033 0
M  V30 3593 N 342.919 -1.39368 0.735821 0
M  V30 3594 C 344.196 -1.94465 0.210395 0
M  V30 3595 C 344.576 -1.67254 -1.28799 0
M  V30 3596 O 343.924 -1.00123 -2.05396 0
M  V30 3597 C 344.134 -3.4472 0.544897 0
M  V30 3598 C 345.482 -4.21708 0.494689 0
M  V30 3599 O 346.506 -3.52922 0.482136 0
M  V30 3600 O 345.365 -5.44299 0.489947 0
M  V30 3601 H 342.459 -0.826096 0.0386666 0
M  V30 3602 H 345.005 -1.48863 0.814735 0
M  V30 3603 H 343.777 -3.57963 1.58045 0
M  V30 3604 H 343.4 -3.97502 -0.08837 0
M  V30 3605 N 344.397 -0.483516 -1.5 0
M  V30 3606 C 345.813 -0.138404 -1.58999 0
M  V30 3607 C 346.013 1.35597 -1.4905 0
M  V30 3608 O 345.069 2.13039 -1.35539 0
M  V30 3609 C 346.382 -0.699658 -2.92447 0
M  V30 3610 C 347.93 -0.664195 -3.05872 0
M  V30 3611 C 348.405 -1.20321 -4.41913 0
M  V30 3612 N 349.896 -1.16315 -4.48358 0
M  V30 3613 C 350.631 -1.55058 -5.52037 0
M  V30 3614 N 350.127 -2.01311 -6.62907 0
M  V30 3615 N 351.92 -1.46584 -5.42651 0
M  V30 3616 H 344.071 -1.45529 -1.5471 0
M  V30 3617 H 346.334 -0.60258 -0.731848 0
M  V30 3618 H 346.04 -1.747 -3.05242 0
M  V30 3619 H 345.914 -0.150194 -3.76901 0
M  V30 3620 H 348.301 0.374272 -2.92717 0
M  V30 3621 H 348.382 -1.25061 -2.23144 0
M  V30 3622 H 348.026 -2.24037 -4.55818 0
M  V30 3623 H 347.956 -0.592896 -5.23252 0
M  V30 3624 H 350.447 -0.824058 -3.68806 0
M  V30 3625 H 350.76 -2.2899 -7.38095 0
M  V30 3626 H 349.105 -2.05273 -6.63994 0
M  V30 3627 H 352.296 -1.10281 -4.54924 0
M  V30 3628 H 352.469 -1.77103 -6.23329 0
M  V30 3629 N 345.875 1.56104 -0.216619 0
M  V30 3630 C 347.286 1.844 0.292128 0
M  V30 3631 C 347.637 1.13788 1.59833 0
M  V30 3632 O 346.762 0.405888 2.12559 0
M  V30 3633 C 347.357 3.3452 0.53681 0
M  V30 3634 C 345.916 3.63151 0.989876 0
M  V30 3635 C 345.063 2.77255 0.0502302 0
M  V30 3636 H 348.014 1.52481 -0.439926 0
M  V30 3637 H 348.035 3.54459 1.38345 0
M  V30 3638 H 347.547 3.85885 -0.414031 0
M  V30 3639 H 345.648 3.17238 1.95425 0
M  V30 3640 H 345.761 4.71177 0.867698 0
M  V30 3641 H 344.125 2.48555 0.556117 0
M  V30 3642 H 344.908 3.31416 -0.89544 0
M  V30 3643 N 347.353 -0.0568162 1.57498 0
M  V30 3644 C 348.316 -1.05038 2.03715 0
M  V30 3645 C 349.316 -1.30709 0.936577 0
M  V30 3646 O 350.506 -1.26178 1.20103 0
M  V30 3647 C 347.638 -2.39034 2.43055 0
M  V30 3648 H 348.831 -0.651715 2.92733 0
M  V30 3649 H 346.384 -0.302947 1.53336 0
M  V30 3650 H 347.119 -2.83703 1.57108 0
M  V30 3651 H 346.904 -2.21739 3.2338 0
M  V30 3652 H 348.394 -3.10421 2.79336 0
M  V30 3653 N 348.832 -1.54138 -0.328536 0
M  V30 3654 C 350.248 -1.44736 -0.672574 0
M  V30 3655 C 350.448 -0.616217 -1.91846 0
M  V30 3656 O 349.504 -0.113067 -2.52247 0
M  V30 3657 C 350.817 -2.884 -0.851217 0
M  V30 3658 C 352.365 -2.98271 -0.948877 0
M  V30 3659 C 352.84 -4.43074 -1.15973 0
M  V30 3660 N 354.331 -4.46665 -1.22658 0
M  V30 3661 C 355.066 -5.55857 -1.40751 0
M  V30 3662 N 354.562 -6.75026 -1.5592 0
M  V30 3663 N 356.355 -5.43495 -1.4342 0
M  V30 3664 H 348.506 -2.06661 0.490421 0
M  V30 3665 H 350.769 -0.934812 0.157579 0
M  V30 3666 H 350.475 -3.51699 -0.00704236 0
M  V30 3667 H 350.349 -3.34225 -1.74853 0
M  V30 3668 H 352.736 -2.35102 -1.78356 0
M  V30 3669 H 352.817 -2.55785 -0.0281435 0
M  V30 3670 H 352.461 -5.06827 -0.329915 0
M  V30 3671 H 352.391 -4.83165 -2.09426 0
M  V30 3672 H 354.882 -3.60797 -1.124 0
M  V30 3673 H 355.195 -7.54004 -1.69404 0
M  V30 3674 H 353.54 -6.77944 -1.53027 0
M  V30 3675 H 356.731 -4.49349 -1.31162 0
M  V30 3676 H 356.904 -6.28649 -1.57178 0
M  V30 3677 N 350.31 0.590341 -1.46126 0
M  V30 3678 C 351.587 1.35029 -1.41515 0
M  V30 3679 C 351.967 2.10888 -0.0946472 0
M  V30 3680 O 351.315 2.08998 0.923693 0
M  V30 3681 C 351.525 2.28269 -2.63997 0
M  V30 3682 C 352.873 2.90338 -3.09821 0
M  V30 3683 O 353.897 2.38585 -2.64492 0
M  V30 3684 O 352.756 3.84321 -3.88535 0
M  V30 3685 H 349.85 0.606317 -0.562413 0
M  V30 3686 H 352.396 0.611994 -1.58281 0
M  V30 3687 H 351.168 1.71591 -3.51671 0
M  V30 3688 H 350.791 3.0945 -2.49652 0
M  V30 3689 N 351.788 1.33704 0.83433 0
M  V30 3690 C 352.721 1.18675 1.94914 0
M  V30 3691 C 353.699 0.0811145 1.62398 0
M  V30 3692 O 354.883 0.244186 1.86912 0
M  V30 3693 C 352.01 0.821231 3.28593 0
M  V30 3694 C 351.056 1.93501 3.80079 0
M  V30 3695 S 351.889 3.54671 4.01209 0
M  V30 3696 C 353.045 3.20136 5.37833 0
M  V30 3697 H 353.278 2.13043 2.07364 0
M  V30 3698 H 350.811 1.18598 0.988624 0
M  V30 3699 H 352.769 0.617123 4.05835 0
M  V30 3700 H 351.43 -0.103927 3.13928 0
M  V30 3701 H 350.623 1.63273 4.76821 0
M  V30 3702 H 350.225 2.09601 3.09747 0
M  V30 3703 H 352.517 2.71242 6.20833 0
M  V30 3704 H 353.46 4.15975 5.73036 0
M  V30 3705 H 353.868 2.56613 5.02802 0
M  V30 3706 N 353.266 -1.05314 1.17247 0
M  V30 3707 C 354.512 -1.78699 0.971513 0
M  V30 3708 C 354.867 -1.85932 -0.494692 0
M  V30 3709 O 354.16 -1.34716 -1.36243 0
M  V30 3710 C 354.354 -3.2229 1.54479 0
M  V30 3711 C 354.183 -3.29052 3.06521 0
M  V30 3712 C 352.953 -3.3841 3.75242 0
M  V30 3713 C 355.151 -3.18095 4.04129 0
M  V30 3714 N 353.133 -3.34289 5.14902 0
M  V30 3715 C 354.504 -3.21331 5.30232 0
M  V30 3716 C 356.559 -3.02049 3.95817 0
M  V30 3717 C 355.262 -3.10169 6.4899 0
M  V30 3718 C 357.288 -2.92228 5.14156 0
M  V30 3719 C 356.65 -2.96096 6.39145 0
M  V30 3720 H 352.749 -0.66628 0.409383 0
M  V30 3721 H 355.333 -1.25553 1.4881 0
M  V30 3722 H 353.504 -3.7381 1.05455 0
M  V30 3723 H 355.236 -3.83905 1.28059 0
M  V30 3724 H 351.991 -3.43621 3.25917 0
M  V30 3725 H 352.415 -3.35702 5.87906 0
M  V30 3726 H 357.057 -2.97897 3.00029 0
M  V30 3727 H 354.775 -3.13076 7.44989 0
M  V30 3728 H 358.361 -2.80885 5.09505 0
M  V30 3729 H 357.241 -2.88568 7.29176 0
M  V30 3730 N 354.744 -0.972509 -1.24016 0
M  V30 3731 C 355.99 -0.637978 -1.92504 0
M  V30 3732 C 356.323 0.825383 -1.75787 0
M  V30 3733 O 355.598 1.59442 -1.11393 0
M  V30 3734 C 355.881 -1.01942 -3.45369 0
M  V30 3735 C 355.734 -2.53983 -3.71231 0
M  V30 3736 C 357.053 -0.55751 -4.36555 0
M  V30 3737 H 354.172 -0.233248 -0.699117 0
M  V30 3738 H 356.814 -1.21238 -1.46292 0
M  V30 3739 H 354.964 -0.530656 -3.84859 0
M  V30 3740 H 356.636 -3.10374 -3.41271 0
M  V30 3741 H 354.879 -2.96968 -3.16216 0
M  V30 3742 H 355.55 -2.75723 -4.78206 0
M  V30 3743 H 358.026 -0.977029 -4.04467 0
M  V30 3744 H 356.902 -0.85292 -5.42233 0
M  V30 3745 H 357.163 0.542328 -4.38761 0
M  V30 3746 N 356.222 1.38976 -0.743202 0
M  V30 3747 C 357.155 2.28128 -0.0572165 0
M  V30 3748 C 358.133 1.44827 0.739182 0
M  V30 3749 O 359.317 1.74207 0.720009 0
M  V30 3750 C 356.444 3.25796 0.926001 0
M  V30 3751 C 355.49 4.25947 0.217099 0
M  V30 3752 S 356.323 5.24604 -1.07477 0
M  V30 3753 C 357.479 6.25829 -0.0943545 0
M  V30 3754 H 357.712 2.85961 -0.813246 0
M  V30 3755 H 355.245 1.44822 -0.535341 0
M  V30 3756 H 357.203 3.82583 1.48797 0
M  V30 3757 H 355.864 2.66966 1.65493 0
M  V30 3758 H 355.057 4.94746 0.961372 0
M  V30 3759 H 354.659 3.73002 -0.273059 0
M  V30 3760 H 356.951 6.73411 0.743239 0
M  V30 3761 H 357.894 7.0412 -0.749713 0
M  V30 3762 H 358.302 5.63797 0.281706 0
M  V30 3763 N 357.7 0.491464 1.49741 0
M  V30 3764 C 358.61 -0.296835 2.32715 0
M  V30 3765 C 359.626 -0.976536 1.44013 0
M  V30 3766 O 360.802 -0.960023 1.77047 0
M  V30 3767 C 357.867 -1.35288 3.19215 0
M  V30 3768 C 356.928 -0.687632 4.23757 0
M  V30 3769 C 356.161 -1.69336 5.06123 0
M  V30 3770 O 356.384 -2.92219 4.89861 0
M  V30 3771 O 355.318 -1.25394 5.88693 0
M  V30 3772 H 359.144 0.382048 3.01287 0
M  V30 3773 H 356.729 0.252953 1.47243 0
M  V30 3774 H 358.611 -1.96411 3.72828 0
M  V30 3775 H 357.286 -2.01487 2.53347 0
M  V30 3776 H 356.193 -0.0369159 3.74082 0
M  V30 3777 H 357.526 -0.0682566 4.92153 0
M  V30 3778 N 359.178 -1.55987 0.224894 0
M  V30 3779 C 360.406 -2.02784 -0.410665 0
M  V30 3780 C 360.821 -1.10464 -1.53112 0
M  V30 3781 O 360.178 -0.114871 -1.82138 0
M  V30 3782 C 360.229 -3.49087 -0.939165 0
M  V30 3783 O 359.95 -4.37887 0.136614 0
M  V30 3784 C 361.451 -4.11543 -1.64763 0
M  V30 3785 H 358.671 -0.663484 -0.100148 0
M  V30 3786 H 361.215 -2.01614 0.342326 0
M  V30 3787 H 359.37 -3.50861 -1.64242 0
M  V30 3788 H 359.784 -5.23849 -0.261155 0
M  V30 3789 H 361.258 -5.15673 -1.96939 0
M  V30 3790 H 361.735 -3.56736 -2.56195 0
M  V30 3791 H 362.341 -4.13629 -0.989503 0
M  V30 3792 N 360.656 0.0484629 -1.57525 0
M  V30 3793 C 361.904 0.741657 -1.88 0
M  V30 3794 C 362.225 1.76918 -0.820054 0
M  V30 3795 O 361.495 1.95335 0.148661 0
M  V30 3796 H 360.075 0.276908 -0.69378 0
M  V30 3797 H 362.737 0.019013 -1.94891 0
M  V30 3798 H 361.833 1.24336 -2.86264 0
M  V30 3799 N 362.134 1.5431 0.320358 0
M  V30 3800 C 363.064 1.86912 1.3995 0
M  V30 3801 C 364.045 0.726211 1.53819 0
M  V30 3802 O 365.23 0.980233 1.67646 0
M  V30 3803 C 362.36 2.09932 2.7667 0
M  V30 3804 C 361.314 3.25776 2.77586 0
M  V30 3805 C 360.64 3.34173 4.17412 0
M  V30 3806 C 361.94 4.6335 2.41048 0
M  V30 3807 H 363.634 2.77292 1.12914 0
M  V30 3808 H 361.18 1.33421 0.541738 0
M  V30 3809 H 363.133 2.31324 3.52232 0
M  V30 3810 H 361.857 1.16304 3.0519 0
M  V30 3811 H 360.516 3.04276 2.04479 0
M  V30 3812 H 360.164 2.38098 4.43078 0
M  V30 3813 H 359.864 4.12033 4.18931 0
M  V30 3814 H 361.388 3.57803 4.94782 0
M  V30 3815 H 362.802 4.84602 3.06324 0
M  V30 3816 H 361.199 5.43782 2.53813 0
M  V30 3817 H 362.269 4.65381 1.36193 0
M  V30 3818 N 363.613 -0.582584 1.46437 0
M  V30 3819 C 364.543 -1.70187 1.59871 0
M  V30 3820 C 365.524 -1.64066 0.449042 0
M  V30 3821 O 366.709 -1.82081 0.6753 0
M  V30 3822 C 363.839 -3.08827 1.58881 0
M  V30 3823 C 362.793 -3.29779 2.72819 0
M  V30 3824 C 362.119 -4.68947 2.5689 0
M  V30 3825 C 363.419 -3.17601 4.1464 0
M  V30 3826 H 365.113 -1.592 2.53566 0
M  V30 3827 H 362.659 -0.764472 1.22032 0
M  V30 3828 H 364.612 -3.86951 1.66873 0
M  V30 3829 H 363.336 -3.20713 0.617306 0
M  V30 3830 H 361.995 -2.54054 2.64296 0
M  V30 3831 H 361.643 -4.77599 1.57823 0
M  V30 3832 H 361.343 -4.83919 3.33312 0
M  V30 3833 H 362.867 -5.4924 2.66773 0
M  V30 3834 H 364.281 -3.8557 4.24274 0
M  V30 3835 H 362.678 -3.44094 4.9165 0
M  V30 3836 H 363.748 -2.14681 4.34788 0
M  V30 3837 N 365.091 -1.34144 -0.827227 0
M  V30 3838 C 366.021 -1.28005 -1.95287 0
M  V30 3839 C 367.002 -0.158321 -1.69362 0
M  V30 3840 O 368.187 -0.349987 -1.9102 0
M  V30 3841 C 365.317 -1.03036 -3.31664 0
M  V30 3842 C 364.271 -2.11628 -3.72019 0
M  V30 3843 C 363.597 -1.71854 -5.0633 0
M  V30 3844 C 364.897 -3.53417 -3.8457 0
M  V30 3845 H 366.591 -2.22187 -2.00682 0
M  V30 3846 H 364.137 -1.0696 -0.964135 0
M  V30 3847 H 366.09 -0.973863 -4.09993 0
M  V30 3848 H 364.814 -0.0529391 -3.26557 0
M  V30 3849 H 363.473 -2.16339 -2.95961 0
M  V30 3850 H 363.121 -0.727841 -4.97706 0
M  V30 3851 H 362.821 -2.44531 -5.34302 0
M  V30 3852 H 364.345 -1.67692 -5.87122 0
M  V30 3853 H 365.759 -3.51142 -4.5318 0
M  V30 3854 H 364.156 -4.24679 -4.2399 0
M  V30 3855 H 365.226 -3.91072 -2.86689 0
M  V30 3856 N 366.569 1.04691 -1.17803 0
M  V30 3857 C 367.98 1.59238 -0.974689 0
M  V30 3858 C 368.331 1.90306 0.477292 0
M  V30 3859 O 367.456 1.68846 1.35352 0
M  V30 3860 C 368.051 2.89318 -1.76296 0
M  V30 3861 C 366.61 3.40506 -1.60414 0
M  V30 3862 C 365.757 2.14172 -1.76141 0
M  V30 3863 H 368.708 0.874395 -1.32439 0
M  V30 3864 H 368.729 3.5944 -1.24833 0
M  V30 3865 H 368.241 2.66675 -2.81968 0
M  V30 3866 H 366.342 3.68175 -0.572519 0
M  V30 3867 H 366.455 4.14753 -2.39827 0
M  V30 3868 H 364.819 2.25176 -1.19028 0
M  V30 3869 H 365.602 1.93992 -2.83235 0
M  V30 3870 N 368.047 0.979072 1.23499 0
M  V30 3871 C 369.463 0.687475 1.44034 0
M  V30 3872 C 369.663 -0.746801 1.8715 0
M  V30 3873 O 368.719 -1.51939 2.0167 0
M  V30 3874 C 370.032 1.68127 2.49307 0
M  V30 3875 C 371.58 1.69516 2.63122 0
M  V30 3876 C 372.055 2.67723 3.71603 0
M  V30 3877 N 373.546 2.66233 3.79044 0
M  V30 3878 C 374.281 3.38891 4.62537 0
M  V30 3879 N 373.777 4.21103 5.50131 0
M  V30 3880 N 375.57 3.27661 4.56721 0
M  V30 3881 H 367.721 1.90559 0.938135 0
M  V30 3882 H 369.984 0.821051 0.473897 0
M  V30 3883 H 369.69 2.70693 2.2454 0
M  V30 3884 H 369.564 1.46306 3.4767 0
M  V30 3885 H 371.951 0.676561 2.8724 0
M  V30 3886 H 372.032 1.95404 1.65079 0
M  V30 3887 H 371.676 3.69724 3.48233 0
M  V30 3888 H 371.606 2.39111 4.69184 0
M  V30 3889 H 374.097 2.06568 3.16446 0
M  V30 3890 H 374.41 4.73403 6.10827 0
M  V30 3891 H 372.755 4.25195 5.49759 0
M  V30 3892 H 375.946 2.62887 3.87309 0
M  V30 3893 H 376.119 3.84547 5.21562 0
M  V30 3894 N 369.525 -1.3858 0.750561 0
M  V30 3895 C 370.488 -2.28836 0.129152 0
M  V30 3896 C 371.488 -1.47045 -0.650714 0
M  V30 3897 O 372.678 -1.6753 -0.477428 0
M  V30 3898 C 369.81 -3.30751 -0.825622 0
M  V30 3899 H 371.003 -2.85294 0.924516 0
M  V30 3900 H 368.556 -1.47489 0.517376 0
M  V30 3901 H 369.291 -2.79378 -1.64677 0
M  V30 3902 H 369.076 -3.91177 -0.268852 0
M  V30 3903 H 370.566 -3.98249 -1.2565 0
M  V30 3904 N 371.003 -0.499398 -1.49478 0
M  V30 3905 C 372.231 0.0425456 -2.06856 0
M  V30 3906 C 372.646 1.30964 -1.35992 0
M  V30 3907 O 372.003 1.77172 -0.437762 0
M  V30 3908 C 372.054 0.301735 -3.60239 0
M  V30 3909 O 371.775 -0.915127 -4.28436 0
M  V30 3910 C 373.276 0.887499 -4.34325 0
M  V30 3911 H 370.496 -0.0197482 -0.670709 0
M  V30 3912 H 373.04 -0.696297 -1.92281 0
M  V30 3913 H 371.195 0.990556 -3.74522 0
M  V30 3914 H 371.609 -0.676993 -5.20113 0
M  V30 3915 H 373.083 1.01845 -5.42523 0
M  V30 3916 H 373.56 1.88488 -3.96698 0
M  V30 3917 H 374.166 0.236196 -4.24644 0
M  V30 3918 N 372.481 1.55866 -0.233164 0
M  V30 3919 C 373.444 2.1953 0.658715 0
M  V30 3920 C 374.444 1.16053 1.11303 0
M  V30 3921 O 375.634 1.41218 1.01996 0
M  V30 3922 C 372.766 2.82791 1.90373 0
M  V30 3923 H 373.959 2.99721 0.10347 0
M  V30 3924 H 371.512 1.56291 0.0164245 0
M  V30 3925 H 372.247 2.06501 2.50056 0
M  V30 3926 H 372.032 3.58578 1.58632 0
M  V30 3927 H 373.522 3.31556 2.53891 0
M  V30 3928 N 373.959 -0.0401083 1.57549 0
M  V30 3929 C 374.891 -1.07149 2.02612 0
M  V30 3930 C 375.904 -1.33126 0.937085 0
M  V30 3931 O 377.093 -1.30808 1.21456 0
M  V30 3932 C 374.193 -2.41561 2.37701 0
M  V30 3933 C 373.366 -2.35096 3.68848 0
M  V30 3934 C 372.425 -3.51867 3.91249 0
M  V30 3935 O 371.451 -3.3186 4.62447 0
M  V30 3936 N 372.653 -4.73351 3.36035 0
M  V30 3937 H 375.418 -0.687485 2.91708 0
M  V30 3938 H 372.979 -0.228248 1.60283 0
M  V30 3939 H 374.971 -3.18379 2.49833 0
M  V30 3940 H 373.541 -2.71846 1.54332 0
M  V30 3941 H 372.761 -1.4345 3.67173 0
M  V30 3942 H 374.049 -2.27908 4.54901 0
M  V30 3943 H 373.447 -4.92507 2.78304 0
M  V30 3944 H 372.004 -5.47572 3.53565 0
M  V30 3945 N 375.437 -1.54477 -0.31217 0
M  V30 3946 C 376.714 -1.63891 -1.06767 0
M  V30 3947 C 377.094 -0.480028 -2.0557 0
M  V30 3948 O 376.442 0.524487 -2.22399 0
M  V30 3949 C 376.652 -3.01402 -1.75948 0
M  V30 3950 C 378 -3.57838 -2.28554 0
M  V30 3951 O 379.024 -3.03782 -1.85998 0
M  V30 3952 O 377.883 -4.52462 -3.06497 0
M  V30 3953 H 374.977 -0.664125 -0.492816 0
M  V30 3954 H 377.523 -1.66823 -0.311149 0
M  V30 3955 H 376.295 -3.77187 -1.04144 0
M  V30 3956 H 375.918 -3.02199 -2.58383 0
M  V30 3957 N 376.915 0.57481 -1.46744 0
M  V30 3958 C 377.878 1.66533 -1.57478 0
M  V30 3959 C 378.878 1.54338 -0.451263 0
M  V30 3960 O 380.068 1.58814 -0.715813 0
M  V30 3961 C 377.2 3.05999 -1.50259 0
M  V30 3962 H 378.393 1.58372 -2.54673 0
M  V30 3963 H 375.946 0.793301 -1.34672 0
M  V30 3964 H 376.681 3.19709 -0.543725 0
M  V30 3965 H 376.466 3.16259 -2.31781 0
M  V30 3966 H 377.956 3.8537 -1.60872 0
M  V30 3967 N 378.394 1.34581 0.820102 0
M  V30 3968 C 379.642 1.26845 1.57336 0
M  V30 3969 C 379.963 -0.160667 1.94337 0
M  V30 3970 O 379.233 -1.09396 1.6251 0
M  V30 3971 H 377.813 0.466514 0.583415 0
M  V30 3972 H 380.475 1.68526 0.979027 0
M  V30 3973 H 379.571 1.87513 2.4949 0
M  V30 3974 N 379.872 -1.04064 1.18357 0
M  V30 3975 C 380.819 -2.12077 0.910603 0
M  V30 3976 C 381.789 -1.65421 -0.15 0
M  V30 3977 O 382.974 -1.90797 -0.0103614 0
M  V30 3978 C 380.114 -3.42252 0.442472 0
M  V30 3979 C 379.227 -4.0252 1.5685 0
M  V30 3980 C 378.362 -5.20657 1.05309 0
M  V30 3981 C 377.401 -5.72955 2.1538 0
M  V30 3982 N 376.538 -6.8238 1.65233 0
M  V30 3983 H 381.378 -2.34764 1.83548 0
M  V30 3984 H 378.915 -1.15157 0.915279 0
M  V30 3985 H 380.873 -4.16921 0.152534 0
M  V30 3986 H 379.503 -3.19712 -0.445428 0
M  V30 3987 H 378.555 -3.25178 1.97391 0
M  V30 3988 H 379.867 -4.37362 2.39824 0
M  V30 3989 H 379.021 -6.0244 0.717677 0
M  V30 3990 H 377.76 -4.87318 0.19293 0
M  V30 3991 H 376.765 -4.89793 2.49766 0
M  V30 3992 H 377.99 -6.08337 3.01832 0
M  V30 3993 H 375.936 -6.50917 0.815064 0
M  V30 3994 H 375.853 -7.16286 2.41805 0
M  V30 3995 H 377.121 -7.67788 1.34619 0
M  V30 3996 N 381.35 -0.985608 -1.22978 0
M  V30 3997 C 382.58 -0.674603 -1.95276 0
M  V30 3998 C 382.988 0.763483 -1.73111 0
M  V30 3999 O 382.331 1.52601 -1.02268 0
M  V30 4000 C 382.393 -0.891597 -3.48268 0
M  V30 4001 C 382.057 -2.31275 -3.94158 0
M  V30 4002 C 383.054 -3.29179 -4.02415 0
M  V30 4003 C 380.739 -2.64524 -4.27004 0
M  V30 4004 C 382.733 -4.58407 -4.42879 0
M  V30 4005 C 380.42 -3.93974 -4.67149 0
M  V30 4006 C 381.418 -4.90727 -4.75053 0
M  V30 4007 O 381.106 -6.17865 -5.14294 0
M  V30 4008 H 380.838 -0.249251 -0.628371 0
M  V30 4009 H 383.392 -1.32106 -1.5728 0
M  V30 4010 H 381.622 -0.187962 -3.86243 0
M  V30 4011 H 383.311 -0.576957 -4.01779 0
M  V30 4012 H 384.077 -3.04823 -3.77237 0
M  V30 4013 H 379.956 -1.89923 -4.2006 0
M  V30 4014 H 383.5 -5.33926 -4.48964 0
M  V30 4015 H 379.397 -4.18122 -4.91777 0
M  V30 4016 H 380.165 -6.21694 -5.32389 0
M  V30 4017 N 382.828 1.3818 -0.7579 0
M  V30 4018 C 384.058 2.04004 -0.326463 0
M  V30 4019 C 384.466 1.57286 1.05156 0
M  V30 4020 O 383.809 0.743144 1.67997 0
M  V30 4021 C 383.871 3.58444 -0.275402 0
M  V30 4022 C 383.535 4.28237 -1.59569 0
M  V30 4023 C 384.532 4.53312 -2.54566 0
M  V30 4024 C 382.217 4.66341 -1.86631 0
M  V30 4025 C 384.211 5.15531 -3.74842 0
M  V30 4026 C 381.898 5.28283 -3.0718 0
M  V30 4027 C 382.896 5.52814 -4.01106 0
M  V30 4028 O 382.584 6.13465 -5.19534 0
M  V30 4029 H 382.316 0.662026 -0.136739 0
M  V30 4030 H 384.87 1.7777 -1.02893 0
M  V30 4031 H 383.1 3.83667 0.483337 0
M  V30 4032 H 384.789 4.05701 0.127099 0
M  V30 4033 H 385.555 4.24299 -2.34936 0
M  V30 4034 H 381.434 4.46591 -1.14358 0
M  V30 4035 H 384.978 5.34594 -4.48168 0
M  V30 4036 H 380.875 5.56719 -3.26702 0
M  V30 4037 H 381.643 6.31951 -5.20173 0
M  V30 4038 N 384.306 0.507319 1.49211 0
M  V30 4039 C 385.546 -0.0332372 2.04373 0
M  V30 4040 C 385.91 -1.33694 1.37804 0
M  V30 4041 O 387.111 -1.96213 1.83722 0
M  V30 4042 C 385.382 -0.17599 3.56966 0
M  V30 4043 S 386.941 -0.669882 4.33657 0
M  V30 4044 H 383.759 0.00123603 0.710999 0
M  V30 4045 H 386.361 0.682725 1.83191 0
M  V30 4046 H 385.065 0.778053 4.02957 0
M  V30 4047 H 384.596 -0.917005 3.82563 0
M  V30 4048 H 386.611 -1.93806 4.56786 0
M  V30 4049 N 385.784 -1.5574 0.241426 0
M  V30 4050 C 386.734 -2.17803 -0.674233 0
M  V30 4051 C 387.718 -1.13225 -1.14319 0
M  V30 4052 O 388.91 -1.39153 -1.09387 0
M  V30 4053 C 386.039 -2.87682 -1.87333 0
M  V30 4054 C 385.125 -3.99509 -1.42313 0
M  V30 4055 N 385.516 -5.01115 -0.686798 0
M  V30 4056 C 383.814 -4.11964 -1.70885 0
M  V30 4057 C 384.515 -5.79922 -0.454456 0
M  V30 4058 N 383.491 -5.34001 -1.01705 0
M  V30 4059 H 387.293 -2.93718 -0.103447 0
M  V30 4060 H 384.807 -1.62342 0.0435095 0
M  V30 4061 H 386.804 -3.3057 -2.54026 0
M  V30 4062 H 385.464 -2.13269 -2.4484 0
M  V30 4063 H 386.475 -5.16799 -0.337459 0
M  V30 4064 H 383.152 -3.48718 -2.2957 0
M  V30 4065 H 384.542 -6.71768 0.132992 0
M  V30 4066 N 387.262 0.0317525 -1.57568 0
M  V30 4067 C 388.678 0.38735 -1.54828 0
M  V30 4068 C 388.878 1.7677 -0.967187 0
M  V30 4069 O 387.934 2.45581 -0.587063 0
M  V30 4070 C 389.247 0.291667 -2.99282 0
M  V30 4071 C 390.795 0.368946 -3.10818 0
M  V30 4072 C 391.27 0.302741 -4.56998 0
M  V30 4073 N 392.761 0.361617 -4.61786 0
M  V30 4074 C 393.496 0.333238 -5.72431 0
M  V30 4075 N 392.992 0.257308 -6.92322 0
M  V30 4076 N 394.785 0.382769 -5.60795 0
M  V30 4077 H 386.936 -0.871609 -1.93692 0
M  V30 4078 H 389.199 -0.331161 -0.888277 0
M  V30 4079 H 388.905 -0.656794 -3.45513 0
M  V30 4080 H 388.779 1.08638 -3.61217 0
M  V30 4081 H 391.166 1.30784 -2.64536 0
M  V30 4082 H 391.247 -0.455066 -2.5172 0
M  V30 4083 H 390.891 -0.632473 -5.03947 0
M  V30 4084 H 390.821 1.14482 -5.14005 0
M  V30 4085 H 393.312 0.422923 -3.75526 0
M  V30 4086 H 393.625 0.24068 -7.72425 0
M  V30 4087 H 391.97 0.223396 -6.94641 0
M  V30 4088 H 395.161 0.44006 -4.66027 0
M  V30 4089 H 395.334 0.357184 -6.47015 0
M  V30 4090 N 388.74 1.54641 0.303973 0
M  V30 4091 C 389.988 1.73437 1.0375 0
M  V30 4092 C 390.309 0.521449 1.87899 0
M  V30 4093 O 389.579 -0.46432 1.90318 0
M  V30 4094 H 388.159 0.639518 0.386039 0
M  V30 4095 H 390.821 1.91988 0.335675 0
M  V30 4096 H 389.917 2.62235 1.69231 0
M  V30 4097 N 390.218 -0.567019 1.47046 0
M  V30 4098 C 391.166 -1.69593 1.59188 0
M  V30 4099 C 392.16 -1.63046 0.459609 0
M  V30 4100 O 393.366 -1.6835 0.637058 0
M  V30 4101 H 389.741 -0.560993 0.500791 0
M  V30 4102 H 391.712 -1.56488 2.54075 0
M  V30 4103 C 390.461 -3.07964 1.61411 0
M  V30 4104 H 389.784 -3.13679 2.47881 0
M  V30 4105 H 391.224 -3.86671 1.73958 0
M  V30 4106 C 389.683 -3.35123 0.34559 0
M  V30 4107 O 390.213 -3.97812 -0.557521 0
M  V30 4108 N 388.419 -2.89699 0.22864 0
M  V30 4109 H 387.966 -2.38863 0.964479 0
M  V30 4110 H 387.924 -3.08242 -0.619192 0
M  V30 4111 N 391.696 -1.35014 -0.812953 0
M  V30 4112 C 392.626 -1.30069 -1.93919 0
M  V30 4113 C 393.607 -0.176275 -1.69184 0
M  V30 4114 O 394.792 -0.370227 -1.90638 0
M  V30 4115 C 391.922 -1.06547 -3.30552 0
M  V30 4116 C 390.876 -2.15561 -3.69753 0
M  V30 4117 C 390.202 -1.77214 -5.04479 0
M  V30 4118 C 391.502 -3.57476 -3.808 0
M  V30 4119 H 393.196 -2.24303 -1.98314 0
M  V30 4120 H 390.742 -1.07977 -0.952736 0
M  V30 4121 H 392.695 -1.01729 -4.08937 0
M  V30 4122 H 391.419 -0.0875719 -3.26483 0
M  V30 4123 H 390.078 -2.19466 -2.9365 0
M  V30 4124 H 389.726 -0.780589 -4.96906 0
M  V30 4125 H 389.426 -2.50184 -5.31678 0
M  V30 4126 H 390.95 -1.7391 -5.8531 0
M  V30 4127 H 392.364 -3.55929 -4.4943 0
M  V30 4128 H 390.761 -4.29152 -4.19462 0
M  V30 4129 H 391.831 -3.94091 -2.82525 0
M  V30 4130 N 393.175 1.03435 -1.18907 0
M  V30 4131 C 394.403 1.80381 -1.01342 0
M  V30 4132 C 394.818 1.83649 0.438005 0
M  V30 4133 O 394.175 1.27655 1.30424 0
M  V30 4134 C 394.226 3.25689 -1.56873 0
M  V30 4135 O 393.947 3.22673 -2.96334 0
M  V30 4136 C 395.448 4.19255 -1.44014 0
M  V30 4137 H 392.668 0.56784 -0.35749 0
M  V30 4138 H 395.212 1.30317 -1.576 0
M  V30 4139 H 393.367 3.72962 -1.04777 0
M  V30 4140 H 393.781 4.13748 -3.22355 0
M  V30 4141 H 395.255 5.19123 -1.87657 0
M  V30 4142 H 395.732 4.37467 -0.389815 0
M  V30 4143 H 396.338 3.77851 -1.95214 0
M  V30 4144 N 394.653 0.992116 1.22453 0
M  V30 4145 C 395.586 0.486701 2.22949 0
M  V30 4146 C 396.564 -0.45259 1.56174 0
M  V30 4147 O 397.748 -0.378317 1.84665 0
M  V30 4148 C 394.875 -0.294537 3.37417 0
M  V30 4149 C 393.921 0.590628 4.22391 0
M  V30 4150 S 394.754 2.04546 4.94895 0
M  V30 4151 C 395.91 1.27369 6.12803 0
M  V30 4152 H 396.143 1.33828 2.65475 0
M  V30 4153 H 393.676 0.799023 1.32117 0
M  V30 4154 H 395.634 -0.739241 4.03789 0
M  V30 4155 H 394.295 -1.12139 2.934 0
M  V30 4156 H 393.488 -0.0104375 5.03999 0
M  V30 4157 H 393.09 0.972064 3.61147 0
M  V30 4158 H 395.382 0.540943 6.75337 0
M  V30 4159 H 396.325 2.06502 6.7732 0
M  V30 4160 H 396.733 0.787324 5.58983 0
M  V30 4161 N 396.131 -1.37776 0.765217 0
M  V30 4162 C 397.356 -2.04651 0.336537 0
M  V30 4163 C 397.781 -1.57337 -1.03086 0
M  V30 4164 O 397.139 -0.730621 -1.65927 0
M  V30 4165 C 397.187 -3.58577 0.381468 0
M  V30 4166 O 396.291 -4.07706 -0.62042 0
M  V30 4167 H 395.632 -0.64756 0.146838 0
M  V30 4168 H 398.162 -1.76221 1.03959 0
M  V30 4169 H 398.172 -4.07314 0.236448 0
M  V30 4170 H 396.847 -3.9237 1.37907 0
M  V30 4171 H 395.424 -3.70306 -0.439056 0
M  V30 4172 N 397.609 -0.515225 -1.4894 0
M  V30 4173 C 398.856 0.024215 -2.02486 0
M  V30 4174 C 399.184 1.35671 -1.39368 0
M  V30 4175 O 398.439 1.88566 -0.523574 0
M  V30 4176 C 398.738 0.210595 -3.56779 0
M  V30 4177 C 398.404 -1.04569 -4.38607 0
M  V30 4178 C 397.066 -1.39002 -4.60686 0
M  V30 4179 C 399.418 -1.88008 -4.86109 0
M  V30 4180 C 396.746 -2.568 -5.27514 0
M  V30 4181 C 399.098 -3.04972 -5.54234 0
M  V30 4182 C 397.762 -3.39768 -5.74555 0
M  V30 4183 H 397.032 0.00886088 -0.740947 0
M  V30 4184 H 399.679 -0.678263 -1.79086 0
M  V30 4185 H 397.984 0.99572 -3.78936 0
M  V30 4186 H 399.681 0.642659 -3.95817 0
M  V30 4187 H 396.271 -0.767497 -4.21672 0
M  V30 4188 H 400.455 -1.62719 -4.68867 0
M  V30 4189 H 395.711 -2.8398 -5.41447 0
M  V30 4190 H 399.885 -3.69943 -5.90013 0
M  V30 4191 H 397.512 -4.31148 -6.26112 0
M  V30 4192 N 399.087 1.5561 -0.249682 0
M  V30 4193 C 400.037 2.18157 0.662673 0
M  V30 4194 C 401.021 1.1383 1.13717 0
M  V30 4195 O 402.213 1.39731 1.08648 0
M  V30 4196 C 399.342 2.88672 1.85805 0
M  V30 4197 C 398.428 4.00258 1.40193 0
M  V30 4198 N 398.819 5.01473 0.660213 0
M  V30 4199 C 397.117 4.12864 1.68698 0
M  V30 4200 C 397.818 5.80155 0.423695 0
M  V30 4201 N 396.794 5.34533 0.988721 0
M  V30 4202 H 400.596 2.93769 0.0878688 0
M  V30 4203 H 398.11 1.62316 -0.0521183 0
M  V30 4204 H 400.107 3.31912 2.5227 0
M  V30 4205 H 398.767 2.14564 2.43705 0
M  V30 4206 H 399.778 5.16971 0.310047 0
M  V30 4207 H 396.455 3.4993 2.27717 0
M  V30 4208 H 397.845 6.71688 -0.168616 0
M  V30 4209 N 400.565 -0.0233959 1.57583 0
M  V30 4210 C 401.495 -1.02162 2.09965 0
M  V30 4211 C 402.476 -1.3735 1.00344 0
M  V30 4212 O 403.661 -1.46135 1.27899 0
M  V30 4213 C 400.791 -2.32081 2.58371 0
M  V30 4214 C 399.745 -2.1112 3.72307 0
M  V30 4215 C 399.071 -3.46848 4.06941 0
M  V30 4216 C 400.371 -1.49276 5.00514 0
M  V30 4217 H 402.065 -0.585557 2.93618 0
M  V30 4218 H 399.611 -0.280218 1.41247 0
M  V30 4219 H 401.564 -3.02249 2.93639 0
M  V30 4220 H 400.288 -2.77758 1.71808 0
M  V30 4221 H 398.947 -1.43384 3.37397 0
M  V30 4222 H 398.595 -3.90184 3.17436 0
M  V30 4223 H 398.295 -3.33646 4.83688 0
M  V30 4224 H 399.819 -4.18369 4.44747 0
M  V30 4225 H 401.233 -2.09368 5.33702 0
M  V30 4226 H 399.63 -1.46632 5.8191 0
M  V30 4227 H 400.7 -0.459217 4.82721 0
M  V30 4228 N 402.043 -1.548 -0.295768 0
M  V30 4229 C 402.953 -1.89177 -1.38742 0
M  V30 4230 C 403.969 -0.786481 -1.55211 0
M  V30 4231 O 405.145 -1.08344 -1.69775 0
M  V30 4232 C 402.21 -2.13663 -2.73036 0
M  V30 4233 C 401.271 -3.37349 -2.65508 0
M  V30 4234 C 400.504 -3.60658 -3.93398 0
M  V30 4235 O 400.727 -2.86882 -4.93006 0
M  V30 4236 O 399.661 -4.54179 -3.94975 0
M  V30 4237 H 403.487 -2.82059 -1.12589 0
M  V30 4238 H 401.072 -1.41056 -0.492295 0
M  V30 4239 H 402.954 -2.3094 -3.52484 0
M  V30 4240 H 401.629 -1.23967 -2.99022 0
M  V30 4241 H 400.536 -3.25431 -1.84514 0
M  V30 4242 H 401.869 -4.27192 -2.44474 0
M  V30 4243 N 403.521 0.559213 -1.47345 0
M  V30 4244 C 404.77 1.31281 -1.53128 0
M  V30 4245 C 405.083 1.94602 -0.197344 0
M  V30 4246 O 406.289 2.71173 -0.133154 0
M  V30 4247 C 404.745 2.38051 -2.69925 0
M  V30 4248 C 404.353 1.8093 -4.0984 0
M  V30 4249 C 406.097 3.14604 -2.84999 0
M  V30 4250 C 404.004 2.85468 -5.1794 0
M  V30 4251 H 402.934 0.493614 -0.569966 0
M  V30 4252 H 405.585 0.594155 -1.73615 0
M  V30 4253 H 403.967 3.12822 -2.42814 0
M  V30 4254 H 405.141 1.12544 -4.46845 0
M  V30 4255 H 403.456 1.16967 -3.99634 0
M  V30 4256 H 406.053 3.92666 -3.62929 0
M  V30 4257 H 406.396 3.68665 -1.93369 0
M  V30 4258 H 406.929 2.46945 -3.1187 0
M  V30 4259 H 403.668 2.36264 -6.1144 0
M  V30 4260 H 403.188 3.52269 -4.85455 0
M  V30 4261 H 404.867 3.48996 -5.44803 0
M  V30 4262 N 404.999 1.35443 0.805782 0
M  V30 4263 C 406.227 1.31878 1.59423 0
M  V30 4264 C 406.642 -0.103562 1.88516 0
M  V30 4265 O 405.999 -1.05575 1.48863 0
M  V30 4266 C 406.05 2.12426 2.92502 0
M  V30 4267 O 405.771 3.49115 2.6467 0
M  V30 4268 C 407.272 2.16455 3.86862 0
M  V30 4269 H 404.492 0.453002 0.495005 0
M  V30 4270 H 407.036 1.78309 1.00131 0
M  V30 4271 H 405.191 1.69593 3.48306 0
M  V30 4272 H 405.605 3.90957 3.49647 0
M  V30 4273 H 407.079 2.77204 4.77349 0
M  V30 4274 H 407.556 1.16352 4.23508 0
M  V30 4275 H 408.162 2.59453 3.36993 0
M  V30 4276 N 406.477 -1.02803 1.19454 0
M  V30 4277 C 407.44 -2.09264 0.934955 0
M  V30 4278 C 408.44 -1.60576 -0.0849015 0
M  V30 4279 O 409.63 -1.73554 0.149933 0
M  V30 4280 C 406.762 -3.38482 0.40531 0
M  V30 4281 H 407.955 -2.33726 1.87916 0
M  V30 4282 H 405.508 -1.19426 1.00832 0
M  V30 4283 H 406.243 -3.19689 -0.544899 0
M  V30 4284 H 406.028 -3.75142 1.14065 0
M  V30 4285 H 407.518 -4.16894 0.242806 0
M  V30 4286 N 407.956 -0.998596 -1.21925 0
M  V30 4287 C 409.372 -0.710303 -1.42923 0
M  V30 4288 C 409.572 0.716933 -1.88314 0
M  V30 4289 O 408.628 1.48712 -2.04062 0
M  V30 4290 C 409.941 -1.72072 -2.466 0
M  V30 4291 C 411.489 -1.73681 -2.60392 0
M  V30 4292 C 411.964 -2.73601 -3.67296 0
M  V30 4293 N 413.455 -2.7223 -3.7476 0
M  V30 4294 C 414.19 -3.46206 -4.57087 0
M  V30 4295 N 413.686 -4.29802 -5.43362 0
M  V30 4296 N 415.479 -3.34886 -4.51451 0
M  V30 4297 H 407.63 -1.92028 -0.9077 0
M  V30 4298 H 409.893 -0.828487 -0.460775 0
M  V30 4299 H 409.599 -2.74231 -2.20206 0
M  V30 4300 H 409.473 -1.51818 -3.45299 0
M  V30 4301 H 411.86 -0.722173 -2.86127 0
M  V30 4302 H 411.941 -1.98005 -1.61949 0
M  V30 4303 H 411.585 -3.75217 -3.42307 0
M  V30 4304 H 411.515 -2.46545 -4.65321 0
M  V30 4305 H 414.006 -2.11576 -3.1312 0
M  V30 4306 H 414.319 -4.83061 -6.03218 0
M  V30 4307 H 412.664 -4.33887 -5.42925 0
M  V30 4308 H 415.855 -2.69015 -3.83078 0
M  V30 4309 H 416.028 -3.92796 -5.15379 0
M  V30 4310 N 409.434 1.37368 -0.772513 0
M  V30 4311 C 410.845 1.8231 -0.402493 0
M  V30 4312 C 411.196 1.6436 1.07146 0
M  V30 4313 O 410.321 1.15514 1.82991 0
M  V30 4314 C 410.916 3.30979 -0.723776 0
M  V30 4315 C 409.475 3.74195 -0.406802 0
M  V30 4316 C 408.622 2.59885 -0.967218 0
M  V30 4317 H 411.573 1.25829 -0.967099 0
M  V30 4318 H 411.594 3.80499 -0.00870832 0
M  V30 4319 H 411.106 3.44011 -1.7966 0
M  V30 4320 H 409.207 3.66732 0.658673 0
M  V30 4321 H 409.32 4.7027 -0.915588 0
M  V30 4322 H 407.684 2.51674 -0.391416 0
M  V30 4323 H 408.467 2.7571 -2.04546 0
M  V30 4324 N 410.912 0.523116 1.48665 0
M  V30 4325 C 412.158 -0.0134963 2.02796 0
M  V30 4326 C 412.491 -1.34582 1.40004 0
M  V30 4327 O 411.766 -1.86756 0.543381 0
M  V30 4328 C 412.049 -0.14276 3.59817 0
M  V30 4329 C 411.902 1.21425 4.331 0
M  V30 4330 C 413.221 -0.872856 4.31357 0
M  V30 4331 H 410.34 -0.00343074 0.736992 0
M  V30 4332 H 412.982 0.678816 1.7746 0
M  V30 4333 H 411.132 -0.732401 3.81534 0
M  V30 4334 H 412.804 1.84447 4.2282 0
M  V30 4335 H 411.047 1.79791 3.94788 0
M  V30 4336 H 411.718 1.07687 5.41394 0
M  V30 4337 H 414.194 -0.372555 4.14429 0
M  V30 4338 H 413.07 -0.932185 5.40927 0
M  V30 4339 H 413.331 -1.92161 3.98154 0
M  V30 4340 N 412.39 -1.55475 0.257931 0
M  V30 4341 C 413.32 -2.24815 -0.630912 0
M  V30 4342 C 414.301 -1.23224 -1.17259 0
M  V30 4343 O 415.486 -1.51904 -1.20991 0
M  V30 4344 C 412.616 -2.95609 -1.82298 0
M  V30 4345 C 411.57 -4.03982 -1.41359 0
M  V30 4346 C 410.896 -4.6226 -2.68738 0
M  V30 4347 C 412.196 -5.19109 -0.57648 0
M  V30 4348 H 413.89 -2.99354 -0.0526878 0
M  V30 4349 H 411.436 -1.4398 -0.023901 0
M  V30 4350 H 413.389 -3.42822 -2.45054 0
M  V30 4351 H 412.113 -2.18577 -2.42676 0
M  V30 4352 H 410.772 -3.57555 -0.809324 0
M  V30 4353 H 410.42 -3.81915 -3.27338 0
M  V30 4354 H 410.12 -5.35424 -2.42065 0
M  V30 4355 H 411.644 -5.12212 -3.32372 0
M  V30 4356 H 413.058 -5.62479 -1.10861 0
M  V30 4357 H 411.455 -5.98729 -0.405351 0
M  V30 4358 H 412.525 -4.83174 0.408776 0
M  V30 4359 N 413.868 0.0150385 -1.57593 0
M  V30 4360 C 415.114 0.69849 -1.91031 0
M  V30 4361 C 415.469 1.72208 -0.85804 0
M  V30 4362 O 414.762 1.91147 0.131614 0
M  V30 4363 C 414.956 1.39686 -3.28972 0
M  V30 4364 C 414.785 0.442428 -4.47518 0
M  V30 4365 C 413.555 0.0583223 -5.05266 0
M  V30 4366 C 415.753 -0.285072 -5.13509 0
M  V30 4367 N 413.735 -0.895893 -6.07328 0
M  V30 4368 C 415.106 -1.09447 -6.10263 0
M  V30 4369 C 417.161 -0.350518 -4.96665 0
M  V30 4370 C 415.864 -1.96333 -6.91987 0
M  V30 4371 C 417.89 -1.20655 -5.78962 0
M  V30 4372 C 417.252 -2.00383 -6.75297 0
M  V30 4373 H 413.351 0.22926 -0.747639 0
M  V30 4374 H 415.935 -0.0417748 -1.94655 0
M  V30 4375 H 414.106 2.1075 -3.2625 0
M  V30 4376 H 415.838 2.03381 -3.49883 0
M  V30 4377 H 412.593 0.423506 -4.71703 0
M  V30 4378 H 413.017 -1.36792 -6.63036 0
M  V30 4379 H 417.659 0.251596 -4.22051 0
M  V30 4380 H 415.377 -2.57618 -7.65936 0
M  V30 4381 H 418.963 -1.2609 -5.67972 0
M  V30 4382 H 417.843 -2.65552 -7.3787 0
M  V30 4383 N 415.346 1.54954 0.287554 0
M  V30 4384 C 416.296 1.8322 1.357 0
M  V30 4385 C 417.28 0.690152 1.45347 0
M  V30 4386 O 418.472 0.951137 1.49273 0
M  V30 4387 C 415.601 2.09481 2.71979 0
M  V30 4388 C 414.687 3.29906 2.66502 0
M  V30 4389 N 415.078 4.50154 2.30641 0
M  V30 4390 C 413.376 3.32203 2.97585 0
M  V30 4391 C 414.077 5.32209 2.34794 0
M  V30 4392 N 413.053 4.70258 2.72688 0
M  V30 4393 H 416.855 2.73746 1.0696 0
M  V30 4394 H 414.369 1.54635 0.496167 0
M  V30 4395 H 416.366 2.27882 3.49107 0
M  V30 4396 H 415.026 1.2023 3.0162 0
M  V30 4397 H 416.037 4.76515 2.02865 0
M  V30 4398 H 412.714 2.53101 3.32034 0
M  V30 4399 H 414.104 6.38321 2.09753 0
M  V30 4400 N 416.824 -0.551391 1.4764 0
M  V30 4401 C 418.07 -1.30789 1.55774 0
M  V30 4402 C 418.425 -1.91143 0.219562 0
M  V30 4403 O 417.718 -1.7521 -0.775375 0
M  V30 4404 C 417.912 -2.43469 2.61644 0
M  V30 4405 C 417.741 -1.94157 4.05627 0
M  V30 4406 C 416.511 -1.77734 4.7301 0
M  V30 4407 C 418.709 -1.48262 4.92466 0
M  V30 4408 N 416.691 -1.22823 6.01488 0
M  V30 4409 C 418.062 -1.05156 6.11017 0
M  V30 4410 C 420.117 -1.36367 4.78862 0
M  V30 4411 C 418.82 -0.513357 7.17466 0
M  V30 4412 C 420.846 -0.839484 5.85411 0
M  V30 4413 C 420.208 -0.418377 7.03156 0
M  V30 4414 H 416.307 -0.470406 0.624694 0
M  V30 4415 H 418.891 -0.624331 1.84419 0
M  V30 4416 H 417.062 -3.09348 2.34859 0
M  V30 4417 H 418.794 -3.10477 2.59589 0
M  V30 4418 H 415.549 -2.00623 4.29007 0
M  V30 4419 H 415.973 -0.974393 6.69951 0
M  V30 4420 H 420.615 -1.67535 3.88191 0
M  V30 4421 H 418.333 -0.189318 8.07878 0
M  V30 4422 H 421.919 -0.750921 5.76934 0
M  V30 4423 H 420.799 -0.0190538 7.84198 0
M  V30 4424 N 418.302 -1.35869 -0.798587 0
M  V30 4425 C 419.232 -1.32118 -1.92528 0
M  V30 4426 C 420.213 -0.194209 -1.68988 0
M  V30 4427 O 421.398 -0.390426 -1.90235 0
M  V30 4428 C 418.528 -1.10047 -3.29404 0
M  V30 4429 C 417.482 -2.19471 -3.67446 0
M  V30 4430 C 416.808 -1.82555 -5.02571 0
M  V30 4431 C 418.108 -3.61495 -3.76987 0
M  V30 4432 H 419.802 -2.26394 -1.95924 0
M  V30 4433 H 417.348 -1.08981 -0.94123 0
M  V30 4434 H 419.301 -1.06061 -4.07835 0
M  V30 4435 H 418.025 -0.122195 -3.26371 0
M  V30 4436 H 416.684 -2.22568 -2.91306 0
M  V30 4437 H 416.332 -0.833249 -4.9605 0
M  V30 4438 H 416.032 -2.5581 -5.28995 0
M  V30 4439 H 417.556 -1.80108 -5.83432 0
M  V30 4440 H 418.97 -3.60676 -4.4563 0
M  V30 4441 H 417.367 -4.33577 -4.14887 0
M  V30 4442 H 418.437 -3.97065 -2.78329 0
M  V30 4443 N 419.78 1.02168 -1.19998 0
M  V30 4444 C 420.71 2.12488 -0.96804 0
M  V30 4445 C 421.691 1.69799 0.101185 0
M  V30 4446 O 422.876 1.94121 -0.0552993 0
M  V30 4447 C 420.006 3.43479 -0.513776 0
M  V30 4448 C 418.96 3.99884 -1.52566 0
M  V30 4449 C 418.286 5.26582 -0.928214 0
M  V30 4450 C 419.586 4.33861 -2.90795 0
M  V30 4451 H 421.28 2.32149 -1.89069 0
M  V30 4452 H 418.826 1.11564 -0.910468 0
M  V30 4453 H 420.779 4.20036 -0.338774 0
M  V30 4454 H 419.503 3.23561 0.444493 0
M  V30 4455 H 418.162 3.25429 -1.68794 0
M  V30 4456 H 417.81 5.02986 0.0378289 0
M  V30 4457 H 417.51 5.65284 -1.60397 0
M  V30 4458 H 419.034 6.05799 -0.764167 0
M  V30 4459 H 420.448 5.01327 -2.78109 0
M  V30 4460 H 418.845 4.83664 -3.55231 0
M  V30 4461 H 419.915 3.42848 -3.42904 0
M  V30 4462 N 421.258 1.00505 1.21394 0
M  V30 4463 C 422.674 0.717873 1.42544 0
M  V30 4464 C 422.874 -0.706936 1.88692 0
M  V30 4465 O 421.93 -1.47627 2.04847 0
M  V30 4466 C 423.243 1.73377 2.45684 0
M  V30 4467 C 424.791 1.75059 2.59467 0
M  V30 4468 C 425.266 2.75545 3.6584 0
M  V30 4469 N 426.757 2.74213 3.73311 0
M  V30 4470 C 427.492 3.48626 4.55245 0
M  V30 4471 N 426.988 4.32678 5.41075 0
M  V30 4472 N 428.781 3.37276 4.49668 0
M  V30 4473 H 420.932 1.92506 0.897503 0
M  V30 4474 H 423.195 0.830919 0.456375 0
M  V30 4475 H 422.901 2.75395 2.18748 0
M  V30 4476 H 422.775 1.53647 3.44489 0
M  V30 4477 H 425.162 0.737337 2.8574 0
M  V30 4478 H 425.243 1.98861 1.60897 0
M  V30 4479 H 424.887 3.77028 3.40313 0
M  V30 4480 H 424.817 2.49009 4.64007 0
M  V30 4481 H 427.308 2.13234 3.11993 0
M  V30 4482 H 427.621 4.86253 6.00648 0
M  V30 4483 H 425.966 4.3676 5.40616 0
M  V30 4484 H 429.157 2.71043 3.81646 0
M  V30 4485 H 429.33 3.95524 5.13288 0
M  V30 4486 N 422.737 -1.36956 0.779787 0
M  V30 4487 C 423.965 -2.03755 0.359398 0
M  V30 4488 C 424.38 -1.58807 -1.02106 0
M  V30 4489 O 423.737 -0.773024 -1.6532 0
M  V30 4490 C 423.788 -3.59251 0.402568 0
M  V30 4491 O 423.509 -4.02557 1.72858 0
M  V30 4492 C 425.01 -4.43291 -0.0284068 0
M  V30 4493 H 422.23 -0.654148 0.149437 0
M  V30 4494 H 424.774 -1.75128 1.05595 0
M  V30 4495 H 422.929 -3.86621 -0.245478 0
M  V30 4496 H 423.343 -4.97111 1.67275 0
M  V30 4497 H 424.817 -5.51975 0.0529466 0
M  V30 4498 H 425.294 -4.25719 -1.07982 0
M  V30 4499 H 425.9 -4.21163 0.591758 0
M  V30 4500 N 424.215 -0.530993 -1.48385 0
M  V30 4501 C 425.463 0.00273189 -2.021 0
M  V30 4502 C 425.784 1.34672 -1.41027 0
M  V30 4503 O 425.054 1.8724 -0.576012 0
M  V30 4504 H 423.634 0.00399774 -0.746989 0
M  V30 4505 H 426.296 -0.695054 -1.82085 0
M  V30 4506 H 425.392 0.11031 -3.11905 0
M  V30 4507 N 425.693 1.55336 -0.266172 0
M  V30 4508 C 426.941 1.99003 0.35246 0
M  V30 4509 C 427.262 1.15591 1.57047 0
M  V30 4510 O 426.532 0.243268 1.94384 0
M  V30 4511 H 425.112 0.735025 0.133217 0
M  V30 4512 H 427.774 1.91367 -0.369434 0
M  V30 4513 H 426.87 3.05289 0.648453 0
M  V30 4514 N 427.171 -0.0066808 1.57599 0
M  V30 4515 C 428.417 -0.68835 1.91398 0
M  V30 4516 C 428.772 -1.7175 0.86716 0
M  V30 4517 O 428.065 -1.91215 -0.121475 0
M  V30 4518 C 428.259 -1.37939 3.29708 0
M  V30 4519 C 428.088 -0.418689 4.47747 0
M  V30 4520 C 426.858 -0.031526 5.0529 0
M  V30 4521 C 429.056 0.312301 5.13351 0
M  V30 4522 N 427.038 0.928088 6.06844 0
M  V30 4523 C 428.409 1.12682 6.09674 0
M  V30 4524 C 430.464 0.376853 4.96472 0
M  V30 4525 C 429.167 2 6.90936 0
M  V30 4526 C 431.193 1.23723 5.78314 0
M  V30 4527 C 430.555 2.03962 6.74225 0
M  V30 4528 H 426.654 -0.225292 0.748844 0
M  V30 4529 H 429.238 0.0520973 1.9463 0
M  V30 4530 H 427.409 -2.09017 3.27363 0
M  V30 4531 H 429.141 -2.01522 3.50957 0
M  V30 4532 H 425.896 -0.398485 4.71921 0
M  V30 4533 H 426.32 1.40307 6.62301 0
M  V30 4534 H 430.962 -0.22921 4.22178 0
M  V30 4535 H 428.68 2.61676 7.64559 0
M  V30 4536 H 432.266 1.291 5.67296 0
M  V30 4537 H 431.146 2.69461 7.36451 0
M  V30 4538 N 428.649 -1.55105 -0.279332 0
M  V30 4539 C 429.596 -1.8755 -1.34513 0
M  V30 4540 C 430.566 -0.726384 -1.49375 0
M  V30 4541 O 431.751 -0.977063 -1.63884 0
M  V30 4542 C 428.891 -2.14738 -2.70151 0
M  V30 4543 C 428.004 -3.42285 -2.63562 0
M  V30 4544 C 427.139 -3.59206 -3.91337 0
M  V30 4545 C 426.178 -4.80467 -3.79233 0
M  V30 4546 N 425.315 -4.94079 -4.98829 0
M  V30 4547 H 430.155 -2.78456 -1.06143 0
M  V30 4548 H 427.692 -1.37867 -0.512936 0
M  V30 4549 H 429.65 -2.28501 -3.49061 0
M  V30 4550 H 428.28 -1.27075 -2.96735 0
M  V30 4551 H 427.332 -3.37029 -1.76397 0
M  V30 4552 H 428.644 -4.31328 -2.50515 0
M  V30 4553 H 427.798 -3.72751 -4.78687 0
M  V30 4554 H 426.537 -2.68337 -4.07243 0
M  V30 4555 H 425.542 -4.66932 -2.90266 0
M  V30 4556 H 426.767 -5.72765 -3.64852 0
M  V30 4557 H 424.713 -4.06139 -5.15158 0
M  V30 4558 H 424.63 -5.77156 -4.8829 0
M  V30 4559 H 425.898 -5.12003 -5.8777 0
M  V30 4560 N 430.127 0.543554 -1.4793 0
M  V30 4561 C 431.373 1.30201 -1.55485 0
M  V30 4562 C 431.706 1.92925 -0.222201 0
M  V30 4563 O 430.981 1.78586 0.77053 0
M  V30 4564 C 431.264 2.40174 -2.68307 0
M  V30 4565 C 431.117 1.8223 -4.11233 0
M  V30 4566 C 432.436 3.42024 -2.76961 0
M  V30 4567 H 429.555 0.472036 -0.565996 0
M  V30 4568 H 432.197 0.606914 -1.80046 0
M  V30 4569 H 430.347 2.99463 -2.47495 0
M  V30 4570 H 432.019 1.27096 -4.43446 0
M  V30 4571 H 430.262 1.12832 -4.18869 0
M  V30 4572 H 430.933 2.61793 -4.85972 0
M  V30 4573 H 433.409 2.92672 -2.95774 0
M  V30 4574 H 432.285 4.16383 -3.57654 0
M  V30 4575 H 432.546 4.0173 -1.84568 0
M  V30 4576 N 431.605 1.3629 0.791371 0
M  V30 4577 C 432.83 1.33726 1.58531 0
M  V30 4578 C 433.255 -0.0794933 1.87932 0
M  V30 4579 O 432.613 -1.05087 1.47738 0
M  V30 4580 C 432.661 2.16425 2.88431 0
M  V30 4581 O 431.765 1.5554 3.81944 0
M  V30 4582 H 431.106 0.457793 0.480959 0
M  V30 4583 H 433.636 1.79547 0.981031 0
M  V30 4584 H 433.646 2.28933 3.37718 0
M  V30 4585 H 432.321 3.19415 2.66359 0
M  V30 4586 H 430.898 1.51961 3.40532 0
M  V30 4587 N 433.083 -1.0153 1.20538 0
M  V30 4588 C 434.046 -2.0826 0.957098 0
M  V30 4589 C 435.046 -1.60657 -0.0678655 0
M  V30 4590 O 436.236 -1.73385 0.168332 0
M  V30 4591 C 433.368 -3.38033 0.441188 0
M  V30 4592 H 434.561 -2.31719 1.90384 0
M  V30 4593 H 432.114 -1.1835 1.02093 0
M  V30 4594 H 432.849 -3.20249 -0.510961 0
M  V30 4595 H 432.634 -3.73911 1.18038 0
M  V30 4596 H 434.124 -4.16613 0.287009 0
M  V30 4597 N 434.561 -1.01147 -1.20859 0
M  V30 4598 C 435.807 -0.698899 -1.90377 0
M  V30 4599 C 436.14 0.76904 -1.78324 0
M  V30 4600 O 435.415 1.55817 -1.16409 0
M  V30 4601 C 435.698 -1.12878 -3.41951 0
M  V30 4602 C 435.551 -2.65665 -3.62963 0
M  V30 4603 C 436.87 -0.696114 -4.3456 0
M  V30 4604 H 433.989 -0.255372 -0.691342 0
M  V30 4605 H 436.631 -1.25831 -1.42361 0
M  V30 4606 H 434.781 -0.652827 -3.82976 0
M  V30 4607 H 436.453 -3.21074 -3.31224 0
M  V30 4608 H 434.696 -3.06878 -3.06608 0
M  V30 4609 H 435.367 -2.90797 -4.69192 0
M  V30 4610 H 437.843 -1.10521 -4.01154 0
M  V30 4611 H 436.719 -1.025 -5.39245 0
M  V30 4612 H 436.98 0.402465 -4.40264 0
M  V30 4613 N 436.039 1.36541 -0.78704 0
M  V30 4614 C 437.267 2.03561 -0.370199 0
M  V30 4615 C 437.682 1.59347 1.01263 0
M  V30 4616 O 437.039 0.781781 1.64907 0
M  V30 4617 C 437.09 3.59033 -0.421614 0
M  V30 4618 O 436.811 4.01634 -1.7499 0
M  V30 4619 C 438.312 4.433 0.00489763 0
M  V30 4620 H 435.532 0.653346 -0.152904 0
M  V30 4621 H 438.076 1.74566 -1.06522 0
M  V30 4622 H 436.231 3.86746 0.224971 0
M  V30 4623 H 436.645 4.96217 -1.69909 0
M  V30 4624 H 438.119 5.51939 -0.0822184 0
M  V30 4625 H 438.596 4.26285 1.05723 0
M  V30 4626 H 439.202 4.20843 -0.614085 0
M  V30 4627 N 437.518 0.538854 1.48102 0
M  V30 4628 C 438.448 -0.207654 2.32575 0
M  V30 4629 C 439.429 -0.926559 1.4265 0
M  V30 4630 O 440.614 -0.91061 1.71527 0
M  V30 4631 C 437.744 -1.24957 3.24042 0
M  V30 4632 C 436.698 -0.648263 4.23062 0
M  V30 4633 C 436.024 -1.79348 5.03725 0
M  V30 4634 C 437.324 0.385897 5.20872 0
M  V30 4635 H 439.018 0.497534 2.95237 0
M  V30 4636 H 436.564 0.240715 1.41974 0
M  V30 4637 H 438.517 -1.77983 3.81969 0
M  V30 4638 H 437.241 -1.98446 2.59397 0
M  V30 4639 H 435.9 -0.139452 3.66335 0
M  V30 4640 H 435.548 -2.51696 4.35498 0
M  V30 4641 H 435.248 -1.39702 5.70751 0
M  V30 4642 H 436.772 -2.32735 5.64506 0
M  V30 4643 H 438.186 -0.057607 5.73271 0
M  V30 4644 H 436.583 0.700227 5.96001 0
M  V30 4645 H 437.653 1.28848 4.67468 0
M  V30 4646 N 438.996 -1.55193 0.274407 0
M  V30 4647 C 439.959 -2.212 -0.600279 0
M  V30 4648 C 440.959 -1.18963 -1.08187 0
M  V30 4649 O 442.149 -1.43873 -0.982158 0
M  V30 4650 C 439.281 -2.87739 -1.82809 0
M  V30 4651 H 440.474 -2.9989 -0.0239682 0
M  V30 4652 H 438.027 -1.5628 0.0250192 0
M  V30 4653 H 438.762 -2.13058 -2.44493 0
M  V30 4654 H 438.547 -3.62658 -1.49069 0
M  V30 4655 H 440.037 -3.38171 -2.45011 0
M  V30 4656 N 440.474 -0.00167713 -1.576 0
M  V30 4657 C 441.704 0.692754 -1.94639 0
M  V30 4658 C 442.112 1.67744 -0.87513 0
M  V30 4659 O 441.455 1.8305 0.154382 0
M  V30 4660 C 441.517 1.47881 -3.27676 0
M  V30 4661 C 441.181 0.655518 -4.52274 0
M  V30 4662 C 442.178 -0.0575214 -5.19868 0
M  V30 4663 C 439.863 0.600994 -4.98692 0
M  V30 4664 C 441.857 -0.814052 -6.3218 0
M  V30 4665 C 439.544 -0.15926 -6.10892 0
M  V30 4666 C 440.542 -0.865515 -6.77494 0
M  V30 4667 O 440.23 -1.61336 -7.87544 0
M  V30 4668 H 439.962 0.197792 -0.646417 0
M  V30 4669 H 442.516 -0.049423 -2.05341 0
M  V30 4670 H 440.746 2.2655 -3.13388 0
M  V30 4671 H 442.435 2.05874 -3.49816 0
M  V30 4672 H 443.201 -0.0245611 -4.84994 0
M  V30 4673 H 439.08 1.14025 -4.46676 0
M  V30 4674 H 442.624 -1.36584 -6.84098 0
M  V30 4675 H 438.521 -0.194035 -6.45208 0
M  V30 4676 H 439.289 -1.53025 -8.04068 0
M  V30 4677 N 441.952 1.55251 0.271103 0
M  V30 4678 C 442.882 1.9127 1.33933 0
M  V30 4679 C 443.863 0.77478 1.5143 0
M  V30 4680 O 445.048 1.03307 1.64442 0
M  V30 4681 C 442.178 2.18627 2.69851 0
M  V30 4682 C 441.132 3.34442 2.67081 0
M  V30 4683 C 440.458 3.47284 4.06569 0
M  V30 4684 C 441.758 4.70784 2.26185 0
M  V30 4685 H 443.452 2.80744 1.04035 0
M  V30 4686 H 440.998 1.35077 0.499017 0
M  V30 4687 H 442.951 2.42413 3.44694 0
M  V30 4688 H 441.675 1.25955 3.01335 0
M  V30 4689 H 440.334 3.10627 1.94695 0
M  V30 4690 H 439.982 2.52074 4.35279 0
M  V30 4691 H 439.682 4.25152 4.0561 0
M  V30 4692 H 441.206 3.73363 4.83148 0
M  V30 4693 H 442.62 4.94102 2.90751 0
M  V30 4694 H 441.017 5.51582 2.36384 0
M  V30 4695 H 442.087 4.69478 1.21319 0
M  V30 4696 N 443.43 -0.535701 1.48216 0
M  V30 4697 C 444.679 -1.28828 1.55197 0
M  V30 4698 C 444.992 -1.94263 0.228278 0
M  V30 4699 O 446.198 -2.70927 0.176278 0
M  V30 4700 C 444.654 -2.33727 2.73678 0
M  V30 4701 C 444.262 -1.74386 4.12666 0
M  V30 4702 C 446.006 -3.1003 2.89968 0
M  V30 4703 C 443.913 -2.77192 5.22416 0
M  V30 4704 H 442.843 -0.484484 0.577747 0
M  V30 4705 H 445.494 -0.56646 1.74538 0
M  V30 4706 H 443.876 -3.08919 2.4776 0
M  V30 4707 H 445.05 -1.05421 4.48579 0
M  V30 4708 H 443.365 -1.10595 4.01445 0
M  V30 4709 H 445.962 -3.86842 3.6913 0
M  V30 4710 H 446.305 -3.65542 1.9921 0
M  V30 4711 H 446.838 -2.41952 3.15759 0
M  V30 4712 H 443.577 -2.26507 6.15122 0
M  V30 4713 H 443.097 -3.44502 4.90998 0
M  V30 4714 H 444.776 -3.40285 5.50286 0
M  V30 4715 N 444.908 -1.36708 -0.784132 0
M  V30 4716 C 446.155 -1.31231 -1.54222 0
M  V30 4717 C 446.483 0.106864 -1.94206 0
M  V30 4718 O 445.738 1.07734 -1.63376 0
M  V30 4719 C 446.037 -2.18571 -2.82774 0
M  V30 4720 C 445.703 -3.67039 -2.61903 0
M  V30 4721 C 444.365 -4.07503 -2.55919 0
M  V30 4722 C 446.717 -4.61149 -2.4288 0
M  V30 4723 C 444.045 -5.40211 -2.28886 0
M  V30 4724 C 446.397 -5.94081 -2.17373 0
M  V30 4725 C 445.061 -6.33664 -2.09825 0
M  V30 4726 H 444.331 -0.48021 -0.56434 0
M  V30 4727 H 446.978 -1.68807 -0.904233 0
M  V30 4728 H 445.283 -1.73949 -3.51068 0
M  V30 4729 H 446.98 -2.11655 -3.40592 0
M  V30 4730 H 443.57 -3.34941 -2.67418 0
M  V30 4731 H 447.754 -4.30756 -2.46501 0
M  V30 4732 H 443.01 -5.69855 -2.21529 0
M  V30 4733 H 447.184 -6.66566 -2.01649 0
M  V30 4734 H 444.811 -7.36423 -1.88641 0
M  V30 4735 N 446.386 1.0089 -1.21074 0
M  V30 4736 C 447.626 1.76142 -1.03699 0
M  V30 4737 C 447.99 1.87292 0.422587 0
M  V30 4738 O 449.191 2.59068 0.716752 0
M  V30 4739 C 447.462 3.13805 -1.7106 0
M  V30 4740 S 449.021 4.04996 -1.68889 0
M  V30 4741 H 445.839 0.606113 -0.371683 0
M  V30 4742 H 448.441 1.20744 -1.53756 0
M  V30 4743 H 447.145 3.0332 -2.76451 0
M  V30 4744 H 446.676 3.74276 -1.21166 0
M  V30 4745 H 448.691 4.90842 -0.727211 0
M  V30 4746 N 447.864 1.01787 1.20321 0
M  V30 4747 C 448.794 0.609625 2.25401 0
M  V30 4748 C 449.775 -0.375951 1.65893 0
M  V30 4749 O 450.96 -0.261101 1.92437 0
M  V30 4750 C 448.09 -0.0515995 3.47262 0
M  V30 4751 C 447.044 0.855095 4.19371 0
M  V30 4752 C 446.37 0.0595757 5.34667 0
M  V30 4753 C 447.67 2.16374 4.75373 0
M  V30 4754 H 449.364 1.48803 2.59804 0
M  V30 4755 H 446.91 0.716934 1.24884 0
M  V30 4756 H 448.863 -0.348764 4.19954 0
M  V30 4757 H 447.587 -0.964726 3.12027 0
M  V30 4758 H 446.246 1.13628 3.48546 0
M  V30 4759 H 445.894 -0.85524 4.95676 0
M  V30 4760 H 445.594 0.663406 5.83843 0
M  V30 4761 H 447.118 -0.231105 6.10162 0
M  V30 4762 H 448.532 1.92885 5.39878 0
M  V30 4763 H 446.929 2.71853 5.34991 0
M  V30 4764 H 447.999 2.82589 3.94045 0
M  V30 4765 N 449.342 -1.36122 0.79427 0
M  V30 4766 C 450.582 -2.00942 0.374376 0
M  V30 4767 C 450.946 -1.61666 -1.03577 0
M  V30 4768 O 452.147 -2.19113 -1.55701 0
M  V30 4769 C 450.418 -3.53323 0.538327 0
M  V30 4770 S 451.977 -4.38311 0.20703 0
M  V30 4771 H 448.795 -0.696515 0.142785 0
M  V30 4772 H 451.397 -1.65929 1.03382 0
M  V30 4773 H 450.101 -3.79395 1.56484 0
M  V30 4774 H 449.632 -3.93162 -0.136882 0
M  V30 4775 H 451.647 -4.8623 -0.989695 0
M  V30 4776 N 450.82 -0.546701 -1.47814 0
M  V30 4777 C 452.045 -0.021268 -2.07389 0
M  V30 4778 C 452.47 1.25822 -1.39822 0
M  V30 4779 O 451.828 1.75111 -0.46968 0
M  V30 4780 C 451.876 0.168502 -3.60206 0
M  V30 4781 O 450.98 1.23347 -3.93522 0
M  V30 4782 H 450.321 -0.0466108 -0.662362 0
M  V30 4783 H 452.851 -0.759387 -1.89985 0
M  V30 4784 H 452.861 0.385982 -4.0617 0
M  V30 4785 H 451.536 -0.766075 -4.08784 0
M  V30 4786 H 450.113 0.997319 -3.59316 0
M  V30 4787 N 452.299 1.55045 -0.282633 0
M  V30 4788 C 453.229 2.2579 0.595066 0
M  V30 4789 C 454.21 1.25074 1.15284 0
M  V30 4790 O 455.395 1.5381 1.18559 0
M  V30 4791 C 452.525 2.98472 1.77572 0
M  V30 4792 C 451.479 4.0618 1.34914 0
M  V30 4793 C 450.805 4.66477 2.6135 0
M  V30 4794 C 452.105 5.1996 0.493821 0
M  V30 4795 H 453.799 2.994 0.00505653 0
M  V30 4796 H 451.345 1.44 0.000992001 0
M  V30 4797 H 453.298 3.46677 2.39568 0
M  V30 4798 H 452.022 2.2241 2.39168 0
M  V30 4799 H 450.681 3.58797 0.752338 0
M  V30 4800 H 450.329 3.87074 3.2122 0
M  V30 4801 H 450.029 5.39207 2.33516 0
M  V30 4802 H 451.553 5.17435 3.24181 0
M  V30 4803 H 452.967 5.64172 1.01898 0
M  V30 4804 H 451.364 5.99299 0.310047 0
M  V30 4805 H 452.434 4.82462 -0.485593 0
M  V30 4806 N 453.777 0.010035 1.57597 0
M  V30 4807 C 455.023 -0.673697 1.91283 0
M  V30 4808 C 455.356 -1.72863 0.884979 0
M  V30 4809 O 454.631 -1.94268 -0.0949487 0
M  V30 4810 C 454.914 -1.30766 3.35518 0
M  V30 4811 C 454.767 -0.263578 4.49027 0
M  V30 4812 C 456.086 -2.23105 3.79358 0
M  V30 4813 H 453.205 -0.243439 0.695634 0
M  V30 4814 H 455.847 0.0633864 1.89894 0
M  V30 4815 H 453.997 -1.93588 3.36832 0
M  V30 4816 H 455.669 0.365738 4.59848 0
M  V30 4817 H 453.912 0.413077 4.31829 0
M  V30 4818 H 454.583 -0.746398 5.4693 0
M  V30 4819 H 457.059 -1.70289 3.79659 0
M  V30 4820 H 455.935 -2.64424 4.81011 0
M  V30 4821 H 456.196 -3.11433 3.13787 0
M  V30 4822 N 455.255 -1.55392 -0.262866 0
M  V30 4823 C 456.503 -1.76127 -0.991147 0
M  V30 4824 C 456.824 -0.571083 -1.8645 0
M  V30 4825 O 456.094 0.413698 -1.91482 0
M  V30 4826 H 454.674 -0.649528 -0.368948 0
M  V30 4827 H 457.336 -1.9281 -0.284655 0
M  V30 4828 H 456.432 -2.6663 -1.62219 0
M  V30 4829 N 456.733 0.527833 -1.48498 0
M  V30 4830 C 457.982 1.28003 -1.55878 0
M  V30 4831 C 458.295 1.9414 -0.238577 0
M  V30 4832 O 459.501 2.7083 -0.190643 0
M  V30 4833 C 457.957 2.32272 -2.74914 0
M  V30 4834 C 457.565 1.72196 -4.13585 0
M  V30 4835 C 459.309 3.08488 -2.91608 0
M  V30 4836 C 457.216 2.74417 -5.23879 0
M  V30 4837 H 456.146 0.481413 -0.580308 0
M  V30 4838 H 458.797 0.557195 -1.74836 0
M  V30 4839 H 457.179 3.07601 -2.49395 0
M  V30 4840 H 458.353 1.03041 -4.49132 0
M  V30 4841 H 456.668 1.08464 -4.02025 0
M  V30 4842 H 459.265 3.84879 -3.71177 0
M  V30 4843 H 459.608 3.64481 -2.01145 0
M  V30 4844 H 460.141 2.40274 -3.17038 0
M  V30 4845 H 456.88 2.23242 -6.16314 0
M  V30 4846 H 456.4 3.41893 -4.92818 0
M  V30 4847 H 458.079 3.37362 -5.52083 0
M  V30 4848 N 458.211 1.37122 0.776871 0
M  V30 4849 C 459.141 1.35164 1.90402 0
M  V30 4850 C 460.122 0.221069 1.68657 0
M  V30 4851 O 461.307 0.420642 1.8959 0
M  V30 4852 C 458.437 1.15274 3.27611 0
M  V30 4853 C 457.391 2.25289 3.63908 0
M  V30 4854 C 456.717 1.90527 4.99603 0
M  V30 4855 C 458.017 3.67446 3.71188 0
M  V30 4856 H 459.711 2.29482 1.92297 0
M  V30 4857 H 457.257 1.10465 0.923773 0
M  V30 4858 H 459.21 1.12536 4.06096 0
M  V30 4859 H 457.934 0.174102 3.26136 0
M  V30 4860 H 456.593 2.27174 2.87728 0
M  V30 4861 H 456.241 0.91206 4.94662 0
M  V30 4862 H 455.941 2.64193 5.24858 0
M  V30 4863 H 457.465 1.89367 5.80493 0
M  V30 4864 H 458.879 3.67719 4.39836 0
M  V30 4865 H 457.276 4.40123 4.07936 0
M  V30 4866 H 458.346 4.01443 2.71977 0
M  V30 4867 N 459.689 -1.00246 1.21608 0
M  V30 4868 C 460.639 -2.07492 0.945051 0
M  V30 4869 C 461.623 -1.60585 -0.100675 0
M  V30 4870 O 462.815 -1.76667 0.10859 0
M  V30 4871 C 459.944 -3.39425 0.514342 0
M  V30 4872 C 459.03 -3.92993 1.59428 0
M  V30 4873 N 459.421 -4.19898 2.81991 0
M  V30 4874 C 457.719 -4.21297 1.46374 0
M  V30 4875 C 458.42 -4.63297 3.51754 0
M  V30 4876 N 457.396 -4.66421 2.79199 0
M  V30 4877 H 461.198 -2.26222 1.87619 0
M  V30 4878 H 458.712 -1.18339 1.11219 0
M  V30 4879 H 460.709 -4.15808 0.301527 0
M  V30 4880 H 459.369 -3.22101 -0.410008 0
M  V30 4881 H 460.38 -4.08377 3.1851 0
M  V30 4882 H 457.057 -4.13095 0.604863 0
M  V30 4883 H 458.447 -4.92816 4.56708 0
M  V30 4884 N 461.167 -1.02423 -1.1978 0
M  V30 4885 C 462.097 -0.62157 -2.25075 0
M  V30 4886 C 463.078 0.367148 -1.6609 0
M  V30 4887 O 464.263 0.250892 -1.92573 0
M  V30 4888 C 461.393 0.0331826 -3.47284 0
M  V30 4889 C 460.347 -0.877323 -4.18912 0
M  V30 4890 C 459.673 -0.0879296 -5.34628 0
M  V30 4891 C 460.973 -2.18892 -4.74219 0
M  V30 4892 H 462.667 -1.50179 -2.59011 0
M  V30 4893 H 460.213 -0.723547 -1.24502 0
M  V30 4894 H 462.166 0.326488 -4.20133 0
M  V30 4895 H 460.89 0.948164 -3.12534 0
M  V30 4896 H 459.549 -1.15475 -3.47938 0
M  V30 4897 H 459.197 0.828941 -4.96123 0
M  V30 4898 H 458.897 -0.694359 -5.83483 0
M  V30 4899 H 460.421 0.198743 -6.10276 0
M  V30 4900 H 461.835 -1.95746 -5.38847 0
M  V30 4901 H 460.232 -2.74686 -5.33542 0
M  V30 4902 H 461.302 -2.84674 -3.92541 0
M  V30 4903 N 462.645 1.35699 -0.801477 0
M  V30 4904 C 463.577 2.28598 -0.166028 0
M  V30 4905 C 464.59 1.50044 0.631721 0
M  V30 4906 O 465.779 1.72339 0.464921 0
M  V30 4907 C 462.879 3.29625 0.787451 0
M  V30 4908 C 462.052 4.37384 0.037171 0
M  V30 4909 C 461.111 5.183 0.908375 0
M  V30 4910 O 460.137 5.68053 0.361189 0
M  V30 4911 N 461.339 5.35912 2.23112 0
M  V30 4912 H 464.104 2.83771 -0.964071 0
M  V30 4913 H 461.665 1.47994 -0.656469 0
M  V30 4914 H 463.657 3.80648 1.37439 0
M  V30 4915 H 462.227 2.75004 1.48632 0
M  V30 4916 H 461.447 3.87364 -0.730935 0
M  V30 4917 H 462.735 5.0653 -0.480109 0
M  V30 4918 H 462.133 4.97125 2.69968 0
M  V30 4919 H 460.69 5.90133 2.76741 0
M  V30 4920 N 464.123 0.554532 1.47522 0
M  V30 4921 C 465.539 0.214107 1.58157 0
M  V30 4922 C 465.739 -1.28331 1.55349 0
M  V30 4923 O 464.795 -2.06329 1.45549 0
M  V30 4924 C 466.108 0.838391 2.88776 0
M  V30 4925 C 467.656 0.809374 3.02354 0
M  V30 4926 C 468.131 1.41268 4.35669 0
M  V30 4927 N 469.622 1.37574 4.42298 0
M  V30 4928 C 470.357 1.8122 5.4401 0
M  V30 4929 N 469.853 2.3271 6.52547 0
M  V30 4930 N 471.646 1.72307 5.35039 0
M  V30 4931 H 463.797 1.52744 1.4759 0
M  V30 4932 H 466.06 0.636812 0.702264 0
M  V30 4933 H 465.766 1.89065 2.96559 0
M  V30 4934 H 465.64 0.329847 3.75755 0
M  V30 4935 H 468.027 -0.234187 2.94169 0
M  V30 4936 H 468.108 1.35565 2.16924 0
M  V30 4937 H 467.752 2.45529 4.4461 0
M  V30 4938 H 467.682 0.841871 5.19827 0
M  V30 4939 H 470.173 0.999081 3.64454 0
M  V30 4940 H 470.486 2.63944 7.26329 0
M  V30 4941 H 468.831 2.36719 6.53444 0
M  V30 4942 H 472.022 1.3186 4.49144 0
M  V30 4943 H 472.195 2.06641 6.14169 0
M  V30 4944 N 465.601 -1.54893 0.290851 0
M  V30 4945 C 466.564 -2.21824 -0.576784 0
M  V30 4946 C 467.564 -1.20104 -1.06919 0
M  V30 4947 O 468.754 -1.44906 -0.966843 0
M  V30 4948 C 465.886 -2.89662 -1.79747 0
M  V30 4949 H 467.079 -2.99899 0.00784051 0
M  V30 4950 H 464.632 -1.56245 0.0415934 0
M  V30 4951 H 465.367 -2.15639 -2.42219 0
M  V30 4952 H 465.152 -3.64219 -1.45214 0
M  V30 4953 H 466.642 -3.4075 -2.4141 0
M  V30 4954 N 467.08 -0.0183926 -1.57589 0
M  V30 4955 C 468.01 0.965596 -2.12599 0
M  V30 4956 C 468.991 1.34641 -1.0395 0
M  V30 4957 O 470.176 1.42693 -1.31729 0
M  V30 4958 C 467.306 2.25149 -2.64434 0
M  V30 4959 C 466.26 2.01175 -3.77773 0
M  V30 4960 C 465.586 3.35937 -4.15994 0
M  V30 4961 C 466.886 1.35953 -5.04296 0
M  V30 4962 H 468.58 0.507504 -2.95067 0
M  V30 4963 H 466.126 0.242671 -1.41941 0
M  V30 4964 H 468.079 2.94357 -3.01549 0
M  V30 4965 H 466.803 2.73105 -1.79112 0
M  V30 4966 H 465.462 1.34388 -3.4108 0
M  V30 4967 H 465.11 3.81631 -3.27669 0
M  V30 4968 H 464.81 3.20705 -4.92364 0
M  V30 4969 H 466.334 4.0643 -4.55683 0
M  V30 4970 H 467.748 1.95144 -5.39065 0
M  V30 4971 H 466.145 1.31152 -5.85593 0
M  V30 4972 H 467.215 0.331071 -4.83768 0
M  V30 4973 N 468.558 1.5553 0.254621 0
M  V30 4974 C 469.804 1.77262 0.985193 0
M  V30 4975 C 470.137 0.582286 1.85265 0
M  V30 4976 O 469.412 -0.419666 1.89919 0
M  V30 4977 C 469.695 3.0881 1.85225 0
M  V30 4978 C 469.548 4.38233 1.0135 0
M  V30 4979 C 470.867 3.3653 2.83612 0
M  V30 4980 H 467.986 0.644906 0.356742 0
M  V30 4981 H 470.628 1.88264 0.256236 0
M  V30 4982 H 468.778 2.99562 2.47376 0
M  V30 4983 H 470.45 4.59463 0.411269 0
M  V30 4984 H 468.693 4.32636 0.317574 0
M  V30 4985 H 469.364 5.26644 1.65379 0
M  V30 4986 H 471.84 3.45691 2.31596 0
M  V30 4987 H 470.716 4.29805 3.41407 0
M  V30 4988 H 470.977 2.57064 3.59681 0
M  V30 4989 N 470.036 -0.519951 1.48776 0
M  V30 4990 C 470.966 -1.63253 1.66945 0
M  V30 4991 C 471.947 -1.62014 0.518224 0
M  V30 4992 O 473.132 -1.79053 0.751919 0
M  V30 4993 C 470.262 -3.0181 1.71836 0
M  V30 4994 C 469.216 -3.17911 2.8656 0
M  V30 4995 C 468.542 -4.5763 2.76548 0
M  V30 4996 C 469.842 -2.99729 4.27738 0
M  V30 4997 H 471.536 -1.48302 2.6009 0
M  V30 4998 H 469.082 -0.712026 1.25165 0
M  V30 4999 H 471.035 -3.79525 1.83135 0
M  V30 5000 H 469.759 -3.17806 0.752775 0
M  V30 5001 H 468.418 -2.42616 2.74833 0
M  V30 5002 H 468.066 -4.70476 1.77937 0
M  V30 5003 H 467.766 -4.69346 3.53536 0
M  V30 5004 H 469.29 -5.37431 2.89828 0
M  V30 5005 H 470.704 -3.67228 4.40246 0
M  V30 5006 H 469.101 -3.22932 5.05801 0
M  V30 5007 H 470.171 -1.96047 4.43502 0
M  V30 5008 N 471.514 -1.37532 -0.769588 0
M  V30 5009 C 472.93 -1.18379 -1.07045 0
M  V30 5010 C 473.13 -0.0214312 -2.01489 0
M  V30 5011 O 472.186 0.637809 -2.44312 0
M  V30 5012 C 473.499 -2.50338 -1.66588 0
M  V30 5013 C 475.047 -2.56879 -1.78835 0
M  V30 5014 C 475.522 -3.88974 -2.41792 0
M  V30 5015 N 477.013 -3.90428 -2.4924 0
M  V30 5016 C 477.748 -4.89388 -2.98809 0
M  V30 5017 N 477.244 -5.98745 -3.48535 0
M  V30 5018 N 479.037 -4.76791 -2.97703 0
M  V30 5019 H 471.188 -2.11921 -0.142541 0
M  V30 5020 H 473.451 -0.939608 -0.125863 0
M  V30 5021 H 473.157 -3.35767 -1.0466 0
M  V30 5022 H 473.031 -2.67583 -2.65856 0
M  V30 5023 H 475.418 -1.71856 -2.39895 0
M  V30 5024 H 475.499 -2.43516 -0.783166 0
M  V30 5025 H 475.143 -4.74412 -1.81371 0
M  V30 5026 H 475.073 -3.99641 -3.4292 0
M  V30 5027 H 477.564 -3.11433 -2.14052 0
M  V30 5028 H 477.877 -6.70205 -3.84767 0
M  V30 5029 H 476.222 -6.02387 -3.46634 0
M  V30 5030 H 479.413 -3.90478 -2.58157 0
M  V30 5031 H 479.586 -5.54069 -3.36024 0
M  V30 5032 N 472.992 0.995999 -1.22138 0
M  V30 5033 C 474.408 1.25917 -0.980667 0
M  V30 5034 C 474.608 1.98819 0.327604 0
M  V30 5035 O 473.664 2.29587 1.05101 0
M  V30 5036 C 474.977 2.07399 -2.17729 0
M  V30 5037 C 476.525 2.20594 -2.22052 0
M  V30 5038 C 477 3.05462 -3.41258 0
M  V30 5039 N 478.491 3.13049 -3.41401 0
M  V30 5040 C 479.226 3.78997 -4.30289 0
M  V30 5041 N 478.722 4.46899 -5.2939 0
M  V30 5042 N 480.515 3.75728 -4.18073 0
M  V30 5043 H 472.666 0.507158 -2.06256 0
M  V30 5044 H 474.929 0.28658 -0.903646 0
M  V30 5045 H 474.635 1.61191 -3.12586 0
M  V30 5046 H 474.509 3.08154 -2.17534 0
M  V30 5047 H 476.896 2.66017 -1.27745 0
M  V30 5048 H 476.977 1.1928 -2.26287 0
M  V30 5049 H 476.621 2.60739 -4.35864 0
M  V30 5050 H 476.551 4.06911 -3.34262 0
M  V30 5051 H 479.042 2.64721 -2.69688 0
M  V30 5052 H 479.355 4.94952 -5.935 0
M  V30 5053 H 477.7 4.45657 -5.33306 0
M  V30 5054 H 480.891 3.2184 -3.39907 0
M  V30 5055 H 481.064 4.26845 -4.87553 0
M  V30 5056 N 474.47 1.03057 1.19235 0
M  V30 5057 C 475.417 0.612832 2.22515 0
M  V30 5058 C 476.387 -0.374224 1.61829 0
M  V30 5059 O 477.572 -0.270501 1.88873 0
M  V30 5060 C 474.712 -0.028475 3.45088 0
M  V30 5061 C 473.825 1.00483 4.20151 0
M  V30 5062 C 472.96 0.333102 5.30155 0
M  V30 5063 C 471.999 1.3522 5.96977 0
M  V30 5064 N 471.136 0.70616 6.9854 0
M  V30 5065 H 475.976 1.49812 2.57605 0
M  V30 5066 H 473.513 0.749658 1.26564 0
M  V30 5067 H 475.471 -0.417548 4.15105 0
M  V30 5068 H 474.101 -0.877334 3.10649 0
M  V30 5069 H 473.153 1.51194 3.49062 0
M  V30 5070 H 474.465 1.77929 4.65986 0
M  V30 5071 H 473.619 -0.110725 6.06599 0
M  V30 5072 H 472.358 -0.473547 4.85396 0
M  V30 5073 H 471.363 1.80627 5.19282 0
M  V30 5074 H 472.588 2.16037 6.4382 0
M  V30 5075 H 470.534 -0.0803667 6.55951 0
M  V30 5076 H 470.451 1.41848 7.42573 0
M  V30 5077 H 471.719 0.286391 7.78974 0
M  V30 5078 N 475.948 -1.35272 0.808662 0
M  V30 5079 C 477.364 -1.51806 0.492653 0
M  V30 5080 C 477.564 -1.7574 -0.985778 0
M  V30 5081 O 476.62 -1.80003 -1.77074 0
M  V30 5082 C 477.933 -2.69202 1.33981 0
M  V30 5083 C 479.481 -2.8308 1.33547 0
M  V30 5084 C 479.956 -4.03502 2.16679 0
M  V30 5085 N 481.447 -4.10684 2.14227 0
M  V30 5086 C 482.182 -5.02984 2.75308 0
M  V30 5087 N 481.678 -6.00603 3.45323 0
M  V30 5088 N 483.471 -4.95746 2.64938 0
M  V30 5089 H 475.622 -1.17993 1.76611 0
M  V30 5090 H 477.885 -0.577476 0.751814 0
M  V30 5091 H 477.591 -2.581 2.38909 0
M  V30 5092 H 477.465 -3.63854 0.994491 0
M  V30 5093 H 479.852 -2.93631 0.294036 0
M  V30 5094 H 479.933 -1.89278 1.72068 0
M  V30 5095 H 479.577 -3.93711 3.20864 0
M  V30 5096 H 479.507 -4.96489 1.75517 0
M  V30 5097 H 481.998 -3.40802 1.63285 0
M  V30 5098 H 482.311 -6.67633 3.89212 0
M  V30 5099 H 480.656 -6.0077 3.49428 0
M  V30 5100 H 483.847 -4.18439 2.09825 0
M  V30 5101 H 484.02 -5.67487 3.12829 0
M  V30 5102 N 477.426 -0.562348 -1.47226 0
M  V30 5103 C 478.373 0.182461 -2.30078 0
M  V30 5104 C 479.343 0.903503 -1.39377 0
M  V30 5105 O 480.528 0.898188 -1.68337 0
M  V30 5106 C 477.668 1.20322 -3.23445 0
M  V30 5107 C 476.781 0.487717 -4.29238 0
M  V30 5108 C 475.916 1.49422 -5.09752 0
M  V30 5109 C 474.955 0.763976 -6.07314 0
M  V30 5110 N 474.092 1.71755 -6.80768 0
M  V30 5111 H 478.932 -0.530169 -2.93246 0
M  V30 5112 H 476.469 -0.273276 -1.44539 0
M  V30 5113 H 478.427 1.80768 -3.76004 0
M  V30 5114 H 477.057 1.88382 -2.6213 0
M  V30 5115 H 476.109 -0.231374 -3.79696 0
M  V30 5116 H 477.421 -0.0841003 -4.98729 0
M  V30 5117 H 476.575 2.17206 -5.66486 0
M  V30 5118 H 475.314 2.09995 -4.40174 0
M  V30 5119 H 474.319 0.0722344 -5.49753 0
M  V30 5120 H 475.544 0.16391 -6.78902 0
M  V30 5121 H 473.49 2.31177 -6.13916 0
M  V30 5122 H 473.407 1.19802 -7.46447 0
M  V30 5123 H 474.675 2.38638 -7.42073 0
M  V30 5124 N 478.904 1.54736 -0.299062 0
M  V30 5125 C 480.32 1.59507 0.0543849 0
M  V30 5126 C 480.52 1.31606 1.52585 0
M  V30 5127 O 479.576 1.08853 2.27832 0
M  V30 5128 C 480.889 2.98751 -0.34181 0
M  V30 5129 C 482.437 3.1165 -0.290414 0
M  V30 5130 C 482.912 4.53199 -0.661402 0
M  V30 5131 N 484.403 4.59114 -0.613863 0
M  V30 5132 C 485.138 5.66709 -0.873417 0
M  V30 5133 N 484.634 6.82349 -1.19884 0
M  V30 5134 N 486.427 5.56369 -0.800608 0
M  V30 5135 H 478.578 1.71133 -1.25806 0
M  V30 5136 H 480.841 0.799186 -0.509908 0
M  V30 5137 H 480.547 3.24085 -1.36608 0
M  V30 5138 H 480.421 3.75961 0.305508 0
M  V30 5139 H 482.808 2.86066 0.724605 0
M  V30 5140 H 482.889 2.366 -0.972327 0
M  V30 5141 H 482.533 4.79513 -1.67422 0
M  V30 5142 H 482.463 5.26583 0.0425612 0
M  V30 5143 H 484.954 3.76053 -0.3732 0
M  V30 5144 H 485.267 7.60326 -1.38291 0
M  V30 5145 H 483.612 6.83906 -1.23685 0
M  V30 5146 H 486.803 4.64904 -0.546045 0
M  V30 5147 H 486.976 6.40139 -1.00626 0
M  V30 5148 N 480.382 0.0267497 1.57577 0
M  V30 5149 C 481.315 -0.99059 2.05579 0
M  V30 5150 C 482.293 -1.31884 0.951065 0
M  V30 5151 O 483.477 -1.43592 1.22121 0
M  V30 5152 C 480.604 -2.31125 2.47586 0
M  V30 5153 C 479.65 -2.13777 3.69055 0
M  V30 5154 S 480.483 -1.4388 5.15809 0
M  V30 5155 C 481.639 -2.77321 5.6111 0
M  V30 5156 H 481.872 -0.581976 2.91548 0
M  V30 5157 H 479.405 -0.184876 1.53289 0
M  V30 5158 H 481.363 -3.07049 2.72454 0
M  V30 5159 H 480.024 -2.6912 1.61967 0
M  V30 5160 H 479.217 -3.11405 3.96287 0
M  V30 5161 H 478.819 -1.45996 3.44327 0
M  V30 5162 H 481.111 -3.73565 5.65204 0
M  V30 5163 H 482.054 -2.54756 6.60685 0
M  V30 5164 H 482.462 -2.82459 4.88751 0
M  V30 5165 N 481.861 -1.55662 -0.24637 0
M  V30 5166 C 483.089 -1.81575 -0.991876 0
M  V30 5167 C 483.504 -0.602545 -1.78927 0
M  V30 5168 O 482.861 0.428795 -1.77391 0
M  V30 5169 C 482.912 -3.05711 -1.92933 0
M  V30 5170 O 482.633 -4.22348 -1.1642 0
M  V30 5171 C 484.134 -3.44428 -2.79078 0
M  V30 5172 H 481.354 -0.604209 -0.291844 0
M  V30 5173 H 483.898 -2.02722 -0.269095 0
M  V30 5174 H 482.053 -2.86612 -2.60638 0
M  V30 5175 H 482.467 -4.92706 -1.79835 0
M  V30 5176 H 483.941 -4.34388 -3.40603 0
M  V30 5177 H 484.418 -2.65037 -3.50217 0
M  V30 5178 H 485.024 -3.65879 -2.16824 0
M  V30 5179 N 483.339 0.512053 -1.4905 0
M  V30 5180 C 484.616 1.27337 -1.48474 0
M  V30 5181 C 484.996 2.1009 -0.206301 0
M  V30 5182 O 484.344 2.136 0.811609 0
M  V30 5183 C 484.554 2.13954 -2.75726 0
M  V30 5184 C 485.902 2.73507 -3.24776 0
M  V30 5185 O 486.926 2.24229 -2.76767 0
M  V30 5186 O 485.785 3.63186 -4.08361 0
M  V30 5187 H 482.879 0.575652 -0.593762 0
M  V30 5188 H 485.425 0.527232 -1.61302 0
M  V30 5189 H 484.197 1.52709 -3.60272 0
M  V30 5190 H 483.82 2.95782 -2.65705 0
M  V30 5191 N 484.817 1.37938 0.762283 0
M  V30 5192 C 486.228 1.30094 1.33912 0
M  V30 5193 C 486.579 -0.0472026 1.96143 0
M  V30 5194 O 485.704 -0.94917 1.94473 0
M  V30 5195 C 486.299 2.35592 2.43478 0
M  V30 5196 C 484.858 2.31353 2.96905 0
M  V30 5197 C 484.005 2.18919 1.70205 0
M  V30 5198 H 486.956 1.48423 0.561816 0
M  V30 5199 H 486.977 2.00806 3.23199 0
M  V30 5200 H 486.489 3.33701 1.98155 0
M  V30 5201 H 484.59 1.36799 3.46579 0
M  V30 5202 H 484.703 3.25147 3.51875 0
M  V30 5203 H 483.067 1.65624 1.93496 0
M  V30 5204 H 483.85 3.18956 1.26973 0
M  V30 5205 N 486.295 -0.989507 1.22664 0
M  V30 5206 C 487.523 -1.76496 1.07967 0
M  V30 5207 C 487.938 -1.85148 -0.369543 0
M  V30 5208 O 487.295 -1.32408 -1.25596 0
M  V30 5209 C 487.346 -3.19642 1.68853 0
M  V30 5210 O 487.067 -3.11453 3.08105 0
M  V30 5211 C 488.568 -4.13621 1.59475 0
M  V30 5212 H 485.788 -0.55418 0.378319 0
M  V30 5213 H 488.332 -1.24378 1.62328 0
M  V30 5214 H 486.487 -3.68816 1.18547 0
M  V30 5215 H 486.901 -4.01499 3.37489 0
M  V30 5216 H 488.375 -5.11801 2.06795 0
M  V30 5217 H 488.852 -4.35718 0.55191 0
M  V30 5218 H 489.458 -3.70346 2.09103 0
M  V30 5219 N 487.773 -1.03688 -1.18687 0
M  V30 5220 C 489.189 -0.755413 -1.4059 0
M  V30 5221 C 489.389 0.656659 -1.905 0
M  V30 5222 O 488.445 1.42144 -2.08689 0
M  V30 5223 C 489.758 -1.7983 -2.41001 0
M  V30 5224 C 491.306 -1.81877 -2.54735 0
M  V30 5225 C 491.781 -2.85148 -3.58406 0
M  V30 5226 N 493.272 -2.84015 -3.6591 0
M  V30 5227 C 494.007 -3.60573 -4.45841 0
M  V30 5228 N 493.503 -4.46871 -5.29413 0
M  V30 5229 N 495.296 -3.49079 -4.40568 0
M  V30 5230 H 487.447 -1.94818 -0.846148 0
M  V30 5231 H 489.71 -0.842727 -0.434184 0
M  V30 5232 H 489.416 -2.81097 -2.1137 0
M  V30 5233 H 489.29 -1.62727 -3.40294 0
M  V30 5234 H 491.677 -0.812836 -2.83685 0
M  V30 5235 H 491.758 -2.03057 -1.55568 0
M  V30 5236 H 491.402 -3.85918 -3.30197 0
M  V30 5237 H 491.332 -2.61224 -4.57241 0
M  V30 5238 H 493.823 -2.21431 -3.0623 0
M  V30 5239 H 494.136 -5.02007 -5.87545 0
M  V30 5240 H 492.481 -4.5094 -5.28846 0
M  V30 5241 H 495.672 -2.81066 -3.74325 0
M  V30 5242 H 495.845 -4.08994 -5.02621 0
M  V30 5243 N 489.251 1.34841 -0.815825 0
M  V30 5244 C 490.667 1.51543 -0.500697 0
M  V30 5245 C 490.867 1.76261 0.976444 0
M  V30 5246 O 489.923 1.8094 1.76117 0
M  V30 5247 C 491.236 2.68487 -1.35407 0
M  V30 5248 C 492.784 2.82368 -1.35046 0
M  V30 5249 C 493.259 4.02347 -2.18816 0
M  V30 5250 N 494.75 4.09542 -2.16402 0
M  V30 5251 C 495.485 5.01517 -2.77971 0
M  V30 5252 N 494.981 5.98763 -3.48503 0
M  V30 5253 N 496.774 4.94334 -2.67563 0
M  V30 5254 H 488.925 1.17055 -1.77234 0
M  V30 5255 H 491.188 0.573481 -0.754866 0
M  V30 5256 H 490.894 2.56829 -2.40274 0
M  V30 5257 H 490.768 3.63321 -1.01377 0
M  V30 5258 H 493.155 2.93471 -0.309604 0
M  V30 5259 H 493.236 1.88363 -1.73069 0
M  V30 5260 H 492.88 3.92004 -3.22948 0
M  V30 5261 H 492.81 4.95551 -1.78148 0
M  V30 5262 H 495.301 3.39932 -1.65091 0
M  V30 5263 H 495.614 6.6556 -3.92747 0
M  V30 5264 H 493.959 5.98909 -3.52609 0
M  V30 5265 H 497.15 4.1732 -2.12041 0
M  V30 5266 H 497.323 5.6582 -3.15834 0
M  V30 5267 N 490.729 0.570148 1.46925 0
M  V30 5268 C 491.976 0.0509529 2.02436 0
M  V30 5269 C 492.304 -1.30405 1.44308 0
M  V30 5270 O 491.559 -1.86493 0.593198 0
M  V30 5271 C 491.858 -0.0780336 3.57315 0
M  V30 5272 C 491.524 1.20775 4.34424 0
M  V30 5273 C 490.186 1.56004 4.5521 0
M  V30 5274 C 492.538 2.0592 4.78797 0
M  V30 5275 C 489.866 2.76201 5.17619 0
M  V30 5276 C 492.218 3.25332 5.42533 0
M  V30 5277 C 490.882 3.60859 5.61549 0
M  V30 5278 H 490.152 0.018645 0.740765 0
M  V30 5279 H 492.799 0.744262 1.76445 0
M  V30 5280 H 491.104 -0.854394 3.82371 0
M  V30 5281 H 492.801 -0.495312 3.97929 0
M  V30 5282 H 489.391 0.923469 4.18533 0
M  V30 5283 H 493.575 1.80008 4.62505 0
M  V30 5284 H 488.831 3.0388 5.30535 0
M  V30 5285 H 493.005 3.91586 5.75876 0
M  V30 5286 H 490.632 4.54088 6.09678 0
M  V30 5287 N 492.207 -1.54576 0.307264 0
M  V30 5288 C 493.454 -2.00263 -0.300167 0
M  V30 5289 C 493.782 -1.19561 -1.53413 0
M  V30 5290 O 493.037 -0.261487 -1.93945 0
M  V30 5291 C 493.336 -3.50572 -0.695253 0
M  V30 5292 C 493.002 -4.48771 0.437679 0
M  V30 5293 C 491.664 -4.7534 0.748681 0
M  V30 5294 C 494.016 -5.0721 1.19949 0
M  V30 5295 C 491.344 -5.5761 1.8245 0
M  V30 5296 C 493.696 -5.90651 2.26527 0
M  V30 5297 C 492.36 -6.15528 2.58227 0
M  V30 5298 H 491.63 -0.732814 -0.109839 0
M  V30 5299 H 494.277 -1.86664 0.427661 0
M  V30 5300 H 492.582 -3.61814 -1.50326 0
M  V30 5301 H 494.279 -3.83352 -1.17653 0
M  V30 5302 H 490.869 -4.282 0.185187 0
M  V30 5303 H 495.053 -4.86679 0.972474 0
M  V30 5304 H 490.309 -5.75121 2.07476 0
M  V30 5305 H 494.483 -6.34957 2.86011 0
M  V30 5306 H 492.11 -6.79066 3.4172 0
M  V30 5307 N 493.685 -0.035106 -1.57561 0
M  V30 5308 C 494.632 0.94474 -2.10578 0
M  V30 5309 C 495.602 1.3192 -1.00927 0
M  V30 5310 O 496.787 1.41147 -1.28382 0
M  V30 5311 C 493.927 2.21982 -2.64231 0
M  V30 5312 C 493.04 1.90128 -3.87911 0
M  V30 5313 C 492.175 3.11975 -4.29936 0
M  V30 5314 C 491.214 2.75968 -5.46359 0
M  V30 5315 N 490.351 3.90459 -5.83512 0
M  V30 5316 H 495.191 0.485717 -2.94015 0
M  V30 5317 H 492.728 0.228143 -1.4532 0
M  V30 5318 H 494.686 2.96572 -2.9343 0
M  V30 5319 H 493.316 2.6549 -1.83616 0
M  V30 5320 H 492.368 1.05755 -3.65404 0
M  V30 5321 H 493.68 1.59613 -4.72573 0
M  V30 5322 H 492.834 3.9488 -4.60603 0
M  V30 5323 H 491.573 3.45657 -3.44053 0
M  V30 5324 H 490.578 1.91478 -5.1538 0
M  V30 5325 H 491.803 2.43497 -6.33945 0
M  V30 5326 H 489.749 4.23971 -5.00584 0
M  V30 5327 H 489.666 3.63588 -6.62827 0
M  V30 5328 H 490.934 4.7405 -6.18787 0
M  V30 5329 N 495.163 1.55791 0.238111 0
M  V30 5330 C 496.409 1.78297 0.966337 0
M  V30 5331 C 496.742 0.601903 1.84637 0
M  V30 5332 O 496.017 -0.399499 1.90353 0
M  V30 5333 C 496.3 3.10758 1.81939 0
M  V30 5334 C 496.153 4.39283 0.966958 0
M  V30 5335 C 497.472 3.39519 2.80027 0
M  V30 5336 H 494.591 0.648654 0.349882 0
M  V30 5337 H 497.233 1.88525 0.236253 0
M  V30 5338 H 495.383 3.02168 2.44185 0
M  V30 5339 H 497.055 4.59873 0.362514 0
M  V30 5340 H 495.298 4.32948 0.271669 0
M  V30 5341 H 495.969 5.28368 1.59784 0
M  V30 5342 H 498.445 3.48128 2.27917 0
M  V30 5343 H 497.321 4.33402 3.36829 0
M  V30 5344 H 497.582 2.60864 3.56934 0
M  V30 5345 N 496.642 -0.504142 1.49319 0
M  V30 5346 C 497.87 -1.28256 1.62351 0
M  V30 5347 C 498.285 -1.86502 0.293682 0
M  V30 5348 O 497.642 -1.67678 -0.720449 0
M  V30 5349 C 497.693 -2.41507 2.68992 0
M  V30 5350 O 497.414 -1.85656 3.96817 0
M  V30 5351 C 498.915 -3.32929 2.927 0
M  V30 5352 H 496.135 -0.389115 0.546654 0
M  V30 5353 H 498.679 -0.605531 1.95329 0
M  V30 5354 H 496.834 -3.05046 2.38801 0
M  V30 5355 H 497.248 -2.59981 4.55533 0
M  V30 5356 H 498.722 -4.0868 3.71058 0
M  V30 5357 H 499.199 -3.89733 2.02496 0
M  V30 5358 H 499.805 -2.75158 3.24296 0
M  V30 5359 N 498.12 -1.38341 -0.754957 0
M  V30 5360 C 499.531 -1.30803 -1.3322 0
M  V30 5361 C 499.882 0.0368 -1.96165 0
M  V30 5362 O 499.007 0.938844 -1.94974 0
M  V30 5363 C 499.602 -2.3688 -2.42225 0
M  V30 5364 C 498.161 -2.32925 -2.95674 0
M  V30 5365 C 497.308 -2.19819 -1.69042 0
M  V30 5366 H 500.259 -1.48719 -0.553937 0
M  V30 5367 H 500.28 -2.02517 -3.22129 0
M  V30 5368 H 499.792 -3.34747 -1.96383 0
M  V30 5369 H 497.893 -1.38635 -3.45848 0
M  V30 5370 H 498.006 -3.27008 -3.50146 0
M  V30 5371 H 496.37 -1.66648 -1.92615 0
M  V30 5372 H 497.153 -3.19625 -1.25279 0
M  V30 5373 N 499.598 0.982988 -1.23187 0
M  V30 5374 C 501.009 1.53847 -1.05773 0
M  V30 5375 C 501.36 1.92568 0.375744 0
M  V30 5376 O 500.485 1.75783 1.26211 0
M  V30 5377 C 501.08 2.79567 -1.91384 0
M  V30 5378 C 499.639 3.31524 -1.78238 0
M  V30 5379 C 498.786 2.04534 -1.87246 0
M  V30 5380 H 501.737 0.802962 -1.36888 0
M  V30 5381 H 501.758 3.52317 -1.43711 0
M  V30 5382 H 501.27 2.51353 -2.95708 0
M  V30 5383 H 499.371 3.64623 -0.766875 0
M  V30 5384 H 499.484 4.01457 -2.61475 0
M  V30 5385 H 497.848 2.1855 -1.30797 0
M  V30 5386 H 498.631 1.78706 -2.9312 0
M  V30 5387 N 501.076 1.04316 1.18135 0
M  V30 5388 C 502.487 0.775505 1.69832 0
M  V30 5389 C 502.838 -0.703348 1.8316 0
M  V30 5390 O 501.963 -1.54729 1.51287 0
M  V30 5391 C 502.558 1.40112 3.0847 0
M  V30 5392 C 501.117 1.18172 3.57368 0
M  V30 5393 C 500.264 1.49022 2.33854 0
M  V30 5394 H 503.215 1.20925 1.02775 0
M  V30 5395 H 503.236 0.805672 3.71873 0
M  V30 5396 H 502.748 2.47744 2.98738 0
M  V30 5397 H 500.849 0.124258 3.72393 0
M  V30 5398 H 500.962 1.8805 4.40652 0
M  V30 5399 H 499.326 0.909995 2.37889 0
M  V30 5400 H 500.109 2.57768 2.26738 0
M  V30 5401 N 502.554 -1.34406 0.822964 0
M  V30 5402 C 503.802 -1.97892 0.410245 0
M  V30 5403 C 504.123 -1.65567 -1.03017 0
M  V30 5404 O 503.393 -0.94642 -1.71522 0
M  V30 5405 H 501.973 -0.732049 0.148707 0
M  V30 5406 H 504.635 -1.64043 1.05242 0
M  V30 5407 H 503.731 -3.07579 0.529284 0
M  V30 5408 N 504.032 -0.577932 -1.46621 0
M  V30 5409 C 505.257 -0.0652536 -2.07297 0
M  V30 5410 C 505.682 1.22828 -1.4246 0
M  V30 5411 O 505.04 1.74075 -0.506718 0
M  V30 5412 C 505.088 0.0920589 -3.60482 0
M  V30 5413 O 504.192 1.14972 -3.96049 0
M  V30 5414 H 503.533 -0.06065 -0.661224 0
M  V30 5415 H 506.063 -0.799515 -1.88332 0
M  V30 5416 H 506.073 0.299741 -4.06897 0
M  V30 5417 H 504.748 -0.852612 -4.07067 0
M  V30 5418 H 503.325 0.920879 -3.61351 0
M  V30 5419 N 505.51 1.54411 -0.315457 0
M  V30 5420 C 506.758 2.00023 0.288971 0
M  V30 5421 C 507.079 1.20529 1.5329 0
M  V30 5422 O 506.349 0.304986 1.93511 0
M  V30 5423 H 504.929 0.738891 0.109766 0
M  V30 5424 H 507.591 1.90094 -0.430129 0
M  V30 5425 H 506.687 3.07198 0.550999 0
M  V30 5426 N 506.988 0.0434614 1.5754 0
M  V30 5427 C 508.399 -0.493343 1.80064 0
M  V30 5428 C 508.75 -1.71388 0.955023 0
M  V30 5429 O 507.875 -2.15736 0.169434 0
M  V30 5430 C 508.47 -0.90179 3.26578 0
M  V30 5431 C 507.029 -1.38362 3.50047 0
M  V30 5432 C 506.176 -0.355129 2.75017 0
M  V30 5433 H 509.127 0.2694 1.56397 0
M  V30 5434 H 509.148 -1.76523 3.37075 0
M  V30 5435 H 508.66 -0.013271 3.88098 0
M  V30 5436 H 506.761 -2.29159 2.93798 0
M  V30 5437 H 506.874 -1.3811 4.58762 0
M  V30 5438 H 505.238 -0.826348 2.40922 0
M  V30 5439 H 506.021 0.525172 3.39259 0
M  V30 5440 N 508.466 -1.55915 -0.229846 0
M  V30 5441 C 509.398 -1.88209 -1.30805 0
M  V30 5442 C 510.411 -0.769672 -1.43457 0
M  V30 5443 O 511.6 -1.04792 -1.44502 0
M  V30 5444 C 508.7 -2.06829 -2.68468 0
M  V30 5445 C 507.873 -3.37798 -2.77869 0
M  V30 5446 C 506.932 -3.45952 -3.96489 0
M  V30 5447 O 505.958 -4.19043 -3.85216 0
M  V30 5448 N 507.16 -2.76488 -5.10426 0
M  V30 5449 H 509.925 -2.81286 -1.03431 0
M  V30 5450 H 507.486 -1.5636 -0.41991 0
M  V30 5451 H 509.478 -2.09608 -3.46189 0
M  V30 5452 H 508.048 -1.20416 -2.88477 0
M  V30 5453 H 507.268 -3.4719 -1.86689 0
M  V30 5454 H 508.556 -4.24091 -2.81113 0
M  V30 5455 H 507.954 -2.16868 -5.2248 0
M  V30 5456 H 506.511 -2.84938 -5.8622 0
M  V30 5457 N 509.944 0.496216 -1.49584 0
M  V30 5458 C 510.892 1.61805 -1.67098 0
M  V30 5459 C 511.886 1.60667 -0.536877 0
M  V30 5460 O 513.092 1.65118 -0.716654 0
M  V30 5461 H 509.467 0.53646 -0.526986 0
M  V30 5462 H 511.438 1.44187 -2.61252 0
M  V30 5463 C 510.187 2.99912 -1.75921 0
M  V30 5464 H 509.51 3.01496 -2.62565 0
M  V30 5465 H 510.95 3.77931 -1.92209 0
M  V30 5466 C 509.409 3.33092 -0.505088 0
M  V30 5467 O 509.939 4.00019 0.367085 0
M  V30 5468 N 508.145 2.88278 -0.366599 0
M  V30 5469 H 507.692 2.33989 -1.07735 0
M  V30 5470 H 507.65 3.10846 0.47142 0
M  V30 5471 N 511.423 1.38739 0.74761 0
M  V30 5472 C 512.355 1.32341 1.87132 0
M  V30 5473 C 513.368 0.234502 1.61102 0
M  V30 5474 O 514.557 0.492516 1.71571 0
M  V30 5475 C 511.657 1.02915 3.22896 0
M  V30 5476 C 510.83 2.22834 3.76383 0
M  V30 5477 C 509.889 1.90059 4.90677 0
M  V30 5478 O 508.915 2.62615 5.04997 0
M  V30 5479 N 510.117 0.859141 5.74107 0
M  V30 5480 H 512.882 2.29175 1.93129 0
M  V30 5481 H 510.443 1.32678 0.927805 0
M  V30 5482 H 512.435 0.79031 3.96908 0
M  V30 5483 H 511.005 0.148572 3.12247 0
M  V30 5484 H 510.225 2.62747 2.93867 0
M  V30 5485 H 511.513 3.02851 4.08851 0
M  V30 5486 H 510.911 0.257564 5.65113 0
M  V30 5487 H 509.468 0.680189 6.48241 0
M  V30 5488 N 512.901 -0.976442 1.23707 0
M  V30 5489 C 514.131 -1.75087 1.09673 0
M  V30 5490 C 514.539 -1.85852 -0.354344 0
M  V30 5491 O 513.882 -1.33985 -1.25673 0
M  V30 5492 C 513.944 -3.19272 1.65245 0
M  V30 5493 C 513.608 -3.32004 3.14042 0
M  V30 5494 C 514.605 -3.18017 4.11292 0
M  V30 5495 C 512.29 -3.56525 3.53829 0
M  V30 5496 C 514.284 -3.28363 5.46312 0
M  V30 5497 C 511.971 -3.6651 4.88993 0
M  V30 5498 C 512.969 -3.52439 5.85043 0
M  V30 5499 O 512.657 -3.62063 7.1775 0
M  V30 5500 H 512.389 -0.556164 0.384262 0
M  V30 5501 H 514.943 -1.23518 1.64111 0
M  V30 5502 H 513.173 -3.72107 1.05231 0
M  V30 5503 H 514.862 -3.7849 1.46629 0
M  V30 5504 H 515.628 -2.98966 3.81896 0
M  V30 5505 H 511.507 -3.66547 2.79579 0
M  V30 5506 H 515.051 -3.17297 6.21263 0
M  V30 5507 H 510.948 -3.85072 5.18063 0
M  V30 5508 H 511.716 -3.78833 7.25553 0
M  V30 5509 N 514.379 -1.04941 -1.1758 0
M  V30 5510 C 515.627 -0.756492 -1.87408 0
M  V30 5511 C 515.948 0.718478 -1.81281 0
M  V30 5512 O 515.218 1.519 -1.23706 0
M  V30 5513 H 513.798 -0.276841 -0.693807 0
M  V30 5514 H 516.46 -1.32803 -1.42652 0
M  V30 5515 H 515.556 -1.06918 -2.93215 0
M  V30 5516 N 515.857 1.33968 -0.830081 0
M  V30 5517 C 516.805 2.31301 -0.245435 0
M  V30 5518 C 517.799 1.57734 0.617762 0
M  V30 5519 O 519.005 1.72674 0.508303 0
M  V30 5520 H 515.38 0.749552 -0.0606316 0
M  V30 5521 H 517.351 2.78129 -1.08105 0
M  V30 5522 C 516.1 3.42961 0.572084 0
M  V30 5523 H 515.423 3.99714 -0.0828118 0
M  V30 5524 H 516.863 4.13286 0.94715 0
M  V30 5525 C 515.322 2.88043 1.74737 0
M  V30 5526 O 515.852 2.83508 2.8458 0
M  V30 5527 N 514.058 2.44768 1.56642 0
M  V30 5528 H 513.605 2.48656 0.672901 0
M  V30 5529 H 513.563 2.08375 2.3543 0
M  V30 5530 N 517.335 0.585699 1.46312 0
M  V30 5531 C 518.581 0.0725284 2.0267 0
M  V30 5532 C 518.914 -1.28523 1.45586 0
M  V30 5533 O 518.189 -1.84283 0.622101 0
M  V30 5534 C 518.472 0.0099788 3.60099 0
M  V30 5535 C 518.325 1.39685 4.27561 0
M  V30 5536 C 519.644 -0.689117 4.34671 0
M  V30 5537 H 516.763 0.0278307 0.736474 0
M  V30 5538 H 519.405 0.753472 1.74421 0
M  V30 5539 H 517.555 -0.56992 3.84297 0
M  V30 5540 H 519.227 2.02215 4.14617 0
M  V30 5541 H 517.47 1.96374 3.86807 0
M  V30 5542 H 518.141 1.30553 5.36339 0
M  V30 5543 H 520.617 -0.196446 4.15636 0
M  V30 5544 H 519.493 -0.701921 5.44393 0
M  V30 5545 H 519.754 -1.75101 4.05946 0
M  V30 5546 N 518.813 -1.54241 0.323641 0
M  V30 5547 C 519.743 -2.27289 -0.534993 0
M  V30 5548 C 520.724 -1.28087 -1.11927 0
M  V30 5549 O 521.909 -1.56899 -1.14439 0
M  V30 5550 C 519.039 -3.03075 -1.69596 0
M  V30 5551 C 517.993 -4.09614 -1.24098 0
M  V30 5552 C 517.319 -4.73242 -2.4889 0
M  V30 5553 C 518.619 -5.21087 -0.355789 0
M  V30 5554 H 520.313 -2.99308 0.0743257 0
M  V30 5555 H 517.859 -1.43952 0.0371874 0
M  V30 5556 H 519.812 -3.52907 -2.30293 0
M  V30 5557 H 518.536 -2.28673 -2.33187 0
M  V30 5558 H 517.195 -3.60666 -0.656945 0
M  V30 5559 H 516.843 -3.95455 -3.10845 0
M  V30 5560 H 516.543 -5.45209 -2.19138 0
M  V30 5561 H 518.067 -5.25848 -3.10348 0
M  V30 5562 H 519.481 -5.66675 -0.869042 0
M  V30 5563 H 517.878 -5.9991 -0.151045 0
M  V30 5564 H 518.948 -4.81005 0.613339 0
M  V30 5565 N 520.291 -0.0518155 -1.57515 0
M  V30 5566 C 521.516 0.634896 -1.97443 0
M  V30 5567 C 521.941 1.63546 -0.929207 0
M  V30 5568 O 521.299 1.80981 0.107484 0
M  V30 5569 C 521.347 1.29765 -3.36442 0
M  V30 5570 O 520.451 2.41333 -3.34413 0
M  V30 5571 H 519.792 0.164994 -0.643174 0
M  V30 5572 H 522.322 -0.120407 -2.04245 0
M  V30 5573 H 522.332 1.64918 -3.73184 0
M  V30 5574 H 521.007 0.564361 -4.12053 0
M  V30 5575 H 519.584 2.08122 -3.09418 0
M  V30 5576 N 521.769 1.56035 0.221574 0
M  V30 5577 C 522.699 1.95434 1.2778 0
M  V30 5578 C 523.68 0.822564 1.48889 0
M  V30 5579 O 524.865 1.08486 1.61072 0
M  V30 5580 C 521.995 2.27102 2.62759 0
M  V30 5581 C 520.949 3.4277 2.56306 0
M  V30 5582 C 520.275 3.60043 3.95314 0
M  V30 5583 C 521.575 4.77742 2.11093 0
M  V30 5584 H 523.269 2.83912 0.950504 0
M  V30 5585 H 520.815 1.36596 0.455791 0
M  V30 5586 H 522.768 2.53256 3.36807 0
M  V30 5587 H 521.492 1.35478 2.97176 0
M  V30 5588 H 520.151 3.16664 1.84715 0
M  V30 5589 H 519.799 2.65794 4.27039 0
M  V30 5590 H 519.499 4.37841 3.91879 0
M  V30 5591 H 521.023 3.88545 4.71025 0
M  V30 5592 H 522.437 5.03102 2.74885 0
M  V30 5593 H 520.834 5.58823 2.18716 0
M  V30 5594 H 521.904 4.731 1.06321 0
M  V30 5595 N 523.247 -0.488276 1.49845 0
M  V30 5596 C 524.658 -1.06955 1.53028 0
M  V30 5597 C 525.009 -1.9351 0.323797 0
M  V30 5598 O 524.134 -2.08891 -0.565116 0
M  V30 5599 C 524.729 -1.94643 2.77307 0
M  V30 5600 C 523.288 -2.4791 2.83227 0
M  V30 5601 C 522.435 -1.25833 2.47106 0
M  V30 5602 H 525.386 -0.271626 1.56358 0
M  V30 5603 H 525.407 -2.79496 2.5819 0
M  V30 5604 H 524.919 -1.31621 3.65099 0
M  V30 5605 H 523.02 -3.14535 1.99745 0
M  V30 5606 H 523.133 -2.84193 3.85709 0
M  V30 5607 H 521.497 -1.58764 1.99163 0
M  V30 5608 H 522.28 -0.644993 3.37186 0
M  V30 5609 N 524.725 -1.39134 -0.740242 0
M  V30 5610 C 525.953 -1.39334 -1.5295 0
M  V30 5611 C 526.368 0.0135008 -1.88795 0
M  V30 5612 O 525.725 0.983524 -1.5373 0
M  V30 5613 C 525.776 -2.2614 -2.82034 0
M  V30 5614 O 525.497 -3.61345 -2.47712 0
M  V30 5615 C 526.998 -2.34666 -3.76094 0
M  V30 5616 H 524.218 -0.476103 -0.472828 0
M  V30 5617 H 526.762 -1.82883 -0.9151 0
M  V30 5618 H 524.917 -1.86018 -3.39818 0
M  V30 5619 H 525.331 -4.07194 -3.30595 0
M  V30 5620 H 526.805 -2.99663 -4.63579 0
M  V30 5621 H 527.282 -1.36426 -4.17474 0
M  V30 5622 H 527.888 -2.75236 -3.2423 0
M  V30 5623 N 526.204 0.969867 -1.24223 0
M  V30 5624 C 527.615 1.52717 -1.07399 0
M  V30 5625 C 527.966 1.92956 0.355298 0
M  V30 5626 O 527.091 1.77112 1.2434 0
M  V30 5627 C 527.686 2.77521 -1.94339 0
M  V30 5628 C 526.245 3.29615 -1.81744 0
M  V30 5629 C 525.392 2.02537 -1.89405 0
M  V30 5630 H 528.343 0.788399 -1.37732 0
M  V30 5631 H 528.364 3.50773 -1.47439 0
M  V30 5632 H 527.876 2.48203 -2.98357 0
M  V30 5633 H 525.977 3.63789 -0.805505 0
M  V30 5634 H 526.09 3.98661 -2.65718 0
M  V30 5635 H 524.454 2.17151 -1.33108 0
M  V30 5636 H 525.237 1.75587 -2.94999 0
M  V30 5637 N 527.682 1.05563 1.17022 0
M  V30 5638 C 528.91 0.78845 1.91288 0
M  V30 5639 C 529.325 -0.656318 1.77025 0
M  V30 5640 O 528.682 -1.44869 1.10992 0
M  V30 5641 C 528.733 1.16444 3.42232 0
M  V30 5642 O 528.454 2.5525 3.5606 0
M  V30 5643 C 529.955 0.923937 4.33565 0
M  V30 5644 H 527.175 0.286389 0.606813 0
M  V30 5645 H 529.719 1.4073 1.48375 0
M  V30 5646 H 527.874 0.590266 3.82877 0
M  V30 5647 H 528.288 2.70097 4.49609 0
M  V30 5648 H 529.762 1.23672 5.37968 0
M  V30 5649 H 530.239 -0.140688 4.38975 0
M  V30 5650 H 530.845 1.48214 3.98639 0
M  V30 5651 N 529.16 -1.33526 0.837174 0
M  V30 5652 C 530.385 -2.0258 0.444545 0
M  V30 5653 C 530.81 -1.6258 -0.946006 0
M  V30 5654 O 530.168 -0.817548 -1.6182 0
M  V30 5655 C 530.216 -3.5605 0.571006 0
M  V30 5656 O 529.32 -4.10422 -0.403431 0
M  V30 5657 H 528.661 -0.638866 0.180958 0
M  V30 5658 H 531.191 -1.70462 1.13154 0
M  V30 5659 H 531.201 -4.05488 0.452024 0
M  V30 5660 H 529.876 -3.84509 1.58512 0
M  V30 5661 H 528.453 -3.72113 -0.242147 0
M  V30 5662 N 530.638 -0.59345 -1.46 0
M  V30 5663 C 531.886 -0.082988 -2.0193 0
M  V30 5664 C 532.207 1.28569 -1.46612 0
M  V30 5665 O 531.477 1.84629 -0.654909 0
M  V30 5666 H 530.057 -0.0276882 -0.746487 0
M  V30 5667 H 532.719 -0.771657 -1.78973 0
M  V30 5668 H 531.815 -0.022079 -3.12092 0
M  V30 5669 N 532.116 1.54067 -0.331816 0
M  V30 5670 C 533.046 2.27569 0.522932 0
M  V30 5671 C 534.027 1.28679 1.11247 0
M  V30 5672 O 535.212 1.57504 1.13605 0
M  V30 5673 C 532.342 3.0397 1.67987 0
M  V30 5674 C 531.296 4.10267 1.21924 0
M  V30 5675 C 530.622 4.74555 2.46377 0
M  V30 5676 C 531.922 5.21268 0.32815 0
M  V30 5677 H 533.616 2.99264 -0.0901977 0
M  V30 5678 H 531.162 1.4393 -0.044821 0
M  V30 5679 H 533.115 3.54123 2.28418 0
M  V30 5680 H 531.839 2.29906 2.31971 0
M  V30 5681 H 530.498 3.61009 0.637809 0
M  V30 5682 H 530.146 3.97098 3.08743 0
M  V30 5683 H 529.846 5.46363 2.16243 0
M  V30 5684 H 531.37 5.27487 3.07555 0
M  V30 5685 H 532.784 5.67128 0.838978 0
M  V30 5686 H 531.181 5.99982 0.119228 0
M  V30 5687 H 532.251 4.80673 -0.638839 0
M  V30 5688 N 533.594 0.0601682 1.57485 0
M  V30 5689 C 534.842 -0.610386 1.92662 0
M  V30 5690 C 535.163 -1.70849 0.939981 0
M  V30 5691 O 534.433 -1.95895 -0.0137455 0
M  V30 5692 H 533.013 -0.228457 0.711208 0
M  V30 5693 H 535.675 0.115288 1.94559 0
M  V30 5694 H 534.771 -1.0432 2.94149 0
M  V30 5695 N 535.072 -1.5615 -0.213296 0
M  V30 5696 C 536.488 -1.49327 -0.56336 0
M  V30 5697 C 536.688 -0.756826 -1.86747 0
M  V30 5698 O 535.744 -0.299866 -2.50713 0
M  V30 5699 C 537.057 -2.9392 -0.634944 0
M  V30 5700 C 538.605 -3.04487 -0.725013 0
M  V30 5701 C 539.08 -4.50456 -0.82787 0
M  V30 5702 N 540.571 -4.54533 -0.891876 0
M  V30 5703 C 541.306 -5.64766 -0.991315 0
M  V30 5704 N 540.802 -6.84733 -1.05419 0
M  V30 5705 N 542.595 -5.52637 -1.02709 0
M  V30 5706 H 534.746 -2.02453 0.642366 0
M  V30 5707 H 537.009 -0.920548 0.226487 0
M  V30 5708 H 536.715 -3.50783 0.253859 0
M  V30 5709 H 536.589 -3.46274 -1.49579 0
M  V30 5710 H 538.976 -2.47685 -1.60425 0
M  V30 5711 H 539.057 -2.55289 0.161669 0
M  V30 5712 H 538.701 -5.07878 0.0469464 0
M  V30 5713 H 538.631 -4.97369 -1.73009 0
M  V30 5714 H 541.122 -3.68141 -0.85327 0
M  V30 5715 H 541.435 -7.64493 -1.13007 0
M  V30 5716 H 539.78 -6.87427 -1.02318 0
M  V30 5717 H 542.971 -4.5784 -0.974687 0
M  V30 5718 H 543.144 -6.38576 -1.10113 0
M  V30 5719 N 536.55 0.480323 -1.50102 0
M  V30 5720 C 537.513 1.56181 -1.6775 0
M  V30 5721 C 538.513 1.51156 -0.548503 0
M  V30 5722 O 539.703 1.5394 -0.815363 0
M  V30 5723 C 536.835 2.95823 -1.69415 0
M  V30 5724 H 538.028 1.41855 -2.6423 0
M  V30 5725 H 535.581 0.70605 -1.39444 0
M  V30 5726 H 536.316 3.15604 -0.745948 0
M  V30 5727 H 536.101 3.00878 -2.51425 0
M  V30 5728 H 537.591 3.74359 -1.85054 0
M  V30 5729 N 538.028 1.39524 0.732853 0
M  V30 5730 C 538.96 1.34318 1.85718 0
M  V30 5731 C 539.973 0.251576 1.60844 0
M  V30 5732 O 541.162 0.510685 1.71039 0
M  V30 5733 C 538.262 1.06334 3.21786 0
M  V30 5734 C 537.435 2.26813 3.73998 0
M  V30 5735 C 536.494 1.95253 4.88634 0
M  V30 5736 O 535.52 2.67957 5.02183 0
M  V30 5737 N 536.722 0.919984 5.73164 0
M  V30 5738 H 539.487 2.3121 1.90688 0
M  V30 5739 H 537.048 1.33654 0.91368 0
M  V30 5740 H 539.04 0.832363 3.96048 0
M  V30 5741 H 537.61 0.181682 3.12072 0
M  V30 5742 H 536.83 2.65849 2.91064 0
M  V30 5743 H 538.118 3.0717 4.05616 0
M  V30 5744 H 537.516 0.317487 5.64808 0
M  V30 5745 H 536.073 0.748905 6.47483 0
M  V30 5746 N 539.506 -0.963266 1.24736 0
M  V30 5747 C 540.922 -1.23273 1.01371 0
M  V30 5748 C 541.122 -1.99618 -0.274776 0
M  V30 5749 O 540.178 -2.32293 -0.989769 0
M  V30 5750 C 541.491 -2.01554 2.23152 0
M  V30 5751 C 543.039 -2.14629 2.27823 0
M  V30 5752 C 543.514 -2.96307 3.49237 0
M  V30 5753 N 545.005 -3.03887 3.49581 0
M  V30 5754 C 545.74 -3.67456 4.40186 0
M  V30 5755 N 545.236 -4.32706 5.41052 0
M  V30 5756 N 547.029 -3.64511 4.27888 0
M  V30 5757 H 539.18 -0.452294 2.07528 0
M  V30 5758 H 541.443 -0.262521 0.910926 0
M  V30 5759 H 541.149 -1.52847 3.1675 0
M  V30 5760 H 541.023 -3.02278 2.25628 0
M  V30 5761 H 543.41 -2.62537 1.34753 0
M  V30 5762 H 543.491 -1.13238 2.2937 0
M  V30 5763 H 543.135 -2.49091 4.42624 0
M  V30 5764 H 543.065 -3.97905 3.44933 0
M  V30 5765 H 545.556 -2.57477 2.76611 0
M  V30 5766 H 545.869 -4.79042 6.06415 0
M  V30 5767 H 544.214 -4.31361 5.44934 0
M  V30 5768 H 547.405 -3.12715 3.4832 0
M  V30 5769 H 547.578 -4.13768 4.98698 0
M  V30 5770 N 540.985 -1.06182 -1.16461 0
M  V30 5771 C 542.231 -0.788825 -1.87481 0
M  V30 5772 C 542.586 0.677298 -1.80085 0
M  V30 5773 O 541.879 1.48976 -1.20486 0
M  V30 5774 C 542.073 -1.21633 -3.36066 0
M  V30 5775 C 541.902 -2.72247 -3.57927 0
M  V30 5776 C 540.672 -3.39696 -3.74079 0
M  V30 5777 C 542.87 -3.70461 -3.56739 0
M  V30 5778 N 540.852 -4.79072 -3.83879 0
M  V30 5779 C 542.223 -4.95616 -3.72511 0
M  V30 5780 C 544.278 -3.63788 -3.39945 0
M  V30 5781 C 542.981 -6.14895 -3.73225 0
M  V30 5782 C 545.007 -4.82517 -3.41953 0
M  V30 5783 C 544.369 -6.065 -3.58242 0
M  V30 5784 H 540.468 -0.341034 -0.703719 0
M  V30 5785 H 543.052 -1.35575 -1.39741 0
M  V30 5786 H 541.223 -0.67725 -3.8245 0
M  V30 5787 H 542.955 -0.892119 -3.94745 0
M  V30 5788 H 539.71 -2.90097 -3.74354 0
M  V30 5789 H 540.134 -5.51573 -3.92551 0
M  V30 5790 H 544.776 -2.68888 -3.26281 0
M  V30 5791 H 542.494 -7.10129 -3.85672 0
M  V30 5792 H 546.08 -4.79017 -3.30203 0
M  V30 5793 H 544.96 -6.96833 -3.59712 0
M  V30 5794 N 542.463 1.3308 -0.844243 0
M  V30 5795 C 543.426 2.27403 -0.286485 0
M  V30 5796 C 544.426 1.51179 0.547872 0
M  V30 5797 O 545.616 1.70421 0.360886 0
M  V30 5798 C 542.748 3.35653 0.595813 0
M  V30 5799 H 543.941 2.78248 -1.11885 0
M  V30 5800 H 541.494 1.43574 -0.617749 0
M  V30 5801 H 542.229 2.90058 1.4504 0
M  V30 5802 H 542.014 3.921 -0.00125994 0
M  V30 5803 H 543.504 4.05958 0.979168 0
M  V30 5804 N 543.941 0.601185 1.45683 0
M  V30 5805 C 544.904 -0.111398 2.28929 0
M  V30 5806 C 545.904 -0.801246 1.39416 0
M  V30 5807 O 547.094 -0.650383 1.61603 0
M  V30 5808 C 544.226 -1.16773 3.20276 0
M  V30 5809 H 545.419 0.620412 2.93413 0
M  V30 5810 H 542.972 0.359946 1.52099 0
M  V30 5811 H 543.707 -1.93051 2.60579 0
M  V30 5812 H 543.492 -0.677358 3.86205 0
M  V30 5813 H 544.982 -1.66698 3.82886 0
M  V30 5814 N 545.419 -1.53889 0.339982 0
M  V30 5815 C 546.667 -2.00458 -0.257112 0
M  V30 5816 C 546.988 -1.22953 -1.51353 0
M  V30 5817 O 546.258 -0.335734 -1.93002 0
M  V30 5818 H 544.838 -0.740544 -0.0979965 0
M  V30 5819 H 547.5 -1.89386 0.460317 0
M  V30 5820 H 546.596 -3.08035 -0.502057 0
M  V30 5821 N 546.897 -0.0685191 -1.57451 0
M  V30 5822 C 547.827 0.89747 -2.15564 0
M  V30 5823 C 548.808 1.31266 -1.08181 0
M  V30 5824 O 549.993 1.38429 -1.36202 0
M  V30 5825 C 547.123 2.16623 -2.71463 0
M  V30 5826 C 546.077 1.89054 -3.83982 0
M  V30 5827 C 545.403 3.22532 -4.26471 0
M  V30 5828 C 546.703 1.1984 -5.08366 0
M  V30 5829 H 548.397 0.413373 -2.96533 0
M  V30 5830 H 545.943 0.197391 -1.42641 0
M  V30 5831 H 547.896 2.84614 -3.10761 0
M  V30 5832 H 546.62 2.67269 -1.8771 0
M  V30 5833 H 545.279 1.23469 -3.45183 0
M  V30 5834 H 544.927 3.71013 -3.39644 0
M  V30 5835 H 544.627 3.04879 -5.02317 0
M  V30 5836 H 546.151 3.91727 -4.68383 0
M  V30 5837 H 547.565 1.77896 -5.45001 0
M  V30 5838 H 545.962 1.12456 -5.89469 0
M  V30 5839 H 547.032 0.176996 -4.84577 0
M  V30 5840 N 548.375 1.56261 0.205012 0
M  V30 5841 C 549.623 1.79684 0.925096 0
M  V30 5842 C 549.944 0.63989 1.84202 0
M  V30 5843 O 549.214 -0.342345 1.92885 0
M  V30 5844 H 547.794 0.662774 0.344587 0
M  V30 5845 H 550.456 1.93734 0.212899 0
M  V30 5846 H 549.552 2.72467 1.52211 0
M  V30 5847 N 549.853 -0.472356 1.50355 0
M  V30 5848 C 551.101 -1.22211 1.60962 0
M  V30 5849 C 551.422 -1.92497 0.311439 0
M  V30 5850 O 550.692 -1.8405 -0.671002 0
M  V30 5851 H 549.272 -0.454092 0.593135 0
M  V30 5852 H 551.934 -0.544977 1.87126 0
M  V30 5853 H 551.03 -1.9707 2.42012 0
M  V30 5854 N 551.331 -1.39911 -0.725443 0
M  V30 5855 C 552.559 -1.40949 -1.51463 0
M  V30 5856 C 552.974 -0.0065242 -1.88799 0
M  V30 5857 O 552.331 0.967163 -1.54765 0
M  V30 5858 C 552.382 -2.29119 -2.79619 0
M  V30 5859 O 552.103 -3.63952 -2.43866 0
M  V30 5860 C 553.604 -2.38642 -3.73584 0
M  V30 5861 H 550.824 -0.481091 -0.467752 0
M  V30 5862 H 553.368 -1.83843 -0.895651 0
M  V30 5863 H 551.523 -1.89612 -3.37826 0
M  V30 5864 H 551.937 -4.10677 -3.26258 0
M  V30 5865 H 553.411 -3.04563 -4.60375 0
M  V30 5866 H 553.888 -1.40846 -4.16004 0
M  V30 5867 H 554.494 -2.78659 -3.21293 0
M  V30 5868 N 552.809 0.956637 -1.25245 0
M  V30 5869 C 553.772 2.03457 -1.05537 0
M  V30 5870 C 554.772 1.60798 -0.00886317 0
M  V30 5871 O 555.962 1.72384 -0.250865 0
M  V30 5872 C 553.094 3.35543 -0.601965 0
M  V30 5873 H 554.287 2.22372 -2.01223 0
M  V30 5874 H 551.84 1.13344 -1.07623 0
M  V30 5875 H 552.575 3.22323 0.357584 0
M  V30 5876 H 552.36 3.67854 -1.35743 0
M  V30 5877 H 553.85 4.14769 -0.485454 0
M  V30 5878 N 554.287 1.06798 1.15896 0
M  V30 5879 C 555.698 0.811355 1.68149 0
M  V30 5880 C 556.049 -0.664339 1.8461 0
M  V30 5881 O 555.174 -1.51485 1.54535 0
M  V30 5882 C 555.769 1.46624 3.05429 0
M  V30 5883 C 554.328 1.25726 3.54781 0
M  V30 5884 C 553.475 1.53949 2.3064 0
M  V30 5885 H 556.426 1.23078 1.00187 0
M  V30 5886 H 556.447 0.88437 3.7008 0
M  V30 5887 H 555.959 2.54025 2.93416 0
M  V30 5888 H 554.06 0.20322 3.72045 0
M  V30 5889 H 554.173 1.97354 4.36564 0
M  V30 5890 H 552.537 0.96025 2.35905 0
M  V30 5891 H 553.32 2.6252 2.2122 0
M  V30 5892 N 555.766 -1.3263 0.851289 0
M  V30 5893 C 556.991 -2.02097 0.466006 0
M  V30 5894 C 557.416 -1.63574 -0.928709 0
M  V30 5895 O 556.774 -0.834665 -1.60944 0
M  V30 5896 C 556.822 -3.55425 0.608737 0
M  V30 5897 O 555.926 -4.10827 -0.359878 0
M  V30 5898 H 555.267 -0.636911 0.187724 0
M  V30 5899 H 557.797 -1.69253 1.14955 0
M  V30 5900 H 557.807 -4.04986 0.495006 0
M  V30 5901 H 556.482 -3.82806 1.62581 0
M  V30 5902 H 555.059 -3.72349 -0.202666 0
M  V30 5903 N 557.244 -0.608902 -1.45362 0
M  V30 5904 C 558.474 -0.110852 -2.06302 0
M  V30 5905 C 558.882 1.21062 -1.45398 0
M  V30 5906 O 558.225 1.74861 -0.562976 0
M  V30 5907 C 558.287 0.101793 -3.59356 0
M  V30 5908 C 557.951 -1.13808 -4.42602 0
M  V30 5909 C 558.948 -2.05653 -4.77496 0
M  V30 5910 C 556.633 -1.36727 -4.83333 0
M  V30 5911 C 558.627 -3.18745 -5.51978 0
M  V30 5912 C 556.314 -2.5012 -5.57569 0
M  V30 5913 C 557.312 -3.40957 -5.91809 0
M  V30 5914 O 557 -4.52376 -6.64538 0
M  V30 5915 H 556.732 -0.0666001 -0.672711 0
M  V30 5916 H 559.286 -0.836942 -1.87575 0
M  V30 5917 H 557.516 0.88279 -3.76489 0
M  V30 5918 H 559.205 0.551607 -4.02134 0
M  V30 5919 H 559.971 -1.89172 -4.46586 0
M  V30 5920 H 555.85 -0.669216 -4.56117 0
M  V30 5921 H 559.394 -3.8967 -5.78622 0
M  V30 5922 H 555.291 -2.66553 -5.87894 0
M  V30 5923 H 556.059 -4.51075 -6.82989 0
M  V30 5924 N 558.722 1.53707 -0.348139 0
M  V30 5925 C 559.97 2.00591 0.246478 0
M  V30 5926 C 560.291 1.23753 1.50699 0
M  V30 5927 O 559.561 0.345964 1.92821 0
M  V30 5928 H 558.141 0.741053 0.0940679 0
M  V30 5929 H 560.803 1.89139 -0.470354 0
M  V30 5930 H 559.899 3.08297 0.485714 0
M  V30 5931 N 560.2 0.0768682 1.57412 0
M  V30 5932 C 561.148 -0.906229 2.1422 0
M  V30 5933 C 562.142 -1.30477 1.08037 0
M  V30 5934 O 563.348 -1.28143 1.2641 0
M  V30 5935 H 559.723 -0.310207 0.685037 0
M  V30 5936 H 561.694 -0.402228 2.95677 0
M  V30 5937 C 560.443 -2.16245 2.72274 0
M  V30 5938 H 559.766 -1.86463 3.53655 0
M  V30 5939 H 561.206 -2.83134 3.15613 0
M  V30 5940 C 559.665 -2.92437 1.67279 0
M  V30 5941 O 560.195 -3.86322 1.10081 0
M  V30 5942 N 558.401 -2.55637 1.38195 0
M  V30 5943 H 557.948 -1.79363 1.84897 0
M  V30 5944 H 557.906 -3.06919 0.681787 0
M  V30 5945 N 561.678 -1.56367 -0.196722 0
M  V30 5946 C 563.089 -1.70462 -0.761545 0
M  V30 5947 C 563.44 -0.683161 -1.83922 0
M  V30 5948 O 562.565 0.160753 -2.15802 0
M  V30 5949 C 563.16 -3.09057 -1.38814 0
M  V30 5950 C 561.719 -3.24922 -1.90007 0
M  V30 5951 C 560.866 -2.66412 -0.769399 0
M  V30 5952 H 563.817 -1.58675 0.0283263 0
M  V30 5953 H 563.838 -3.06296 -2.2575 0
M  V30 5954 H 563.35 -3.83378 -0.603559 0
M  V30 5955 H 561.451 -2.55514 -2.71189 0
M  V30 5956 H 561.564 -4.3241 -2.06297 0
M  V30 5957 H 559.928 -2.25546 -1.18326 0
M  V30 5958 H 560.711 -3.433 0.00291773 0
M  V30 5959 N 563.156 0.464375 -1.50603 0
M  V30 5960 C 564.381 1.24372 -1.65971 0
M  V30 5961 C 564.806 1.84901 -0.345453 0
M  V30 5962 O 564.164 1.67596 0.691457 0
M  V30 5963 C 564.212 2.32331 -2.7578 0
M  V30 5964 O 563.316 3.37146 -2.375 0
M  V30 5965 H 562.657 0.365604 -0.554283 0
M  V30 5966 H 565.187 0.55183 -1.97018 0
M  V30 5967 H 565.197 2.77539 -2.99059 0
M  V30 5968 H 563.872 1.87648 -3.71162 0
M  V30 5969 H 562.449 2.97602 -2.24694 0
M  V30 5970 N 564.634 1.40294 0.718013 0
M  V30 5971 C 565.859 1.41941 1.5122 0
M  V30 5972 C 566.284 0.0202371 1.88089 0
M  V30 5973 O 565.642 -0.971078 1.53101 0
M  V30 5974 C 565.69 2.3141 2.76554 0
M  V30 5975 O 564.794 1.75567 3.73162 0
M  V30 5976 H 564.135 0.482644 0.456016 0
M  V30 5977 H 566.665 1.84494 0.884478 0
M  V30 5978 H 566.675 2.46513 3.25108 0
M  V30 5979 H 565.35 3.33085 2.49053 0
M  V30 5980 H 563.927 1.69798 3.31999 0
M  V30 5981 N 566.112 -0.949982 1.2575 0
M  V30 5982 C 567.389 -1.6718 1.01539 0
M  V30 5983 C 567.769 -2.06095 -0.456942 0
M  V30 5984 O 567.117 -1.77792 -1.43534 0
M  V30 5985 C 567.327 -2.8906 1.95564 0
M  V30 5986 C 568.675 -3.60909 2.23673 0
M  V30 5987 O 569.699 -2.9915 1.9336 0
M  V30 5988 O 568.558 -4.72127 2.75243 0
M  V30 5989 H 565.652 -0.731697 0.385419 0
M  V30 5990 H 568.198 -1.00249 1.36924 0
M  V30 5991 H 566.97 -2.57128 2.94959 0
M  V30 5992 H 566.593 -3.63719 1.60605 0
M  V30 5993 N 567.59 -1.07411 -1.15328 0
M  V30 5994 C 568.836 -0.798831 -1.86404 0
M  V30 5995 C 569.169 0.673433 -1.8215 0
M  V30 5996 O 568.444 1.49428 -1.24505 0
M  V30 5997 C 568.727 -1.30846 -3.35487 0
M  V30 5998 C 568.58 -2.84532 -3.4837 0
M  V30 5999 C 569.899 -0.925486 -4.30259 0
M  V30 6000 H 567.018 -0.291659 -0.676834 0
M  V30 6001 H 569.66 -1.332 -1.35491 0
M  V30 6002 H 567.81 -0.854916 -3.78977 0
M  V30 6003 H 569.482 -3.3818 -3.13739 0
M  V30 6004 H 567.725 -3.22699 -2.8991 0
M  V30 6005 H 568.396 -3.15259 -4.53118 0
M  V30 6006 H 570.872 -1.3163 -3.94731 0
M  V30 6007 H 569.748 -1.3094 -5.33053 0
M  V30 6008 H 570.009 0.168525 -4.41779 0
M  V30 6009 N 569.068 1.32177 -0.85831 0
M  V30 6010 C 570 2.27688 -0.262835 0
M  V30 6011 C 571.013 1.52588 0.567513 0
M  V30 6012 O 572.202 1.74156 0.391407 0
M  V30 6013 C 569.302 3.32668 0.646937 0
M  V30 6014 C 568.475 4.37148 -0.148372 0
M  V30 6015 C 567.534 5.21686 0.687728 0
M  V30 6016 O 566.56 5.69074 0.119934 0
M  V30 6017 N 567.762 5.44892 2.00182 0
M  V30 6018 H 570.527 2.79426 -1.08356 0
M  V30 6019 H 568.088 1.45076 -0.718647 0
M  V30 6020 H 570.08 3.86134 1.2117 0
M  V30 6021 H 568.65 2.81061 1.36834 0
M  V30 6022 H 567.87 3.83915 -0.894572 0
M  V30 6023 H 569.158 5.04038 -0.694514 0
M  V30 6024 H 568.556 5.08128 2.4864 0
M  V30 6025 H 567.113 6.0134 2.51463 0
M  V30 6026 N 570.547 0.616602 1.45037 0
M  V30 6027 C 571.51 -0.0871112 2.29034 0
M  V30 6028 C 572.51 -0.786414 1.40258 0
M  V30 6029 O 573.7 -0.633207 1.62284 0
M  V30 6030 C 570.832 -1.13369 3.21497 0
M  V30 6031 H 572.025 0.651497 2.92738 0
M  V30 6032 H 569.578 0.376058 1.51709 0
M  V30 6033 H 570.313 -1.90277 2.62612 0
M  V30 6034 H 570.098 -0.636358 3.86902 0
M  V30 6035 H 571.588 -1.62627 3.84633 0
M  V30 6036 N 572.025 -1.5352 0.356285 0
M  V30 6037 C 573.302 -1.93405 -0.292223 0
M  V30 6038 C 573.682 -1.28901 -1.67176 0
M  V30 6039 O 573.03 -0.444632 -2.24132 0
M  V30 6040 C 573.24 -3.47223 -0.35175 0
M  V30 6041 C 574.588 -4.20389 -0.596534 0
M  V30 6042 O 575.612 -3.53554 -0.433344 0
M  V30 6043 O 574.471 -5.3881 -0.913589 0
M  V30 6044 H 571.565 -0.808666 -0.173172 0
M  V30 6045 H 574.111 -1.64713 0.408391 0
M  V30 6046 H 572.883 -3.86423 0.615841 0
M  V30 6047 H 572.506 -3.8212 -1.09864 0
M  V30 6048 N 573.503 -0.0852151 -1.57369 0
M  V30 6049 C 574.751 0.579658 -1.93609 0
M  V30 6050 C 575.072 1.69332 -0.967043 0
M  V30 6051 O 574.342 1.95892 -0.0174215 0
M  V30 6052 H 572.922 0.217113 -0.714752 0
M  V30 6053 H 575.584 -0.146226 -1.94351 0
M  V30 6054 H 574.68 0.996276 -2.95771 0
M  V30 6055 N 574.981 1.5647 0.188427 0
M  V30 6056 C 575.944 1.9421 1.21718 0
M  V30 6057 C 576.944 0.823901 1.38089 0
M  V30 6058 O 578.134 1.09122 1.35787 0
M  V30 6059 C 575.266 2.22197 2.58537 0
M  V30 6060 H 576.459 2.86252 0.894418 0
M  V30 6061 H 574.012 1.50263 0.430211 0
M  V30 6062 H 574.747 1.32814 2.95856 0
M  V30 6063 H 574.532 3.03688 2.48025 0
M  V30 6064 H 576.022 2.52376 3.3271 0
M  V30 6065 N 576.459 -0.456382 1.50847 0
M  V30 6066 C 577.389 -1.56025 1.73719 0
M  V30 6067 C 578.37 -1.5967 0.586473 0
M  V30 6068 O 579.555 -1.75702 0.827185 0
M  V30 6069 C 576.685 -2.94251 1.84483 0
M  V30 6070 C 575.639 -3.05471 2.99786 0
M  V30 6071 C 574.965 -4.45489 2.95709 0
M  V30 6072 C 576.265 -2.81318 4.40065 0
M  V30 6073 H 577.959 -1.37138 2.66146 0
M  V30 6074 H 575.505 -0.658299 1.28072 0
M  V30 6075 H 577.458 -3.71417 1.99067 0
M  V30 6076 H 576.182 -3.14328 0.886891 0
M  V30 6077 H 574.841 -2.30741 2.84876 0
M  V30 6078 H 574.489 -4.62505 1.97732 0
M  V30 6079 H 574.189 -4.53929 3.73125 0
M  V30 6080 H 575.713 -5.24655 3.12362 0
M  V30 6081 H 577.127 -3.48226 4.55425 0
M  V30 6082 H 575.524 -3.01188 5.19043 0
M  V30 6083 H 576.594 -1.7706 4.51418 0
M  V30 6084 N 577.937 -1.40673 -0.710563 0
M  V30 6085 C 579.185 -1.38947 -1.46759 0
M  V30 6086 C 579.506 0.00572879 -1.94999 0
M  V30 6087 O 578.776 0.961358 -1.70689 0
M  V30 6088 H 577.356 -0.5114 -0.544499 0
M  V30 6089 H 580.018 -1.75773 -0.842012 0
M  V30 6090 H 579.114 -2.06745 -2.33801 0
M  V30 6091 N 579.415 0.9433 -1.26252 0
M  V30 6092 C 580.64 1.72898 -1.14547 0
M  V30 6093 C 581.065 1.85761 0.295743 0
M  V30 6094 O 580.423 1.3463 1.21427 0
M  V30 6095 C 580.471 3.11471 -1.8171 0
M  V30 6096 O 579.575 3.97336 -1.10445 0
M  V30 6097 H 578.916 0.530555 -0.399259 0
M  V30 6098 H 581.446 1.18159 -1.67032 0
M  V30 6099 H 581.456 3.61872 -1.88449 0
M  V30 6100 H 580.131 3.01425 -2.86558 0
M  V30 6101 H 578.708 3.55788 -1.11666 0
M  V30 6102 N 580.893 1.08022 1.14757 0
M  V30 6103 C 582.309 0.807072 1.3769 0
M  V30 6104 C 582.509 -0.585504 1.92806 0
M  V30 6105 O 581.565 -1.34301 2.13821 0
M  V30 6106 C 582.878 1.88651 2.34161 0
M  V30 6107 C 584.426 1.91206 2.47809 0
M  V30 6108 C 584.901 2.98253 3.47576 0
M  V30 6109 N 586.392 2.974 3.55117 0
M  V30 6110 C 587.127 3.76872 4.32152 0
M  V30 6111 N 586.623 4.66212 5.12463 0
M  V30 6112 N 588.416 3.6519 4.27309 0
M  V30 6113 H 580.567 1.97824 0.77326 0
M  V30 6114 H 582.83 0.85826 0.402608 0
M  V30 6115 H 582.536 2.88749 2.00791 0
M  V30 6116 H 582.41 1.75244 3.3402 0
M  V30 6117 H 584.797 0.917564 2.80472 0
M  V30 6118 H 584.878 2.08691 1.47925 0
M  V30 6119 H 584.522 3.97907 3.15646 0
M  V30 6120 H 584.452 2.78014 4.47231 0
M  V30 6121 H 586.943 2.32643 2.97801 0
M  V30 6122 H 587.256 5.23468 5.68508 0
M  V30 6123 H 585.601 4.70257 5.11745 0
M  V30 6124 H 588.792 2.94765 3.63636 0
M  V30 6125 H 588.965 4.27366 4.87095 0
M  V30 6126 N 582.371 -1.3172 0.865308 0
M  V30 6127 C 583.596 -2.01591 0.487415 0
M  V30 6128 C 584.021 -1.6455 -0.911307 0
M  V30 6129 O 583.379 -0.851689 -1.6005 0
M  V30 6130 C 583.427 -3.54759 0.646401 0
M  V30 6131 O 582.531 -4.11185 -0.316284 0
M  V30 6132 H 581.872 -0.634884 0.194468 0
M  V30 6133 H 584.402 -1.68024 1.16744 0
M  V30 6134 H 584.412 -4.04438 0.537932 0
M  V30 6135 H 583.087 -3.8106 1.66632 0
M  V30 6136 H 581.664 -3.72543 -0.163162 0
M  V30 6137 N 583.85 -0.624285 -1.44708 0
M  V30 6138 C 585.26 -0.2092 -1.85524 0
M  V30 6139 C 585.611 1.23783 -1.52225 0
M  V30 6140 O 584.736 1.94089 -0.956986 0
M  V30 6141 C 585.332 -0.372897 -3.36742 0
M  V30 6142 C 583.891 -0.012374 -3.76398 0
M  V30 6143 C 583.038 -0.68951 -2.68591 0
M  V30 6144 H 585.989 -0.829894 -1.35272 0
M  V30 6145 H 586.01 0.390134 -3.78495 0
M  V30 6146 H 585.522 -1.42615 -3.60947 0
M  V30 6147 H 583.623 1.03941 -3.57809 0
M  V30 6148 H 583.736 -0.417663 -4.77276 0
M  V30 6149 H 582.1 -0.125484 -2.54391 0
M  V30 6150 H 582.883 -1.74522 -2.9563 0
M  V30 6151 N 585.328 1.53329 -0.364422 0
M  V30 6152 C 586.739 1.86345 0.115039 0
M  V30 6153 C 587.09 1.28505 1.4826 0
M  V30 6154 O 586.215 0.606639 2.07723 0
M  V30 6155 C 586.81 3.38114 0.215522 0
M  V30 6156 C 585.369 3.70932 0.639237 0
M  V30 6157 C 584.516 2.76471 -0.214261 0
M  V30 6158 H 587.467 1.47593 -0.583258 0
M  V30 6159 H 587.488 3.66031 1.0393 0
M  V30 6160 H 587 3.80182 -0.779948 0
M  V30 6161 H 585.101 3.3442 1.64298 0
M  V30 6162 H 585.214 4.77302 0.41465 0
M  V30 6163 H 583.578 2.52724 0.316678 0
M  V30 6164 H 584.361 3.21373 -1.20725 0
M  V30 6165 N 586.806 0.0935595 1.57322 0
M  V30 6166 C 588.054 -0.569383 1.93913 0
M  V30 6167 C 588.375 -1.68817 0.976009 0
M  V30 6168 O 587.645 -1.9588 0.0278099 0
M  V30 6169 H 586.225 -0.21332 0.715894 0
M  V30 6170 H 588.887 0.156531 1.9427 0
M  V30 6171 H 587.983 -0.980577 2.96296 0
M  V30 6172 N 588.284 -1.56567 -0.180126 0
M  V30 6173 C 589.53 -1.81761 -0.899497 0
M  V30 6174 C 589.863 -0.670015 -1.82276 0
M  V30 6175 O 589.138 0.328575 -1.91705 0
M  V30 6176 C 589.421 -3.17296 -1.7028 0
M  V30 6177 C 589.274 -4.4257 -0.803255 0
M  V30 6178 C 590.593 -3.49678 -2.67233 0
M  V30 6179 H 587.712 -0.661192 -0.325567 0
M  V30 6180 H 590.354 -1.89272 -0.16612 0
M  V30 6181 H 588.504 -3.11023 -2.32802 0
M  V30 6182 H 590.176 -4.60902 -0.191585 0
M  V30 6183 H 588.419 -4.33658 -0.110796 0
M  V30 6184 H 589.09 -5.33935 -1.40064 0
M  V30 6185 H 591.566 -3.56347 -2.14839 0
M  V30 6186 H 590.442 -4.45605 -3.20511 0
M  V30 6187 H 590.703 -2.73932 -3.47007 0
M  V30 6188 N 589.762 0.448376 -1.51087 0
M  V30 6189 C 591.01 1.19635 -1.62886 0
M  V30 6190 C 591.331 1.91977 -0.342024 0
M  V30 6191 O 590.601 1.85094 0.641636 0
M  V30 6192 H 589.181 0.444598 -0.600285 0
M  V30 6193 H 591.843 0.515138 -1.87969 0
M  V30 6194 H 590.939 1.93194 -2.45117 0
M  V30 6195 N 591.24 1.41047 0.703093 0
M  V30 6196 C 592.651 1.35657 1.28274 0
M  V30 6197 C 593.002 0.0360309 1.96167 0
M  V30 6198 O 592.127 -0.865833 1.98324 0
M  V30 6199 C 592.722 2.45707 2.33267 0
M  V30 6200 C 591.281 2.43738 2.86825 0
M  V30 6201 C 590.428 2.25941 1.60767 0
M  V30 6202 H 593.379 1.50672 0.49836 0
M  V30 6203 H 593.4 2.14333 3.14391 0
M  V30 6204 H 592.912 3.41805 1.83824 0
M  V30 6205 H 591.013 1.51375 3.40465 0
M  V30 6206 H 591.126 3.39779 3.37768 0
M  V30 6207 H 589.49 1.73681 1.86298 0
M  V30 6208 H 590.273 3.24054 1.1333 0
M  V30 6209 N 592.718 -0.936591 1.26751 0
M  V30 6210 C 593.628 -2.06949 1.10496 0
M  V30 6211 C 594.644 -1.7396 0.037271 0
M  V30 6212 O 595.82 -1.99941 0.241944 0
M  V30 6213 C 592.885 -3.38612 0.744491 0
M  V30 6214 C 591.946 -3.85355 1.89209 0
M  V30 6215 C 591.179 -5.10735 1.54873 0
M  V30 6216 O 591.402 -5.68602 0.452546 0
M  V30 6217 O 590.336 -5.52632 2.38499 0
M  V30 6218 H 594.162 -2.23571 2.05547 0
M  V30 6219 H 591.747 -1.05428 1.05855 0
M  V30 6220 H 593.629 -4.17711 0.556396 0
M  V30 6221 H 592.304 -3.23218 -0.176582 0
M  V30 6222 H 591.211 -3.07182 2.13518 0
M  V30 6223 H 592.544 -4.05277 2.79305 0
M  V30 6224 N 594.196 -1.08629 -1.14182 0
M  V30 6225 C 595.106 -0.730126 -2.22949 0
M  V30 6226 C 596.122 0.26436 -1.7198 0
M  V30 6227 O 597.298 0.107742 -2.01112 0
M  V30 6228 C 594.363 -0.147227 -3.46387 0
M  V30 6229 C 593.424 -1.19662 -4.12286 0
M  V30 6230 C 592.657 -0.641437 -5.29831 0
M  V30 6231 O 592.88 0.538351 -5.67854 0
M  V30 6232 O 591.814 -1.39257 -5.85569 0
M  V30 6233 H 595.64 -1.63753 -2.55771 0
M  V30 6234 H 593.225 -0.860118 -1.22157 0
M  V30 6235 H 595.107 0.174923 -4.21037 0
M  V30 6236 H 593.782 0.733304 -3.15285 0
M  V30 6237 H 592.689 -1.57133 -3.395 0
M  V30 6238 H 594.022 -2.0495 -4.475 0
M  V30 6239 N 595.674 1.31259 -0.872281 0
M  V30 6240 C 596.584 2.32221 -0.333255 0
M  V30 6241 C 597.6 1.6481 0.558013 0
M  V30 6242 O 598.776 1.96212 0.454175 0
M  V30 6243 C 595.841 3.43708 0.454479 0
M  V30 6244 C 594.902 4.26774 -0.465024 0
M  V30 6245 C 594.135 5.32937 0.28521 0
M  V30 6246 O 594.358 5.49968 1.513 0
M  V30 6247 O 593.292 6.00834 -0.358126 0
M  V30 6248 H 597.118 2.80252 -1.17016 0
M  V30 6249 H 594.703 1.352 -0.635724 0
M  V30 6250 H 596.585 4.11656 0.900963 0
M  V30 6251 H 595.26 2.97836 1.26789 0
M  V30 6252 H 594.167 3.61571 -0.960055 0
M  V30 6253 H 595.5 4.76217 -1.2441 0
M  V30 6254 N 597.152 0.631951 1.44375 0
M  V30 6255 C 598.062 -0.073674 2.34484 0
M  V30 6256 C 599.078 -0.834825 1.52665 0
M  V30 6257 O 600.254 -0.786902 1.85391 0
M  V30 6258 C 597.319 -1.04247 3.30656 0
M  V30 6259 C 596.38 -0.280602 4.28382 0
M  V30 6260 C 595.613 -1.20325 5.19959 0
M  V30 6261 O 595.836 -2.44199 5.15484 0
M  V30 6262 O 594.77 -0.687128 5.97965 0
M  V30 6263 H 598.596 0.667477 2.96274 0
M  V30 6264 H 596.181 0.392144 1.44162 0
M  V30 6265 H 598.063 -1.59981 3.89851 0
M  V30 6266 H 596.738 -1.76422 2.71398 0
M  V30 6267 H 595.645 0.319804 3.72731 0
M  V30 6268 H 596.978 0.401144 4.90563 0
M  V30 6269 N 598.631 -1.53133 0.372548 0
M  V30 6270 C 599.879 -2.00958 -0.214534 0
M  V30 6271 C 600.2 -1.26135 -1.48711 0
M  V30 6272 O 599.47 -0.376597 -1.92246 0
M  V30 6273 H 598.05 -0.742456 -0.0822664 0
M  V30 6274 H 600.712 -1.88367 0.500385 0
M  V30 6275 H 599.808 -3.09031 -0.436605 0
M  V30 6276 N 600.109 -0.101901 -1.5727 0
M  V30 6277 C 601.019 0.868647 -2.17926 0
M  V30 6278 C 602.035 1.30527 -1.1506 0
M  V30 6279 O 603.211 1.37178 -1.47459 0
M  V30 6280 C 600.276 2.10727 -2.75309 0
M  V30 6281 C 599.337 1.7242 -3.93154 0
M  V30 6282 C 598.57 2.90377 -4.47791 0
M  V30 6283 O 598.793 4.05305 -4.01353 0
M  V30 6284 O 597.727 2.6845 -5.38719 0
M  V30 6285 H 601.553 0.382544 -3.01281 0
M  V30 6286 H 599.138 0.122812 -1.48894 0
M  V30 6287 H 601.02 2.83303 -3.11958 0
M  V30 6288 H 599.695 2.58376 -1.94996 0
M  V30 6289 H 598.602 0.970039 -3.61305 0
M  V30 6290 H 599.935 1.29528 -4.74851 0
M  V30 6291 N 601.587 1.56661 0.17182 0
M  V30 6292 C 602.835 1.81606 0.886774 0
M  V30 6293 C 603.156 0.678818 1.82803 0
M  V30 6294 O 602.426 -0.301354 1.93568 0
M  V30 6295 H 601.006 0.669934 0.330451 0
M  V30 6296 H 603.668 1.94142 0.171757 0
M  V30 6297 H 602.764 2.75634 1.46398 0
M  V30 6298 N 603.065 -0.440357 1.51323 0
M  V30 6299 C 604.295 -1.21079 1.67402 0
M  V30 6300 C 604.703 -1.85555 0.369599 0
M  V30 6301 O 604.046 -1.71375 -0.661525 0
M  V30 6302 C 604.108 -2.33839 2.73056 0
M  V30 6303 C 603.772 -1.89755 4.15743 0
M  V30 6304 C 604.769 -1.40268 5.0062 0
M  V30 6305 C 602.454 -1.97539 4.61826 0
M  V30 6306 C 604.448 -0.991474 6.29642 0
M  V30 6307 C 602.135 -1.56029 5.90845 0
M  V30 6308 C 603.133 -1.06915 6.7458 0
M  V30 6309 O 602.821 -0.659933 8.01187 0
M  V30 6310 H 602.553 -0.371133 0.56501 0
M  V30 6311 H 605.107 -0.528409 1.98487 0
M  V30 6312 H 603.337 -3.05345 2.37279 0
M  V30 6313 H 605.026 -2.95713 2.78044 0
M  V30 6314 H 605.792 -1.33652 4.66221 0
M  V30 6315 H 601.671 -2.34713 3.96776 0
M  V30 6316 H 605.215 -0.607425 6.9495 0
M  V30 6317 H 601.112 -1.62315 6.24759 0
M  V30 6318 H 601.88 -0.786052 8.14717 0
M  V30 6319 N 604.543 -1.41418 -0.695603 0
M  V30 6320 C 605.453 -1.45622 -1.83933 0
M  V30 6321 C 606.469 -0.346825 -1.70508 0
M  V30 6322 O 607.645 -0.59454 -1.92424 0
M  V30 6323 C 604.71 -1.33627 -3.19914 0
M  V30 6324 C 603.771 -2.54882 -3.45447 0
M  V30 6325 C 603.004 -2.43449 -4.7494 0
M  V30 6326 O 603.227 -1.45905 -5.51424 0
M  V30 6327 O 602.161 -3.33206 -5.01256 0
M  V30 6328 H 605.987 -2.42114 -1.83342 0
M  V30 6329 H 603.572 -1.22956 -0.848658 0
M  V30 6330 H 605.454 -1.29221 -4.01098 0
M  V30 6331 H 604.129 -0.402508 -3.21188 0
M  V30 6332 H 603.036 -2.64865 -2.64192 0
M  V30 6333 H 604.369 -3.47087 -3.48987 0
M  V30 6334 N 606.021 0.929856 -1.27246 0
M  V30 6335 C 606.931 2.0636 -1.11592 0
M  V30 6336 C 607.947 1.73938 -0.046496 0
M  V30 6337 O 609.123 1.9981 -0.252544 0
M  V30 6338 C 606.188 3.38213 -0.762437 0
M  V30 6339 C 605.249 3.84346 -1.9125 0
M  V30 6340 C 604.482 5.09906 -1.57579 0
M  V30 6341 O 604.705 5.68354 -0.482694 0
M  V30 6342 O 603.639 5.51359 -2.41426 0
M  V30 6343 H 607.465 2.22478 -2.0673 0
M  V30 6344 H 605.05 1.04865 -1.06413 0
M  V30 6345 H 606.932 4.1741 -0.57854 0
M  V30 6346 H 605.607 3.23307 0.159439 0
M  V30 6347 H 604.514 3.06045 -2.15144 0
M  V30 6348 H 605.847 4.0379 -2.81451 0
M  V30 6349 N 607.499 1.09233 1.13605 0
M  V30 6350 C 608.91 0.846839 1.6639 0
M  V30 6351 C 609.261 -0.625031 1.85978 0
M  V30 6352 O 608.386 -1.48173 1.57714 0
M  V30 6353 C 608.981 1.5307 3.0225 0
M  V30 6354 C 607.54 1.33223 3.52035 0
M  V30 6355 C 606.687 1.58806 2.27323 0
M  V30 6356 H 609.638 1.25175 0.975541 0
M  V30 6357 H 609.659 0.96267 3.68121 0
M  V30 6358 H 609.171 2.60192 2.87961 0
M  V30 6359 H 607.272 0.282091 3.71531 0
M  V30 6360 H 607.385 2.0657 4.32279 0
M  V30 6361 H 605.749 1.01007 2.33815 0
M  V30 6362 H 606.532 2.67153 2.15602 0
M  V30 6363 N 608.977 -1.30795 0.87923 0
M  V30 6364 C 610.254 -1.91145 0.415086 0
M  V30 6365 C 610.634 -1.7995 -1.10368 0
M  V30 6366 O 609.982 -1.21305 -1.93642 0
M  V30 6367 C 610.192 -3.37014 0.906778 0
M  V30 6368 C 611.54 -4.14101 0.938358 0
M  V30 6369 O 612.564 -3.45834 0.853053 0
M  V30 6370 O 611.423 -5.36054 1.06342 0
M  V30 6371 H 608.517 -0.81736 0.125905 0
M  V30 6372 H 611.063 -1.39401 0.967753 0
M  V30 6373 H 609.835 -3.3922 1.95053 0
M  V30 6374 H 609.458 -3.96204 0.332948 0
M  V30 6375 N 610.455 -0.639598 -1.44038 0
M  V30 6376 C 611.68 -0.153117 -2.06834 0
M  V30 6377 C 612.105 1.16676 -1.47541 0
M  V30 6378 O 611.463 1.71769 -0.580093 0
M  V30 6379 C 611.511 -0.0609169 -3.60549 0
M  V30 6380 O 610.615 0.98071 -4.00569 0
M  V30 6381 H 609.956 -0.0886402 -0.658057 0
M  V30 6382 H 612.486 -0.878674 -1.84771 0
M  V30 6383 H 612.496 0.126892 -4.07803 0
M  V30 6384 H 611.171 -1.0245 -4.03084 0
M  V30 6385 H 609.748 0.766789 -3.64931 0
M  V30 6386 N 611.933 1.52934 -0.380664 0
M  V30 6387 C 612.843 2.29921 0.466192 0
M  V30 6388 C 613.859 1.36488 1.07922 0
M  V30 6389 O 615.035 1.69553 1.0869 0
M  V30 6390 C 612.1 3.08468 1.58266 0
M  V30 6391 C 611.161 4.17595 0.995627 0
M  V30 6392 C 610.394 4.92387 2.05889 0
M  V30 6393 O 610.617 4.67184 3.27254 0
M  V30 6394 O 609.551 5.77949 1.68102 0
M  V30 6395 H 613.377 3.03274 -0.160735 0
M  V30 6396 H 610.962 1.48698 -0.144617 0
M  V30 6397 H 612.844 3.57469 2.23145 0
M  V30 6398 H 611.519 2.37937 2.19471 0
M  V30 6399 H 610.426 3.72811 0.310332 0
M  V30 6400 H 611.759 4.90336 0.427918 0
M  V30 6401 N 613.412 0.11024 1.57214 0
M  V30 6402 C 614.322 -0.857077 2.18383 0
M  V30 6403 C 615.338 -1.29915 1.1575 0
M  V30 6404 O 616.514 -1.36394 1.48184 0
M  V30 6405 C 613.579 -2.09264 2.76423 0
M  V30 6406 C 612.64 -1.70333 3.94063 0
M  V30 6407 C 611.873 -2.87999 4.49324 0
M  V30 6408 O 612.096 -4.0317 4.03497 0
M  V30 6409 O 611.03 -2.6559 5.40135 0
M  V30 6410 H 614.856 -0.366561 3.0148 0
M  V30 6411 H 612.441 -0.114914 1.48957 0
M  V30 6412 H 614.323 -2.81644 3.13456 0
M  V30 6413 H 612.998 -2.57339 1.96363 0
M  V30 6414 H 611.905 -0.950864 3.61814 0
M  V30 6415 H 613.238 -1.27007 4.75531 0
M  V30 6416 N 614.89 -1.56749 -0.16351 0
M  V30 6417 C 616.167 -1.73321 -0.906599 0
M  V30 6418 C 616.547 -0.673779 -2.00059 0
M  V30 6419 O 615.895 0.310121 -2.26386 0
M  V30 6420 C 616.105 -3.168 -1.46419 0
M  V30 6421 C 617.453 -3.77993 -1.93407 0
M  V30 6422 O 618.477 -3.20127 -1.56196 0
M  V30 6423 O 617.336 -4.79615 -2.61976 0
M  V30 6424 H 614.43 -0.708073 -0.427272 0
M  V30 6425 H 616.976 -1.69029 -0.150727 0
M  V30 6426 H 615.748 -3.85396 -0.677189 0
M  V30 6427 H 615.371 -3.2545 -2.28403 0
M  V30 6428 N 616.368 0.432326 -1.51554 0
M  V30 6429 C 617.593 1.20824 -1.68571 0
M  V30 6430 C 618.018 1.84126 -0.384596 0
M  V30 6431 O 617.376 1.69025 0.655751 0
M  V30 6432 C 617.424 2.26429 -2.80646 0
M  V30 6433 O 616.528 3.32032 -2.44598 0
M  V30 6434 H 615.869 0.353765 -0.561913 0
M  V30 6435 H 618.399 0.509916 -1.98144 0
M  V30 6436 H 618.409 2.71133 -3.04878 0
M  V30 6437 H 617.084 1.79733 -3.75058 0
M  V30 6438 H 615.661 2.92769 -2.30956 0
M  V30 6439 N 617.846 1.41785 0.688094 0
M  V30 6440 C 618.756 1.46596 1.83158 0
M  V30 6441 C 619.772 0.355862 1.70322 0
M  V30 6442 O 620.948 0.604737 1.92106 0
M  V30 6443 C 618.013 1.35322 3.192 0
M  V30 6444 C 617.074 2.56711 3.4409 0
M  V30 6445 C 616.307 2.45965 4.73642 0
M  V30 6446 O 616.53 1.48827 5.50642 0
M  V30 6447 O 615.464 3.35859 4.99482 0
M  V30 6448 H 619.29 2.43083 1.82056 0
M  V30 6449 H 616.875 1.23404 0.842126 0
M  V30 6450 H 618.757 1.31347 4.00407 0
M  V30 6451 H 617.432 0.419536 3.2097 0
M  V30 6452 H 616.339 2.66262 2.62784 0
M  V30 6453 H 617.672 3.48933 3.47141 0
M  V30 6454 N 619.324 -0.923095 1.27737 0
M  V30 6455 C 620.571 -1.67127 1.14345 0
M  V30 6456 C 620.899 -1.92017 -0.30982 0
M  V30 6457 O 620.154 -1.51185 -1.24264 0
M  V30 6458 C 620.453 -3.04125 1.8773 0
M  V30 6459 C 620.119 -2.98929 3.37568 0
M  V30 6460 C 618.781 -2.9722 3.78436 0
M  V30 6461 C 621.133 -2.89875 4.33154 0
M  V30 6462 C 618.461 -2.84244 5.13247 0
M  V30 6463 C 620.813 -2.7844 5.68026 0
M  V30 6464 C 619.477 -2.75083 6.08182 0
M  V30 6465 H 618.747 -0.611562 0.418417 0
M  V30 6466 H 621.394 -1.07618 1.584 0
M  V30 6467 H 619.699 -3.67366 1.36196 0
M  V30 6468 H 621.396 -3.609 1.74792 0
M  V30 6469 H 617.986 -3.0105 3.05069 0
M  V30 6470 H 622.17 -2.9029 4.02548 0
M  V30 6471 H 617.426 -2.80034 5.43499 0
M  V30 6472 H 621.6 -2.70401 6.4176 0
M  V30 6473 H 619.227 -2.64786 7.12596 0
M  V30 6474 N 620.802 -1.09834 -1.13024 0
M  V30 6475 C 622.032 -0.857657 -1.87957 0
M  V30 6476 C 622.44 0.595008 -1.796 0
M  V30 6477 O 621.783 1.42158 -1.16347 0
M  V30 6478 C 621.845 -1.21949 -3.38185 0
M  V30 6479 C 621.509 -2.67791 -3.7032 0
M  V30 6480 C 622.506 -3.66036 -3.69207 0
M  V30 6481 C 620.191 -3.04019 -3.99847 0
M  V30 6482 C 622.185 -4.98533 -3.9717 0
M  V30 6483 C 619.872 -4.36706 -4.27471 0
M  V30 6484 C 620.87 -5.33772 -4.26118 0
M  V30 6485 O 620.558 -6.64072 -4.53061 0
M  V30 6486 H 620.29 -0.308009 -0.601753 0
M  V30 6487 H 622.844 -1.46496 -1.43973 0
M  V30 6488 H 621.074 -0.555249 -3.82693 0
M  V30 6489 H 622.763 -0.957281 -3.9445 0
M  V30 6490 H 623.529 -3.39392 -3.46465 0
M  V30 6491 H 619.408 -2.29096 -4.00045 0
M  V30 6492 H 622.952 -5.74288 -3.96029 0
M  V30 6493 H 618.849 -4.63091 -4.49685 0
M  V30 6494 H 619.617 -6.69608 -4.7071 0
M  V30 6495 N 622.28 1.30327 -0.886154 0
M  V30 6496 C 623.19 2.31854 -0.357866 0
M  V30 6497 C 624.206 1.65392 0.540502 0
M  V30 6498 O 625.382 1.96683 0.433339 0
M  V30 6499 C 622.447 3.44171 0.417999 0
M  V30 6500 C 621.508 4.26257 -0.510263 0
M  V30 6501 C 620.741 5.3321 0.228669 0
M  V30 6502 O 620.964 5.51542 1.45458 0
M  V30 6503 O 619.898 6.0042 -0.421832 0
M  V30 6504 H 623.724 2.78995 -1.19982 0
M  V30 6505 H 621.309 1.34518 -0.650028 0
M  V30 6506 H 623.191 4.12588 0.857251 0
M  V30 6507 H 621.866 2.99164 1.23623 0
M  V30 6508 H 620.773 3.60533 -0.99835 0
M  V30 6509 H 622.106 4.74871 -1.29454 0
M  V30 6510 N 623.758 0.647228 1.43697 0
M  V30 6511 C 624.706 -0.0600105 2.32523 0
M  V30 6512 C 625.7 -0.819277 1.48271 0
M  V30 6513 O 626.906 -0.730356 1.64517 0
M  V30 6514 H 623.281 -0.0381872 0.75103 0
M  V30 6515 H 625.252 0.706978 2.89904 0
M  V30 6516 C 624.001 -1.0169 3.32497 0
M  V30 6517 H 623.324 -0.442083 3.97348 0
M  V30 6518 H 624.764 -1.48095 3.97296 0
M  V30 6519 C 623.223 -2.11002 2.6264 0
M  V30 6520 O 623.753 -3.19302 2.4374 0
M  V30 6521 N 621.959 -1.87388 2.22113 0
M  V30 6522 H 621.506 -0.993174 2.37684 0
M  V30 6523 H 621.464 -2.60723 1.75701 0
M  V30 6524 N 625.236 -1.5273 0.388769 0
M  V30 6525 C 626.513 -1.93981 -0.251133 0
M  V30 6526 C 626.893 -1.32418 -1.64404 0
M  V30 6527 O 626.241 -0.492074 -2.23139 0
M  V30 6528 C 626.451 -3.47891 -0.27802 0
M  V30 6529 C 627.799 -4.21559 -0.507229 0
M  V30 6530 O 628.823 -3.54394 -0.358252 0
M  V30 6531 O 627.682 -5.40626 -0.799094 0
M  V30 6532 H 624.776 -0.812157 -0.15598 0
M  V30 6533 H 627.322 -1.63809 0.443237 0
M  V30 6534 H 626.094 -3.8503 0.697669 0
M  V30 6535 H 625.717 -3.84364 -1.01733 0
M  V30 6536 N 626.714 -0.118576 -1.57153 0
M  V30 6537 C 627.939 0.550582 -1.99958 0
M  V30 6538 C 628.364 1.59458 -0.997736 0
M  V30 6539 O 627.722 1.81274 0.0306269 0
M  V30 6540 C 627.77 1.15379 -3.41643 0
M  V30 6541 O 626.874 2.26932 -3.44348 0
M  V30 6542 H 626.215 0.137567 -0.649593 0
M  V30 6543 H 628.745 -0.206926 -2.03551 0
M  V30 6544 H 628.755 1.48942 -3.79843 0
M  V30 6545 H 627.43 0.389087 -4.14076 0
M  V30 6546 H 626.007 1.94812 -3.17967 0
M  V30 6547 N 628.193 1.56834 0.155195 0
M  V30 6548 C 629.141 1.98584 1.21107 0
M  V30 6549 C 630.135 0.876987 1.44932 0
M  V30 6550 O 631.341 1.06215 1.45322 0
M  V30 6551 H 627.716 0.632039 0.407469 0
M  V30 6552 H 629.687 2.86561 0.832195 0
M  V30 6553 C 628.436 2.37555 2.53895 0
M  V30 6554 H 627.759 3.22428 2.3639 0
M  V30 6555 H 629.199 2.70598 3.26424 0
M  V30 6556 C 627.658 1.22507 3.13837 0
M  V30 6557 O 628.188 0.521388 3.98302 0
M  V30 6558 N 626.394 0.991444 2.73164 0
M  V30 6559 H 625.941 1.56544 2.04577 0
M  V30 6560 H 625.899 0.223546 3.13604 0
M  V30 6561 N 629.671 -0.424282 1.51781 0
M  V30 6562 C 630.601 -1.52305 1.7699 0
M  V30 6563 C 631.582 -1.5839 0.620209 0
M  V30 6564 O 632.767 -1.73908 0.864268 0
M  V30 6565 C 629.897 -2.90271 1.90683 0
M  V30 6566 C 628.851 -2.99043 3.06198 0
M  V30 6567 C 628.177 -4.39116 3.05092 0
M  V30 6568 C 629.477 -2.7192 4.45934 0
M  V30 6569 H 631.171 -1.31461 2.68995 0
M  V30 6570 H 628.717 -0.630985 1.29439 0
M  V30 6571 H 630.67 -3.6711 2.06901 0
M  V30 6572 H 629.394 -3.12376 0.953365 0
M  V30 6573 H 628.053 -2.24646 2.89706 0
M  V30 6574 H 627.701 -4.58207 2.07498 0
M  V30 6575 H 627.401 -4.45912 3.82669 0
M  V30 6576 H 628.925 -5.17911 3.2342 0
M  V30 6577 H 630.339 -3.38487 4.62709 0
M  V30 6578 H 628.736 -2.90111 5.25315 0
M  V30 6579 H 629.806 -1.67445 4.55072 0
M  V30 6580 N 631.149 -1.42148 -0.680565 0
M  V30 6581 C 632.397 -1.42029 -1.43779 0
M  V30 6582 C 632.718 -0.0356347 -1.94967 0
M  V30 6583 O 631.988 0.924936 -1.7269 0
M  V30 6584 H 630.568 -0.522835 -0.533529 0
M  V30 6585 H 633.23 -1.7752 -0.804538 0
M  V30 6586 H 632.326 -2.11658 -2.29363 0
M  V30 6587 N 632.627 0.916307 -1.28225 0
M  V30 6588 C 633.559 2.02303 -1.07732 0
M  V30 6589 C 634.572 1.62773 -0.0298421 0
M  V30 6590 O 635.761 1.76406 -0.272626 0
M  V30 6591 C 632.861 3.33282 -0.614504 0
M  V30 6592 C 632.034 4.01439 -1.73682 0
M  V30 6593 C 631.093 5.10698 -1.26781 0
M  V30 6594 O 630.119 5.34038 -1.96958 0
M  V30 6595 N 631.321 5.80355 -0.129624 0
M  V30 6596 H 634.086 2.20442 -2.03041 0
M  V30 6597 H 631.647 1.08744 -1.19943 0
M  V30 6598 H 633.639 4.03699 -0.284397 0
M  V30 6599 H 632.209 3.11633 0.245664 0
M  V30 6600 H 631.429 3.24604 -2.23665 0
M  V30 6601 H 632.717 4.43721 -2.48976 0
M  V30 6602 H 632.115 5.6386 0.455847 0
M  V30 6603 H 630.672 6.51647 0.141224 0
M  V30 6604 N 634.105 1.10431 1.1244 0
M  V30 6605 C 635.382 0.758797 1.80282 0
M  V30 6606 C 635.762 -0.754727 1.97147 0
M  V30 6607 O 635.11 -1.68094 1.54779 0
M  V30 6608 C 635.32 1.50982 3.14651 0
M  V30 6609 C 636.668 1.68232 3.8985 0
M  V30 6610 O 637.692 1.47319 3.24308 0
M  V30 6611 O 636.551 2.02905 5.07437 0
M  V30 6612 H 633.645 0.273756 0.780376 0
M  V30 6613 H 636.191 1.20713 1.19275 0
M  V30 6614 H 634.963 2.53989 2.97666 0
M  V30 6615 H 634.586 1.05435 3.83366 0
M  V30 6616 N 635.583 -1.29855 0.893053 0
M  V30 6617 C 636.515 -2.26911 0.32311 0
M  V30 6618 C 637.528 -1.54039 -0.526858 0
M  V30 6619 O 638.717 -1.75132 -0.345095 0
M  V30 6620 C 635.817 -3.34266 -0.558509 0
M  V30 6621 C 634.99 -4.36601 0.264222 0
M  V30 6622 C 634.049 -5.23326 -0.549171 0
M  V30 6623 O 633.075 -5.69192 0.0309883 0
M  V30 6624 N 634.277 -5.50008 -1.85664 0
M  V30 6625 H 637.042 -2.76455 1.15726 0
M  V30 6626 H 634.603 -1.4312 0.756859 0
M  V30 6627 H 636.595 -3.89211 -1.1089 0
M  V30 6628 H 635.165 -2.8459 -1.29334 0
M  V30 6629 H 634.385 -3.81409 0.996046 0
M  V30 6630 H 635.673 -5.02019 0.827906 0
M  V30 6631 H 635.071 -5.14542 -2.35081 0
M  V30 6632 H 633.628 -6.07796 -2.35431 0
M  V30 6633 N 637.061 -0.65484 -1.43351 0
M  V30 6634 C 637.991 0.0221809 -2.33489 0
M  V30 6635 C 638.972 0.810272 -1.49561 0
M  V30 6636 O 640.157 0.771426 -1.78221 0
M  V30 6637 C 637.287 0.988117 -3.32947 0
M  V30 6638 C 636.241 0.310026 -4.26876 0
M  V30 6639 C 635.567 1.38752 -5.16384 0
M  V30 6640 C 636.867 -0.798589 -5.16159 0
M  V30 6641 H 638.561 -0.730571 -2.9035 0
M  V30 6642 H 636.107 -0.352773 -1.39612 0
M  V30 6643 H 638.06 1.47067 -3.94904 0
M  V30 6644 H 636.784 1.77205 -2.74346 0
M  V30 6645 H 635.443 -0.152097 -3.66284 0
M  V30 6646 H 635.091 2.16293 -4.54121 0
M  V30 6647 H 634.791 0.939051 -5.80048 0
M  V30 6648 H 636.315 1.87141 -5.81215 0
M  V30 6649 H 637.729 -0.398126 -5.71916 0
M  V30 6650 H 636.126 -1.17163 -5.88552 0
M  V30 6651 H 637.196 -1.65588 -4.55751 0
M  V30 6652 N 638.539 1.52521 -0.396863 0
M  V30 6653 C 639.764 2.06571 0.185258 0
M  V30 6654 C 640.189 1.26605 1.39115 0
M  V30 6655 O 639.547 0.293055 1.78916 0
M  V30 6656 C 639.595 3.5674 0.526189 0
M  V30 6657 O 638.699 3.7929 1.61903 0
M  V30 6658 H 638.04 0.663712 0.0195474 0
M  V30 6659 H 640.57 1.966 -0.566519 0
M  V30 6660 H 640.58 4.00311 0.788338 0
M  V30 6661 H 639.255 4.14379 -0.355397 0
M  V30 6662 H 637.832 3.47605 1.35 0
M  V30 6663 N 640.017 0.126909 1.57088 0
M  V30 6664 C 640.949 -0.850973 2.12817 0
M  V30 6665 C 641.962 -1.22457 1.07276 0
M  V30 6666 O 643.151 -1.17215 1.34622 0
M  V30 6667 C 640.251 -2.15039 2.61938 0
M  V30 6668 C 639.424 -1.94726 3.91664 0
M  V30 6669 C 638.483 -3.0847 4.26301 0
M  V30 6670 O 637.509 -2.81038 4.94981 0
M  V30 6671 N 638.711 -4.35116 3.84259 0
M  V30 6672 H 641.476 -0.3748 2.97347 0
M  V30 6673 H 639.037 -0.0572793 1.61799 0
M  V30 6674 H 641.029 -2.90141 2.82135 0
M  V30 6675 H 639.599 -2.5398 1.82244 0
M  V30 6676 H 638.819 -1.03772 3.80296 0
M  V30 6677 H 640.107 -1.78469 4.76473 0
M  V30 6678 H 639.505 -4.60276 3.2888 0
M  V30 6679 H 638.062 -5.07064 4.09548 0
M  V30 6680 N 641.495 -1.56914 -0.146875 0
M  V30 6681 C 642.772 -1.74273 -0.888165 0
M  V30 6682 C 643.152 -0.69496 -1.99333 0
M  V30 6683 O 642.5 0.286093 -2.26702 0
M  V30 6684 C 642.71 -3.18336 -1.43051 0
M  V30 6685 C 644.058 -3.80024 -1.89387 0
M  V30 6686 O 645.082 -3.21765 -1.52792 0
M  V30 6687 O 643.941 -4.82367 -2.56874 0
M  V30 6688 H 641.035 -0.712565 -0.419738 0
M  V30 6689 H 643.581 -1.6918 -0.132791 0
M  V30 6690 H 642.353 -3.86092 -0.636274 0
M  V30 6691 H 641.976 -3.27854 -2.24938 0
M  V30 6692 N 642.974 0.416227 -1.52004 0
M  V30 6693 C 644.222 1.16153 -1.65387 0
M  V30 6694 C 644.543 1.91208 -0.382669 0
M  V30 6695 O 643.813 1.86413 0.602231 0
M  V30 6696 H 642.393 0.431765 -0.60958 0
M  V30 6697 H 645.055 0.475151 -1.89019 0
M  V30 6698 H 644.151 1.87952 -2.4916 0
M  V30 6699 N 644.452 1.42507 0.673017 0
M  V30 6700 C 645.677 1.4668 1.46627 0
M  V30 6701 C 646.102 0.080066 1.8793 0
M  V30 6702 O 645.46 -0.921879 1.56112 0
M  V30 6703 C 645.508 2.40091 2.69051 0
M  V30 6704 O 644.612 1.8735 3.67387 0
M  V30 6705 H 643.953 0.496908 0.44043 0
M  V30 6706 H 646.483 1.87215 0.825334 0
M  V30 6707 H 646.493 2.56731 3.17101 0
M  V30 6708 H 645.168 3.4084 2.3833 0
M  V30 6709 H 643.745 1.80274 3.26429 0
M  V30 6710 N 645.93 -0.909495 1.28709 0
M  V30 6711 C 647.178 -1.65577 1.15882 0
M  V30 6712 C 647.499 -1.928 -0.292108 0
M  V30 6713 O 646.769 -1.54716 -1.20166 0
M  V30 6714 H 645.349 -0.613714 0.425869 0
M  V30 6715 H 648.011 -1.09108 1.61498 0
M  V30 6716 H 647.107 -2.61634 1.70159 0
M  V30 6717 N 647.408 -1.11026 -1.11852 0
M  V30 6718 C 648.638 -0.877544 -1.87037 0
M  V30 6719 C 649.046 0.575925 -1.80221 0
M  V30 6720 O 648.389 1.40916 -1.17849 0
M  V30 6721 C 648.451 -1.25529 -3.36872 0
M  V30 6722 C 648.115 -2.71704 -3.67459 0
M  V30 6723 C 649.112 -3.69931 -3.65304 0
M  V30 6724 C 646.797 -3.08243 -3.966 0
M  V30 6725 C 648.791 -5.02717 -3.9186 0
M  V30 6726 C 646.478 -4.41215 -4.22815 0
M  V30 6727 C 647.476 -5.38262 -4.20432 0
M  V30 6728 O 647.164 -6.68839 -4.45992 0
M  V30 6729 H 646.896 -0.314374 -0.598452 0
M  V30 6730 H 649.45 -1.48015 -1.42411 0
M  V30 6731 H 647.68 -0.595808 -3.82082 0
M  V30 6732 H 649.369 -0.999064 -3.93413 0
M  V30 6733 H 650.135 -3.43047 -3.42846 0
M  V30 6734 H 646.014 -2.33326 -3.97593 0
M  V30 6735 H 649.558 -5.78456 -3.89916 0
M  V30 6736 H 645.455 -4.67835 -4.44748 0
M  V30 6737 H 646.223 -6.74563 -4.63581 0
M  V30 6738 N 648.886 1.2938 -0.899927 0
M  V30 6739 C 649.796 2.31462 -0.382437 0
M  V30 6740 C 650.812 1.65956 0.522929 0
M  V30 6741 O 651.988 1.97131 0.412454 0
M  V30 6742 C 649.053 3.44595 0.381472 0
M  V30 6743 C 648.114 4.25692 -0.555444 0
M  V30 6744 C 647.347 5.33422 0.172102 0
M  V30 6745 O 647.57 5.53053 1.396 0
M  V30 6746 O 646.504 5.99939 -0.485491 0
M  V30 6747 H 650.33 2.77706 -1.22934 0
M  V30 6748 H 647.915 1.33821 -0.664259 0
M  V30 6749 H 649.797 4.13474 0.813442 0
M  V30 6750 H 648.472 3.00458 1.20443 0
M  V30 6751 H 647.379 3.59453 -1.03653 0
M  V30 6752 H 648.712 4.73471 -1.34483 0
M  V30 6753 N 650.364 0.662433 1.43002 0
M  V30 6754 C 651.312 -0.035345 2.32573 0
M  V30 6755 C 652.306 -0.803505 1.49131 0
M  V30 6756 O 653.512 -0.712865 1.65282 0
M  V30 6757 H 649.887 -0.0302194 0.751393 0
M  V30 6758 H 651.858 0.737686 2.89138 0
M  V30 6759 C 650.607 -0.981575 3.33557 0
M  V30 6760 H 649.93 -0.399914 3.97795 0
M  V30 6761 H 651.37 -1.43873 3.98844 0
M  V30 6762 C 649.829 -2.08204 2.64863 0
M  V30 6763 O 650.359 -3.16698 2.47113 0
M  V30 6764 N 648.565 -1.85022 2.24088 0
M  V30 6765 H 648.112 -0.967909 2.38724 0
M  V30 6766 H 648.07 -2.58845 1.78457 0
M  V30 6767 N 651.842 -1.52309 0.404946 0
M  V30 6768 C 653.253 -1.86585 -0.0655926 0
M  V30 6769 C 653.604 -1.3239 -1.44801 0
M  V30 6770 O 652.729 -0.6615 -2.06042 0
M  V30 6771 C 653.324 -3.38566 -0.125801 0
M  V30 6772 C 651.883 -3.72497 -0.540666 0
M  V30 6773 C 651.03 -2.75806 0.287487 0
M  V30 6774 H 653.981 -1.45995 0.622185 0
M  V30 6775 H 654.002 -3.68658 -0.941888 0
M  V30 6776 H 653.514 -3.77981 0.880473 0
M  V30 6777 H 651.615 -3.38659 -1.55373 0
M  V30 6778 H 651.728 -4.78234 -0.287956 0
M  V30 6779 H 650.092 -2.53474 -0.249561 0
M  V30 6780 H 650.875 -3.18059 1.29203 0
M  V30 6781 N 653.32 -0.135238 -1.57019 0
M  V30 6782 C 654.23 0.822226 -2.19719 0
M  V30 6783 C 655.246 1.28057 -1.17802 0
M  V30 6784 O 656.422 1.3402 -1.50335 0
M  V30 6785 C 653.487 2.0484 -2.79717 0
M  V30 6786 C 652.548 1.64042 -3.96723 0
M  V30 6787 C 651.781 2.80814 -4.53849 0
M  V30 6788 O 652.004 3.967 -4.0986 0
M  V30 6789 O 650.938 2.56963 -5.44292 0
M  V30 6790 H 654.764 0.318552 -3.02025 0
M  V30 6791 H 652.349 0.0912021 -1.49121 0
M  V30 6792 H 654.231 2.76622 -3.17897 0
M  V30 6793 H 652.906 2.54182 -2.00432 0
M  V30 6794 H 651.813 0.893182 -3.63281 0
M  V30 6795 H 653.146 1.19426 -4.77492 0
M  V30 6796 N 654.798 1.5699 0.138552 0
M  V30 6797 C 656.075 1.74741 0.87891 0
M  V30 6798 C 656.455 0.705522 1.98961 0
M  V30 6799 O 655.803 -0.274066 2.2685 0
M  V30 6800 C 656.013 3.1909 1.4136 0
M  V30 6801 C 657.361 3.81023 1.87368 0
M  V30 6802 O 658.385 3.22571 1.51084 0
M  V30 6803 O 657.244 4.83722 2.54312 0
M  V30 6804 H 654.338 0.714781 0.415953 0
M  V30 6805 H 656.884 1.69248 0.123817 0
M  V30 6806 H 655.656 3.86424 0.61579 0
M  V30 6807 H 655.279 3.29043 2.23196 0
M  V30 6808 N 656.276 -0.40816 1.52223 0
M  V30 6809 C 657.186 -1.52202 1.78526 0
M  V30 6810 C 658.202 -1.60546 0.670892 0
M  V30 6811 O 659.378 -1.77242 0.956404 0
M  V30 6812 C 656.443 -2.87928 1.93128 0
M  V30 6813 C 655.504 -2.89463 3.17033 0
M  V30 6814 C 654.737 -4.18715 3.30929 0
M  V30 6815 O 654.96 -5.12662 2.50067 0
M  V30 6816 O 653.894 -4.27125 4.24084 0
M  V30 6817 H 657.72 -1.32911 2.73072 0
M  V30 6818 H 655.305 -0.594112 1.37079 0
M  V30 6819 H 657.187 -3.68426 2.04549 0
M  V30 6820 H 655.862 -3.07285 1.01772 0
M  V30 6821 H 654.769 -2.07815 3.11069 0
M  V30 6822 H 656.102 -2.75055 4.08174 0
M  V30 6823 N 657.755 -1.42862 -0.66545 0
M  V30 6824 C 659.166 -1.3901 -1.24632 0
M  V30 6825 C 659.517 -0.0880285 -1.96002 0
M  V30 6826 O 658.642 0.812947 -2.0055 0
M  V30 6827 C 659.237 -2.51806 -2.2667 0
M  V30 6828 C 657.796 -2.51257 -2.80262 0
M  V30 6829 C 656.943 -2.30124 -1.5472 0
M  V30 6830 H 659.894 -1.5194 -0.458237 0
M  V30 6831 H 659.915 -2.22593 -3.08598 0
M  V30 6832 H 659.427 -3.46558 -1.74697 0
M  V30 6833 H 657.528 -1.60349 -3.36332 0
M  V30 6834 H 657.641 -3.48614 -3.28641 0
M  V30 6835 H 656.005 -1.7856 -1.81627 0
M  V30 6836 H 656.788 -3.26945 -1.04699 0
M  V30 6837 N 659.233 0.902656 -1.29189 0
M  V30 6838 C 660.163 2.02294 -1.16616 0
M  V30 6839 C 661.144 1.6999 -0.0611175 0
M  V30 6840 O 662.329 1.9271 -0.240072 0
M  V30 6841 C 659.459 3.37018 -0.83882 0
M  V30 6842 C 658.413 3.83522 -1.89986 0
M  V30 6843 C 657.739 5.15337 -1.42589 0
M  V30 6844 C 659.039 4.04169 -3.30824 0
M  V30 6845 H 660.733 2.13071 -2.10336 0
M  V30 6846 H 658.279 1.02378 -1.01266 0
M  V30 6847 H 660.232 4.14895 -0.737584 0
M  V30 6848 H 658.956 3.26325 0.134071 0
M  V30 6849 H 657.615 3.07859 -1.99043 0
M  V30 6850 H 657.263 5.01056 -0.441759 0
M  V30 6851 H 656.963 5.47423 -2.13547 0
M  V30 6852 H 658.487 5.95758 -1.3381 0
M  V30 6853 H 659.901 4.72537 -3.24626 0
M  V30 6854 H 658.298 4.47604 -3.99713 0
M  V30 6855 H 659.368 3.08604 -3.74021 0
M  V30 6856 N 660.711 1.11618 1.11262 0
M  V30 6857 C 661.959 0.864469 1.82678 0
M  V30 6858 C 662.28 -0.611564 1.85162 0
M  V30 6859 O 661.55 -1.44429 1.32352 0
M  V30 6860 H 660.13 0.316821 0.676486 0
M  V30 6861 H 662.792 1.40894 1.34666 0
M  V30 6862 H 661.888 1.23832 2.86482 0
M  V30 6863 N 662.189 -1.289 0.906776 0
M  V30 6864 C 663.6 -1.77336 0.58384 0
M  V30 6865 C 663.951 -1.74304 -0.900697 0
M  V30 6866 O 663.076 -1.33335 -1.70443 0
M  V30 6867 C 663.671 -3.22019 1.05304 0
M  V30 6868 C 662.23 -3.68205 0.781148 0
M  V30 6869 C 661.377 -2.48837 1.22373 0
M  V30 6870 H 664.328 -1.15462 1.08877 0
M  V30 6871 H 664.349 -3.78481 0.391414 0
M  V30 6872 H 663.861 -3.24194 2.13353 0
M  V30 6873 H 661.962 -3.71497 -0.28643 0
M  V30 6874 H 662.075 -4.58675 1.384 0
M  V30 6875 H 660.439 -2.46461 0.642594 0
M  V30 6876 H 661.222 -2.53736 2.31242 0
M  V30 6877 N 663.667 -0.670007 -1.42649 0
M  V30 6878 C 664.577 0.0114788 -2.34597 0
M  V30 6879 C 665.593 0.794055 -1.54825 0
M  V30 6880 O 666.769 0.737472 -1.87412 0
M  V30 6881 C 663.834 0.954436 -3.33304 0
M  V30 6882 C 662.895 0.166925 -4.28975 0
M  V30 6883 C 662.128 1.06497 -5.22967 0
M  V30 6884 O 662.351 2.30446 -5.21777 0
M  V30 6885 O 661.285 0.528347 -5.99577 0
M  V30 6886 H 665.111 -0.745794 -2.944 0
M  V30 6887 H 662.696 -0.430228 -1.43071 0
M  V30 6888 H 664.578 1.49589 -3.93956 0
M  V30 6889 H 663.253 1.69164 -2.7598 0
M  V30 6890 H 662.16 -0.418515 -3.71752 0
M  V30 6891 H 663.493 -0.531067 -4.89327 0
M  V30 6892 N 665.145 1.52092 -0.413018 0
M  V30 6893 C 666.422 1.94356 0.22024 0
M  V30 6894 C 666.802 1.35017 1.62277 0
M  V30 6895 O 666.15 0.527511 2.22328 0
M  V30 6896 C 666.36 3.48289 0.222638 0
M  V30 6897 C 667.708 4.22313 0.440098 0
M  V30 6898 O 668.732 3.54919 0.301826 0
M  V30 6899 O 667.591 5.41829 0.712984 0
M  V30 6900 H 664.685 0.814536 0.14304 0
M  V30 6901 H 667.231 1.63083 -0.469242 0
M  V30 6902 H 666.003 3.83872 -0.758836 0
M  V30 6903 H 665.626 3.85934 0.956057 0
M  V30 6904 N 666.623 0.143563 1.56945 0
M  V30 6905 C 667.533 -0.810562 2.20152 0
M  V30 6906 C 668.549 -1.27431 1.1848 0
M  V30 6907 O 669.725 -1.33221 1.51044 0
M  V30 6908 C 666.79 -2.03353 2.80799 0
M  V30 6909 C 665.851 -1.61936 3.97587 0
M  V30 6910 C 665.084 -2.78403 4.55332 0
M  V30 6911 O 665.307 -3.94521 4.11958 0
M  V30 6912 O 664.241 -2.54073 5.45647 0
M  V30 6913 H 668.067 -0.30253 3.02189 0
M  V30 6914 H 665.652 -0.0832925 1.49168 0
M  V30 6915 H 667.534 -2.74932 3.19359 0
M  V30 6916 H 666.209 -2.53116 2.01777 0
M  V30 6917 H 665.116 -0.873904 3.6375 0
M  V30 6918 H 666.449 -1.16892 4.78118 0
M  V30 6919 N 668.101 -1.57061 -0.130224 0
M  V30 6920 C 669.378 -1.75205 -0.869631 0
M  V30 6921 C 669.758 -0.716063 -1.98584 0
M  V30 6922 O 669.106 0.262032 -2.26993 0
M  V30 6923 C 669.316 -3.19835 -1.39666 0
M  V30 6924 C 670.664 -3.82011 -1.85345 0
M  V30 6925 O 671.688 -3.23368 -1.49371 0
M  V30 6926 O 670.547 -4.85064 -2.51744 0
M  V30 6927 H 667.641 -0.716977 -0.412157 0
M  V30 6928 H 670.187 -1.69311 -0.11484 0
M  V30 6929 H 668.959 -3.86745 -0.595288 0
M  V30 6930 H 668.582 -3.30222 -2.21448 0
M  V30 6931 N 669.579 0.400081 -1.52437 0
M  V30 6932 C 670.804 1.17221 -1.71096 0
M  V30 6933 C 671.229 1.83269 -0.423565 0
M  V30 6934 O 670.587 1.70378 0.619751 0
M  V30 6935 C 670.635 2.20425 -2.85386 0
M  V30 6936 O 669.739 3.26769 -2.51586 0
M  V30 6937 H 669.08 0.341766 -0.569291 0
M  V30 6938 H 671.61 0.467772 -1.99181 0
M  V30 6939 H 671.62 2.64605 -3.10561 0
M  V30 6940 H 670.295 1.71737 -3.78786 0
M  V30 6941 H 668.872 2.87804 -2.37114 0
M  V30 6942 N 671.057 1.43213 0.657864 0
M  V30 6943 C 672.304 1.44584 1.41781 0
M  V30 6944 C 672.632 0.0684208 1.9438 0
M  V30 6945 O 671.887 -0.925872 1.72413 0
M  V30 6946 C 672.186 2.43143 2.61947 0
M  V30 6947 C 671.852 3.89128 2.27794 0
M  V30 6948 C 670.514 4.28889 2.18191 0
M  V30 6949 C 672.866 4.81144 2.00375 0
M  V30 6950 C 670.194 5.58625 1.79319 0
M  V30 6951 C 672.546 6.11239 1.63003 0
M  V30 6952 C 671.21 6.49981 1.51922 0
M  V30 6953 H 670.48 0.529069 0.518813 0
M  V30 6954 H 673.127 1.76263 0.748577 0
M  V30 6955 H 671.432 2.04851 3.33981 0
M  V30 6956 H 673.129 2.4146 3.20153 0
M  V30 6957 H 669.719 3.57657 2.36176 0
M  V30 6958 H 673.903 4.512 2.06718 0
M  V30 6959 H 669.159 5.87486 1.69323 0
M  V30 6960 H 673.333 6.82014 1.40817 0
M  V30 6961 H 670.96 7.50416 1.21572 0
M  V30 6962 N 672.536 -0.895792 1.29666 0
M  V30 6963 C 673.761 -1.68528 1.20885 0
M  V30 6964 C 674.186 -1.8673 -0.226595 0
M  V30 6965 O 673.544 -1.39044 -1.16347 0
M  V30 6966 C 673.592 -3.04512 1.93144 0
M  V30 6967 O 672.696 -3.92963 1.25115 0
M  V30 6968 H 672.037 -0.515371 0.418675 0
M  V30 6969 H 674.567 -1.11878 1.71302 0
M  V30 6970 H 674.577 -3.54628 2.0175 0
M  V30 6971 H 673.252 -2.90582 2.97548 0
M  V30 6972 H 671.829 -3.51399 1.24794 0
M  V30 6973 N 674.014 -1.12206 -1.10668 0
M  V30 6974 C 674.962 -0.782918 -2.19028 0
M  V30 6975 C 675.956 0.229175 -1.67843 0
M  V30 6976 O 677.162 0.0876295 -1.79787 0
M  V30 6977 H 673.537 -0.235339 -0.714227 0
M  V30 6978 H 675.508 -1.70527 -2.44874 0
M  V30 6979 C 674.257 -0.25116 -3.46792 0
M  V30 6980 H 673.58 -1.02123 -3.86537 0
M  V30 6981 H 675.02 -0.0521409 -4.23968 0
M  V30 6982 C 673.479 1.02037 -3.21076 0
M  V30 6983 O 674.009 2.09862 -3.42522 0
M  V30 6984 N 672.215 0.946348 -2.74759 0
M  V30 6985 H 671.762 0.068777 -2.57508 0
M  V30 6986 H 671.72 1.79775 -2.57931 0
M  V30 6987 N 675.492 1.28418 -0.913599 0
M  V30 6988 C 676.455 2.25564 -0.406624 0
M  V30 6989 C 677.455 1.5387 0.466965 0
M  V30 6990 O 678.645 1.72094 0.270042 0
M  V30 6991 C 675.777 3.38339 0.417053 0
M  V30 6992 H 676.97 2.71926 -1.26477 0
M  V30 6993 H 674.523 1.40098 -0.692986 0
M  V30 6994 H 675.258 2.97339 1.29461 0
M  V30 6995 H 675.043 3.91542 -0.209102 0
M  V30 6996 H 676.533 4.10578 0.762602 0
M  V30 6997 N 676.97 0.677563 1.42291 0
M  V30 6998 C 677.88 0.000962654 2.346 0
M  V30 6999 C 678.896 -0.785833 1.55244 0
M  V30 7000 O 680.072 -0.727523 1.87801 0
M  V30 7001 C 677.137 -0.936746 3.33805 0
M  V30 7002 C 676.198 -0.144173 4.29058 0
M  V30 7003 C 675.431 -1.03722 5.23524 0
M  V30 7004 O 675.654 -2.27675 5.22992 0
M  V30 7005 O 674.588 -0.496542 5.99848 0
M  V30 7006 H 678.414 0.761397 2.94001 0
M  V30 7007 H 675.999 0.43781 1.42841 0
M  V30 7008 H 677.881 -1.47497 3.94744 0
M  V30 7009 H 676.556 -1.67698 2.76874 0
M  V30 7010 H 675.463 0.438224 3.71524 0
M  V30 7011 H 676.796 0.55701 4.89038 0
M  V30 7012 N 678.448 -1.51871 0.421078 0
M  V30 7013 C 679.673 -2.0684 -0.152371 0
M  V30 7014 C 680.098 -1.28802 -1.37083 0
M  V30 7015 O 679.456 -0.321482 -1.78427 0
M  V30 7016 C 679.504 -3.57532 -0.469368 0
M  V30 7017 O 678.608 -3.81818 -1.55848 0
M  V30 7018 H 677.949 -0.663939 -0.00898586 0
M  V30 7019 H 680.479 -1.95674 0.597724 0
M  V30 7020 H 680.489 -4.01515 -0.724553 0
M  V30 7021 H 679.164 -4.13761 0.421276 0
M  V30 7022 H 677.741 -3.49709 -1.29453 0
M  V30 7023 N 679.926 -0.151884 -1.56866 0
M  V30 7024 C 681.156 0.504081 -2.00356 0
M  V30 7025 C 681.564 1.58639 -1.03103 0
M  V30 7026 O 680.907 1.83688 -0.0207931 0
M  V30 7027 C 680.969 1.15975 -3.40279 0
M  V30 7028 C 680.633 0.221453 -4.56463 0
M  V30 7029 C 681.63 -0.552766 -5.16953 0
M  V30 7030 C 679.315 0.122936 -5.0215 0
M  V30 7031 C 681.309 -1.4129 -6.21543 0
M  V30 7032 C 678.996 -0.740801 -6.06593 0
M  V30 7033 C 679.994 -1.50732 -6.6616 0
M  V30 7034 O 679.682 -2.35666 -7.68581 0
M  V30 7035 H 679.414 0.135279 -0.662326 0
M  V30 7036 H 681.968 -0.244916 -2.03935 0
M  V30 7037 H 680.198 1.95649 -3.33554 0
M  V30 7038 H 681.887 1.71594 -3.67846 0
M  V30 7039 H 682.653 -0.486716 -4.82552 0
M  V30 7040 H 678.532 0.70931 -4.5551 0
M  V30 7041 H 682.076 -2.01166 -6.67966 0
M  V30 7042 H 677.973 -0.808125 -6.40421 0
M  V30 7043 H 678.741 -2.28967 -7.85822 0
M  V30 7044 N 681.404 1.57128 0.121893 0
M  V30 7045 C 682.314 2.03425 1.16857 0
M  V30 7046 C 683.33 0.954108 1.45509 0
M  V30 7047 O 684.506 1.26541 1.56682 0
M  V30 7048 C 681.571 2.42685 2.47599 0
M  V30 7049 C 680.632 3.64767 2.2637 0
M  V30 7050 C 679.865 4.02145 3.50878 0
M  V30 7051 O 680.088 3.39897 4.58068 0
M  V30 7052 O 679.022 4.95262 3.42051 0
M  V30 7053 H 682.848 2.92825 0.80544 0
M  V30 7054 H 680.433 1.45654 0.332477 0
M  V30 7055 H 682.315 2.68684 3.24634 0
M  V30 7056 H 680.99 1.56432 2.83392 0
M  V30 7057 H 679.897 3.43922 1.47203 0
M  V30 7058 H 681.23 4.51716 1.95482 0
M  V30 7059 N 682.882 -0.391992 1.52647 0
M  V30 7060 C 683.83 -1.4991 1.77848 0
M  V30 7061 C 684.824 -1.56587 0.646282 0
M  V30 7062 O 686.03 -1.59789 0.828698 0
M  V30 7063 H 682.405 -0.498883 0.56269 0
M  V30 7064 H 684.376 -1.25847 2.70564 0
M  V30 7065 C 683.125 -2.87081 1.96163 0
M  V30 7066 H 682.448 -2.82692 2.82711 0
M  V30 7067 H 683.888 -3.63792 2.17787 0
M  V30 7068 C 682.347 -3.28822 0.733348 0
M  V30 7069 O 682.877 -4.01598 -0.0906481 0
M  V30 7070 N 681.083 -2.85068 0.564317 0
M  V30 7071 H 680.63 -2.26012 1.23598 0
M  V30 7072 H 680.588 -3.13355 -0.256166 0
M  V30 7073 N 684.36 -1.4356 -0.65026 0
M  V30 7074 C 685.27 -1.514 -1.79207 0
M  V30 7075 C 686.286 -0.400895 -1.69319 0
M  V30 7076 O 687.462 -0.655458 -1.90436 0
M  V30 7077 C 684.527 -1.43737 -3.155 0
M  V30 7078 C 683.588 -2.65743 -3.37163 0
M  V30 7079 C 682.821 -2.58436 -4.66954 0
M  V30 7080 O 683.044 -1.63374 -5.46503 0
M  V30 7081 O 681.978 -3.48984 -4.90402 0
M  V30 7082 H 685.804 -2.47825 -1.75547 0
M  V30 7083 H 683.389 -1.25594 -0.809111 0
M  V30 7084 H 685.271 -1.41916 -3.96784 0
M  V30 7085 H 683.946 -0.504488 -3.19745 0
M  V30 7086 H 682.853 -2.73136 -2.55632 0
M  V30 7087 H 684.186 -3.58014 -3.37768 0
M  V30 7088 N 685.838 0.888903 -1.30139 0
M  V30 7089 C 687.115 1.62145 -1.094 0
M  V30 7090 C 687.495 2.08041 0.358091 0
M  V30 7091 O 686.843 1.84438 1.34888 0
M  V30 7092 C 687.053 2.794 -2.09133 0
M  V30 7093 C 688.401 3.49826 -2.40638 0
M  V30 7094 O 689.425 2.89583 -2.07412 0
M  V30 7095 O 688.284 4.58457 -2.97455 0
M  V30 7096 H 685.378 0.712475 -0.41989 0
M  V30 7097 H 687.924 0.936023 -1.41551 0
M  V30 7098 H 686.696 2.42762 -3.06891 0
M  V30 7099 H 686.319 3.55643 -1.77776 0
M  V30 7100 N 687.317 1.12792 1.10072 0
M  V30 7101 C 688.227 0.812369 2.20086 0
M  V30 7102 C 689.243 -0.200349 1.72843 0
M  V30 7103 O 690.419 -0.0330262 2.01373 0
M  V30 7104 C 687.484 0.275685 3.45602 0
M  V30 7105 C 686.545 1.34881 4.07561 0
M  V30 7106 C 685.778 0.837639 5.27086 0
M  V30 7107 O 686.001 -0.327224 5.69461 0
M  V30 7108 O 684.935 1.60894 5.79997 0
M  V30 7109 H 688.761 1.73133 2.49517 0
M  V30 7110 H 686.346 0.904863 1.18881 0
M  V30 7111 H 688.228 -0.0185375 4.21396 0
M  V30 7112 H 686.903 -0.615783 3.17789 0
M  V30 7113 H 685.81 1.69625 3.33434 0
M  V30 7114 H 687.143 2.21418 4.39585 0
M  V30 7115 N 688.795 -1.27931 0.920396 0
M  V30 7116 C 689.705 -2.30824 0.419212 0
M  V30 7117 C 690.721 -1.66767 -0.496461 0
M  V30 7118 O 691.897 -1.97763 -0.38104 0
M  V30 7119 C 688.962 -3.45158 -0.326601 0
M  V30 7120 C 688.023 -4.24754 0.623098 0
M  V30 7121 C 687.256 -5.33629 -0.0872172 0
M  V30 7122 O 687.479 -5.55204 -1.30784 0
M  V30 7123 O 686.413 -5.99091 0.580875 0
M  V30 7124 H 690.239 -2.75716 1.27337 0
M  V30 7125 H 687.824 -1.32747 0.685465 0
M  V30 7126 H 689.706 -4.14716 -0.747559 0
M  V30 7127 H 688.381 -3.02336 -1.15648 0
M  V30 7128 H 687.288 -3.57759 1.09359 0
M  V30 7129 H 688.621 -4.71272 1.41998 0
M  V30 7130 N 690.273 -0.685099 -1.4193 0
M  V30 7131 C 691.203 -0.0273506 -2.33484 0
M  V30 7132 C 692.184 0.778366 -1.51246 0
M  V30 7133 O 693.369 0.733449 -1.79817 0
M  V30 7134 C 690.499 0.917272 -3.34968 0
M  V30 7135 C 689.453 0.21941 -4.27437 0
M  V30 7136 C 688.779 1.27768 -5.1921 0
M  V30 7137 C 690.079 -0.907894 -5.14349 0
M  V30 7138 H 691.773 -0.791994 -2.88735 0
M  V30 7139 H 689.319 -0.382308 -1.38832 0
M  V30 7140 H 691.272 1.38657 -3.97935 0
M  V30 7141 H 689.996 1.71346 -2.78043 0
M  V30 7142 H 688.655 -0.229757 -3.65879 0
M  V30 7143 H 688.303 2.06612 -4.58607 0
M  V30 7144 H 688.003 0.815803 -5.81909 0
M  V30 7145 H 689.527 1.7477 -5.85054 0
M  V30 7146 H 690.941 -0.519348 -5.70943 0
M  V30 7147 H 689.338 -1.2962 -5.85934 0
M  V30 7148 H 690.408 -1.75218 -4.52136 0
M  V30 7149 N 691.751 1.51645 -0.429126 0
M  V30 7150 C 692.979 2.06433 0.138994 0
M  V30 7151 C 693.394 1.29735 1.37165 0
M  V30 7152 O 692.751 0.354638 1.79021 0
M  V30 7153 C 692.802 3.58439 0.469452 0
M  V30 7154 O 692.523 4.32238 -0.714273 0
M  V30 7155 C 694.024 4.29712 1.08914 0
M  V30 7156 H 691.244 0.6709 0.0115608 0
M  V30 7157 H 693.788 1.9532 -0.605843 0
M  V30 7158 H 691.943 3.69494 1.16419 0
M  V30 7159 H 692.357 5.22704 -0.433633 0
M  V30 7160 H 693.831 5.37182 1.27042 0
M  V30 7161 H 694.308 3.87473 2.06788 0
M  V30 7162 H 694.914 4.2308 0.434028 0
M  V30 7163 N 693.229 0.160201 1.56784 0
M  V30 7164 C 694.161 -0.80564 2.14574 0
M  V30 7165 C 695.174 -1.20154 1.09849 0
M  V30 7166 O 696.363 -1.14333 1.37078 0
M  V30 7167 C 693.463 -2.09434 2.6644 0
M  V30 7168 C 692.636 -1.86375 3.95706 0
M  V30 7169 C 691.695 -2.99358 4.32749 0
M  V30 7170 O 690.721 -2.70475 5.00831 0
M  V30 7171 N 691.923 -4.26867 3.93402 0
M  V30 7172 H 694.688 -0.311644 2.98075 0
M  V30 7173 H 692.249 -0.0229465 1.61884 0
M  V30 7174 H 694.241 -2.84091 2.88226 0
M  V30 7175 H 692.811 -2.50057 1.8759 0
M  V30 7176 H 692.031 -0.956821 3.82412 0
M  V30 7177 H 693.319 -1.68322 4.80151 0
M  V30 7178 H 692.717 -4.53197 3.38569 0
M  V30 7179 H 691.274 -4.98263 4.20211 0
M  V30 7180 N 694.707 -1.5719 -0.113559 0
M  V30 7181 C 696.118 -1.74259 -0.670116 0
M  V30 7182 C 696.469 -0.779694 -1.80042 0
M  V30 7183 O 695.594 0.0461353 -2.16351 0
M  V30 7184 C 696.189 -3.15981 -1.22236 0
M  V30 7185 C 694.748 -3.34537 -1.72516 0
M  V30 7186 C 693.895 -2.70116 -0.627098 0
M  V30 7187 H 696.846 -1.58301 0.112396 0
M  V30 7188 H 696.867 -3.17832 -2.09197 0
M  V30 7189 H 696.379 -3.86038 -0.39949 0
M  V30 7190 H 694.48 -2.6953 -2.57263 0
M  V30 7191 H 694.593 -4.42737 -1.83086 0
M  V30 7192 H 692.957 -2.31501 -1.06204 0
M  V30 7193 H 693.74 -3.42802 0.184889 0
M  V30 7194 N 696.185 0.383891 -1.52853 0
M  V30 7195 C 697.431 1.13009 -1.68395 0
M  V30 7196 C 697.764 1.89488 -0.425195 0
M  V30 7197 O 697.039 1.8574 0.577136 0
M  V30 7198 C 697.322 2.10419 -2.92226 0
M  V30 7199 C 697.175 1.3767 -4.28214 0
M  V30 7200 C 698.494 3.10781 -3.11614 0
M  V30 7201 H 695.613 0.409463 -0.612788 0
M  V30 7202 H 698.255 0.412895 -1.85459 0
M  V30 7203 H 696.405 2.71579 -2.77808 0
M  V30 7204 H 698.077 0.794352 -4.54409 0
M  V30 7205 H 696.32 0.678533 -4.2846 0
M  V30 7206 H 696.991 2.08874 -5.10956 0
M  V30 7207 H 699.467 2.59715 -3.25096 0
M  V30 7208 H 698.343 3.76179 -3.99725 0
M  V30 7209 H 698.604 3.79933 -2.2606 0
M  V30 7210 N 697.663 1.43903 0.642637 0
M  V30 7211 C 698.626 1.49538 1.73698 0
M  V30 7212 C 699.626 0.378776 1.56275 0
M  V30 7213 O 700.816 0.64095 1.6198 0
M  V30 7214 C 697.948 1.35821 3.12675 0
M  V30 7215 H 699.141 2.47008 1.70079 0
M  V30 7216 H 696.694 1.30824 0.85526 0
M  V30 7217 H 697.429 0.393994 3.21898 0
M  V30 7218 H 697.214 2.16776 3.26727 0
M  V30 7219 H 698.704 1.4272 3.92455 0
M  V30 7220 N 699.141 -0.881989 1.30609 0
M  V30 7221 C 700.557 -1.16576 1.09005 0
M  V30 7222 C 700.757 -2.00961 -0.14727 0
M  V30 7223 O 699.813 -2.38117 -0.840036 0
M  V30 7224 C 701.126 -1.86954 2.35518 0
M  V30 7225 C 702.674 -1.99706 2.41011 0
M  V30 7226 C 703.149 -2.73497 3.67374 0
M  V30 7227 N 704.64 -2.8104 3.68199 0
M  V30 7228 C 705.375 -3.38718 4.62664 0
M  V30 7229 N 704.871 -3.97421 5.67475 0
M  V30 7230 N 706.664 -3.36561 4.50203 0
M  V30 7231 H 698.815 -0.319398 2.09985 0
M  V30 7232 H 701.078 -0.204058 0.925778 0
M  V30 7233 H 700.784 -1.32393 3.2583 0
M  V30 7234 H 700.658 -2.87317 2.44395 0
M  V30 7235 H 703.045 -2.53436 1.51176 0
M  V30 7236 H 703.126 -0.984218 2.36108 0
M  V30 7237 H 702.77 -2.20438 4.57569 0
M  V30 7238 H 702.7 -3.75163 3.6954 0
M  V30 7239 H 705.191 -2.39365 2.92426 0
M  V30 7240 H 705.504 -4.39507 6.35652 0
M  V30 7241 H 703.849 -3.95832 5.71264 0
M  V30 7242 H 707.04 -2.8993 3.67503 0
M  V30 7243 H 707.213 -3.81215 5.24003 0
M  V30 7244 N 700.619 -1.13374 -1.09472 0
M  V30 7245 C 701.847 -0.918351 -1.85402 0
M  V30 7246 C 702.262 0.53281 -1.81126 0
M  V30 7247 O 701.619 1.36879 -1.20708 0
M  V30 7248 C 701.67 -1.39743 -3.33398 0
M  V30 7249 O 701.391 -2.79172 -3.37631 0
M  V30 7250 C 702.892 -1.22042 -4.2617 0
M  V30 7251 H 700.112 -0.327511 -0.585643 0
M  V30 7252 H 702.656 -1.50617 -1.38328 0
M  V30 7253 H 700.811 -0.852619 -3.77901 0
M  V30 7254 H 701.225 -3.00428 -4.29934 0
M  V30 7255 H 702.699 -1.60438 -5.2817 0
M  V30 7256 H 703.176 -0.162047 -4.38901 0
M  V30 7257 H 703.782 -1.75323 -3.87482 0
M  V30 7258 N 702.098 1.27442 -0.927168 0
M  V30 7259 C 703.031 2.25177 -0.370232 0
M  V30 7260 C 704.009 1.53612 0.533103 0
M  V30 7261 O 705.193 1.8245 0.47373 0
M  V30 7262 C 702.32 3.35431 0.469411 0
M  V30 7263 C 701.366 4.24888 -0.370419 0
M  V30 7264 S 702.199 5.04852 -1.78562 0
M  V30 7265 C 703.355 6.18592 -0.953651 0
M  V30 7266 H 703.588 2.72069 -1.19858 0
M  V30 7267 H 701.121 1.36089 -0.729316 0
M  V30 7268 H 703.079 3.99404 0.947992 0
M  V30 7269 H 701.74 2.87179 1.27228 0
M  V30 7270 H 700.933 5.03264 0.272226 0
M  V30 7271 H 700.535 3.65709 -0.783153 0
M  V30 7272 H 702.827 6.77235 -0.189408 0
M  V30 7273 H 703.77 6.87132 -1.7104 0
M  V30 7274 H 704.178 5.62318 -0.495897 0
M  V30 7275 N 703.576 0.692616 1.41565 0
M  V30 7276 C 704.853 0.150496 1.9502 0
M  V30 7277 C 705.233 -1.33881 1.63215 0
M  V30 7278 O 704.581 -2.08378 0.937598 0
M  V30 7279 C 704.791 0.438636 3.46233 0
M  V30 7280 C 706.139 0.364777 4.2303 0
M  V30 7281 O 707.163 0.373383 3.54238 0
M  V30 7282 O 706.022 0.32234 5.45549 0
M  V30 7283 H 703.116 0.0132454 0.826894 0
M  V30 7284 H 705.662 0.768574 1.51298 0
M  V30 7285 H 704.434 1.46962 3.62654 0
M  V30 7286 H 704.057 -0.210562 3.97042 0
M  V30 7287 N 705.054 -1.51416 0.437162 0
M  V30 7288 C 706.301 -2.02086 -0.129364 0
M  V30 7289 C 706.629 -1.32133 -1.42728 0
M  V30 7290 O 705.884 -0.424916 -1.91031 0
M  V30 7291 C 706.183 -3.55203 -0.39564 0
M  V30 7292 C 705.849 -4.43447 0.81644 0
M  V30 7293 C 704.511 -4.67285 1.14884 0
M  V30 7294 C 706.863 -4.95219 1.62503 0
M  V30 7295 C 704.191 -5.40141 2.29052 0
M  V30 7296 C 706.543 -5.69327 2.7577 0
M  V30 7297 C 705.207 -5.91429 3.09464 0
M  V30 7298 H 704.477 -0.739486 -0.0473375 0
M  V30 7299 H 707.124 -1.82368 0.584321 0
M  V30 7300 H 705.429 -3.73252 -1.19121 0
M  V30 7301 H 707.126 -3.91944 -0.847399 0
M  V30 7302 H 703.716 -4.2509 0.547422 0
M  V30 7303 H 707.9 -4.76686 1.38144 0
M  V30 7304 H 703.156 -5.55468 2.55471 0
M  V30 7305 H 707.33 -6.08433 3.38795 0
M  V30 7306 H 704.957 -6.47662 3.98042 0
M  V30 7307 N 706.532 -0.168513 -1.56696 0
M  V30 7308 C 707.462 0.758563 -2.20835 0
M  V30 7309 C 708.443 1.24121 -1.1631 0
M  V30 7310 O 709.628 1.29487 -1.4473 0
M  V30 7311 C 706.758 1.9892 -2.8469 0
M  V30 7312 C 705.712 1.64252 -3.95228 0
M  V30 7313 C 705.038 2.94757 -4.46119 0
M  V30 7314 C 706.338 0.872675 -5.14958 0
M  V30 7315 H 708.032 0.223953 -2.98561 0
M  V30 7316 H 705.578 0.106277 -1.43607 0
M  V30 7317 H 707.531 2.64275 -3.28233 0
M  V30 7318 H 706.255 2.5479 -2.04327 0
M  V30 7319 H 704.914 1.01266 -3.52336 0
M  V30 7320 H 704.562 3.48662 -3.62552 0
M  V30 7321 H 704.262 2.72316 -5.2069 0
M  V30 7322 H 705.786 3.61147 -4.92347 0
M  V30 7323 H 707.2 1.42875 -5.55211 0
M  V30 7324 H 705.597 0.747402 -5.95428 0
M  V30 7325 H 706.667 -0.131535 -4.84722 0
M  V30 7326 N 708.01 1.57248 0.105221 0
M  V30 7327 C 709.235 1.90143 0.828264 0
M  V30 7328 C 709.66 0.761811 1.71983 0
M  V30 7329 O 709.018 -0.287086 1.79013 0
M  V30 7330 C 709.066 3.21856 1.62608 0
M  V30 7331 O 708.17 3.08732 2.7342 0
M  V30 7332 H 707.511 0.623558 0.228192 0
M  V30 7333 H 710.041 2.0443 0.0834826 0
M  V30 7334 H 710.051 3.54916 2.01243 0
M  V30 7335 H 708.726 4.0439 0.971687 0
M  V30 7336 H 707.303 2.87167 2.37886 0
M  V30 7337 N 709.488 -0.375779 1.53054 0
M  V30 7338 C 710.899 -0.95309 1.6054 0
M  V30 7339 C 711.25 -1.90575 0.466446 0
M  V30 7340 O 710.375 -2.12507 -0.408609 0
M  V30 7341 C 710.97 -1.73537 2.90982 0
M  V30 7342 C 709.529 -2.26218 3.00836 0
M  V30 7343 C 708.676 -1.07157 2.55759 0
M  V30 7344 H 711.627 -0.154895 1.57942 0
M  V30 7345 H 711.648 -2.59574 2.78211 0
M  V30 7346 H 711.16 -1.04176 3.73857 0
M  V30 7347 H 709.261 -2.98852 2.22527 0
M  V30 7348 H 709.374 -2.54799 4.05727 0
M  V30 7349 H 707.738 -1.43553 2.10391 0
M  V30 7350 H 708.521 -0.393099 3.41042 0
M  V30 7351 N 710.966 -1.44241 -0.634997 0
M  V30 7352 C 711.916 -1.47247 -1.74076 0
M  V30 7353 C 712.9 -0.338708 -1.57295 0
M  V30 7354 O 714.092 -0.583751 -1.67097 0
M  V30 7355 C 711.221 -1.41579 -3.12746 0
M  V30 7356 C 710.307 -2.60055 -3.35011 0
M  V30 7357 N 710.698 -3.85321 -3.27661 0
M  V30 7358 C 708.996 -2.55168 -3.65794 0
M  V30 7359 C 709.697 -4.64241 -3.50508 0
M  V30 7360 N 708.673 -3.95254 -3.73196 0
M  V30 7361 H 712.475 -2.4195 -1.66845 0
M  V30 7362 H 709.989 -1.3915 -0.837326 0
M  V30 7363 H 711.986 -1.41816 -3.92038 0
M  V30 7364 H 710.646 -0.479108 -3.21146 0
M  V30 7365 H 711.657 -4.17345 -3.06665 0
M  V30 7366 H 708.334 -1.70276 -3.81198 0
M  V30 7367 H 709.724 -5.73267 -3.50449 0
M  V30 7368 N 712.444 0.87505 -1.31075 0
M  V30 7369 C 713.692 1.62447 -1.20231 0
M  V30 7370 C 714.013 1.93506 0.240888 0
M  V30 7371 O 713.283 1.57847 1.16022 0
M  V30 7372 H 711.863 0.602207 -0.441991 0
M  V30 7373 H 714.525 1.04788 -1.64334 0
M  V30 7374 H 713.621 2.57031 -1.77036 0
M  V30 7375 N 713.922 1.13953 1.08869 0
M  V30 7376 C 715.147 0.928559 1.85452 0
M  V30 7377 C 715.572 -0.517642 1.80837 0
M  V30 7378 O 714.93 -1.36779 1.19001 0
M  V30 7379 C 714.978 1.42814 3.31114 0
M  V30 7380 O 714.082 0.617129 4.07756 0
M  V30 7381 H 713.423 0.33235 0.574839 0
M  V30 7382 H 715.953 1.5156 1.37443 0
M  V30 7383 H 715.963 1.43425 3.8196 0
M  V30 7384 H 714.638 2.48109 3.33788 0
M  V30 7385 H 713.215 0.679365 3.66659 0
M  V30 7386 N 715.4 -1.26948 0.933913 0
M  V30 7387 C 716.363 -2.24889 0.442457 0
M  V30 7388 C 717.363 -1.54594 -0.442426 0
M  V30 7389 O 718.553 -1.72502 -0.242629 0
M  V30 7390 C 715.685 -3.3896 -0.363173 0
M  V30 7391 H 716.878 -2.69879 1.30787 0
M  V30 7392 H 714.431 -1.38978 0.715187 0
M  V30 7393 H 715.166 -2.99361 -1.24714 0
M  V30 7394 H 714.951 -3.9116 0.271366 0
M  V30 7395 H 716.441 -4.11739 -0.697186 0
M  V30 7396 N 716.879 -0.700114 -1.41195 0
M  V30 7397 C 718.125 -0.242122 -2.01954 0
M  V30 7398 C 718.48 1.14697 -1.54475 0
M  V30 7399 O 717.773 1.76392 -0.748095 0
M  V30 7400 C 717.967 -0.243986 -3.56566 0
M  V30 7401 C 717.796 -1.63172 -4.19053 0
M  V30 7402 C 716.566 -2.23566 -4.53152 0
M  V30 7403 C 718.764 -2.57916 -4.44954 0
M  V30 7404 N 716.746 -3.54856 -5.00949 0
M  V30 7405 C 718.117 -3.73892 -4.94576 0
M  V30 7406 C 720.172 -2.56125 -4.26971 0
M  V30 7407 C 718.875 -4.88363 -5.28104 0
M  V30 7408 C 720.901 -3.69712 -4.61592 0
M  V30 7409 C 720.263 -4.84418 -5.11389 0
M  V30 7410 H 716.362 -0.134088 -0.770418 0
M  V30 7411 H 718.946 -0.918576 -1.71669 0
M  V30 7412 H 717.117 0.401971 -3.86314 0
M  V30 7413 H 718.849 0.229261 -4.0405 0
M  V30 7414 H 715.604 -1.75809 -4.39759 0
M  V30 7415 H 716.028 -4.22167 -5.29249 0
M  V30 7416 H 720.67 -1.68656 -3.87705 0
M  V30 7417 H 718.388 -5.76488 -5.66292 0
M  V30 7418 H 721.974 -3.69583 -4.49332 0
M  V30 7419 H 720.854 -5.70855 -5.37675 0
M  V30 7420 N 718.357 1.51182 -0.445186 0
M  V30 7421 C 719.634 1.9478 0.178965 0
M  V30 7422 C 720.014 1.38428 1.59376 0
M  V30 7423 O 719.362 0.574552 2.21159 0
M  V30 7424 C 719.572 3.48683 0.148711 0
M  V30 7425 C 720.92 4.23152 0.35042 0
M  V30 7426 O 721.944 3.55479 0.226474 0
M  V30 7427 O 720.803 5.4322 0.597893 0
M  V30 7428 H 717.897 0.817387 0.12573 0
M  V30 7429 H 720.443 1.62051 -0.503729 0
M  V30 7430 H 719.215 3.82176 -0.84009 0
M  V30 7431 H 718.838 3.87875 0.873979 0
M  V30 7432 N 719.835 0.176821 1.56605 0
M  V30 7433 C 721.246 -0.338963 1.83597 0
M  V30 7434 C 721.597 -1.62677 1.09684 0
M  V30 7435 O 720.722 -2.13524 0.351661 0
M  V30 7436 C 721.317 -0.62177 3.33046 0
M  V30 7437 C 719.876 -1.08198 3.60514 0
M  V30 7438 C 719.023 -0.120774 2.77037 0
M  V30 7439 H 721.974 0.400978 1.53551 0
M  V30 7440 H 721.995 -1.47321 3.50823 0
M  V30 7441 H 721.507 0.315692 3.86814 0
M  V30 7442 H 719.608 -2.03435 3.12162 0
M  V30 7443 H 719.721 -0.987329 4.68816 0
M  V30 7444 H 718.085 -0.619192 2.47059 0
M  V30 7445 H 718.868 0.810806 3.33588 0
M  V30 7446 N 721.313 -1.57302 -0.09688 0
M  V30 7447 C 722.538 -1.9058 -0.818169 0
M  V30 7448 C 722.963 -0.770921 -1.71576 0
M  V30 7449 O 722.321 0.277588 -1.79162 0
M  V30 7450 C 722.369 -3.22714 -1.60898 0
M  V30 7451 O 721.473 -3.10178 -2.71779 0
M  V30 7452 H 720.814 -0.624759 -0.224882 0
M  V30 7453 H 723.344 -2.04471 -0.07264 0
M  V30 7454 H 723.354 -3.55978 -1.99358 0
M  V30 7455 H 722.029 -4.04899 -0.950227 0
M  V30 7456 H 720.606 -2.88424 -2.3636 0
M  V30 7457 N 722.791 0.367657 -1.53252 0
M  V30 7458 C 724.207 0.709191 -1.42978 0
M  V30 7459 C 724.407 1.93352 -0.567193 0
M  V30 7460 O 723.463 2.52453 -0.0488349 0
M  V30 7461 C 724.776 0.924338 -2.86141 0
M  V30 7462 C 726.324 1.02448 -2.95759 0
M  V30 7463 C 726.799 1.27211 -4.39979 0
M  V30 7464 N 728.29 1.33986 -4.43398 0
M  V30 7465 C 729.025 1.54852 -5.52095 0
M  V30 7466 N 728.521 1.73049 -6.7084 0
M  V30 7467 N 730.314 1.57205 -5.39669 0
M  V30 7468 H 722.465 -0.437669 -2.07842 0
M  V30 7469 H 724.728 -0.133737 -0.938519 0
M  V30 7470 H 724.434 0.0965455 -3.51567 0
M  V30 7471 H 724.308 1.83302 -3.29667 0
M  V30 7472 H 726.695 1.84282 -2.30487 0
M  V30 7473 H 726.776 0.0932301 -2.5563 0
M  V30 7474 H 726.42 0.458792 -5.05824 0
M  V30 7475 H 726.35 2.21654 -4.77679 0
M  V30 7476 H 728.841 1.21545 -3.5782 0
M  V30 7477 H 729.154 1.88538 -7.49449 0
M  V30 7478 H 727.499 1.70231 -6.7383 0
M  V30 7479 H 730.69 1.42555 -4.45865 0
M  V30 7480 H 730.863 1.73126 -6.24445 0
M  V30 7481 N 724.269 1.44576 0.627338 0
M  V30 7482 C 725.179 1.54232 1.76776 0
M  V30 7483 C 726.195 0.427782 1.6866 0
M  V30 7484 O 727.371 0.685671 1.89369 0
M  V30 7485 C 724.436 1.48738 3.13174 0
M  V30 7486 C 723.497 2.71074 3.32893 0
M  V30 7487 C 722.73 2.65832 4.62784 0
M  V30 7488 O 722.953 1.72048 5.43834 0
M  V30 7489 O 721.887 3.56742 4.84787 0
M  V30 7490 H 725.713 2.50586 1.71582 0
M  V30 7491 H 723.298 1.26865 0.789028 0
M  V30 7492 H 725.18 1.48211 3.94476 0
M  V30 7493 H 723.855 0.555292 3.18902 0
M  V30 7494 H 722.762 2.77168 2.51254 0
M  V30 7495 H 724.095 3.63342 3.32029 0
M  V30 7496 N 725.747 -0.868086 1.31537 0
M  V30 7497 C 726.71 -1.95703 1.19302 0
M  V30 7498 C 727.71 -1.60355 0.119612 0
M  V30 7499 O 728.9 -1.70247 0.36902 0
M  V30 7500 C 726.032 -3.30599 0.831684 0
M  V30 7501 H 727.225 -2.07982 2.16064 0
M  V30 7502 H 724.778 -1.05661 1.15176 0
M  V30 7503 H 725.513 -3.2402 -0.134694 0
M  V30 7504 H 725.298 -3.57629 1.60761 0
M  V30 7505 H 726.788 -4.10439 0.770026 0
M  V30 7506 N 727.225 -1.14528 -1.08264 0
M  V30 7507 C 728.453 -0.937964 -1.84418 0
M  V30 7508 C 728.868 0.51357 -1.81681 0
M  V30 7509 O 728.225 1.35591 -1.22153 0
M  V30 7510 C 728.276 -1.43272 -3.31897 0
M  V30 7511 O 727.997 -2.82738 -3.34651 0
M  V30 7512 C 729.498 -1.26555 -4.24851 0
M  V30 7513 H 726.718 -0.333704 -0.582136 0
M  V30 7514 H 729.262 -1.52076 -1.36723 0
M  V30 7515 H 727.417 -0.892653 -3.76975 0
M  V30 7516 H 727.831 -3.04971 -4.26724 0
M  V30 7517 H 729.305 -1.66031 -5.26439 0
M  V30 7518 H 729.782 -0.208589 -4.38704 0
M  V30 7519 H 730.388 -1.79423 -3.856 0
M  V30 7520 N 728.703 1.26451 -0.940633 0
M  V30 7521 C 729.928 1.98407 -0.60412 0
M  V30 7522 C 730.353 1.69584 0.81382 0
M  V30 7523 O 729.711 0.943553 1.54812 0
M  V30 7524 C 729.759 3.50387 -0.852136 0
M  V30 7525 O 728.863 4.1233 0.076013 0
M  V30 7526 H 728.204 0.622466 -0.231153 0
M  V30 7527 H 730.734 1.60932 -1.26342 0
M  V30 7528 H 730.744 4.00614 -0.772816 0
M  V30 7529 H 729.419 3.70696 -1.88566 0
M  V30 7530 H 727.996 3.7286 -0.0543187 0
M  V30 7531 N 730.181 0.707592 1.40822 0
M  V30 7532 C 731.111 0.0644925 2.33411 0
M  V30 7533 C 732.092 -0.754205 1.52466 0
M  V30 7534 O 733.277 -0.704749 1.80961 0
M  V30 7535 C 730.407 -0.863865 3.36385 0
M  V30 7536 C 729.361 -0.15138 4.27732 0
M  V30 7537 C 728.687 -1.19491 5.21177 0
M  V30 7538 C 729.987 0.989607 5.12839 0
M  V30 7539 H 731.681 0.837829 2.87438 0
M  V30 7540 H 729.227 0.404346 1.38207 0
M  V30 7541 H 731.18 -1.32309 4.0009 0
M  V30 7542 H 729.904 -1.66901 2.80734 0
M  V30 7543 H 728.563 0.287937 3.65467 0
M  V30 7544 H 728.211 -1.9929 4.61836 0
M  V30 7545 H 727.911 -0.723123 5.83134 0
M  V30 7546 H 729.435 -1.6544 5.8776 0
M  V30 7547 H 730.849 0.610114 5.70044 0
M  V30 7548 H 729.246 1.38926 5.83798 0
M  V30 7549 H 730.316 1.82389 4.49291 0
M  V30 7550 N 731.66 -1.50943 0.453197 0
M  V30 7551 C 732.908 -2.01813 -0.107709 0
M  V30 7552 C 733.229 -1.33841 -1.41816 0
M  V30 7553 O 732.499 -0.477973 -1.8998 0
M  V30 7554 H 731.079 -0.745773 -0.0427948 0
M  V30 7555 H 733.741 -1.8545 0.599531 0
M  V30 7556 H 732.837 -3.10911 -0.27218 0
M  V30 7557 N 733.138 -0.185124 -1.56509 0
M  V30 7558 C 734.363 0.465278 -2.02114 0
M  V30 7559 C 734.788 1.55083 -1.06447 0
M  V30 7560 O 734.146 1.81241 -0.0462852 0
M  V30 7561 C 734.194 1.00784 -3.46229 0
M  V30 7562 O 733.298 2.12123 -3.53663 0
M  V30 7563 H 732.639 0.109891 -0.654843 0
M  V30 7564 H 735.169 -0.293072 -2.0249 0
M  V30 7565 H 735.179 1.32697 -3.85818 0
M  V30 7566 H 733.854 0.213113 -4.15354 0
M  V30 7567 H 732.431 1.8115 -3.25943 0
M  V30 7568 N 734.616 1.57351 0.0885366 0
M  V30 7569 C 735.548 1.99221 1.13329 0
M  V30 7570 C 736.561 0.895705 1.35945 0
M  V30 7571 O 737.75 1.17376 1.34481 0
M  V30 7572 C 734.85 2.3016 2.48756 0
M  V30 7573 C 734.023 3.61444 2.46327 0
M  V30 7574 C 733.082 3.80244 3.63732 0
M  V30 7575 O 732.108 4.52024 3.45924 0
M  V30 7576 N 733.31 3.2132 4.8346 0
M  V30 7577 H 736.075 2.89456 0.776862 0
M  V30 7578 H 733.636 1.59505 0.277428 0
M  V30 7579 H 735.628 2.39925 3.25911 0
M  V30 7580 H 734.198 1.459 2.76464 0
M  V30 7581 H 733.418 3.62588 1.54673 0
M  V30 7582 H 734.706 4.47678 2.41789 0
M  V30 7583 H 734.104 2.63028 5.00832 0
M  V30 7584 H 732.661 3.3656 5.58185 0
M  V30 7585 N 736.094 -0.359525 1.53444 0
M  V30 7586 C 737.319 -1.12644 1.74144 0
M  V30 7587 C 737.744 -1.82082 0.472007 0
M  V30 7588 O 737.102 -1.71962 -0.57436 0
M  V30 7589 C 737.15 -2.12781 2.9113 0
M  V30 7590 O 736.254 -3.19984 2.60162 0
M  V30 7591 H 735.595 -0.326553 0.578152 0
M  V30 7592 H 738.125 -0.414798 2.00351 0
M  V30 7593 H 738.135 -2.56278 3.17467 0
M  V30 7594 H 736.81 -1.61634 3.83207 0
M  V30 7595 H 735.387 -2.81417 2.44661 0
M  V30 7596 N 737.572 -1.44907 -0.619662 0
M  V30 7597 C 738.802 -1.51575 -1.40387 0
M  V30 7598 C 739.21 -0.14309 -1.88658 0
M  V30 7599 O 738.553 0.863403 -1.62145 0
M  V30 7600 C 738.615 -2.42858 -2.65067 0
M  V30 7601 C 738.279 -3.8982 -2.38515 0
M  V30 7602 C 739.276 -4.80047 -1.99627 0
M  V30 7603 C 736.961 -4.34628 -2.51801 0
M  V30 7604 C 738.955 -6.13086 -1.74369 0
M  V30 7605 C 736.642 -5.67712 -2.26156 0
M  V30 7606 C 737.64 -6.56759 -1.875 0
M  V30 7607 O 737.328 -7.87377 -1.62148 0
M  V30 7608 H 737.06 -0.51612 -0.436573 0
M  V30 7609 H 739.614 -1.90664 -0.763959 0
M  V30 7610 H 737.844 -1.98717 -3.31735 0
M  V30 7611 H 739.533 -2.40346 -3.27091 0
M  V30 7612 H 740.299 -4.46697 -1.8891 0
M  V30 7613 H 736.178 -3.65568 -2.80857 0
M  V30 7614 H 739.722 -6.8255 -1.44122 0
M  V30 7615 H 735.619 -6.0062 -2.36486 0
M  V30 7616 H 736.387 -7.99288 -1.763 0
M  V30 7617 N 739.05 0.861098 -1.31996 0
M  V30 7618 C 739.96 2.00154 -1.22374 0
M  V30 7619 C 740.976 1.73447 -0.138631 0
M  V30 7620 O 742.152 1.98191 -0.358104 0
M  V30 7621 C 739.217 3.33696 -0.940645 0
M  V30 7622 C 738.278 3.73668 -2.11355 0
M  V30 7623 C 737.511 5.00837 -1.84386 0
M  V30 7624 O 737.734 5.64996 -0.783287 0
M  V30 7625 O 736.668 5.37787 -2.70313 0
M  V30 7626 H 740.494 2.11207 -2.18233 0
M  V30 7627 H 738.079 0.990768 -1.11822 0
M  V30 7628 H 739.961 4.13756 -0.798987 0
M  V30 7629 H 738.636 3.23698 -0.0121636 0
M  V30 7630 H 737.543 2.94211 -2.31065 0
M  V30 7631 H 738.876 3.88303 -3.02459 0
M  V30 7632 N 740.528 1.15101 1.07655 0
M  V30 7633 C 741.805 0.834578 1.76902 0
M  V30 7634 C 742.185 -0.670431 2.00171 0
M  V30 7635 O 741.533 -1.61378 1.6177 0
M  V30 7636 C 741.743 1.64191 3.07965 0
M  V30 7637 C 743.091 1.84615 3.82364 0
M  V30 7638 O 744.115 1.60941 3.17768 0
M  V30 7639 O 742.974 2.24244 4.98374 0
M  V30 7640 H 740.068 0.306608 0.768063 0
M  V30 7641 H 742.614 1.25663 1.14048 0
M  V30 7642 H 741.386 2.66386 2.86626 0
M  V30 7643 H 741.009 1.216 3.78549 0
M  V30 7644 N 742.006 -1.2595 0.947325 0
M  V30 7645 C 742.939 -2.24559 0.406009 0
M  V30 7646 C 743.917 -1.54441 -0.508598 0
M  V30 7647 O 745.101 -1.83181 -0.444644 0
M  V30 7648 C 742.228 -3.36136 -0.415987 0
M  V30 7649 C 741.274 -4.24245 0.437969 0
M  V30 7650 S 742.107 -5.01948 1.86572 0
M  V30 7651 C 743.263 -6.16997 1.05194 0
M  V30 7652 H 743.496 -2.70128 1.24171 0
M  V30 7653 H 741.029 -1.34912 0.750874 0
M  V30 7654 H 742.987 -4.00861 -0.88433 0
M  V30 7655 H 741.648 -2.89167 -1.22643 0
M  V30 7656 H 740.841 -5.03634 -0.192127 0
M  V30 7657 H 740.443 -3.64416 0.841235 0
M  V30 7658 H 742.735 -6.76848 0.297126 0
M  V30 7659 H 743.678 -6.84324 1.8195 0
M  V30 7660 H 744.086 -5.61458 0.585294 0
M  V30 7661 N 743.484 -0.715051 -1.40445 0
M  V30 7662 C 744.9 -0.388555 -1.54798 0
M  V30 7663 C 745.1 1.10271 -1.68649 0
M  V30 7664 O 744.156 1.88875 -1.67578 0
M  V30 7665 C 745.469 -1.15414 -2.77669 0
M  V30 7666 C 747.017 -1.14039 -2.91486 0
M  V30 7667 C 747.492 -1.88812 -4.1727 0
M  V30 7668 N 748.983 -1.85878 -4.24268 0
M  V30 7669 C 749.718 -2.40558 -5.20499 0
M  V30 7670 N 749.214 -3.03791 -6.22642 0
M  V30 7671 N 751.007 -2.30703 -5.12574 0
M  V30 7672 H 743.158 -1.68201 -1.297 0
M  V30 7673 H 745.421 -0.710915 -0.627139 0
M  V30 7674 H 745.127 -2.20853 -2.7371 0
M  V30 7675 H 745.001 -0.745412 -3.69761 0
M  V30 7676 H 747.388 -0.0941996 -2.9495 0
M  V30 7677 H 747.469 -1.58834 -2.00513 0
M  V30 7678 H 747.113 -2.93422 -4.14568 0
M  V30 7679 H 747.043 -1.41438 -5.0725 0
M  V30 7680 H 749.534 -1.39794 -3.51093 0
M  V30 7681 H 749.847 -3.43032 -6.92495 0
M  V30 7682 H 748.192 -3.07875 -6.23087 0
M  V30 7683 H 751.383 -1.80961 -4.31707 0
M  V30 7684 H 751.556 -2.73618 -5.87398 0
M  V30 7685 N 744.962 1.50701 -0.461195 0
M  V30 7686 C 746.21 2.01867 0.0970051 0
M  V30 7687 C 746.531 1.34591 1.41104 0
M  V30 7688 O 745.801 0.488041 1.89723 0
M  V30 7689 H 744.381 0.74599 0.0388392 0
M  V30 7690 H 747.043 1.85129 -0.609357 0
M  V30 7691 H 746.139 3.11051 0.255688 0
M  V30 7692 N 746.441 0.193421 1.56409 0
M  V30 7693 C 747.69 -0.445995 1.96707 0
M  V30 7694 C 748.003 -1.62876 1.08309 0
M  V30 7695 O 749.209 -2.33586 1.38383 0
M  V30 7696 C 747.665 -0.844863 3.49843 0
M  V30 7697 C 747.273 0.31352 4.46902 0
M  V30 7698 C 749.017 -1.45146 3.98915 0
M  V30 7699 C 746.924 -0.106214 5.91305 0
M  V30 7700 H 745.854 -0.170398 0.734493 0
M  V30 7701 H 748.505 0.285172 1.81271 0
M  V30 7702 H 746.887 -1.63265 3.60778 0
M  V30 7703 H 748.061 1.09103 4.47698 0
M  V30 7704 H 746.376 0.8315 4.08014 0
M  V30 7705 H 748.973 -1.77792 5.04276 0
M  V30 7706 H 749.316 -2.35734 3.43126 0
M  V30 7707 H 749.849 -0.727675 3.91088 0
M  V30 7708 H 746.588 0.765442 6.51016 0
M  V30 7709 H 746.108 -0.848623 5.93766 0
M  V30 7710 H 747.787 -0.542588 6.44721 0
M  V30 7711 N 747.919 -1.57396 -0.0801906 0
M  V30 7712 C 748.849 -2.06145 -1.09665 0
M  V30 7713 C 749.83 -0.953273 -1.40878 0
M  V30 7714 O 751.015 -1.22548 -1.50651 0
M  V30 7715 C 748.145 -2.49836 -2.41245 0
M  V30 7716 C 747.099 -3.64454 -2.24405 0
M  V30 7717 C 746.425 -3.94172 -3.61293 0
M  V30 7718 C 747.725 -4.94807 -1.67223 0
M  V30 7719 H 749.419 -2.91316 -0.691028 0
M  V30 7720 H 746.965 -1.40145 -0.330957 0
M  V30 7721 H 748.918 -2.82552 -3.12638 0
M  V30 7722 H 747.642 -1.61683 -2.83771 0
M  V30 7723 H 746.301 -3.32008 -1.55454 0
M  V30 7724 H 745.949 -3.03163 -4.01374 0
M  V30 7725 H 745.649 -4.71345 -3.50867 0
M  V30 7726 H 747.173 -4.29376 -4.3413 0
M  V30 7727 H 748.587 -5.25807 -2.28472 0
M  V30 7728 H 746.984 -5.76245 -1.67515 0
M  V30 7729 H 748.054 -4.80751 -0.632944 0
M  V30 7730 N 749.397 0.351382 -1.53633 0
M  V30 7731 C 750.627 1.11113 -1.74176 0
M  V30 7732 C 751.035 1.83084 -0.477154 0
M  V30 7733 O 750.378 1.74941 0.560483 0
M  V30 7734 C 750.44 2.17521 -2.86225 0
M  V30 7735 C 750.104 1.65193 -4.26099 0
M  V30 7736 C 751.101 1.10842 -5.07947 0
M  V30 7737 C 748.786 1.70277 -4.72558 0
M  V30 7738 C 750.78 0.622689 -6.34351 0
M  V30 7739 C 748.467 1.21316 -5.98937 0
M  V30 7740 C 749.465 0.674033 -6.79666 0
M  V30 7741 O 749.153 0.191696 -8.03671 0
M  V30 7742 H 748.885 0.33756 -0.585687 0
M  V30 7743 H 751.439 0.411786 -2.0123 0
M  V30 7744 H 749.669 2.90991 -2.54678 0
M  V30 7745 H 751.358 2.78999 -2.94812 0
M  V30 7746 H 752.124 1.06243 -4.7322 0
M  V30 7747 H 748.003 2.11181 -4.09785 0
M  V30 7748 H 751.547 0.201216 -6.9731 0
M  V30 7749 H 747.444 1.25613 -6.3316 0
M  V30 7750 H 748.212 0.309712 -8.17914 0
M  V30 7751 N 750.875 1.45233 0.611969 0
M  V30 7752 C 751.838 1.53189 1.70487 0
M  V30 7753 C 752.838 0.411839 1.55437 0
M  V30 7754 O 754.028 0.675164 1.60584 0
M  V30 7755 C 751.16 1.42422 3.09723 0
M  V30 7756 H 752.353 2.5056 1.64802 0
M  V30 7757 H 749.906 1.32609 0.827318 0
M  V30 7758 H 750.641 0.462185 3.2099 0
M  V30 7759 H 750.426 2.23658 3.22055 0
M  V30 7760 H 751.916 1.51012 3.89339 0
M  V30 7761 N 752.353 -0.854086 1.3245 0
M  V30 7762 C 753.316 -1.94427 1.21371 0
M  V30 7763 C 754.316 -1.60219 0.136613 0
M  V30 7764 O 755.506 -1.69846 0.387057 0
M  V30 7765 C 752.638 -3.29698 0.866701 0
M  V30 7766 H 753.831 -2.05679 2.18257 0
M  V30 7767 H 751.384 -1.04434 1.1629 0
M  V30 7768 H 752.119 -3.24145 -0.100319 0
M  V30 7769 H 751.904 -3.55903 1.64545 0
M  V30 7770 H 753.394 -4.09599 0.813515 0
M  V30 7771 N 753.831 -1.1567 -1.07043 0
M  V30 7772 C 755.242 -0.942408 -1.61169 0
M  V30 7773 C 755.593 0.515537 -1.89306 0
M  V30 7774 O 754.718 1.38726 -1.66084 0
M  V30 7775 C 755.313 -1.70431 -2.92812 0
M  V30 7776 C 753.872 -1.53521 -3.43669 0
M  V30 7777 C 753.019 -1.7179 -2.17678 0
M  V30 7778 H 755.97 -1.3065 -0.9009 0
M  V30 7779 H 755.991 -1.17566 -3.61882 0
M  V30 7780 H 755.503 -2.76538 -2.72302 0
M  V30 7781 H 753.604 -0.498224 -3.69254 0
M  V30 7782 H 753.717 -2.31422 -4.19501 0
M  V30 7783 H 752.081 -1.14468 -2.27529 0
M  V30 7784 H 752.864 -2.79269 -1.99659 0
M  V30 7785 N 755.309 1.25446 -0.953992 0
M  V30 7786 C 756.241 2.25111 -0.431004 0
M  V30 7787 C 757.254 1.56377 0.452764 0
M  V30 7788 O 758.443 1.76579 0.261144 0
M  V30 7789 C 755.543 3.3655 0.39839 0
M  V30 7790 C 754.716 4.34843 -0.472229 0
M  V30 7791 C 753.775 5.25351 0.29886 0
M  V30 7792 O 752.801 5.68396 -0.302522 0
M  V30 7793 N 754.003 5.5824 1.59211 0
M  V30 7794 H 756.768 2.70619 -1.28785 0
M  V30 7795 H 754.329 1.39346 -0.824281 0
M  V30 7796 H 756.321 3.94059 0.921941 0
M  V30 7797 H 754.891 2.90436 1.15609 0
M  V30 7798 H 754.111 3.76222 -1.17689 0
M  V30 7799 H 755.399 4.97497 -1.06648 0
M  V30 7800 H 754.797 5.25172 2.10264 0
M  V30 7801 H 753.354 6.18336 2.06164 0
M  V30 7802 N 756.787 0.722489 1.40064 0
M  V30 7803 C 757.717 0.0892452 2.33329 0
M  V30 7804 C 758.698 -0.737992 1.53257 0
M  V30 7805 O 759.883 -0.685516 1.81698 0
M  V30 7806 C 757.013 -0.828139 3.37282 0
M  V30 7807 C 755.967 -0.106005 4.27869 0
M  V30 7808 C 755.293 -1.13957 5.22415 0
M  V30 7809 C 756.593 1.04395 5.11761 0
M  V30 7810 H 758.287 0.868269 2.86534 0
M  V30 7811 H 755.833 0.418982 1.3777 0
M  V30 7812 H 757.786 -1.28058 4.01471 0
M  V30 7813 H 756.51 -1.63914 2.82489 0
M  V30 7814 H 755.169 0.326683 3.65142 0
M  V30 7815 H 754.817 -1.9438 4.63924 0
M  V30 7816 H 754.517 -0.661233 5.83868 0
M  V30 7817 H 756.041 -1.59197 5.89482 0
M  V30 7818 H 757.455 0.670541 5.69365 0
M  V30 7819 H 755.852 1.4511 5.82291 0
M  V30 7820 H 756.922 1.87144 4.47331 0
M  V30 7821 N 758.265 -1.50454 0.469181 0
M  V30 7822 C 759.681 -1.59124 0.123226 0
M  V30 7823 C 759.881 -1.47749 -1.37013 0
M  V30 7824 O 758.937 -1.335 -2.14322 0
M  V30 7825 C 760.25 -2.93101 0.67172 0
M  V30 7826 C 761.798 -3.06491 0.634978 0
M  V30 7827 C 762.273 -4.43041 1.16098 0
M  V30 7828 N 763.764 -4.49448 1.12031 0
M  V30 7829 C 764.499 -5.53491 1.49784 0
M  V30 7830 N 763.995 -6.64798 1.94976 0
M  V30 7831 N 765.788 -5.44025 1.41399 0
M  V30 7832 H 757.939 -1.56091 1.44046 0
M  V30 7833 H 760.202 -0.737564 0.59557 0
M  V30 7834 H 759.908 -3.06895 1.7178 0
M  V30 7835 H 759.782 -3.77027 0.114222 0
M  V30 7836 H 762.169 -2.92346 -0.402187 0
M  V30 7837 H 762.25 -2.24328 1.22926 0
M  V30 7838 H 761.894 -4.57935 2.19677 0
M  V30 7839 H 761.824 -5.23794 0.542939 0
M  V30 7840 H 764.315 -3.69575 0.788828 0
M  V30 7841 H 764.628 -7.40246 2.21936 0
M  V30 7842 H 762.973 -6.65923 1.98927 0
M  V30 7843 H 766.164 -4.55955 1.05935 0
M  V30 7844 H 766.337 -6.2499 1.71147 0
M  V30 7845 N 759.743 -0.201713 -1.56304 0
M  V30 7846 C 760.968 0.443815 -2.02596 0
M  V30 7847 C 761.393 1.53945 -1.08086 0
M  V30 7848 O 760.751 1.81182 -0.0655056 0
M  V30 7849 C 760.799 0.971066 -3.47279 0
M  V30 7850 O 759.903 2.0836 -3.55893 0
M  V30 7851 H 759.244 0.10294 -0.655972 0
M  V30 7852 H 761.774 -0.314533 -2.02168 0
M  V30 7853 H 761.784 1.28598 -3.87204 0
M  V30 7854 H 760.459 0.169048 -4.15556 0
M  V30 7855 H 759.036 1.77683 -3.27846 0
M  V30 7856 N 761.222 1.57436 0.0718424 0
M  V30 7857 C 762.471 1.86431 0.769826 0
M  V30 7858 C 762.784 0.794355 1.78744 0
M  V30 7859 O 763.99 0.972148 2.53499 0
M  V30 7860 C 762.446 3.307 1.42006 0
M  V30 7861 C 762.054 4.45824 0.441017 0
M  V30 7862 C 763.798 3.68894 2.10041 0
M  V30 7863 C 761.705 5.81134 1.09717 0
M  V30 7864 H 760.635 0.695474 0.291259 0
M  V30 7865 H 763.286 1.83485 0.0231224 0
M  V30 7866 H 761.668 3.28257 2.21502 0
M  V30 7867 H 762.842 4.59659 -0.32413 0
M  V30 7868 H 761.157 4.16181 -0.134886 0
M  V30 7869 H 763.754 4.67281 2.59908 0
M  V30 7870 H 764.097 2.98692 2.89981 0
M  V30 7871 H 764.63 3.73326 1.37376 0
M  V30 7872 H 761.369 6.54628 0.338095 0
M  V30 7873 H 760.889 5.711 1.83317 0
M  V30 7874 H 762.568 6.26468 1.617 0
M  V30 7875 N 762.7 -0.34323 1.53817 0
M  V30 7876 C 764.116 -0.686355 1.44088 0
M  V30 7877 C 764.316 -1.92426 0.597882 0
M  V30 7878 O 763.372 -2.52343 0.0889918 0
M  V30 7879 C 764.685 -0.878698 2.87575 0
M  V30 7880 C 766.233 -0.977296 2.97352 0
M  V30 7881 C 766.708 -1.20195 4.41947 0
M  V30 7882 N 768.199 -1.26915 4.45474 0
M  V30 7883 C 768.934 -1.46049 5.54488 0
M  V30 7884 N 768.43 -1.62354 6.73508 0
M  V30 7885 N 770.223 -1.48599 5.42102 0
M  V30 7886 H 762.374 0.470679 2.07119 0
M  V30 7887 H 764.637 0.148652 0.936273 0
M  V30 7888 H 764.343 -0.040602 3.51677 0
M  V30 7889 H 764.217 -1.78034 3.32541 0
M  V30 7890 H 766.604 -1.80591 2.3339 0
M  V30 7891 H 766.685 -0.0525498 2.55746 0
M  V30 7892 H 766.329 -0.378262 5.06489 0
M  V30 7893 H 766.259 -2.14027 4.81145 0
M  V30 7894 H 768.75 -1.15837 3.59708 0
M  V30 7895 H 769.063 -1.76591 7.52353 0
M  V30 7896 H 767.408 -1.5949 6.76453 0
M  V30 7897 H 770.599 -1.35443 4.48077 0
M  V30 7898 H 770.772 -1.6317 6.2712 0
M  V30 7899 N 764.178 -1.45556 -0.604258 0
M  V30 7900 C 765.426 -1.4945 -1.36048 0
M  V30 7901 C 765.747 -0.138933 -1.94504 0
M  V30 7902 O 765.017 0.832097 -1.7735 0
M  V30 7903 H 763.597 -0.550381 -0.505064 0
M  V30 7904 H 766.259 -1.81535 -0.709308 0
M  V30 7905 H 765.355 -2.23519 -2.17821 0
M  V30 7906 N 765.656 0.84705 -1.32902 0
M  V30 7907 C 766.588 1.96308 -1.18304 0
M  V30 7908 C 767.601 1.62386 -0.116082 0
M  V30 7909 O 768.79 1.74713 -0.365751 0
M  V30 7910 C 765.89 3.29556 -0.790305 0
M  V30 7911 C 765.063 3.91668 -1.94717 0
M  V30 7912 C 764.122 5.0326 -1.53674 0
M  V30 7913 O 763.148 5.22847 -2.24989 0
M  V30 7914 N 764.35 5.78852 -0.437075 0
M  V30 7915 H 767.115 2.09369 -2.14441 0
M  V30 7916 H 764.676 1.02233 -1.25539 0
M  V30 7917 H 766.668 4.01624 -0.49799 0
M  V30 7918 H 765.238 3.12497 0.0801286 0
M  V30 7919 H 764.458 3.12292 -2.40557 0
M  V30 7920 H 765.746 4.299 -2.72146 0
M  V30 7921 H 765.144 5.65484 0.156316 0
M  V30 7922 H 763.701 6.51479 -0.204399 0
M  V30 7923 N 767.134 1.16236 1.06428 0
M  V30 7924 C 768.545 0.950942 1.60667 0
M  V30 7925 C 768.896 -0.505491 1.89576 0
M  V30 7926 O 768.021 -1.37843 1.66818 0
M  V30 7927 C 768.616 1.71982 2.91904 0
M  V30 7928 C 767.175 1.55342 3.4285 0
M  V30 7929 C 766.322 1.72942 2.16763 0
M  V30 7930 H 769.273 1.31126 0.893959 0
M  V30 7931 H 769.294 1.19483 3.61253 0
M  V30 7932 H 768.806 2.77978 2.70831 0
M  V30 7933 H 766.907 0.5178 3.68985 0
M  V30 7934 H 767.02 2.33643 4.18267 0
M  V30 7935 H 765.384 1.15673 2.26918 0
M  V30 7936 H 766.167 2.80324 1.98175 0
M  V30 7937 N 768.612 -1.24939 0.960631 0
M  V30 7938 C 769.86 -1.92437 0.617441 0
M  V30 7939 C 770.181 -1.75543 -0.849101 0
M  V30 7940 O 769.451 -1.12269 -1.60538 0
M  V30 7941 H 768.031 -0.712192 0.225371 0
M  V30 7942 H 770.693 -1.5198 1.22017 0
M  V30 7943 H 769.789 -3.00247 0.851933 0
M  V30 7944 N 770.09 -0.729906 -1.39679 0
M  V30 7945 C 771.501 -0.346241 -1.83461 0
M  V30 7946 C 771.852 1.1215 -1.60987 0
M  V30 7947 O 770.977 1.86456 -1.09832 0
M  V30 7948 C 771.572 -0.621656 -3.33048 0
M  V30 7949 C 770.131 -0.291543 -3.75269 0
M  V30 7950 C 769.278 -0.886844 -2.62736 0
M  V30 7951 H 772.229 -0.927949 -1.28743 0
M  V30 7952 H 772.25 0.108301 -3.80346 0
M  V30 7953 H 771.762 -1.68996 -3.49373 0
M  V30 7954 H 769.863 0.771133 -3.64533 0
M  V30 7955 H 769.976 -0.770544 -4.72863 0
M  V30 7956 H 768.34 -0.313839 -2.52759 0
M  V30 7957 H 769.123 -1.95971 -2.81869 0
M  V30 7958 N 771.568 1.50203 -0.477153 0
M  V30 7959 C 772.516 2.30278 0.327826 0
M  V30 7960 C 773.51 1.37831 0.984839 0
M  V30 7961 O 774.716 1.54994 0.915251 0
M  V30 7962 H 771.091 0.741612 0.124564 0
M  V30 7963 H 773.062 2.96124 -0.367853 0
M  V30 7964 C 771.811 3.18548 1.39365 0
M  V30 7965 H 771.134 3.89596 0.897475 0
M  V30 7966 H 772.574 3.77561 1.92934 0
M  V30 7967 C 771.033 2.36548 2.39889 0
M  V30 7968 O 771.563 2.05282 3.45286 0
M  V30 7969 N 769.769 1.99015 2.11758 0
M  V30 7970 H 769.316 2.24641 1.26071 0
M  V30 7971 H 769.274 1.44454 2.7925 0
M  V30 7972 N 773.046 0.209999 1.56195 0
M  V30 7973 C 773.996 -0.717978 2.164 0
M  V30 7974 C 774.98 -1.16577 1.10899 0
M  V30 7975 O 776.172 -1.12169 1.3692 0
M  V30 7976 C 773.301 -1.93091 2.8385 0
M  V30 7977 C 772.387 -1.50333 3.96561 0
M  V30 7978 N 772.778 -0.787621 4.9963 0
M  V30 7979 C 771.076 -1.79151 4.08437 0
M  V30 7980 C 771.777 -0.571204 5.78889 0
M  V30 7981 N 770.753 -1.12444 5.31843 0
M  V30 7982 H 774.555 -0.162603 2.9345 0
M  V30 7983 H 772.069 0.0107928 1.62396 0
M  V30 7984 H 774.066 -2.60635 3.25384 0
M  V30 7985 H 772.726 -2.49087 2.08293 0
M  V30 7986 H 773.737 -0.441513 5.16015 0
M  V30 7987 H 770.414 -2.36549 3.44022 0
M  V30 7988 H 771.804 -0.00237941 6.719 0
M  V30 7989 N 774.524 -1.57472 -0.0634922 0
M  V30 7990 C 775.434 -2.07621 -1.09227 0
M  V30 7991 C 776.45 -1.00746 -1.41867 0
M  V30 7992 O 777.626 -1.32269 -1.51878 0
M  V30 7993 C 774.691 -2.51707 -2.38421 0
M  V30 7994 C 773.752 -3.72917 -2.12676 0
M  V30 7995 C 772.985 -4.14891 -3.3571 0
M  V30 7996 O 773.208 -3.56663 -4.45137 0
M  V30 7997 O 772.142 -5.07616 -3.23434 0
M  V30 7998 H 775.968 -2.95612 -0.696205 0
M  V30 7999 H 773.553 -1.46787 -0.27819 0
M  V30 8000 H 775.435 -2.80547 -3.14438 0
M  V30 8001 H 774.11 -1.66842 -2.77391 0
M  V30 8002 H 773.017 -3.49148 -1.34337 0
M  V30 8003 H 774.35 -4.5866 -1.78583 0
M  V30 8004 N 776.003 0.335068 -1.53997 0
M  V30 8005 C 776.913 1.43511 -1.85585 0
M  V30 8006 C 777.929 1.57162 -0.746726 0
M  V30 8007 O 779.105 1.72477 -1.03988 0
M  V30 8008 C 776.17 2.78386 -2.06646 0
M  V30 8009 C 775.231 2.74007 -3.30483 0
M  V30 8010 C 774.464 4.02449 -3.50529 0
M  V30 8011 O 774.687 5.00147 -2.74242 0
M  V30 8012 O 773.621 4.06405 -4.4398 0
M  V30 8013 H 777.447 1.19731 -2.79102 0
M  V30 8014 H 775.032 0.528033 -1.39758 0
M  V30 8015 H 776.914 3.58247 -2.21894 0
M  V30 8016 H 775.589 3.0208 -1.16317 0
M  V30 8017 H 774.496 1.92736 -3.2063 0
M  V30 8018 H 775.829 2.55267 -4.20832 0
M  V30 8019 N 777.481 1.45874 0.596531 0
M  V30 8020 C 778.758 1.40942 1.35627 0
M  V30 8021 C 779.138 0.0857066 2.10926 0
M  V30 8022 O 778.486 -0.932544 2.08605 0
M  V30 8023 C 778.696 2.63027 2.29386 0
M  V30 8024 C 780.044 3.08588 2.91649 0
M  V30 8025 O 781.068 2.63478 2.39704 0
M  V30 8026 O 779.927 3.86902 3.85965 0
M  V30 8027 H 777.021 0.559838 0.608696 0
M  V30 8028 H 779.567 1.5802 0.618698 0
M  V30 8029 H 778.339 3.5094 1.7308 0
M  V30 8030 H 777.962 2.48338 3.10506 0
M  V30 8031 N 778.959 -0.83999 1.33349 0
M  V30 8032 C 779.922 -1.93128 1.23426 0
M  V30 8033 C 780.922 -1.60065 0.153599 0
M  V30 8034 O 782.112 -1.69425 0.405049 0
M  V30 8035 C 779.244 -3.28761 0.901622 0
M  V30 8036 H 780.437 -2.03352 2.20427 0
M  V30 8037 H 777.99 -1.03194 1.17391 0
M  V30 8038 H 778.725 -3.24233 -0.0659337 0
M  V30 8039 H 778.51 -3.54138 1.68311 0
M  V30 8040 H 780 -4.08714 0.856913 0
M  V30 8041 N 780.437 -1.16799 -1.0581 0
M  V30 8042 C 781.714 -0.862616 -1.75551 0
M  V30 8043 C 782.094 0.6385 -2.01212 0
M  V30 8044 O 781.442 1.58784 -1.64317 0
M  V30 8045 C 781.652 -1.6907 -3.05314 0
M  V30 8046 C 783 -1.90675 -3.79379 0
M  V30 8047 O 784.024 -1.65976 -3.15167 0
M  V30 8048 O 782.883 -2.32145 -4.94743 0
M  V30 8049 H 779.977 -0.318789 -0.763088 0
M  V30 8050 H 782.523 -1.27461 -1.12034 0
M  V30 8051 H 781.295 -2.70912 -2.82352 0
M  V30 8052 H 780.918 -1.27606 -3.76567 0
M  V30 8053 N 781.915 1.24427 -0.967243 0
M  V30 8054 C 783.14 1.9708 -0.646069 0
M  V30 8055 C 783.565 1.71272 0.777665 0
M  V30 8056 O 782.923 0.976179 1.52776 0
M  V30 8057 C 782.971 3.48501 -0.926266 0
M  V30 8058 O 782.075 4.12398 -0.0114653 0
M  V30 8059 H 781.416 0.617423 -0.244304 0
M  V30 8060 H 783.946 1.58215 -1.29727 0
M  V30 8061 H 783.956 3.98885 -0.857619 0
M  V30 8062 H 782.631 3.66613 -1.96386 0
M  V30 8063 H 781.208 3.72661 -0.133396 0
M  V30 8064 N 783.393 0.737304 1.3929 0
M  V30 8065 C 784.623 0.296143 2.04467 0
M  V30 8066 C 785.031 -1.0748 1.55707 0
M  V30 8067 O 784.374 -1.69082 0.718123 0
M  V30 8068 C 784.436 0.222161 3.58813 0
M  V30 8069 C 784.1 1.53195 4.30558 0
M  V30 8070 C 785.097 2.47809 4.57041 0
M  V30 8071 C 782.782 1.79688 4.6906 0
M  V30 8072 C 784.776 3.67147 5.21039 0
M  V30 8073 C 782.463 2.99304 5.32785 0
M  V30 8074 C 783.461 3.92855 5.58708 0
M  V30 8075 O 783.149 5.1037 6.2111 0
M  V30 8076 H 782.881 0.126896 0.663983 0
M  V30 8077 H 785.435 1.00242 1.79278 0
M  V30 8078 H 783.665 -0.540239 3.82908 0
M  V30 8079 H 785.354 -0.187311 4.05468 0
M  V30 8080 H 786.12 2.28611 4.2774 0
M  V30 8081 H 781.999 1.07716 4.48239 0
M  V30 8082 H 785.543 4.40183 5.41188 0
M  V30 8083 H 781.44 3.18401 5.61508 0
M  V30 8084 H 782.208 5.10735 6.39603 0
M  V30 8085 N 784.871 -1.49948 0.485112 0
M  V30 8086 C 785.781 -2.32587 -0.306697 0
M  V30 8087 C 786.797 -1.43598 -0.982632 0
M  V30 8088 O 787.973 -1.76638 -0.967519 0
M  V30 8089 C 785.038 -3.18638 -1.3664 0
M  V30 8090 C 784.099 -4.23462 -0.705589 0
M  V30 8091 C 783.332 -5.05401 -1.7148 0
M  V30 8092 O 783.555 -4.88618 -2.94293 0
M  V30 8093 O 782.489 -5.88157 -1.27889 0
M  V30 8094 H 786.315 -3.01447 0.369272 0
M  V30 8095 H 783.9 -1.47349 0.246709 0
M  V30 8096 H 785.782 -3.71992 -1.9799 0
M  V30 8097 H 784.457 -2.52491 -2.02559 0
M  V30 8098 H 783.364 -3.74063 -0.0527733 0
M  V30 8099 H 784.697 -4.92119 -0.0891187 0
M  V30 8100 N 786.349 -0.21828 -1.56081 0
M  V30 8101 C 787.297 0.709679 -2.21509 0
M  V30 8102 C 788.291 1.20221 -1.19346 0
M  V30 8103 O 789.497 1.16241 -1.37433 0
M  V30 8104 H 785.872 0.247271 -0.710184 0
M  V30 8105 H 787.843 0.134386 -2.98097 0
M  V30 8106 C 786.592 1.90853 -2.90638 0
M  V30 8107 H 785.915 1.53865 -3.69006 0
M  V30 8108 H 787.355 2.53568 -3.39822 0
M  V30 8109 C 785.814 2.76189 -1.92929 0
M  V30 8110 O 786.344 3.74842 -1.44416 0
M  V30 8111 N 784.55 2.42157 -1.6065 0
M  V30 8112 H 784.097 1.61987 -2.00294 0
M  V30 8113 H 784.055 2.99534 -0.955347 0
M  V30 8114 N 787.827 1.57504 0.0551401 0
M  V30 8115 C 788.76 2.00155 1.09604 0
M  V30 8116 C 789.738 0.881274 1.36647 0
M  V30 8117 O 790.922 1.14498 1.49742 0
M  V30 8118 C 788.049 2.35246 2.43674 0
M  V30 8119 C 787.095 3.57452 2.32659 0
M  V30 8120 S 787.928 5.07639 1.7048 0
M  V30 8121 C 789.084 5.45947 3.06093 0
M  V30 8122 H 789.317 2.88131 0.732635 0
M  V30 8123 H 786.85 1.52122 0.264252 0
M  V30 8124 H 788.808 2.56136 3.20787 0
M  V30 8125 H 787.469 1.47769 2.7717 0
M  V30 8126 H 786.662 3.79576 3.31569 0
M  V30 8127 H 786.264 3.36279 1.63685 0
M  V30 8128 H 788.556 5.45036 4.0242 0
M  V30 8129 H 789.499 6.4656 2.88732 0
M  V30 8130 H 789.907 4.73419 3.07466 0
M  V30 8131 N 789.305 -0.326896 1.54172 0
M  V30 8132 C 790.582 -1.08326 1.62864 0
M  V30 8133 C 790.962 -2.06018 0.46039 0
M  V30 8134 O 790.31 -2.21889 -0.545685 0
M  V30 8135 C 790.52 -1.78816 2.9971 0
M  V30 8136 C 791.868 -2.31958 3.55641 0
M  V30 8137 O 792.892 -1.88888 3.01993 0
M  V30 8138 O 791.751 -3.10801 4.49517 0
M  V30 8139 H 788.845 -0.499131 0.659392 0
M  V30 8140 H 791.391 -0.327054 1.66519 0
M  V30 8141 H 790.163 -1.07739 3.76176 0
M  V30 8142 H 789.786 -2.61255 2.99719 0
M  V30 8143 N 790.784 -1.46188 -0.588786 0
M  V30 8144 C 791.732 -1.56653 -1.71938 0
M  V30 8145 C 792.726 -0.435354 -1.6371 0
M  V30 8146 O 793.932 -0.611996 -1.69277 0
M  V30 8147 H 790.307 -0.492408 -0.568365 0
M  V30 8148 H 792.278 -2.51724 -1.60242 0
M  V30 8149 C 791.027 -1.56822 -3.10326 0
M  V30 8150 H 790.35 -2.43198 -3.17325 0
M  V30 8151 H 791.79 -1.68199 -3.89211 0
M  V30 8152 C 790.249 -0.295802 -3.35599 0
M  V30 8153 O 790.779 0.616515 -3.96941 0
M  V30 8154 N 788.985 -0.185609 -2.90007 0
M  V30 8155 H 788.532 -0.928914 -2.40269 0
M  V30 8156 H 788.49 0.664883 -3.07289 0
M  V30 8157 N 792.262 0.832906 -1.33792 0
M  V30 8158 C 793.673 1.40489 -1.22963 0
M  V30 8159 C 794.024 1.95633 0.149026 0
M  V30 8160 O 793.149 1.8928 1.04891 0
M  V30 8161 C 793.744 2.55387 -2.22627 0
M  V30 8162 C 792.303 3.08522 -2.15618 0
M  V30 8163 C 791.45 1.81347 -2.09782 0
M  V30 8164 H 794.401 0.638156 -1.45304 0
M  V30 8165 H 794.422 3.33193 -1.83746 0
M  V30 8166 H 793.934 2.15222 -3.22957 0
M  V30 8167 H 792.035 3.53217 -1.18611 0
M  V30 8168 H 792.148 3.6829 -3.0643 0
M  V30 8169 H 790.512 2.01839 -1.55349 0
M  V30 8170 H 791.295 1.43369 -3.1193 0
M  V30 8171 N 793.74 1.17359 1.05189 0
M  V30 8172 C 795.017 0.871914 1.75091 0
M  V30 8173 C 795.397 -0.627821 2.01548 0
M  V30 8174 O 794.745 -1.5791 1.65156 0
M  V30 8175 C 794.955 1.70687 3.04413 0
M  V30 8176 C 796.303 1.92684 3.78362 0
M  V30 8177 O 797.327 1.67645 3.14282 0
M  V30 8178 O 796.186 2.34765 4.93505 0
M  V30 8179 H 793.28 0.322831 0.761386 0
M  V30 8180 H 795.826 1.28054 1.11357 0
M  V30 8181 H 794.598 2.72405 2.80911 0
M  V30 8182 H 794.221 1.29602 3.75884 0
M  V30 8183 N 795.218 -1.23913 0.973828 0
M  V30 8184 C 796.466 -1.91771 0.637817 0
M  V30 8185 C 796.787 -1.76434 -0.830435 0
M  V30 8186 O 796.057 -1.13965 -1.59339 0
M  V30 8187 H 794.637 -0.709761 0.232912 0
M  V30 8188 H 797.299 -1.50677 1.23622 0
M  V30 8189 H 796.395 -2.99327 0.883731 0
M  V30 8190 N 796.696 -0.74468 -1.38897 0
M  V30 8191 C 798.107 -0.36568 -1.83084 0
M  V30 8192 C 798.458 1.10436 -1.62168 0
M  V30 8193 O 797.583 1.85281 -1.11804 0
M  V30 8194 C 798.178 -0.656946 -3.3237 0
M  V30 8195 C 796.737 -0.331329 -3.74939 0
M  V30 8196 C 795.884 -0.914661 -2.61781 0
M  V30 8197 H 798.835 -0.941551 -1.27752 0
M  V30 8198 H 798.856 0.0679546 -3.80439 0
M  V30 8199 H 798.368 -1.72693 -3.47561 0
M  V30 8200 H 796.469 0.732426 -3.6533 0
M  V30 8201 H 796.582 -0.820655 -4.72019 0
M  V30 8202 H 794.946 -0.34063 -2.52412 0
M  V30 8203 H 795.729 -1.98949 -2.79775 0
M  V30 8204 N 798.174 1.49689 -0.493057 0
M  V30 8205 C 799.451 1.9525 0.116907 0
M  V30 8206 C 799.831 1.43429 1.54892 0
M  V30 8207 O 799.179 0.644621 2.19219 0
M  V30 8208 C 799.389 3.4898 0.037705 0
M  V30 8209 C 800.737 4.24052 0.215621 0
M  V30 8210 O 801.761 3.5602 0.113266 0
M  V30 8211 O 800.62 5.44847 0.42477 0
M  V30 8212 H 797.714 0.820973 0.099662 0
M  V30 8213 H 800.26 1.60367 -0.555029 0
M  V30 8214 H 799.032 3.79309 -0.961251 0
M  V30 8215 H 798.655 3.9046 0.750137 0
M  V30 8216 N 799.652 0.226554 1.55963 0
M  V30 8217 C 801.063 -0.280381 1.84583 0
M  V30 8218 C 801.414 -1.59105 1.14804 0
M  V30 8219 O 800.539 -2.12297 0.419414 0
M  V30 8220 C 801.134 -0.515499 3.34855 0
M  V30 8221 C 799.693 -0.966733 3.63774 0
M  V30 8222 C 798.84 -0.0325753 2.77281 0
M  V30 8223 H 801.791 0.449626 1.52197 0
M  V30 8224 H 801.812 -1.36085 3.55332 0
M  V30 8225 H 801.324 0.438594 3.85614 0
M  V30 8226 H 799.425 -1.93401 3.18476 0
M  V30 8227 H 799.538 -0.837679 4.7172 0
M  V30 8228 H 797.902 -0.540279 2.48904 0
M  V30 8229 H 798.685 0.916524 3.30839 0
M  V30 8230 N 801.13 -1.57531 -0.0467866 0
M  V30 8231 C 802.093 -2.04379 -1.03738 0
M  V30 8232 C 803.093 -0.944881 -1.3011 0
M  V30 8233 O 804.283 -1.20904 -1.25411 0
M  V30 8234 C 801.415 -2.44572 -2.37482 0
M  V30 8235 H 802.608 -2.93142 -0.633063 0
M  V30 8236 H 800.161 -1.53526 -0.293177 0
M  V30 8237 H 800.896 -1.58911 -2.82697 0
M  V30 8238 H 800.681 -3.24785 -2.19675 0
M  V30 8239 H 802.171 -2.81307 -3.08636 0
M  V30 8240 N 802.608 0.318715 -1.54344 0
M  V30 8241 C 803.854 1.05383 -1.73971 0
M  V30 8242 C 804.209 1.85524 -0.509781 0
M  V30 8243 O 803.502 1.8502 0.49782 0
M  V30 8244 C 803.696 2.00514 -2.95853 0
M  V30 8245 C 803.525 1.29728 -4.30582 0
M  V30 8246 C 802.295 1.03177 -4.94654 0
M  V30 8247 C 804.493 0.710718 -5.09366 0
M  V30 8248 N 802.475 0.29232 -6.13204 0
M  V30 8249 C 803.846 0.103132 -6.19914 0
M  V30 8250 C 805.901 0.614011 -4.94099 0
M  V30 8251 C 804.604 -0.591782 -7.16862 0
M  V30 8252 C 806.63 -0.0672115 -5.91362 0
M  V30 8253 C 805.992 -0.663721 -7.01266 0
M  V30 8254 H 802.091 0.369157 -0.689382 0
M  V30 8255 H 804.675 0.334453 -1.91806 0
M  V30 8256 H 802.846 2.69719 -2.79475 0
M  V30 8257 H 804.578 2.67046 -3.04086 0
M  V30 8258 H 801.333 1.32536 -4.54677 0
M  V30 8259 H 801.757 -0.0634005 -6.7697 0
M  V30 8260 H 806.399 1.06091 -4.09273 0
M  V30 8261 H 804.117 -1.0505 -8.01243 0
M  V30 8262 H 807.703 -0.141742 -5.81627 0
M  V30 8263 H 806.583 -1.18248 -7.75234 0
M  V30 8264 N 804.086 1.46499 0.581025 0
M  V30 8265 C 805.334 1.51596 1.33653 0
M  V30 8266 C 805.655 0.169859 1.94259 0
M  V30 8267 O 804.925 -0.803776 1.78651 0
M  V30 8268 H 803.505 0.558346 0.496244 0
M  V30 8269 H 806.167 1.8264 0.680338 0
M  V30 8270 H 805.263 2.26956 2.14237 0
M  V30 8271 N 805.565 -0.825799 1.34232 0
M  V30 8272 C 806.813 -1.57873 1.26177 0
M  V30 8273 C 807.134 -1.94267 -0.168904 0
M  V30 8274 O 806.404 -1.62045 -1.10084 0
M  V30 8275 H 804.984 -0.585388 0.464037 0
M  V30 8276 H 807.646 -0.986163 1.6811 0
M  V30 8277 H 806.742 -2.50283 1.86453 0
M  V30 8278 N 807.043 -1.17915 -1.04565 0
M  V30 8279 C 808.291 -0.969505 -1.77327 0
M  V30 8280 C 808.612 0.502569 -1.88412 0
M  V30 8281 O 807.882 1.36467 -1.40547 0
M  V30 8282 H 806.462 -0.355723 -0.656864 0
M  V30 8283 H 809.124 -1.48506 -1.26223 0
M  V30 8284 H 808.22 -1.40324 -2.78775 0
M  V30 8285 N 808.521 1.23394 -0.980386 0
M  V30 8286 C 809.769 1.91431 -0.647978 0
M  V30 8287 C 810.09 1.76871 0.821066 0
M  V30 8288 O 809.36 1.14808 1.58732 0
M  V30 8289 H 807.94 0.708516 -0.236673 0
M  V30 8290 H 810.602 1.50019 -1.2442 0
M  V30 8291 H 809.698 2.98854 -0.899592 0
M  V30 8292 N 809.999 0.752036 1.385 0
M  V30 8293 C 811.415 0.42946 1.53713 0
M  V30 8294 C 811.615 -1.0576 1.71514 0
M  V30 8295 O 810.671 -1.84366 1.72527 0
M  V30 8296 C 811.984 1.22735 2.74511 0
M  V30 8297 C 813.532 1.21727 2.8836 0
M  V30 8298 C 814.007 1.99809 4.12117 0
M  V30 8299 N 815.498 1.97062 4.19191 0
M  V30 8300 C 816.233 2.54274 5.13938 0
M  V30 8301 N 815.729 3.20193 6.14368 0
M  V30 8302 N 817.522 2.44212 5.06277 0
M  V30 8303 H 809.673 1.71581 1.25195 0
M  V30 8304 H 811.936 0.727293 0.60807 0
M  V30 8305 H 811.642 2.28032 2.67758 0
M  V30 8306 H 811.516 0.843186 3.67655 0
M  V30 8307 H 813.903 0.172367 2.94596 0
M  V30 8308 H 813.984 1.64094 1.96232 0
M  V30 8309 H 813.628 3.0431 4.06642 0
M  V30 8310 H 813.558 1.54837 5.03322 0
M  V30 8311 H 816.049 1.49054 3.47263 0
M  V30 8312 H 816.362 3.61272 6.83156 0
M  V30 8313 H 814.707 3.24287 6.14705 0
M  V30 8314 H 817.898 1.92343 4.26757 0
M  V30 8315 H 818.071 2.89096 5.79937 0
M  V30 8316 N 811.477 -1.49425 0.500989 0
M  V30 8317 C 812.41 -2.25887 -0.324087 0
M  V30 8318 C 813.388 -1.30469 -0.970388 0
M  V30 8319 O 814.572 -1.59758 -1.00049 0
M  V30 8320 C 811.699 -3.05787 -1.45643 0
M  V30 8321 C 810.745 -4.16359 -0.924508 0
M  V30 8322 S 811.578 -5.35181 0.184707 0
M  V30 8323 C 812.734 -6.18636 -0.950806 0
M  V30 8324 H 812.967 -2.95519 0.324891 0
M  V30 8325 H 810.5 -1.51723 0.286289 0
M  V30 8326 H 812.458 -3.52405 -2.10525 0
M  V30 8327 H 811.119 -2.35624 -2.07703 0
M  V30 8328 H 810.312 -4.71781 -1.77311 0
M  V30 8329 H 809.914 -3.72331 -0.352907 0
M  V30 8330 H 812.206 -6.51581 -1.85603 0
M  V30 8331 H 813.149 -7.06761 -0.435212 0
M  V30 8332 H 813.557 -5.512 -1.21813 0
M  V30 8333 N 812.955 -0.234822 -1.55841 0
M  V30 8334 C 814.203 0.392483 -1.98252 0
M  V30 8335 C 814.524 1.59344 -1.12404 0
M  V30 8336 O 813.794 1.94834 -0.204055 0
M  V30 8337 H 812.374 0.147999 -0.732192 0
M  V30 8338 H 815.036 -0.330804 -1.92072 0
M  V30 8339 H 814.132 0.709829 -3.03921 0
M  V30 8340 N 814.433 1.57553 0.0384317 0
M  V30 8341 C 815.661 1.93093 0.743141 0
M  V30 8342 C 816.076 0.833787 1.69391 0
M  V30 8343 O 815.433 -0.190532 1.81503 0
M  V30 8344 C 815.484 3.28533 1.50826 0
M  V30 8345 O 815.205 4.34032 0.595665 0
M  V30 8346 C 816.706 3.78297 2.31098 0
M  V30 8347 H 813.926 0.637486 0.20941 0
M  V30 8348 H 816.47 2.045 -0.00125154 0
M  V30 8349 H 814.625 3.18552 2.20462 0
M  V30 8350 H 815.039 5.12155 1.13124 0
M  V30 8351 H 816.513 4.75602 2.80191 0
M  V30 8352 H 816.99 3.09008 3.12107 0
M  V30 8353 H 817.596 3.91331 1.66555 0
M  V30 8354 N 815.911 -0.310526 1.54511 0
M  V30 8355 C 817.157 -1.04459 1.74528 0
M  V30 8356 C 817.512 -1.85251 0.519613 0
M  V30 8357 O 816.805 -1.85281 -0.488001 0
M  V30 8358 C 816.999 -1.98942 2.96912 0
M  V30 8359 C 816.828 -1.27442 4.31264 0
M  V30 8360 C 815.598 -1.00552 4.95194 0
M  V30 8361 C 817.796 -0.683695 5.09735 0
M  V30 8362 N 815.778 -0.259797 6.1335 0
M  V30 8363 C 817.149 -0.0702549 6.1996 0
M  V30 8364 C 819.204 -0.587799 4.94418 0
M  V30 8365 C 817.907 0.629791 7.16538 0
M  V30 8366 C 819.933 0.0985719 5.91318 0
M  V30 8367 C 819.295 0.700902 7.00904 0
M  V30 8368 H 815.394 -0.365496 0.69133 0
M  V30 8369 H 817.978 -0.324277 1.91981 0
M  V30 8370 H 816.149 -2.68233 2.80902 0
M  V30 8371 H 817.881 -2.6543 3.05498 0
M  V30 8372 H 814.636 -1.30123 4.55374 0
M  V30 8373 H 815.06 0.099301 6.76927 0
M  V30 8374 H 819.702 -1.03919 4.0983 0
M  V30 8375 H 817.42 1.09298 8.00674 0
M  V30 8376 H 821.006 0.172585 5.81544 0
M  V30 8377 H 819.886 1.22357 7.74596 0
M  V30 8378 N 817.389 -1.46805 -0.573248 0
M  V30 8379 C 818.614 -1.56433 -1.36175 0
M  V30 8380 C 819.039 -0.209336 -1.86932 0
M  V30 8381 O 818.397 0.812146 -1.62092 0
M  V30 8382 C 818.445 -2.58055 -2.51873 0
M  V30 8383 O 817.549 -2.12214 -3.53609 0
M  V30 8384 H 816.89 -0.526068 -0.405153 0
M  V30 8385 H 819.42 -1.92456 -0.694405 0
M  V30 8386 H 819.43 -2.77966 -2.98662 0
M  V30 8387 H 818.105 -3.56448 -2.14284 0
M  V30 8388 H 816.682 -2.02333 -3.13234 0
M  V30 8389 N 818.867 0.818669 -1.34668 0
M  V30 8390 C 820.095 1.60674 -1.30351 0
M  V30 8391 C 820.51 1.88408 0.121546 0
M  V30 8392 O 819.867 1.47849 1.06991 0
M  V30 8393 C 819.918 2.94516 -2.09625 0
M  V30 8394 O 819.639 2.6799 -3.46573 0
M  V30 8395 C 821.14 3.8891 -2.12754 0
M  V30 8396 H 818.36 0.499306 -0.448258 0
M  V30 8397 H 820.904 1.01828 -1.77345 0
M  V30 8398 H 819.059 3.49908 -1.66262 0
M  V30 8399 H 819.473 3.53361 -3.87603 0
M  V30 8400 H 820.947 4.79972 -2.72637 0
M  V30 8401 H 821.424 4.24599 -1.12306 0
M  V30 8402 H 822.03 3.39453 -2.56225 0
M  V30 8403 N 820.346 1.18468 1.03938 0
M  V30 8404 C 821.762 0.934635 1.29371 0
M  V30 8405 C 821.962 -0.399067 1.97509 0
M  V30 8406 O 821.018 -1.13309 2.25648 0
M  V30 8407 C 822.331 2.10111 2.15114 0
M  V30 8408 C 823.879 2.13955 2.28456 0
M  V30 8409 C 824.354 3.30024 3.17566 0
M  V30 8410 N 825.845 3.29893 3.25153 0
M  V30 8411 C 826.58 4.16346 3.94263 0
M  V30 8412 N 826.076 5.12934 4.65693 0
M  V30 8413 N 827.869 4.04256 3.90556 0
M  V30 8414 H 820.02 2.04294 0.581185 0
M  V30 8415 H 822.283 0.892727 0.318971 0
M  V30 8416 H 821.989 3.06572 1.72355 0
M  V30 8417 H 821.863 2.06283 3.15796 0
M  V30 8418 H 824.25 1.18072 2.7045 0
M  V30 8419 H 824.331 2.2184 1.2736 0
M  V30 8420 H 823.975 4.26181 2.76283 0
M  V30 8421 H 823.905 3.19376 4.18697 0
M  V30 8422 H 826.396 2.59969 2.74271 0
M  V30 8423 H 826.709 5.75271 5.16026 0
M  V30 8424 H 825.054 5.16893 4.64593 0
M  V30 8425 H 828.245 3.28083 3.33885 0
M  V30 8426 H 828.418 4.71848 4.44144 0
M  V30 8427 O 821.863 -1.1679 1.11545 0
M  V30 8428 H 822.554 -1.7538 0.822292 0
M  V30 END ATOM
M  V30 BEGIN BOND
M  V30 END BOND
M  V30 END CTAB
M  END
$$$$
