drugbank_target|Q15910 Histone-lysine N-methyltransferase EZH2 (DB12887; DB14581)
 OpenBabel12092121193D

  0  0  0     0  0            999 V3000
M  V30 BEGIN CTAB
M  V30 COUNTS 11785 11914 0 0 0
M  V30 BEGIN ATOM
M  V30 1 H -0.908 1.98254 -0.117106 0
M  V30 2 N 0 1.576 0 0
M  V30 3 C 0.933 2.03868 1.02534 0
M  V30 4 C 1.911 0.928543 1.3348 0
M  V30 5 O 3.095 1.19667 1.45644 0
M  V30 6 C 0.222 2.43627 2.35294 0
M  V30 7 C -0.732 3.65373 2.2001 0
M  V30 8 S 0.101 5.13292 1.52614 0
M  V30 9 C 1.257 5.56322 2.86805 0
M  V30 10 H 1.49 2.90518 0.631377 0
M  V30 11 H -0.977 1.52953 0.210867 0
M  V30 12 H 0.981 2.67203 3.11629 0
M  V30 13 H -0.358 1.57376 2.7183 0
M  V30 14 H -1.165 3.90944 3.18086 0
M  V30 15 H -1.563 3.418 1.51819 0
M  V30 16 H 0.729 5.58782 3.83104 0
M  V30 17 H 1.672 6.56266 2.65933 0
M  V30 18 H 2.08 4.83886 2.90714 0
M  V30 19 N 1.4781 -0.272755 1.55222 0
M  V30 20 C 2.7261 -1.00234 1.75492 0
M  V30 21 C 3.0471 -1.8681 0.5592 0
M  V30 22 O 2.3171 -1.91215 -0.425882 0
M  V30 23 H 0.8971 -0.373076 0.647166 0
M  V30 24 H 3.5591 -0.296926 1.92625 0
M  V30 25 H 2.6551 -1.63913 2.65592 0
M  V30 26 N 2.9562 -1.48159 -0.537278 0
M  V30 27 C 3.8882 -1.58218 -1.65831 0
M  V30 28 C 4.9012 -0.466948 -1.5596 0
M  V30 29 O 6.0902 -0.73747 -1.62553 0
M  V30 30 C 3.1902 -1.48906 -3.04434 0
M  V30 31 C 2.3632 -2.75343 -3.3986 0
M  V30 32 C 1.4222 -2.59588 -4.57712 0
M  V30 33 O 0.4482 -3.33457 -4.61297 0
M  V30 34 N 1.6502 -1.68724 -5.55439 0
M  V30 35 H 4.4152 -2.54891 -1.57641 0
M  V30 36 H 1.9762 -1.4479 -0.724386 0
M  V30 37 H 3.9682 -1.36072 -3.81139 0
M  V30 38 H 2.5382 -0.602368 -3.06741 0
M  V30 39 H 1.7582 -3.02795 -2.52406 0
M  V30 40 H 3.0462 -3.5924 -3.60311 0
M  V30 41 H 2.4442 -1.07898 -5.55315 0
M  V30 42 H 1.0012 -1.61832 -6.3139 0
M  V30 43 N 4.4343 0.785586 -1.36625 0
M  V30 44 C 5.6623 1.57448 -1.3423 0
M  V30 45 C 6.0773 1.88649 0.0755653 0
M  V30 46 O 5.4343 1.50414 1.03354 0
M  V30 47 C 5.4853 2.89316 -2.16745 0
M  V30 48 O 5.2063 2.59459 -3.53005 0
M  V30 49 C 6.7073 3.83606 -2.22174 0
M  V30 50 H 3.9273 0.488226 -0.4603 0
M  V30 51 H 6.4713 0.974733 -1.79775 0
M  V30 52 H 4.6263 3.4575 -1.74745 0
M  V30 53 H 5.0403 3.43804 -3.96105 0
M  V30 54 H 6.5143 4.73181 -2.8426 0
M  V30 55 H 6.9913 4.21734 -1.22627 0
M  V30 56 H 7.5973 3.33104 -2.64427 0
M  V30 57 N 5.9124 1.20967 1.01018 0
M  V30 58 C 7.1604 1.02172 1.74371 0
M  V30 59 C 7.4814 -0.446414 1.89821 0
M  V30 60 O 6.7514 -1.32234 1.44537 0
M  V30 61 H 5.3314 0.375066 0.646014 0
M  V30 62 H 7.9934 1.52187 1.21758 0
M  V30 63 H 7.0894 1.48538 2.74487 0
M  V30 64 N 7.3905 -1.2043 1.01659 0
M  V30 65 C 8.3375 -2.23215 0.586822 0
M  V30 66 C 9.3075 -1.61382 -0.393085 0
M  V30 67 O 10.4925 -1.88544 -0.292525 0
M  V30 68 C 7.6325 -3.45032 -0.0687464 0
M  V30 69 C 6.7455 -4.21296 0.955724 0
M  V30 70 C 5.8805 -5.30507 0.271208 0
M  V30 71 C 4.9195 -5.98515 1.28244 0
M  V30 72 N 4.0565 -6.99316 0.62459 0
M  V30 73 H 8.8965 -2.59336 1.46796 0
M  V30 74 H 6.4335 -1.27431 0.734836 0
M  V30 75 H 8.3915 -4.1459 -0.465965 0
M  V30 76 H 7.0215 -3.09604 -0.913529 0
M  V30 77 H 6.0735 -3.50803 1.4711 0
M  V30 78 H 7.3855 -4.6803 1.72479 0
M  V30 79 H 6.5395 -6.06428 -0.18151 0
M  V30 80 H 5.2785 -4.8481 -0.530163 0
M  V30 81 H 4.2835 -5.21355 1.74554 0
M  V30 82 H 5.5085 -6.46298 2.08509 0
M  V30 83 H 3.4545 -6.55812 -0.156914 0
M  V30 84 H 3.3715 -7.44178 1.33172 0
M  V30 85 H 4.6395 -7.79255 0.195462 0
M  V30 86 N 8.8686 -0.792821 -1.36206 0
M  V30 87 C 9.8156 -0.191653 -2.30003 0
M  V30 88 C 10.7856 0.666453 -1.52143 0
M  V30 89 O 11.9706 0.61442 -1.80636 0
M  V30 90 C 9.1106 0.664848 -3.38635 0
M  V30 91 C 8.2236 -0.212175 -4.31479 0
M  V30 92 C 7.3586 0.651022 -5.27196 0
M  V30 93 C 6.3976 -0.227247 -6.11678 0
M  V30 94 N 5.5346 0.595127 -6.99573 0
M  V30 95 H 10.3746 -0.996978 -2.80828 0
M  V30 96 H 7.9116 -0.503206 -1.38225 0
M  V30 97 H 9.8696 1.17645 -4.00269 0
M  V30 98 H 8.4996 1.43557 -2.89122 0
M  V30 99 H 7.5516 -0.841777 -3.70969 0
M  V30 100 H 8.8636 -0.888751 -4.90818 0
M  V30 101 H 8.0176 1.2283 -5.94136 0
M  V30 102 H 6.7566 1.36121 -4.68319 0
M  V30 103 H 5.7616 -0.816904 -5.43697 0
M  V30 104 H 6.9866 -0.93509 -6.72631 0
M  V30 105 H 4.9326 1.28955 -6.432 0
M  V30 106 H 4.8496 -0.0236952 -7.55996 0
M  V30 107 H 6.1176 1.15613 -7.70879 0
M  V30 108 N 10.3467 1.47872 -0.545128 0
M  V30 109 C 11.5717 2.07391 -0.0190611 0
M  V30 110 C 11.9967 1.39688 1.25971 0
M  V30 111 O 11.3547 0.467816 1.7516 0
M  V30 112 C 11.4027 3.60188 0.172335 0
M  V30 113 O 10.5067 3.9339 1.23766 0
M  V30 114 H 9.8477 0.662411 -0.0459059 0
M  V30 115 H 12.3777 1.90066 -0.757365 0
M  V30 116 H 12.3877 4.06129 0.390305 0
M  V30 117 H 11.0627 4.08865 -0.761725 0
M  V30 118 H 9.6397 3.5921 1.00114 0
M  V30 119 N 11.8248 0.280983 1.55075 0
M  V30 120 C 12.7348 -0.61388 2.26426 0
M  V30 121 C 13.7508 -1.16521 1.29224 0
M  V30 122 O 14.9268 -1.19426 1.62171 0
M  V30 123 C 11.9918 -1.7788 2.9759 0
M  V30 124 C 11.0528 -1.26355 4.10284 0
M  V30 125 C 10.2858 -2.37295 4.78045 0
M  V30 126 O 10.5088 -3.56777 4.45047 0
M  V30 127 O 9.4428 -2.05119 5.65871 0
M  V30 128 H 13.2688 -0.0356932 3.03679 0
M  V30 129 H 10.8538 0.0481686 1.49322 0
M  V30 130 H 12.7358 -2.45791 3.42293 0
M  V30 131 H 11.4108 -2.34397 2.23249 0
M  V30 132 H 10.3178 -0.550735 3.70024 0
M  V30 133 H 11.6508 -0.744065 4.86543 0
M  V30 134 N 13.3029 -1.57598 0.00835791 0
M  V30 135 C 14.2499 -2.08945 -0.980346 0
M  V30 136 C 15.2199 -0.986738 -1.33614 0
M  V30 137 O 16.4049 -1.25968 -1.43306 0
M  V30 138 C 13.5449 -2.60425 -2.26435 0
M  V30 139 C 12.6579 -3.84628 -1.96685 0
M  V30 140 C 11.7929 -4.24579 -3.19228 0
M  V30 141 C 10.8319 -5.41596 -2.85202 0
M  V30 142 N 9.9689 -5.768 -4.00307 0
M  V30 143 H 14.8089 -2.93148 -0.535551 0
M  V30 144 H 12.3459 -1.44912 -0.252776 0
M  V30 145 H 14.3039 -2.88354 -3.01509 0
M  V30 146 H 12.9339 -1.79083 -2.68568 0
M  V30 147 H 11.9859 -3.63556 -1.11942 0
M  V30 148 H 13.2979 -4.69796 -1.67611 0
M  V30 149 H 12.4519 -4.53834 -4.02641 0
M  V30 150 H 11.1909 -3.38137 -3.51447 0
M  V30 151 H 10.1959 -5.12056 -2.00198 0
M  V30 152 H 11.4209 -6.29721 -2.54222 0
M  V30 153 H 9.3669 -4.93316 -4.32407 0
M  V30 154 H 9.2839 -6.5656 -3.74786 0
M  V30 155 H 10.5519 -6.10652 -4.84484 0
M  V30 156 N 14.781 0.264519 -1.55364 0
M  V30 157 C 16.029 0.993021 -1.76021 0
M  V30 158 C 16.35 1.86511 -0.569099 0
M  V30 159 O 15.62 1.91438 0.415735 0
M  V30 160 H 14.2 0.369639 -0.649135 0
M  V30 161 H 16.862 0.286707 -1.9278 0
M  V30 162 H 15.958 1.62502 -2.66457 0
M  V30 163 N 16.2591 1.48442 0.529413 0
M  V30 164 C 17.6701 1.5002 1.11134 0
M  V30 165 C 18.0211 0.27031 1.94329 0
M  V30 166 O 17.1461 -0.622507 2.07253 0
M  V30 167 C 17.7411 2.71834 2.02217 0
M  V30 168 C 16.3001 2.76283 2.55627 0
M  V30 169 C 15.4471 2.43542 1.326 0
M  V30 170 H 18.3981 1.5555 0.314641 0
M  V30 171 H 18.4191 2.50384 2.8651 0
M  V30 172 H 17.9311 3.61331 1.41639 0
M  V30 173 H 16.0321 1.90995 3.19924 0
M  V30 174 H 16.1451 3.77725 2.94721 0
M  V30 175 H 14.5091 1.94709 1.64196 0
M  V30 176 H 15.2921 3.3528 0.737734 0
M  V30 177 N 17.7372 -0.778329 1.37039 0
M  V30 178 C 18.9832 -1.53892 1.32079 0
M  V30 179 C 19.3162 -1.9396 -0.0965386 0
M  V30 180 O 18.5912 -1.63568 -1.05242 0
M  V30 181 C 18.8742 -2.80847 2.25382 0
M  V30 182 C 18.7272 -2.47076 3.75864 0
M  V30 183 C 20.0462 -3.82741 2.1725 0
M  V30 184 H 17.1652 -0.558303 0.48111 0
M  V30 185 H 19.8072 -0.893397 1.67685 0
M  V30 186 H 17.9572 -3.35931 1.95148 0
M  V30 187 H 19.6292 -1.97957 4.16666 0
M  V30 188 H 17.8722 -1.79863 3.94755 0
M  V30 189 H 18.5432 -3.37798 4.36574 0
M  V30 190 H 21.0192 -3.37133 2.43887 0
M  V30 191 H 19.8952 -4.69303 2.84686 0
M  V30 192 H 20.1562 -4.2652 1.16331 0
M  V30 193 N 19.2153 -1.21501 -1.00376 0
M  V30 194 C 20.4553 -1.04444 -1.75701 0
M  V30 195 C 20.8193 0.414644 -1.87469 0
M  V30 196 O 22.0203 0.705763 -2.59369 0
M  V30 197 C 20.2913 -1.72389 -3.13077 0
M  V30 198 S 21.8503 -1.70604 -4.04277 0
M  V30 199 H 18.6683 -0.374249 -0.604532 0
M  V30 200 H 21.2703 -1.54267 -1.20091 0
M  V30 201 H 19.9743 -2.77734 -3.02146 0
M  V30 202 H 19.5053 -1.22751 -3.73759 0
M  V30 203 H 21.5203 -0.748012 -4.9053 0
M  V30 204 N 20.6934 1.19889 -1.02296 0
M  V30 205 C 21.9394 1.89973 -0.726759 0
M  V30 206 C 22.2944 1.7776 0.73614 0
M  V30 207 O 21.5874 1.15523 1.52856 0
M  V30 208 C 21.7814 3.39883 -1.10518 0
M  V30 209 C 21.6104 3.66684 -2.60332 0
M  V30 210 C 20.3804 3.85045 -3.27213 0
M  V30 211 C 22.5784 3.68727 -3.58532 0
M  V30 212 N 20.5604 3.99422 -4.66192 0
M  V30 213 C 21.9314 3.88604 -4.83101 0
M  V30 214 C 23.9864 3.51722 -3.52414 0
M  V30 215 C 22.6894 3.9324 -6.02292 0
M  V30 216 C 24.7154 3.57632 -4.71013 0
M  V30 217 C 24.0774 3.77988 -5.94394 0
M  V30 218 H 20.1764 0.714551 -0.317712 0
M  V30 219 H 22.7604 1.44123 -1.30907 0
M  V30 220 H 20.9314 3.8447 -0.551142 0
M  V30 221 H 22.6634 3.97464 -0.761853 0
M  V30 222 H 19.4184 3.83689 -2.77632 0
M  V30 223 H 19.8424 4.10473 -5.38368 0
M  V30 224 H 24.4844 3.34945 -2.58015 0
M  V30 225 H 22.2024 4.08811 -6.97065 0
M  V30 226 H 25.7884 3.45773 -4.67902 0
M  V30 227 H 24.6684 3.82428 -6.8463 0
M  V30 228 N 22.1715 0.800033 1.35784 0
M  V30 229 C 23.5875 0.482977 1.52117 0
M  V30 230 C 23.7875 -0.996948 1.75109 0
M  V30 231 O 22.8435 -1.78216 1.78872 0
M  V30 232 C 24.1565 1.32264 2.70049 0
M  V30 233 C 25.7045 1.31742 2.83924 0
M  V30 234 C 26.1795 2.14106 4.04874 0
M  V30 235 N 27.6705 2.11607 4.12039 0
M  V30 236 C 28.4055 2.72099 5.04727 0
M  V30 237 N 27.9015 3.41492 6.02789 0
M  V30 238 N 29.6945 2.61776 4.97423 0
M  V30 239 H 21.8455 1.75856 1.19115 0
M  V30 240 H 24.1085 0.748122 0.582252 0
M  V30 241 H 23.8145 2.37261 2.59616 0
M  V30 242 H 23.6885 0.971303 3.6448 0
M  V30 243 H 26.0755 0.275333 2.93813 0
M  V30 244 H 26.1565 1.70859 1.9037 0
M  V30 245 H 25.8005 3.18351 3.95746 0
M  V30 246 H 25.7305 1.72353 4.97596 0
M  V30 247 H 28.2215 1.61112 3.41835 0
M  V30 248 H 28.5345 3.84953 6.70098 0
M  V30 249 H 26.8795 3.45596 6.02983 0
M  V30 250 H 30.0705 2.07157 4.19766 0
M  V30 251 H 30.2435 3.0921 5.69468 0
M  V30 252 N 23.6496 -1.47581 0.552962 0
M  V30 253 C 24.5966 -2.29957 -0.197108 0
M  V30 254 C 25.5666 -1.38799 -0.912359 0
M  V30 255 O 26.7516 -1.67761 -0.908888 0
M  V30 256 C 23.8916 -3.22672 -1.22379 0
M  V30 257 C 23.0046 -4.28919 -0.515038 0
M  V30 258 C 22.1396 -5.0879 -1.52664 0
M  V30 259 C 21.1786 -6.06815 -0.802631 0
M  V30 260 N 20.3156 -6.7966 -1.76086 0
M  V30 261 H 25.1556 -2.93578 0.511486 0
M  V30 262 H 22.6926 -1.4471 0.264067 0
M  V30 263 H 24.6506 -3.74845 -1.83159 0
M  V30 264 H 23.2806 -2.60925 -1.90047 0
M  V30 265 H 22.3326 -3.79835 0.207192 0
M  V30 266 H 23.6446 -4.98773 0.0523425 0
M  V30 267 H 22.7986 -5.65091 -2.20809 0
M  V30 268 H 21.5376 -4.38828 -2.12794 0
M  V30 269 H 20.5426 -5.49695 -0.107238 0
M  V30 270 H 21.7676 -6.78784 -0.207135 0
M  V30 271 H 19.7136 -6.12432 -2.35081 0
M  V30 272 H 19.6306 -7.45669 -1.24552 0
M  V30 273 H 20.8986 -7.40538 -2.43359 0
M  V30 274 N 25.1277 -0.289203 -1.54924 0
M  V30 275 C 26.5437 0.0645403 -1.59469 0
M  V30 276 C 26.7437 1.53419 -1.30632 0
M  V30 277 O 25.7997 2.2852 -1.074 0
M  V30 278 C 27.1127 -0.32278 -2.98963 0
M  V30 279 C 28.6607 -0.270564 -3.11828 0
M  V30 280 C 29.1357 -0.632532 -4.53611 0
M  V30 281 N 30.6267 -0.584617 -4.59496 0
M  V30 282 C 31.3617 -0.837314 -5.67254 0
M  V30 283 N 30.8577 -1.15536 -6.83098 0
M  V30 284 N 32.6507 -0.765166 -5.56868 0
M  V30 285 H 24.8017 -1.24714 -1.71931 0
M  V30 286 H 27.0647 -0.504809 -0.802416 0
M  V30 287 H 26.7707 -1.34541 -3.24948 0
M  V30 288 H 26.6447 0.32944 -3.75759 0
M  V30 289 H 29.0317 0.742805 -2.85598 0
M  V30 290 H 29.1127 -0.957242 -2.37214 0
M  V30 291 H 28.7567 -1.64365 -4.80569 0
M  V30 292 H 28.6867 0.07609 -5.26545 0
M  V30 293 H 31.1777 -0.349248 -3.76283 0
M  V30 294 H 31.4907 -1.33447 -7.61191 0
M  V30 295 H 29.8357 -1.19328 -6.84679 0
M  V30 296 H 33.0267 -0.516432 -4.65243 0
M  V30 297 H 33.1997 -0.965477 -6.40767 0
M  V30 298 N 26.6058 1.57591 -0.0167156 0
M  V30 299 C 27.8518 1.91567 0.665582 0
M  V30 300 C 28.1848 0.892298 1.72487 0
M  V30 301 O 27.4598 -0.0867127 1.94307 0
M  V30 302 C 27.7428 3.36069 1.29342 0
M  V30 303 C 27.5958 4.49135 0.244541 0
M  V30 304 C 28.9148 3.803 2.21495 0
M  V30 305 H 26.0338 0.69666 0.240488 0
M  V30 306 H 28.6758 1.89866 -0.0714356 0
M  V30 307 H 26.8258 3.3765 1.92158 0
M  V30 308 H 28.4978 4.59689 -0.385228 0
M  V30 309 H 26.7408 4.3165 -0.431379 0
M  V30 310 H 27.4118 5.47242 0.723207 0
M  V30 311 H 29.8878 3.80377 1.68678 0
M  V30 312 H 28.7638 4.82127 2.62382 0
M  V30 313 H 29.0248 3.15104 3.101 0
M  V30 314 N 28.0839 -0.256276 1.55502 0
M  V30 315 C 29.0309 -1.31714 1.89526 0
M  V30 316 C 30.0009 -1.4828 0.748479 0
M  V30 317 O 31.1859 -1.62416 1.00128 0
M  V30 318 C 28.3259 -2.66933 2.18725 0
M  V30 319 C 27.4389 -2.58452 3.4616 0
M  V30 320 C 26.5739 -3.85961 3.64976 0
M  V30 321 C 25.6129 -3.72059 4.86044 0
M  V30 322 N 24.7499 -4.9144 5.01429 0
M  V30 323 H 29.5899 -1.01998 2.80001 0
M  V30 324 H 27.1269 -0.492413 1.38613 0
M  V30 325 H 29.0849 -3.4563 2.33657 0
M  V30 326 H 27.7149 -2.94816 1.31466 0
M  V30 327 H 26.7669 -1.71374 3.3961 0
M  V30 328 H 28.0789 -2.44085 4.34999 0
M  V30 329 H 27.2329 -4.73101 3.79816 0
M  V30 330 H 25.9719 -4.03215 2.74353 0
M  V30 331 H 24.9769 -2.83302 4.7119 0
M  V30 332 H 26.2019 -3.56309 5.78118 0
M  V30 333 H 24.1479 -5.09072 4.13741 0
M  V30 334 H 24.0649 -4.79668 5.84341 0
M  V30 335 H 25.3329 -5.80104 5.20672 0
M  V30 336 N 29.562 -1.4872 -0.521534 0
M  V30 337 C 30.787 -1.61101 -1.30618 0
M  V30 338 C 31.212 -0.274611 -1.86085 0
M  V30 339 O 30.57 0.754937 -1.64834 0
M  V30 340 C 30.618 -2.66709 -2.4269 0
M  V30 341 O 29.722 -2.24456 -3.45967 0
M  V30 342 H 29.063 -0.539921 -0.386499 0
M  V30 343 H 31.593 -1.94767 -0.626645 0
M  V30 344 H 31.603 -2.88245 -2.88754 0
M  V30 345 H 30.278 -3.63727 -2.01682 0
M  V30 346 H 28.855 -2.13168 -3.05964 0
M  V30 347 N 31.0401 0.771051 -1.3745 0
M  V30 348 C 31.9501 1.91538 -1.35464 0
M  V30 349 C 32.9661 1.72134 -0.254123 0
M  V30 350 O 34.1421 1.95358 -0.489626 0
M  V30 351 C 31.2071 3.26671 -1.16134 0
M  V30 352 C 30.2681 3.58723 -2.35831 0
M  V30 353 C 29.5011 4.87409 -2.17413 0
M  V30 354 O 29.7241 5.58506 -1.15876 0
M  V30 355 O 28.6581 5.18539 -3.05615 0
M  V30 356 H 32.4841 1.96165 -2.31847 0
M  V30 357 H 30.0691 0.9139 -1.18187 0
M  V30 358 H 31.9511 4.07499 -1.07345 0
M  V30 359 H 30.6261 3.22894 -0.228251 0
M  V30 360 H 29.5331 2.78127 -2.50192 0
M  V30 361 H 30.8661 3.67243 -3.27709 0
M  V30 362 N 32.5182 1.22032 0.997298 0
M  V30 363 C 33.7482 1.06686 1.76923 0
M  V30 364 C 34.1562 -0.385838 1.85224 0
M  V30 365 O 33.4992 -1.27929 1.31833 0
M  V30 366 C 33.5612 1.59802 3.22031 0
M  V30 367 C 33.2252 3.08362 3.37286 0
M  V30 368 C 34.2222 4.05835 3.24952 0
M  V30 369 C 31.9072 3.47727 3.6248 0
M  V30 370 C 33.9012 5.4066 3.37588 0
M  V30 371 C 31.5882 4.82701 3.74757 0
M  V30 372 C 32.5862 5.78977 3.62319 0
M  V30 373 O 32.2742 7.11502 3.74193 0
M  V30 374 H 32.0062 0.374767 0.562606 0
M  V30 375 H 34.5602 1.61991 1.26286 0
M  V30 376 H 32.7902 0.989003 3.73839 0
M  V30 377 H 34.4792 1.40184 3.80924 0
M  V30 378 H 35.2452 3.76766 3.05405 0
M  V30 379 H 31.1242 2.73317 3.7124 0
M  V30 380 H 34.6682 6.15788 3.27796 0
M  V30 381 H 30.5652 5.11453 3.9381 0
M  V30 382 H 31.3332 7.19019 3.91093 0
M  V30 383 N 33.9963 -1.19345 1.0293 0
M  V30 384 C 34.9293 -2.21347 0.555029 0
M  V30 385 C 35.9073 -1.57492 -0.404351 0
M  V30 386 O 37.0913 -1.85741 -0.321352 0
M  V30 387 C 34.2183 -3.38163 -0.19064 0
M  V30 388 C 33.2643 -4.20375 0.720236 0
M  V30 389 S 34.0973 -4.88371 2.19668 0
M  V30 390 C 35.2533 -6.08597 1.46153 0
M  V30 391 H 35.4863 -2.61235 1.41929 0
M  V30 392 H 33.0193 -1.29598 0.839272 0
M  V30 393 H 34.9773 -4.05871 -0.614724 0
M  V30 394 H 33.6383 -2.9671 -1.03063 0
M  V30 395 H 32.8313 -5.03793 0.14455 0
M  V30 396 H 32.4333 -3.57987 1.08266 0
M  V30 397 H 34.7253 -6.73354 0.748357 0
M  V30 398 H 35.6683 -6.7065 2.27233 0
M  V30 399 H 36.0763 -5.56297 0.958842 0
M  V30 400 N 35.4744 -0.807222 -1.35358 0
M  V30 401 C 36.8904 -0.491038 -1.51858 0
M  V30 402 C 37.0904 0.987648 -1.75635 0
M  V30 403 O 36.1464 1.77265 -1.79815 0
M  V30 404 C 37.4594 -1.33695 -2.69344 0
M  V30 405 C 39.0074 -1.33246 -2.83222 0
M  V30 406 C 39.4824 -2.1625 -4.03733 0
M  V30 407 N 40.9734 -2.1379 -4.10911 0
M  V30 408 C 41.7084 -2.74772 -5.03277 0
M  V30 409 N 41.2044 -3.44684 -6.0097 0
M  V30 410 N 42.9974 -2.6441 -4.96028 0
M  V30 411 H 35.1484 -1.76485 -1.18181 0
M  V30 412 H 37.4114 -0.751199 -0.578276 0
M  V30 413 H 37.1174 -2.38634 -2.58354 0
M  V30 414 H 36.9914 -0.990618 -3.6396 0
M  V30 415 H 39.3784 -0.290911 -2.93663 0
M  V30 416 H 39.4594 -1.71866 -1.89461 0
M  V30 417 H 39.1034 -3.20445 -3.94052 0
M  V30 418 H 39.0334 -1.74989 -4.96675 0
M  V30 419 H 41.5244 -1.62923 -3.40976 0
M  V30 420 H 41.8374 -3.88501 -6.68047 0
M  V30 421 H 40.1824 -3.48788 -6.01142 0
M  V30 422 H 43.3734 -2.0938 -4.18662 0
M  V30 423 H 43.5464 -3.12225 -5.6782 0
M  V30 424 N 36.9525 1.47285 -0.560781 0
M  V30 425 C 37.8825 2.32857 0.173105 0
M  V30 426 C 38.8635 1.44009 0.905281 0
M  V30 427 O 40.0485 1.7286 0.885046 0
M  V30 428 C 37.1785 3.25861 1.20133 0
M  V30 429 C 36.1325 4.23978 0.585388 0
M  V30 430 C 35.4585 5.06332 1.7185 0
M  V30 431 C 36.7585 5.20242 -0.463178 0
M  V30 432 H 38.4525 2.94466 -0.541307 0
M  V30 433 H 35.9985 1.41601 -0.261764 0
M  V30 434 H 37.9515 3.84569 1.72293 0
M  V30 435 H 36.6755 2.62315 1.94573 0
M  V30 436 H 35.3345 3.66501 0.085054 0
M  V30 437 H 34.9825 4.39186 2.45203 0
M  V30 438 H 34.6825 5.72762 1.31213 0
M  V30 439 H 36.2065 5.67899 2.24329 0
M  V30 440 H 37.6205 5.73293 -0.027502 0
M  V30 441 H 36.0175 5.94896 -0.788627 0
M  V30 442 H 37.0875 4.65504 -1.35773 0
M  V30 443 N 38.4306 0.297415 1.54768 0
M  V30 444 C 39.8466 -0.0560823 1.59501 0
M  V30 445 C 40.0466 -1.52725 1.31444 0
M  V30 446 O 39.1026 -2.27947 1.08611 0
M  V30 447 C 40.4156 0.338631 2.98787 0
M  V30 448 C 41.9636 0.287097 3.11681 0
M  V30 449 C 42.4386 0.656579 4.53269 0
M  V30 450 N 43.9296 0.608977 4.59179 0
M  V30 451 C 44.6646 0.867385 5.66802 0
M  V30 452 N 44.1606 1.19157 6.82476 0
M  V30 453 N 45.9536 0.794687 5.56454 0
M  V30 454 H 38.1046 1.25624 1.71267 0
M  V30 455 H 40.3676 0.509057 0.799728 0
M  V30 456 H 40.0736 1.36263 3.2423 0
M  V30 457 H 39.9476 -0.309508 3.75928 0
M  V30 458 H 42.3346 -0.727649 2.85988 0
M  V30 459 H 42.4156 0.969809 2.36703 0
M  V30 460 H 42.0596 1.66912 4.7969 0
M  V30 461 H 41.9896 -0.0481649 5.26578 0
M  V30 462 H 44.4806 0.369198 3.76092 0
M  V30 463 H 44.7936 1.37482 7.60473 0
M  V30 464 H 43.1386 1.22958 6.84037 0
M  V30 465 H 46.3296 0.541098 4.64962 0
M  V30 466 H 46.5026 0.999445 6.40246 0
M  V30 467 N 39.9087 -1.5758 0.0250728 0
M  V30 468 C 40.8407 -2.06869 -0.986796 0
M  V30 469 C 41.8537 -0.991332 -1.29137 0
M  V30 470 O 43.0427 -1.26761 -1.25674 0
M  V30 471 C 40.1427 -2.47486 -2.31525 0
M  V30 472 C 39.3157 -3.78253 -2.19643 0
M  V30 473 C 38.3747 -4.05464 -3.35388 0
M  V30 474 O 37.4007 -4.75774 -3.12454 0
M  V30 475 N 38.6027 -3.55321 -4.59051 0
M  V30 476 H 41.3677 -2.94302 -0.566276 0
M  V30 477 H 38.9287 -1.6109 -0.161776 0
M  V30 478 H 40.9207 -2.62785 -3.07776 0
M  V30 479 H 39.4907 -1.65441 -2.65232 0
M  V30 480 H 38.7107 -3.7279 -1.28144 0
M  V30 481 H 39.9987 -4.63936 -2.08903 0
M  V30 482 H 39.3967 -2.98431 -4.80578 0
M  V30 483 H 37.9537 -3.75905 -5.32483 0
M  V30 484 N 41.3868 0.248026 -1.55636 0
M  V30 485 C 42.3168 1.31079 -1.93237 0
M  V30 486 C 43.2978 1.50264 -0.797174 0
M  V30 487 O 44.4828 1.62891 -1.05737 0
M  V30 488 C 41.6128 2.66575 -2.22609 0
M  V30 489 C 40.5668 2.62087 -3.3837 0
M  V30 490 C 39.8928 4.01369 -3.53281 0
M  V30 491 C 41.1928 2.19171 -4.7409 0
M  V30 492 H 42.8868 0.998556 -2.82257 0
M  V30 493 H 40.4328 0.47891 -1.35803 0
M  V30 494 H 42.3858 3.41057 -2.47503 0
M  V30 495 H 41.1098 2.99432 -1.30414 0
M  V30 496 H 39.7688 1.90063 -3.13483 0
M  V30 497 H 39.4168 4.31489 -2.58508 0
M  V30 498 H 39.1168 3.99254 -4.31127 0
M  V30 499 H 40.6408 4.77552 -3.80495 0
M  V30 500 H 42.0548 2.83384 -4.98363 0
M  V30 501 H 40.4518 2.2817 -5.5503 0
M  V30 502 H 41.5218 1.14336 -4.71227 0
M  V30 503 N 42.8649 1.48995 0.513639 0
M  V30 504 C 43.8119 1.6473 1.61656 0
M  V30 505 C 44.7819 0.488984 1.58739 0
M  V30 506 O 45.9669 0.714478 1.76918 0
M  V30 507 C 43.1069 1.7082 2.99858 0
M  V30 508 C 42.2199 2.9787 3.12885 0
M  V30 509 C 41.3549 2.95017 4.41744 0
M  V30 510 C 40.3939 4.16702 4.48359 0
M  V30 511 N 39.5309 4.11832 5.68629 0
M  V30 512 H 44.3709 2.58909 1.47547 0
M  V30 513 H 41.9079 1.28382 0.71808 0
M  V30 514 H 43.8659 1.72331 3.79944 0
M  V30 515 H 42.4959 0.801181 3.12699 0
M  V30 516 H 41.5479 3.06029 2.25944 0
M  V30 517 H 42.8599 3.8786 3.13633 0
M  V30 518 H 42.0139 2.95021 5.30139 0
M  V30 519 H 40.7529 2.02784 4.43542 0
M  V30 520 H 39.7579 4.16955 3.58369 0
M  V30 521 H 40.9829 5.10113 4.48287 0
M  V30 522 H 38.9289 3.22428 5.71293 0
M  V30 523 H 38.8459 4.95543 5.7094 0
M  V30 524 H 40.1139 4.1592 6.59266 0
M  V30 525 N 44.343 -0.763751 1.37857 0
M  V30 526 C 45.759 -1.06542 1.18832 0
M  V30 527 C 45.959 -2.01478 0.0299722 0
M  V30 528 O 45.015 -2.4458 -0.627447 0
M  V30 529 C 46.328 -1.65525 2.51042 0
M  V30 530 C 47.876 -1.77745 2.57635 0
M  V30 531 C 48.351 -2.4014 3.89996 0
M  V30 532 N 49.842 -2.47582 3.91481 0
M  V30 533 C 50.577 -2.96732 4.9065 0
M  V30 534 N 50.073 -3.45993 6.00217 0
M  V30 535 N 51.866 -2.95679 4.78048 0
M  V30 536 H 44.017 -0.133556 2.1198 0
M  V30 537 H 46.28 -0.121879 0.940133 0
M  V30 538 H 45.986 -1.03236 3.36207 0
M  V30 539 H 45.86 -2.64719 2.68707 0
M  V30 540 H 48.247 -2.39164 1.72872 0
M  V30 541 H 48.328 -0.772836 2.43846 0
M  V30 542 H 47.972 -1.79358 4.75177 0
M  V30 543 H 47.902 -3.41223 4.01092 0
M  V30 544 H 50.393 -2.1273 3.12337 0
M  V30 545 H 50.706 -3.81922 6.7183 0
M  V30 546 H 49.051 -3.44077 6.03851 0
M  V30 547 H 52.242 -2.56499 3.91568 0
M  V30 548 H 52.415 -3.33672 5.55488 0
M  V30 549 N 45.8211 -1.22559 -0.990812 0
M  V30 550 C 47.0681 -1.05141 -1.73065 0
M  V30 551 C 47.3961 0.413191 -1.9006 0
M  V30 552 O 46.6511 1.32257 -1.44245 0
M  V30 553 C 46.9501 -1.71011 -3.13831 0
M  V30 554 C 46.6161 -3.20911 -3.16745 0
M  V30 555 C 45.2781 -3.61812 -3.17247 0
M  V30 556 C 47.6301 -4.16846 -3.12872 0
M  V30 557 C 44.9581 -4.97127 -3.1158 0
M  V30 558 C 47.3101 -5.5214 -3.08746 0
M  V30 559 C 45.9741 -5.92419 -3.07565 0
M  V30 560 H 45.2441 -0.384738 -0.633291 0
M  V30 561 H 47.8911 -1.5235 -1.16025 0
M  V30 562 H 46.1961 -1.16133 -3.74193 0
M  V30 563 H 47.8931 -1.55023 -3.69823 0
M  V30 564 H 44.4831 -2.88344 -3.17105 0
M  V30 565 H 48.6671 -3.86263 -3.11632 0
M  V30 566 H 43.9231 -5.27562 -3.09012 0
M  V30 567 H 48.0971 -6.26201 -3.04705 0
M  V30 568 H 45.7241 -6.97236 -3.02929 0
M  V30 569 N 47.2992 1.18797 -1.03562 0
M  V30 570 C 48.7152 1.40671 -0.753917 0
M  V30 571 C 48.9152 1.9043 0.658686 0
M  V30 572 O 47.9712 2.08538 1.42366 0
M  V30 573 C 49.2842 2.41192 -1.79574 0
M  V30 574 C 50.8322 2.54928 -1.81606 0
M  V30 575 C 51.3072 3.58709 -2.84766 0
M  V30 576 N 52.7982 3.66212 -2.83625 0
M  V30 577 C 53.5332 4.46225 -3.60098 0
M  V30 578 N 53.0292 5.29888 -4.46308 0
M  V30 579 N 54.8222 4.40939 -3.4861 0
M  V30 580 H 46.9732 0.848221 -1.94728 0
M  V30 581 H 49.2362 0.435081 -0.842264 0
M  V30 582 H 48.9422 2.11669 -2.80872 0
M  V30 583 H 48.8162 3.40467 -1.62365 0
M  V30 584 H 51.2032 2.83771 -0.809817 0
M  V30 585 H 51.2842 1.55784 -2.02891 0
M  V30 586 H 50.9282 3.30607 -3.85566 0
M  V30 587 H 50.8582 4.57519 -2.60737 0
M  V30 588 H 53.3492 3.06466 -2.21105 0
M  V30 589 H 53.6622 5.88078 -5.01382 0
M  V30 590 H 52.0072 5.29326 -4.50377 0
M  V30 591 H 55.1982 3.74624 -2.80668 0
M  V30 592 H 55.3712 5.03056 -4.08459 0
M  V30 593 N 48.7773 0.814389 1.34928 0
M  V30 594 C 50.1933 0.499084 1.51596 0
M  V30 595 C 50.3933 -0.978319 1.76157 0
M  V30 596 O 49.4493 -1.76309 1.80752 0
M  V30 597 C 50.7623 1.35121 2.68631 0
M  V30 598 C 52.3103 1.34746 2.82511 0
M  V30 599 C 52.7853 2.18388 4.0258 0
M  V30 600 N 54.2763 2.15966 4.09772 0
M  V30 601 C 55.0113 2.77437 5.01813 0
M  V30 602 N 54.5073 3.47866 5.99134 0
M  V30 603 N 56.3003 2.67037 4.94619 0
M  V30 604 H 48.4513 1.7711 1.17243 0
M  V30 605 H 50.7143 0.754256 0.574284 0
M  V30 606 H 50.4203 2.40001 2.57085 0
M  V30 607 H 50.2943 1.00991 3.63429 0
M  V30 608 H 52.6813 0.30648 2.93504 0
M  V30 609 H 52.7623 1.72869 1.88547 0
M  V30 610 H 52.4063 3.2253 3.92347 0
M  V30 611 H 52.3363 1.77621 4.9574 0
M  V30 612 H 54.8273 1.64729 3.40107 0
M  V30 613 H 55.1403 3.92038 6.65977 0
M  V30 614 H 53.4853 3.51972 5.99284 0
M  V30 615 H 56.6763 2.11597 4.17546 0
M  V30 616 H 56.8493 3.15232 5.66156 0
M  V30 617 N 50.2554 -1.46986 0.568584 0
M  V30 618 C 51.2184 -2.28624 -0.162366 0
M  V30 619 C 52.2184 -1.37596 -0.832103 0
M  V30 620 O 53.4084 -1.60115 -0.68622 0
M  V30 621 C 50.5404 -3.17596 -1.23878 0
M  V30 622 H 51.7334 -2.94722 0.554899 0
M  V30 623 H 49.2864 -1.52863 0.325976 0
M  V30 624 H 50.0214 -2.56214 -1.98808 0
M  V30 625 H 49.8064 -3.846 -0.763219 0
M  V30 626 H 51.2964 -3.79078 -1.75185 0
M  V30 627 N 51.7335 -0.305618 -1.54608 0
M  V30 628 C 53.0105 0.355652 -1.92339 0
M  V30 629 C 53.3905 1.71324 -1.23335 0
M  V30 630 O 52.7385 2.25473 -0.370702 0
M  V30 631 C 52.9485 0.46572 -3.45879 0
M  V30 632 C 54.2965 0.734426 -4.182 0
M  V30 633 O 55.3205 0.54935 -3.51938 0
M  V30 634 O 54.1795 1.09024 -5.35515 0
M  V30 635 H 51.2735 0.199666 -0.802535 0
M  V30 636 H 53.8195 -0.354017 -1.65966 0
M  V30 637 H 52.5915 -0.488461 -3.88239 0
M  V30 638 H 52.2145 1.22367 -3.78301 0
M  V30 639 N 53.2116 1.57565 -0.0334293 0
M  V30 640 C 54.1216 2.13943 0.962572 0
M  V30 641 C 55.1376 1.09276 1.35406 0
M  V30 642 O 56.3136 1.41355 1.4346 0
M  V30 643 C 53.3786 2.65887 2.22497 0
M  V30 644 C 52.4396 3.85286 1.8935 0
M  V30 645 C 51.6726 4.34743 3.09571 0
M  V30 646 O 51.8956 3.83352 4.22371 0
M  V30 647 O 50.8296 5.26538 2.91618 0
M  V30 648 H 54.6556 2.99333 0.513169 0
M  V30 649 H 52.2406 1.4822 0.18743 0
M  V30 650 H 54.1226 2.99346 2.96598 0
M  V30 651 H 52.7976 1.83578 2.6661 0
M  V30 652 H 51.7046 3.56746 1.1262 0
M  V30 653 H 53.0376 4.68771 1.5005 0
M  V30 654 N 54.6897 -0.239769 1.55765 0
M  V30 655 C 55.9357 -0.968234 1.78194 0
M  V30 656 C 56.2687 -1.84701 0.599938 0
M  V30 657 O 55.5437 -1.9031 -0.401524 0
M  V30 658 C 55.8267 -1.8227 3.10564 0
M  V30 659 C 55.6797 -0.971633 4.3918 0
M  V30 660 C 56.9987 -2.80388 3.39221 0
M  V30 661 H 54.1177 -0.350572 0.648281 0
M  V30 662 H 56.7597 -0.238259 1.885 0
M  V30 663 H 54.9097 -2.44507 3.01908 0
M  V30 664 H 56.5817 -0.367408 4.59835 0
M  V30 665 H 54.8247 -0.276276 4.32919 0
M  V30 666 H 55.4957 -1.60346 5.28198 0
M  V30 667 H 57.9717 -2.28287 3.47885 0
M  V30 668 H 56.8477 -3.3729 4.33044 0
M  V30 669 H 57.1087 -3.57212 2.60484 0
M  V30 670 N 56.1678 -1.49265 -0.50573 0
M  V30 671 C 57.1148 -1.65585 -1.6078 0
M  V30 672 C 58.0848 -0.497396 -1.58478 0
M  V30 673 O 59.2698 -0.72385 -1.76536 0
M  V30 674 C 56.4098 -1.72408 -2.98948 0
M  V30 675 C 55.5228 -2.99525 -3.11301 0
M  V30 676 C 54.6578 -2.97356 -4.40174 0
M  V30 677 C 53.6968 -4.19074 -4.46143 0
M  V30 678 N 52.8338 -4.14841 -5.66437 0
M  V30 679 H 57.6738 -2.59688 -1.46172 0
M  V30 680 H 55.2108 -1.28761 -0.711261 0
M  V30 681 H 57.1688 -1.74344 -3.79025 0
M  V30 682 H 55.7988 -0.817753 -3.1227 0
M  V30 683 H 54.8508 -3.07222 -2.24318 0
M  V30 684 H 56.1628 -3.89518 -3.11572 0
M  V30 685 H 55.3168 -2.97829 -5.28567 0
M  V30 686 H 54.0558 -2.05133 -4.42461 0
M  V30 687 H 53.0608 -4.1885 -3.56153 0
M  V30 688 H 54.2858 -5.12483 -4.45575 0
M  V30 689 H 52.2318 -3.25453 -5.69575 0
M  V30 690 H 52.1488 -4.98564 -5.68304 0
M  V30 691 H 53.4168 -4.1941 -6.57051 0
M  V30 692 N 57.6459 0.756429 -1.3826 0
M  V30 693 C 58.8709 1.55077 -1.37717 0
M  V30 694 C 59.2959 1.88073 0.03164 0
M  V30 695 O 58.6539 1.50364 1.01293 0
M  V30 696 C 58.7019 2.8283 -2.23695 0
M  V30 697 O 57.8059 3.77862 -1.6521 0
M  V30 698 H 57.1469 0.469152 -0.469885 0
M  V30 699 H 59.6769 0.935019 -1.81985 0
M  V30 700 H 59.6869 3.31783 -2.37453 0
M  V30 701 H 58.3619 2.58144 -3.2609 0
M  V30 702 H 56.9389 3.36555 -1.60578 0
M  V30 703 N 59.124 1.23083 0.984299 0
M  V30 704 C 60.057 0.951786 2.07404 0
M  V30 705 C 61.035 -0.10848 1.62238 0
M  V30 706 O 62.219 0.0249467 1.88483 0
M  V30 707 C 59.346 0.433142 3.35919 0
M  V30 708 C 58.392 1.47941 4.0002 0
M  V30 709 S 59.225 3.05556 4.39768 0
M  V30 710 C 60.381 2.55351 5.71442 0
M  V30 711 H 60.614 1.87456 2.30754 0
M  V30 712 H 58.147 1.06284 1.11996 0
M  V30 713 H 60.105 0.140506 4.10259 0
M  V30 714 H 58.766 -0.468656 3.10584 0
M  V30 715 H 57.959 1.06658 4.92585 0
M  V30 716 H 57.561 1.7212 3.3204 0
M  V30 717 H 59.853 1.97128 6.48187 0
M  V30 718 H 60.796 3.46441 6.17563 0
M  V30 719 H 61.204 1.96339 5.29255 0
M  V30 720 N 60.6021 -1.18246 1.0419 0
M  V30 721 C 61.8491 -1.88257 0.746017 0
M  V30 722 C 62.1771 -1.80429 -0.726331 0
M  V30 723 O 61.4321 -1.2 -1.54591 0
M  V30 724 C 61.7311 -3.38082 1.15911 0
M  V30 725 C 61.3971 -3.66114 2.63195 0
M  V30 726 C 60.0591 -3.73474 3.03432 0
M  V30 727 C 62.4111 -3.78398 3.5842 0
M  V30 728 C 59.7391 -3.90599 4.37778 0
M  V30 729 C 62.0911 -3.97039 4.92487 0
M  V30 730 C 60.7551 -4.02635 5.32392 0
M  V30 731 H 60.0251 -0.688883 0.272987 0
M  V30 732 H 62.6721 -1.3995 1.30715 0
M  V30 733 H 60.9771 -3.88377 0.516806 0
M  V30 734 H 62.6741 -3.90596 0.907516 0
M  V30 735 H 59.2641 -3.61003 2.3103 0
M  V30 736 H 63.4481 -3.72042 3.28479 0
M  V30 737 H 58.7041 -3.93175 4.68213 0
M  V30 738 H 62.8781 -4.05486 5.66175 0
M  V30 739 H 60.5051 -4.15657 6.36501 0
M  V30 740 N 62.0802 -0.821533 -1.34494 0
M  V30 741 C 63.3052 -0.420873 -2.03085 0
M  V30 742 C 63.7302 0.964915 -1.61465 0
M  V30 743 O 63.0882 1.62763 -0.798607 0
M  V30 744 C 63.1362 -0.529414 -3.56693 0
M  V30 745 O 62.2402 0.451302 -4.09923 0
M  V30 746 H 61.5812 -0.173489 -0.640935 0
M  V30 747 H 64.1112 -1.11157 -1.71771 0
M  V30 748 H 64.1212 -0.404671 -4.05988 0
M  V30 749 H 62.7962 -1.54014 -3.86332 0
M  V30 750 H 61.3732 0.285558 -3.71805 0
M  V30 751 N 63.5583 1.46682 -0.576371 0
M  V30 752 C 64.7833 2.07304 -0.0630475 0
M  V30 753 C 65.2083 1.42329 1.2298 0
M  V30 754 O 64.5663 0.504865 1.74129 0
M  V30 755 C 64.6143 3.60472 0.095895 0
M  V30 756 O 63.7183 3.95927 1.15394 0
M  V30 757 H 63.0593 0.661288 -0.0599463 0
M  V30 758 H 65.5893 1.88417 -0.797511 0
M  V30 759 H 65.5993 4.06865 0.304071 0
M  V30 760 H 64.2743 4.07157 -0.84828 0
M  V30 761 H 62.8513 3.61252 0.924724 0
M  V30 762 N 65.0364 0.313813 1.54444 0
M  V30 763 C 65.9844 -0.572171 2.25453 0
M  V30 764 C 66.9784 -1.12657 1.2651 0
M  V30 765 O 68.1844 -1.07573 1.44319 0
M  V30 766 H 64.5594 -0.203146 0.724041 0
M  V30 767 H 66.5304 0.0491145 2.9836 0
M  V30 768 C 65.2794 -1.72626 3.0182 0
M  V30 769 H 64.6024 -1.30891 3.77767 0
M  V30 770 H 66.0424 -2.32199 3.54767 0
M  V30 771 C 64.5014 -2.63806 2.09542 0
M  V30 772 O 65.0314 -3.65256 1.67185 0
M  V30 773 N 63.2374 -2.31824 1.75232 0
M  V30 774 H 62.7844 -1.49368 2.09873 0
M  V30 775 H 62.7424 -2.93095 1.13767 0
M  V30 776 N 66.5145 -1.57545 0.0417849 0
M  V30 777 C 67.9305 -1.56467 -0.314704 0
M  V30 778 C 68.1305 -1.04859 -1.72066 0
M  V30 779 O 67.1865 -0.700983 -2.42575 0
M  V30 780 C 68.4995 -3.00317 -0.15174 0
M  V30 781 C 70.0475 -3.12201 -0.223553 0
M  V30 782 C 70.5225 -4.57913 -0.0892295 0
M  V30 783 N 72.0135 -4.6297 -0.145808 0
M  V30 784 C 72.7485 -5.73362 -0.0658459 0
M  V30 785 N 72.2445 -6.92769 0.0659282 0
M  V30 786 N 74.0375 -5.6197 -0.12075 0
M  V30 787 H 66.1885 -1.89416 0.961014 0
M  V30 788 H 68.4515 -0.871862 0.372237 0
M  V30 789 H 68.1575 -3.42073 0.817254 0
M  V30 790 H 68.0315 -3.65892 -0.916692 0
M  V30 791 H 70.4185 -2.70349 -1.18301 0
M  V30 792 H 70.4995 -2.49323 0.571994 0
M  V30 793 H 70.1435 -5.00448 0.866867 0
M  V30 794 H 70.0735 -5.18786 -0.903802 0
M  V30 795 H 72.5645 -3.7709 -0.247286 0
M  V30 796 H 72.8775 -7.72707 0.119905 0
M  V30 797 H 71.2225 -6.94927 0.100885 0
M  V30 798 H 74.4135 -4.67572 -0.222187 0
M  V30 799 H 74.5865 -6.47977 -0.0549735 0
M  V30 800 N 67.9926 0.231505 -1.5589 0
M  V30 801 C 68.9246 1.31006 -1.8807 0
M  V30 802 C 69.9376 1.43539 -0.768145 0
M  V30 803 O 71.1266 1.44614 -1.04638 0
M  V30 804 C 68.2266 2.68688 -2.06543 0
M  V30 805 C 67.3996 2.78228 -3.37502 0
M  V30 806 C 66.4586 3.96857 -3.4553 0
M  V30 807 O 65.4846 3.85662 -4.18633 0
M  V30 808 N 66.6866 5.1072 -2.75944 0
M  V30 809 H 69.4516 1.03731 -2.81176 0
M  V30 810 H 67.0126 0.421573 -1.56315 0
M  V30 811 H 69.0046 3.46412 -2.09239 0
M  V30 812 H 67.5746 2.88605 -1.20109 0
M  V30 813 H 66.7946 1.87059 -3.46991 0
M  V30 814 H 68.0826 2.81564 -4.23791 0
M  V30 815 H 67.4806 5.2271 -2.16311 0
M  V30 816 H 66.0376 5.86523 -2.84314 0
M  V30 817 N 69.4707 1.49531 0.497807 0
M  V30 818 C 70.4177 1.66436 1.59899 0
M  V30 819 C 71.3877 0.505793 1.58212 0
M  V30 820 O 72.5727 0.733202 1.7615 0
M  V30 821 C 69.7127 1.7399 2.98029 0
M  V30 822 C 68.8257 3.01172 3.09708 0
M  V30 823 C 67.9607 2.99686 4.38591 0
M  V30 824 C 66.9997 4.21434 4.43914 0
M  V30 825 N 66.1367 4.1784 5.64229 0
M  V30 826 H 70.9767 2.60459 1.44793 0
M  V30 827 H 68.5137 1.29137 0.704423 0
M  V30 828 H 70.4717 1.76352 3.78095 0
M  V30 829 H 69.1017 0.834301 3.11832 0
M  V30 830 H 68.1537 3.08408 2.22685 0
M  V30 831 H 69.4657 3.91165 3.09502 0
M  V30 832 H 68.6197 3.00628 5.2698 0
M  V30 833 H 67.3587 2.07477 4.41367 0
M  V30 834 H 66.3637 4.20733 3.53926 0
M  V30 835 H 67.5887 5.14839 4.42851 0
M  V30 836 H 65.5347 3.28469 5.67841 0
M  V30 837 H 65.4517 5.01571 5.65652 0
M  V30 838 H 66.7197 4.22889 6.54817 0
M  V30 839 N 70.9488 -0.749086 1.3866 0
M  V30 840 C 72.1978 -1.50371 1.3443 0
M  V30 841 C 72.5108 -1.95503 -0.0616397 0
M  V30 842 O 73.7168 -2.70554 -0.226489 0
M  V30 843 C 72.1728 -2.71644 2.36088 0
M  V30 844 C 71.7808 -2.3352 3.82325 0
M  V30 845 C 73.5248 -3.49518 2.40909 0
M  V30 846 C 71.4318 -3.51431 4.75658 0
M  V30 847 H 70.3618 -0.564628 0.499712 0
M  V30 848 H 73.0128 -0.818449 1.64237 0
M  V30 849 H 71.3948 -3.42175 1.9933 0
M  V30 850 H 72.5688 -1.70627 4.28046 0
M  V30 851 H 70.8838 -1.6877 3.80665 0
M  V30 852 H 73.4808 -4.37197 3.07836 0
M  V30 853 H 73.8238 -3.90992 1.42937 0
M  V30 854 H 74.3568 -2.86005 2.76489 0
M  V30 855 H 71.0958 -3.15019 5.74842 0
M  V30 856 H 70.6158 -4.13352 4.34627 0
M  V30 857 H 72.2948 -4.17953 4.93887 0
M  V30 858 N 72.4269 -1.23603 -0.977757 0
M  V30 859 C 73.3569 -1.04401 -2.0886 0
M  V30 860 C 74.3379 0.0399052 -1.70053 0
M  V30 861 O 75.5229 -0.125246 -1.93796 0
M  V30 862 C 72.6529 -0.637269 -3.41403 0
M  V30 863 C 71.6069 -1.66883 -3.94124 0
M  V30 864 C 70.9329 -1.11745 -5.22893 0
M  V30 865 C 72.2329 -3.06247 -4.23096 0
M  V30 866 H 73.9269 -1.97316 -2.25182 0
M  V30 867 H 71.4729 -0.950096 -1.08209 0
M  V30 868 H 73.4259 -0.48998 -4.18542 0
M  V30 869 H 72.1499 0.327557 -3.24953 0
M  V30 870 H 70.8089 -1.80416 -3.19133 0
M  V30 871 H 70.4569 -0.143527 -5.02795 0
M  V30 872 H 70.1569 -1.80672 -5.59134 0
M  V30 873 H 71.6809 -0.982067 -6.02651 0
M  V30 874 H 73.0949 -2.96001 -4.90975 0
M  V30 875 H 71.4919 -3.72436 -4.70544 0
M  V30 876 H 72.5619 -3.55041 -3.30263 0
M  V30 877 N 73.905 1.17692 -1.04816 0
M  V30 878 C 74.815 2.25229 -0.65643 0
M  V30 879 C 75.831 1.71018 0.320761 0
M  V30 880 O 77.007 2.00649 0.173805 0
M  V30 881 C 74.072 3.46684 -0.0332629 0
M  V30 882 C 73.133 4.15997 -1.06042 0
M  V30 883 C 72.366 5.31654 -0.466893 0
M  V30 884 O 72.589 5.65777 0.724758 0
M  V30 885 O 71.523 5.89831 -1.1993 0
M  V30 886 H 75.349 2.61016 -1.55255 0
M  V30 887 H 72.934 1.24919 -0.81949 0
M  V30 888 H 74.816 4.20234 0.313256 0
M  V30 889 H 73.491 3.12703 0.836566 0
M  V30 890 H 72.398 3.44482 -1.45886 0
M  V30 891 H 73.731 4.53996 -1.90127 0
M  V30 892 N 75.3831 0.828654 1.34056 0
M  V30 893 C 76.7991 0.515135 1.51058 0
M  V30 894 C 76.9991 -0.959581 1.77184 0
M  V30 895 O 76.0551 -1.74382 1.82612 0
M  V30 896 C 77.3681 1.37963 2.67183 0
M  V30 897 C 78.9161 1.37735 2.81066 0
M  V30 898 C 79.3911 2.22645 4.00241 0
M  V30 899 N 80.8821 2.203 4.07458 0
M  V30 900 C 81.6171 2.82744 4.98842 0
M  V30 901 N 81.1131 3.54201 5.9541 0
M  V30 902 N 82.9061 2.72268 4.91759 0
M  V30 903 H 75.0571 1.78343 1.15358 0
M  V30 904 H 77.3201 0.760304 0.566252 0
M  V30 905 H 77.0261 2.42714 2.54525 0
M  V30 906 H 76.9001 1.0484 3.62338 0
M  V30 907 H 79.2871 0.337593 2.93163 0
M  V30 908 H 79.3681 1.74859 1.86703 0
M  V30 909 H 79.0121 3.26674 3.88905 0
M  V30 910 H 78.9421 1.82869 4.93829 0
M  V30 911 H 81.4331 1.68327 3.38341 0
M  V30 912 H 81.7461 3.9908 6.61782 0
M  V30 913 H 80.0911 3.58308 5.95517 0
M  V30 914 H 83.2821 2.16014 4.15278 0
M  V30 915 H 83.4551 3.21219 5.62781 0
M  V30 916 N 76.8612 -1.46375 0.584142 0
M  V30 917 C 78.0892 -2.06761 0.0759296 0
M  V30 918 C 78.5042 -1.43266 -1.22965 0
M  V30 919 O 77.8612 -0.538458 -1.74376 0
M  V30 920 C 77.9122 -3.61375 -0.0950384 0
M  V30 921 O 77.6332 -4.22495 1.15887 0
M  V30 922 C 79.1342 -4.38693 -0.637434 0
M  V30 923 H 76.3542 -0.668479 0.0581075 0
M  V30 924 H 78.8982 -1.8798 0.805218 0
M  V30 925 H 77.0532 -3.79578 -0.774554 0
M  V30 926 H 77.4672 -5.15385 0.973598 0
M  V30 927 H 78.9412 -5.47464 -0.706237 0
M  V30 928 H 79.4182 -4.06836 -1.65472 0
M  V30 929 H 80.0242 -4.25299 0.00725967 0
M  V30 930 N 78.3393 -0.321999 -1.54275 0
M  V30 931 C 79.2493 0.553631 -2.27974 0
M  V30 932 C 80.2653 1.13054 -1.32268 0
M  V30 933 O 81.4413 1.15084 -1.6528 0
M  V30 934 C 78.5063 1.69927 -3.02201 0
M  V30 935 C 77.5673 1.15433 -4.1349 0
M  V30 936 C 76.8003 2.24537 -4.84168 0
M  V30 937 O 77.0233 3.44852 -4.5435 0
M  V30 938 O 75.9573 1.90044 -5.7111 0
M  V30 939 H 79.7833 -0.0448345 -3.03667 0
M  V30 940 H 77.3683 -0.0877418 -1.49142 0
M  V30 941 H 79.2503 2.3663 -3.48689 0
M  V30 942 H 77.9253 2.28395 -2.29385 0
M  V30 943 H 76.8323 0.452436 -3.71354 0
M  V30 944 H 78.1653 0.614805 -4.88345 0
M  V30 945 N 79.8174 1.5752 -0.0501392 0
M  V30 946 C 81.0664 1.91827 0.623328 0
M  V30 947 C 81.3794 0.930222 1.72065 0
M  V30 948 O 82.5854 1.1653 2.4522 0
M  V30 949 C 81.0414 3.40692 1.16003 0
M  V30 950 C 80.6494 4.479 0.0948811 0
M  V30 951 C 82.3934 3.84034 1.80881 0
M  V30 952 C 80.3004 5.87879 0.644411 0
M  V30 953 H 79.2304 0.715918 0.236596 0
M  V30 954 H 81.8814 1.83115 -0.118861 0
M  V30 955 H 80.2634 3.44405 1.9545 0
M  V30 956 H 81.4374 4.55775 -0.678675 0
M  V30 957 H 79.7524 4.13892 -0.45637 0
M  V30 958 H 82.3494 4.85984 2.22988 0
M  V30 959 H 82.6924 3.20225 2.6601 0
M  V30 960 H 83.2254 3.82833 1.0809 0
M  V30 961 H 79.9644 6.55282 -0.169229 0
M  V30 962 H 79.4844 5.83567 1.38598 0
M  V30 963 H 81.1634 6.37098 1.12763 0
M  V30 964 N 81.2955 -0.223234 1.56011 0
M  V30 965 C 82.2255 -1.27988 1.95298 0
M  V30 966 C 83.2065 -1.48976 0.820979 0
M  V30 967 O 84.3915 -1.61188 1.08315 0
M  V30 968 C 81.5215 -2.63 2.26822 0
M  V30 969 C 80.4755 -2.56671 3.42497 0
M  V30 970 C 79.8015 -3.95697 3.59622 0
M  V30 971 C 81.1015 -2.11601 4.77517 0
M  V30 972 H 82.7955 -0.953525 2.8381 0
M  V30 973 H 80.3415 -0.457244 1.36548 0
M  V30 974 H 82.2945 -3.37077 2.52898 0
M  V30 975 H 81.0185 -2.9732 1.35161 0
M  V30 976 H 79.6775 -1.85051 3.16467 0
M  V30 977 H 79.3255 -4.27322 2.6534 0
M  V30 978 H 79.0255 -3.92345 4.37424 0
M  V30 979 H 80.5495 -4.71438 3.88044 0
M  V30 980 H 81.9635 -2.7542 5.02809 0
M  V30 981 H 80.3605 -2.19311 5.5859 0
M  V30 982 H 81.4305 -1.06824 4.72987 0
M  V30 983 N 82.7736 -1.49793 -0.48987 0
M  V30 984 C 83.7216 -1.67783 -1.61095 0
M  V30 985 C 84.7156 -0.543683 -1.60438 0
M  V30 986 O 85.9216 -0.723647 -1.64813 0
M  V30 987 H 82.2966 -0.529255 -0.534222 0
M  V30 988 H 84.2676 -2.61861 -1.43078 0
M  V30 989 C 83.0166 -1.77191 -2.99164 0
M  V30 990 H 82.3396 -2.63841 -3.0038 0
M  V30 991 H 83.7796 -1.93809 -3.77113 0
M  V30 992 C 82.2386 -0.519203 -3.32875 0
M  V30 993 O 82.7686 0.350124 -4.00171 0
M  V30 994 N 80.9746 -0.378816 -2.8812 0
M  V30 995 H 80.5216 -1.08725 -2.33531 0
M  V30 996 H 80.4796 0.458239 -3.11043 0
M  V30 997 N 84.2517 0.741722 -1.39055 0
M  V30 998 C 85.1837 1.8657 -1.33133 0
M  V30 999 C 86.1967 1.61001 -0.241329 0
M  V30 1000 O 87.3857 1.7136 -0.499784 0
M  V30 1001 C 84.4857 3.22457 -1.04283 0
M  V30 1002 C 83.6587 3.75435 -2.24427 0
M  V30 1003 C 82.7177 4.89867 -1.92138 0
M  V30 1004 O 81.7437 5.03879 -2.64754 0
M  V30 1005 N 82.9457 5.73738 -0.88347 0
M  V30 1006 H 85.7107 1.92156 -2.29991 0
M  V30 1007 H 83.2717 0.922172 -1.3307 0
M  V30 1008 H 85.2637 3.9657 -0.807128 0
M  V30 1009 H 83.8337 3.12181 -0.161807 0
M  V30 1010 H 83.0537 2.92751 -2.6399 0
M  V30 1011 H 84.3417 4.07563 -3.04581 0
M  V30 1012 H 83.7397 5.64999 -0.281517 0
M  V30 1013 H 82.2967 6.47947 -0.707662 0
M  V30 1014 N 85.7298 1.2412 0.971189 0
M  V30 1015 C 86.6398 1.04747 2.09917 0
M  V30 1016 C 87.6558 -0.0107162 1.73997 0
M  V30 1017 O 88.8318 0.186714 2.00533 0
M  V30 1018 C 85.8968 0.650828 3.40537 0
M  V30 1019 C 84.9578 1.7851 3.90426 0
M  V30 1020 C 84.1908 1.40729 5.14812 0
M  V30 1021 O 84.4138 0.29557 5.69634 0
M  V30 1022 O 83.3478 2.23168 5.58999 0
M  V30 1023 H 87.1738 1.99304 2.29154 0
M  V30 1024 H 84.7588 1.02908 1.08307 0
M  V30 1025 H 86.6408 0.440992 4.19086 0
M  V30 1026 H 85.3158 -0.265649 3.22608 0
M  V30 1027 H 84.2228 2.04966 3.12953 0
M  V30 1028 H 85.5558 2.68023 4.12825 0
M  V30 1029 N 87.2079 -1.17134 1.05439 0
M  V30 1030 C 88.4539 -1.87979 0.776872 0
M  V30 1031 C 88.8089 -1.7965 -0.688751 0
M  V30 1032 O 88.1019 -1.19535 -1.4974 0
M  V30 1033 C 88.2959 -3.36833 1.19491 0
M  V30 1034 C 88.1249 -3.59653 2.69963 0
M  V30 1035 C 86.8949 -3.76234 3.37307 0
M  V30 1036 C 89.0929 -3.59091 3.68182 0
M  V30 1037 N 87.0749 -3.86922 4.76618 0
M  V30 1038 C 88.4459 -3.75659 4.93235 0
M  V30 1039 C 90.5009 -3.42255 3.61616 0
M  V30 1040 C 89.2039 -3.77133 6.12506 0
M  V30 1041 C 91.2299 -3.45018 4.8033 0
M  V30 1042 C 90.5919 -3.62096 6.04207 0
M  V30 1043 H 86.6909 -0.705876 0.336546 0
M  V30 1044 H 89.2749 -1.40602 1.34682 0
M  V30 1045 H 87.4459 -3.82873 0.652884 0
M  V30 1046 H 89.1779 -3.95305 0.866966 0
M  V30 1047 H 85.9329 -3.76193 2.87708 0
M  V30 1048 H 86.3569 -3.96055 5.49062 0
M  V30 1049 H 90.9989 -3.27986 2.66805 0
M  V30 1050 H 88.7169 -3.90186 7.07659 0
M  V30 1051 H 92.3029 -3.33246 4.76905 0
M  V30 1052 H 91.1829 -3.64142 6.94529 0
M  V30 1053 N 88.686 -0.835752 -1.33615 0
M  V30 1054 C 89.633 -0.26473 -2.29277 0
M  V30 1055 C 90.603 0.617712 -1.54187 0
M  V30 1056 O 91.788 0.556641 -1.825 0
M  V30 1057 C 88.928 0.556777 -3.40579 0
M  V30 1058 C 88.041 -0.349339 -4.30585 0
M  V30 1059 C 87.176 0.482969 -5.29 0
M  V30 1060 C 86.215 -0.421732 -6.10645 0
M  V30 1061 N 85.352 0.372262 -7.01112 0
M  V30 1062 H 90.192 -1.08582 -2.77514 0
M  V30 1063 H 87.729 -0.546927 -1.36554 0
M  V30 1064 H 89.687 1.04852 -4.03809 0
M  V30 1065 H 88.317 1.34286 -2.93542 0
M  V30 1066 H 87.369 -0.959372 -3.68104 0
M  V30 1067 H 88.681 -1.04445 -4.87742 0
M  V30 1068 H 87.835 1.03866 -5.97743 0
M  V30 1069 H 86.574 1.21153 -4.72412 0
M  V30 1070 H 85.579 -0.989464 -5.40823 0
M  V30 1071 H 86.804 -1.14861 -6.69316 0
M  V30 1072 H 84.75 1.08426 -6.46977 0
M  V30 1073 H 84.667 -0.264198 -7.55538 0
M  V30 1074 H 85.935 0.910293 -7.74167 0
M  V30 1075 N 90.1641 1.46063 -0.591896 0
M  V30 1076 C 91.0961 2.28539 0.174001 0
M  V30 1077 C 92.1091 1.39047 0.846753 0
M  V30 1078 O 93.2981 1.63564 0.714774 0
M  V30 1079 C 90.3981 3.14347 1.26645 0
M  V30 1080 C 89.5711 4.32021 0.683856 0
M  V30 1081 C 88.6301 4.99157 1.66518 0
M  V30 1082 O 87.6561 5.56458 1.19763 0
M  V30 1083 N 88.8581 4.97005 2.99943 0
M  V30 1084 H 91.6231 2.94911 -0.533633 0
M  V30 1085 H 89.1841 1.56077 -0.430294 0
M  V30 1086 H 91.1761 3.56125 1.92242 0
M  V30 1087 H 89.7461 2.49988 1.87682 0
M  V30 1088 H 88.9661 3.93915 -0.1498 0
M  V30 1089 H 90.2541 5.08059 0.274567 0
M  V30 1090 H 89.6521 4.51714 3.40545 0
M  V30 1091 H 88.2091 5.42696 3.61004 0
M  V30 1092 N 91.6422 0.330177 1.54103 0
M  V30 1093 C 93.0582 -0.0222371 1.59585 0
M  V30 1094 C 93.2582 -1.49902 1.34654 0
M  V30 1095 O 92.3142 -2.25592 1.13421 0
M  V30 1096 C 93.6272 0.401932 2.98002 0
M  V30 1097 C 95.1752 0.353145 3.11001 0
M  V30 1098 C 95.6502 0.752576 4.51775 0
M  V30 1099 N 97.1412 0.706239 4.57784 0
M  V30 1100 C 97.8762 0.987417 5.64834 0
M  V30 1101 N 97.3722 1.33607 6.79795 0
M  V30 1102 N 99.1652 0.91254 5.54643 0
M  V30 1103 H 91.3162 1.29228 1.68564 0
M  V30 1104 H 93.5792 0.525906 0.78875 0
M  V30 1105 H 93.2852 1.4311 3.21267 0
M  V30 1106 H 93.1592 -0.229699 3.765 0
M  V30 1107 H 95.5462 -0.666822 2.87467 0
M  V30 1108 H 95.6272 1.0198 2.34593 0
M  V30 1109 H 95.2712 1.77049 4.76042 0
M  V30 1110 H 95.2012 0.0635409 5.26562 0
M  V30 1111 H 97.6922 0.44889 3.75224 0
M  V30 1112 H 98.0052 1.53582 7.57385 0
M  V30 1113 H 96.3502 1.37439 6.81275 0
M  V30 1114 H 99.5412 0.639601 4.6371 0
M  V30 1115 H 99.7142 1.13503 6.37982 0
M  V30 1116 N 93.1203 -1.57491 0.0584922 0
M  V30 1117 C 94.5363 -1.56792 -0.298091 0
M  V30 1118 C 94.7363 -1.06679 -1.70944 0
M  V30 1119 O 93.7923 -0.726672 -2.41818 0
M  V30 1120 C 95.1053 -3.00461 -0.119879 0
M  V30 1121 C 96.6533 -3.1242 -0.190428 0
M  V30 1122 C 97.1283 -4.57982 -0.0406567 0
M  V30 1123 N 98.6193 -4.63099 -0.0966958 0
M  V30 1124 C 99.3543 -5.734 -0.00502943 0
M  V30 1125 N 98.8503 -6.9266 0.139402 0
M  V30 1126 N 100.643 -5.62067 -0.0611391 0
M  V30 1127 H 92.7943 -1.88386 0.98105 0
M  V30 1128 H 95.0573 -0.867865 0.381463 0
M  V30 1129 H 94.7633 -3.41187 0.85349 0
M  V30 1130 H 94.6373 -3.66843 -0.877833 0
M  V30 1131 H 97.0243 -2.71589 -1.15427 0
M  V30 1132 H 97.1053 -2.48702 0.598405 0
M  V30 1133 H 96.7493 -4.995 0.919897 0
M  V30 1134 H 96.6793 -5.19715 -0.848727 0
M  V30 1135 H 99.1703 -3.77331 -0.207277 0
M  V30 1136 H 99.4833 -7.72536 0.201855 0
M  V30 1137 H 97.8283 -6.94781 0.174586 0
M  V30 1138 H 101.019 -4.67782 -0.172583 0
M  V30 1139 H 101.192 -6.47999 0.0137562 0
M  V30 1140 N 94.5984 0.214957 -1.56127 0
M  V30 1141 C 95.8474 0.936451 -1.78643 0
M  V30 1142 C 96.1604 1.85237 -0.628229 0
M  V30 1143 O 97.3664 2.613 -0.737186 0
M  V30 1144 C 95.8224 1.7154 -3.16389 0
M  V30 1145 C 95.4304 0.845299 -4.39953 0
M  V30 1146 C 97.1744 2.42772 -3.48227 0
M  V30 1147 C 95.0814 1.62198 -5.68723 0
M  V30 1148 H 94.0114 0.353401 -0.666051 0
M  V30 1149 H 96.6624 0.190169 -1.82512 0
M  V30 1150 H 95.0444 2.50484 -3.06715 0
M  V30 1151 H 96.2184 0.0959353 -4.607 0
M  V30 1152 H 94.5334 0.244789 -4.1568 0
M  V30 1153 H 97.1304 3.01394 -4.41663 0
M  V30 1154 H 97.4734 3.15984 -2.71035 0
M  V30 1155 H 98.0064 1.70813 -3.5926 0
M  V30 1156 H 94.7454 0.933011 -6.48826 0
M  V30 1157 H 94.2654 2.34579 -5.52026 0
M  V30 1158 H 95.9444 2.18095 -6.09133 0
M  V30 1159 N 96.0765 1.50051 0.48192 0
M  V30 1160 C 97.0085 1.64263 1.59844 0
M  V30 1161 C 98.0215 0.52451 1.54119 0
M  V30 1162 O 99.2105 0.797293 1.59704 0
M  V30 1163 C 96.3105 1.60102 2.98698 0
M  V30 1164 C 95.4835 2.87767 3.29407 0
M  V30 1165 C 94.5425 2.76397 4.47762 0
M  V30 1166 O 93.5685 3.50348 4.48603 0
M  V30 1167 N 94.7705 1.89222 5.48794 0
M  V30 1168 H 97.5355 2.60566 1.48073 0
M  V30 1169 H 95.0965 1.47379 0.670149 0
M  V30 1170 H 97.0885 1.50123 3.75826 0
M  V30 1171 H 95.6585 0.715798 3.04294 0
M  V30 1172 H 94.8785 3.11954 2.40994 0
M  V30 1173 H 96.1665 3.72365 3.4673 0
M  V30 1174 H 95.5645 1.28434 5.50928 0
M  V30 1175 H 94.1215 1.85154 6.24949 0
M  V30 1176 N 97.5546 -0.734337 1.39446 0
M  V30 1177 C 98.9656 -1.31264 1.32766 0
M  V30 1178 C 99.3166 -1.96198 -0.00767497 0
M  V30 1179 O 98.4416 -1.96346 -0.909796 0
M  V30 1180 C 99.0366 -2.38682 2.4045 0
M  V30 1181 C 97.5956 -2.92184 2.37288 0
M  V30 1182 C 96.7426 -1.6576 2.22304 0
M  V30 1183 H 99.6936 -0.531799 1.49525 0
M  V30 1184 H 99.7146 -3.19087 2.07276 0
M  V30 1185 H 99.2266 -1.91392 3.37625 0
M  V30 1186 H 97.3276 -3.43752 1.43754 0
M  V30 1187 H 97.4406 -3.45253 3.3217 0
M  V30 1188 H 95.8046 -1.9012 1.69489 0
M  V30 1189 H 96.5876 -1.20521 3.21449 0
M  V30 1190 N 99.0327 -1.24633 -0.964593 0
M  V30 1191 C 100.279 -1.08949 -1.71049 0
M  V30 1192 C 100.612 0.370302 -1.90637 0
M  V30 1193 O 99.8867 1.27349 -1.47011 0
M  V30 1194 C 100.17 -1.83329 -3.0994 0
M  V30 1195 C 100.023 -3.37077 -2.97824 0
M  V30 1196 C 101.342 -1.60846 -4.09654 0
M  V30 1197 H 98.4607 -0.397178 -0.620821 0
M  V30 1198 H 101.103 -1.5334 -1.12191 0
M  V30 1199 H 99.2527 -1.45597 -3.60186 0
M  V30 1200 H 100.925 -3.84425 -2.5498 0
M  V30 1201 H 99.1677 -3.65298 -2.33965 0
M  V30 1202 H 99.8387 -3.84324 -3.96231 0
M  V30 1203 H 102.315 -1.93674 -3.68279 0
M  V30 1204 H 101.191 -2.1534 -5.04896 0
M  V30 1205 H 101.452 -0.547434 -4.38698 0
M  V30 1206 N 100.511 1.16574 -1.06058 0
M  V30 1207 C 101.461 2.18854 -0.63929 0
M  V30 1208 C 102.445 1.57505 0.328798 0
M  V30 1209 O 103.637 1.76408 0.144623 0
M  V30 1210 C 100.766 3.43291 -0.0247203 0
M  V30 1211 C 99.8518 4.11722 -1.01716 0
M  V30 1212 N 100.243 4.55841 -2.19186 0
M  V30 1213 C 98.5408 4.37872 -0.847569 0
M  V30 1214 C 99.2418 5.08751 -2.82042 0
M  V30 1215 N 98.2178 5.01489 -2.09784 0
M  V30 1216 H 102.02 2.5068 -1.53417 0
M  V30 1217 H 99.5338 1.32999 -0.931935 0
M  V30 1218 H 101.531 4.15856 0.294915 0
M  V30 1219 H 100.191 3.12954 0.865448 0
M  V30 1220 H 101.202 4.49649 -2.56975 0
M  V30 1221 H 97.8788 4.17499 -0.00918848 0
M  V30 1222 H 99.2688 5.52944 -3.81709 0
M  V30 1223 N 101.989 0.842826 1.3317 0
M  V30 1224 C 103.238 0.436738 1.96915 0
M  V30 1225 C 103.551 -1.01025 1.67491 0
M  V30 1226 O 104.757 -1.5212 2.24881 0
M  V30 1227 C 103.213 0.730021 3.52418 0
M  V30 1228 C 102.821 2.19195 3.90714 0
M  V30 1229 C 104.565 0.391076 4.22695 0
M  V30 1230 C 102.472 2.42907 5.39212 0
M  V30 1231 H 101.402 0.15958 0.736919 0
M  V30 1232 H 104.053 1.03196 1.51733 0
M  V30 1233 H 102.435 0.0643755 3.95948 0
M  V30 1234 H 103.609 2.8984 3.58231 0
M  V30 1235 H 101.924 2.49425 3.33431 0
M  V30 1236 H 104.521 0.545817 5.31907 0
M  V30 1237 H 104.864 -0.666294 4.10933 0
M  V30 1238 H 105.397 1.01212 3.84709 0
M  V30 1239 H 102.136 3.47224 5.55982 0
M  V30 1240 H 101.656 1.76827 5.73142 0
M  V30 1241 H 103.335 2.2626 6.06148 0
M  V30 1242 N 103.467 -1.45747 0.599634 0
M  V30 1243 C 104.397 -2.33235 -0.111306 0
M  V30 1244 C 105.378 -1.46359 -0.866781 0
M  V30 1245 O 106.563 -1.75146 -0.838904 0
M  V30 1246 C 103.693 -3.28932 -1.11451 0
M  V30 1247 C 102.647 -4.25381 -0.472772 0
M  V30 1248 C 101.973 -5.1071 -1.58365 0
M  V30 1249 C 103.273 -5.18831 0.600948 0
M  V30 1250 H 104.967 -2.92927 0.61919 0
M  V30 1251 H 102.513 -1.40857 0.299215 0
M  V30 1252 H 104.466 -3.89002 -1.62036 0
M  V30 1253 H 103.19 -2.67381 -1.8755 0
M  V30 1254 H 101.849 -3.66598 0.0121472 0
M  V30 1255 H 101.497 -4.45533 -2.33473 0
M  V30 1256 H 101.197 -5.7604 -1.15982 0
M  V30 1257 H 102.721 -5.73647 -2.09194 0
M  V30 1258 H 104.135 -5.73019 0.179491 0
M  V30 1259 H 102.532 -5.92595 0.946076 0
M  V30 1260 H 103.602 -4.6174 1.48068 0
M  V30 1261 N 104.945 -0.338344 -1.53925 0
M  V30 1262 C 106.173 0.261298 -2.05243 0
M  V30 1263 C 106.588 1.44625 -1.21363 0
M  V30 1264 O 105.945 1.80811 -0.247736 0
M  V30 1265 C 105.996 0.681412 -3.5502 0
M  V30 1266 O 105.717 -0.456414 -4.35716 0
M  V30 1267 C 107.218 1.34232 -4.22489 0
M  V30 1268 H 104.438 0.0513685 -0.669031 0
M  V30 1269 H 106.982 -0.488822 -1.98572 0
M  V30 1270 H 105.137 1.38148 -3.61931 0
M  V30 1271 H 105.551 -0.122564 -5.24357 0
M  V30 1272 H 107.025 1.58708 -5.28693 0
M  V30 1273 H 107.502 2.29426 -3.74514 0
M  V30 1274 H 108.108 0.684424 -4.19757 0
M  V30 1275 N 106.423 1.57458 -0.0668435 0
M  V30 1276 C 107.648 1.9804 0.616027 0
M  V30 1277 C 108.073 0.944771 1.62652 0
M  V30 1278 O 107.431 -0.0902094 1.81075 0
M  V30 1279 C 107.479 3.37665 1.26549 0
M  V30 1280 O 106.583 3.36701 2.38131 0
M  V30 1281 H 105.924 0.644719 0.158849 0
M  V30 1282 H 108.454 2.04121 -0.139891 0
M  V30 1283 H 108.464 3.7474 1.6135 0
M  V30 1284 H 107.139 4.12573 0.525016 0
M  V30 1285 H 105.716 3.1139 2.0516 0
M  V30 1286 N 107.901 -0.206675 1.56239 0
M  V30 1287 C 109.147 -0.930218 1.80208 0
M  V30 1288 C 109.48 -1.83387 0.638981 0
M  V30 1289 O 108.755 -1.91119 -0.361066 0
M  V30 1290 C 109.038 -1.75641 3.1436 0
M  V30 1291 C 108.891 -0.878257 4.41142 0
M  V30 1292 C 110.21 -2.73129 3.45092 0
M  V30 1293 H 107.329 -0.336742 0.655571 0
M  V30 1294 H 109.971 -0.198222 1.88963 0
M  V30 1295 H 108.121 -2.38048 3.07027 0
M  V30 1296 H 109.793 -0.269787 4.6051 0
M  V30 1297 H 108.036 -0.184385 4.33408 0
M  V30 1298 H 108.707 -1.49106 5.3148 0
M  V30 1299 H 111.183 -2.20856 3.52649 0
M  V30 1300 H 110.059 -3.28028 4.40101 0
M  V30 1301 H 110.32 -3.51606 2.68003 0
M  V30 1302 N 109.379 -1.50304 -0.473955 0
M  V30 1303 C 110.604 -1.65175 -1.25427 0
M  V30 1304 C 111.029 -0.333673 -1.85117 0
M  V30 1305 O 110.387 0.702114 -1.67153 0
M  V30 1306 C 110.435 -2.74295 -2.34082 0
M  V30 1307 O 109.539 -2.35349 -3.38651 0
M  V30 1308 H 108.88 -0.551944 -0.369126 0
M  V30 1309 H 111.41 -1.96662 -0.564364 0
M  V30 1310 H 111.42 -2.97285 -2.79438 0
M  V30 1311 H 110.095 -3.69959 -1.90008 0
M  V30 1312 H 108.672 -2.22794 -2.99027 0
M  V30 1313 N 110.857 0.726932 -1.39834 0
M  V30 1314 C 112.082 1.52121 -1.40976 0
M  V30 1315 C 112.507 1.88098 -0.00826029 0
M  V30 1316 O 111.865 1.52479 0.980807 0
M  V30 1317 C 111.913 2.78021 -2.29644 0
M  V30 1318 O 111.017 3.74272 -1.73188 0
M  V30 1319 H 110.358 0.45908 -0.479731 0
M  V30 1320 H 112.888 0.896207 -1.83927 0
M  V30 1321 H 112.898 3.26671 -2.44438 0
M  V30 1322 H 111.573 2.51169 -3.31492 0
M  V30 1323 H 110.15 3.33073 -1.6768 0
M  V30 1324 N 112.336 1.25143 0.95797 0
M  V30 1325 C 113.266 1.07711 2.07173 0
M  V30 1326 C 114.247 -0.0128462 1.70095 0
M  V30 1327 O 115.432 0.156061 1.93572 0
M  V30 1328 C 112.562 0.691503 3.40346 0
M  V30 1329 C 111.516 1.73132 3.9142 0
M  V30 1330 C 110.842 1.20049 5.21049 0
M  V30 1331 C 112.142 3.1294 4.1817 0
M  V30 1332 H 113.836 2.00873 2.22014 0
M  V30 1333 H 111.382 0.967191 1.06684 0
M  V30 1334 H 113.335 0.556505 4.17709 0
M  V30 1335 H 112.059 -0.275819 3.25433 0
M  V30 1336 H 110.718 1.8547 3.16222 0
M  V30 1337 H 110.366 0.223499 5.02503 0
M  V30 1338 H 110.066 1.89545 5.56189 0
M  V30 1339 H 111.59 1.07782 6.01012 0
M  V30 1340 H 113.004 3.03775 4.86203 0
M  V30 1341 H 111.401 3.79875 4.64559 0
M  V30 1342 H 112.471 3.6025 3.24573 0
M  V30 1343 N 113.814 -1.1601 1.06675 0
M  V30 1344 C 115.23 -1.38622 0.790948 0
M  V30 1345 C 115.43 -1.92109 -0.607965 0
M  V30 1346 O 114.486 -2.12239 -1.36787 0
M  V30 1347 C 115.799 -2.36347 1.85905 0
M  V30 1348 C 117.347 -2.50023 1.88301 0
M  V30 1349 C 117.822 -3.51033 2.94176 0
M  V30 1350 N 119.313 -3.58563 2.93235 0
M  V30 1351 C 120.048 -4.36521 3.71803 0
M  V30 1352 N 119.544 -5.17869 4.602 0
M  V30 1353 N 121.337 -4.31541 3.60178 0
M  V30 1354 H 113.488 -0.796294 1.96908 0
M  V30 1355 H 115.751 -0.412597 0.853503 0
M  V30 1356 H 115.457 -2.04147 2.86386 0
M  V30 1357 H 115.331 -3.36042 1.71334 0
M  V30 1358 H 117.718 -2.81524 0.884769 0
M  V30 1359 H 117.799 -1.5035 2.06951 0
M  V30 1360 H 117.443 -3.20268 3.94196 0
M  V30 1361 H 117.373 -4.50445 2.72776 0
M  V30 1362 H 119.864 -3.00496 2.29152 0
M  V30 1363 H 120.177 -5.74578 5.16797 0
M  V30 1364 H 118.522 -5.17199 4.64253 0
M  V30 1365 H 121.713 -3.67051 2.90502 0
M  V30 1366 H 121.886 -4.9205 4.21653 0
M  V30 1367 N 115.292 -0.849877 -1.32721 0
M  V30 1368 C 116.54 -0.450032 -1.97026 0
M  V30 1369 C 116.861 0.996604 -1.67609 0
M  V30 1370 O 116.131 1.6958 -0.980786 0
M  V30 1371 H 114.711 -0.163426 -0.728904 0
M  V30 1372 H 117.373 -1.08526 -1.6189 0
M  V30 1373 H 116.469 -0.591146 -3.0645 0
M  V30 1374 N 116.77 1.45427 -0.607355 0
M  V30 1375 C 117.998 2.06614 -0.108814 0
M  V30 1376 C 118.413 1.45204 1.2067 0
M  V30 1377 O 117.77 0.566132 1.73497 0
M  V30 1378 C 117.821 3.61481 0.0375347 0
M  V30 1379 O 117.542 4.20598 -1.22593 0
M  V30 1380 C 119.043 4.39652 0.567561 0
M  V30 1381 H 116.263 0.66747 -0.0687351 0
M  V30 1382 H 118.807 1.86675 -0.835022 0
M  V30 1383 H 116.962 3.80762 0.714068 0
M  V30 1384 H 117.376 5.1377 -1.05547 0
M  V30 1385 H 118.85 5.48518 0.61905 0
M  V30 1386 H 119.327 4.09417 1.58978 0
M  V30 1387 H 119.933 4.25234 -0.0749202 0
M  V30 1388 N 118.248 0.346503 1.53744 0
M  V30 1389 C 119.664 -0.00530975 1.59599 0
M  V30 1390 C 119.864 -1.48465 1.36236 0
M  V30 1391 O 118.92 -2.24376 1.15808 0
M  V30 1392 C 120.233 0.433516 2.97559 0
M  V30 1393 C 121.781 0.386111 3.10609 0
M  V30 1394 C 122.256 0.800451 4.50951 0
M  V30 1395 N 123.747 0.754753 4.5701 0
M  V30 1396 C 124.482 1.04727 5.63755 0
M  V30 1397 N 123.978 1.4081 6.7834 0
M  V30 1398 N 125.771 0.971316 5.53644 0
M  V30 1399 H 117.922 1.31009 1.67184 0
M  V30 1400 H 120.185 0.534242 0.783128 0
M  V30 1401 H 119.891 1.46509 3.19731 0
M  V30 1402 H 119.765 -0.189753 3.76722 0
M  V30 1403 H 122.152 -0.636295 2.88158 0
M  V30 1404 H 122.233 1.04462 2.33498 0
M  V30 1405 H 121.877 1.82088 4.74137 0
M  V30 1406 H 121.807 0.119386 5.26465 0
M  V30 1407 H 124.298 0.488662 3.74727 0
M  V30 1408 H 124.611 1.61607 7.55714 0
M  V30 1409 H 122.956 1.44657 6.79779 0
M  V30 1410 H 126.147 0.688748 4.63005 0
M  V30 1411 H 126.32 1.20263 6.36742 0
M  V30 1412 N 119.726 -1.57421 0.075193 0
M  V30 1413 C 120.636 -2.1642 -0.905511 0
M  V30 1414 C 121.652 -1.12828 -1.32461 0
M  V30 1415 O 122.828 -1.45109 -1.39661 0
M  V30 1416 C 119.893 -2.71693 -2.15369 0
M  V30 1417 C 118.954 -3.90171 -1.79068 0
M  V30 1418 C 118.187 -4.42798 -2.97936 0
M  V30 1419 O 118.41 -3.94416 -4.12058 0
M  V30 1420 O 117.344 -5.34085 -2.77555 0
M  V30 1421 H 121.17 -3.00588 -0.433626 0
M  V30 1422 H 118.755 -1.48664 -0.148067 0
M  V30 1423 H 120.637 -3.07104 -2.88557 0
M  V30 1424 H 119.312 -1.90582 -2.61649 0
M  V30 1425 H 118.219 -3.59606 -1.03122 0
M  V30 1426 H 119.552 -4.72584 -1.37569 0
M  V30 1427 N 121.204 0.198386 -1.56346 0
M  V30 1428 C 122.444 0.92609 -1.82217 0
M  V30 1429 C 122.808 1.80584 -0.652195 0
M  V30 1430 O 124.009 2.56907 -0.790716 0
M  V30 1431 C 122.28 1.72354 -3.13096 0
M  V30 1432 S 123.839 2.50371 -3.6036 0
M  V30 1433 H 120.657 0.310677 -0.639532 0
M  V30 1434 H 123.259 0.189755 -1.94577 0
M  V30 1435 H 121.963 1.0678 -3.96265 0
M  V30 1436 H 121.494 2.50175 -3.03605 0
M  V30 1437 H 123.509 3.74488 -3.25535 0
M  V30 1438 N 122.682 1.50554 0.465978 0
M  V30 1439 C 123.907 1.65838 1.24549 0
M  V30 1440 C 124.332 0.343486 1.84937 0
M  V30 1441 O 123.69 -0.69324 1.67523 0
M  V30 1442 C 123.738 2.75533 2.32624 0
M  V30 1443 O 122.842 2.37142 3.37398 0
M  V30 1444 H 122.183 0.553893 0.366194 0
M  V30 1445 H 124.713 1.96959 0.553927 0
M  V30 1446 H 124.723 2.98763 2.77857 0
M  V30 1447 H 123.398 3.70962 1.88043 0
M  V30 1448 H 121.975 2.24377 2.97841 0
M  V30 1449 N 124.16 -0.719506 1.40217 0
M  V30 1450 C 125.406 -1.48152 1.38488 0
M  V30 1451 C 125.739 -1.94195 -0.0141867 0
M  V30 1452 O 125.014 -1.67884 -0.982096 0
M  V30 1453 C 125.297 -2.71035 2.37091 0
M  V30 1454 C 125.15 -2.30912 3.86005 0
M  V30 1455 C 126.469 -3.73182 2.33288 0
M  V30 1456 H 123.588 -0.537395 0.504357 0
M  V30 1457 H 126.23 -0.821472 1.71324 0
M  V30 1458 H 124.38 -3.27352 2.0922 0
M  V30 1459 H 126.052 -1.80107 4.24687 0
M  V30 1460 H 124.295 -1.62958 4.02029 0
M  V30 1461 H 124.966 -3.18978 4.50508 0
M  V30 1462 H 127.442 -3.26485 2.57966 0
M  V30 1463 H 126.318 -4.56806 3.04334 0
M  V30 1464 H 126.579 -4.21202 1.34317 0
M  V30 1465 N 125.638 -1.25649 -0.95132 0
M  V30 1466 C 126.866 -1.13343 -1.73092 0
M  V30 1467 C 127.281 0.312434 -1.86197 0
M  V30 1468 O 126.638 1.21465 -1.36207 0
M  V30 1469 C 126.689 -1.78602 -3.14299 0
M  V30 1470 O 126.41 -3.17537 -3.01831 0
M  V30 1471 C 127.911 -1.72119 -4.08522 0
M  V30 1472 H 125.131 -0.395181 -0.542285 0
M  V30 1473 H 127.675 -1.66076 -1.19328 0
M  V30 1474 H 125.83 -1.29832 -3.64996 0
M  V30 1475 H 126.244 -3.49676 -3.90931 0
M  V30 1476 H 127.718 -2.22435 -5.052 0
M  V30 1477 H 128.195 -0.685635 -4.33815 0
M  V30 1478 H 128.801 -2.20393 -3.63741 0
M  V30 1479 N 127.117 1.15442 -1.07289 0
M  V30 1480 C 128.342 1.90638 -0.816828 0
M  V30 1481 C 128.767 1.77445 0.624083 0
M  V30 1482 O 128.125 1.10671 1.43602 0
M  V30 1483 C 128.173 3.39008 -1.22906 0
M  V30 1484 O 127.277 4.10701 -0.373975 0
M  V30 1485 H 126.618 0.593555 -0.297638 0
M  V30 1486 H 129.148 1.46198 -1.43134 0
M  V30 1487 H 129.158 3.89801 -1.20497 0
M  V30 1488 H 127.833 3.47929 -2.27856 0
M  V30 1489 H 126.41 3.70046 -0.460499 0
M  V30 1490 N 128.595 0.856903 1.32268 0
M  V30 1491 C 129.872 0.382583 1.91822 0
M  V30 1492 C 130.252 -1.13407 1.78051 0
M  V30 1493 O 129.6 -1.95673 1.18001 0
M  V30 1494 C 129.81 0.849446 3.38505 0
M  V30 1495 C 131.158 0.867936 4.15634 0
M  V30 1496 O 132.182 0.794232 3.47232 0
M  V30 1497 O 131.041 0.972286 5.37781 0
M  V30 1498 H 128.135 0.112014 0.819379 0
M  V30 1499 H 130.681 0.943952 1.41024 0
M  V30 1500 H 129.453 1.89267 3.42482 0
M  V30 1501 H 129.076 0.265652 3.96712 0
M  V30 1502 N 130.073 -1.45103 0.615059 0
M  V30 1503 C 131.003 -2.33339 -0.0865619 0
M  V30 1504 C 131.984 -1.4727 -0.851209 0
M  V30 1505 O 133.169 -1.76026 -0.820281 0
M  V30 1506 C 130.299 -3.30095 -1.07956 0
M  V30 1507 C 129.253 -4.25858 -0.427628 0
M  V30 1508 C 128.579 -5.12361 -1.5294 0
M  V30 1509 C 129.879 -5.18165 0.655944 0
M  V30 1510 H 131.573 -2.92254 0.650224 0
M  V30 1511 H 129.119 -1.40532 0.314138 0
M  V30 1512 H 131.072 -3.90698 -1.57901 0
M  V30 1513 H 129.796 -2.69355 -1.84703 0
M  V30 1514 H 128.455 -3.66564 0.0510292 0
M  V30 1515 H 128.103 -4.47984 -2.28734 0
M  V30 1516 H 127.803 -5.77238 -1.09865 0
M  V30 1517 H 129.327 -5.75833 -2.03098 0
M  V30 1518 H 130.741 -5.72796 0.240257 0
M  V30 1519 H 129.138 -5.91559 1.00888 0
M  V30 1520 H 130.208 -4.60144 1.52957 0
M  V30 1521 N 131.551 -0.354651 -1.53558 0
M  V30 1522 C 132.828 0.294281 -1.93374 0
M  V30 1523 C 133.208 1.67313 -1.28723 0
M  V30 1524 O 132.556 2.24179 -0.442247 0
M  V30 1525 C 132.766 0.355445 -3.47185 0
M  V30 1526 C 134.114 0.601007 -4.20325 0
M  V30 1527 O 135.138 0.437106 -3.53508 0
M  V30 1528 O 133.997 0.919322 -5.38712 0
M  V30 1529 H 131.091 0.174033 -0.808481 0
M  V30 1530 H 133.637 -0.406638 -1.64756 0
M  V30 1531 H 132.409 -0.611729 -3.86489 0
M  V30 1532 H 132.032 1.1027 -3.82003 0
M  V30 1533 N 133.029 1.57378 -0.0835403 0
M  V30 1534 C 134.276 1.9393 0.58287 0
M  V30 1535 C 134.604 0.964455 1.68904 0
M  V30 1536 O 133.859 -0.0179474 1.95692 0
M  V30 1537 C 134.158 3.37063 1.1884 0
M  V30 1538 C 133.824 4.50424 0.207194 0
M  V30 1539 C 132.486 4.81159 -0.0627115 0
M  V30 1540 C 134.838 5.19136 -0.463426 0
M  V30 1541 C 132.166 5.77939 -1.01012 0
M  V30 1542 C 134.518 6.16931 -1.39924 0
M  V30 1543 C 133.182 6.46078 -1.67749 0
M  V30 1544 H 132.452 0.70964 0.213287 0
M  V30 1545 H 135.099 1.90856 -0.156916 0
M  V30 1546 H 133.404 3.3666 2.00418 0
M  V30 1547 H 135.101 3.6264 1.71153 0
M  V30 1548 H 131.691 4.2646 0.427747 0
M  V30 1549 H 135.875 4.95576 -0.268034 0
M  V30 1550 H 131.131 5.98842 -1.23283 0
M  V30 1551 H 135.305 6.69273 -1.92476 0
M  V30 1552 H 132.932 7.2088 -2.41321 0
M  V30 1553 N 134.507 -0.190092 1.56449 0
M  V30 1554 C 135.918 -0.754312 1.70784 0
M  V30 1555 C 136.269 -1.83631 0.690951 0
M  V30 1556 O 135.394 -2.15868 -0.151604 0
M  V30 1557 C 135.989 -1.37503 3.09642 0
M  V30 1558 C 134.548 -1.88628 3.25725 0
M  V30 1559 C 133.695 -0.758098 2.66736 0
M  V30 1560 H 136.646 0.0350524 1.58661 0
M  V30 1561 H 136.667 -2.2445 3.0725 0
M  V30 1562 H 136.179 -0.587302 3.83631 0
M  V30 1563 H 134.28 -2.70103 2.56661 0
M  V30 1564 H 134.393 -2.04462 4.3328 0
M  V30 1565 H 132.757 -1.17369 2.26046 0
M  V30 1566 H 133.54 0.0174705 3.43296 0
M  V30 1567 N 135.985 -1.50799 -0.457987 0
M  V30 1568 C 137.213 -1.66218 -1.23203 0
M  V30 1569 C 137.628 -0.350894 -1.85511 0
M  V30 1570 O 136.985 0.668546 -1.69814 0
M  V30 1571 C 137.036 -2.76291 -2.33121 0
M  V30 1572 O 136.757 -4.02338 -1.73366 0
M  V30 1573 C 138.258 -3.028 -3.2377 0
M  V30 1574 H 135.478 -0.558361 -0.372121 0
M  V30 1575 H 138.022 -1.97099 -0.545179 0
M  V30 1576 H 136.177 -2.48068 -2.97558 0
M  V30 1577 H 136.591 -4.63312 -2.4585 0
M  V30 1578 H 138.065 -3.8345 -3.97077 0
M  V30 1579 H 138.542 -2.14385 -3.83322 0
M  V30 1580 H 139.148 -3.32604 -2.65056 0
M  V30 1581 N 137.463 0.71206 -1.40597 0
M  V30 1582 C 138.395 1.83704 -1.37061 0
M  V30 1583 C 139.408 1.60453 -0.275426 0
M  V30 1584 O 140.597 1.70262 -0.53602 0
M  V30 1585 C 137.697 3.20172 -1.11099 0
M  V30 1586 C 136.87 3.7059 -2.3234 0
M  V30 1587 C 135.929 4.85681 -2.02485 0
M  V30 1588 O 134.955 4.9815 -2.75382 0
M  V30 1589 N 136.157 5.71735 -1.00497 0
M  V30 1590 H 138.922 1.87235 -2.34016 0
M  V30 1591 H 136.483 0.893739 -1.34996 0
M  V30 1592 H 138.475 3.94768 -0.891064 0
M  V30 1593 H 137.045 3.11767 -0.227989 0
M  V30 1594 H 136.265 2.87085 -2.7014 0
M  V30 1595 H 137.553 4.01011 -3.13157 0
M  V30 1596 H 136.951 5.64275 -0.401298 0
M  V30 1597 H 135.508 6.463 -0.844942 0
M  V30 1598 N 138.941 1.26152 0.944643 0
M  V30 1599 C 140.187 1.11657 1.69294 0
M  V30 1600 C 140.52 -0.339926 1.91202 0
M  V30 1601 O 139.795 -1.24994 1.49019 0
M  V30 1602 C 140.078 1.88236 3.06984 0
M  V30 1603 C 139.931 3.41772 2.92424 0
M  V30 1604 C 141.25 1.67343 4.07043 0
M  V30 1605 H 138.369 0.407004 0.614424 0
M  V30 1606 H 141.011 1.55106 1.09737 0
M  V30 1607 H 139.161 1.51308 3.57824 0
M  V30 1608 H 140.833 3.88433 2.48832 0
M  V30 1609 H 139.076 3.68974 2.28124 0
M  V30 1610 H 139.747 3.90579 3.90067 0
M  V30 1611 H 142.223 1.99509 3.65151 0
M  V30 1612 H 141.099 2.23346 5.01406 0
M  V30 1613 H 141.36 0.617158 4.37771 0
M  V30 1614 N 140.419 -1.14872 1.07899 0
M  V30 1615 C 141.668 -1.85135 0.800499 0
M  V30 1616 C 141.981 -1.83547 -0.676014 0
M  V30 1617 O 143.187 -2.49548 -1.06948 0
M  V30 1618 C 141.643 -3.3231 1.38197 0
M  V30 1619 C 141.251 -3.42329 2.8899 0
M  V30 1620 C 142.995 -4.0772 1.18174 0
M  V30 1621 C 140.902 -4.83684 3.403 0
M  V30 1622 H 139.832 -0.693563 0.29578 0
M  V30 1623 H 142.483 -1.29532 1.29976 0
M  V30 1624 H 140.865 -3.87618 0.810431 0
M  V30 1625 H 142.039 -2.97097 3.52236 0
M  V30 1626 H 140.354 -2.80369 3.07867 0
M  V30 1627 H 142.951 -5.12049 1.5398 0
M  V30 1628 H 143.294 -4.16124 0.12117 0
M  V30 1629 H 143.827 -3.58696 1.71994 0
M  V30 1630 H 140.566 -4.80465 4.45907 0
M  V30 1631 H 140.086 -5.29474 2.81811 0
M  V30 1632 H 141.765 -5.52558 3.36584 0
M  V30 1633 N 141.898 -0.863906 -1.31812 0
M  V30 1634 C 143.309 -0.52522 -1.7916 0
M  V30 1635 C 143.66 0.957518 -1.71248 0
M  V30 1636 O 142.785 1.74734 -1.27659 0
M  V30 1637 C 143.38 -0.9466 -3.25307 0
M  V30 1638 C 141.939 -0.659668 -3.70574 0
M  V30 1639 C 141.086 -1.14126 -2.52726 0
M  V30 1640 H 144.037 -1.05022 -1.1898 0
M  V30 1641 H 144.058 -0.266766 -3.79564 0
M  V30 1642 H 143.57 -2.02579 -3.31034 0
M  V30 1643 H 141.671 0.408416 -3.70355 0
M  V30 1644 H 141.784 -1.23245 -4.62977 0
M  V30 1645 H 140.148 -0.561216 -2.4844 0
M  V30 1646 H 140.931 -2.22775 -2.61201 0
M  V30 1647 N 143.376 1.44774 -0.622745 0
M  V30 1648 C 144.306 2.33382 0.0741861 0
M  V30 1649 C 145.287 1.47719 0.843387 0
M  V30 1650 O 146.472 1.76458 0.810934 0
M  V30 1651 C 143.602 3.30663 1.06204 0
M  V30 1652 C 142.556 4.26079 0.405037 0
M  V30 1653 C 141.882 5.13165 1.5022 0
M  V30 1654 C 143.182 5.1781 -0.683414 0
M  V30 1655 H 144.876 2.91905 -0.665713 0
M  V30 1656 H 142.422 1.40363 -0.321587 0
M  V30 1657 H 144.375 3.9153 1.55827 0
M  V30 1658 H 143.099 2.70331 1.83272 0
M  V30 1659 H 141.758 3.66532 -0.0704683 0
M  V30 1660 H 141.406 4.49191 2.26355 0
M  V30 1661 H 141.106 5.77812 1.06803 0
M  V30 1662 H 142.63 5.76902 2.00041 0
M  V30 1663 H 144.044 5.72661 -0.270631 0
M  V30 1664 H 142.441 5.91015 -1.04023 0
M  V30 1665 H 143.511 4.59326 -1.55395 0
M  V30 1666 N 144.854 0.36279 1.53368 0
M  V30 1667 C 145.801 -0.485008 2.25646 0
M  V30 1668 C 146.771 -1.07982 1.2621 0
M  V30 1669 O 147.956 -1.11284 1.54986 0
M  V30 1670 C 145.096 -1.62023 3.04701 0
M  V30 1671 C 144.209 -1.05086 4.19024 0
M  V30 1672 C 143.344 -2.15496 4.85525 0
M  V30 1673 C 142.383 -1.5601 5.91884 0
M  V30 1674 N 141.52 -2.60241 6.52088 0
M  V30 1675 H 146.36 0.137864 2.97681 0
M  V30 1676 H 143.897 0.0798061 1.46883 0
M  V30 1677 H 145.855 -2.28887 3.48807 0
M  V30 1678 H 144.485 -2.2138 2.34927 0
M  V30 1679 H 143.537 -0.27259 3.79422 0
M  V30 1680 H 144.849 -0.575926 4.95464 0
M  V30 1681 H 144.003 -2.90186 5.32801 0
M  V30 1682 H 142.742 -2.66341 4.08551 0
M  V30 1683 H 141.747 -0.798338 5.43973 0
M  V30 1684 H 142.972 -1.05994 6.70777 0
M  V30 1685 H 140.918 -3.10304 5.77968 0
M  V30 1686 H 140.835 -2.17426 7.24059 0
M  V30 1687 H 142.103 -3.34641 7.04014 0
M  V30 1688 N 146.332 -1.57332 0.0918853 0
M  V30 1689 C 147.56 -1.98574 -0.581048 0
M  V30 1690 C 147.975 -0.970903 -1.61923 0
M  V30 1691 O 147.332 0.0399054 -1.82456 0
M  V30 1692 C 147.383 -3.39872 -1.23164 0
M  V30 1693 O 147.104 -4.37469 -0.234989 0
M  V30 1694 C 148.605 -3.96099 -1.99049 0
M  V30 1695 H 145.825 -0.65261 -0.156018 0
M  V30 1696 H 148.369 -2.0379 0.170225 0
M  V30 1697 H 146.524 -3.35679 -1.93386 0
M  V30 1698 H 146.938 -5.19751 -0.70418 0
M  V30 1699 H 148.412 -4.97127 -2.39934 0
M  V30 1700 H 148.889 -3.3374 -2.85507 0
M  V30 1701 H 149.495 -4.03755 -1.3365 0
M  V30 1702 N 147.81 0.181792 -1.56548 0
M  V30 1703 C 148.74 1.22765 -1.98623 0
M  V30 1704 C 149.721 1.46747 -0.860189 0
M  V30 1705 O 150.906 1.58259 -1.12551 0
M  V30 1706 C 148.036 2.56894 -2.33715 0
M  V30 1707 C 146.99 2.475 -3.49182 0
M  V30 1708 C 146.316 3.86023 -3.69986 0
M  V30 1709 C 147.616 1.98866 -4.82959 0
M  V30 1710 H 149.31 0.877942 -2.86239 0
M  V30 1711 H 146.856 0.42088 -1.37712 0
M  V30 1712 H 148.809 3.30253 -2.61746 0
M  V30 1713 H 147.533 2.93632 -1.42997 0
M  V30 1714 H 146.192 1.76596 -3.21262 0
M  V30 1715 H 145.84 4.20136 -2.76576 0
M  V30 1716 H 145.54 3.80609 -4.47672 0
M  V30 1717 H 147.064 4.60984 -4.00407 0
M  V30 1718 H 148.478 2.61992 -5.09934 0
M  V30 1719 H 146.875 2.04424 -5.64208 0
M  V30 1720 H 147.945 0.942465 -4.75653 0
M  V30 1721 N 149.288 1.51039 0.449983 0
M  V30 1722 C 150.236 1.71995 1.5659 0
M  V30 1723 C 151.23 0.586029 1.5894 0
M  V30 1724 O 152.436 0.76709 1.62837 0
M  V30 1725 H 148.811 0.543233 0.520001 0
M  V30 1726 H 150.782 2.65562 1.36085 0
M  V30 1727 C 149.531 1.8506 2.9436 0
M  V30 1728 H 148.854 2.71712 2.93279 0
M  V30 1729 H 150.294 2.0374 3.71842 0
M  V30 1730 C 148.753 0.607277 3.31382 0
M  V30 1731 O 149.283 -0.243903 4.00959 0
M  V30 1732 N 147.489 0.455073 2.87015 0
M  V30 1733 H 147.036 1.14879 2.30566 0
M  V30 1734 H 146.994 -0.375611 3.12148 0
M  V30 1735 N 150.766 -0.704594 1.40972 0
M  V30 1736 C 151.729 -1.80035 1.41845 0
M  V30 1737 C 152.729 -1.57774 0.310474 0
M  V30 1738 O 153.919 -1.64613 0.56992 0
M  V30 1739 C 151.051 -3.18284 1.22098 0
M  V30 1740 H 152.244 -1.80658 2.3938 0
M  V30 1741 H 149.797 -0.911329 1.26982 0
M  V30 1742 H 150.532 -3.23306 0.253672 0
M  V30 1743 H 150.317 -3.35843 2.02366 0
M  V30 1744 H 151.807 -3.98289 1.25522 0
M  V30 1745 N 152.244 -1.26651 -0.937939 0
M  V30 1746 C 153.49 -1.12553 -1.687 0
M  V30 1747 C 153.823 0.329782 -1.91379 0
M  V30 1748 O 153.098 1.24202 -1.4968 0
M  V30 1749 C 153.381 -1.89862 -3.05981 0
M  V30 1750 C 153.234 -3.43318 -2.90607 0
M  V30 1751 C 154.553 -1.69499 -4.0615 0
M  V30 1752 H 151.672 -0.410257 -0.612257 0
M  V30 1753 H 154.314 -1.55685 -1.08913 0
M  V30 1754 H 152.464 -1.53204 -3.57017 0
M  V30 1755 H 154.136 -3.89747 -2.46769 0
M  V30 1756 H 152.379 -3.70179 -2.26164 0
M  V30 1757 H 153.05 -3.92642 -3.8799 0
M  V30 1758 H 155.526 -2.01442 -3.64088 0
M  V30 1759 H 154.402 -2.26002 -5.00214 0
M  V30 1760 H 154.663 -0.640365 -4.37438 0
M  V30 1761 N 153.722 1.14298 -1.08507 0
M  V30 1762 C 154.685 2.17607 -0.719711 0
M  V30 1763 C 155.685 1.58907 0.245997 0
M  V30 1764 O 156.875 1.74181 0.0254081 0
M  V30 1765 C 154.007 3.40842 -0.0627695 0
M  V30 1766 H 155.2 2.51443 -1.63452 0
M  V30 1767 H 152.753 1.28963 -0.88307 0
M  V30 1768 H 153.488 3.12587 0.863716 0
M  V30 1769 H 153.273 3.84713 -0.757504 0
M  V30 1770 H 154.763 4.17221 0.177786 0
M  V30 1771 N 155.201 0.870884 1.31352 0
M  V30 1772 C 156.426 0.495957 2.01383 0
M  V30 1773 C 156.851 -0.904324 1.64935 0
M  V30 1774 O 156.209 -1.59687 0.858466 0
M  V30 1775 C 156.257 0.661433 3.54482 0
M  V30 1776 O 155.361 -0.298851 4.11316 0
M  V30 1777 H 154.702 0.197158 0.634054 0
M  V30 1778 H 157.232 1.17455 1.67527 0
M  V30 1779 H 157.242 0.555072 4.04207 0
M  V30 1780 H 155.917 1.68246 3.8035 0
M  V30 1781 H 154.494 -0.147368 3.72609 0
M  V30 1782 N 156.679 -1.44442 0.630414 0
M  V30 1783 C 157.925 -2.02351 0.134816 0
M  V30 1784 C 158.258 -1.4947 -1.23986 0
M  V30 1785 O 157.533 -0.678475 -1.82283 0
M  V30 1786 C 157.816 -3.59898 0.120707 0
M  V30 1787 C 157.669 -4.23063 1.52767 0
M  V30 1788 C 158.988 -4.36585 -0.555127 0
M  V30 1789 H 156.107 -0.73527 0.0504646 0
M  V30 1790 H 158.749 -1.72022 0.806751 0
M  V30 1791 H 156.899 -3.85868 -0.451477 0
M  V30 1792 H 158.571 -4.08202 2.14869 0
M  V30 1793 H 156.814 -3.80586 2.08175 0
M  V30 1794 H 157.485 -5.32071 1.46984 0
M  V30 1795 H 159.961 -4.16044 -0.0685429 0
M  V30 1796 H 158.837 -5.46294 -0.534185 0
M  V30 1797 H 159.098 -4.11138 -1.62535 0
M  V30 1798 N 158.157 -0.370918 -1.53173 0
M  V30 1799 C 159.568 0.107139 -1.86392 0
M  V30 1800 C 159.919 1.47714 -1.29132 0
M  V30 1801 O 159.044 2.07464 -0.615439 0
M  V30 1802 C 159.639 0.201187 -3.38202 0
M  V30 1803 C 158.198 0.623507 -3.712 0
M  V30 1804 C 157.345 -0.225978 -2.76378 0
M  V30 1805 H 160.296 -0.58951 -1.47345 0
M  V30 1806 H 160.317 1.02377 -3.66468 0
M  V30 1807 H 159.829 -0.796058 -3.79848 0
M  V30 1808 H 157.93 1.62879 -3.35114 0
M  V30 1809 H 158.043 0.394414 -4.77474 0
M  V30 1810 H 156.407 0.305962 -2.52856 0
M  V30 1811 H 157.19 -1.22086 -3.20858 0
M  V30 1812 N 159.635 1.57281 -0.100228 0
M  V30 1813 C 160.884 1.93713 0.561984 0
M  V30 1814 C 161.197 0.984492 1.69018 0
M  V30 1815 O 162.403 1.24273 2.41389 0
M  V30 1816 C 160.859 3.4421 1.05106 0
M  V30 1817 C 160.467 4.47975 -0.0476628 0
M  V30 1818 C 162.211 3.89595 1.68571 0
M  V30 1819 C 160.118 5.89631 0.457055 0
M  V30 1820 H 159.048 0.723082 0.2137 0
M  V30 1821 H 161.699 1.82644 -0.177057 0
M  V30 1822 H 160.081 3.50449 1.84395 0
M  V30 1823 H 161.255 4.53385 -0.823333 0
M  V30 1824 H 159.57 4.1223 -0.587816 0
M  V30 1825 H 162.167 4.92832 2.07414 0
M  V30 1826 H 162.51 3.28526 2.55688 0
M  V30 1827 H 163.043 3.86078 0.958562 0
M  V30 1828 H 159.782 6.54411 -0.377616 0
M  V30 1829 H 159.302 5.87681 1.19962 0
M  V30 1830 H 160.981 6.40363 0.92437 0
M  V30 1831 N 161.113 -0.173488 1.56642 0
M  V30 1832 C 162.046 -1.24353 1.91342 0
M  V30 1833 C 163.024 -1.4289 0.775965 0
M  V30 1834 O 164.208 -1.57932 1.02907 0
M  V30 1835 C 161.335 -2.60683 2.16245 0
M  V30 1836 C 160.381 -2.58894 3.38934 0
M  V30 1837 S 161.214 -2.0819 4.93373 0
M  V30 1838 C 162.37 -3.46302 5.21369 0
M  V30 1839 H 162.603 -0.947345 2.81803 0
M  V30 1840 H 160.136 -0.377958 1.49703 0
M  V30 1841 H 162.094 -3.39149 2.31275 0
M  V30 1842 H 160.755 -2.87502 1.26496 0
M  V30 1843 H 159.948 -3.59188 3.53553 0
M  V30 1844 H 159.55 -1.88522 3.2301 0
M  V30 1845 H 161.842 -4.42287 5.13214 0
M  V30 1846 H 162.785 -3.3656 6.23003 0
M  V30 1847 H 163.193 -3.42214 4.48943 0
M  V30 1848 N 162.591 -1.51276 -0.441967 0
M  V30 1849 C 163.821 -1.67273 -1.21257 0
M  V30 1850 C 164.229 -0.367624 -1.85594 0
M  V30 1851 O 163.572 0.663349 -1.71305 0
M  V30 1852 C 163.634 -2.72807 -2.34129 0
M  V30 1853 C 163.298 -4.1554 -1.90198 0
M  V30 1854 C 164.295 -5.00471 -1.40801 0
M  V30 1855 C 161.98 -4.61616 -1.9803 0
M  V30 1856 C 163.974 -6.29536 -0.998174 0
M  V30 1857 C 161.661 -5.90679 -1.56658 0
M  V30 1858 C 162.659 -6.74466 -1.07633 0
M  V30 1859 O 162.347 -8.01116 -0.668459 0
M  V30 1860 H 162.079 -0.564614 -0.371734 0
M  V30 1861 H 164.633 -1.9843 -0.530521 0
M  V30 1862 H 162.863 -2.36954 -3.05597 0
M  V30 1863 H 164.552 -2.77729 -2.96009 0
M  V30 1864 H 165.318 -4.66079 -1.34148 0
M  V30 1865 H 161.197 -3.96526 -2.35135 0
M  V30 1866 H 164.741 -6.94885 -0.61482 0
M  V30 1867 H 160.638 -6.24586 -1.62979 0
M  V30 1868 H 161.406 -8.14633 -0.794722 0
M  V30 1869 N 164.069 0.697108 -1.41344 0
M  V30 1870 C 165.294 1.49096 -1.44171 0
M  V30 1871 C 165.719 1.88038 -0.0481568 0
M  V30 1872 O 165.077 1.54525 0.948243 0
M  V30 1873 C 165.125 2.73088 -2.3549 0
M  V30 1874 O 164.229 3.70514 -1.81088 0
M  V30 1875 H 163.57 0.448801 -0.489361 0
M  V30 1876 H 166.1 0.856992 -1.85787 0
M  V30 1877 H 166.11 3.21413 -2.51312 0
M  V30 1878 H 164.785 2.44081 -3.36745 0
M  V30 1879 H 163.362 3.29441 -1.74708 0
M  V30 1880 N 165.547 1.27147 0.931209 0
M  V30 1881 C 166.793 1.14455 1.68141 0
M  V30 1882 C 167.148 -0.307172 1.89932 0
M  V30 1883 O 166.441 -1.22158 1.47607 0
M  V30 1884 C 166.635 1.8579 3.05314 0
M  V30 1885 C 166.464 3.3775 2.96909 0
M  V30 1886 C 165.234 4.07062 2.99381 0
M  V30 1887 C 167.432 4.33783 2.76291 0
M  V30 1888 N 165.414 5.45618 2.8138 0
M  V30 1889 C 166.785 5.59582 2.6696 0
M  V30 1890 C 168.84 4.23915 2.61152 0
M  V30 1891 C 167.543 6.76639 2.44033 0
M  V30 1892 C 169.569 5.40689 2.39602 0
M  V30 1893 C 168.931 6.65443 2.3101 0
M  V30 1894 H 165.03 0.473667 0.622225 0
M  V30 1895 H 167.614 1.60568 1.10118 0
M  V30 1896 H 165.785 1.42138 3.61457 0
M  V30 1897 H 167.517 1.65634 3.69253 0
M  V30 1898 H 164.272 3.585 3.09475 0
M  V30 1899 H 164.696 6.184 2.75519 0
M  V30 1900 H 169.338 3.28189 2.66555 0
M  V30 1901 H 167.056 7.72451 2.3737 0
M  V30 1902 H 170.642 5.34932 2.28778 0
M  V30 1903 H 169.522 7.54277 2.14558 0
M  V30 1904 N 167.025 -1.13721 1.09112 0
M  V30 1905 C 168.25 -1.89314 0.847053 0
M  V30 1906 C 168.675 -1.78416 -0.595774 0
M  V30 1907 O 168.033 -1.12942 -1.41823 0
M  V30 1908 C 168.081 -3.3701 1.28284 0
M  V30 1909 O 167.185 -4.10054 0.439267 0
M  V30 1910 H 166.526 -0.588745 0.307044 0
M  V30 1911 H 169.056 -1.43902 1.45442 0
M  V30 1912 H 169.066 -3.87834 1.26683 0
M  V30 1913 H 167.741 -3.4426 2.33363 0
M  V30 1914 H 166.318 -3.69266 0.519312 0
M  V30 1915 N 168.503 -0.877838 -1.30888 0
M  V30 1916 C 169.914 -0.544193 -1.78593 0
M  V30 1917 C 170.265 0.939301 -1.72254 0
M  V30 1918 O 169.39 1.7337 -1.29505 0
M  V30 1919 C 169.985 -0.98105 -3.24285 0
M  V30 1920 C 168.544 -0.698935 -3.69854 0
M  V30 1921 C 167.691 -1.168 -2.51502 0
M  V30 1922 H 170.642 -1.06278 -1.17859 0
M  V30 1923 H 170.663 -0.307009 -3.79259 0
M  V30 1924 H 170.175 -2.06079 -3.28866 0
M  V30 1925 H 168.276 0.369112 -3.70767 0
M  V30 1926 H 168.389 -1.28148 -4.61644 0
M  V30 1927 H 166.753 -0.587535 -2.47831 0
M  V30 1928 H 167.536 -2.25533 -2.58824 0
M  V30 1929 N 169.982 1.44106 -0.638065 0
M  V30 1930 C 170.912 2.33448 0.0494287 0
M  V30 1931 C 171.893 1.48606 0.827672 0
M  V30 1932 O 173.078 1.77308 0.792173 0
M  V30 1933 C 170.208 3.31771 1.02691 0
M  V30 1934 C 169.162 4.26485 0.359823 0
M  V30 1935 C 168.488 5.14729 1.44769 0
M  V30 1936 C 169.788 5.17056 -0.738296 0
M  V30 1937 H 171.482 2.91183 -0.696636 0
M  V30 1938 H 169.028 1.40014 -0.336456 0
M  V30 1939 H 170.981 3.93161 1.51666 0
M  V30 1940 H 169.705 2.7226 1.80395 0
M  V30 1941 H 168.364 3.66437 -0.10934 0
M  V30 1942 H 168.012 4.51566 2.21578 0
M  V30 1943 H 167.712 5.78913 1.00668 0
M  V30 1944 H 169.236 5.78991 1.93911 0
M  V30 1945 H 170.65 5.72342 -0.331354 0
M  V30 1946 H 169.047 5.89879 -1.10286 0
M  V30 1947 H 170.117 4.57652 -1.60258 0
M  V30 1948 N 171.46 0.379036 1.52974 0
M  V30 1949 C 172.392 -0.495963 2.2377 0
M  V30 1950 C 173.405 -1.03517 1.25651 0
M  V30 1951 O 174.594 -0.939249 1.51791 0
M  V30 1952 C 171.694 -1.69894 2.93239 0
M  V30 1953 C 170.867 -1.2889 4.17979 0
M  V30 1954 C 169.926 -2.35543 4.70538 0
M  V30 1955 O 168.952 -1.97375 5.33883 0
M  V30 1956 N 170.154 -3.67318 4.49508 0
M  V30 1957 H 172.919 0.110523 2.99496 0
M  V30 1958 H 170.48 0.204878 1.60598 0
M  V30 1959 H 172.472 -2.40747 3.25304 0
M  V30 1960 H 171.042 -2.212 2.20883 0
M  V30 1961 H 170.262 -0.409676 3.92065 0
M  V30 1962 H 171.55 -0.991443 4.99047 0
M  V30 1963 H 170.948 -4.01095 3.98923 0
M  V30 1964 H 169.505 -4.34235 4.8609 0
M  V30 1965 N 172.938 -1.57226 0.108567 0
M  V30 1966 C 173.87 -2.11809 -0.875752 0
M  V30 1967 C 174.883 -1.05839 -1.23701 0
M  V30 1968 O 176.072 -1.33245 -1.18778 0
M  V30 1969 C 173.172 -2.59411 -2.18081 0
M  V30 1970 C 172.345 -3.89364 -1.99284 0
M  V30 1971 C 171.404 -4.22672 -3.13424 0
M  V30 1972 O 170.43 -4.91668 -2.86795 0
M  V30 1973 N 171.632 -3.79154 -4.3957 0
M  V30 1974 H 174.397 -2.9689 -0.409477 0
M  V30 1975 H 171.958 -1.61721 -0.076158 0
M  V30 1976 H 173.95 -2.7873 -2.93414 0
M  V30 1977 H 172.52 -1.79268 -2.5609 0
M  V30 1978 H 171.74 -3.79059 -1.08203 0
M  V30 1979 H 173.028 -4.74358 -1.84017 0
M  V30 1980 H 172.426 -3.23486 -4.64083 0
M  V30 1981 H 170.983 -4.03602 -5.11809 0
M  V30 1982 N 174.416 0.165178 -1.56732 0
M  V30 1983 C 175.364 1.22369 -1.97809 0
M  V30 1984 C 176.358 1.45488 -0.867741 0
M  V30 1985 O 177.564 1.45995 -1.05288 0
M  V30 1986 H 173.939 0.411486 -0.629431 0
M  V30 1987 H 175.91 0.850425 -2.86025 0
M  V30 1988 C 174.659 2.55403 -2.35934 0
M  V30 1989 H 173.982 2.38438 -3.20916 0
M  V30 1990 H 175.422 3.2814 -2.68514 0
M  V30 1991 C 173.881 3.14611 -1.20506 0
M  V30 1992 O 174.411 3.98626 -0.496016 0
M  V30 1993 N 172.617 2.7379 -0.97403 0
M  V30 1994 H 172.164 2.0557 -1.55238 0
M  V30 1995 H 172.122 3.1374 -0.203573 0
M  V30 1996 N 175.894 1.51508 0.433938 0
M  V30 1997 C 177.141 1.64345 1.18309 0
M  V30 1998 C 177.469 0.361315 1.91115 0
M  V30 1999 O 176.724 -0.654753 1.84422 0
M  V30 2000 C 177.023 2.79928 2.22205 0
M  V30 2001 C 176.689 4.19078 1.66387 0
M  V30 2002 C 175.351 4.56932 1.50887 0
M  V30 2003 C 177.703 5.05894 1.25381 0
M  V30 2004 C 175.031 5.79305 0.928608 0
M  V30 2005 C 177.383 6.2885 0.687823 0
M  V30 2006 C 176.047 6.65473 0.519755 0
M  V30 2007 H 175.317 0.601381 0.432923 0
M  V30 2008 H 177.964 1.85549 0.473676 0
M  V30 2009 H 176.269 2.52959 2.99197 0
M  V30 2010 H 177.966 2.87059 2.79997 0
M  V30 2011 H 174.556 3.89234 1.79428 0
M  V30 2012 H 178.74 4.77253 1.36175 0
M  V30 2013 H 173.996 6.06324 0.786186 0
M  V30 2014 H 178.17 6.95461 0.361581 0
M  V30 2015 H 175.797 7.6017 0.0679979 0
M  V30 2016 N 177.372 -0.689602 1.41712 0
M  V30 2017 C 178.305 -1.81403 1.3845 0
M  V30 2018 C 179.283 -1.60653 0.250874 0
M  V30 2019 O 180.467 -1.83323 0.43874 0
M  V30 2020 C 177.594 -3.18176 1.1611 0
M  V30 2021 C 176.64 -3.57705 2.3227 0
M  V30 2022 S 177.473 -3.61827 3.94767 0
M  V30 2023 C 178.629 -5.01318 3.74742 0
M  V30 2024 H 178.862 -1.83893 2.33603 0
M  V30 2025 H 176.395 -0.858878 1.28307 0
M  V30 2026 H 178.353 -3.97132 1.03907 0
M  V30 2027 H 177.014 -3.13288 0.225668 0
M  V30 2028 H 176.207 -4.57082 2.12349 0
M  V30 2029 H 175.809 -2.86073 2.40911 0
M  V30 2030 H 178.101 -5.88986 3.34817 0
M  V30 2031 H 179.044 -5.26283 4.73743 0
M  V30 2032 H 179.452 -4.73138 3.07898 0
M  V30 2033 N 178.85 -1.27639 -0.924453 0
M  V30 2034 C 180.096 -1.14336 -1.67497 0
M  V30 2035 C 180.429 0.309465 -1.91718 0
M  V30 2036 O 179.704 1.22608 -1.50989 0
M  V30 2037 C 179.987 -1.93096 -3.0395 0
M  V30 2038 C 179.84 -3.46381 -2.8695 0
M  V30 2039 C 181.159 -1.73798 -4.0433 0
M  V30 2040 H 178.278 -0.416728 -0.607871 0
M  V30 2041 H 180.92 -1.56832 -1.07256 0
M  V30 2042 H 179.07 -1.56982 -3.55372 0
M  V30 2043 H 180.742 -3.92343 -2.42621 0
M  V30 2044 H 178.985 -3.72557 -2.22225 0
M  V30 2045 H 179.656 -3.96735 -3.83804 0
M  V30 2046 H 182.132 -2.05293 -3.61931 0
M  V30 2047 H 181.008 -2.31294 -4.97789 0
M  V30 2048 H 181.269 -0.686725 -4.36734 0
M  V30 2049 N 180.328 1.1314 -1.09713 0
M  V30 2050 C 181.238 2.22242 -0.751367 0
M  V30 2051 C 182.254 1.72224 0.247938 0
M  V30 2052 O 183.43 2.01205 0.0885463 0
M  V30 2053 C 180.495 3.46231 -0.180274 0
M  V30 2054 C 179.556 4.11125 -1.2359 0
M  V30 2055 C 178.789 5.29195 -0.691966 0
M  V30 2056 O 179.012 5.68342 0.48414 0
M  V30 2057 O 177.946 5.84214 -1.44838 0
M  V30 2058 H 181.772 2.54197 -1.66186 0
M  V30 2059 H 179.357 1.21331 -0.871735 0
M  V30 2060 H 181.239 4.21185 0.134739 0
M  V30 2061 H 179.914 3.1597 0.703185 0
M  V30 2062 H 178.821 3.37985 -1.60366 0
M  V30 2063 H 180.154 4.45524 -2.09211 0
M  V30 2064 N 181.806 0.884767 1.30421 0
M  V30 2065 C 183.083 0.423185 1.90967 0
M  V30 2066 C 183.463 -1.09605 1.80416 0
M  V30 2067 O 182.811 -1.93126 1.22125 0
M  V30 2068 C 183.021 0.921056 3.36627 0
M  V30 2069 C 184.369 0.955903 4.137 0
M  V30 2070 O 185.393 0.867706 3.4547 0
M  V30 2071 O 184.252 1.08614 5.35598 0
M  V30 2072 H 181.346 0.129369 0.816819 0
M  V30 2073 H 183.892 0.973653 1.3899 0
M  V30 2074 H 182.664 1.96489 3.3839 0
M  V30 2075 H 182.287 0.349741 3.96059 0
M  V30 2076 N 183.284 -1.43765 0.645699 0
M  V30 2077 C 184.194 -2.34544 -0.0512957 0
M  V30 2078 C 185.21 -1.53455 -0.82022 0
M  V30 2079 O 186.386 -1.86133 -0.769176 0
M  V30 2080 C 183.451 -3.31636 -1.01087 0
M  V30 2081 C 182.512 -4.2863 -0.239712 0
M  V30 2082 C 181.745 -5.21084 -1.15358 0
M  V30 2083 O 181.968 -5.1779 -2.39269 0
M  V30 2084 O 180.902 -5.98593 -0.630038 0
M  V30 2085 H 184.728 -2.95624 0.695718 0
M  V30 2086 H 182.313 -1.43781 0.405882 0
M  V30 2087 H 184.195 -3.9136 -1.56254 0
M  V30 2088 H 182.87 -2.73069 -1.73824 0
M  V30 2089 H 181.777 -3.72408 0.355356 0
M  V30 2090 H 183.11 -4.90157 0.447936 0
M  V30 2091 N 184.763 -0.387143 -1.52771 0
M  V30 2092 C 185.991 0.195869 -2.05971 0
M  V30 2093 C 186.406 1.40691 -1.25903 0
M  V30 2094 O 185.763 1.79931 -0.305134 0
M  V30 2095 C 185.814 0.56812 -3.57008 0
M  V30 2096 O 185.535 -0.594803 -4.34043 0
M  V30 2097 C 187.036 1.20723 -4.26545 0
M  V30 2098 H 184.256 0.0300578 -0.670326 0
M  V30 2099 H 186.8 -0.551749 -1.96916 0
M  V30 2100 H 184.955 1.26564 -3.66143 0
M  V30 2101 H 185.369 -0.289322 -5.23701 0
M  V30 2102 H 186.843 1.41807 -5.33474 0
M  V30 2103 H 187.32 2.17395 -3.81623 0
M  V30 2104 H 187.926 0.550535 -4.21722 0
M  V30 2105 N 186.241 1.57166 -0.116904 0
M  V30 2106 C 187.487 1.95412 0.542405 0
M  V30 2107 C 187.82 1.00019 1.66463 0
M  V30 2108 O 187.095 0.0370346 1.94465 0
M  V30 2109 C 187.378 3.43615 1.07708 0
M  V30 2110 C 187.231 4.49781 -0.0415868 0
M  V30 2111 C 188.55 3.93616 1.96861 0
M  V30 2112 H 185.669 0.710543 0.195696 0
M  V30 2113 H 188.311 1.89027 -0.192038 0
M  V30 2114 H 186.461 3.49187 1.70296 0
M  V30 2115 H 188.133 4.56308 -0.676793 0
M  V30 2116 H 186.376 4.28033 -0.705019 0
M  V30 2117 H 187.047 5.50733 0.373717 0
M  V30 2118 H 189.523 3.90335 1.44146 0
M  V30 2119 H 188.399 4.97838 2.3119 0
M  V30 2120 H 188.66 3.34188 2.89432 0
M  V30 2121 N 187.719 -0.156864 1.56817 0
M  V30 2122 C 188.649 -1.19589 2.00551 0
M  V30 2123 C 189.63 -1.4536 0.883426 0
M  V30 2124 O 190.815 -1.56449 1.15054 0
M  V30 2125 C 187.945 -2.53143 2.37773 0
M  V30 2126 C 186.899 -2.41913 3.53075 0
M  V30 2127 C 186.225 -3.80088 3.76081 0
M  V30 2128 C 187.525 -1.91157 4.86062 0
M  V30 2129 H 189.219 -0.832293 2.87599 0
M  V30 2130 H 186.765 -0.398918 1.38364 0
M  V30 2131 H 188.718 -3.26047 2.66967 0
M  V30 2132 H 187.442 -2.91319 1.4765 0
M  V30 2133 H 186.101 -1.71462 3.24031 0
M  V30 2134 H 185.749 -4.15683 2.83225 0
M  V30 2135 H 185.449 -3.73439 4.53671 0
M  V30 2136 H 186.973 -4.54556 4.0769 0
M  V30 2137 H 188.387 -2.53846 5.14038 0
M  V30 2138 H 186.784 -1.95422 5.67389 0
M  V30 2139 H 187.854 -0.866673 4.77092 0
M  V30 2140 N 189.197 -1.51736 -0.425897 0
M  V30 2141 C 190.147 -1.70258 -1.51645 0
M  V30 2142 C 191.131 -0.556488 -1.5097 0
M  V30 2143 O 192.323 -0.812879 -1.5723 0
M  V30 2144 C 189.452 -1.84143 -2.89735 0
M  V30 2145 C 188.538 -3.04572 -2.95122 0
M  V30 2146 N 188.929 -4.2756 -2.70233 0
M  V30 2147 C 187.227 -3.04061 -3.26286 0
M  V30 2148 C 187.928 -5.08908 -2.81757 0
M  V30 2149 N 186.904 -4.43797 -3.13919 0
M  V30 2150 H 190.706 -2.63004 -1.31172 0
M  V30 2151 H 188.22 -1.4954 -0.633375 0
M  V30 2152 H 190.217 -1.95525 -3.68206 0
M  V30 2153 H 188.877 -0.925857 -3.1122 0
M  V30 2154 H 189.888 -4.56315 -2.44943 0
M  V30 2155 H 186.565 -2.22179 -3.53473 0
M  V30 2156 H 187.955 -6.16843 -2.66372 0
M  V30 2157 N 190.675 0.682077 -1.42076 0
M  V30 2158 C 191.623 1.81707 -1.45208 0
M  V30 2159 C 192.617 1.66183 -0.328591 0
M  V30 2160 O 193.823 1.7288 -0.501264 0
M  V30 2161 H 190.198 0.599014 -0.454628 0
M  V30 2162 H 192.169 1.76183 -2.40836 0
M  V30 2163 C 190.918 3.19816 -1.36428 0
M  V30 2164 H 190.241 3.32385 -2.22171 0
M  V30 2165 H 191.681 3.99272 -1.42681 0
M  V30 2166 C 190.14 3.36809 -0.078191 0
M  V30 2167 O 190.67 3.92124 0.87188 0
M  V30 2168 N 188.876 2.906 0.00229266 0
M  V30 2169 H 188.423 2.45772 -0.771616 0
M  V30 2170 H 188.381 3.02347 0.862179 0
M  V30 2171 N 192.153 1.28127 0.917671 0
M  V30 2172 C 193.402 1.14432 1.66097 0
M  V30 2173 C 193.715 -0.307247 1.93172 0
M  V30 2174 O 194.921 -0.565259 2.65551 0
M  V30 2175 C 193.377 2.00015 2.99202 0
M  V30 2176 C 192.985 3.49889 2.79789 0
M  V30 2177 C 194.729 1.94996 3.77064 0
M  V30 2178 C 192.636 4.27636 4.08511 0
M  V30 2179 H 191.566 0.424662 0.62304 0
M  V30 2180 H 194.217 1.52628 1.01868 0
M  V30 2181 H 192.599 1.54672 3.64544 0
M  V30 2182 H 193.773 4.03162 2.23152 0
M  V30 2183 H 192.088 3.56392 2.15345 0
M  V30 2184 H 194.685 2.50354 4.72469 0
M  V30 2185 H 195.028 0.925819 4.05875 0
M  V30 2186 H 195.561 2.38287 3.18534 0
M  V30 2187 H 192.3 5.30615 3.84874 0
M  V30 2188 H 191.82 3.79137 4.64774 0
M  V30 2189 H 193.499 4.37346 4.76799 0
M  V30 2190 N 193.631 -1.12557 1.10312 0
M  V30 2191 C 195.042 -1.65574 0.862678 0
M  V30 2192 C 195.393 -1.86566 -0.607256 0
M  V30 2193 O 194.518 -1.59121 -1.46662 0
M  V30 2194 C 195.113 -3.00776 1.55947 0
M  V30 2195 C 193.672 -3.50748 1.36576 0
M  V30 2196 C 192.819 -2.25797 1.60968 0
M  V30 2197 H 195.77 -0.963552 1.26101 0
M  V30 2198 H 195.791 -3.67185 0.997753 0
M  V30 2199 H 195.303 -2.85465 2.62928 0
M  V30 2200 H 193.404 -3.71245 0.317531 0
M  V30 2201 H 193.517 -4.30289 2.10686 0
M  V30 2202 H 191.881 -2.32841 1.03234 0
M  V30 2203 H 192.664 -2.13043 2.69198 0
M  V30 2204 N 195.109 -0.891671 -1.2995 0
M  V30 2205 C 196.339 -0.527893 -1.99742 0
M  V30 2206 C 196.747 0.88979 -1.66971 0
M  V30 2207 O 196.09 1.59766 -0.906667 0
M  V30 2208 C 196.152 -0.630804 -3.53922 0
M  V30 2209 C 195.816 -2.01401 -4.10228 0
M  V30 2210 C 196.813 -2.98422 -4.25724 0
M  V30 2211 C 194.498 -2.32121 -4.45449 0
M  V30 2212 C 196.492 -4.24293 -4.75662 0
M  V30 2213 C 194.179 -3.58237 -4.95086 0
M  V30 2214 C 195.177 -4.54137 -5.10146 0
M  V30 2215 O 194.865 -5.78014 -5.58708 0
M  V30 2216 H 194.597 -0.201953 -0.645129 0
M  V30 2217 H 197.151 -1.20076 -1.66646 0
M  V30 2218 H 195.381 0.0990616 -3.86573 0
M  V30 2219 H 197.07 -0.277338 -4.04951 0
M  V30 2220 H 197.836 -2.76001 -3.98809 0
M  V30 2221 H 193.715 -1.5824 -4.32991 0
M  V30 2222 H 197.259 -4.99153 -4.87332 0
M  V30 2223 H 193.156 -3.80491 -5.21437 0
M  V30 2224 H 193.924 -5.8049 -5.77039 0
M  V30 2225 N 196.587 1.43421 -0.653314 0
M  V30 2226 C 197.52 2.2803 0.0879804 0
M  V30 2227 C 198.498 1.39833 0.82979 0
M  V30 2228 O 199.682 1.69275 0.829341 0
M  V30 2229 C 196.809 3.19247 1.13132 0
M  V30 2230 C 195.855 4.23704 0.487546 0
M  V30 2231 S 196.688 5.30377 -0.738961 0
M  V30 2232 C 197.844 6.25162 0.30384 0
M  V30 2233 H 198.077 2.90554 -0.629739 0
M  V30 2234 H 195.61 1.47934 -0.442156 0
M  V30 2235 H 197.568 3.72346 1.72827 0
M  V30 2236 H 196.229 2.55901 1.82136 0
M  V30 2237 H 195.422 4.87631 1.27407 0
M  V30 2238 H 195.024 3.73983 -0.0352915 0
M  V30 2239 H 197.316 6.67321 1.17 0
M  V30 2240 H 198.259 7.07463 -0.300402 0
M  V30 2241 H 198.667 5.60864 0.63969 0
M  V30 2242 N 198.065 0.39524 1.52563 0
M  V30 2243 C 199.313 -0.184678 2.01254 0
M  V30 2244 C 199.634 -1.46822 1.28329 0
M  V30 2245 O 198.904 -1.91666 0.405094 0
M  V30 2246 H 197.484 -0.0712355 0.743596 0
M  V30 2247 H 200.146 0.528293 1.87603 0
M  V30 2248 H 199.242 -0.390681 3.09645 0
M  V30 2249 N 199.544 -1.57102 0.125237 0
M  V30 2250 C 200.821 -1.86953 -0.575142 0
M  V30 2251 C 201.201 -1.02749 -1.84407 0
M  V30 2252 O 200.549 -0.108144 -2.28244 0
M  V30 2253 C 200.759 -3.38198 -0.861583 0
M  V30 2254 C 202.107 -4.06937 -1.21192 0
M  V30 2255 O 203.131 -3.43252 -0.951645 0
M  V30 2256 O 201.99 -5.19364 -1.70068 0
M  V30 2257 H 199.084 -0.774147 -0.290906 0
M  V30 2258 H 201.63 -1.68942 0.160211 0
M  V30 2259 H 200.402 -3.91282 0.0373647 0
M  V30 2260 H 200.025 -3.61661 -1.65188 0
M  V30 2261 N 201.022 0.148545 -1.56898 0
M  V30 2262 C 201.932 1.20293 -2.01412 0
M  V30 2263 C 202.948 1.47107 -0.929273 0
M  V30 2264 O 204.124 1.58807 -1.23863 0
M  V30 2265 C 201.189 2.51682 -2.38447 0
M  V30 2266 C 200.25 2.32529 -3.60872 0
M  V30 2267 C 199.483 3.57653 -3.96132 0
M  V30 2268 O 199.706 4.63771 -3.32073 0
M  V30 2269 O 198.64 3.50408 -4.89385 0
M  V30 2270 H 202.466 0.855025 -2.91416 0
M  V30 2271 H 200.051 0.357151 -1.45068 0
M  V30 2272 H 201.933 3.29147 -2.63135 0
M  V30 2273 H 200.608 2.86006 -1.51599 0
M  V30 2274 H 199.515 1.53019 -3.41373 0
M  V30 2275 H 200.848 2.03121 -4.48333 0
M  V30 2276 N 202.5 1.5196 0.417844 0
M  V30 2277 C 203.746 1.65836 1.16732 0
M  V30 2278 C 204.079 0.382881 1.90388 0
M  V30 2279 O 203.354 -0.618368 1.84408 0
M  V30 2280 C 203.637 2.87466 2.16876 0
M  V30 2281 C 203.49 4.25041 1.47174 0
M  V30 2282 C 204.809 3.04613 3.17646 0
M  V30 2283 H 201.928 0.603515 0.423011 0
M  V30 2284 H 204.57 1.84494 0.454105 0
M  V30 2285 H 202.72 2.71689 2.777 0
M  V30 2286 H 204.392 4.52527 0.895376 0
M  V30 2287 H 202.635 4.26843 0.773806 0
M  V30 2288 H 203.306 5.06176 2.20204 0
M  V30 2289 H 205.782 3.1923 2.66892 0
M  V30 2290 H 204.658 3.91247 3.8499 0
M  V30 2291 H 204.919 2.17541 3.84874 0
M  V30 2292 N 203.978 -0.674533 1.42435 0
M  V30 2293 C 204.908 -1.80009 1.48724 0
M  V30 2294 C 205.889 -1.6659 0.343793 0
M  V30 2295 O 207.074 -1.86007 0.558137 0
M  V30 2296 C 204.204 -3.18306 1.38919 0
M  V30 2297 C 203.158 -3.46461 2.51294 0
M  V30 2298 C 202.484 -4.84335 2.26547 0
M  V30 2299 C 203.784 -3.43328 3.93603 0
M  V30 2300 H 205.478 -1.75004 2.42928 0
M  V30 2301 H 203.024 -0.840533 1.16923 0
M  V30 2302 H 204.977 -3.9678 1.41927 0
M  V30 2303 H 203.701 -3.2399 0.412094 0
M  V30 2304 H 202.36 -2.70348 2.47604 0
M  V30 2305 H 202.008 -4.86669 1.2713 0
M  V30 2306 H 201.708 -5.04136 3.01861 0
M  V30 2307 H 203.232 -5.65094 2.31304 0
M  V30 2308 H 204.646 -4.11772 3.98894 0
M  V30 2309 H 203.043 -3.74664 4.68771 0
M  V30 2310 H 204.113 -2.41897 4.20255 0
M  V30 2311 N 205.456 -1.28612 -0.910864 0
M  V30 2312 C 206.733 -1.06632 -1.63979 0
M  V30 2313 C 207.113 0.393351 -2.07403 0
M  V30 2314 O 206.461 1.37999 -1.82122 0
M  V30 2315 C 206.671 -2.0436 -2.8291 0
M  V30 2316 C 208.019 -2.34666 -3.5386 0
M  V30 2317 O 209.043 -2.02467 -2.93062 0
M  V30 2318 O 207.902 -2.89631 -4.63439 0
M  V30 2319 H 204.996 -0.407737 -0.7195 0
M  V30 2320 H 207.542 -1.39942 -0.959914 0
M  V30 2321 H 206.314 -3.02727 -2.47936 0
M  V30 2322 H 205.937 -1.71714 -3.58609 0
M  V30 2323 N 206.934 1.1197 -1.10907 0
M  V30 2324 C 207.866 2.17592 -0.720175 0
M  V30 2325 C 208.879 1.60938 0.245495 0
M  V30 2326 O 210.068 1.78476 0.0292245 0
M  V30 2327 C 207.168 3.38873 -0.0427917 0
M  V30 2328 C 206.341 4.25006 -1.03388 0
M  V30 2329 C 205.4 5.24774 -0.387075 0
M  V30 2330 O 204.426 5.59631 -1.03934 0
M  V30 2331 N 205.628 5.74208 0.852407 0
M  V30 2332 H 208.393 2.51567 -1.62893 0
M  V30 2333 H 205.954 1.27439 -0.998543 0
M  V30 2334 H 207.946 4.02703 0.401501 0
M  V30 2335 H 206.516 3.03007 0.768456 0
M  V30 2336 H 205.736 3.57716 -1.65629 0
M  V30 2337 H 207.024 4.79397 -1.70458 0
M  V30 2338 H 206.422 5.48062 1.40161 0
M  V30 2339 H 204.979 6.39901 1.23977 0
M  V30 2340 N 208.412 0.89855 1.29475 0
M  V30 2341 C 209.689 0.443416 1.90508 0
M  V30 2342 C 210.069 -1.07685 1.81569 0
M  V30 2343 O 209.417 -1.9182 1.24166 0
M  V30 2344 C 209.627 0.956708 3.35631 0
M  V30 2345 C 210.975 0.999728 4.12663 0
M  V30 2346 O 211.999 0.904299 3.4453 0
M  V30 2347 O 210.858 1.14289 5.34416 0
M  V30 2348 H 207.952 0.138025 0.815401 0
M  V30 2349 H 210.498 0.98834 1.37949 0
M  V30 2350 H 209.27 2.00067 3.36287 0
M  V30 2351 H 208.893 0.391728 3.95666 0
M  V30 2352 N 209.89 -1.43072 0.660911 0
M  V30 2353 C 211.138 -2.01323 0.177094 0
M  V30 2354 C 211.459 -1.5245 -1.2159 0
M  V30 2355 O 210.729 -0.740322 -1.81373 0
M  V30 2356 H 209.309 -0.744382 0.0624804 0
M  V30 2357 H 211.971 -1.75179 0.854305 0
M  V30 2358 H 211.067 -3.11649 0.167641 0
M  V30 2359 N 211.368 -0.403325 -1.52352 0
M  V30 2360 C 212.596 0.174012 -2.06167 0
M  V30 2361 C 213.011 1.39347 -1.27388 0
M  V30 2362 O 212.368 1.79597 -0.324201 0
M  V30 2363 C 212.419 0.530223 -3.5759 0
M  V30 2364 O 212.14 -0.640806 -4.33388 0
M  V30 2365 C 213.641 1.16192 -4.27802 0
M  V30 2366 H 210.861 0.0229464 -0.670608 0
M  V30 2367 H 213.405 -0.572604 -1.9632 0
M  V30 2368 H 211.56 1.22673 -3.67464 0
M  V30 2369 H 211.974 -0.344851 -5.23365 0
M  V30 2370 H 213.448 1.36141 -5.34948 0
M  V30 2371 H 213.925 2.13335 -3.83907 0
M  V30 2372 H 214.531 0.505775 -4.22282 0
M  V30 2373 N 212.846 1.57033 -0.133567 0
M  V30 2374 C 214.093 1.95686 0.520877 0
M  V30 2375 C 214.421 1.0177 1.6575 0
M  V30 2376 O 213.676 0.0443195 1.9565 0
M  V30 2377 C 213.975 3.40674 1.08057 0
M  V30 2378 C 213.641 4.50855 0.0637899 0
M  V30 2379 C 212.303 4.80716 -0.215757 0
M  V30 2380 C 214.655 5.17398 -0.62835 0
M  V30 2381 C 211.983 5.74433 -1.19348 0
M  V30 2382 C 214.335 6.12167 -1.5948 0
M  V30 2383 C 212.999 6.40414 -1.88218 0
M  V30 2384 H 212.269 0.716067 0.190602 0
M  V30 2385 H 214.916 1.9026 -0.217556 0
M  V30 2386 H 213.221 3.42865 1.89606 0
M  V30 2387 H 214.918 3.67902 1.59529 0
M  V30 2388 H 211.508 4.27605 0.291855 0
M  V30 2389 H 215.692 4.94472 -0.425562 0
M  V30 2390 H 210.948 5.94616 -1.42272 0
M  V30 2391 H 215.122 6.6281 -2.13671 0
M  V30 2392 H 212.749 7.12838 -2.64133 0
M  V30 2393 N 214.325 -0.140222 1.56975 0
M  V30 2394 C 215.574 -0.850152 1.82908 0
M  V30 2395 C 215.887 -1.82028 0.715892 0
M  V30 2396 O 217.093 -2.57485 0.861016 0
M  V30 2397 C 215.549 -1.5625 3.24213 0
M  V30 2398 C 215.157 -0.63443 4.43485 0
M  V30 2399 C 216.901 -2.25881 3.59413 0
M  V30 2400 C 214.808 -1.34879 5.75814 0
M  V30 2401 H 213.738 -0.321221 0.682153 0
M  V30 2402 H 216.389 -0.102874 1.83211 0
M  V30 2403 H 214.771 -2.35565 3.18316 0
M  V30 2404 H 215.945 0.12398 4.60633 0
M  V30 2405 H 214.26 -0.0461836 4.16374 0
M  V30 2406 H 216.857 -2.79978 4.5554 0
M  V30 2407 H 217.2 -3.02693 2.85802 0
M  V30 2408 H 217.733 -1.53477 3.67001 0
M  V30 2409 H 214.472 -0.622385 6.52539 0
M  V30 2410 H 213.992 -2.07974 5.6259 0
M  V30 2411 H 215.671 -1.88784 6.18845 0
M  V30 2412 N 215.803 -1.52179 -0.40978 0
M  V30 2413 C 216.713 -1.78364 -1.52392 0
M  V30 2414 C 217.729 -0.669183 -1.60617 0
M  V30 2415 O 218.905 -0.954518 -1.77344 0
M  V30 2416 C 215.97 -1.92822 -2.88133 0
M  V30 2417 C 215.031 -3.16725 -2.898 0
M  V30 2418 C 214.264 -3.30483 -4.19067 0
M  V30 2419 O 214.487 -2.49522 -5.12928 0
M  V30 2420 O 213.421 -4.2363 -4.27576 0
M  V30 2421 H 217.247 -2.72931 -1.33201 0
M  V30 2422 H 214.832 -1.37016 -0.59557 0
M  V30 2423 H 216.714 -2.04157 -3.68643 0
M  V30 2424 H 215.389 -1.01444 -3.07393 0
M  V30 2425 H 214.296 -3.10848 -2.08146 0
M  V30 2426 H 215.629 -4.07881 -2.75489 0
M  V30 2427 N 217.281 0.66697 -1.42791 0
M  V30 2428 C 218.191 1.80962 -1.49299 0
M  V30 2429 C 219.207 1.69775 -0.381108 0
M  V30 2430 O 220.383 1.91188 -0.633188 0
M  V30 2431 C 217.448 3.17156 -1.40045 0
M  V30 2432 C 216.509 3.40242 -2.6179 0
M  V30 2433 C 215.742 4.69939 -2.52969 0
M  V30 2434 O 215.965 5.48372 -1.56985 0
M  V30 2435 O 214.899 4.94441 -3.43237 0
M  V30 2436 H 218.725 1.78427 -2.45759 0
M  V30 2437 H 216.31 0.823713 -1.24641 0
M  V30 2438 H 218.192 3.98413 -1.37276 0
M  V30 2439 H 216.867 3.20312 -0.467138 0
M  V30 2440 H 215.774 2.58802 -2.70134 0
M  V30 2441 H 217.107 3.41923 -3.54047 0
M  V30 2442 N 218.759 1.29093 0.90403 0
M  V30 2443 C 219.689 1.16401 2.02418 0
M  V30 2444 C 220.67 0.0593085 1.69997 0
M  V30 2445 O 221.855 0.238021 1.92736 0
M  V30 2446 C 218.985 0.835233 3.37107 0
M  V30 2447 C 217.939 1.89578 3.83724 0
M  V30 2448 C 217.265 1.42041 5.15489 0
M  V30 2449 C 218.565 3.30394 4.04521 0
M  V30 2450 H 220.259 2.10109 2.13295 0
M  V30 2451 H 217.805 1.01157 1.02486 0
M  V30 2452 H 219.758 0.733169 4.14973 0
M  V30 2453 H 218.482 -0.137543 3.2631 0
M  V30 2454 H 217.141 1.98715 3.08071 0
M  V30 2455 H 216.789 0.436426 5.01103 0
M  V30 2456 H 216.489 2.12964 5.4765 0
M  V30 2457 H 218.013 1.33176 5.959 0
M  V30 2458 H 219.427 3.24123 4.72882 0
M  V30 2459 H 217.824 3.99237 4.48029 0
M  V30 2460 H 218.894 3.73692 3.09002 0
M  V30 2461 N 220.237 -1.11381 1.11499 0
M  V30 2462 C 221.486 -1.82494 0.858993 0
M  V30 2463 C 221.799 -1.85605 -0.617278 0
M  V30 2464 O 223.005 -2.52824 -0.989552 0
M  V30 2465 C 221.461 -3.27745 1.48699 0
M  V30 2466 C 221.069 -3.32961 2.99735 0
M  V30 2467 C 222.813 -4.03754 1.31085 0
M  V30 2468 C 220.72 -4.72612 3.55516 0
M  V30 2469 H 219.65 -0.683802 0.317696 0
M  V30 2470 H 222.301 -1.25331 1.34031 0
M  V30 2471 H 220.683 -3.84844 0.933339 0
M  V30 2472 H 221.857 -2.85741 3.61509 0
M  V30 2473 H 220.172 -2.70433 3.16631 0
M  V30 2474 H 222.769 -5.06891 1.70192 0
M  V30 2475 H 223.112 -4.15527 0.253496 0
M  V30 2476 H 223.645 -3.53043 1.83318 0
M  V30 2477 H 220.384 -4.66036 4.60967 0
M  V30 2478 H 219.904 -5.2024 2.98513 0
M  V30 2479 H 221.583 -5.4157 3.53992 0
M  V30 2480 N 221.715 -0.905404 -1.28997 0
M  V30 2481 C 222.662 -0.385892 -2.27551 0
M  V30 2482 C 223.632 0.535113 -1.57244 0
M  V30 2483 O 224.817 0.459119 -1.85194 0
M  V30 2484 C 221.957 0.375461 -3.43051 0
M  V30 2485 C 221.07 -0.577092 -4.28128 0
M  V30 2486 C 220.205 0.201879 -5.30816 0
M  V30 2487 C 219.244 -0.744829 -6.07551 0
M  V30 2488 N 218.381 9.42587e-05 -7.021 0
M  V30 2489 H 223.221 -1.23139 -2.71368 0
M  V30 2490 H 220.758 -0.618542 -1.33463 0
M  V30 2491 H 222.716 0.832992 -4.088 0
M  V30 2492 H 221.346 1.18537 -3.00248 0
M  V30 2493 H 220.398 -1.15315 -3.62501 0
M  V30 2494 H 221.71 -1.30152 -4.8152 0
M  V30 2495 H 220.864 0.720351 -6.02408 0
M  V30 2496 H 219.603 0.959413 -4.7817 0
M  V30 2497 H 218.608 -1.27475 -5.34818 0
M  V30 2498 H 219.833 -1.50178 -6.62286 0
M  V30 2499 H 217.779 0.739791 -6.51815 0
M  V30 2500 H 217.696 -0.664321 -7.53076 0
M  V30 2501 H 218.964 0.498644 -7.77903 0
M  V30 2502 N 223.193 1.4272 -0.668489 0
M  V30 2503 C 224.141 2.32586 0.0254857 0
M  V30 2504 C 225.135 1.49471 0.797176 0
M  V30 2505 O 226.341 1.65583 0.705853 0
M  V30 2506 H 222.716 0.751514 0.0270339 0
M  V30 2507 H 224.687 2.88823 -0.749936 0
M  V30 2508 C 223.436 3.3397 0.967427 0
M  V30 2509 H 222.759 3.97961 0.383048 0
M  V30 2510 H 224.199 3.9945 1.42181 0
M  V30 2511 C 222.658 2.65744 2.0708 0
M  V30 2512 O 223.188 2.48454 3.15648 0
M  V30 2513 N 221.394 2.2487 1.8407 0
M  V30 2514 H 220.941 2.39132 0.95778 0
M  V30 2515 H 220.899 1.79552 2.58086 0
M  V30 2516 N 224.671 0.411399 1.52136 0
M  V30 2517 C 225.901 -0.16284 2.05957 0
M  V30 2518 C 226.309 -1.3922 1.28119 0
M  V30 2519 O 225.652 -1.80768 0.326881 0
M  V30 2520 C 225.714 -0.575946 3.54856 0
M  V30 2521 C 225.378 0.542998 4.53763 0
M  V30 2522 C 226.375 1.40726 5.00492 0
M  V30 2523 C 224.06 0.716337 4.97166 0
M  V30 2524 C 226.054 2.4298 5.8927 0
M  V30 2525 C 223.741 1.74218 5.8574 0
M  V30 2526 C 224.739 2.59731 6.31687 0
M  V30 2527 O 224.427 3.60558 7.18507 0
M  V30 2528 H 224.159 -0.0229125 0.675612 0
M  V30 2529 H 226.713 0.581634 1.96993 0
M  V30 2530 H 224.943 -1.37274 3.61515 0
M  V30 2531 H 226.632 -1.07836 3.91313 0
M  V30 2532 H 227.398 1.28476 4.67674 0
M  V30 2533 H 223.277 0.0603857 4.6096 0
M  V30 2534 H 226.821 3.0976 6.25055 0
M  V30 2535 H 222.718 1.86498 6.17971 0
M  V30 2536 H 223.486 3.56829 7.36624 0
M  V30 2537 N 226.149 -1.5696 0.141893 0
M  V30 2538 C 227.426 -1.87553 -0.555281 0
M  V30 2539 C 227.806 -1.04699 -1.83306 0
M  V30 2540 O 227.154 -0.132346 -2.28116 0
M  V30 2541 C 227.364 -3.39093 -0.825664 0
M  V30 2542 C 228.712 -4.08199 -1.16869 0
M  V30 2543 O 229.736 -3.44242 -0.915185 0
M  V30 2544 O 228.595 -5.21139 -1.6455 0
M  V30 2545 H 225.689 -0.777188 -0.282679 0
M  V30 2546 H 228.235 -1.68763 0.17812 0
M  V30 2547 H 227.007 -3.91221 0.0788633 0
M  V30 2548 H 226.63 -3.63393 -1.61343 0
M  V30 2549 N 227.627 0.131896 -1.57047 0
M  V30 2550 C 228.875 0.840269 -1.83804 0
M  V30 2551 C 229.196 1.81017 -0.72512 0
M  V30 2552 O 228.466 1.94272 0.251995 0
M  V30 2553 H 227.046 0.313294 -0.678127 0
M  V30 2554 H 229.708 0.122294 -1.94516 0
M  V30 2555 H 228.804 1.39335 -2.79271 0
M  V30 2556 N 229.106 1.52395 0.401703 0
M  V30 2557 C 230.053 1.76268 1.48991 0
M  V30 2558 C 231.023 0.605386 1.54675 0
M  V30 2559 O 232.208 0.843742 1.7113 0
M  V30 2560 C 229.348 1.92592 2.86361 0
M  V30 2561 C 228.461 3.20259 2.89928 0
M  V30 2562 C 227.596 3.26972 4.18644 0
M  V30 2563 C 226.635 4.48812 4.16214 0
M  V30 2564 N 225.772 4.52877 5.36514 0
M  V30 2565 H 230.612 2.6914 1.27935 0
M  V30 2566 H 228.149 1.33355 0.620871 0
M  V30 2567 H 230.107 2.0004 3.66115 0
M  V30 2568 H 228.737 1.03093 3.05895 0
M  V30 2569 H 227.789 3.21945 2.02621 0
M  V30 2570 H 229.101 4.10056 2.83999 0
M  V30 2571 H 228.255 3.33533 5.06794 0
M  V30 2572 H 226.994 2.35126 4.27278 0
M  V30 2573 H 225.999 4.4239 3.26453 0
M  V30 2574 H 227.224 5.41961 4.09213 0
M  V30 2575 H 225.17 3.63917 5.45802 0
M  V30 2576 H 225.087 5.36529 5.32609 0
M  V30 2577 H 226.355 4.63676 6.26597 0
M  V30 2578 N 230.584 -0.659388 1.43143 0
M  V30 2579 C 231.83 -1.42145 1.44647 0
M  V30 2580 C 232.163 -1.9408 0.0681907 0
M  V30 2581 O 231.438 -1.71899 -0.910007 0
M  V30 2582 C 231.721 -2.60735 2.48373 0
M  V30 2583 C 231.574 -2.14332 3.95451 0
M  V30 2584 C 232.893 -3.62951 2.48906 0
M  V30 2585 H 230.012 -0.51552 0.526696 0
M  V30 2586 H 232.654 -0.748069 1.74654 0
M  V30 2587 H 230.804 -3.18184 2.22916 0
M  V30 2588 H 232.476 -1.61932 4.31944 0
M  V30 2589 H 230.719 -1.4576 4.08578 0
M  V30 2590 H 231.39 -2.99583 4.63631 0
M  V30 2591 H 233.866 -3.1525 2.71582 0
M  V30 2592 H 232.742 -4.43487 3.23435 0
M  V30 2593 H 233.003 -4.15126 1.52061 0
M  V30 2594 N 232.062 -1.29571 -0.897171 0
M  V30 2595 C 233.012 -1.11539 -1.98855 0
M  V30 2596 C 233.996 -0.0340716 -1.60864 0
M  V30 2597 O 235.188 -0.256062 -1.75138 0
M  V30 2598 C 232.317 -0.796603 -3.3393 0
M  V30 2599 C 231.403 -1.91758 -3.78272 0
M  V30 2600 N 231.794 -3.16143 -3.94826 0
M  V30 2601 C 230.092 -1.81119 -4.07568 0
M  V30 2602 C 230.793 -3.89293 -4.32233 0
M  V30 2603 N 229.769 -3.17255 -4.41419 0
M  V30 2604 H 233.571 -2.05894 -2.09726 0
M  V30 2605 H 231.085 -1.20732 -1.08616 0
M  V30 2606 H 233.082 -0.648459 -4.11826 0
M  V30 2607 H 231.742 0.139003 -3.24402 0
M  V30 2608 H 232.753 -3.5157 -3.80288 0
M  V30 2609 H 229.43 -0.948461 -4.06584 0
M  V30 2610 H 230.82 -4.9635 -4.52865 0
M  V30 2611 N 233.54 1.10788 -1.12088 0
M  V30 2612 C 234.788 1.8231 -0.872205 0
M  V30 2613 C 235.109 1.85419 0.603709 0
M  V30 2614 O 234.379 1.32963 1.43867 0
M  V30 2615 H 232.959 0.675137 -0.319686 0
M  V30 2616 H 235.621 1.34068 -1.41463 0
M  V30 2617 H 234.717 2.85955 -1.25045 0
M  V30 2618 N 235.018 0.912232 1.28515 0
M  V30 2619 C 236.295 0.463597 1.90027 0
M  V30 2620 C 236.675 -1.05753 1.82701 0
M  V30 2621 O 236.023 -1.90492 1.26194 0
M  V30 2622 C 236.233 0.992253 3.34597 0
M  V30 2623 C 237.581 1.04344 4.11579 0
M  V30 2624 O 238.605 0.94079 3.43551 0
M  V30 2625 O 237.464 1.1995 5.33174 0
M  V30 2626 H 234.558 0.146666 0.813891 0
M  V30 2627 H 237.104 1.00292 1.36893 0
M  V30 2628 H 235.876 2.03623 3.34146 0
M  V30 2629 H 235.499 0.433672 3.95228 0
M  V30 2630 N 236.496 -1.42363 0.676048 0
M  V30 2631 C 237.912 -1.55811 0.345718 0
M  V30 2632 C 238.112 -1.65544 -1.14879 0
M  V30 2633 O 237.168 -1.62306 -1.93424 0
M  V30 2634 C 238.481 -2.80746 1.07713 0
M  V30 2635 C 240.029 -2.9452 1.05958 0
M  V30 2636 C 240.504 -4.22318 1.77233 0
M  V30 2637 N 241.995 -4.29233 1.74108 0
M  V30 2638 C 242.73 -5.26935 2.26113 0
M  V30 2639 N 242.226 -6.30783 2.86505 0
M  V30 2640 N 244.019 -5.18741 2.1648 0
M  V30 2641 H 236.17 -1.34289 1.6456 0
M  V30 2642 H 238.433 -0.646506 0.69335 0
M  V30 2643 H 238.139 -2.79696 2.13221 0
M  V30 2644 H 238.013 -3.71676 0.64316 0
M  V30 2645 H 240.4 -2.95097 0.0128255 0
M  V30 2646 H 240.481 -2.04817 1.53244 0
M  V30 2647 H 240.125 -4.22502 2.81877 0
M  V30 2648 H 240.055 -5.10958 1.27396 0
M  V30 2649 H 242.546 -3.54814 1.30059 0
M  V30 2650 H 242.859 -7.01691 3.23805 0
M  V30 2651 H 241.204 -6.31341 2.90575 0
M  V30 2652 H 244.395 -4.36533 1.68987 0
M  V30 2653 H 244.568 -5.94721 2.57316 0
M  V30 2654 N 237.974 -0.419461 -1.51915 0
M  V30 2655 C 238.884 0.407528 -2.31033 0
M  V30 2656 C 239.9 1.04413 -1.3919 0
M  V30 2657 O 241.076 1.0434 -1.72265 0
M  V30 2658 C 238.141 1.50365 -3.12396 0
M  V30 2659 C 237.202 0.889029 -4.19994 0
M  V30 2660 C 236.435 1.93291 -4.97468 0
M  V30 2661 O 236.658 3.15259 -4.75361 0
M  V30 2662 O 235.592 1.53339 -5.8204 0
M  V30 2663 H 239.418 -0.237865 -3.02767 0
M  V30 2664 H 237.003 -0.182413 -1.48282 0
M  V30 2665 H 238.885 2.13975 -3.63032 0
M  V30 2666 H 237.56 2.13345 -2.43445 0
M  V30 2667 H 236.467 0.215353 -3.7348 0
M  V30 2668 H 237.8 0.302991 -4.91267 0
M  V30 2669 N 239.452 1.56882 -0.150215 0
M  V30 2670 C 240.692 1.98119 0.502804 0
M  V30 2671 C 241.056 1.03327 1.61826 0
M  V30 2672 O 242.257 1.33621 2.33236 0
M  V30 2673 C 240.528 3.43329 0.992988 0
M  V30 2674 S 242.087 4.0659 1.65015 0
M  V30 2675 H 238.905 0.692189 0.162467 0
M  V30 2676 H 241.507 1.93988 -0.242689 0
M  V30 2677 H 240.211 4.10046 0.170436 0
M  V30 2678 H 239.742 3.5118 1.77303 0
M  V30 2679 H 241.757 3.99906 2.93752 0
M  V30 2680 N 240.93 -0.123565 1.57115 0
M  V30 2681 C 242.178 -0.83051 1.84247 0
M  V30 2682 C 242.499 -1.80629 0.73471 0
M  V30 2683 O 241.769 -1.94403 -0.241688 0
M  V30 2684 H 240.349 -0.309694 0.679778 0
M  V30 2685 H 243.011 -0.111976 1.94578 0
M  V30 2686 H 242.107 -1.37852 2.80006 0
M  V30 2687 N 242.408 -1.52605 -0.393616 0
M  V30 2688 C 243.655 -1.67424 -1.1391 0
M  V30 2689 C 243.983 -0.411859 -1.90089 0
M  V30 2690 O 243.238 0.605626 -1.86093 0
M  V30 2691 C 243.537 -2.85721 -2.14705 0
M  V30 2692 C 243.203 -4.23342 -1.55218 0
M  V30 2693 C 241.865 -4.60771 -1.3872 0
M  V30 2694 C 244.217 -5.09041 -1.11924 0
M  V30 2695 C 241.545 -5.81563 -0.774689 0
M  V30 2696 C 243.897 -6.30452 -0.520853 0
M  V30 2697 C 242.561 -6.66617 -0.343134 0
M  V30 2698 H 241.831 -0.612648 -0.416826 0
M  V30 2699 H 244.478 -1.8674 -0.424315 0
M  V30 2700 H 242.783 -2.60803 -2.92385 0
M  V30 2701 H 244.48 -2.94382 -2.72288 0
M  V30 2702 H 241.07 -3.93855 -1.69045 0
M  V30 2703 H 245.254 -4.80695 -1.23473 0
M  V30 2704 H 240.51 -6.08196 -0.625154 0
M  V30 2705 H 244.684 -6.96175 -0.177065 0
M  V30 2706 H 242.311 -7.60083 0.133571 0
M  V30 2707 N 243.887 0.651787 -1.4349 0
M  V30 2708 C 245.136 1.40754 -1.44469 0
M  V30 2709 C 245.449 1.95463 -0.0731845 0
M  V30 2710 O 246.655 2.71471 0.0395721 0
M  V30 2711 C 245.111 2.54735 -2.5424 0
M  V30 2712 C 244.719 2.06628 -3.97504 0
M  V30 2713 C 246.463 3.32092 -2.64414 0
M  V30 2714 C 244.37 3.17829 -4.98737 0
M  V30 2715 H 243.3 0.528862 -0.53742 0
M  V30 2716 H 245.951 0.703365 -1.69485 0
M  V30 2717 H 244.333 3.2763 -2.22428 0
M  V30 2718 H 245.507 1.40734 -4.38783 0
M  V30 2719 H 243.822 1.42146 -3.91387 0
M  V30 2720 H 246.419 4.14952 -3.37223 0
M  V30 2721 H 246.762 3.80217 -1.69532 0
M  V30 2722 H 247.295 2.66279 -2.95534 0
M  V30 2723 H 244.034 2.74671 -5.95177 0
M  V30 2724 H 243.554 3.82429 -4.62069 0
M  V30 2725 H 245.233 3.82937 -5.21505 0
M  V30 2726 N 245.365 1.30045 0.890287 0
M  V30 2727 C 246.313 1.15873 2.01683 0
M  V30 2728 C 247.307 0.0719403 1.69247 0
M  V30 2729 O 248.513 0.232414 1.78493 0
M  V30 2730 H 244.888 0.358203 0.661207 0
M  V30 2731 H 246.859 2.11229 2.10772 0
M  V30 2732 C 245.608 0.861842 3.36849 0
M  V30 2733 H 244.931 1.69016 3.62317 0
M  V30 2734 H 246.371 0.802762 4.16331 0
M  V30 2735 C 244.83 -0.435132 3.34078 0
M  V30 2736 O 245.36 -1.4583 3.74295 0
M  V30 2737 N 243.566 -0.444377 2.87182 0
M  V30 2738 H 243.113 0.388723 2.5465 0
M  V30 2739 H 243.071 -1.31213 2.85711 0
M  V30 2740 N 246.843 -1.10192 1.12674 0
M  V30 2741 C 248.12 -1.78717 0.794965 0
M  V30 2742 C 248.5 -1.98628 -0.714853 0
M  V30 2743 O 247.848 -1.58135 -1.64941 0
M  V30 2744 C 248.058 -3.11546 1.5729 0
M  V30 2745 C 249.406 -3.86382 1.76052 0
M  V30 2746 O 250.43 -3.21274 1.53823 0
M  V30 2747 O 249.289 -5.03246 2.13087 0
M  V30 2748 H 246.383 -0.774702 0.289423 0
M  V30 2749 H 248.929 -1.16819 1.23091 0
M  V30 2750 H 247.701 -2.92489 2.59935 0
M  V30 2751 H 247.324 -3.81164 1.13137 0
M  V30 2752 N 248.321 -0.919034 -1.28029 0
M  V30 2753 C 249.231 -0.416756 -2.30869 0
M  V30 2754 C 250.247 0.498235 -1.66714 0
M  V30 2755 O 251.423 0.383144 -1.97722 0
M  V30 2756 C 248.488 0.330274 -3.45123 0
M  V30 2757 C 247.549 -0.618578 -4.2482 0
M  V30 2758 C 246.782 0.0928959 -5.33619 0
M  V30 2759 O 247.005 1.31375 -5.55065 0
M  V30 2760 O 245.939 -0.574499 -5.99152 0
M  V30 2761 H 249.765 -1.27043 -2.75851 0
M  V30 2762 H 247.35 -0.684052 -1.3282 0
M  V30 2763 H 249.232 0.751972 -4.14636 0
M  V30 2764 H 247.907 1.1597 -3.02213 0
M  V30 2765 H 246.814 -1.08978 -3.57875 0
M  V30 2766 H 248.147 -1.41497 -4.71423 0
M  V30 2767 N 249.799 1.42003 -0.683588 0
M  V30 2768 C 251.048 2.00638 -0.206681 0
M  V30 2769 C 251.361 1.5472 1.19671 0
M  V30 2770 O 252.567 2.05833 1.77045 0
M  V30 2771 C 251.023 3.58487 -0.318632 0
M  V30 2772 C 250.631 4.1339 -1.72663 0
M  V30 2773 C 252.375 4.24384 0.0991141 0
M  V30 2774 C 250.282 5.63633 -1.79087 0
M  V30 2775 H 249.212 0.750408 -0.0735107 0
M  V30 2776 H 251.863 1.62624 -0.850048 0
M  V30 2777 H 250.245 3.94047 0.392781 0
M  V30 2778 H 251.419 3.89273 -2.46583 0
M  V30 2779 H 249.734 3.59976 -2.09299 0
M  V30 2780 H 252.331 5.34652 0.0713833 0
M  V30 2781 H 252.674 4.00505 1.13586 0
M  V30 2782 H 253.207 3.93816 -0.561599 0
M  V30 2783 H 249.946 5.92323 -2.80774 0
M  V30 2784 H 249.466 5.89714 -1.09535 0
M  V30 2785 H 251.145 6.28201 -1.5483 0
M  V30 2786 N 251.277 0.427512 1.51691 0
M  V30 2787 C 252.524 -0.142229 2.02 0
M  V30 2788 C 252.852 -1.43566 1.31221 0
M  V30 2789 O 252.107 -1.91298 0.412744 0
M  V30 2790 C 252.406 -0.418249 3.54944 0
M  V30 2791 C 252.072 0.788187 4.43958 0
M  V30 2792 C 250.734 1.11906 4.68007 0
M  V30 2793 C 253.086 1.59347 4.96244 0
M  V30 2794 C 250.414 2.25608 5.41588 0
M  V30 2795 C 252.766 2.7214 5.71072 0
M  V30 2796 C 251.43 3.05692 5.93387 0
M  V30 2797 H 250.7 -0.0520451 0.73917 0
M  V30 2798 H 253.347 0.572697 1.82736 0
M  V30 2799 H 251.652 -1.21496 3.72486 0
M  V30 2800 H 253.349 -0.872339 3.91397 0
M  V30 2801 H 249.939 0.520344 4.2543 0
M  V30 2802 H 254.123 1.35106 4.77556 0
M  V30 2803 H 249.379 2.51929 5.57083 0
M  V30 2804 H 253.553 3.34914 6.10578 0
M  V30 2805 H 251.18 3.9391 6.50184 0
M  V30 2806 N 252.755 -1.56801 0.158532 0
M  V30 2807 C 254.001 -1.96781 -0.490405 0
M  V30 2808 C 254.334 -1.04397 -1.63753 0
M  V30 2809 O 253.609 -0.0885805 -1.94298 0
M  V30 2810 C 253.892 -3.4635 -0.985594 0
M  V30 2811 C 253.745 -4.49512 0.160824 0
M  V30 2812 C 255.064 -3.98697 -1.86355 0
M  V30 2813 H 252.183 -0.715482 -0.176788 0
M  V30 2814 H 254.825 -1.88451 0.242088 0
M  V30 2815 H 252.975 -3.53579 -1.60978 0
M  V30 2816 H 254.647 -4.54353 0.797537 0
M  V30 2817 H 252.89 -4.26013 0.818256 0
M  V30 2818 H 253.561 -5.51531 -0.227569 0
M  V30 2819 H 256.037 -3.94019 -1.33746 0
M  V30 2820 H 254.913 -5.03792 -2.17909 0
M  V30 2821 H 255.174 -3.41744 -2.8047 0
M  V30 2822 N 254.233 0.115231 -1.57178 0
M  V30 2823 C 255.143 1.15994 -2.03918 0
M  V30 2824 C 256.159 1.45103 -0.960268 0
M  V30 2825 O 257.335 1.56144 -1.27204 0
M  V30 2826 C 254.4 2.46568 -2.43732 0
M  V30 2827 C 253.461 2.24822 -3.65723 0
M  V30 2828 C 252.694 3.4917 -4.03629 0
M  V30 2829 O 252.917 4.56623 -3.41835 0
M  V30 2830 O 251.851 3.39949 -4.96708 0
M  V30 2831 H 255.677 0.793019 -2.93164 0
M  V30 2832 H 253.262 0.3263 -1.45793 0
M  V30 2833 H 255.144 3.23492 -2.70057 0
M  V30 2834 H 253.819 2.82726 -1.57631 0
M  V30 2835 H 252.726 1.45744 -3.44542 0
M  V30 2836 H 254.059 1.93566 -4.52541 0
M  V30 2837 N 255.711 1.52812 0.385517 0
M  V30 2838 C 256.641 1.80808 1.47752 0
M  V30 2839 C 257.622 0.660318 1.5676 0
M  V30 2840 O 258.807 0.908246 1.71652 0
M  V30 2841 C 255.937 1.98008 2.85324 0
M  V30 2842 C 254.891 3.13709 2.91154 0
M  V30 2843 C 254.217 3.16169 4.31209 0
M  V30 2844 C 255.517 4.52709 2.60483 0
M  V30 2845 H 257.211 2.72253 1.24573 0
M  V30 2846 H 254.757 1.31003 0.597839 0
M  V30 2847 H 256.71 2.16176 3.61726 0
M  V30 2848 H 255.434 1.03255 3.09848 0
M  V30 2849 H 254.093 2.95329 2.17201 0
M  V30 2850 H 253.741 2.19092 4.52778 0
M  V30 2851 H 253.441 3.93894 4.36029 0
M  V30 2852 H 254.965 3.36496 5.09512 0
M  V30 2853 H 256.379 4.71173 3.26602 0
M  V30 2854 H 254.776 5.32528 2.76648 0
M  V30 2855 H 255.846 4.59186 1.55809 0
M  V30 2856 N 257.189 -0.644168 1.43834 0
M  V30 2857 C 258.435 -1.40603 1.46146 0
M  V30 2858 C 258.768 -1.93997 0.0887717 0
M  V30 2859 O 258.043 -1.72854 -0.891724 0
M  V30 2860 C 258.326 -2.58086 2.51124 0
M  V30 2861 C 258.179 -2.10126 3.97702 0
M  V30 2862 C 259.498 -3.60291 2.52742 0
M  V30 2863 H 256.617 -0.509905 0.532134 0
M  V30 2864 H 259.259 -0.729502 1.75437 0
M  V30 2865 H 257.409 -3.15801 2.26278 0
M  V30 2866 H 259.081 -1.57342 4.33637 0
M  V30 2867 H 257.324 -1.41419 4.10101 0
M  V30 2868 H 257.995 -2.94649 4.66783 0
M  V30 2869 H 260.471 -3.12352 2.7491 0
M  V30 2870 H 259.347 -4.40032 3.28121 0
M  V30 2871 H 259.608 -4.1349 1.56455 0
M  V30 2872 N 258.668 -1.30515 -0.883378 0
M  V30 2873 C 259.616 -1.16941 -2.01066 0
M  V30 2874 C 260.61 -0.0809148 -1.69207 0
M  V30 2875 O 261.816 -0.241877 -1.78367 0
M  V30 2876 H 258.191 -0.361705 -0.659298 0
M  V30 2877 H 260.162 -2.12344 -2.09649 0
M  V30 2878 C 258.911 -0.879694 -3.36388 0
M  V30 2879 H 258.234 -1.70936 -3.61415 0
M  V30 2880 H 259.674 -0.82483 -4.159 0
M  V30 2881 C 258.133 0.417409 -3.34304 0
M  V30 2882 O 258.663 1.43843 -3.75063 0
M  V30 2883 N 256.869 0.429141 -2.87414 0
M  V30 2884 H 256.416 -0.402222 -2.5444 0
M  V30 2885 H 256.374 1.29696 -2.86403 0
M  V30 2886 N 260.146 1.09593 -1.13257 0
M  V30 2887 C 261.109 2.14359 -0.811358 0
M  V30 2888 C 262.109 1.59808 0.178377 0
M  V30 2889 O 263.299 1.74132 -0.0484911 0
M  V30 2890 C 260.431 3.40269 -0.207276 0
M  V30 2891 H 261.624 2.44284 -1.73969 0
M  V30 2892 H 259.177 1.25102 -0.936973 0
M  V30 2893 H 259.912 3.15969 0.73036 0
M  V30 2894 H 259.697 3.81154 -0.919992 0
M  V30 2895 H 261.187 4.176 0.000667944 0
M  V30 2896 N 261.624 0.925811 1.2754 0
M  V30 2897 C 262.554 0.440748 2.29303 0
M  V30 2898 C 263.535 -0.497971 1.62648 0
M  V30 2899 O 264.72 -0.403126 1.8997 0
M  V30 2900 C 261.85 -0.309048 3.45922 0
M  V30 2901 C 260.804 0.54166 4.24559 0
M  V30 2902 C 260.13 -0.337191 5.33636 0
M  V30 2903 C 261.43 1.80516 4.90114 0
M  V30 2904 H 263.124 1.29121 2.70126 0
M  V30 2905 H 260.67 0.622323 1.29858 0
M  V30 2906 H 262.623 -0.659315 4.1621 0
M  V30 2907 H 261.347 -1.19352 3.04011 0
M  V30 2908 H 260.006 0.874609 3.56014 0
M  V30 2909 H 259.654 -1.22056 4.87966 0
M  V30 2910 H 259.354 0.228497 5.87156 0
M  V30 2911 H 260.878 -0.683072 6.06767 0
M  V30 2912 H 262.292 1.52307 5.52698 0
M  V30 2913 H 260.689 2.3142 5.53683 0
M  V30 2914 H 261.759 2.52581 4.13921 0
M  V30 2915 N 263.102 -1.41638 0.69111 0
M  V30 2916 C 264.35 -2.00902 0.219758 0
M  V30 2917 C 264.671 -1.54994 -1.18329 0
M  V30 2918 O 263.941 -0.778628 -1.79762 0
M  V30 2919 H 262.521 -0.74289 0.0782558 0
M  V30 2920 H 265.183 -1.73327 0.891271 0
M  V30 2921 H 264.279 -3.11224 0.233708 0
M  V30 2922 N 264.58 -0.43555 -1.51462 0
M  V30 2923 C 265.512 0.41257 -2.25456 0
M  V30 2924 C 266.525 0.987822 -1.29406 0
M  V30 2925 O 267.714 0.882266 -1.55172 0
M  V30 2926 C 264.814 1.58894 -2.99342 0
M  V30 2927 C 263.987 1.13288 -4.22474 0
M  V30 2928 C 263.046 2.17917 -4.78956 0
M  V30 2929 O 262.072 1.77425 -5.40841 0
M  V30 2930 N 263.274 3.50382 -4.62832 0
M  V30 2931 H 266.039 -0.221603 -2.9888 0
M  V30 2932 H 263.6 -0.264342 -1.59727 0
M  V30 2933 H 265.592 2.28508 -3.34015 0
M  V30 2934 H 264.162 2.12849 -2.28941 0
M  V30 2935 H 263.382 0.263881 -3.93316 0
M  V30 2936 H 264.67 0.805542 -5.02383 0
M  V30 2937 H 264.068 3.86013 -4.13534 0
M  V30 2938 H 262.625 4.15895 -5.01871 0
M  V30 2939 N 266.058 1.56714 -0.166846 0
M  V30 2940 C 267.288 2.00828 0.48494 0
M  V30 2941 C 267.696 1.04612 1.57648 0
M  V30 2942 O 267.039 0.0383201 1.8366 0
M  V30 2943 C 267.101 3.4137 1.12723 0
M  V30 2944 C 266.765 4.56654 0.177886 0
M  V30 2945 C 267.762 5.16402 -0.60207 0
M  V30 2946 C 265.447 5.02244 0.0750139 0
M  V30 2947 C 267.441 6.20167 -1.47215 0
M  V30 2948 C 265.128 6.05859 -0.798649 0
M  V30 2949 C 266.126 6.64691 -1.57082 0
M  V30 2950 O 265.814 7.66297 -2.42989 0
M  V30 2951 H 265.546 0.663587 0.128953 0
M  V30 2952 H 268.1 2.03692 -0.264365 0
M  V30 2953 H 266.33 3.35406 1.92457 0
M  V30 2954 H 268.019 3.69466 1.68076 0
M  V30 2955 H 268.785 4.82065 -0.53274 0
M  V30 2956 H 264.664 4.56167 0.665812 0
M  V30 2957 H 268.208 6.66016 -2.07531 0
M  V30 2958 H 264.105 6.39621 -0.869199 0
M  V30 2959 H 264.873 7.83601 -2.36455 0
M  V30 2960 N 267.536 -0.106894 1.57237 0
M  V30 2961 C 268.484 -1.14944 2.02215 0
M  V30 2962 C 269.478 -1.42167 0.92114 0
M  V30 2963 O 270.684 -1.41987 1.10634 0
M  V30 2964 H 267.059 -0.387841 0.64427 0
M  V30 2965 H 269.03 -0.743683 2.88984 0
M  V30 2966 C 267.779 -2.4647 2.4525 0
M  V30 2967 H 267.102 -2.26363 3.29545 0
M  V30 2968 H 268.542 -3.17948 2.80508 0
M  V30 2969 C 267.001 -3.09921 1.321 0
M  V30 2970 O 267.531 -3.9651 0.643622 0
M  V30 2971 N 265.737 -2.69986 1.07497 0
M  V30 2972 H 265.284 -1.99667 1.62761 0
M  V30 2973 H 265.242 -3.12769 0.319876 0
M  V30 2974 N 269.014 -1.53014 -0.377408 0
M  V30 2975 C 270.291 -1.59215 -1.13622 0
M  V30 2976 C 270.671 -0.392407 -2.07421 0
M  V30 2977 O 270.019 0.618342 -2.19975 0
M  V30 2978 C 270.229 -2.93669 -1.88573 0
M  V30 2979 C 271.577 -3.47822 -2.43526 0
M  V30 2980 O 272.601 -2.9562 -1.98715 0
M  V30 2981 O 271.46 -4.39055 -3.25412 0
M  V30 2982 H 268.554 -0.642625 -0.52054 0
M  V30 2983 H 271.1 -1.65353 -0.381625 0
M  V30 2984 H 269.872 -3.7243 -1.20048 0
M  V30 2985 H 269.495 -2.90968 -2.70968 0
M  V30 2986 N 270.492 0.636531 -1.44174 0
M  V30 2987 C 271.769 1.39463 -1.37148 0
M  V30 2988 C 272.149 2.11082 -0.027507 0
M  V30 2989 O 271.497 2.05954 0.989716 0
M  V30 2990 C 271.707 2.36552 -2.56601 0
M  V30 2991 C 273.055 3.00048 -3.00427 0
M  V30 2992 O 274.079 2.46878 -2.56767 0
M  V30 2993 O 272.938 3.96488 -3.76111 0
M  V30 2994 H 270.032 0.623903 -0.542839 0
M  V30 2995 H 272.578 0.662039 -1.56253 0
M  V30 2996 H 271.35 1.82692 -3.46034 0
M  V30 2997 H 270.973 3.17236 -2.39681 0
M  V30 2998 N 271.97 1.30982 0.876444 0
M  V30 2999 C 273.247 1.10942 1.61094 0
M  V30 3000 C 273.627 -0.338223 2.08373 0
M  V30 3001 O 272.975 -1.33122 1.85717 0
M  V30 3002 C 273.185 2.11789 2.77392 0
M  V30 3003 C 274.533 2.43965 3.47514 0
M  V30 3004 O 275.557 2.10166 2.87591 0
M  V30 3005 O 274.416 3.01817 4.55597 0
M  V30 3006 H 271.51 0.42667 0.708436 0
M  V30 3007 H 274.056 1.42438 0.922474 0
M  V30 3008 H 272.828 3.09194 2.39823 0
M  V30 3009 H 272.451 1.81161 3.5393 0
M  V30 3010 N 273.449 -1.08991 1.13837 0
M  V30 3011 C 274.726 -1.77863 0.813876 0
M  V30 3012 C 275.106 -1.99375 -0.693746 0
M  V30 3013 O 274.454 -1.59875 -1.63255 0
M  V30 3014 C 274.664 -3.0986 1.60586 0
M  V30 3015 C 276.012 -3.84493 1.8014 0
M  V30 3016 O 277.036 -3.19624 1.57222 0
M  V30 3017 O 275.895 -5.00957 2.18413 0
M  V30 3018 H 272.989 -0.771589 0.297624 0
M  V30 3019 H 275.535 -1.15507 1.24323 0
M  V30 3020 H 274.307 -2.89715 2.63022 0
M  V30 3021 H 273.93 -3.79942 1.17173 0
M  V30 3022 N 274.927 -0.932562 -1.27047 0
M  V30 3023 C 276.204 -0.49377 -1.89265 0
M  V30 3024 C 276.584 1.02833 -1.8436 0
M  V30 3025 O 275.932 1.88461 -1.29209 0
M  V30 3026 C 276.142 -1.04536 -3.32976 0
M  V30 3027 C 277.49 -1.10879 -4.09867 0
M  V30 3028 O 278.514 -0.995327 -3.42011 0
M  V30 3029 O 277.373 -1.28417 -5.31198 0
M  V30 3030 H 274.467 -0.159596 -0.811454 0
M  V30 3031 H 277.013 -1.02457 -1.3528 0
M  V30 3032 H 275.785 -2.08913 -3.30864 0
M  V30 3033 H 275.408 -0.496494 -3.94488 0
M  V30 3034 N 276.405 1.4127 -0.698611 0
M  V30 3035 C 277.682 1.94955 -0.158762 0
M  V30 3036 C 278.062 1.63781 1.33188 0
M  V30 3037 O 277.41 0.946423 2.07979 0
M  V30 3038 C 277.62 3.46044 -0.453309 0
M  V30 3039 C 278.968 4.22872 -0.382707 0
M  V30 3040 O 279.992 3.54076 -0.388396 0
M  V30 3041 O 278.851 5.45407 -0.345463 0
M  V30 3042 H 275.945 0.82683 -0.0167505 0
M  V30 3043 H 278.491 1.50971 -0.77498 0
M  V30 3044 H 277.263 3.62028 -1.48498 0
M  V30 3045 H 276.886 3.97128 0.19373 0
M  V30 3046 N 277.883 0.443576 1.51229 0
M  V30 3047 C 279.16 -0.181038 1.9476 0
M  V30 3048 C 279.54 -1.59523 1.38259 0
M  V30 3049 O 278.888 -2.2122 0.572198 0
M  V30 3050 C 279.098 -0.152422 3.48667 0
M  V30 3051 C 280.446 -0.354923 4.23114 0
M  V30 3052 O 281.47 -0.230257 3.55455 0
M  V30 3053 O 280.329 -0.603674 5.43156 0
M  V30 3054 H 277.423 -0.1266 0.817252 0
M  V30 3055 H 279.969 0.502004 1.62105 0
M  V30 3056 H 278.741 0.836022 3.82265 0
M  V30 3057 H 278.364 -0.878107 3.87782 0
M  V30 3058 N 279.361 -1.56624 0.175154 0
M  V30 3059 C 280.609 -1.96609 -0.467885 0
M  V30 3060 C 280.93 -1.06238 -1.63519 0
M  V30 3061 O 280.2 -0.129523 -1.95471 0
M  V30 3062 H 278.78 -0.726008 -0.175845 0
M  V30 3063 H 281.442 -1.93195 0.257234 0
M  V30 3064 H 280.538 -3.00989 -0.825342 0
M  V30 3065 N 280.839 0.0985539 -1.57292 0
M  V30 3066 C 282.116 0.834155 -1.76921 0
M  V30 3067 C 282.496 1.97101 -0.755928 0
M  V30 3068 O 281.844 2.27474 0.216245 0
M  V30 3069 C 282.054 1.33194 -3.22584 0
M  V30 3070 C 283.402 1.77611 -3.85668 0
M  V30 3071 O 284.426 1.42825 -3.26312 0
M  V30 3072 O 283.285 2.4192 -4.90038 0
M  V30 3073 H 280.379 0.397628 -0.725135 0
M  V30 3074 H 282.925 0.0807044 -1.69508 0
M  V30 3075 H 281.697 0.517248 -3.87866 0
M  V30 3076 H 281.32 2.1475 -3.34616 0
M  V30 3077 N 282.317 1.53212 0.369288 0
M  V30 3078 C 283.594 1.59815 1.12776 0
M  V30 3079 C 283.974 0.403402 2.0721 0
M  V30 3080 O 283.322 -0.606667 2.20299 0
M  V30 3081 C 283.532 2.94664 1.87013 0
M  V30 3082 C 284.88 3.49109 2.41677 0
M  V30 3083 O 285.904 2.96669 1.97144 0
M  V30 3084 O 284.763 4.40775 3.23079 0
M  V30 3085 H 281.857 0.645376 0.517125 0
M  V30 3086 H 284.403 1.65553 0.37285 0
M  V30 3087 H 283.175 3.73061 1.18071 0
M  V30 3088 H 282.798 2.92401 2.69421 0
M  V30 3089 N 283.795 -0.628877 1.44509 0
M  V30 3090 C 285.206 -1.21054 1.42137 0
M  V30 3091 C 285.557 -1.95715 0.137881 0
M  V30 3092 O 284.682 -2.02554 -0.761645 0
M  V30 3093 C 285.277 -2.20189 2.57493 0
M  V30 3094 C 283.836 -2.73777 2.58308 0
M  V30 3095 C 282.983 -1.48813 2.33987 0
M  V30 3096 H 285.934 -0.41942 1.53057 0
M  V30 3097 H 285.955 -3.02833 2.30375 0
M  V30 3098 H 285.467 -1.6582 3.50892 0
M  V30 3099 H 283.568 -3.32142 1.68856 0
M  V30 3100 H 283.681 -3.19662 3.56865 0
M  V30 3101 H 282.045 -1.77024 1.83124 0
M  V30 3102 H 282.828 -0.963442 3.29504 0
M  V30 3103 N 285.273 -1.31445 -0.869486 0
M  V30 3104 C 286.183 -1.21097 -2.0093 0
M  V30 3105 C 287.199 -0.127584 -1.73532 0
M  V30 3106 O 288.375 -0.345477 -1.98415 0
M  V30 3107 C 285.44 -0.919378 -3.34288 0
M  V30 3108 C 284.501 -2.08971 -3.75006 0
M  V30 3109 C 283.734 -1.81194 -5.02001 0
M  V30 3110 O 283.957 -0.747296 -5.65484 0
M  V30 3111 O 282.891 -2.66883 -5.39497 0
M  V30 3112 H 286.717 -2.16883 -2.12592 0
M  V30 3113 H 284.302 -1.11189 -0.997868 0
M  V30 3114 H 286.184 -0.772625 -4.14257 0
M  V30 3115 H 284.859 0.00844772 -3.23699 0
M  V30 3116 H 283.766 -2.29187 -2.95676 0
M  V30 3117 H 285.099 -2.9998 -3.90221 0
M  V30 3118 N 286.751 1.08385 -1.14413 0
M  V30 3119 C 287.661 2.18856 -0.844951 0
M  V30 3120 C 288.677 1.73121 0.174668 0
M  V30 3121 O 289.853 2.014 0.00312857 0
M  V30 3122 C 286.918 3.45155 -0.32696 0
M  V30 3123 C 285.979 4.05513 -1.40916 0
M  V30 3124 C 285.212 5.25784 -0.915793 0
M  V30 3125 O 285.435 5.69884 0.242651 0
M  V30 3126 O 284.369 5.77545 -1.69487 0
M  V30 3127 H 288.195 2.46919 -1.76818 0
M  V30 3128 H 285.78 1.17524 -0.922411 0
M  V30 3129 H 287.662 4.21377 -0.0440211 0
M  V30 3130 H 286.337 3.18668 0.568539 0
M  V30 3131 H 285.244 3.30879 -1.74556 0
M  V30 3132 H 286.577 4.3625 -2.27919 0
M  V30 3133 N 288.23 0.939286 1.26551 0
M  V30 3134 C 289.646 0.641304 1.46149 0
M  V30 3135 C 289.846 -0.805964 1.84679 0
M  V30 3136 O 288.902 -1.58278 1.96734 0
M  V30 3137 C 290.215 1.6011 2.54529 0
M  V30 3138 C 291.763 1.6106 2.68382 0
M  V30 3139 C 292.238 2.55765 3.79932 0
M  V30 3140 N 293.729 2.5404 3.87322 0
M  V30 3141 C 294.464 3.24004 4.73085 0
M  V30 3142 N 293.96 4.03388 5.63249 0
M  V30 3143 N 295.753 3.12965 4.66914 0
M  V30 3144 H 287.904 1.87478 0.998285 0
M  V30 3145 H 290.167 0.805559 0.499779 0
M  V30 3146 H 289.873 2.63412 2.33039 0
M  V30 3147 H 289.747 1.35171 3.52149 0
M  V30 3148 H 292.134 0.584835 2.89247 0
M  V30 3149 H 292.215 1.90053 1.71212 0
M  V30 3150 H 291.859 3.58458 3.5982 0
M  V30 3151 H 291.789 2.24063 4.76554 0
M  V30 3152 H 294.28 1.96396 3.22858 0
M  V30 3153 H 294.593 4.5373 6.25579 0
M  V30 3154 H 292.938 4.07489 5.63008 0
M  V30 3155 H 296.129 2.50432 3.95476 0
M  V30 3156 H 296.302 3.67759 5.33533 0
M  V30 3157 N 289.708 -1.40897 0.706093 0
M  V30 3158 C 290.618 -2.3455 0.0482286 0
M  V30 3159 C 291.634 -1.56796 -0.754396 0
M  V30 3160 O 292.81 -1.89228 -0.689538 0
M  V30 3161 C 289.875 -3.35625 -0.869303 0
M  V30 3162 C 288.936 -4.29261 -0.0576994 0
M  V30 3163 C 288.169 -5.25508 -0.931531 0
M  V30 3164 O 288.392 -5.27472 -2.17092 0
M  V30 3165 O 287.326 -6.00727 -0.375587 0
M  V30 3166 H 291.152 -2.92407 0.820476 0
M  V30 3167 H 288.737 -1.4193 0.4665 0
M  V30 3168 H 290.619 -3.97635 -1.39514 0
M  V30 3169 H 289.294 -2.80196 -1.62086 0
M  V30 3170 H 288.201 -3.70566 0.512988 0
M  V30 3171 H 289.534 -4.87817 0.655426 0
M  V30 3172 N 291.186 -0.45159 -1.50991 0
M  V30 3173 C 292.096 0.358431 -2.31846 0
M  V30 3174 C 293.112 1.01438 -1.41373 0
M  V30 3175 O 294.288 1.00663 -1.74439 0
M  V30 3176 C 291.353 1.43704 -3.15515 0
M  V30 3177 C 290.414 0.799742 -4.21785 0
M  V30 3178 C 289.647 1.82696 -5.01456 0
M  V30 3179 O 289.87 3.05105 -4.81941 0
M  V30 3180 O 288.804 1.40958 -5.85162 0
M  V30 3181 H 292.63 -0.302032 -3.02194 0
M  V30 3182 H 290.215 -0.213825 -1.47862 0
M  V30 3183 H 292.097 2.06227 -3.67489 0
M  V30 3184 H 290.772 2.08133 -2.47916 0
M  V30 3185 H 289.679 0.136084 -3.73852 0
M  V30 3186 H 291.012 0.198718 -4.91799 0
M  V30 3187 N 292.664 1.56529 -0.183458 0
M  V30 3188 C 293.611 2.18546 0.742055 0
M  V30 3189 C 294.581 1.12912 1.2182 0
M  V30 3190 O 295.766 1.41115 1.28418 0
M  V30 3191 C 292.906 2.83977 1.96089 0
M  V30 3192 C 292.019 4.04105 1.52719 0
M  V30 3193 C 291.154 4.57427 2.70063 0
M  V30 3194 C 290.193 5.69938 2.23243 0
M  V30 3195 N 289.33 6.17717 3.33722 0
M  V30 3196 H 294.17 2.97284 0.206432 0
M  V30 3197 H 291.707 1.46823 0.0901571 0
M  V30 3198 H 293.665 3.20077 2.67594 0
M  V30 3199 H 292.295 2.07822 2.47002 0
M  V30 3200 H 291.347 3.73745 0.708436 0
M  V30 3201 H 292.659 4.85513 1.1436 0
M  V30 3202 H 291.813 4.95772 3.49708 0
M  V30 3203 H 290.552 3.75101 3.11689 0
M  V30 3204 H 289.557 5.31133 1.42048 0
M  V30 3205 H 290.782 6.54073 1.82661 0
M  V30 3206 H 288.728 5.38317 3.74902 0
M  V30 3207 H 288.645 6.94146 2.99495 0
M  V30 3208 H 289.913 6.60713 4.13616 0
M  V30 3209 N 294.142 -0.090211 1.57342 0
M  V30 3210 C 295.074 -1.13541 1.99101 0
M  V30 3211 C 296.087 -1.3604 0.894258 0
M  V30 3212 O 297.276 -1.34606 1.17233 0
M  V30 3213 C 294.376 -2.49001 2.29895 0
M  V30 3214 C 293.549 -2.46712 3.61182 0
M  V30 3215 C 292.608 -3.64136 3.79857 0
M  V30 3216 O 291.634 -3.46405 4.51655 0
M  V30 3217 N 292.836 -4.83802 3.20806 0
M  V30 3218 H 295.601 -0.779942 2.89373 0
M  V30 3219 H 293.162 -0.279125 1.59476 0
M  V30 3220 H 295.154 -3.26166 2.39578 0
M  V30 3221 H 293.724 -2.76619 1.45605 0
M  V30 3222 H 292.944 -1.55058 3.62423 0
M  V30 3223 H 294.232 -2.42265 4.4742 0
M  V30 3224 H 293.63 -5.01112 2.62494 0
M  V30 3225 H 292.187 -5.58543 3.35966 0
M  V30 3226 N 295.62 -1.53406 -0.361157 0
M  V30 3227 C 296.567 -1.80156 -1.44265 0
M  V30 3228 C 297.537 -0.646183 -1.53015 0
M  V30 3229 O 298.722 -0.888818 -1.68833 0
M  V30 3230 C 295.862 -2.00116 -2.81154 0
M  V30 3231 C 294.975 -3.27833 -2.81335 0
M  V30 3232 C 294.11 -3.37957 -4.09828 0
M  V30 3233 C 293.149 -4.59689 -4.04168 0
M  V30 3234 N 292.286 -4.66942 -5.24318 0
M  V30 3235 H 297.126 -2.72438 -1.20754 0
M  V30 3236 H 294.663 -1.34954 -0.585296 0
M  V30 3237 H 296.621 -2.09677 -3.60682 0
M  V30 3238 H 295.251 -1.11167 -3.03054 0
M  V30 3239 H 294.303 -3.27204 -1.94014 0
M  V30 3240 H 295.615 -4.17442 -2.73027 0
M  V30 3241 H 294.769 -3.46853 -4.97773 0
M  V30 3242 H 293.508 -2.46372 -4.20894 0
M  V30 3243 H 292.513 -4.50889 -3.14609 0
M  V30 3244 H 293.738 -5.5262 -3.947 0
M  V30 3245 H 291.684 -3.7826 -5.35962 0
M  V30 3246 H 291.601 -5.50462 -5.18197 0
M  V30 3247 H 292.869 -4.80127 -6.14084 0
M  V30 3248 N 297.098 0.621204 -1.44841 0
M  V30 3249 C 298.375 1.38 -1.38619 0
M  V30 3250 C 298.755 2.11041 -0.0498935 0
M  V30 3251 O 298.103 2.06992 0.967816 0
M  V30 3252 C 298.313 2.33817 -2.59096 0
M  V30 3253 C 299.661 2.96844 -3.03593 0
M  V30 3254 O 300.685 2.44141 -2.59371 0
M  V30 3255 O 299.544 3.92476 -3.80296 0
M  V30 3256 H 296.638 0.61811 -0.549426 0
M  V30 3257 H 299.184 0.645429 -1.56947 0
M  V30 3258 H 297.956 1.79012 -3.47952 0
M  V30 3259 H 297.579 3.14676 -2.43032 0
M  V30 3260 N 298.576 1.31904 0.862503 0
M  V30 3261 C 299.506 1.22782 1.98612 0
M  V30 3262 C 300.487 0.113362 1.69722 0
M  V30 3263 O 301.672 0.299218 1.91881 0
M  V30 3264 C 298.802 0.942058 3.34279 0
M  V30 3265 C 297.756 2.0169 3.77499 0
M  V30 3266 C 297.082 1.58369 5.10709 0
M  V30 3267 C 298.382 3.43096 3.93805 0
M  V30 3268 H 300.076 2.16788 2.06502 0
M  V30 3269 H 297.622 1.04366 0.992154 0
M  V30 3270 H 299.575 0.864818 4.1243 0
M  V30 3271 H 298.299 -0.0336603 3.26583 0
M  V30 3272 H 296.958 2.08416 3.01593 0
M  V30 3273 H 296.606 0.595628 4.99461 0
M  V30 3274 H 296.306 2.30279 5.40597 0
M  V30 3275 H 297.83 1.52067 5.91361 0
M  V30 3276 H 299.244 3.39003 4.62331 0
M  V30 3277 H 297.641 4.13288 4.35101 0
M  V30 3278 H 298.711 3.83334 2.96957 0
M  V30 3279 N 300.054 -1.07777 1.14986 0
M  V30 3280 C 300.964 -2.18404 0.856546 0
M  V30 3281 C 301.98 -1.73211 -0.165485 0
M  V30 3282 O 303.156 -2.01399 0.00755219 0
M  V30 3283 C 300.221 -3.44977 0.34526 0
M  V30 3284 C 299.282 -4.0476 1.43065 0
M  V30 3285 C 298.515 -5.25291 0.943663 0
M  V30 3286 O 298.738 -5.70004 -0.212426 0
M  V30 3287 O 297.672 -5.76638 1.72547 0
M  V30 3288 H 301.498 -2.45978 1.78125 0
M  V30 3289 H 299.083 -1.17033 0.928631 0
M  V30 3290 H 300.965 -4.21348 0.0663671 0
M  V30 3291 H 299.64 -3.18965 -0.551631 0
M  V30 3292 H 298.547 -3.29949 1.76309 0
M  V30 3293 H 299.88 -4.35035 2.30229 0
M  V30 3294 N 301.532 -0.945985 -1.26051 0
M  V30 3295 C 302.809 -0.513816 -1.88731 0
M  V30 3296 C 303.189 1.00872 -1.8544 0
M  V30 3297 O 302.537 1.8708 -1.312 0
M  V30 3298 C 302.747 -1.08062 -3.31849 0
M  V30 3299 C 304.095 -1.1522 -4.08668 0
M  V30 3300 O 305.119 -1.03155 -3.40936 0
M  V30 3301 O 303.978 -1.34044 -5.29806 0
M  V30 3302 H 301.072 -0.168193 -0.809716 0
M  V30 3303 H 303.618 -1.03886 -1.34186 0
M  V30 3304 H 302.39 -2.1241 -3.2863 0
M  V30 3305 H 302.013 -0.538307 -3.93939 0
M  V30 3306 N 303.011 1.40521 -0.713556 0
M  V30 3307 C 303.961 2.27971 -0.036165 0
M  V30 3308 C 304.945 1.43151 0.734623 0
M  V30 3309 O 306.137 1.66261 0.607158 0
M  V30 3310 C 303.266 3.31661 0.886331 0
M  V30 3311 C 302.352 4.23955 0.110836 0
M  V30 3312 N 302.743 4.97641 -0.904847 0
M  V30 3313 C 301.041 4.44674 0.343692 0
M  V30 3314 C 301.742 5.65322 -1.37064 0
M  V30 3315 N 300.718 5.39162 -0.693168 0
M  V30 3316 H 304.52 2.82384 -0.814645 0
M  V30 3317 H 302.034 1.52948 -0.545963 0
M  V30 3318 H 304.031 3.93154 1.38692 0
M  V30 3319 H 302.691 2.78808 1.66421 0
M  V30 3320 H 303.702 5.01689 -1.28563 0
M  V30 3321 H 300.379 4.02801 1.09805 0
M  V30 3322 H 301.769 6.34359 -2.21447 0
M  V30 3323 N 304.489 0.459591 1.5075 0
M  V30 3324 C 305.905 0.113092 1.59199 0
M  V30 3325 C 306.105 -1.37951 1.46874 0
M  V30 3326 O 305.161 -2.15168 1.32132 0
M  V30 3327 C 306.474 0.653043 2.93523 0
M  V30 3328 C 308.022 0.615449 3.0689 0
M  V30 3329 C 308.497 1.13275 4.43771 0
M  V30 3330 N 309.988 1.09167 4.50152 0
M  V30 3331 C 310.723 1.46256 5.54434 0
M  V30 3332 N 310.219 1.90739 6.66026 0
M  V30 3333 N 312.012 1.37932 5.44914 0
M  V30 3334 H 304.163 1.43049 1.57005 0
M  V30 3335 H 306.426 0.590861 0.741341 0
M  V30 3336 H 306.132 1.69822 3.07983 0
M  V30 3337 H 306.006 0.0902132 3.77092 0
M  V30 3338 H 308.393 -0.420793 2.92084 0
M  V30 3339 H 308.474 1.21495 2.25106 0
M  V30 3340 H 308.118 2.16757 4.59324 0
M  V30 3341 H 308.048 0.509576 5.24129 0
M  V30 3342 H 310.539 0.76528 3.7007 0
M  V30 3343 H 310.852 2.17218 7.41644 0
M  V30 3344 H 309.197 1.94683 6.67176 0
M  V30 3345 H 312.388 1.0303 4.56621 0
M  V30 3346 H 312.561 1.67164 6.26067 0
M  V30 3347 N 305.967 -1.56429 0.191757 0
M  V30 3348 C 307.244 -1.89224 -0.495332 0
M  V30 3349 C 307.624 -1.10478 -1.79883 0
M  V30 3350 O 306.972 -0.204852 -2.2758 0
M  V30 3351 C 307.182 -3.41548 -0.717367 0
M  V30 3352 C 308.53 -4.11711 -1.03823 0
M  V30 3353 O 309.554 -3.4698 -0.805204 0
M  V30 3354 O 308.413 -5.2611 -1.47887 0
M  V30 3355 H 305.507 -0.785788 -0.25781 0
M  V30 3356 H 308.053 -1.68111 0.231721 0
M  V30 3357 H 306.825 -3.90772 0.203287 0
M  V30 3358 H 306.448 -3.68342 -1.497 0
M  V30 3359 N 307.445 0.0818655 -1.57387 0
M  V30 3360 C 308.722 0.815343 -1.77796 0
M  V30 3361 C 309.102 1.96289 -0.77679 0
M  V30 3362 O 308.45 2.27691 0.192106 0
M  V30 3363 C 308.66 1.29765 -3.23978 0
M  V30 3364 C 310.008 1.7351 -3.8753 0
M  V30 3365 O 311.032 1.39356 -3.27808 0
M  V30 3366 O 309.891 2.36708 -4.92576 0
M  V30 3367 H 306.985 0.389914 -0.729312 0
M  V30 3368 H 309.531 0.0627213 -1.69584 0
M  V30 3369 H 308.303 0.47608 -3.88393 0
M  V30 3370 H 307.926 2.11189 -3.36875 0
M  V30 3371 N 308.923 1.53595 0.353017 0
M  V30 3372 C 309.87 1.80919 1.43308 0
M  V30 3373 C 310.84 0.654288 1.5267 0
M  V30 3374 O 312.025 0.897759 1.6836 0
M  V30 3375 C 309.165 2.01605 2.80089 0
M  V30 3376 C 308.278 3.29321 2.79593 0
M  V30 3377 C 307.413 3.40125 4.0803 0
M  V30 3378 C 306.452 4.61826 4.01725 0
M  V30 3379 N 305.589 4.69716 5.21834 0
M  V30 3380 H 310.429 2.73074 1.19308 0
M  V30 3381 H 307.966 1.35263 0.578131 0
M  V30 3382 H 309.924 2.11586 3.59565 0
M  V30 3383 H 308.554 1.12772 3.0246 0
M  V30 3384 H 307.606 3.28229 1.92276 0
M  V30 3385 H 308.918 4.18884 2.70809 0
M  V30 3386 H 308.072 3.49488 4.95927 0
M  V30 3387 H 306.811 2.48601 4.19582 0
M  V30 3388 H 305.816 4.52552 3.12213 0
M  V30 3389 H 307.041 5.54705 3.91764 0
M  V30 3390 H 304.987 3.81097 5.33948 0
M  V30 3391 H 304.904 5.53202 5.1527 0
M  V30 3392 H 306.172 4.83376 6.11529 0
M  V30 3393 N 310.401 -0.613514 1.45168 0
M  V30 3394 C 311.311 -1.75296 1.55912 0
M  V30 3395 C 312.327 -1.68244 0.443856 0
M  V30 3396 O 313.503 -1.88706 0.70371 0
M  V30 3397 C 310.568 -3.1174 1.5172 0
M  V30 3398 C 309.629 -3.30291 2.74238 0
M  V30 3399 C 308.862 -4.60226 2.70236 0
M  V30 3400 O 309.085 -5.42168 1.77229 0
M  V30 3401 O 308.019 -4.81361 3.61352 0
M  V30 3402 H 311.845 -1.69183 2.52212 0
M  V30 3403 H 309.43 -0.776886 1.27612 0
M  V30 3404 H 311.312 -3.93044 1.51968 0
M  V30 3405 H 309.987 -3.18357 0.585697 0
M  V30 3406 H 308.894 -2.48598 2.79553 0
M  V30 3407 H 310.227 -3.28547 3.66494 0
M  V30 3408 N 311.879 -1.3236 -0.855495 0
M  V30 3409 C 313.104 -1.2601 -1.64731 0
M  V30 3410 C 313.529 0.169068 -1.87339 0
M  V30 3411 O 312.887 1.12016 -1.42556 0
M  V30 3412 C 312.935 -2.02417 -2.98429 0
M  V30 3413 O 312.039 -1.3714 -3.8893 0
M  V30 3414 H 311.38 -0.434325 -0.502253 0
M  V30 3415 H 313.91 -1.74661 -1.06558 0
M  V30 3416 H 313.92 -2.12559 -3.48257 0
M  V30 3417 H 312.595 -3.06343 -2.81295 0
M  V30 3418 H 311.172 -1.3554 -3.47395 0
M  V30 3419 N 313.357 1.07166 -1.15556 0
M  V30 3420 C 314.773 1.31899 -0.898603 0
M  V30 3421 C 314.973 1.96333 0.453383 0
M  V30 3422 O 314.029 2.22438 1.19489 0
M  V30 3423 C 315.342 2.20826 -2.04099 0
M  V30 3424 C 316.89 2.34269 -2.07574 0
M  V30 3425 C 317.365 3.26546 -3.21141 0
M  V30 3426 N 318.856 3.34127 -3.20801 0
M  V30 3427 C 319.591 4.05595 -4.05315 0
M  V30 3428 N 319.087 4.79661 -4.99897 0
M  V30 3429 N 320.88 4.01555 -3.93332 0
M  V30 3430 H 313.031 0.637302 -2.02613 0
M  V30 3431 H 315.294 0.343468 -0.883591 0
M  V30 3432 H 315 1.80744 -3.01703 0
M  V30 3433 H 314.874 3.21364 -1.97496 0
M  V30 3434 H 317.261 2.73603 -1.10568 0
M  V30 3435 H 317.342 1.33429 -2.18244 0
M  V30 3436 H 316.986 2.87931 -4.184 0
M  V30 3437 H 316.916 4.27345 -3.07708 0
M  V30 3438 H 319.407 2.81336 -2.52306 0
M  V30 3439 H 319.72 5.31694 -5.60822 0
M  V30 3440 H 318.065 4.78671 -5.03884 0
M  V30 3441 H 321.256 3.42806 -3.18751 0
M  V30 3442 H 321.429 4.56987 -4.5942 0
M  V30 3443 N 314.835 0.952656 1.25548 0
M  V30 3444 C 316.246 0.647392 1.75116 0
M  V30 3445 C 316.597 -0.837274 1.77438 0
M  V30 3446 O 315.722 -1.65525 1.39393 0
M  V30 3447 C 316.317 1.16845 3.18014 0
M  V30 3448 C 314.876 0.913382 3.6515 0
M  V30 3449 C 314.023 1.31265 2.44264 0
M  V30 3450 H 316.974 1.12968 1.11462 0
M  V30 3451 H 316.995 0.527606 3.76824 0
M  V30 3452 H 316.507 2.24902 3.16292 0
M  V30 3453 H 314.608 -0.152316 3.72289 0
M  V30 3454 H 314.721 1.54845 4.53387 0
M  V30 3455 H 313.085 0.731028 2.43984 0
M  V30 3456 H 313.868 2.40239 2.45234 0
M  V30 3457 N 316.313 -1.40141 0.720998 0
M  V30 3458 C 317.724 -1.83678 0.334553 0
M  V30 3459 C 318.075 -1.6027 -1.13173 0
M  V30 3460 O 317.2 -1.08643 -1.87152 0
M  V30 3461 C 317.795 -3.33437 0.600437 0
M  V30 3462 C 316.354 -3.75447 0.267642 0
M  V30 3463 C 315.501 -2.63296 0.870097 0
M  V30 3464 H 318.452 -1.29331 0.919732 0
M  V30 3465 H 318.473 -3.80269 -0.132517 0
M  V30 3466 H 317.985 -3.50442 1.66768 0
M  V30 3467 H 316.086 -3.64035 -0.794329 0
M  V30 3468 H 316.199 -4.73344 0.74042 0
M  V30 3469 H 314.563 -2.52954 0.297739 0
M  V30 3470 H 315.346 -2.83112 1.94172 0
M  V30 3471 N 317.792 -0.46758 -1.50504 0
M  V30 3472 C 319.208 -0.121533 -1.59137 0
M  V30 3473 C 319.408 1.3717 -1.47603 0
M  V30 3474 O 318.464 2.14464 -1.33272 0
M  V30 3475 C 319.777 -0.6686 -2.93173 0
M  V30 3476 C 321.325 -0.631716 -3.06559 0
M  V30 3477 C 321.8 -1.15627 -4.43164 0
M  V30 3478 N 323.291 -1.11553 -4.49567 0
M  V30 3479 C 324.026 -1.49195 -5.5365 0
M  V30 3480 N 323.522 -1.94269 -6.65005 0
M  V30 3481 N 325.315 -1.4082 -5.44175 0
M  V30 3482 H 317.466 -1.4388 -1.56245 0
M  V30 3483 H 319.729 -0.594784 -0.738198 0
M  V30 3484 H 319.435 -1.71453 -3.07078 0
M  V30 3485 H 319.309 -0.11021 -3.77039 0
M  V30 3486 H 321.696 0.405297 -2.92304 0
M  V30 3487 H 321.777 -1.22687 -2.24458 0
M  V30 3488 H 321.421 -2.1919 -4.58168 0
M  V30 3489 H 321.351 -0.537365 -5.23851 0
M  V30 3490 H 323.842 -0.784895 -3.69659 0
M  V30 3491 H 324.155 -2.21148 -7.40482 0
M  V30 3492 H 322.5 -1.98219 -6.66134 0
M  V30 3493 H 325.691 -1.0545 -4.56068 0
M  V30 3494 H 325.864 -1.70481 -6.25172 0
M  V30 3495 N 319.27 1.56325 -0.20005 0
M  V30 3496 C 320.217 2.1932 0.718833 0
M  V30 3497 C 321.187 1.14198 1.20615 0
M  V30 3498 O 322.372 1.42469 1.26914 0
M  V30 3499 C 319.512 2.86041 1.93066 0
M  V30 3500 C 318.625 4.05702 1.48425 0
M  V30 3501 C 317.76 4.60266 2.65196 0
M  V30 3502 C 316.799 5.72273 2.17185 0
M  V30 3503 N 315.936 6.21221 3.27152 0
M  V30 3504 H 320.776 2.97486 0.17489 0
M  V30 3505 H 318.313 1.46911 0.0745794 0
M  V30 3506 H 320.271 3.22897 2.64184 0
M  V30 3507 H 318.901 2.1043 2.44783 0
M  V30 3508 H 317.953 3.74475 0.668755 0
M  V30 3509 H 319.265 4.86699 1.09204 0
M  V30 3510 H 318.419 4.99453 3.4443 0
M  V30 3511 H 317.158 3.78386 3.07693 0
M  V30 3512 H 316.163 5.3261 1.36407 0
M  V30 3513 H 317.388 6.55974 1.75713 0
M  V30 3514 H 315.334 5.42263 3.69171 0
M  V30 3515 H 315.251 6.97284 2.92116 0
M  V30 3516 H 316.519 6.65063 4.06585 0
M  V30 3517 N 320.748 -0.0735177 1.57428 0
M  V30 3518 C 321.995 -0.772999 1.87166 0
M  V30 3519 C 322.323 -1.77665 0.791551 0
M  V30 3520 O 321.578 -1.94541 -0.212636 0
M  V30 3521 C 321.877 -1.51799 3.23561 0
M  V30 3522 C 321.543 -0.654484 4.46125 0
M  V30 3523 C 320.205 -0.416511 4.79394 0
M  V30 3524 C 322.557 -0.0555862 5.2117 0
M  V30 3525 C 319.885 0.429869 5.85123 0
M  V30 3526 C 322.237 0.778239 6.27795 0
M  V30 3527 C 320.901 1.0261 6.59566 0
M  V30 3528 H 320.171 -0.282861 0.684888 0
M  V30 3529 H 322.818 -0.0338272 1.9147 0
M  V30 3530 H 321.123 -2.32932 3.1504 0
M  V30 3531 H 322.82 -2.06397 3.43804 0
M  V30 3532 H 319.41 -0.850091 4.20085 0
M  V30 3533 H 323.594 -0.226558 4.95783 0
M  V30 3534 H 318.85 0.630665 6.08139 0
M  V30 3535 H 323.024 1.24906 6.85107 0
M  V30 3536 H 320.651 1.68371 7.4132 0
M  V30 3537 N 322.226 -1.5378 -0.344866 0
M  V30 3538 C 323.637 -1.62428 -0.920552 0
M  V30 3539 C 323.988 -0.504747 -1.89596 0
M  V30 3540 O 323.113 0.365711 -2.13287 0
M  V30 3541 C 323.708 -2.94419 -1.67639 0
M  V30 3542 C 322.267 -3.05333 -2.20111 0
M  V30 3543 C 321.414 -2.57866 -1.01982 0
M  V30 3544 H 324.365 -1.58222 -0.123042 0
M  V30 3545 H 324.386 -2.83384 -2.53917 0
M  V30 3546 H 323.898 -3.7588 -0.966224 0
M  V30 3547 H 321.999 -2.28502 -2.94308 0
M  V30 3548 H 322.112 -4.10778 -2.46573 0
M  V30 3549 H 320.476 -2.13241 -1.39285 0
M  V30 3550 H 321.259 -3.41765 -0.324308 0
M  V30 3551 N 323.704 0.605807 -1.45491 0
M  V30 3552 C 324.929 1.39625 -1.53361 0
M  V30 3553 C 325.354 1.87351 -0.167645 0
M  V30 3554 O 324.712 1.60243 0.848051 0
M  V30 3555 C 324.76 2.57559 -2.5238 0
M  V30 3556 O 323.864 3.58248 -2.04285 0
M  V30 3557 H 323.205 0.416771 -0.516912 0
M  V30 3558 H 325.735 0.737103 -1.90861 0
M  V30 3559 H 325.745 3.0478 -2.71244 0
M  V30 3560 H 324.42 2.22171 -3.51586 0
M  V30 3561 H 322.997 3.17664 -1.95305 0
M  V30 3562 N 325.182 1.32811 0.848464 0
M  V30 3563 C 326.459 1.14334 1.58704 0
M  V30 3564 C 326.839 -0.293948 2.09043 0
M  V30 3565 O 326.187 -1.29153 1.88499 0
M  V30 3566 C 326.397 2.17626 2.72837 0
M  V30 3567 C 327.745 2.51282 3.42261 0
M  V30 3568 O 328.769 2.16219 2.83068 0
M  V30 3569 O 327.628 3.11413 4.49093 0
M  V30 3570 H 324.722 0.441601 0.699226 0
M  V30 3571 H 327.268 1.44362 0.892053 0
M  V30 3572 H 326.04 3.14211 2.3321 0
M  V30 3573 H 325.663 1.88628 3.50008 0
M  V30 3574 N 326.66 -1.06551 1.16123 0
M  V30 3575 C 327.607 -2.13961 0.865414 0
M  V30 3576 C 328.577 -1.65066 -0.185055 0
M  V30 3577 O 329.762 -1.90732 -0.05083 0
M  V30 3578 C 326.902 -3.43113 0.369776 0
M  V30 3579 C 326.015 -4.05756 1.48276 0
M  V30 3580 C 325.15 -5.22773 0.942414 0
M  V30 3581 C 324.189 -5.77395 2.03179 0
M  V30 3582 N 323.326 -6.85731 1.50721 0
M  V30 3583 H 328.166 -2.38605 1.78527 0
M  V30 3584 H 325.703 -1.17072 0.890646 0
M  V30 3585 H 327.661 -4.17151 0.0640643 0
M  V30 3586 H 326.291 -3.18695 -0.513143 0
M  V30 3587 H 325.343 -3.29292 1.9045 0
M  V30 3588 H 326.655 -4.42351 2.30493 0
M  V30 3589 H 325.809 -6.03827 0.589729 0
M  V30 3590 H 324.548 -4.87618 0.0895191 0
M  V30 3591 H 323.553 -4.94981 2.3932 0
M  V30 3592 H 324.778 -6.14603 2.8886 0
M  V30 3593 H 322.724 -6.52499 0.676811 0
M  V30 3594 H 322.641 -7.21254 2.26557 0
M  V30 3595 H 323.909 -7.7047 1.18303 0
M  V30 3596 N 328.138 -0.959301 -1.25041 0
M  V30 3597 C 329.387 -0.612254 -1.92183 0
M  V30 3598 C 329.7 0.855347 -1.75907 0
M  V30 3599 O 330.906 1.31256 -2.37664 0
M  V30 3600 C 329.362 -1.04435 -3.44414 0
M  V30 3601 C 328.97 -2.53482 -3.69393 0
M  V30 3602 C 330.714 -0.770055 -4.17457 0
M  V30 3603 C 328.621 -2.90468 -5.15153 0
M  V30 3604 H 327.551 -0.225279 -0.719559 0
M  V30 3605 H 330.202 -1.16438 -1.41825 0
M  V30 3606 H 328.584 -0.4206 -3.9376 0
M  V30 3607 H 329.758 -3.20916 -3.30681 0
M  V30 3608 H 328.073 -2.78432 -3.0962 0
M  V30 3609 H 330.67 -1.02249 -5.24832 0
M  V30 3610 H 331.013 0.293611 -4.15263 0
M  V30 3611 H 331.546 -1.35437 -3.74034 0
M  V30 3612 H 328.285 -3.95871 -5.22462 0
M  V30 3613 H 327.805 -2.27711 -5.54894 0
M  V30 3614 H 329.484 -2.79914 -5.83315 0
M  V30 3615 N 329.616 1.39756 -0.72842 0
M  V30 3616 C 330.863 2.00645 -0.273487 0
M  V30 3617 C 331.191 1.57786 1.13727 0
M  V30 3618 O 330.446 0.794886 1.7883 0
M  V30 3619 C 330.745 3.56002 -0.315776 0
M  V30 3620 C 330.411 4.18489 -1.67863 0
M  V30 3621 C 329.073 4.3527 -2.05166 0
M  V30 3622 C 331.425 4.53219 -2.57375 0
M  V30 3623 C 328.753 4.84069 -3.31503 0
M  V30 3624 C 331.105 5.03423 -3.83077 0
M  V30 3625 C 329.769 5.18413 -4.20481 0
M  V30 3626 H 329.039 0.734211 -0.100076 0
M  V30 3627 H 331.686 1.6718 -0.933972 0
M  V30 3628 H 329.991 3.89452 0.428285 0
M  V30 3629 H 331.688 4.00963 0.0542575 0
M  V30 3630 H 328.278 4.05824 -1.37858 0
M  V30 3631 H 332.462 4.39878 -2.29827 0
M  V30 3632 H 327.718 4.93859 -3.60435 0
M  V30 3633 H 331.892 5.2927 -4.52599 0
M  V30 3634 H 329.519 5.55987 -5.18443 0
M  V30 3635 N 331.094 0.475555 1.50254 0
M  V30 3636 C 332.004 -0.321501 2.32387 0
M  V30 3637 C 333.02 -0.991755 1.42969 0
M  V30 3638 O 334.196 -0.978747 1.76018 0
M  V30 3639 C 331.261 -1.38667 3.17762 0
M  V30 3640 C 330.322 -0.732538 4.23004 0
M  V30 3641 C 329.555 -1.74695 5.04299 0
M  V30 3642 O 329.778 -2.97399 4.86734 0
M  V30 3643 O 328.712 -1.31631 5.8733 0
M  V30 3644 H 332.538 0.350071 3.01676 0
M  V30 3645 H 330.123 0.237321 1.47503 0
M  V30 3646 H 332.005 -2.00354 3.70724 0
M  V30 3647 H 330.68 -2.04163 2.51196 0
M  V30 3648 H 329.587 -0.0765902 3.74022 0
M  V30 3649 H 330.92 -0.120452 4.92053 0
M  V30 3650 N 332.573 -1.56217 0.208337 0
M  V30 3651 C 333.536 -2.18455 -0.693557 0
M  V30 3652 C 334.536 -1.14268 -1.13135 0
M  V30 3653 O 335.726 -1.39577 -1.0423 0
M  V30 3654 C 332.858 -2.79727 -1.94848 0
M  V30 3655 H 334.051 -2.99519 -0.15114 0
M  V30 3656 H 331.604 -1.56245 -0.041287 0
M  V30 3657 H 332.339 -2.02497 -2.53309 0
M  V30 3658 H 332.124 -3.56009 -1.64316 0
M  V30 3659 H 333.614 -3.27475 -2.59133 0
M  V30 3660 N 334.051 0.0651679 -1.57465 0
M  V30 3661 C 335.3 0.761916 -1.86756 0
M  V30 3662 C 335.613 1.78406 -0.801925 0
M  V30 3663 O 336.819 2.53084 -0.982885 0
M  V30 3664 C 335.275 1.40603 -3.31299 0
M  V30 3665 C 334.883 0.422115 -4.46007 0
M  V30 3666 C 336.627 2.08476 -3.69781 0
M  V30 3667 C 334.534 1.07252 -5.81593 0
M  V30 3668 H 333.464 0.288308 -0.696702 0
M  V30 3669 H 336.115 0.015344 -1.83494 0
M  V30 3670 H 334.497 2.20109 -3.29193 0
M  V30 3671 H 335.671 -0.343613 -4.59517 0
M  V30 3672 H 333.986 -0.152527 -4.16121 0
M  V30 3673 H 336.583 2.57925 -4.68379 0
M  V30 3674 H 336.926 2.88712 -2.99919 0
M  V30 3675 H 337.459 1.35792 -3.73905 0
M  V30 3676 H 334.198 0.310342 -6.54765 0
M  V30 3677 H 333.718 1.80895 -5.71872 0
M  V30 3678 H 335.397 1.59043 -6.27148 0
M  V30 3679 N 335.529 1.53961 0.336706 0
M  V30 3680 C 336.754 1.75797 1.10046 0
M  V30 3681 C 337.179 0.498985 1.81361 0
M  V30 3682 O 336.537 -0.548769 1.72795 0
M  V30 3683 C 336.585 2.94257 2.08436 0
M  V30 3684 O 335.689 2.64883 3.16087 0
M  V30 3685 H 335.03 0.582936 0.317934 0
M  V30 3686 H 337.56 2.00945 0.38501 0
M  V30 3687 H 337.57 3.21237 2.51537 0
M  V30 3688 H 336.245 3.85564 1.55927 0
M  V30 3689 H 334.822 2.48812 2.77753 0
M  V30 3690 N 337.007 -0.598083 1.45811 0
M  V30 3691 C 338.232 -1.3881 1.54099 0
M  V30 3692 C 338.657 -1.8726 0.177578 0
M  V30 3693 O 338.015 -1.6069 -0.839541 0
M  V30 3694 C 338.063 -2.56217 2.53743 0
M  V30 3695 O 337.167 -3.5716 2.06182 0
M  V30 3696 H 336.508 -0.414024 0.519115 0
M  V30 3697 H 339.038 -0.726971 1.91249 0
M  V30 3698 H 339.048 -3.03337 2.72856 0
M  V30 3699 H 337.723 -2.20303 3.5276 0
M  V30 3700 H 336.3 -3.16624 1.96987 0
M  V30 3701 N 338.485 -1.33259 -0.841409 0
M  V30 3702 C 339.418 -1.1764 -1.95541 0
M  V30 3703 C 340.396 -0.072501 -1.62438 0
M  V30 3704 O 341.58 -0.23427 -1.87039 0
M  V30 3705 C 338.707 -0.803794 -3.29024 0
M  V30 3706 C 337.753 -1.91482 -3.81099 0
M  V30 3707 S 338.586 -3.52538 -4.03085 0
M  V30 3708 C 339.742 -3.17279 -5.39523 0
M  V30 3709 H 339.975 -2.11941 -2.08491 0
M  V30 3710 H 337.508 -1.18072 -0.9949 0
M  V30 3711 H 339.466 -0.595592 -4.06156 0
M  V30 3712 H 338.127 0.120574 -3.13868 0
M  V30 3713 H 337.32 -1.60742 -4.7768 0
M  V30 3714 H 336.922 -2.07956 -3.10854 0
M  V30 3715 H 339.214 -2.67946 -6.22263 0
M  V30 3716 H 340.157 -4.1293 -5.75234 0
M  V30 3717 H 340.565 -2.53943 -5.04156 0
M  V30 3718 N 339.963 1.05934 -1.16686 0
M  V30 3719 C 341.21 1.788 -0.950622 0
M  V30 3720 C 341.538 1.87384 0.521305 0
M  V30 3721 O 340.793 1.36438 1.40297 0
M  V30 3722 C 341.092 3.23105 -1.52767 0
M  V30 3723 C 340.758 3.34594 -3.02254 0
M  V30 3724 C 339.42 3.37437 -3.43059 0
M  V30 3725 C 341.772 3.36219 -3.98254 0
M  V30 3726 C 339.1 3.39525 -4.78477 0
M  V30 3727 C 341.452 3.39845 -5.33562 0
M  V30 3728 C 340.116 3.40971 -5.73842 0
M  V30 3729 H 339.386 0.654275 -0.347857 0
M  V30 3730 H 342.033 1.24555 -1.45459 0
M  V30 3731 H 340.338 3.80227 -0.94524 0
M  V30 3732 H 342.035 3.7809 -1.336 0
M  V30 3733 H 338.625 3.3309 -2.6972 0
M  V30 3734 H 342.809 3.33231 -3.67792 0
M  V30 3735 H 338.065 3.38703 -5.09009 0
M  V30 3736 H 342.239 3.4005 -6.07733 0
M  V30 3737 H 339.866 3.42342 -6.78753 0
M  V30 3738 N 341.441 0.965919 1.2453 0
M  V30 3739 C 342.852 0.665929 1.7442 0
M  V30 3740 C 343.203 -0.818407 1.78316 0
M  V30 3741 O 342.328 -1.64037 1.41141 0
M  V30 3742 C 342.923 1.20211 3.16757 0
M  V30 3743 C 341.482 0.952059 3.6416 0
M  V30 3744 C 340.629 1.33848 2.42858 0
M  V30 3745 H 343.58 1.14144 1.10258 0
M  V30 3746 H 343.601 0.567544 3.76244 0
M  V30 3747 H 343.113 2.28244 3.13889 0
M  V30 3748 H 341.214 -0.112821 3.72429 0
M  V30 3749 H 341.327 1.59645 4.51719 0
M  V30 3750 H 339.691 0.756864 2.43195 0
M  V30 3751 H 340.474 2.42827 2.42673 0
M  V30 3752 N 342.919 -1.39368 0.735821 0
M  V30 3753 C 344.196 -1.94465 0.210395 0
M  V30 3754 C 344.576 -1.67254 -1.28799 0
M  V30 3755 O 343.924 -1.00123 -2.05396 0
M  V30 3756 C 344.134 -3.4472 0.544897 0
M  V30 3757 C 345.482 -4.21708 0.494689 0
M  V30 3758 O 346.506 -3.52922 0.482136 0
M  V30 3759 O 345.365 -5.44299 0.489947 0
M  V30 3760 H 342.459 -0.826096 0.0386666 0
M  V30 3761 H 345.005 -1.48863 0.814735 0
M  V30 3762 H 343.777 -3.57963 1.58045 0
M  V30 3763 H 343.4 -3.97502 -0.08837 0
M  V30 3764 N 344.397 -0.483516 -1.5 0
M  V30 3765 C 345.344 0.304164 -2.28787 0
M  V30 3766 C 346.314 0.976114 -1.34392 0
M  V30 3767 O 347.499 0.986156 -1.63339 0
M  V30 3768 C 344.639 1.37298 -3.16612 0
M  V30 3769 C 343.752 0.714561 -4.26049 0
M  V30 3770 C 342.887 1.76232 -5.01114 0
M  V30 3771 C 341.926 1.08483 -6.0241 0
M  V30 3772 N 341.063 2.076 -6.70706 0
M  V30 3773 H 345.903 -0.373981 -2.95644 0
M  V30 3774 H 343.44 -0.196275 -1.45785 0
M  V30 3775 H 345.398 2.00445 -3.65893 0
M  V30 3776 H 344.028 2.02012 -2.51776 0
M  V30 3777 H 343.08 -0.0297798 -3.80388 0
M  V30 3778 H 344.392 0.180383 -4.98474 0
M  V30 3779 H 343.546 2.46929 -5.54176 0
M  V30 3780 H 342.285 2.33033 -4.28424 0
M  V30 3781 H 341.29 0.363545 -5.48597 0
M  V30 3782 H 342.515 0.523551 -6.77079 0
M  V30 3783 H 340.461 2.63394 -6.00799 0
M  V30 3784 H 340.378 1.59201 -7.39047 0
M  V30 3785 H 341.646 2.77639 -7.2838 0
M  V30 3786 N 345.875 1.56104 -0.216619 0
M  V30 3787 C 347.123 1.97781 0.415593 0
M  V30 3788 C 347.444 1.10536 1.60645 0
M  V30 3789 O 346.714 0.181303 1.95059 0
M  V30 3790 H 345.294 0.730415 0.156534 0
M  V30 3791 H 347.956 1.92445 -0.308366 0
M  V30 3792 H 347.052 3.03072 0.74525 0
M  V30 3793 N 347.353 -0.0568162 1.57498 0
M  V30 3794 C 348.581 -0.765626 1.92213 0
M  V30 3795 C 348.996 -1.70353 0.813961 0
M  V30 3796 O 348.353 -1.81268 -0.211701 0
M  V30 3797 C 348.404 -1.5465 3.2675 0
M  V30 3798 O 348.125 -0.646278 4.33307 0
M  V30 3799 C 349.626 -2.35497 3.75574 0
M  V30 3800 H 346.846 -0.216835 0.634999 0
M  V30 3801 H 349.39 -0.0226146 2.04487 0
M  V30 3802 H 347.545 -2.24165 3.15957 0
M  V30 3803 H 347.959 -1.19093 5.108 0
M  V30 3804 H 349.433 -2.85722 4.72299 0
M  V30 3805 H 349.91 -3.15692 3.05344 0
M  V30 3806 H 350.516 -1.7111 3.8936 0
M  V30 3807 N 348.832 -1.54138 -0.328536 0
M  V30 3808 C 349.795 -1.82462 -1.38709 0
M  V30 3809 C 350.795 -0.696229 -1.44946 0
M  V30 3810 O 351.985 -0.964535 -1.4506 0
M  V30 3811 C 349.117 -1.98018 -2.77492 0
M  V30 3812 H 350.31 -2.77037 -1.14851 0
M  V30 3813 H 347.863 -1.45779 -0.563751 0
M  V30 3814 H 348.598 -1.05637 -3.06613 0
M  V30 3815 H 348.383 -2.80124 -2.74359 0
M  V30 3816 H 349.873 -2.21396 -3.54081 0
M  V30 3817 N 350.31 0.590341 -1.46126 0
M  V30 3818 C 351.22 1.72793 -1.58681 0
M  V30 3819 C 352.236 1.67516 -0.470566 0
M  V30 3820 O 353.412 1.87562 -0.733642 0
M  V30 3821 C 350.477 3.09287 -1.5666 0
M  V30 3822 C 349.538 3.25886 -2.79458 0
M  V30 3823 C 348.771 4.55869 -2.77524 0
M  V30 3824 O 348.994 5.3928 -1.85832 0
M  V30 3825 O 347.928 4.75552 -3.68964 0
M  V30 3826 H 351.754 1.65149 -2.54872 0
M  V30 3827 H 349.339 0.756486 -1.28832 0
M  V30 3828 H 351.221 3.90577 -1.58202 0
M  V30 3829 H 349.896 3.17385 -0.636271 0
M  V30 3830 H 348.803 2.44119 -2.83472 0
M  V30 3831 H 350.136 3.22675 -3.71674 0
M  V30 3832 N 351.788 1.33704 0.83433 0
M  V30 3833 C 352.698 1.26382 1.97648 0
M  V30 3834 C 353.714 0.173548 1.73132 0
M  V30 3835 O 354.89 0.397962 1.97429 0
M  V30 3836 C 351.955 1.00769 3.31733 0
M  V30 3837 C 351.016 2.1884 3.69334 0
M  V30 3838 C 350.249 1.9444 4.9702 0
M  V30 3839 O 350.472 0.896961 5.63303 0
M  V30 3840 O 349.406 2.81093 5.32231 0
M  V30 3841 H 353.232 2.22444 2.06767 0
M  V30 3842 H 350.817 1.13795 0.968037 0
M  V30 3843 H 352.699 0.882186 4.12062 0
M  V30 3844 H 351.374 0.0773783 3.23608 0
M  V30 3845 H 350.281 2.36946 2.89495 0
M  V30 3846 H 351.614 3.10221 3.82131 0
M  V30 3847 N 353.266 -1.05314 1.17247 0
M  V30 3848 C 354.196 -2.1498 0.911362 0
M  V30 3849 C 355.177 -1.69471 -0.146169 0
M  V30 3850 O 356.362 -1.942 0.003812 0
M  V30 3851 C 353.492 -3.4472 0.422528 0
M  V30 3852 C 352.446 -4.03789 1.4191 0
M  V30 3853 C 351.772 -5.28858 0.788274 0
M  V30 3854 C 353.072 -4.41418 2.7919 0
M  V30 3855 H 354.766 -2.3708 1.82848 0
M  V30 3856 H 352.312 -1.13938 0.880569 0
M  V30 3857 H 354.265 -4.20787 0.227289 0
M  V30 3858 H 352.989 -3.22269 -0.530123 0
M  V30 3859 H 351.648 -3.2979 1.60106 0
M  V30 3860 H 351.296 -5.02709 -0.171173 0
M  V30 3861 H 350.996 -5.69338 1.45353 0
M  V30 3862 H 352.52 -6.07612 0.603282 0
M  V30 3863 H 353.934 -5.08524 2.64719 0
M  V30 3864 H 352.331 -4.92913 3.42282 0
M  V30 3865 H 353.401 -3.51819 3.33693 0
M  V30 3866 N 354.744 -0.972509 -1.24016 0
M  V30 3867 C 355.691 -0.505969 -2.25186 0
M  V30 3868 C 356.661 0.451009 -1.5986 0
M  V30 3869 O 357.846 0.360307 -1.87367 0
M  V30 3870 C 354.986 0.193089 -3.44559 0
M  V30 3871 C 354.099 -0.803222 -4.24467 0
M  V30 3872 C 353.234 -0.0797793 -5.3114 0
M  V30 3873 C 352.273 -1.06583 -6.02749 0
M  V30 3874 N 351.41 -0.372074 -7.01113 0
M  V30 3875 H 356.25 -1.37351 -2.64459 0
M  V30 3876 H 353.787 -0.688419 -1.29997 0
M  V30 3877 H 355.745 0.615125 -4.1264 0
M  V30 3878 H 354.375 1.02455 -3.06109 0
M  V30 3879 H 353.427 -1.34368 -3.55878 0
M  V30 3880 H 354.739 -1.55494 -4.73944 0
M  V30 3881 H 353.893 0.400015 -6.0538 0
M  V30 3882 H 352.632 0.704597 -4.82583 0
M  V30 3883 H 351.637 -1.55645 -5.27309 0
M  V30 3884 H 352.862 -1.85074 -6.53395 0
M  V30 3885 H 350.808 0.393238 -6.5482 0
M  V30 3886 H 350.725 -1.06258 -7.48495 0
M  V30 3887 H 351.993 0.0855932 -7.79453 0
M  V30 3888 N 356.222 1.38976 -0.743202 0
M  V30 3889 C 357.132 2.3434 -0.110399 0
M  V30 3890 C 358.148 1.58741 0.712559 0
M  V30 3891 O 359.324 1.9099 0.639125 0
M  V30 3892 C 356.389 3.37812 0.780012 0
M  V30 3893 C 355.45 4.29263 -0.0561319 0
M  V30 3894 C 354.683 5.27793 0.791875 0
M  V30 3895 O 354.906 5.33043 2.03031 0
M  V30 3896 O 353.84 6.01512 0.216183 0
M  V30 3897 H 357.666 2.90129 -0.897714 0
M  V30 3898 H 355.251 1.40643 -0.503966 0
M  V30 3899 H 357.133 4.01194 1.28923 0
M  V30 3900 H 355.808 2.84395 1.546 0
M  V30 3901 H 354.715 3.69076 -0.611056 0
M  V30 3902 H 356.048 4.85907 -0.784531 0
M  V30 3903 N 357.7 0.491464 1.49741 0
M  V30 3904 C 358.647 -0.292027 2.28945 0
M  V30 3905 C 359.617 -0.968973 1.34908 0
M  V30 3906 O 360.802 -0.97748 1.6386 0
M  V30 3907 C 357.942 -1.35617 3.17336 0
M  V30 3908 C 357.055 -0.691957 4.26422 0
M  V30 3909 C 356.19 -1.73572 5.02042 0
M  V30 3910 C 355.229 -1.05286 6.02977 0
M  V30 3911 N 354.366 -2.0404 6.71798 0
M  V30 3912 H 359.206 0.389654 2.95442 0
M  V30 3913 H 356.743 0.204003 1.45679 0
M  V30 3914 H 358.701 -1.98502 3.66951 0
M  V30 3915 H 357.331 -2.00674 2.52844 0
M  V30 3916 H 356.383 0.0499523 3.80367 0
M  V30 3917 H 357.695 -0.153946 4.98562 0
M  V30 3918 H 356.849 -2.43987 5.55478 0
M  V30 3919 H 355.588 -2.30757 4.29654 0
M  V30 3920 H 354.593 -0.334446 5.48782 0
M  V30 3921 H 355.818 -0.487636 6.77347 0
M  V30 3922 H 353.764 -2.60205 6.02187 0
M  V30 3923 H 353.681 -1.55279 7.39881 0
M  V30 3924 H 354.949 -2.73772 7.29842 0
M  V30 3925 N 359.178 -1.55987 0.224894 0
M  V30 3926 C 360.408 -2.02489 -0.41007 0
M  V30 3927 C 360.816 -1.10391 -1.53657 0
M  V30 3928 O 360.159 -0.106458 -1.83391 0
M  V30 3929 C 360.221 -3.45319 -0.999757 0
M  V30 3930 C 359.885 -4.56999 -0.00827976 0
M  V30 3931 C 360.882 -5.13812 0.793314 0
M  V30 3932 C 358.567 -5.02176 0.111442 0
M  V30 3933 C 360.561 -6.14276 1.7013 0
M  V30 3934 C 358.248 -6.02477 1.02296 0
M  V30 3935 C 359.246 -6.58403 1.81643 0
M  V30 3936 O 358.934 -7.56751 2.71262 0
M  V30 3937 H 358.666 -0.667915 -0.104235 0
M  V30 3938 H 361.22 -2.0257 0.339782 0
M  V30 3939 H 359.45 -3.42318 -1.79876 0
M  V30 3940 H 361.139 -3.7545 -1.54248 0
M  V30 3941 H 361.905 -4.79756 0.711288 0
M  V30 3942 H 357.784 -4.58323 -0.49605 0
M  V30 3943 H 361.328 -6.57854 2.32107 0
M  V30 3944 H 357.225 -6.35954 1.10599 0
M  V30 3945 H 357.993 -7.74286 2.65375 0
M  V30 3946 N 360.656 0.0484629 -1.57525 0
M  V30 3947 C 361.603 1.05504 -2.05275 0
M  V30 3948 C 362.573 1.37084 -0.937927 0
M  V30 3949 O 363.758 1.47754 -1.2072 0
M  V30 3950 C 360.898 2.35676 -2.52093 0
M  V30 3951 C 360.011 2.10423 -3.77288 0
M  V30 3952 C 359.146 3.34327 -4.12794 0
M  V30 3953 C 358.185 3.04542 -5.30962 0
M  V30 3954 N 357.322 4.20841 -5.61994 0
M  V30 3955 H 362.162 0.640885 -2.91027 0
M  V30 3956 H 359.699 0.304854 -1.43906 0
M  V30 3957 H 361.657 3.11709 -2.77297 0
M  V30 3958 H 360.287 2.7485 -1.69285 0
M  V30 3959 H 359.339 1.24976 -3.59284 0
M  V30 3960 H 360.651 1.84438 -4.63448 0
M  V30 3961 H 359.805 4.1874 -4.39024 0
M  V30 3962 H 358.544 3.63408 -3.25247 0
M  V30 3963 H 357.549 2.18528 -5.04505 0
M  V30 3964 H 358.774 2.76758 -6.20146 0
M  V30 3965 H 356.72 4.4991 -4.77406 0
M  V30 3966 H 356.637 3.98212 -6.42622 0
M  V30 3967 H 357.905 5.06184 -5.92789 0
M  V30 3968 N 362.134 1.5431 0.320358 0
M  V30 3969 C 363.044 1.86946 1.41734 0
M  V30 3970 C 364.06 0.761689 1.56443 0
M  V30 3971 O 365.236 1.05629 1.71477 0
M  V30 3972 C 362.301 2.09293 2.76401 0
M  V30 3973 C 361.362 3.33082 2.70841 0
M  V30 3974 C 360.595 3.54353 3.99086 0
M  V30 3975 O 360.818 2.79002 4.97508 0
M  V30 3976 O 359.752 4.47838 4.0215 0
M  V30 3977 H 363.578 2.80232 1.17062 0
M  V30 3978 H 361.163 1.40255 0.514673 0
M  V30 3979 H 363.045 2.25303 3.56113 0
M  V30 3980 H 361.72 1.19194 3.00956 0
M  V30 3981 H 360.627 3.22454 1.89668 0
M  V30 3982 H 361.96 4.23249 2.5124 0
M  V30 3983 N 363.613 -0.582584 1.46437 0
M  V30 3984 C 364.543 -1.70187 1.59871 0
M  V30 3985 C 365.524 -1.64066 0.449042 0
M  V30 3986 O 366.709 -1.82081 0.6753 0
M  V30 3987 C 363.839 -3.08827 1.58881 0
M  V30 3988 C 362.793 -3.29779 2.72819 0
M  V30 3989 C 362.119 -4.68947 2.5689 0
M  V30 3990 C 363.419 -3.17601 4.1464 0
M  V30 3991 H 365.113 -1.592 2.53566 0
M  V30 3992 H 362.659 -0.764472 1.22032 0
M  V30 3993 H 364.612 -3.86951 1.66873 0
M  V30 3994 H 363.336 -3.20713 0.617306 0
M  V30 3995 H 361.995 -2.54054 2.64296 0
M  V30 3996 H 361.643 -4.77599 1.57823 0
M  V30 3997 H 361.343 -4.83919 3.33312 0
M  V30 3998 H 362.867 -5.4924 2.66773 0
M  V30 3999 H 364.281 -3.8557 4.24274 0
M  V30 4000 H 362.678 -3.44094 4.9165 0
M  V30 4001 H 363.748 -2.14681 4.34788 0
M  V30 4002 N 365.091 -1.34144 -0.827227 0
M  V30 4003 C 366.319 -1.29325 -1.61501 0
M  V30 4004 C 366.734 0.13354 -1.88327 0
M  V30 4005 O 366.091 1.0793 -1.47164 0
M  V30 4006 C 366.142 -2.07746 -2.95844 0
M  V30 4007 O 365.863 -3.4486 -2.70191 0
M  V30 4008 C 367.364 -2.10273 -3.90256 0
M  V30 4009 H 364.584 -0.445069 -0.50215 0
M  V30 4010 H 367.128 -1.76693 -1.02955 0
M  V30 4011 H 365.283 -1.6403 -3.5096 0
M  V30 4012 H 365.697 -3.85345 -3.55822 0
M  V30 4013 H 367.171 -2.69575 -4.81698 0
M  V30 4014 H 367.648 -1.096 -4.25305 0
M  V30 4015 H 368.254 -2.54059 -3.41078 0
M  V30 4016 N 366.569 1.04691 -1.17803 0
M  V30 4017 C 367.479 2.16057 -0.914151 0
M  V30 4018 C 368.495 1.73589 0.119503 0
M  V30 4019 O 369.671 2.01308 -0.0609468 0
M  V30 4020 C 366.736 3.4394 -0.436603 0
M  V30 4021 C 365.797 4.00825 -1.53746 0
M  V30 4022 C 365.03 5.22604 -1.0826 0
M  V30 4023 O 365.253 5.70367 0.0612244 0
M  V30 4024 O 364.187 5.7186 -1.87775 0
M  V30 4025 H 368.013 2.41169 -1.84584 0
M  V30 4026 H 365.598 1.1453 -0.959334 0
M  V30 4027 H 367.48 4.21024 -0.178057 0
M  V30 4028 H 366.155 3.20316 0.466869 0
M  V30 4029 H 365.062 3.25158 -1.84995 0
M  V30 4030 H 366.395 4.28778 -2.41683 0
M  V30 4031 N 368.047 0.979072 1.23499 0
M  V30 4032 C 368.979 0.476271 2.24197 0
M  V30 4033 C 369.992 -0.421166 1.57258 0
M  V30 4034 O 371.181 -0.225515 1.7707 0
M  V30 4035 C 368.281 -0.330503 3.37285 0
M  V30 4036 C 367.454 0.559744 4.33804 0
M  V30 4037 C 366.513 -0.192954 5.25846 0
M  V30 4038 O 365.539 0.416978 5.67671 0
M  V30 4039 N 366.741 -1.47932 5.61334 0
M  V30 4040 H 369.506 1.34211 2.67969 0
M  V30 4041 H 367.067 0.852189 1.37657 0
M  V30 4042 H 369.059 -0.842361 3.95836 0
M  V30 4043 H 367.629 -1.09734 2.92707 0
M  V30 4044 H 366.849 1.25245 3.73775 0
M  V30 4045 H 368.137 1.1665 4.95248 0
M  V30 4046 H 367.535 -1.9964 5.29302 0
M  V30 4047 H 366.092 -1.93664 6.22364 0
M  V30 4048 N 369.525 -1.3858 0.750561 0
M  V30 4049 C 370.457 -2.29057 0.0810714 0
M  V30 4050 C 371.47 -1.47596 -0.686973 0
M  V30 4051 O 372.659 -1.70495 -0.528563 0
M  V30 4052 C 369.759 -3.26475 -0.909247 0
M  V30 4053 C 368.932 -4.36945 -0.199478 0
M  V30 4054 C 367.991 -5.14572 -1.10011 0
M  V30 4055 O 367.017 -5.66321 -0.57177 0
M  V30 4056 N 368.219 -5.27262 -2.42849 0
M  V30 4057 H 370.984 -2.87153 0.858087 0
M  V30 4058 H 368.545 -1.50328 0.60109 0
M  V30 4059 H 370.537 -3.75285 -1.51471 0
M  V30 4060 H 369.107 -2.69298 -1.58736 0
M  V30 4061 H 368.327 -3.8981 0.586664 0
M  V30 4062 H 369.615 -5.07963 0.291783 0
M  V30 4063 H 369.013 -4.86763 -2.88233 0
M  V30 4064 H 367.57 -5.79456 -2.98453 0
M  V30 4065 N 371.003 -0.499398 -1.49478 0
M  V30 4066 C 371.933 0.269244 -2.31943 0
M  V30 4067 C 372.914 0.964054 -1.40143 0
M  V30 4068 O 374.099 0.955767 -1.69052 0
M  V30 4069 C 371.229 1.33504 -3.20615 0
M  V30 4070 C 370.183 0.760202 -4.21195 0
M  V30 4071 C 369.509 1.9264 -4.98792 0
M  V30 4072 C 370.809 -0.247661 -5.21712 0
M  V30 4073 H 372.503 -0.419082 -2.96452 0
M  V30 4074 H 370.049 -0.202988 -1.42562 0
M  V30 4075 H 372.002 1.88048 -3.77115 0
M  V30 4076 H 370.726 2.05253 -2.54045 0
M  V30 4077 H 369.385 0.23653 -3.65836 0
M  V30 4078 H 369.033 2.63154 -4.28671 0
M  V30 4079 H 368.733 1.54785 -5.66847 0
M  V30 4080 H 370.257 2.4762 -5.58137 0
M  V30 4081 H 371.671 0.209579 -5.72917 0
M  V30 4082 H 370.068 -0.541962 -5.97648 0
M  V30 4083 H 371.138 -1.16409 -4.7072 0
M  V30 4084 N 372.481 1.55866 -0.233164 0
M  V30 4085 C 373.892 1.847 0.272554 0
M  V30 4086 C 374.243 1.15477 1.58617 0
M  V30 4087 O 373.368 0.42841 2.12117 0
M  V30 4088 C 373.963 3.35071 0.501299 0
M  V30 4089 C 372.522 3.6418 0.951304 0
M  V30 4090 C 371.669 2.77292 0.0208209 0
M  V30 4091 H 374.62 1.52005 -0.456074 0
M  V30 4092 H 374.641 3.55906 1.34577 0
M  V30 4093 H 374.153 3.85424 -0.454936 0
M  V30 4094 H 372.254 3.19293 1.92049 0
M  V30 4095 H 372.367 4.72071 0.817675 0
M  V30 4096 H 370.731 2.49131 0.529723 0
M  V30 4097 H 371.514 3.30448 -0.93054 0
M  V30 4098 N 373.959 -0.0401083 1.57549 0
M  V30 4099 C 375.207 -0.731677 1.8839 0
M  V30 4100 C 375.528 -1.76481 0.829425 0
M  V30 4101 O 374.798 -1.95411 -0.1383 0
M  V30 4102 H 373.378 -0.273225 0.695239 0
M  V30 4103 H 376.04 -0.00867725 1.94898 0
M  V30 4104 H 375.136 -1.22816 2.86919 0
M  V30 4105 N 375.437 -1.54477 -0.31217 0
M  V30 4106 C 376.4 -1.83923 -1.36766 0
M  V30 4107 C 377.4 -0.711563 -1.44199 0
M  V30 4108 O 378.59 -0.979866 -1.44029 0
M  V30 4109 C 375.722 -2.0095 -2.75376 0
M  V30 4110 H 376.915 -2.78239 -1.11906 0
M  V30 4111 H 374.468 -1.46369 -0.548257 0
M  V30 4112 H 375.203 -1.08883 -3.05475 0
M  V30 4113 H 374.988 -2.83018 -2.71373 0
M  V30 4114 H 376.478 -2.2514 -3.51713 0
M  V30 4115 N 376.915 0.57481 -1.46744 0
M  V30 4116 C 377.845 1.69337 -1.60771 0
M  V30 4117 C 378.826 1.63825 -0.457736 0
M  V30 4118 O 380.011 1.8172 -0.684947 0
M  V30 4119 C 377.141 3.0798 -1.60517 0
M  V30 4120 C 376.095 3.28327 -2.74564 0
M  V30 4121 C 375.421 4.67578 -2.59373 0
M  V30 4122 C 376.721 3.15398 -4.16319 0
M  V30 4123 H 378.415 1.57853 -2.54407 0
M  V30 4124 H 375.961 0.75799 -1.22436 0
M  V30 4125 H 377.914 3.86061 -1.68923 0
M  V30 4126 H 376.638 3.20381 -0.634305 0
M  V30 4127 H 375.297 2.52649 -2.65639 0
M  V30 4128 H 374.945 4.76755 -1.60353 0
M  V30 4129 H 374.645 4.82144 -3.35873 0
M  V30 4130 H 376.169 5.47817 -2.69682 0
M  V30 4131 H 377.583 3.83315 -4.26313 0
M  V30 4132 H 375.98 3.41482 -4.93468 0
M  V30 4133 H 377.05 2.12372 -4.3592 0
M  V30 4134 N 378.394 1.34581 0.820102 0
M  V30 4135 C 379.805 1.24298 1.39309 0
M  V30 4136 C 380.156 -0.130351 1.95767 0
M  V30 4137 O 379.281 -1.0308 1.90272 0
M  V30 4138 C 379.876 2.25054 2.53251 0
M  V30 4139 C 378.435 2.18552 3.0645 0
M  V30 4140 C 377.582 2.11503 1.79337 0
M  V30 4141 H 380.533 1.45906 0.624262 0
M  V30 4142 H 380.554 1.86917 3.31425 0
M  V30 4143 H 380.066 3.24996 2.1213 0
M  V30 4144 H 378.167 1.21976 3.52069 0
M  V30 4145 H 378.28 3.0993 3.65349 0
M  V30 4146 H 376.644 1.57268 2.00347 0
M  V30 4147 H 377.427 3.13284 1.40386 0
M  V30 4148 N 379.872 -1.04064 1.18357 0
M  V30 4149 C 381.283 -1.58719 0.98312 0
M  V30 4150 C 381.634 -1.90556 -0.467193 0
M  V30 4151 O 380.759 -1.69561 -1.34454 0
M  V30 4152 C 381.354 -2.88379 1.77828 0
M  V30 4153 C 379.913 -3.3965 1.62218 0
M  V30 4154 C 379.06 -2.13235 1.77274 0
M  V30 4155 H 382.011 -0.867359 1.32901 0
M  V30 4156 H 382.032 -3.58773 1.26737 0
M  V30 4157 H 381.544 -2.65176 2.83379 0
M  V30 4158 H 379.645 -3.67866 0.592036 0
M  V30 4159 H 379.758 -4.13475 2.42023 0
M  V30 4160 H 378.122 -2.24542 1.20221 0
M  V30 4161 H 378.905 -1.92487 2.8426 0
M  V30 4162 N 381.35 -0.985608 -1.22978 0
M  V30 4163 C 382.26 -0.538548 -2.28335 0
M  V30 4164 C 383.276 0.409163 -1.69121 0
M  V30 4165 O 384.452 0.277797 -1.99475 0
M  V30 4166 C 381.517 0.146867 -3.46389 0
M  V30 4167 C 380.578 -0.842896 -4.20944 0
M  V30 4168 C 379.811 -0.190095 -5.33361 0
M  V30 4169 O 380.034 1.01767 -5.61248 0
M  V30 4170 O 378.968 -0.891289 -5.95264 0
M  V30 4171 H 382.794 -1.41487 -2.68729 0
M  V30 4172 H 380.379 -0.753495 -1.29007 0
M  V30 4173 H 382.261 0.531125 -4.1804 0
M  V30 4174 H 380.936 0.997871 -3.07935 0
M  V30 4175 H 379.843 -1.27795 -3.51595 0
M  V30 4176 H 381.176 -1.66287 -4.6326 0
M  V30 4177 N 382.828 1.3818 -0.7579 0
M  V30 4178 C 384.068 2.01864 -0.320968 0
M  V30 4179 C 384.432 1.58863 1.07827 0
M  V30 4180 O 385.633 2.14908 1.61456 0
M  V30 4181 C 383.904 3.54626 -0.44446 0
M  V30 4182 S 385.463 4.38706 -0.0907467 0
M  V30 4183 H 382.281 0.700056 -0.124268 0
M  V30 4184 H 384.883 1.68611 -0.989468 0
M  V30 4185 H 383.587 3.83411 -1.4637 0
M  V30 4186 H 383.118 3.92661 0.241073 0
M  V30 4187 H 385.133 4.83435 1.11826 0
M  V30 4188 N 384.306 0.507319 1.49211 0
M  V30 4189 C 385.534 -0.0315749 2.06876 0
M  V30 4190 C 385.949 -1.30241 1.36685 0
M  V30 4191 O 385.306 -1.76937 0.447152 0
M  V30 4192 C 385.357 -0.282627 3.60393 0
M  V30 4193 O 385.078 0.937835 4.27944 0
M  V30 4194 C 386.579 -0.864453 4.3479 0
M  V30 4195 H 383.799 0.0233048 0.670595 0
M  V30 4196 H 386.343 0.706484 1.91909 0
M  V30 4197 H 384.498 -0.97068 3.75042 0
M  V30 4198 H 384.912 0.704567 5.19746 0
M  V30 4199 H 386.386 -0.989664 5.43056 0
M  V30 4200 H 386.863 -1.86382 3.97692 0
M  V30 4201 H 387.469 -0.213672 4.24763 0
M  V30 4202 N 385.784 -1.5574 0.241426 0
M  V30 4203 C 387.195 -1.84842 -0.262755 0
M  V30 4204 C 387.546 -1.16317 -1.58003 0
M  V30 4205 O 386.671 -0.439653 -2.11887 0
M  V30 4206 C 387.266 -3.35332 -0.483523 0
M  V30 4207 C 385.825 -3.6468 -0.931977 0
M  V30 4208 C 384.972 -2.77299 -0.0061151 0
M  V30 4209 H 387.923 -1.51761 0.464129 0
M  V30 4210 H 387.944 -3.56615 -1.32688 0
M  V30 4211 H 387.456 -3.85178 0.47537 0
M  V30 4212 H 385.557 -3.20307 -1.90353 0
M  V30 4213 H 385.67 -4.72498 -0.792628 0
M  V30 4214 H 384.034 -2.49408 -0.516503 0
M  V30 4215 H 384.817 -3.2995 0.948052 0
M  V30 4216 N 387.262 0.0317525 -1.57568 0
M  V30 4217 C 388.21 1.05165 -2.07468 0
M  V30 4218 C 389.204 1.3761 -0.98792 0
M  V30 4219 O 390.41 1.36546 -1.17282 0
M  V30 4220 H 386.785 0.35666 -0.66204 0
M  V30 4221 H 388.756 0.604958 -2.92203 0
M  V30 4222 C 387.505 2.34488 -2.56731 0
M  V30 4223 H 386.828 2.10383 -3.39969 0
M  V30 4224 H 388.268 3.04203 -2.95358 0
M  V30 4225 C 386.727 3.03266 -1.46736 0
M  V30 4226 O 387.257 3.92988 -0.832069 0
M  V30 4227 N 385.463 2.6455 -1.20256 0
M  V30 4228 H 385.01 1.91674 -1.72102 0
M  V30 4229 H 384.968 3.10886 -0.468737 0
M  V30 4230 N 388.74 1.54641 0.303973 0
M  V30 4231 C 389.989 1.7299 1.03717 0
M  V30 4232 C 390.302 0.521168 1.88529 0
M  V30 4233 O 391.508 0.586408 2.65092 0
M  V30 4234 C 389.964 3.06051 1.89369 0
M  V30 4235 C 389.572 4.34393 1.09574 0
M  V30 4236 C 391.316 3.3376 2.62306 0
M  V30 4237 C 389.223 5.58506 1.94486 0
M  V30 4238 H 388.153 0.64473 0.390947 0
M  V30 4239 H 390.804 1.81124 0.294328 0
M  V30 4240 H 389.186 2.91874 2.67629 0
M  V30 4241 H 390.36 4.59396 0.359485 0
M  V30 4242 H 388.675 4.13597 0.482324 0
M  V30 4243 H 391.272 4.23687 3.26181 0
M  V30 4244 H 391.615 2.52503 3.3098 0
M  V30 4245 H 392.148 3.48894 1.91097 0
M  V30 4246 H 388.887 6.42422 1.30287 0
M  V30 4247 H 388.407 5.37694 2.65792 0
M  V30 4248 H 390.086 5.95651 2.52605 0
M  V30 4249 N 390.218 -0.567019 1.47046 0
M  V30 4250 C 391.495 -1.3276 1.43646 0
M  V30 4251 C 391.875 -2.1071 0.128186 0
M  V30 4252 O 391.223 -2.10441 -0.890326 0
M  V30 4253 C 391.433 -2.2404 2.67595 0
M  V30 4254 C 392.781 -2.85372 3.14401 0
M  V30 4255 O 393.805 -2.34346 2.68254 0
M  V30 4256 O 392.664 -3.78091 3.946 0
M  V30 4257 H 389.758 -0.597293 0.571988 0
M  V30 4258 H 392.304 -0.586735 1.59234 0
M  V30 4259 H 391.076 -1.65975 3.54356 0
M  V30 4260 H 390.699 -3.05439 2.54544 0
M  V30 4261 N 391.696 -1.35014 -0.812953 0
M  V30 4262 C 392.944 -1.27678 -1.56661 0
M  V30 4263 C 393.265 0.150359 -1.94419 0
M  V30 4264 O 392.535 1.08532 -1.63088 0
M  V30 4265 H 391.115 -0.469602 -0.580933 0
M  V30 4266 H 393.777 -1.69043 -0.970076 0
M  V30 4267 H 392.873 -1.88833 -2.48492 0
M  V30 4268 N 393.175 1.03435 -1.18907 0
M  V30 4269 C 394.586 1.58195 -0.991523 0
M  V30 4270 C 394.937 1.90801 0.457081 0
M  V30 4271 O 394.062 1.70272 1.33553 0
M  V30 4272 C 394.657 2.87432 -1.79355 0
M  V30 4273 C 393.216 3.38785 -1.64017 0
M  V30 4274 C 392.363 2.12292 -1.78402 0
M  V30 4275 H 395.314 0.860299 -1.33359 0
M  V30 4276 H 395.335 3.58096 -1.28638 0
M  V30 4277 H 394.847 2.63669 -2.84781 0
M  V30 4278 H 392.948 3.67547 -0.611536 0
M  V30 4279 H 393.061 4.12186 -2.44212 0
M  V30 4280 H 391.425 2.23901 -1.2141 0
M  V30 4281 H 392.208 1.90977 -2.85277 0
M  V30 4282 N 394.653 0.992116 1.22453 0
M  V30 4283 C 395.601 0.534644 2.26372 0
M  V30 4284 C 396.595 -0.414293 1.64256 0
M  V30 4285 O 397.801 -0.286899 1.77699 0
M  V30 4286 H 394.176 0.154502 0.735957 0
M  V30 4287 H 396.147 1.42256 2.62309 0
M  V30 4288 C 394.896 -0.135815 3.47435 0
M  V30 4289 H 394.219 0.585311 3.95492 0
M  V30 4290 H 395.659 -0.419374 4.21921 0
M  V30 4291 C 394.118 -1.37089 3.07747 0
M  V30 4292 O 394.648 -2.46629 3.17076 0
M  V30 4293 N 392.854 -1.24585 2.62539 0
M  V30 4294 H 392.401 -0.354542 2.55149 0
M  V30 4295 H 392.359 -2.07327 2.36353 0
M  V30 4296 N 396.131 -1.37776 0.765217 0
M  V30 4297 C 397.094 -2.28686 0.153416 0
M  V30 4298 C 398.094 -1.47727 -0.635081 0
M  V30 4299 O 399.284 -1.68027 -0.459632 0
M  V30 4300 C 396.416 -3.31608 -0.790495 0
M  V30 4301 H 397.609 -2.84297 0.954723 0
M  V30 4302 H 395.162 -1.46932 0.53299 0
M  V30 4303 H 395.897 -2.81109 -1.61705 0
M  V30 4304 H 395.682 -3.9144 -0.227348 0
M  V30 4305 H 397.172 -3.99559 -1.21419 0
M  V30 4306 N 397.609 -0.515225 -1.4894 0
M  V30 4307 C 398.556 0.255567 -2.29381 0
M  V30 4308 C 399.526 0.947387 -1.36432 0
M  V30 4309 O 400.711 0.951288 -1.65394 0
M  V30 4310 C 397.851 1.30551 -3.19453 0
M  V30 4311 C 396.964 0.624029 -4.27469 0
M  V30 4312 C 396.099 1.65563 -5.0474 0
M  V30 4313 C 395.138 0.956802 -6.04576 0
M  V30 4314 N 394.275 1.93326 -6.74959 0
M  V30 4315 H 399.115 -0.436607 -2.94784 0
M  V30 4316 H 396.652 -0.227154 -1.45336 0
M  V30 4317 H 398.61 1.92639 -3.70062 0
M  V30 4318 H 397.24 1.96626 -2.56004 0
M  V30 4319 H 396.292 -0.110459 -3.8024 0
M  V30 4320 H 397.604 0.0746092 -4.98744 0
M  V30 4321 H 396.758 2.35119 -5.59289 0
M  V30 4322 H 395.497 2.23893 -4.3327 0
M  V30 4323 H 394.502 0.247097 -5.49244 0
M  V30 4324 H 395.727 0.379814 -6.78037 0
M  V30 4325 H 393.673 2.50591 -6.06251 0
M  V30 4326 H 393.59 1.43489 -7.42258 0
M  V30 4327 H 394.858 2.62126 -7.34105 0
M  V30 4328 N 399.087 1.5561 -0.249682 0
M  V30 4329 C 400.312 2.03865 0.381305 0
M  V30 4330 C 400.737 1.12769 1.50548 0
M  V30 4331 O 400.095 0.121189 1.80895 0
M  V30 4332 C 400.143 3.50101 0.863816 0
M  V30 4333 O 399.247 3.62132 1.97318 0
M  V30 4334 H 398.588 0.658827 0.0827194 0
M  V30 4335 H 401.118 2.01105 -0.376552 0
M  V30 4336 H 401.128 3.90975 1.1663 0
M  V30 4337 H 399.803 4.1588 0.0411816 0
M  V30 4338 H 398.38 3.33155 1.67517 0
M  V30 4339 N 400.565 -0.0233959 1.57583 0
M  V30 4340 C 401.811 -0.714119 1.89811 0
M  V30 4341 C 402.144 -1.74702 0.848113 0
M  V30 4342 O 401.419 -1.94023 -0.136135 0
M  V30 4343 C 401.702 -1.37853 3.32669 0
M  V30 4344 C 401.555 -0.358764 4.48367 0
M  V30 4345 C 402.874 -2.31101 3.7454 0
M  V30 4346 H 399.993 -0.25814 0.690314 0
M  V30 4347 H 402.635 0.0230927 1.89986 0
M  V30 4348 H 400.785 -2.00689 3.3265 0
M  V30 4349 H 402.457 0.268115 4.6052 0
M  V30 4350 H 400.7 0.321387 4.32608 0
M  V30 4351 H 401.371 -0.862242 5.45224 0
M  V30 4352 H 403.847 -1.78304 3.75961 0
M  V30 4353 H 402.723 -2.74567 4.75294 0
M  V30 4354 H 402.984 -3.18018 3.0711 0
M  V30 4355 N 402.043 -1.548 -0.295768 0
M  V30 4356 C 402.975 -1.82492 -1.3867 0
M  V30 4357 C 403.988 -0.708134 -1.46592 0
M  V30 4358 O 405.177 -0.985686 -1.48817 0
M  V30 4359 C 402.277 -1.95256 -2.76999 0
M  V30 4360 C 401.45 -3.25709 -2.91946 0
M  V30 4361 C 400.509 -3.28824 -4.10806 0
M  V30 4362 O 399.535 -4.02328 -4.02643 0
M  V30 4363 N 400.737 -2.5459 -5.21694 0
M  V30 4364 H 403.502 -2.76646 -1.15269 0
M  V30 4365 H 401.063 -1.54438 -0.485849 0
M  V30 4366 H 403.055 -1.94736 -3.54768 0
M  V30 4367 H 401.625 -1.08072 -2.93324 0
M  V30 4368 H 400.845 -3.38959 -2.01247 0
M  V30 4369 H 402.133 -4.11786 -2.98847 0
M  V30 4370 H 401.531 -1.94512 -5.31208 0
M  V30 4371 H 400.088 -2.59818 -5.97778 0
M  V30 4372 N 403.521 0.559213 -1.47345 0
M  V30 4373 C 404.937 0.884943 -1.32819 0
M  V30 4374 C 405.137 1.98988 -0.317173 0
M  V30 4375 O 404.193 2.51031 0.272011 0
M  V30 4376 C 405.506 1.28007 -2.72093 0
M  V30 4377 C 407.054 1.39161 -2.80363 0
M  V30 4378 C 407.529 1.82031 -4.20272 0
M  V30 4379 N 409.02 1.89185 -4.22804 0
M  V30 4380 C 409.755 2.2368 -5.27973 0
M  V30 4381 N 409.251 2.56802 -6.43447 0
M  V30 4382 N 411.044 2.24436 -5.15349 0
M  V30 4383 H 403.195 -0.170304 -2.11716 0
M  V30 4384 H 405.458 -0.0135247 -0.947904 0
M  V30 4385 H 405.164 0.542027 -3.47498 0
M  V30 4386 H 405.038 2.23665 -3.03733 0
M  V30 4387 H 407.425 2.12048 -2.05231 0
M  V30 4388 H 407.506 0.41696 -2.52379 0
M  V30 4389 H 407.15 1.09715 -4.95908 0
M  V30 4390 H 407.08 2.80495 -4.45679 0
M  V30 4391 H 409.571 1.65982 -3.39497 0
M  V30 4392 H 409.884 2.82144 -7.19454 0
M  V30 4393 H 408.229 2.54387 -6.46771 0
M  V30 4394 H 411.42 1.97998 -4.24163 0
M  V30 4395 H 411.593 2.50989 -5.97418 0
M  V30 4396 N 404.999 1.35443 0.805782 0
M  V30 4397 C 405.909 1.30546 1.94923 0
M  V30 4398 C 406.925 0.210233 1.72725 0
M  V30 4399 O 408.101 0.43975 1.9654 0
M  V30 4400 C 405.166 1.07782 3.29521 0
M  V30 4401 C 404.227 2.26625 3.64609 0
M  V30 4402 C 403.46 2.04938 4.92784 0
M  V30 4403 O 403.683 1.01624 5.61274 0
M  V30 4404 O 402.617 2.9232 5.26149 0
M  V30 4405 H 406.443 2.26779 2.02002 0
M  V30 4406 H 404.028 1.15823 0.943682 0
M  V30 4407 H 405.91 0.969392 4.10098 0
M  V30 4408 H 404.585 0.146003 3.23371 0
M  V30 4409 H 403.492 2.43033 2.84404 0
M  V30 4410 H 404.825 3.18257 3.75464 0
M  V30 4411 N 406.477 -1.02803 1.19454 0
M  V30 4412 C 407.409 -2.11181 0.890807 0
M  V30 4413 C 408.422 -1.6238 -0.116829 0
M  V30 4414 O 409.611 -1.78144 0.112694 0
M  V30 4415 C 406.711 -3.37461 0.311942 0
M  V30 4416 C 405.884 -4.15446 1.36834 0
M  V30 4417 C 404.943 -5.20039 0.802864 0
M  V30 4418 O 403.969 -5.49602 1.48077 0
M  V30 4419 N 405.171 -5.79165 -0.393417 0
M  V30 4420 H 407.936 -2.37827 1.82369 0
M  V30 4421 H 405.497 -1.19101 1.09666 0
M  V30 4422 H 407.489 -4.0462 -0.0802225 0
M  V30 4423 H 406.059 -3.08156 -0.52524 0
M  V30 4424 H 405.279 -3.43423 1.93531 0
M  V30 4425 H 406.567 -4.64335 2.08015 0
M  V30 4426 H 405.965 -5.57466 -0.961658 0
M  V30 4427 H 404.522 -6.47729 -0.727351 0
M  V30 4428 N 407.956 -0.998596 -1.21925 0
M  V30 4429 C 409.181 -0.696015 -1.95372 0
M  V30 4430 C 409.606 0.733826 -1.73195 0
M  V30 4431 O 408.964 1.50242 -1.01474 0
M  V30 4432 C 409.012 -1.01466 -3.4603 0
M  V30 4433 O 408.116 -0.116415 -4.12236 0
M  V30 4434 H 407.457 -0.259938 -0.611006 0
M  V30 4435 H 409.987 -1.33711 -1.54863 0
M  V30 4436 H 409.997 -0.958855 -3.96573 0
M  V30 4437 H 408.672 -2.05653 -3.61497 0
M  V30 4438 H 407.249 -0.228193 -3.72201 0
M  V30 4439 N 409.434 1.37368 -0.772513 0
M  V30 4440 C 410.364 2.32856 -0.173304 0
M  V30 4441 C 411.345 1.55818 0.682262 0
M  V30 4442 O 412.53 1.84052 0.619566 0
M  V30 4443 C 409.66 3.40048 0.706007 0
M  V30 4444 C 408.614 4.27973 -0.0483144 0
M  V30 4445 C 407.94 5.26184 0.950491 0
M  V30 4446 C 409.24 5.07665 -1.22776 0
M  V30 4447 H 410.934 2.83217 -0.971002 0
M  V30 4448 H 408.48 1.3617 -0.468377 0
M  V30 4449 H 410.433 4.05827 1.13501 0
M  V30 4450 H 409.157 2.88214 1.53623 0
M  V30 4451 H 407.816 3.63726 -0.458107 0
M  V30 4452 H 407.464 4.7063 1.77529 0
M  V30 4453 H 407.164 5.85872 0.450314 0
M  V30 4454 H 408.688 5.94838 1.37842 0
M  V30 4455 H 410.102 5.66578 -0.875366 0
M  V30 4456 H 408.499 5.76681 -1.66007 0
M  V30 4457 H 409.569 4.40294 -2.03149 0
M  V30 4458 N 410.912 0.523116 1.48665 0
M  V30 4459 C 411.862 -0.263106 2.26477 0
M  V30 4460 C 412.846 -0.916005 1.32281 0
M  V30 4461 O 414.038 -0.819946 1.56863 0
M  V30 4462 C 411.167 -1.31361 3.17174 0
M  V30 4463 C 410.253 -0.665849 4.1884 0
M  V30 4464 N 410.644 0.244434 5.05209 0
M  V30 4465 C 408.942 -0.923863 4.36326 0
M  V30 4466 C 409.643 0.617443 5.78414 0
M  V30 4467 N 408.619 -0.0198686 5.43596 0
M  V30 4468 H 412.421 0.437295 2.90629 0
M  V30 4469 H 409.935 0.340675 1.58787 0
M  V30 4470 H 411.932 -1.89052 3.71571 0
M  V30 4471 H 410.592 -2.01546 2.54576 0
M  V30 4472 H 411.603 0.616621 5.14216 0
M  V30 4473 H 408.28 -1.6168 3.84923 0
M  V30 4474 H 409.67 1.36346 6.57921 0
M  V30 4475 N 412.39 -1.55475 0.257931 0
M  V30 4476 C 413.615 -2.04064 -0.370488 0
M  V30 4477 C 414.04 -1.13565 -1.49948 0
M  V30 4478 O 413.398 -0.130781 -1.80828 0
M  V30 4479 C 413.446 -3.50554 -0.845237 0
M  V30 4480 O 412.55 -3.63173 -1.95394 0
M  V30 4481 H 411.891 -0.659257 -0.0792243 0
M  V30 4482 H 414.421 -2.00903 0.387212 0
M  V30 4483 H 414.431 -3.91588 -1.14555 0
M  V30 4484 H 413.106 -4.15896 -0.0191259 0
M  V30 4485 H 411.683 -3.34039 -1.65748 0
M  V30 4486 N 413.868 0.0150385 -1.57593 0
M  V30 4487 C 415.115 0.703001 -1.89906 0
M  V30 4488 C 415.443 1.74604 -0.856944 0
M  V30 4489 O 414.698 1.95197 0.140287 0
M  V30 4490 C 414.997 1.39686 -3.28972 0
M  V30 4491 C 414.663 0.488457 -4.48246 0
M  V30 4492 C 413.325 0.2383 -4.8061 0
M  V30 4493 C 415.677 -0.137881 -5.21018 0
M  V30 4494 C 413.005 -0.646738 -5.83125 0
M  V30 4495 C 415.357 -1.0107 -6.24474 0
M  V30 4496 C 414.021 -1.27019 -6.55303 0
M  V30 4497 H 413.291 0.257246 -0.694914 0
M  V30 4498 H 415.938 -0.037259 -1.91464 0
M  V30 4499 H 414.243 2.21079 -3.23468 0
M  V30 4500 H 415.94 1.93495 -3.51227 0
M  V30 4501 H 412.53 0.693593 -4.22951 0
M  V30 4502 H 416.714 0.0423953 -4.96282 0
M  V30 4503 H 411.97 -0.855937 -6.05379 0
M  V30 4504 H 416.144 -1.50247 -6.79999 0
M  V30 4505 H 413.771 -1.95769 -7.3456 0
M  V30 4506 N 415.346 1.54954 0.287554 0
M  V30 4507 C 416.296 1.8322 1.357 0
M  V30 4508 C 417.28 0.690152 1.45347 0
M  V30 4509 O 418.472 0.951137 1.49273 0
M  V30 4510 C 415.601 2.09481 2.71979 0
M  V30 4511 C 414.687 3.29906 2.66502 0
M  V30 4512 N 415.078 4.50154 2.30641 0
M  V30 4513 C 413.376 3.32203 2.97585 0
M  V30 4514 C 414.077 5.32209 2.34794 0
M  V30 4515 N 413.053 4.70258 2.72688 0
M  V30 4516 H 416.855 2.73746 1.0696 0
M  V30 4517 H 414.369 1.54635 0.496167 0
M  V30 4518 H 416.366 2.27882 3.49107 0
M  V30 4519 H 415.026 1.2023 3.0162 0
M  V30 4520 H 416.037 4.76515 2.02865 0
M  V30 4521 H 412.714 2.53101 3.32034 0
M  V30 4522 H 414.104 6.38321 2.09753 0
M  V30 4523 N 416.824 -0.551391 1.4764 0
M  V30 4524 C 418.052 -1.33357 1.58189 0
M  V30 4525 C 418.467 -1.87342 0.234199 0
M  V30 4526 O 417.824 -1.65301 -0.77343 0
M  V30 4527 C 417.875 -2.49942 2.61173 0
M  V30 4528 O 417.596 -1.98187 3.90709 0
M  V30 4529 C 419.097 -3.42072 2.8196 0
M  V30 4530 H 416.317 -0.40631 0.533998 0
M  V30 4531 H 418.861 -0.667367 1.93304 0
M  V30 4532 H 417.016 -3.12489 2.28975 0
M  V30 4533 H 417.43 -2.74342 4.47031 0
M  V30 4534 H 418.904 -4.20278 3.57869 0
M  V30 4535 H 419.381 -3.95978 1.89995 0
M  V30 4536 H 419.987 -2.85336 3.15378 0
M  V30 4537 N 418.302 -1.35869 -0.798587 0
M  V30 4538 C 419.232 -1.32118 -1.92528 0
M  V30 4539 C 420.213 -0.194209 -1.68988 0
M  V30 4540 O 421.398 -0.390426 -1.90235 0
M  V30 4541 C 418.528 -1.10047 -3.29404 0
M  V30 4542 C 417.482 -2.19471 -3.67446 0
M  V30 4543 C 416.808 -1.82555 -5.02571 0
M  V30 4544 C 418.108 -3.61495 -3.76987 0
M  V30 4545 H 419.802 -2.26394 -1.95924 0
M  V30 4546 H 417.348 -1.08981 -0.94123 0
M  V30 4547 H 419.301 -1.06061 -4.07835 0
M  V30 4548 H 418.025 -0.122195 -3.26371 0
M  V30 4549 H 416.684 -2.22568 -2.91306 0
M  V30 4550 H 416.332 -0.833249 -4.9605 0
M  V30 4551 H 416.032 -2.5581 -5.28995 0
M  V30 4552 H 417.556 -1.80108 -5.83432 0
M  V30 4553 H 418.97 -3.60676 -4.4563 0
M  V30 4554 H 417.367 -4.33577 -4.14887 0
M  V30 4555 H 418.437 -3.97065 -2.78329 0
M  V30 4556 N 419.78 1.02168 -1.19998 0
M  V30 4557 C 421.027 1.75685 -1.00702 0
M  V30 4558 C 421.355 1.88947 0.461426 0
M  V30 4559 O 420.61 1.40832 1.35885 0
M  V30 4560 C 420.909 3.18081 -1.62969 0
M  V30 4561 C 420.575 3.24809 -3.12746 0
M  V30 4562 C 419.237 3.26352 -3.53621 0
M  V30 4563 C 421.589 3.23379 -4.08749 0
M  V30 4564 C 418.917 3.2413 -4.89036 0
M  V30 4565 C 421.269 3.22698 -5.44104 0
M  V30 4566 C 419.933 3.22542 -5.84399 0
M  V30 4567 H 419.203 0.642877 -0.368496 0
M  V30 4568 H 421.85 1.19865 -1.49348 0
M  V30 4569 H 420.155 3.77027 -1.06573 0
M  V30 4570 H 421.852 3.73648 -1.45561 0
M  V30 4571 H 418.442 3.2434 -2.80181 0
M  V30 4572 H 422.626 3.21361 -3.78207 0
M  V30 4573 H 417.882 3.22338 -5.19527 0
M  V30 4574 H 422.056 3.20543 -6.18244 0
M  V30 4575 H 419.683 3.20575 -6.89301 0
M  V30 4576 N 421.258 1.00505 1.21394 0
M  V30 4577 C 422.498 0.696149 1.9218 0
M  V30 4578 C 422.862 -0.759099 1.76357 0
M  V30 4579 O 424.063 -1.17998 2.41516 0
M  V30 4580 C 422.334 1.10571 3.39866 0
M  V30 4581 S 423.893 0.91702 4.29111 0
M  V30 4582 H 420.711 0.254147 0.664026 0
M  V30 4583 H 423.313 1.28988 1.46909 0
M  V30 4584 H 422.017 2.16096 3.489 0
M  V30 4585 H 421.548 0.504268 3.90155 0
M  V30 4586 H 423.563 -0.185855 4.95852 0
M  V30 4587 N 422.737 -1.36956 0.779787 0
M  V30 4588 C 424.153 -1.52817 0.460342 0
M  V30 4589 C 424.353 -1.7361 -1.02283 0
M  V30 4590 O 423.409 -1.76207 -1.80852 0
M  V30 4591 C 424.722 -2.71983 1.28241 0
M  V30 4592 C 426.27 -2.85849 1.27512 0
M  V30 4593 C 426.745 -4.08008 2.08072 0
M  V30 4594 N 428.236 -4.15135 2.05467 0
M  V30 4595 C 428.971 -5.08711 2.64577 0
M  V30 4596 N 428.467 -6.07792 3.32506 0
M  V30 4597 N 430.26 -5.01254 2.54363 0
M  V30 4598 H 422.411 -1.21713 1.74068 0
M  V30 4599 H 424.674 -0.593294 0.739396 0
M  V30 4600 H 424.38 -2.63109 2.33381 0
M  V30 4601 H 424.254 -3.65882 0.917088 0
M  V30 4602 H 426.641 -2.94189 0.231686 0
M  V30 4603 H 426.722 -1.92886 1.68014 0
M  V30 4604 H 426.366 -4.00429 3.12441 0
M  V30 4605 H 426.296 -5.001 1.64947 0
M  V30 4606 H 428.787 -3.44189 1.5602 0
M  V30 4607 H 429.1 -6.75739 3.74963 0
M  V30 4608 H 427.445 -6.08047 3.36606 0
M  V30 4609 H 430.636 -4.22795 2.00902 0
M  V30 4610 H 430.809 -5.73995 3.00722 0
M  V30 4611 N 424.215 -0.530993 -1.48385 0
M  V30 4612 C 425.631 -0.188919 -1.58478 0
M  V30 4613 C 425.831 1.30786 -1.53288 0
M  V30 4614 O 424.887 2.08619 -1.42248 0
M  V30 4615 C 426.2 -0.792343 -2.90073 0
M  V30 4616 C 427.748 -0.76117 -3.03604 0
M  V30 4617 C 428.223 -1.34319 -4.37861 0
M  V30 4618 N 429.714 -1.3052 -4.44431 0
M  V30 4619 C 430.449 -1.72543 -5.46824 0
M  V30 4620 N 429.945 -2.22299 -6.56167 0
M  V30 4621 N 431.738 -1.63773 -5.37712 0
M  V30 4622 H 423.889 -1.50377 -1.50002 0
M  V30 4623 H 426.152 -0.625559 -0.712306 0
M  V30 4624 H 425.858 -1.84323 -2.99529 0
M  V30 4625 H 425.732 -0.270026 -3.76232 0
M  V30 4626 H 428.119 0.280957 -2.93759 0
M  V30 4627 H 428.2 -1.32097 -2.19053 0
M  V30 4628 H 427.844 -2.38425 -4.4846 0
M  V30 4629 H 427.774 -0.759064 -5.21101 0
M  V30 4630 H 430.265 -0.940973 -3.65997 0
M  V30 4631 H 430.578 -2.52356 -7.30436 0
M  V30 4632 H 428.923 -2.26293 -6.57127 0
M  V30 4633 H 432.114 -1.24698 -4.51185 0
M  V30 4634 H 432.287 -1.96844 -6.17379 0
M  V30 4635 N 425.693 1.55336 -0.266172 0
M  V30 4636 C 426.933 2.01303 0.354459 0
M  V30 4637 C 427.297 1.15046 1.53715 0
M  V30 4638 O 428.498 1.50554 2.22681 0
M  V30 4639 C 426.769 3.49748 0.735579 0
M  V30 4640 S 428.328 4.1771 1.34401 0
M  V30 4641 H 425.146 0.702333 0.110674 0
M  V30 4642 H 427.748 1.91653 -0.385916 0
M  V30 4643 H 426.452 4.10181 -0.134196 0
M  V30 4644 H 425.983 3.63364 1.50764 0
M  V30 4645 H 427.998 4.20594 2.63278 0
M  V30 4646 N 427.171 -0.0066808 1.57599 0
M  V30 4647 C 428.418 -0.69292 1.90276 0
M  V30 4648 C 428.746 -1.74148 0.866192 0
M  V30 4649 O 428.001 -1.95268 -0.129933 0
M  V30 4650 C 428.3 -1.37939 3.29708 0
M  V30 4651 C 427.966 -0.464679 4.48499 0
M  V30 4652 C 426.628 -0.212809 4.80729 0
M  V30 4653 C 428.98 0.16551 5.20937 0
M  V30 4654 C 426.308 0.677653 5.82773 0
M  V30 4655 C 428.66 1.04381 6.23929 0
M  V30 4656 C 427.324 1.30492 6.54621 0
M  V30 4657 H 426.594 -0.253558 0.696268 0
M  V30 4658 H 429.241 0.0474123 1.91441 0
M  V30 4659 H 427.546 -2.1936 3.24636 0
M  V30 4660 H 429.243 -1.9163 3.52249 0
M  V30 4661 H 425.833 -0.671153 4.23313 0
M  V30 4662 H 430.017 -0.0160756 4.96297 0
M  V30 4663 H 425.273 0.88803 6.04917 0
M  V30 4664 H 429.447 1.53851 6.79193 0
M  V30 4665 H 427.074 1.99662 7.33512 0
M  V30 4666 N 428.649 -1.55105 -0.279332 0
M  V30 4667 C 429.596 -1.8755 -1.34513 0
M  V30 4668 C 430.566 -0.726384 -1.49375 0
M  V30 4669 O 431.751 -0.977063 -1.63884 0
M  V30 4670 C 428.891 -2.14738 -2.70151 0
M  V30 4671 C 428.004 -3.42285 -2.63562 0
M  V30 4672 C 427.139 -3.59206 -3.91337 0
M  V30 4673 C 426.178 -4.80467 -3.79233 0
M  V30 4674 N 425.315 -4.94079 -4.98829 0
M  V30 4675 H 430.155 -2.78456 -1.06143 0
M  V30 4676 H 427.692 -1.37867 -0.512936 0
M  V30 4677 H 429.65 -2.28501 -3.49061 0
M  V30 4678 H 428.28 -1.27075 -2.96735 0
M  V30 4679 H 427.332 -3.37029 -1.76397 0
M  V30 4680 H 428.644 -4.31328 -2.50515 0
M  V30 4681 H 427.798 -3.72751 -4.78687 0
M  V30 4682 H 426.537 -2.68337 -4.07243 0
M  V30 4683 H 425.542 -4.66932 -2.90266 0
M  V30 4684 H 426.767 -5.72765 -3.64852 0
M  V30 4685 H 424.713 -4.06139 -5.15158 0
M  V30 4686 H 424.63 -5.77156 -4.8829 0
M  V30 4687 H 425.898 -5.12003 -5.8777 0
M  V30 4688 N 430.127 0.543554 -1.4793 0
M  V30 4689 C 431.357 1.32324 -1.58663 0
M  V30 4690 C 431.765 1.8766 -0.240896 0
M  V30 4691 O 431.108 1.66411 0.778011 0
M  V30 4692 C 431.17 2.52094 -2.56299 0
M  V30 4693 C 430.834 2.17944 -4.01683 0
M  V30 4694 C 431.831 1.74422 -4.89768 0
M  V30 4695 C 429.516 2.28884 -4.47121 0
M  V30 4696 C 431.51 1.42287 -6.21316 0
M  V30 4697 C 429.197 1.96361 -5.78693 0
M  V30 4698 C 430.195 1.53132 -6.65612 0
M  V30 4699 O 429.883 1.21029 -7.94737 0
M  V30 4700 H 429.615 0.409174 -0.538101 0
M  V30 4701 H 432.169 0.663887 -1.94375 0
M  V30 4702 H 430.399 3.20965 -2.15681 0
M  V30 4703 H 432.088 3.14165 -2.57012 0
M  V30 4704 H 432.854 1.65452 -4.55907 0
M  V30 4705 H 428.733 2.61488 -3.79664 0
M  V30 4706 H 432.277 1.08472 -6.89115 0
M  V30 4707 H 428.174 2.04967 -6.12094 0
M  V30 4708 H 428.942 1.34543 -8.07366 0
M  V30 4709 N 431.605 1.3629 0.791371 0
M  V30 4710 C 432.882 1.20962 1.53712 0
M  V30 4711 C 433.262 -0.205021 2.10102 0
M  V30 4712 O 432.61 -1.21042 1.93807 0
M  V30 4713 C 432.82 2.29002 2.63361 0
M  V30 4714 C 434.168 2.65572 3.31295 0
M  V30 4715 O 435.192 2.2803 2.73643 0
M  V30 4716 O 434.051 3.3018 4.35481 0
M  V30 4717 H 431.145 0.47086 0.679867 0
M  V30 4718 H 433.691 1.48016 0.830021 0
M  V30 4719 H 432.463 3.2382 2.19674 0
M  V30 4720 H 432.086 2.03303 3.41692 0
M  V30 4721 N 433.083 -1.0153 1.20538 0
M  V30 4722 C 434.323 -1.76689 1.02763 0
M  V30 4723 C 434.687 -1.87065 -0.432513 0
M  V30 4724 O 435.888 -2.58684 -0.730481 0
M  V30 4725 C 434.159 -3.14707 1.69393 0
M  V30 4726 S 435.718 -4.05886 1.66738 0
M  V30 4727 H 432.536 -0.608076 0.368463 0
M  V30 4728 H 435.138 -1.21558 1.53114 0
M  V30 4729 H 433.842 -3.04782 2.74838 0
M  V30 4730 H 433.373 -3.74913 1.19179 0
M  V30 4731 H 435.388 -4.91221 0.70117 0
M  V30 4732 N 434.561 -1.01147 -1.20859 0
M  V30 4733 C 435.808 -0.697865 -1.90095 0
M  V30 4734 C 436.136 0.772014 -1.78522 0
M  V30 4735 O 435.391 1.57595 -1.16027 0
M  V30 4736 C 435.69 -1.0727 -3.40922 0
M  V30 4737 C 435.356 -2.53792 -3.72693 0
M  V30 4738 C 434.018 -2.93829 -3.81075 0
M  V30 4739 C 436.37 -3.48674 -3.87397 0
M  V30 4740 C 433.698 -4.27696 -4.01613 0
M  V30 4741 C 436.05 -4.82223 -4.09444 0
M  V30 4742 C 434.714 -5.21973 -4.16054 0
M  V30 4743 H 433.984 -0.255367 -0.695607 0
M  V30 4744 H 436.631 -1.27111 -1.43231 0
M  V30 4745 H 434.936 -0.417799 -3.89566 0
M  V30 4746 H 436.633 -0.807818 -3.92779 0
M  V30 4747 H 433.223 -2.21768 -3.66765 0
M  V30 4748 H 437.407 -3.18904 -3.80281 0
M  V30 4749 H 432.663 -4.58055 -4.04964 0
M  V30 4750 H 436.837 -5.55672 -4.19763 0
M  V30 4751 H 434.464 -6.25717 -4.31721 0
M  V30 4752 N 436.039 1.36541 -0.78704 0
M  V30 4753 C 436.969 2.32659 -0.197992 0
M  V30 4754 C 437.95 1.56533 0.665697 0
M  V30 4755 O 439.135 1.84698 0.60001 0
M  V30 4756 C 436.265 3.40778 0.669901 0
M  V30 4757 C 435.219 4.27897 -0.0937039 0
M  V30 4758 C 434.545 5.27163 0.894629 0
M  V30 4759 C 435.845 5.06334 -1.28154 0
M  V30 4760 H 437.539 2.82171 -1.00099 0
M  V30 4761 H 435.085 1.35665 -0.482793 0
M  V30 4762 H 437.038 4.07008 1.09191 0
M  V30 4763 H 435.762 2.89827 1.50558 0
M  V30 4764 H 434.421 3.6322 -0.49666 0
M  V30 4765 H 434.069 4.72486 1.72527 0
M  V30 4766 H 433.769 5.86317 0.388149 0
M  V30 4767 H 435.293 5.96266 1.31525 0
M  V30 4768 H 436.707 5.65617 -0.93541 0
M  V30 4769 H 435.104 5.74888 -1.72115 0
M  V30 4770 H 436.174 4.38114 -2.07807 0
M  V30 4771 N 437.518 0.538854 1.48102 0
M  V30 4772 C 438.468 -0.23907 2.26743 0
M  V30 4773 C 439.452 -0.901923 1.33245 0
M  V30 4774 O 440.644 -0.803263 1.57723 0
M  V30 4775 C 437.773 -1.2799 3.18549 0
M  V30 4776 C 436.859 -0.621388 4.19523 0
M  V30 4777 N 437.25 0.298004 5.04921 0
M  V30 4778 C 435.548 -0.877533 4.37282 0
M  V30 4779 C 436.249 0.678757 5.77726 0
M  V30 4780 N 435.225 0.0377881 5.43587 0
M  V30 4781 H 439.027 0.468096 2.90148 0
M  V30 4782 H 436.541 0.357497 1.58416 0
M  V30 4783 H 438.538 -1.851 3.73555 0
M  V30 4784 H 437.198 -1.98835 2.567 0
M  V30 4785 H 438.209 0.671126 5.13533 0
M  V30 4786 H 434.886 -1.57588 3.86616 0
M  V30 4787 H 436.276 1.43316 6.56437 0
M  V30 4788 N 438.996 -1.55193 0.274407 0
M  V30 4789 C 440.407 -1.85358 -0.223488 0
M  V30 4790 C 440.758 -1.19642 -1.555 0
M  V30 4791 O 439.883 -0.484498 -2.10907 0
M  V30 4792 C 440.478 -3.36282 -0.412285 0
M  V30 4793 C 439.037 -3.66574 -0.854413 0
M  V30 4794 C 438.184 -2.7725 0.0527056 0
M  V30 4795 H 441.135 -1.50743 0.496215 0
M  V30 4796 H 441.156 -3.59349 -1.25094 0
M  V30 4797 H 440.668 -3.84083 0.556965 0
M  V30 4798 H 438.769 -3.24273 -1.83516 0
M  V30 4799 H 438.882 -4.74073 -0.692226 0
M  V30 4800 H 437.246 -2.50447 -0.463484 0
M  V30 4801 H 438.029 -3.27865 1.01783 0
M  V30 4802 N 440.474 -0.00167713 -1.576 0
M  V30 4803 C 441.721 0.68282 -1.90641 0
M  V30 4804 C 442.049 1.73686 -0.875415 0
M  V30 4805 O 441.304 1.95334 0.119575 0
M  V30 4806 C 441.603 1.36189 -3.30435 0
M  V30 4807 C 441.269 0.440887 -4.48739 0
M  V30 4808 C 439.931 0.187312 -4.80835 0
M  V30 4809 C 442.283 -0.193134 -5.20842 0
M  V30 4810 C 439.611 -0.70855 -5.82406 0
M  V30 4811 C 441.963 -1.07688 -6.23367 0
M  V30 4812 C 440.627 -1.33962 -6.53919 0
M  V30 4813 H 439.897 0.249862 -0.697603 0
M  V30 4814 H 442.544 -0.0575642 -1.91413 0
M  V30 4815 H 440.849 2.17636 -3.25794 0
M  V30 4816 H 442.546 1.89759 -3.5326 0
M  V30 4817 H 439.136 0.648694 -4.23663 0
M  V30 4818 H 443.32 -0.0102445 -4.96299 0
M  V30 4819 H 438.576 -0.920097 -6.04437 0
M  V30 4820 H 442.75 -1.57451 -6.78367 0
M  V30 4821 H 440.377 -2.03549 -7.32442 0
M  V30 4822 N 441.952 1.55251 0.271103 0
M  V30 4823 C 442.902 1.84649 1.33749 0
M  V30 4824 C 443.886 0.705529 1.44607 0
M  V30 4825 O 445.078 0.966916 1.48256 0
M  V30 4826 C 442.207 2.12354 2.69742 0
M  V30 4827 C 441.293 3.32714 2.62988 0
M  V30 4828 N 441.684 4.52575 2.25853 0
M  V30 4829 C 439.982 3.35341 2.94045 0
M  V30 4830 C 440.683 5.34669 2.29136 0
M  V30 4831 N 439.659 4.73123 2.67685 0
M  V30 4832 H 443.461 2.74865 1.0405 0
M  V30 4833 H 440.975 1.55152 0.479738 0
M  V30 4834 H 442.972 2.31572 3.4667 0
M  V30 4835 H 441.632 1.23422 3.00328 0
M  V30 4836 H 442.643 4.78639 1.978 0
M  V30 4837 H 439.32 2.56608 3.2933 0
M  V30 4838 H 440.71 6.40509 2.02971 0
M  V30 4839 N 443.43 -0.535701 1.48216 0
M  V30 4840 C 444.393 -1.623 1.61838 0
M  V30 4841 C 445.393 -1.53087 0.492024 0
M  V30 4842 O 446.583 -1.5686 0.757668 0
M  V30 4843 C 443.715 -3.01907 1.58319 0
M  V30 4844 H 444.908 -1.51564 2.58783 0
M  V30 4845 H 442.461 -0.757317 1.36727 0
M  V30 4846 H 443.196 -3.18155 0.628299 0
M  V30 4847 H 442.981 -3.10003 2.40085 0
M  V30 4848 H 444.471 -3.80969 1.71033 0
M  V30 4849 N 444.908 -1.36708 -0.784132 0
M  V30 4850 C 446.136 -1.34398 -1.57305 0
M  V30 4851 C 446.551 0.0735577 -1.88657 0
M  V30 4852 O 445.908 1.03193 -1.50524 0
M  V30 4853 C 445.959 -2.17053 -2.89085 0
M  V30 4854 O 445.68 -3.53281 -2.59083 0
M  V30 4855 C 447.181 -2.22583 -3.83369 0
M  V30 4856 H 444.401 -0.460819 -0.487736 0
M  V30 4857 H 446.945 -1.79879 -0.972819 0
M  V30 4858 H 445.1 -1.75113 -3.45564 0
M  V30 4859 H 445.514 -3.9647 -3.43383 0
M  V30 4860 H 446.988 -2.84763 -4.72878 0
M  V30 4861 H 447.465 -1.23075 -4.21603 0
M  V30 4862 H 448.071 -2.64781 -3.32823 0
M  V30 4863 N 446.386 1.0089 -1.21074 0
M  V30 4864 C 447.797 1.56056 -1.02486 0
M  V30 4865 C 448.148 1.91728 0.416506 0
M  V30 4866 O 447.273 1.73066 1.29912 0
M  V30 4867 C 447.868 2.83563 -1.85411 0
M  V30 4868 C 446.427 3.3523 -1.71166 0
M  V30 4869 C 445.574 2.0846 -1.82865 0
M  V30 4870 H 448.525 0.831818 -1.35154 0
M  V30 4871 H 448.546 3.55286 -1.36205 0
M  V30 4872 H 448.058 2.57569 -2.9031 0
M  V30 4873 H 446.159 3.66167 -0.689361 0
M  V30 4874 H 446.272 4.06913 -2.52901 0
M  V30 4875 H 444.636 2.21275 -1.26132 0
M  V30 4876 H 445.419 1.84883 -2.89263 0
M  V30 4877 N 447.864 1.01787 1.20321 0
M  V30 4878 C 448.812 0.58254 2.25187 0
M  V30 4879 C 449.806 -0.379359 1.65098 0
M  V30 4880 O 451.012 -0.249142 1.78267 0
M  V30 4881 H 447.387 0.170078 0.732514 0
M  V30 4882 H 449.358 1.47788 2.59232 0
M  V30 4883 C 448.107 -0.0620885 3.47645 0
M  V30 4884 H 447.43 0.669069 3.94162 0
M  V30 4885 H 448.87 -0.329784 4.22716 0
M  V30 4886 C 447.329 -1.3053 3.10586 0
M  V30 4887 O 447.859 -2.39848 3.22236 0
M  V30 4888 N 446.065 -1.18988 2.65123 0
M  V30 4889 H 445.612 -0.300341 2.55843 0
M  V30 4890 H 445.57 -2.02267 2.40698 0
M  V30 4891 N 449.342 -1.36122 0.79427 0
M  V30 4892 C 450.57 -2.03362 0.380989 0
M  V30 4893 C 450.985 -1.59881 -1.00416 0
M  V30 4894 O 450.342 -0.790515 -1.6449 0
M  V30 4895 C 450.393 -3.58804 0.440649 0
M  V30 4896 O 450.114 -4.007 1.77118 0
M  V30 4897 C 451.615 -4.43296 0.0186117 0
M  V30 4898 H 448.835 -0.652526 0.156367 0
M  V30 4899 H 451.379 -1.73998 1.07447 0
M  V30 4900 H 449.534 -3.8686 -0.204458 0
M  V30 4901 H 449.948 -4.95309 1.72538 0
M  V30 4902 H 451.422 -5.51887 0.111488 0
M  V30 4903 H 451.899 -4.2684 -1.03461 0
M  V30 4904 H 452.505 -4.20512 0.636395 0
M  V30 4905 N 450.82 -0.546701 -1.47814 0
M  V30 4906 C 452.05 -0.0232519 -2.06587 0
M  V30 4907 C 452.458 1.2712 -1.40133 0
M  V30 4908 O 451.801 1.77091 -0.488305 0
M  V30 4909 C 451.863 0.254117 -3.58601 0
M  V30 4910 C 451.527 -0.949331 -4.47031 0
M  V30 4911 C 452.524 -1.85216 -4.85789 0
M  V30 4912 C 450.209 -1.16104 -4.88697 0
M  V30 4913 C 452.203 -2.95047 -5.65001 0
M  V30 4914 C 449.89 -2.26247 -5.67676 0
M  V30 4915 C 450.888 -3.1555 -6.05737 0
M  V30 4916 O 450.576 -4.23784 -6.83127 0
M  V30 4917 H 450.308 -0.0380082 -0.674931 0
M  V30 4918 H 452.862 -0.756631 -1.90956 0
M  V30 4919 H 451.092 1.04168 -3.72406 0
M  V30 4920 H 452.781 0.72167 -3.99433 0
M  V30 4921 H 453.547 -1.70061 -4.54207 0
M  V30 4922 H 449.426 -0.475159 -4.58545 0
M  V30 4923 H 452.97 -3.64778 -5.94628 0
M  V30 4924 H 448.867 -2.41379 -5.98671 0
M  V30 4925 H 449.635 -4.21701 -7.01506 0
M  V30 4926 N 452.299 1.55045 -0.282633 0
M  V30 4927 C 453.246 2.22822 0.601566 0
M  V30 4928 C 454.216 1.20431 1.14392 0
M  V30 4929 O 455.401 1.48996 1.19184 0
M  V30 4930 C 452.541 2.95873 1.77632 0
M  V30 4931 C 451.654 4.12999 1.26711 0
M  V30 4932 C 450.789 4.73676 2.40426 0
M  V30 4933 C 449.828 5.82981 1.86545 0
M  V30 4934 N 448.965 6.3769 2.93762 0
M  V30 4935 H 453.805 2.97995 0.0169528 0
M  V30 4936 H 451.342 1.471 -0.00339964 0
M  V30 4937 H 453.3 3.36447 2.46697 0
M  V30 4938 H 451.93 2.2311 2.33285 0
M  V30 4939 H 450.982 3.77494 0.469314 0
M  V30 4940 H 452.294 4.91803 0.832518 0
M  V30 4941 H 451.448 5.17008 3.17471 0
M  V30 4942 H 450.187 3.94164 2.87203 0
M  V30 4943 H 449.192 5.39092 1.07983 0
M  V30 4944 H 450.417 6.64366 1.40694 0
M  V30 4945 H 448.363 5.61069 3.39908 0
M  V30 4946 H 448.28 7.11788 2.54744 0
M  V30 4947 H 449.548 6.8568 3.7076 0
M  V30 4948 N 453.777 0.010035 1.57597 0
M  V30 4949 C 455.193 -0.346164 1.55801 0
M  V30 4950 C 455.393 -1.74144 1.01371 0
M  V30 4951 O 454.449 -2.43938 0.651968 0
M  V30 4952 C 455.762 -0.212216 2.9995 0
M  V30 4953 C 457.31 -0.286409 3.11687 0
M  V30 4954 C 457.785 -0.18147 4.5764 0
M  V30 4955 N 459.276 -0.239056 4.62583 0
M  V30 4956 C 460.011 -0.181351 5.73113 0
M  V30 4957 N 459.507 -0.073661 6.92761 0
M  V30 4958 N 461.3 -0.233949 5.61613 0
M  V30 4959 H 453.451 0.922657 1.91313 0
M  V30 4960 H 455.714 0.354595 0.879185 0
M  V30 4961 H 455.42 0.748169 3.4365 0
M  V30 4962 H 455.294 -0.990224 3.6397 0
M  V30 4963 H 457.681 -1.23724 2.67911 0
M  V30 4964 H 457.762 0.521645 2.50425 0
M  V30 4965 H 457.406 0.765863 5.02093 0
M  V30 4966 H 457.336 -1.00814 5.1686 0
M  V30 4967 H 459.827 -0.32321 3.76515 0
M  V30 4968 H 460.14 -0.0358003 7.72792 0
M  V30 4969 H 458.485 -0.0391461 6.94989 0
M  V30 4970 H 461.676 -0.316347 4.6703 0
M  V30 4971 H 461.849 -0.185514 6.47734 0
M  V30 4972 N 455.255 -1.55392 -0.262866 0
M  V30 4973 C 456.202 -1.88966 -1.32516 0
M  V30 4974 C 457.172 -0.742187 -1.48596 0
M  V30 4975 O 458.357 -0.99439 -1.62839 0
M  V30 4976 C 455.497 -2.17592 -2.67858 0
M  V30 4977 C 454.61 -3.45061 -2.59917 0
M  V30 4978 C 453.745 -3.63336 -3.87505 0
M  V30 4979 C 452.784 -4.84462 -3.74116 0
M  V30 4980 N 451.921 -4.99342 -4.93561 0
M  V30 4981 H 456.761 -2.79566 -1.03184 0
M  V30 4982 H 454.298 -1.38404 -0.498285 0
M  V30 4983 H 456.256 -2.3219 -3.46617 0
M  V30 4984 H 454.886 -1.30215 -2.95371 0
M  V30 4985 H 453.938 -3.38881 -1.72812 0
M  V30 4986 H 455.25 -4.3396 -2.45926 0
M  V30 4987 H 454.404 -3.77807 -4.74707 0
M  V30 4988 H 453.143 -2.72641 -4.04374 0
M  V30 4989 H 452.148 -4.69985 -2.85297 0
M  V30 4990 H 453.373 -5.76603 -3.58757 0
M  V30 4991 H 451.319 -4.1158 -5.10821 0
M  V30 4992 H 451.236 -5.82303 -4.82141 0
M  V30 4993 H 452.504 -5.18208 -5.82306 0
M  V30 4994 N 456.733 0.527833 -1.48498 0
M  V30 4995 C 457.681 1.65313 -1.63628 0
M  V30 4996 C 458.675 1.6177 -0.502676 0
M  V30 4997 O 459.881 1.66601 -0.681469 0
M  V30 4998 H 456.256 0.547518 -0.515488 0
M  V30 4999 H 458.227 1.49696 -2.58135 0
M  V30 5000 C 456.976 3.03576 -1.6952 0
M  V30 5001 H 456.299 3.06997 -2.56111 0
M  V30 5002 H 457.739 3.81923 -1.84149 0
M  V30 5003 C 456.198 3.34089 -0.43432 0
M  V30 5004 O 456.728 3.99151 0.451852 0
M  V30 5005 N 454.934 2.88991 -0.305368 0
M  V30 5006 H 454.481 2.36222 -1.02747 0
M  V30 5007 H 454.439 3.09776 0.537249 0
M  V30 5008 N 458.211 1.37122 0.776871 0
M  V30 5009 C 459.439 1.3523 1.5659 0
M  V30 5010 C 459.854 -0.0635518 1.88693 0
M  V30 5011 O 459.211 -1.02394 1.51069 0
M  V30 5012 C 459.262 2.18583 2.8793 0
M  V30 5013 O 458.983 3.5465 2.57206 0
M  V30 5014 C 460.484 2.24612 3.82183 0
M  V30 5015 H 457.704 0.4634 0.485285 0
M  V30 5016 H 460.248 1.80392 0.963266 0
M  V30 5017 H 458.403 1.76943 3.4463 0
M  V30 5018 H 458.817 3.98286 3.41275 0
M  V30 5019 H 460.291 2.87267 4.71361 0
M  V30 5020 H 460.768 1.25309 4.20944 0
M  V30 5021 H 461.374 2.66543 3.31414 0
M  V30 5022 N 459.689 -1.00246 1.21608 0
M  V30 5023 C 460.599 -2.12515 0.993709 0
M  V30 5024 C 461.615 -1.73913 -0.0549939 0
M  V30 5025 O 462.791 -2.00943 0.135619 0
M  V30 5026 C 459.856 -3.42083 0.563953 0
M  V30 5027 C 458.917 -3.94843 1.68516 0
M  V30 5028 C 458.15 -5.18226 1.27582 0
M  V30 5029 O 458.373 -5.70201 0.150506 0
M  V30 5030 O 457.307 -5.64497 2.0887 0
M  V30 5031 H 461.133 -2.34152 1.93407 0
M  V30 5032 H 458.718 -1.10891 1.00118 0
M  V30 5033 H 460.6 -4.20073 0.334194 0
M  V30 5034 H 459.275 -3.21828 -0.347665 0
M  V30 5035 H 458.182 -3.18068 1.96935 0
M  V30 5036 H 459.515 -4.19512 2.5743 0
M  V30 5037 N 461.167 -1.02423 -1.1978 0
M  V30 5038 C 462.395 -0.737456 -1.93311 0
M  V30 5039 C 462.81 0.703023 -1.75223 0
M  V30 5040 O 462.167 1.47761 -1.07112 0
M  V30 5041 C 462.218 -1.0733 -3.45199 0
M  V30 5042 O 461.939 -2.4572 -3.62702 0
M  V30 5043 C 463.44 -0.80866 -4.35862 0
M  V30 5044 H 460.66 -0.2702 -0.614193 0
M  V30 5045 H 463.204 -1.36747 -1.52054 0
M  V30 5046 H 461.359 -0.488545 -3.84307 0
M  V30 5047 H 461.773 -2.58081 -4.56612 0
M  V30 5048 H 463.247 -1.09365 -5.41057 0
M  V30 5049 H 463.724 0.257025 -4.38447 0
M  V30 5050 H 464.33 -1.37592 -4.02428 0
M  V30 5051 N 462.645 1.35699 -0.801477 0
M  V30 5052 C 463.608 2.28199 -0.213994 0
M  V30 5053 C 464.608 1.49359 0.595691 0
M  V30 5054 O 465.798 1.69186 0.414921 0
M  V30 5055 C 462.93 3.33587 0.702297 0
M  V30 5056 H 464.123 2.81666 -1.02976 0
M  V30 5057 H 461.676 1.45467 -0.571759 0
M  V30 5058 H 462.411 2.85297 1.54195 0
M  V30 5059 H 462.196 3.91906 0.123484 0
M  V30 5060 H 463.686 4.02638 1.10783 0
M  V30 5061 N 464.123 0.554532 1.47522 0
M  V30 5062 C 465.053 -0.182974 2.32782 0
M  V30 5063 C 466.034 -0.911377 1.43624 0
M  V30 5064 O 467.219 -0.892366 1.72483 0
M  V30 5065 C 464.349 -1.21513 3.25349 0
M  V30 5066 C 463.303 -0.603355 4.23726 0
M  V30 5067 C 462.629 -1.73995 5.05598 0
M  V30 5068 C 463.929 0.441121 5.20434 0
M  V30 5069 H 465.623 0.52882 2.94693 0
M  V30 5070 H 463.169 0.255759 1.41711 0
M  V30 5071 H 465.122 -1.73922 3.83835 0
M  V30 5072 H 463.846 -1.95683 2.61487 0
M  V30 5073 H 462.505 -0.10059 3.66462 0
M  V30 5074 H 462.153 -2.47063 4.38143 0
M  V30 5075 H 461.853 -1.3364 5.72201 0
M  V30 5076 H 463.377 -2.26735 5.66942 0
M  V30 5077 H 464.791 0.00319931 5.733 0
M  V30 5078 H 463.188 0.763402 5.95224 0
M  V30 5079 H 464.258 1.33799 4.66075 0
M  V30 5080 N 465.601 -1.54893 0.290851 0
M  V30 5081 C 466.878 -1.91991 -0.373989 0
M  V30 5082 C 467.258 -1.21694 -1.72493 0
M  V30 5083 O 466.606 -0.34917 -2.25816 0
M  V30 5084 C 466.816 -3.45419 -0.498703 0
M  V30 5085 C 468.164 -4.1748 -0.774298 0
M  V30 5086 O 469.188 -3.51398 -0.582908 0
M  V30 5087 O 468.047 -5.3445 -1.14129 0
M  V30 5088 H 465.141 -0.800593 -0.207315 0
M  V30 5089 H 467.687 -1.66297 0.338164 0
M  V30 5090 H 466.459 -3.88688 0.451392 0
M  V30 5091 H 466.082 -3.77117 -1.25972 0
M  V30 5092 N 467.08 -0.0183926 -1.57589 0
M  V30 5093 C 468.028 0.985111 -2.10709 0
M  V30 5094 C 469.022 1.34397 -1.0312 0
M  V30 5095 O 470.228 1.32746 -1.21567 0
M  V30 5096 H 466.603 0.335418 -0.673052 0
M  V30 5097 H 468.574 0.511689 -2.9398 0
M  V30 5098 C 467.323 2.26202 -2.64061 0
M  V30 5099 H 466.646 1.9946 -3.4649 0
M  V30 5100 H 468.086 2.94652 -3.04887 0
M  V30 5101 C 466.545 2.98444 -1.5631 0
M  V30 5102 O 467.075 3.90142 -0.956674 0
M  V30 5103 N 465.281 2.6059 -1.28612 0
M  V30 5104 H 464.828 1.86101 -1.78112 0
M  V30 5105 H 464.786 3.09238 -0.567406 0
M  V30 5106 N 468.558 1.5553 0.254621 0
M  V30 5107 C 469.505 1.89666 1.31512 0
M  V30 5108 C 470.475 0.750057 1.482 0
M  V30 5109 O 471.66 1.00301 1.62309 0
M  V30 5110 C 468.8 2.19009 2.667 0
M  V30 5111 C 467.913 3.46435 2.58083 0
M  V30 5112 C 467.048 3.65386 3.85573 0
M  V30 5113 C 466.087 4.8644 3.71541 0
M  V30 5114 N 465.224 5.01952 4.90906 0
M  V30 5115 H 470.064 2.80109 1.017 0
M  V30 5116 H 467.601 1.38666 0.490938 0
M  V30 5117 H 469.559 2.34025 3.45381 0
M  V30 5118 H 468.189 1.31779 2.94676 0
M  V30 5119 H 467.241 3.39792 1.71013 0
M  V30 5120 H 468.553 4.35258 2.43622 0
M  V30 5121 H 467.707 3.80319 4.72697 0
M  V30 5122 H 466.446 2.74781 4.02922 0
M  V30 5123 H 465.451 4.71491 2.82801 0
M  V30 5124 H 466.676 5.78497 3.55694 0
M  V30 5125 H 464.622 4.14283 5.08631 0
M  V30 5126 H 464.539 5.84851 4.79046 0
M  V30 5127 H 465.807 5.21289 5.7955 0
M  V30 5128 N 470.036 -0.519951 1.48776 0
M  V30 5129 C 471.447 -1.10177 1.50725 0
M  V30 5130 C 471.798 -1.94153 0.282678 0
M  V30 5131 O 470.923 -2.07645 -0.609298 0
M  V30 5132 C 471.518 -2.00482 2.73116 0
M  V30 5133 C 470.077 -2.53862 2.77905 0
M  V30 5134 C 469.224 -1.31047 2.44381 0
M  V30 5135 H 472.175 -0.30473 1.55747 0
M  V30 5136 H 472.196 -2.8491 2.52203 0
M  V30 5137 H 471.708 -1.39335 3.62225 0
M  V30 5138 H 469.809 -3.18702 1.93029 0
M  V30 5139 H 469.922 -2.9231 3.79594 0
M  V30 5140 H 468.286 -1.62953 1.95751 0
M  V30 5141 H 469.069 -0.71637 3.35743 0
M  V30 5142 N 471.514 -1.37532 -0.769588 0
M  V30 5143 C 472.754 -1.34261 -1.54122 0
M  V30 5144 C 473.118 0.0717222 -1.91866 0
M  V30 5145 O 474.319 0.22918 -2.67821 0
M  V30 5146 C 472.59 -2.2574 -2.77086 0
M  V30 5147 S 474.149 -2.40339 -3.67127 0
M  V30 5148 H 470.967 -0.476595 -0.527615 0
M  V30 5149 H 473.569 -1.73303 -0.90479 0
M  V30 5150 H 472.273 -3.27417 -2.4744 0
M  V30 5151 H 471.804 -1.87789 -3.45686 0
M  V30 5152 H 473.819 -1.61558 -4.69163 0
M  V30 5153 N 472.992 0.995999 -1.22138 0
M  V30 5154 C 474.24 1.73167 -1.042 0
M  V30 5155 C 474.561 1.90329 0.42423 0
M  V30 5156 O 473.831 1.4607 1.30539 0
M  V30 5157 H 472.411 0.641593 -0.38258 0
M  V30 5158 H 475.073 1.19974 -1.53598 0
M  V30 5159 H 474.169 2.72734 -1.51731 0
M  V30 5160 N 474.47 1.03057 1.19235 0
M  V30 5161 C 475.881 0.757449 1.70645 0
M  V30 5162 C 476.232 -0.722735 1.82403 0
M  V30 5163 O 475.357 -1.56325 1.49638 0
M  V30 5164 C 475.952 1.36833 3.09939 0
M  V30 5165 C 474.511 1.14375 3.58602 0
M  V30 5166 C 473.658 1.46533 2.35422 0
M  V30 5167 H 476.609 1.19828 1.04052 0
M  V30 5168 H 476.63 0.766184 3.72706 0
M  V30 5169 H 476.142 2.44562 3.01349 0
M  V30 5170 H 474.243 0.0847542 3.72504 0
M  V30 5171 H 474.356 1.83366 4.42622 0
M  V30 5172 H 472.72 0.884712 2.38841 0
M  V30 5173 H 473.503 2.55349 2.2946 0
M  V30 5174 N 475.948 -1.35272 0.808662 0
M  V30 5175 C 476.88 -2.28507 0.178149 0
M  V30 5176 C 477.893 -1.50377 -0.623754 0
M  V30 5177 O 479.082 -1.72583 -0.455774 0
M  V30 5178 C 476.182 -3.30038 -0.769959 0
M  V30 5179 C 475.355 -4.37398 -0.0139749 0
M  V30 5180 C 474.414 -5.18775 -0.880875 0
M  V30 5181 O 473.44 -5.68236 -0.331059 0
M  V30 5182 N 474.642 -5.37087 -2.20267 0
M  V30 5183 H 477.407 -2.83255 0.979106 0
M  V30 5184 H 474.968 -1.47643 0.664308 0
M  V30 5185 H 476.96 -3.81371 -1.35418 0
M  V30 5186 H 475.53 -2.75789 -1.47171 0
M  V30 5187 H 474.75 -3.86971 0.751468 0
M  V30 5188 H 476.038 -5.06268 0.506965 0
M  V30 5189 H 475.436 -4.9855 -2.67328 0
M  V30 5190 H 473.993 -5.91593 -2.73608 0
M  V30 5191 N 477.426 -0.562348 -1.47226 0
M  V30 5192 C 478.666 -0.0426374 -2.04356 0
M  V30 5193 C 479.03 1.28487 -1.42671 0
M  V30 5194 O 480.231 1.89259 -1.90878 0
M  V30 5195 C 478.502 0.0433826 -3.57374 0
M  V30 5196 S 480.061 0.508472 -4.35844 0
M  V30 5197 H 476.879 -0.0276234 -0.710463 0
M  V30 5198 H 479.481 -0.750245 -1.80531 0
M  V30 5199 H 478.185 -0.927072 -3.99792 0
M  V30 5200 H 477.716 0.774387 -3.85703 0
M  V30 5201 H 479.731 1.76719 -4.63665 0
M  V30 5202 N 478.904 1.54736 -0.299062 0
M  V30 5203 C 480.134 2.04215 0.312992 0
M  V30 5204 C 480.542 1.17596 1.48215 0
M  V30 5205 O 479.885 0.193835 1.82674 0
M  V30 5206 C 479.947 3.49696 0.833862 0
M  V30 5207 C 479.611 4.56518 -0.20977 0
M  V30 5208 C 480.608 5.09442 -1.03756 0
M  V30 5209 C 478.293 5.01073 -0.35091 0
M  V30 5210 C 480.287 6.05459 -1.99244 0
M  V30 5211 C 477.974 5.9691 -1.30924 0
M  V30 5212 C 478.972 6.48987 -2.1285 0
M  V30 5213 O 478.66 7.42947 -3.07059 0
M  V30 5214 H 478.392 0.672128 0.0722494 0
M  V30 5215 H 480.946 2.00718 -0.436043 0
M  V30 5216 H 479.176 3.5051 1.63339 0
M  V30 5217 H 480.865 3.82381 1.36159 0
M  V30 5218 H 481.631 4.75816 -0.939376 0
M  V30 5219 H 477.51 4.60168 0.276813 0
M  V30 5220 H 481.054 6.46031 -2.63229 0
M  V30 5221 H 476.951 6.29953 -1.40815 0
M  V30 5222 H 477.719 7.60743 -3.02015 0
M  V30 5223 N 480.382 0.0267497 1.57577 0
M  V30 5224 C 481.314 -0.984594 2.06974 0
M  V30 5225 C 482.327 -1.29032 0.992705 0
M  V30 5226 O 483.516 -1.25539 1.26895 0
M  V30 5227 C 480.616 -2.31262 2.47732 0
M  V30 5228 C 479.789 -2.1924 3.78487 0
M  V30 5229 C 478.848 -3.34956 4.05821 0
M  V30 5230 O 477.874 -3.11948 4.76106 0
M  V30 5231 N 479.076 -4.58672 3.55809 0
M  V30 5232 H 481.841 -0.563143 2.94362 0
M  V30 5233 H 479.402 -0.160061 1.61107 0
M  V30 5234 H 481.394 -3.07496 2.63112 0
M  V30 5235 H 479.964 -2.65056 1.65723 0
M  V30 5236 H 479.184 -1.27747 3.72927 0
M  V30 5237 H 480.472 -2.08409 4.64158 0
M  V30 5238 H 479.87 -4.8026 2.98942 0
M  V30 5239 H 478.427 -5.32083 3.76472 0
M  V30 5240 N 481.861 -1.55662 -0.24637 0
M  V30 5241 C 482.811 -1.86753 -1.30795 0
M  V30 5242 C 483.795 -0.728445 -1.43466 0
M  V30 5243 O 484.987 -0.99038 -1.46699 0
M  V30 5244 C 482.116 -2.16618 -2.66329 0
M  V30 5245 C 481.202 -3.36855 -2.57661 0
M  V30 5246 N 481.593 -4.56111 -2.18624 0
M  V30 5247 C 479.891 -3.39976 -2.88673 0
M  V30 5248 C 480.592 -5.38247 -2.20601 0
M  V30 5249 N 479.568 -4.77322 -2.60124 0
M  V30 5250 H 483.37 -2.76486 -0.996642 0
M  V30 5251 H 480.884 -1.55896 -0.454994 0
M  V30 5252 H 482.881 -2.37057 -3.42942 0
M  V30 5253 H 481.541 -1.28185 -2.98327 0
M  V30 5254 H 482.552 -4.81726 -1.9016 0
M  V30 5255 H 479.229 -2.61815 -3.25206 0
M  V30 5256 H 480.619 -6.43657 -1.92756 0
M  V30 5257 N 483.339 0.512053 -1.4905 0
M  V30 5258 C 484.269 1.62365 -1.67809 0
M  V30 5259 C 485.25 1.61737 -0.526809 0
M  V30 5260 O 486.435 1.78651 -0.761404 0
M  V30 5261 C 483.565 3.00895 -1.73435 0
M  V30 5262 C 482.519 3.16387 -2.88242 0
M  V30 5263 C 481.845 4.56157 -2.78971 0
M  V30 5264 C 483.145 2.97457 -4.29321 0
M  V30 5265 H 484.839 1.46921 -2.60873 0
M  V30 5266 H 482.385 0.705379 -1.2554 0
M  V30 5267 H 484.338 3.78549 -1.85145 0
M  V30 5268 H 483.062 3.17403 -0.769619 0
M  V30 5269 H 481.721 2.41155 -2.76116 0
M  V30 5270 H 481.369 4.69525 -1.8043 0
M  V30 5271 H 481.069 4.67465 -3.5602 0
M  V30 5272 H 482.593 5.35886 -2.92675 0
M  V30 5273 H 484.007 3.64888 -4.42187 0
M  V30 5274 H 482.404 3.20245 -5.07507 0
M  V30 5275 H 483.474 1.93692 -4.44535 0
M  V30 5276 N 484.817 1.37938 0.762283 0
M  V30 5277 C 485.727 1.36681 1.90671 0
M  V30 5278 C 486.743 0.265078 1.71969 0
M  V30 5279 O 487.919 0.502055 1.95042 0
M  V30 5280 C 484.984 1.18211 3.25925 0
M  V30 5281 C 484.045 2.3811 3.57214 0
M  V30 5282 C 483.278 2.20512 4.86014 0
M  V30 5283 O 483.501 1.19429 5.57757 0
M  V30 5284 O 482.435 3.08911 5.16583 0
M  V30 5285 H 486.261 2.33091 1.94685 0
M  V30 5286 H 483.846 1.18767 0.906356 0
M  V30 5287 H 485.728 1.09937 4.06807 0
M  V30 5288 H 484.403 0.248807 3.22742 0
M  V30 5289 H 483.31 2.51958 2.76529 0
M  V30 5290 H 484.643 3.30041 3.65149 0
M  V30 5291 N 486.295 -0.989507 1.22664 0
M  V30 5292 C 487.543 -1.72612 1.05117 0
M  V30 5293 C 487.864 -1.90552 -0.414131 0
M  V30 5294 O 487.134 -1.4676 -1.29762 0
M  V30 5295 H 485.714 -0.639555 0.385977 0
M  V30 5296 H 488.376 -1.19158 1.54232 0
M  V30 5297 H 487.472 -2.71926 1.53175 0
M  V30 5298 N 487.773 -1.03688 -1.18687 0
M  V30 5299 C 488.736 -0.629115 -2.20397 0
M  V30 5300 C 489.736 0.311495 -1.57754 0
M  V30 5301 O 490.926 0.0974107 -1.73927 0
M  V30 5302 C 488.058 0.0782231 -3.4081 0
M  V30 5303 H 489.251 -1.52915 -2.57987 0
M  V30 5304 H 486.804 -0.828988 -1.32505 0
M  V30 5305 H 487.539 0.992233 -3.08748 0
M  V30 5306 H 487.324 -0.597776 -3.87517 0
M  V30 5307 H 488.814 0.350156 -4.16129 0
M  V30 5308 N 489.251 1.34841 -0.815825 0
M  V30 5309 C 490.198 2.29644 -0.230664 0
M  V30 5310 C 491.168 1.53253 0.640533 0
M  V30 5311 O 492.353 1.81653 0.583672 0
M  V30 5312 C 489.493 3.39715 0.607275 0
M  V30 5313 C 488.606 4.31056 -0.28538 0
M  V30 5314 C 487.741 5.28225 0.561446 0
M  V30 5315 C 486.78 6.11204 -0.331035 0
M  V30 5316 N 485.917 7.00483 0.476302 0
M  V30 5317 H 490.757 2.79095 -1.0445 0
M  V30 5318 H 488.294 1.37351 -0.526595 0
M  V30 5319 H 490.252 4.02208 1.10835 0
M  V30 5320 H 488.882 2.91517 1.38629 0
M  V30 5321 H 487.934 3.69487 -0.904621 0
M  V30 5322 H 489.246 4.89239 -0.97193 0
M  V30 5323 H 488.4 5.96135 1.12728 0
M  V30 5324 H 487.139 4.70562 1.28153 0
M  V30 5325 H 486.144 5.42232 -0.909069 0
M  V30 5326 H 487.369 6.70947 -1.04912 0
M  V30 5327 H 485.315 6.45296 1.18019 0
M  V30 5328 H 485.232 7.55847 -0.152008 0
M  V30 5329 H 486.5 7.7273 1.02512 0
M  V30 5330 N 490.729 0.570148 1.46925 0
M  V30 5331 C 491.639 -0.173061 2.33961 0
M  V30 5332 C 492.655 -0.898825 1.48987 0
M  V30 5333 O 493.831 -0.864825 1.81887 0
M  V30 5334 C 490.896 -1.18177 3.25937 0
M  V30 5335 C 489.957 -0.462041 4.26806 0
M  V30 5336 C 489.19 -1.4227 5.14388 0
M  V30 5337 O 489.413 -2.65842 5.04662 0
M  V30 5338 O 488.347 -0.940127 5.94513 0
M  V30 5339 H 492.173 0.541216 2.98839 0
M  V30 5340 H 489.758 0.330647 1.45695 0
M  V30 5341 H 491.64 -1.76372 3.82715 0
M  V30 5342 H 490.315 -1.87774 2.63671 0
M  V30 5343 H 489.222 0.161429 3.73752 0
M  V30 5344 H 490.555 0.192719 4.91823 0
M  V30 5345 N 492.207 -1.54576 0.307264 0
M  V30 5346 C 493.454 -2.00263 -0.300167 0
M  V30 5347 C 493.782 -1.19561 -1.53413 0
M  V30 5348 O 493.037 -0.261487 -1.93945 0
M  V30 5349 C 493.336 -3.50572 -0.695253 0
M  V30 5350 C 493.002 -4.48771 0.437679 0
M  V30 5351 C 491.664 -4.7534 0.748681 0
M  V30 5352 C 494.016 -5.0721 1.19949 0
M  V30 5353 C 491.344 -5.5761 1.8245 0
M  V30 5354 C 493.696 -5.90651 2.26527 0
M  V30 5355 C 492.36 -6.15528 2.58227 0
M  V30 5356 H 491.63 -0.732814 -0.109839 0
M  V30 5357 H 494.277 -1.86664 0.427661 0
M  V30 5358 H 492.582 -3.61814 -1.50326 0
M  V30 5359 H 494.279 -3.83352 -1.17653 0
M  V30 5360 H 490.869 -4.282 0.185187 0
M  V30 5361 H 495.053 -4.86679 0.972474 0
M  V30 5362 H 490.309 -5.75121 2.07476 0
M  V30 5363 H 494.483 -6.34957 2.86011 0
M  V30 5364 H 492.11 -6.79066 3.4172 0
M  V30 5365 N 493.685 -0.035106 -1.57561 0
M  V30 5366 C 494.648 0.929819 -2.09492 0
M  V30 5367 C 495.648 1.25026 -1.01119 0
M  V30 5368 O 496.838 1.18961 -1.27255 0
M  V30 5369 C 493.97 2.24457 -2.56577 0
M  V30 5370 H 495.163 0.479935 -2.96035 0
M  V30 5371 H 492.716 0.213033 -1.54841 0
M  V30 5372 H 493.451 2.74061 -1.73382 0
M  V30 5373 H 493.236 2.02508 -3.35757 0
M  V30 5374 H 494.726 2.93607 -2.96959 0
M  V30 5375 N 495.163 1.55791 0.238111 0
M  V30 5376 C 496.126 1.90239 1.27835 0
M  V30 5377 C 497.126 0.779552 1.4064 0
M  V30 5378 O 498.316 1.04747 1.3919 0
M  V30 5379 C 495.448 2.13859 2.65475 0
M  V30 5380 H 496.641 2.83262 0.985034 0
M  V30 5381 H 494.194 1.48818 0.477799 0
M  V30 5382 H 494.929 1.23334 2.99932 0
M  V30 5383 H 494.714 2.95643 2.57561 0
M  V30 5384 H 496.204 2.41664 3.40571 0
M  V30 5385 N 496.642 -0.504142 1.49319 0
M  V30 5386 C 497.605 -1.5883 1.65244 0
M  V30 5387 C 498.605 -1.52009 0.524386 0
M  V30 5388 O 499.795 -1.55218 0.79077 0
M  V30 5389 C 496.927 -2.98481 1.64687 0
M  V30 5390 H 498.12 -1.4604 2.61939 0
M  V30 5391 H 495.673 -0.728144 1.38303 0
M  V30 5392 H 496.408 -3.16751 0.695644 0
M  V30 5393 H 496.193 -3.0484 2.46607 0
M  V30 5394 H 497.683 -3.77256 1.79075 0
M  V30 5395 N 498.12 -1.38341 -0.754957 0
M  V30 5396 C 499.05 -1.38176 -1.88227 0
M  V30 5397 C 500.031 -0.247873 -1.68284 0
M  V30 5398 O 501.216 -0.45075 -1.88896 0
M  V30 5399 C 498.346 -1.20471 -3.25736 0
M  V30 5400 C 497.3 -2.3105 -3.60278 0
M  V30 5401 C 496.626 -1.98452 -4.96509 0
M  V30 5402 C 497.926 -3.73305 -3.65295 0
M  V30 5403 H 499.62 -2.32512 -1.88622 0
M  V30 5404 H 497.166 -1.1192 -0.906082 0
M  V30 5405 H 499.119 -1.18982 -4.04254 0
M  V30 5406 H 497.843 -0.225965 -3.25817 0
M  V30 5407 H 496.502 -2.31723 -2.84078 0
M  V30 5408 H 496.15 -0.990641 -4.93148 0
M  V30 5409 H 495.85 -2.7251 -5.20588 0
M  V30 5410 H 497.374 -1.98578 -5.77407 0
M  V30 5411 H 498.788 -3.7467 -4.3393 0
M  V30 5412 H 497.185 -4.46557 -4.00883 0
M  V30 5413 H 498.255 -4.05719 -2.65556 0
M  V30 5414 N 499.598 0.982988 -1.23187 0
M  V30 5415 C 500.826 1.75921 -1.08901 0
M  V30 5416 C 501.241 1.85341 0.359719 0
M  V30 5417 O 500.598 1.33072 1.24892 0
M  V30 5418 C 500.649 3.18742 -1.70545 0
M  V30 5419 O 500.37 3.09814 -3.09753 0
M  V30 5420 C 501.871 4.1277 -1.61667 0
M  V30 5421 H 499.091 0.552166 -0.381252 0
M  V30 5422 H 501.635 1.23516 -1.62985 0
M  V30 5423 H 499.79 3.68182 -1.20501 0
M  V30 5424 H 500.204 3.99703 -3.39614 0
M  V30 5425 H 501.678 5.10697 -2.09506 0
M  V30 5426 H 502.155 4.3542 -0.575009 0
M  V30 5427 H 502.761 3.69232 -2.11064 0
M  V30 5428 N 501.076 1.04316 1.18135 0
M  V30 5429 C 502.039 0.640794 2.2006 0
M  V30 5430 C 503.039 -0.303124 1.57917 0
M  V30 5431 O 504.229 -0.0881855 1.73977 0
M  V30 5432 C 501.361 -0.060148 3.40847 0
M  V30 5433 H 502.554 1.54281 2.57172 0
M  V30 5434 H 500.107 0.836004 1.32063 0
M  V30 5435 H 500.842 -0.975845 3.0927 0
M  V30 5436 H 500.627 0.618319 3.87194 0
M  V30 5437 H 502.117 -0.328082 4.16309 0
M  V30 5438 N 502.554 -1.34406 0.822964 0
M  V30 5439 C 503.464 -2.33298 0.246838 0
M  V30 5440 C 504.48 -1.62625 -0.618797 0
M  V30 5441 O 505.656 -1.94391 -0.526685 0
M  V30 5442 C 502.721 -3.41785 -0.581731 0
M  V30 5443 C 501.782 -4.28206 0.306309 0
M  V30 5444 C 501.015 -5.31512 -0.48281 0
M  V30 5445 O 501.238 -5.43973 -1.71607 0
M  V30 5446 O 500.172 -6.01749 0.134884 0
M  V30 5447 H 503.998 -2.84401 1.06534 0
M  V30 5448 H 501.583 -1.37466 0.585108 0
M  V30 5449 H 503.465 -4.08028 -1.05313 0
M  V30 5450 H 502.14 -2.92925 -1.37756 0
M  V30 5451 H 501.047 -3.64885 0.825199 0
M  V30 5452 H 502.38 -4.80507 1.06649 0
M  V30 5453 N 504.032 -0.577932 -1.46621 0
M  V30 5454 C 505.448 -0.239242 -1.57797 0
M  V30 5455 C 505.648 1.25843 -1.57371 0
M  V30 5456 O 504.704 2.03988 -1.48813 0
M  V30 5457 C 506.017 -0.884227 -2.87405 0
M  V30 5458 C 507.565 -0.857373 -3.01028 0
M  V30 5459 C 508.04 -1.48181 -4.33366 0
M  V30 5460 N 509.531 -1.44593 -4.40053 0
M  V30 5461 C 510.266 -1.89852 -5.41058 0
M  V30 5462 N 509.762 -2.43062 -6.48762 0
M  V30 5463 N 511.555 -1.80797 -5.3223 0
M  V30 5464 H 503.706 -1.55073 -1.45142 0
M  V30 5465 H 505.969 -0.647903 -0.692044 0
M  V30 5466 H 505.675 -1.93759 -2.93514 0
M  V30 5467 H 505.549 -0.389585 -3.75183 0
M  V30 5468 H 507.936 0.187357 -2.94505 0
M  V30 5469 H 508.017 -1.38999 -2.14739 0
M  V30 5470 H 507.661 -2.52572 -4.40647 0
M  V30 5471 H 507.591 -0.924464 -5.18422 0
M  V30 5472 H 510.082 -1.05694 -3.62819 0
M  V30 5473 H 510.395 -2.75466 -7.22038 0
M  V30 5474 H 508.74 -2.47085 -6.49595 0
M  V30 5475 H 511.931 -1.38989 -4.46989 0
M  V30 5476 H 512.104 -2.16385 -6.10804 0
M  V30 5477 N 505.51 1.54411 -0.315457 0
M  V30 5478 C 506.759 1.99599 0.290395 0
M  V30 5479 C 507.072 1.20746 1.53882 0
M  V30 5480 O 508.278 1.56272 2.22017 0
M  V30 5481 C 506.734 3.5539 0.56797 0
M  V30 5482 C 506.342 4.43068 -0.662945 0
M  V30 5483 C 508.086 4.09067 1.13422 0
M  V30 5484 C 505.993 5.90317 -0.357722 0
M  V30 5485 H 504.923 0.745592 0.112286 0
M  V30 5486 H 507.574 1.78477 -0.426418 0
M  V30 5487 H 505.956 3.72468 1.34476 0
M  V30 5488 H 507.13 4.37765 -1.43869 0
M  V30 5489 H 505.445 4.00238 -1.14884 0
M  V30 5490 H 508.042 5.16663 1.37707 0
M  V30 5491 H 508.385 3.60552 2.08106 0
M  V30 5492 H 508.918 3.95589 0.418805 0
M  V30 5493 H 505.657 6.4301 -1.27351 0
M  V30 5494 H 505.177 5.98592 0.380472 0
M  V30 5495 H 506.856 6.4699 0.0354284 0
M  V30 5496 N 506.988 0.0434614 1.5754 0
M  V30 5497 C 507.935 -0.93356 2.11077 0
M  V30 5498 C 508.905 -1.31383 1.01626 0
M  V30 5499 O 510.09 -1.40465 1.29129 0
M  V30 5500 C 507.23 -2.20578 2.65404 0
M  V30 5501 C 506.343 -1.88068 3.88914 0
M  V30 5502 C 505.478 -3.09691 4.31584 0
M  V30 5503 C 504.517 -2.73067 5.47815 0
M  V30 5504 N 503.654 -3.87359 5.85574 0
M  V30 5505 H 508.494 -0.470118 2.94268 0
M  V30 5506 H 506.031 -0.220434 1.45439 0
M  V30 5507 H 507.989 -2.95011 2.94999 0
M  V30 5508 H 506.619 -2.64513 1.85021 0
M  V30 5509 H 505.671 -1.03816 3.6596 0
M  V30 5510 H 506.983 -1.57104 4.73413 0
M  V30 5511 H 506.137 -3.92431 4.62691 0
M  V30 5512 H 504.876 -3.43827 3.45882 0
M  V30 5513 H 503.881 -1.88742 5.16388 0
M  V30 5514 H 505.106 -2.40131 6.35227 0
M  V30 5515 H 503.052 -4.21311 5.02825 0
M  V30 5516 H 502.969 -3.60068 6.64746 0
M  V30 5517 H 504.237 -4.70761 6.21292 0
M  V30 5518 N 508.466 -1.55915 -0.229846 0
M  V30 5519 C 509.694 -1.82617 -0.972562 0
M  V30 5520 C 510.109 -0.621488 -1.78278 0
M  V30 5521 O 509.466 0.409956 -1.77836 0
M  V30 5522 C 509.517 -3.0774 -1.89679 0
M  V30 5523 O 509.238 -4.23559 -1.11934 0
M  V30 5524 C 510.739 -3.47368 -2.75409 0
M  V30 5525 H 507.959 -0.60727 -0.285419 0
M  V30 5526 H 510.503 -2.02996 -0.247579 0
M  V30 5527 H 508.658 -2.89361 -2.57583 0
M  V30 5528 H 509.072 -4.94586 -1.74599 0
M  V30 5529 H 510.546 -4.37977 -3.35977 0
M  V30 5530 H 511.023 -2.68737 -3.47386 0
M  V30 5531 H 511.629 -3.68158 -2.12931 0
M  V30 5532 N 509.944 0.496216 -1.49584 0
M  V30 5533 C 511.355 1.07765 -1.52459 0
M  V30 5534 C 511.706 1.93679 -0.31353 0
M  V30 5535 O 510.831 2.08588 0.576186 0
M  V30 5536 C 511.426 1.96111 -2.76271 0
M  V30 5537 C 509.985 2.49409 -2.81908 0
M  V30 5538 C 509.132 1.27142 -2.46435 0
M  V30 5539 H 512.083 0.279914 -1.56212 0
M  V30 5540 H 512.104 2.80862 -2.56704 0
M  V30 5541 H 511.616 1.33555 -3.64396 0
M  V30 5542 H 509.717 3.1559 -1.98074 0
M  V30 5543 H 509.83 2.86234 -3.84196 0
M  V30 5544 H 508.194 1.59818 -1.98319 0
M  V30 5545 H 508.977 0.662866 -3.3684 0
M  V30 5546 N 511.423 1.38739 0.74761 0
M  V30 5547 C 512.834 1.31507 1.32524 0
M  V30 5548 C 513.185 -0.0263963 1.96182 0
M  V30 5549 O 512.31 -0.92849 1.95469 0
M  V30 5550 C 512.905 2.38162 2.40966 0
M  V30 5551 C 511.464 2.34489 2.94434 0
M  V30 5552 C 510.611 2.20712 1.67873 0
M  V30 5553 H 513.562 1.4901 0.546043 0
M  V30 5554 H 513.583 2.04222 3.21051 0
M  V30 5555 H 513.095 3.35783 1.94605 0
M  V30 5556 H 511.196 1.40467 3.45108 0
M  V30 5557 H 511.309 3.28861 3.48407 0
M  V30 5558 H 509.673 1.67667 1.91729 0
M  V30 5559 H 510.456 3.20285 1.23582 0
M  V30 5560 N 512.901 -0.976442 1.23707 0
M  V30 5561 C 513.848 -2.06952 1.02174 0
M  V30 5562 C 514.818 -1.65984 -0.0621034 0
M  V30 5563 O 516.003 -1.90584 0.0907906 0
M  V30 5564 C 513.143 -3.39425 0.62327 0
M  V30 5565 C 512.256 -3.9364 1.77966 0
M  V30 5566 C 511.391 -5.14343 1.3276 0
M  V30 5567 C 510.43 -5.60733 2.45449 0
M  V30 5568 N 509.567 -6.72662 2.01172 0
M  V30 5569 H 514.407 -2.24704 1.95734 0
M  V30 5570 H 511.944 -1.10143 0.975034 0
M  V30 5571 H 513.902 -4.15526 0.37332 0
M  V30 5572 H 512.532 -3.21624 -0.275329 0
M  V30 5573 H 511.584 -3.14258 2.14351 0
M  V30 5574 H 512.896 -4.24035 2.62671 0
M  V30 5575 H 512.05 -5.97789 1.03601 0
M  V30 5576 H 510.789 -4.8561 0.450975 0
M  V30 5577 H 509.794 -4.75865 2.75378 0
M  V30 5578 H 511.019 -5.91483 3.33654 0
M  V30 5579 H 508.965 -6.45681 1.15895 0
M  V30 5580 H 508.882 -7.02462 2.79434 0
M  V30 5581 H 510.15 -7.59572 1.75129 0
M  V30 5582 N 514.379 -1.04941 -1.1758 0
M  V30 5583 C 515.795 -0.770282 -1.39781 0
M  V30 5584 C 515.995 0.636417 -1.91186 0
M  V30 5585 O 515.051 1.39923 -2.10185 0
M  V30 5586 C 516.364 -1.82376 -2.3908 0
M  V30 5587 C 517.912 -1.84569 -2.52791 0
M  V30 5588 C 518.387 -2.88933 -3.55361 0
M  V30 5589 N 519.878 -2.8788 -3.62877 0
M  V30 5590 C 520.613 -3.65282 -4.41992 0
M  V30 5591 N 520.109 -4.52461 -5.24643 0
M  V30 5592 N 521.902 -3.53732 -4.36841 0
M  V30 5593 H 514.053 -1.95705 -0.825438 0
M  V30 5594 H 516.316 -0.847284 -0.425222 0
M  V30 5595 H 516.022 -2.83323 -2.08376 0
M  V30 5596 H 515.896 -1.66327 -3.38549 0
M  V30 5597 H 518.283 -0.842879 -2.82807 0
M  V30 5598 H 518.364 -2.04696 -1.53406 0
M  V30 5599 H 518.008 -3.89398 -3.26085 0
M  V30 5600 H 517.938 -2.66059 -4.54445 0
M  V30 5601 H 520.429 -2.24666 -3.03864 0
M  V30 5602 H 520.742 -5.08211 -5.82187 0
M  V30 5603 H 519.087 -4.56524 -5.24033 0
M  V30 5604 H 522.278 -2.85021 -3.71323 0
M  V30 5605 H 522.451 -4.14302 -4.98255 0
M  V30 5606 N 515.857 1.33968 -0.830081 0
M  V30 5607 C 517.268 1.80439 -0.479455 0
M  V30 5608 C 517.619 1.68756 1.00079 0
M  V30 5609 O 516.744 1.23171 1.77927 0
M  V30 5610 C 517.339 3.27611 -0.863505 0
M  V30 5611 C 515.898 3.72133 -0.565145 0
M  V30 5612 C 515.045 2.55549 -1.07657 0
M  V30 5613 H 517.996 1.21614 -1.0196 0
M  V30 5614 H 518.017 3.8012 -0.170083 0
M  V30 5615 H 517.529 3.36082 -1.94089 0
M  V30 5616 H 515.63 3.69196 0.502536 0
M  V30 5617 H 515.743 4.65963 -1.11422 0
M  V30 5618 H 514.107 2.49788 -0.497807 0
M  V30 5619 H 514.89 2.66786 -2.16055 0
M  V30 5620 N 517.335 0.585699 1.46312 0
M  V30 5621 C 518.583 0.072278 2.01971 0
M  V30 5622 C 518.904 -1.29345 1.45928 0
M  V30 5623 O 518.174 -1.84973 0.645109 0
M  V30 5624 H 516.754 0.023729 0.746623 0
M  V30 5625 H 519.416 0.762155 1.7938 0
M  V30 5626 H 518.512 0.00552767 3.121 0
M  V30 5627 N 518.813 -1.54241 0.323641 0
M  V30 5628 C 520.061 -2.00174 -0.278359 0
M  V30 5629 C 520.382 -1.2134 -1.52648 0
M  V30 5630 O 519.652 -0.315244 -1.93347 0
M  V30 5631 H 518.232 -0.739463 -0.105845 0
M  V30 5632 H 520.894 -1.89864 0.440204 0
M  V30 5633 H 519.99 -3.07486 -0.5347 0
M  V30 5634 N 520.291 -0.0518155 -1.57515 0
M  V30 5635 C 521.707 0.304735 -1.56664 0
M  V30 5636 C 521.907 1.71395 -1.05953 0
M  V30 5637 O 520.963 2.42123 -0.716414 0
M  V30 5638 C 522.276 0.132614 -3.00407 0
M  V30 5639 C 523.824 0.20367 -3.12337 0
M  V30 5640 C 524.299 0.0600706 -4.57961 0
M  V30 5641 N 525.79 0.116326 -4.63054 0
M  V30 5642 C 526.525 0.0293363 -5.73392 0
M  V30 5643 N 526.021 -0.110038 -6.92713 0
M  V30 5644 N 527.814 0.0849651 -5.62036 0
M  V30 5645 H 519.965 -0.973056 -1.888 0
M  V30 5646 H 522.228 -0.377781 -0.869474 0
M  V30 5647 H 521.934 -0.839019 -3.41546 0
M  V30 5648 H 521.808 0.893376 -3.66468 0
M  V30 5649 H 524.195 1.16578 -2.71097 0
M  V30 5650 H 524.276 -0.587857 -2.48954 0
M  V30 5651 H 523.92 -0.898715 -4.99886 0
M  V30 5652 H 523.85 0.87075 -5.19351 0
M  V30 5653 H 526.341 0.22327 -3.7724 0
M  V30 5654 H 526.654 -0.169104 -7.72615 0
M  V30 5655 H 524.999 -0.145132 -6.94848 0
M  V30 5656 H 528.19 0.192411 -4.67704 0
M  V30 5657 H 528.363 0.0137131 -6.47999 0
M  V30 5658 N 521.769 1.56035 0.221574 0
M  V30 5659 C 523.185 1.49026 0.571271 0
M  V30 5660 C 523.385 0.746912 1.87146 0
M  V30 5661 O 522.441 0.286566 2.50869 0
M  V30 5662 C 523.754 2.93579 0.650522 0
M  V30 5663 C 525.302 3.04099 0.741151 0
M  V30 5664 C 525.777 4.5001 0.851747 0
M  V30 5665 N 527.268 4.54053 0.915968 0
M  V30 5666 C 528.003 5.64232 1.02125 0
M  V30 5667 N 527.499 6.84164 1.09049 0
M  V30 5668 N 529.292 5.52084 1.05639 0
M  V30 5669 H 521.443 2.02791 -0.63162 0
M  V30 5670 H 523.706 0.921736 -0.221602 0
M  V30 5671 H 523.412 3.50912 -0.235253 0
M  V30 5672 H 523.286 3.45476 1.51413 0
M  V30 5673 H 525.673 2.4683 1.61737 0
M  V30 5674 H 525.754 2.55371 -0.148128 0
M  V30 5675 H 525.398 5.07896 -0.0200117 0
M  V30 5676 H 525.328 4.96444 1.75644 0
M  V30 5677 H 527.819 3.67683 0.872782 0
M  V30 5678 H 528.132 7.63883 1.1706 0
M  V30 5679 H 526.477 6.86875 1.05962 0
M  V30 5680 H 529.668 4.57317 0.998953 0
M  V30 5681 H 529.841 6.37983 1.13498 0
M  V30 5682 N 523.247 -0.488276 1.49845 0
M  V30 5683 C 524.663 -0.820566 1.3689 0
M  V30 5684 C 524.863 -1.97248 0.411752 0
M  V30 5685 O 523.919 -2.52042 -0.151931 0
M  V30 5686 C 525.232 -1.1488 2.77891 0
M  V30 5687 C 526.78 -1.25626 2.86683 0
M  V30 5688 C 527.255 -1.61772 4.28479 0
M  V30 5689 N 528.746 -1.68797 4.31349 0
M  V30 5690 C 529.481 -1.98235 5.38043 0
M  V30 5691 N 528.977 -2.2581 6.54967 0
M  V30 5692 N 530.77 -1.99593 5.2547 0
M  V30 5693 H 522.921 0.271123 2.10662 0
M  V30 5694 H 525.184 0.058735 0.946179 0
M  V30 5695 H 524.89 -0.375614 3.49688 0
M  V30 5696 H 524.764 -2.08919 3.14058 0
M  V30 5697 H 527.151 -2.02014 2.15114 0
M  V30 5698 H 527.232 -0.296072 2.54081 0
M  V30 5699 H 526.876 -0.859295 5.00578 0
M  V30 5700 H 526.806 -2.58912 4.58554 0
M  V30 5701 H 529.297 -1.49595 3.4703 0
M  V30 5702 H 529.61 -2.47497 7.32096 0
M  V30 5703 H 527.955 -2.23239 6.58171 0
M  V30 5704 H 531.146 -1.77535 4.33127 0
M  V30 5705 H 531.319 -2.222 6.08713 0
M  V30 5706 N 524.725 -1.39134 -0.740242 0
M  V30 5707 C 525.973 -1.35803 -1.49673 0
M  V30 5708 C 526.294 0.0470897 -1.94943 0
M  V30 5709 O 525.564 0.997347 -1.68611 0
M  V30 5710 H 524.144 -0.499736 -0.555224 0
M  V30 5711 H 526.806 -1.73947 -0.879107 0
M  V30 5712 H 525.902 -2.0174 -2.38133 0
M  V30 5713 N 526.204 0.969867 -1.24223 0
M  V30 5714 C 527.62 1.23809 -1.00716 0
M  V30 5715 C 527.82 1.99469 0.285358 0
M  V30 5716 O 526.876 2.31764 1.00207 0
M  V30 5717 C 528.189 2.02734 -2.2208 0
M  V30 5718 C 529.737 2.15834 -2.26681 0
M  V30 5719 C 530.212 2.98154 -3.47661 0
M  V30 5720 N 531.703 3.05737 -3.47964 0
M  V30 5721 C 532.438 3.69785 -4.38231 0
M  V30 5722 N 531.934 4.35569 -5.3875 0
M  V30 5723 N 533.727 3.66775 -4.25949 0
M  V30 5724 H 525.878 0.463294 -2.07286 0
M  V30 5725 H 528.141 0.267348 -0.909521 0
M  V30 5726 H 527.847 1.54524 -3.15935 0
M  V30 5727 H 527.721 3.0347 -2.24021 0
M  V30 5728 H 530.108 2.63248 -1.33359 0
M  V30 5729 H 530.189 1.14453 -2.28767 0
M  V30 5730 H 529.833 2.51435 -4.41297 0
M  V30 5731 H 529.763 3.99729 -3.42818 0
M  V30 5732 H 532.254 2.58941 -2.75242 0
M  V30 5733 H 532.567 4.82251 -6.03866 0
M  V30 5734 H 530.912 4.34244 -5.42639 0
M  V30 5735 H 534.103 3.14558 -3.46657 0
M  V30 5736 H 534.276 4.16407 -4.96497 0
M  V30 5737 N 527.682 1.05563 1.17022 0
M  V30 5738 C 528.612 0.681026 2.23348 0
M  V30 5739 C 529.593 -0.322983 1.67005 0
M  V30 5740 O 530.778 -0.199746 1.9317 0
M  V30 5741 C 527.908 0.0589053 3.4725 0
M  V30 5742 C 526.862 0.988082 4.16438 0
M  V30 5743 C 526.188 0.229646 5.34207 0
M  V30 5744 C 527.488 2.31388 4.68249 0
M  V30 5745 H 529.182 1.56993 2.54938 0
M  V30 5746 H 526.728 0.756302 1.2254 0
M  V30 5747 H 528.681 -0.214982 4.20851 0
M  V30 5748 H 527.405 -0.864968 3.14938 0
M  V30 5749 H 526.064 1.24659 3.44754 0
M  V30 5750 H 525.712 -0.697111 4.98146 0
M  V30 5751 H 525.412 0.848815 5.81437 0
M  V30 5752 H 526.936 -0.0368694 6.10589 0
M  V30 5753 H 528.35 2.09964 5.33468 0
M  V30 5754 H 526.747 2.88736 5.26072 0
M  V30 5755 H 527.817 2.94982 3.84855 0
M  V30 5756 N 529.16 -1.33526 0.837174 0
M  V30 5757 C 530.571 -1.80182 0.489017 0
M  V30 5758 C 530.922 -1.69285 -0.991826 0
M  V30 5759 O 530.047 -1.24113 -1.77271 0
M  V30 5760 C 530.642 -3.27149 0.880866 0
M  V30 5761 C 529.201 -3.71828 0.584872 0
M  V30 5762 C 528.348 -2.54974 1.09011 0
M  V30 5763 H 531.299 -1.21071 1.02603 0
M  V30 5764 H 531.32 -3.80024 0.190239 0
M  V30 5765 H 530.832 -3.35048 1.95869 0
M  V30 5766 H 528.933 -3.69457 -0.48295 0
M  V30 5767 H 529.046 -4.65366 1.13892 0
M  V30 5768 H 527.41 -2.4952 0.511047 0
M  V30 5769 H 528.193 -2.65637 2.17467 0
M  V30 5770 N 530.638 -0.59345 -1.46 0
M  V30 5771 C 531.586 0.146268 -2.3214 0
M  V30 5772 C 532.58 0.873743 -1.45128 0
M  V30 5773 O 533.786 0.790912 -1.61693 0
M  V30 5774 H 530.161 0.0660349 -0.749095 0
M  V30 5775 H 532.132 -0.598895 -2.92328 0
M  V30 5776 C 530.881 1.1396 -3.28494 0
M  V30 5777 H 530.204 0.589252 -3.95434 0
M  V30 5778 H 531.644 1.62738 -3.91526 0
M  V30 5779 C 530.103 2.20604 -2.54628 0
M  V30 5780 O 530.633 3.28128 -2.31722 0
M  V30 5781 N 528.839 1.95502 -2.15005 0
M  V30 5782 H 528.386 1.0807 -2.33834 0
M  V30 5783 H 528.344 2.67064 -1.65904 0
M  V30 5784 N 532.116 1.54067 -0.331816 0
M  V30 5785 C 533.064 2.26105 0.54582 0
M  V30 5786 C 534.058 1.27816 1.11173 0
M  V30 5787 O 535.264 1.45565 1.05882 0
M  V30 5788 H 531.639 0.726363 0.194683 0
M  V30 5789 H 533.61 2.98282 -0.083931 0
M  V30 5790 C 532.359 3.03814 1.69092 0
M  V30 5791 H 531.682 3.79269 1.26473 0
M  V30 5792 H 533.122 3.57453 2.28043 0
M  V30 5793 C 531.581 2.12606 2.61343 0
M  V30 5794 O 532.111 1.71437 3.6328 0
M  V30 5795 N 530.317 1.77925 2.29763 0
M  V30 5796 H 529.864 2.11602 1.46909 0
M  V30 5797 H 529.822 1.1718 2.91747 0
M  V30 5798 N 533.594 0.0601682 1.57485 0
M  V30 5799 C 534.819 -0.624416 1.97777 0
M  V30 5800 C 535.244 -1.63051 0.937867 0
M  V30 5801 O 534.602 -1.81036 -0.0978845 0
M  V30 5802 C 534.65 -1.27979 3.37126 0
M  V30 5803 O 533.754 -2.39556 3.35688 0
M  V30 5804 H 533.095 -0.161581 0.64404 0
M  V30 5805 H 535.625 0.131237 2.04179 0
M  V30 5806 H 535.635 -1.62937 3.74053 0
M  V30 5807 H 534.31 -0.542501 4.12347 0
M  V30 5808 H 532.887 -2.06478 3.10517 0
M  V30 5809 N 535.072 -1.5615 -0.213296 0
M  V30 5810 C 536.297 -1.83986 -0.957282 0
M  V30 5811 C 536.722 -0.641526 -1.76822 0
M  V30 5812 O 536.08 0.409722 -1.7661 0
M  V30 5813 C 536.128 -3.09889 -1.84393 0
M  V30 5814 O 535.232 -2.89163 -2.94038 0
M  V30 5815 H 534.573 -0.606357 -0.270605 0
M  V30 5816 H 537.103 -2.03369 -0.224111 0
M  V30 5817 H 537.113 -3.40209 -2.25215 0
M  V30 5818 H 535.788 -3.96735 -1.24795 0
M  V30 5819 H 534.365 -2.70097 -2.57103 0
M  V30 5820 N 536.55 0.480323 -1.50102 0
M  V30 5821 C 537.966 0.813295 -1.37323 0
M  V30 5822 C 538.166 1.97027 -0.422206 0
M  V30 5823 O 537.222 2.5212 0.138563 0
M  V30 5824 C 538.535 1.13404 -2.78496 0
M  V30 5825 C 540.083 1.24104 -2.87345 0
M  V30 5826 C 540.558 1.59497 -4.29331 0
M  V30 5827 N 542.049 1.66507 -4.32238 0
M  V30 5828 C 542.784 1.95378 -5.39087 0
M  V30 5829 N 542.28 2.22333 -6.56155 0
M  V30 5830 N 544.073 1.96803 -5.26522 0
M  V30 5831 H 536.224 -0.282291 -2.10516 0
M  V30 5832 H 538.487 -0.063752 -0.945854 0
M  V30 5833 H 538.193 0.357064 -3.49883 0
M  V30 5834 H 538.067 2.07251 -3.15162 0
M  V30 5835 H 540.454 2.00871 -2.16183 0
M  V30 5836 H 540.535 0.282593 -2.54234 0
M  V30 5837 H 540.179 0.832736 -5.01027 0
M  V30 5838 H 540.109 2.56477 -4.59921 0
M  V30 5839 H 542.6 1.47753 -3.47818 0
M  V30 5840 H 542.913 2.43611 -7.33399 0
M  V30 5841 H 541.258 2.19745 -6.59346 0
M  V30 5842 H 544.449 1.75235 -4.34062 0
M  V30 5843 H 544.622 2.18969 -6.09883 0
M  V30 5844 N 538.028 1.39524 0.732853 0
M  V30 5845 C 539.439 1.32905 1.31122 0
M  V30 5846 C 539.79 -0.00558708 1.96199 0
M  V30 5847 O 538.915 -0.907706 1.96443 0
M  V30 5848 C 539.51 2.40704 2.38426 0
M  V30 5849 C 538.069 2.37599 2.91931 0
M  V30 5850 C 537.216 2.2248 1.65523 0
M  V30 5851 H 540.167 1.49581 0.530207 0
M  V30 5852 H 540.188 2.07616 3.18867 0
M  V30 5853 H 539.7 3.37829 1.91033 0
M  V30 5854 H 537.801 1.44119 3.43599 0
M  V30 5855 H 537.914 3.32538 3.44899 0
M  V30 5856 H 536.278 1.69691 1.8994 0
M  V30 5857 H 537.061 3.21577 1.20178 0
M  V30 5858 N 539.506 -0.963266 1.24736 0
M  V30 5859 C 540.731 -1.74699 1.11781 0
M  V30 5860 C 541.156 -1.85267 -0.325258 0
M  V30 5861 O 540.514 -1.32681 -1.23553 0
M  V30 5862 C 540.562 -3.14322 1.76731 0
M  V30 5863 O 539.666 -3.99043 1.04109 0
M  V30 5864 H 539.007 -0.53684 0.390767 0
M  V30 5865 H 541.537 -1.20801 1.65131 0
M  V30 5866 H 541.547 -3.64824 1.82668 0
M  V30 5867 H 540.222 -3.05946 2.81726 0
M  V30 5868 H 538.799 -3.5752 1.05991 0
M  V30 5869 N 540.985 -1.06182 -1.16461 0
M  V30 5870 C 542.213 -0.798583 -1.90867 0
M  V30 5871 C 542.628 0.646921 -1.77371 0
M  V30 5872 O 541.985 1.44279 -1.11758 0
M  V30 5873 C 542.036 -1.18258 -3.4161 0
M  V30 5874 O 541.757 -2.57135 -3.54701 0
M  V30 5875 C 543.258 -0.946917 -4.33069 0
M  V30 5876 H 540.478 -0.289603 -0.605286 0
M  V30 5877 H 543.022 -1.41515 -1.47627 0
M  V30 5878 H 541.177 -0.610562 -3.82558 0
M  V30 5879 H 541.591 -2.72477 -4.4817 0
M  V30 5880 H 543.065 -1.26523 -5.37304 0
M  V30 5881 H 543.542 0.117406 -4.39043 0
M  V30 5882 H 544.148 -1.50326 -3.97847 0
M  V30 5883 N 542.463 1.3308 -0.844243 0
M  V30 5884 C 543.874 1.7992 -0.498566 0
M  V30 5885 C 544.225 1.69808 0.982834 0
M  V30 5886 O 543.35 1.25051 1.7661 0
M  V30 5887 C 543.945 3.26677 -0.898204 0
M  V30 5888 C 542.504 3.71513 -0.604583 0
M  V30 5889 C 541.651 2.54393 -1.10362 0
M  V30 5890 H 544.602 1.20526 -1.03244 0
M  V30 5891 H 544.623 3.79918 -0.21039 0
M  V30 5892 H 544.135 3.34004 -1.97643 0
M  V30 5893 H 542.236 3.69708 0.46335 0
M  V30 5894 H 542.349 4.64755 -1.16358 0
M  V30 5895 H 540.713 2.49246 -0.524273 0
M  V30 5896 H 541.496 2.6448 -2.18873 0
M  V30 5897 N 543.941 0.601185 1.45683 0
M  V30 5898 C 545.169 0.100054 2.06658 0
M  V30 5899 C 545.584 -1.21285 1.44691 0
M  V30 5900 O 544.941 -1.73735 0.558772 0
M  V30 5901 C 544.992 -0.0528579 3.61461 0
M  V30 5902 O 544.713 1.20809 4.21114 0
M  V30 5903 C 546.214 -0.586193 4.39407 0
M  V30 5904 H 543.434 0.065905 0.667756 0
M  V30 5905 H 545.978 0.827101 1.87028 0
M  V30 5906 H 544.133 -0.730203 3.80456 0
M  V30 5907 H 544.547 1.03368 5.14213 0
M  V30 5908 H 546.021 -0.642297 5.4825 0
M  V30 5909 H 546.498 -1.60713 4.0874 0
M  V30 5910 H 547.104 0.0568935 4.25262 0
M  V30 5911 N 545.419 -1.53889 0.339982 0
M  V30 5912 C 546.668 -2.00035 -0.258604 0
M  V30 5913 C 546.981 -1.23179 -1.51942 0
M  V30 5914 O 548.187 -1.59784 -2.19503 0
M  V30 5915 C 546.643 -3.56249 -0.511359 0
M  V30 5916 C 546.251 -4.41957 0.733349 0
M  V30 5917 C 547.995 -4.1082 -1.069 0
M  V30 5918 C 545.902 -5.89673 0.451591 0
M  V30 5919 H 544.832 -0.747284 -0.10041 0
M  V30 5920 H 547.483 -1.77776 0.454758 0
M  V30 5921 H 545.865 -3.7456 -1.28533 0
M  V30 5922 H 547.039 -4.35421 1.50815 0
M  V30 5923 H 545.354 -3.9836 1.21237 0
M  V30 5924 H 547.951 -5.18789 -1.2947 0
M  V30 5925 H 548.294 -3.63817 -2.02343 0
M  V30 5926 H 548.827 -3.96205 -0.355817 0
M  V30 5927 H 545.566 -6.40903 1.37565 0
M  V30 5928 H 545.086 -5.99122 -0.285193 0
M  V30 5929 H 546.765 -6.46965 0.0675067 0
M  V30 5930 N 546.897 -0.0685191 -1.57451 0
M  V30 5931 C 547.845 0.917577 -2.13736 0
M  V30 5932 C 548.839 1.31049 -1.07344 0
M  V30 5933 O 550.045 1.28811 -1.25728 0
M  V30 5934 H 546.42 0.313835 -0.683382 0
M  V30 5935 H 548.391 0.417903 -2.95459 0
M  V30 5936 C 547.14 2.17686 -2.71123 0
M  V30 5937 H 546.463 1.88336 -3.52661 0
M  V30 5938 H 547.903 2.84803 -3.14107 0
M  V30 5939 C 546.362 2.9332 -1.65726 0
M  V30 5940 O 546.892 3.86901 -1.08031 0
M  V30 5941 N 545.098 2.56367 -1.36837 0
M  V30 5942 H 544.645 1.80341 -1.83943 0
M  V30 5943 H 544.603 3.07276 -0.665501 0
M  V30 5944 N 548.375 1.56261 0.205012 0
M  V30 5945 C 549.621 1.80306 0.9283 0
M  V30 5946 C 549.954 0.640932 1.83319 0
M  V30 5947 O 549.229 -0.359032 1.91158 0
M  V30 5948 C 549.512 3.14547 1.75306 0
M  V30 5949 C 549.365 4.41236 0.873562 0
M  V30 5950 C 550.684 3.45382 2.72762 0
M  V30 5951 H 547.803 0.655929 0.336044 0
M  V30 5952 H 550.445 1.88984 0.196211 0
M  V30 5953 H 548.595 3.0728 2.37721 0
M  V30 5954 H 550.267 4.60539 0.264887 0
M  V30 5955 H 548.51 4.33427 0.179773 0
M  V30 5956 H 549.181 5.31639 1.48541 0
M  V30 5957 H 551.657 3.52884 2.20481 0
M  V30 5958 H 550.533 4.40449 3.2756 0
M  V30 5959 H 550.794 2.68377 3.51321 0
M  V30 5960 N 549.853 -0.472356 1.50355 0
M  V30 5961 C 550.783 -1.57859 1.72055 0
M  V30 5962 C 551.764 -1.60283 0.569505 0
M  V30 5963 O 552.949 -1.7657 0.808503 0
M  V30 5964 C 550.079 -2.96191 1.81351 0
M  V30 5965 C 549.033 -3.08633 2.96529 0
M  V30 5966 C 548.359 -4.486 2.90968 0
M  V30 5967 C 549.659 -2.85969 4.37057 0
M  V30 5968 H 551.353 -1.39953 2.64676 0
M  V30 5969 H 548.899 -0.671846 1.27367 0
M  V30 5970 H 550.852 -3.73507 1.95117 0
M  V30 5971 H 549.576 -3.15251 0.853502 0
M  V30 5972 H 548.235 -2.33749 2.82413 0
M  V30 5973 H 547.883 -4.64577 1.92815 0
M  V30 5974 H 547.583 -4.57861 3.68289 0
M  V30 5975 H 549.107 -5.27938 3.0678 0
M  V30 5976 H 550.521 -3.53036 4.51706 0
M  V30 5977 H 548.918 -3.06677 5.15819 0
M  V30 5978 H 549.988 -1.81838 4.49514 0
M  V30 5979 N 551.331 -1.39911 -0.725443 0
M  V30 5980 C 552.241 -1.41688 -1.8698 0
M  V30 5981 C 553.257 -0.310579 -1.71206 0
M  V30 5982 O 554.433 -0.55359 -1.93642 0
M  V30 5983 C 551.498 -1.26811 -3.22676 0
M  V30 5984 C 550.559 -2.47497 -3.50776 0
M  V30 5985 C 549.792 -2.3332 -4.79997 0
M  V30 5986 O 550.015 -1.34175 -5.54394 0
M  V30 5987 O 548.949 -3.22498 -5.08211 0
M  V30 5988 H 552.775 -2.38171 -1.88436 0
M  V30 5989 H 550.36 -1.21128 -0.874548 0
M  V30 5990 H 552.242 -1.20684 -4.03749 0
M  V30 5991 H 550.917 -0.334289 -3.21969 0
M  V30 5992 H 549.824 -2.59201 -2.69751 0
M  V30 5993 H 551.157 -3.39606 -3.5627 0
M  V30 5994 N 552.809 0.956637 -1.25245 0
M  V30 5995 C 554.034 1.74104 -1.12706 0
M  V30 5996 C 554.459 1.85436 0.315429 0
M  V30 5997 O 553.817 1.33334 1.22848 0
M  V30 5998 C 553.865 3.1338 -1.78396 0
M  V30 5999 O 552.969 3.98485 -1.06224 0
M  V30 6000 H 552.31 0.53476 -0.393609 0
M  V30 6001 H 554.84 1.19924 -1.65769 0
M  V30 6002 H 554.85 3.6385 -1.846 0
M  V30 6003 H 553.525 3.04448 -2.83345 0
M  V30 6004 H 552.102 3.56952 -1.07886 0
M  V30 6005 N 554.287 1.06798 1.15896 0
M  V30 6006 C 555.234 0.683314 2.20453 0
M  V30 6007 C 556.204 -0.32255 1.62938 0
M  V30 6008 O 557.389 -0.210276 1.89638 0
M  V30 6009 C 554.529 0.0813266 3.45004 0
M  V30 6010 C 553.642 1.13799 4.16742 0
M  V30 6011 C 552.777 0.501598 5.28826 0
M  V30 6012 C 551.816 1.54144 5.92373 0
M  V30 6013 N 550.953 0.928038 6.9594 0
M  V30 6014 H 555.793 1.57932 2.52708 0
M  V30 6015 H 553.33 0.789544 1.24115 0
M  V30 6016 H 555.288 -0.285274 4.16224 0
M  V30 6017 H 553.918 -0.77806 3.13283 0
M  V30 6018 H 552.97 1.62223 3.44075 0
M  V30 6019 H 554.282 1.92664 4.60089 0
M  V30 6020 H 553.436 0.0823162 6.06644 0
M  V30 6021 H 552.175 -0.318883 4.86656 0
M  V30 6022 H 551.18 1.97056 5.13273 0
M  V30 6023 H 552.405 2.3641 6.36621 0
M  V30 6024 H 550.351 0.12836 6.55874 0
M  V30 6025 H 550.268 1.65401 7.37685 0
M  V30 6026 H 551.536 0.534071 7.77668 0
M  V30 6027 N 555.766 -1.3263 0.851289 0
M  V30 6028 C 557.043 -1.91982 0.374448 0
M  V30 6029 C 557.423 -1.77568 -1.14161 0
M  V30 6030 O 556.771 -1.1717 -1.96172 0
M  V30 6031 C 556.981 -3.38862 0.835088 0
M  V30 6032 C 558.329 -4.15999 0.850309 0
M  V30 6033 O 559.353 -3.47566 0.779505 0
M  V30 6034 O 558.212 -5.38189 0.949481 0
M  V30 6035 H 555.306 -0.819846 0.10854 0
M  V30 6036 H 557.852 -1.41422 0.937966 0
M  V30 6037 H 556.624 -3.43281 1.87814 0
M  V30 6038 H 556.247 -3.96821 0.248833 0
M  V30 6039 N 557.244 -0.608902 -1.45362 0
M  V30 6040 C 558.472 -0.111013 -2.06602 0
M  V30 6041 C 558.887 1.20516 -1.45332 0
M  V30 6042 O 558.244 1.73437 -0.567978 0
M  V30 6043 C 558.295 0.033688 -3.61484 0
M  V30 6044 O 558.016 -1.23041 -4.20467 0
M  V30 6045 C 559.517 0.562882 -4.39712 0
M  V30 6046 H 556.737 -0.0694453 -0.667397 0
M  V30 6047 H 559.281 -0.837008 -1.86586 0
M  V30 6048 H 557.436 0.710016 -3.80838 0
M  V30 6049 H 557.85 -1.06094 -5.13658 0
M  V30 6050 H 559.324 0.613213 -5.48583 0
M  V30 6051 H 559.801 1.58543 -4.09586 0
M  V30 6052 H 560.407 -0.0794454 -4.25226 0
M  V30 6053 N 558.722 1.53707 -0.348139 0
M  V30 6054 C 559.999 1.93247 0.302475 0
M  V30 6055 C 560.379 1.28012 1.67857 0
M  V30 6056 O 559.727 0.43274 2.24365 0
M  V30 6057 C 559.937 3.47031 0.370159 0
M  V30 6058 C 561.285 4.20066 0.61882 0
M  V30 6059 O 562.309 3.53319 0.452087 0
M  V30 6060 O 561.168 5.38318 0.94215 0
M  V30 6061 H 558.262 0.807736 0.177458 0
M  V30 6062 H 560.808 1.64927 -0.399651 0
M  V30 6063 H 559.58 3.86745 -0.59534 0
M  V30 6064 H 559.203 3.81532 1.11888 0
M  V30 6065 N 560.2 0.0768682 1.57412 0
M  V30 6066 C 561.425 -0.603404 1.98428 0
M  V30 6067 C 561.85 -1.62047 0.955108 0
M  V30 6068 O 561.208 -1.81129 -0.0786778 0
M  V30 6069 C 561.256 -1.24396 3.38464 0
M  V30 6070 O 560.36 -2.35982 3.3821 0
M  V30 6071 H 559.701 -0.154741 0.645718 0
M  V30 6072 H 562.231 0.152885 2.04028 0
M  V30 6073 H 562.241 -1.5896 3.7576 0
M  V30 6074 H 560.916 -0.498735 4.12899 0
M  V30 6075 H 559.493 -2.03173 3.1269 0
M  V30 6076 N 561.678 -1.56367 -0.196722 0
M  V30 6077 C 562.955 -1.71359 -0.943159 0
M  V30 6078 C 563.335 -0.631192 -2.01443 0
M  V30 6079 O 562.683 0.358071 -2.25677 0
M  V30 6080 C 562.893 -3.13623 -1.53106 0
M  V30 6081 C 564.241 -3.73806 -2.01381 0
M  V30 6082 O 565.265 -3.16742 -1.62951 0
M  V30 6083 O 564.124 -4.73951 -2.7209 0
M  V30 6084 H 561.218 -0.698851 -0.442195 0
M  V30 6085 H 563.764 -1.68672 -0.186547 0
M  V30 6086 H 562.536 -3.83873 -0.758785 0
M  V30 6087 H 562.159 -3.20532 -2.35255 0
M  V30 6088 N 563.156 0.464375 -1.50603 0
M  V30 6089 C 564.572 0.798684 -1.38178 0
M  V30 6090 C 564.772 1.96568 -0.44308 0
M  V30 6091 O 563.828 2.52252 0.111814 0
M  V30 6092 C 565.141 1.10444 -2.79683 0
M  V30 6093 C 566.689 1.2105 -2.88645 0
M  V30 6094 C 567.164 1.54934 -4.30998 0
M  V30 6095 N 568.655 1.61913 -4.3398 0
M  V30 6096 C 569.39 1.8965 -5.41129 0
M  V30 6097 N 568.886 2.15361 -6.58477 0
M  V30 6098 N 570.679 1.91207 -5.28579 0
M  V30 6099 H 562.83 -0.304603 -2.10204 0
M  V30 6100 H 565.093 -0.0737804 -0.945125 0
M  V30 6101 H 564.799 0.319934 -3.50242 0
M  V30 6102 H 564.673 2.03896 -3.17342 0
M  V30 6103 H 567.06 1.98567 -2.18301 0
M  V30 6104 H 567.141 0.255613 -2.5452 0
M  V30 6105 H 566.785 0.779549 -5.01882 0
M  V30 6106 H 566.715 2.51584 -4.62615 0
M  V30 6107 H 569.206 1.44055 -3.49366 0
M  V30 6108 H 569.519 2.35818 -7.35941 0
M  V30 6109 H 567.864 2.1274 -6.6164 0
M  V30 6110 H 571.055 1.70622 -4.35897 0
M  V30 6111 H 571.228 2.12488 -6.12171 0
M  V30 6112 N 564.634 1.40294 0.718013 0
M  V30 6113 C 565.544 1.42678 1.86226 0
M  V30 6114 C 566.56 0.319655 1.71039 0
M  V30 6115 O 567.736 0.563852 1.93346 0
M  V30 6116 C 564.801 1.2852 3.21999 0
M  V30 6117 C 563.862 2.49354 3.49458 0
M  V30 6118 C 563.095 2.35863 4.78753 0
M  V30 6119 O 563.318 1.37114 5.53675 0
M  V30 6120 O 562.252 3.25189 5.06494 0
M  V30 6121 H 566.078 2.39167 1.87171 0
M  V30 6122 H 563.663 1.2159 0.868112 0
M  V30 6123 H 565.545 1.22824 4.03103 0
M  V30 6124 H 564.22 0.351359 3.21787 0
M  V30 6125 H 563.127 2.60628 2.68373 0
M  V30 6126 H 564.46 3.41491 3.54464 0
M  V30 6127 N 566.112 -0.949982 1.2575 0
M  V30 6128 C 567.075 -2.02894 1.06615 0
M  V30 6129 C 568.075 -1.60791 0.0173905 0
M  V30 6130 O 569.265 -1.72249 0.260003 0
M  V30 6131 C 566.397 -3.35219 0.619751 0
M  V30 6132 H 567.59 -2.21302 2.02399 0
M  V30 6133 H 565.143 -1.12772 1.08223 0
M  V30 6134 H 565.878 -3.22508 -0.340486 0
M  V30 6135 H 565.663 -3.67129 1.37692 0
M  V30 6136 H 567.153 -4.14505 0.507443 0
M  V30 6137 N 567.59 -1.07411 -1.15328 0
M  V30 6138 C 568.838 -0.796073 -1.85761 0
M  V30 6139 C 569.159 0.679864 -1.82764 0
M  V30 6140 O 568.429 1.49242 -1.269 0
M  V30 6141 H 567.009 -0.291495 -0.687779 0
M  V30 6142 H 569.671 -1.35799 -1.39802 0
M  V30 6143 H 568.767 -1.13114 -2.90881 0
M  V30 6144 N 569.068 1.32177 -0.85831 0
M  V30 6145 C 570.296 2.01313 -0.477582 0
M  V30 6146 C 570.711 1.6449 0.926736 0
M  V30 6147 O 570.068 0.868096 1.60531 0
M  V30 6148 C 570.119 3.56293 -0.611337 0
M  V30 6149 O 569.84 3.91794 -1.96034 0
M  V30 6150 C 571.341 4.42702 -0.230093 0
M  V30 6151 H 568.561 0.644323 -0.187322 0
M  V30 6152 H 571.105 1.68674 -1.15626 0
M  V30 6153 H 569.26 3.87395 0.0196494 0
M  V30 6154 H 569.674 4.86513 -1.95973 0
M  V30 6155 H 571.148 5.50727 -0.374674 0
M  V30 6156 H 571.625 4.3129 0.829779 0
M  V30 6157 H 572.231 4.16997 -0.836302 0
M  V30 6158 N 570.547 0.616602 1.45037 0
M  V30 6159 C 571.457 -0.0985401 2.34393 0
M  V30 6160 C 572.473 -0.850971 1.51771 0
M  V30 6161 O 573.649 -0.806521 1.84546 0
M  V30 6162 C 570.714 -1.07748 3.29532 0
M  V30 6163 C 569.775 -0.326022 4.2806 0
M  V30 6164 C 569.008 -1.25833 5.18654 0
M  V30 6165 O 569.231 -2.49652 5.12864 0
M  V30 6166 O 568.165 -0.750512 5.97203 0
M  V30 6167 H 571.991 0.636016 2.96966 0
M  V30 6168 H 569.576 0.376832 1.44569 0
M  V30 6169 H 571.458 -1.64107 3.88133 0
M  V30 6170 H 570.133 -1.79291 2.69512 0
M  V30 6171 H 569.04 0.280253 3.73049 0
M  V30 6172 H 570.373 0.349091 4.9096 0
M  V30 6173 N 572.025 -1.5352 0.356285 0
M  V30 6174 C 573.253 -2.05534 -0.237328 0
M  V30 6175 C 573.668 -1.23043 -1.43199 0
M  V30 6176 O 573.025 -0.268821 -1.80509 0
M  V30 6177 C 573.076 -3.55791 -0.639933 0
M  V30 6178 O 572.797 -4.35154 0.507233 0
M  V30 6179 C 574.298 -4.24027 -1.29292 0
M  V30 6180 H 571.518 -0.669585 -0.0435572 0
M  V30 6181 H 574.062 -1.97988 0.511963 0
M  V30 6182 H 572.217 -3.63518 -1.33915 0
M  V30 6183 H 572.631 -5.24178 0.18375 0
M  V30 6184 H 574.105 -5.30509 -1.52527 0
M  V30 6185 H 574.582 -3.77166 -2.25039 0
M  V30 6186 H 575.188 -4.20527 -0.63539 0
M  V30 6187 N 573.503 -0.0852151 -1.57369 0
M  V30 6188 C 574.751 0.579658 -1.93609 0
M  V30 6189 C 575.072 1.69332 -0.967043 0
M  V30 6190 O 574.342 1.95892 -0.0174215 0
M  V30 6191 H 572.922 0.217113 -0.714752 0
M  V30 6192 H 575.584 -0.146226 -1.94351 0
M  V30 6193 H 574.68 0.996276 -2.95771 0
M  V30 6194 N 574.981 1.5647 0.188427 0
M  V30 6195 C 576.229 1.80655 0.905986 0
M  V30 6196 C 576.55 0.659391 1.83513 0
M  V30 6197 O 575.82 -0.321868 1.93238 0
M  V30 6198 H 574.4 0.666391 0.337538 0
M  V30 6199 H 577.062 1.93949 0.192339 0
M  V30 6200 H 576.158 2.74066 1.49313 0
M  V30 6201 N 576.459 -0.456382 1.50847 0
M  V30 6202 C 577.369 -1.57805 1.73594 0
M  V30 6203 C 578.385 -1.62599 0.619476 0
M  V30 6204 O 579.561 -1.80195 0.899532 0
M  V30 6205 C 576.626 -2.93926 1.8387 0
M  V30 6206 C 575.687 -2.99402 3.07663 0
M  V30 6207 C 574.92 -4.29031 3.1744 0
M  V30 6208 O 575.143 -5.20358 2.33631 0
M  V30 6209 O 574.077 -4.40401 4.10281 0
M  V30 6210 H 577.903 -1.41531 2.68705 0
M  V30 6211 H 575.488 -0.637422 1.3512 0
M  V30 6212 H 577.37 -3.74747 1.92725 0
M  V30 6213 H 576.045 -3.10368 0.91944 0
M  V30 6214 H 574.952 -2.17606 3.043 0
M  V30 6215 H 576.285 -2.87901 3.99216 0
M  V30 6216 N 577.937 -1.40673 -0.710563 0
M  V30 6217 C 578.885 -1.41517 -1.84596 0
M  V30 6218 C 579.879 -0.295043 -1.66811 0
M  V30 6219 O 581.085 -0.466331 -1.73854 0
M  V30 6220 H 577.46 -0.442467 -0.608052 0
M  V30 6221 H 579.431 -2.37238 -1.80999 0
M  V30 6222 C 578.18 -1.29957 -3.225 0
M  V30 6223 H 577.503 -2.15429 -3.36794 0
M  V30 6224 H 578.943 -1.34608 -4.02066 0
M  V30 6225 C 577.402 -0.0103164 -3.36898 0
M  V30 6226 O 577.932 0.950707 -3.90288 0
M  V30 6227 N 576.138 0.0608409 -2.90536 0
M  V30 6228 H 575.685 -0.721943 -2.47277 0
M  V30 6229 H 575.643 0.92292 -3.00549 0
M  V30 6230 N 579.415 0.9433 -1.26252 0
M  V30 6231 C 580.363 2.06302 -1.07434 0
M  V30 6232 C 581.357 1.694 -0.00189471 0
M  V30 6233 O 582.563 1.79302 -0.158408 0
M  V30 6234 H 578.938 0.675453 -0.330556 0
M  V30 6235 H 580.909 2.19326 -2.02333 0
M  V30 6236 C 579.658 3.40125 -0.721817 0
M  V30 6237 H 578.981 3.68996 -1.5389 0
M  V30 6238 H 580.421 4.19295 -0.629922 0
M  V30 6239 C 578.88 3.31993 0.572902 0
M  V30 6240 O 579.41 3.67945 1.61182 0
M  V30 6241 N 577.616 2.85099 0.562748 0
M  V30 6242 H 577.163 2.5604 -0.283092 0
M  V30 6243 H 577.121 2.80041 1.42915 0
M  V30 6244 N 580.893 1.08022 1.14757 0
M  V30 6245 C 582.17 0.720386 1.81851 0
M  V30 6246 C 582.55 -0.796375 1.95502 0
M  V30 6247 O 581.898 -1.71339 1.51179 0
M  V30 6248 C 582.108 1.44273 3.17783 0
M  V30 6249 C 583.456 1.59925 3.93331 0
M  V30 6250 O 584.48 1.40407 3.2736 0
M  V30 6251 O 583.339 1.92096 5.11626 0
M  V30 6252 H 580.433 0.257142 0.786007 0
M  V30 6253 H 582.979 1.18155 1.21809 0
M  V30 6254 H 581.751 2.47618 3.02987 0
M  V30 6255 H 581.374 0.97279 3.85516 0
M  V30 6256 N 582.371 -1.3172 0.865308 0
M  V30 6257 C 583.318 -2.2863 0.315736 0
M  V30 6258 C 584.288 -1.55524 -0.583213 0
M  V30 6259 O 585.473 -1.83694 -0.51585 0
M  V30 6260 C 582.613 -3.41735 -0.480773 0
M  V30 6261 C 581.726 -4.297 0.445167 0
M  V30 6262 C 580.861 -5.29944 -0.365012 0
M  V30 6263 C 579.9 -6.09554 0.557651 0
M  V30 6264 N 579.037 -7.01768 -0.215994 0
M  V30 6265 H 583.877 -2.75026 1.14736 0
M  V30 6266 H 581.414 -1.35302 0.577209 0
M  V30 6267 H 583.372 -4.06045 -0.958306 0
M  V30 6268 H 582.002 -2.96461 -1.27714 0
M  V30 6269 H 581.054 -3.65875 1.04113 0
M  V30 6270 H 582.366 -4.85295 1.15284 0
M  V30 6271 H 581.52 -5.99908 -0.905255 0
M  V30 6272 H 580.259 -4.74994 -1.106 0
M  V30 6273 H 579.264 -5.38485 1.10969 0
M  V30 6274 H 580.489 -6.66591 1.29742 0
M  V30 6275 H 578.435 -6.49232 -0.939878 0
M  V30 6276 H 578.352 -7.54762 0.432431 0
M  V30 6277 H 579.62 -7.76002 -0.737618 0
M  V30 6278 N 583.85 -0.624285 -1.44708 0
M  V30 6279 C 584.76 0.0861083 -2.34442 0
M  V30 6280 C 585.776 0.84291 -1.5222 0
M  V30 6281 O 586.952 0.796723 -1.84971 0
M  V30 6282 C 584.017 1.05999 -3.30099 0
M  V30 6283 C 583.077 0.303316 -4.28227 0
M  V30 6284 C 582.311 1.23081 -5.19314 0
M  V30 6285 O 582.534 2.46929 -5.14181 0
M  V30 6286 O 581.468 0.71883 -5.97592 0
M  V30 6287 H 585.293 -0.651756 -2.96624 0
M  V30 6288 H 582.879 -0.384493 -1.44368 0
M  V30 6289 H 584.76 1.62046 -3.88997 0
M  V30 6290 H 583.436 1.77859 -2.70459 0
M  V30 6291 H 582.343 -0.300033 -3.72895 0
M  V30 6292 H 583.676 -0.375123 -4.90768 0
M  V30 6293 N 585.328 1.53329 -0.364422 0
M  V30 6294 C 586.238 2.29414 0.490552 0
M  V30 6295 C 587.254 1.35335 1.09363 0
M  V30 6296 O 588.43 1.68391 1.10483 0
M  V30 6297 C 585.495 3.06772 1.61529 0
M  V30 6298 C 584.556 4.16516 1.03986 0
M  V30 6299 C 583.789 4.90176 2.111 0
M  V30 6300 O 584.012 4.63687 3.32191 0
M  V30 6301 O 582.946 5.76134 1.74222 0
M  V30 6302 H 586.772 3.03428 -0.12856 0
M  V30 6303 H 584.357 1.48843 -0.128837 0
M  V30 6304 H 586.239 3.55082 2.26924 0
M  V30 6305 H 584.914 2.35596 2.21983 0
M  V30 6306 H 583.821 3.7246 0.349856 0
M  V30 6307 H 585.154 4.89855 0.4799 0
M  V30 6308 N 586.806 0.0935595 1.57322 0
M  V30 6309 C 587.716 -0.880192 2.17462 0
M  V30 6310 C 588.732 -1.31135 1.14366 0
M  V30 6311 O 589.908 -1.37958 1.46729 0
M  V30 6312 C 586.973 -2.12184 2.74188 0
M  V30 6313 C 586.034 -1.74503 3.92234 0
M  V30 6314 C 585.267 -2.92748 4.46245 0
M  V30 6315 O 585.49 -4.07427 3.99198 0
M  V30 6316 O 584.424 -2.71303 5.37288 0
M  V30 6317 H 588.25 -0.398516 3.01074 0
M  V30 6318 H 585.835 -0.130707 1.48827 0
M  V30 6319 H 587.717 -2.84953 3.10451 0
M  V30 6320 H 586.392 -2.59407 1.93623 0
M  V30 6321 H 585.299 -0.989186 3.60785 0
M  V30 6322 H 586.632 -1.32044 4.74157 0
M  V30 6323 N 588.284 -1.56567 -0.180126 0
M  V30 6324 C 589.194 -1.98947 -1.24327 0
M  V30 6325 C 590.21 -0.899446 -1.4895 0
M  V30 6326 O 591.386 -1.20639 -1.61271 0
M  V30 6327 C 588.451 -2.33328 -2.56435 0
M  V30 6328 C 587.512 -3.56114 -2.39752 0
M  V30 6329 C 586.745 -3.88845 -3.65561 0
M  V30 6330 O 586.968 -3.22662 -4.70368 0
M  V30 6331 O 585.902 -4.82226 -3.60197 0
M  V30 6332 H 589.728 -2.89634 -0.913565 0
M  V30 6333 H 587.313 -1.44319 -0.386306 0
M  V30 6334 H 589.195 -2.5645 -3.34382 0
M  V30 6335 H 587.87 -1.45806 -2.89002 0
M  V30 6336 H 586.777 -3.38221 -1.59866 0
M  V30 6337 H 588.11 -4.4415 -2.12113 0
M  V30 6338 N 589.762 0.448376 -1.51087 0
M  V30 6339 C 590.709 1.54341 -1.71603 0
M  V30 6340 C 591.679 1.56463 -0.557536 0
M  V30 6341 O 592.864 1.73644 -0.79072 0
M  V30 6342 C 590.004 2.92148 -1.83695 0
M  V30 6343 C 589.117 2.99639 -3.11192 0
M  V30 6344 C 588.252 4.285 -3.13944 0
M  V30 6345 C 587.291 4.29819 -4.35801 0
M  V30 6346 N 586.428 5.50186 -4.36164 0
M  V30 6347 H 591.268 1.36151 -2.65079 0
M  V30 6348 H 588.805 0.661585 -1.31383 0
M  V30 6349 H 590.763 3.72093 -1.88687 0
M  V30 6350 H 589.393 3.0892 -0.936374 0
M  V30 6351 H 588.445 2.12425 -3.15562 0
M  V30 6352 H 589.757 2.96474 -4.01129 0
M  V30 6353 H 588.911 5.16811 -3.17791 0
M  V30 6354 H 587.65 4.34307 -2.21876 0
M  V30 6355 H 586.655 3.39902 -4.32142 0
M  V30 6356 H 587.88 4.25685 -5.29121 0
M  V30 6357 H 585.826 5.56735 -3.46961 0
M  V30 6358 H 585.743 5.48856 -5.19897 0
M  V30 6359 H 587.011 6.40559 -4.44189 0
M  V30 6360 N 591.24 1.41047 0.703093 0
M  V30 6361 C 592.187 1.42302 1.81711 0
M  V30 6362 C 593.157 0.278336 1.63751 0
M  V30 6363 O 594.342 0.478266 1.84709 0
M  V30 6364 C 591.482 1.30362 3.19531 0
M  V30 6365 C 590.595 2.54638 3.48975 0
M  V30 6366 C 589.73 2.35047 4.76368 0
M  V30 6367 C 588.769 3.54837 4.98756 0
M  V30 6368 N 587.906 3.34363 6.1737 0
M  V30 6369 H 592.746 2.37516 1.79973 0
M  V30 6370 H 590.283 1.1795 0.878983 0
M  V30 6371 H 592.241 1.21443 3.99134 0
M  V30 6372 H 590.871 0.387602 3.20464 0
M  V30 6373 H 589.923 2.74037 2.63833 0
M  V30 6374 H 591.235 3.43766 3.61423 0
M  V30 6375 H 590.389 2.23552 5.64012 0
M  V30 6376 H 589.128 1.43363 4.66153 0
M  V30 6377 H 588.133 3.66795 4.09563 0
M  V30 6378 H 589.358 4.47464 5.10835 0
M  V30 6379 H 587.304 2.45373 6.08382 0
M  V30 6380 H 587.221 4.17063 6.30551 0
M  V30 6381 H 588.489 3.26626 7.07768 0
M  V30 6382 N 592.718 -0.936591 1.26751 0
M  V30 6383 C 593.995 -1.66094 1.03306 0
M  V30 6384 C 594.375 -2.06568 -0.435058 0
M  V30 6385 O 593.723 -1.79305 -1.41641 0
M  V30 6386 C 593.933 -2.86969 1.98619 0
M  V30 6387 C 595.281 -3.58516 2.27489 0
M  V30 6388 O 596.305 -2.97082 1.96522 0
M  V30 6389 O 595.164 -4.69181 2.80235 0
M  V30 6390 H 592.258 -0.727568 0.393158 0
M  V30 6391 H 594.804 -0.987914 1.3798 0
M  V30 6392 H 593.576 -2.53985 2.9767 0
M  V30 6393 H 593.199 -3.61996 1.64454 0
M  V30 6394 N 594.196 -1.08629 -1.14182 0
M  V30 6395 C 595.106 -0.730126 -2.22949 0
M  V30 6396 C 596.122 0.26436 -1.7198 0
M  V30 6397 O 597.298 0.107742 -2.01112 0
M  V30 6398 C 594.363 -0.147227 -3.46387 0
M  V30 6399 C 593.424 -1.19662 -4.12286 0
M  V30 6400 C 592.657 -0.641437 -5.29831 0
M  V30 6401 O 592.88 0.538351 -5.67854 0
M  V30 6402 O 591.814 -1.39257 -5.85569 0
M  V30 6403 H 595.64 -1.63753 -2.55771 0
M  V30 6404 H 593.225 -0.860118 -1.22157 0
M  V30 6405 H 595.107 0.174923 -4.21037 0
M  V30 6406 H 593.782 0.733304 -3.15285 0
M  V30 6407 H 592.689 -1.57133 -3.395 0
M  V30 6408 H 594.022 -2.0495 -4.475 0
M  V30 6409 N 595.674 1.31259 -0.872281 0
M  V30 6410 C 596.902 2.00795 -0.498907 0
M  V30 6411 C 597.317 1.65464 0.909238 0
M  V30 6412 O 596.674 0.885073 1.59602 0
M  V30 6413 C 596.725 3.55625 -0.649092 0
M  V30 6414 O 596.446 3.89692 -2.00179 0
M  V30 6415 C 597.947 4.42434 -0.277034 0
M  V30 6416 H 595.167 0.642299 -0.194145 0
M  V30 6417 H 597.711 1.67438 -1.17408 0
M  V30 6418 H 595.866 3.87394 -0.0214402 0
M  V30 6419 H 596.28 4.84407 -2.01122 0
M  V30 6420 H 597.754 5.50299 -0.433064 0
M  V30 6421 H 598.231 4.32146 0.783989 0
M  V30 6422 H 598.837 4.16086 -0.880483 0
M  V30 6423 N 597.152 0.631951 1.44375 0
M  V30 6424 C 598.377 0.142146 2.06912 0
M  V30 6425 C 598.802 -1.17456 1.4692 0
M  V30 6426 O 598.16 -1.72074 0.570975 0
M  V30 6427 C 598.208 0.0417952 3.60576 0
M  V30 6428 O 597.312 -1.00194 4.00044 0
M  V30 6429 H 596.653 0.0851491 0.658518 0
M  V30 6430 H 599.183 0.868863 1.85235 0
M  V30 6431 H 599.193 -0.148517 4.0773 0
M  V30 6432 H 597.868 1.0031 4.03622 0
M  V30 6433 H 596.445 -0.786131 3.64519 0
M  V30 6434 N 598.631 -1.53133 0.372548 0
M  V30 6435 C 599.856 -2.0625 -0.218098 0
M  V30 6436 C 600.281 -1.24375 -1.41111 0
M  V30 6437 O 599.639 -0.264554 -1.79359 0
M  V30 6438 C 599.687 -3.55858 -0.582876 0
M  V30 6439 O 598.791 -3.76667 -1.67917 0
M  V30 6440 H 598.132 -0.663317 -0.030104 0
M  V30 6441 H 600.662 -1.97477 0.535169 0
M  V30 6442 H 600.672 -3.99007 -0.851925 0
M  V30 6443 H 599.347 -4.14892 0.289428 0
M  V30 6444 H 597.924 -3.45413 -1.40513 0
M  V30 6445 N 600.109 -0.101901 -1.5727 0
M  V30 6446 C 601.334 0.571759 -1.99363 0
M  V30 6447 C 601.759 1.60507 -0.980768 0
M  V30 6448 O 601.117 1.81231 0.0498517 0
M  V30 6449 C 601.165 1.18996 -3.404 0
M  V30 6450 O 600.269 2.30572 -3.41922 0
M  V30 6451 H 599.61 0.144449 -0.648098 0
M  V30 6452 H 602.14 -0.185325 -2.03759 0
M  V30 6453 H 602.15 1.52962 -3.78241 0
M  V30 6454 H 600.825 0.432984 -4.1364 0
M  V30 6455 H 599.402 1.98173 -3.15883 0
M  V30 6456 N 601.587 1.56661 0.17182 0
M  V30 6457 C 602.812 1.86459 0.908165 0
M  V30 6458 C 603.237 0.688181 1.75059 0
M  V30 6459 O 602.595 -0.362753 1.77634 0
M  V30 6460 C 602.643 3.14669 1.76112 0
M  V30 6461 O 601.747 2.96858 2.86268 0
M  V30 6462 H 601.088 0.613318 0.254434 0
M  V30 6463 H 603.618 2.03892 0.170113 0
M  V30 6464 H 603.628 3.46061 2.16115 0
M  V30 6465 H 602.303 3.99905 1.14233 0
M  V30 6466 H 600.88 2.76819 2.49852 0
M  V30 6467 N 603.065 -0.440357 1.51323 0
M  V30 6468 C 603.975 -1.55955 1.75258 0
M  V30 6469 C 604.991 -1.61933 0.636687 0
M  V30 6470 O 606.167 -1.79231 0.918593 0
M  V30 6471 C 603.232 -2.9196 1.86977 0
M  V30 6472 C 602.293 -2.96122 3.10822 0
M  V30 6473 C 601.526 -4.2564 3.21973 0
M  V30 6474 O 601.749 -5.17851 2.39137 0
M  V30 6475 O 600.683 -4.36025 4.14929 0
M  V30 6476 H 604.509 -1.38673 2.70191 0
M  V30 6477 H 602.094 -0.623055 1.35788 0
M  V30 6478 H 603.976 -3.72682 1.96688 0
M  V30 6479 H 602.651 -3.09375 0.952307 0
M  V30 6480 H 601.558 -2.14366 3.06591 0
M  V30 6481 H 602.891 -2.83651 4.02247 0
M  V30 6482 N 604.543 -1.41418 -0.695603 0
M  V30 6483 C 605.506 -1.42988 -1.79129 0
M  V30 6484 C 606.506 -0.320514 -1.57573 0
M  V30 6485 O 607.696 -0.58039 -1.64247 0
M  V30 6486 C 604.828 -1.24122 -3.175 0
M  V30 6487 H 606.021 -2.40526 -1.7913 0
M  V30 6488 H 603.574 -1.2756 -0.903225 0
M  V30 6489 H 604.309 -0.274253 -3.23138 0
M  V30 6490 H 604.094 -2.045 -3.34547 0
M  V30 6491 H 605.584 -1.28056 -3.97481 0
M  V30 6492 N 606.021 0.929856 -1.27246 0
M  V30 6493 C 606.969 2.05151 -1.09616 0
M  V30 6494 C 607.963 1.69388 -0.0198617 0
M  V30 6495 O 609.169 1.79124 -0.177417 0
M  V30 6496 H 605.544 0.671909 -0.337701 0
M  V30 6497 H 607.515 2.17168 -2.04648 0
M  V30 6498 C 606.264 3.3934 -0.757851 0
M  V30 6499 H 605.587 3.67343 -1.57795 0
M  V30 6500 H 607.027 4.18603 -0.674358 0
M  V30 6501 C 605.486 3.32582 0.537658 0
M  V30 6502 O 606.016 3.69633 1.57271 0
M  V30 6503 N 604.222 2.8568 0.532478 0
M  V30 6504 H 603.769 2.55725 -0.310233 0
M  V30 6505 H 603.727 2.81541 1.39936 0
M  V30 6506 N 607.499 1.09233 1.13605 0
M  V30 6507 C 608.724 0.849067 1.89224 0
M  V30 6508 C 609.149 -0.593875 1.78479 0
M  V30 6509 O 608.507 -1.41703 1.13092 0
M  V30 6510 C 608.555 1.28642 3.36873 0
M  V30 6511 O 607.659 0.44363 4.10007 0
M  V30 6512 H 607 0.30767 0.588417 0
M  V30 6513 H 609.53 1.45595 1.43748 0
M  V30 6514 H 609.54 1.27096 3.87699 0
M  V30 6515 H 608.215 2.33729 3.44011 0
M  V30 6516 H 606.792 0.523241 3.69211 0
M  V30 6517 N 608.977 -1.30795 0.87923 0
M  V30 6518 C 610.393 -1.48981 0.57243 0
M  V30 6519 C 610.593 -1.80719 -0.891236 0
M  V30 6520 O 609.649 -1.89136 -1.67283 0
M  V30 6521 C 610.962 -2.61721 1.48063 0
M  V30 6522 C 612.51 -2.75603 1.48365 0
M  V30 6523 C 612.985 -3.91449 2.37763 0
M  V30 6524 N 614.476 -3.98751 2.35695 0
M  V30 6525 C 615.211 -4.87684 3.01583 0
M  V30 6526 N 614.707 -5.81454 3.76674 0
M  V30 6527 N 616.5 -4.81005 2.90844 0
M  V30 6528 H 608.651 -1.08465 1.82617 0
M  V30 6529 H 610.914 -0.536813 0.781368 0
M  V30 6530 H 610.62 -2.45073 2.52254 0
M  V30 6531 H 610.494 -3.58071 1.18596 0
M  V30 6532 H 612.881 -2.9166 0.44927 0
M  V30 6533 H 612.962 -1.79891 1.81859 0
M  V30 6534 H 612.606 -3.76149 3.41283 0
M  V30 6535 H 612.536 -4.86487 2.01589 0
M  V30 6536 H 615.027 -3.31668 1.81121 0
M  V30 6537 H 615.34 -6.46063 4.24054 0
M  V30 6538 H 613.685 -5.81403 3.80782 0
M  V30 6539 H 616.876 -4.06728 2.31711 0
M  V30 6540 H 617.049 -5.50107 3.42471 0
M  V30 6541 N 610.455 -0.639598 -1.44038 0
M  V30 6542 C 611.695 -0.150902 -2.03842 0
M  V30 6543 C 612.059 1.20744 -1.49281 0
M  V30 6544 O 613.26 1.78875 -2.00642 0
M  V30 6545 C 611.531 -0.146114 -3.57101 0
M  V30 6546 S 613.09 0.276725 -4.37927 0
M  V30 6547 H 609.908 -0.0652447 -0.708 0
M  V30 6548 H 612.51 -0.844886 -1.76301 0
M  V30 6549 H 611.214 -1.13769 -3.94316 0
M  V30 6550 H 610.745 0.568846 -3.89266 0
M  V30 6551 H 612.76 1.51893 -4.7238 0
M  V30 6552 N 611.933 1.52934 -0.380664 0
M  V30 6553 C 612.865 2.23822 0.493581 0
M  V30 6554 C 613.878 1.25761 1.03383 0
M  V30 6555 O 615.067 1.5189 0.937633 0
M  V30 6556 C 612.167 2.9342 1.69582 0
M  V30 6557 C 611.34 4.18115 1.28445 0
M  V30 6558 C 610.399 4.70788 2.35042 0
M  V30 6559 O 609.425 5.34093 1.96807 0
M  V30 6560 N 610.627 4.49899 3.66839 0
M  V30 6561 H 613.392 2.99484 -0.11371 0
M  V30 6562 H 610.953 1.60577 -0.206587 0
M  V30 6563 H 612.945 3.2556 2.40401 0
M  V30 6564 H 611.515 2.21119 2.20965 0
M  V30 6565 H 610.735 3.92109 0.405503 0
M  V30 6566 H 612.023 4.99152 0.986132 0
M  V30 6567 H 611.421 3.99349 4.0067 0
M  V30 6568 H 609.978 4.86551 4.33718 0
M  V30 6569 N 613.412 0.11024 1.57214 0
M  V30 6570 C 614.64 -0.557834 1.99238 0
M  V30 6571 C 615.055 -1.60778 0.989734 0
M  V30 6572 O 614.412 -1.82491 -0.0186092 0
M  V30 6573 C 614.463 -1.19189 3.41286 0
M  V30 6574 O 614.184 -0.183919 4.37714 0
M  V30 6575 C 615.685 -1.94413 3.98395 0
M  V30 6576 H 612.905 -0.148392 0.654386 0
M  V30 6577 H 615.449 0.193996 2.03578 0
M  V30 6578 H 613.604 -1.89456 3.37913 0
M  V30 6579 H 614.018 -0.643475 5.20538 0
M  V30 6580 H 615.492 -2.34116 4.99894 0
M  V30 6581 H 615.969 -2.81592 3.3705 0
M  V30 6582 H 616.575 -1.28928 4.05287 0
M  V30 6583 N 614.89 -1.56749 -0.16351 0
M  V30 6584 C 616.301 -1.72039 -0.725216 0
M  V30 6585 C 616.652 -0.72202 -1.82432 0
M  V30 6586 O 615.777 0.114942 -2.16095 0
M  V30 6587 C 616.372 -3.11932 -1.32227 0
M  V30 6588 C 614.931 -3.28879 -1.83072 0
M  V30 6589 C 614.078 -2.67984 -0.712716 0
M  V30 6590 H 617.029 -1.58579 0.0619772 0
M  V30 6591 H 617.05 -3.11015 -2.19202 0
M  V30 6592 H 616.562 -3.84572 -0.522103 0
M  V30 6593 H 614.663 -2.61209 -2.65708 0
M  V30 6594 H 614.776 -4.36688 -1.97079 0
M  V30 6595 H 613.14 -2.28005 -1.13515 0
M  V30 6596 H 613.923 -3.43216 0.0757361 0
M  V30 6597 N 616.368 0.432326 -1.51554 0
M  V30 6598 C 617.617 1.17831 -1.63703 0
M  V30 6599 C 617.93 1.92229 -0.36156 0
M  V30 6600 O 619.136 2.69069 -0.362495 0
M  V30 6601 C 617.592 2.14318 -2.89129 0
M  V30 6602 C 617.2 1.45544 -4.23699 0
M  V30 6603 C 618.944 2.89319 -3.10636 0
M  V30 6604 C 616.851 2.40545 -5.4027 0
M  V30 6605 H 615.781 0.443533 -0.60975 0
M  V30 6606 H 618.432 0.444878 -1.78026 0
M  V30 6607 H 616.814 2.91117 -2.68452 0
M  V30 6608 H 617.988 0.742693 -4.54775 0
M  V30 6609 H 616.303 0.826772 -4.0811 0
M  V30 6610 H 618.9 3.60495 -3.94902 0
M  V30 6611 H 619.243 3.50951 -2.23918 0
M  V30 6612 H 619.776 2.19625 -3.31677 0
M  V30 6613 H 616.515 1.83594 -6.29264 0
M  V30 6614 H 616.035 3.09859 -5.13563 0
M  V30 6615 H 617.714 3.01569 -5.72421 0
M  V30 6616 N 617.846 1.41785 0.688094 0
M  V30 6617 C 618.793 1.44221 1.80191 0
M  V30 6618 C 619.763 0.295688 1.63447 0
M  V30 6619 O 620.948 0.49783 1.84191 0
M  V30 6620 C 618.088 1.33743 3.1813 0
M  V30 6621 C 617.201 2.58325 3.46254 0
M  V30 6622 C 616.336 2.40086 4.73848 0
M  V30 6623 C 615.375 3.60107 4.94964 0
M  V30 6624 N 614.512 3.40892 6.13789 0
M  V30 6625 H 619.352 2.39411 1.77444 0
M  V30 6626 H 616.889 1.18876 0.866423 0
M  V30 6627 H 618.847 1.25669 3.97823 0
M  V30 6628 H 617.477 0.42157 3.20035 0
M  V30 6629 H 616.529 2.7682 2.60912 0
M  V30 6630 H 617.841 3.4758 3.57756 0
M  V30 6631 H 616.995 2.29522 5.61609 0
M  V30 6632 H 615.734 1.483 4.64606 0
M  V30 6633 H 614.739 3.71118 4.05649 0
M  V30 6634 H 615.964 4.52857 5.06061 0
M  V30 6635 H 613.91 2.51812 6.05745 0
M  V30 6636 H 613.827 4.23727 6.26092 0
M  V30 6637 H 615.095 3.34114 7.04264 0
M  V30 6638 N 619.324 -0.923095 1.27737 0
M  V30 6639 C 620.257 -2.02515 1.05181 0
M  V30 6640 C 621.235 -1.62574 -0.0292204 0
M  V30 6641 O 622.419 -1.88137 0.116848 0
M  V30 6642 C 619.546 -3.33407 0.596468 0
M  V30 6643 C 618.592 -3.92328 1.67276 0
M  V30 6644 S 619.425 -4.24342 3.26641 0
M  V30 6645 C 620.581 -5.58308 2.82919 0
M  V30 6646 H 620.814 -2.21336 1.98488 0
M  V30 6647 H 618.347 -1.06679 1.1162 0
M  V30 6648 H 620.305 -4.09086 0.34044 0
M  V30 6649 H 618.966 -3.125 -0.316614 0
M  V30 6650 H 618.159 -4.86797 1.30556 0
M  V30 6651 H 617.761 -3.2325 1.8811 0
M  V30 6652 H 620.053 -6.37801 2.28509 0
M  V30 6653 H 620.996 -5.99931 3.7615 0
M  V30 6654 H 621.404 -5.19049 2.21919 0
M  V30 6655 N 620.802 -1.09834 -1.13024 0
M  V30 6656 C 621.749 -0.741522 -2.18564 0
M  V30 6657 C 622.719 0.279236 -1.63736 0
M  V30 6658 O 623.904 0.159923 -1.90129 0
M  V30 6659 C 621.044 -0.17277 -3.44667 0
M  V30 6660 C 620.157 -1.24808 -4.13578 0
M  V30 6661 C 619.292 -0.641631 -5.27311 0
M  V30 6662 C 618.331 -1.69795 -5.88078 0
M  V30 6663 N 617.468 -1.11223 -6.93234 0
M  V30 6664 H 622.308 -1.64576 -2.48432 0
M  V30 6665 H 619.845 -0.822174 -1.21978 0
M  V30 6666 H 621.803 0.17482 -4.16834 0
M  V30 6667 H 620.433 0.694725 -3.15235 0
M  V30 6668 H 619.485 -1.71288 -3.39653 0
M  V30 6669 H 620.797 -2.04795 -4.54819 0
M  V30 6670 H 619.951 -0.243128 -6.06213 0
M  V30 6671 H 618.69 0.189742 -4.87331 0
M  V30 6672 H 617.695 -2.10595 -5.07868 0
M  V30 6673 H 618.92 -2.53206 -6.3013 0
M  V30 6674 H 616.866 -0.302208 -6.55304 0
M  V30 6675 H 616.783 -1.84901 -7.3304 0
M  V30 6676 H 618.051 -0.740068 -7.75979 0
M  V30 6677 N 622.28 1.30327 -0.886154 0
M  V30 6678 C 623.691 1.78243 -0.555554 0
M  V30 6679 C 624.042 1.72849 0.928314 0
M  V30 6680 O 623.167 1.30607 1.72542 0
M  V30 6681 C 623.762 3.23654 -1.00168 0
M  V30 6682 C 622.321 3.69401 -0.722471 0
M  V30 6683 C 621.468 2.50753 -1.18399 0
M  V30 6684 H 624.419 1.1718 -1.07026 0
M  V30 6685 H 624.44 3.79056 -0.331152 0
M  V30 6686 H 623.952 3.27548 -2.08169 0
M  V30 6687 H 622.053 3.70995 0.345496 0
M  V30 6688 H 622.166 4.60818 -1.31085 0
M  V30 6689 H 620.53 2.47452 -0.603303 0
M  V30 6690 H 621.313 2.57383 -2.27176 0
M  V30 6691 N 623.758 0.647228 1.43697 0
M  V30 6692 C 624.706 -0.0600105 2.32523 0
M  V30 6693 C 625.7 -0.819277 1.48271 0
M  V30 6694 O 626.906 -0.730356 1.64517 0
M  V30 6695 H 623.281 -0.0381872 0.75103 0
M  V30 6696 H 625.252 0.706978 2.89904 0
M  V30 6697 C 624.001 -1.0169 3.32497 0
M  V30 6698 H 623.324 -0.442083 3.97348 0
M  V30 6699 H 624.764 -1.48095 3.97296 0
M  V30 6700 C 623.223 -2.11002 2.6264 0
M  V30 6701 O 623.753 -3.19302 2.4374 0
M  V30 6702 N 621.959 -1.87388 2.22113 0
M  V30 6703 H 621.506 -0.993174 2.37684 0
M  V30 6704 H 621.464 -2.60723 1.75701 0
M  V30 6705 N 625.236 -1.5273 0.388769 0
M  V30 6706 C 626.485 -2.00757 -0.194833 0
M  V30 6707 C 626.798 -1.27951 -1.47946 0
M  V30 6708 O 628.004 -1.66686 -2.14308 0
M  V30 6709 C 626.46 -3.57695 -0.397762 0
M  V30 6710 C 626.068 -4.394 0.873583 0
M  V30 6711 C 627.812 -4.14012 -0.937759 0
M  V30 6712 C 625.719 -5.87938 0.638962 0
M  V30 6713 H 624.649 -0.750101 -0.0765845 0
M  V30 6714 H 627.3 -1.76239 0.511086 0
M  V30 6715 H 625.682 -3.7846 -1.16552 0
M  V30 6716 H 626.856 -4.30403 1.64591 0
M  V30 6717 H 625.171 -3.94301 1.33849 0
M  V30 6718 H 627.768 -5.22645 -1.12899 0
M  V30 6719 H 628.111 -3.7007 -1.90666 0
M  V30 6720 H 628.644 -3.97137 -0.229588 0
M  V30 6721 H 625.383 -6.36202 1.57885 0
M  V30 6722 H 624.903 -5.99726 -0.094443 0
M  V30 6723 H 626.582 -6.46423 0.273299 0
M  V30 6724 N 626.714 -0.118576 -1.57153 0
M  V30 6725 C 627.624 0.845484 -2.18835 0
M  V30 6726 C 628.64 1.29299 -1.16438 0
M  V30 6727 O 629.816 1.35607 -1.48905 0
M  V30 6728 C 626.881 2.07795 -2.77529 0
M  V30 6729 C 625.942 1.6824 -3.9496 0
M  V30 6730 C 625.175 2.85612 -4.50845 0
M  V30 6731 O 625.398 4.01025 -4.05629 0
M  V30 6732 O 624.332 2.62721 -5.41536 0
M  V30 6733 H 628.158 0.350568 -3.0167 0
M  V30 6734 H 625.743 0.107013 -1.49016 0
M  V30 6735 H 627.625 2.79978 -3.14945 0
M  V30 6736 H 626.3 2.56294 -1.97725 0
M  V30 6737 H 625.207 0.931663 -3.62313 0
M  V30 6738 H 626.54 1.24484 -4.76198 0
M  V30 6739 N 628.193 1.56834 0.155195 0
M  V30 6740 C 629.604 1.72421 0.716082 0
M  V30 6741 C 629.955 0.731685 1.82046 0
M  V30 6742 O 629.08 -0.103481 2.16152 0
M  V30 6743 C 629.675 3.12629 1.30571 0
M  V30 6744 C 628.234 3.29846 1.81325 0
M  V30 6745 C 627.381 2.68359 0.698494 0
M  V30 6746 H 630.332 1.58544 -0.0703861 0
M  V30 6747 H 630.353 3.12174 2.1755 0
M  V30 6748 H 629.865 3.84844 0.501701 0
M  V30 6749 H 627.966 2.62614 2.64319 0
M  V30 6750 H 628.079 4.37727 1.9476 0
M  V30 6751 H 626.443 2.28604 1.12305 0
M  V30 6752 H 627.226 3.43171 -0.0939366 0
M  V30 6753 N 629.671 -0.424282 1.51781 0
M  V30 6754 C 631.082 -1.00368 1.57427 0
M  V30 6755 C 631.433 -1.91962 0.40558 0
M  V30 6756 O 630.558 -2.111 -0.47601 0
M  V30 6757 C 631.153 -1.82707 2.85313 0
M  V30 6758 C 629.712 -2.35675 2.93487 0
M  V30 6759 C 628.859 -1.1524 2.5222 0
M  V30 6760 H 631.81 -0.205064 1.5737 0
M  V30 6761 H 631.831 -2.68294 2.69812 0
M  V30 6762 H 631.343 -1.16017 3.70353 0
M  V30 6763 H 629.444 -3.05781 2.12906 0
M  V30 6764 H 629.557 -2.67578 3.97415 0
M  V30 6765 H 627.921 -1.50174 2.05718 0
M  V30 6766 H 628.704 -0.5014 3.39619 0
M  V30 6767 N 631.149 -1.42148 -0.680565 0
M  V30 6768 C 632.059 -1.47565 -1.82378 0
M  V30 6769 C 633.075 -0.36489 -1.70131 0
M  V30 6770 O 634.251 -0.614916 -1.91783 0
M  V30 6771 C 631.316 -1.37013 -3.18478 0
M  V30 6772 C 630.377 -2.58532 -3.42724 0
M  V30 6773 C 629.61 -2.48473 -4.72331 0
M  V30 6774 O 629.833 -1.51745 -5.49845 0
M  V30 6775 O 628.767 -3.38503 -4.97694 0
M  V30 6776 H 632.593 -2.44045 -1.80764 0
M  V30 6777 H 630.178 -1.23849 -0.835569 0
M  V30 6778 H 632.06 -1.33468 -3.99705 0
M  V30 6779 H 630.735 -0.436552 -3.20743 0
M  V30 6780 H 629.642 -2.67652 -2.61368 0
M  V30 6781 H 630.975 -3.50769 -3.45286 0
M  V30 6782 N 632.627 0.916307 -1.28225 0
M  V30 6783 C 633.575 2.03977 -1.11786 0
M  V30 6784 C 634.569 1.69358 -0.0378265 0
M  V30 6785 O 635.775 1.78925 -0.196405 0
M  V30 6786 H 632.15 0.66829 -0.344809 0
M  V30 6787 H 634.121 2.14985 -2.06939 0
M  V30 6788 C 632.87 3.38518 -0.7938 0
M  V30 6789 H 632.193 3.65649 -1.61682 0
M  V30 6790 H 633.633 4.17864 -0.718719 0
M  V30 6791 C 632.092 3.33134 0.502353 0
M  V30 6792 O 632.622 3.71281 1.53341 0
M  V30 6793 N 630.828 2.86229 0.502147 0
M  V30 6794 H 630.375 2.55382 -0.337338 0
M  V30 6795 H 630.333 2.83009 1.36942 0
M  V30 6796 N 634.105 1.10431 1.1244 0
M  V30 6797 C 635.351 0.847972 1.84221 0
M  V30 6798 C 635.684 -0.624903 1.83871 0
M  V30 6799 O 634.959 -1.46074 1.28423 0
M  V30 6800 C 635.242 1.39695 3.319 0
M  V30 6801 C 635.095 2.93668 3.40704 0
M  V30 6802 C 636.414 1.03924 4.27654 0
M  V30 6803 H 633.533 0.309502 0.668863 0
M  V30 6804 H 636.175 1.36745 1.31912 0
M  V30 6805 H 634.325 0.955095 3.76577 0
M  V30 6806 H 635.997 3.46379 3.04662 0
M  V30 6807 H 634.24 3.30272 2.81252 0
M  V30 6808 H 634.911 3.27162 4.446 0
M  V30 6809 H 637.387 1.42049 3.91102 0
M  V30 6810 H 636.263 1.45027 5.29394 0
M  V30 6811 H 636.524 -0.051336 4.4207 0
M  V30 6812 N 635.583 -1.29855 0.893053 0
M  V30 6813 C 636.493 -2.31661 0.370157 0
M  V30 6814 C 637.509 -1.65677 -0.531723 0
M  V30 6815 O 638.685 -1.9691 -0.422902 0
M  V30 6816 C 635.75 -3.44388 -0.399741 0
M  V30 6817 C 634.811 -4.2598 0.532861 0
M  V30 6818 C 634.044 -5.33324 -0.200388 0
M  V30 6819 O 634.267 -5.52305 -1.42531 0
M  V30 6820 O 633.201 -6.00188 0.453668 0
M  V30 6821 H 637.027 -2.78354 1.2146 0
M  V30 6822 H 634.612 -1.34171 0.657153 0
M  V30 6823 H 636.494 -4.13037 -0.835358 0
M  V30 6824 H 635.169 -2.99815 -1.22035 0
M  V30 6825 H 634.076 -3.59998 1.01746 0
M  V30 6826 H 635.409 -4.74178 1.3197 0
M  V30 6827 N 637.061 -0.65484 -1.43351 0
M  V30 6828 C 638.307 -0.177749 -2.02622 0
M  V30 6829 C 638.662 1.19553 -1.50748 0
M  V30 6830 O 637.955 1.78683 -0.691599 0
M  V30 6831 C 638.149 -0.130424 -3.57162 0
M  V30 6832 C 637.978 -1.49757 -4.24032 0
M  V30 6833 C 636.748 -2.09036 -4.60035 0
M  V30 6834 C 638.946 -2.4363 -4.52934 0
M  V30 6835 N 636.928 -3.3874 -5.11985 0
M  V30 6836 C 638.299 -3.57968 -5.0622 0
M  V30 6837 C 640.354 -2.42412 -4.34903 0
M  V30 6838 C 639.057 -4.71314 -5.43374 0
M  V30 6839 C 641.083 -3.5484 -4.7312 0
M  V30 6840 C 640.445 -4.67903 -5.26541 0
M  V30 6841 H 636.544 -0.10951 -0.774294 0
M  V30 6842 H 639.128 -0.863495 -1.74505 0
M  V30 6843 H 637.299 0.524671 -3.8484 0
M  V30 6844 H 639.031 0.35769 -4.03116 0
M  V30 6845 H 635.786 -1.61729 -4.4513 0
M  V30 6846 H 636.21 -4.05116 -5.42412 0
M  V30 6847 H 640.852 -1.56236 -3.92874 0
M  V30 6848 H 638.57 -5.5818 -5.84346 0
M  V30 6849 H 642.156 -3.55101 -4.60863 0
M  V30 6850 H 641.036 -5.5346 -5.55564 0
M  V30 6851 N 638.539 1.52521 -0.396863 0
M  V30 6852 C 639.764 2.06571 0.185258 0
M  V30 6853 C 640.189 1.26605 1.39115 0
M  V30 6854 O 639.547 0.293055 1.78916 0
M  V30 6855 C 639.595 3.5674 0.526189 0
M  V30 6856 O 638.699 3.7929 1.61903 0
M  V30 6857 H 638.04 0.663712 0.0195474 0
M  V30 6858 H 640.57 1.966 -0.566519 0
M  V30 6859 H 640.58 4.00311 0.788338 0
M  V30 6860 H 639.255 4.14379 -0.355397 0
M  V30 6861 H 637.832 3.47605 1.35 0
M  V30 6862 N 640.017 0.126909 1.57088 0
M  V30 6863 C 641.265 -0.528123 1.95078 0
M  V30 6864 C 641.586 -1.66708 1.0116 0
M  V30 6865 O 640.856 -1.95777 0.0693527 0
M  V30 6866 H 639.436 -0.198087 0.720257 0
M  V30 6867 H 642.098 0.197703 1.93895 0
M  V30 6868 H 641.194 -0.917507 2.98309 0
M  V30 6869 N 641.495 -1.56914 -0.146875 0
M  V30 6870 C 642.458 -1.97368 -1.16526 0
M  V30 6871 C 643.458 -0.860223 -1.35856 0
M  V30 6872 O 644.648 -1.12684 -1.32846 0
M  V30 6873 C 641.78 -2.28974 -2.52555 0
M  V30 6874 H 642.973 -2.88523 -0.818209 0
M  V30 6875 H 640.526 -1.5135 -0.390221 0
M  V30 6876 H 641.261 -1.40611 -2.92231 0
M  V30 6877 H 641.046 -3.10157 -2.39886 0
M  V30 6878 H 642.536 -2.61109 -3.25902 0
M  V30 6879 N 642.974 0.416227 -1.52004 0
M  V30 6880 C 643.884 1.53147 -1.77717 0
M  V30 6881 C 644.9 1.609 -0.662368 0
M  V30 6882 O 646.076 1.77747 -0.946991 0
M  V30 6883 C 643.141 2.88948 -1.91598 0
M  V30 6884 C 642.202 2.9114 -3.15493 0
M  V30 6885 C 641.435 4.20464 -3.28703 0
M  V30 6886 O 641.658 5.13981 -2.47345 0
M  V30 6887 O 640.592 4.29368 -4.21813 0
M  V30 6888 H 644.418 1.34357 -2.72363 0
M  V30 6889 H 642.003 0.601373 -1.36762 0
M  V30 6890 H 643.885 3.69505 -2.02593 0
M  V30 6891 H 642.56 3.07821 -1.00141 0
M  V30 6892 H 641.467 2.09461 -3.09962 0
M  V30 6893 H 642.8 2.77216 -4.06709 0
M  V30 6894 N 644.452 1.42507 0.673017 0
M  V30 6895 C 645.415 1.4582 1.76831 0
M  V30 6896 C 646.415 0.345542 1.57043 0
M  V30 6897 O 647.605 0.606447 1.63303 0
M  V30 6898 C 644.737 1.29158 3.15485 0
M  V30 6899 H 645.93 2.43345 1.7528 0
M  V30 6900 H 643.483 1.28981 0.882817 0
M  V30 6901 H 644.218 0.325626 3.22661 0
M  V30 6902 H 644.003 2.09797 3.31252 0
M  V30 6903 H 645.493 1.34363 3.95394 0
M  V30 6904 N 645.93 -0.909495 1.28709 0
M  V30 6905 C 647.155 -1.69801 1.1909 0
M  V30 6906 C 647.58 -1.86479 -0.246388 0
M  V30 6907 O 646.938 -1.37802 -1.17815 0
M  V30 6908 C 646.986 -3.06543 1.89904 0
M  V30 6909 O 646.09 -3.94268 1.2094 0
M  V30 6910 H 645.431 -0.519783 0.413185 0
M  V30 6911 H 647.961 -1.13689 1.70106 0
M  V30 6912 H 647.971 -3.56748 1.97977 0
M  V30 6913 H 646.646 -2.93722 2.94449 0
M  V30 6914 H 645.223 -3.52702 1.2106 0
M  V30 6915 N 647.408 -1.11026 -1.11852 0
M  V30 6916 C 648.341 -0.708501 -2.16923 0
M  V30 6917 C 649.319 0.293196 -1.59935 0
M  V30 6918 O 650.503 0.190641 -1.87533 0
M  V30 6919 C 647.63 -0.0463705 -3.38668 0
M  V30 6920 C 646.676 -1.01252 -4.14307 0
M  V30 6921 S 647.509 -2.53291 -4.71809 0
M  V30 6922 C 648.665 -1.88366 -5.96883 0
M  V30 6923 H 648.898 -1.59854 -2.50667 0
M  V30 6924 H 646.431 -0.927869 -1.2341 0
M  V30 6925 H 648.389 0.329314 -4.09177 0
M  V30 6926 H 647.05 0.820562 -3.03192 0
M  V30 6927 H 646.243 -0.496596 -5.01548 0
M  V30 6928 H 645.845 -1.33042 -3.49537 0
M  V30 6929 H 648.137 -1.21753 -6.6647 0
M  V30 6930 H 649.08 -2.73588 -6.53112 0
M  V30 6931 H 649.488 -1.34562 -5.48227 0
M  V30 6932 N 648.886 1.2938 -0.899927 0
M  V30 6933 C 650.133 1.9555 -0.525963 0
M  V30 6934 C 650.461 1.70945 0.927789 0
M  V30 6935 O 649.716 1.01545 1.67293 0
M  V30 6936 C 650.015 3.49114 -0.765113 0
M  V30 6937 C 649.681 3.93796 -2.19626 0
M  V30 6938 C 648.343 4.05707 -2.58758 0
M  V30 6939 C 650.695 4.16883 -3.12823 0
M  V30 6940 C 648.023 4.38074 -3.90267 0
M  V30 6941 C 650.375 4.50725 -4.4388 0
M  V30 6942 C 649.039 4.60845 -4.82885 0
M  V30 6943 H 648.309 0.715569 -0.192463 0
M  V30 6944 H 650.956 1.53972 -1.13863 0
M  V30 6945 H 649.261 3.91738 -0.069531 0
M  V30 6946 H 650.958 3.98409 -0.455144 0
M  V30 6947 H 647.548 3.85042 -1.88256 0
M  V30 6948 H 651.732 4.07147 -2.83804 0
M  V30 6949 H 646.988 4.44112 -4.20207 0
M  V30 6950 H 651.162 4.67538 -5.16121 0
M  V30 6951 H 648.789 4.85681 -5.84823 0
M  V30 6952 N 650.364 0.662433 1.43002 0
M  V30 6953 C 651.78 0.330835 1.56133 0
M  V30 6954 C 651.98 -1.16454 1.64441 0
M  V30 6955 O 651.036 -1.94964 1.60453 0
M  V30 6956 C 652.349 1.05029 2.81761 0
M  V30 6957 C 653.897 1.03142 2.95518 0
M  V30 6958 C 654.372 1.73196 4.2399 0
M  V30 6959 N 655.863 1.70004 4.30875 0
M  V30 6960 C 656.598 2.21074 5.29069 0
M  V30 6961 N 656.094 2.80473 6.33488 0
M  V30 6962 N 657.887 2.1152 5.20784 0
M  V30 6963 H 650.038 1.63272 1.35853 0
M  V30 6964 H 652.301 0.687149 0.653092 0
M  V30 6965 H 652.007 2.10542 2.81718 0
M  V30 6966 H 651.881 0.607664 3.72273 0
M  V30 6967 H 654.268 -0.0153339 2.95096 0
M  V30 6968 H 654.349 1.51282 2.0627 0
M  V30 6969 H 653.993 2.77833 4.25172 0
M  V30 6970 H 653.923 1.22515 5.1215 0
M  V30 6971 H 656.414 1.26667 3.56039 0
M  V30 6972 H 656.727 3.17094 7.04749 0
M  V30 6973 H 655.072 2.84538 6.34085 0
M  V30 6974 H 658.263 1.64814 4.38126 0
M  V30 6975 H 658.436 2.51629 5.97149 0
M  V30 6976 N 651.842 -1.52309 0.404946 0
M  V30 6977 C 653.088 -2.02065 -0.172455 0
M  V30 6978 C 653.421 -1.29022 -1.45145 0
M  V30 6979 O 652.696 -0.395284 -1.90441 0
M  V30 6980 C 652.979 -3.5759 -0.424433 0
M  V30 6981 C 652.832 -4.41287 0.870945 0
M  V30 6982 C 654.151 -4.23186 -1.20837 0
M  V30 6983 H 651.27 -0.734454 -0.0612035 0
M  V30 6984 H 653.912 -1.82236 0.53759 0
M  V30 6985 H 652.062 -3.74617 -1.02929 0
M  V30 6986 H 653.734 -4.3598 1.50729 0
M  V30 6987 H 651.977 -4.07669 1.48284 0
M  V30 6988 H 652.648 -5.48171 0.649083 0
M  V30 6989 H 655.124 -4.10232 -0.696338 0
M  V30 6990 H 654 -5.31953 -1.35343 0
M  V30 6991 H 654.261 -3.81862 -2.22786 0
M  V30 6992 N 653.32 -0.135238 -1.57019 0
M  V30 6993 C 654.25 0.805235 -2.19176 0
M  V30 6994 C 655.231 1.2656 -1.13651 0
M  V30 6995 O 656.416 1.32528 -1.4195 0
M  V30 6996 C 653.546 2.04914 -2.80406 0
M  V30 6997 C 652.5 1.72598 -3.91655 0
M  V30 6998 C 651.826 3.04154 -4.39766 0
M  V30 6999 C 653.126 0.981709 -5.12991 0
M  V30 7000 H 654.82 0.287232 -2.98019 0
M  V30 7001 H 652.366 0.136714 -1.4335 0
M  V30 7002 H 654.319 2.71178 -3.22553 0
M  V30 7003 H 653.043 2.59067 -1.98877 0
M  V30 7004 H 651.702 1.08717 -3.50109 0
M  V30 7005 H 651.35 3.56274 -3.55075 0
M  V30 7006 H 651.05 2.83299 -5.14796 0
M  V30 7007 H 652.574 3.71509 -4.84576 0
M  V30 7008 H 653.988 1.5462 -5.52056 0
M  V30 7009 H 652.385 0.873533 -5.93708 0
M  V30 7010 H 653.455 -0.0286887 -4.84892 0
M  V30 7011 N 654.798 1.5699 0.138552 0
M  V30 7012 C 656.047 1.82998 0.848205 0
M  V30 7013 C 656.36 0.717829 1.81952 0
M  V30 7014 O 657.566 0.863756 2.57394 0
M  V30 7015 C 656.022 3.24379 1.55904 0
M  V30 7016 C 655.63 4.43552 0.62971 0
M  V30 7017 C 657.374 3.59654 2.25498 0
M  V30 7018 C 655.281 5.75957 1.34266 0
M  V30 7019 H 654.211 0.682495 0.320495 0
M  V30 7020 H 656.862 1.83222 0.100924 0
M  V30 7021 H 655.244 3.18567 2.35226 0
M  V30 7022 H 656.418 4.6062 -0.128882 0
M  V30 7023 H 654.733 4.16379 0.0417526 0
M  V30 7024 H 657.33 4.55837 2.79493 0
M  V30 7025 H 657.673 2.86124 3.02388 0
M  V30 7026 H 658.206 3.67164 1.53087 0
M  V30 7027 H 654.945 6.52604 0.615441 0
M  V30 7028 H 654.465 5.62811 2.07375 0
M  V30 7029 H 656.144 6.19046 1.88126 0
M  V30 7030 N 656.276 -0.40816 1.52223 0
M  V30 7031 C 657.524 -1.15274 1.66001 0
M  V30 7032 C 657.845 -1.91003 0.392803 0
M  V30 7033 O 657.115 -1.8673 -0.592336 0
M  V30 7034 H 655.695 -0.428526 0.611861 0
M  V30 7035 H 658.357 -0.46512 1.89269 0
M  V30 7036 H 657.453 -1.86628 2.50153 0
M  V30 7037 N 657.755 -1.42862 -0.66545 0
M  V30 7038 C 658.983 -1.47246 -1.45349 0
M  V30 7039 C 659.398 -0.0865944 -1.88601 0
M  V30 7040 O 658.755 0.900652 -1.58728 0
M  V30 7041 C 658.806 -2.40772 -2.6965 0
M  V30 7042 O 658.527 -3.73968 -2.2821 0
M  V30 7043 C 660.028 -2.54272 -3.63126 0
M  V30 7044 H 657.248 -0.500497 -0.446927 0
M  V30 7045 H 659.792 -1.87477 -0.816871 0
M  V30 7046 H 657.947 -2.0377 -3.29479 0
M  V30 7047 H 658.361 -4.24146 -3.08546 0
M  V30 7048 H 659.835 -3.23815 -4.47043 0
M  V30 7049 H 660.312 -1.58364 -4.09656 0
M  V30 7050 H 660.918 -2.92036 -3.09185 0
M  V30 7051 N 659.233 0.902656 -1.29189 0
M  V30 7052 C 660.463 1.68394 -1.19695 0
M  V30 7053 C 660.871 1.87602 0.245384 0
M  V30 7054 O 660.214 1.41084 1.17648 0
M  V30 7055 C 660.276 3.09094 -1.83578 0
M  V30 7056 C 659.94 3.1313 -3.32864 0
M  V30 7057 C 660.937 2.93497 -4.29134 0
M  V30 7058 C 658.622 3.3529 -3.74013 0
M  V30 7059 C 660.616 2.95953 -5.64527 0
M  V30 7060 C 658.303 3.37377 -5.09529 0
M  V30 7061 C 659.301 3.1773 -6.04596 0
M  V30 7062 O 658.989 3.196 -7.37639 0
M  V30 7063 H 658.721 0.532815 -0.416034 0
M  V30 7064 H 661.275 1.1374 -1.71033 0
M  V30 7065 H 659.505 3.65338 -1.26747 0
M  V30 7066 H 661.194 3.69297 -1.68447 0
M  V30 7067 H 661.96 2.76192 -3.98677 0
M  V30 7068 H 657.839 3.49623 -3.00474 0
M  V30 7069 H 661.383 2.80536 -6.38706 0
M  V30 7070 H 657.28 3.54213 -5.39633 0
M  V30 7071 H 658.048 3.35887 -7.46406 0
M  V30 7072 N 660.711 1.11618 1.11262 0
M  V30 7073 C 661.941 0.88745 1.86569 0
M  V30 7074 C 662.349 -0.56636 1.80524 0
M  V30 7075 O 661.692 -1.40289 1.18594 0
M  V30 7076 C 661.754 1.27313 3.36202 0
M  V30 7077 C 661.418 2.73649 3.66013 0
M  V30 7078 C 662.415 3.71863 3.63337 0
M  V30 7079 C 660.1 3.10342 3.9496 0
M  V30 7080 C 662.094 5.04788 3.89188 0
M  V30 7081 C 659.781 4.43451 4.20469 0
M  V30 7082 C 660.779 5.40484 4.17572 0
M  V30 7083 O 660.467 6.71195 4.42439 0
M  V30 7084 H 660.199 0.317543 0.596777 0
M  V30 7085 H 662.753 1.48768 1.41624 0
M  V30 7086 H 660.983 0.616062 3.81761 0
M  V30 7087 H 662.672 1.01991 3.92877 0
M  V30 7088 H 663.438 3.44861 3.41022 0
M  V30 7089 H 659.317 2.35431 3.9635 0
M  V30 7090 H 662.861 5.80516 3.86842 0
M  V30 7091 H 658.758 4.70187 4.42261 0
M  V30 7092 H 659.526 6.77012 4.59997 0
M  V30 7093 N 662.189 -1.289 0.906776 0
M  V30 7094 C 663.466 -1.90221 0.455537 0
M  V30 7095 C 663.846 -1.82251 -1.06527 0
M  V30 7096 O 663.194 -1.25385 -1.91026 0
M  V30 7097 C 663.404 -3.35015 0.97806 0
M  V30 7098 C 664.752 -4.12018 1.02598 0
M  V30 7099 O 665.776 -3.43947 0.926218 0
M  V30 7100 O 664.635 -5.33677 1.17689 0
M  V30 7101 H 661.729 -0.814505 0.143214 0
M  V30 7102 H 664.275 -1.37317 0.997104 0
M  V30 7103 H 663.047 -3.35006 2.02204 0
M  V30 7104 H 662.67 -3.95408 0.416914 0
M  V30 7105 N 663.667 -0.670007 -1.42649 0
M  V30 7106 C 664.615 0.0230106 -2.32589 0
M  V30 7107 C 665.609 0.795585 -1.49555 0
M  V30 7108 O 666.815 0.70409 -1.65658 0
M  V30 7109 H 663.19 0.0262342 -0.751542 0
M  V30 7110 H 665.161 -0.753009 -2.88743 0
M  V30 7111 C 663.91 0.963872 -3.34073 0
M  V30 7112 H 663.233 0.378813 -3.98001 0
M  V30 7113 H 664.673 1.41755 -3.99602 0
M  V30 7114 C 663.132 2.06797 -2.65964 0
M  V30 7115 O 663.662 3.15383 -2.48789 0
M  V30 7116 N 661.868 1.83831 -2.25066 0
M  V30 7117 H 661.415 0.955235 -2.39234 0
M  V30 7118 H 661.373 2.57895 -1.79827 0
M  V30 7119 N 665.145 1.52092 -0.413018 0
M  V30 7120 C 666.392 2.01855 0.161497 0
M  V30 7121 C 666.72 1.29845 1.44812 0
M  V30 7122 O 665.975 0.394471 1.91683 0
M  V30 7123 C 666.274 3.54529 0.4521 0
M  V30 7124 C 665.94 4.4469 -0.745788 0
M  V30 7125 C 664.602 4.69053 -1.07435 0
M  V30 7126 C 666.954 4.97742 -1.54604 0
M  V30 7127 C 664.282 5.43717 -2.20429 0
M  V30 7128 C 666.634 5.73642 -2.66678 0
M  V30 7129 C 665.298 5.96277 -3.00016 0
M  V30 7130 H 664.568 0.73864 0.0590961 0
M  V30 7131 H 667.215 1.83274 -0.555234 0
M  V30 7132 H 665.52 3.7131 1.25045 0
M  V30 7133 H 667.217 3.90546 0.909647 0
M  V30 7134 H 663.807 4.25907 -0.479725 0
M  V30 7135 H 667.991 4.78824 -1.30543 0
M  V30 7136 H 663.247 5.59462 -2.46602 0
M  V30 7137 H 667.421 6.13746 -3.29072 0
M  V30 7138 H 665.048 6.53913 -3.87688 0
M  V30 7139 N 666.623 0.143563 1.56945 0
M  V30 7140 C 667.863 -0.511198 1.97904 0
M  V30 7141 C 668.227 -1.62262 1.0264 0
M  V30 7142 O 669.428 -2.338 1.32631 0
M  V30 7143 C 667.699 -1.00753 3.42905 0
M  V30 7144 S 669.258 -1.66737 4.05887 0
M  V30 7145 H 666.076 -0.165399 0.691494 0
M  V30 7146 H 668.678 0.234464 1.94089 0
M  V30 7147 H 667.382 -0.187817 4.0997 0
M  V30 7148 H 666.913 -1.7879 3.50425 0
M  V30 7149 H 668.928 -2.95444 3.98657 0
M  V30 7150 N 668.101 -1.57061 -0.130224 0
M  V30 7151 C 669.064 -1.98593 -1.14426 0
M  V30 7152 C 670.064 -0.874584 -1.34936 0
M  V30 7153 O 671.254 -1.14086 -1.31643 0
M  V30 7154 C 668.386 -2.31639 -2.50112 0
M  V30 7155 H 669.579 -2.89374 -0.787561 0
M  V30 7156 H 667.132 -1.51756 -0.374146 0
M  V30 7157 H 667.867 -1.43703 -2.90723 0
M  V30 7158 H 667.652 -3.12684 -2.36583 0
M  V30 7159 H 669.142 -2.64551 -3.23114 0
M  V30 7160 N 669.579 0.400081 -1.52437 0
M  V30 7161 C 670.828 1.14332 -1.66166 0
M  V30 7162 C 671.141 1.91419 -0.402253 0
M  V30 7163 O 672.347 2.6824 -0.419487 0
M  V30 7164 C 670.803 2.08137 -2.9361 0
M  V30 7165 C 670.411 1.36524 -4.26691 0
M  V30 7166 C 672.155 2.82664 -3.16703 0
M  V30 7167 C 670.062 2.29031 -5.45251 0
M  V30 7168 H 668.992 0.430499 -0.61902 0
M  V30 7169 H 671.643 0.407017 -1.78929 0
M  V30 7170 H 670.025 2.85358 -2.74567 0
M  V30 7171 H 671.199 0.646061 -4.56249 0
M  V30 7172 H 669.514 0.74002 -4.09771 0
M  V30 7173 H 672.111 3.52037 -4.0246 0
M  V30 7174 H 672.454 3.46122 -2.31312 0
M  V30 7175 H 672.987 2.12541 -3.36261 0
M  V30 7176 H 669.726 1.70206 -6.33017 0
M  V30 7177 H 669.246 2.98896 -5.2002 0
M  V30 7178 H 670.925 2.89359 -5.78689 0
M  V30 7179 N 671.057 1.43213 0.657864 0
M  V30 7180 C 672.02 1.47687 1.75275 0
M  V30 7181 C 673.02 0.362179 1.56668 0
M  V30 7182 O 674.21 0.623734 1.62651 0
M  V30 7183 C 671.342 1.32497 3.14098 0
M  V30 7184 H 672.535 2.4519 1.7269 0
M  V30 7185 H 670.088 1.2991 0.869087 0
M  V30 7186 H 670.823 0.359831 3.22298 0
M  V30 7187 H 670.608 2.13299 3.29008 0
M  V30 7188 H 672.098 1.38549 3.93946 0
M  V30 7189 N 672.536 -0.895792 1.29666 0
M  V30 7190 C 673.952 -1.17726 1.07763 0
M  V30 7191 C 674.152 -2.00794 -0.168576 0
M  V30 7192 O 673.208 -2.37213 -0.865244 0
M  V30 7193 C 674.521 -1.89441 2.33522 0
M  V30 7194 C 676.069 -2.02251 2.3888 0
M  V30 7195 C 676.544 -2.77378 3.64452 0
M  V30 7196 N 678.035 -2.8493 3.65198 0
M  V30 7197 C 678.77 -3.43606 4.59045 0
M  V30 7198 N 678.266 -4.03417 5.63228 0
M  V30 7199 N 680.059 -3.41317 4.46608 0
M  V30 7200 H 672.21 -0.341652 2.09634 0
M  V30 7201 H 674.473 -0.213865 0.923561 0
M  V30 7202 H 674.179 -1.35842 3.24407 0
M  V30 7203 H 674.053 -2.89893 2.41334 0
M  V30 7204 H 676.44 -2.55025 1.4848 0
M  V30 7205 H 676.521 -1.0092 2.3505 0
M  V30 7206 H 676.165 -2.25279 4.55205 0
M  V30 7207 H 676.095 -3.79062 3.65541 0
M  V30 7208 H 678.586 -2.42453 2.89871 0
M  V30 7209 H 678.899 -4.46224 6.30955 0
M  V30 7210 H 677.244 -4.01868 5.67033 0
M  V30 7211 H 680.435 -2.93812 3.64407 0
M  V30 7212 H 680.608 -3.86751 5.1993 0
M  V30 7213 N 674.014 -1.12206 -1.10668 0
M  V30 7214 C 674.944 -0.810086 -2.18997 0
M  V30 7215 C 675.925 0.225065 -1.68604 0
M  V30 7216 O 677.11 0.086783 -1.94006 0
M  V30 7217 C 674.24 -0.261262 -3.46316 0
M  V30 7218 C 673.194 -1.2292 -4.09969 0
M  V30 7219 C 672.52 -0.540713 -5.31959 0
M  V30 7220 C 673.82 -2.58295 -4.53962 0
M  V30 7221 H 675.514 -1.7159 -2.45352 0
M  V30 7222 H 673.06 -0.82646 -1.17922 0
M  V30 7223 H 675.013 -0.0307522 -4.21389 0
M  V30 7224 H 673.737 0.679879 -3.19445 0
M  V30 7225 H 672.396 -1.44548 -3.369 0
M  V30 7226 H 672.044 0.405492 -5.01363 0
M  V30 7227 H 671.744 -1.18637 -5.75499 0
M  V30 7228 H 673.268 -0.319184 -6.09765 0
M  V30 7229 H 674.682 -2.40709 -5.20319 0
M  V30 7230 H 673.079 -3.18916 -5.08343 0
M  V30 7231 H 674.149 -3.16918 -3.67002 0
M  V30 7232 N 675.492 1.28418 -0.913599 0
M  V30 7233 C 676.741 1.94265 -0.542572 0
M  V30 7234 C 677.054 1.72709 0.918207 0
M  V30 7235 O 678.26 2.32778 1.39738 0
M  V30 7236 C 676.716 3.47956 -0.919507 0
M  V30 7237 C 676.324 3.78291 -2.4 0
M  V30 7238 C 678.068 4.19962 -0.619057 0
M  V30 7239 C 675.975 5.2529 -2.71707 0
M  V30 7240 H 674.905 0.727213 -0.199192 0
M  V30 7241 H 677.556 1.45931 -1.11249 0
M  V30 7242 H 675.938 3.9502 -0.278372 0
M  V30 7243 H 677.112 3.42035 -3.08786 0
M  V30 7244 H 675.427 3.19456 -2.67089 0
M  V30 7245 H 678.024 5.28178 -0.832623 0
M  V30 7246 H 678.367 4.13935 0.443126 0
M  V30 7247 H 678.9 3.78674 -1.21865 0
M  V30 7248 H 675.639 5.36394 -3.76778 0
M  V30 7249 H 675.159 5.62743 -2.07559 0
M  V30 7250 H 676.838 5.93027 -2.58703 0
M  V30 7251 N 676.97 0.677563 1.42291 0
M  V30 7252 C 678.218 0.200578 2.01102 0
M  V30 7253 C 678.539 -1.19803 1.53858 0
M  V30 7254 O 677.809 -1.80496 0.761439 0
M  V30 7255 H 676.389 0.0711634 0.743603 0
M  V30 7256 H 679.051 0.874691 1.7417 0
M  V30 7257 H 678.147 0.204 3.11433 0
M  V30 7258 N 678.448 -1.51871 0.421078 0
M  V30 7259 C 679.676 -2.06356 -0.14994 0
M  V30 7260 C 680.091 -1.29006 -1.37851 0
M  V30 7261 O 679.448 -0.345139 -1.79207 0
M  V30 7262 C 679.499 -3.58185 -0.488454 0
M  V30 7263 O 679.22 -4.32611 0.691341 0
M  V30 7264 C 680.721 -4.29129 -1.11191 0
M  V30 7265 H 677.941 -0.67083 -0.0151186 0
M  V30 7266 H 680.485 -1.95638 0.595476 0
M  V30 7267 H 678.64 -3.68871 -1.18376 0
M  V30 7268 H 679.054 -5.22927 0.405906 0
M  V30 7269 H 680.528 -5.36501 -1.29889 0
M  V30 7270 H 681.005 -3.86371 -2.0884 0
M  V30 7271 H 681.611 -4.22843 -0.456458 0
M  V30 7272 N 679.926 -0.151884 -1.56866 0
M  V30 7273 C 680.873 0.785936 -2.17006 0
M  V30 7274 C 681.843 1.2407 -1.10435 0
M  V30 7275 O 683.028 1.31235 -1.38499 0
M  V30 7276 C 680.168 2.01771 -2.79969 0
M  V30 7277 C 679.281 1.6083 -4.00946 0
M  V30 7278 C 678.416 2.79224 -4.51893 0
M  V30 7279 C 677.455 2.3468 -5.65324 0
M  V30 7280 N 676.592 3.461 -6.10867 0
M  V30 7281 H 681.432 0.266286 -2.96808 0
M  V30 7282 H 678.969 0.11972 -1.46612 0
M  V30 7283 H 680.927 2.73989 -3.14621 0
M  V30 7284 H 679.557 2.51139 -2.02803 0
M  V30 7285 H 678.609 0.783592 -3.72242 0
M  V30 7286 H 679.921 1.24119 -4.83111 0
M  V30 7287 H 679.075 3.59625 -4.88625 0
M  V30 7288 H 677.814 3.19183 -3.68746 0
M  V30 7289 H 676.819 1.52721 -5.28163 0
M  V30 7290 H 678.044 1.95801 -6.5026 0
M  V30 7291 H 675.99 3.85671 -5.30654 0
M  V30 7292 H 675.907 3.1342 -6.87971 0
M  V30 7293 H 677.175 4.26844 -6.52246 0
M  V30 7294 N 681.404 1.57128 0.121893 0
M  V30 7295 C 682.632 1.88883 0.844451 0
M  V30 7296 C 683.047 0.742824 1.73573 0
M  V30 7297 O 682.404 -0.286475 1.80238 0
M  V30 7298 C 682.455 3.20076 1.68029 0
M  V30 7299 O 682.176 4.30264 0.824898 0
M  V30 7300 C 683.677 3.65515 2.50826 0
M  V30 7301 H 680.897 0.62549 0.242907 0
M  V30 7302 H 683.441 2.04219 0.107151 0
M  V30 7303 H 681.596 3.06418 2.37038 0
M  V30 7304 H 682.01 5.05439 1.40113 0
M  V30 7305 H 683.484 4.60081 3.05008 0
M  V30 7306 H 683.961 2.92029 3.28048 0
M  V30 7307 H 684.567 3.81952 1.87064 0
M  V30 7308 N 682.882 -0.391992 1.52647 0
M  V30 7309 C 684.122 -1.1463 1.69232 0
M  V30 7310 C 684.486 -1.87312 0.421684 0
M  V30 7311 O 685.687 -2.64768 0.463852 0
M  V30 7312 C 683.958 -2.10088 2.89133 0
M  V30 7313 S 685.517 -2.93395 3.2629 0
M  V30 7314 H 682.335 -0.388076 0.59575 0
M  V30 7315 H 684.937 -0.431149 1.90687 0
M  V30 7316 H 683.641 -1.55408 3.79837 0
M  V30 7317 H 683.172 -2.86116 2.70003 0
M  V30 7318 H 685.187 -4.12193 2.76244 0
M  V30 7319 N 684.36 -1.4356 -0.65026 0
M  V30 7320 C 685.776 -1.27025 -0.966269 0
M  V30 7321 C 685.976 -0.192117 -2.00582 0
M  V30 7322 O 685.032 0.428459 -2.48838 0
M  V30 7323 C 686.345 -2.63556 -1.44772 0
M  V30 7324 C 687.893 -2.71111 -1.56421 0
M  V30 7325 C 688.368 -4.08067 -2.07956 0
M  V30 7326 N 689.859 -4.10146 -2.15254 0
M  V30 7327 C 690.594 -5.12952 -2.56258 0
M  V30 7328 N 690.09 -6.26129 -2.96537 0
M  V30 7329 N 691.883 -5.00306 -2.56224 0
M  V30 7330 H 684.034 -2.12367 0.0375758 0
M  V30 7331 H 686.297 -0.946894 -0.0457782 0
M  V30 7332 H 686.003 -3.43429 -0.758271 0
M  V30 7333 H 685.877 -2.89152 -2.42221 0
M  V30 7334 H 688.264 -1.91569 -2.24467 0
M  V30 7335 H 688.345 -2.49277 -0.573967 0
M  V30 7336 H 687.989 -4.88077 -1.40511 0
M  V30 7337 H 687.919 -4.27266 -3.07817 0
M  V30 7338 H 690.41 -3.28453 -1.86887 0
M  V30 7339 H 690.723 -7.00403 -3.26582 0
M  V30 7340 H 689.068 -6.29597 -2.94334 0
M  V30 7341 H 692.259 -4.10952 -2.24135 0
M  V30 7342 H 692.432 -5.80553 -2.87857 0
M  V30 7343 N 685.838 0.888903 -1.30139 0
M  V30 7344 C 686.77 1.99972 -1.11999 0
M  V30 7345 C 687.783 1.62673 -0.0643619 0
M  V30 7346 O 688.972 1.75788 -0.309983 0
M  V30 7347 C 686.072 3.31904 -0.685059 0
M  V30 7348 C 685.245 3.97665 -1.82158 0
M  V30 7349 C 684.304 5.07894 -1.37585 0
M  V30 7350 O 683.33 5.2974 -2.08241 0
M  V30 7351 N 684.532 5.7995 -0.252697 0
M  V30 7352 H 687.297 2.16085 -2.07671 0
M  V30 7353 H 684.858 1.06175 -1.22223 0
M  V30 7354 H 686.85 4.03005 -0.369964 0
M  V30 7355 H 685.42 3.12084 0.179507 0
M  V30 7356 H 684.64 3.19787 -2.305 0
M  V30 7357 H 685.928 4.3834 -2.58332 0
M  V30 7358 H 685.326 5.647 0.336141 0
M  V30 7359 H 683.883 6.518 0.00296813 0
M  V30 7360 N 687.317 1.12792 1.10072 0
M  V30 7361 C 688.563 0.886857 1.82381 0
M  V30 7362 C 688.896 -0.58576 1.85155 0
M  V30 7363 O 688.171 -1.43317 1.31493 0
M  V30 7364 C 688.454 1.46703 3.28862 0
M  V30 7365 C 688.307 3.00829 3.34398 0
M  V30 7366 C 689.626 1.12971 4.25353 0
M  V30 7367 H 686.745 0.32362 0.662148 0
M  V30 7368 H 689.387 1.39513 1.28982 0
M  V30 7369 H 687.537 1.03476 3.74466 0
M  V30 7370 H 689.209 3.52764 2.97247 0
M  V30 7371 H 687.452 3.36164 2.74183 0
M  V30 7372 H 688.123 3.36519 4.3756 0
M  V30 7373 H 690.599 1.50313 3.88001 0
M  V30 7374 H 689.475 1.56223 5.26199 0
M  V30 7375 H 689.736 0.0424452 4.4208 0
M  V30 7376 N 688.795 -1.27931 0.920396 0
M  V30 7377 C 690.025 -1.98516 0.572256 0
M  V30 7378 C 690.433 -1.68912 -0.852375 0
M  V30 7379 O 689.776 -0.94203 -1.57707 0
M  V30 7380 C 689.838 -3.5243 0.709485 0
M  V30 7381 C 689.502 -4.0564 2.10489 0
M  V30 7382 C 690.499 -4.1897 3.07831 0
M  V30 7383 C 688.184 -4.40168 2.41986 0
M  V30 7384 C 690.178 -4.66093 4.34783 0
M  V30 7385 C 687.865 -4.86983 3.69176 0
M  V30 7386 C 688.863 -4.99903 4.65388 0
M  V30 7387 O 688.551 -5.45694 5.90316 0
M  V30 7388 H 688.283 -0.64047 0.216274 0
M  V30 7389 H 690.837 -1.6393 1.23758 0
M  V30 7390 H 689.067 -3.86698 -0.0129263 0
M  V30 7391 H 690.756 -4.04233 0.367474 0
M  V30 7392 H 691.522 -3.92562 2.84816 0
M  V30 7393 H 687.401 -4.29358 1.67846 0
M  V30 7394 H 690.945 -4.76092 5.09884 0
M  V30 7395 H 686.842 -5.12832 3.92012 0
M  V30 7396 H 687.61 -5.63965 5.932 0
M  V30 7397 N 690.273 -0.685099 -1.4193 0
M  V30 7398 C 691.183 -0.013404 -2.34596 0
M  V30 7399 C 692.199 0.777589 -1.55658 0
M  V30 7400 O 693.375 0.717553 -1.88184 0
M  V30 7401 C 690.44 0.919031 -3.34297 0
M  V30 7402 C 689.501 0.121417 -4.29128 0
M  V30 7403 C 688.734 1.00944 -5.24067 0
M  V30 7404 O 688.957 2.24898 -5.24192 0
M  V30 7405 O 687.891 0.464724 -6.00103 0
M  V30 7406 H 691.717 -0.776978 -2.93593 0
M  V30 7407 H 689.302 -0.445379 -1.42607 0
M  V30 7408 H 691.184 1.45402 -3.9552 0
M  V30 7409 H 689.859 1.66228 -2.77759 0
M  V30 7410 H 688.766 -0.45792 -3.71287 0
M  V30 7411 H 690.099 -0.582937 -4.88736 0
M  V30 7412 N 691.751 1.51645 -0.429126 0
M  V30 7413 C 692.998 2.02015 0.140079 0
M  V30 7414 C 693.326 1.31374 1.43427 0
M  V30 7415 O 692.581 0.414779 1.91254 0
M  V30 7416 C 692.88 3.54989 0.414472 0
M  V30 7417 C 692.546 4.43874 -0.792911 0
M  V30 7418 C 691.208 4.67887 -1.12404 0
M  V30 7419 C 693.56 4.96074 -1.59875 0
M  V30 7420 C 690.888 5.41348 -2.26184 0
M  V30 7421 C 693.24 5.70782 -2.72747 0
M  V30 7422 C 691.904 5.93062 -3.06324 0
M  V30 7423 H 691.174 0.739225 0.0512585 0
M  V30 7424 H 693.821 1.82675 -0.574641 0
M  V30 7425 H 692.126 3.72615 1.21099 0
M  V30 7426 H 693.823 3.91489 0.868173 0
M  V30 7427 H 690.413 4.25374 -0.524871 0
M  V30 7428 H 694.597 4.77412 -1.35614 0
M  V30 7429 H 689.853 5.56815 -2.52522 0
M  V30 7430 H 694.027 6.10221 -3.35564 0
M  V30 7431 H 691.654 6.49764 -3.94602 0
M  V30 7432 N 693.229 0.160201 1.56784 0
M  V30 7433 C 694.645 -0.196089 1.58391 0
M  V30 7434 C 694.845 -1.63689 1.17508 0
M  V30 7435 O 693.901 -2.36613 0.881506 0
M  V30 7436 C 695.214 0.0746449 3.00607 0
M  V30 7437 C 696.762 0.0119762 3.12998 0
M  V30 7438 C 697.237 0.255551 4.57286 0
M  V30 7439 N 698.728 0.202938 4.62755 0
M  V30 7440 C 699.463 0.365731 5.72232 0
M  V30 7441 N 698.959 0.586972 6.90309 0
M  V30 7442 N 700.752 0.302411 5.61286 0
M  V30 7443 H 692.903 1.1008 1.81648 0
M  V30 7444 H 695.166 0.436779 0.841384 0
M  V30 7445 H 694.872 1.07231 3.34954 0
M  V30 7446 H 694.746 -0.638802 3.71751 0
M  V30 7447 H 697.133 -0.976254 2.78484 0
M  V30 7448 H 697.214 0.75796 2.44313 0
M  V30 7449 H 696.858 1.24094 4.92507 0
M  V30 7450 H 696.788 -0.510912 5.24116 0
M  V30 7451 H 699.279 0.0371328 3.77882 0
M  V30 7452 H 699.592 0.700941 7.69615 0
M  V30 7453 H 697.937 0.623453 6.92198 0
M  V30 7454 H 701.128 0.130238 4.67919 0
M  V30 7455 H 701.301 0.432712 6.46554 0
M  V30 7456 N 694.707 -1.5719 -0.113559 0
M  V30 7457 C 695.953 -1.85412 -0.821597 0
M  V30 7458 C 696.286 -0.746722 -1.7927 0
M  V30 7459 O 695.561 0.246971 -1.92926 0
M  V30 7460 C 695.844 -3.24233 -1.56669 0
M  V30 7461 C 695.697 -4.45578 -0.614823 0
M  V30 7462 C 697.016 -3.60697 -2.52161 0
M  V30 7463 H 694.135 -0.674406 -0.29723 0
M  V30 7464 H 696.777 -1.89807 -0.085694 0
M  V30 7465 H 694.927 -3.20617 -2.19401 0
M  V30 7466 H 696.599 -4.613 0.00407137 0
M  V30 7467 H 694.842 -4.33738 0.0732332 0
M  V30 7468 H 695.513 -5.39395 -1.17292 0
M  V30 7469 H 697.989 -3.65139 -1.99532 0
M  V30 7470 H 696.865 -4.58798 -3.01323 0
M  V30 7471 H 697.126 -2.88403 -3.35076 0
M  V30 7472 N 696.185 0.383891 -1.52853 0
M  V30 7473 C 697.132 1.46924 -1.77995 0
M  V30 7474 C 698.102 1.53958 -0.623396 0
M  V30 7475 O 699.287 1.70134 -0.863657 0
M  V30 7476 C 696.427 2.84093 -1.95921 0
M  V30 7477 C 695.54 2.86171 -3.23621 0
M  V30 7478 C 694.675 4.14799 -3.31836 0
M  V30 7479 C 693.714 4.10948 -4.53639 0
M  V30 7480 N 692.851 5.31192 -4.59107 0
M  V30 7481 H 697.691 1.24786 -2.70615 0
M  V30 7482 H 695.228 0.605265 -1.34071 0
M  V30 7483 H 697.186 3.63755 -2.04299 0
M  V30 7484 H 695.816 3.04671 -1.06656 0
M  V30 7485 H 694.868 1.9885 -3.24288 0
M  V30 7486 H 696.18 2.79194 -4.13343 0
M  V30 7487 H 695.334 5.02867 -3.39425 0
M  V30 7488 H 694.073 4.24505 -2.40097 0
M  V30 7489 H 693.078 3.21268 -4.46169 0
M  V30 7490 H 694.303 4.0286 -5.467 0
M  V30 7491 H 692.249 5.41518 -3.70262 0
M  V30 7492 H 692.166 5.26311 -5.42708 0
M  V30 7493 H 693.434 6.21143 -4.70958 0
M  V30 7494 N 697.663 1.43903 0.642637 0
M  V30 7495 C 698.573 1.52349 1.78401 0
M  V30 7496 C 699.589 0.409869 1.69104 0
M  V30 7497 O 700.765 0.665548 1.90085 0
M  V30 7498 C 697.83 1.45408 3.14734 0
M  V30 7499 C 696.891 2.67528 3.35749 0
M  V30 7500 C 696.124 2.60909 4.65577 0
M  V30 7501 O 696.347 1.6627 5.45628 0
M  V30 7502 O 695.281 3.5158 4.88544 0
M  V30 7503 H 699.107 2.48752 1.7423 0
M  V30 7504 H 696.692 1.26021 0.802439 0
M  V30 7505 H 698.574 1.44019 3.96026 0
M  V30 7506 H 697.249 0.521437 3.19473 0
M  V30 7507 H 696.156 2.74487 2.5418 0
M  V30 7508 H 697.489 3.598 3.35864 0
M  V30 7509 N 699.141 -0.881989 1.30609 0
M  V30 7510 C 700.366 -1.67236 1.22665 0
M  V30 7511 C 700.791 -1.8696 -0.206777 0
M  V30 7512 O 700.149 -1.4027 -1.14865 0
M  V30 7513 C 700.197 -3.02446 1.96363 0
M  V30 7514 O 699.301 -3.91614 1.29276 0
M  V30 7515 H 698.642 -0.510902 0.424117 0
M  V30 7516 H 701.172 -1.10055 1.72479 0
M  V30 7517 H 701.182 -3.52468 2.055 0
M  V30 7518 H 699.857 -2.8741 3.00613 0
M  V30 7519 H 698.434 -3.50055 1.28514 0
M  V30 7520 N 700.619 -1.13374 -1.09472 0
M  V30 7521 C 701.844 -0.918711 -1.85942 0
M  V30 7522 C 702.269 0.527225 -1.8056 0
M  V30 7523 O 701.627 1.37408 -1.18274 0
M  V30 7524 C 701.675 -1.41056 -3.31867 0
M  V30 7525 O 700.779 -0.595496 -4.08078 0
M  V30 7526 H 700.12 -0.329297 -0.576593 0
M  V30 7527 H 702.65 -1.50829 -1.38245 0
M  V30 7528 H 702.66 -1.41398 -3.82715 0
M  V30 7529 H 701.335 -2.46335 -3.35099 0
M  V30 7530 H 699.912 -0.659911 -3.67014 0
M  V30 7531 N 702.098 1.27442 -0.927168 0
M  V30 7532 C 703.347 1.93679 -0.563146 0
M  V30 7533 C 703.66 1.73673 0.899837 0
M  V30 7534 O 704.866 2.34247 1.37262 0
M  V30 7535 C 703.322 3.46961 -0.95636 0
M  V30 7536 C 702.93 3.75724 -2.43999 0
M  V30 7537 C 704.674 4.19282 -0.663565 0
M  V30 7538 C 702.581 5.22378 -2.77263 0
M  V30 7539 H 701.511 0.725059 -0.206894 0
M  V30 7540 H 704.162 1.44743 -1.12791 0
M  V30 7541 H 702.544 3.94703 -0.320254 0
M  V30 7542 H 703.718 3.38741 -3.12396 0
M  V30 7543 H 702.033 3.16605 -2.70463 0
M  V30 7544 H 704.63 5.27265 -0.888596 0
M  V30 7545 H 704.973 4.14382 0.399198 0
M  V30 7546 H 705.506 3.7736 -1.25875 0
M  V30 7547 H 702.245 5.32367 -3.82446 0
M  V30 7548 H 701.765 5.6051 -2.13516 0
M  V30 7549 H 703.444 5.9025 -2.64979 0
M  V30 7550 N 703.576 0.692616 1.41565 0
M  V30 7551 C 704.825 0.219452 2.00503 0
M  V30 7552 C 705.138 -1.18683 1.55479 0
M  V30 7553 O 706.344 -1.75731 2.06956 0
M  V30 7554 C 704.8 0.341451 3.58277 0
M  V30 7555 C 704.408 1.75291 4.12283 0
M  V30 7556 C 706.152 -0.0720899 4.24439 0
M  V30 7557 C 704.059 1.82673 5.62481 0
M  V30 7558 H 702.989 0.0782874 0.749925 0
M  V30 7559 H 705.64 0.860386 1.62079 0
M  V30 7560 H 704.022 -0.367683 3.94289 0
M  V30 7561 H 705.196 2.49057 3.87695 0
M  V30 7562 H 703.511 2.11587 3.58636 0
M  V30 7563 H 706.108 -0.0373385 5.34687 0
M  V30 7564 H 706.451 -1.11034 4.0122 0
M  V30 7565 H 706.984 0.586663 3.9345 0
M  V30 7566 H 703.723 2.84539 5.90523 0
M  V30 7567 H 703.243 1.13288 5.89004 0
M  V30 7568 H 704.922 1.58827 6.27203 0
M  V30 7569 N 705.054 -1.51416 0.437162 0
M  V30 7570 C 706.017 -2.26312 -0.362729 0
M  V30 7571 C 707.017 -1.29748 -0.949847 0
M  V30 7572 O 708.207 -1.53462 -0.824325 0
M  V30 7573 C 705.339 -3.05475 -1.5132 0
M  V30 7574 H 706.532 -2.98459 0.29365 0
M  V30 7575 H 704.085 -1.55137 0.190327 0
M  V30 7576 H 704.82 -2.37744 -2.20563 0
M  V30 7577 H 704.605 -3.76401 -1.09838 0
M  V30 7578 H 706.095 -3.62209 -2.07833 0
M  V30 7579 N 706.532 -0.168513 -1.56696 0
M  V30 7580 C 707.943 0.348694 -1.83415 0
M  V30 7581 C 708.294 1.63257 -1.0882 0
M  V30 7582 O 707.419 2.13707 -0.340333 0
M  V30 7583 C 708.014 0.639423 -3.32711 0
M  V30 7584 C 706.573 1.10108 -3.59935 0
M  V30 7585 C 705.72 0.135464 -2.76969 0
M  V30 7586 H 708.671 -0.392829 -1.53761 0
M  V30 7587 H 708.692 1.49179 -3.50037 0
M  V30 7588 H 708.204 -0.295173 -3.86976 0
M  V30 7589 H 706.305 2.05088 -3.11079 0
M  V30 7590 H 706.418 1.01218 -4.68286 0
M  V30 7591 H 704.782 0.632286 -2.46727 0
M  V30 7592 H 705.565 -0.793104 -3.34013 0
M  V30 7593 N 708.01 1.57248 0.105221 0
M  V30 7594 C 708.973 2.00388 1.11252 0
M  V30 7595 C 709.973 0.89594 1.33527 0
M  V30 7596 O 711.163 1.16166 1.29811 0
M  V30 7597 C 708.295 2.35589 2.46395 0
M  V30 7598 H 709.488 2.90591 0.741424 0
M  V30 7599 H 707.041 1.52332 0.349956 0
M  V30 7600 H 707.776 1.4831 2.884 0
M  V30 7601 H 707.561 3.16408 2.31578 0
M  V30 7602 H 709.051 2.69658 3.18864 0
M  V30 7603 N 709.488 -0.375779 1.53054 0
M  V30 7604 C 710.899 -0.95309 1.6054 0
M  V30 7605 C 711.25 -1.90575 0.466446 0
M  V30 7606 O 710.375 -2.12507 -0.408609 0
M  V30 7607 C 710.97 -1.73537 2.90982 0
M  V30 7608 C 709.529 -2.26218 3.00836 0
M  V30 7609 C 708.676 -1.07157 2.55759 0
M  V30 7610 H 711.627 -0.154895 1.57942 0
M  V30 7611 H 711.648 -2.59574 2.78211 0
M  V30 7612 H 711.16 -1.04176 3.73857 0
M  V30 7613 H 709.261 -2.98852 2.22527 0
M  V30 7614 H 709.374 -2.54799 4.05727 0
M  V30 7615 H 707.738 -1.43553 2.10391 0
M  V30 7616 H 708.521 -0.393099 3.41042 0
M  V30 7617 N 710.966 -1.44241 -0.634997 0
M  V30 7618 C 711.929 -1.50457 -1.72903 0
M  V30 7619 C 712.929 -0.387058 -1.56072 0
M  V30 7620 O 714.119 -0.649531 -1.61638 0
M  V30 7621 C 711.251 -1.37477 -3.1195 0
M  V30 7622 H 712.444 -2.47907 -1.68767 0
M  V30 7623 H 709.997 -1.31276 -0.84831 0
M  V30 7624 H 710.732 -0.41106 -3.21684 0
M  V30 7625 H 710.517 -2.18506 -3.25573 0
M  V30 7626 H 712.007 -1.44799 -3.91692 0
M  V30 7627 N 712.444 0.87505 -1.31075 0
M  V30 7628 C 713.354 2.01441 -1.20244 0
M  V30 7629 C 714.37 1.73584 -0.120227 0
M  V30 7630 O 715.546 1.98559 -0.337063 0
M  V30 7631 C 712.611 3.34675 -0.905199 0
M  V30 7632 C 711.672 3.75889 -2.0738 0
M  V30 7633 C 710.905 5.02764 -1.79064 0
M  V30 7634 O 711.128 5.65795 -0.723318 0
M  V30 7635 O 710.062 5.40623 -2.64594 0
M  V30 7636 H 713.888 2.13509 -2.1598 0
M  V30 7637 H 711.473 1.00257 -1.10765 0
M  V30 7638 H 713.355 4.1458 -0.755057 0
M  V30 7639 H 712.03 3.23692 0.0221695 0
M  V30 7640 H 710.937 2.96645 -2.27931 0
M  V30 7641 H 712.27 3.91489 -2.98324 0
M  V30 7642 N 713.922 1.13953 1.08869 0
M  V30 7643 C 715.199 0.815768 1.77777 0
M  V30 7644 C 715.579 -0.691624 1.99449 0
M  V30 7645 O 714.927 -1.63085 1.60049 0
M  V30 7646 C 715.137 1.60916 3.09689 0
M  V30 7647 C 716.485 1.80549 3.84301 0
M  V30 7648 O 717.509 1.57562 3.19457 0
M  V30 7649 O 716.368 2.18946 5.00724 0
M  V30 7650 H 713.462 0.298445 0.771271 0
M  V30 7651 H 716.008 1.24446 1.15374 0
M  V30 7652 H 714.78 2.6333 2.89435 0
M  V30 7653 H 714.403 1.17578 3.79817 0
M  V30 7654 N 715.4 -1.26948 0.933913 0
M  V30 7655 C 716.646 -1.94374 0.57848 0
M  V30 7656 C 716.979 -1.73166 -0.879048 0
M  V30 7657 O 716.254 -1.06438 -1.62792 0
M  V30 7658 C 716.537 -3.4834 0.912739 0
M  V30 7659 C 716.39 -3.78866 2.42448 0
M  V30 7660 C 717.709 -4.38062 0.423003 0
M  V30 7661 H 714.828 -0.705959 0.211639 0
M  V30 7662 H 717.47 -1.49951 1.16682 0
M  V30 7663 H 715.62 -3.86309 0.412058 0
M  V30 7664 H 717.292 -3.50654 2.99733 0
M  V30 7665 H 715.535 -3.25198 2.87104 0
M  V30 7666 H 716.206 -4.86458 2.60887 0
M  V30 7667 H 718.682 -4.0728 0.852191 0
M  V30 7668 H 717.558 -5.44599 0.685776 0
M  V30 7669 H 717.819 -4.36886 -0.676994 0
M  V30 7670 N 716.879 -0.700114 -1.41195 0
M  V30 7671 C 718.156 -0.160836 -1.94938 0
M  V30 7672 C 718.536 1.33014 -1.63922 0
M  V30 7673 O 717.884 2.07878 -0.948636 0
M  V30 7674 C 718.094 -0.456991 -3.45995 0
M  V30 7675 C 719.442 -0.387207 -4.22831 0
M  V30 7676 O 720.466 -0.392164 -3.54035 0
M  V30 7677 O 719.325 -0.351267 -5.4537 0
M  V30 7678 H 716.419 -0.0176304 -0.826812 0
M  V30 7679 H 718.965 -0.776586 -1.50888 0
M  V30 7680 H 717.737 -1.48884 -3.61869 0
M  V30 7681 H 717.36 0.189503 -3.97148 0
M  V30 7682 N 718.357 1.51182 -0.445186 0
M  V30 7683 C 719.585 2.06568 0.117091 0
M  V30 7684 C 720 1.31182 1.35781 0
M  V30 7685 O 719.357 0.373605 1.78635 0
M  V30 7686 C 719.408 3.58917 0.431408 0
M  V30 7687 O 719.129 4.31456 -0.760078 0
M  V30 7688 C 720.63 4.30843 1.0435 0
M  V30 7689 H 717.85 0.670985 0.00444436 0
M  V30 7690 H 720.394 1.94666 -0.626525 0
M  V30 7691 H 718.549 3.70708 1.12493 0
M  V30 7692 H 718.963 5.22215 -0.489048 0
M  V30 7693 H 720.437 5.38499 1.21337 0
M  V30 7694 H 720.914 3.89644 2.02667 0
M  V30 7695 H 721.52 4.23516 0.38913 0
M  V30 7696 N 719.835 0.176821 1.56605 0
M  V30 7697 C 721.246 -0.338963 1.83597 0
M  V30 7698 C 721.597 -1.62677 1.09684 0
M  V30 7699 O 720.722 -2.13524 0.351661 0
M  V30 7700 C 721.317 -0.62177 3.33046 0
M  V30 7701 C 719.876 -1.08198 3.60514 0
M  V30 7702 C 719.023 -0.120774 2.77037 0
M  V30 7703 H 721.974 0.400978 1.53551 0
M  V30 7704 H 721.995 -1.47321 3.50823 0
M  V30 7705 H 721.507 0.315692 3.86814 0
M  V30 7706 H 719.608 -2.03435 3.12162 0
M  V30 7707 H 719.721 -0.987329 4.68816 0
M  V30 7708 H 718.085 -0.619192 2.47059 0
M  V30 7709 H 718.868 0.810806 3.33588 0
M  V30 7710 N 721.313 -1.57302 -0.09688 0
M  V30 7711 C 722.724 -1.7496 -0.651595 0
M  V30 7712 C 723.075 -0.798746 -1.79205 0
M  V30 7713 O 722.2 0.0231858 -2.16388 0
M  V30 7714 C 722.795 -3.17259 -1.18878 0
M  V30 7715 C 721.354 -3.36348 -1.68958 0
M  V30 7716 C 720.501 -2.70766 -0.598413 0
M  V30 7717 H 723.452 -1.58173 0.12918 0
M  V30 7718 H 723.473 -3.20033 -2.05814 0
M  V30 7719 H 722.985 -3.8644 -0.358523 0
M  V30 7720 H 721.086 -2.72243 -2.5439 0
M  V30 7721 H 721.199 -4.44654 -1.7838 0
M  V30 7722 H 719.563 -2.32615 -1.03743 0
M  V30 7723 H 720.346 -3.42586 0.221238 0
M  V30 7724 N 722.791 0.367657 -1.53252 0
M  V30 7725 C 724.207 0.709191 -1.42978 0
M  V30 7726 C 724.407 1.93352 -0.567193 0
M  V30 7727 O 723.463 2.52453 -0.0488349 0
M  V30 7728 C 724.776 0.924338 -2.86141 0
M  V30 7729 C 726.324 1.02448 -2.95759 0
M  V30 7730 C 726.799 1.27211 -4.39979 0
M  V30 7731 N 728.29 1.33986 -4.43398 0
M  V30 7732 C 729.025 1.54852 -5.52095 0
M  V30 7733 N 728.521 1.73049 -6.7084 0
M  V30 7734 N 730.314 1.57205 -5.39669 0
M  V30 7735 H 722.465 -0.437669 -2.07842 0
M  V30 7736 H 724.728 -0.133737 -0.938519 0
M  V30 7737 H 724.434 0.0965455 -3.51567 0
M  V30 7738 H 724.308 1.83302 -3.29667 0
M  V30 7739 H 726.695 1.84282 -2.30487 0
M  V30 7740 H 726.776 0.0932301 -2.5563 0
M  V30 7741 H 726.42 0.458792 -5.05824 0
M  V30 7742 H 726.35 2.21654 -4.77679 0
M  V30 7743 H 728.841 1.21545 -3.5782 0
M  V30 7744 H 729.154 1.88538 -7.49449 0
M  V30 7745 H 727.499 1.70231 -6.7383 0
M  V30 7746 H 730.69 1.42555 -4.45865 0
M  V30 7747 H 730.863 1.73126 -6.24445 0
M  V30 7748 N 724.269 1.44576 0.627338 0
M  V30 7749 C 725.216 1.51734 1.73912 0
M  V30 7750 C 726.186 0.364745 1.62046 0
M  V30 7751 O 727.371 0.575503 1.81914 0
M  V30 7752 C 724.511 1.47116 3.12171 0
M  V30 7753 C 723.624 2.72778 3.34986 0
M  V30 7754 C 722.759 2.59968 4.63239 0
M  V30 7755 C 721.798 3.80776 4.79245 0
M  V30 7756 N 720.935 3.66618 5.98778 0
M  V30 7757 H 725.775 2.46722 1.6713 0
M  V30 7758 H 723.312 1.22444 0.815224 0
M  V30 7759 H 725.27 1.42429 3.92135 0
M  V30 7760 H 723.9 0.556928 3.17959 0
M  V30 7761 H 722.952 2.87637 2.48936 0
M  V30 7762 H 724.264 3.62441 3.42692 0
M  V30 7763 H 723.418 2.53135 5.51369 0
M  V30 7764 H 722.157 1.67872 4.57898 0
M  V30 7765 H 721.162 3.87989 3.89544 0
M  V30 7766 H 722.387 4.73913 4.86398 0
M  V30 7767 H 720.333 2.77277 5.9452 0
M  V30 7768 H 720.25 4.499 6.07557 0
M  V30 7769 H 721.518 3.63684 6.89459 0
M  V30 7770 N 725.747 -0.868086 1.31537 0
M  V30 7771 C 726.694 -1.97548 1.19346 0
M  V30 7772 C 727.664 -1.65913 0.0787922 0
M  V30 7773 O 728.849 -1.89129 0.251985 0
M  V30 7774 C 725.989 -3.32922 0.908692 0
M  V30 7775 C 725.102 -3.77141 2.10687 0
M  V30 7776 C 724.237 -5.01241 1.75873 0
M  V30 7777 C 723.276 -5.37914 2.92088 0
M  V30 7778 N 722.413 -6.53192 2.57457 0
M  V30 7779 H 727.253 -2.07307 2.14074 0
M  V30 7780 H 724.79 -1.01483 1.06487 0
M  V30 7781 H 726.748 -4.10867 0.724138 0
M  V30 7782 H 725.378 -3.228 -0.0017611 0
M  V30 7783 H 724.43 -2.94961 2.40213 0
M  V30 7784 H 725.742 -4.00248 2.97663 0
M  V30 7785 H 724.896 -5.86858 1.53891 0
M  V30 7786 H 723.635 -4.80041 0.86091 0
M  V30 7787 H 722.64 -4.50814 3.14717 0
M  V30 7788 H 723.865 -5.61077 3.82582 0
M  V30 7789 H 721.811 -6.33536 1.702 0
M  V30 7790 H 721.728 -6.76252 3.37963 0
M  V30 7791 H 722.996 -7.41997 2.38873 0
M  V30 7792 N 727.225 -1.14528 -1.08264 0
M  V30 7793 C 728.172 -0.833556 -2.15222 0
M  V30 7794 C 729.142 0.209539 -1.64773 0
M  V30 7795 O 730.327 0.0791388 -1.90636 0
M  V30 7796 C 727.467 -0.318799 -3.43624 0
M  V30 7797 C 726.58 -1.42237 -4.07913 0
M  V30 7798 C 725.715 -0.864704 -5.24115 0
M  V30 7799 C 724.754 -1.94585 -5.80347 0
M  V30 7800 N 723.891 -1.40525 -6.87893 0
M  V30 7801 H 728.731 -1.74965 -2.41228 0
M  V30 7802 H 726.268 -0.873169 -1.18381 0
M  V30 7803 H 728.226 -0.00213088 -4.172 0
M  V30 7804 H 726.856 0.560397 -3.17898 0
M  V30 7805 H 725.908 -1.8554 -3.32083 0
M  V30 7806 H 727.22 -2.23901 -4.45724 0
M  V30 7807 H 726.374 -0.500025 -6.04636 0
M  V30 7808 H 725.113 -0.0171219 -4.87697 0
M  V30 7809 H 724.118 -2.31946 -4.98479 0
M  V30 7810 H 725.343 -2.79704 -6.18823 0
M  V30 7811 H 723.289 -0.579873 -6.53432 0
M  V30 7812 H 723.206 -2.15825 -7.24538 0
M  V30 7813 H 724.474 -1.06852 -7.72142 0
M  V30 7814 N 728.703 1.26451 -0.940633 0
M  V30 7815 C 730.119 1.4608 -0.642859 0
M  V30 7816 C 730.319 1.84765 0.803998 0
M  V30 7817 O 729.375 1.96902 1.58069 0
M  V30 7818 C 730.688 2.54359 -1.60381 0
M  V30 7819 C 732.236 2.6821 -1.61345 0
M  V30 7820 C 732.711 3.79659 -2.56169 0
M  V30 7821 N 734.202 3.87051 -2.54452 0
M  V30 7822 C 734.937 4.72739 -3.24507 0
M  V30 7823 N 734.433 5.6282 -4.03987 0
M  V30 7824 N 736.226 4.66581 -3.13462 0
M  V30 7825 H 728.377 0.996289 -1.87584 0
M  V30 7826 H 730.64 0.498921 -0.80609 0
M  V30 7827 H 730.346 2.32758 -2.6366 0
M  V30 7828 H 730.22 3.52005 -1.35545 0
M  V30 7829 H 732.607 2.89184 -0.587913 0
M  V30 7830 H 732.688 1.7101 -1.90235 0
M  V30 7831 H 732.332 3.59438 -3.58841 0
M  V30 7832 H 732.262 4.76315 -2.2457 0
M  V30 7833 H 734.753 3.22649 -1.96739 0
M  V30 7834 H 735.066 6.25095 -4.54396 0
M  V30 7835 H 733.411 5.62574 -4.08088 0
M  V30 7836 H 736.602 3.9521 -2.50852 0
M  V30 7837 H 736.775 5.33141 -3.68327 0
M  V30 7838 N 730.181 0.707592 1.40822 0
M  V30 7839 C 731.128 0.0499029 2.30746 0
M  V30 7840 C 732.098 -0.758718 1.47759 0
M  V30 7841 O 733.283 -0.724299 1.76518 0
M  V30 7842 C 730.423 -0.871756 3.33908 0
M  V30 7843 C 729.536 -0.0534655 4.31967 0
M  V30 7844 C 728.671 -0.973869 5.22197 0
M  V30 7845 C 727.71 -0.149194 6.11918 0
M  V30 7846 N 726.847 -1.02404 6.94592 0
M  V30 7847 H 731.687 0.822461 2.86426 0
M  V30 7848 H 729.224 0.417285 1.41057 0
M  V30 7849 H 731.182 -1.42028 3.9228 0
M  V30 7850 H 729.812 -1.61058 2.7975 0
M  V30 7851 H 728.864 0.612142 3.75442 0
M  V30 7852 H 730.176 0.585354 4.95353 0
M  V30 7853 H 729.33 -1.59121 5.85462 0
M  V30 7854 H 728.069 -1.64652 4.59065 0
M  V30 7855 H 727.074 0.481137 5.47691 0
M  V30 7856 H 728.299 0.519841 6.77107 0
M  V30 7857 H 726.245 -1.6825 6.34057 0
M  V30 7858 H 726.162 -0.441076 7.54712 0
M  V30 7859 H 727.43 -1.62782 7.62314 0
M  V30 7860 N 731.66 -1.50943 0.453197 0
M  V30 7861 C 732.61 -2.25003 -0.368467 0
M  V30 7862 C 733.594 -1.27864 -0.976714 0
M  V30 7863 O 734.786 -1.52867 -0.892228 0
M  V30 7864 C 731.915 -3.10701 -1.46014 0
M  V30 7865 C 731.001 -4.15278 -0.860506 0
M  V30 7866 N 731.392 -5.05799 0.00849611 0
M  V30 7867 C 729.69 -4.31542 -1.1264 0
M  V30 7868 C 730.391 -5.80664 0.346951 0
M  V30 7869 N 729.367 -5.42912 -0.273426 0
M  V30 7870 H 733.169 -2.92352 0.301246 0
M  V30 7871 H 730.683 -1.60203 0.266233 0
M  V30 7872 H 732.68 -3.62348 -2.06179 0
M  V30 7873 H 731.34 -2.44898 -2.13202 0
M  V30 7874 H 732.351 -5.16533 0.376077 0
M  V30 7875 H 729.028 -3.76962 -1.7946 0
M  V30 7876 H 730.418 -6.63565 1.05507 0
M  V30 7877 N 733.138 -0.185124 -1.56509 0
M  V30 7878 C 734.554 0.170865 -1.58683 0
M  V30 7879 C 734.754 1.61799 -1.20098 0
M  V30 7880 O 733.81 2.35181 -0.919038 0
M  V30 7881 C 735.123 -0.122459 -3.00451 0
M  V30 7882 C 736.671 -0.0617699 -3.12939 0
M  V30 7883 C 737.146 -0.328269 -4.56822 0
M  V30 7884 N 738.637 -0.276533 -4.62374 0
M  V30 7885 C 739.372 -0.456722 -5.71578 0
M  V30 7886 N 738.868 -0.69672 -6.89288 0
M  V30 7887 N 740.661 -0.391669 -5.60734 0
M  V30 7888 H 732.812 -1.12956 -1.79874 0
M  V30 7889 H 735.075 -0.45011 -0.834329 0
M  V30 7890 H 734.781 -1.12546 -3.33206 0
M  V30 7891 H 734.655 0.579578 -3.72721 0
M  V30 7892 H 737.042 0.931826 -2.80002 0
M  V30 7893 H 737.123 -0.796732 -2.43076 0
M  V30 7894 H 736.767 -1.31914 -4.9047 0
M  V30 7895 H 736.697 0.427465 -5.24862 0
M  V30 7896 H 739.188 -0.0972458 -3.77775 0
M  V30 7897 H 739.501 -0.823291 -7.68402 0
M  V30 7898 H 737.846 -0.733497 -6.91119 0
M  V30 7899 H 741.037 -0.204663 -4.67652 0
M  V30 7900 H 741.21 -0.535518 -6.45783 0
M  V30 7901 N 734.616 1.57351 0.0885366 0
M  V30 7902 C 735.546 2.05561 1.10757 0
M  V30 7903 C 736.527 0.945789 1.41382 0
M  V30 7904 O 737.712 1.21747 1.51299 0
M  V30 7905 C 734.842 2.48554 2.42566 0
M  V30 7906 C 733.796 3.63259 2.26334 0
M  V30 7907 C 733.122 3.9225 3.63378 0
M  V30 7908 C 734.422 4.93913 1.69844 0
M  V30 7909 H 736.116 2.90946 0.706468 0
M  V30 7910 H 733.662 1.39968 0.338385 0
M  V30 7911 H 735.615 2.8089 3.14132 0
M  V30 7912 H 734.339 1.60176 2.84625 0
M  V30 7913 H 732.998 3.31179 1.57213 0
M  V30 7914 H 732.646 3.0103 4.02976 0
M  V30 7915 H 732.346 4.69478 3.53362 0
M  V30 7916 H 733.87 4.27067 4.36401 0
M  V30 7917 H 735.284 5.24588 2.31258 0
M  V30 7918 H 733.681 5.75349 1.70569 0
M  V30 7919 H 734.751 4.80409 0.65843 0
M  V30 7920 N 736.094 -0.359525 1.53444 0
M  V30 7921 C 737.34 -1.09958 1.71116 0
M  V30 7922 C 737.695 -1.8681 0.460414 0
M  V30 7923 O 736.988 -1.83635 -0.5467 0
M  V30 7924 C 737.182 -2.08287 2.90433 0
M  V30 7925 C 737.011 -1.41098 4.26991 0
M  V30 7926 C 735.781 -1.16255 4.91745 0
M  V30 7927 C 737.979 -0.845517 5.07302 0
M  V30 7928 N 735.961 -0.454798 6.12213 0
M  V30 7929 C 737.332 -0.267455 6.19423 0
M  V30 7930 C 739.387 -0.744797 4.92298 0
M  V30 7931 C 738.09 0.401511 7.18179 0
M  V30 7932 C 740.116 -0.0896013 5.91332 0
M  V30 7933 C 739.478 0.47756 7.02779 0
M  V30 7934 H 735.577 -0.387305 0.679352 0
M  V30 7935 H 738.161 -0.38519 1.90852 0
M  V30 7936 H 736.332 -2.77034 2.72226 0
M  V30 7937 H 738.064 -2.75015 2.96899 0
M  V30 7938 H 734.819 -1.44544 4.51003 0
M  V30 7939 H 735.243 -0.116108 6.769 0
M  V30 7940 H 739.885 -1.16905 4.06317 0
M  V30 7941 H 737.603 0.837694 8.03746 0
M  V30 7942 H 741.189 -0.0125162 5.81799 0
M  V30 7943 H 740.069 0.976522 7.78096 0
M  V30 7944 N 737.572 -1.44907 -0.619662 0
M  V30 7945 C 738.535 -1.52282 -1.71297 0
M  V30 7946 C 739.535 -0.40359 -1.55653 0
M  V30 7947 O 740.725 -0.666638 -1.6094 0
M  V30 7948 C 737.857 -1.40778 -3.10474 0
M  V30 7949 H 739.05 -2.49683 -1.66128 0
M  V30 7950 H 736.603 -1.32168 -0.834339 0
M  V30 7951 H 737.338 -0.445156 -3.2123 0
M  V30 7952 H 737.123 -2.21947 -3.23237 0
M  V30 7953 H 738.613 -1.48946 -3.90135 0
M  V30 7954 N 739.05 0.861098 -1.31996 0
M  V30 7955 C 740.013 1.95068 -1.20338 0
M  V30 7956 C 741.013 1.60289 -0.128114 0
M  V30 7957 O 742.203 1.70048 -0.378044 0
M  V30 7958 C 739.335 3.30153 -0.849205 0
M  V30 7959 H 740.528 2.06833 -2.17164 0
M  V30 7960 H 738.081 1.05049 -1.15734 0
M  V30 7961 H 738.816 3.24087 0.117508 0
M  V30 7962 H 738.601 3.56771 -1.62655 0
M  V30 7963 H 740.091 4.10025 -0.791782 0
M  V30 7964 N 740.528 1.15101 1.07655 0
M  V30 7965 C 741.478 0.813448 2.12995 0
M  V30 7966 C 742.462 -0.200899 1.59641 0
M  V30 7967 O 743.654 -0.00209918 1.77 0
M  V30 7968 C 740.783 0.301078 3.41977 0
M  V30 7969 C 739.869 1.3454 4.02194 0
M  V30 7970 N 740.26 2.55181 4.36711 0
M  V30 7971 C 738.558 1.19742 4.29625 0
M  V30 7972 C 739.259 3.22094 4.84387 0
M  V30 7973 N 738.235 2.49486 4.82968 0
M  V30 7974 H 742.037 1.73105 2.37511 0
M  V30 7975 H 739.551 1.03601 1.25063 0
M  V30 7976 H 741.548 0.040914 4.1688 0
M  V30 7977 H 740.208 -0.610629 3.18907 0
M  V30 7978 H 741.219 2.92349 4.27496 0
M  V30 7979 H 737.896 0.345353 4.16069 0
M  V30 7980 H 739.286 4.24996 5.20411 0
M  V30 7981 N 742.006 -1.2595 0.947325 0
M  V30 7982 C 743.246 -1.95218 0.605743 0
M  V30 7983 C 743.61 -1.72624 -0.84054 0
M  V30 7984 O 744.811 -2.35748 -1.29136 0
M  V30 7985 C 743.082 -3.44654 0.94596 0
M  V30 7986 S 744.641 -4.32922 0.715849 0
M  V30 7987 H 741.459 -0.675159 0.222894 0
M  V30 7988 H 744.061 -1.52766 1.21995 0
M  V30 7989 H 742.765 -3.586 1.99585 0
M  V30 7990 H 742.296 -3.92082 0.321718 0
M  V30 7991 H 744.311 -4.94445 -0.416959 0
M  V30 7992 N 743.484 -0.715051 -1.40445 0
M  V30 7993 C 744.9 -0.388555 -1.54798 0
M  V30 7994 C 745.1 1.10271 -1.68649 0
M  V30 7995 O 744.156 1.88875 -1.67578 0
M  V30 7996 C 745.469 -1.15414 -2.77669 0
M  V30 7997 C 747.017 -1.14039 -2.91486 0
M  V30 7998 C 747.492 -1.88812 -4.1727 0
M  V30 7999 N 748.983 -1.85878 -4.24268 0
M  V30 8000 C 749.718 -2.40558 -5.20499 0
M  V30 8001 N 749.214 -3.03791 -6.22642 0
M  V30 8002 N 751.007 -2.30703 -5.12574 0
M  V30 8003 H 743.158 -1.68201 -1.297 0
M  V30 8004 H 745.421 -0.710915 -0.627139 0
M  V30 8005 H 745.127 -2.20853 -2.7371 0
M  V30 8006 H 745.001 -0.745412 -3.69761 0
M  V30 8007 H 747.388 -0.0941996 -2.9495 0
M  V30 8008 H 747.469 -1.58834 -2.00513 0
M  V30 8009 H 747.113 -2.93422 -4.14568 0
M  V30 8010 H 747.043 -1.41438 -5.0725 0
M  V30 8011 H 749.534 -1.39794 -3.51093 0
M  V30 8012 H 749.847 -3.43032 -6.92495 0
M  V30 8013 H 748.192 -3.07875 -6.23087 0
M  V30 8014 H 751.383 -1.80961 -4.31707 0
M  V30 8015 H 751.556 -2.73618 -5.87398 0
M  V30 8016 N 744.962 1.50701 -0.461195 0
M  V30 8017 C 745.909 2.2831 0.338094 0
M  V30 8018 C 746.879 1.32928 0.995957 0
M  V30 8019 O 748.064 1.61857 1.0103 0
M  V30 8020 C 745.204 3.14539 1.41983 0
M  V30 8021 C 744.317 4.24942 0.77773 0
M  V30 8022 C 743.452 4.98443 1.83652 0
M  V30 8023 C 742.491 6.00733 1.17413 0
M  V30 8024 N 741.628 6.6755 2.17533 0
M  V30 8025 H 746.468 2.96167 -0.330051 0
M  V30 8026 H 744.005 1.4606 -0.174611 0
M  V30 8027 H 745.963 3.62877 2.05855 0
M  V30 8028 H 744.593 2.48749 2.05727 0
M  V30 8029 H 743.645 3.80391 0.0266924 0
M  V30 8030 H 744.957 4.98151 0.254362 0
M  V30 8031 H 744.111 5.50449 2.55129 0
M  V30 8032 H 742.85 4.24917 2.39367 0
M  V30 8033 H 741.855 5.47997 0.444944 0
M  V30 8034 H 743.08 6.76227 0.624006 0
M  V30 8035 H 741.026 5.96823 2.72284 0
M  V30 8036 H 740.943 7.36603 1.70154 0
M  V30 8037 H 742.211 7.24178 2.88421 0
M  V30 8038 N 746.441 0.193421 1.56409 0
M  V30 8039 C 747.69 -0.445995 1.96707 0
M  V30 8040 C 748.003 -1.62876 1.08309 0
M  V30 8041 O 749.209 -2.33586 1.38383 0
M  V30 8042 C 747.665 -0.844863 3.49843 0
M  V30 8043 C 747.273 0.31352 4.46902 0
M  V30 8044 C 749.017 -1.45146 3.98915 0
M  V30 8045 C 746.924 -0.106214 5.91305 0
M  V30 8046 H 745.854 -0.170398 0.734493 0
M  V30 8047 H 748.505 0.285172 1.81271 0
M  V30 8048 H 746.887 -1.63265 3.60778 0
M  V30 8049 H 748.061 1.09103 4.47698 0
M  V30 8050 H 746.376 0.8315 4.08014 0
M  V30 8051 H 748.973 -1.77792 5.04276 0
M  V30 8052 H 749.316 -2.35734 3.43126 0
M  V30 8053 H 749.849 -0.727675 3.91088 0
M  V30 8054 H 746.588 0.765442 6.51016 0
M  V30 8055 H 746.108 -0.848623 5.93766 0
M  V30 8056 H 747.787 -0.542588 6.44721 0
M  V30 8057 N 747.919 -1.57396 -0.0801906 0
M  V30 8058 C 748.851 -1.9982 -1.12271 0
M  V30 8059 C 749.864 -0.902902 -1.35468 0
M  V30 8060 O 751.053 -1.18088 -1.33856 0
M  V30 8061 C 748.153 -2.31476 -2.47532 0
M  V30 8062 C 747.326 -3.62745 -2.44407 0
M  V30 8063 C 746.385 -3.82168 -3.6171 0
M  V30 8064 O 745.411 -4.53852 -3.43522 0
M  V30 8065 N 746.613 -3.2388 -4.81749 0
M  V30 8066 H 749.378 -2.89864 -0.761501 0
M  V30 8067 H 746.939 -1.5965 -0.268965 0
M  V30 8068 H 748.931 -2.4165 -3.24634 0
M  V30 8069 H 747.501 -1.47364 -2.75686 0
M  V30 8070 H 746.721 -3.63403 -1.52747 0
M  V30 8071 H 748.009 -4.48954 -2.39412 0
M  V30 8072 H 747.407 -2.6568 -4.9943 0
M  V30 8073 H 745.964 -3.39515 -5.56392 0
M  V30 8074 N 749.397 0.351382 -1.53633 0
M  V30 8075 C 750.327 1.43688 -1.84055 0
M  V30 8076 C 751.308 1.55251 -0.695073 0
M  V30 8077 O 752.493 1.69587 -0.946257 0
M  V30 8078 C 749.623 2.80843 -2.04315 0
M  V30 8079 C 748.577 2.84094 -3.20117 0
M  V30 8080 C 747.903 4.2406 -3.25696 0
M  V30 8081 C 749.203 2.50334 -4.58399 0
M  V30 8082 H 750.897 1.18478 -2.74961 0
M  V30 8083 H 748.443 0.568509 -1.32303 0
M  V30 8084 H 750.396 3.56821 -2.2418 0
M  V30 8085 H 749.12 3.07471 -1.10132 0
M  V30 8086 H 747.779 2.10568 -3.00094 0
M  V30 8087 H 747.427 4.47785 -2.29123 0
M  V30 8088 H 747.127 4.27147 -4.03509 0
M  V30 8089 H 748.651 5.0189 -3.47762 0
M  V30 8090 H 750.065 3.16025 -4.78332 0
M  V30 8091 H 748.462 2.64717 -5.38558 0
M  V30 8092 H 749.532 1.45542 -4.62543 0
M  V30 8093 N 750.875 1.45233 0.611969 0
M  V30 8094 C 751.822 1.5357 1.72293 0
M  V30 8095 C 752.792 0.381912 1.6165 0
M  V30 8096 O 753.977 0.594765 1.81293 0
M  V30 8097 C 751.117 1.50419 3.10593 0
M  V30 8098 C 750.23 2.76316 3.32074 0
M  V30 8099 C 749.365 2.64866 4.60456 0
M  V30 8100 C 748.404 3.85838 4.7518 0
M  V30 8101 N 747.541 3.72949 5.94856 0
M  V30 8102 H 752.381 2.4848 1.64504 0
M  V30 8103 H 749.918 1.23302 0.802191 0
M  V30 8104 H 751.876 1.4658 3.90602 0
M  V30 8105 H 750.506 0.590621 3.17351 0
M  V30 8106 H 749.558 2.90261 2.45872 0
M  V30 8107 H 750.87 3.66055 3.38829 0
M  V30 8108 H 750.024 2.58969 5.48653 0
M  V30 8109 H 748.763 1.72719 4.56092 0
M  V30 8110 H 747.768 3.92099 3.85407 0
M  V30 8111 H 748.993 4.79045 4.81344 0
M  V30 8112 H 746.939 2.83567 5.91545 0
M  V30 8113 H 746.856 4.56319 6.02751 0
M  V30 8114 H 748.124 3.70976 6.85563 0
M  V30 8115 N 752.353 -0.854086 1.3245 0
M  V30 8116 C 753.3 -1.96271 1.21434 0
M  V30 8117 C 754.27 -1.6582 0.0963851 0
M  V30 8118 O 755.455 -1.88851 0.27203 0
M  V30 8119 C 752.595 -3.31939 0.943952 0
M  V30 8120 C 751.708 -3.74885 2.14675 0
M  V30 8121 C 750.843 -4.99347 1.81179 0
M  V30 8122 C 749.882 -5.34785 2.97777 0
M  V30 8123 N 749.019 -6.50425 2.6437 0
M  V30 8124 H 753.859 -2.05025 2.16261 0
M  V30 8125 H 751.396 -1.00348 1.07558 0
M  V30 8126 H 753.354 -4.10076 0.767675 0
M  V30 8127 H 751.984 -3.22784 0.0324763 0
M  V30 8128 H 751.036 -2.92396 2.43328 0
M  V30 8129 H 752.348 -3.97068 3.01891 0
M  V30 8130 H 751.502 -5.85193 1.60107 0
M  V30 8131 H 750.241 -4.79101 0.911777 0
M  V30 8132 H 749.246 -4.47451 3.1948 0
M  V30 8133 H 750.471 -5.56988 3.88511 0
M  V30 8134 H 748.417 -6.31695 1.7691 0
M  V30 8135 H 748.334 -6.7263 3.45116 0
M  V30 8136 H 749.602 -7.39422 2.46729 0
M  V30 8137 N 753.831 -1.1567 -1.07043 0
M  V30 8138 C 755.108 -0.843948 -1.76456 0
M  V30 8139 C 755.488 0.659806 -2.00524 0
M  V30 8140 O 754.836 1.60518 -1.62623 0
M  V30 8141 C 755.046 -1.65822 -3.0709 0
M  V30 8142 C 756.394 -1.8664 -3.8138 0
M  V30 8143 O 757.418 -1.62624 -3.1691 0
M  V30 8144 O 756.277 -2.26884 -4.97178 0
M  V30 8145 H 753.371 -0.310677 -0.766426 0
M  V30 8146 H 755.917 -1.26266 -1.1338 0
M  V30 8147 H 754.689 -2.67902 -2.85209 0
M  V30 8148 H 754.312 -1.23605 -3.77899 0
M  V30 8149 N 755.309 1.25446 -0.953992 0
M  V30 8150 C 756.557 1.92762 -0.607227 0
M  V30 8151 C 756.878 1.7509 0.858399 0
M  V30 8152 O 756.148 1.11416 1.61132 0
M  V30 8153 H 754.728 0.713377 -0.221591 0
M  V30 8154 H 757.39 1.52625 -1.21209 0
M  V30 8155 H 756.486 3.00695 -0.835998 0
M  V30 8156 N 756.787 0.722489 1.40064 0
M  V30 8157 C 758.012 0.273446 2.05589 0
M  V30 8158 C 758.437 -1.07875 1.54093 0
M  V30 8159 O 757.795 -1.68095 0.679252 0
M  V30 8160 C 757.843 0.271023 3.5958 0
M  V30 8161 O 756.947 -0.745499 4.05606 0
M  V30 8162 H 756.288 0.126856 0.65177 0
M  V30 8163 H 758.818 0.984906 1.79334 0
M  V30 8164 H 758.828 0.111084 4.07849 0
M  V30 8165 H 757.503 1.25776 3.96425 0
M  V30 8166 H 756.08 -0.552719 3.68781 0
M  V30 8167 N 758.265 -1.50454 0.469181 0
M  V30 8168 C 759.49 -2.0722 -0.0864892 0
M  V30 8169 C 759.915 -1.33098 -1.32916 0
M  V30 8170 O 759.273 -0.378084 -1.77314 0
M  V30 8171 C 759.321 -3.58845 -0.355384 0
M  V30 8172 O 758.425 -3.86583 -1.43622 0
M  V30 8173 H 757.766 -0.663889 0.0121414 0
M  V30 8174 H 760.296 -1.93674 0.659674 0
M  V30 8175 H 760.306 -4.03617 -0.596447 0
M  V30 8176 H 758.981 -4.12211 0.552698 0
M  V30 8177 H 757.558 -3.5365 -1.18262 0
M  V30 8178 N 759.743 -0.201713 -1.56304 0
M  V30 8179 C 760.691 0.733133 -2.20744 0
M  V30 8180 C 761.685 1.2148 -1.18064 0
M  V30 8181 O 762.891 1.17692 -1.36193 0
M  V30 8182 H 759.266 0.254789 -0.707521 0
M  V30 8183 H 761.237 0.165996 -2.97938 0
M  V30 8184 C 759.986 1.93925 -2.88597 0
M  V30 8185 H 759.309 1.5777 -3.67353 0
M  V30 8186 H 760.749 2.57158 -3.37114 0
M  V30 8187 C 759.208 2.78219 -1.89989 0
M  V30 8188 O 759.738 3.76353 -1.40432 0
M  V30 8189 N 757.944 2.43847 -1.58072 0
M  V30 8190 H 757.491 1.64103 -1.98565 0
M  V30 8191 H 757.449 3.0053 -0.923524 0
M  V30 8192 N 761.222 1.57436 0.0718424 0
M  V30 8193 C 762.172 2.00132 1.09229 0
M  V30 8194 C 763.156 0.883379 1.34481 0
M  V30 8195 O 764.348 1.14728 1.34783 0
M  V30 8196 C 761.477 2.44876 2.40605 0
M  V30 8197 C 760.563 3.63405 2.18627 0
M  V30 8198 N 760.954 4.77583 1.66579 0
M  V30 8199 C 759.252 3.69953 2.491 0
M  V30 8200 C 759.953 5.5943 1.59415 0
M  V30 8201 N 758.929 5.03275 2.05464 0
M  V30 8202 H 762.731 2.85849 0.683185 0
M  V30 8203 H 760.245 1.59987 0.278914 0
M  V30 8204 H 762.242 2.73703 3.14471 0
M  V30 8205 H 760.902 1.60546 2.82232 0
M  V30 8206 H 761.913 4.99875 1.35443 0
M  V30 8207 H 758.59 2.96336 2.94094 0
M  V30 8208 H 759.98 6.61093 1.20026 0
M  V30 8209 N 762.7 -0.34323 1.53817 0
M  V30 8210 C 763.946 -1.08504 1.71332 0
M  V30 8211 C 764.279 -1.88294 0.475285 0
M  V30 8212 O 763.554 -1.87205 -0.527688 0
M  V30 8213 C 763.837 -2.02597 2.97702 0
M  V30 8214 C 763.69 -1.26268 4.31713 0
M  V30 8215 C 765.009 -3.0241 3.19744 0
M  V30 8216 H 762.128 -0.393072 0.623429 0
M  V30 8217 H 764.77 -0.363579 1.86489 0
M  V30 8218 H 762.92 -2.64118 2.8491 0
M  V30 8219 H 764.592 -0.673594 4.56356 0
M  V30 8220 H 762.835 -0.564696 4.30109 0
M  V30 8221 H 763.506 -1.95253 5.16314 0
M  V30 8222 H 765.982 -2.51004 3.31868 0
M  V30 8223 H 764.858 -3.65449 4.09558 0
M  V30 8224 H 765.119 -3.73806 2.36054 0
M  V30 8225 N 764.178 -1.45556 -0.604258 0
M  V30 8226 C 765.408 -1.53056 -1.38771 0
M  V30 8227 C 765.816 -0.163092 -1.88496 0
M  V30 8228 O 765.159 0.846157 -1.63052 0
M  V30 8229 C 765.221 -2.45656 -2.62476 0
M  V30 8230 C 764.885 -3.92328 -2.34367 0
M  V30 8231 C 765.882 -4.82137 -1.94525 0
M  V30 8232 C 763.567 -4.37275 -2.47177 0
M  V30 8233 C 765.561 -6.14901 -1.67856 0
M  V30 8234 C 763.248 -5.70079 -2.20122 0
M  V30 8235 C 764.246 -6.58711 -1.80524 0
M  V30 8236 O 763.934 -7.89053 -1.53788 0
M  V30 8237 H 763.666 -0.520721 -0.431075 0
M  V30 8238 H 766.22 -1.91464 -0.743693 0
M  V30 8239 H 764.45 -2.02225 -3.29609 0
M  V30 8240 H 766.139 -2.43802 -3.24523 0
M  V30 8241 H 766.905 -4.48675 -1.84162 0
M  V30 8242 H 762.784 -3.68527 -2.76964 0
M  V30 8243 H 766.328 -6.8404 -1.36874 0
M  V30 8244 H 762.225 -6.03095 -2.30102 0
M  V30 8245 H 762.993 -8.01113 -1.67812 0
M  V30 8246 N 765.656 0.84705 -1.32902 0
M  V30 8247 C 766.604 1.97765 -1.22441 0
M  V30 8248 C 767.598 1.68919 -0.127546 0
M  V30 8249 O 768.804 1.77633 -0.290973 0
M  V30 8250 H 765.179 0.649072 -0.379748 0
M  V30 8251 H 767.15 2.03713 -2.18044 0
M  V30 8252 C 765.899 3.33834 -0.972125 0
M  V30 8253 H 765.222 3.56564 -1.80837 0
M  V30 8254 H 766.662 4.13467 -0.939209 0
M  V30 8255 C 765.121 3.35328 0.325059 0
M  V30 8256 O 765.651 3.78887 1.33445 0
M  V30 8257 N 763.857 2.88488 0.349718 0
M  V30 8258 H 763.404 2.53234 -0.472236 0
M  V30 8259 H 763.362 2.8987 1.21748 0
M  V30 8260 N 767.134 1.16236 1.06428 0
M  V30 8261 C 768.364 0.965782 1.82637 0
M  V30 8262 C 768.772 -0.489284 1.82764 0
M  V30 8263 O 768.115 -1.35133 1.24438 0
M  V30 8264 C 768.177 1.41458 3.30499 0
M  V30 8265 C 767.841 2.88926 3.54077 0
M  V30 8266 C 768.838 3.86939 3.47238 0
M  V30 8267 C 766.523 3.26814 3.81442 0
M  V30 8268 C 768.517 5.20841 3.67428 0
M  V30 8269 C 766.204 4.60886 4.01282 0
M  V30 8270 C 767.202 5.57708 3.94272 0
M  V30 8271 O 766.89 6.89357 4.13573 0
M  V30 8272 H 766.622 0.342569 0.582772 0
M  V30 8273 H 769.176 1.54641 1.35187 0
M  V30 8274 H 767.406 0.777426 3.78805 0
M  V30 8275 H 769.095 1.18563 3.88198 0
M  V30 8276 H 769.861 3.59014 3.26089 0
M  V30 8277 H 765.74 2.5203 3.86008 0
M  V30 8278 H 769.284 5.96401 3.61873 0
M  V30 8279 H 765.181 4.88522 4.21921 0
M  V30 8280 H 765.949 6.95913 4.30869 0
M  V30 8281 N 768.612 -1.24939 0.960631 0
M  V30 8282 C 769.544 -2.24879 0.442937 0
M  V30 8283 C 770.557 -1.56615 -0.444464 0
M  V30 8284 O 771.746 -1.76715 -0.251776 0
M  V30 8285 C 768.846 -3.36757 -0.380537 0
M  V30 8286 C 768.019 -4.34587 0.495283 0
M  V30 8287 C 767.078 -5.25502 -0.270995 0
M  V30 8288 O 766.104 -5.68227 0.332661 0
M  V30 8289 N 767.306 -5.59077 -1.56249 0
M  V30 8290 H 770.071 -2.69932 1.30218 0
M  V30 8291 H 767.632 -1.38907 0.83166 0
M  V30 8292 H 769.624 -3.94542 -0.90103 0
M  V30 8293 H 768.194 -2.91045 -1.14067 0
M  V30 8294 H 767.414 -3.75593 1.19682 0
M  V30 8295 H 768.702 -4.96925 1.09285 0
M  V30 8296 H 768.1 -5.2628 -2.07476 0
M  V30 8297 H 766.657 -6.19421 -2.02882 0
M  V30 8298 N 770.09 -0.729906 -1.39679 0
M  V30 8299 C 771.501 -0.346241 -1.83461 0
M  V30 8300 C 771.852 1.1215 -1.60987 0
M  V30 8301 O 770.977 1.86456 -1.09832 0
M  V30 8302 C 771.572 -0.621656 -3.33048 0
M  V30 8303 C 770.131 -0.291543 -3.75269 0
M  V30 8304 C 769.278 -0.886844 -2.62736 0
M  V30 8305 H 772.229 -0.927949 -1.28743 0
M  V30 8306 H 772.25 0.108301 -3.80346 0
M  V30 8307 H 771.762 -1.68996 -3.49373 0
M  V30 8308 H 769.863 0.771133 -3.64533 0
M  V30 8309 H 769.976 -0.770544 -4.72863 0
M  V30 8310 H 768.34 -0.313839 -2.52759 0
M  V30 8311 H 769.123 -1.95971 -2.81869 0
M  V30 8312 N 771.568 1.50203 -0.477153 0
M  V30 8313 C 772.808 2.04265 0.0744065 0
M  V30 8314 C 773.172 1.35082 1.36443 0
M  V30 8315 O 774.373 1.79732 1.99875 0
M  V30 8316 C 772.644 3.56539 0.247874 0
M  V30 8317 S 774.203 4.32219 0.757117 0
M  V30 8318 H 771.021 0.71088 0.0130891 0
M  V30 8319 H 773.623 1.8453 -0.645678 0
M  V30 8320 H 772.327 4.04443 -0.696709 0
M  V30 8321 H 771.858 3.80638 0.993896 0
M  V30 8322 H 773.873 4.52789 2.0297 0
M  V30 8323 N 773.046 0.209999 1.56195 0
M  V30 8324 C 774.323 -0.473214 1.89789 0
M  V30 8325 C 774.703 -1.78581 1.1257 0
M  V30 8326 O 774.051 -2.27325 0.231398 0
M  V30 8327 C 774.261 -0.677458 3.42362 0
M  V30 8328 C 775.609 -0.990114 4.12895 0
M  V30 8329 O 776.633 -0.764655 3.47896 0
M  V30 8330 O 775.492 -1.41737 5.278 0
M  V30 8331 H 772.586 -0.248622 0.788743 0
M  V30 8332 H 775.132 0.251324 1.67829 0
M  V30 8333 H 773.904 0.248878 3.90508 0
M  V30 8334 H 773.527 -1.45391 3.70064 0
M  V30 8335 N 774.524 -1.57472 -0.0634922 0
M  V30 8336 C 775.474 -2.00709 -1.08166 0
M  V30 8337 C 776.458 -0.890498 -1.34011 0
M  V30 8338 O 777.65 -1.15441 -1.34173 0
M  V30 8339 C 774.779 -2.46148 -2.39303 0
M  V30 8340 C 773.865 -3.64559 -2.16697 0
M  V30 8341 N 774.256 -4.78459 -1.64043 0
M  V30 8342 C 772.554 -3.71269 -2.47135 0
M  V30 8343 C 773.255 -5.60268 -1.56445 0
M  V30 8344 N 772.231 -5.04357 -2.02792 0
M  V30 8345 H 776.033 -2.86208 -0.668016 0
M  V30 8346 H 773.547 -1.60133 -0.270426 0
M  V30 8347 H 775.544 -2.75367 -3.13016 0
M  V30 8348 H 774.204 -1.62041 -2.81377 0
M  V30 8349 H 775.215 -5.00587 -1.32791 0
M  V30 8350 H 771.892 -2.97891 -2.92518 0
M  V30 8351 H 773.282 -6.6172 -1.16519 0
M  V30 8352 N 776.003 0.335068 -1.53997 0
M  V30 8353 C 777.414 0.910191 -1.6301 0
M  V30 8354 C 777.765 1.89271 -0.516809 0
M  V30 8355 O 776.89 2.13516 0.352123 0
M  V30 8356 C 777.485 1.65761 -2.9548 0
M  V30 8357 C 776.044 2.18163 -3.06728 0
M  V30 8358 C 775.191 1.00338 -2.5851 0
M  V30 8359 H 778.142 0.112965 -1.58297 0
M  V30 8360 H 778.163 2.52107 -2.84995 0
M  V30 8361 H 777.675 0.94227 -3.76488 0
M  V30 8362 H 775.776 2.92847 -2.30372 0
M  V30 8363 H 775.889 2.43952 -4.1234 0
M  V30 8364 H 774.253 1.37925 -2.14124 0
M  V30 8365 H 775.036 0.30254 -3.41964 0
M  V30 8366 N 777.481 1.45874 0.596531 0
M  V30 8367 C 778.897 1.30524 0.918459 0
M  V30 8368 C 779.097 0.266429 1.99731 0
M  V30 8369 O 778.153 -0.335809 2.50257 0
M  V30 8370 C 779.466 2.68747 1.3489 0
M  V30 8371 C 781.014 2.7673 1.46251 0
M  V30 8372 C 781.489 4.15504 1.92667 0
M  V30 8373 N 782.98 4.17853 1.99883 0
M  V30 8374 C 783.715 5.22109 2.37044 0
M  V30 8375 N 783.211 6.36704 2.73094 0
M  V30 8376 N 785.004 5.09471 2.37479 0
M  V30 8377 H 777.155 2.12081 -0.116368 0
M  V30 8378 H 779.418 0.947941 0.0106033 0
M  V30 8379 H 779.124 3.46006 0.630288 0
M  V30 8380 H 778.998 2.97942 2.31323 0
M  V30 8381 H 781.385 1.99768 2.17202 0
M  V30 8382 H 781.466 2.51236 0.481054 0
M  V30 8383 H 781.11 4.92956 1.223 0
M  V30 8384 H 781.04 4.38396 2.91747 0
M  V30 8385 H 783.531 3.35163 1.74568 0
M  V30 8386 H 783.844 7.12041 3.00362 0
M  V30 8387 H 782.189 6.40087 2.70764 0
M  V30 8388 H 785.38 4.18987 2.08728 0
M  V30 8389 H 785.553 5.90837 2.66112 0
M  V30 8390 N 778.959 -0.83999 1.33349 0
M  V30 8391 C 779.891 -1.95678 1.19344 0
M  V30 8392 C 780.904 -1.62322 0.124692 0
M  V30 8393 O 782.093 -1.74516 0.375012 0
M  V30 8394 C 779.193 -3.29133 0.807771 0
M  V30 8395 C 778.366 -3.9063 1.96792 0
M  V30 8396 C 777.425 -5.02438 1.56341 0
M  V30 8397 O 776.451 -5.21646 2.27759 0
M  V30 8398 N 777.653 -5.78612 0.467767 0
M  V30 8399 H 780.418 -2.08229 2.15548 0
M  V30 8400 H 777.979 -1.01566 1.26079 0
M  V30 8401 H 779.971 -4.01355 0.519282 0
M  V30 8402 H 778.541 -3.12535 -0.063555 0
M  V30 8403 H 777.761 -3.11011 2.4221 0
M  V30 8404 H 779.049 -4.2845 2.74422 0
M  V30 8405 H 778.447 -5.65559 -0.126324 0
M  V30 8406 H 777.004 -6.51362 0.238945 0
M  V30 8407 N 780.437 -1.16799 -1.0581 0
M  V30 8408 C 781.848 -0.95945 -1.60161 0
M  V30 8409 C 782.199 0.49543 -1.89842 0
M  V30 8410 O 781.324 1.36957 -1.67546 0
M  V30 8411 C 781.919 -1.73527 -2.90987 0
M  V30 8412 C 780.478 -1.57158 -3.42021 0
M  V30 8413 C 779.625 -1.74089 -2.15843 0
M  V30 8414 H 782.576 -1.31598 -0.886992 0
M  V30 8415 H 782.597 -1.21397 -3.60615 0
M  V30 8416 H 782.109 -2.79411 -2.69353 0
M  V30 8417 H 780.21 -0.537361 -3.68705 0
M  V30 8418 H 780.323 -2.35858 -4.17022 0
M  V30 8419 H 778.687 -1.16874 -2.26302 0
M  V30 8420 H 779.47 -2.81371 -1.96686 0
M  V30 8421 N 781.915 1.24427 -0.967243 0
M  V30 8422 C 783.155 1.9423 -0.636723 0
M  V30 8423 C 783.519 1.73939 0.812971 0
M  V30 8424 O 784.72 2.37773 1.25369 0
M  V30 8425 C 782.991 3.43105 -1.00067 0
M  V30 8426 S 784.55 4.31728 -0.784633 0
M  V30 8427 H 781.368 0.671527 -0.233607 0
M  V30 8428 H 783.97 1.50806 -1.2441 0
M  V30 8429 H 782.674 3.5538 -2.05264 0
M  V30 8430 H 782.205 3.91521 -0.384054 0
M  V30 8431 H 784.22 4.95046 0.338244 0
M  V30 8432 N 783.393 0.737304 1.3929 0
M  V30 8433 C 784.67 0.212464 1.94443 0
M  V30 8434 C 785.05 -1.28621 1.67391 0
M  V30 8435 O 784.398 -2.0529 1.00342 0
M  V30 8436 C 784.608 0.548565 3.44662 0
M  V30 8437 C 785.956 0.499177 4.21656 0
M  V30 8438 O 786.98 0.485892 3.5287 0
M  V30 8439 O 785.839 0.495739 5.44247 0
M  V30 8440 H 782.933 0.0395457 0.826054 0
M  V30 8441 H 785.479 0.816319 1.48776 0
M  V30 8442 H 784.251 1.58426 3.57795 0
M  V30 8443 H 783.874 -0.0841399 3.97511 0
M  V30 8444 N 784.871 -1.49948 0.485112 0
M  V30 8445 C 786.096 -2.073 -0.0645059 0
M  V30 8446 C 786.521 -1.345 -1.31497 0
M  V30 8447 O 785.879 -0.39687 -1.76903 0
M  V30 8448 C 785.927 -3.59201 -0.317304 0
M  V30 8449 O 785.031 -3.88085 -1.39514 0
M  V30 8450 H 784.372 -0.663723 0.0191822 0
M  V30 8451 H 786.902 -1.92963 0.680179 0
M  V30 8452 H 786.912 -4.04227 -0.553604 0
M  V30 8453 H 785.587 -4.11602 0.596387 0
M  V30 8454 H 784.164 -3.54885 -1.14504 0
M  V30 8455 N 786.349 -0.21828 -1.56081 0
M  V30 8456 C 787.574 0.422302 -2.03055 0
M  V30 8457 C 787.999 1.5279 -1.09713 0
M  V30 8458 O 787.357 1.81102 -0.0847187 0
M  V30 8459 C 787.405 0.934177 -3.48289 0
M  V30 8460 O 786.509 2.04574 -3.58083 0
M  V30 8461 H 785.85 0.0959764 -0.657027 0
M  V30 8462 H 788.38 -0.335958 -2.01823 0
M  V30 8463 H 788.39 1.24484 -3.88546 0
M  V30 8464 H 787.065 0.124963 -4.15712 0
M  V30 8465 H 785.642 1.74196 -3.29712 0
M  V30 8466 N 787.827 1.57504 0.0551401 0
M  V30 8467 C 789.067 1.89895 0.756252 0
M  V30 8468 C 789.431 0.813983 1.73892 0
M  V30 8469 O 790.632 1.02145 2.48636 0
M  V30 8470 C 788.903 3.27494 1.43116 0
M  V30 8471 S 790.462 3.81669 2.16504 0
M  V30 8472 H 787.28 0.665173 0.251129 0
M  V30 8473 H 789.882 1.95496 0.0117193 0
M  V30 8474 H 788.586 4.04345 0.702391 0
M  V30 8475 H 788.117 3.25132 2.21479 0
M  V30 8476 H 790.132 3.58295 3.43277 0
M  V30 8477 N 789.305 -0.326896 1.54172 0
M  V30 8478 C 790.716 -0.901533 1.63491 0
M  V30 8479 C 791.067 -1.88994 0.52684 0
M  V30 8480 O 790.192 -2.137 -0.340794 0
M  V30 8481 C 790.787 -1.64192 2.96355 0
M  V30 8482 C 789.346 -2.16533 3.07881 0
M  V30 8483 C 788.493 -0.98966 2.59039 0
M  V30 8484 H 791.444 -0.104568 1.58355 0
M  V30 8485 H 791.465 -2.50592 2.86328 0
M  V30 8486 H 790.977 -0.922291 3.76982 0
M  V30 8487 H 789.078 -2.91622 2.31922 0
M  V30 8488 H 789.191 -2.41762 4.13628 0
M  V30 8489 H 787.555 -1.36787 2.14852 0
M  V30 8490 H 788.338 -0.284401 3.4212 0
M  V30 8491 N 790.784 -1.46188 -0.588786 0
M  V30 8492 C 792.024 -1.52738 -1.35833 0
M  V30 8493 C 792.388 -0.172403 -1.91224 0
M  V30 8494 O 793.589 -0.112633 -2.68564 0
M  V30 8495 C 791.86 -2.59085 -2.4619 0
M  V30 8496 S 793.419 -2.84997 -3.3365 0
M  V30 8497 H 790.237 -0.539713 -0.462851 0
M  V30 8498 H 792.839 -1.83386 -0.677489 0
M  V30 8499 H 791.543 -3.56177 -2.03878 0
M  V30 8500 H 791.074 -2.3015 -3.19053 0
M  V30 8501 H 793.089 -2.19804 -4.4486 0
M  V30 8502 N 792.262 0.832906 -1.33792 0
M  V30 8503 C 793.508 1.59089 -1.25772 0
M  V30 8504 C 793.841 1.93414 0.174601 0
M  V30 8505 O 793.116 1.59195 1.11746 0
M  V30 8506 C 793.399 2.89699 -2.13885 0
M  V30 8507 C 793.252 2.62017 -3.65605 0
M  V30 8508 C 794.571 3.91182 -2.01654 0
M  V30 8509 H 791.69 0.577232 -0.458227 0
M  V30 8510 H 794.332 0.960227 -1.6395 0
M  V30 8511 H 792.482 3.4352 -1.81456 0
M  V30 8512 H 794.154 2.14582 -4.08353 0
M  V30 8513 H 792.397 1.95621 -3.87189 0
M  V30 8514 H 793.068 3.55112 -4.2261 0
M  V30 8515 H 795.544 3.46684 -2.30107 0
M  V30 8516 H 794.42 4.80391 -2.65548 0
M  V30 8517 H 794.681 4.30861 -0.990536 0
M  V30 8518 N 793.74 1.17359 1.05189 0
M  V30 8519 C 794.989 0.956412 1.77583 0
M  V30 8520 C 795.302 -0.516018 1.88671 0
M  V30 8521 O 796.508 -0.851401 2.57805 0
M  V30 8522 C 794.964 1.66203 3.19225 0
M  V30 8523 C 794.572 3.17299 3.16267 0
M  V30 8524 C 796.316 1.52725 3.96075 0
M  V30 8525 C 794.223 3.8055 4.52698 0
M  V30 8526 H 793.153 0.354204 0.665624 0
M  V30 8527 H 795.804 1.40612 1.17901 0
M  V30 8528 H 794.186 1.14006 3.79234 0
M  V30 8529 H 795.36 3.76431 2.65776 0
M  V30 8530 H 793.675 3.3079 2.52917 0
M  V30 8531 H 796.272 1.97351 4.96947 0
M  V30 8532 H 796.615 0.477803 4.13549 0
M  V30 8533 H 797.148 2.02139 3.42614 0
M  V30 8534 H 793.887 4.85492 4.4043 0
M  V30 8535 H 793.407 3.26206 5.03339 0
M  V30 8536 H 795.086 3.82757 5.21638 0
M  V30 8537 N 795.218 -1.23913 0.973828 0
M  V30 8538 C 796.181 -2.23367 0.51378 0
M  V30 8539 C 797.181 -1.55923 -0.39302 0
M  V30 8540 O 798.371 -1.73187 -0.187626 0
M  V30 8541 C 795.503 -3.39944 -0.255152 0
M  V30 8542 H 796.696 -2.65581 1.39307 0
M  V30 8543 H 794.249 -1.36632 0.759039 0
M  V30 8544 H 794.984 -3.03177 -1.15127 0
M  V30 8545 H 794.769 -3.90098 0.395673 0
M  V30 8546 H 796.259 -4.13749 -0.565842 0
M  V30 8547 N 796.696 -0.74468 -1.38897 0
M  V30 8548 C 797.628 -0.0713608 -2.29089 0
M  V30 8549 C 798.641 0.693224 -1.47303 0
M  V30 8550 O 799.83 0.535785 -1.70269 0
M  V30 8551 C 796.93 0.923078 -3.26087 0
M  V30 8552 C 796.103 0.217998 -4.36856 0
M  V30 8553 C 795.162 1.12192 -5.14101 0
M  V30 8554 O 794.188 0.595771 -5.66073 0
M  V30 8555 N 795.39 2.45082 -5.26227 0
M  V30 8556 H 798.155 -0.845906 -2.87514 0
M  V30 8557 H 795.716 -0.594712 -1.50581 0
M  V30 8558 H 797.708 1.53061 -3.74639 0
M  V30 8559 H 796.278 1.59876 -2.68623 0
M  V30 8560 H 795.498 -0.570134 -3.90055 0
M  V30 8561 H 796.786 -0.270248 -5.08082 0
M  V30 8562 H 796.184 2.90294 -4.85537 0
M  V30 8563 H 794.741 3.00907 -5.78185 0
M  V30 8564 N 798.174 1.49689 -0.493057 0
M  V30 8565 C 799.122 2.30613 0.303383 0
M  V30 8566 C 800.116 1.38867 0.970165 0
M  V30 8567 O 801.322 1.55956 0.898761 0
M  V30 8568 H 797.697 0.742891 0.116691 0
M  V30 8569 H 799.668 2.95717 -0.39924 0
M  V30 8570 C 798.417 3.20008 1.35978 0
M  V30 8571 H 797.74 3.90526 0.856103 0
M  V30 8572 H 799.18 3.79586 1.88919 0
M  V30 8573 C 797.639 2.39079 2.37367 0
M  V30 8574 O 798.169 2.08933 3.43089 0
M  V30 8575 N 796.375 2.0125 2.09635 0
M  V30 8576 H 795.922 2.25966 1.23682 0
M  V30 8577 H 795.88 1.47408 2.77702 0
M  V30 8578 N 799.652 0.226554 1.55963 0
M  V30 8579 C 800.899 -0.403789 1.98433 0
M  V30 8580 C 801.227 -1.59416 1.1143 0
M  V30 8581 O 800.482 -1.95042 0.160389 0
M  V30 8582 C 800.781 -0.87642 3.46488 0
M  V30 8583 C 800.447 0.203973 4.50438 0
M  V30 8584 C 799.109 0.500754 4.78587 0
M  V30 8585 C 801.461 0.934396 5.12756 0
M  V30 8586 C 798.789 1.53239 5.66334 0
M  V30 8587 C 801.141 1.9554 6.0162 0
M  V30 8588 C 799.805 2.25905 6.28111 0
M  V30 8589 H 799.075 -0.147757 0.726119 0
M  V30 8590 H 801.722 0.330121 1.88633 0
M  V30 8591 H 800.027 -1.68918 3.53517 0
M  V30 8592 H 801.724 -1.37407 3.76723 0
M  V30 8593 H 798.314 -0.0374917 4.28584 0
M  V30 8594 H 802.498 0.718355 4.91074 0
M  V30 8595 H 797.754 1.77321 5.85122 0
M  V30 8596 H 801.928 2.52642 6.48957 0
M  V30 8597 H 799.555 3.05985 6.959 0
M  V30 8598 N 801.13 -1.57531 -0.0467866 0
M  V30 8599 C 802.37 -1.90294 -0.746171 0
M  V30 8600 C 802.734 -0.823194 -1.73458 0
M  V30 8601 O 803.935 -1.03463 -2.48091 0
M  V30 8602 C 802.206 -3.28249 -1.41378 0
M  V30 8603 S 803.765 -3.82812 -2.14477 0
M  V30 8604 H 800.583 -0.666496 -0.247598 0
M  V30 8605 H 803.185 -1.955 -0.00135143 0
M  V30 8606 H 801.889 -4.04712 -0.680937 0
M  V30 8607 H 801.42 -3.26302 -2.19751 0
M  V30 8608 H 803.435 -3.60111 -3.41372 0
M  V30 8609 N 802.608 0.318715 -1.54344 0
M  V30 8610 C 803.518 1.41535 -1.87097 0
M  V30 8611 C 804.534 1.56361 -0.763353 0
M  V30 8612 O 805.71 1.71365 -1.05811 0
M  V30 8613 C 802.775 2.76178 -2.09587 0
M  V30 8614 C 801.836 2.70486 -3.3337 0
M  V30 8615 C 801.069 3.98708 -3.54778 0
M  V30 8616 O 801.292 4.9721 -2.79532 0
M  V30 8617 O 800.226 4.01674 -4.48266 0
M  V30 8618 H 804.052 1.16764 -2.80357 0
M  V30 8619 H 801.637 0.51318 -1.4031 0
M  V30 8620 H 803.519 3.55873 -2.25682 0
M  V30 8621 H 802.194 3.00829 -1.19514 0
M  V30 8622 H 801.101 1.89325 -3.22656 0
M  V30 8623 H 802.434 2.50789 -4.23516 0
M  V30 8624 N 804.086 1.46499 0.581025 0
M  V30 8625 C 805.033 1.5719 1.68997 0
M  V30 8626 C 806.003 0.416114 1.60803 0
M  V30 8627 O 807.188 0.633086 1.79991 0
M  V30 8628 C 804.328 1.56973 3.07333 0
M  V30 8629 C 803.441 2.83298 3.26139 0
M  V30 8630 C 802.576 2.74574 4.54734 0
M  V30 8631 C 801.615 3.9583 4.66889 0
M  V30 8632 N 800.752 3.85482 5.86811 0
M  V30 8633 H 805.592 2.51914 1.59196 0
M  V30 8634 H 803.129 1.24975 0.775857 0
M  V30 8635 H 805.087 1.54832 3.87405 0
M  V30 8636 H 803.717 0.657803 3.16027 0
M  V30 8637 H 802.769 2.95411 2.3966 0
M  V30 8638 H 804.081 3.7316 3.30988 0
M  V30 8639 H 803.235 2.70548 5.43036 0
M  V30 8640 H 801.974 1.82354 4.52325 0
M  V30 8641 H 800.979 4.00186 3.77003 0
M  V30 8642 H 802.204 4.89148 4.71075 0
M  V30 8643 H 800.15 2.96051 5.85397 0
M  V30 8644 H 800.067 4.69002 5.92936 0
M  V30 8645 H 801.335 3.85434 6.7754 0
M  V30 8646 N 805.565 -0.825799 1.34232 0
M  V30 8647 C 806.812 -1.58185 1.26427 0
M  V30 8648 C 807.14 -1.93786 -0.166533 0
M  V30 8649 O 806.395 -1.59986 -1.12707 0
M  V30 8650 C 806.694 -2.89362 2.09772 0
M  V30 8651 C 806.36 -2.73066 3.58812 0
M  V30 8652 C 805.022 -2.68329 3.99441 0
M  V30 8653 C 807.374 -2.56946 4.53462 0
M  V30 8654 C 804.702 -2.4539 5.32917 0
M  V30 8655 C 807.054 -2.35538 5.87115 0
M  V30 8656 C 805.718 -2.29212 6.26912 0
M  V30 8657 H 804.988 -0.57884 0.462629 0
M  V30 8658 H 807.635 -0.955714 1.65947 0
M  V30 8659 H 805.94 -3.56251 1.63071 0
M  V30 8660 H 807.637 -3.4694 2.01081 0
M  V30 8661 H 804.227 -2.77591 3.26559 0
M  V30 8662 H 808.411 -2.59631 4.22972 0
M  V30 8663 H 803.667 -2.38947 5.62774 0
M  V30 8664 H 807.841 -2.22051 6.6005 0
M  V30 8665 H 805.468 -2.11197 7.30274 0
M  V30 8666 N 807.043 -1.17915 -1.04565 0
M  V30 8667 C 808.283 -0.982331 -1.79247 0
M  V30 8668 C 808.647 0.47998 -1.85904 0
M  V30 8669 O 809.848 0.796078 -2.56741 0
M  V30 8670 C 808.119 -1.61329 -3.18916 0
M  V30 8671 S 809.678 -1.56355 -4.09998 0
M  V30 8672 H 806.496 -0.352869 -0.617256 0
M  V30 8673 H 809.098 -1.49971 -1.25415 0
M  V30 8674 H 807.802 -2.66993 -3.11678 0
M  V30 8675 H 807.333 -1.09599 -3.77825 0
M  V30 8676 H 809.348 -0.57593 -4.92846 0
M  V30 8677 N 808.521 1.23394 -0.980386 0
M  V30 8678 C 809.453 2.24146 -0.478657 0
M  V30 8679 C 810.466 1.57303 0.419492 0
M  V30 8680 O 811.655 1.77094 0.223631 0
M  V30 8681 C 808.755 3.3732 0.326913 0
M  V30 8682 C 807.928 4.33744 -0.56436 0
M  V30 8683 C 806.987 5.25866 0.187358 0
M  V30 8684 O 806.013 5.67626 -0.423019 0
M  V30 8685 N 807.215 5.61492 1.47335 0
M  V30 8686 H 809.98 2.67826 -1.34496 0
M  V30 8687 H 807.541 1.37566 -0.853653 0
M  V30 8688 H 809.533 3.95926 0.838148 0
M  V30 8689 H 808.103 2.92823 1.09422 0
M  V30 8690 H 807.323 3.73641 -1.25642 0
M  V30 8691 H 808.611 4.95123 -1.17177 0
M  V30 8692 H 808.009 5.29514 1.99077 0
M  V30 8693 H 806.566 6.2257 1.93002 0
M  V30 8694 N 809.999 0.752036 1.385 0
M  V30 8695 C 811.239 0.312408 2.01998 0
M  V30 8696 C 811.603 -1.085 1.58404 0
M  V30 8697 O 812.804 -1.62365 2.14222 0
M  V30 8698 C 811.075 0.429423 3.54811 0
M  V30 8699 S 812.634 0.0721487 4.38741 0
M  V30 8700 H 809.452 0.1213 0.700576 0
M  V30 8701 H 812.054 0.982312 1.69029 0
M  V30 8702 H 810.758 1.44743 3.84028 0
M  V30 8703 H 810.289 -0.257716 3.92555 0
M  V30 8704 H 812.304 -1.13875 4.82957 0
M  V30 8705 N 811.477 -1.49425 0.500989 0
M  V30 8706 C 812.702 -2.07356 -0.0425154 0
M  V30 8707 C 813.127 -1.35887 -1.30063 0
M  V30 8708 O 812.485 -0.41561 -1.76472 0
M  V30 8709 C 812.533 -3.59518 -0.279188 0
M  V30 8710 O 811.637 -3.89542 -1.3539 0
M  V30 8711 H 810.978 -0.663482 0.0262207 0
M  V30 8712 H 813.508 -1.92231 0.700607 0
M  V30 8713 H 813.518 -4.04791 -0.5107 0
M  V30 8714 H 812.193 -4.10946 0.640009 0
M  V30 8715 H 810.77 -3.56079 -1.10734 0
M  V30 8716 N 812.955 -0.234822 -1.55841 0
M  V30 8717 C 814.18 0.400741 -2.03492 0
M  V30 8718 C 814.605 1.51618 -1.11327 0
M  V30 8719 O 813.963 1.81002 -0.103922 0
M  V30 8720 C 814.011 0.897184 -3.49261 0
M  V30 8721 O 813.115 2.00764 -3.60233 0
M  V30 8722 H 812.456 0.0890023 -0.658008 0
M  V30 8723 H 814.986 -0.357345 -2.01455 0
M  V30 8724 H 814.996 1.20356 -3.89844 0
M  V30 8725 H 813.671 0.0808639 -4.15821 0
M  V30 8726 H 812.248 1.70689 -3.31541 0
M  V30 8727 N 814.433 1.57553 0.0384317 0
M  V30 8728 C 815.343 2.09333 1.0591 0
M  V30 8729 C 816.359 1.0299 1.40247 0
M  V30 8730 O 817.535 1.34669 1.49754 0
M  V30 8731 C 814.6 2.55468 2.34386 0
M  V30 8732 C 813.661 3.76254 2.06716 0
M  V30 8733 C 812.894 4.20179 3.29067 0
M  V30 8734 O 813.117 3.637 4.39407 0
M  V30 8735 O 812.051 5.12697 3.15317 0
M  V30 8736 H 815.877 2.96683 0.649087 0
M  V30 8737 H 813.462 1.47211 0.254802 0
M  V30 8738 H 815.344 2.85514 3.09935 0
M  V30 8739 H 814.019 1.71234 2.74701 0
M  V30 8740 H 812.926 3.51241 1.28766 0
M  V30 8741 H 814.259 4.61443 1.71263 0
M  V30 8742 N 815.911 -0.310526 1.54511 0
M  V30 8743 C 817.151 -1.05498 1.7507 0
M  V30 8744 C 817.515 -1.84814 0.520381 0
M  V30 8745 O 818.716 -2.61937 0.603547 0
M  V30 8746 C 816.987 -1.94466 2.99863 0
M  V30 8747 S 818.546 -2.75686 3.41383 0
M  V30 8748 H 815.364 -0.355951 0.615483 0
M  V30 8749 H 817.966 -0.329464 1.92704 0
M  V30 8750 H 816.67 -1.35055 3.87541 0
M  V30 8751 H 816.201 -2.71401 2.84789 0
M  V30 8752 H 818.216 -3.96971 2.97706 0
M  V30 8753 N 817.389 -1.46805 -0.573248 0
M  V30 8754 C 818.321 -1.54127 -1.6964 0
M  V30 8755 C 819.334 -0.428778 -1.57052 0
M  V30 8756 O 820.523 -0.697612 -1.64303 0
M  V30 8757 C 817.623 -1.41438 -3.07975 0
M  V30 8758 C 816.796 -2.66974 -3.46474 0
M  V30 8759 C 815.855 -2.48349 -4.63906 0
M  V30 8760 O 814.881 -3.22109 -4.69292 0
M  V30 8761 N 816.083 -1.55129 -5.59388 0
M  V30 8762 H 818.848 -2.50971 -1.6381 0
M  V30 8763 H 816.409 -1.42981 -0.759479 0
M  V30 8764 H 818.401 -1.26737 -3.84343 0
M  V30 8765 H 816.971 -0.527388 -3.08119 0
M  V30 8766 H 816.191 -2.9655 -2.59715 0
M  V30 8767 H 817.479 -3.50347 -3.68964 0
M  V30 8768 H 816.877 -0.94324 -5.57781 0
M  V30 8769 H 815.434 -1.46387 -6.35149 0
M  V30 8770 N 818.867 0.818669 -1.34668 0
M  V30 8771 C 819.815 1.95123 -1.26609 0
M  V30 8772 C 820.809 1.68611 -0.163348 0
M  V30 8773 O 822.015 1.76975 -0.328586 0
M  V30 8774 H 818.39 0.640871 -0.393431 0
M  V30 8775 H 820.361 1.99043 -2.22316 0
M  V30 8776 C 819.11 3.31697 -1.04272 0
M  V30 8777 H 818.433 3.52648 -1.8836 0
M  V30 8778 H 819.873 4.11382 -1.0267 0
M  V30 8779 C 818.332 3.35942 0.253858 0
M  V30 8780 O 818.862 3.81632 1.25378 0
M  V30 8781 N 817.068 2.89165 0.288447 0
M  V30 8782 H 816.615 2.52176 -0.525845 0
M  V30 8783 H 816.573 2.92387 1.15572 0
M  V30 8784 N 820.346 1.18468 1.03938 0
M  V30 8785 C 821.762 0.934635 1.29371 0
M  V30 8786 C 821.962 -0.399067 1.97509 0
M  V30 8787 O 821.018 -1.13309 2.25648 0
M  V30 8788 C 822.331 2.10111 2.15114 0
M  V30 8789 C 823.879 2.13955 2.28456 0
M  V30 8790 C 824.354 3.30024 3.17566 0
M  V30 8791 N 825.845 3.29893 3.25153 0
M  V30 8792 C 826.58 4.16346 3.94263 0
M  V30 8793 N 826.076 5.12934 4.65693 0
M  V30 8794 N 827.869 4.04256 3.90556 0
M  V30 8795 H 820.02 2.04294 0.581185 0
M  V30 8796 H 822.283 0.892727 0.318971 0
M  V30 8797 H 821.989 3.06572 1.72355 0
M  V30 8798 H 821.863 2.06283 3.15796 0
M  V30 8799 H 824.25 1.18072 2.7045 0
M  V30 8800 H 824.331 2.2184 1.2736 0
M  V30 8801 H 823.975 4.26181 2.76283 0
M  V30 8802 H 823.905 3.19376 4.18697 0
M  V30 8803 H 826.396 2.59969 2.74271 0
M  V30 8804 H 826.709 5.75271 5.16026 0
M  V30 8805 H 825.054 5.16893 4.64593 0
M  V30 8806 H 828.245 3.28083 3.33885 0
M  V30 8807 H 828.418 4.71848 4.44144 0
M  V30 8808 N 821.824 -1.22873 0.986916 0
M  V30 8809 C 823.071 -1.91462 0.659424 0
M  V30 8810 C 823.399 -1.76931 -0.807825 0
M  V30 8811 O 822.654 -1.12829 -1.59901 0
M  V30 8812 C 822.953 -3.43014 1.00379 0
M  V30 8813 C 822.619 -3.77731 2.46232 0
M  V30 8814 C 821.281 -3.86918 2.86091 0
M  V30 8815 C 823.633 -3.94343 3.40798 0
M  V30 8816 C 820.961 -4.10149 4.19518 0
M  V30 8817 C 823.313 -4.19076 4.73875 0
M  V30 8818 C 821.977 -4.26486 5.13484 0
M  V30 8819 H 821.247 -0.700611 0.2413 0
M  V30 8820 H 823.894 -1.45763 1.24199 0
M  V30 8821 H 822.199 -3.90329 0.339226 0
M  V30 8822 H 823.896 -3.94327 0.728518 0
M  V30 8823 H 820.486 -3.71159 2.14334 0
M  V30 8824 H 824.67 -3.86629 3.11178 0
M  V30 8825 H 819.926 -4.1411 4.49803 0
M  V30 8826 H 824.1 -4.30873 5.47102 0
M  V30 8827 H 821.727 -4.4424 6.16891 0
M  V30 8828 N 823.302 -0.75937 -1.38099 0
M  V30 8829 C 824.713 -0.385078 -1.82686 0
M  V30 8830 C 825.064 1.0871 -1.6333 0
M  V30 8831 O 824.189 1.84084 -1.13762 0
M  V30 8832 C 824.784 -0.692161 -3.31654 0
M  V30 8833 C 823.343 -0.371077 -3.74566 0
M  V30 8834 C 822.49 -0.942375 -2.60796 0
M  V30 8835 H 825.441 -0.955048 -1.26746 0
M  V30 8836 H 825.462 0.0276001 -3.8049 0
M  V30 8837 H 824.974 -1.76369 -3.4571 0
M  V30 8838 H 823.075 0.693637 -3.66087 0
M  V30 8839 H 823.188 -0.870672 -4.71122 0
M  V30 8840 H 821.552 -0.367383 -2.52036 0
M  V30 8841 H 822.335 -2.01905 -2.77649 0
M  V30 8842 N 824.78 1.49157 -0.508906 0
M  V30 8843 C 826.028 2.02073 0.0327335 0
M  V30 8844 C 826.349 1.39012 1.3675 0
M  V30 8845 O 825.619 0.548153 1.88075 0
M  V30 8846 H 824.199 0.746848 0.0150864 0
M  V30 8847 H 826.861 1.83097 -0.667946 0
M  V30 8848 H 825.957 3.11707 0.1566 0
M  V30 8849 N 826.258 0.243083 1.55714 0
M  V30 8850 C 827.498 -0.384303 2.00755 0
M  V30 8851 C 827.862 -1.55406 1.12752 0
M  V30 8852 O 829.063 -2.24892 1.47231 0
M  V30 8853 C 827.334 -0.787419 3.48618 0
M  V30 8854 S 828.893 -1.40587 4.15669 0
M  V30 8855 H 825.711 -0.121088 0.700613 0
M  V30 8856 H 828.313 0.357423 1.92205 0
M  V30 8857 H 827.017 0.0732892 4.10335 0
M  V30 8858 H 826.548 -1.56142 3.61086 0
M  V30 8859 H 828.563 -2.69493 4.16639 0
M  V30 8860 N 827.736 -1.57571 -0.0300757 0
M  V30 8861 C 829.152 -1.54869 -0.385703 0
M  V30 8862 C 829.352 -0.969068 -1.76667 0
M  V30 8863 O 828.408 -0.589676 -2.45518 0
M  V30 8864 C 829.721 -2.99313 -0.288482 0
M  V30 8865 C 831.269 -3.10857 -0.365638 0
M  V30 8866 C 831.744 -4.5703 -0.297878 0
M  V30 8867 N 833.235 -4.61825 -0.356703 0
M  V30 8868 C 833.97 -5.72466 -0.327146 0
M  V30 8869 N 833.466 -6.92349 -0.249941 0
M  V30 8870 N 835.259 -5.60836 -0.376801 0
M  V30 8871 H 827.41 -1.936 0.87367 0
M  V30 8872 H 829.673 -0.887924 0.332106 0
M  V30 8873 H 829.379 -3.45443 0.66047 0
M  V30 8874 H 829.253 -3.61332 -1.08253 0
M  V30 8875 H 831.64 -2.64676 -1.30502 0
M  V30 8876 H 831.721 -2.51671 0.457744 0
M  V30 8877 H 831.365 -5.03879 0.637835 0
M  V30 8878 H 831.295 -5.14127 -1.13935 0
M  V30 8879 H 833.786 -3.75571 -0.418926 0
M  V30 8880 H 834.099 -7.7245 -0.23246 0
M  V30 8881 H 832.444 -6.94664 -0.216004 0
M  V30 8882 H 835.635 -4.66073 -0.435101 0
M  V30 8883 H 835.808 -6.47052 -0.350298 0
M  V30 8884 N 829.214 0.302327 -1.54673 0
M  V30 8885 C 830.454 1.04568 -1.75627 0
M  V30 8886 C 830.818 1.84535 -0.530175 0
M  V30 8887 O 832.019 2.61613 -0.61743 0
M  V30 8888 C 830.29 1.92873 -3.0089 0
M  V30 8889 S 831.849 2.73872 -3.4284 0
M  V30 8890 H 828.667 0.352682 -0.617362 0
M  V30 8891 H 831.269 0.319239 -1.92876 0
M  V30 8892 H 829.973 1.32998 -3.88252 0
M  V30 8893 H 829.504 2.69887 -2.86225 0
M  V30 8894 H 831.519 3.95386 -2.99807 0
M  V30 8895 N 830.692 1.47107 0.565454 0
M  V30 8896 C 831.639 1.58974 1.6732 0
M  V30 8897 C 832.609 0.433146 1.60353 0
M  V30 8898 O 833.794 0.652141 1.79309 0
M  V30 8899 C 830.934 1.60224 3.05651 0
M  V30 8900 C 830.047 2.86741 3.23116 0
M  V30 8901 C 829.182 2.79381 4.51796 0
M  V30 8902 C 828.221 4.0076 4.62664 0
M  V30 8903 N 827.358 3.91685 5.8269 0
M  V30 8904 H 832.198 2.53588 1.56515 0
M  V30 8905 H 829.735 1.25791 0.762558 0
M  V30 8906 H 831.693 1.58933 3.85741 0
M  V30 8907 H 830.323 0.691285 3.15311 0
M  V30 8908 H 829.375 2.97936 2.36513 0
M  V30 8909 H 830.687 3.7665 3.27011 0
M  V30 8910 H 829.841 2.76293 5.40136 0
M  V30 8911 H 828.58 1.87142 4.50366 0
M  V30 8912 H 827.585 4.04162 3.72738 0
M  V30 8913 H 828.81 4.94117 4.6586 0
M  V30 8914 H 826.756 3.02243 5.82224 0
M  V30 8915 H 826.673 4.75264 5.87929 0
M  V30 8916 H 827.941 3.92599 6.73414 0
M  V30 8917 N 832.17 -0.811516 1.35101 0
M  V30 8918 C 833.133 -1.90467 1.27495 0
M  V30 8919 C 834.133 -1.59703 0.187516 0
M  V30 8920 O 835.323 -1.68528 0.440896 0
M  V30 8921 C 832.455 -3.26774 0.971154 0
M  V30 8922 H 833.648 -1.98631 2.2469 0
M  V30 8923 H 831.201 -1.00681 1.19553 0
M  V30 8924 H 831.936 -3.243 0.0028557 0
M  V30 8925 H 831.721 -3.50488 1.75785 0
M  V30 8926 H 833.211 -4.06804 0.943414 0
M  V30 8927 N 833.648 -1.19017 -1.03309 0
M  V30 8928 C 834.58 -0.881847 -2.11556 0
M  V30 8929 C 835.593 0.123711 -1.62329 0
M  V30 8930 O 836.782 -0.105141 -1.7819 0
M  V30 8931 C 833.882 -0.297634 -3.37591 0
M  V30 8932 C 833.055 -1.35072 -4.16022 0
M  V30 8933 C 832.114 -0.780812 -5.20375 0
M  V30 8934 O 831.14 -1.45745 -5.50224 0
M  V30 8935 N 832.342 0.417964 -5.78993 0
M  V30 8936 H 835.107 -1.81359 -2.38598 0
M  V30 8937 H 832.668 -1.0916 -1.19565 0
M  V30 8938 H 834.66 0.097374 -4.04583 0
M  V30 8939 H 833.23 0.538299 -3.0793 0
M  V30 8940 H 832.45 -1.92074 -3.4424 0
M  V30 8941 H 833.738 -2.06044 -4.65213 0
M  V30 8942 H 833.136 0.985281 -5.57054 0
M  V30 8943 H 831.693 0.754802 -6.47415 0
M  V30 8944 N 835.127 1.22348 -0.993418 0
M  V30 8945 C 836.367 1.92835 -0.677779 0
M  V30 8946 C 836.731 1.75624 0.775893 0
M  V30 8947 O 837.932 2.40379 1.20297 0
M  V30 8948 C 836.203 3.40906 -1.07322 0
M  V30 8949 S 837.762 4.29966 -0.876032 0
M  V30 8950 H 834.58 0.666421 -0.247799 0
M  V30 8951 H 837.182 1.48133 -1.27581 0
M  V30 8952 H 835.886 3.50946 -2.12756 0
M  V30 8953 H 835.417 3.90618 -0.467015 0
M  V30 8954 H 837.432 4.95652 0.233162 0
M  V30 8955 N 836.605 0.766683 1.37694 0
M  V30 8956 C 837.553 0.137269 2.32195 0
M  V30 8957 C 838.547 -0.69067 1.54681 0
M  V30 8958 O 839.753 -0.588299 1.70115 0
M  V30 8959 H 836.128 0.0256003 0.751564 0
M  V30 8960 H 838.099 0.950129 2.82869 0
M  V30 8961 C 836.848 -0.731446 3.39919 0
M  V30 8962 H 836.171 -0.103738 3.99665 0
M  V30 8963 H 837.611 -1.13891 4.08417 0
M  V30 8964 C 836.07 -1.87984 2.79578 0
M  V30 8965 O 836.6 -2.97496 2.69924 0
M  V30 8966 N 834.806 -1.6789 2.37195 0
M  V30 8967 H 834.353 -0.788162 2.45246 0
M  V30 8968 H 834.311 -2.44894 1.97165 0
M  V30 8969 N 838.083 -1.48885 0.516809 0
M  V30 8970 C 839.311 -2.06892 -0.0184017 0
M  V30 8971 C 839.726 -1.37511 -1.29368 0
M  V30 8972 O 839.083 -0.458409 -1.76649 0
M  V30 8973 C 839.134 -3.60566 -0.259673 0
M  V30 8974 O 838.855 -4.27338 0.965065 0
M  V30 8975 C 840.356 -4.35331 -0.836751 0
M  V30 8976 H 837.576 -0.670433 0.0275743 0
M  V30 8977 H 840.12 -1.91455 0.718689 0
M  V30 8978 H 838.275 -3.75653 -0.94678 0
M  V30 8979 H 838.689 -5.19287 0.737647 0
M  V30 8980 H 840.163 -5.43675 -0.955065 0
M  V30 8981 H 840.64 -3.9887 -1.83845 0
M  V30 8982 H 841.246 -4.2489 -0.186622 0
M  V30 8983 N 839.561 -0.251338 -1.55583 0
M  V30 8984 C 840.508 0.646337 -2.21565 0
M  V30 8985 C 841.478 1.16796 -1.18102 0
M  V30 8986 O 842.663 1.22162 -1.46564 0
M  V30 8987 C 839.803 1.83557 -2.92234 0
M  V30 8988 C 838.916 1.35006 -4.10363 0
M  V30 8989 C 838.051 2.4992 -4.68736 0
M  V30 8990 C 837.09 1.98253 -5.79105 0
M  V30 8991 N 836.227 3.06551 -6.31642 0
M  V30 8992 H 841.067 0.0769881 -2.97901 0
M  V30 8993 H 838.604 0.026238 -1.47077 0
M  V30 8994 H 840.562 2.53425 -3.31408 0
M  V30 8995 H 839.192 2.37733 -2.18364 0
M  V30 8996 H 838.244 0.545274 -3.76472 0
M  V30 8997 H 839.556 0.931435 -4.90026 0
M  V30 8998 H 838.71 3.27823 -5.10507 0
M  V30 8999 H 837.449 2.95086 -3.88298 0
M  V30 9000 H 836.454 1.18822 -5.36807 0
M  V30 9001 H 837.679 1.54051 -6.61396 0
M  V30 9002 H 835.625 3.51143 -5.54107 0
M  V30 9003 H 835.542 2.69033 -7.06511 0
M  V30 9004 H 836.81 3.84499 -6.78071 0
M  V30 9005 N 841.039 1.57585 0.0217189 0
M  V30 9006 C 841.971 2.03849 1.04777 0
M  V30 9007 C 842.984 0.952558 1.32023 0
M  V30 9008 O 844.173 1.22974 1.29381 0
M  V30 9009 C 841.273 2.40504 2.3877 0
M  V30 9010 C 840.446 3.71566 2.30775 0
M  V30 9011 C 839.505 3.95329 3.47277 0
M  V30 9012 O 838.531 4.66289 3.26441 0
M  V30 9013 N 839.733 3.41536 4.69397 0
M  V30 9014 H 842.498 2.92491 0.653395 0
M  V30 9015 H 840.059 1.60538 0.209527 0
M  V30 9016 H 842.051 2.53532 3.15442 0
M  V30 9017 H 840.621 1.57494 2.70027 0
M  V30 9018 H 839.841 3.68822 1.39155 0
M  V30 9019 H 841.129 4.5753 2.22584 0
M  V30 9020 H 840.527 2.84033 4.89226 0
M  V30 9021 H 839.084 3.59932 5.43408 0
M  V30 9022 N 842.517 -0.29412 1.54831 0
M  V30 9023 C 843.757 -1.03635 1.76179 0
M  V30 9024 C 844.121 -1.84251 0.539953 0
M  V30 9025 O 845.322 -2.61282 0.631295 0
M  V30 9026 C 843.593 -1.91275 3.01909 0
M  V30 9027 S 845.152 -2.7205 3.44288 0
M  V30 9028 H 841.97 -0.349403 0.619224 0
M  V30 9029 H 844.572 -0.309006 1.93042 0
M  V30 9030 H 843.276 -1.30937 3.88952 0
M  V30 9031 H 842.807 -2.68365 2.87652 0
M  V30 9032 H 844.822 -3.93791 3.01899 0
M  V30 9033 N 843.995 -1.47404 -0.557645 0
M  V30 9034 C 845.406 -1.47872 -1.13977 0
M  V30 9035 C 845.757 -0.233176 -1.94809 0
M  V30 9036 O 844.882 0.661945 -2.06027 0
M  V30 9037 C 845.477 -2.67926 -2.07368 0
M  V30 9038 C 844.036 -2.71354 -2.60852 0
M  V30 9039 C 843.183 -2.40967 -1.37223 0
M  V30 9040 H 846.134 -1.54921 -0.344268 0
M  V30 9041 H 846.155 -2.44871 -2.91236 0
M  V30 9042 H 845.667 -3.58562 -1.48509 0
M  V30 9043 H 843.768 -1.84855 -3.23511 0
M  V30 9044 H 843.881 -3.72032 -3.01876 0
M  V30 9045 H 842.245 -1.91541 -1.67882 0
M  V30 9046 H 843.028 -3.33811 -0.801583 0
M  V30 9047 N 845.473 0.80434 -1.35529 0
M  V30 9048 C 846.713 1.57489 -1.30295 0
M  V30 9049 C 847.077 1.91621 0.120528 0
M  V30 9050 O 848.278 2.67151 0.297265 0
M  V30 9051 C 846.549 2.82741 -2.18615 0
M  V30 9052 S 848.108 3.73125 -2.30918 0
M  V30 9053 H 844.926 0.539573 -0.463014 0
M  V30 9054 H 847.528 0.948601 -1.70944 0
M  V30 9055 H 846.232 2.55692 -3.21014 0
M  V30 9056 H 845.763 3.50353 -1.78931 0
M  V30 9057 H 847.778 4.73122 -1.49566 0
M  V30 9058 N 846.951 1.19563 1.02676 0
M  V30 9059 C 848.181 1.0234 1.79472 0
M  V30 9060 C 848.589 -0.430891 1.84228 0
M  V30 9061 O 847.932 -1.31106 1.28674 0
M  V30 9062 C 847.994 1.51901 3.25832 0
M  V30 9063 C 847.658 3.00045 3.44706 0
M  V30 9064 C 848.655 3.9779 3.34752 0
M  V30 9065 C 846.34 3.38784 3.70851 0
M  V30 9066 C 848.334 5.32267 3.50672 0
M  V30 9067 C 846.021 4.73419 3.86416 0
M  V30 9068 C 847.019 5.69969 3.7633 0
M  V30 9069 O 846.707 7.02165 3.91432 0
M  V30 9070 H 846.439 0.360936 0.571578 0
M  V30 9071 H 848.993 1.58863 1.30198 0
M  V30 9072 H 847.223 0.897546 3.7614 0
M  V30 9073 H 848.912 1.30853 3.84229 0
M  V30 9074 H 849.678 3.69207 3.14502 0
M  V30 9075 H 845.557 2.64183 3.77794 0
M  V30 9076 H 849.101 6.07612 3.42715 0
M  V30 9077 H 844.998 5.01697 4.06165 0
M  V30 9078 H 845.766 7.09268 4.08511 0
M  V30 9079 N 848.429 -1.21819 0.999893 0
M  V30 9080 C 849.359 -2.26282 0.576096 0
M  V30 9081 C 850.34 -1.65317 -0.400537 0
M  V30 9082 O 851.525 -1.92028 -0.28964 0
M  V30 9083 C 848.655 -3.47147 -0.103145 0
M  V30 9084 C 847.609 -4.20594 0.792745 0
M  V30 9085 C 846.935 -5.34696 -0.0198026 0
M  V30 9086 C 848.235 -4.78533 2.09293 0
M  V30 9087 H 849.929 -2.61984 1.4493 0
M  V30 9088 H 847.475 -1.25935 0.698316 0
M  V30 9089 H 849.428 -4.1939 -0.411068 0
M  V30 9090 H 848.152 -3.1056 -1.01094 0
M  V30 9091 H 846.811 -3.50194 1.08442 0
M  V30 9092 H 846.459 -4.94352 -0.928729 0
M  V30 9093 H 846.159 -5.84764 0.576661 0
M  V30 9094 H 847.683 -6.09752 -0.321659 0
M  V30 9095 H 849.097 -5.42682 1.8485 0
M  V30 9096 H 847.494 -5.38968 2.63881 0
M  V30 9097 H 848.564 -3.98197 2.76708 0
M  V30 9098 N 849.908 -0.773975 -1.37286 0
M  V30 9099 C 850.871 -0.167974 -2.28584 0
M  V30 9100 C 851.871 0.625662 -1.48129 0
M  V30 9101 O 853.061 0.448924 -1.68316 0
M  V30 9102 C 850.193 0.769364 -3.32105 0
M  V30 9103 H 851.386 -0.972806 -2.83684 0
M  V30 9104 H 848.939 -0.542335 -1.46589 0
M  V30 9105 H 849.674 1.59912 -2.82132 0
M  V30 9106 H 849.459 0.202419 -3.91577 0
M  V30 9107 H 850.949 1.18872 -4.00324 0
M  V30 9108 N 851.386 1.48609 -0.524698 0
M  V30 9109 C 852.632 2.02797 0.0113382 0
M  V30 9110 C 852.965 1.40147 1.34433 0
M  V30 9111 O 852.24 0.545368 1.86698 0
M  V30 9112 C 852.523 3.59832 0.138931 0
M  V30 9113 C 852.376 4.32971 -1.21886 0
M  V30 9114 C 853.695 4.3145 0.868265 0
M  V30 9115 H 850.814 0.736995 0.00264645 0
M  V30 9116 H 853.456 1.77388 -0.680704 0
M  V30 9117 H 851.606 3.81612 0.72834 0
M  V30 9118 H 853.278 4.22624 -1.84897 0
M  V30 9119 H 851.521 3.94597 -1.80211 0
M  V30 9120 H 852.192 5.41279 -1.08263 0
M  V30 9121 H 854.668 4.14468 0.368145 0
M  V30 9122 H 853.544 5.41025 0.926428 0
M  V30 9123 H 853.805 3.98358 1.91737 0
M  V30 9124 N 852.864 0.259585 1.55447 0
M  V30 9125 C 854.28 -0.094961 1.59317 0
M  V30 9126 C 854.48 -1.55884 1.2768 0
M  V30 9127 O 853.536 -2.30528 1.0302 0
M  V30 9128 C 854.849 0.265669 2.99524 0
M  V30 9129 C 856.397 0.211007 3.12288 0
M  V30 9130 C 856.872 0.545851 4.54736 0
M  V30 9131 N 858.363 0.496823 4.60528 0
M  V30 9132 C 859.098 0.728909 5.68748 0
M  V30 9133 N 858.594 1.02479 6.85179 0
M  V30 9134 N 860.387 0.658756 5.58226 0
M  V30 9135 H 852.538 1.2141 1.7428 0
M  V30 9136 H 854.801 0.489404 0.811904 0
M  V30 9137 H 854.507 1.28316 3.27457 0
M  V30 9138 H 854.381 -0.401089 3.75061 0
M  V30 9139 H 856.768 -0.797172 2.84129 0
M  V30 9140 H 856.849 0.911799 2.38998 0
M  V30 9141 H 856.493 1.55164 4.83618 0
M  V30 9142 H 856.423 -0.17656 5.26304 0
M  V30 9143 H 858.914 0.277376 3.76881 0
M  V30 9144 H 859.227 1.18897 7.63599 0
M  V30 9145 H 857.572 1.0624 6.86832 0
M  V30 9146 H 860.763 0.427553 4.66143 0
M  V30 9147 H 860.936 0.84302 6.42493 0
M  V30 9148 N 854.342 -1.57594 -0.0133615 0
M  V30 9149 C 855.252 -2.10991 -1.02566 0
M  V30 9150 C 856.268 -1.05208 -1.3859 0
M  V30 9151 O 857.444 -1.37034 -1.47593 0
M  V30 9152 C 854.509 -2.59165 -2.30292 0
M  V30 9153 C 853.57 -3.79495 -2.00704 0
M  V30 9154 C 852.803 -4.25361 -3.22341 0
M  V30 9155 O 853.026 -3.70645 -4.33565 0
M  V30 9156 O 851.96 -5.17649 -3.07121 0
M  V30 9157 H 855.786 -2.97678 -0.601806 0
M  V30 9158 H 853.371 -1.47598 -0.23135 0
M  V30 9159 H 855.253 -2.90409 -3.05354 0
M  V30 9160 H 853.928 -1.75582 -2.71942 0
M  V30 9161 H 852.835 -3.53245 -1.23161 0
M  V30 9162 H 854.168 -4.64109 -1.639 0
M  V30 9163 N 855.82 0.285905 -1.54985 0
M  V30 9164 C 857.06 1.02699 -1.76726 0
M  V30 9165 C 857.424 1.83962 -0.549717 0
M  V30 9166 O 858.625 2.60943 -0.645142 0
M  V30 9167 C 856.896 1.89671 -3.02919 0
M  V30 9168 S 858.455 2.7022 -3.45726 0
M  V30 9169 H 855.273 0.346114 -0.621068 0
M  V30 9170 H 857.875 0.298764 -1.93204 0
M  V30 9171 H 856.579 1.28873 -3.89641 0
M  V30 9172 H 856.11 2.66836 -2.89071 0
M  V30 9173 H 858.125 3.92184 -3.03983 0
M  V30 9174 N 857.298 1.47698 0.54982 0
M  V30 9175 C 858.575 1.45185 1.31075 0
M  V30 9176 C 858.955 0.152768 2.10547 0
M  V30 9177 O 858.303 -0.865706 2.11466 0
M  V30 9178 C 858.513 2.70192 2.20902 0
M  V30 9179 C 859.861 3.1771 2.81683 0
M  V30 9180 O 860.885 2.70971 2.312 0
M  V30 9181 O 859.744 3.98986 3.7346 0
M  V30 9182 H 856.838 0.57892 0.590577 0
M  V30 9183 H 859.384 1.59908 0.568112 0
M  V30 9184 H 858.156 3.56269 1.61828 0
M  V30 9185 H 857.779 2.58091 3.02448 0
M  V30 9186 N 858.776 -0.797141 1.35954 0
M  V30 9187 C 860.187 -1.37179 1.26644 0
M  V30 9188 C 860.538 -1.9596 -0.0971046 0
M  V30 9189 O 859.663 -1.91994 -0.998355 0
M  V30 9190 C 860.258 -2.49395 2.2932 0
M  V30 9191 C 858.817 -3.02697 2.23722 0
M  V30 9192 C 857.964 -1.75721 2.14517 0
M  V30 9193 H 860.915 -0.599407 1.46945 0
M  V30 9194 H 860.936 -3.28204 1.92515 0
M  V30 9195 H 860.448 -2.06584 3.2855 0
M  V30 9196 H 858.549 -3.49948 1.27934 0
M  V30 9197 H 858.662 -3.60036 3.16087 0
M  V30 9198 H 857.026 -1.97649 1.60646 0
M  V30 9199 H 857.809 -1.35049 3.15621 0
M  V30 9200 N 860.254 -1.20106 -1.0204 0
M  V30 9201 C 861.531 -0.918029 -1.72718 0
M  V30 9202 C 861.911 0.574163 -2.03142 0
M  V30 9203 O 861.259 1.53476 -1.69285 0
M  V30 9204 C 861.469 -1.78698 -2.9978 0
M  V30 9205 C 862.817 -2.02648 -3.7312 0
M  V30 9206 O 863.841 -1.75919 -3.09727 0
M  V30 9207 O 862.7 -2.47767 -4.87107 0
M  V30 9208 H 859.794 -0.342904 -0.752559 0
M  V30 9209 H 862.34 -1.30961 -1.07923 0
M  V30 9210 H 861.112 -2.79757 -2.7359 0
M  V30 9211 H 860.735 -1.39522 -3.72316 0
M  V30 9212 N 861.732 1.21287 -1.00634 0
M  V30 9213 C 862.662 2.25973 -0.588089 0
M  V30 9214 C 863.643 1.65527 0.391764 0
M  V30 9215 O 864.828 1.92179 0.279452 0
M  V30 9216 C 861.958 3.47197 0.0847336 0
M  V30 9217 C 860.912 4.20168 -0.815039 0
M  V30 9218 C 860.238 5.34699 -0.00855393 0
M  V30 9219 C 861.538 4.77416 -2.11828 0
M  V30 9220 H 863.232 2.61212 -1.46317 0
M  V30 9221 H 860.778 1.25563 -0.704985 0
M  V30 9222 H 862.731 4.19602 0.388821 0
M  V30 9223 H 861.455 3.11092 0.994456 0
M  V30 9224 H 860.114 3.49614 -1.10297 0
M  V30 9225 H 859.762 4.94837 0.902499 0
M  V30 9226 H 859.462 5.84449 -0.607664 0
M  V30 9227 H 860.986 6.09914 0.289317 0
M  V30 9228 H 862.4 5.41694 -1.87725 0
M  V30 9229 H 860.797 5.37561 -2.66736 0
M  V30 9230 H 861.867 3.96724 -2.78816 0
M  V30 9231 N 863.21 0.781244 1.36873 0
M  V30 9232 C 864.45 0.355185 2.0129 0
M  V30 9233 C 864.814 -1.05115 1.6067 0
M  V30 9234 O 866.015 -1.57785 2.17618 0
M  V30 9235 C 864.286 0.504587 3.5382 0
M  V30 9236 S 865.845 0.165196 4.38489 0
M  V30 9237 H 862.663 0.136133 0.697846 0
M  V30 9238 H 865.265 1.01794 1.66908 0
M  V30 9239 H 863.969 1.52857 3.80871 0
M  V30 9240 H 863.5 -0.174392 3.93013 0
M  V30 9241 H 865.515 -1.03605 4.85263 0
M  V30 9242 N 864.689 -1.48329 0.532571 0
M  V30 9243 C 865.619 -2.32485 -0.217511 0
M  V30 9244 C 866.6 -1.42255 -0.932598 0
M  V30 9245 O 867.785 -1.7114 -0.917873 0
M  V30 9246 C 864.915 -3.23509 -1.26329 0
M  V30 9247 C 863.869 -4.22784 -0.666191 0
M  V30 9248 C 863.195 -5.0296 -1.81482 0
M  V30 9249 C 864.495 -5.21031 0.363813 0
M  V30 9250 H 866.189 -2.95445 0.485014 0
M  V30 9251 H 863.735 -1.42075 0.234694 0
M  V30 9252 H 865.688 -3.81211 -1.79601 0
M  V30 9253 H 864.412 -2.58554 -1.99543 0
M  V30 9254 H 863.071 -3.66272 -0.15498 0
M  V30 9255 H 862.719 -4.34427 -2.5354 0
M  V30 9256 H 862.419 -5.70154 -1.4212 0
M  V30 9257 H 863.943 -5.63514 -2.35126 0
M  V30 9258 H 865.357 -5.73241 -0.0819079 0
M  V30 9259 H 863.754 -5.96292 0.674956 0
M  V30 9260 H 864.824 -4.6801 1.26865 0
M  V30 9261 N 866.167 -0.267825 -1.55308 0
M  V30 9262 C 867.395 0.354587 -2.03839 0
M  V30 9263 C 867.81 1.50007 -1.14644 0
M  V30 9264 O 867.167 1.81752 -0.165055 0
M  V30 9265 C 867.218 0.84254 -3.51544 0
M  V30 9266 O 866.939 -0.257318 -4.37344 0
M  V30 9267 C 868.44 1.53351 -4.15931 0
M  V30 9268 H 865.66 0.0818131 -0.665994 0
M  V30 9269 H 868.204 -0.397795 -2.00594 0
M  V30 9270 H 866.359 1.54503 -3.55257 0
M  V30 9271 H 866.773 0.116593 -5.2437 0
M  V30 9272 H 868.247 1.82643 -5.20908 0
M  V30 9273 H 868.724 2.4626 -3.63666 0
M  V30 9274 H 869.33 0.87506 -4.162 0
M  V30 9275 N 867.645 1.57599 0.00500368 0
M  V30 9276 C 868.885 1.92205 0.695456 0
M  V30 9277 C 869.249 0.868894 1.71214 0
M  V30 9278 O 870.45 1.10004 2.4526 0
M  V30 9279 C 868.721 3.31882 1.32625 0
M  V30 9280 S 870.28 3.88364 2.04252 0
M  V30 9281 H 867.098 0.672826 0.22984 0
M  V30 9282 H 869.7 1.95435 -0.0504824 0
M  V30 9283 H 868.404 4.06375 0.573396 0
M  V30 9284 H 867.935 3.32013 2.11023 0
M  V30 9285 H 869.95 3.69035 3.31704 0
M  V30 9286 N 869.123 -0.277682 1.55134 0
M  V30 9287 C 870.371 -1.00791 1.75173 0
M  V30 9288 C 870.692 -1.86987 0.553266 0
M  V30 9289 O 869.962 -1.91079 -0.43195 0
M  V30 9290 H 868.542 -0.375129 0.645978 0
M  V30 9291 H 871.204 -0.303041 1.9253 0
M  V30 9292 H 870.3 -1.64756 2.6507 0
M  V30 9293 N 870.601 -1.47988 -0.541979 0
M  V30 9294 C 871.564 -1.61148 -1.62984 0
M  V30 9295 C 872.564 -0.48553 -1.53295 0
M  V30 9296 O 873.754 -0.751012 -1.5718 0
M  V30 9297 C 870.886 -1.57038 -3.02576 0
M  V30 9298 H 872.079 -2.58138 -1.52659 0
M  V30 9299 H 869.632 -1.36405 -0.763106 0
M  V30 9300 H 870.367 -0.614807 -3.18419 0
M  V30 9301 H 870.152 -2.38769 -3.11018 0
M  V30 9302 H 871.642 -1.69416 -3.81691 0
M  V30 9303 N 872.079 0.78992 -1.36375 0
M  V30 9304 C 873.042 1.88414 -1.30509 0
M  V30 9305 C 874.042 1.59384 -0.2129 0
M  V30 9306 O 875.232 1.67805 -0.467651 0
M  V30 9307 C 872.364 3.25188 -1.02302 0
M  V30 9308 H 873.557 1.95031 -2.27822 0
M  V30 9309 H 871.11 0.987664 -1.2114 0
M  V30 9310 H 871.845 3.24254 -0.0544486 0
M  V30 9311 H 871.63 3.47647 -1.81338 0
M  V30 9312 H 873.12 4.05252 -1.00801 0
M  V30 9313 N 873.557 1.20646 1.01402 0
M  V30 9314 C 874.834 0.927176 1.72229 0
M  V30 9315 C 875.214 -0.563382 2.03443 0
M  V30 9316 O 874.562 -1.52576 1.70096 0
M  V30 9317 C 874.772 1.80285 2.98828 0
M  V30 9318 C 876.12 2.04624 3.72041 0
M  V30 9319 O 877.144 1.77559 3.0879 0
M  V30 9320 O 876.003 2.50347 4.85787 0
M  V30 9321 H 873.097 0.346891 0.75073 0
M  V30 9322 H 875.643 1.31532 1.07227 0
M  V30 9323 H 874.415 2.81204 2.72102 0
M  V30 9324 H 874.038 1.41495 3.71571 0
M  V30 9325 N 875.035 -1.20752 1.01276 0
M  V30 9326 C 875.985 -2.21252 0.550602 0
M  V30 9327 C 876.969 -1.56052 -0.391985 0
M  V30 9328 O 878.161 -1.75682 -0.215575 0
M  V30 9329 C 875.29 -3.43112 -0.113601 0
M  V30 9330 C 874.376 -4.15485 0.850465 0
M  V30 9331 N 874.767 -4.64301 2.00643 0
M  V30 9332 C 873.065 -4.40932 0.670476 0
M  V30 9333 C 873.766 -5.197 2.61317 0
M  V30 9334 N 872.742 -5.09534 1.8941 0
M  V30 9335 H 876.544 -2.56657 1.43194 0
M  V30 9336 H 874.058 -1.36646 0.877597 0
M  V30 9337 H 876.055 -4.1433 -0.462211 0
M  V30 9338 H 874.715 -3.09213 -0.990825 0
M  V30 9339 H 875.726 -4.59637 2.38651 0
M  V30 9340 H 872.403 -4.17197 -0.159016 0
M  V30 9341 H 873.793 -5.67873 3.59123 0
M  V30 9342 N 876.513 -0.788492 -1.36457 0
M  V30 9343 C 877.759 -0.370067 -2.00005 0
M  V30 9344 C 878.114 1.0464 -1.61456 0
M  V30 9345 O 877.407 1.71277 -0.85876 0
M  V30 9346 C 877.601 -0.470255 -3.54293 0
M  V30 9347 C 877.43 -1.89492 -4.07827 0
M  V30 9348 C 876.2 -2.51932 -4.38016 0
M  V30 9349 C 878.398 -2.85692 -4.2765 0
M  V30 9350 N 876.38 -3.85997 -4.77368 0
M  V30 9351 C 877.751 -4.04588 -4.69796 0
M  V30 9352 C 879.806 -2.8276 -4.09818 0
M  V30 9353 C 878.509 -5.2096 -4.95977 0
M  V30 9354 C 880.535 -3.98319 -4.37145 0
M  V30 9355 C 879.897 -5.1596 -4.79547 0
M  V30 9356 H 875.996 -0.182813 -0.760331 0
M  V30 9357 H 878.58 -1.02589 -1.6548 0
M  V30 9358 H 876.751 0.155476 -3.88089 0
M  V30 9359 H 878.483 -0.0281643 -4.0469 0
M  V30 9360 H 875.238 -2.0342 -4.27688 0
M  V30 9361 H 875.662 -4.54971 -5.01329 0
M  V30 9362 H 880.304 -1.92971 -3.76194 0
M  V30 9363 H 878.022 -6.11335 -5.28483 0
M  V30 9364 H 881.608 -3.97411 -4.24919 0
M  V30 9365 H 880.488 -6.03893 -5.00283 0
M  V30 9366 N 877.991 1.48044 -0.54043 0
M  V30 9367 C 879.268 1.95523 0.0547302 0
M  V30 9368 C 879.648 1.48284 1.5025 0
M  V30 9369 O 878.996 0.714037 2.17057 0
M  V30 9370 C 879.206 3.48923 -0.0733393 0
M  V30 9371 C 880.554 4.24523 0.0806026 0
M  V30 9372 O 881.578 3.562 -5.58687e-05 0
M  V30 9373 O 880.437 5.45922 0.251216 0
M  V30 9374 H 877.531 0.823728 0.073493 0
M  V30 9375 H 880.077 1.5852 -0.605768 0
M  V30 9376 H 878.849 3.76059 -1.08144 0
M  V30 9377 H 878.472 3.92648 0.625536 0
M  V30 9378 N 879.47 0.276058 1.55163 0
M  V30 9379 C 880.695 -0.346648 2.04483 0
M  V30 9380 C 881.12 -1.48613 1.15308 0
M  V30 9381 O 880.478 -1.80663 0.151875 0
M  V30 9382 C 880.526 -0.804268 3.51517 0
M  V30 9383 O 879.63 -1.91143 3.65429 0
M  V30 9384 H 878.971 -0.0715251 0.660136 0
M  V30 9385 H 881.501 0.410631 2.00437 0
M  V30 9386 H 881.511 -1.09977 3.92898 0
M  V30 9387 H 880.186 0.0294123 4.1589 0
M  V30 9388 H 878.763 -1.61839 3.3595 0
M  V30 9389 N 880.948 -1.576 0.00335426 0
M  V30 9390 C 881.895 -2.08632 -0.986975 0
M  V30 9391 C 882.865 -0.982491 -1.33927 0
M  V30 9392 O 884.05 -1.25513 -1.43705 0
M  V30 9393 C 881.19 -2.59705 -2.27261 0
M  V30 9394 C 880.303 -3.84002 -1.97905 0
M  V30 9395 C 879.438 -4.23563 -3.20574 0
M  V30 9396 C 878.477 -5.40688 -2.8692 0
M  V30 9397 N 877.614 -5.75526 -4.02136 0
M  V30 9398 H 882.454 -2.92977 -0.544855 0
M  V30 9399 H 879.991 -1.44831 -0.257376 0
M  V30 9400 H 881.949 -2.87395 -3.02423 0
M  V30 9401 H 880.579 -1.7823 -2.69136 0
M  V30 9402 H 879.631 -3.63199 -1.13096 0
M  V30 9403 H 880.943 -4.69261 -1.69102 0
M  V30 9404 H 880.097 -4.52554 -4.04079 0
M  V30 9405 H 878.836 -3.37019 -3.52518 0
M  V30 9406 H 877.841 -5.11417 -2.01822 0
M  V30 9407 H 879.066 -6.2891 -2.5622 0
M  V30 9408 H 877.012 -4.9194 -4.33971 0
M  V30 9409 H 876.929 -6.55367 -3.76869 0
M  V30 9410 H 878.197 -6.0911 -4.8642 0
M  V30 9411 N 882.426 0.269451 -1.5528 0
M  V30 9412 C 883.374 1.35303 -1.89198 0
M  V30 9413 C 884.368 1.50956 -0.768671 0
M  V30 9414 O 885.574 1.52699 -0.953054 0
M  V30 9415 H 881.949 0.452591 -0.600554 0
M  V30 9416 H 883.92 1.03949 -2.79709 0
M  V30 9417 C 882.669 2.70585 -2.18356 0
M  V30 9418 H 881.992 2.59332 -3.04281 0
M  V30 9419 H 883.432 3.45335 -2.46007 0
M  V30 9420 C 881.891 3.21954 -0.992327 0
M  V30 9421 O 882.421 4.01048 -0.228769 0
M  V30 9422 N 880.627 2.79682 -0.789062 0
M  V30 9423 H 880.174 2.15475 -1.41167 0
M  V30 9424 H 880.132 3.14399 0.00634776 0
M  V30 9425 N 883.904 1.48273 0.534124 0
M  V30 9426 C 885.15 1.56311 1.29208 0
M  V30 9427 C 885.483 0.234481 1.92779 0
M  V30 9428 O 884.758 -0.759143 1.79073 0
M  V30 9429 C 885.041 2.69831 2.3846 0
M  V30 9430 C 884.894 4.12385 1.79608 0
M  V30 9431 C 886.213 2.79133 3.40254 0
M  V30 9432 H 883.332 0.56899 0.468422 0
M  V30 9433 H 885.974 1.80429 0.595438 0
M  V30 9434 H 884.124 2.49397 2.97881 0
M  V30 9435 H 885.796 4.44246 1.24269 0
M  V30 9436 H 884.039 4.19579 1.10162 0
M  V30 9437 H 884.71 4.87629 2.58693 0
M  V30 9438 H 887.186 2.97632 2.90783 0
M  V30 9439 H 886.062 3.60298 4.14097 0
M  V30 9440 H 886.323 1.87122 4.00547 0
M  V30 9441 N 885.382 -0.782676 1.36792 0
M  V30 9442 C 886.607 -1.57676 1.34733 0
M  V30 9443 C 887.032 -1.87979 -0.0675253 0
M  V30 9444 O 886.39 -1.48404 -1.04144 0
M  V30 9445 C 886.438 -2.87047 2.18257 0
M  V30 9446 O 885.542 -3.80946 1.57969 0
M  V30 9447 H 884.883 -0.478034 0.460846 0
M  V30 9448 H 887.413 -0.969578 1.80168 0
M  V30 9449 H 887.423 -3.36254 2.31079 0
M  V30 9450 H 886.098 -2.64319 3.21104 0
M  V30 9451 H 884.675 -3.39558 1.54126 0
M  V30 9452 N 886.86 -1.21182 -1.00761 0
M  V30 9453 C 888.1 -1.03886 -1.76031 0
M  V30 9454 C 888.464 0.420593 -1.87337 0
M  V30 9455 O 889.665 0.713994 -2.59144 0
M  V30 9456 C 887.936 -1.71394 -3.13622 0
M  V30 9457 S 889.495 -1.69319 -4.04816 0
M  V30 9458 H 886.313 -0.372327 -0.605717 0
M  V30 9459 H 888.915 -1.53885 -1.20581 0
M  V30 9460 H 887.619 -2.76773 -3.03026 0
M  V30 9461 H 887.15 -1.21564 -3.74147 0
M  V30 9462 H 889.165 -0.732434 -4.90765 0
M  V30 9463 N 888.338 1.20213 -1.01915 0
M  V30 9464 C 889.285 2.2309 -0.591571 0
M  V30 9465 C 890.255 1.61465 0.389649 0
M  V30 9466 O 891.44 1.88606 0.288511 0
M  V30 9467 C 888.58 3.45045 0.0614028 0
M  V30 9468 C 887.693 4.21091 -0.964688 0
M  V30 9469 C 886.828 5.30448 -0.282499 0
M  V30 9470 C 885.867 5.98241 -1.29517 0
M  V30 9471 N 885.004 6.99182 -0.639472 0
M  V30 9472 H 889.844 2.59023 -1.47347 0
M  V30 9473 H 887.381 1.27274 -0.737547 0
M  V30 9474 H 889.339 4.14688 0.45714 0
M  V30 9475 H 887.969 3.09797 0.906937 0
M  V30 9476 H 887.021 3.50489 -1.47857 0
M  V30 9477 H 888.333 4.67662 -1.73475 0
M  V30 9478 H 887.487 6.06466 0.168603 0
M  V30 9479 H 886.226 4.84922 0.519843 0
M  V30 9480 H 885.231 5.20982 -1.75663 0
M  V30 9481 H 886.456 6.45853 -2.09884 0
M  V30 9482 H 884.402 6.55844 0.142955 0
M  V30 9483 H 884.319 7.43893 -1.34756 0
M  V30 9484 H 885.587 7.79212 -0.212047 0
M  V30 9485 N 889.816 0.795718 1.36037 0
M  V30 9486 C 890.764 0.18649 2.31851 0
M  V30 9487 C 891.758 -0.657704 1.56111 0
M  V30 9488 O 892.964 -0.552083 1.71324 0
M  V30 9489 H 889.339 0.0415363 0.750852 0
M  V30 9490 H 891.31 1.00992 2.8079 0
M  V30 9491 C 890.059 -0.65918 3.41394 0
M  V30 9492 H 889.382 -0.01894 3.99796 0
M  V30 9493 H 890.822 -1.05202 4.10741 0
M  V30 9494 C 889.281 -1.82011 2.83502 0
M  V30 9495 O 889.811 -2.91703 2.76174 0
M  V30 9496 N 888.017 -1.62821 2.40703 0
M  V30 9497 H 887.564 -0.735965 2.46863 0
M  V30 9498 H 887.522 -2.40657 2.02316 0
M  V30 9499 N 891.294 -1.47756 0.548274 0
M  V30 9500 C 892.534 -2.04387 0.0231354 0
M  V30 9501 C 892.898 -1.41438 -1.29843 0
M  V30 9502 O 894.099 -1.89064 -1.91072 0
M  V30 9503 C 892.37 -3.57316 -0.077482 0
M  V30 9504 S 893.929 -4.35339 -0.550038 0
M  V30 9505 H 890.747 -0.710694 0.0208428 0
M  V30 9506 H 893.349 -1.81239 0.732984 0
M  V30 9507 H 892.053 -4.00658 0.88888 0
M  V30 9508 H 891.584 -3.84947 -0.811157 0
M  V30 9509 H 893.599 -4.61957 -1.81135 0
M  V30 9510 N 892.772 -0.284283 -1.55015 0
M  V30 9511 C 893.997 0.335799 -2.04664 0
M  V30 9512 C 894.422 1.47999 -1.16094 0
M  V30 9513 O 893.78 1.8058 -0.161454 0
M  V30 9514 C 893.828 0.785615 -3.51938 0
M  V30 9515 O 892.932 1.89202 -3.66437 0
M  V30 9516 H 892.273 0.0680233 -0.660506 0
M  V30 9517 H 894.803 -0.421255 -2.00216 0
M  V30 9518 H 894.813 1.07892 -3.93476 0
M  V30 9519 H 893.488 -0.0514675 -4.15868 0
M  V30 9520 H 892.065 1.60055 -3.36804 0
M  V30 9521 N 894.251 1.57596 -0.0117121 0
M  V30 9522 C 895.5 1.9025 0.669921 0
M  V30 9523 C 895.813 0.887986 1.74282 0
M  V30 9524 O 897.019 1.10516 2.47989 0
M  V30 9525 C 895.475 3.37762 1.24277 0
M  V30 9526 C 895.083 4.47535 0.204076 0
M  V30 9527 C 896.827 3.79509 1.90192 0
M  V30 9528 C 894.734 5.86132 0.787577 0
M  V30 9529 H 893.664 0.709935 0.253984 0
M  V30 9530 H 896.315 1.8335 -0.0741718 0
M  V30 9531 H 894.697 3.39537 2.03791 0
M  V30 9532 H 895.871 4.57294 -0.56733 0
M  V30 9533 H 894.186 4.14881 -0.355305 0
M  V30 9534 H 896.783 4.80402 2.34773 0
M  V30 9535 H 897.126 3.13643 2.7374 0
M  V30 9536 H 897.659 3.80084 1.17394 0
M  V30 9537 H 894.398 6.55499 -0.00938418 0
M  V30 9538 H 893.918 5.80014 1.52787 0
M  V30 9539 H 895.597 6.34158 1.28265 0
M  V30 9540 N 895.729 -0.261212 1.5542 0
M  V30 9541 C 896.661 -1.34571 1.85535 0
M  V30 9542 C 897.674 -1.44979 0.740612 0
M  V30 9543 O 898.863 -1.46584 1.01859 0
M  V30 9544 C 895.963 -2.7258 2.01378 0
M  V30 9545 C 895.136 -2.84618 3.32131 0
M  V30 9546 C 894.195 -4.03379 3.37893 0
M  V30 9547 O 893.221 -3.93581 4.11197 0
M  V30 9548 N 894.423 -5.15893 2.66148 0
M  V30 9549 H 897.188 -1.09078 2.79145 0
M  V30 9550 H 894.749 -0.451327 1.55482 0
M  V30 9551 H 896.741 -3.50342 2.0259 0
M  V30 9552 H 895.311 -2.90844 1.14579 0
M  V30 9553 H 894.531 -1.93647 3.43358 0
M  V30 9554 H 895.819 -2.896 4.18341 0
M  V30 9555 H 895.217 -5.26743 2.06297 0
M  V30 9556 H 893.774 -5.91842 2.73069 0
M  V30 9557 N 897.207 -1.48554 -0.526253 0
M  V30 9558 C 898.623 -1.34757 -0.855138 0
M  V30 9559 C 898.823 -0.36142 -1.98232 0
M  V30 9560 O 897.879 0.216026 -2.51574 0
M  V30 9561 C 899.192 -2.74877 -1.21915 0
M  V30 9562 C 900.74 -2.83393 -1.32882 0
M  V30 9563 C 901.215 -4.24223 -1.72624 0
M  V30 9564 N 902.706 -4.26913 -1.7972 0
M  V30 9565 C 903.441 -5.32824 -2.11863 0
M  V30 9566 N 902.937 -6.49008 -2.42405 0
M  V30 9567 N 904.73 -5.20221 -2.12901 0
M  V30 9568 H 896.881 -2.11284 0.217422 0
M  V30 9569 H 899.144 -0.947367 0.0346362 0
M  V30 9570 H 898.85 -3.48619 -0.464486 0
M  V30 9571 H 898.724 -3.0864 -2.16844 0
M  V30 9572 H 901.111 -2.09904 -2.07424 0
M  V30 9573 H 901.192 -2.53245 -0.360638 0
M  V30 9574 H 900.836 -4.98229 -0.986411 0
M  V30 9575 H 900.766 -4.51817 -2.70498 0
M  V30 9576 H 903.257 -3.4311 -1.58379 0
M  V30 9577 H 903.57 -7.25561 -2.66048 0
M  V30 9578 H 901.915 -6.52277 -2.39917 0
M  V30 9579 H 905.106 -4.28469 -1.885 0
M  V30 9580 H 905.279 -6.02861 -2.37619 0
M  V30 9581 N 898.685 0.775411 -1.37205 0
M  V30 9582 C 899.933 1.53081 -1.3195 0
M  V30 9583 C 900.254 1.9476 0.0966864 0
M  V30 9584 O 899.524 1.66019 1.03993 0
M  V30 9585 H 898.104 0.567762 -0.485444 0
M  V30 9586 H 900.766 0.92309 -1.71654 0
M  V30 9587 H 899.862 2.4319 -1.95614 0
M  V30 9588 N 900.163 1.21714 1.00117 0
M  V30 9589 C 901.388 1.06357 1.78054 0
M  V30 9590 C 901.813 -0.382075 1.84179 0
M  V30 9591 O 901.171 -1.27575 1.28819 0
M  V30 9592 C 901.219 1.66982 3.19608 0
M  V30 9593 O 900.323 0.917892 4.02055 0
M  V30 9594 H 899.664 0.374074 0.548602 0
M  V30 9595 H 902.194 1.61338 1.25822 0
M  V30 9596 H 902.204 1.71363 3.70268 0
M  V30 9597 H 900.879 2.72185 3.14465 0
M  V30 9598 H 899.456 0.949473 3.6061 0
M  V30 9599 N 901.641 -1.19671 1.02551 0
M  V30 9600 C 902.588 -2.22773 0.603394 0
M  V30 9601 C 903.558 -1.61669 -0.381081 0
M  V30 9602 O 904.743 -1.88756 -0.278505 0
M  V30 9603 C 901.883 -3.45073 -0.0431034 0
M  V30 9604 C 900.996 -4.20574 0.987006 0
M  V30 9605 C 900.131 -5.30291 0.310626 0
M  V30 9606 C 899.17 -5.97545 1.32688 0
M  V30 9607 N 898.307 -6.98833 0.676542 0
M  V30 9608 H 903.147 -2.58238 1.48719 0
M  V30 9609 H 900.684 -1.26881 0.744286 0
M  V30 9610 H 902.642 -4.14925 -0.435141 0
M  V30 9611 H 901.272 -3.10274 -0.890495 0
M  V30 9612 H 900.324 -3.497 1.49713 0
M  V30 9613 H 901.636 -4.66736 1.75952 0
M  V30 9614 H 900.79 -6.06547 -0.136438 0
M  V30 9615 H 899.529 -4.8519 -0.49412 0
M  V30 9616 H 898.534 -5.20043 1.78424 0
M  V30 9617 H 899.759 -6.4473 2.13306 0
M  V30 9618 H 897.705 -6.55911 -0.108172 0
M  V30 9619 H 897.622 -7.43168 1.38699 0
M  V30 9620 H 898.89 -7.79088 0.253367 0
M  V30 9621 N 903.119 -0.802921 -1.35613 0
M  V30 9622 C 904.066 -0.20874 -2.29854 0
M  V30 9623 C 905.036 0.655128 -1.52634 0
M  V30 9624 O 906.221 0.600979 -1.81088 0
M  V30 9625 C 903.361 0.639663 -3.3912 0
M  V30 9626 C 902.474 -0.244234 -4.31309 0
M  V30 9627 C 901.609 0.611825 -5.27665 0
M  V30 9628 C 900.648 -0.272698 -6.11492 0
M  V30 9629 N 899.785 0.543122 -6.99996 0
M  V30 9630 H 904.625 -1.01782 -2.80079 0
M  V30 9631 H 902.162 -0.513465 -1.37848 0
M  V30 9632 H 904.12 1.14668 -4.01132 0
M  V30 9633 H 902.75 1.41404 -2.9018 0
M  V30 9634 H 901.802 -0.869322 -3.70334 0
M  V30 9635 H 903.114 -0.925202 -4.90144 0
M  V30 9636 H 902.268 1.18412 -5.95032 0
M  V30 9637 H 901.007 1.32637 -4.69317 0
M  V30 9638 H 900.012 -0.857287 -5.43075 0
M  V30 9639 H 901.237 -0.985051 -6.71918 0
M  V30 9640 H 899.183 1.24171 -6.44141 0
M  V30 9641 H 899.1 -0.0798767 -7.55958 0
M  V30 9642 H 900.368 1.09881 -7.71717 0
M  V30 9643 N 904.597 1.47463 -0.556102 0
M  V30 9644 C 905.547 2.27007 0.212592 0
M  V30 9645 C 906.531 1.34288 0.886312 0
M  V30 9646 O 907.723 1.5865 0.784801 0
M  V30 9647 C 904.852 3.20021 1.24263 0
M  V30 9648 C 903.938 4.2022 0.572385 0
M  V30 9649 N 904.329 5.04539 -0.35691 0
M  V30 9650 C 902.627 4.38276 0.826441 0
M  V30 9651 C 903.328 5.76895 -0.746134 0
M  V30 9652 N 902.304 5.43506 -0.101225 0
M  V30 9653 H 906.106 2.89582 -0.501925 0
M  V30 9654 H 903.62 1.57988 -0.375961 0
M  V30 9655 H 905.617 3.7569 1.80728 0
M  V30 9656 H 904.277 2.59003 1.95826 0
M  V30 9657 H 905.288 5.12715 -0.731012 0
M  V30 9658 H 901.965 3.88429 1.53066 0
M  V30 9659 H 903.355 6.5472 -1.50967 0
M  V30 9660 N 906.075 0.2925 1.54862 0
M  V30 9661 C 907.005 -0.580677 2.26165 0
M  V30 9662 C 907.986 -1.14485 1.25806 0
M  V30 9663 O 909.171 -1.17577 1.54562 0
M  V30 9664 C 906.301 -1.75668 2.99596 0
M  V30 9665 C 905.255 -1.32325 4.07031 0
M  V30 9666 C 904.581 -2.58374 4.68131 0
M  V30 9667 C 905.881 -0.460703 5.20264 0
M  V30 9668 H 907.575 0.0140075 2.99397 0
M  V30 9669 H 905.121 0.00817706 1.43998 0
M  V30 9670 H 907.074 -2.37356 3.48195 0
M  V30 9671 H 905.798 -2.37747 2.23928 0
M  V30 9672 H 904.457 -0.729477 3.59269 0
M  V30 9673 H 904.105 -3.18749 3.89112 0
M  V30 9674 H 903.805 -2.30078 5.40683 0
M  V30 9675 H 905.329 -3.2088 5.19489 0
M  V30 9676 H 906.743 -0.983037 5.64809 0
M  V30 9677 H 905.14 -0.271881 5.99484 0
M  V30 9678 H 906.21 0.516304 4.82143 0
M  V30 9679 N 907.553 -1.57587 0.0200696 0
M  V30 9680 C 908.483 -2.12702 -0.963333 0
M  V30 9681 C 909.464 -1.04094 -1.34531 0
M  V30 9682 O 910.649 -1.31881 -1.42552 0
M  V30 9683 C 907.779 -2.64673 -2.24868 0
M  V30 9684 C 906.733 -3.77987 -2.00772 0
M  V30 9685 C 906.059 -4.16351 -3.35494 0
M  V30 9686 C 907.359 -5.0444 -1.35416 0
M  V30 9687 H 909.053 -2.95121 -0.504363 0
M  V30 9688 H 906.599 -1.41966 -0.24116 0
M  V30 9689 H 908.552 -3.01862 -2.94036 0
M  V30 9690 H 907.276 -1.79403 -2.72914 0
M  V30 9691 H 905.935 -3.41223 -1.34025 0
M  V30 9692 H 905.583 -3.28075 -3.81282 0
M  V30 9693 H 905.283 -4.92705 -3.20181 0
M  V30 9694 H 906.807 -4.56115 -4.05945 0
M  V30 9695 H 908.221 -5.39273 -1.94571 0
M  V30 9696 H 906.618 -5.85732 -1.30529 0
M  V30 9697 H 907.688 -4.83803 -0.325923 0
M  V30 9698 N 909.032 0.252966 -1.55557 0
M  V30 9699 C 909.962 1.31691 -1.9282 0
M  V30 9700 C 910.943 1.50516 -0.7924 0
M  V30 9701 O 912.128 1.63225 -1.05219 0
M  V30 9702 C 909.258 2.67281 -2.21762 0
M  V30 9703 C 908.212 2.6316 -3.37536 0
M  V30 9704 C 907.538 4.02488 -3.52005 0
M  V30 9705 C 908.838 2.20675 -4.73392 0
M  V30 9706 H 910.532 1.00751 -2.81939 0
M  V30 9707 H 908.078 0.483219 -1.3565 0
M  V30 9708 H 910.031 3.41842 -2.46419 0
M  V30 9709 H 908.755 2.99845 -1.29463 0
M  V30 9710 H 907.414 1.91057 -3.12878 0
M  V30 9711 H 907.062 4.32307 -2.57137 0
M  V30 9712 H 906.762 4.00621 -4.29857 0
M  V30 9713 H 908.286 4.78758 -3.78977 0
M  V30 9714 H 909.7 2.84965 -4.97461 0
M  V30 9715 H 908.097 2.29931 -5.54303 0
M  V30 9716 H 909.167 1.15831 -4.70862 0
M  V30 9717 N 910.51 1.48831 0.518367 0
M  V30 9718 C 911.473 1.63721 1.604 0
M  V30 9719 C 912.473 0.509857 1.52503 0
M  V30 9720 O 913.663 0.775922 1.55965 0
M  V30 9721 C 910.795 1.61831 3.00039 0
M  V30 9722 H 911.988 2.60534 1.48533 0
M  V30 9723 H 909.541 1.37602 0.741309 0
M  V30 9724 H 910.276 0.665387 3.17401 0
M  V30 9725 H 910.061 2.43686 3.0718 0
M  V30 9726 H 911.551 1.75467 3.78947 0
M  V30 9727 N 911.988 -0.768124 1.37614 0
M  V30 9728 C 913.399 -1.34462 1.29525 0
M  V30 9729 C 913.75 -1.96121 -0.0555168 0
M  V30 9730 O 912.875 -1.94069 -0.957406 0
M  V30 9731 C 913.47 -2.44475 2.34558 0
M  V30 9732 C 912.029 -2.97883 2.30093 0
M  V30 9733 C 911.176 -1.71131 2.18196 0
M  V30 9734 H 914.127 -0.568103 1.48183 0
M  V30 9735 H 914.148 -3.24047 1.99434 0
M  V30 9736 H 913.66 -1.99568 3.32858 0
M  V30 9737 H 911.761 -3.47156 1.35328 0
M  V30 9738 H 911.874 -3.53251 3.23652 0
M  V30 9739 H 910.238 -1.94197 1.64802 0
M  V30 9740 H 911.021 -1.28323 3.18415 0
M  V30 9741 N 913.466 -1.22244 -0.994698 0
M  V30 9742 C 914.691 -1.07299 -1.77487 0
M  V30 9743 C 915.116 0.372302 -1.84379 0
M  V30 9744 O 914.474 1.2689 -1.29494 0
M  V30 9745 C 914.522 -1.68675 -3.18718 0
M  V30 9746 O 913.626 -0.939202 -4.01563 0
M  V30 9747 H 912.967 -0.376979 -0.546611 0
M  V30 9748 H 915.497 -1.62003 -1.24965 0
M  V30 9749 H 915.507 -1.73324 -3.69354 0
M  V30 9750 H 914.182 -2.73849 -3.13017 0
M  V30 9751 H 912.759 -0.968583 -3.60101 0
M  V30 9752 N 914.944 1.19125 -1.03184 0
M  V30 9753 C 916.221 1.84674 -0.644574 0
M  V30 9754 C 916.601 1.92042 0.876534 0
M  V30 9755 O 915.949 1.43965 1.77444 0
M  V30 9756 C 916.159 3.23477 -1.3101 0
M  V30 9757 C 917.507 3.99608 -1.43524 0
M  V30 9758 O 918.531 3.32886 -1.2675 0
M  V30 9759 O 917.39 5.19132 -1.70776 0
M  V30 9760 H 914.484 0.795968 -0.22442 0
M  V30 9761 H 917.03 1.2659 -1.13018 0
M  V30 9762 H 915.802 3.12967 -2.34878 0
M  V30 9763 H 915.425 3.89209 -0.812547 0
M  V30 9764 N 916.422 0.810101 1.35185 0
M  V30 9765 C 917.668 0.392698 1.98962 0
M  V30 9766 C 918.001 -1.03835 1.64109 0
M  V30 9767 O 917.276 -1.721 0.9062 0
M  V30 9768 C 917.559 0.580349 3.55393 0
M  V30 9769 C 917.412 2.05658 4.00031 0
M  V30 9770 C 918.731 0.00822618 4.40099 0
M  V30 9771 H 915.85 0.144157 0.722764 0
M  V30 9772 H 918.492 1.02029 1.60281 0
M  V30 9773 H 916.642 0.0461106 3.88473 0
M  V30 9774 H 918.314 2.65348 3.77344 0
M  V30 9775 H 916.557 2.55174 3.50811 0
M  V30 9776 H 917.228 2.13875 5.08883 0
M  V30 9777 H 919.704 0.464517 4.13499 0
M  V30 9778 H 918.58 0.169414 5.48638 0
M  V30 9779 H 918.841 -1.08576 4.2856 0
M  V30 9780 N 917.9 -1.47166 0.563914 0
M  V30 9781 C 918.863 -2.28571 -0.169624 0
M  V30 9782 C 919.863 -1.37331 -0.836467 0
M  V30 9783 O 921.053 -1.59896 -0.6913 0
M  V30 9784 C 918.185 -3.17201 -1.24886 0
M  V30 9785 H 919.378 -2.94896 0.545539 0
M  V30 9786 H 916.931 -1.52966 0.321121 0
M  V30 9787 H 917.666 -2.55582 -1.99621 0
M  V30 9788 H 917.451 -3.84356 -0.775426 0
M  V30 9789 H 918.941 -3.7852 -1.76388 0
M  V30 9790 N 919.378 -0.300708 -1.54705 0
M  V30 9791 C 920.626 0.308044 -1.99739 0
M  V30 9792 C 920.947 1.54433 -1.19061 0
M  V30 9793 O 920.217 1.93794 -0.286507 0
M  V30 9794 H 918.797 0.116811 -0.73781 0
M  V30 9795 H 921.459 -0.41197 -1.90496 0
M  V30 9796 H 920.555 0.580287 -3.06658 0
M  V30 9797 N 920.856 1.57574 -0.0284266 0
M  V30 9798 C 922.102 1.92884 0.645544 0
M  V30 9799 C 922.457 0.905203 1.69776 0
M  V30 9800 O 921.75 -0.0788509 1.91438 0
M  V30 9801 C 921.944 3.32699 1.3056 0
M  V30 9802 C 921.773 4.48568 0.318848 0
M  V30 9803 C 920.543 5.05235 -0.0810373 0
M  V30 9804 C 922.741 5.12528 -0.426575 0
M  V30 9805 N 920.723 6.04626 -1.06303 0
M  V30 9806 C 922.094 6.07013 -1.26235 0
M  V30 9807 C 924.149 4.95509 -0.48735 0
M  V30 9808 C 922.852 6.8631 -2.15341 0
M  V30 9809 C 924.878 5.75414 -1.36575 0
M  V30 9810 C 924.24 6.69514 -2.1893 0
M  V30 9811 H 920.339 0.753677 0.208555 0
M  V30 9812 H 922.923 1.94466 -0.095439 0
M  V30 9813 H 921.094 3.31938 2.01673 0
M  V30 9814 H 922.826 3.55359 1.93655 0
M  V30 9815 H 919.581 4.72691 0.293264 0
M  V30 9816 H 920.005 6.59012 -1.55025 0
M  V30 9817 H 924.647 4.22584 0.135112 0
M  V30 9818 H 922.365 7.58541 -2.78642 0
M  V30 9819 H 925.951 5.64279 -1.41705 0
M  V30 9820 H 924.831 7.30266 -2.85799 0
M  V30 9821 N 922.334 -0.244713 1.55689 0
M  V30 9822 C 923.582 -0.970525 1.77272 0
M  V30 9823 C 923.903 -1.85771 0.592804 0
M  V30 9824 O 923.173 -1.91952 -0.391323 0
M  V30 9825 H 921.753 -0.361342 0.653789 0
M  V30 9826 H 924.415 -0.262134 1.93129 0
M  V30 9827 H 923.511 -1.59096 2.68505 0
M  V30 9828 N 923.813 -1.49104 -0.510467 0
M  V30 9829 C 925.062 -1.57362 -1.26175 0
M  V30 9830 C 925.375 -0.261218 -1.93848 0
M  V30 9831 O 926.581 -0.222238 -2.70589 0
M  V30 9832 C 925.037 -2.77606 -2.29048 0
M  V30 9833 C 924.645 -4.15567 -1.67357 0
M  V30 9834 C 926.389 -2.95188 -3.05064 0
M  V30 9835 C 924.296 -5.27046 -2.68285 0
M  V30 9836 H 923.226 -0.585887 -0.474608 0
M  V30 9837 H 925.877 -1.75474 -0.536753 0
M  V30 9838 H 924.259 -2.52968 -3.04669 0
M  V30 9839 H 925.433 -4.50304 -0.977924 0
M  V30 9840 H 923.748 -4.03264 -1.03765 0
M  V30 9841 H 926.345 -3.75643 -3.80521 0
M  V30 9842 H 926.688 -2.05385 -3.62108 0
M  V30 9843 H 927.221 -3.19821 -2.36558 0
M  V30 9844 H 923.96 -6.18878 -2.16034 0
M  V30 9845 H 923.48 -4.96774 -3.36118 0
M  V30 9846 H 925.159 -5.55983 -3.30896 0
M  V30 9847 N 925.291 0.760815 -1.38019 0
M  V30 9848 C 926.538 1.51973 -1.3383 0
M  V30 9849 C 926.866 1.9436 0.0738855 0
M  V30 9850 O 926.121 1.65181 1.04946 0
M  V30 9851 C 926.42 2.79024 -2.23339 0
M  V30 9852 C 926.086 2.55636 -3.71431 0
M  V30 9853 C 924.748 2.48966 -4.11788 0
M  V30 9854 C 927.1 2.35018 -4.65205 0
M  V30 9855 C 924.428 2.19684 -5.44018 0
M  V30 9856 C 926.78 2.07258 -5.97685 0
M  V30 9857 C 925.444 1.9904 -6.37134 0
M  V30 9858 H 924.714 0.556108 -0.489719 0
M  V30 9859 H 927.361 0.87545 -1.70318 0
M  V30 9860 H 925.666 3.48065 -1.79883 0
M  V30 9861 H 927.363 3.36951 -2.17405 0
M  V30 9862 H 923.953 2.61695 -3.39432 0
M  V30 9863 H 928.137 2.39154 -4.34878 0
M  V30 9864 H 923.393 2.11825 -5.73533 0
M  V30 9865 H 927.567 1.90307 -6.69893 0
M  V30 9866 H 925.194 1.76115 -7.39519 0
M  V30 9867 N 926.769 1.22769 0.988202 0
M  V30 9868 C 928.018 1.0492 1.72263 0
M  V30 9869 C 928.331 -0.415282 1.91141 0
M  V30 9870 O 929.537 -0.713547 2.61956 0
M  V30 9871 C 927.993 1.82891 3.09966 0
M  V30 9872 C 927.601 3.33618 2.99003 0
M  V30 9873 C 929.345 1.73505 3.87423 0
M  V30 9874 C 927.252 4.04012 4.3189 0
M  V30 9875 H 926.182 0.38899 0.645912 0
M  V30 9876 H 928.833 1.46664 1.10281 0
M  V30 9877 H 927.215 1.33948 3.72658 0
M  V30 9878 H 928.389 3.8999 2.45448 0
M  V30 9879 H 926.704 3.43732 2.35027 0
M  V30 9880 H 929.301 2.23416 4.85787 0
M  V30 9881 H 929.644 0.696344 4.10435 0
M  V30 9882 H 930.177 2.20016 3.31418 0
M  V30 9883 H 926.916 5.08155 4.14075 0
M  V30 9884 H 926.436 3.52428 4.8534 0
M  V30 9885 H 928.115 4.0987 5.00615 0
M  V30 9886 N 928.247 -1.18576 1.03814 0
M  V30 9887 C 929.194 -2.2212 0.626988 0
M  V30 9888 C 930.164 -1.62064 -0.363912 0
M  V30 9889 O 931.349 -1.89041 -0.258469 0
M  V30 9890 C 928.489 -3.45099 -0.00650133 0
M  V30 9891 C 927.602 -4.19503 1.03156 0
M  V30 9892 C 926.737 -5.29932 0.366852 0
M  V30 9893 C 925.776 -5.96104 1.39018 0
M  V30 9894 N 924.913 -6.98076 0.750625 0
M  V30 9895 H 929.753 -2.56646 1.51449 0
M  V30 9896 H 927.29 -1.26084 0.757702 0
M  V30 9897 H 929.248 -4.15363 -0.391108 0
M  V30 9898 H 927.878 -3.11201 -0.857536 0
M  V30 9899 H 926.93 -3.48092 1.53414 0
M  V30 9900 H 928.242 -4.64843 1.80893 0
M  V30 9901 H 927.396 -6.06657 -0.0720979 0
M  V30 9902 H 926.135 -4.85687 -0.442631 0
M  V30 9903 H 925.14 -5.18122 1.8393 0
M  V30 9904 H 926.365 -6.42432 2.20132 0
M  V30 9905 H 924.311 -6.55989 -0.0385981 0
M  V30 9906 H 924.228 -7.41655 1.46574 0
M  V30 9907 H 925.496 -7.78776 0.335986 0
M  V30 9908 N 929.725 -0.817259 -1.34754 0
M  V30 9909 C 931.002 -0.325468 -1.92873 0
M  V30 9910 C 931.382 1.18643 -1.74606 0
M  V30 9911 O 930.73 1.9909 -1.1214 0
M  V30 9912 C 930.94 -0.74858 -3.40877 0
M  V30 9913 C 932.288 -0.744165 -4.18028 0
M  V30 9914 O 933.312 -0.690799 -3.49437 0
M  V30 9915 O 932.171 -0.812207 -5.40431 0
M  V30 9916 H 929.265 -0.0876397 -0.822343 0
M  V30 9917 H 931.811 -0.901671 -1.43764 0
M  V30 9918 H 930.583 -1.79017 -3.47949 0
M  V30 9919 H 930.206 -0.147764 -3.97325 0
M  V30 9920 N 931.203 1.46865 -0.571711 0
M  V30 9921 C 932.614 1.86158 -0.142181 0
M  V30 9922 C 932.965 1.47663 1.2919 0
M  V30 9923 O 932.09 0.886393 1.97413 0
M  V30 9924 C 932.685 3.37867 -0.251256 0
M  V30 9925 C 931.244 3.76198 0.123329 0
M  V30 9926 C 930.391 2.70902 -0.592232 0
M  V30 9927 H 933.342 1.38176 -0.780587 0
M  V30 9928 H 933.363 3.76842 0.526331 0
M  V30 9929 H 932.875 3.65853 -1.2951 0
M  V30 9930 H 930.976 3.53829 1.16773 0
M  V30 9931 H 931.089 4.78471 -0.24533 0
M  V30 9932 H 929.453 2.54678 -0.0336927 0
M  V30 9933 H 930.236 3.01729 -1.63751 0
M  V30 9934 N 932.681 0.308908 1.54543 0
M  V30 9935 C 933.927 -0.298478 2.00592 0
M  V30 9936 C 934.26 -1.52929 1.19692 0
M  V30 9937 O 933.535 -1.9254 0.27542 0
M  V30 9938 C 933.818 -0.647218 3.54236 0
M  V30 9939 C 933.671 0.593284 4.4587 0
M  V30 9940 C 934.99 -1.47064 4.14801 0
M  V30 9941 H 932.109 -0.107012 0.72919 0
M  V30 9942 H 934.751 0.422578 1.85241 0
M  V30 9943 H 932.901 -1.26153 3.67447 0
M  V30 9944 H 934.573 1.2317 4.44552 0
M  V30 9945 H 932.816 1.22501 4.16144 0
M  V30 9946 H 933.487 0.305018 5.51157 0
M  V30 9947 H 935.963 -0.951511 4.05075 0
M  V30 9948 H 934.839 -1.68343 5.22448 0
M  V30 9949 H 935.1 -2.4623 3.67183 0
M  V30 9950 N 934.159 -1.57557 0.0367827 0
M  V30 9951 C 935.091 -2.07597 -0.971395 0
M  V30 9952 C 936.104 -1.0009 -1.28397 0
M  V30 9953 O 937.293 -1.27692 -1.24728 0
M  V30 9954 C 934.393 -2.492 -2.2968 0
M  V30 9955 C 933.566 -3.79875 -2.16826 0
M  V30 9956 C 932.625 -4.07946 -3.32366 0
M  V30 9957 O 931.651 -4.78083 -3.0891 0
M  V30 9958 N 932.853 -3.58722 -4.56397 0
M  V30 9959 H 935.618 -2.94714 -0.544389 0
M  V30 9960 H 933.179 -1.61205 -0.1498 0
M  V30 9961 H 935.171 -2.65065 -3.05815 0
M  V30 9962 H 933.741 -1.67407 -2.63995 0
M  V30 9963 H 932.961 -3.73732 -1.2537 0
M  V30 9964 H 934.249 -4.65476 -2.0545 0
M  V30 9965 H 933.647 -3.01994 -4.78347 0
M  V30 9966 H 932.204 -3.79852 -5.29675 0
M  V30 9967 N 935.637 0.236453 -1.55816 0
M  V30 9968 C 936.584 1.29289 -1.91188 0
M  V30 9969 C 937.554 1.47315 -0.767301 0
M  V30 9970 O 938.739 1.61128 -1.02189 0
M  V30 9971 C 935.879 2.64126 -2.22107 0
M  V30 9972 C 934.992 2.54022 -3.49423 0
M  V30 9973 C 934.127 3.81282 -3.69861 0
M  V30 9974 C 933.166 3.65839 -4.90743 0
M  V30 9975 N 932.303 4.85014 -5.07647 0
M  V30 9976 H 937.143 0.98424 -2.81277 0
M  V30 9977 H 934.68 0.474722 -1.39229 0
M  V30 9978 H 936.638 3.42626 -2.3804 0
M  V30 9979 H 935.268 2.93118 -1.35209 0
M  V30 9980 H 934.32 1.67036 -3.41765 0
M  V30 9981 H 935.632 2.38525 -4.38072 0
M  V30 9982 H 934.786 4.68226 -3.8581 0
M  V30 9983 H 933.525 3.99688 -2.79465 0
M  V30 9984 H 932.53 2.77279 -4.74759 0
M  V30 9985 H 933.755 3.48918 -5.82609 0
M  V30 9986 H 931.701 5.03762 -4.20191 0
M  V30 9987 H 931.618 4.72188 -5.90402 0
M  V30 9988 H 932.886 5.73427 -5.28017 0
M  V30 9989 N 937.115 1.49373 0.502552 0
M  V30 9990 C 938.063 1.66411 1.62512 0
M  V30 9991 C 939.057 0.530062 1.60893 0
M  V30 9992 O 940.263 0.709648 1.65421 0
M  V30 9993 H 936.638 0.524707 0.538689 0
M  V30 9994 H 938.609 2.60639 1.45293 0
M  V30 9995 C 937.358 1.74648 3.00655 0
M  V30 9996 H 936.681 2.61285 3.02606 0
M  V30 9997 H 938.121 1.90605 3.78742 0
M  V30 9998 C 936.58 0.490963 3.33303 0
M  V30 9999 O 937.11 -0.384039 3.9986 0
M  V30 10000 N 935.316 0.354375 2.88431 0
M  V30 10001 H 934.863 1.06742 2.34444 0
M  V30 10002 H 934.821 -0.484593 3.10643 0
M  V30 10003 N 938.594 -0.753485 1.38421 0
M  V30 10004 C 939.504 -1.89797 1.37892 0
M  V30 10005 C 940.52 -1.71797 0.276023 0
M  V30 10006 O 941.696 -1.94718 0.514464 0
M  V30 10007 C 938.761 -3.25166 1.20284 0
M  V30 10008 C 937.822 -3.55691 2.4038 0
M  V30 10009 C 937.055 -4.84601 2.23602 0
M  V30 10010 O 937.278 -5.56985 1.22979 0
M  V30 10011 O 936.212 -5.14605 3.12194 0
M  V30 10012 H 940.038 -1.93197 2.34326 0
M  V30 10013 H 937.623 -0.898775 1.19342 0
M  V30 10014 H 939.505 -4.06099 1.12525 0
M  V30 10015 H 938.18 -3.22577 0.269352 0
M  V30 10016 H 937.087 -2.74919 2.53714 0
M  V30 10017 H 938.42 -3.6304 3.32359 0
M  V30 10018 N 940.072 -1.23292 -0.981677 0
M  V30 10019 C 941.319 -1.06424 -1.72279 0
M  V30 10020 C 941.647 0.399055 -1.90362 0
M  V30 10021 O 940.902 1.31181 -1.45224 0
M  V30 10022 C 941.201 -1.73339 -3.12551 0
M  V30 10023 C 940.867 -3.23256 -3.14351 0
M  V30 10024 C 939.529 -3.64159 -3.14549 0
M  V30 10025 C 941.881 -4.1916 -3.09765 0
M  V30 10026 C 939.209 -4.99428 -3.07877 0
M  V30 10027 C 941.561 -5.54419 -3.04635 0
M  V30 10028 C 940.225 -5.94688 -3.03154 0
M  V30 10029 H 939.495 -0.389434 -0.630415 0
M  V30 10030 H 942.142 -1.53208 -1.1489 0
M  V30 10031 H 940.447 -1.18911 -3.73319 0
M  V30 10032 H 942.144 -1.57767 -3.68661 0
M  V30 10033 H 938.734 -2.90693 -3.14953 0
M  V30 10034 H 942.918 -3.88569 -3.08753 0
M  V30 10035 H 938.174 -5.29844 -3.05083 0
M  V30 10036 H 942.348 -6.28448 -3.00043 0
M  V30 10037 H 939.975 -6.99468 -2.97739 0
M  V30 10038 N 941.55 1.18024 -1.04442 0
M  V30 10039 C 942.799 1.8743 -0.745185 0
M  V30 10040 C 943.112 1.81459 0.730206 0
M  V30 10041 O 944.318 2.46263 1.1431 0
M  V30 10042 C 942.774 3.36266 -1.28271 0
M  V30 10043 C 942.382 3.50757 -2.787 0
M  V30 10044 C 944.126 4.11048 -1.06018 0
M  V30 10045 C 942.033 4.93573 -3.25791 0
M  V30 10046 H 940.963 0.702038 -0.27506 0
M  V30 10047 H 943.614 1.33333 -1.26073 0
M  V30 10048 H 941.996 3.89853 -0.695002 0
M  V30 10049 H 943.17 3.07423 -3.43261 0
M  V30 10050 H 941.485 2.89385 -2.99408 0
M  V30 10051 H 944.082 5.16395 -1.38711 0
M  V30 10052 H 944.425 4.163 0.00241716 0
M  V30 10053 H 944.958 3.63644 -1.61269 0
M  V30 10054 H 941.697 4.93491 -4.31447 0
M  V30 10055 H 941.217 5.37607 -2.65968 0
M  V30 10056 H 942.896 5.62307 -3.20031 0
M  V30 10057 N 943.028 0.824394 1.34319 0
M  V30 10058 C 944.253 0.425194 2.02995 0
M  V30 10059 C 944.678 -0.961476 1.6167 0
M  V30 10060 O 944.036 -1.62593 0.80207 0
M  V30 10061 C 944.084 0.537004 3.56579 0
M  V30 10062 O 943.188 -0.442576 4.10018 0
M  V30 10063 H 942.529 0.174853 0.640564 0
M  V30 10064 H 945.059 1.11522 1.71534 0
M  V30 10065 H 945.069 0.413311 4.05901 0
M  V30 10066 H 943.744 1.54836 3.86004 0
M  V30 10067 H 942.321 -0.277644 3.71865 0
M  V30 10068 N 944.506 -1.46559 0.579492 0
M  V30 10069 C 945.416 -2.34066 -0.15816 0
M  V30 10070 C 946.432 -1.49556 -0.88932 0
M  V30 10071 O 947.608 -1.82434 -0.853226 0
M  V30 10072 C 944.673 -3.26683 -1.161 0
M  V30 10073 C 943.734 -4.27092 -0.434855 0
M  V30 10074 C 942.967 -5.15283 -1.38992 0
M  V30 10075 O 943.19 -5.06345 -2.62623 0
M  V30 10076 O 942.124 -5.95099 -0.902253 0
M  V30 10077 H 945.95 -2.98488 0.560234 0
M  V30 10078 H 943.535 -1.45482 0.339918 0
M  V30 10079 H 945.417 -3.8383 -1.73932 0
M  V30 10080 H 944.092 -2.64862 -1.86091 0
M  V30 10081 H 942.999 -3.73641 0.185224 0
M  V30 10082 H 944.332 -4.9169 0.224031 0
M  V30 10083 N 945.984 -0.3171 -1.54377 0
M  V30 10084 C 947.214 0.289138 -2.04567 0
M  V30 10085 C 947.622 1.46833 -1.19318 0
M  V30 10086 O 946.965 1.82436 -0.215141 0
M  V30 10087 C 947.027 0.792994 -3.50645 0
M  V30 10088 C 946.691 -0.263033 -4.56242 0
M  V30 10089 C 947.688 -1.09694 -5.08196 0
M  V30 10090 C 945.373 -0.409364 -5.00629 0
M  V30 10091 C 947.367 -2.06297 -6.03092 0
M  V30 10092 C 945.054 -1.37882 -5.95342 0
M  V30 10093 C 946.052 -2.20409 -6.46459 0
M  V30 10094 O 945.74 -3.15708 -7.39313 0
M  V30 10095 H 945.472 0.0644005 -0.672925 0
M  V30 10096 H 948.026 -0.459438 -2.00196 0
M  V30 10097 H 946.256 1.59237 -3.52392 0
M  V30 10098 H 947.945 1.31687 -3.83944 0
M  V30 10099 H 948.711 -0.994842 -4.74687 0
M  V30 10100 H 944.59 0.223091 -4.6046 0
M  V30 10101 H 948.134 -2.70751 -6.42915 0
M  V30 10102 H 944.031 -1.48158 -6.28267 0
M  V30 10103 H 944.799 -3.10873 -7.57166 0
M  V30 10104 N 947.462 1.57535 -0.0451378 0
M  V30 10105 C 948.702 1.9432 0.633955 0
M  V30 10106 C 949.066 0.922924 1.68363 0
M  V30 10107 O 950.267 1.17751 2.41636 0
M  V30 10108 C 948.538 3.35933 1.21999 0
M  V30 10109 S 950.097 3.94666 1.91793 0
M  V30 10110 H 946.915 0.679798 0.208318 0
M  V30 10111 H 949.517 1.95175 -0.112633 0
M  V30 10112 H 948.221 4.07993 0.443821 0
M  V30 10113 H 947.752 3.38559 2.00353 0
M  V30 10114 H 949.767 3.79401 3.19796 0
M  V30 10115 N 948.94 -0.228186 1.55939 0
M  V30 10116 C 950.188 -0.951668 1.78291 0
M  V30 10117 C 950.509 -1.85132 0.612474 0
M  V30 10118 O 949.779 -1.92356 -0.370942 0
M  V30 10119 H 948.359 -0.354388 0.657585 0
M  V30 10120 H 951.021 -0.241635 1.93396 0
M  V30 10121 H 950.117 -1.56239 2.70177 0
M  V30 10122 N 950.418 -1.49637 -0.494624 0
M  V30 10123 C 951.328 -1.69522 -1.62172 0
M  V30 10124 C 952.344 -0.577894 -1.64123 0
M  V30 10125 O 953.52 -0.853382 -1.82426 0
M  V30 10126 C 950.585 -1.7633 -2.9851 0
M  V30 10127 C 949.646 -2.99944 -3.07135 0
M  V30 10128 C 948.879 -3.06419 -4.36971 0
M  V30 10129 O 949.102 -2.20312 -5.26136 0
M  V30 10130 O 948.036 -3.9894 -4.507 0
M  V30 10131 H 951.862 -2.65017 -1.48324 0
M  V30 10132 H 949.447 -1.33454 -0.671603 0
M  V30 10133 H 951.329 -1.83125 -3.7953 0
M  V30 10134 H 950.004 -0.840155 -3.12607 0
M  V30 10135 H 948.911 -2.98664 -2.2528 0
M  V30 10136 H 950.244 -3.9176 -2.97968 0
M  V30 10137 N 951.896 0.746133 -1.38819 0
M  V30 10138 C 953.145 1.50085 -1.34749 0
M  V30 10139 C 953.458 1.95516 0.0574786 0
M  V30 10140 O 954.664 2.70601 0.22073 0
M  V30 10141 C 953.12 2.71141 -2.36665 0
M  V30 10142 C 952.728 2.32706 -3.82821 0
M  V30 10143 C 954.472 3.49005 -2.41652 0
M  V30 10144 C 952.379 3.50418 -4.76405 0
M  V30 10145 H 951.309 0.563563 -0.500912 0
M  V30 10146 H 953.96 0.814951 -1.6441 0
M  V30 10147 H 952.342 3.4175 -2.00058 0
M  V30 10148 H 953.516 1.69715 -4.28408 0
M  V30 10149 H 951.831 1.67959 -3.81023 0
M  V30 10150 H 954.428 4.36541 -3.08766 0
M  V30 10151 H 954.771 3.90687 -1.43769 0
M  V30 10152 H 955.304 2.85416 -2.77097 0
M  V30 10153 H 952.043 3.13795 -5.75511 0
M  V30 10154 H 951.563 4.12426 -4.35505 0
M  V30 10155 H 953.242 4.16901 -4.94775 0
M  V30 10156 N 953.375 1.23811 0.975125 0
M  V30 10157 C 954.624 1.06741 1.71141 0
M  V30 10158 C 954.937 -0.394986 1.9157 0
M  V30 10159 O 956.143 -0.685723 2.62698 0
M  V30 10160 C 954.599 1.86168 3.08009 0
M  V30 10161 C 954.207 3.36771 2.95448 0
M  V30 10162 C 955.951 1.77604 3.85561 0
M  V30 10163 C 953.858 4.0857 4.2758 0
M  V30 10164 H 952.788 0.395819 0.64175 0
M  V30 10165 H 955.439 1.47825 1.0872 0
M  V30 10166 H 953.821 1.37893 3.71216 0
M  V30 10167 H 954.995 3.92571 2.41298 0
M  V30 10168 H 953.31 3.46205 2.31368 0
M  V30 10169 H 955.907 2.28556 4.83391 0
M  V30 10170 H 956.25 0.739837 4.09673 0
M  V30 10171 H 956.783 2.23519 3.29065 0
M  V30 10172 H 953.522 5.12518 4.08663 0
M  V30 10173 H 953.042 3.57556 4.81574 0
M  V30 10174 H 954.721 4.15157 4.9624 0
M  V30 10175 N 954.853 -1.17469 1.05066 0
M  V30 10176 C 956.078 -1.92162 0.780298 0
M  V30 10177 C 956.503 -1.76222 -0.657832 0
M  V30 10178 O 955.861 -1.0791 -1.45688 0
M  V30 10179 C 955.909 -3.41292 1.16414 0
M  V30 10180 O 955.013 -4.1134 0.295531 0
M  V30 10181 H 954.354 -0.599127 0.286257 0
M  V30 10182 H 956.884 -1.48903 1.40318 0
M  V30 10183 H 956.894 -3.92029 1.13036 0
M  V30 10184 H 955.569 -3.52214 2.21175 0
M  V30 10185 H 954.146 -3.70857 0.389797 0
M  V30 10186 N 956.331 -0.831506 -1.3388 0
M  V30 10187 C 957.263 -0.216908 -2.28171 0
M  V30 10188 C 958.276 0.598141 -1.51414 0
M  V30 10189 O 959.465 0.426416 -1.73332 0
M  V30 10190 C 956.565 0.713831 -3.31297 0
M  V30 10191 C 955.738 -0.0602673 -4.37358 0
M  V30 10192 C 954.797 0.792696 -5.20195 0
M  V30 10193 O 953.823 0.234564 -5.68716 0
M  V30 10194 N 955.025 2.11119 -5.40748 0
M  V30 10195 H 957.79 -1.02704 -2.81553 0
M  V30 10196 H 955.351 -0.689272 -1.46495 0
M  V30 10197 H 957.343 1.28925 -3.83615 0
M  V30 10198 H 955.913 1.42469 -2.78247 0
M  V30 10199 H 955.133 -0.817041 -3.8564 0
M  V30 10200 H 956.421 -0.592822 -5.05335 0
M  V30 10201 H 955.819 2.58828 -5.03016 0
M  V30 10202 H 954.376 2.63527 -5.96151 0
M  V30 10203 N 957.809 1.4625 -0.587256 0
M  V30 10204 C 959.086 1.95599 -0.00750181 0
M  V30 10205 C 959.466 1.52989 1.45457 0
M  V30 10206 O 958.814 0.782731 2.14676 0
M  V30 10207 C 959.024 3.48513 -0.184309 0
M  V30 10208 C 960.372 4.24565 -0.0544972 0
M  V30 10209 O 961.396 3.5602 -0.113378 0
M  V30 10210 O 960.255 5.46445 0.0774075 0
M  V30 10211 H 957.349 0.825649 0.0472495 0
M  V30 10212 H 959.895 1.56512 -0.655893 0
M  V30 10213 H 958.667 3.72428 -1.20053 0
M  V30 10214 H 958.29 3.9444 0.500301 0
M  V30 10215 N 959.287 0.325282 1.54207 0
M  V30 10216 C 960.197 -0.548778 2.28091 0
M  V30 10217 C 961.213 -1.12772 1.32508 0
M  V30 10218 O 962.389 -1.14732 1.65525 0
M  V30 10219 C 959.454 -1.69284 3.02562 0
M  V30 10220 C 958.515 -1.14553 4.13734 0
M  V30 10221 C 957.748 -2.23506 4.84645 0
M  V30 10222 O 957.971 -3.43884 4.55082 0
M  V30 10223 O 956.905 -1.88828 5.71513 0
M  V30 10224 H 960.731 0.0512974 3.03657 0
M  V30 10225 H 958.316 0.0909159 1.49123 0
M  V30 10226 H 960.198 -2.35887 3.49192 0
M  V30 10227 H 958.873 -2.27906 2.2987 0
M  V30 10228 H 957.78 -0.444532 3.71449 0
M  V30 10229 H 959.113 -0.60441 4.88475 0
M  V30 10230 N 960.765 -1.57509 0.0534917 0
M  V30 10231 C 961.728 -2.10563 -0.905307 0
M  V30 10232 C 962.728 -1.02571 -1.23838 0
M  V30 10233 O 963.918 -1.28635 -1.17468 0
M  V30 10234 C 961.05 -2.5918 -2.21447 0
M  V30 10235 H 962.243 -2.96575 -0.445354 0
M  V30 10236 H 959.796 -1.55079 -0.194947 0
M  V30 10237 H 960.531 -1.76568 -2.72019 0
M  V30 10238 H 960.316 -3.38098 -1.98575 0
M  V30 10239 H 961.806 -3.00365 -2.90122 0
M  V30 10240 N 962.243 0.219913 -1.56058 0
M  V30 10241 C 963.52 0.968493 -1.6994 0
M  V30 10242 C 963.9 2.02358 -0.601219 0
M  V30 10243 O 963.248 2.25121 0.391534 0
M  V30 10244 C 963.458 1.57745 -3.11316 0
M  V30 10245 C 964.806 2.06908 -3.70775 0
M  V30 10246 O 965.83 1.67636 -3.14288 0
M  V30 10247 O 964.689 2.79096 -4.69859 0
M  V30 10248 H 961.783 0.452521 -0.692209 0
M  V30 10249 H 964.329 0.211566 -1.68376 0
M  V30 10250 H 963.101 0.815687 -3.82704 0
M  V30 10251 H 962.724 2.39987 -3.17005 0
M  V30 10252 N 963.721 1.49897 0.486681 0
M  V30 10253 C 965.137 1.36977 0.819109 0
M  V30 10254 C 965.337 0.41385 1.97204 0
M  V30 10255 O 964.393 -0.149249 2.52059 0
M  V30 10256 C 965.706 2.78013 1.14584 0
M  V30 10257 C 967.254 2.86816 1.25321 0
M  V30 10258 C 967.729 4.28651 1.61316 0
M  V30 10259 N 969.22 4.31528 1.68337 0
M  V30 10260 C 969.955 5.38254 1.97662 0
M  V30 10261 N 969.451 6.55207 2.25113 0
M  V30 10262 N 971.244 5.25683 1.99033 0
M  V30 10263 H 963.395 2.10634 -0.273364 0
M  V30 10264 H 965.658 0.946116 -0.0597418 0
M  V30 10265 H 965.364 3.49728 0.371892 0
M  V30 10266 H 965.238 3.1428 2.08585 0
M  V30 10267 H 967.625 2.15329 2.01785 0
M  V30 10268 H 967.706 2.54112 0.293368 0
M  V30 10269 H 967.35 5.00669 0.853968 0
M  V30 10270 H 967.28 4.5883 2.58424 0
M  V30 10271 H 969.771 3.47189 1.49226 0
M  V30 10272 H 970.084 7.32359 2.46717 0
M  V30 10273 H 968.429 6.58408 2.22538 0
M  V30 10274 H 971.62 4.33316 1.77074 0
M  V30 10275 H 971.793 6.08949 2.21552 0
M  V30 10276 N 965.199 -0.738761 1.39212 0
M  V30 10277 C 966.615 -1.04381 1.20734 0
M  V30 10278 C 966.815 -2.01391 0.0663082 0
M  V30 10279 O 965.871 -2.45672 -0.583229 0
M  V30 10280 C 967.184 -1.6097 2.53987 0
M  V30 10281 C 968.732 -1.73069 2.60799 0
M  V30 10282 C 969.207 -2.33067 3.94264 0
M  V30 10283 N 970.698 -2.40481 3.95883 0
M  V30 10284 C 971.433 -2.87834 4.95923 0
M  V30 10285 N 970.929 -3.35111 6.0636 0
M  V30 10286 N 972.722 -2.87009 4.83304 0
M  V30 10287 H 964.873 -0.0952996 2.12186 0
M  V30 10288 H 967.136 -0.104902 0.942178 0
M  V30 10289 H 966.842 -0.971548 3.38015 0
M  V30 10290 H 966.716 -2.59829 2.73439 0
M  V30 10291 H 969.103 -2.36007 1.77157 0
M  V30 10292 H 969.184 -0.728728 2.452 0
M  V30 10293 H 968.828 -1.70758 4.78335 0
M  V30 10294 H 968.758 -3.33933 4.07181 0
M  V30 10295 H 971.249 -2.07061 3.16123 0
M  V30 10296 H 971.562 -3.69742 6.78609 0
M  V30 10297 H 969.907 -3.33129 6.09959 0
M  V30 10298 H 973.098 -2.49395 3.96131 0
M  V30 10299 H 973.271 -3.23598 5.61416 0
M  V30 10300 N 966.677 -1.24326 -0.968545 0
M  V30 10301 C 967.925 -1.08032 -1.70803 0
M  V30 10302 C 968.246 0.381728 -1.91227 0
M  V30 10303 O 967.516 1.27253 -1.48942 0
M  V30 10304 H 966.096 -0.396777 -0.632912 0
M  V30 10305 H 968.758 -1.56232 -1.16523 0
M  V30 10306 H 967.854 -1.57769 -2.69287 0
M  V30 10307 N 968.156 1.1691 -1.05688 0
M  V30 10308 C 969.103 2.21095 -0.662246 0
M  V30 10309 C 970.073 1.62623 0.338083 0
M  V30 10310 O 971.258 1.89428 0.228362 0
M  V30 10311 C 968.398 3.45066 -0.0484018 0
M  V30 10312 C 967.511 4.17809 -1.09817 0
M  V30 10313 C 966.646 5.29281 -0.451114 0
M  V30 10314 C 965.685 5.93817 -1.48484 0
M  V30 10315 N 964.822 6.96793 -0.861588 0
M  V30 10316 H 969.662 2.54204 -1.55513 0
M  V30 10317 H 967.199 1.24863 -0.777665 0
M  V30 10318 H 969.157 4.15932 0.324978 0
M  V30 10319 H 967.787 3.12526 0.807918 0
M  V30 10320 H 966.839 3.45608 -1.58932 0
M  V30 10321 H 968.151 4.61907 -1.88265 0
M  V30 10322 H 967.305 6.06695 -0.0244251 0
M  V30 10323 H 966.044 4.8633 0.365306 0
M  V30 10324 H 965.049 5.1513 -1.92149 0
M  V30 10325 H 966.274 6.38848 -2.30325 0
M  V30 10326 H 964.22 6.55967 -0.0657688 0
M  V30 10327 H 964.137 7.39229 -1.58354 0
M  V30 10328 H 965.405 7.78142 -0.45984 0
M  V30 10329 N 969.634 0.838594 1.33437 0
M  V30 10330 C 970.88 0.434813 1.98084 0
M  V30 10331 C 971.213 -1.00331 1.66275 0
M  V30 10332 O 970.488 -1.70139 0.942501 0
M  V30 10333 C 970.771 0.655602 3.54082 0
M  V30 10334 C 970.624 2.14097 3.95578 0
M  V30 10335 C 971.943 0.101576 4.39983 0
M  V30 10336 H 969.062 0.159456 0.719544 0
M  V30 10337 H 971.704 1.05406 1.58081 0
M  V30 10338 H 969.854 0.128501 3.88287 0
M  V30 10339 H 971.526 2.73292 3.71631 0
M  V30 10340 H 969.769 2.62558 3.4532 0
M  V30 10341 H 970.44 2.24621 5.04231 0
M  V30 10342 H 972.916 0.552122 4.12421 0
M  V30 10343 H 971.792 0.28575 5.48156 0
M  V30 10344 H 972.053 -0.994616 4.30767 0
M  V30 10345 N 971.112 -1.45937 0.595003 0
M  V30 10346 C 972.342 -2.06399 0.0911607 0
M  V30 10347 C 972.75 -1.44236 -1.22444 0
M  V30 10348 O 972.093 -0.546265 -1.7539 0
M  V30 10349 C 972.155 -3.59242 -0.136079 0
M  V30 10350 C 971.819 -4.43668 1.09579 0
M  V30 10351 C 972.816 -4.79437 2.01088 0
M  V30 10352 C 970.501 -4.84616 1.32109 0
M  V30 10353 C 972.495 -5.54995 3.13464 0
M  V30 10354 C 970.182 -5.5993 2.44788 0
M  V30 10355 C 971.18 -5.95035 3.35294 0
M  V30 10356 O 970.868 -6.68825 4.46014 0
M  V30 10357 H 970.6 -0.673316 0.0601779 0
M  V30 10358 H 973.154 -1.88365 0.819005 0
M  V30 10359 H 971.384 -3.75629 -0.918676 0
M  V30 10360 H 973.073 -4.0159 -0.589954 0
M  V30 10361 H 973.839 -4.48371 1.84902 0
M  V30 10362 H 969.718 -4.56735 0.625662 0
M  V30 10363 H 973.262 -5.82314 3.84131 0
M  V30 10364 H 969.159 -5.90411 2.60931 0
M  V30 10365 H 969.927 -6.87262 4.44537 0
M  V30 10366 N 972.59 -0.333456 -1.54032 0
M  V30 10367 C 973.867 0.320902 -1.9295 0
M  V30 10368 C 974.247 1.69071 -1.26405 0
M  V30 10369 O 973.595 2.24768 -0.411311 0
M  V30 10370 C 973.805 0.403257 -3.46662 0
M  V30 10371 C 975.153 0.658875 -4.19457 0
M  V30 10372 O 976.177 0.485781 -3.52872 0
M  V30 10373 O 975.036 0.993475 -5.37394 0
M  V30 10374 H 972.13 0.185158 -0.806006 0
M  V30 10375 H 974.676 -0.383895 -1.65301 0
M  V30 10376 H 973.448 -0.558409 -3.87295 0
M  V30 10377 H 973.071 1.15524 -3.80447 0
M  V30 10378 N 974.068 1.57479 -0.061844 0
M  V30 10379 C 975.015 2.12152 0.908862 0
M  V30 10380 C 975.985 1.03152 1.30188 0
M  V30 10381 O 977.17 1.3076 1.38948 0
M  V30 10382 C 974.31 2.6796 2.17465 0
M  V30 10383 C 973.423 3.91083 1.83517 0
M  V30 10384 C 972.558 4.35169 3.04633 0
M  V30 10385 C 971.597 5.50964 2.66655 0
M  V30 10386 N 970.734 5.90055 3.80499 0
M  V30 10387 H 975.574 2.94797 0.435743 0
M  V30 10388 H 973.111 1.45686 0.203445 0
M  V30 10389 H 975.069 2.98421 2.91548 0
M  V30 10390 H 973.699 1.88096 2.62335 0
M  V30 10391 H 972.751 3.67146 0.995381 0
M  V30 10392 H 974.063 4.75214 1.51569 0
M  V30 10393 H 973.217 4.67239 3.87005 0
M  V30 10394 H 971.956 3.49871 3.39767 0
M  V30 10395 H 970.961 5.18556 1.82703 0
M  V30 10396 H 972.186 6.37986 2.32702 0
M  V30 10397 H 970.132 5.07708 4.15414 0
M  V30 10398 H 970.049 6.68903 3.52285 0
M  V30 10399 H 971.317 6.26744 4.63479 0
M  V30 10400 N 975.546 -0.211634 1.56173 0
M  V30 10401 C 976.776 -0.949805 1.83473 0
M  V30 10402 C 977.184 -1.78045 0.640053 0
M  V30 10403 O 976.527 -1.79277 -0.400702 0
M  V30 10404 C 976.589 -1.90868 3.04647 0
M  V30 10405 C 976.253 -1.26159 4.39241 0
M  V30 10406 C 977.25 -0.646597 5.15863 0
M  V30 10407 C 974.935 -1.27039 4.85969 0
M  V30 10408 C 976.929 -0.0490313 6.37381 0
M  V30 10409 C 974.616 -0.668987 6.07427 0
M  V30 10410 C 975.614 -0.0593687 6.82974 0
M  V30 10411 O 975.302 0.532656 8.02133 0
M  V30 10412 H 975.034 -0.283458 0.6137 0
M  V30 10413 H 977.588 -0.22894 2.0412 0
M  V30 10414 H 975.818 -2.6688 2.79843 0
M  V30 10415 H 977.507 -2.51323 3.18734 0
M  V30 10416 H 978.273 -0.632056 4.80864 0
M  V30 10417 H 974.152 -1.73429 4.27134 0
M  V30 10418 H 977.696 0.427414 6.96289 0
M  V30 10419 H 973.593 -0.680975 6.41898 0
M  V30 10420 H 974.361 0.427942 8.17381 0
M  V30 10421 N 977.024 -1.50153 -0.478725 0
M  V30 10422 C 977.957 -1.63089 -1.59616 0
M  V30 10423 C 978.935 -0.479211 -1.55378 0
M  V30 10424 O 980.119 -0.697715 -1.75112 0
M  V30 10425 C 977.246 -1.60643 -2.9818 0
M  V30 10426 C 976.292 -2.81279 -3.206 0
M  V30 10427 S 977.125 -4.42681 -3.0132 0
M  V30 10428 C 978.281 -4.42915 -4.42241 0
M  V30 10429 H 978.514 -2.57612 -1.48402 0
M  V30 10430 H 976.047 -1.39321 -0.665513 0
M  V30 10431 H 978.005 -1.59917 -3.7807 0
M  V30 10432 H 976.666 -0.673684 -3.0679 0
M  V30 10433 H 975.859 -2.7585 -4.21809 0
M  V30 10434 H 975.461 -2.79533 -2.4847 0
M  V30 10435 H 977.753 -4.16007 -5.34737 0
M  V30 10436 H 978.696 -5.44477 -4.52715 0
M  V30 10437 H 979.104 -3.72715 -4.23962 0
M  V30 10438 N 978.502 0.731368 -1.39602 0
M  V30 10439 C 979.742 1.5036 -1.3846 0
M  V30 10440 C 980.106 1.91991 0.018784 0
M  V30 10441 O 981.307 2.68351 0.155236 0
M  V30 10442 C 979.578 2.70755 -2.33295 0
M  V30 10443 S 981.137 3.6036 -2.50372 0
M  V30 10444 H 977.955 0.514271 -0.490964 0
M  V30 10445 H 980.557 0.856654 -1.75732 0
M  V30 10446 H 979.261 2.38316 -3.34116 0
M  V30 10447 H 978.792 3.40376 -1.97251 0
M  V30 10448 H 980.807 4.64529 -1.74435 0
M  V30 10449 N 979.98 1.24838 0.961938 0
M  V30 10450 C 981.205 1.11967 1.7458 0
M  V30 10451 C 981.63 -0.323287 1.85301 0
M  V30 10452 O 980.988 -1.23412 1.32812 0
M  V30 10453 C 981.036 1.77066 3.14134 0
M  V30 10454 O 980.14 1.04534 3.98932 0
M  V30 10455 H 979.481 0.391338 0.536424 0
M  V30 10456 H 982.011 1.65259 1.20626 0
M  V30 10457 H 982.021 1.83056 3.64629 0
M  V30 10458 H 980.696 2.82052 3.05646 0
M  V30 10459 H 979.273 1.06372 3.57407 0
M  V30 10460 N 981.458 -1.16348 1.06306 0
M  V30 10461 C 982.705 -1.86881 0.779852 0
M  V30 10462 C 983.033 -1.8171 -0.693668 0
M  V30 10463 O 982.288 -1.22769 -1.52401 0
M  V30 10464 C 982.587 -3.35936 1.21991 0
M  V30 10465 C 982.253 -3.61307 2.69756 0
M  V30 10466 C 980.915 -3.6794 3.10119 0
M  V30 10467 C 983.267 -3.71871 3.65187 0
M  V30 10468 C 980.595 -3.82639 4.44752 0
M  V30 10469 C 982.947 -3.88091 4.99568 0
M  V30 10470 C 981.611 -3.92967 5.39568 0
M  V30 10471 H 980.881 -0.683847 0.285368 0
M  V30 10472 H 983.528 -1.37569 1.33218 0
M  V30 10473 H 981.833 -3.87381 0.586774 0
M  V30 10474 H 983.53 -3.88895 0.977821 0
M  V30 10475 H 980.12 -3.56777 2.37504 0
M  V30 10476 H 984.304 -3.66057 3.35136 0
M  V30 10477 H 979.56 -3.84666 4.75228 0
M  V30 10478 H 983.734 -3.95207 5.73397 0
M  V30 10479 H 981.361 -4.04109 6.43895 0
M  V30 10480 N 982.937 -0.845659 -1.3299 0
M  V30 10481 C 983.867 -0.298957 -2.31578 0
M  V30 10482 C 984.848 0.597012 -1.59279 0
M  V30 10483 O 986.033 0.519142 -1.87132 0
M  V30 10484 C 983.163 0.521109 -3.43368 0
M  V30 10485 C 982.117 -0.279651 -4.27085 0
M  V30 10486 C 981.443 0.664591 -5.30554 0
M  V30 10487 C 982.743 -1.50046 -5.00283 0
M  V30 10488 H 984.437 -1.12272 -2.77552 0
M  V30 10489 H 981.983 -0.54132 -1.33438 0
M  V30 10490 H 983.936 0.913921 -4.1137 0
M  V30 10491 H 982.66 1.37815 -2.96099 0
M  V30 10492 H 981.319 -0.654106 -3.60717 0
M  V30 10493 H 980.967 1.51822 -4.79541 0
M  V30 10494 H 980.667 0.132871 -5.8745 0
M  V30 10495 H 982.191 1.05477 -6.01421 0
M  V30 10496 H 983.605 -1.18044 -5.61016 0
M  V30 10497 H 982.002 -1.96946 -5.66862 0
M  V30 10498 H 983.072 -2.26659 -4.28665 0
M  V30 10499 N 984.415 1.45619 -0.602734 0
M  V30 10500 C 985.662 2.02272 -0.0960337 0
M  V30 10501 C 985.99 1.47177 1.27159 0
M  V30 10502 O 985.245 0.634593 1.85125 0
M  V30 10503 C 985.544 3.574 -0.00157909 0
M  V30 10504 C 985.21 4.31626 -1.30422 0
M  V30 10505 C 983.872 4.51622 -1.66106 0
M  V30 10506 C 986.224 4.74091 -2.16535 0
M  V30 10507 C 983.552 5.11338 -2.87663 0
M  V30 10508 C 985.904 5.35151 -3.37336 0
M  V30 10509 C 984.568 5.53371 -3.73278 0
M  V30 10510 H 983.838 0.740166 -0.0351412 0
M  V30 10511 H 986.485 1.74744 -0.783382 0
M  V30 10512 H 984.79 3.84179 0.769008 0
M  V30 10513 H 986.487 3.98934 0.406549 0
M  V30 10514 H 983.077 4.16372 -1.01647 0
M  V30 10515 H 987.261 4.5838 -1.90266 0
M  V30 10516 H 982.517 5.23634 -3.15622 0
M  V30 10517 H 986.691 5.67011 -4.04316 0
M  V30 10518 H 984.318 5.99412 -4.67556 0
M  V30 10519 N 985.893 0.34162 1.53853 0
M  V30 10520 C 986.841 -0.531412 2.26448 0
M  V30 10521 C 987.835 -1.10357 1.28521 0
M  V30 10522 O 989.041 -1.04953 1.46236 0
M  V30 10523 H 985.416 -0.190054 0.727588 0
M  V30 10524 H 987.387 0.102922 2.98222 0
M  V30 10525 C 986.136 -1.67154 3.04885 0
M  V30 10526 H 985.459 -1.24055 3.80066 0
M  V30 10527 H 986.899 -2.25762 3.58898 0
M  V30 10528 C 985.358 -2.59984 2.14266 0
M  V30 10529 O 985.888 -3.62181 1.73746 0
M  V30 10530 N 984.094 -2.28625 1.79385 0
M  V30 10531 H 983.641 -1.45559 2.12533 0
M  V30 10532 H 983.599 -2.90995 1.19035 0
M  V30 10533 N 987.371 -1.57444 0.0701946 0
M  V30 10534 C 988.301 -2.15659 -0.895176 0
M  V30 10535 C 989.282 -1.08321 -1.31151 0
M  V30 10536 O 990.467 -1.36349 -1.38284 0
M  V30 10537 C 987.597 -2.71693 -2.16334 0
M  V30 10538 C 986.551 -3.84183 -1.88645 0
M  V30 10539 C 985.877 -4.26814 -3.22078 0
M  V30 10540 C 987.177 -5.08493 -1.19299 0
M  V30 10541 H 988.871 -2.96576 -0.410217 0
M  V30 10542 H 986.417 -1.42662 -0.195872 0
M  V30 10543 H 988.37 -3.11064 -2.84284 0
M  V30 10544 H 987.094 -1.87994 -2.67069 0
M  V30 10545 H 985.753 -3.45314 -1.23101 0
M  V30 10546 H 985.401 -3.40039 -3.70651 0
M  V30 10547 H 985.101 -5.02642 -3.04344 0
M  V30 10548 H 986.625 -4.68799 -3.91228 0
M  V30 10549 H 988.039 -5.4519 -1.77316 0
M  V30 10550 H 986.436 -5.89588 -1.11828 0
M  V30 10551 H 987.506 -4.84595 -0.171839 0
M  V30 10552 N 988.849 0.203349 -1.56283 0
M  V30 10553 C 989.797 1.27157 -1.94766 0
M  V30 10554 C 990.791 1.4756 -0.832005 0
M  V30 10555 O 991.997 1.48519 -1.01696 0
M  V30 10556 H 988.372 0.426712 -0.61921 0
M  V30 10557 H 990.343 0.919921 -2.83866 0
M  V30 10558 C 989.092 2.6108 -2.29636 0
M  V30 10559 H 988.415 2.46193 -3.15006 0
M  V30 10560 H 989.855 3.34591 -2.60433 0
M  V30 10561 C 988.314 3.17456 -1.12799 0
M  V30 10562 O 988.844 3.99717 -0.398661 0
M  V30 10563 N 987.05 2.76084 -0.906975 0
M  V30 10564 H 986.597 2.09294 -1.50179 0
M  V30 10565 H 986.555 3.14143 -0.127005 0
M  V30 10566 N 990.327 1.50405 0.470755 0
M  V30 10567 C 991.275 1.6982 1.58946 0
M  V30 10568 C 992.269 0.56407 1.59733 0
M  V30 10569 O 993.475 0.744576 1.63878 0
M  V30 10570 H 989.85 0.536016 0.527438 0
M  V30 10571 H 991.821 2.63662 1.39732 0
M  V30 10572 C 990.57 1.80986 2.96883 0
M  V30 10573 H 989.893 2.67645 2.96996 0
M  V30 10574 H 991.333 1.98596 3.74614 0
M  V30 10575 C 989.792 0.561551 3.32187 0
M  V30 10576 O 990.322 -0.299136 4.00585 0
M  V30 10577 N 988.528 0.415476 2.87615 0
M  V30 10578 H 988.075 1.11691 2.32127 0
M  V30 10579 H 988.033 -0.418592 3.11601 0
M  V30 10580 N 991.805 -0.723954 1.39988 0
M  V30 10581 C 993.082 -1.4763 1.28316 0
M  V30 10582 C 993.462 -2.10852 -0.102302 0
M  V30 10583 O 992.81 -1.9948 -1.11445 0
M  V30 10584 C 993.02 -2.51878 2.41574 0
M  V30 10585 C 994.368 -3.17948 2.81415 0
M  V30 10586 O 995.392 -2.62195 2.41106 0
M  V30 10587 O 994.251 -4.18858 3.51027 0
M  V30 10588 H 991.345 -0.656092 0.50346 0
M  V30 10589 H 993.891 -0.75684 1.51888 0
M  V30 10590 H 992.663 -2.03618 3.34149 0
M  V30 10591 H 992.286 -3.3137 2.19727 0
M  V30 10592 N 993.283 -1.25346 -0.955304 0
M  V30 10593 C 994.53 -1.10055 -1.69983 0
M  V30 10594 C 994.858 0.358586 -1.91166 0
M  V30 10595 O 994.113 1.28071 -1.47974 0
M  V30 10596 C 994.412 -1.7993 -3.08804 0
M  V30 10597 C 994.078 -3.29851 -3.07424 0
M  V30 10598 C 992.74 -3.7075 -3.06754 0
M  V30 10599 C 995.092 -4.25636 -3.00805 0
M  V30 10600 C 992.42 -5.05847 -2.97214 0
M  V30 10601 C 994.772 -5.60756 -2.92806 0
M  V30 10602 C 993.436 -6.00984 -2.90472 0
M  V30 10603 H 992.706 -0.402718 -0.622012 0
M  V30 10604 H 995.353 -1.5561 -1.11614 0
M  V30 10605 H 993.658 -1.26803 -3.70713 0
M  V30 10606 H 995.355 -1.65551 -3.65231 0
M  V30 10607 H 991.945 -2.97308 -3.08716 0
M  V30 10608 H 996.129 -3.9503 -3.00441 0
M  V30 10609 H 991.385 -5.36196 -2.93775 0
M  V30 10610 H 995.559 -6.34671 -2.86645 0
M  V30 10611 H 993.186 -7.05626 -2.82835 0
M  V30 10612 N 994.761 1.15782 -1.06922 0
M  V30 10613 C 996.007 1.86741 -0.790922 0
M  V30 10614 C 996.34 1.81863 0.681149 0
M  V30 10615 O 995.615 1.23871 1.49954 0
M  V30 10616 C 995.898 3.36038 -1.29422 0
M  V30 10617 C 995.751 3.49573 -2.83052 0
M  V30 10618 C 997.07 4.30647 -0.907239 0
M  V30 10619 H 994.189 0.678064 -0.288787 0
M  V30 10620 H 996.831 1.36054 -1.32624 0
M  V30 10621 H 994.981 3.79336 -0.838843 0
M  V30 10622 H 996.653 3.1517 -3.36847 0
M  V30 10623 H 994.896 2.91275 -3.21467 0
M  V30 10624 H 995.567 4.5445 -3.13335 0
M  V30 10625 H 998.043 3.95286 -1.29956 0
M  V30 10626 H 996.919 5.33604 -1.28679 0
M  V30 10627 H 997.18 4.41703 0.187251 0
M  V30 10628 N 996.239 0.8527 1.3254 0
M  V30 10629 C 997.485 0.455798 1.97612 0
M  V30 10630 C 997.818 -0.985616 1.6733 0
M  V30 10631 O 997.093 -1.69129 0.960493 0
M  V30 10632 C 997.376 0.69312 3.53366 0
M  V30 10633 C 997.229 2.18281 3.93285 0
M  V30 10634 C 998.548 0.148236 4.3985 0
M  V30 10635 H 995.667 0.167078 0.717812 0
M  V30 10636 H 998.309 1.07076 1.56954 0
M  V30 10637 H 996.459 0.169677 3.88129 0
M  V30 10638 H 998.131 2.77218 3.68711 0
M  V30 10639 H 996.374 2.66206 3.42515 0
M  V30 10640 H 997.045 2.29957 5.01821 0
M  V30 10641 H 999.521 0.595834 4.11812 0
M  V30 10642 H 998.397 0.343873 5.47822 0
M  V30 10643 H 998.658 -0.948872 4.31797 0
M  V30 10644 N 997.718 -1.45297 0.610449 0
M  V30 10645 C 998.995 -1.95562 0.0386189 0
M  V30 10646 C 999.375 -1.55284 -1.43004 0
M  V30 10647 O 998.723 -0.816785 -2.13403 0
M  V30 10648 C 998.933 -3.48176 0.239731 0
M  V30 10649 C 1000.28 -4.24425 0.122035 0
M  V30 10650 O 1001.3 -3.55794 0.170003 0
M  V30 10651 O 1000.16 -5.46499 0.00953695 0
M  V30 10652 H 997.258 -0.826296 -0.0341081 0
M  V30 10653 H 999.804 -1.55449 0.68071 0
M  V30 10654 H 998.576 -3.70471 1.25963 0
M  V30 10655 H 998.199 -3.95186 -0.437486 0
M  V30 10656 N 999.196 -0.349774 -1.5367 0
M  V30 10657 C 1000.16 0.491676 -2.23864 0
M  V30 10658 C 1001.16 1.02256 -1.24098 0
M  V30 10659 O 1002.35 0.910816 -1.48492 0
M  V30 10660 C 999.481 1.68557 -2.96313 0
M  V30 10661 H 1000.67 -0.12233 -2.9965 0
M  V30 10662 H 998.227 -0.101214 -1.55972 0
M  V30 10663 H 998.962 2.3381 -2.2473 0
M  V30 10664 H 998.747 1.31203 -3.69497 0
M  V30 10665 H 1000.24 2.28225 -3.49718 0
M  V30 10666 N 1000.67 1.57404 -0.0785433 0
M  V30 10667 C 1001.9 1.98074 0.597862 0
M  V30 10668 C 1002.32 0.95714 1.6274 0
M  V30 10669 O 1001.67 -0.0553728 1.82416 0
M  V30 10670 C 1001.72 3.38815 1.26041 0
M  V30 10671 O 1001.45 4.37254 0.27207 0
M  V30 10672 C 1002.95 3.94397 2.024 0
M  V30 10673 H 1000.17 0.651263 0.161546 0
M  V30 10674 H 1002.71 2.03927 -0.152941 0
M  V30 10675 H 1000.87 3.34028 1.96225 0
M  V30 10676 H 1001.28 5.19136 0.74822 0
M  V30 10677 H 1002.75 4.95075 2.4414 0
M  V30 10678 H 1003.23 3.31308 2.88326 0
M  V30 10679 H 1003.84 4.02607 1.37068 0
M  V30 10680 N 1002.15 -0.195058 1.56388 0
M  V30 10681 C 1003.57 -0.545894 1.49974 0
M  V30 10682 C 1003.77 -1.85851 0.778568 0
M  V30 10683 O 1002.82 -2.50346 0.329105 0
M  V30 10684 C 1004.14 -0.600599 2.94641 0
M  V30 10685 C 1005.68 -0.689429 3.05313 0
M  V30 10686 C 1006.16 -0.775243 4.51391 0
M  V30 10687 N 1007.65 -0.838769 4.55542 0
M  V30 10688 C 1008.39 -0.925337 5.65884 0
M  V30 10689 N 1007.88 -0.974204 6.85916 0
M  V30 10690 N 1009.67 -0.962528 5.53798 0
M  V30 10691 H 1001.83 0.66595 2.0169 0
M  V30 10692 H 1004.09 0.237215 0.917842 0
M  V30 10693 H 1003.79 0.29478 3.50462 0
M  V30 10694 H 1003.67 -1.45528 3.47996 0
M  V30 10695 H 1006.06 -1.57524 2.4954 0
M  V30 10696 H 1006.14 0.191451 2.55083 0
M  V30 10697 H 1005.78 0.106215 5.07789 0
M  V30 10698 H 1005.71 -1.67193 4.99354 0
M  V30 10699 H 1008.2 -0.810249 3.69112 0
M  V30 10700 H 1008.51 -1.04077 7.6576 0
M  V30 10701 H 1006.86 -0.942881 6.88574 0
M  V30 10702 H 1010.05 -0.921188 4.58946 0
M  V30 10703 H 1010.22 -1.02653 6.39817 0
M  V30 10704 N 1003.63 -1.50653 -0.462772 0
M  V30 10705 C 1004.58 -1.70122 -1.55971 0
M  V30 10706 C 1005.55 -0.542581 -1.56988 0
M  V30 10707 O 1006.73 -0.774114 -1.74391 0
M  V30 10708 C 1003.87 -1.80899 -2.93887 0
M  V30 10709 C 1002.98 -3.08318 -3.02595 0
M  V30 10710 C 1002.12 -3.09841 -4.31477 0
M  V30 10711 C 1001.16 -4.3168 -4.33957 0
M  V30 10712 N 1000.3 -4.30894 -5.54323 0
M  V30 10713 H 1005.14 -2.63768 -1.38674 0
M  V30 10714 H 1002.67 -1.30746 -0.674091 0
M  V30 10715 H 1004.63 -1.85128 -3.73876 0
M  V30 10716 H 1003.26 -0.906854 -3.098 0
M  V30 10717 H 1002.31 -3.13521 -2.15427 0
M  V30 10718 H 1003.62 -3.98282 -3.00288 0
M  V30 10719 H 1002.78 -3.12845 -5.1982 0
M  V30 10720 H 1001.52 -2.17722 -4.36404 0
M  V30 10721 H 1000.52 -4.28879 -3.4401 0
M  V30 10722 H 1001.75 -5.25035 -4.30715 0
M  V30 10723 H 999.694 -3.41633 -5.6002 0
M  V30 10724 H 999.611 -5.14636 -5.53792 0
M  V30 10725 H 1000.88 -4.38056 -6.44769 0
M  V30 10726 N 1005.11 0.71652 -1.4037 0
M  V30 10727 C 1006.36 1.47347 -1.38324 0
M  V30 10728 C 1006.68 1.94995 0.0139949 0
M  V30 10729 O 1005.95 1.7028 0.968585 0
M  V30 10730 H 1004.53 0.546662 -0.509087 0
M  V30 10731 H 1007.19 0.849455 -1.75415 0
M  V30 10732 H 1006.29 2.34675 -2.05752 0
M  V30 10733 N 1006.59 1.25851 0.948643 0
M  V30 10734 C 1007.53 1.06559 2.06756 0
M  V30 10735 C 1008.53 -0.00528632 1.69399 0
M  V30 10736 O 1009.73 0.150806 1.79367 0
M  V30 10737 H 1006.11 0.327689 0.676848 0
M  V30 10738 H 1008.08 2.01401 2.20182 0
M  V30 10739 C 1006.83 0.707392 3.40428 0
M  V30 10740 H 1006.15 1.52324 3.69645 0
M  V30 10741 H 1007.59 0.612142 4.19558 0
M  V30 10742 C 1006.05 -0.58697 3.31747 0
M  V30 10743 O 1006.58 -1.62741 3.67258 0
M  V30 10744 N 1004.79 -0.574828 2.84858 0
M  V30 10745 H 1004.33 0.272236 2.56157 0
M  V30 10746 H 1004.29 -1.441 2.79432 0
M  V30 10747 N 1008.06 -1.15214 1.07534 0
M  V30 10748 C 1009.01 -2.20013 0.697337 0
M  V30 10749 C 1009.98 -1.6314 -0.312168 0
M  V30 10750 O 1011.17 -1.89768 -0.198196 0
M  V30 10751 C 1008.31 -3.44945 0.103293 0
M  V30 10752 C 1007.42 -4.16009 1.1645 0
M  V30 10753 C 1006.55 -5.28496 0.535261 0
M  V30 10754 C 1005.59 -5.9138 1.57912 0
M  V30 10755 N 1004.73 -6.95335 0.972332 0
M  V30 10756 H 1009.57 -2.51698 1.59538 0
M  V30 10757 H 1007.11 -1.2361 0.797431 0
M  V30 10758 H 1009.07 -4.16397 -0.258766 0
M  V30 10759 H 1007.7 -3.13772 -0.758096 0
M  V30 10760 H 1006.75 -3.43035 1.64411 0
M  V30 10761 H 1008.06 -4.58853 1.9559 0
M  V30 10762 H 1007.21 -6.06579 0.120942 0
M  V30 10763 H 1005.95 -4.8685 -0.287889 0
M  V30 10764 H 1004.96 -5.12008 2.0032 0
M  V30 10765 H 1006.18 -6.35103 2.40459 0
M  V30 10766 H 1004.13 -6.55779 0.170119 0
M  V30 10767 H 1004.05 -7.36616 1.70095 0
M  V30 10768 H 1005.31 -7.77312 0.583577 0
M  V30 10769 N 1009.54 -0.859717 -1.32086 0
M  V30 10770 C 1010.79 -0.461779 -1.96343 0
M  V30 10771 C 1011.1 0.988837 -1.68764 0
M  V30 10772 O 1012.31 1.49244 -2.268 0
M  V30 10773 C 1010.77 -0.77484 -3.5146 0
M  V30 10774 C 1010.37 -2.24153 -3.87891 0
M  V30 10775 C 1012.12 -0.444873 -4.22162 0
M  V30 10776 C 1010.03 -2.49754 -5.36075 0
M  V30 10777 H 1008.96 -0.168951 -0.734828 0
M  V30 10778 H 1011.61 -1.0512 -1.50406 0
M  V30 10779 H 1009.99 -0.114792 -3.95834 0
M  V30 10780 H 1011.16 -2.94378 -3.54511 0
M  V30 10781 H 1009.48 -2.53651 -3.30227 0
M  V30 10782 H 1012.07 -0.613508 -5.31169 0
M  V30 10783 H 1012.42 0.61391 -4.11749 0
M  V30 10784 H 1012.95 -1.06103 -3.83389 0
M  V30 10785 H 1009.69 -3.54276 -5.51515 0
M  V30 10786 H 1009.21 -1.84112 -5.70844 0
M  V30 10787 H 1010.89 -2.3396 -6.03218 0
M  V30 10788 N 1011.02 1.44971 -0.618145 0
M  V30 10789 C 1012.44 1.57077 -0.282666 0
M  V30 10790 C 1012.64 1.60782 1.21456 0
M  V30 10791 O 1011.69 1.54382 1.99806 0
M  V30 10792 C 1013.01 2.84858 -0.963148 0
M  V30 10793 C 1014.55 2.9855 -0.940062 0
M  V30 10794 C 1015.03 4.29115 -1.60076 0
M  V30 10795 N 1016.52 4.35899 -1.56674 0
M  V30 10796 C 1017.25 5.35617 -2.04701 0
M  V30 10797 N 1016.75 6.41813 -2.6086 0
M  V30 10798 N 1018.54 5.27042 -1.95406 0
M  V30 10799 H 1010.69 1.4081 -1.59017 0
M  V30 10800 H 1012.96 0.673914 -0.666741 0
M  V30 10801 H 1012.66 2.88059 -2.0178 0
M  V30 10802 H 1012.54 3.73966 -0.492901 0
M  V30 10803 H 1014.92 2.94909 0.10607 0
M  V30 10804 H 1015.01 2.10825 -1.44868 0
M  V30 10805 H 1014.65 4.33514 -2.64627 0
M  V30 10806 H 1014.58 5.15675 -1.06708 0
M  V30 10807 H 1017.07 3.59766 -1.15659 0
M  V30 10808 H 1017.38 7.14166 -2.95273 0
M  V30 10809 H 1015.73 6.42534 -2.64905 0
M  V30 10810 H 1018.92 4.42987 -1.51263 0
M  V30 10811 H 1019.09 6.04604 -2.33147 0
M  V30 10812 N 1012.5 0.357919 1.53482 0
M  V30 10813 C 1013.75 -0.234163 2.01142 0
M  V30 10814 C 1014.07 -1.49399 1.2454 0
M  V30 10815 O 1013.33 -1.92981 0.325111 0
M  V30 10816 C 1013.63 -0.579617 3.52669 0
M  V30 10817 C 1013.29 0.584988 4.47089 0
M  V30 10818 C 1011.96 0.904558 4.72622 0
M  V30 10819 C 1014.31 1.3656 5.02992 0
M  V30 10820 C 1011.64 2.00685 5.5131 0
M  V30 10821 C 1013.99 2.45824 5.82884 0
M  V30 10822 C 1012.65 2.78325 6.06706 0
M  V30 10823 H 1011.92 -0.0856863 0.736029 0
M  V30 10824 H 1014.57 0.488801 1.85157 0
M  V30 10825 H 1012.87 -1.38349 3.66561 0
M  V30 10826 H 1014.57 -1.04985 3.87013 0
M  V30 10827 H 1011.16 0.32587 4.27359 0
M  V30 10828 H 1015.34 1.13196 4.83219 0
M  V30 10829 H 1010.6 2.26272 5.67988 0
M  V30 10830 H 1014.77 3.06732 6.25211 0
M  V30 10831 H 1012.4 3.63862 6.67464 0
M  V30 10832 N 1013.98 -1.5736 0.0868897 0
M  V30 10833 C 1014.94 -2.12436 -0.860439 0
M  V30 10834 C 1015.94 -1.05175 -1.21634 0
M  V30 10835 O 1017.13 -1.31098 -1.14713 0
M  V30 10836 C 1014.26 -2.63818 -2.159 0
M  V30 10837 H 1015.45 -2.97453 -0.382346 0
M  V30 10838 H 1013.01 -1.55458 -0.162009 0
M  V30 10839 H 1013.74 -1.82298 -2.68212 0
M  V30 10840 H 1013.53 -3.42234 -1.91359 0
M  V30 10841 H 1015.02 -3.06452 -2.83685 0
M  V30 10842 N 1015.45 0.186762 -1.56489 0
M  V30 10843 C 1016.4 1.25084 -1.96104 0
M  V30 10844 C 1017.4 1.4667 -0.847609 0
M  V30 10845 O 1018.6 1.47432 -1.03266 0
M  V30 10846 H 1014.98 0.420121 -0.623701 0
M  V30 10847 H 1016.95 0.889761 -2.84826 0
M  V30 10848 C 1015.7 2.5863 -2.32392 0
M  V30 10849 H 1015.02 2.42838 -3.176 0
M  V30 10850 H 1016.46 3.3181 -2.63967 0
M  V30 10851 C 1014.92 3.16241 -1.16159 0
M  V30 10852 O 1015.45 3.99272 -0.441034 0
M  V30 10853 N 1013.66 2.75106 -0.936206 0
M  V30 10854 H 1013.2 2.0769 -1.5239 0
M  V30 10855 H 1013.16 3.13991 -0.160317 0
M  V30 10856 N 1016.93 1.50896 0.454776 0
M  V30 10857 C 1017.88 1.67333 1.54867 0
M  V30 10858 C 1018.87 0.527576 1.52005 0
M  V30 10859 O 1020.06 0.782726 1.58753 0
M  V30 10860 C 1017.19 1.7858 2.93196 0
M  V30 10861 C 1016.27 2.98884 3.0088 0
M  V30 10862 N 1016.66 4.22326 2.78343 0
M  V30 10863 C 1014.96 2.97779 3.32029 0
M  V30 10864 C 1015.66 5.03439 2.91418 0
M  V30 10865 N 1014.64 4.37725 3.22332 0
M  V30 10866 H 1018.44 2.60453 1.36167 0
M  V30 10867 H 1015.96 1.48304 0.661797 0
M  V30 10868 H 1017.95 1.88463 3.7187 0
M  V30 10869 H 1016.61 0.866296 3.1293 0
M  V30 10870 H 1017.62 4.51557 2.53607 0
M  V30 10871 H 1014.3 2.15393 3.57648 0
M  V30 10872 H 1015.69 6.11648 2.78095 0
M  V30 10873 N 1018.41 -0.709066 1.40748 0
M  V30 10874 C 1019.64 -1.50313 1.42901 0
M  V30 10875 C 1020.06 -1.88072 0.032213 0
M  V30 10876 O 1019.42 -1.53716 -0.96131 0
M  V30 10877 C 1019.47 -2.75074 2.33166 0
M  V30 10878 O 1018.57 -3.72036 1.7794 0
M  V30 10879 H 1017.91 -0.452934 0.485538 0
M  V30 10880 H 1020.44 -0.872712 1.85054 0
M  V30 10881 H 1020.45 -3.23532 2.48578 0
M  V30 10882 H 1019.13 -2.46927 3.34664 0
M  V30 10883 H 1017.7 -3.30911 1.71908 0
M  V30 10884 N 1019.89 -1.26353 -0.941956 0
M  V30 10885 C 1021.14 -1.12017 -1.69056 0
M  V30 10886 C 1021.47 0.335856 -1.91274 0
M  V30 10887 O 1020.74 1.24677 -1.49285 0
M  V30 10888 C 1021.03 -1.88889 -3.06583 0
M  V30 10889 C 1020.88 -3.42394 -2.91696 0
M  V30 10890 C 1022.2 -1.68209 -4.06686 0
M  V30 10891 H 1019.32 -0.408311 -0.613556 0
M  V30 10892 H 1021.96 -1.55339 -1.09407 0
M  V30 10893 H 1020.11 -1.5207 -3.57501 0
M  V30 10894 H 1021.78 -3.88962 -2.48005 0
M  V30 10895 H 1020.02 -3.69459 -2.27338 0
M  V30 10896 H 1020.7 -3.91408 -3.89235 0
M  V30 10897 H 1023.17 -2.00286 -3.64726 0
M  V30 10898 H 1022.05 -2.24412 -5.00929 0
M  V30 10899 H 1022.31 -0.626474 -4.37639 0
M  V30 10900 N 1021.37 1.14642 -1.08144 0
M  V30 10901 C 1022.32 2.21708 -0.703448 0
M  V30 10902 C 1023.31 1.66907 0.289535 0
M  V30 10903 O 1024.52 1.79354 0.152387 0
M  V30 10904 H 1020.89 0.722247 -0.209437 0
M  V30 10905 H 1022.86 2.50862 -1.61588 0
M  V30 10906 C 1021.61 3.47472 -0.125975 0
M  V30 10907 H 1020.93 3.89967 -0.881216 0
M  V30 10908 H 1022.37 4.2388 0.100737 0
M  V30 10909 C 1020.83 3.17189 1.13546 0
M  V30 10910 O 1021.36 3.34733 2.22073 0
M  V30 10911 N 1019.57 2.71169 1.04479 0
M  V30 10912 H 1019.12 2.57093 0.161566 0
M  V30 10913 H 1019.07 2.51282 1.88957 0
M  V30 10914 N 1022.85 0.866709 1.31628 0
M  V30 10915 C 1024.26 0.529032 1.79048 0
M  V30 10916 C 1024.61 -0.953871 1.71452 0
M  V30 10917 O 1023.73 -1.74462 1.28031 0
M  V30 10918 C 1024.33 0.953522 3.25105 0
M  V30 10919 C 1022.89 0.667554 3.70433 0
M  V30 10920 C 1022.03 1.14664 2.52483 0
M  V30 10921 H 1024.98 1.05275 1.18756 0
M  V30 10922 H 1025.01 0.274844 3.79506 0
M  V30 10923 H 1024.52 2.03283 3.30602 0
M  V30 10924 H 1022.62 -0.400532 3.70441 0
M  V30 10925 H 1022.73 1.2423 4.62714 0
M  V30 10926 H 1021.1 0.566502 2.4832 0
M  V30 10927 H 1021.88 2.2333 2.60727 0
M  V30 10928 N 1024.32 -1.44642 0.625825 0
M  V30 10929 C 1025.27 -2.32408 -0.0945221 0
M  V30 10930 C 1026.27 -1.47038 -0.841198 0
M  V30 10931 O 1027.47 -1.63415 -0.754698 0
M  V30 10932 H 1023.85 -0.75038 -0.0493321 0
M  V30 10933 H 1025.82 -2.90922 0.663863 0
M  V30 10934 C 1024.57 -3.30951 -1.06615 0
M  V30 10935 H 1023.89 -3.96648 -0.501021 0
M  V30 10936 H 1025.33 -3.95054 -1.53976 0
M  V30 10937 C 1023.79 -2.59479 -2.14877 0
M  V30 10938 O 1024.32 -2.38974 -3.22885 0
M  V30 10939 N 1022.52 -2.19307 -1.90665 0
M  V30 10940 H 1022.07 -2.36184 -1.02835 0
M  V30 10941 H 1022.03 -1.71811 -2.63303 0
M  V30 10942 N 1025.8 -0.366053 -1.5329 0
M  V30 10943 C 1027.04 0.223558 -2.03174 0
M  V30 10944 C 1027.41 1.45955 -1.24745 0
M  V30 10945 O 1028.61 2.12481 -1.64637 0
M  V30 10946 C 1026.88 0.507899 -3.53773 0
M  V30 10947 S 1028.44 1.07111 -4.25526 0
M  V30 10948 H 1025.25 0.0650309 -0.70802 0
M  V30 10949 H 1027.86 -0.509028 -1.88757 0
M  V30 10950 H 1026.56 -0.39913 -4.08455 0
M  V30 10951 H 1026.09 1.26954 -3.72352 0
M  V30 10952 H 1028.11 2.35533 -4.36737 0
M  V30 10953 N 1027.28 1.57312 -0.0952337 0
M  V30 10954 C 1028.51 1.98409 0.575984 0
M  V30 10955 C 1028.92 0.973168 1.62253 0
M  V30 10956 O 1028.26 -0.0454416 1.83644 0
M  V30 10957 C 1028.32 3.35877 1.28167 0
M  V30 10958 C 1027.99 4.55368 0.385868 0
M  V30 10959 C 1028.98 5.1861 -0.366041 0
M  V30 10960 C 1026.67 5.0138 0.303885 0
M  V30 10961 C 1028.66 6.26233 -1.18791 0
M  V30 10962 C 1026.35 6.0887 -0.521637 0
M  V30 10963 C 1027.35 6.71161 -1.26618 0
M  V30 10964 O 1027.04 7.76577 -2.07804 0
M  V30 10965 H 1026.77 0.657018 0.159068 0
M  V30 10966 H 1029.32 2.04685 -0.171237 0
M  V30 10967 H 1027.55 3.26284 2.07547 0
M  V30 10968 H 1029.24 3.6142 1.84744 0
M  V30 10969 H 1030.01 4.83993 -0.312435 0
M  V30 10970 H 1025.89 4.52657 0.873065 0
M  V30 10971 H 1029.43 6.74784 -1.76955 0
M  V30 10972 H 1025.33 6.42918 -0.576722 0
M  V30 10973 H 1026.09 7.93566 -2.00489 0
M  V30 10974 N 1028.76 -0.17846 1.56586 0
M  V30 10975 C 1029.72 -1.20479 1.94981 0
M  V30 10976 C 1030.72 -1.37561 0.832677 0
M  V30 10977 O 1031.91 -1.35089 1.09984 0
M  V30 10978 C 1029.04 -2.57117 2.23839 0
M  V30 10979 H 1030.24 -0.876173 2.86816 0
M  V30 10980 H 1027.79 -0.420635 1.50534 0
M  V30 10981 H 1028.52 -2.95005 1.34695 0
M  V30 10982 H 1028.31 -2.46086 3.05261 0
M  V30 10983 H 1029.8 -3.31096 2.5449 0
M  V30 10984 N 1030.24 -1.51135 -0.446768 0
M  V30 10985 C 1031.18 -1.71767 -1.54158 0
M  V30 10986 C 1032.15 -0.559201 -1.56404 0
M  V30 10987 O 1033.34 -0.792567 -1.7356 0
M  V30 10988 C 1030.48 -1.84006 -2.91952 0
M  V30 10989 C 1029.59 -3.11511 -2.99308 0
M  V30 10990 C 1028.73 -3.144 -4.28166 0
M  V30 10991 C 1027.76 -4.36258 -4.29355 0
M  V30 10992 N 1026.9 -4.3675 -5.49722 0
M  V30 10993 H 1031.74 -2.65224 -1.35869 0
M  V30 10994 H 1029.28 -1.31453 -0.660186 0
M  V30 10995 H 1031.24 -1.89083 -3.71892 0
M  V30 10996 H 1029.87 -0.939661 -3.08821 0
M  V30 10997 H 1028.92 -3.15788 -2.12089 0
M  V30 10998 H 1030.23 -4.01445 -2.96047 0
M  V30 10999 H 1029.38 -3.18341 -5.16473 0
M  V30 11000 H 1028.12 -2.22338 -4.3407 0
M  V30 11001 H 1027.13 -4.32503 -3.39442 0
M  V30 11002 H 1028.35 -5.29574 -4.25122 0
M  V30 11003 H 1026.3 -3.47554 -5.56365 0
M  V30 11004 H 1026.22 -5.20481 -5.48302 0
M  V30 11005 H 1027.48 -4.4487 -6.40086 0
M  V30 11006 N 1031.71 0.701592 -1.41122 0
M  V30 11007 C 1032.96 1.46376 -1.40363 0
M  V30 11008 C 1033.29 1.94197 -0.0105442 0
M  V30 11009 O 1032.57 1.69121 0.960637 0
M  V30 11010 C 1032.85 2.67994 -2.40523 0
M  V30 11011 C 1032.7 2.25977 -3.88914 0
M  V30 11012 C 1034.02 3.70181 -2.38022 0
M  V30 11013 H 1031.14 0.530929 -0.511159 0
M  V30 11014 H 1033.78 0.799588 -1.72356 0
M  V30 11015 H 1031.93 3.24661 -2.13372 0
M  V30 11016 H 1033.61 1.74684 -4.26946 0
M  V30 11017 H 1031.85 1.57826 -4.04071 0
M  V30 11018 H 1032.52 3.13215 -4.54533 0
M  V30 11019 H 1035 3.23174 -2.62103 0
M  V30 11020 H 1033.87 4.52894 -3.10127 0
M  V30 11021 H 1034.13 4.19458 -1.3967 0
M  V30 11022 N 1033.19 1.2685 0.935242 0
M  V30 11023 C 1034.12 1.03244 2.03509 0
M  V30 11024 C 1035.1 -0.0447323 1.62538 0
M  V30 11025 O 1036.29 0.0988905 1.8824 0
M  V30 11026 C 1033.41 0.564626 3.33961 0
M  V30 11027 C 1032.46 1.63524 3.93906 0
M  V30 11028 S 1033.29 3.22577 4.27439 0
M  V30 11029 C 1034.45 2.77579 5.60982 0
M  V30 11030 H 1034.68 1.96367 2.2322 0
M  V30 11031 H 1032.21 1.10597 1.07739 0
M  V30 11032 H 1034.17 0.301388 4.09392 0
M  V30 11033 H 1032.83 -0.346419 3.12184 0
M  V30 11034 H 1032.03 1.25905 4.8802 0
M  V30 11035 H 1031.63 1.85017 3.25031 0
M  V30 11036 H 1033.92 2.22412 6.39952 0
M  V30 11037 H 1034.86 3.70408 6.03493 0
M  V30 11038 H 1035.27 2.16956 5.21143 0
M  V30 11039 N 1034.67 -1.14067 1.0875 0
M  V30 11040 C 1035.6 -2.18306 0.664652 0
M  V30 11041 C 1036.58 -1.59312 -0.325359 0
M  V30 11042 O 1037.77 -1.87111 -0.228385 0
M  V30 11043 C 1034.89 -3.38693 -0.0218723 0
M  V30 11044 C 1033.94 -4.16263 0.928844 0
M  V30 11045 S 1034.77 -4.76817 2.43734 0
M  V30 11046 C 1035.93 -6.00557 1.76302 0
M  V30 11047 H 1036.16 -2.53837 1.54772 0
M  V30 11048 H 1033.69 -1.25254 0.902817 0
M  V30 11049 H 1035.65 -4.0843 -0.411686 0
M  V30 11050 H 1034.31 -3.01478 -0.881481 0
M  V30 11051 H 1033.51 -5.02446 0.395446 0
M  V30 11052 H 1033.11 -3.52146 1.25972 0
M  V30 11053 H 1035.4 -6.68788 1.08301 0
M  V30 11054 H 1036.34 -6.58492 2.60373 0
M  V30 11055 H 1036.75 -5.50827 1.23489 0
M  V30 11056 N 1036.15 -0.873678 -1.31166 0
M  V30 11057 C 1037.39 -0.487178 -1.96861 0
M  V30 11058 C 1037.73 0.95887 -1.68877 0
M  V30 11059 O 1037 1.6758 -0.987279 0
M  V30 11060 C 1037.29 -0.74925 -3.52219 0
M  V30 11061 C 1037.14 -2.2451 -3.89763 0
M  V30 11062 C 1038.46 -0.218194 -4.39559 0
M  V30 11063 H 1035.58 -0.178477 -0.715063 0
M  V30 11064 H 1038.22 -1.0956 -1.55231 0
M  V30 11065 H 1036.37 -0.231403 -3.8781 0
M  V30 11066 H 1038.04 -2.83049 -3.64254 0
M  V30 11067 H 1036.28 -2.71621 -3.38237 0
M  V30 11068 H 1036.95 -2.37911 -4.98099 0
M  V30 11069 H 1039.43 -0.661274 -4.10812 0
M  V30 11070 H 1038.31 -0.430983 -5.47205 0
M  V30 11071 H 1038.57 0.880056 -4.33252 0
M  V30 11072 N 1037.63 1.44308 -0.633487 0
M  V30 11073 C 1038.57 2.32455 0.0821956 0
M  V30 11074 C 1039.57 1.47482 0.833388 0
M  V30 11075 O 1040.77 1.63812 0.746021 0
M  V30 11076 H 1037.15 0.750631 0.045352 0
M  V30 11077 H 1039.12 2.90566 -0.679282 0
M  V30 11078 C 1037.87 3.31512 1.04858 0
M  V30 11079 H 1037.19 3.96908 0.479979 0
M  V30 11080 H 1038.63 3.95865 1.51879 0
M  V30 11081 C 1037.09 2.60615 2.13498 0
M  V30 11082 O 1037.62 2.40682 3.21613 0
M  V30 11083 N 1035.83 2.20315 1.89499 0
M  V30 11084 H 1035.37 2.36726 1.01581 0
M  V30 11085 H 1035.33 1.73205 2.62388 0
M  V30 11086 N 1039.1 0.374177 1.53094 0
M  V30 11087 C 1040.35 -0.212396 2.00981 0
M  V30 11088 C 1040.67 -1.48576 1.26293 0
M  V30 11089 O 1039.94 -1.92206 0.378642 0
M  V30 11090 H 1038.52 -0.0814763 0.742543 0
M  V30 11091 H 1041.19 0.502389 1.88314 0
M  V30 11092 H 1040.28 -0.433316 3.09077 0
M  V30 11093 N 1040.58 -1.57259 0.103575 0
M  V30 11094 C 1041.86 -1.86143 -0.600852 0
M  V30 11095 C 1042.24 -1.00198 -1.85805 0
M  V30 11096 O 1041.59 -0.0766791 -2.28371 0
M  V30 11097 C 1041.8 -3.36978 -0.908108 0
M  V30 11098 C 1043.15 -4.05228 -1.26788 0
M  V30 11099 O 1044.17 -3.41908 -0.998859 0
M  V30 11100 O 1043.03 -5.16971 -1.7721 0
M  V30 11101 H 1040.12 -0.770064 -0.301547 0
M  V30 11102 H 1042.67 -1.69147 0.136914 0
M  V30 11103 H 1041.44 -3.91296 -0.0165615 0
M  V30 11104 H 1041.06 -3.5935 -1.70156 0
M  V30 11105 N 1042.06 0.170153 -1.56679 0
M  V30 11106 C 1043.01 1.21531 -1.9291 0
M  V30 11107 C 1043.99 1.39742 -0.797553 0
M  V30 11108 O 1045.19 1.41693 -1.06075 0
M  V30 11109 C 1042.32 2.55447 -2.29351 0
M  V30 11110 C 1041.4 2.40925 -3.49022 0
M  V30 11111 N 1041.79 1.96118 -4.66231 0
M  V30 11112 C 1040.09 2.71747 -3.53652 0
M  V30 11113 C 1040.79 1.94086 -5.48366 0
M  V30 11114 N 1039.77 2.36533 -4.89441 0
M  V30 11115 H 1043.57 0.860602 -2.81018 0
M  V30 11116 H 1041.08 0.378415 -1.5793 0
M  V30 11117 H 1043.08 3.30972 -2.53502 0
M  V30 11118 H 1041.74 2.9172 -1.42583 0
M  V30 11119 H 1042.75 1.66438 -4.90427 0
M  V30 11120 H 1039.43 3.1205 -2.77365 0
M  V30 11121 H 1040.82 1.61132 -6.52293 0
M  V30 11122 N 1043.54 1.5137 0.438746 0
M  V30 11123 C 1044.95 1.39514 0.775116 0
M  V30 11124 C 1045.15 0.47638 1.95788 0
M  V30 11125 O 1044.21 -0.0689832 2.52406 0
M  V30 11126 C 1045.52 2.81517 1.05681 0
M  V30 11127 C 1047.07 2.90658 1.16133 0
M  V30 11128 C 1047.55 4.33566 1.47597 0
M  V30 11129 N 1049.04 4.36665 1.54524 0
M  V30 11130 C 1049.77 5.4427 1.80438 0
M  V30 11131 N 1049.27 6.62037 2.04154 0
M  V30 11132 N 1051.06 5.31749 1.82208 0
M  V30 11133 H 1043.21 2.09657 -0.340237 0
M  V30 11134 H 1045.48 0.943736 -0.0898115 0
M  V30 11135 H 1045.18 3.50734 0.260441 0
M  V30 11136 H 1045.06 3.20757 1.98481 0
M  V30 11137 H 1047.44 2.2164 1.94833 0
M  V30 11138 H 1047.52 2.54917 0.212376 0
M  V30 11139 H 1047.17 5.03133 0.694251 0
M  V30 11140 H 1047.1 4.66819 2.43696 0
M  V30 11141 H 1049.59 3.51761 1.38105 0
M  V30 11142 H 1049.9 7.39838 2.23293 0
M  V30 11143 H 1048.25 6.65155 2.01479 0
M  V30 11144 H 1051.44 4.3873 1.63198 0
M  V30 11145 H 1051.61 6.15689 2.02067 0
M  V30 11146 N 1045.02 -0.694098 1.41492 0
M  V30 11147 C 1046.27 -1.4498 1.40227 0
M  V30 11148 C 1046.58 -1.95594 0.0151253 0
M  V30 11149 O 1047.78 -2.71234 -0.120146 0
M  V30 11150 C 1046.24 -2.62171 2.46565 0
M  V30 11151 C 1045.85 -2.18337 3.91194 0
M  V30 11152 C 1047.59 -3.39796 2.54439 0
M  V30 11153 C 1045.5 -3.32495 4.89082 0
M  V30 11154 H 1044.43 -0.544584 0.521483 0
M  V30 11155 H 1047.08 -0.75337 1.67322 0
M  V30 11156 H 1045.46 -3.34089 2.12604 0
M  V30 11157 H 1046.64 -1.53698 4.34412 0
M  V30 11158 H 1044.95 -1.53702 3.86994 0
M  V30 11159 H 1047.55 -4.2478 3.24755 0
M  V30 11160 H 1047.89 -3.85082 1.5817 0
M  V30 11161 H 1048.42 -2.74935 2.87499 0
M  V30 11162 H 1045.16 -2.92219 5.86761 0
M  V30 11163 H 1044.68 -3.95978 4.50512 0
M  V30 11164 H 1046.36 -3.98251 5.09907 0
M  V30 11165 N 1046.49 -1.27344 -0.928501 0
M  V30 11166 C 1047.74 -1.13411 -1.67279 0
M  V30 11167 C 1048.06 0.320698 -1.92345 0
M  V30 11168 O 1047.33 1.2245 -1.52915 0
M  V30 11169 H 1045.91 -0.416712 -0.619968 0
M  V30 11170 H 1048.58 -1.5986 -1.11493 0
M  V30 11171 H 1047.67 -1.66256 -2.64131 0
M  V30 11172 N 1047.97 1.13488 -1.09353 0
M  V30 11173 C 1049.22 1.841 -0.82401 0
M  V30 11174 C 1049.53 1.84393 0.652586 0
M  V30 11175 O 1050.74 2.5089 1.03762 0
M  V30 11176 C 1049.2 3.30523 -1.42418 0
M  V30 11177 C 1048.8 3.38621 -2.93326 0
M  V30 11178 C 1050.55 4.06182 -1.23356 0
M  V30 11179 C 1048.46 4.79311 -3.46432 0
M  V30 11180 H 1047.39 0.68974 -0.304589 0
M  V30 11181 H 1050.04 1.27866 -1.31615 0
M  V30 11182 H 1048.42 3.86555 -0.859727 0
M  V30 11183 H 1049.59 2.92587 -3.5599 0
M  V30 11184 H 1047.91 2.76426 -3.11412 0
M  V30 11185 H 1050.5 5.10047 -1.60488 0
M  V30 11186 H 1050.85 4.15936 -0.174152 0
M  V30 11187 H 1051.38 3.56477 -1.76547 0
M  V30 11188 H 1048.12 4.74748 -4.5199 0
M  V30 11189 H 1047.64 5.25842 -2.8853 0
M  V30 11190 H 1049.32 5.48227 -3.43593 0
M  V30 11191 N 1049.45 0.880621 1.30701 0
M  V30 11192 C 1050.7 0.496875 1.96309 0
M  V30 11193 C 1051.03 -0.953064 1.69549 0
M  V30 11194 O 1050.28 -1.68782 0.990507 0
M  V30 11195 C 1050.58 0.713203 3.50212 0
M  V30 11196 C 1050.25 2.13756 3.97013 0
M  V30 11197 C 1048.91 2.52706 4.09503 0
M  V30 11198 C 1051.26 3.066 4.21481 0
M  V30 11199 C 1048.59 3.8372 4.43819 0
M  V30 11200 C 1050.94 4.3714 4.57265 0
M  V30 11201 C 1049.6 4.7599 4.67963 0
M  V30 11202 H 1048.87 0.18182 0.718347 0
M  V30 11203 H 1051.52 1.11564 1.55646 0
M  V30 11204 H 1049.83 0.0113694 3.91798 0
M  V30 11205 H 1051.52 0.39595 3.9904 0
M  V30 11206 H 1048.11 1.8252 3.87794 0
M  V30 11207 H 1052.3 2.77729 4.11315 0
M  V30 11208 H 1047.55 4.13568 4.50301 0
M  V30 11209 H 1051.73 5.09123 4.75149 0
M  V30 11210 H 1049.35 5.77549 4.94309 0
M  V30 11211 N 1050.93 -1.4397 0.641131 0
M  V30 11212 C 1051.89 -2.29149 -0.0482243 0
M  V30 11213 C 1052.89 -1.41572 -0.762495 0
M  V30 11214 O 1054.08 -1.63335 -0.605571 0
M  V30 11215 C 1051.21 -3.23375 -1.07896 0
M  V30 11216 H 1052.41 -2.9159 0.70109 0
M  V30 11217 H 1049.96 -1.51048 0.401754 0
M  V30 11218 H 1050.7 -2.65804 -1.85792 0
M  V30 11219 H 1050.48 -3.87926 -0.570597 0
M  V30 11220 H 1051.97 -3.87337 -1.56075 0
M  V30 11221 N 1052.41 -0.382291 -1.52893 0
M  V30 11222 C 1053.35 0.456234 -2.26246 0
M  V30 11223 C 1054.32 1.06366 -1.27575 0
M  V30 11224 O 1055.51 1.09301 -1.5639 0
M  V30 11225 C 1052.65 1.5813 -3.06739 0
M  V30 11226 C 1051.76 0.997416 -4.20328 0
M  V30 11227 C 1050.9 2.09296 -4.8823 0
M  V30 11228 C 1049.94 1.4846 -5.93823 0
M  V30 11229 N 1049.07 2.51916 -6.55349 0
M  V30 11230 H 1053.91 -0.175761 -2.97481 0
M  V30 11231 H 1051.45 -0.0985046 -1.4677 0
M  V30 11232 H 1053.41 2.24426 -3.51694 0
M  V30 11233 H 1052.04 2.18371 -2.37727 0
M  V30 11234 H 1051.09 0.224251 -3.79738 0
M  V30 11235 H 1052.4 0.512784 -4.96157 0
M  V30 11236 H 1051.56 2.83377 -5.36453 0
M  V30 11237 H 1050.3 2.61116 -4.1191 0
M  V30 11238 H 1049.3 0.729001 -5.44946 0
M  V30 11239 H 1050.53 0.97443 -6.72073 0
M  V30 11240 H 1048.47 3.02919 -5.81873 0
M  V30 11241 H 1048.39 2.08188 -7.26769 0
M  V30 11242 H 1049.66 3.25649 -7.08218 0
M  V30 11243 N 1053.89 1.57202 -0.111913 0
M  V30 11244 C 1055.3 1.57713 0.244702 0
M  V30 11245 C 1055.5 1.12419 1.67225 0
M  V30 11246 O 1054.56 0.808329 2.39212 0
M  V30 11247 C 1055.87 3.00695 0.0178289 0
M  V30 11248 C 1057.42 3.12887 0.0842781 0
M  V30 11249 C 1057.89 4.57856 -0.114812 0
M  V30 11250 N 1059.38 4.6316 -0.0605423 0
M  V30 11251 C 1060.12 5.73086 -0.189594 0
M  V30 11252 N 1059.62 6.91787 -0.37442 0
M  V30 11253 N 1061.41 5.6195 -0.12967 0
M  V30 11254 H 1053.56 1.84947 -1.04443 0
M  V30 11255 H 1055.82 0.854418 -0.4107 0
M  V30 11256 H 1055.53 3.38093 -0.968802 0
M  V30 11257 H 1055.4 3.69611 0.752815 0
M  V30 11258 H 1057.79 2.7535 1.06143 0
M  V30 11259 H 1057.87 2.46528 -0.682474 0
M  V30 11260 H 1057.51 4.9609 -1.0889 0
M  V30 11261 H 1057.44 5.22297 0.671839 0
M  V30 11262 H 1059.94 3.77817 0.0790856 0
M  V30 11263 H 1060.25 7.71406 -0.463948 0
M  V30 11264 H 1058.59 6.93788 -0.410303 0
M  V30 11265 H 1061.78 4.68098 0.0137115 0
M  V30 11266 H 1061.96 6.47578 -0.233688 0
M  V30 11267 N 1055.36 -0.161842 1.56767 0
M  V30 11268 C 1056.33 -1.18404 1.96247 0
M  V30 11269 C 1057.33 -1.3667 0.84722 0
M  V30 11270 O 1058.52 -1.33915 1.11411 0
M  V30 11271 C 1055.65 -2.54728 2.26553 0
M  V30 11272 H 1056.84 -0.845703 2.87729 0
M  V30 11273 H 1054.39 -0.404645 1.50971 0
M  V30 11274 H 1055.13 -2.93559 1.37816 0
M  V30 11275 H 1054.91 -2.42834 3.07854 0
M  V30 11276 H 1056.4 -3.28378 2.57987 0
M  V30 11277 N 1056.84 -1.516 -0.430713 0
M  V30 11278 C 1058.09 -1.63829 -1.17657 0
M  V30 11279 C 1058.4 -0.363605 -1.92191 0
M  V30 11280 O 1059.61 -0.365358 -2.6903 0
M  V30 11281 C 1058.07 -2.89357 -2.14011 0
M  V30 11282 C 1057.67 -4.23854 -1.45094 0
M  V30 11283 C 1059.42 -3.10944 -2.88988 0
M  V30 11284 C 1057.32 -5.40526 -2.3997 0
M  V30 11285 H 1056.25 -0.610221 -0.442884 0
M  V30 11286 H 1058.91 -1.78073 -0.442984 0
M  V30 11287 H 1057.29 -2.68762 -2.90832 0
M  V30 11288 H 1058.46 -4.54854 -0.737853 0
M  V30 11289 H 1056.78 -4.08197 -0.822429 0
M  V30 11290 H 1059.37 -3.95286 -3.60074 0
M  V30 11291 H 1059.72 -2.24291 -3.50712 0
M  V30 11292 H 1060.25 -3.3191 -2.19272 0
M  V30 11293 H 1056.99 -6.29459 -1.82925 0
M  V30 11294 H 1056.51 -5.13893 -3.09313 0
M  V30 11295 H 1058.19 -5.72741 -3.00959 0
M  V30 11296 N 1058.32 0.686584 -1.41858 0
M  V30 11297 C 1059.25 1.81202 -1.40352 0
M  V30 11298 C 1060.26 1.5993 -0.304322 0
M  V30 11299 O 1061.45 1.69267 -0.566643 0
M  V30 11300 C 1058.55 3.18116 -1.16856 0
M  V30 11301 C 1057.73 3.66339 -2.38987 0
M  V30 11302 C 1056.79 4.8195 -2.11212 0
M  V30 11303 O 1055.81 4.93102 -2.84323 0
M  V30 11304 N 1057.01 5.69829 -1.10793 0
M  V30 11305 H 1059.78 1.82983 -2.37355 0
M  V30 11306 H 1057.34 0.869244 -1.36586 0
M  V30 11307 H 1059.33 3.93097 -0.962125 0
M  V30 11308 H 1057.9 3.11306 -0.284186 0
M  V30 11309 H 1057.12 2.82166 -2.75274 0
M  V30 11310 H 1058.41 3.95297 -3.2034 0
M  V30 11311 H 1057.81 5.63459 -0.503012 0
M  V30 11312 H 1056.36 6.44671 -0.961379 0
M  V30 11313 N 1059.8 1.27835 0.921735 0
M  V30 11314 C 1061.03 1.17352 1.704 0
M  V30 11315 C 1061.44 -0.268892 1.86875 0
M  V30 11316 O 1060.8 -1.18253 1.39005 0
M  V30 11317 C 1060.85 1.85889 3.10045 0
M  V30 11318 O 1060.57 3.24495 2.94338 0
M  V30 11319 C 1062.07 1.81607 4.04393 0
M  V30 11320 H 1059.29 0.40773 0.532914 0
M  V30 11321 H 1061.83 1.68815 1.15419 0
M  V30 11322 H 1059.99 1.38316 3.61867 0
M  V30 11323 H 1060.4 3.58705 3.82663 0
M  V30 11324 H 1061.88 2.34165 4.99871 0
M  V30 11325 H 1062.35 0.786697 4.32097 0
M  V30 11326 H 1062.96 2.28822 3.58498 0
M  V30 11327 N 1061.28 -1.12907 1.09954 0
M  V30 11328 C 1062.52 -1.83941 0.837255 0
M  V30 11329 C 1062.84 -1.84234 -0.638984 0
M  V30 11330 O 1062.11 -1.30193 -1.46378 0
M  V30 11331 H 1060.69 -0.681115 0.306743 0
M  V30 11332 H 1063.36 -1.36743 1.38879 0
M  V30 11333 H 1062.45 -2.88289 1.19565 0
M  V30 11334 N 1062.75 -0.88754 -1.30232 0
M  V30 11335 C 1063.66 -0.360333 -2.31816 0
M  V30 11336 C 1064.68 0.538741 -1.6545 0
M  V30 11337 O 1065.86 0.431246 -1.96729 0
M  V30 11338 C 1062.92 0.414336 -3.44215 0
M  V30 11339 C 1061.98 -0.514799 -4.26202 0
M  V30 11340 C 1061.21 0.222994 -5.33234 0
M  V30 11341 O 1061.44 1.44871 -5.51696 0
M  V30 11342 O 1060.37 -0.428221 -6.00375 0
M  V30 11343 H 1064.2 -1.20279 -2.78867 0
M  V30 11344 H 1061.78 -0.651459 -1.34448 0
M  V30 11345 H 1063.66 0.852859 -4.12679 0
M  V30 11346 H 1062.34 1.23305 -2.99295 0
M  V30 11347 H 1061.25 -1.00219 -3.60426 0
M  V30 11348 H 1062.58 -1.29959 -4.74733 0
M  V30 11349 N 1064.23 1.43628 -0.648757 0
M  V30 11350 C 1065.14 2.34554 0.0463037 0
M  V30 11351 C 1066.16 1.53629 0.816952 0
M  V30 11352 O 1067.33 1.86297 0.765212 0
M  V30 11353 C 1064.4 3.3185 1.00381 0
M  V30 11354 C 1063.46 4.2868 0.230589 0
M  V30 11355 C 1062.69 5.21328 1.14249 0
M  V30 11356 O 1062.92 5.18298 2.38166 0
M  V30 11357 O 1061.85 5.98726 0.617296 0
M  V30 11358 H 1065.68 2.95475 -0.702008 0
M  V30 11359 H 1063.26 1.43694 -0.408942 0
M  V30 11360 H 1065.14 3.91692 1.5542 0
M  V30 11361 H 1063.82 2.73439 1.73243 0
M  V30 11362 H 1062.73 3.72332 -0.363282 0
M  V30 11363 H 1064.06 4.90061 -0.458368 0
M  V30 11364 N 1065.71 0.390394 1.52688 0
M  V30 11365 C 1066.64 -0.43567 2.294 0
M  V30 11366 C 1067.62 -1.06253 1.32832 0
M  V30 11367 O 1068.81 -1.07509 1.61726 0
M  V30 11368 C 1065.94 -1.56259 3.10162 0
M  V30 11369 C 1064.89 -1.06172 4.14622 0
M  V30 11370 C 1064.22 -2.2808 4.83615 0
M  V30 11371 C 1065.52 -0.128902 5.22141 0
M  V30 11372 H 1067.21 0.204384 2.98702 0
M  V30 11373 H 1064.76 0.0997377 1.43654 0
M  V30 11374 H 1066.71 -2.14732 3.62585 0
M  V30 11375 H 1065.43 -2.23025 2.38595 0
M  V30 11376 H 1064.09 -0.499518 3.63181 0
M  V30 11377 H 1063.74 -2.93358 4.08595 0
M  V30 11378 H 1063.44 -1.95227 5.5422 0
M  V30 11379 H 1064.96 -2.87193 5.38844 0
M  V30 11380 H 1066.38 -0.621849 5.69917 0
M  V30 11381 H 1064.78 0.109919 5.99999 0
M  V30 11382 H 1065.85 0.821884 4.77884 0
M  V30 11383 N 1067.19 -1.57141 0.120249 0
M  V30 11384 C 1068.44 -1.95238 -0.537449 0
M  V30 11385 C 1068.76 -1.00361 -1.66607 0
M  V30 11386 O 1068.02 -0.0277306 -1.9568 0
M  V30 11387 C 1068.32 -3.39745 -1.10941 0
M  V30 11388 C 1067.98 -4.50785 -0.102012 0
M  V30 11389 C 1066.65 -4.80882 0.174994 0
M  V30 11390 C 1069 -5.17913 0.584462 0
M  V30 11391 C 1066.33 -5.75424 1.14474 0
M  V30 11392 C 1068.68 -6.13497 1.54284 0
M  V30 11393 C 1067.34 -6.41987 1.82782 0
M  V30 11394 H 1066.61 -0.714425 -0.196666 0
M  V30 11395 H 1069.26 -1.90438 0.201418 0
M  V30 11396 H 1067.56 -3.41246 -1.92506 0
M  V30 11397 H 1069.26 -3.66536 -1.62642 0
M  V30 11398 H 1065.85 -4.27342 -0.328097 0
M  V30 11399 H 1070.03 -4.94815 0.383625 0
M  V30 11400 H 1065.29 -5.95801 1.37226 0
M  V30 11401 H 1069.46 -6.64598 2.08044 0
M  V30 11402 H 1067.09 -7.15052 2.5808 0
M  V30 11403 N 1068.67 0.153526 -1.5685 0
M  V30 11404 C 1069.91 0.867232 -1.8299 0
M  V30 11405 C 1070.24 1.81462 -0.700125 0
M  V30 11406 O 1069.5 1.93207 0.311348 0
M  V30 11407 C 1069.8 1.68066 -3.15418 0
M  V30 11408 C 1069.46 0.880635 -4.42217 0
M  V30 11409 C 1068.12 0.659899 -4.76654 0
M  V30 11410 C 1070.48 0.320698 -5.20212 0
M  V30 11411 C 1067.8 -0.131588 -5.86552 0
M  V30 11412 C 1070.16 -0.457794 -6.30941 0
M  V30 11413 C 1068.82 -0.689168 -6.63933 0
M  V30 11414 H 1068.09 0.317343 -0.669608 0
M  V30 11415 H 1070.74 0.131208 -1.9105 0
M  V30 11416 H 1069.04 2.4866 -3.02779 0
M  V30 11417 H 1070.74 2.23623 -3.32857 0
M  V30 11418 H 1067.33 1.06274 -4.15215 0
M  V30 11419 H 1071.51 0.47853 -4.93988 0
M  V30 11420 H 1066.77 -0.320413 -6.1056 0
M  V30 11421 H 1070.94 -0.898839 -6.90575 0
M  V30 11422 H 1068.57 -1.30433 -7.48927 0
M  V30 11423 N 1070.14 1.51827 0.422667 0
M  V30 11424 C 1071.42 1.55772 1.18299 0
M  V30 11425 C 1071.8 0.330657 2.08494 0
M  V30 11426 O 1071.15 -0.683373 2.18042 0
M  V30 11427 C 1071.36 2.87941 1.97208 0
M  V30 11428 C 1072.71 3.4044 2.53744 0
M  V30 11429 O 1073.73 2.8959 2.07403 0
M  V30 11430 O 1072.59 4.29201 3.38303 0
M  V30 11431 H 1069.68 0.626889 0.539388 0
M  V30 11432 H 1072.23 1.64147 0.430545 0
M  V30 11433 H 1071 3.68702 1.31052 0
M  V30 11434 H 1070.63 2.82795 2.79486 0
M  V30 11435 N 1071.62 -0.679052 1.4222 0
M  V30 11436 C 1072.85 -1.46534 1.45641 0
M  V30 11437 C 1073.26 -1.89088 0.0649574 0
M  V30 11438 O 1072.6 -1.58436 -0.929712 0
M  V30 11439 C 1072.67 -2.74882 2.3169 0
M  V30 11440 C 1072.33 -2.5443 3.79624 0
M  V30 11441 C 1073.33 -2.19307 4.71382 0
M  V30 11442 C 1071.01 -2.69557 4.23845 0
M  V30 11443 C 1073.01 -1.99571 6.05351 0
M  V30 11444 C 1070.69 -2.49437 5.57875 0
M  V30 11445 C 1071.69 -2.14497 6.48444 0
M  V30 11446 O 1071.38 -1.94567 7.79999 0
M  V30 11447 H 1071.11 -0.457542 0.497626 0
M  V30 11448 H 1073.66 -0.842145 1.87342 0
M  V30 11449 H 1071.89 -3.39669 1.8483 0
M  V30 11450 H 1073.58 -3.3675 2.26615 0
M  V30 11451 H 1074.35 -2.0722 4.38503 0
M  V30 11452 H 1070.23 -2.95733 3.53642 0
M  V30 11453 H 1073.77 -1.72222 6.76007 0
M  V30 11454 H 1069.67 -2.61119 5.90328 0
M  V30 11455 H 1070.44 -2.092 7.91314 0
M  V30 11456 N 1073.1 -1.28322 -0.914942 0
M  V30 11457 C 1074.52 -1.06003 -1.19313 0
M  V30 11458 C 1074.72 0.198366 -2.00521 0
M  V30 11459 O 1073.77 0.900364 -2.35902 0
M  V30 11460 C 1075.09 -2.30684 -1.92887 0
M  V30 11461 C 1076.63 -2.35851 -2.05775 0
M  V30 11462 C 1077.11 -3.60295 -2.82757 0
M  V30 11463 N 1078.6 -3.60928 -2.9032 0
M  V30 11464 C 1079.33 -4.53894 -3.50383 0
M  V30 11465 N 1078.83 -5.57178 -4.11734 0
M  V30 11466 N 1080.62 -4.41492 -3.4791 0
M  V30 11467 H 1072.77 -2.09104 -0.372735 0
M  V30 11468 H 1075.04 -0.920285 -0.227552 0
M  V30 11469 H 1074.74 -3.22355 -1.40643 0
M  V30 11470 H 1074.62 -2.37003 -2.93444 0
M  V30 11471 H 1077 -1.44678 -2.57201 0
M  V30 11472 H 1077.09 -2.33526 -1.04399 0
M  V30 11473 H 1076.73 -4.51811 -2.32011 0
M  V30 11474 H 1076.66 -3.59873 -3.84446 0
M  V30 11475 H 1079.15 -2.8624 -2.46729 0
M  V30 11476 H 1079.46 -6.24261 -4.55541 0
M  V30 11477 H 1077.81 -5.61005 -4.10242 0
M  V30 11478 H 1081 -3.60005 -2.99189 0
M  V30 11479 H 1081.17 -5.14132 -3.94427 0
M  V30 11480 N 1074.58 1.12322 -1.10551 0
M  V30 11481 C 1075.81 1.87407 -0.869607 0
M  V30 11482 C 1076.22 1.79976 0.58356 0
M  V30 11483 O 1075.56 1.1725 1.41415 0
M  V30 11484 C 1075.62 3.37401 -1.24099 0
M  V30 11485 C 1075.29 3.68607 -2.70144 0
M  V30 11486 C 1076.28 3.66869 -3.68379 0
M  V30 11487 C 1073.97 3.97903 -3.06559 0
M  V30 11488 C 1075.96 3.93987 -5.01052 0
M  V30 11489 C 1073.65 4.24681 -4.39419 0
M  V30 11490 C 1074.65 4.2271 -5.36475 0
M  V30 11491 O 1074.33 4.48823 -6.66943 0
M  V30 11492 H 1074.07 0.59978 -0.311834 0
M  V30 11493 H 1076.62 1.43037 -1.4741 0
M  V30 11494 H 1074.85 3.82332 -0.579606 0
M  V30 11495 H 1076.54 3.93833 -0.982378 0
M  V30 11496 H 1077.31 3.44297 -3.41591 0
M  V30 11497 H 1073.18 3.98578 -2.31638 0
M  V30 11498 H 1076.73 3.92364 -5.76798 0
M  V30 11499 H 1072.63 4.46727 -4.65945 0
M  V30 11500 H 1073.39 4.66436 -6.72592 0
M  V30 11501 N 1076.06 0.894434 1.2976 0
M  V30 11502 C 1077.28 0.5322 2.00455 0
M  V30 11503 C 1077.71 -0.874427 1.66539 0
M  V30 11504 O 1077.06 -1.58113 0.887129 0
M  V30 11505 C 1077.11 0.725264 3.53231 0
M  V30 11506 O 1076.22 -0.224612 4.11788 0
M  V30 11507 H 1075.56 0.208562 0.630395 0
M  V30 11508 H 1078.09 1.20458 1.65382 0
M  V30 11509 H 1078.1 0.627889 4.0314 0
M  V30 11510 H 1076.77 1.75079 3.77253 0
M  V30 11511 H 1075.35 -0.0801361 3.72814 0
M  V30 11512 N 1077.53 -1.43282 0.656365 0
M  V30 11513 C 1078.47 -2.29087 -0.0720378 0
M  V30 11514 C 1079.48 -1.4268 -0.783982 0
M  V30 11515 O 1080.67 -1.66585 -0.641213 0
M  V30 11516 C 1077.77 -3.19676 -1.12519 0
M  V30 11517 C 1076.94 -4.34638 -0.490756 0
M  V30 11518 C 1076 -5.06079 -1.44121 0
M  V30 11519 O 1075.03 -5.6124 -0.948595 0
M  V30 11520 N 1076.23 -5.09872 -2.77509 0
M  V30 11521 H 1078.99 -2.92241 0.664456 0
M  V30 11522 H 1076.55 -1.54006 0.499383 0
M  V30 11523 H 1078.55 -3.64334 -1.76189 0
M  V30 11524 H 1077.12 -2.581 -1.76362 0
M  V30 11525 H 1076.34 -3.92857 0.3251 0
M  V30 11526 H 1077.62 -5.08777 -0.0480061 0
M  V30 11527 H 1077.02 -4.66433 -3.20088 0
M  V30 11528 H 1075.58 -5.58237 -3.36474 0
M  V30 11529 N 1079.01 -0.398486 -1.52479 0
M  V30 11530 C 1079.98 0.420206 -2.25315 0
M  V30 11531 C 1080.98 0.982559 -1.27289 0
M  V30 11532 O 1082.17 0.863113 -1.51314 0
M  V30 11533 C 1079.3 1.59045 -3.01525 0
M  V30 11534 H 1080.49 -0.217599 -2.9911 0
M  V30 11535 H 1078.04 -0.150784 -1.55571 0
M  V30 11536 H 1078.78 2.26542 -2.32054 0
M  V30 11537 H 1078.56 1.19382 -3.73484 0
M  V30 11538 H 1080.05 2.16984 -3.56802 0
M  V30 11539 N 1080.49 1.57075 -0.12858 0
M  V30 11540 C 1081.77 1.87075 0.571162 0
M  V30 11541 C 1082.15 1.03141 1.84188 0
M  V30 11542 O 1081.5 0.113001 2.2822 0
M  V30 11543 C 1081.71 3.3838 0.854383 0
M  V30 11544 C 1083.05 4.07194 1.20326 0
M  V30 11545 O 1084.08 3.43454 0.944338 0
M  V30 11546 O 1082.94 5.19725 1.68963 0
M  V30 11547 H 1080.03 0.774764 0.289258 0
M  V30 11548 H 1082.58 1.68908 -0.163806 0
M  V30 11549 H 1081.35 3.91273 -0.0456925 0
M  V30 11550 H 1080.97 3.62012 1.64418 0
M  V30 11551 N 1081.97 -0.145205 1.5693 0
M  V30 11552 C 1082.93 -1.16316 1.97492 0
M  V30 11553 C 1083.93 -1.35764 0.861668 0
M  V30 11554 O 1085.12 -1.32726 1.12825 0
M  V30 11555 C 1082.25 -2.52311 2.29242 0
M  V30 11556 H 1083.45 -0.815138 2.8861 0
M  V30 11557 H 1081 -0.38861 1.51392 0
M  V30 11558 H 1081.74 -2.92081 1.40922 0
M  V30 11559 H 1081.52 -2.39555 3.10412 0
M  V30 11560 H 1083.01 -3.25624 2.61456 0
M  V30 11561 N 1083.45 -1.52049 -0.414609 0
M  V30 11562 C 1084.38 -1.77956 -1.51175 0
M  V30 11563 C 1085.36 -0.630282 -1.57992 0
M  V30 11564 O 1086.54 -0.875324 -1.73354 0
M  V30 11565 C 1083.67 -1.92527 -2.89051 0
M  V30 11566 C 1082.63 -3.08096 -2.97087 0
M  V30 11567 C 1081.95 -3.07882 -4.37164 0
M  V30 11568 C 1083.25 -4.47656 -2.69075 0
M  V30 11569 H 1084.95 -2.69827 -1.29746 0
M  V30 11570 H 1082.49 -1.29839 -0.62273 0
M  V30 11571 H 1084.45 -2.09234 -3.65786 0
M  V30 11572 H 1083.17 -0.973235 -3.11762 0
M  V30 11573 H 1081.83 -2.91131 -2.22797 0
M  V30 11574 H 1081.48 -2.10411 -4.56877 0
M  V30 11575 H 1081.18 -3.85501 -4.43467 0
M  V30 11576 H 1082.7 -3.26712 -5.15841 0
M  V30 11577 H 1084.12 -4.64855 -3.35534 0
M  V30 11578 H 1082.51 -5.27151 -2.8676 0
M  V30 11579 H 1083.58 -4.56129 -1.64544 0
M  V30 11580 N 1084.93 0.6715 -1.42579 0
M  V30 11581 C 1085.87 1.78496 -1.46314 0
M  V30 11582 C 1086.84 1.63091 -0.314743 0
M  V30 11583 O 1088.03 1.83597 -0.519292 0
M  V30 11584 C 1085.17 3.16548 -1.37447 0
M  V30 11585 C 1084.28 3.43216 -2.62348 0
M  V30 11586 C 1083.42 4.71014 -2.456 0
M  V30 11587 C 1082.45 4.90728 -3.65859 0
M  V30 11588 N 1081.59 6.09769 -3.48032 0
M  V30 11589 H 1086.43 1.74638 -2.41466 0
M  V30 11590 H 1083.97 0.852491 -1.19879 0
M  V30 11591 H 1085.93 3.96329 -1.30303 0
M  V30 11592 H 1084.56 3.19522 -0.458891 0
M  V30 11593 H 1083.61 2.57664 -2.79846 0
M  V30 11594 H 1084.92 3.53675 -3.51732 0
M  V30 11595 H 1084.07 5.58892 -2.3606 0
M  V30 11596 H 1082.81 4.62843 -1.53712 0
M  V30 11597 H 1081.82 4.01291 -3.75827 0
M  V30 11598 H 1083.04 5.00741 -4.58732 0
M  V30 11599 H 1080.99 6.02765 -2.58864 0
M  V30 11600 H 1080.91 6.21104 -4.31005 0
M  V30 11601 H 1082.17 7.00317 -3.42311 0
M  V30 11602 N 1086.4 1.28806 0.908124 0
M  V30 11603 C 1087.63 1.1898 1.689 0
M  V30 11604 C 1088.04 -0.253334 1.87496 0
M  V30 11605 O 1087.38 -1.18245 1.40584 0
M  V30 11606 C 1087.45 1.82266 3.0987 0
M  V30 11607 C 1087.11 3.31534 3.14538 0
M  V30 11608 C 1088.11 4.27886 2.95313 0
M  V30 11609 C 1085.79 3.72589 3.36872 0
M  V30 11610 C 1087.79 5.63267 2.98343 0
M  V30 11611 C 1085.47 5.08095 3.39534 0
M  V30 11612 C 1086.47 6.03244 3.2029 0
M  V30 11613 O 1086.16 7.36277 3.22724 0
M  V30 11614 H 1085.89 0.413772 0.534574 0
M  V30 11615 H 1088.45 1.7055 1.14464 0
M  V30 11616 H 1086.68 1.25197 3.65872 0
M  V30 11617 H 1088.36 1.6688 3.70008 0
M  V30 11618 H 1089.13 3.97502 2.77879 0
M  V30 11619 H 1085.01 2.98989 3.50894 0
M  V30 11620 H 1088.55 6.37511 2.83241 0
M  V30 11621 H 1084.45 5.38126 3.56497 0
M  V30 11622 H 1085.22 7.44976 3.39048 0
M  V30 11623 N 1087.88 -1.11734 1.11145 0
M  V30 11624 C 1089.13 -1.83677 0.859684 0
M  V30 11625 C 1089.46 -1.84265 -0.613182 0
M  V30 11626 O 1088.74 -1.29351 -1.45254 0
M  V30 11627 C 1089.02 -3.31003 1.41805 0
M  V30 11628 C 1088.87 -3.38827 2.95831 0
M  V30 11629 C 1090.19 -4.26984 1.06645 0
M  V30 11630 H 1087.31 -0.666879 0.313754 0
M  V30 11631 H 1089.95 -1.31038 1.37583 0
M  V30 11632 H 1088.1 -3.75961 0.979054 0
M  V30 11633 H 1089.77 -3.02451 3.48312 0
M  V30 11634 H 1088.02 -2.79143 3.32056 0
M  V30 11635 H 1088.69 -4.42508 3.29986 0
M  V30 11636 H 1091.16 -3.9019 1.44537 0
M  V30 11637 H 1090.04 -5.2846 1.48394 0
M  V30 11638 H 1090.3 -4.42094 -0.0231866 0
M  V30 11639 N 1089.36 -0.901303 -1.29284 0
M  V30 11640 C 1090.61 -0.527 -1.95108 0
M  V30 11641 C 1090.93 0.930065 -1.71391 0
M  V30 11642 O 1090.2 1.65601 -1.04658 0
M  V30 11643 H 1088.78 -0.191903 -0.721929 0
M  V30 11644 H 1091.44 -1.14795 -1.57506 0
M  V30 11645 H 1090.54 -0.710945 -3.03895 0
M  V30 11646 N 1090.84 1.42931 -0.663954 0
M  V30 11647 C 1092.09 2.00904 -0.179011 0
M  V30 11648 C 1092.4 1.53056 1.21791 0
M  V30 11649 O 1093.61 2.03374 1.79865 0
M  V30 11650 C 1092.06 3.58892 -0.269198 0
M  V30 11651 C 1091.67 4.15731 -1.66949 0
M  V30 11652 C 1093.41 4.24207 0.157589 0
M  V30 11653 C 1091.32 5.66047 -1.71303 0
M  V30 11654 H 1090.25 0.75135 -0.0631623 0
M  V30 11655 H 1092.9 1.6378 -0.827556 0
M  V30 11656 H 1091.28 3.93469 0.447048 0
M  V30 11657 H 1092.46 3.92634 -2.41195 0
M  V30 11658 H 1090.77 3.62826 -2.04318 0
M  V30 11659 H 1093.37 5.34503 0.145057 0
M  V30 11660 H 1093.71 3.98901 1.19095 0
M  V30 11661 H 1094.25 3.94552 -0.507274 0
M  V30 11662 H 1090.98 5.96136 -2.72584 0
M  V30 11663 H 1090.5 5.91167 -1.01398 0
M  V30 11664 H 1092.18 6.30275 -1.46158 0
M  V30 11665 N 1092.32 0.406567 1.52266 0
M  V30 11666 C 1093.23 -0.4271 2.30679 0
M  V30 11667 C 1094.24 -1.0559 1.383 0
M  V30 11668 O 1095.42 -1.05797 1.71374 0
M  V30 11669 C 1092.48 -1.53008 3.1111 0
M  V30 11670 C 1091.54 -0.924604 4.19225 0
M  V30 11671 C 1090.78 -1.97502 4.95811 0
M  V30 11672 O 1091 -3.19277 4.72671 0
M  V30 11673 O 1089.93 -1.58268 5.80719 0
M  V30 11674 H 1093.76 0.212187 3.02958 0
M  V30 11675 H 1091.34 0.169835 1.48432 0
M  V30 11676 H 1093.23 -2.17046 3.61205 0
M  V30 11677 H 1091.9 -2.15401 2.41628 0
M  V30 11678 H 1090.81 -0.247009 3.73284 0
M  V30 11679 H 1092.14 -0.34463 4.90992 0
M  V30 11680 N 1093.79 -1.57004 0.136909 0
M  V30 11681 C 1095.21 -1.58082 -0.21958 0
M  V30 11682 C 1095.41 -1.15065 -1.65415 0
M  V30 11683 O 1094.47 -0.846284 -2.37896 0
M  V30 11684 C 1095.78 -3.00685 0.0300112 0
M  V30 11685 C 1097.33 -3.12981 -0.0344899 0
M  V30 11686 C 1097.8 -4.57615 0.187639 0
M  V30 11687 N 1099.29 -4.63005 0.134219 0
M  V30 11688 C 1100.03 -5.72712 0.280743 0
M  V30 11689 N 1099.52 -6.91104 0.48443 0
M  V30 11690 N 1101.32 -5.61673 0.219055 0
M  V30 11691 H 1093.47 -1.83262 1.07372 0
M  V30 11692 H 1095.73 -0.847776 0.424241 0
M  V30 11693 H 1095.44 -3.36509 1.02247 0
M  V30 11694 H 1095.31 -3.70762 -0.693918 0
M  V30 11695 H 1097.7 -2.77004 -1.01749 0
M  V30 11696 H 1097.78 -2.45411 0.721608 0
M  V30 11697 H 1097.42 -4.94295 1.16769 0
M  V30 11698 H 1097.35 -5.23299 -0.588661 0
M  V30 11699 H 1099.84 -3.77895 -0.0189681 0
M  V30 11700 H 1100.16 -7.7057 0.586613 0
M  V30 11701 H 1098.5 -6.93047 0.520627 0
M  V30 11702 H 1101.69 -4.68061 0.0607606 0
M  V30 11703 H 1101.87 -6.47125 0.336683 0
M  V30 11704 N 1095.27 0.136881 -1.57004 0
M  V30 11705 C 1096.18 1.18793 -2.023 0
M  V30 11706 C 1097.2 1.46412 -0.94018 0
M  V30 11707 O 1098.37 1.57883 -1.2504 0
M  V30 11708 C 1095.44 2.49903 -2.40311 0
M  V30 11709 C 1094.5 2.29841 -3.6259 0
M  V30 11710 C 1093.73 3.54699 -3.98779 0
M  V30 11711 O 1093.96 4.61291 -3.3551 0
M  V30 11712 O 1092.89 3.46761 -4.91976 0
M  V30 11713 H 1096.72 0.833345 -2.92043 0
M  V30 11714 H 1094.3 0.346361 -1.4533 0
M  V30 11715 H 1096.18 3.27183 -2.65574 0
M  V30 11716 H 1094.86 2.84872 -1.5372 0
M  V30 11717 H 1093.77 1.50478 -3.42501 0
M  V30 11718 H 1095.1 1.99784 -4.4983 0
M  V30 11719 N 1096.75 1.52266 0.40654 0
M  V30 11720 C 1097.68 1.70519 1.51653 0
M  V30 11721 C 1098.66 0.552798 1.52915 0
M  V30 11722 O 1099.85 0.780468 1.71584 0
M  V30 11723 C 1096.97 1.74686 2.90176 0
M  V30 11724 C 1096.02 2.96255 3.06815 0
M  V30 11725 S 1096.85 4.56553 2.79856 0
M  V30 11726 C 1098.01 4.63511 4.20605 0
M  V30 11727 H 1098.24 2.64399 1.35942 0
M  V30 11728 H 1095.77 1.42337 0.598284 0
M  V30 11729 H 1097.73 1.77773 3.7001 0
M  V30 11730 H 1096.39 0.819291 3.03227 0
M  V30 11731 H 1095.59 2.95661 4.08167 0
M  V30 11732 H 1095.19 2.91069 2.34851 0
M  V30 11733 H 1097.48 4.41047 5.1428 0
M  V30 11734 H 1098.42 5.65456 4.26222 0
M  V30 11735 H 1098.83 3.92518 4.05697 0
M  V30 11736 N 1098.23 -0.663929 1.42933 0
M  V30 11737 C 1099.14 -1.80643 1.49683 0
M  V30 11738 C 1100.15 -1.69694 0.38472 0
M  V30 11739 O 1101.33 -1.91052 0.637256 0
M  V30 11740 C 1098.4 -3.16858 1.4072 0
M  V30 11741 C 1097.46 -3.39684 2.62514 0
M  V30 11742 C 1096.69 -4.69399 2.53969 0
M  V30 11743 O 1096.91 -5.48037 1.58152 0
M  V30 11744 O 1095.85 -4.93709 3.44289 0
M  V30 11745 H 1099.67 -1.77903 2.46138 0
M  V30 11746 H 1097.26 -0.821059 1.24816 0
M  V30 11747 H 1099.14 -3.9812 1.38124 0
M  V30 11748 H 1097.81 -3.20211 0.473954 0
M  V30 11749 H 1096.72 -2.58227 2.70684 0
M  V30 11750 H 1098.05 -3.41169 3.54774 0
M  V30 11751 N 1099.71 -1.29285 -0.901281 0
M  V30 11752 C 1100.96 -1.16538 -1.64626 0
M  V30 11753 C 1101.27 0.282623 -1.93547 0
M  V30 11754 O 1102.47 0.531396 -2.66249 0
M  V30 11755 C 1100.93 -2.03809 -2.96631 0
M  V30 11756 C 1100.54 -3.53423 -2.75311 0
M  V30 11757 C 1102.28 -1.99782 -3.7455 0
M  V30 11758 C 1100.19 -4.32804 -4.03032 0
M  V30 11759 H 1099.12 -0.432561 -0.617581 0
M  V30 11760 H 1101.77 -1.53912 -0.999159 0
M  V30 11761 H 1100.15 -1.59302 -3.62545 0
M  V30 11762 H 1101.33 -4.05971 -2.18 0
M  V30 11763 H 1099.64 -3.59106 -2.10789 0
M  V30 11764 H 1102.24 -2.5635 -4.69243 0
M  V30 11765 H 1102.58 -0.97743 -4.04663 0
M  V30 11766 H 1103.11 -2.42324 -3.15474 0
M  V30 11767 H 1099.85 -5.35473 -3.78086 0
M  V30 11768 H 1099.37 -3.85025 -4.59909 0
M  V30 11769 H 1101.05 -4.43383 -4.71191 0
M  V30 11770 N 1101.18 1.11143 -1.11736 0
M  V30 11771 C 1102.6 1.64462 -0.883693 0
M  V30 11772 C 1102.95 1.87324 0.583448 0
M  V30 11773 O 1102.07 1.60975 1.44623 0
M  V30 11774 C 1102.67 2.98765 -1.59764 0
M  V30 11775 C 1101.23 3.4898 -1.41032 0
M  V30 11776 C 1100.37 2.23729 -1.63831 0
M  V30 11777 H 1103.32 0.947415 -1.27317 0
M  V30 11778 H 1103.34 3.65885 -1.04443 0
M  V30 11779 H 1102.86 2.82094 -2.66542 0
M  V30 11780 H 1100.96 3.7081 -0.364781 0
M  V30 11781 H 1101.07 4.27571 -2.16148 0
M  V30 11782 H 1099.43 2.31507 -1.06191 0
M  V30 11783 H 1100.22 2.09597 -2.7189 0
M  V30 11784 O 1102.7 1.04023 1.23537 0
M  V30 11785 H 1103.39 0.711011 1.80179 0
M  V30 END ATOM
M  V30 BEGIN BOND
M  V30 END BOND
M  V30 END CTAB
M  END
$$$$
