drugbank_target|P10606 Cytochrome c oxidase subunit 5B, mitochondrial (DB02659; DB04464)
 OpenBabel12092120443D

  0  0  0     0  0            999 V3000
M  V30 BEGIN CTAB
M  V30 COUNTS 1921 1938 0 0 0
M  V30 BEGIN ATOM
M  V30 1 H -0.908 1.98254 -0.117106 0
M  V30 2 N 0 1.576 0 0
M  V30 3 C 0.933 2.03868 1.02534 0
M  V30 4 C 1.911 0.928543 1.3348 0
M  V30 5 O 3.095 1.19667 1.45644 0
M  V30 6 C 0.222 2.43627 2.35294 0
M  V30 7 C -0.732 3.65373 2.2001 0
M  V30 8 S 0.101 5.13292 1.52614 0
M  V30 9 C 1.257 5.56322 2.86805 0
M  V30 10 H 1.49 2.90518 0.631377 0
M  V30 11 H -0.977 1.52953 0.210867 0
M  V30 12 H 0.981 2.67203 3.11629 0
M  V30 13 H -0.358 1.57376 2.7183 0
M  V30 14 H -1.165 3.90944 3.18086 0
M  V30 15 H -1.563 3.418 1.51819 0
M  V30 16 H 0.729 5.58782 3.83104 0
M  V30 17 H 1.672 6.56266 2.65933 0
M  V30 18 H 2.08 4.83886 2.90714 0
M  V30 19 N 1.4781 -0.272755 1.55222 0
M  V30 20 C 2.4411 -1.32041 1.87344 0
M  V30 21 C 3.4411 -1.42342 0.74803 0
M  V30 22 O 4.6311 -1.41488 1.0162 0
M  V30 23 C 1.7631 -2.70173 2.07893 0
M  V30 24 H 2.9561 -1.04789 2.80997 0
M  V30 25 H 0.5091 -0.51083 1.47717 0
M  V30 26 H 1.2441 -3.02605 1.16622 0
M  V30 27 H 1.0291 -2.64082 2.89833 0
M  V30 28 H 2.5191 -3.45869 2.34017 0
M  V30 29 N 2.9562 -1.48159 -0.537278 0
M  V30 30 C 4.1812 -1.59707 -1.32319 0
M  V30 31 C 4.6062 -0.254859 -1.86365 0
M  V30 32 O 3.9642 0.772378 -1.64024 0
M  V30 33 C 4.0122 -2.6412 -2.45505 0
M  V30 34 O 3.1162 -2.20774 -3.48328 0
M  V30 35 H 2.4572 -0.535791 -0.392204 0
M  V30 36 H 4.9872 -1.94092 -0.647268 0
M  V30 37 H 4.9972 -2.85166 -2.91795 0
M  V30 38 H 3.6722 -3.61567 -2.05528 0
M  V30 39 H 2.2492 -2.09911 -3.08207 0
M  V30 40 N 4.4343 0.785586 -1.36625 0
M  V30 41 C 5.8503 1.08419 -1.17122 0
M  V30 42 C 6.0503 2.015 0.00208491 0
M  V30 43 O 5.1063 2.43551 0.666278 0
M  V30 44 C 6.4193 1.69498 -2.48377 0
M  V30 45 C 7.9673 1.81821 -2.54775 0
M  V30 46 C 8.4423 2.46315 -3.86126 0
M  V30 47 N 9.9333 2.53779 -3.87492 0
M  V30 48 C 10.6683 3.045 -4.85868 0
M  V30 49 N 10.1643 3.55499 -5.94637 0
M  V30 50 N 11.9573 3.03247 -4.73284 0
M  V30 51 H 4.1083 0.167264 -2.1174 0
M  V30 52 H 6.3713 0.13682 -0.938075 0
M  V30 53 H 6.0773 1.08571 -3.34522 0
M  V30 54 H 5.9513 2.6896 -2.64462 0
M  V30 55 H 8.3383 2.41884 -1.69045 0
M  V30 56 H 8.4193 0.811532 -2.42586 0
M  V30 57 H 8.0633 1.86895 -4.72263 0
M  V30 58 H 7.9933 3.47561 -3.95612 0
M  V30 59 H 10.4843 2.17672 -3.08913 0
M  V30 60 H 10.7973 3.92562 -6.65669 0
M  V30 61 H 9.1423 3.5364 -5.98301 0
M  V30 62 H 12.3333 2.62696 -3.87438 0
M  V30 63 H 12.5063 3.42467 -5.50109 0
M  V30 64 N 5.9124 1.20967 1.01018 0
M  V30 65 C 6.8424 0.988272 2.11555 0
M  V30 66 C 7.8234 -0.0849778 1.69888 0
M  V30 67 O 9.0084 0.0738202 1.9406 0
M  V30 68 C 6.1384 0.546528 3.42973 0
M  V30 69 C 5.0924 1.56375 3.9841 0
M  V30 70 C 4.4184 0.97842 5.25672 0
M  V30 71 C 5.7184 2.94922 4.31066 0
M  V30 72 H 7.4124 1.91276 2.30334 0
M  V30 73 H 4.9584 0.921073 1.1069 0
M  V30 74 H 6.9114 0.378839 4.19694 0
M  V30 75 H 5.6354 -0.413598 3.23971 0
M  V30 76 H 4.2944 1.71891 3.23804 0
M  V30 77 H 3.9424 0.0101688 5.02999 0
M  V30 78 H 3.6424 1.65784 5.63728 0
M  V30 79 H 5.1664 0.821939 6.05043 0
M  V30 80 H 6.5804 2.8288 4.9865 0
M  V30 81 H 4.9774 3.5983 4.80253 0
M  V30 82 H 6.0474 3.4616 3.39561 0
M  V30 83 N 7.3905 -1.2043 1.01659 0
M  V30 84 C 8.3205 -2.25466 0.607226 0
M  V30 85 C 9.3015 -1.65853 -0.377716 0
M  V30 86 O 10.4865 -1.92409 -0.263149 0
M  V30 87 C 7.6165 -3.47256 -0.0552949 0
M  V30 88 C 6.5705 -4.19462 0.850632 0
M  V30 89 C 5.8965 -5.34673 0.0538859 0
M  V30 90 C 7.1965 -4.75603 2.15868 0
M  V30 91 H 8.8905 -2.59962 1.48526 0
M  V30 92 H 6.4365 -1.2496 0.715605 0
M  V30 93 H 8.3895 -4.19917 -0.353233 0
M  V30 94 H 7.1135 -3.11924 -0.968045 0
M  V30 95 H 5.7725 -3.48667 1.13257 0
M  V30 96 H 5.4205 -4.95585 -0.860514 0
M  V30 97 H 5.1205 -5.83913 0.657192 0
M  V30 98 H 6.6445 -6.10138 -0.237598 0
M  V30 99 H 8.0585 -5.40083 1.92311 0
M  V30 100 H 6.4555 -5.3528 2.71284 0
M  V30 101 H 7.5255 -3.94346 2.82169 0
M  V30 102 N 8.8686 -0.792821 -1.36206 0
M  V30 103 C 10.2846 -0.474903 -1.52371 0
M  V30 104 C 10.4846 1.00622 -1.74578 0
M  V30 105 O 9.5406 1.79162 -1.77924 0
M  V30 106 C 10.8536 -1.3083 -2.70747 0
M  V30 107 C 12.4016 -1.30234 -2.84619 0
M  V30 108 C 12.8766 -2.11956 -4.06004 0
M  V30 109 N 14.3676 -2.09419 -4.13156 0
M  V30 110 C 15.1026 -2.69419 -5.06163 0
M  V30 111 N 14.5986 -3.3829 -6.04592 0
M  V30 112 N 16.3916 -2.59134 -4.98804 0
M  V30 113 H 8.5426 -1.75222 -1.20046 0
M  V30 114 H 10.8056 -0.745024 -0.586211 0
M  V30 115 H 10.5116 -2.35881 -2.6087 0
M  V30 116 H 10.3856 -0.95196 -3.6499 0
M  V30 117 H 12.7726 -0.259748 -2.93955 0
M  V30 118 H 12.8536 -1.69847 -1.91274 0
M  V30 119 H 12.4976 -3.16248 -3.97429 0
M  V30 120 H 12.4276 -1.69711 -4.98503 0
M  V30 121 H 14.9186 -1.59297 -3.42685 0
M  V30 122 H 15.2316 -3.81394 -6.7213 0
M  V30 123 H 13.5766 -3.42393 -6.04807 0
M  V30 124 H 16.7676 -2.04927 -4.20859 0
M  V30 125 H 16.9406 -3.06185 -5.711 0
M  V30 126 N 10.3467 1.47872 -0.545128 0
M  V30 127 C 11.5947 2.02093 -0.016553 0
M  V30 128 C 11.9157 1.42305 1.3332 0
M  V30 129 O 11.1857 0.593853 1.86682 0
M  V30 130 H 9.7657 0.746993 -0.00313038 0
M  V30 131 H 12.4277 1.81414 -0.712397 0
M  V30 132 H 11.5237 3.11996 0.0805422 0
M  V30 133 N 11.8248 0.280983 1.55075 0
M  V30 134 C 12.7878 -0.590896 2.21452 0
M  V30 135 C 13.7878 -1.07682 1.19421 0
M  V30 136 O 14.9778 -0.97605 1.44288 0
M  V30 137 C 12.1098 -1.81587 2.88511 0
M  V30 138 H 13.3028 -0.0112554 2.99898 0
M  V30 139 H 10.8558 0.0316438 1.56268 0
M  V30 140 H 11.5908 -2.43587 2.14093 0
M  V30 141 H 11.3758 -1.4753 3.63287 0
M  V30 142 H 12.8658 -2.43575 3.39206 0
M  V30 143 N 13.3029 -1.57598 0.00835791 0
M  V30 144 C 14.5509 -1.90551 -0.6734 0
M  V30 145 C 14.8719 -0.883301 -1.73847 0
M  V30 146 O 14.1419 0.0781442 -1.95744 0
M  V30 147 H 12.7219 -0.703312 -0.251717 0
M  V30 148 H 15.3839 -1.94833 0.0512592 0
M  V30 149 H 14.4799 -2.9056 -1.13935 0
M  V30 150 N 14.781 0.264519 -1.55364 0
M  V30 151 C 16.009 1.013 -1.80405 0
M  V30 152 C 16.424 1.79618 -0.581622 0
M  V30 153 O 15.781 1.76879 0.449468 0
M  V30 154 C 15.832 1.96487 -3.03439 0
M  V30 155 O 15.553 1.21341 -4.20961 0
M  V30 156 C 17.054 2.83079 -3.41147 0
M  V30 157 H 14.274 0.298875 -0.600762 0
M  V30 158 H 16.818 0.292736 -2.02394 0
M  V30 159 H 14.973 2.63965 -2.83551 0
M  V30 160 H 15.387 1.85573 -4.90574 0
M  V30 161 H 16.861 3.4565 -4.30384 0
M  V30 162 H 17.338 3.53286 -2.60932 0
M  V30 163 H 17.944 2.2108 -3.63323 0
M  V30 164 N 16.2591 1.48442 0.529413 0
M  V30 165 C 17.1891 1.65902 1.64313 0
M  V30 166 C 18.1701 0.507897 1.6234 0
M  V30 167 O 19.3551 0.740503 1.79528 0
M  V30 168 C 16.4851 1.69911 3.02898 0
M  V30 169 C 15.4391 2.8453 3.19729 0
M  V30 170 C 14.7651 2.73629 4.59381 0
M  V30 171 C 16.0651 4.25821 3.02447 0
M  V30 172 H 17.7591 2.5914 1.49955 0
M  V30 173 H 15.3051 1.24709 0.719982 0
M  V30 174 H 17.2581 1.80715 3.80684 0
M  V30 175 H 15.9821 0.732524 3.18279 0
M  V30 176 H 14.6411 2.73283 2.44361 0
M  V30 177 H 14.2891 1.74938 4.71599 0
M  V30 178 H 13.9891 3.50541 4.71588 0
M  V30 179 H 15.5131 2.86401 5.39265 0
M  V30 180 H 16.9271 4.37898 3.70024 0
M  V30 181 H 15.3241 5.03735 3.26146 0
M  V30 182 H 16.3941 4.42244 1.98867 0
M  V30 183 N 17.7372 -0.778329 1.37039 0
M  V30 184 C 18.7002 -1.87301 1.32102 0
M  V30 185 C 19.7002 -1.59198 0.226405 0
M  V30 186 O 20.8902 -1.67403 0.481861 0
M  V30 187 C 18.0222 -3.24309 1.05055 0
M  V30 188 H 19.2152 -1.93093 2.29467 0
M  V30 189 H 16.7682 -0.977358 1.21973 0
M  V30 190 H 17.5032 -3.24196 0.0819373 0
M  V30 191 H 17.2882 -3.46098 1.84279 0
M  V30 192 H 18.7782 -4.04382 1.04234 0
M  V30 193 N 19.2153 -1.21501 -1.00376 0
M  V30 194 C 20.1783 -0.976927 -2.07337 0
M  V30 195 C 21.1783 0.0525322 -1.60714 0
M  V30 196 O 22.3683 -0.184869 -1.73216 0
M  V30 197 C 19.5003 -0.473423 -3.37597 0
M  V30 198 H 20.6933 -1.92587 -2.29892 0
M  V30 199 H 18.2463 -1.03217 -1.17371 0
M  V30 200 H 18.9813 0.480379 -3.20722 0
M  V30 201 H 18.7663 -1.216 -3.72768 0
M  V30 202 H 20.2563 -0.32675 -4.1632 0
M  V30 203 N 20.6934 1.19889 -1.02296 0
M  V30 204 C 21.6254 2.22334 -0.556787 0
M  V30 205 C 22.6384 1.58674 0.364199 0
M  V30 206 O 23.8274 1.77768 0.161533 0
M  V30 207 C 20.9274 3.38257 0.208694 0
M  V30 208 C 20.1004 4.31504 -0.71577 0
M  V30 209 C 19.1594 5.262 0.00325597 0
M  V30 210 O 18.1854 5.65798 -0.621357 0
M  V30 211 N 19.3874 5.66303 1.27599 0
M  V30 212 H 22.1524 2.62957 -1.43784 0
M  V30 213 H 19.7134 1.34495 -0.901261 0
M  V30 214 H 21.7054 3.98616 0.699111 0
M  V30 215 H 20.2754 2.96472 0.991102 0
M  V30 216 H 19.4954 3.69016 -1.38638 0
M  V30 217 H 20.7834 4.9072 -1.34428 0
M  V30 218 H 20.1814 5.36155 1.80429 0
M  V30 219 H 18.7384 6.28942 1.71102 0
M  V30 220 N 22.1715 0.800033 1.35784 0
M  V30 221 C 23.1345 0.211565 2.28221 0
M  V30 222 C 24.1345 -0.59728 1.49296 0
M  V30 223 O 25.3245 -0.416721 1.69142 0
M  V30 224 C 22.4565 -0.705846 3.33513 0
M  V30 225 H 23.6495 1.02677 2.81776 0
M  V30 226 H 21.2025 0.570211 1.45528 0
M  V30 227 H 21.9375 -1.54498 2.85133 0
M  V30 228 H 21.7225 -0.127655 3.91892 0
M  V30 229 H 23.2125 -1.11211 4.02519 0
M  V30 230 N 23.6496 -1.47581 0.552962 0
M  V30 231 C 24.5796 -2.32762 -0.185451 0
M  V30 232 C 25.5606 -1.43527 -0.912905 0
M  V30 233 O 26.7456 -1.72388 -0.894201 0
M  V30 234 C 23.8756 -3.25219 -1.21859 0
M  V30 235 C 22.8296 -4.23661 -0.607864 0
M  V30 236 C 22.1556 -5.05413 -1.74533 0
M  V30 237 C 23.4556 -5.20481 0.435582 0
M  V30 238 H 25.1496 -2.94749 0.525684 0
M  V30 239 H 22.6956 -1.41738 0.254251 0
M  V30 240 H 24.6486 -3.8365 -1.7433 0
M  V30 241 H 23.3726 -2.61279 -1.95961 0
M  V30 242 H 22.0316 -3.66451 -0.104489 0
M  V30 243 H 21.6796 -4.3788 -2.47529 0
M  V30 244 H 21.3796 -5.72059 -1.34249 0
M  V30 245 H 22.9036 -5.66701 -2.27338 0
M  V30 246 H 24.3176 -5.733 -0.00290157 0
M  V30 247 H 22.7146 -5.95305 0.757067 0
M  V30 248 H 23.7846 -4.66217 1.33303 0
M  V30 249 N 25.1277 -0.289203 -1.54924 0
M  V30 250 C 26.5437 0.0645403 -1.59469 0
M  V30 251 C 26.7437 1.53419 -1.30632 0
M  V30 252 O 25.7997 2.2852 -1.074 0
M  V30 253 C 27.1127 -0.32278 -2.98963 0
M  V30 254 C 28.6607 -0.270564 -3.11828 0
M  V30 255 C 29.1357 -0.632532 -4.53611 0
M  V30 256 N 30.6267 -0.584617 -4.59496 0
M  V30 257 C 31.3617 -0.837314 -5.67254 0
M  V30 258 N 30.8577 -1.15536 -6.83098 0
M  V30 259 N 32.6507 -0.765166 -5.56868 0
M  V30 260 H 24.8017 -1.24714 -1.71931 0
M  V30 261 H 27.0647 -0.504809 -0.802416 0
M  V30 262 H 26.7707 -1.34541 -3.24948 0
M  V30 263 H 26.6447 0.32944 -3.75759 0
M  V30 264 H 29.0317 0.742805 -2.85598 0
M  V30 265 H 29.1127 -0.957242 -2.37214 0
M  V30 266 H 28.7567 -1.64365 -4.80569 0
M  V30 267 H 28.6867 0.07609 -5.26545 0
M  V30 268 H 31.1777 -0.349248 -3.76283 0
M  V30 269 H 31.4907 -1.33447 -7.61191 0
M  V30 270 H 29.8357 -1.19328 -6.84679 0
M  V30 271 H 33.0267 -0.516432 -4.65243 0
M  V30 272 H 33.1997 -0.965477 -6.40767 0
M  V30 273 N 26.6058 1.57591 -0.0167156 0
M  V30 274 C 27.5688 2.08393 0.954204 0
M  V30 275 C 28.5688 0.996531 1.26198 0
M  V30 276 O 29.7588 1.25858 1.20438 0
M  V30 277 C 26.8908 2.5394 2.27436 0
M  V30 278 H 28.0838 2.95455 0.514451 0
M  V30 279 H 25.6368 1.54582 0.231089 0
M  V30 280 H 26.3718 1.70171 2.76066 0
M  V30 281 H 26.1568 3.33371 2.06412 0
M  V30 282 H 27.6468 2.93512 2.97053 0
M  V30 283 N 28.0839 -0.256276 1.55502 0
M  V30 284 C 29.4999 -0.604325 1.47716 0
M  V30 285 C 29.6999 -1.88763 0.705039 0
M  V30 286 O 28.7559 -2.51445 0.230613 0
M  V30 287 C 30.0689 -0.715756 2.92057 0
M  V30 288 C 31.6169 -0.808706 3.02372 0
M  V30 289 C 32.0919 -0.951777 4.48001 0
M  V30 290 N 33.5829 -1.01688 4.519 0
M  V30 291 C 34.3179 -1.14668 5.61817 0
M  V30 292 N 33.8139 -1.24261 6.81565 0
M  V30 293 N 35.6069 -1.1791 5.49594 0
M  V30 294 H 27.7579 0.586291 2.04148 0
M  V30 295 H 30.0209 0.201015 0.926443 0
M  V30 296 H 29.7269 0.157027 3.51349 0
M  V30 297 H 29.6009 -1.59071 3.42018 0
M  V30 298 H 31.9879 -1.67195 2.43166 0
M  V30 299 H 32.0689 0.0912063 2.55637 0
M  V30 300 H 31.7129 -0.0931291 5.07815 0
M  V30 301 H 31.6429 -1.86659 4.92408 0
M  V30 302 H 34.1339 -0.954468 3.65648 0
M  V30 303 H 34.4469 -1.34046 7.61086 0
M  V30 304 H 32.7919 -1.21236 6.84344 0
M  V30 305 H 35.9829 -1.10057 4.54978 0
M  V30 306 H 36.1559 -1.27681 6.35296 0
M  V30 307 N 29.562 -1.4872 -0.521534 0
M  V30 308 C 30.81 -1.56857 -1.27437 0
M  V30 309 C 31.131 -0.247982 -1.93417 0
M  V30 310 O 30.401 0.731151 -1.81744 0
M  V30 311 H 28.981 -0.577885 -0.473347 0
M  V30 312 H 31.643 -1.85233 -0.606205 0
M  V30 313 H 30.739 -2.35402 -2.0492 0
M  V30 314 N 31.0401 0.771051 -1.3745 0
M  V30 315 C 32.4511 1.34737 -1.29239 0
M  V30 316 C 32.8021 1.96109 0.0596908 0
M  V30 317 O 31.9271 1.93865 0.961534 0
M  V30 318 C 32.5221 2.44973 -2.34037 0
M  V30 319 C 31.0811 2.98372 -2.29458 0
M  V30 320 C 30.2281 1.71595 -2.17831 0
M  V30 321 H 33.1791 0.571256 -1.48062 0
M  V30 322 H 33.2001 3.24471 -1.98744 0
M  V30 323 H 32.7121 2.00276 -3.32432 0
M  V30 324 H 30.8131 3.47443 -1.34589 0
M  V30 325 H 30.9261 3.53939 -3.229 0
M  V30 326 H 29.2901 1.94547 -1.64388 0
M  V30 327 H 30.0731 1.29001 -3.18141 0
M  V30 328 N 32.5182 1.22032 0.997298 0
M  V30 329 C 33.7432 1.06921 1.77715 0
M  V30 330 C 34.1682 -0.376226 1.84299 0
M  V30 331 O 33.5262 -1.27165 1.29223 0
M  V30 332 C 33.5742 1.67996 3.19076 0
M  V30 333 O 32.6782 0.930653 4.01762 0
M  V30 334 H 32.0192 0.375814 0.547412 0
M  V30 335 H 34.5492 1.61737 1.25309 0
M  V30 336 H 34.5592 1.72538 3.69723 0
M  V30 337 H 33.2342 2.73182 3.13599 0
M  V30 338 H 31.8112 0.960917 3.60307 0
M  V30 339 N 33.9963 -1.19345 1.0293 0
M  V30 340 C 35.2443 -1.88665 0.724574 0
M  V30 341 C 35.5653 -1.80036 -0.749144 0
M  V30 342 O 34.8353 -1.2111 -1.53978 0
M  V30 343 H 33.4153 -0.698406 0.265025 0
M  V30 344 H 36.0773 -1.44885 1.30362 0
M  V30 345 H 35.1733 -2.94987 1.01926 0
M  V30 346 N 35.4744 -0.807222 -1.35358 0
M  V30 347 C 36.4374 -0.223665 -2.28106 0
M  V30 348 C 37.4374 0.589354 -1.4961 0
M  V30 349 O 38.6274 0.407745 -1.69361 0
M  V30 350 C 35.7594 0.688149 -3.33882 0
M  V30 351 H 36.9524 -1.04169 -2.81227 0
M  V30 352 H 34.5054 -0.577921 -1.45223 0
M  V30 353 H 35.2404 1.52984 -2.85948 0
M  V30 354 H 35.0254 0.10687 -3.91954 0
M  V30 355 H 36.5154 1.09075 -4.03104 0
M  V30 356 N 36.9525 1.47285 -0.560781 0
M  V30 357 C 37.9155 2.28535 0.174488 0
M  V30 358 C 38.9155 1.37153 0.839388 0
M  V30 359 O 40.1055 1.59748 0.694702 0
M  V30 360 C 37.2375 3.16934 1.25561 0
M  V30 361 H 38.4305 2.95012 -0.539262 0
M  V30 362 H 35.9835 1.53034 -0.317865 0
M  V30 363 H 36.7185 2.55157 2.00164 0
M  V30 364 H 36.5035 3.8419 0.783604 0
M  V30 365 H 37.9935 3.78143 1.77193 0
M  V30 366 N 38.4306 0.297415 1.54768 0
M  V30 367 C 39.3936 -0.567375 2.22066 0
M  V30 368 C 40.3936 -1.06409 1.20556 0
M  V30 369 O 41.5836 -0.960691 1.45315 0
M  V30 370 C 38.7156 -1.78517 2.90421 0
M  V30 371 H 39.9086 0.0205534 2.99893 0
M  V30 372 H 37.4616 0.0482163 1.56226 0
M  V30 373 H 38.1966 -2.41303 2.16664 0
M  V30 374 H 37.9816 -1.43669 3.64831 0
M  V30 375 H 39.4716 -2.39964 3.41771 0
M  V30 376 N 39.9087 -1.5758 0.0250728 0
M  V30 377 C 40.8417 -2.05473 -0.992777 0
M  V30 378 C 41.8197 -0.949661 -1.31986 0
M  V30 379 O 43.0037 -1.21969 -1.43722 0
M  V30 380 C 40.1307 -2.4734 -2.31389 0
M  V30 381 C 39.1767 -3.68827 -2.1417 0
M  V30 382 S 40.0097 -5.15655 -1.44429 0
M  V30 383 C 41.1657 -5.60814 -2.77918 0
M  V30 384 H 41.3987 -2.91486 -0.585078 0
M  V30 385 H 38.9317 -1.53269 -0.186507 0
M  V30 386 H 40.8897 -2.72127 -3.07339 0
M  V30 387 H 39.5507 -1.6168 -2.69292 0
M  V30 388 H 38.7437 -3.95955 -3.11826 0
M  V30 389 H 38.3457 -3.44172 -1.46362 0
M  V30 390 H 40.6377 -5.64806 -3.74166 0
M  V30 391 H 41.5807 -6.60414 -2.55459 0
M  V30 392 H 41.9887 -4.8845 -2.82979 0
M  V30 393 N 41.3868 0.248026 -1.55636 0
M  V30 394 C 42.8028 0.596483 -1.48035 0
M  V30 395 C 43.0028 1.88386 -0.715039 0
M  V30 396 O 42.0588 2.51319 -0.243944 0
M  V30 397 C 43.3718 0.700258 -2.92433 0
M  V30 398 C 44.9198 0.792659 -3.02797 0
M  V30 399 C 45.3948 0.928005 -4.485 0
M  V30 400 N 46.8858 0.992903 -4.52433 0
M  V30 401 C 47.6208 1.11687 -5.62418 0
M  V30 402 N 47.1168 1.20645 -6.82214 0
M  V30 403 N 48.9098 1.14994 -5.50212 0
M  V30 404 H 41.0608 -0.597109 -2.03834 0
M  V30 405 H 43.3238 -0.205925 -0.925364 0
M  V30 406 H 43.0298 -0.175658 -3.51261 0
M  V30 407 H 42.9038 1.57255 -3.42857 0
M  V30 408 H 45.2908 1.65903 -2.4405 0
M  V30 409 H 45.3718 -0.104762 -2.55585 0
M  V30 410 H 45.0158 0.0661971 -5.07857 0
M  V30 411 H 44.9458 1.84045 -4.93391 0
M  V30 412 H 47.4368 0.935064 -3.66149 0
M  V30 413 H 47.7498 1.30008 -7.61786 0
M  V30 414 H 46.0948 1.17605 -6.84977 0
M  V30 415 H 49.2858 1.07643 -4.55555 0
M  V30 416 H 49.4588 1.24311 -6.35965 0
M  V30 417 N 42.8649 1.48995 0.513639 0
M  V30 418 C 44.0899 1.61792 1.29762 0
M  V30 419 C 44.5149 0.284475 1.85936 0
M  V30 420 O 43.8729 -0.746185 1.65232 0
M  V30 421 C 43.9209 2.67993 2.41272 0
M  V30 422 O 43.0249 2.26287 3.44772 0
M  V30 423 H 42.3659 0.541963 0.38363 0
M  V30 424 H 44.8959 1.95097 0.616307 0
M  V30 425 H 44.9059 2.89772 2.87221 0
M  V30 426 H 43.5809 3.64791 1.9975 0
M  V30 427 H 42.1579 2.14788 3.04829 0
M  V30 428 N 44.343 -0.763751 1.37857 0
M  V30 429 C 45.276 -1.88486 1.28639 0
M  V30 430 C 46.254 -1.61757 0.165363 0
M  V30 431 O 47.438 -1.85391 0.340948 0
M  V30 432 C 44.565 -3.23884 0.990811 0
M  V30 433 C 43.611 -3.69514 2.12983 0
M  V30 434 S 44.444 -3.82244 3.75033 0
M  V30 435 C 45.6 -5.20477 3.47641 0
M  V30 436 H 45.833 -1.96017 2.23527 0
M  V30 437 H 43.366 -0.925684 1.23574 0
M  V30 438 H 45.324 -4.02081 0.827101 0
M  V30 439 H 43.985 -3.14044 0.0592832 0
M  V30 440 H 43.178 -4.67696 1.87821 0
M  V30 441 H 42.78 -2.98441 2.25408 0
M  V30 442 H 45.072 -6.05905 3.03125 0
M  V30 443 H 46.015 -5.50655 4.4518 0
M  V30 444 H 46.423 -4.88793 2.82385 0
M  V30 445 N 45.8211 -1.22559 -0.990812 0
M  V30 446 C 46.7841 -0.998863 -2.0629 0
M  V30 447 C 47.7841 0.0354834 -1.60761 0
M  V30 448 O 48.9741 -0.203231 -1.7301 0
M  V30 449 C 46.1061 -0.509203 -3.37076 0
M  V30 450 H 47.2991 -1.95014 -2.27837 0
M  V30 451 H 44.8521 -1.04456 -1.16269 0
M  V30 452 H 45.5871 0.446335 -3.21214 0
M  V30 453 H 45.3721 -1.25547 -3.71457 0
M  V30 454 H 46.8621 -0.370888 -4.1595 0
M  V30 455 N 47.2992 1.18797 -1.03562 0
M  V30 456 C 48.5242 1.9314 -0.755764 0
M  V30 457 C 48.9492 1.7537 0.68022 0
M  V30 458 O 48.3072 1.06046 1.47051 0
M  V30 459 C 48.3552 3.42747 -1.12058 0
M  V30 460 O 47.4592 4.11683 -0.243124 0
M  V30 461 H 46.8002 0.602724 -0.278604 0
M  V30 462 H 49.3302 1.50678 -1.3841 0
M  V30 463 H 49.3402 3.93437 -1.08035 0
M  V30 464 H 48.0152 3.55002 -2.16672 0
M  V30 465 H 46.5922 3.71323 -0.342539 0
M  V30 466 N 48.7773 0.814389 1.34928 0
M  V30 467 C 50.0253 0.397636 1.9815 0
M  V30 468 C 50.3463 -1.04069 1.64908 0
M  V30 469 O 49.6163 -1.72121 0.93548 0
M  V30 470 H 48.1963 0.144043 0.732981 0
M  V30 471 H 50.8583 1.04195 1.6471 0
M  V30 472 H 49.9543 0.509688 3.0791 0
M  V30 473 N 50.2554 -1.46986 0.568584 0
M  V30 474 C 51.5034 -2.02041 0.0487022 0
M  V30 475 C 51.8244 -1.44408 -1.31039 0
M  V30 476 O 51.0944 -0.623477 -1.85714 0
M  V30 477 H 49.6744 -0.746849 0.015014 0
M  V30 478 H 52.3364 -1.80257 0.741168 0
M  V30 479 H 51.4324 -3.12085 -0.0308961 0
M  V30 480 N 51.7335 -0.305618 -1.54608 0
M  V30 481 C 52.9815 0.301701 -1.99835 0
M  V30 482 C 53.3025 1.54054 -1.19551 0
M  V30 483 O 52.5725 1.93702 -0.292658 0
M  V30 484 H 51.1525 0.114468 -0.738178 0
M  V30 485 H 53.8145 -0.418016 -1.90364 0
M  V30 486 H 52.9105 0.570548 -3.06841 0
M  V30 487 N 53.2116 1.57565 -0.0334293 0
M  V30 488 C 54.4576 1.92262 0.645226 0
M  V30 489 C 54.7906 0.910543 1.71531 0
M  V30 490 O 54.0656 -0.066099 1.94388 0
M  V30 491 C 54.3486 3.37422 1.2577 0
M  V30 492 C 54.2016 4.49369 0.196891 0
M  V30 493 C 55.5206 3.82628 2.17449 0
M  V30 494 H 52.6396 0.699171 0.233085 0
M  V30 495 H 55.2816 1.89779 -0.0915694 0
M  V30 496 H 53.4316 3.39669 1.88566 0
M  V30 497 H 55.1036 4.59254 -0.433962 0
M  V30 498 H 53.3466 4.31168 -0.477137 0
M  V30 499 H 54.0176 5.47978 0.665124 0
M  V30 500 H 56.4936 3.82145 1.64634 0
M  V30 501 H 55.3696 4.84883 2.57254 0
M  V30 502 H 55.6306 3.18376 3.0674 0
M  V30 503 N 54.6897 -0.239769 1.55765 0
M  V30 504 C 56.1007 -0.808263 1.68297 0
M  V30 505 C 56.4517 -1.85736 0.632181 0
M  V30 506 O 55.5767 -2.15277 -0.220204 0
M  V30 507 C 56.1717 -1.47284 3.05111 0
M  V30 508 C 54.7307 -1.98895 3.19559 0
M  V30 509 C 53.8777 -0.842575 2.64189 0
M  V30 510 H 56.8287 -0.0154422 1.58692 0
M  V30 511 H 56.8497 -2.34111 2.99954 0
M  V30 512 H 56.3617 -0.709053 3.81568 0
M  V30 513 H 54.4627 -2.78132 2.47938 0
M  V30 514 H 54.5757 -2.18143 4.26556 0
M  V30 515 H 52.9397 -1.24501 2.22197 0
M  V30 516 H 53.7227 -0.0917552 3.43177 0
M  V30 517 N 56.1678 -1.49265 -0.50573 0
M  V30 518 C 57.3958 -1.62215 -1.28429 0
M  V30 519 C 57.8108 -0.291697 -1.86533 0
M  V30 520 O 57.1678 0.722233 -1.67601 0
M  V30 521 C 57.2188 -2.68735 -2.41793 0
M  V30 522 O 56.9398 -3.96619 -1.86078 0
M  V30 523 C 58.4408 -2.92346 -3.3324 0
M  V30 524 H 55.6608 -0.546239 -0.389697 0
M  V30 525 H 58.2048 -1.95265 -0.607609 0
M  V30 526 H 56.3598 -2.38476 -3.053 0
M  V30 527 H 56.7738 -4.55256 -2.60465 0
M  V30 528 H 58.2478 -3.70623 -4.09075 0
M  V30 529 H 58.7248 -2.02081 -3.89948 0
M  V30 530 H 59.3308 -3.24003 -2.75503 0
M  V30 531 N 57.6459 0.756429 -1.3826 0
M  V30 532 C 58.9229 1.50584 -1.24835 0
M  V30 533 C 59.3029 2.10556 0.151485 0
M  V30 534 O 58.6509 1.96825 1.1607 0
M  V30 535 C 58.8609 2.57448 -2.3563 0
M  V30 536 C 60.2089 3.24429 -2.73917 0
M  V30 537 O 61.2329 2.67751 -2.34921 0
M  V30 538 O 60.0919 4.26937 -3.41156 0
M  V30 539 H 57.1859 0.667664 -0.48801 0
M  V30 540 H 59.7319 0.792083 -1.5008 0
M  V30 541 H 58.5039 2.11362 -3.29305 0
M  V30 542 H 58.1269 3.36408 -2.11933 0
M  V30 543 N 59.124 1.23083 0.984299 0
M  V30 544 C 60.034 1.02515 2.11016 0
M  V30 545 C 61.05 -0.0291702 1.73976 0
M  V30 546 O 62.226 0.165434 2.00719 0
M  V30 547 C 59.291 0.614673 3.41208 0
M  V30 548 C 58.352 1.74359 3.92297 0
M  V30 549 C 57.585 1.35261 5.16275 0
M  V30 550 O 57.808 0.235136 5.69915 0
M  V30 551 O 56.742 2.17227 5.61334 0
M  V30 552 H 60.568 1.96862 2.31255 0
M  V30 553 H 58.153 1.01753 1.09392 0
M  V30 554 H 60.035 0.396518 4.1953 0
M  V30 555 H 58.71 -0.299851 3.22308 0
M  V30 556 H 57.617 2.01635 3.1511 0
M  V30 557 H 58.95 2.63629 4.15645 0
M  V30 558 N 60.6021 -1.18246 1.0419 0
M  V30 559 C 61.5121 -2.25574 0.644476 0
M  V30 560 C 62.5281 -1.70845 -0.329826 0
M  V30 561 O 63.7041 -2.00554 -0.184443 0
M  V30 562 C 60.7691 -3.46697 0.014877 0
M  V30 563 C 59.8301 -4.16554 1.03834 0
M  V30 564 C 59.0631 -5.31894 0.438692 0
M  V30 565 O 59.2861 -5.65385 -0.754752 0
M  V30 566 O 58.2201 -5.90459 1.168 0
M  V30 567 H 62.0461 -2.61836 1.53869 0
M  V30 568 H 59.6311 -1.25352 0.812854 0
M  V30 569 H 61.5131 -4.20062 -0.335538 0
M  V30 570 H 60.1881 -3.12255 -0.853138 0
M  V30 571 H 59.0951 -3.45251 1.44057 0
M  V30 572 H 60.4281 -4.54998 1.87716 0
M  V30 573 N 62.0802 -0.821533 -1.34494 0
M  V30 574 C 63.0122 -0.199946 -2.28326 0
M  V30 575 C 64.0252 0.609377 -1.50965 0
M  V30 576 O 65.2142 0.439285 -1.7301 0
M  V30 577 C 62.3142 0.738431 -3.30757 0
M  V30 578 C 61.4872 -0.0277632 -4.37391 0
M  V30 579 C 60.5462 0.831332 -5.19591 0
M  V30 580 O 59.5722 0.276822 -5.68526 0
M  V30 581 N 60.7742 2.15132 -5.39165 0
M  V30 582 H 63.5392 -1.00609 -2.82308 0
M  V30 583 H 61.1002 -0.678366 -1.47003 0
M  V30 584 H 63.0922 1.31773 -3.82646 0
M  V30 585 H 61.6622 1.44533 -2.7718 0
M  V30 586 H 60.8822 -0.788359 -3.86236 0
M  V30 587 H 62.1702 -0.555251 -5.05761 0
M  V30 588 H 61.5682 2.62559 -5.01078 0
M  V30 589 H 60.1252 2.6795 -5.94177 0
M  V30 590 N 63.5583 1.46682 -0.576371 0
M  V30 591 C 64.5213 2.28707 0.150239 0
M  V30 592 C 65.5213 1.38035 0.824794 0
M  V30 593 O 66.7113 1.60476 0.677719 0
M  V30 594 C 63.8433 3.18248 1.22192 0
M  V30 595 H 65.0363 2.94423 -0.570521 0
M  V30 596 H 62.5893 1.52688 -0.334078 0
M  V30 597 H 63.3243 2.57265 1.97447 0
M  V30 598 H 63.1093 3.85 0.742812 0
M  V30 599 H 64.5993 3.80001 1.73172 0
M  V30 600 N 65.0364 0.313813 1.54444 0
M  V30 601 C 66.2644 -0.293918 2.04802 0
M  V30 602 C 66.6794 -1.46537 1.19047 0
M  V30 603 O 66.0364 -1.81182 0.218939 0
M  V30 604 C 66.0874 -0.737806 3.53891 0
M  V30 605 O 65.8084 0.387038 4.36387 0
M  V30 606 C 67.3094 -1.40936 4.203 0
M  V30 607 H 64.5294 -0.0620057 0.668129 0
M  V30 608 H 67.0734 0.457169 1.99324 0
M  V30 609 H 65.2284 -1.43889 3.59687 0
M  V30 610 H 65.6424 0.0391274 5.24485 0
M  V30 611 H 67.1164 -1.67099 5.26101 0
M  V30 612 H 67.5934 -2.35355 3.70816 0
M  V30 613 H 68.1994 -0.751117 4.18615 0
M  V30 614 N 66.5145 -1.57545 0.0417849 0
M  V30 615 C 67.7625 -1.91937 -0.632829 0
M  V30 616 C 68.0835 -0.919978 -1.71934 0
M  V30 617 O 67.3535 0.0366064 -1.95866 0
M  V30 618 H 65.9335 -0.708493 -0.236742 0
M  V30 619 H 68.5955 -1.9468 0.0925745 0
M  V30 620 H 67.6915 -2.92912 -1.07746 0
M  V30 621 N 67.9926 0.231505 -1.5589 0
M  V30 622 C 68.9226 1.29022 -1.94617 0
M  V30 623 C 69.9036 1.4941 -0.813067 0
M  V30 624 O 71.0886 1.6176 -1.07459 0
M  V30 625 C 68.2186 2.64199 -2.25424 0
M  V30 626 C 67.1726 2.58484 -3.41131 0
M  V30 627 C 66.4986 3.97599 -3.57518 0
M  V30 628 C 67.7986 2.1413 -4.76388 0
M  V30 629 H 69.4926 0.968563 -2.83301 0
M  V30 630 H 67.0386 0.464479 -1.36303 0
M  V30 631 H 68.9916 3.38413 -2.51107 0
M  V30 632 H 67.7156 2.98032 -1.33583 0
M  V30 633 H 66.3746 1.86727 -3.15481 0
M  V30 634 H 66.0226 4.28723 -2.6307 0
M  V30 635 H 65.7226 3.94659 -4.35337 0
M  V30 636 H 67.2466 4.7349 -3.85538 0
M  V30 637 H 68.6606 2.78083 -5.01341 0
M  V30 638 H 67.0576 2.2227 -5.57419 0
M  V30 639 H 68.1276 1.09331 -4.72414 0
M  V30 640 N 69.4707 1.49531 0.497807 0
M  V30 641 C 70.3807 1.69176 1.62532 0
M  V30 642 C 71.3967 0.5744 1.64246 0
M  V30 643 O 72.5727 0.849497 1.82608 0
M  V30 644 C 69.6377 1.75695 2.98885 0
M  V30 645 C 68.6987 2.9929 3.07773 0
M  V30 646 C 67.9317 3.05488 4.37622 0
M  V30 647 O 68.1547 2.19192 5.26603 0
M  V30 648 O 67.0887 3.9798 4.51548 0
M  V30 649 H 70.9147 2.647 1.48887 0
M  V30 650 H 68.4997 1.3331 0.674441 0
M  V30 651 H 70.3817 1.82317 3.79919 0
M  V30 652 H 69.0567 0.8335 3.12785 0
M  V30 653 H 67.9637 2.98183 2.25915 0
M  V30 654 H 69.2967 3.91125 2.98801 0
M  V30 655 N 70.9488 -0.749086 1.3866 0
M  V30 656 C 72.3648 -1.05276 1.19955 0
M  V30 657 C 72.5648 -2.01435 0.05134 0
M  V30 658 O 71.6208 -2.45232 -0.60147 0
M  V30 659 C 72.9338 -1.62853 2.52783 0
M  V30 660 C 74.4818 -1.75002 2.59506 0
M  V30 661 C 74.9568 -2.35991 3.92521 0
M  V30 662 N 76.4478 -2.43416 3.94085 0
M  V30 663 C 77.1828 -2.91511 4.9377 0
M  V30 664 N 76.6788 -3.39608 6.03853 0
M  V30 665 N 78.4718 -2.90592 4.81157 0
M  V30 666 H 70.6228 -0.111066 2.12109 0
M  V30 667 H 72.8858 -0.111901 0.941373 0
M  V30 668 H 72.5918 -0.99664 3.37283 0
M  V30 669 H 72.4658 -2.61854 2.715 0
M  V30 670 H 74.8528 -2.37317 1.75398 0
M  V30 671 H 74.9338 -0.74693 2.44652 0
M  V30 672 H 74.5778 -1.74308 4.77053 0
M  V30 673 H 74.5078 -3.3695 4.04688 0
M  V30 674 H 76.9988 -2.09405 3.14576 0
M  V30 675 H 77.3118 -3.74775 6.75843 0
M  V30 676 H 75.6568 -3.37653 6.07466 0
M  V30 677 H 78.8478 -2.52332 3.94267 0
M  V30 678 H 79.0208 -3.27762 5.58996 0
M  V30 679 N 72.4269 -1.23603 -0.977757 0
M  V30 680 C 73.3369 -1.03632 -2.1047 0
M  V30 681 C 74.3529 0.0199435 -1.73989 0
M  V30 682 O 75.5289 -0.176076 -2.00629 0
M  V30 683 C 72.5939 -0.63276 -3.40877 0
M  V30 684 C 71.6549 -1.76437 -3.91367 0
M  V30 685 C 70.8879 -1.37997 -5.15551 0
M  V30 686 O 71.1109 -0.265357 -5.69782 0
M  V30 687 O 70.0449 -2.20201 -5.60174 0
M  V30 688 H 73.8709 -1.98086 -2.30208 0
M  V30 689 H 71.4559 -1.02332 -1.08851 0
M  V30 690 H 73.3379 -0.418761 -4.19314 0
M  V30 691 H 72.0129 0.282754 -3.22463 0
M  V30 692 H 70.9199 -2.03304 -3.14036 0
M  V30 693 H 72.2529 -2.6583 -4.14241 0
M  V30 694 N 73.905 1.17692 -1.04816 0
M  V30 695 C 75.154 1.87192 -0.751132 0
M  V30 696 C 75.467 1.8169 0.724441 0
M  V30 697 O 76.673 2.46625 1.13527 0
M  V30 698 C 75.129 3.35857 -1.29338 0
M  V30 699 C 74.737 3.4987 -2.79812 0
M  V30 700 C 76.481 4.10709 -1.07322 0
M  V30 701 C 74.388 4.92536 -3.27356 0
M  V30 702 H 73.318 0.701162 -0.277288 0
M  V30 703 H 75.969 1.32932 -1.26496 0
M  V30 704 H 74.351 3.89631 -0.707376 0
M  V30 705 H 75.525 3.06332 -3.44235 0
M  V30 706 H 73.84 2.88433 -3.00325 0
M  V30 707 H 76.437 5.15952 -1.4035 0
M  V30 708 H 76.78 4.16299 -0.0108001 0
M  V30 709 H 77.313 3.6313 -1.62423 0
M  V30 710 H 74.052 4.92119 -4.33012 0
M  V30 711 H 73.572 5.3676 -2.67673 0
M  V30 712 H 75.251 5.61288 -3.21815 0
M  V30 713 N 75.3831 0.828654 1.34056 0
M  V30 714 C 76.3161 0.199763 2.27324 0
M  V30 715 C 77.2941 -0.647168 1.49166 0
M  V30 716 O 78.4781 -0.609661 1.78369 0
M  V30 717 C 75.6051 -0.720455 3.30949 0
M  V30 718 C 74.6511 0.0496888 4.26471 0
M  V30 719 S 75.4841 1.40072 5.16856 0
M  V30 720 C 76.6401 0.485527 6.24014 0
M  V30 721 H 76.8731 0.990478 2.80316 0
M  V30 722 H 74.4061 0.624857 1.41191 0
M  V30 723 H 76.3641 -1.24581 3.91139 0
M  V30 724 H 75.0251 -1.48474 2.76793 0
M  V30 725 H 74.2181 -0.650104 4.9979 0
M  V30 726 H 73.8201 0.505779 3.70564 0
M  V30 727 H 76.1121 -0.320672 6.76741 0
M  V30 728 H 77.0551 1.18856 6.98054 0
M  V30 729 H 77.4631 0.0714109 5.64455 0
M  V30 730 N 76.8612 -1.46375 0.584142 0
M  V30 731 C 77.7912 -2.33103 -0.136037 0
M  V30 732 C 78.7722 -1.45431 -0.882255 0
M  V30 733 O 79.9572 -1.74246 -0.857434 0
M  V30 734 C 77.0872 -3.27731 -1.14933 0
M  V30 735 C 76.0412 -4.24855 -0.517862 0
M  V30 736 C 75.3672 -5.09001 -1.63773 0
M  V30 737 C 76.6672 -5.19439 0.545886 0
M  V30 738 H 78.3612 -2.93568 0.588086 0
M  V30 739 H 75.9072 -1.41166 0.284259 0
M  V30 740 H 77.8602 -3.87261 -1.66153 0
M  V30 741 H 76.5842 -2.65377 -1.90375 0
M  V30 742 H 75.2432 -3.6659 -0.0267361 0
M  V30 743 H 74.8912 -4.43031 -2.38185 0
M  V30 744 H 74.5912 -5.74777 -1.22085 0
M  V30 745 H 76.1152 -5.71396 -2.15266 0
M  V30 746 H 77.5292 -5.73177 0.118704 0
M  V30 747 H 75.9262 -5.93566 0.88317 0
M  V30 748 H 76.9962 -4.63285 1.43162 0
M  V30 749 N 78.3393 -0.321999 -1.54275 0
M  V30 750 C 79.3023 0.531975 -2.22941 0
M  V30 751 C 80.3023 1.04478 -1.22234 0
M  V30 752 O 81.4923 0.937452 -1.46825 0
M  V30 753 C 78.6243 1.73874 -2.93224 0
M  V30 754 H 79.8173 -0.0682612 -2.99822 0
M  V30 755 H 77.3703 -0.0730644 -1.56129 0
M  V30 756 H 78.1053 2.37825 -2.20476 0
M  V30 757 H 77.8903 1.37847 -3.6707 0
M  V30 758 H 79.3803 2.34496 -3.45545 0
M  V30 759 N 79.8174 1.5752 -0.0501392 0
M  V30 760 C 80.7804 2.1037 0.909786 0
M  V30 761 C 81.7804 1.02308 1.24056 0
M  V30 762 O 82.9704 1.28385 1.17741 0
M  V30 763 C 80.1024 2.58708 2.21998 0
M  V30 764 H 81.2954 2.96479 0.451665 0
M  V30 765 H 78.8484 1.55038 0.198248 0
M  V30 766 H 79.5834 1.75989 2.72394 0
M  V30 767 H 79.3684 3.37675 1.99295 0
M  V30 768 H 80.8584 2.99747 2.9076 0
M  V30 769 N 81.2955 -0.223234 1.56011 0
M  V30 770 C 82.2425 -1.27664 1.92277 0
M  V30 771 C 83.2125 -1.46659 0.779763 0
M  V30 772 O 84.3975 -1.60256 1.03551 0
M  V30 773 C 81.5375 -2.62234 2.24338 0
M  V30 774 C 80.6505 -2.51051 3.51564 0
M  V30 775 C 79.7855 -3.78133 3.7308 0
M  V30 776 C 78.8245 -3.61665 4.93827 0
M  V30 777 N 77.9615 -4.80693 5.11741 0
M  V30 778 H 82.8015 -0.960358 2.82101 0
M  V30 779 H 80.3385 -0.462901 1.39627 0
M  V30 780 H 82.2965 -3.40596 2.40936 0
M  V30 781 H 80.9265 -2.91961 1.3769 0
M  V30 782 H 79.9785 -1.64132 3.43169 0
M  V30 783 H 81.2905 -2.34803 4.40079 0
M  V30 784 H 80.4445 -4.64938 3.89766 0
M  V30 785 H 79.1835 -3.97304 2.82844 0
M  V30 786 H 78.1885 -2.73244 4.77093 0
M  V30 787 H 79.4135 -3.43966 5.85546 0
M  V30 788 H 77.3595 -5.00181 4.24446 0
M  V30 789 H 77.2765 -4.67165 5.94384 0
M  V30 790 H 78.5445 -5.6893 5.3286 0
M  V30 791 N 82.7736 -1.49793 -0.48987 0
M  V30 792 C 83.7206 -1.67281 -1.59014 0
M  V30 793 C 84.6906 -0.514177 -1.57941 0
M  V30 794 O 85.8756 -0.742533 -1.75759 0
M  V30 795 C 83.0156 -1.75569 -2.97102 0
M  V30 796 C 82.1286 -3.0281 -3.08107 0
M  V30 797 C 81.2636 -3.02008 -4.36995 0
M  V30 798 C 80.3026 -4.23782 -4.41673 0
M  V30 799 N 79.4396 -4.20826 -5.62005 0
M  V30 800 H 84.2796 -2.61224 -1.43409 0
M  V30 801 H 81.8166 -1.29508 -0.697565 0
M  V30 802 H 83.7746 -1.78354 -3.77155 0
M  V30 803 H 82.4046 -0.850827 -3.11385 0
M  V30 804 H 81.4566 -3.09584 -2.21047 0
M  V30 805 H 82.7686 -3.92801 -3.07423 0
M  V30 806 H 81.9226 -3.03418 -5.25378 0
M  V30 807 H 80.6616 -2.09815 -4.4026 0
M  V30 808 H 79.6666 -4.22604 -3.5169 0
M  V30 809 H 80.8916 -5.17181 -4.40115 0
M  V30 810 H 78.8376 -3.31476 -5.66091 0
M  V30 811 H 78.7546 -5.04564 -5.62984 0
M  V30 812 H 80.0226 -4.26355 -6.52565 0
M  V30 813 N 84.2517 0.741722 -1.39055 0
M  V30 814 C 85.4997 1.49818 -1.35643 0
M  V30 815 C 85.8207 1.94938 0.0491642 0
M  V30 816 O 85.0907 1.68505 0.999141 0
M  V30 817 H 83.6707 0.555755 -0.499144 0
M  V30 818 H 86.3327 0.880957 -1.73854 0
M  V30 819 H 85.4287 2.38348 -2.01486 0
M  V30 820 N 85.7298 1.2412 0.971189 0
M  V30 821 C 86.6598 1.05508 2.08304 0
M  V30 822 C 87.6408 -0.0308864 1.70072 0
M  V30 823 O 88.8258 0.135521 1.93727 0
M  V30 824 C 85.9558 0.655365 3.4106 0
M  V30 825 C 84.9098 1.68971 3.93234 0
M  V30 826 C 84.2358 1.14516 5.22293 0
M  V30 827 C 85.5358 3.08487 4.21465 0
M  V30 828 H 87.2298 1.98507 2.24132 0
M  V30 829 H 84.7758 0.955821 1.07704 0
M  V30 830 H 86.7288 0.51217 4.18276 0
M  V30 831 H 85.4528 -0.31032 3.25122 0
M  V30 832 H 84.1118 1.82106 3.18171 0
M  V30 833 H 83.7598 0.170189 5.02712 0
M  V30 834 H 83.4598 1.83635 5.58168 0
M  V30 835 H 84.9838 1.01401 6.02121 0
M  V30 836 H 86.3978 2.98601 4.89398 0
M  V30 837 H 84.7948 3.74926 4.68562 0
M  V30 838 H 85.8648 3.56787 3.28376 0
M  V30 839 N 87.2079 -1.17134 1.05439 0
M  V30 840 C 88.4849 -1.83411 0.679699 0
M  V30 841 C 88.8649 -1.9368 -0.839726 0
M  V30 842 O 88.2129 -1.47325 -1.74664 0
M  V30 843 C 88.4229 -3.20918 1.37159 0
M  V30 844 C 89.7709 -3.96796 1.51123 0
M  V30 845 O 90.7949 -3.30406 1.3308 0
M  V30 846 O 89.6539 -5.15778 1.80651 0
M  V30 847 H 86.7479 -0.79154 0.239569 0
M  V30 848 H 89.2939 -1.24411 1.15413 0
M  V30 849 H 88.0659 -3.08428 2.40807 0
M  V30 850 H 87.6889 -3.87587 0.886674 0
M  V30 851 N 88.686 -0.835752 -1.33615 0
M  V30 852 C 90.097 -0.487099 -1.80234 0
M  V30 853 C 90.448 0.993627 -1.69179 0
M  V30 854 O 89.573 1.77403 -1.23924 0
M  V30 855 C 90.168 -0.877385 -3.27242 0
M  V30 856 C 88.727 -0.580915 -3.7189 0
M  V30 857 C 87.874 -1.0874 -2.5509 0
M  V30 858 H 90.825 -1.02474 -1.2118 0
M  V30 859 H 90.846 -0.186195 -3.80044 0
M  V30 860 H 90.358 -1.95512 -3.35256 0
M  V30 861 H 88.459 0.486881 -3.69405 0
M  V30 862 H 88.572 -1.13396 -4.65487 0
M  V30 863 H 86.936 -0.508392 -2.49575 0
M  V30 864 H 87.719 -2.17184 -2.65868 0
M  V30 865 N 90.1641 1.46063 -0.591896 0
M  V30 866 C 91.3941 2.06418 -0.0867676 0
M  V30 867 C 91.8021 1.43975 1.22751 0
M  V30 868 O 91.1451 0.542531 1.75506 0
M  V30 869 C 91.2071 3.59213 0.143725 0
M  V30 870 C 90.8711 4.439 -1.08635 0
M  V30 871 C 91.8681 4.79864 -2.00067 0
M  V30 872 C 89.5531 4.84896 -1.31077 0
M  V30 873 C 91.5471 5.55661 -3.12282 0
M  V30 874 C 89.2341 5.6045 -2.43596 0
M  V30 875 C 90.2321 5.95747 -3.34027 0
M  V30 876 O 89.9201 6.69772 -4.4459 0
M  V30 877 H 89.6521 0.673443 -0.0587447 0
M  V30 878 H 92.2061 1.88539 -0.814994 0
M  V30 879 H 90.4361 3.75433 0.926668 0
M  V30 880 H 92.1251 4.01463 0.5985 0
M  V30 881 H 92.8911 4.48763 -1.83947 0
M  V30 882 H 88.7701 4.56867 -0.61594 0
M  V30 883 H 92.3141 5.8313 -3.82891 0
M  V30 884 H 88.2111 5.90965 -2.59674 0
M  V30 885 H 88.9791 6.88207 -4.43073 0
M  V30 886 N 91.6422 0.330177 1.54103 0
M  V30 887 C 92.5902 -0.548226 2.26047 0
M  V30 888 C 93.5842 -1.11309 1.27698 0
M  V30 889 O 94.7902 -1.06036 1.45452 0
M  V30 890 H 91.1652 -0.195456 0.726155 0
M  V30 891 H 93.1362 0.0807567 2.98291 0
M  V30 892 C 91.8852 -1.69415 3.03634 0
M  V30 893 H 91.2082 -1.26876 3.79134 0
M  V30 894 H 92.6482 -2.28423 3.5721 0
M  V30 895 C 91.1072 -2.61569 2.12328 0
M  V30 896 O 91.6372 -3.63462 1.7105 0
M  V30 897 N 89.8432 -2.29952 1.77681 0
M  V30 898 H 89.3902 -1.47134 2.11446 0
M  V30 899 H 89.3482 -2.91871 1.16869 0
M  V30 900 N 93.1203 -1.57491 0.0584922 0
M  V30 901 C 94.3663 -1.93264 -0.614558 0
M  V30 902 C 94.6993 -0.937717 -1.7006 0
M  V30 903 O 93.9743 0.0351652 -1.94468 0
M  V30 904 C 94.2573 -3.3938 -1.20386 0
M  V30 905 C 94.1103 -4.49625 -0.125375 0
M  V30 906 C 95.4293 -3.86039 -2.11334 0
M  V30 907 H 92.5483 -0.702791 -0.221933 0
M  V30 908 H 95.1903 -1.8961 0.12175 0
M  V30 909 H 93.3403 -3.42626 -1.83139 0
M  V30 910 H 95.0123 -4.58506 0.506971 0
M  V30 911 H 93.2553 -4.30354 0.545672 0
M  V30 912 H 93.9263 -5.48967 -0.577861 0
M  V30 913 H 96.4023 -3.84716 -1.58534 0
M  V30 914 H 95.2783 -4.88914 -2.49507 0
M  V30 915 H 95.5393 -3.23215 -3.01636 0
M  V30 916 N 94.5984 0.214957 -1.56127 0
M  V30 917 C 95.5284 1.2695 -1.95974 0
M  V30 918 C 96.5094 1.48539 -0.828868 0
M  V30 919 O 97.6944 1.60611 -1.09168 0
M  V30 920 C 94.8244 2.61794 -2.28214 0
M  V30 921 C 93.7784 2.54851 -3.43853 0
M  V30 922 C 93.1044 3.93785 -3.61715 0
M  V30 923 C 94.4044 2.09065 -4.78632 0
M  V30 924 H 96.0984 0.93846 -2.84312 0
M  V30 925 H 93.6444 0.449996 -1.36788 0
M  V30 926 H 95.5974 3.35731 -2.54682 0
M  V30 927 H 94.3214 2.96599 -1.36736 0
M  V30 928 H 92.9804 1.8337 -3.17444 0
M  V30 929 H 92.6284 4.25908 -2.67602 0
M  V30 930 H 92.3284 3.90019 -4.39498 0
M  V30 931 H 93.8524 4.69374 -3.90539 0
M  V30 932 H 95.2664 2.7275 -5.04262 0
M  V30 933 H 93.6634 2.16346 -5.59745 0
M  V30 934 H 94.7334 1.04315 -4.73547 0
M  V30 935 N 96.0765 1.50051 0.48192 0
M  V30 936 C 97.0395 1.67584 1.5636 0
M  V30 937 C 98.0395 0.546894 1.51214 0
M  V30 938 O 99.2295 0.813725 1.54026 0
M  V30 939 C 96.3615 1.691 2.96003 0
M  V30 940 H 97.5545 2.64078 1.42136 0
M  V30 941 H 95.1075 1.39369 0.707533 0
M  V30 942 H 95.8425 0.742589 3.15684 0
M  V30 943 H 95.6275 2.51105 3.01146 0
M  V30 944 H 97.1175 1.84656 3.74556 0
M  V30 945 N 97.5546 -0.734337 1.39446 0
M  V30 946 C 98.9656 -1.31264 1.32766 0
M  V30 947 C 99.3166 -1.96198 -0.00767497 0
M  V30 948 O 98.4416 -1.96346 -0.909796 0
M  V30 949 C 99.0366 -2.38682 2.4045 0
M  V30 950 C 97.5956 -2.92184 2.37288 0
M  V30 951 C 96.7426 -1.6576 2.22304 0
M  V30 952 H 99.6936 -0.531799 1.49525 0
M  V30 953 H 99.7146 -3.19087 2.07276 0
M  V30 954 H 99.2266 -1.91392 3.37625 0
M  V30 955 H 97.3276 -3.43752 1.43754 0
M  V30 956 H 97.4406 -3.45253 3.3217 0
M  V30 957 H 95.8046 -1.9012 1.69489 0
M  V30 958 H 96.5876 -1.20521 3.21449 0
M  V30 959 N 99.0327 -1.24633 -0.964593 0
M  V30 960 C 99.9797 -1.04144 -2.05968 0
M  V30 961 C 100.95 0.046262 -1.66036 0
M  V30 962 O 102.135 -0.108972 -1.90489 0
M  V30 963 C 99.2747 -0.65563 -3.38815 0
M  V30 964 C 98.3877 -1.81714 -3.91923 0
M  V30 965 C 97.5227 -1.37662 -5.13052 0
M  V30 966 C 96.5617 -2.50788 -5.58365 0
M  V30 967 N 95.6987 -2.07582 -6.70712 0
M  V30 968 H 100.539 -1.9787 -2.22827 0
M  V30 969 H 98.0757 -0.9855 -1.09208 0
M  V30 970 H 100.034 -0.412954 -4.15151 0
M  V30 971 H 98.6637 0.244627 -3.21872 0
M  V30 972 H 97.7157 -2.1734 -3.12198 0
M  V30 973 H 99.0277 -2.66705 -4.21509 0
M  V30 974 H 98.1817 -1.093 -5.96773 0
M  V30 975 H 96.9207 -0.497293 -4.85158 0
M  V30 976 H 95.9257 -2.79906 -4.73215 0
M  V30 977 H 97.1507 -3.39283 -5.88272 0
M  V30 978 H 95.0967 -1.22051 -6.44546 0
M  V30 979 H 95.0137 -2.86125 -6.99763 0
M  V30 980 H 96.2817 -1.82369 -7.57867 0
M  V30 981 N 100.511 1.16574 -1.06058 0
M  V30 982 C 101.759 1.86677 -0.77434 0
M  V30 983 C 102.08 1.81959 0.701147 0
M  V30 984 O 101.35 1.2515 1.50713 0
M  V30 985 H 99.9298 0.691134 -0.283449 0
M  V30 986 H 102.592 1.41378 -1.34158 0
M  V30 987 H 101.688 2.92181 -1.09711 0
M  V30 988 N 101.989 0.842826 1.3317 0
M  V30 989 C 102.952 0.284065 2.27433 0
M  V30 990 C 103.952 -0.54948 1.5112 0
M  V30 991 O 105.142 -0.362699 1.70382 0
M  V30 992 C 102.274 -0.599384 3.35589 0
M  V30 993 H 103.467 1.11589 2.78366 0
M  V30 994 H 101.02 0.616221 1.4364 0
M  V30 995 H 101.755 -1.45349 2.89904 0
M  V30 996 H 101.54 -0.00291266 3.921 0
M  V30 997 H 103.03 -0.983488 4.05854 0
M  V30 998 N 103.467 -1.45747 0.599634 0
M  V30 999 C 104.692 -2.07178 0.0960198 0
M  V30 1000 C 105.117 -1.44268 -1.207 0
M  V30 1001 O 104.475 -0.532503 -1.73303 0
M  V30 1002 C 104.523 -3.60579 -0.0385348 0
M  V30 1003 O 103.627 -3.97713 -1.0908 0
M  V30 1004 H 102.968 -0.660251 0.0704593 0
M  V30 1005 H 105.498 -1.87124 0.827385 0
M  V30 1006 H 105.508 -4.07298 -0.239304 0
M  V30 1007 H 104.183 -4.05756 0.912947 0
M  V30 1008 H 102.76 -3.62678 -0.867135 0
M  V30 1009 N 104.945 -0.338344 -1.53925 0
M  V30 1010 C 106.193 0.259245 -2.0043 0
M  V30 1011 C 106.514 1.51484 -1.22791 0
M  V30 1012 O 105.784 1.93037 -0.33368 0
M  V30 1013 H 104.364 0.0987845 -0.740439 0
M  V30 1014 H 107.026 -0.458302 -1.89435 0
M  V30 1015 H 106.122 0.505334 -3.07982 0
M  V30 1016 N 106.423 1.57458 -0.0668435 0
M  V30 1017 C 107.651 1.97624 0.612565 0
M  V30 1018 C 108.066 0.94502 1.63447 0
M  V30 1019 O 107.423 -0.0689276 1.8237 0
M  V30 1020 C 107.474 3.37869 1.28555 0
M  V30 1021 O 107.195 4.3704 0.304557 0
M  V30 1022 C 108.696 3.92882 2.05325 0
M  V30 1023 H 105.916 0.650045 0.166381 0
M  V30 1024 H 108.46 2.04035 -0.137782 0
M  V30 1025 H 106.615 3.3256 1.98702 0
M  V30 1026 H 107.029 5.18565 0.786779 0
M  V30 1027 H 108.503 4.93247 2.47812 0
M  V30 1028 H 108.98 3.29156 2.9078 0
M  V30 1029 H 109.586 4.01577 1.40056 0
M  V30 1030 N 107.901 -0.206675 1.56239 0
M  V30 1031 C 109.317 -0.557025 1.49564 0
M  V30 1032 C 109.517 -1.86424 0.764735 0
M  V30 1033 O 108.573 -2.50584 0.310491 0
M  V30 1034 C 109.886 -0.622478 2.94186 0
M  V30 1035 C 111.434 -0.712099 3.04792 0
M  V30 1036 C 111.909 -0.808767 4.50803 0
M  V30 1037 N 113.4 -0.8726 4.54907 0
M  V30 1038 C 114.135 -0.967365 5.65181 0
M  V30 1039 N 113.631 -1.02515 6.85173 0
M  V30 1040 N 115.424 -1.00366 5.53067 0
M  V30 1041 H 107.575 0.650943 2.02179 0
M  V30 1042 H 109.838 0.230387 0.919579 0
M  V30 1043 H 109.544 0.268727 3.50672 0
M  V30 1044 H 109.418 -1.4811 3.46905 0
M  V30 1045 H 111.805 -1.59374 2.48363 0
M  V30 1046 H 111.886 0.172489 2.55218 0
M  V30 1047 H 111.53 0.0684754 5.07854 0
M  V30 1048 H 111.46 -1.70899 4.98098 0
M  V30 1049 H 113.951 -0.837657 3.68499 0
M  V30 1050 H 114.264 -1.09765 7.64965 0
M  V30 1051 H 112.609 -0.994026 6.87855 0
M  V30 1052 H 115.8 -0.95527 4.58249 0
M  V30 1053 H 115.973 -1.07405 6.39037 0
M  V30 1054 N 109.379 -1.50304 -0.473955 0
M  V30 1055 C 110.289 -1.7174 -1.5982 0
M  V30 1056 C 111.305 -0.600457 -1.63311 0
M  V30 1057 O 112.481 -0.878441 -1.81233 0
M  V30 1058 C 109.546 -1.80427 -2.96052 0
M  V30 1059 C 108.607 -3.04148 -3.02972 0
M  V30 1060 C 107.84 -3.12411 -4.32706 0
M  V30 1061 O 108.063 -2.27542 -5.23049 0
M  V30 1062 O 106.997 -4.05113 -4.45159 0
M  V30 1063 H 110.823 -2.67035 -1.44657 0
M  V30 1064 H 108.408 -1.34366 -0.653148 0
M  V30 1065 H 110.29 -1.88338 -3.7697 0
M  V30 1066 H 108.965 -0.883156 -3.11419 0
M  V30 1067 H 107.872 -3.0174 -2.21142 0
M  V30 1068 H 109.205 -3.95829 -2.92541 0
M  V30 1069 N 110.857 0.726932 -1.39834 0
M  V30 1070 C 112.134 1.47902 -1.28001 0
M  V30 1071 C 112.514 2.1083 0.106789 0
M  V30 1072 O 111.862 1.99242 1.11869 0
M  V30 1073 C 112.072 2.52392 -2.41038 0
M  V30 1074 C 113.42 3.18546 -2.80737 0
M  V30 1075 O 114.444 2.62708 -2.40547 0
M  V30 1076 O 113.303 4.19604 -3.50135 0
M  V30 1077 H 110.397 0.657163 -0.502062 0
M  V30 1078 H 112.943 0.760071 -1.51727 0
M  V30 1079 H 111.715 2.04329 -3.33715 0
M  V30 1080 H 111.338 3.31837 -2.19021 0
M  V30 1081 N 112.336 1.25143 0.95797 0
M  V30 1082 C 113.747 1.08851 1.51685 0
M  V30 1083 C 114.098 -0.33687 1.93286 0
M  V30 1084 O 113.223 -1.22644 1.7829 0
M  V30 1085 C 113.818 1.96978 2.75654 0
M  V30 1086 C 112.377 1.84881 3.27866 0
M  V30 1087 C 111.524 1.91329 2.0072 0
M  V30 1088 H 114.475 1.38478 0.77522 0
M  V30 1089 H 114.496 1.5078 3.4935 0
M  V30 1090 H 114.008 3.00712 2.45345 0
M  V30 1091 H 112.109 0.840182 3.63004 0
M  V30 1092 H 112.222 2.6951 3.96107 0
M  V30 1093 H 110.586 1.35174 2.15871 0
M  V30 1094 H 111.369 2.96661 1.72764 0
M  V30 1095 N 113.814 -1.1601 1.06675 0
M  V30 1096 C 114.762 -2.22586 0.675157 0
M  V30 1097 C 115.756 -1.66525 -0.310766 0
M  V30 1098 O 116.962 -1.79145 -0.175215 0
M  V30 1099 H 113.337 -0.724855 0.200223 0
M  V30 1100 H 115.308 -2.52899 1.58381 0
M  V30 1101 C 114.057 -3.47604 0.0817162 0
M  V30 1102 H 113.38 -3.91058 0.831484 0
M  V30 1103 H 114.82 -4.23718 -0.154708 0
M  V30 1104 C 113.279 -3.15718 -1.17576 0
M  V30 1105 O 113.809 -3.31878 -2.26318 0
M  V30 1106 N 112.015 -2.69816 -1.07923 0
M  V30 1107 H 111.562 -2.56866 -0.194293 0
M  V30 1108 H 111.52 -2.48855 -1.92141 0
M  V30 1109 N 115.292 -0.849877 -1.32721 0
M  V30 1110 C 116.222 -0.306308 -2.31482 0
M  V30 1111 C 117.203 0.591952 -1.59468 0
M  V30 1112 O 118.388 0.513199 -1.87296 0
M  V30 1113 C 115.518 0.510204 -3.43532 0
M  V30 1114 C 114.472 -0.293209 -4.26994 0
M  V30 1115 C 113.798 0.647743 -5.30762 0
M  V30 1116 C 115.098 -1.51634 -4.99804 0
M  V30 1117 H 116.792 -1.13153 -2.77195 0
M  V30 1118 H 114.338 -0.545553 -1.33266 0
M  V30 1119 H 116.291 0.900856 -4.11658 0
M  V30 1120 H 115.015 1.36874 -2.96535 0
M  V30 1121 H 113.674 -0.665555 -3.60508 0
M  V30 1122 H 113.322 1.50299 -4.8002 0
M  V30 1123 H 113.022 0.11422 -5.87489 0
M  V30 1124 H 114.546 1.03567 -6.01753 0
M  V30 1125 H 115.96 -1.19824 -5.60638 0
M  V30 1126 H 114.357 -1.98745 -5.66234 0
M  V30 1127 H 115.427 -2.28018 -4.27943 0
M  V30 1128 N 116.77 1.45427 -0.607355 0
M  V30 1129 C 118.016 2.0254 -0.102607 0
M  V30 1130 C 118.349 1.47478 1.26348 0
M  V30 1131 O 117.624 0.64939 1.83339 0
M  V30 1132 C 117.907 3.60044 -0.0634347 0
M  V30 1133 C 117.76 4.2544 -1.46017 0
M  V30 1134 C 119.079 4.35646 0.624514 0
M  V30 1135 H 116.198 0.73598 -0.0387607 0
M  V30 1136 H 118.84 1.73284 -0.779282 0
M  V30 1137 H 116.99 3.85101 0.512808 0
M  V30 1138 H 118.662 4.11569 -2.08347 0
M  V30 1139 H 116.905 3.83849 -2.02094 0
M  V30 1140 H 117.576 5.34342 -1.385 0
M  V30 1141 H 120.052 4.15882 0.134723 0
M  V30 1142 H 118.928 5.45376 0.621028 0
M  V30 1143 H 119.189 4.08501 1.69055 0
M  V30 1144 N 118.248 0.346503 1.53744 0
M  V30 1145 C 119.659 -0.136779 1.86198 0
M  V30 1146 C 120.01 -1.49749 1.26766 0
M  V30 1147 O 119.135 -2.08417 0.582355 0
M  V30 1148 C 119.73 -0.254966 3.37839 0
M  V30 1149 C 118.289 -0.682482 3.70161 0
M  V30 1150 C 117.436 0.181981 2.76702 0
M  V30 1151 H 120.387 0.565994 1.48264 0
M  V30 1152 H 120.408 -1.08195 3.64793 0
M  V30 1153 H 119.92 0.735526 3.81066 0
M  V30 1154 H 118.021 -1.68189 3.3248 0
M  V30 1155 H 118.134 -0.470326 4.76786 0
M  V30 1156 H 116.498 -0.34615 2.52337 0
M  V30 1157 H 117.281 1.16966 3.2276 0
M  V30 1158 N 119.726 -1.57421 0.075193 0
M  V30 1159 C 120.951 -1.98364 -0.605515 0
M  V30 1160 C 121.376 -0.953383 -1.62149 0
M  V30 1161 O 120.734 0.0806053 -1.81121 0
M  V30 1162 C 120.782 -3.38332 -1.24756 0
M  V30 1163 O 119.886 -3.37959 -2.36342 0
M  V30 1164 H 119.227 -0.645553 -0.155428 0
M  V30 1165 H 121.757 -2.04044 0.150714 0
M  V30 1166 H 121.767 -3.75591 -1.5936 0
M  V30 1167 H 120.442 -4.12846 -0.503129 0
M  V30 1168 H 119.019 -3.12474 -2.03506 0
M  V30 1169 N 121.204 0.198386 -1.56346 0
M  V30 1170 C 122.453 0.917451 -1.79627 0
M  V30 1171 C 122.766 1.8456 -0.64784 0
M  V30 1172 O 123.972 2.60504 -0.764859 0
M  V30 1173 C 122.428 1.68175 -3.18191 0
M  V30 1174 C 122.036 0.798589 -4.40825 0
M  V30 1175 C 123.78 2.39065 -3.50782 0
M  V30 1176 C 121.687 1.56157 -5.70411 0
M  V30 1177 H 120.617 0.346317 -0.669762 0
M  V30 1178 H 123.268 0.170801 -1.82703 0
M  V30 1179 H 121.65 2.47216 -3.09354 0
M  V30 1180 H 122.824 0.0470665 -4.60776 0
M  V30 1181 H 121.139 0.200686 -4.15916 0
M  V30 1182 H 123.736 2.96692 -4.44835 0
M  V30 1183 H 124.079 3.13091 -2.74371 0
M  V30 1184 H 124.612 1.66993 -3.61052 0
M  V30 1185 H 121.351 0.864142 -6.49779 0
M  V30 1186 H 120.871 2.2871 -5.54483 0
M  V30 1187 H 122.55 2.11622 -6.11412 0
M  V30 1188 N 122.682 1.50554 0.465978 0
M  V30 1189 C 123.907 1.65838 1.24549 0
M  V30 1190 C 124.332 0.343486 1.84937 0
M  V30 1191 O 123.69 -0.69324 1.67523 0
M  V30 1192 C 123.738 2.75533 2.32624 0
M  V30 1193 O 122.842 2.37142 3.37398 0
M  V30 1194 H 122.183 0.553893 0.366194 0
M  V30 1195 H 124.713 1.96959 0.553927 0
M  V30 1196 H 124.723 2.98763 2.77857 0
M  V30 1197 H 123.398 3.70962 1.88043 0
M  V30 1198 H 121.975 2.24377 2.97841 0
M  V30 1199 N 124.16 -0.719506 1.40217 0
M  V30 1200 C 125.108 -1.85493 1.40339 0
M  V30 1201 C 126.102 -1.66995 0.284415 0
M  V30 1202 O 127.308 -1.74148 0.455252 0
M  V30 1203 H 123.683 -0.610857 0.438586 0
M  V30 1204 H 125.654 -1.82506 2.36081 0
M  V30 1205 C 124.403 -3.23321 1.27901 0
M  V30 1206 H 123.726 -3.38159 2.1328 0
M  V30 1207 H 125.166 -4.02914 1.32045 0
M  V30 1208 C 123.625 -3.36898 -0.0111355 0
M  V30 1209 O 124.155 -3.89674 -0.975538 0
M  V30 1210 N 122.361 -2.90492 -0.0793393 0
M  V30 1211 H 121.908 -2.47731 0.706183 0
M  V30 1212 H 121.866 -2.99955 -0.942038 0
M  V30 1213 N 125.638 -1.25649 -0.95132 0
M  V30 1214 C 126.585 -1.06323 -2.04851 0
M  V30 1215 C 127.555 0.0286491 -1.66075 0
M  V30 1216 O 128.74 -0.12917 -1.90362 0
M  V30 1217 C 125.88 -0.691529 -3.381 0
M  V30 1218 C 124.993 -1.85861 -3.89974 0
M  V30 1219 C 124.128 -1.43096 -5.11563 0
M  V30 1220 C 123.167 -2.56696 -5.55674 0
M  V30 1221 N 122.304 -2.14684 -6.68472 0
M  V30 1222 H 127.144 -2.00222 -2.20715 0
M  V30 1223 H 124.681 -0.997027 -1.08156 0
M  V30 1224 H 126.639 -0.456963 -4.1469 0
M  V30 1225 H 125.269 0.210474 -3.22113 0
M  V30 1226 H 124.321 -2.20639 -3.09875 0
M  V30 1227 H 125.633 -2.71161 -4.18657 0
M  V30 1228 H 124.787 -1.15624 -5.9558 0
M  V30 1229 H 123.526 -0.548722 -4.84603 0
M  V30 1230 H 122.531 -2.84909 -4.7022 0
M  V30 1231 H 123.756 -3.45503 -5.8464 0
M  V30 1232 H 121.702 -1.28881 -6.43215 0
M  V30 1233 H 121.619 -2.9353 -6.96689 0
M  V30 1234 H 122.887 -1.90397 -7.5589 0
M  V30 1235 N 127.117 1.15442 -1.07289 0
M  V30 1236 C 128.533 1.38201 -0.798288 0
M  V30 1237 C 128.733 1.92429 0.597769 0
M  V30 1238 O 127.789 2.12962 1.3566 0
M  V30 1239 C 129.102 2.35357 -1.87156 0
M  V30 1240 C 130.65 2.49021 -1.89624 0
M  V30 1241 C 131.125 3.49468 -2.96034 0
M  V30 1242 N 132.616 3.57003 -2.95132 0
M  V30 1243 C 133.351 4.34543 -3.74112 0
M  V30 1244 N 132.847 5.15421 -4.6294 0
M  V30 1245 N 134.64 4.29625 -3.62462 0
M  V30 1246 H 126.791 0.78584 -1.97328 0
M  V30 1247 H 129.054 0.408065 -0.855679 0
M  V30 1248 H 128.76 2.02626 -2.87464 0
M  V30 1249 H 128.634 3.35129 -1.73114 0
M  V30 1250 H 131.021 2.81051 -0.899687 0
M  V30 1251 H 131.102 1.4925 -2.07745 0
M  V30 1252 H 130.746 3.18173 -3.95889 0
M  V30 1253 H 130.676 4.48992 -2.75161 0
M  V30 1254 H 133.167 2.99276 -2.30743 0
M  V30 1255 H 133.48 5.7183 -5.19837 0
M  V30 1256 H 131.825 5.14729 -4.66989 0
M  V30 1257 H 135.016 3.65505 -2.92444 0
M  V30 1258 H 135.189 4.89807 -4.24256 0
M  V30 1259 N 128.595 0.856903 1.32268 0
M  V30 1260 C 129.844 0.457599 1.96441 0
M  V30 1261 C 130.157 -0.992426 1.68553 0
M  V30 1262 O 131.363 -1.49727 2.26482 0
M  V30 1263 C 129.819 0.767358 3.51624 0
M  V30 1264 C 129.427 2.23326 3.88367 0
M  V30 1265 C 131.171 0.435887 4.22256 0
M  V30 1266 C 129.078 2.48613 5.36606 0
M  V30 1267 H 128.008 0.167387 0.735185 0
M  V30 1268 H 130.659 1.048 1.5063 0
M  V30 1269 H 129.041 0.106367 3.95857 0
M  V30 1270 H 130.215 2.93623 3.55137 0
M  V30 1271 H 128.53 2.52948 3.30766 0
M  V30 1272 H 131.127 0.602202 5.31298 0
M  V30 1273 H 131.47 -0.622672 4.11617 0
M  V30 1274 H 132.003 1.05286 3.83614 0
M  V30 1275 H 128.742 3.53101 5.52268 0
M  V30 1276 H 128.262 1.82896 5.71235 0
M  V30 1277 H 129.941 2.32676 6.03714 0
M  V30 1278 N 130.073 -1.45103 0.615059 0
M  V30 1279 C 131.319 -2.02483 0.113347 0
M  V30 1280 C 131.652 -1.48146 -1.25564 0
M  V30 1281 O 130.927 -0.659104 -1.82992 0
M  V30 1282 C 131.21 -3.60005 0.0825278 0
M  V30 1283 C 131.063 -4.2466 1.48271 0
M  V30 1284 C 132.382 -4.35972 -0.601401 0
M  V30 1285 H 129.501 -0.735764 0.0426632 0
M  V30 1286 H 132.143 -1.72868 0.788461 0
M  V30 1287 H 130.293 -3.85367 -0.492378 0
M  V30 1288 H 131.965 -4.10458 2.10527 0
M  V30 1289 H 130.208 -3.82772 2.04127 0
M  V30 1290 H 130.879 -5.336 1.41332 0
M  V30 1291 H 133.355 -4.15947 -0.112666 0
M  V30 1292 H 132.231 -5.45697 -0.592097 0
M  V30 1293 H 132.492 -4.09391 -1.66887 0
M  V30 1294 N 131.551 -0.354651 -1.53558 0
M  V30 1295 C 132.799 0.237972 -2.00694 0
M  V30 1296 C 133.12 1.50173 -1.24391 0
M  V30 1297 O 132.39 1.92673 -0.354135 0
M  V30 1298 H 130.97 0.0909256 -0.741446 0
M  V30 1299 H 133.632 -0.478368 -1.88938 0
M  V30 1300 H 132.728 0.47264 -3.085 0
M  V30 1301 N 133.029 1.57378 -0.0835403 0
M  V30 1302 C 134.269 1.95808 0.586381 0
M  V30 1303 C 134.633 0.963706 1.66062 0
M  V30 1304 O 135.834 1.23608 2.38693 0
M  V30 1305 C 134.105 3.38808 1.13771 0
M  V30 1306 S 135.664 3.99225 1.82112 0
M  V30 1307 H 132.482 0.684675 0.191679 0
M  V30 1308 H 135.084 1.94843 -0.160194 0
M  V30 1309 H 133.788 4.08954 0.344197 0
M  V30 1310 H 133.319 3.43344 1.92038 0
M  V30 1311 H 135.334 3.87087 3.10449 0
M  V30 1312 N 134.507 -0.190092 1.56449 0
M  V30 1313 C 135.756 -0.907912 1.80111 0
M  V30 1314 C 136.069 -1.84214 0.657619 0
M  V30 1315 O 137.275 -2.60094 0.778663 0
M  V30 1316 C 135.731 -1.66485 3.19078 0
M  V30 1317 C 135.339 -0.7752 4.41242 0
M  V30 1318 C 137.083 -2.37201 3.52045 0
M  V30 1319 C 134.99 -1.53129 5.71231 0
M  V30 1320 H 133.92 -0.34276 0.671589 0
M  V30 1321 H 136.571 -0.161109 1.82791 0
M  V30 1322 H 134.953 -2.45572 3.10661 0
M  V30 1323 H 136.127 -0.0226298 4.60794 0
M  V30 1324 H 134.442 -0.178627 4.16017 0
M  V30 1325 H 137.039 -2.94329 4.46402 0
M  V30 1326 H 137.382 -3.11632 2.76028 0
M  V30 1327 H 137.915 -1.65075 3.61932 0
M  V30 1328 H 134.654 -0.82967 6.50228 0
M  V30 1329 H 134.174 -2.25767 5.55688 0
M  V30 1330 H 135.853 -2.08377 6.12526 0
M  V30 1331 N 135.985 -1.50799 -0.457987 0
M  V30 1332 C 137.225 -1.64088 -1.21879 0
M  V30 1333 C 137.589 -0.339848 -1.88968 0
M  V30 1334 O 138.79 -0.348301 -2.66534 0
M  V30 1335 C 137.061 -2.79726 -2.2246 0
M  V30 1336 S 138.62 -3.13225 -3.07303 0
M  V30 1337 H 135.438 -0.578314 -0.41361 0
M  V30 1338 H 138.04 -1.88632 -0.513645 0
M  V30 1339 H 136.744 -3.72722 -1.71775 0
M  V30 1340 H 136.275 -2.57308 -2.97584 0
M  V30 1341 H 138.29 -2.58062 -4.23814 0
M  V30 1342 N 137.463 0.71206 -1.40597 0
M  V30 1343 C 138.373 1.8562 -1.43466 0
M  V30 1344 C 139.389 1.70902 -0.326902 0
M  V30 1345 O 140.565 1.93105 -0.572043 0
M  V30 1346 C 137.63 3.21451 -1.29884 0
M  V30 1347 C 136.691 3.48398 -2.50833 0
M  V30 1348 C 135.924 4.77749 -2.3789 0
M  V30 1349 O 136.147 5.53089 -1.39459 0
M  V30 1350 O 135.081 5.05111 -3.27333 0
M  V30 1351 H 138.907 1.86155 -2.39958 0
M  V30 1352 H 136.492 0.86295 -1.21957 0
M  V30 1353 H 138.374 4.02579 -1.24531 0
M  V30 1354 H 137.049 3.21636 -0.364997 0
M  V30 1355 H 135.956 2.67265 -2.61763 0
M  V30 1356 H 137.289 3.53014 -3.4299 0
M  V30 1357 N 138.941 1.26152 0.944643 0
M  V30 1358 C 139.851 1.09176 2.07648 0
M  V30 1359 C 140.867 0.0261935 1.7398 0
M  V30 1360 O 142.043 0.229208 2.00091 0
M  V30 1361 C 139.108 0.722915 3.39079 0
M  V30 1362 C 138.169 1.86752 3.86552 0
M  V30 1363 C 137.402 1.51617 5.11711 0
M  V30 1364 O 137.625 0.416331 5.68879 0
M  V30 1365 O 136.559 2.34975 5.54139 0
M  V30 1366 H 140.385 2.0412 2.24875 0
M  V30 1367 H 137.97 1.05182 1.061 0
M  V30 1368 H 139.852 0.529787 4.18056 0
M  V30 1369 H 138.527 -0.197159 3.23099 0
M  V30 1370 H 137.434 2.11558 3.08535 0
M  V30 1371 H 138.767 2.76719 4.07047 0
M  V30 1372 N 140.419 -1.14872 1.07899 0
M  V30 1373 C 141.696 -1.81928 0.71845 0
M  V30 1374 C 142.076 -1.95417 -0.798455 0
M  V30 1375 O 141.424 -1.50997 -1.715 0
M  V30 1376 C 141.634 -3.17937 1.43935 0
M  V30 1377 C 142.982 -3.93501 1.59506 0
M  V30 1378 O 144.006 -3.27509 1.40058 0
M  V30 1379 O 142.865 -5.1183 1.91551 0
M  V30 1380 H 139.959 -0.78628 0.256305 0
M  V30 1381 H 142.505 -1.21934 1.18026 0
M  V30 1382 H 141.277 -3.0325 2.47295 0
M  V30 1383 H 140.9 -3.85619 0.968687 0
M  V30 1384 N 141.898 -0.863906 -1.31812 0
M  V30 1385 C 142.846 -0.30422 -2.30602 0
M  V30 1386 C 143.84 0.577419 -1.59255 0
M  V30 1387 O 145.046 0.464194 -1.73912 0
M  V30 1388 H 141.421 -0.0796877 -0.747766 0
M  V30 1389 H 143.392 -1.15148 -2.75288 0
M  V30 1390 C 142.141 0.484617 -3.44306 0
M  V30 1391 H 141.464 -0.18451 -3.99374 0
M  V30 1392 H 142.904 0.841664 -4.15562 0
M  V30 1393 C 141.363 1.6735 -2.92396 0
M  V30 1394 O 141.893 2.77273 -2.90659 0
M  V30 1395 N 140.099 1.50362 -2.48676 0
M  V30 1396 H 139.646 0.609402 -2.50288 0
M  V30 1397 H 139.604 2.30051 -2.14299 0
M  V30 1398 N 143.376 1.44774 -0.622745 0
M  V30 1399 C 144.604 2.06487 -0.130722 0
M  V30 1400 C 145.019 1.46476 1.19123 0
M  V30 1401 O 144.376 0.584502 1.72887 0
M  V30 1402 C 144.427 3.615 -0.000807207 0
M  V30 1403 O 144.148 4.19274 -1.27048 0
M  V30 1404 C 145.649 4.40229 0.520898 0
M  V30 1405 H 142.869 0.666704 -0.0758106 0
M  V30 1406 H 145.413 1.85779 -0.854774 0
M  V30 1407 H 143.568 3.81498 0.673643 0
M  V30 1408 H 143.982 5.12622 -1.1099 0
M  V30 1409 H 145.456 5.49144 0.560838 0
M  V30 1410 H 145.933 4.1108 1.54627 0
M  V30 1411 H 146.539 4.25131 -0.120018 0
M  V30 1412 N 144.854 0.36279 1.53368 0
M  V30 1413 C 146.079 -0.231226 2.06107 0
M  V30 1414 C 146.504 -1.419 1.23474 0
M  V30 1415 O 145.862 -1.79524 0.253128 0
M  V30 1416 C 145.91 -0.605523 3.5548 0
M  V30 1417 O 145.014 -1.70312 3.7559 0
M  V30 1418 H 144.355 -0.034327 0.663112 0
M  V30 1419 H 146.885 0.522584 1.97814 0
M  V30 1420 H 146.895 -0.877314 3.98456 0
M  V30 1421 H 145.57 0.263004 4.15068 0
M  V30 1422 H 144.147 -1.4271 3.44512 0
M  V30 1423 N 146.332 -1.57332 0.0918853 0
M  V30 1424 C 147.578 -1.94524 -0.573425 0
M  V30 1425 C 147.911 -0.973578 -1.68033 0
M  V30 1426 O 147.186 -0.00609226 -1.94499 0
M  V30 1427 C 147.469 -3.41858 -1.13161 0
M  V30 1428 C 147.322 -4.4979 -0.0299747 0
M  V30 1429 C 148.641 -3.90435 -2.03098 0
M  V30 1430 H 145.76 -0.70734 -0.206975 0
M  V30 1431 H 148.402 -1.89309 0.161942 0
M  V30 1432 H 146.552 -3.46433 -1.7583 0
M  V30 1433 H 148.224 -4.57327 0.604112 0
M  V30 1434 H 146.467 -4.291 0.636833 0
M  V30 1435 H 147.138 -5.50069 -0.461287 0
M  V30 1436 H 149.614 -3.87992 -1.50338 0
M  V30 1437 H 148.49 -4.94097 -2.39081 0
M  V30 1438 H 148.751 -3.29541 -2.94712 0
M  V30 1439 N 147.81 0.181792 -1.56548 0
M  V30 1440 C 149.056 0.901431 -1.81665 0
M  V30 1441 C 149.389 1.82347 -0.668075 0
M  V30 1442 O 148.664 1.91669 0.330615 0
M  V30 1443 C 148.947 1.70618 -3.17115 0
M  V30 1444 C 148.8 0.807964 -4.42484 0
M  V30 1445 C 150.119 2.67605 -3.49393 0
M  V30 1446 H 147.238 0.32627 -0.660846 0
M  V30 1447 H 149.88 0.168134 -1.89255 0
M  V30 1448 H 148.03 2.33133 -3.10775 0
M  V30 1449 H 149.702 0.19649 -4.60881 0
M  V30 1450 H 147.945 0.115411 -4.33646 0
M  V30 1451 H 148.616 1.40632 -5.33785 0
M  V30 1452 H 151.092 2.15218 -3.56118 0
M  V30 1453 H 149.968 3.20985 -4.45264 0
M  V30 1454 H 150.229 3.47298 -2.73563 0
M  V30 1455 N 149.288 1.51039 0.449983 0
M  V30 1456 C 150.534 1.64287 1.19923 0
M  V30 1457 C 150.889 0.348701 1.89214 0
M  V30 1458 O 150.182 -0.654751 1.80065 0
M  V30 1459 C 150.376 2.77556 2.25161 0
M  V30 1460 C 150.205 4.17862 1.66198 0
M  V30 1461 C 148.975 4.83976 1.45243 0
M  V30 1462 C 151.173 5.01388 1.14519 0
M  V30 1463 N 149.155 6.08433 0.817437 0
M  V30 1464 C 150.526 6.16743 0.634705 0
M  V30 1465 C 152.581 4.87008 1.03574 0
M  V30 1466 C 151.284 7.19295 0.0255452 0
M  V30 1467 C 153.31 5.89757 0.440489 0
M  V30 1468 C 152.672 7.04375 -0.0595112 0
M  V30 1469 H 148.771 0.655161 0.426952 0
M  V30 1470 H 151.355 1.88228 0.49781 0
M  V30 1471 H 149.526 2.553 2.92706 0
M  V30 1472 H 151.258 2.80049 2.92155 0
M  V30 1473 H 148.013 4.41627 1.71063 0
M  V30 1474 H 148.437 6.75017 0.517747 0
M  V30 1475 H 153.079 3.9866 1.4082 0
M  V30 1476 H 150.797 8.07302 -0.359071 0
M  V30 1477 H 154.383 5.80698 0.35788 0
M  V30 1478 H 153.263 7.82521 -0.512882 0
M  V30 1479 N 150.766 -0.704594 1.40972 0
M  V30 1480 C 152.013 -1.46458 1.39844 0
M  V30 1481 C 152.341 -1.94499 0.00447594 0
M  V30 1482 O 151.596 -1.69275 -0.982057 0
M  V30 1483 C 151.895 -2.698 2.34399 0
M  V30 1484 C 151.561 -2.40464 3.81429 0
M  V30 1485 C 150.223 -2.32174 4.21484 0
M  V30 1486 C 152.575 -2.16086 4.74296 0
M  V30 1487 C 149.903 -1.97589 5.52427 0
M  V30 1488 C 152.255 -1.83011 6.05549 0
M  V30 1489 C 150.919 -1.7321 6.44635 0
M  V30 1490 H 150.189 -0.535927 0.511725 0
M  V30 1491 H 152.836 -0.806124 1.73706 0
M  V30 1492 H 151.141 -3.40536 1.93759 0
M  V30 1493 H 152.838 -3.27919 2.30804 0
M  V30 1494 H 149.428 -2.47808 3.49699 0
M  V30 1495 H 153.612 -2.2144 4.4416 0
M  V30 1496 H 148.868 -1.88547 5.81601 0
M  V30 1497 H 153.042 -1.63164 6.77016 0
M  V30 1498 H 150.669 -1.46179 7.46013 0
M  V30 1499 N 152.244 -1.26651 -0.937939 0
M  V30 1500 C 153.49 -1.13562 -1.68746 0
M  V30 1501 C 153.845 0.317241 -1.89767 0
M  V30 1502 O 153.138 1.22939 -1.46957 0
M  V30 1503 C 153.332 -1.84168 -3.06295 0
M  V30 1504 C 153.161 -3.36171 -2.98696 0
M  V30 1505 C 151.931 -4.05468 -3.01535 0
M  V30 1506 C 154.129 -4.32312 -2.78588 0
M  V30 1507 N 152.111 -5.44118 -2.84269 0
M  V30 1508 C 153.482 -5.58159 -2.69924 0
M  V30 1509 C 155.537 -4.22524 -2.63396 0
M  V30 1510 C 154.24 -6.75335 -2.47618 0
M  V30 1511 C 156.266 -5.39411 -2.42466 0
M  V30 1512 C 155.628 -6.64208 -2.34536 0
M  V30 1513 H 151.727 -0.470361 -0.624728 0
M  V30 1514 H 154.311 -1.59982 -1.10968 0
M  V30 1515 H 152.482 -1.40219 -3.62206 0
M  V30 1516 H 154.214 -1.63674 -3.70126 0
M  V30 1517 H 150.969 -3.56854 -3.11372 0
M  V30 1518 H 151.393 -6.1693 -2.78795 0
M  V30 1519 H 156.035 -3.26771 -2.68292 0
M  V30 1520 H 153.753 -7.71182 -2.41463 0
M  V30 1521 H 157.339 -5.33711 -2.31611 0
M  V30 1522 H 156.219 -7.53129 -2.18555 0
M  V30 1523 N 153.722 1.14298 -1.08507 0
M  V30 1524 C 154.652 2.21542 -0.737646 0
M  V30 1525 C 155.633 1.67773 0.280377 0
M  V30 1526 O 156.818 1.93616 0.150521 0
M  V30 1527 C 153.948 3.46988 -0.147259 0
M  V30 1528 C 152.902 4.13789 -1.09374 0
M  V30 1529 C 152.228 5.33449 -0.365524 0
M  V30 1530 C 153.528 4.62208 -2.4323 0
M  V30 1531 H 155.222 2.5086 -1.6343 0
M  V30 1532 H 152.768 1.20576 -0.787243 0
M  V30 1533 H 154.721 4.21262 0.107808 0
M  V30 1534 H 153.445 3.17037 0.784538 0
M  V30 1535 H 152.104 3.4147 -1.33393 0
M  V30 1536 H 151.752 4.99759 0.57011 0
M  V30 1537 H 151.452 5.79088 -0.996512 0
M  V30 1538 H 152.976 6.10485 -0.118534 0
M  V30 1539 H 154.39 5.27952 -2.23472 0
M  V30 1540 H 152.787 5.18553 -3.02031 0
M  V30 1541 H 153.857 3.77224 -3.04681 0
M  V30 1542 N 155.201 0.870884 1.31352 0
M  V30 1543 C 156.151 0.298889 2.26032 0
M  V30 1544 C 157.135 -0.564595 1.50669 0
M  V30 1545 O 158.327 -0.411323 1.72154 0
M  V30 1546 C 155.456 -0.497842 3.39671 0
M  V30 1547 C 154.542 0.378937 4.22404 0
M  V30 1548 N 154.933 1.47284 4.83881 0
M  V30 1549 C 153.231 0.171535 4.4567 0
M  V30 1550 C 153.932 2.01359 5.45738 0
M  V30 1551 N 152.908 1.31047 5.27568 0
M  V30 1552 H 156.71 1.13494 2.71102 0
M  V30 1553 H 154.224 0.718745 1.45629 0
M  V30 1554 H 156.221 -0.924155 4.06528 0
M  V30 1555 H 154.881 -1.33149 2.96144 0
M  V30 1556 H 155.892 1.85575 4.8351 0
M  V30 1557 H 152.569 -0.626091 4.12779 0
M  V30 1558 H 153.959 2.93143 6.0458 0
M  V30 1559 N 156.679 -1.44442 0.630414 0
M  V30 1560 C 157.626 -2.30678 -0.0749355 0
M  V30 1561 C 158.596 -1.4344 -0.837502 0
M  V30 1562 O 159.781 -1.72343 -0.818684 0
M  V30 1563 C 156.921 -3.28706 -1.05103 0
M  V30 1564 C 156.034 -4.31046 -0.286954 0
M  V30 1565 C 155.169 -5.16167 -1.2548 0
M  V30 1566 C 154.208 -6.10216 -0.479843 0
M  V30 1567 N 153.345 -6.88039 -1.39811 0
M  V30 1568 H 158.185 -2.90454 0.666386 0
M  V30 1569 H 155.722 -1.43107 0.340404 0
M  V30 1570 H 157.68 -3.84027 -1.63031 0
M  V30 1571 H 156.31 -2.70632 -1.75949 0
M  V30 1572 H 155.362 -3.78203 0.408243 0
M  V30 1573 H 156.674 -4.97794 0.316657 0
M  V30 1574 H 155.828 -5.76002 -1.90544 0
M  V30 1575 H 154.567 -4.49491 -1.89233 0
M  V30 1576 H 153.572 -5.49491 0.184295 0
M  V30 1577 H 154.797 -6.78928 0.152965 0
M  V30 1578 H 152.743 -6.24032 -2.02287 0
M  V30 1579 H 152.66 -7.51223 -0.848508 0
M  V30 1580 H 153.928 -7.52397 -2.03762 0
M  V30 1581 N 158.157 -0.370918 -1.53173 0
M  V30 1582 C 159.405 0.216673 -2.00935 0
M  V30 1583 C 159.726 1.48845 -1.25977 0
M  V30 1584 O 158.996 1.92286 -0.374551 0
M  V30 1585 H 157.576 0.0830565 -0.742368 0
M  V30 1586 H 160.238 -0.49838 -1.8842 0
M  V30 1587 H 159.334 0.439893 -3.08984 0
M  V30 1588 N 159.635 1.57281 -0.100228 0
M  V30 1589 C 160.545 2.17833 0.870965 0
M  V30 1590 C 161.561 1.14921 1.30649 0
M  V30 1591 O 162.737 1.47313 1.37335 0
M  V30 1592 C 159.802 2.75085 2.1102 0
M  V30 1593 C 158.863 3.9297 1.72838 0
M  V30 1594 C 158.096 4.47482 2.90854 0
M  V30 1595 O 158.319 4.00922 4.05731 0
M  V30 1596 O 157.253 5.38433 2.69023 0
M  V30 1597 H 161.079 3.0124 0.38575 0
M  V30 1598 H 158.664 1.48881 0.124397 0
M  V30 1599 H 160.546 3.11656 2.83634 0
M  V30 1600 H 159.221 1.94721 2.58584 0
M  V30 1601 H 158.128 3.61201 0.973883 0
M  V30 1602 H 159.461 4.74713 1.30033 0
M  V30 1603 N 161.113 -0.173488 1.56642 0
M  V30 1604 C 162.076 -1.19859 1.95362 0
M  V30 1605 C 163.076 -1.37296 0.83704 0
M  V30 1606 O 164.266 -1.34739 1.10413 0
M  V30 1607 C 161.398 -2.56405 2.24654 0
M  V30 1608 H 162.591 -0.867062 2.87092 0
M  V30 1609 H 160.144 -0.415853 1.50666 0
M  V30 1610 H 160.879 -2.94576 1.35631 0
M  V30 1611 H 160.664 -2.45115 3.06041 0
M  V30 1612 H 162.154 -3.30287 2.5554 0
M  V30 1613 N 162.591 -1.51276 -0.441967 0
M  V30 1614 C 163.523 -1.68444 -1.55433 0
M  V30 1615 C 164.536 -0.565187 -1.52674 0
M  V30 1616 O 165.725 -0.839356 -1.57534 0
M  V30 1617 C 162.825 -1.67966 -2.94348 0
M  V30 1618 C 161.998 -2.964 -3.21661 0
M  V30 1619 C 161.057 -2.88171 -4.40277 0
M  V30 1620 O 160.083 -3.62119 -4.39157 0
M  V30 1621 N 161.285 -2.03706 -5.43584 0
M  V30 1622 H 164.05 -2.644 -1.41112 0
M  V30 1623 H 161.611 -1.49104 -0.630838 0
M  V30 1624 H 163.603 -1.60035 -3.71713 0
M  V30 1625 H 162.173 -0.796225 -3.0229 0
M  V30 1626 H 161.393 -3.18234 -2.32638 0
M  V30 1627 H 162.681 -3.81427 -3.36736 0
M  V30 1628 H 162.079 -1.42995 -5.47329 0
M  V30 1629 H 160.636 -2.01658 -6.1982 0
M  V30 1630 N 164.069 0.697108 -1.41344 0
M  V30 1631 C 165.485 1.00751 -1.2378 0
M  V30 1632 C 165.685 2.01105 -0.126066 0
M  V30 1633 O 164.741 2.47295 0.51004 0
M  V30 1634 C 166.054 1.53359 -2.58653 0
M  V30 1635 C 167.602 1.6525 -2.65822 0
M  V30 1636 C 168.077 2.2126 -4.01009 0
M  V30 1637 N 169.568 2.28622 -4.02847 0
M  V30 1638 C 170.303 2.72984 -5.04249 0
M  V30 1639 N 169.799 3.16962 -6.16041 0
M  V30 1640 N 171.592 2.72534 -4.91611 0
M  V30 1641 H 163.743 0.0322662 -2.12375 0
M  V30 1642 H 166.006 0.0768853 -0.944877 0
M  V30 1643 H 165.712 0.870773 -3.4075 0
M  V30 1644 H 165.586 2.51597 -2.81032 0
M  V30 1645 H 167.973 2.30644 -1.84086 0
M  V30 1646 H 168.054 0.655614 -2.47256 0
M  V30 1647 H 167.698 1.56482 -4.83193 0
M  V30 1648 H 167.628 3.21698 -4.16915 0
M  V30 1649 H 170.119 1.97585 -3.22131 0
M  V30 1650 H 170.432 3.49434 -6.89287 0
M  V30 1651 H 168.777 3.14875 -6.1958 0
M  V30 1652 H 171.968 2.37525 -4.0336 0
M  V30 1653 H 172.141 3.06789 -5.70775 0
M  V30 1654 N 165.547 1.27147 0.931209 0
M  V30 1655 C 166.787 1.14511 1.69312 0
M  V30 1656 C 167.151 -0.304638 1.89568 0
M  V30 1657 O 168.352 -0.553343 2.63043 0
M  V30 1658 C 166.623 1.90349 3.02493 0
M  V30 1659 S 168.182 1.93884 3.93642 0
M  V30 1660 H 165 0.408858 0.581684 0
M  V30 1661 H 167.602 1.61006 1.10893 0
M  V30 1662 H 166.306 2.94877 2.85439 0
M  V30 1663 H 165.837 1.44333 3.65966 0
M  V30 1664 H 167.852 1.03273 4.85334 0
M  V30 1665 N 167.025 -1.13721 1.09112 0
M  V30 1666 C 168.436 -1.6648 0.845068 0
M  V30 1667 C 168.787 -1.85911 -0.62701 0
M  V30 1668 O 167.912 -1.57556 -1.48341 0
M  V30 1669 C 168.507 -3.02413 1.52748 0
M  V30 1670 C 167.066 -3.52176 1.32849 0
M  V30 1671 C 166.213 -2.27492 1.58564 0
M  V30 1672 H 169.164 -0.976872 1.25072 0
M  V30 1673 H 169.185 -3.68223 0.958752 0
M  V30 1674 H 168.697 -2.88238 2.59885 0
M  V30 1675 H 166.798 -3.7156 0.278137 0
M  V30 1676 H 166.911 -4.32499 2.0611 0
M  V30 1677 H 165.275 -2.33923 1.00758 0
M  V30 1678 H 166.058 -2.15886 2.66924 0
M  V30 1679 N 168.503 -0.877838 -1.30888 0
M  V30 1680 C 169.919 -0.570844 -1.49042 0
M  V30 1681 C 170.119 0.893159 -1.80624 0
M  V30 1682 O 169.175 1.67485 -1.88958 0
M  V30 1683 C 170.488 -1.47784 -2.61878 0
M  V30 1684 C 172.036 -1.48071 -2.75761 0
M  V30 1685 C 172.511 -2.37347 -3.91702 0
M  V30 1686 N 174.002 -2.35271 -3.99001 0
M  V30 1687 C 174.737 -3.01063 -4.88004 0
M  V30 1688 N 174.233 -3.76055 -5.81854 0
M  V30 1689 N 176.026 -2.90332 -4.81315 0
M  V30 1690 H 168.177 -1.82502 -1.0866 0
M  V30 1691 H 170.44 -0.780797 -0.537644 0
M  V30 1692 H 170.146 -2.51993 -2.45341 0
M  V30 1693 H 170.02 -1.18215 -3.58197 0
M  V30 1694 H 172.407 -0.446166 -2.91708 0
M  V30 1695 H 172.488 -1.81668 -1.80085 0
M  V30 1696 H 172.132 -3.40883 -3.76512 0
M  V30 1697 H 172.062 -2.01071 -4.86701 0
M  V30 1698 H 174.553 -1.80768 -3.3186 0
M  V30 1699 H 174.866 -4.23366 -6.46514 0
M  V30 1700 H 173.211 -3.80163 -5.81808 0
M  V30 1701 H 176.402 -2.31278 -4.06974 0
M  V30 1702 H 176.575 -3.41885 -5.50471 0
M  V30 1703 N 169.982 1.44106 -0.638065 0
M  V30 1704 C 171.222 2.03858 -0.148733 0
M  V30 1705 C 171.586 1.49153 1.20903 0
M  V30 1706 O 172.787 2.00452 1.79088 0
M  V30 1707 C 171.058 3.57117 -0.142314 0
M  V30 1708 S 172.617 4.37897 0.281385 0
M  V30 1709 H 169.435 0.708069 -0.0644912 0
M  V30 1710 H 172.037 1.7639 -0.843009 0
M  V30 1711 H 170.741 3.94436 -1.13349 0
M  V30 1712 H 170.272 3.89205 0.572988 0
M  V30 1713 H 172.287 4.72218 1.52395 0
M  V30 1714 N 171.46 0.379036 1.52974 0
M  V30 1715 C 172.708 -0.206014 2.01047 0
M  V30 1716 C 173.029 -1.48175 1.26765 0
M  V30 1717 O 172.299 -1.92085 0.384743 0
M  V30 1718 H 170.879 -0.0791184 0.742798 0
M  V30 1719 H 173.541 0.508366 1.88153 0
M  V30 1720 H 172.637 -0.423501 3.09213 0
M  V30 1721 N 172.938 -1.57226 0.108567 0
M  V30 1722 C 173.901 -2.13602 -0.831082 0
M  V30 1723 C 174.901 -1.06841 -1.20173 0
M  V30 1724 O 176.091 -1.32666 -1.12895 0
M  V30 1725 C 173.223 -2.66769 -2.12243 0
M  V30 1726 H 174.416 -2.97951 -0.341317 0
M  V30 1727 H 171.969 -1.55667 -0.14057 0
M  V30 1728 H 172.704 -1.85977 -2.65675 0
M  V30 1729 H 172.489 -3.44839 -1.86625 0
M  V30 1730 H 173.979 -3.10332 -2.79435 0
M  V30 1731 N 174.416 0.165178 -1.56732 0
M  V30 1732 C 175.366 1.20917 -1.93295 0
M  V30 1733 C 176.35 1.39488 -0.801985 0
M  V30 1734 O 177.542 1.41356 -1.06525 0
M  V30 1735 C 174.671 2.54718 -2.3016 0
M  V30 1736 C 173.757 2.39815 -3.49785 0
M  V30 1737 N 174.148 1.94637 -4.66851 0
M  V30 1738 C 172.446 2.70623 -3.54513 0
M  V30 1739 C 173.147 1.92344 -5.4898 0
M  V30 1740 N 172.123 2.34978 -4.9019 0
M  V30 1741 H 175.925 0.851675 -2.81289 0
M  V30 1742 H 173.439 0.373399 -1.58049 0
M  V30 1743 H 175.436 3.30165 -2.54552 0
M  V30 1744 H 174.096 2.91265 -1.43508 0
M  V30 1745 H 175.107 1.6488 -4.90953 0
M  V30 1746 H 171.784 3.11167 -2.78354 0
M  V30 1747 H 173.174 1.5906 -6.52801 0
M  V30 1748 N 175.894 1.51508 0.433938 0
M  V30 1749 C 177.124 1.67914 1.20369 0
M  V30 1750 C 177.532 0.377461 1.85397 0
M  V30 1751 O 176.875 -0.654255 1.71654 0
M  V30 1752 C 176.937 2.74045 2.32679 0
M  V30 1753 C 176.601 4.16543 1.87991 0
M  V30 1754 C 177.598 5.01211 1.38145 0
M  V30 1755 C 175.283 4.6266 1.95579 0
M  V30 1756 C 177.277 6.30056 0.964774 0
M  V30 1757 C 174.964 5.91501 1.53523 0
M  V30 1758 C 175.962 6.75027 1.04055 0
M  V30 1759 O 175.65 8.01459 0.625964 0
M  V30 1760 H 175.382 0.566578 0.368735 0
M  V30 1761 H 177.936 1.98709 0.51999 0
M  V30 1762 H 176.166 2.38572 3.04336 0
M  V30 1763 H 177.855 2.79295 2.94532 0
M  V30 1764 H 178.621 4.66783 1.31675 0
M  V30 1765 H 174.5 3.97767 2.33029 0
M  V30 1766 H 178.044 6.95202 0.57796 0
M  V30 1767 H 173.941 6.25442 1.59665 0
M  V30 1768 H 174.709 8.15043 0.751509 0
M  V30 1769 N 177.372 -0.689602 1.41712 0
M  V30 1770 C 178.319 -1.80345 1.44029 0
M  V30 1771 C 179.289 -1.63478 0.293948 0
M  V30 1772 O 180.474 -1.84244 0.495869 0
M  V30 1773 C 177.614 -3.18272 1.33405 0
M  V30 1774 C 176.727 -3.46529 2.57956 0
M  V30 1775 C 175.862 -4.74103 2.39582 0
M  V30 1776 C 174.901 -4.95347 3.5958 0
M  V30 1777 N 174.038 -6.14151 3.40239 0
M  V30 1778 H 178.878 -1.77698 2.39222 0
M  V30 1779 H 176.415 -0.867688 1.18784 0
M  V30 1780 H 178.373 -3.97956 1.25246 0
M  V30 1781 H 177.003 -3.2008 0.418164 0
M  V30 1782 H 176.055 -2.61207 2.76542 0
M  V30 1783 H 177.367 -3.58126 3.47199 0
M  V30 1784 H 176.521 -5.61853 2.28924 0
M  V30 1785 H 175.26 -4.64763 1.47805 0
M  V30 1786 H 174.265 -4.06044 3.70686 0
M  V30 1787 H 175.49 -5.06542 4.52318 0
M  V30 1788 H 173.436 -6.06013 2.51167 0
M  V30 1789 H 173.353 -6.26543 4.23061 0
M  V30 1790 H 174.621 -7.04619 3.33365 0
M  V30 1791 N 178.85 -1.27639 -0.924453 0
M  V30 1792 C 179.78 -1.13166 -2.04244 0
M  V30 1793 C 180.761 -0.032256 -1.70069 0
M  V30 1794 O 181.946 -0.207328 -1.9309 0
M  V30 1795 C 179.076 -0.781496 -3.38393 0
M  V30 1796 C 178.03 -1.83449 -3.86692 0
M  V30 1797 C 177.356 -1.33822 -5.17683 0
M  V30 1798 C 178.656 -3.23917 -4.09726 0
M  V30 1799 H 180.35 -2.06689 -2.1661 0
M  V30 1800 H 177.896 -0.995136 -1.04082 0
M  V30 1801 H 179.849 -0.667057 -4.16087 0
M  V30 1802 H 178.573 0.189439 -3.2605 0
M  V30 1803 H 177.232 -1.93789 -3.11193 0
M  V30 1804 H 176.88 -0.35665 -5.01734 0
M  V30 1805 H 176.58 -2.04224 -5.50968 0
M  V30 1806 H 178.104 -1.23679 -5.97943 0
M  V30 1807 H 179.518 -3.16559 -4.77978 0
M  V30 1808 H 177.915 -3.92059 -4.54324 0
M  V30 1809 H 178.985 -3.68729 -3.14908 0
M  V30 1810 N 180.328 1.1314 -1.09713 0
M  V30 1811 C 181.574 1.84757 -0.836224 0
M  V30 1812 C 181.907 1.8347 0.636598 0
M  V30 1813 O 181.182 1.27491 1.46889 0
M  V30 1814 C 181.465 3.32782 -1.37578 0
M  V30 1815 C 181.318 3.42567 -2.91493 0
M  V30 1816 C 182.637 4.28307 -1.01198 0
M  V30 1817 H 179.756 0.67082 -0.305236 0
M  V30 1818 H 182.398 1.3278 -1.35903 0
M  V30 1819 H 180.548 3.77177 -0.931097 0
M  V30 1820 H 182.22 3.06862 -3.44432 0
M  V30 1821 H 180.463 2.83349 -3.28475 0
M  V30 1822 H 181.134 4.46674 -3.24324 0
M  V30 1823 H 183.61 3.91999 -1.39556 0
M  V30 1824 H 182.486 5.30307 -1.41653 0
M  V30 1825 H 182.747 4.42029 0.0794833 0
M  V30 1826 N 181.806 0.884767 1.30421 0
M  V30 1827 C 183.217 0.553656 1.78302 0
M  V30 1828 C 183.568 -0.930153 1.7275 0
M  V30 1829 O 182.693 -1.72681 1.30423 0
M  V30 1830 C 183.288 0.998234 3.2376 0
M  V30 1831 C 181.847 0.71854 3.69478 0
M  V30 1832 C 180.994 1.18132 2.50879 0
M  V30 1833 H 183.945 1.06901 1.17294 0
M  V30 1834 H 183.966 0.327118 3.79091 0
M  V30 1835 H 183.478 2.0782 3.27769 0
M  V30 1836 H 181.579 -0.349444 3.70958 0
M  V30 1837 H 181.692 1.30595 4.60958 0
M  V30 1838 H 180.056 0.600669 2.47516 0
M  V30 1839 H 180.839 2.26902 2.57624 0
M  V30 1840 N 183.284 -1.43765 0.645699 0
M  V30 1841 C 184.216 -2.29027 -0.0890605 0
M  V30 1842 C 185.229 -1.42093 -0.794563 0
M  V30 1843 O 186.418 -1.66104 -0.653575 0
M  V30 1844 C 183.518 -3.18831 -1.14891 0
M  V30 1845 C 182.691 -4.34261 -0.523043 0
M  V30 1846 C 181.75 -5.04994 -1.47878 0
M  V30 1847 O 180.776 -5.6052 -0.990277 0
M  V30 1848 N 181.978 -5.07795 -2.81291 0
M  V30 1849 H 184.743 -2.92727 0.64272 0
M  V30 1850 H 182.304 -1.54373 0.487924 0
M  V30 1851 H 184.296 -3.63015 -1.78892 0
M  V30 1852 H 182.866 -2.56782 -1.78275 0
M  V30 1853 H 182.086 -3.93088 0.295896 0
M  V30 1854 H 183.374 -5.08728 -0.0858147 0
M  V30 1855 H 182.772 -4.64042 -3.23546 0
M  V30 1856 H 181.329 -5.55721 -3.40614 0
M  V30 1857 N 184.763 -0.387143 -1.52771 0
M  V30 1858 C 185.695 0.484089 -2.2403 0
M  V30 1859 C 186.708 1.02849 -1.26198 0
M  V30 1860 O 187.897 0.931186 -1.52286 0
M  V30 1861 C 184.997 1.68337 -2.94136 0
M  V30 1862 C 184.17 1.26672 -4.18656 0
M  V30 1863 C 183.229 2.33045 -4.7178 0
M  V30 1864 O 182.255 1.94541 -5.34923 0
M  V30 1865 N 183.457 3.64929 -4.5145 0
M  V30 1866 H 186.222 -0.126404 -2.99433 0
M  V30 1867 H 183.783 -0.213392 -1.60488 0
M  V30 1868 H 185.775 2.39019 -3.26577 0
M  V30 1869 H 184.345 2.20025 -2.22053 0
M  V30 1870 H 183.565 0.388878 -3.92277 0
M  V30 1871 H 184.853 0.964964 -4.99566 0
M  V30 1872 H 184.251 3.98974 -4.01044 0
M  V30 1873 H 182.808 4.31651 -4.88386 0
M  V30 1874 N 186.241 1.57166 -0.116904 0
M  V30 1875 C 187.171 2.18222 0.830759 0
M  V30 1876 C 188.152 1.12167 1.27877 0
M  V30 1877 O 189.337 1.40394 1.34176 0
M  V30 1878 C 186.467 2.77996 2.08172 0
M  V30 1879 C 185.421 3.89614 1.77157 0
M  V30 1880 C 184.747 4.36187 3.09265 0
M  V30 1881 C 186.047 5.1181 1.04151 0
M  V30 1882 H 187.741 2.97664 0.321992 0
M  V30 1883 H 185.287 1.4318 0.153434 0
M  V30 1884 H 187.24 3.19366 2.74924 0
M  V30 1885 H 185.964 1.9584 2.6137 0
M  V30 1886 H 184.623 3.48816 1.12796 0
M  V30 1887 H 184.271 3.50893 3.60393 0
M  V30 1888 H 183.971 5.11455 2.89288 0
M  V30 1889 H 185.495 4.80207 3.77139 0
M  V30 1890 H 186.909 5.50214 1.61052 0
M  V30 1891 H 185.306 5.92648 0.942762 0
M  V30 1892 H 186.376 4.84892 0.0279022 0
M  V30 1893 N 187.719 -0.156864 1.56817 0
M  V30 1894 C 188.682 -1.17781 1.96622 0
M  V30 1895 C 189.682 -1.36401 0.851555 0
M  V30 1896 O 190.872 -1.33561 1.11836 0
M  V30 1897 C 188.004 -2.54008 2.27361 0
M  V30 1898 H 189.197 -0.836564 2.87996 0
M  V30 1899 H 186.75 -0.39985 1.51099 0
M  V30 1900 H 187.485 -2.9312 1.38748 0
M  V30 1901 H 187.27 -2.41856 3.08623 0
M  V30 1902 H 188.76 -3.27558 2.59029 0
M  V30 1903 N 189.197 -1.51736 -0.425897 0
M  V30 1904 C 190.147 -1.70258 -1.51645 0
M  V30 1905 C 191.131 -0.556488 -1.5097 0
M  V30 1906 O 192.323 -0.812879 -1.5723 0
M  V30 1907 C 189.452 -1.84143 -2.89735 0
M  V30 1908 C 188.538 -3.04572 -2.95122 0
M  V30 1909 N 188.929 -4.2756 -2.70233 0
M  V30 1910 C 187.227 -3.04061 -3.26286 0
M  V30 1911 C 187.928 -5.08908 -2.81757 0
M  V30 1912 N 186.904 -4.43797 -3.13919 0
M  V30 1913 H 190.706 -2.63004 -1.31172 0
M  V30 1914 H 188.22 -1.4954 -0.633375 0
M  V30 1915 H 190.217 -1.95525 -3.68206 0
M  V30 1916 H 188.877 -0.925857 -3.1122 0
M  V30 1917 H 189.888 -4.56315 -2.44943 0
M  V30 1918 H 186.565 -2.22179 -3.53473 0
M  V30 1919 H 187.955 -6.16843 -2.66372 0
M  V30 1920 O 190.714 0.571711 -1.51042 0
M  V30 1921 H 191.405 1.22676 -1.49901 0
M  V30 END ATOM
M  V30 BEGIN BOND
M  V30 END BOND
M  V30 END CTAB
M  END
$$$$
