drugbank_target|Q10588 ADP-ribosyl cyclase/cyclic ADP-ribose hydrolase 2 (DB02483; DB02701; DB02930; DB03227; DB03732)
 OpenBabel12092119503D

  0  0  0     0  0            999 V3000
M  V30 BEGIN CTAB
M  V30 COUNTS 5008 5063 0 0 0
M  V30 BEGIN ATOM
M  V30 1 H -0.908 1.98254 -0.117106 0
M  V30 2 N 0 1.576 0 0
M  V30 3 C 0.933 2.03868 1.02534 0
M  V30 4 C 1.911 0.928543 1.3348 0
M  V30 5 O 3.095 1.19667 1.45644 0
M  V30 6 C 0.222 2.43627 2.35294 0
M  V30 7 C -0.732 3.65373 2.2001 0
M  V30 8 S 0.101 5.13292 1.52614 0
M  V30 9 C 1.257 5.56322 2.86805 0
M  V30 10 H 1.49 2.90518 0.631377 0
M  V30 11 H -0.977 1.52953 0.210867 0
M  V30 12 H 0.981 2.67203 3.11629 0
M  V30 13 H -0.358 1.57376 2.7183 0
M  V30 14 H -1.165 3.90944 3.18086 0
M  V30 15 H -1.563 3.418 1.51819 0
M  V30 16 H 0.729 5.58782 3.83104 0
M  V30 17 H 1.672 6.56266 2.65933 0
M  V30 18 H 2.08 4.83886 2.90714 0
M  V30 19 N 1.4781 -0.272755 1.55222 0
M  V30 20 C 2.4411 -1.32041 1.87344 0
M  V30 21 C 3.4411 -1.42342 0.74803 0
M  V30 22 O 4.6311 -1.41488 1.0162 0
M  V30 23 C 1.7631 -2.70173 2.07893 0
M  V30 24 H 2.9561 -1.04789 2.80997 0
M  V30 25 H 0.5091 -0.51083 1.47717 0
M  V30 26 H 1.2441 -3.02605 1.16622 0
M  V30 27 H 1.0291 -2.64082 2.89833 0
M  V30 28 H 2.5191 -3.45869 2.34017 0
M  V30 29 N 2.9562 -1.48159 -0.537278 0
M  V30 30 C 3.9192 -1.61665 -1.62472 0
M  V30 31 C 4.9192 -0.490395 -1.5314 0
M  V30 32 O 6.1092 -0.755998 -1.5694 0
M  V30 33 C 3.2412 -1.57997 -3.02076 0
M  V30 34 H 4.4342 -2.58621 -1.51839 0
M  V30 35 H 1.9872 -1.36647 -0.758771 0
M  V30 36 H 2.7222 -0.624913 -3.18222 0
M  V30 37 H 2.5072 -2.39755 -3.10258 0
M  V30 38 H 3.9972 -1.70627 -3.81151 0
M  V30 39 N 4.4343 0.785586 -1.36625 0
M  V30 40 C 5.3663 1.90711 -1.2713 0
M  V30 41 C 6.3793 1.61688 -0.189986 0
M  V30 42 O 7.5683 1.72864 -0.445014 0
M  V30 43 C 4.6683 3.25611 -0.939713 0
M  V30 44 C 3.8413 3.82385 -2.12369 0
M  V30 45 C 2.9003 4.95732 -1.76456 0
M  V30 46 O 1.9263 5.12047 -2.48589 0
M  V30 47 N 3.1283 5.76258 -0.700492 0
M  V30 48 H 5.8933 1.99376 -2.23762 0
M  V30 49 H 3.4543 0.964041 -1.30069 0
M  V30 50 H 5.4463 3.98937 -0.680554 0
M  V30 51 H 4.0163 3.12538 -0.0624074 0
M  V30 52 H 3.2363 3.01001 -2.54543 0
M  V30 53 H 4.5243 4.17047 -2.9146 0
M  V30 54 H 3.9223 5.65609 -0.101624 0
M  V30 55 H 2.4793 6.4987 -0.501165 0
M  V30 56 N 5.9124 1.20967 1.01018 0
M  V30 57 C 7.1604 1.02172 1.74371 0
M  V30 58 C 7.4814 -0.446414 1.89821 0
M  V30 59 O 6.7514 -1.32234 1.44537 0
M  V30 60 H 5.3314 0.375066 0.646014 0
M  V30 61 H 7.9934 1.52187 1.21758 0
M  V30 62 H 7.0894 1.48538 2.74487 0
M  V30 63 N 7.3905 -1.2043 1.01659 0
M  V30 64 C 8.6305 -1.91507 0.714456 0
M  V30 65 C 8.9945 -1.77073 -0.742237 0
M  V30 66 O 10.1955 -2.42631 -1.15688 0
M  V30 67 C 8.4665 -3.38795 1.13809 0
M  V30 68 S 10.0255 -4.28216 0.957925 0
M  V30 69 H 6.8435 -0.661571 0.260471 0
M  V30 70 H 9.4455 -1.45671 1.30384 0
M  V30 71 H 8.1495 -3.46822 2.19415 0
M  V30 72 H 7.6805 -3.89656 0.541474 0
M  V30 73 H 9.6955 -4.96007 -0.138531 0
M  V30 74 N 8.8686 -0.792821 -1.36206 0
M  V30 75 C 9.8316 -0.199459 -2.2833 0
M  V30 76 C 10.8316 0.605189 -1.48977 0
M  V30 77 O 12.0216 0.425685 -1.68919 0
M  V30 78 C 9.1536 0.723523 -3.33134 0
M  V30 79 H 10.3466 -1.01181 -2.82316 0
M  V30 80 H 7.8996 -0.562485 -1.45828 0
M  V30 81 H 8.6346 1.56008 -2.84309 0
M  V30 82 H 8.4196 0.148436 -3.91819 0
M  V30 83 H 9.9096 1.13344 -4.01924 0
M  V30 84 N 10.3467 1.47872 -0.545128 0
M  V30 85 C 11.3097 2.28337 0.198717 0
M  V30 86 C 12.3097 1.36255 0.853888 0
M  V30 87 O 13.4997 1.59003 0.711606 0
M  V30 88 C 10.6317 3.15585 1.28915 0
M  V30 89 H 11.8247 2.95567 -0.507941 0
M  V30 90 H 9.3777 1.53362 -0.301616 0
M  V30 91 H 10.1127 2.53019 2.02859 0
M  V30 92 H 9.8977 3.83337 0.824309 0
M  V30 93 H 11.3877 3.76243 1.81194 0
M  V30 94 N 11.8248 0.280983 1.55075 0
M  V30 95 C 13.0498 -0.340154 2.04592 0
M  V30 96 C 13.4748 -1.48246 1.15779 0
M  V30 97 O 12.8328 -1.80614 0.15761 0
M  V30 98 C 12.8808 -0.793104 3.5177 0
M  V30 99 O 11.9848 -1.89981 3.66034 0
M  V30 100 H 11.3258 -0.0694289 0.66036 0
M  V30 101 H 13.8558 0.416993 2.00306 0
M  V30 102 H 13.8658 -1.08729 3.93245 0
M  V30 103 H 12.5408 0.0426163 4.15878 0
M  V30 104 H 11.1178 -1.60771 3.36463 0
M  V30 105 N 13.3029 -1.57598 0.00835791 0
M  V30 106 C 14.7189 -1.55764 -0.347822 0
M  V30 107 C 14.9189 -1.01186 -1.74252 0
M  V30 108 O 13.9749 -0.649371 -2.44007 0
M  V30 109 C 15.2879 -2.99927 -0.215407 0
M  V30 110 C 16.8359 -3.11656 -0.289725 0
M  V30 111 C 17.3109 -4.57621 -0.18634 0
M  V30 112 N 18.8019 -4.62557 -0.243978 0
M  V30 113 C 19.5369 -5.73094 -0.18745 0
M  V30 114 N 19.0329 -6.92753 -0.0810331 0
M  V30 115 N 20.8259 -5.61588 -0.239925 0
M  V30 116 H 12.9769 -1.91411 0.92062 0
M  V30 117 H 15.2399 -0.879562 0.353659 0
M  V30 118 H 14.9459 -3.43729 0.744512 0
M  V30 119 H 14.8199 -3.63865 -0.994097 0
M  V30 120 H 17.2069 -2.67779 -1.24009 0
M  V30 121 H 17.2879 -2.5048 0.51898 0
M  V30 122 H 16.9319 -5.02174 0.760519 0
M  V30 123 H 16.8619 -5.16752 -1.01364 0
M  V30 124 H 19.3529 -3.76481 -0.327217 0
M  V30 125 H 19.6659 -7.72787 -0.0440241 0
M  V30 126 H 18.0109 -6.94984 -0.0465419 0
M  V30 127 H 21.2019 -4.66996 -0.321317 0
M  V30 128 H 21.3749 -6.47714 -0.192407 0
M  V30 129 N 14.781 0.264519 -1.55364 0
M  V30 130 C 15.711 1.33121 -1.91836 0
M  V30 131 C 16.692 1.51101 -0.781192 0
M  V30 132 O 17.877 1.64003 -1.04003 0
M  V30 133 C 15.007 2.68921 -2.19769 0
M  V30 134 C 13.961 2.65661 -3.35571 0
M  V30 135 C 13.287 4.05093 -3.49004 0
M  V30 136 C 14.587 2.24187 -4.71739 0
M  V30 137 H 16.281 1.02844 -2.81182 0
M  V30 138 H 13.827 0.493286 -1.35287 0
M  V30 139 H 15.78 3.43663 -2.43872 0
M  V30 140 H 14.504 3.00799 -1.27231 0
M  V30 141 H 13.163 1.93377 -3.1145 0
M  V30 142 H 12.811 4.34206 -2.53917 0
M  V30 143 H 12.511 4.03804 -4.26868 0
M  V30 144 H 14.035 4.81561 -3.75408 0
M  V30 145 H 15.449 2.88654 -4.9533 0
M  V30 146 H 13.846 2.34044 -5.52579 0
M  V30 147 H 14.916 1.19327 -4.69988 0
M  V30 148 N 16.2591 1.48442 0.529413 0
M  V30 149 C 17.1891 1.65902 1.64313 0
M  V30 150 C 18.1701 0.507897 1.6234 0
M  V30 151 O 19.3551 0.740503 1.79528 0
M  V30 152 C 16.4851 1.69911 3.02898 0
M  V30 153 C 15.4391 2.8453 3.19729 0
M  V30 154 C 14.7651 2.73629 4.59381 0
M  V30 155 C 16.0651 4.25821 3.02447 0
M  V30 156 H 17.7591 2.5914 1.49955 0
M  V30 157 H 15.3051 1.24709 0.719982 0
M  V30 158 H 17.2581 1.80715 3.80684 0
M  V30 159 H 15.9821 0.732524 3.18279 0
M  V30 160 H 14.6411 2.73283 2.44361 0
M  V30 161 H 14.2891 1.74938 4.71599 0
M  V30 162 H 13.9891 3.50541 4.71588 0
M  V30 163 H 15.5131 2.86401 5.39265 0
M  V30 164 H 16.9271 4.37898 3.70024 0
M  V30 165 H 15.3241 5.03735 3.26146 0
M  V30 166 H 16.3941 4.42244 1.98867 0
M  V30 167 N 17.7372 -0.778329 1.37039 0
M  V30 168 C 18.6692 -1.90034 1.2814 0
M  V30 169 C 19.6822 -1.61585 0.198558 0
M  V30 170 O 20.8712 -1.72625 0.454175 0
M  V30 171 C 17.9712 -3.25108 0.956968 0
M  V30 172 C 17.1442 -3.81253 2.14394 0
M  V30 173 C 16.2032 -4.94789 1.79082 0
M  V30 174 O 15.2292 -5.10721 2.51301 0
M  V30 175 N 16.4312 -5.75878 0.731043 0
M  V30 176 H 19.1962 -1.98186 2.24816 0
M  V30 177 H 16.7572 -0.957129 1.30578 0
M  V30 178 H 18.7492 -3.9857 0.701701 0
M  V30 179 H 17.3192 -3.125 0.0789812 0
M  V30 180 H 16.5392 -2.99647 2.56135 0
M  V30 181 H 17.8272 -4.15495 2.93668 0
M  V30 182 H 17.2252 -5.65547 0.131618 0
M  V30 183 H 15.7822 -6.49596 0.535622 0
M  V30 184 N 19.2153 -1.21501 -1.00376 0
M  V30 185 C 20.1453 -0.999478 -2.11028 0
M  V30 186 C 21.1263 0.0759671 -1.6993 0
M  V30 187 O 22.3113 -0.0841106 -1.94018 0
M  V30 188 C 19.4413 -0.564709 -3.42678 0
M  V30 189 C 18.3953 -1.58486 -3.97576 0
M  V30 190 C 17.7213 -1.00628 -5.25146 0
M  V30 191 C 19.0213 -2.97204 -4.29496 0
M  V30 192 H 20.7153 -1.92495 -2.29317 0
M  V30 193 H 18.2613 -0.92693 -1.102 0
M  V30 194 H 20.2143 -0.401091 -4.19487 0
M  V30 195 H 18.9383 0.396411 -3.24185 0
M  V30 196 H 17.5973 -1.73606 -3.22888 0
M  V30 197 H 17.2453 -0.0368439 -5.02987 0
M  V30 198 H 16.9453 -1.68771 -5.62841 0
M  V30 199 H 18.4693 -0.854015 -6.04598 0
M  V30 200 H 19.8833 -2.8552 -4.97143 0
M  V30 201 H 18.2803 -3.62372 -4.78338 0
M  V30 202 H 19.3503 -3.47956 -3.3772 0
M  V30 203 N 20.6934 1.19889 -1.02296 0
M  V30 204 C 21.6234 2.25141 -0.619174 0
M  V30 205 C 22.6044 1.66051 0.368915 0
M  V30 206 O 23.7894 1.92546 0.252941 0
M  V30 207 C 20.9194 3.4728 0.0368783 0
M  V30 208 C 19.8734 4.19005 -0.872865 0
M  V30 209 C 19.1994 5.34637 -0.0822402 0
M  V30 210 C 20.4994 4.74452 -2.18387 0
M  V30 211 H 22.1934 2.59171 -1.49903 0
M  V30 212 H 19.7394 1.24579 -0.722222 0
M  V30 213 H 21.6924 4.20098 0.330958 0
M  V30 214 H 20.4164 3.12433 0.95149 0
M  V30 215 H 19.0754 3.48061 -1.15105 0
M  V30 216 H 18.7234 4.96034 0.83422 0
M  V30 217 H 18.4234 5.83557 -0.688149 0
M  V30 218 H 19.9474 6.10255 0.205238 0
M  V30 219 H 21.3614 5.39055 -1.95172 0
M  V30 220 H 19.7584 5.33834 -2.74119 0
M  V30 221 H 20.8284 3.92844 -2.84257 0
M  V30 222 N 22.1715 0.800033 1.35784 0
M  V30 223 C 23.1015 0.220184 2.3246 0
M  V30 224 C 24.0825 -0.65073 1.57161 0
M  V30 225 O 25.2675 -0.582359 1.85263 0
M  V30 226 C 22.3975 -0.637353 3.41402 0
M  V30 227 C 21.3515 0.134531 4.27789 0
M  V30 228 C 20.6775 -0.844285 5.27992 0
M  V30 229 C 21.9775 1.32979 5.05088 0
M  V30 230 H 23.6715 1.02787 2.81203 0
M  V30 231 H 21.2175 0.495717 1.35199 0
M  V30 232 H 23.1705 -1.05302 4.08031 0
M  V30 233 H 21.8945 -1.47785 2.91251 0
M  V30 234 H 20.5535 0.531296 3.6273 0
M  V30 235 H 20.2015 -1.68011 4.74111 0
M  V30 236 H 19.9015 -0.332184 5.8666 0
M  V30 237 H 21.4255 -1.2583 5.97494 0
M  V30 238 H 22.8395 0.98934 5.64699 0
M  V30 239 H 21.2365 1.77593 5.7322 0
M  V30 240 H 22.3065 2.11978 4.36111 0
M  V30 241 N 23.6496 -1.47581 0.552962 0
M  V30 242 C 24.5816 -2.27997 -0.234533 0
M  V30 243 C 25.5946 -1.36753 -0.883321 0
M  V30 244 O 26.7836 -1.61612 -0.757889 0
M  V30 245 C 23.8836 -3.10879 -1.34935 0
M  V30 246 C 23.0566 -4.30056 -0.798158 0
M  V30 247 C 22.1156 -4.94567 -1.79694 0
M  V30 248 O 21.1416 -5.53087 -1.34474 0
M  V30 249 N 22.3436 -4.88878 -3.13015 0
M  V30 250 H 25.1086 -2.96222 0.455255 0
M  V30 251 H 22.6696 -1.57163 0.388761 0
M  V30 252 H 24.6616 -3.50903 -2.01616 0
M  V30 253 H 23.2316 -2.44924 -1.94244 0
M  V30 254 H 22.4516 -3.94174 0.0453079 0
M  V30 255 H 23.7396 -5.07152 -0.409173 0
M  V30 256 H 23.1376 -4.42526 -3.52402 0
M  V30 257 H 21.6946 -5.32934 -3.75266 0
M  V30 258 N 25.1277 -0.289203 -1.54924 0
M  V30 259 C 26.0577 0.58549 -2.2604 0
M  V30 260 C 27.0387 1.14753 -1.25562 0
M  V30 261 O 28.2237 1.17906 -1.54311 0
M  V30 262 C 25.3537 1.76305 -2.99222 0
M  V30 263 C 24.3077 1.33191 -4.06748 0
M  V30 264 C 23.6337 2.5937 -4.6758 0
M  V30 265 C 24.9337 0.471775 -5.20165 0
M  V30 266 H 26.6277 -0.00763532 -2.99399 0
M  V30 267 H 24.1737 -0.00511229 -1.43999 0
M  V30 268 H 26.1267 2.38097 -3.47689 0
M  V30 269 H 24.8507 2.38223 -2.23422 0
M  V30 270 H 23.5097 0.737121 -3.59113 0
M  V30 271 H 23.1577 3.19576 -3.88433 0
M  V30 272 H 22.8577 2.31228 -5.40192 0
M  V30 273 H 24.3817 3.21985 -5.18804 0
M  V30 274 H 25.7957 0.995056 -5.64599 0
M  V30 275 H 24.1927 0.284639 -5.99425 0
M  V30 276 H 25.2627 -0.506041 -4.82252 0
M  V30 277 N 26.6058 1.57591 -0.0167156 0
M  V30 278 C 27.5358 2.12496 0.967858 0
M  V30 279 C 28.5168 1.03807 1.34752 0
M  V30 280 O 29.7018 1.31577 1.42833 0
M  V30 281 C 26.8318 2.64194 2.25431 0
M  V30 282 C 25.7858 3.77559 2.01576 0
M  V30 283 C 25.1118 4.15636 3.36379 0
M  V30 284 C 26.4118 5.04151 1.36489 0
M  V30 285 H 28.1058 2.95013 0.510643 0
M  V30 286 H 25.6518 1.41915 0.244181 0
M  V30 287 H 27.6048 3.01236 2.94678 0
M  V30 288 H 26.3288 1.78821 2.73296 0
M  V30 289 H 24.9878 3.40937 1.34751 0
M  V30 290 H 24.6358 3.27263 3.81979 0
M  V30 291 H 24.3358 4.92022 3.21229 0
M  V30 292 H 25.8598 4.5525 4.06915 0
M  V30 293 H 27.2738 5.38857 1.95718 0
M  V30 294 H 25.6708 5.85453 1.31776 0
M  V30 295 H 26.7408 4.83733 0.336219 0
M  V30 296 N 28.0839 -0.256276 1.55502 0
M  V30 297 C 29.0139 -1.32102 1.92539 0
M  V30 298 C 29.9949 -1.50684 0.789194 0
M  V30 299 O 31.1799 -1.63449 1.04872 0
M  V30 300 C 28.3099 -2.67752 2.21192 0
M  V30 301 C 27.2639 -2.63878 3.36975 0
M  V30 302 C 26.5899 -4.03236 3.51147 0
M  V30 303 C 27.8899 -2.21682 4.72921 0
M  V30 304 H 29.5839 -1.01351 2.81724 0
M  V30 305 H 27.1299 -0.486105 1.35547 0
M  V30 306 H 29.0829 -3.42365 2.45691 0
M  V30 307 H 27.8069 -3.0012 1.28824 0
M  V30 308 H 26.4659 -1.91722 3.12471 0
M  V30 309 H 26.1139 -4.32854 2.56216 0
M  V30 310 H 25.8139 -4.01535 4.29003 0
M  V30 311 H 27.3379 -4.79563 3.77957 0
M  V30 312 H 28.7519 -2.86023 4.96854 0
M  V30 313 H 27.1489 -2.3111 5.53812 0
M  V30 314 H 28.2189 -1.16833 4.70615 0
M  V30 315 N 29.562 -1.4872 -0.521534 0
M  V30 316 C 30.492 -1.66771 -1.63431 0
M  V30 317 C 31.473 -0.516499 -1.62069 0
M  V30 318 O 32.658 -0.750013 -1.79132 0
M  V30 319 C 29.788 -1.71515 -3.01993 0
M  V30 320 C 28.742 -2.86222 -3.18216 0
M  V30 321 C 28.068 -2.76061 -4.57924 0
M  V30 322 C 29.368 -4.27419 -3.00184 0
M  V30 323 H 31.062 -2.59932 -1.48579 0
M  V30 324 H 28.608 -1.25089 -0.713358 0
M  V30 325 H 30.561 -1.82731 -3.7972 0
M  V30 326 H 29.285 -0.749393 -3.17886 0
M  V30 327 H 27.944 -2.74575 -2.42908 0
M  V30 328 H 27.592 -1.77437 -4.70665 0
M  V30 329 H 27.292 -3.53037 -4.69722 0
M  V30 330 H 28.816 -2.89256 -5.37739 0
M  V30 331 H 30.23 -4.39855 -3.67697 0
M  V30 332 H 28.627 -5.05458 -3.2347 0
M  V30 333 H 29.697 -4.43293 -1.96518 0
M  V30 334 N 31.0401 0.771051 -1.3745 0
M  V30 335 C 31.9701 1.89827 -1.3597 0
M  V30 336 C 32.9511 1.68562 -0.228216 0
M  V30 337 O 34.1361 1.8941 -0.428675 0
M  V30 338 C 31.2661 3.2712 -1.16662 0
M  V30 339 C 30.2201 3.6295 -2.2683 0
M  V30 340 C 29.5461 4.98791 -1.92644 0
M  V30 341 C 30.8461 3.69627 -3.69017 0
M  V30 342 H 32.5401 1.91323 -2.30295 0
M  V30 343 H 30.0861 0.919082 -1.10855 0
M  V30 344 H 32.0391 4.05615 -1.14256 0
M  V30 345 H 30.7631 3.26059 -0.187926 0
M  V30 346 H 29.4221 2.86763 -2.28392 0
M  V30 347 H 29.0701 4.94271 -0.933021 0
M  V30 348 H 28.7701 5.23733 -2.66416 0
M  V30 349 H 30.2941 5.79685 -1.91826 0
M  V30 350 H 31.7081 4.38273 -3.69581 0
M  V30 351 H 30.1051 4.06067 -4.41848 0
M  V30 352 H 31.1751 2.70273 -4.02592 0
M  V30 353 N 32.5182 1.22032 0.997298 0
M  V30 354 C 33.4482 1.01065 2.10495 0
M  V30 355 C 34.4292 -0.0669542 1.69968 0
M  V30 356 O 35.6142 0.0943987 1.9397 0
M  V30 357 C 32.7442 0.582874 3.42374 0
M  V30 358 C 31.6982 1.60592 3.96729 0
M  V30 359 C 31.0242 1.03412 5.24605 0
M  V30 360 C 32.3242 2.99478 4.27914 0
M  V30 361 H 34.0182 1.93708 2.28292 0
M  V30 362 H 31.5642 0.932761 1.09707 0
M  V30 363 H 33.5172 0.423332 4.19268 0
M  V30 364 H 32.2412 -0.379213 3.24391 0
M  V30 365 H 30.9002 1.75316 3.21963 0
M  V30 366 H 30.5482 0.063518 5.0296 0
M  V30 367 H 30.2482 1.71754 5.61938 0
M  V30 368 H 31.7722 0.886066 6.04137 0
M  V30 369 H 33.1862 2.88153 4.95622 0
M  V30 370 H 31.5832 3.64903 4.76409 0
M  V30 371 H 32.6532 3.49742 3.3587 0
M  V30 372 N 33.9963 -1.19345 1.0293 0
M  V30 373 C 34.9263 -2.2481 0.631105 0
M  V30 374 C 35.9073 -1.66245 -0.360104 0
M  V30 375 O 37.0923 -1.92677 -0.242726 0
M  V30 376 C 34.2223 -3.47295 -0.0184607 0
M  V30 377 C 33.1763 -4.18536 0.895073 0
M  V30 378 C 32.5023 -5.34586 0.110592 0
M  V30 379 C 33.8023 -4.73287 2.209 0
M  V30 380 H 35.4963 -2.58372 1.51275 0
M  V30 381 H 33.0423 -1.24194 0.728818 0
M  V30 382 H 34.9953 -4.20268 -0.308675 0
M  V30 383 H 33.7193 -3.12933 -0.934907 0
M  V30 384 H 32.3783 -3.47446 1.16949 0
M  V30 385 H 32.0263 -4.96469 -0.807902 0
M  V30 386 H 31.7263 -5.83183 0.719087 0
M  V30 387 H 33.2503 -6.10355 -0.172871 0
M  V30 388 H 34.6643 -5.38013 1.98028 0
M  V30 389 H 33.0613 -5.32373 2.76946 0
M  V30 390 H 34.1313 -3.91331 2.86336 0
M  V30 391 N 35.4744 -0.807222 -1.35358 0
M  V30 392 C 36.4044 -0.232509 -2.3234 0
M  V30 393 C 37.3854 0.642386 -1.57504 0
M  V30 394 O 38.5704 0.572526 -1.85569 0
M  V30 395 C 35.7004 0.619238 -3.41735 0
M  V30 396 C 34.6544 -0.157215 -4.27711 0
M  V30 397 C 33.9804 0.816273 -5.28433 0
M  V30 398 C 35.2804 -1.35656 -5.04376 0
M  V30 399 H 36.9744 -1.04276 -2.80654 0
M  V30 400 H 34.5204 -0.50288 -1.34934 0
M  V30 401 H 36.4734 1.03137 -4.08584 0
M  V30 402 H 35.1974 1.46239 -2.92031 0
M  V30 403 H 33.8564 -0.550525 -3.62443 0
M  V30 404 H 33.5044 1.65494 -4.74996 0
M  V30 405 H 33.2044 0.301067 -5.86828 0
M  V30 406 H 34.7284 1.22659 -5.98153 0
M  V30 407 H 36.1424 -1.01927 -5.64166 0
M  V30 408 H 34.5394 -1.8063 -5.7227 0
M  V30 409 H 35.6094 -2.14288 -4.34981 0
M  V30 410 N 36.9525 1.47285 -0.560781 0
M  V30 411 C 37.9155 2.28535 0.174488 0
M  V30 412 C 38.9155 1.37153 0.839388 0
M  V30 413 O 40.1055 1.59748 0.694702 0
M  V30 414 C 37.2375 3.16934 1.25561 0
M  V30 415 H 38.4305 2.95012 -0.539262 0
M  V30 416 H 35.9835 1.53034 -0.317865 0
M  V30 417 H 36.7185 2.55157 2.00164 0
M  V30 418 H 36.5035 3.8419 0.783604 0
M  V30 419 H 37.9935 3.78143 1.77193 0
M  V30 420 N 38.4306 0.297415 1.54768 0
M  V30 421 C 39.3936 -0.567375 2.22066 0
M  V30 422 C 40.3936 -1.06409 1.20556 0
M  V30 423 O 41.5836 -0.960691 1.45315 0
M  V30 424 C 38.7156 -1.78517 2.90421 0
M  V30 425 H 39.9086 0.0205534 2.99893 0
M  V30 426 H 37.4616 0.0482163 1.56226 0
M  V30 427 H 38.1966 -2.41303 2.16664 0
M  V30 428 H 37.9816 -1.43669 3.64831 0
M  V30 429 H 39.4716 -2.39964 3.41771 0
M  V30 430 N 39.9087 -1.5758 0.0250728 0
M  V30 431 C 41.1567 -1.91255 -0.653151 0
M  V30 432 C 41.4777 -0.901691 -1.729 0
M  V30 433 O 40.7477 0.0573785 -1.95816 0
M  V30 434 H 39.3277 -0.705942 -0.244243 0
M  V30 435 H 41.9897 -1.94767 0.0719209 0
M  V30 436 H 41.0857 -2.91752 -1.10847 0
M  V30 437 N 41.3868 0.248026 -1.55636 0
M  V30 438 C 42.6348 0.974295 -1.77065 0
M  V30 439 C 42.9558 1.85897 -0.588849 0
M  V30 440 O 42.2258 1.91868 0.395407 0
M  V30 441 H 40.8058 0.362733 -0.653019 0
M  V30 442 H 43.4678 0.266244 -1.93073 0
M  V30 443 H 42.5638 1.59667 -2.68166 0
M  V30 444 N 42.8649 1.48995 0.513639 0
M  V30 445 C 43.8279 1.64229 1.59879 0
M  V30 446 C 44.8279 0.514696 1.5234 0
M  V30 447 O 46.0179 0.78087 1.55718 0
M  V30 448 C 43.1499 1.62783 2.99524 0
M  V30 449 H 44.3429 2.61004 1.47705 0
M  V30 450 H 41.8959 1.37837 0.736936 0
M  V30 451 H 42.6309 0.675461 3.17188 0
M  V30 452 H 42.4159 2.4466 3.06404 0
M  V30 453 H 43.9059 1.76669 3.78388 0
M  V30 454 N 44.343 -0.763751 1.37857 0
M  V30 455 C 45.759 -1.06542 1.18832 0
M  V30 456 C 45.959 -2.01478 0.0299722 0
M  V30 457 O 45.015 -2.4458 -0.627447 0
M  V30 458 C 46.328 -1.65525 2.51042 0
M  V30 459 C 47.876 -1.77745 2.57635 0
M  V30 460 C 48.351 -2.4014 3.89996 0
M  V30 461 N 49.842 -2.47582 3.91481 0
M  V30 462 C 50.577 -2.96732 4.9065 0
M  V30 463 N 50.073 -3.45993 6.00217 0
M  V30 464 N 51.866 -2.95679 4.78048 0
M  V30 465 H 44.017 -0.133556 2.1198 0
M  V30 466 H 46.28 -0.121879 0.940133 0
M  V30 467 H 45.986 -1.03236 3.36207 0
M  V30 468 H 45.86 -2.64719 2.68707 0
M  V30 469 H 48.247 -2.39164 1.72872 0
M  V30 470 H 48.328 -0.772836 2.43846 0
M  V30 471 H 47.972 -1.79358 4.75177 0
M  V30 472 H 47.902 -3.41223 4.01092 0
M  V30 473 H 50.393 -2.1273 3.12337 0
M  V30 474 H 50.706 -3.81922 6.7183 0
M  V30 475 H 49.051 -3.44077 6.03851 0
M  V30 476 H 52.242 -2.56499 3.91568 0
M  V30 477 H 52.415 -3.33672 5.55488 0
M  V30 478 N 45.8211 -1.22559 -0.990812 0
M  V30 479 C 46.7841 -0.998863 -2.0629 0
M  V30 480 C 47.7841 0.0354834 -1.60761 0
M  V30 481 O 48.9741 -0.203231 -1.7301 0
M  V30 482 C 46.1061 -0.509203 -3.37076 0
M  V30 483 H 47.2991 -1.95014 -2.27837 0
M  V30 484 H 44.8521 -1.04456 -1.16269 0
M  V30 485 H 45.5871 0.446335 -3.21214 0
M  V30 486 H 45.3721 -1.25547 -3.71457 0
M  V30 487 H 46.8621 -0.370888 -4.1595 0
M  V30 488 N 47.2992 1.18797 -1.03562 0
M  V30 489 C 48.7152 1.40671 -0.753917 0
M  V30 490 C 48.9152 1.9043 0.658686 0
M  V30 491 O 47.9712 2.08538 1.42366 0
M  V30 492 C 49.2842 2.41192 -1.79574 0
M  V30 493 C 50.8322 2.54928 -1.81606 0
M  V30 494 C 51.3072 3.58709 -2.84766 0
M  V30 495 N 52.7982 3.66212 -2.83625 0
M  V30 496 C 53.5332 4.46225 -3.60098 0
M  V30 497 N 53.0292 5.29888 -4.46308 0
M  V30 498 N 54.8222 4.40939 -3.4861 0
M  V30 499 H 46.9732 0.848221 -1.94728 0
M  V30 500 H 49.2362 0.435081 -0.842264 0
M  V30 501 H 48.9422 2.11669 -2.80872 0
M  V30 502 H 48.8162 3.40467 -1.62365 0
M  V30 503 H 51.2032 2.83771 -0.809817 0
M  V30 504 H 51.2842 1.55784 -2.02891 0
M  V30 505 H 50.9282 3.30607 -3.85566 0
M  V30 506 H 50.8582 4.57519 -2.60737 0
M  V30 507 H 53.3492 3.06466 -2.21105 0
M  V30 508 H 53.6622 5.88078 -5.01382 0
M  V30 509 H 52.0072 5.29326 -4.50377 0
M  V30 510 H 55.1982 3.74624 -2.80668 0
M  V30 511 H 55.3712 5.03056 -4.08459 0
M  V30 512 N 48.7773 0.814389 1.34928 0
M  V30 513 C 50.0233 0.408167 1.99263 0
M  V30 514 C 50.3783 -1.0154 1.63424 0
M  V30 515 O 49.6713 -1.69607 0.891289 0
M  V30 516 C 49.8653 0.537781 3.53331 0
M  V30 517 C 49.6943 1.9724 4.04137 0
M  V30 518 C 48.4643 2.60245 4.33129 0
M  V30 519 C 50.6623 2.93801 4.2212 0
M  V30 520 N 48.6443 3.95036 4.69914 0
M  V30 521 C 50.0153 4.1348 4.6199 0
M  V30 522 C 52.0703 2.9053 4.04348 0
M  V30 523 C 50.7733 5.3033 4.85945 0
M  V30 524 C 52.7993 4.06589 4.29464 0
M  V30 525 C 52.1613 5.25017 4.69613 0
M  V30 526 H 48.2603 0.197289 0.756704 0
M  V30 527 H 50.8443 1.05728 1.63492 0
M  V30 528 H 49.0153 -0.0813868 3.88315 0
M  V30 529 H 50.7473 0.105389 4.04563 0
M  V30 530 H 47.5023 2.11545 4.23728 0
M  V30 531 H 47.9263 4.64455 4.92555 0
M  V30 532 H 52.5683 2.00115 3.72443 0
M  V30 533 H 50.2863 6.21309 5.16721 0
M  V30 534 H 53.8723 4.05447 4.17257 0
M  V30 535 H 52.7523 6.1333 4.88667 0
M  V30 536 N 50.2554 -1.46986 0.568584 0
M  V30 537 C 51.6714 -1.57946 0.229189 0
M  V30 538 C 51.8714 -1.56567 -1.26843 0
M  V30 539 O 50.9274 -1.47511 -2.04931 0
M  V30 540 C 52.2404 -2.87963 0.865909 0
M  V30 541 C 53.7884 -3.01568 0.838188 0
M  V30 542 C 54.2634 -4.34301 1.45419 0
M  V30 543 N 55.7544 -4.40965 1.41788 0
M  V30 544 C 56.4894 -5.42256 1.86403 0
M  V30 545 N 55.9854 -6.50297 2.38926 0
M  V30 546 N 57.7784 -5.3337 1.77405 0
M  V30 547 H 49.9294 -1.46126 1.54146 0
M  V30 548 H 52.1924 -0.696156 0.643484 0
M  V30 549 H 51.8984 -2.94742 1.91886 0
M  V30 550 H 51.7724 -3.75423 0.365687 0
M  V30 551 H 54.1594 -2.94379 -0.206106 0
M  V30 552 H 54.2404 -2.1562 1.37629 0
M  V30 553 H 53.8844 -4.42247 2.49761 0
M  V30 554 H 53.8144 -5.19 0.891435 0
M  V30 555 H 56.3054 -3.63484 1.03381 0
M  V30 556 H 56.6184 -7.23777 2.70863 0
M  V30 557 H 54.9634 -6.51155 2.42944 0
M  V30 558 H 58.1544 -4.47865 1.3614 0
M  V30 559 H 58.3274 -6.12169 2.12492 0
M  V30 560 N 51.7335 -0.305618 -1.54608 0
M  V30 561 C 52.9815 0.301701 -1.99835 0
M  V30 562 C 53.3025 1.54054 -1.19551 0
M  V30 563 O 52.5725 1.93702 -0.292658 0
M  V30 564 H 51.1525 0.114468 -0.738178 0
M  V30 565 H 53.8145 -0.418016 -1.90364 0
M  V30 566 H 52.9105 0.570548 -3.06841 0
M  V30 567 N 53.2116 1.57565 -0.0334293 0
M  V30 568 C 54.1216 2.13943 0.962572 0
M  V30 569 C 55.1376 1.09276 1.35406 0
M  V30 570 O 56.3136 1.41355 1.4346 0
M  V30 571 C 53.3786 2.65887 2.22497 0
M  V30 572 C 52.4396 3.85286 1.8935 0
M  V30 573 C 51.6726 4.34743 3.09571 0
M  V30 574 O 51.8956 3.83352 4.22371 0
M  V30 575 O 50.8296 5.26538 2.91618 0
M  V30 576 H 54.6556 2.99333 0.513169 0
M  V30 577 H 52.2406 1.4822 0.18743 0
M  V30 578 H 54.1226 2.99346 2.96598 0
M  V30 579 H 52.7976 1.83578 2.6661 0
M  V30 580 H 51.7046 3.56746 1.1262 0
M  V30 581 H 53.0376 4.68771 1.5005 0
M  V30 582 N 54.6897 -0.239769 1.55765 0
M  V30 583 C 55.9377 -0.964892 1.77579 0
M  V30 584 C 56.2587 -1.85582 0.598699 0
M  V30 585 O 55.5287 -1.92075 -0.385226 0
M  V30 586 H 54.1087 -0.359265 0.654933 0
M  V30 587 H 56.7707 -0.256001 1.93211 0
M  V30 588 H 55.8667 -1.58243 2.69009 0
M  V30 589 N 56.1678 -1.49265 -0.50573 0
M  V30 590 C 57.3958 -1.62215 -1.28429 0
M  V30 591 C 57.8108 -0.291697 -1.86533 0
M  V30 592 O 57.1678 0.722233 -1.67601 0
M  V30 593 C 57.2188 -2.68735 -2.41793 0
M  V30 594 O 56.9398 -3.96619 -1.86078 0
M  V30 595 C 58.4408 -2.92346 -3.3324 0
M  V30 596 H 55.6608 -0.546239 -0.389697 0
M  V30 597 H 58.2048 -1.95265 -0.607609 0
M  V30 598 H 56.3598 -2.38476 -3.053 0
M  V30 599 H 56.7738 -4.55256 -2.60465 0
M  V30 600 H 58.2478 -3.70623 -4.09075 0
M  V30 601 H 58.7248 -2.02081 -3.89948 0
M  V30 602 H 59.3308 -3.24003 -2.75503 0
M  V30 603 N 57.6459 0.756429 -1.3826 0
M  V30 604 C 58.8709 1.55077 -1.37717 0
M  V30 605 C 59.2959 1.88073 0.03164 0
M  V30 606 O 58.6539 1.50364 1.01293 0
M  V30 607 C 58.7019 2.8283 -2.23695 0
M  V30 608 O 57.8059 3.77862 -1.6521 0
M  V30 609 H 57.1469 0.469152 -0.469885 0
M  V30 610 H 59.6769 0.935019 -1.81985 0
M  V30 611 H 59.6869 3.31783 -2.37453 0
M  V30 612 H 58.3619 2.58144 -3.2609 0
M  V30 613 H 56.9389 3.36555 -1.60578 0
M  V30 614 N 59.124 1.23083 0.984299 0
M  V30 615 C 60.087 1.00979 2.05757 0
M  V30 616 C 61.087 -0.0269573 1.60777 0
M  V30 617 O 62.277 0.212403 1.729 0
M  V30 618 C 59.409 0.527072 3.36801 0
M  V30 619 H 60.602 1.9622 2.26799 0
M  V30 620 H 58.155 1.05072 1.15714 0
M  V30 621 H 58.89 -0.429294 3.21446 0
M  V30 622 H 58.675 1.27515 3.70786 0
M  V30 623 H 60.165 0.392942 4.15747 0
M  V30 624 N 60.6021 -1.18246 1.0419 0
M  V30 625 C 61.5521 -2.19843 0.604392 0
M  V30 626 C 62.5361 -1.56962 -0.353814 0
M  V30 627 O 63.7281 -1.76156 -0.17267 0
M  V30 628 C 60.8571 -3.43287 -0.0298975 0
M  V30 629 C 59.9431 -4.13288 0.951531 0
M  V30 630 N 60.3341 -4.59271 2.11906 0
M  V30 631 C 58.6321 -4.39165 0.7778 0
M  V30 632 C 59.3331 -5.13173 2.73912 0
M  V30 633 N 58.3091 -5.04763 2.01779 0
M  V30 634 H 62.1111 -2.53089 1.4941 0
M  V30 635 H 59.6251 -1.34465 0.910658 0
M  V30 636 H 61.6221 -4.15334 -0.361037 0
M  V30 637 H 60.2821 -3.11537 -0.915127 0
M  V30 638 H 61.2931 -4.5368 2.49789 0
M  V30 639 H 57.9701 -4.17461 -0.0572331 0
M  V30 640 H 59.3601 -5.58947 3.72864 0
M  V30 641 N 62.0802 -0.821533 -1.34494 0
M  V30 642 C 63.0102 -0.257138 -2.3208 0
M  V30 643 C 63.9912 0.625645 -1.58176 0
M  V30 644 O 65.1762 0.552811 -1.86166 0
M  V30 645 C 62.3062 0.582958 -3.42372 0
M  V30 646 C 61.2602 -0.202571 -4.2752 0
M  V30 647 C 60.5862 0.760179 -5.29269 0
M  V30 648 C 61.8862 -1.40998 -5.02908 0
M  V30 649 H 63.5802 -1.07247 -2.79532 0
M  V30 650 H 61.1262 -0.517163 -1.34393 0
M  V30 651 H 63.0792 0.987972 -4.09655 0
M  V30 652 H 61.8032 1.43133 -2.93565 0
M  V30 653 H 60.4622 -0.588936 -3.61838 0
M  V30 654 H 60.1102 1.60447 -4.76724 0
M  V30 655 H 59.8102 0.238809 -5.87115 0
M  V30 656 H 61.3342 1.16308 -5.9942 0
M  V30 657 H 62.7482 -1.07905 -5.63054 0
M  V30 658 H 61.1452 -1.86689 -5.70322 0
M  V30 659 H 62.2152 -2.1889 -4.32684 0
M  V30 660 N 63.5583 1.46682 -0.576371 0
M  V30 661 C 64.9743 1.57822 -0.237562 0
M  V30 662 C 65.1743 1.57237 1.26011 0
M  V30 663 O 64.2303 1.48596 2.04146 0
M  V30 664 C 65.5433 2.87499 -0.881168 0
M  V30 665 C 67.0913 3.01119 -0.85417 0
M  V30 666 C 67.5663 4.33524 -1.4772 0
M  V30 667 N 69.0573 4.40207 -1.44125 0
M  V30 668 C 69.7923 5.4126 -1.89276 0
M  V30 669 N 69.2883 6.49021 -2.42371 0
M  V30 670 N 71.0813 5.32422 -1.80231 0
M  V30 671 H 63.2323 1.45306 -1.54919 0
M  V30 672 H 65.4953 0.692733 -0.647167 0
M  V30 673 H 65.2013 2.9372 -1.93447 0
M  V30 674 H 65.0753 3.75224 -0.385592 0
M  V30 675 H 67.4623 2.94485 0.190491 0
M  V30 676 H 67.5433 2.14887 -1.3877 0
M  V30 677 H 67.1873 4.40916 -2.52103 0
M  V30 678 H 67.1173 5.1852 -0.918947 0
M  V30 679 H 69.6083 3.62931 -1.05307 0
M  V30 680 H 69.9213 7.2233 -2.74698 0
M  V30 681 H 68.2663 6.49858 -2.46393 0
M  V30 682 H 71.4573 4.47137 -1.38514 0
M  V30 683 H 71.6303 6.11034 -2.15735 0
M  V30 684 N 65.0364 0.313813 1.54444 0
M  V30 685 C 66.3134 -0.345447 1.92525 0
M  V30 686 C 66.6934 -1.70667 1.24242 0
M  V30 687 O 66.0414 -2.25273 0.382654 0
M  V30 688 C 66.2514 -0.44737 3.46121 0
M  V30 689 C 67.5994 -0.712238 4.18584 0
M  V30 690 O 68.6234 -0.530678 3.52225 0
M  V30 691 O 67.4824 -1.06183 5.36085 0
M  V30 692 H 64.5764 -0.195407 0.803583 0
M  V30 693 H 67.1224 0.362813 1.65776 0
M  V30 694 H 65.8944 0.509043 3.87975 0
M  V30 695 H 65.5174 -1.20359 3.78945 0
M  V30 696 N 66.5145 -1.57545 0.0417849 0
M  V30 697 C 67.7635 -1.91494 -0.633492 0
M  V30 698 C 68.0765 -0.921084 -1.72556 0
M  V30 699 O 69.2825 -1.15228 -2.45835 0
M  V30 700 C 67.7385 -3.40072 -1.17808 0
M  V30 701 C 67.3465 -4.47843 -0.118633 0
M  V30 702 C 69.0905 -3.8307 -1.82915 0
M  V30 703 C 66.9975 -5.87529 -0.675578 0
M  V30 704 H 65.9275 -0.714653 -0.24039 0
M  V30 705 H 68.5785 -1.83175 0.109148 0
M  V30 706 H 66.9605 -3.43364 -1.97274 0
M  V30 707 H 68.1345 -4.56128 0.654494 0
M  V30 708 H 66.4495 -4.14128 0.434414 0
M  V30 709 H 69.0465 -4.84794 -2.25563 0
M  V30 710 H 69.3895 -3.1881 -2.67705 0
M  V30 711 H 69.9225 -3.82255 -1.10119 0
M  V30 712 H 66.6615 -6.55362 0.134475 0
M  V30 713 H 66.1815 -5.82824 -1.4169 0
M  V30 714 H 67.8605 -6.36491 -1.1614 0
M  V30 715 N 67.9926 0.231505 -1.5589 0
M  V30 716 C 69.2396 0.957352 -1.78441 0
M  V30 717 C 69.5676 1.84726 -0.60882 0
M  V30 718 O 68.8226 1.91416 0.40725 0
M  V30 719 C 69.1216 1.83577 -3.0665 0
M  V30 720 C 68.7876 1.09993 -4.37278 0
M  V30 721 C 67.4496 0.896629 -4.72773 0
M  V30 722 C 69.8016 0.579558 -5.17968 0
M  V30 723 C 67.1296 0.160896 -5.86479 0
M  V30 724 C 69.4816 -0.142783 -6.32439 0
M  V30 725 C 68.1456 -0.357427 -6.66542 0
M  V30 726 H 67.4156 0.35032 -0.65296 0
M  V30 727 H 70.0626 0.226259 -1.90159 0
M  V30 728 H 68.3676 2.63441 -2.90011 0
M  V30 729 H 70.0646 2.39934 -3.21298 0
M  V30 730 H 66.6546 1.26835 -4.09403 0
M  V30 731 H 70.8386 0.724125 -4.90989 0
M  V30 732 H 66.0946 -0.0157293 -6.11398 0
M  V30 733 H 70.2686 -0.553559 -6.94196 0
M  V30 734 H 67.8956 -0.929466 -7.54497 0
M  V30 735 N 69.4707 1.49531 0.497807 0
M  V30 736 C 70.4007 1.6935 1.60757 0
M  V30 737 C 71.3817 0.542218 1.61227 0
M  V30 738 O 72.5667 0.778417 1.77917 0
M  V30 739 C 69.6967 1.76298 2.99226 0
M  V30 740 C 68.6507 2.91248 3.13622 0
M  V30 741 C 67.9767 2.83312 4.53474 0
M  V30 742 C 69.2767 4.3214 2.93346 0
M  V30 743 H 70.9707 2.62263 1.44425 0
M  V30 744 H 68.5167 1.26208 0.693367 0
M  V30 745 H 70.4697 1.88749 3.76765 0
M  V30 746 H 69.1937 0.799871 3.16654 0
M  V30 747 H 67.8527 2.78404 2.38509 0
M  V30 748 H 67.5007 1.84902 4.67782 0
M  V30 749 H 67.2007 3.60465 4.64046 0
M  V30 750 H 68.7247 2.97775 5.33069 0
M  V30 751 H 70.1387 4.45649 3.60652 0
M  V30 752 H 68.5357 5.1054 3.15387 0
M  V30 753 H 69.6057 4.46363 1.89441 0
M  V30 754 N 70.9488 -0.749086 1.3866 0
M  V30 755 C 72.1968 -1.50535 1.34847 0
M  V30 756 C 72.5178 -1.94909 -0.0595016 0
M  V30 757 O 71.7878 -1.67973 -1.00806 0
M  V30 758 H 70.3678 -0.558395 0.49619 0
M  V30 759 H 73.0298 -0.890165 1.73384 0
M  V30 760 H 72.1258 -2.39413 2.00219 0
M  V30 761 N 72.4269 -1.23603 -0.977757 0
M  V30 762 C 73.8429 -0.999251 -1.24447 0
M  V30 763 C 74.0429 0.298053 -1.99283 0
M  V30 764 O 73.0989 1.01681 -2.31122 0
M  V30 765 C 74.4119 -2.20784 -2.04144 0
M  V30 766 C 75.9599 -2.25303 -2.17273 0
M  V30 767 C 76.4349 -3.45755 -3.00362 0
M  V30 768 N 77.9259 -3.4601 -3.07947 0
M  V30 769 C 78.6609 -4.35868 -3.72568 0
M  V30 770 N 78.1569 -5.35966 -4.38991 0
M  V30 771 N 79.9499 -4.23605 -3.6948 0
M  V30 772 H 72.1009 -2.06986 -0.476483 0
M  V30 773 H 74.3639 -0.907801 -0.273134 0
M  V30 774 H 74.0699 -3.14945 -1.56533 0
M  V30 775 H 73.9439 -2.22085 -3.04891 0
M  V30 776 H 76.3309 -1.3168 -2.64092 0
M  V30 777 H 76.4119 -2.28033 -1.15907 0
M  V30 778 H 76.0559 -4.39687 -2.5424 0
M  V30 779 H 75.9859 -3.40266 -4.01904 0
M  V30 780 H 78.4769 -2.73588 -2.60688 0
M  V30 781 H 78.7899 -6.00783 -4.86086 0
M  V30 782 H 77.1349 -5.39863 -4.37691 0
M  V30 783 H 80.3259 -3.44647 -3.16759 0
M  V30 784 H 80.4989 -4.93836 -4.1956 0
M  V30 785 N 73.905 1.17692 -1.04816 0
M  V30 786 C 75.145 1.89545 -0.764979 0
M  V30 787 C 75.509 1.78979 0.695028 0
M  V30 788 O 76.71 2.45613 1.09215 0
M  V30 789 C 74.981 3.35659 -1.22751 0
M  V30 790 S 76.54 4.25526 -1.07112 0
M  V30 791 H 73.358 0.654432 -0.27792 0
M  V30 792 H 75.96 1.42163 -1.34201 0
M  V30 793 H 74.664 3.40882 -2.28533 0
M  V30 794 H 74.195 3.88083 -0.644594 0
M  V30 795 H 76.21 4.962 0.00697508 0
M  V30 796 N 75.3831 0.828654 1.34056 0
M  V30 797 C 76.3461 0.259927 2.27721 0
M  V30 798 C 77.3461 -0.565478 1.50529 0
M  V30 799 O 78.5361 -0.38075 1.69988 0
M  V30 800 C 75.6681 -0.634944 3.34935 0
M  V30 801 H 76.8611 1.0863 2.79534 0
M  V30 802 H 74.4141 0.600951 1.44285 0
M  V30 803 H 75.1491 -1.48416 2.88346 0
M  V30 804 H 74.9341 -0.0444999 3.92075 0
M  V30 805 H 76.4241 -1.02648 4.04788 0
M  V30 806 N 76.8612 -1.46375 0.584142 0
M  V30 807 C 77.7712 -2.34115 -0.150728 0
M  V30 808 C 78.7872 -1.49838 -0.884567 0
M  V30 809 O 79.9632 -1.82704 -0.847429 0
M  V30 810 C 77.0282 -3.2705 -1.15062 0
M  V30 811 C 76.0892 -4.27228 -0.421293 0
M  V30 812 C 75.3222 -5.15722 -1.37355 0
M  V30 813 O 75.5452 -5.07176 -2.61014 0
M  V30 814 O 74.4792 -5.95383 -0.883355 0
M  V30 815 H 78.3052 -2.98309 0.569708 0
M  V30 816 H 75.8902 -1.45373 0.344535 0
M  V30 817 H 77.7722 -3.84381 -1.72712 0
M  V30 818 H 76.4472 -2.65451 -1.8525 0
M  V30 819 H 75.3542 -3.7358 0.197085 0
M  V30 820 H 76.6872 -4.91616 0.239641 0
M  V30 821 N 78.3393 -0.321999 -1.54275 0
M  V30 822 C 79.5693 0.282642 -2.04658 0
M  V30 823 C 79.9773 1.46453 -1.19784 0
M  V30 824 O 79.3203 1.82367 -0.220932 0
M  V30 825 C 79.3823 0.781857 -3.50895 0
M  V30 826 C 79.0463 -0.277517 -4.56157 0
M  V30 827 C 80.0433 -1.11307 -5.07845 0
M  V30 828 C 77.7283 -0.425256 -5.00497 0
M  V30 829 C 79.7223 -2.08211 -6.02434 0
M  V30 830 C 77.4093 -1.39771 -5.94901 0
M  V30 831 C 78.4073 -2.2246 -6.45756 0
M  V30 832 O 78.0953 -3.18054 -7.38307 0
M  V30 833 H 77.8273 0.0622636 -0.673126 0
M  V30 834 H 80.3813 -0.465792 -2.00049 0
M  V30 835 H 78.6113 1.58118 -3.52896 0
M  V30 836 H 80.3003 1.30467 -3.84361 0
M  V30 837 H 81.0663 -1.00991 -4.74369 0
M  V30 838 H 76.9453 0.20847 -4.60528 0
M  V30 839 H 80.4893 -2.72791 -6.42052 0
M  V30 840 H 76.3863 -1.50152 -6.27794 0
M  V30 841 H 77.1543 -3.13275 -7.56175 0
M  V30 842 N 79.8174 1.5752 -0.0501392 0
M  V30 843 C 81.2334 1.56631 0.306402 0
M  V30 844 C 81.4334 1.0577 1.71508 0
M  V30 845 O 80.4894 0.713837 2.422 0
M  V30 846 C 81.8024 3.00393 0.135811 0
M  V30 847 C 83.3504 3.12315 0.206993 0
M  V30 848 C 83.8254 4.57954 0.064944 0
M  V30 849 N 85.3164 4.63041 0.121254 0
M  V30 850 C 86.0514 5.73389 0.0354381 0
M  V30 851 N 85.5474 6.92724 -0.102666 0
M  V30 852 N 87.3404 5.62026 0.090946 0
M  V30 853 H 79.4914 1.88903 -0.971046 0
M  V30 854 H 81.7544 0.869876 -0.376855 0
M  V30 855 H 81.4604 3.41635 -0.835384 0
M  V30 856 H 81.3344 3.66373 0.897275 0
M  V30 857 H 83.7214 2.70973 1.16866 0
M  V30 858 H 83.8024 2.49016 -0.585208 0
M  V30 859 H 83.4464 4.99981 -0.893394 0
M  V30 860 H 83.3764 5.19258 0.876277 0
M  V30 861 H 85.8674 3.77216 0.227284 0
M  V30 862 H 86.1804 7.72633 -0.160882 0
M  V30 863 H 84.5254 6.94864 -0.137737 0
M  V30 864 H 87.7164 4.67684 0.197388 0
M  V30 865 H 87.8894 6.47997 0.0206089 0
M  V30 866 N 81.2955 -0.223234 1.56011 0
M  V30 867 C 82.2585 -1.26014 1.9145 0
M  V30 868 C 83.2585 -1.3989 0.792937 0
M  V30 869 O 84.4485 -1.38184 1.0607 0
M  V30 870 C 81.5805 -2.63422 2.16383 0
M  V30 871 H 82.7735 -0.95796 2.84189 0
M  V30 872 H 80.3265 -0.463576 1.49267 0
M  V30 873 H 81.0615 -2.98741 1.2619 0
M  V30 874 H 80.8465 -2.54728 2.98088 0
M  V30 875 H 82.3365 -3.38249 2.44903 0
M  V30 876 N 82.7736 -1.49793 -0.48987 0
M  V30 877 C 83.7036 -1.70201 -1.59856 0
M  V30 878 C 84.6846 -0.55076 -1.60937 0
M  V30 879 O 85.8696 -0.787841 -1.77501 0
M  V30 880 C 82.9996 -1.77882 -2.98287 0
M  V30 881 C 81.9536 -2.92907 -3.12073 0
M  V30 882 C 81.2796 -2.85712 -4.51965 0
M  V30 883 C 82.5796 -4.3369 -2.91051 0
M  V30 884 H 84.2736 -2.63025 -1.43032 0
M  V30 885 H 81.8196 -1.26574 -0.686664 0
M  V30 886 H 83.7726 -1.90744 -3.75759 0
M  V30 887 H 82.4966 -0.816653 -3.16225 0
M  V30 888 H 81.1556 -2.79665 -2.37029 0
M  V30 889 H 80.8036 -1.8738 -4.66795 0
M  V30 890 H 80.5036 -3.62921 -4.62128 0
M  V30 891 H 82.0276 -3.00598 -5.31482 0
M  V30 892 H 83.4416 -4.47555 -3.58284 0
M  V30 893 H 81.8386 -5.12205 -3.12675 0
M  V30 894 H 82.9086 -4.47362 -1.87071 0
M  V30 895 N 84.2517 0.741722 -1.39055 0
M  V30 896 C 85.1817 1.869 -1.39966 0
M  V30 897 C 86.1627 1.6804 -0.26392 0
M  V30 898 O 87.3477 1.88458 -0.468755 0
M  V30 899 C 84.4777 3.24572 -1.23574 0
M  V30 900 C 83.4317 3.58056 -2.34477 0
M  V30 901 C 82.7577 4.94593 -2.0318 0
M  V30 902 C 84.0577 3.61716 -3.76774 0
M  V30 903 H 85.7517 1.86395 -2.34302 0
M  V30 904 H 83.2977 0.895361 -1.1278 0
M  V30 905 H 85.2507 4.031 -1.22834 0
M  V30 906 H 83.9747 3.25587 -0.257045 0
M  V30 907 H 82.6337 2.81854 -2.34423 0
M  V30 908 H 82.2817 4.92181 -1.03765 0
M  V30 909 H 81.9817 5.17964 -2.77465 0
M  V30 910 H 83.5057 5.75486 -2.04079 0
M  V30 911 H 84.9197 4.30335 -3.78794 0
M  V30 912 H 83.3167 3.96603 -4.50362 0
M  V30 913 H 84.3867 2.61672 -4.08235 0
M  V30 914 N 85.7298 1.2412 0.971189 0
M  V30 915 C 86.9548 1.10667 1.75407 0
M  V30 916 C 87.3798 -0.337048 1.85056 0
M  V30 917 O 86.7378 -1.24396 1.31892 0
M  V30 918 C 86.7858 1.74726 3.15441 0
M  V30 919 O 85.8898 1.01566 3.99697 0
M  V30 920 H 85.2308 0.387341 0.539317 0
M  V30 921 H 87.7608 1.64358 1.2185 0
M  V30 922 H 87.7708 1.80341 3.6598 0
M  V30 923 H 86.4458 2.79773 3.07734 0
M  V30 924 H 85.0228 1.03713 3.58187 0
M  V30 925 N 87.2079 -1.17134 1.05439 0
M  V30 926 C 88.6189 -1.69084 0.791676 0
M  V30 927 C 88.9699 -1.83822 -0.685839 0
M  V30 928 O 88.0949 -1.52757 -1.53278 0
M  V30 929 C 88.6899 -3.07119 1.4305 0
M  V30 930 C 87.2489 -3.56225 1.21577 0
M  V30 931 C 86.3959 -2.32421 1.51247 0
M  V30 932 H 89.3469 -1.01617 1.219 0
M  V30 933 H 89.3679 -3.71087 0.84112 0
M  V30 934 H 88.8799 -2.9636 2.50584 0
M  V30 935 H 86.9809 -3.72257 0.159787 0
M  V30 936 H 87.0939 -4.38837 1.92246 0
M  V30 937 H 85.4579 -2.3701 0.932653 0
M  V30 938 H 86.2409 -2.24268 2.5992 0
M  V30 939 N 88.686 -0.835752 -1.33615 0
M  V30 940 C 89.596 -0.269088 -2.33052 0
M  V30 941 C 90.612 0.603251 -1.63208 0
M  V30 942 O 91.788 0.508112 -1.94885 0
M  V30 943 C 88.853 0.549091 -3.42324 0
M  V30 944 C 87.914 -0.347156 -4.27894 0
M  V30 945 C 87.147 0.43207 -5.31948 0
M  V30 946 O 87.37 1.66409 -5.45586 0
M  V30 947 O 86.304 -0.192298 -6.01593 0
M  V30 948 H 90.13 -1.09243 -2.83372 0
M  V30 949 H 87.715 -0.598198 -1.36901 0
M  V30 950 H 89.597 1.01414 -4.09015 0
M  V30 951 H 88.272 1.34955 -2.94226 0
M  V30 952 H 87.179 -0.859979 -3.64081 0
M  V30 953 H 88.512 -1.1123 -4.79467 0
M  V30 954 N 90.1641 1.46063 -0.591896 0
M  V30 955 C 91.0961 2.28539 0.174001 0
M  V30 956 C 92.1091 1.39047 0.846753 0
M  V30 957 O 93.2981 1.63564 0.714774 0
M  V30 958 C 90.3981 3.14347 1.26645 0
M  V30 959 C 89.5711 4.32021 0.683856 0
M  V30 960 C 88.6301 4.99157 1.66518 0
M  V30 961 O 87.6561 5.56458 1.19763 0
M  V30 962 N 88.8581 4.97005 2.99943 0
M  V30 963 H 91.6231 2.94911 -0.533633 0
M  V30 964 H 89.1841 1.56077 -0.430294 0
M  V30 965 H 91.1761 3.56125 1.92242 0
M  V30 966 H 89.7461 2.49988 1.87682 0
M  V30 967 H 88.9661 3.93915 -0.1498 0
M  V30 968 H 90.2541 5.08059 0.274567 0
M  V30 969 H 89.6521 4.51714 3.40545 0
M  V30 970 H 88.2091 5.42696 3.61004 0
M  V30 971 N 91.6422 0.330177 1.54103 0
M  V30 972 C 93.0582 -0.0222371 1.59585 0
M  V30 973 C 93.2582 -1.49902 1.34654 0
M  V30 974 O 92.3142 -2.25592 1.13421 0
M  V30 975 C 93.6272 0.401932 2.98002 0
M  V30 976 C 95.1752 0.353145 3.11001 0
M  V30 977 C 95.6502 0.752576 4.51775 0
M  V30 978 N 97.1412 0.706239 4.57784 0
M  V30 979 C 97.8762 0.987417 5.64834 0
M  V30 980 N 97.3722 1.33607 6.79795 0
M  V30 981 N 99.1652 0.91254 5.54643 0
M  V30 982 H 91.3162 1.29228 1.68564 0
M  V30 983 H 93.5792 0.525906 0.78875 0
M  V30 984 H 93.2852 1.4311 3.21267 0
M  V30 985 H 93.1592 -0.229699 3.765 0
M  V30 986 H 95.5462 -0.666822 2.87467 0
M  V30 987 H 95.6272 1.0198 2.34593 0
M  V30 988 H 95.2712 1.77049 4.76042 0
M  V30 989 H 95.2012 0.0635409 5.26562 0
M  V30 990 H 97.6922 0.44889 3.75224 0
M  V30 991 H 98.0052 1.53582 7.57385 0
M  V30 992 H 96.3502 1.37439 6.81275 0
M  V30 993 H 99.5412 0.639601 4.6371 0
M  V30 994 H 99.7142 1.13503 6.37982 0
M  V30 995 N 93.1203 -1.57491 0.0584922 0
M  V30 996 C 94.0683 -2.13148 -0.931168 0
M  V30 997 C 95.0623 -1.06507 -1.31729 0
M  V30 998 O 96.2683 -1.24906 -1.29609 0
M  V30 999 H 92.6433 -0.68137 -0.31818 0
M  V30 1000 H 94.6143 -2.95187 -0.436707 0
M  V30 1001 C 93.3633 -2.69732 -2.19408 0
M  V30 1002 H 92.6863 -3.51454 -1.90578 0
M  V30 1003 H 94.1263 -3.12287 -2.86798 0
M  V30 1004 C 92.5853 -1.63855 -2.94369 0
M  V30 1005 O 93.1153 -1.05565 -3.87581 0
M  V30 1006 N 91.3213 -1.35202 -2.57233 0
M  V30 1007 H 90.8683 -1.82791 -1.81508 0
M  V30 1008 H 90.8263 -0.645922 -3.07693 0
M  V30 1009 N 94.5984 0.214957 -1.56127 0
M  V30 1010 C 95.5454 1.26642 -1.92952 0
M  V30 1011 C 96.5154 1.46244 -0.78753 0
M  V30 1012 O 97.7004 1.59704 -1.04399 0
M  V30 1013 C 94.8404 2.6104 -2.25726 0
M  V30 1014 C 93.9534 2.49183 -3.52891 0
M  V30 1015 C 93.0884 3.76149 -3.7508 0
M  V30 1016 C 92.1274 3.59041 -4.95738 0
M  V30 1017 N 91.2644 4.77972 -5.14283 0
M  V30 1018 H 96.1044 0.945384 -2.82607 0
M  V30 1019 H 93.6414 0.455489 -1.3987 0
M  V30 1020 H 95.5994 3.39313 -2.42739 0
M  V30 1021 H 94.2294 2.91227 -1.39236 0
M  V30 1022 H 93.2814 1.6231 -3.44034 0
M  V30 1023 H 94.5934 2.32466 -4.41318 0
M  V30 1024 H 93.7474 4.62865 -3.92226 0
M  V30 1025 H 92.4864 3.95799 -2.84947 0
M  V30 1026 H 91.4914 2.7071 -4.78535 0
M  V30 1027 H 92.7164 3.40856 -5.87362 0
M  V30 1028 H 90.6624 4.97923 -4.27093 0
M  V30 1029 H 90.5794 4.64006 -5.96853 0
M  V30 1030 H 91.8474 5.66096 -5.35869 0
M  V30 1031 N 96.0765 1.50051 0.48192 0
M  V30 1032 C 97.0245 1.68635 1.60203 0
M  V30 1033 C 98.0185 0.552184 1.60148 0
M  V30 1034 O 99.2245 0.732377 1.64427 0
M  V30 1035 H 95.5995 0.532081 0.531407 0
M  V30 1036 H 97.5705 2.62616 1.41688 0
M  V30 1037 C 96.3195 1.78775 2.9822 0
M  V30 1038 H 95.6425 2.6543 2.98976 0
M  V30 1039 H 97.0825 1.95806 3.7608 0
M  V30 1040 C 95.5415 0.536849 3.32595 0
M  V30 1041 O 96.0715 -0.328897 4.00351 0
M  V30 1042 N 94.2775 0.394091 2.87915 0
M  V30 1043 H 93.8245 1.09962 2.32951 0
M  V30 1044 H 93.7825 -0.441737 3.11281 0
M  V30 1045 N 97.5546 -0.734337 1.39446 0
M  V30 1046 C 98.7946 -1.50655 1.38139 0
M  V30 1047 C 99.1586 -1.91986 -0.0228701 0
M  V30 1048 O 100.36 -2.68318 -0.160947 0
M  V30 1049 C 98.6306 -2.71251 2.32718 0
M  V30 1050 S 100.19 -3.60892 2.49605 0
M  V30 1051 H 97.0076 -0.515315 0.489869 0
M  V30 1052 H 99.6096 -0.860392 1.75549 0
M  V30 1053 H 98.3136 -2.39027 3.33608 0
M  V30 1054 H 97.8446 -3.40795 1.96526 0
M  V30 1055 H 99.8596 -4.64899 1.73446 0
M  V30 1056 N 99.0327 -1.24633 -0.964593 0
M  V30 1057 C 100.261 -1.11501 -1.74285 0
M  V30 1058 C 100.676 0.332165 -1.85855 0
M  V30 1059 O 100.033 1.22903 -1.34911 0
M  V30 1060 C 100.084 -1.75258 -3.16175 0
M  V30 1061 O 99.8047 -3.14318 -3.05182 0
M  V30 1062 C 101.306 -1.67776 -4.10324 0
M  V30 1063 H 98.5257 -0.389407 -0.546446 0
M  V30 1064 H 101.07 -1.64801 -1.21083 0
M  V30 1065 H 99.2247 -1.25954 -3.66353 0
M  V30 1066 H 99.6387 -3.4551 -3.94618 0
M  V30 1067 H 101.113 -2.17064 -5.0753 0
M  V30 1068 H 101.59 -0.639584 -4.34518 0
M  V30 1069 H 102.196 -2.16522 -3.66058 0
M  V30 1070 N 100.511 1.16574 -1.06058 0
M  V30 1071 C 101.474 2.19085 -0.673392 0
M  V30 1072 C 102.474 1.5835 0.279648 0
M  V30 1073 O 103.664 1.74088 0.0623488 0
M  V30 1074 C 100.796 3.40899 0.00954234 0
M  V30 1075 H 101.989 2.54853 -1.58081 0
M  V30 1076 H 99.5418 1.30808 -0.855516 0
M  V30 1077 H 100.277 3.10684 0.929826 0
M  V30 1078 H 100.062 3.86233 -0.67573 0
M  V30 1079 H 101.552 4.1675 0.266245 0
M  V30 1080 N 101.989 0.842826 1.3317 0
M  V30 1081 C 103.238 0.436738 1.96915 0
M  V30 1082 C 103.551 -1.01025 1.67491 0
M  V30 1083 O 104.757 -1.5212 2.24881 0
M  V30 1084 C 103.213 0.730021 3.52418 0
M  V30 1085 C 102.821 2.19195 3.90714 0
M  V30 1086 C 104.565 0.391076 4.22695 0
M  V30 1087 C 102.472 2.42907 5.39212 0
M  V30 1088 H 101.402 0.15958 0.736919 0
M  V30 1089 H 104.053 1.03196 1.51733 0
M  V30 1090 H 102.435 0.0643755 3.95948 0
M  V30 1091 H 103.609 2.8984 3.58231 0
M  V30 1092 H 101.924 2.49425 3.33431 0
M  V30 1093 H 104.521 0.545817 5.31907 0
M  V30 1094 H 104.864 -0.666294 4.10933 0
M  V30 1095 H 105.397 1.01212 3.84709 0
M  V30 1096 H 102.136 3.47224 5.55982 0
M  V30 1097 H 101.656 1.76827 5.73142 0
M  V30 1098 H 103.335 2.2626 6.06148 0
M  V30 1099 N 103.467 -1.45747 0.599634 0
M  V30 1100 C 104.713 -2.03153 0.100263 0
M  V30 1101 C 105.068 -1.46073 -1.25221 0
M  V30 1102 O 104.361 -0.622878 -1.81193 0
M  V30 1103 C 104.555 -3.57399 -0.00602758 0
M  V30 1104 C 104.384 -4.2944 1.3346 0
M  V30 1105 C 103.154 -4.6768 1.91321 0
M  V30 1106 C 105.352 -4.61905 2.2616 0
M  V30 1107 N 103.334 -5.24544 3.18946 0
M  V30 1108 C 104.705 -5.19518 3.3838 0
M  V30 1109 C 106.76 -4.43841 2.25631 0
M  V30 1110 C 105.463 -5.60972 4.50226 0
M  V30 1111 C 107.489 -4.86322 3.36518 0
M  V30 1112 C 106.851 -5.44021 4.4746 0
M  V30 1113 H 102.95 -0.777911 0.0798696 0
M  V30 1114 H 105.534 -1.77674 0.796244 0
M  V30 1115 H 103.705 -3.82556 -0.671212 0
M  V30 1116 H 105.437 -4.01457 -0.51133 0
M  V30 1117 H 102.192 -4.5098 1.44617 0
M  V30 1118 H 102.616 -5.57483 3.84112 0
M  V30 1119 H 107.258 -3.98552 1.41123 0
M  V30 1120 H 104.976 -6.0523 5.35464 0
M  V30 1121 H 108.562 -4.74084 3.37247 0
M  V30 1122 H 107.442 -5.76289 5.31846 0
M  V30 1123 N 104.945 -0.338344 -1.53925 0
M  V30 1124 C 105.855 0.529421 -2.28548 0
M  V30 1125 C 106.871 1.11645 -1.3346 0
M  V30 1126 O 108.047 1.13325 -1.66492 0
M  V30 1127 C 105.112 1.66713 -3.03987 0
M  V30 1128 C 104.173 1.11041 -4.14691 0
M  V30 1129 C 103.406 2.19389 -4.86522 0
M  V30 1130 O 103.629 3.40013 -4.57982 0
M  V30 1131 O 102.563 1.83976 -5.73094 0
M  V30 1132 H 106.389 -0.0770399 -3.03602 0
M  V30 1133 H 103.974 -0.103555 -1.49041 0
M  V30 1134 H 105.856 2.32918 -3.5118 0
M  V30 1135 H 104.531 2.25949 -2.31794 0
M  V30 1136 H 103.438 0.413024 -3.71813 0
M  V30 1137 H 104.771 0.562975 -4.8897 0
M  V30 1138 N 106.423 1.57458 -0.0668435 0
M  V30 1139 C 107.386 2.11323 0.887422 0
M  V30 1140 C 108.386 1.03618 1.22964 0
M  V30 1141 O 109.576 1.29626 1.16373 0
M  V30 1142 C 106.708 2.61048 2.19242 0
M  V30 1143 H 107.901 2.96942 0.420194 0
M  V30 1144 H 105.454 1.55239 0.181793 0
M  V30 1145 H 106.189 1.78868 2.70512 0
M  V30 1146 H 105.974 3.39769 1.95702 0
M  V30 1147 H 107.464 3.02814 2.87565 0
M  V30 1148 N 107.901 -0.206675 1.56239 0
M  V30 1149 C 109.148 -0.928842 1.79941 0
M  V30 1150 C 109.476 -1.83734 0.638131 0
M  V30 1151 O 108.731 -1.92039 -0.376746 0
M  V30 1152 C 109.03 -1.78675 3.09532 0
M  V30 1153 C 108.696 -1.03022 4.38973 0
M  V30 1154 C 107.358 -0.821302 4.74139 0
M  V30 1155 C 109.71 -0.497081 5.18824 0
M  V30 1156 C 107.038 -0.0675719 5.86661 0
M  V30 1157 C 109.39 0.24338 6.32132 0
M  V30 1158 C 108.054 0.463422 6.65889 0
M  V30 1159 H 107.324 -0.339887 0.658451 0
M  V30 1160 H 109.971 -0.195977 1.90495 0
M  V30 1161 H 108.276 -2.58794 2.94165 0
M  V30 1162 H 109.973 -2.34792 3.25075 0
M  V30 1163 H 106.563 -1.20306 4.11369 0
M  V30 1164 H 110.747 -0.645921 4.92079 0
M  V30 1165 H 106.003 0.112995 6.11296 0
M  V30 1166 H 110.177 0.66393 6.93228 0
M  V30 1167 H 107.804 1.04938 7.52922 0
M  V30 1168 N 109.379 -1.50304 -0.473955 0
M  V30 1169 C 110.326 -1.68959 -1.57231 0
M  V30 1170 C 111.296 -0.530899 -1.57387 0
M  V30 1171 O 112.481 -0.761133 -1.74961 0
M  V30 1172 C 109.621 -1.7871 -2.95223 0
M  V30 1173 C 108.734 -3.06061 -3.04878 0
M  V30 1174 C 107.869 -3.06626 -4.33767 0
M  V30 1175 C 106.908 -4.28443 -4.37154 0
M  V30 1176 N 106.045 -4.26763 -5.5751 0
M  V30 1177 H 110.885 -2.6273 -1.40631 0
M  V30 1178 H 108.422 -1.30241 -0.683789 0
M  V30 1179 H 110.38 -1.82344 -3.75242 0
M  V30 1180 H 109.01 -0.883806 -3.10465 0
M  V30 1181 H 108.062 -3.11911 -2.17751 0
M  V30 1182 H 109.374 -3.96039 -3.0324 0
M  V30 1183 H 108.528 -3.08973 -5.22131 0
M  V30 1184 H 107.267 -2.14473 -4.3801 0
M  V30 1185 H 106.272 -4.2631 -3.47188 0
M  V30 1186 H 107.497 -5.2182 -4.34605 0
M  V30 1187 H 105.443 -3.37462 -5.62544 0
M  V30 1188 H 105.36 -5.10507 -5.57601 0
M  V30 1189 H 106.628 -4.33253 -6.48006 0
M  V30 1190 N 110.857 0.726932 -1.39834 0
M  V30 1191 C 112.103 1.48884 -1.377 0
M  V30 1192 C 112.436 1.94185 0.0244852 0
M  V30 1193 O 111.711 1.67361 0.990986 0
M  V30 1194 C 111.994 2.72288 -2.3565 0
M  V30 1195 C 111.847 2.32956 -3.84775 0
M  V30 1196 C 113.166 3.74414 -2.31306 0
M  V30 1197 H 110.285 0.540062 -0.5015 0
M  V30 1198 H 112.927 0.830547 -1.70886 0
M  V30 1199 H 111.077 3.28457 -2.07481 0
M  V30 1200 H 112.749 1.82356 -4.23726 0
M  V30 1201 H 110.992 1.65088 -4.01159 0
M  V30 1202 H 111.663 3.21362 -4.4881 0
M  V30 1203 H 114.139 3.27849 -2.56231 0
M  V30 1204 H 113.015 4.58414 -3.01907 0
M  V30 1205 H 113.276 4.21909 -1.32081 0
M  V30 1206 N 112.336 1.25143 0.95797 0
M  V30 1207 C 113.299 1.05321 2.03569 0
M  V30 1208 C 114.299 0.007152 1.60798 0
M  V30 1209 O 115.489 0.24903 1.72411 0
M  V30 1210 C 112.621 0.598394 3.35607 0
M  V30 1211 H 113.814 2.00986 2.22586 0
M  V30 1212 H 111.367 1.07502 1.13459 0
M  V30 1213 H 112.102 -0.361014 3.22284 0
M  V30 1214 H 111.887 1.35351 3.67998 0
M  V30 1215 H 113.377 0.48104 4.1482 0
M  V30 1216 N 113.814 -1.1601 1.06675 0
M  V30 1217 C 114.744 -2.22688 0.702307 0
M  V30 1218 C 115.725 -1.67306 -0.307032 0
M  V30 1219 O 116.91 -1.93352 -0.181305 0
M  V30 1220 C 114.04 -3.47178 0.092038 0
M  V30 1221 C 112.994 -4.15477 1.02777 0
M  V30 1222 C 112.32 -5.33963 0.28061 0
M  V30 1223 C 113.62 -4.66019 2.35846 0
M  V30 1224 H 115.314 -2.53429 1.59419 0
M  V30 1225 H 112.86 -1.21813 0.767961 0
M  V30 1226 H 114.813 -4.21037 -0.174814 0
M  V30 1227 H 113.537 -3.15749 -0.834877 0
M  V30 1228 H 112.196 -3.43549 1.27944 0
M  V30 1229 H 111.844 -4.98788 -0.649545 0
M  V30 1230 H 111.544 -5.806 0.904258 0
M  V30 1231 H 113.068 -6.10596 0.021396 0
M  V30 1232 H 114.482 -5.3144 2.15045 0
M  V30 1233 H 112.879 -5.23293 2.93743 0
M  V30 1234 H 113.949 -3.82023 2.98641 0
M  V30 1235 N 115.292 -0.849877 -1.32721 0
M  V30 1236 C 116.569 -0.372405 -1.92022 0
M  V30 1237 C 116.949 1.1435 -1.77447 0
M  V30 1238 O 116.297 1.96296 -1.16962 0
M  V30 1239 C 116.507 -0.831482 -3.3895 0
M  V30 1240 C 117.855 -0.845882 -4.16089 0
M  V30 1241 O 118.879 -0.775806 -3.47649 0
M  V30 1242 O 117.738 -0.943753 -5.38289 0
M  V30 1243 H 114.832 -0.107667 -0.819961 0
M  V30 1244 H 117.378 -0.93646 -1.41522 0
M  V30 1245 H 116.15 -1.87448 -3.4348 0
M  V30 1246 H 115.773 -0.24461 -3.96847 0
M  V30 1247 N 116.77 1.45427 -0.607355 0
M  V30 1248 C 117.717 2.3053 0.111625 0
M  V30 1249 C 118.687 1.4209 0.860216 0
M  V30 1250 O 119.872 1.71019 0.845998 0
M  V30 1251 C 117.012 3.26992 1.10319 0
M  V30 1252 C 116.125 4.30535 0.355493 0
M  V30 1253 C 115.26 5.14105 1.33676 0
M  V30 1254 C 114.299 6.09376 0.576862 0
M  V30 1255 N 113.436 6.85727 1.5074 0
M  V30 1256 H 118.276 2.91477 -0.620093 0
M  V30 1257 H 115.813 1.43631 -0.317594 0
M  V30 1258 H 117.771 3.81385 1.6912 0
M  V30 1259 H 116.401 2.67799 1.80232 0
M  V30 1260 H 115.453 3.78805 -0.348023 0
M  V30 1261 H 116.765 4.98235 -0.237423 0
M  V30 1262 H 115.919 5.72897 1.99684 0
M  V30 1263 H 114.658 4.46423 1.9636 0
M  V30 1264 H 113.663 5.49715 -0.0968519 0
M  V30 1265 H 114.888 6.79085 -0.0449341 0
M  V30 1266 H 112.834 6.20735 2.12189 0
M  V30 1267 H 112.751 7.49778 0.967913 0
M  V30 1268 H 114.019 7.4906 2.15706 0
M  V30 1269 N 118.248 0.346503 1.53744 0
M  V30 1270 C 119.525 -0.304532 1.93215 0
M  V30 1271 C 119.905 -1.67993 1.27834 0
M  V30 1272 O 119.253 -2.24411 0.430352 0
M  V30 1273 C 119.463 -0.373852 3.46992 0
M  V30 1274 C 120.811 -0.62329 4.2 0
M  V30 1275 O 121.835 -0.455847 3.53271 0
M  V30 1276 O 120.694 -0.947879 5.38217 0
M  V30 1277 H 117.788 -0.178318 0.807547 0
M  V30 1278 H 120.334 0.397895 1.64969 0
M  V30 1279 H 119.106 0.591224 3.86808 0
M  V30 1280 H 118.729 -1.12294 3.81413 0
M  V30 1281 N 119.726 -1.57421 0.075193 0
M  V30 1282 C 121.137 -1.81021 -0.456964 0
M  V30 1283 C 121.488 -0.98936 -1.69429 0
M  V30 1284 O 120.613 -0.212865 -2.15351 0
M  V30 1285 C 121.208 -3.28329 -0.83581 0
M  V30 1286 C 119.767 -3.52764 -1.31281 0
M  V30 1287 C 118.914 -2.75676 -0.299648 0
M  V30 1288 H 121.865 -1.55822 0.300856 0
M  V30 1289 H 121.886 -3.40564 -1.69696 0
M  V30 1290 H 121.398 -3.88046 0.0649238 0
M  V30 1291 H 119.499 -2.98355 -2.23193 0
M  V30 1292 H 119.612 -4.61451 -1.28839 0
M  V30 1293 H 117.976 -2.42538 -0.777641 0
M  V30 1294 H 118.759 -3.38132 0.593417 0
M  V30 1295 N 121.204 0.198386 -1.56346 0
M  V30 1296 C 122.444 0.92609 -1.82217 0
M  V30 1297 C 122.808 1.80584 -0.652195 0
M  V30 1298 O 124.009 2.56907 -0.790716 0
M  V30 1299 C 122.28 1.72354 -3.13096 0
M  V30 1300 S 123.839 2.50371 -3.6036 0
M  V30 1301 H 120.657 0.310677 -0.639532 0
M  V30 1302 H 123.259 0.189755 -1.94577 0
M  V30 1303 H 121.963 1.0678 -3.96265 0
M  V30 1304 H 121.494 2.50175 -3.03605 0
M  V30 1305 H 123.509 3.74488 -3.25535 0
M  V30 1306 N 122.682 1.50554 0.465978 0
M  V30 1307 C 123.907 1.65838 1.24549 0
M  V30 1308 C 124.332 0.343486 1.84937 0
M  V30 1309 O 123.69 -0.69324 1.67523 0
M  V30 1310 C 123.738 2.75533 2.32624 0
M  V30 1311 O 122.842 2.37142 3.37398 0
M  V30 1312 H 122.183 0.553893 0.366194 0
M  V30 1313 H 124.713 1.96959 0.553927 0
M  V30 1314 H 124.723 2.98763 2.77857 0
M  V30 1315 H 123.398 3.70962 1.88043 0
M  V30 1316 H 121.975 2.24377 2.97841 0
M  V30 1317 N 124.16 -0.719506 1.40217 0
M  V30 1318 C 125.406 -1.48152 1.38488 0
M  V30 1319 C 125.739 -1.94195 -0.0141867 0
M  V30 1320 O 125.014 -1.67884 -0.982096 0
M  V30 1321 C 125.297 -2.71035 2.37091 0
M  V30 1322 C 125.15 -2.30912 3.86005 0
M  V30 1323 C 126.469 -3.73182 2.33288 0
M  V30 1324 H 123.588 -0.537395 0.504357 0
M  V30 1325 H 126.23 -0.821472 1.71324 0
M  V30 1326 H 124.38 -3.27352 2.0922 0
M  V30 1327 H 126.052 -1.80107 4.24687 0
M  V30 1328 H 124.295 -1.62958 4.02029 0
M  V30 1329 H 124.966 -3.18978 4.50508 0
M  V30 1330 H 127.442 -3.26485 2.57966 0
M  V30 1331 H 126.318 -4.56806 3.04334 0
M  V30 1332 H 126.579 -4.21202 1.34317 0
M  V30 1333 N 125.638 -1.25649 -0.95132 0
M  V30 1334 C 126.568 -1.08808 -2.06599 0
M  V30 1335 C 127.549 0.00382547 -1.701 0
M  V30 1336 O 128.734 -0.166325 -1.93486 0
M  V30 1337 C 125.864 -0.709542 -3.39975 0
M  V30 1338 C 124.818 -1.75206 -3.90496 0
M  V30 1339 C 124.144 -1.22811 -5.20405 0
M  V30 1340 C 125.444 -3.15153 -4.16504 0
M  V30 1341 H 127.138 -2.02048 -2.20946 0
M  V30 1342 H 124.684 -0.972835 -1.06169 0
M  V30 1343 H 126.637 -0.578649 -4.17408 0
M  V30 1344 H 125.361 0.258556 -3.25575 0
M  V30 1345 H 124.02 -1.87145 -3.15234 0
M  V30 1346 H 123.668 -0.250145 -5.02378 0
M  V30 1347 H 123.368 -1.92492 -5.55176 0
M  V30 1348 H 124.892 -1.10968 -6.00432 0
M  V30 1349 H 126.306 -3.06349 -4.84586 0
M  V30 1350 H 124.703 -3.82333 -4.62538 0
M  V30 1351 H 125.773 -3.61966 -3.22658 0
M  V30 1352 N 127.117 1.15442 -1.07289 0
M  V30 1353 C 128.528 1.67803 -0.818475 0
M  V30 1354 C 128.879 1.8489 0.656507 0
M  V30 1355 O 128.004 1.55176 1.50829 0
M  V30 1356 C 128.599 3.04805 -1.47917 0
M  V30 1357 C 127.158 3.54245 -1.27229 0
M  V30 1358 C 126.305 2.29986 -1.54925 0
M  V30 1359 H 129.256 0.996646 -1.23502 0
M  V30 1360 H 129.277 3.69702 -0.90005 0
M  V30 1361 H 128.789 2.92336 -2.55267 0
M  V30 1362 H 126.89 3.71956 -0.21899 0
M  V30 1363 H 127.003 4.35723 -1.99203 0
M  V30 1364 H 125.367 2.35496 -0.970242 0
M  V30 1365 H 126.15 2.20105 -2.63455 0
M  V30 1366 N 128.595 0.856903 1.32268 0
M  V30 1367 C 129.82 0.474569 2.01897 0
M  V30 1368 C 130.245 -0.921766 1.63967 0
M  V30 1369 O 129.603 -1.60589 0.84148 0
M  V30 1370 C 129.651 0.623799 3.55164 0
M  V30 1371 O 128.755 -0.342459 4.10976 0
M  V30 1372 H 128.096 0.190422 0.63611 0
M  V30 1373 H 130.626 1.15672 1.68764 0
M  V30 1374 H 130.636 0.512169 4.04773 0
M  V30 1375 H 129.311 1.64202 3.82113 0
M  V30 1376 H 127.888 -0.18688 3.72431 0
M  V30 1377 N 130.073 -1.45103 0.615059 0
M  V30 1378 C 131.35 -1.95549 0.0448276 0
M  V30 1379 C 131.73 -1.55737 -1.4251 0
M  V30 1380 O 131.078 -0.823556 -2.13143 0
M  V30 1381 C 131.288 -3.48098 0.250785 0
M  V30 1382 C 132.636 -4.24384 0.135509 0
M  V30 1383 O 133.66 -3.55738 0.181299 0
M  V30 1384 O 132.519 -5.46493 0.0268878 0
M  V30 1385 H 129.613 -0.8264 -0.0314845 0
M  V30 1386 H 132.159 -1.55232 0.685642 0
M  V30 1387 H 130.931 -3.7007 1.27139 0
M  V30 1388 H 130.554 -3.95323 -0.424937 0
M  V30 1389 N 131.551 -0.354651 -1.53558 0
M  V30 1390 C 132.781 0.239167 -2.05211 0
M  V30 1391 C 133.189 1.43879 -1.22863 0
M  V30 1392 O 132.532 1.81857 -0.259565 0
M  V30 1393 C 132.594 0.707251 -3.52474 0
M  V30 1394 C 132.258 -0.374212 -4.55465 0
M  V30 1395 C 133.255 -1.22054 -5.0537 0
M  V30 1396 C 130.94 -0.531323 -4.99482 0
M  V30 1397 C 132.934 -2.20942 -5.97882 0
M  V30 1398 C 130.621 -1.52358 -5.91802 0
M  V30 1399 C 131.619 -2.36108 -6.40892 0
M  V30 1400 O 131.307 -3.33643 -7.31394 0
M  V30 1401 H 131.039 0.0479716 -0.674296 0
M  V30 1402 H 133.593 -0.508121 -1.99016 0
M  V30 1403 H 131.823 1.50596 -3.56171 0
M  V30 1404 H 133.512 1.22285 -3.87042 0
M  V30 1405 H 134.278 -1.1103 -4.7212 0
M  V30 1406 H 130.157 0.110738 -4.60867 0
M  V30 1407 H 133.701 -2.86348 -6.36121 0
M  V30 1408 H 129.598 -1.63434 -6.24467 0
M  V30 1409 H 130.366 -3.29244 -7.4936 0
M  V30 1410 N 133.029 1.57378 -0.0835403 0
M  V30 1411 C 134.306 1.85363 0.624507 0
M  V30 1412 C 134.686 0.978239 1.87066 0
M  V30 1413 O 134.034 0.0475908 2.2845 0
M  V30 1414 C 134.244 3.35795 0.950947 0
M  V30 1415 C 135.592 4.03581 1.31939 0
M  V30 1416 O 136.616 3.40609 1.04232 0
M  V30 1417 O 135.475 5.14672 1.83779 0
M  V30 1418 H 132.569 0.766162 0.311329 0
M  V30 1419 H 135.115 1.69307 -0.115362 0
M  V30 1420 H 133.887 3.91244 0.0663899 0
M  V30 1421 H 133.51 3.57154 1.74719 0
M  V30 1422 N 134.507 -0.190092 1.56449 0
M  V30 1423 C 135.437 -1.23816 1.97969 0
M  V30 1424 C 136.418 -1.47201 0.852395 0
M  V30 1425 O 137.603 -1.58854 1.1171 0
M  V30 1426 C 134.733 -2.5813 2.3235 0
M  V30 1427 C 133.687 -2.49348 3.47864 0
M  V30 1428 C 133.013 -3.8798 3.67934 0
M  V30 1429 C 134.313 -2.01424 4.81898 0
M  V30 1430 H 136.007 -0.89311 2.85769 0
M  V30 1431 H 133.553 -0.428177 1.37487 0
M  V30 1432 H 135.506 -3.31637 2.59991 0
M  V30 1433 H 134.23 -2.94386 1.41438 0
M  V30 1434 H 132.889 -1.78297 3.20321 0
M  V30 1435 H 132.537 -4.21597 2.74344 0
M  V30 1436 H 132.237 -3.82978 4.45648 0
M  V30 1437 H 133.761 -4.63101 3.97957 0
M  V30 1438 H 135.175 -2.64693 5.08538 0
M  V30 1439 H 133.572 -2.07413 5.63116 0
M  V30 1440 H 134.642 -0.967677 4.75146 0
M  V30 1441 N 135.985 -1.50799 -0.457987 0
M  V30 1442 C 137.232 -1.62442 -1.20908 0
M  V30 1443 C 137.56 -0.330865 -1.91665 0
M  V30 1444 O 136.815 0.68401 -1.83357 0
M  V30 1445 C 137.114 -2.76358 -2.2663 0
M  V30 1446 C 136.78 -4.16378 -1.73033 0
M  V30 1447 C 135.442 -4.54473 -1.58138 0
M  V30 1448 C 137.794 -5.03836 -1.33413 0
M  V30 1449 C 135.122 -5.77754 -1.02065 0
M  V30 1450 C 137.474 -6.27676 -0.78778 0
M  V30 1451 C 136.138 -6.64562 -0.625561 0
M  V30 1452 H 135.408 -0.594417 -0.442435 0
M  V30 1453 H 138.055 -1.84772 -0.503136 0
M  V30 1454 H 136.36 -2.48167 -3.03184 0
M  V30 1455 H 138.057 -2.82568 -2.84528 0
M  V30 1456 H 134.647 -3.86331 -1.85598 0
M  V30 1457 H 138.831 -4.75026 -1.4375 0
M  V30 1458 H 134.087 -6.04997 -0.882547 0
M  V30 1459 H 138.261 -6.94797 -0.472177 0
M  V30 1460 H 135.888 -7.59965 -0.188926 0
M  V30 1461 N 137.463 0.71206 -1.40597 0
M  V30 1462 C 138.712 1.46754 -1.38369 0
M  V30 1463 C 139.025 1.95598 0.0097839 0
M  V30 1464 O 140.231 2.71059 0.154677 0
M  V30 1465 C 138.687 2.65289 -2.43207 0
M  V30 1466 C 138.295 2.23301 -3.88382 0
M  V30 1467 C 140.039 3.43008 -2.50091 0
M  V30 1468 C 137.946 3.38696 -4.84808 0
M  V30 1469 H 136.876 0.55118 -0.514506 0
M  V30 1470 H 139.527 0.774616 -1.66349 0
M  V30 1471 H 137.909 3.36769 -2.08332 0
M  V30 1472 H 139.083 1.59218 -4.32419 0
M  V30 1473 H 137.398 1.58618 -3.85006 0
M  V30 1474 H 139.995 4.28881 -3.1932 0
M  V30 1475 H 140.338 3.87065 -1.53253 0
M  V30 1476 H 140.871 2.78574 -2.83974 0
M  V30 1477 H 137.61 2.99668 -5.82992 0
M  V30 1478 H 137.13 4.01683 -4.45433 0
M  V30 1479 H 138.809 4.04712 -5.04794 0
M  V30 1480 N 138.941 1.26152 0.944643 0
M  V30 1481 C 139.889 1.07215 2.06417 0
M  V30 1482 C 140.883 9.2007e-05 1.694 0
M  V30 1483 O 142.089 0.1565 1.79318 0
M  V30 1484 H 138.464 0.329837 0.675805 0
M  V30 1485 H 140.435 2.02099 2.19541 0
M  V30 1486 C 139.184 0.718197 3.40202 0
M  V30 1487 H 138.507 1.53497 3.69159 0
M  V30 1488 H 139.947 0.625459 4.19361 0
M  V30 1489 C 138.406 -0.576435 3.31932 0
M  V30 1490 O 138.936 -1.61574 3.67773 0
M  V30 1491 N 137.142 -0.565781 2.85039 0
M  V30 1492 H 136.689 0.280367 2.5607 0
M  V30 1493 H 136.647 -1.43213 2.79888 0
M  V30 1494 N 140.419 -1.14872 1.07899 0
M  V30 1495 C 141.349 -2.2193 0.725887 0
M  V30 1496 C 142.33 -1.67622 -0.28927 0
M  V30 1497 O 143.515 -1.93533 -0.160787 0
M  V30 1498 C 140.645 -3.47061 0.128856 0
M  V30 1499 C 139.599 -4.14363 1.07178 0
M  V30 1500 C 138.925 -5.33636 0.337229 0
M  V30 1501 C 140.225 -4.63492 2.40775 0
M  V30 1502 H 141.919 -2.51724 1.62097 0
M  V30 1503 H 139.465 -1.20991 0.780838 0
M  V30 1504 H 141.418 -4.21199 -0.130147 0
M  V30 1505 H 140.142 -3.16617 -0.80134 0
M  V30 1506 H 138.801 -3.42173 1.3158 0
M  V30 1507 H 138.449 -4.99449 -0.596606 0
M  V30 1508 H 138.149 -5.79609 0.965788 0
M  V30 1509 H 139.673 -6.10539 0.0861567 0
M  V30 1510 H 141.087 -5.2913 2.20669 0
M  V30 1511 H 139.484 -5.20148 2.99276 0
M  V30 1512 H 140.554 -3.78834 3.02676 0
M  V30 1513 N 141.898 -0.863906 -1.31812 0
M  V30 1514 C 143.123 -0.48527 -2.01643 0
M  V30 1515 C 143.548 0.913058 -1.64453 0
M  V30 1516 O 142.906 1.6014 -0.849985 0
M  V30 1517 C 142.954 -0.642625 -3.54828 0
M  V30 1518 O 142.058 0.320659 -4.11151 0
M  V30 1519 H 141.399 -0.193793 -0.635091 0
M  V30 1520 H 143.929 -1.16565 -1.68148 0
M  V30 1521 H 143.939 -0.533628 -4.04495 0
M  V30 1522 H 142.614 -1.66227 -3.81237 0
M  V30 1523 H 141.191 0.167126 -3.72525 0
M  V30 1524 N 143.376 1.44774 -0.622745 0
M  V30 1525 C 144.792 1.56986 -0.287652 0
M  V30 1526 C 144.992 1.61167 1.20944 0
M  V30 1527 O 144.048 1.55015 1.99315 0
M  V30 1528 C 145.361 2.84551 -0.972188 0
M  V30 1529 C 146.909 2.9825 -0.949536 0
M  V30 1530 C 147.384 4.28605 -1.61437 0
M  V30 1531 N 148.875 4.35399 -1.58057 0
M  V30 1532 C 149.61 5.34964 -2.064 0
M  V30 1533 N 149.106 6.40981 -2.62897 0
M  V30 1534 N 150.899 5.26419 -1.97078 0
M  V30 1535 H 143.05 1.40304 -1.59463 0
M  V30 1536 H 145.313 0.671794 -0.668878 0
M  V30 1537 H 145.019 2.87417 -2.02693 0
M  V30 1538 H 144.893 3.73807 -0.504771 0
M  V30 1539 H 147.28 2.94941 0.0967067 0
M  V30 1540 H 147.361 2.10364 -1.45536 0
M  V30 1541 H 147.005 4.32672 -2.66002 0
M  V30 1542 H 146.935 5.15334 -1.08344 0
M  V30 1543 H 149.426 3.59397 -1.16801 0
M  V30 1544 H 149.739 7.13225 -2.97539 0
M  V30 1545 H 148.084 6.4169 -2.66943 0
M  V30 1546 H 151.275 4.42504 -1.52669 0
M  V30 1547 H 151.448 6.03861 -2.35066 0
M  V30 1548 N 144.854 0.36279 1.53368 0
M  V30 1549 C 145.804 -0.501391 2.22419 0
M  V30 1550 C 146.788 -1.0509 1.2184 0
M  V30 1551 O 147.98 -0.981404 1.47301 0
M  V30 1552 C 145.109 -1.64201 3.01484 0
M  V30 1553 C 144.195 -1.10552 4.09438 0
M  V30 1554 N 144.586 -0.291788 5.04958 0
M  V30 1555 C 142.884 -1.3806 4.24094 0
M  V30 1556 C 143.585 0.00162655 5.817 0
M  V30 1557 N 142.561 -0.595244 5.40331 0
M  V30 1558 H 146.363 0.127159 2.93625 0
M  V30 1559 H 143.877 0.170658 1.61501 0
M  V30 1560 H 145.874 -2.27326 3.49469 0
M  V30 1561 H 144.534 -2.27365 2.31809 0
M  V30 1562 H 145.545 0.0687731 5.17854 0
M  V30 1563 H 142.222 -2.01522 3.65644 0
M  V30 1564 H 143.612 0.659278 6.68658 0
M  V30 1565 N 146.332 -1.57332 0.0918853 0
M  V30 1566 C 147.557 -1.98995 -0.584442 0
M  V30 1567 C 147.982 -0.970528 -1.61128 0
M  V30 1568 O 147.34 0.0613904 -1.81196 0
M  V30 1569 C 147.388 -3.39636 -1.21161 0
M  V30 1570 O 146.492 -3.40447 -2.32744 0
M  V30 1571 H 145.833 -0.647165 -0.148572 0
M  V30 1572 H 148.363 -2.03873 0.172347 0
M  V30 1573 H 148.373 -3.7726 -1.55367 0
M  V30 1574 H 147.048 -4.13356 -0.459313 0
M  V30 1575 H 145.625 -3.14614 -2.0018 0
M  V30 1576 N 147.81 0.181792 -1.56548 0
M  V30 1577 C 149.059 0.898348 -1.8059 0
M  V30 1578 C 149.372 1.83862 -0.667379 0
M  V30 1579 O 150.578 2.59678 -0.792446 0
M  V30 1580 C 149.034 1.64791 -3.19956 0
M  V30 1581 C 148.642 0.751789 -4.41647 0
M  V30 1582 C 150.386 2.35331 -3.53298 0
M  V30 1583 C 148.293 1.50098 -5.72035 0
M  V30 1584 H 147.223 0.339194 -0.673397 0
M  V30 1585 H 149.874 0.151413 -1.82874 0
M  V30 1586 H 148.256 2.43921 -3.11959 0
M  V30 1587 H 149.43 -0.0018076 -4.608 0
M  V30 1588 H 147.745 0.156562 -4.16106 0
M  V30 1589 H 150.342 2.91958 -4.47956 0
M  V30 1590 H 150.685 3.10164 -2.77676 0
M  V30 1591 H 151.218 1.63154 -3.62803 0
M  V30 1592 H 147.957 0.795175 -6.50659 0
M  V30 1593 H 147.477 2.22817 -5.56878 0
M  V30 1594 H 149.156 2.05125 -6.13622 0
M  V30 1595 N 149.288 1.51039 0.449983 0
M  V30 1596 C 150.699 1.557 1.03026 0
M  V30 1597 C 151.05 0.372939 1.92623 0
M  V30 1598 O 150.175 -0.511771 2.10261 0
M  V30 1599 C 150.77 2.82171 1.87523 0
M  V30 1600 C 149.329 2.89444 2.40622 0
M  V30 1601 C 148.476 2.50228 1.19504 0
M  V30 1602 H 151.427 1.56999 0.231745 0
M  V30 1603 H 151.448 2.65219 2.72835 0
M  V30 1604 H 150.96 3.68331 1.22286 0
M  V30 1605 H 149.061 2.07685 3.0935 0
M  V30 1606 H 149.174 3.92816 2.74285 0
M  V30 1607 H 147.538 2.03139 1.53644 0
M  V30 1608 H 148.321 3.38719 0.558972 0
M  V30 1609 N 150.766 -0.704594 1.40972 0
M  V30 1610 C 152.182 -1.01406 1.23244 0
M  V30 1611 C 152.382 -2.01169 0.115399 0
M  V30 1612 O 151.438 -2.47021 -0.523147 0
M  V30 1613 C 152.751 -1.54728 2.57836 0
M  V30 1614 C 154.299 -1.66658 2.64942 0
M  V30 1615 C 154.774 -2.23383 3.9983 0
M  V30 1616 N 156.265 -2.30756 4.01629 0
M  V30 1617 C 157 -2.75655 5.02794 0
M  V30 1618 N 156.496 -3.20225 6.14352 0
M  V30 1619 N 158.289 -2.75138 4.90159 0
M  V30 1620 H 150.44 -0.0435285 2.12355 0
M  V30 1621 H 152.703 -0.0818951 0.944456 0
M  V30 1622 H 152.409 -0.888832 3.40283 0
M  V30 1623 H 152.283 -2.53084 2.79693 0
M  V30 1624 H 154.67 -2.31617 1.8286 0
M  V30 1625 H 154.751 -0.668717 2.46904 0
M  V30 1626 H 154.395 -1.59043 4.82357 0
M  V30 1627 H 154.325 -3.23904 4.15203 0
M  V30 1628 H 156.816 -1.99291 3.21079 0
M  V30 1629 H 157.129 -3.53084 6.87424 0
M  V30 1630 H 155.474 -3.18156 6.17901 0
M  V30 1631 H 158.665 -2.39661 4.02095 0
M  V30 1632 H 158.838 -3.09812 5.6914 0
M  V30 1633 N 152.244 -1.26651 -0.937939 0
M  V30 1634 C 153.521 -1.0313 -1.66204 0
M  V30 1635 C 153.901 0.437256 -2.06522 0
M  V30 1636 O 153.249 1.41831 -1.79154 0
M  V30 1637 C 153.459 -1.98314 -2.87181 0
M  V30 1638 C 154.807 -2.27107 -3.58758 0
M  V30 1639 O 155.831 -1.96205 -2.97291 0
M  V30 1640 O 154.69 -2.79736 -4.69479 0
M  V30 1641 H 151.784 -0.392384 -0.727986 0
M  V30 1642 H 154.33 -1.37874 -0.989382 0
M  V30 1643 H 153.102 -2.97399 -2.54302 0
M  V30 1644 H 152.725 -1.64068 -3.6217 0
M  V30 1645 N 153.722 1.14298 -1.08507 0
M  V30 1646 C 154.669 2.19414 -0.715965 0
M  V30 1647 C 155.639 1.63399 0.298326 0
M  V30 1648 O 156.824 1.89929 0.182101 0
M  V30 1649 C 153.964 3.44845 -0.132534 0
M  V30 1650 C 153.077 4.15007 -1.19973 0
M  V30 1651 C 152.212 5.28024 -0.580048 0
M  V30 1652 C 151.251 5.9002 -1.62921 0
M  V30 1653 N 150.388 6.94485 -1.03125 0
M  V30 1654 H 155.228 2.50336 -1.61666 0
M  V30 1655 H 152.765 1.2293 -0.807882 0
M  V30 1656 H 154.723 4.16601 0.223454 0
M  V30 1657 H 153.353 3.14403 0.731467 0
M  V30 1658 H 152.405 3.41629 -1.67313 0
M  V30 1659 H 153.717 4.57178 -1.99473 0
M  V30 1660 H 152.871 6.06455 -0.172364 0
M  V30 1661 H 151.61 4.87076 0.246603 0
M  V30 1662 H 150.615 5.10291 -2.04654 0
M  V30 1663 H 151.84 6.33042 -2.45835 0
M  V30 1664 H 149.786 6.55612 -0.225711 0
M  V30 1665 H 149.703 7.35148 -1.76334 0
M  V30 1666 H 150.971 7.7679 -0.649458 0
M  V30 1667 N 155.201 0.870884 1.31352 0
M  V30 1668 C 156.426 0.495957 2.01383 0
M  V30 1669 C 156.851 -0.904324 1.64935 0
M  V30 1670 O 156.209 -1.59687 0.858466 0
M  V30 1671 C 156.257 0.661433 3.54482 0
M  V30 1672 O 155.361 -0.298851 4.11316 0
M  V30 1673 H 154.702 0.197158 0.634054 0
M  V30 1674 H 157.232 1.17455 1.67527 0
M  V30 1675 H 157.242 0.555072 4.04207 0
M  V30 1676 H 155.917 1.68246 3.8035 0
M  V30 1677 H 154.494 -0.147368 3.72609 0
M  V30 1678 N 156.679 -1.44442 0.630414 0
M  V30 1679 C 157.609 -2.33418 -0.0618083 0
M  V30 1680 C 158.59 -1.48165 -0.835541 0
M  V30 1681 O 159.775 -1.76886 -0.801564 0
M  V30 1682 C 156.905 -3.31222 -1.04449 0
M  V30 1683 C 155.859 -4.26288 -0.382436 0
M  V30 1684 C 155.185 -5.13954 -1.47497 0
M  V30 1685 C 156.485 -5.1744 0.710865 0
M  V30 1686 H 158.179 -2.91548 0.681184 0
M  V30 1687 H 155.725 -1.40191 0.329026 0
M  V30 1688 H 157.678 -3.92351 -1.53748 0
M  V30 1689 H 156.402 -2.71299 -1.81836 0
M  V30 1690 H 155.061 -3.6649 0.0899054 0
M  V30 1691 H 154.709 -4.50385 -2.2397 0
M  V30 1692 H 154.409 -5.7837 -1.03737 0
M  V30 1693 H 155.933 -5.77955 -1.96979 0
M  V30 1694 H 157.347 -5.72509 0.300996 0
M  V30 1695 H 155.744 -5.90455 1.07156 0
M  V30 1696 H 156.814 -4.58496 1.57829 0
M  V30 1697 N 158.157 -0.370918 -1.53173 0
M  V30 1698 C 159.404 0.217102 -2.01333 0
M  V30 1699 C 159.732 1.48338 -1.25802 0
M  V30 1700 O 158.987 1.92698 -0.34146 0
M  V30 1701 C 159.286 0.549696 -3.53147 0
M  V30 1702 C 158.952 -0.622872 -4.46577 0
M  V30 1703 C 157.614 -0.944595 -4.71838 0
M  V30 1704 C 159.966 -1.40819 -5.01816 0
M  V30 1705 C 157.294 -2.05351 -5.49589 0
M  V30 1706 C 159.646 -2.50757 -5.80778 0
M  V30 1707 C 158.31 -2.83458 -6.04324 0
M  V30 1708 H 157.58 0.0794431 -0.736729 0
M  V30 1709 H 160.227 -0.504481 -1.84736 0
M  V30 1710 H 158.532 1.35237 -3.6772 0
M  V30 1711 H 160.229 1.017 -3.87889 0
M  V30 1712 H 156.819 -0.36209 -4.27068 0
M  V30 1713 H 161.003 -1.17289 -4.82242 0
M  V30 1714 H 156.259 -2.3108 -5.6605 0
M  V30 1715 H 160.433 -3.12022 -6.22588 0
M  V30 1716 H 158.06 -3.69508 -6.64355 0
M  V30 1717 N 159.635 1.57281 -0.100228 0
M  V30 1718 C 160.881 1.95626 0.556946 0
M  V30 1719 C 161.236 0.981655 1.65473 0
M  V30 1720 O 160.529 0.00849847 1.91598 0
M  V30 1721 C 160.723 3.38305 1.15259 0
M  V30 1722 C 160.552 4.49555 0.114035 0
M  V30 1723 C 159.322 5.0434 -0.311266 0
M  V30 1724 C 161.52 5.10051 -0.659768 0
M  V30 1725 N 159.502 5.99152 -1.33755 0
M  V30 1726 C 160.873 6.00628 -1.53774 0
M  V30 1727 C 162.928 4.92772 -0.712723 0
M  V30 1728 C 161.631 6.7578 -2.46403 0
M  V30 1729 C 163.657 5.6859 -1.62663 0
M  V30 1730 C 163.019 6.58838 -2.49222 0
M  V30 1731 H 159.118 0.7624 0.173982 0
M  V30 1732 H 161.702 1.93829 -0.183988 0
M  V30 1733 H 159.873 3.40786 1.86332 0
M  V30 1734 H 161.605 3.63817 1.77254 0
M  V30 1735 H 158.36 4.73537 0.0774812 0
M  V30 1736 H 158.784 6.5126 -1.84905 0
M  V30 1737 H 163.426 4.22761 -0.0576648 0
M  V30 1738 H 161.144 7.4505 -3.12931 0
M  V30 1739 H 164.73 5.57233 -1.67281 0
M  V30 1740 H 163.61 7.16479 -3.18791 0
M  V30 1741 N 161.113 -0.173488 1.56642 0
M  V30 1742 C 162.023 -1.23482 1.99473 0
M  V30 1743 C 163.039 -1.48567 0.905752 0
M  V30 1744 O 164.215 -1.60758 1.21321 0
M  V30 1745 C 161.28 -2.55444 2.34413 0
M  V30 1746 C 160.341 -2.38241 3.57127 0
M  V30 1747 C 159.574 -3.63909 3.90392 0
M  V30 1748 O 159.797 -4.68996 3.24653 0
M  V30 1749 O 158.731 -3.58149 4.83749 0
M  V30 1750 H 162.557 -0.901279 2.90018 0
M  V30 1751 H 160.142 -0.380185 1.44482 0
M  V30 1752 H 162.024 -3.33292 2.57865 0
M  V30 1753 H 160.699 -2.88382 1.4703 0
M  V30 1754 H 159.606 -1.58431 3.38896 0
M  V30 1755 H 160.939 -2.10228 4.45045 0
M  V30 1756 N 162.591 -1.51276 -0.441967 0
M  V30 1757 C 163.539 -1.72823 -1.55676 0
M  V30 1758 C 164.533 -0.59445 -1.58627 0
M  V30 1759 O 165.739 -0.775715 -1.62427 0
M  V30 1760 H 162.114 -0.545983 -0.517113 0
M  V30 1761 H 164.085 -2.6628 -1.34675 0
M  V30 1762 C 162.834 -1.86619 -2.93375 0
M  V30 1763 H 162.157 -2.73264 -2.91834 0
M  V30 1764 H 163.597 -2.05709 -3.70756 0
M  V30 1765 C 162.056 -0.624842 -3.31055 0
M  V30 1766 O 162.586 0.222636 -4.01083 0
M  V30 1767 N 160.792 -0.470288 -2.86769 0
M  V30 1768 H 160.339 -1.161 -2.29953 0
M  V30 1769 H 160.297 0.359051 -3.12343 0
M  V30 1770 N 164.069 0.697108 -1.41344 0
M  V30 1771 C 165.294 1.49096 -1.44171 0
M  V30 1772 C 165.719 1.88038 -0.0481568 0
M  V30 1773 O 165.077 1.54525 0.948243 0
M  V30 1774 C 165.125 2.73088 -2.3549 0
M  V30 1775 O 164.229 3.70514 -1.81088 0
M  V30 1776 H 163.57 0.448801 -0.489361 0
M  V30 1777 H 166.1 0.856992 -1.85787 0
M  V30 1778 H 166.11 3.21413 -2.51312 0
M  V30 1779 H 164.785 2.44081 -3.36745 0
M  V30 1780 H 163.362 3.29441 -1.74708 0
M  V30 1781 N 165.547 1.27147 0.931209 0
M  V30 1782 C 166.497 1.06227 2.01742 0
M  V30 1783 C 167.481 -0.00859065 1.60898 0
M  V30 1784 O 168.673 0.209537 1.75755 0
M  V30 1785 C 165.802 0.707787 3.35924 0
M  V30 1786 C 164.888 1.81661 3.83223 0
M  V30 1787 N 165.279 3.05564 4.03069 0
M  V30 1788 C 163.577 1.70249 4.12227 0
M  V30 1789 C 164.278 3.77697 4.42403 0
M  V30 1790 N 163.254 3.0544 4.49675 0
M  V30 1791 H 167.056 2.00261 2.15111 0
M  V30 1792 H 164.57 1.1781 1.11779 0
M  V30 1793 H 166.567 0.539043 4.134 0
M  V30 1794 H 165.227 -0.224964 3.2392 0
M  V30 1795 H 166.238 3.41363 3.89476 0
M  V30 1796 H 162.915 0.840329 4.08956 0
M  V30 1797 H 164.305 4.84168 4.65866 0
M  V30 1798 N 167.025 -1.13721 1.09112 0
M  V30 1799 C 167.955 -2.21148 0.749385 0
M  V30 1800 C 168.936 -1.6792 -0.271475 0
M  V30 1801 O 170.121 -1.93693 -0.140251 0
M  V30 1802 C 167.251 -3.46905 0.165659 0
M  V30 1803 C 166.205 -4.13203 1.11567 0
M  V30 1804 C 165.531 -5.33248 0.393809 0
M  V30 1805 C 166.831 -4.60912 2.45678 0
M  V30 1806 H 168.525 -2.4999 1.64758 0
M  V30 1807 H 166.071 -1.20156 0.793626 0
M  V30 1808 H 168.024 -4.21313 -0.085466 0
M  V30 1809 H 166.748 -3.17449 -0.767714 0
M  V30 1810 H 165.407 -3.40758 1.35202 0
M  V30 1811 H 165.055 -5.00054 -0.543599 0
M  V30 1812 H 164.755 -5.78552 1.02721 0
M  V30 1813 H 166.279 -6.10413 0.150908 0
M  V30 1814 H 167.693 -5.26759 2.26269 0
M  V30 1815 H 166.09 -5.16944 3.04776 0
M  V30 1816 H 167.16 -3.75603 3.06677 0
M  V30 1817 N 168.503 -0.877838 -1.30888 0
M  V30 1818 C 169.433 -0.35534 -2.3078 0
M  V30 1819 C 170.414 0.557994 -1.60687 0
M  V30 1820 O 171.599 0.473355 -1.88343 0
M  V30 1821 C 168.729 0.437221 -3.44537 0
M  V30 1822 C 167.683 -0.383715 -4.26276 0
M  V30 1823 C 167.009 0.535014 -5.32017 0
M  V30 1824 C 168.309 -1.62201 -4.96476 0
M  V30 1825 H 170.003 -1.19007 -2.74732 0
M  V30 1826 H 167.549 -0.573698 -1.32078 0
M  V30 1827 H 169.502 0.813334 -4.13477 0
M  V30 1828 H 168.226 1.30553 -2.99372 0
M  V30 1829 H 166.885 -0.741874 -3.59015 0
M  V30 1830 H 166.533 1.40083 -4.831 0
M  V30 1831 H 166.233 -0.0104211 -5.87599 0
M  V30 1832 H 167.757 0.907799 -6.03814 0
M  V30 1833 H 169.171 -1.31689 -5.5797 0
M  V30 1834 H 167.568 -2.10711 -5.61891 0
M  V30 1835 H 168.638 -2.37044 -4.23011 0
M  V30 1836 N 169.982 1.44106 -0.638065 0
M  V30 1837 C 171.228 2.02277 -0.145546 0
M  V30 1838 C 171.561 1.50125 1.23191 0
M  V30 1839 O 170.836 0.688133 1.8192 0
M  V30 1840 C 171.119 3.59829 -0.139791 0
M  V30 1841 C 170.972 4.22247 -1.55008 0
M  V30 1842 C 172.291 4.36873 0.531966 0
M  V30 1843 H 169.41 0.734992 -0.0543632 0
M  V30 1844 H 172.052 1.71592 -0.815863 0
M  V30 1845 H 170.202 3.86102 0.431007 0
M  V30 1846 H 171.874 4.07057 -2.1703 0
M  V30 1847 H 170.117 3.79476 -2.10191 0
M  V30 1848 H 170.788 5.31284 -1.49804 0
M  V30 1849 H 173.264 4.16074 0.0464781 0
M  V30 1850 H 172.14 5.4657 0.505206 0
M  V30 1851 H 172.401 4.11995 1.60352 0
M  V30 1852 N 171.46 0.379036 1.52974 0
M  V30 1853 C 172.408 -0.476033 2.27677 0
M  V30 1854 C 173.402 -1.0719 1.31174 0
M  V30 1855 O 174.608 -1.01355 1.48752 0
M  V30 1856 H 170.983 -0.172255 0.732006 0
M  V30 1857 H 172.954 0.175615 2.97883 0
M  V30 1858 C 171.703 -1.5967 3.0887 0
M  V30 1859 H 171.026 -1.1475 3.82978 0
M  V30 1860 H 172.466 -2.16943 3.64296 0
M  V30 1861 C 170.925 -2.54682 2.20542 0
M  V30 1862 O 171.455 -3.57836 1.82527 0
M  V30 1863 N 169.661 -2.24183 1.84907 0
M  V30 1864 H 169.208 -1.40333 2.1602 0
M  V30 1865 H 169.166 -2.88006 1.26096 0
M  V30 1866 N 172.938 -1.57226 0.108567 0
M  V30 1867 C 174.163 -1.99604 -0.563303 0
M  V30 1868 C 174.588 -0.987563 -1.6009 0
M  V30 1869 O 173.946 0.0421687 -1.81251 0
M  V30 1870 C 173.994 -3.40902 -1.17552 0
M  V30 1871 O 173.098 -3.42896 -2.2912 0
M  V30 1872 H 172.439 -0.648704 -0.1417 0
M  V30 1873 H 174.969 -2.03679 0.193961 0
M  V30 1874 H 174.979 -3.78886 -1.51357 0
M  V30 1875 H 173.654 -4.1382 -0.415445 0
M  V30 1876 H 172.231 -3.1672 -1.96832 0
M  V30 1877 N 174.416 0.165178 -1.56732 0
M  V30 1878 C 175.663 0.880807 -1.8234 0
M  V30 1879 C 175.991 1.81977 -0.686621 0
M  V30 1880 O 175.246 1.92971 0.325697 0
M  V30 1881 C 175.545 1.70405 -3.1416 0
M  V30 1882 C 175.211 0.913475 -4.4155 0
M  V30 1883 C 173.873 0.695303 -4.7615 0
M  V30 1884 C 176.225 0.359349 -5.1996 0
M  V30 1885 C 173.553 -0.0879947 -5.86634 0
M  V30 1886 C 175.905 -0.410893 -6.31264 0
M  V30 1887 C 174.569 -0.639808 -6.64427 0
M  V30 1888 H 173.839 0.32231 -0.667231 0
M  V30 1889 H 176.486 0.145402 -1.90947 0
M  V30 1890 H 174.791 2.50903 -3.00923 0
M  V30 1891 H 176.488 2.26091 -3.31186 0
M  V30 1892 H 173.078 1.09357 -4.14414 0
M  V30 1893 H 177.262 0.515228 -4.93618 0
M  V30 1894 H 172.518 -0.27503 -6.10781 0
M  V30 1895 H 176.692 -0.847494 -6.91224 0
M  V30 1896 H 174.319 -1.24864 -7.49875 0
M  V30 1897 N 175.894 1.51508 0.433938 0
M  V30 1898 C 176.857 1.72473 1.50949 0
M  V30 1899 C 177.857 0.594725 1.49398 0
M  V30 1900 O 179.047 0.862315 1.5136 0
M  V30 1901 C 176.179 1.78431 2.90474 0
M  V30 1902 H 177.372 2.68467 1.33662 0
M  V30 1903 H 174.925 1.41549 0.662836 0
M  V30 1904 H 175.66 0.842645 3.13161 0
M  V30 1905 H 175.445 2.60558 2.93005 0
M  V30 1906 H 176.935 1.96479 3.68491 0
M  V30 1907 N 177.372 -0.689602 1.41712 0
M  V30 1908 C 178.649 -1.44457 1.31877 0
M  V30 1909 C 179.029 -2.11039 -0.0508537 0
M  V30 1910 O 178.377 -2.02138 -1.06547 0
M  V30 1911 C 178.587 -2.45913 2.47645 0
M  V30 1912 C 179.935 -3.10991 2.89084 0
M  V30 1913 O 180.959 -2.56238 2.47428 0
M  V30 1914 O 179.818 -4.10174 3.61137 0
M  V30 1915 H 176.912 -0.64362 0.519309 0
M  V30 1916 H 179.458 -0.719576 1.53689 0
M  V30 1917 H 178.23 -1.95409 3.39015 0
M  V30 1918 H 177.853 -3.25913 2.27742 0
M  V30 1919 N 178.85 -1.27639 -0.924453 0
M  V30 1920 C 179.798 -1.10485 -2.04685 0
M  V30 1921 C 180.792 -0.0270421 -1.69378 0
M  V30 1922 O 181.998 -0.185008 -1.79047 0
M  V30 1923 H 178.373 -0.340546 -0.670472 0
M  V30 1924 H 180.344 -2.05566 -2.16298 0
M  V30 1925 C 179.093 -0.772229 -3.39016 0
M  V30 1926 H 178.416 -1.59351 -3.66671 0
M  V30 1927 H 179.856 -0.692097 -4.18313 0
M  V30 1928 C 178.315 0.523554 -3.32807 0
M  V30 1929 O 178.845 1.55702 -3.70297 0
M  V30 1930 N 177.051 0.520363 -2.85903 0
M  V30 1931 H 176.598 -0.32107 -2.55591 0
M  V30 1932 H 176.556 1.38742 -2.82131 0
M  V30 1933 N 180.328 1.1314 -1.09713 0
M  V30 1934 C 181.556 1.88321 -0.856898 0
M  V30 1935 C 181.971 1.79276 0.592073 0
M  V30 1936 O 181.328 1.16142 1.40774 0
M  V30 1937 C 181.379 3.37812 -1.28706 0
M  V30 1938 O 181.1 3.46627 -2.67921 0
M  V30 1939 C 182.601 4.29952 -1.07964 0
M  V30 1940 H 179.821 0.596094 -0.308079 0
M  V30 1941 H 182.365 1.43205 -1.45988 0
M  V30 1942 H 180.52 3.805 -0.727912 0
M  V30 1943 H 180.934 4.39579 -2.8613 0
M  V30 1944 H 182.408 5.33159 -1.42986 0
M  V30 1945 H 182.885 4.39196 -0.0176577 0
M  V30 1946 H 183.491 3.93036 -1.62489 0
M  V30 1947 N 181.806 0.884767 1.30421 0
M  V30 1948 C 183.222 0.57874 1.48737 0
M  V30 1949 C 183.422 -0.883567 1.81095 0
M  V30 1950 O 182.478 -1.6648 1.89844 0
M  V30 1951 C 183.791 1.49171 2.61091 0
M  V30 1952 C 185.339 1.49532 2.74971 0
M  V30 1953 C 185.814 2.39421 3.90438 0
M  V30 1954 N 187.305 2.37383 3.97748 0
M  V30 1955 C 188.04 3.03647 4.86401 0
M  V30 1956 N 187.536 3.79136 5.79852 0
M  V30 1957 N 189.329 2.9288 4.79768 0
M  V30 1958 H 181.48 1.83075 1.0769 0
M  V30 1959 H 183.743 0.783637 0.533495 0
M  V30 1960 H 183.449 2.53291 2.44001 0
M  V30 1961 H 183.323 1.20113 3.57565 0
M  V30 1962 H 185.71 0.46163 2.91467 0
M  V30 1963 H 185.791 1.8262 1.79119 0
M  V30 1964 H 185.435 3.42874 3.74699 0
M  V30 1965 H 185.365 2.03649 4.85628 0
M  V30 1966 H 187.856 1.82525 3.30897 0
M  V30 1967 H 188.169 4.26789 6.4426 0
M  V30 1968 H 186.514 3.83243 5.79784 0
M  V30 1969 H 189.705 2.33433 4.05742 0
M  V30 1970 H 189.878 3.448 5.4865 0
M  V30 1971 N 183.284 -1.43765 0.645699 0
M  V30 1972 C 184.7 -1.56509 0.312591 0
M  V30 1973 C 184.9 -1.6307 -1.18365 0
M  V30 1974 O 183.956 -1.58167 -1.96824 0
M  V30 1975 C 185.269 -2.82968 1.01733 0
M  V30 1976 C 186.817 -2.96701 0.996865 0
M  V30 1977 C 187.292 -4.25982 1.68236 0
M  V30 1978 N 188.783 -4.32829 1.64964 0
M  V30 1979 C 189.518 -5.31613 2.14885 0
M  V30 1980 N 189.014 -6.36718 2.73061 0
M  V30 1981 N 190.807 -5.23217 2.05428 0
M  V30 1982 H 182.958 -1.3775 1.61675 0
M  V30 1983 H 185.221 -0.661067 0.679481 0
M  V30 1984 H 184.927 -2.84156 2.0724 0
M  V30 1985 H 184.801 -3.72957 0.564177 0
M  V30 1986 H 187.188 -2.95058 -0.0497719 0
M  V30 1987 H 187.269 -2.08022 1.48865 0
M  V30 1988 H 186.913 -4.28386 2.72852 0
M  V30 1989 H 186.843 -5.13545 1.16529 0
M  V30 1990 H 189.334 -3.57493 1.22503 0
M  V30 1991 H 189.647 -7.08401 3.08848 0
M  V30 1992 H 187.992 -6.37362 2.77118 0
M  V30 1993 H 191.183 -4.40019 1.59689 0
M  V30 1994 H 191.356 -6.00045 2.44643 0
M  V30 1995 N 184.763 -0.387143 -1.52771 0
M  V30 1996 C 186.01 0.195735 -2.01552 0
M  V30 1997 C 186.338 1.46995 -1.27369 0
M  V30 1998 O 185.593 1.92325 -0.361879 0
M  V30 1999 C 185.892 0.512209 -3.53711 0
M  V30 2000 C 185.558 -0.670202 -4.45891 0
M  V30 2001 C 184.22 -0.994586 -4.70809 0
M  V30 2002 C 186.572 -1.46134 -5.00294 0
M  V30 2003 C 183.9 -2.11169 -5.4738 0
M  V30 2004 C 186.252 -2.56903 -5.78086 0
M  V30 2005 C 184.916 -2.89852 -6.01284 0
M  V30 2006 H 184.186 0.0716246 -0.73753 0
M  V30 2007 H 186.833 -0.524046 -1.8419 0
M  V30 2008 H 185.138 1.31329 -3.69134 0
M  V30 2009 H 186.835 0.975804 -3.88946 0
M  V30 2010 H 183.425 -0.407366 -4.2666 0
M  V30 2011 H 187.609 -1.22397 -4.80971 0
M  V30 2012 H 182.865 -2.3707 -5.63567 0
M  V30 2013 H 187.039 -3.18608 -6.19243 0
M  V30 2014 H 184.666 -3.76533 -6.60399 0
M  V30 2015 N 186.241 1.57166 -0.116904 0
M  V30 2016 C 187.174 2.10912 0.871291 0
M  V30 2017 C 188.152 1.025 1.26224 0
M  V30 2018 O 189.336 1.3014 1.36366 0
M  V30 2019 C 186.463 2.6041 2.16574 0
M  V30 2020 C 185.509 3.80687 1.92302 0
M  V30 2021 S 186.342 5.23199 1.14119 0
M  V30 2022 C 187.498 5.76064 2.44748 0
M  V30 2023 H 187.731 2.94401 0.414138 0
M  V30 2024 H 185.264 1.54096 0.096829 0
M  V30 2025 H 187.222 2.89583 2.9095 0
M  V30 2026 H 185.883 1.77106 2.59408 0
M  V30 2027 H 185.076 4.13462 2.8821 0
M  V30 2028 H 184.678 3.5212 1.26047 0
M  V30 2029 H 186.97 5.8566 3.406 0
M  V30 2030 H 187.913 6.74184 2.16521 0
M  V30 2031 H 188.321 5.04117 2.54019 0
M  V30 2032 N 187.719 -0.156864 1.56817 0
M  V30 2033 C 189.13 -0.717916 1.72345 0
M  V30 2034 C 189.481 -1.82124 0.729747 0
M  V30 2035 O 188.606 -2.16141 -0.105781 0
M  V30 2036 C 189.201 -1.30904 3.12489 0
M  V30 2037 C 187.76 -1.81676 3.29653 0
M  V30 2038 C 186.907 -0.701349 2.68284 0
M  V30 2039 H 189.858 0.0686989 1.58551 0
M  V30 2040 H 189.879 -2.17882 3.11942 0
M  V30 2041 H 189.391 -0.505796 3.8479 0
M  V30 2042 H 187.492 -2.64598 2.62333 0
M  V30 2043 H 187.605 -1.95226 4.3752 0
M  V30 2044 H 185.969 -1.12548 2.28484 0
M  V30 2045 H 186.752 0.0902846 3.43181 0
M  V30 2046 N 189.197 -1.51736 -0.425897 0
M  V30 2047 C 190.127 -1.76827 -1.52494 0
M  V30 2048 C 191.108 -0.618524 -1.58456 0
M  V30 2049 O 192.293 -0.862416 -1.74 0
M  V30 2050 C 189.423 -1.90374 -2.90474 0
M  V30 2051 C 188.377 -3.0588 -2.99369 0
M  V30 2052 C 187.703 -3.04625 -4.3944 0
M  V30 2053 C 189.003 -4.45644 -2.72394 0
M  V30 2054 H 190.697 -2.68855 -1.31748 0
M  V30 2055 H 188.243 -1.29372 -0.632362 0
M  V30 2056 H 190.196 -2.0651 -3.6733 0
M  V30 2057 H 188.92 -0.95004 -3.12477 0
M  V30 2058 H 187.579 -2.89467 -2.24954 0
M  V30 2059 H 187.227 -2.0701 -4.58428 0
M  V30 2060 H 186.927 -3.82195 -4.46319 0
M  V30 2061 H 188.451 -3.22869 -5.18255 0
M  V30 2062 H 189.865 -4.62348 -3.38979 0
M  V30 2063 H 188.262 -5.25006 -2.9067 0
M  V30 2064 H 189.332 -4.54893 -1.67929 0
M  V30 2065 N 190.675 0.682077 -1.42076 0
M  V30 2066 C 191.9 1.47558 -1.45744 0
M  V30 2067 C 192.325 1.87977 -0.0680981 0
M  V30 2068 O 191.683 1.55522 0.9318 0
M  V30 2069 C 191.731 2.70575 -2.38373 0
M  V30 2070 O 190.835 3.68573 -1.85007 0
M  V30 2071 H 190.176 0.443585 -0.494093 0
M  V30 2072 H 192.706 0.837238 -1.86686 0
M  V30 2073 H 192.716 3.18729 -2.54707 0
M  V30 2074 H 191.391 2.40495 -3.39315 0
M  V30 2075 H 189.968 3.2757 -1.78192 0
M  V30 2076 N 192.153 1.28127 0.917671 0
M  V30 2077 C 193.43 1.05761 1.64542 0
M  V30 2078 C 193.81 -0.404344 2.07191 0
M  V30 2079 O 193.158 -1.38963 1.81388 0
M  V30 2080 C 193.368 2.02857 2.83989 0
M  V30 2081 C 194.716 2.32786 3.551 0
M  V30 2082 O 195.74 2.0091 2.94132 0
M  V30 2083 O 194.599 2.87169 4.64969 0
M  V30 2084 H 191.693 0.403916 0.721652 0
M  V30 2085 H 194.239 1.39431 0.967322 0
M  V30 2086 H 193.011 3.01407 2.49538 0
M  V30 2087 H 192.634 1.69809 3.59514 0
M  V30 2088 N 193.631 -1.12557 1.10312 0
M  V30 2089 C 194.877 -1.84311 0.846011 0
M  V30 2090 C 195.21 -1.83805 -0.626859 0
M  V30 2091 O 194.485 -1.28268 -1.46211 0
M  V30 2092 C 194.768 -3.32048 1.39341 0
M  V30 2093 C 194.621 -3.41016 2.93305 0
M  V30 2094 C 195.94 -4.27764 1.03468 0
M  V30 2095 H 193.059 -0.669192 0.30879 0
M  V30 2096 H 195.701 -1.32057 1.36605 0
M  V30 2097 H 193.851 -3.76678 0.951087 0
M  V30 2098 H 195.523 -3.05031 3.46055 0
M  V30 2099 H 193.766 -2.81603 3.29973 0
M  V30 2100 H 194.437 -4.44948 3.26689 0
M  V30 2101 H 196.913 -3.91253 1.41633 0
M  V30 2102 H 195.789 -5.29549 1.44463 0
M  V30 2103 H 196.05 -4.42064 -0.0560404 0
M  V30 2104 N 195.109 -0.891671 -1.2995 0
M  V30 2105 C 196.039 -0.379797 -2.30391 0
M  V30 2106 C 197.02 0.540919 -1.6127 0
M  V30 2107 O 198.205 0.453352 -1.88834 0
M  V30 2108 C 195.335 0.400654 -3.44981 0
M  V30 2109 C 194.289 -0.428905 -4.25846 0
M  V30 2110 C 193.615 0.478557 -5.32554 0
M  V30 2111 C 194.915 -1.67458 -4.94727 0
M  V30 2112 H 196.609 -1.21914 -2.73454 0
M  V30 2113 H 194.155 -0.587675 -1.31462 0
M  V30 2114 H 196.108 0.769434 -4.14316 0
M  V30 2115 H 194.832 1.27371 -3.0074 0
M  V30 2116 H 193.491 -0.779911 -3.58208 0
M  V30 2117 H 193.139 1.34951 -4.84559 0
M  V30 2118 H 192.839 -0.0727433 -5.87555 0
M  V30 2119 H 194.363 0.843705 -6.04743 0
M  V30 2120 H 195.777 -1.376 -5.56542 0
M  V30 2121 H 194.174 -2.16659 -5.59624 0
M  V30 2122 H 195.244 -2.41518 -4.20473 0
M  V30 2123 N 196.587 1.43421 -0.653314 0
M  V30 2124 C 197.817 2.05864 -0.174238 0
M  V30 2125 C 198.225 1.49052 1.16534 0
M  V30 2126 O 197.568 0.616481 1.73047 0
M  V30 2127 C 197.63 3.59499 -0.00875873 0
M  V30 2128 C 197.294 4.38893 -1.27364 0
M  V30 2129 C 198.291 4.70947 -2.20239 0
M  V30 2130 C 195.976 4.789 -1.51525 0
M  V30 2131 C 197.97 5.41916 -3.35568 0
M  V30 2132 C 195.657 5.49614 -2.67147 0
M  V30 2133 C 196.655 5.81044 -3.58994 0
M  V30 2134 O 196.343 6.50313 -4.72597 0
M  V30 2135 H 196.075 0.670345 -0.0872549 0
M  V30 2136 H 198.629 1.84913 -0.894226 0
M  V30 2137 H 196.859 3.79025 0.7666 0
M  V30 2138 H 198.548 4.0364 0.427687 0
M  V30 2139 H 199.314 4.40558 -2.02815 0
M  V30 2140 H 195.193 4.53843 -0.809158 0
M  V30 2141 H 198.737 5.66365 -4.07279 0
M  V30 2142 H 194.634 5.79419 -2.84505 0
M  V30 2143 H 195.402 6.68795 -4.71864 0
M  V30 2144 N 198.065 0.39524 1.52563 0
M  V30 2145 C 199.313 -0.184678 2.01254 0
M  V30 2146 C 199.634 -1.46822 1.28329 0
M  V30 2147 O 198.904 -1.91666 0.405094 0
M  V30 2148 H 197.484 -0.0712355 0.743596 0
M  V30 2149 H 200.146 0.528293 1.87603 0
M  V30 2150 H 199.242 -0.390681 3.09645 0
M  V30 2151 N 199.544 -1.57102 0.125237 0
M  V30 2152 C 200.96 -1.57915 -0.231322 0
M  V30 2153 C 201.16 -1.13833 -1.66266 0
M  V30 2154 O 200.216 -0.828581 -2.38518 0
M  V30 2155 C 201.529 -3.00699 0.00766489 0
M  V30 2156 C 203.077 -3.12947 -0.0577483 0
M  V30 2157 C 203.552 -4.57742 0.153626 0
M  V30 2158 N 205.043 -4.63092 0.0998073 0
M  V30 2159 C 205.778 -5.72905 0.238174 0
M  V30 2160 N 205.274 -6.91445 0.433057 0
M  V30 2161 N 207.067 -5.6182 0.177308 0
M  V30 2162 H 199.218 -1.84055 1.06007 0
M  V30 2163 H 201.481 -0.850905 0.417929 0
M  V30 2164 H 201.187 -3.3726 0.997431 0
M  V30 2165 H 201.061 -3.70236 -0.721452 0
M  V30 2166 H 203.448 -2.7624 -1.03804 0
M  V30 2167 H 203.529 -2.4594 0.70335 0
M  V30 2168 H 203.173 -4.95149 1.13092 0
M  V30 2169 H 203.103 -5.22848 -0.627534 0
M  V30 2170 H 205.594 -3.77871 -0.047051 0
M  V30 2171 H 205.907 -7.70985 0.529332 0
M  V30 2172 H 204.252 -6.93415 0.469109 0
M  V30 2173 H 207.443 -4.68093 0.0259748 0
M  V30 2174 H 207.616 -6.47357 0.288582 0
M  V30 2175 N 201.022 0.148545 -1.56898 0
M  V30 2176 C 202.268 0.862694 -1.83536 0
M  V30 2177 C 202.601 1.80889 -0.706604 0
M  V30 2178 O 201.876 1.92328 0.289885 0
M  V30 2179 C 202.159 1.63853 -3.20662 0
M  V30 2180 C 202.012 0.713925 -4.44098 0
M  V30 2181 C 203.331 2.60133 -3.54991 0
M  V30 2182 H 200.45 0.312179 -0.667618 0
M  V30 2183 H 203.092 0.127953 -1.89569 0
M  V30 2184 H 201.242 2.26489 -3.1565 0
M  V30 2185 H 202.914 0.098686 -4.61194 0
M  V30 2186 H 201.157 0.0234019 -4.33794 0
M  V30 2187 H 201.828 1.29278 -5.36648 0
M  V30 2188 H 204.304 2.07616 -3.60603 0
M  V30 2189 H 203.18 3.11468 -4.51972 0
M  V30 2190 H 203.441 3.41417 -2.80868 0
M  V30 2191 N 202.5 1.5196 0.417844 0
M  V30 2192 C 203.463 1.74065 1.49111 0
M  V30 2193 C 204.463 0.610537 1.48758 0
M  V30 2194 O 205.653 0.87832 1.50437 0
M  V30 2195 C 202.785 1.81502 2.88565 0
M  V30 2196 H 203.978 2.69869 1.30807 0
M  V30 2197 H 201.531 1.42244 0.647785 0
M  V30 2198 H 202.266 0.875813 3.1225 0
M  V30 2199 H 202.051 2.63651 2.90225 0
M  V30 2200 H 203.541 2.00376 3.66387 0
M  V30 2201 N 203.978 -0.674533 1.42435 0
M  V30 2202 C 205.255 -1.4305 1.33402 0
M  V30 2203 C 205.635 -2.11081 -0.0284674 0
M  V30 2204 O 204.983 -2.03257 -1.04397 0
M  V30 2205 C 205.193 -2.43272 2.50239 0
M  V30 2206 C 206.541 -3.07907 2.92367 0
M  V30 2207 O 207.565 -2.53599 2.50132 0
M  V30 2208 O 206.424 -4.0632 3.65467 0
M  V30 2209 H 203.518 -0.638076 0.526106 0
M  V30 2210 H 206.064 -0.703235 1.54443 0
M  V30 2211 H 204.836 -1.91803 3.41068 0
M  V30 2212 H 204.459 -3.23479 2.31186 0
M  V30 2213 N 205.456 -1.28612 -0.910864 0
M  V30 2214 C 206.703 -1.15934 -1.66029 0
M  V30 2215 C 207.031 0.291483 -1.92303 0
M  V30 2216 O 206.286 1.22816 -1.52364 0
M  V30 2217 C 206.585 -1.90624 -3.0232 0
M  V30 2218 C 206.251 -3.40405 -2.95695 0
M  V30 2219 C 204.913 -3.81255 -2.93595 0
M  V30 2220 C 207.265 -4.359 -2.85728 0
M  V30 2221 C 204.593 -5.15936 -2.79334 0
M  V30 2222 C 206.945 -5.70657 -2.73007 0
M  V30 2223 C 205.609 -6.10779 -2.69267 0
M  V30 2224 H 204.879 -0.424234 -0.607541 0
M  V30 2225 H 207.526 -1.5942 -1.06101 0
M  V30 2226 H 205.831 -1.39696 -3.6605 0
M  V30 2227 H 207.528 -1.78228 -3.59215 0
M  V30 2228 H 204.118 -3.07927 -2.98125 0
M  V30 2229 H 208.302 -4.053 -2.86436 0
M  V30 2230 H 203.558 -5.46146 -2.74835 0
M  V30 2231 H 207.732 -6.44311 -2.64264 0
M  V30 2232 H 205.359 -7.1509 -2.57974 0
M  V30 2233 N 206.934 1.1197 -1.10907 0
M  V30 2234 C 207.864 2.19928 -0.784473 0
M  V30 2235 C 208.845 1.6833 0.244726 0
M  V30 2236 O 210.03 1.93892 0.109418 0
M  V30 2237 C 207.16 3.46597 -0.220827 0
M  V30 2238 C 206.114 4.11376 -1.18127 0
M  V30 2239 C 205.44 5.32554 -0.478594 0
M  V30 2240 C 206.74 4.56945 -2.52979 0
M  V30 2241 H 208.434 2.47337 -1.68715 0
M  V30 2242 H 205.98 1.18879 -0.812642 0
M  V30 2243 H 207.933 4.21396 0.0184278 0
M  V30 2244 H 206.657 3.1863 0.717113 0
M  V30 2245 H 205.316 3.38564 -1.40606 0
M  V30 2246 H 204.964 5.00856 0.463976 0
M  V30 2247 H 204.664 5.76844 -1.11912 0
M  V30 2248 H 206.188 6.10096 -0.248 0
M  V30 2249 H 207.602 5.23093 -2.3462 0
M  V30 2250 H 205.999 5.1203 -3.12962 0
M  V30 2251 H 207.069 3.70676 -3.12614 0
M  V30 2252 N 208.412 0.89855 1.29475 0
M  V30 2253 C 209.637 0.538561 2.00285 0
M  V30 2254 C 210.062 -0.869135 1.66816 0
M  V30 2255 O 209.42 -1.57831 0.892145 0
M  V30 2256 C 209.468 0.736475 3.52999 0
M  V30 2257 O 208.572 -0.211537 4.11857 0
M  V30 2258 H 207.913 0.210563 0.62973 0
M  V30 2259 H 210.443 1.20982 1.64998 0
M  V30 2260 H 210.453 0.640685 4.02938 0
M  V30 2261 H 209.128 1.76276 3.76696 0
M  V30 2262 H 207.705 -0.0682991 3.72837 0
M  V30 2263 N 209.89 -1.43072 0.660911 0
M  V30 2264 C 211.136 -2.02545 0.186337 0
M  V30 2265 C 211.491 -1.51253 -1.18913 0
M  V30 2266 O 210.784 -0.699167 -1.78388 0
M  V30 2267 C 210.978 -3.57103 0.145563 0
M  V30 2268 C 210.807 -4.23393 1.51554 0
M  V30 2269 C 209.577 -4.59144 2.10984 0
M  V30 2270 C 211.775 -4.51897 2.45548 0
M  V30 2271 N 209.757 -5.10545 3.40907 0
M  V30 2272 C 211.128 -5.04698 3.6011 0
M  V30 2273 C 213.183 -4.33872 2.44253 0
M  V30 2274 C 211.886 -5.41371 4.73613 0
M  V30 2275 C 213.912 -4.71612 3.56842 0
M  V30 2276 C 213.274 -5.24553 4.70131 0
M  V30 2277 H 209.373 -0.773823 0.112792 0
M  V30 2278 H 211.957 -1.74137 0.870885 0
M  V30 2279 H 210.128 -3.85059 -0.508353 0
M  V30 2280 H 211.86 -4.03264 -0.340598 0
M  V30 2281 H 208.615 -4.4444 1.63615 0
M  V30 2282 H 209.039 -5.40689 4.07411 0
M  V30 2283 H 213.681 -3.92208 1.579 0
M  V30 2284 H 211.399 -5.81975 5.60652 0
M  V30 2285 H 214.985 -4.59354 3.57051 0
M  V30 2286 H 213.865 -5.53213 5.5581 0
M  V30 2287 N 211.368 -0.403325 -1.52352 0
M  V30 2288 C 212.608 0.173946 -2.03659 0
M  V30 2289 C 212.972 1.42869 -1.28267 0
M  V30 2290 O 214.173 2.08403 -1.69769 0
M  V30 2291 C 212.444 0.421478 -3.54906 0
M  V30 2292 S 214.003 0.967027 -4.28012 0
M  V30 2293 H 210.821 0.0477461 -0.709395 0
M  V30 2294 H 213.423 -0.554906 -1.87459 0
M  V30 2295 H 212.127 -0.498616 -4.0736 0
M  V30 2296 H 211.658 1.17837 -3.75337 0
M  V30 2297 H 213.673 2.24812 -4.4235 0
M  V30 2298 N 212.846 1.57033 -0.133567 0
M  V30 2299 C 214.262 1.58035 0.222944 0
M  V30 2300 C 214.462 1.14713 1.6566 0
M  V30 2301 O 213.518 0.841218 2.38075 0
M  V30 2302 C 214.831 3.00691 -0.0236116 0
M  V30 2303 C 216.379 3.12973 0.0411512 0
M  V30 2304 C 216.854 4.57654 -0.177899 0
M  V30 2305 N 218.345 4.63033 -0.124365 0
M  V30 2306 C 219.08 5.72771 -0.268553 0
M  V30 2307 N 218.576 6.91206 -0.46972 0
M  V30 2308 N 220.369 5.61718 -0.2071 0
M  V30 2309 H 212.52 1.8349 -1.06981 0
M  V30 2310 H 214.783 0.848677 -0.422436 0
M  V30 2311 H 214.489 3.36726 -1.0153 0
M  V30 2312 H 214.363 3.70614 0.701808 0
M  V30 2313 H 216.75 2.76787 1.02338 0
M  V30 2314 H 216.831 2.45564 -0.716383 0
M  V30 2315 H 216.475 4.94542 -1.15717 0
M  V30 2316 H 216.405 5.23173 0.599797 0
M  V30 2317 H 218.896 3.7789 0.027011 0
M  V30 2318 H 219.209 7.70693 -0.570212 0
M  V30 2319 H 217.554 6.93156 -0.505876 0
M  V30 2320 H 220.745 4.68072 -0.0507986 0
M  V30 2321 H 220.918 6.47195 -0.322909 0
M  V30 2322 N 214.325 -0.140222 1.56975 0
M  V30 2323 C 215.257 -1.19818 1.95388 0
M  V30 2324 C 216.27 -1.38816 0.850525 0
M  V30 2325 O 217.459 -1.38267 1.12891 0
M  V30 2326 C 214.559 -2.56189 2.21857 0
M  V30 2327 C 213.732 -2.58077 3.5315 0
M  V30 2328 C 212.791 -3.76037 3.6808 0
M  V30 2329 O 211.817 -3.60598 4.40406 0
M  V30 2330 N 213.019 -4.93763 3.05251 0
M  V30 2331 H 215.784 -0.871609 2.86746 0
M  V30 2332 H 213.345 -0.32972 1.58507 0
M  V30 2333 H 215.337 -3.33623 2.2908 0
M  V30 2334 H 213.907 -2.81111 1.36731 0
M  V30 2335 H 213.127 -1.6651 3.57307 0
M  V30 2336 H 214.415 -2.56377 4.39486 0
M  V30 2337 H 213.813 -5.09209 2.46419 0
M  V30 2338 H 212.37 -5.68949 3.18026 0
M  V30 2339 N 215.803 -1.52179 -0.40978 0
M  V30 2340 C 216.75 -1.75475 -1.49924 0
M  V30 2341 C 217.72 -0.597175 -1.54994 0
M  V30 2342 O 218.905 -0.834655 -1.71575 0
M  V30 2343 C 216.045 -1.9107 -2.87378 0
M  V30 2344 C 215.158 -3.18717 -2.91622 0
M  V30 2345 C 214.293 -3.24747 -4.20372 0
M  V30 2346 C 213.332 -4.46598 -4.18588 0
M  V30 2347 N 212.469 -4.50025 -5.38908 0
M  V30 2348 H 217.309 -2.68458 -1.29361 0
M  V30 2349 H 214.846 -1.33024 -0.627934 0
M  V30 2350 H 216.804 -1.98096 -3.6717 0
M  V30 2351 H 215.434 -1.01469 -3.06437 0
M  V30 2352 H 214.486 -3.20866 -2.04326 0
M  V30 2353 H 215.798 -4.08544 -2.86169 0
M  V30 2354 H 214.952 -3.30841 -5.08556 0
M  V30 2355 H 213.691 -2.32857 -4.28519 0
M  V30 2356 H 212.696 -4.40652 -3.28794 0
M  V30 2357 H 213.921 -5.39783 -4.12081 0
M  V30 2358 H 211.867 -3.61017 -5.47725 0
M  V30 2359 H 211.784 -5.33697 -5.35447 0
M  V30 2360 H 213.052 -4.60347 -6.29048 0
M  V30 2361 N 217.281 0.66697 -1.42791 0
M  V30 2362 C 218.229 1.80157 -1.47127 0
M  V30 2363 C 219.223 1.65825 -0.346199 0
M  V30 2364 O 220.429 1.72338 -0.519572 0
M  V30 2365 H 216.804 0.594158 -0.460956 0
M  V30 2366 H 218.775 1.73619 -2.42692 0
M  V30 2367 C 217.524 3.18351 -1.39813 0
M  V30 2368 H 216.847 3.3001 -2.25684 0
M  V30 2369 H 218.287 3.97736 -1.46908 0
M  V30 2370 C 216.746 3.36707 -0.11391 0
M  V30 2371 O 217.276 3.93027 0.830241 0
M  V30 2372 N 215.482 2.90586 -0.0285295 0
M  V30 2373 H 215.029 2.4494 -0.79764 0
M  V30 2374 H 214.987 3.03245 0.830063 0
M  V30 2375 N 218.759 1.29093 0.90403 0
M  V30 2376 C 220.036 1.075 1.63411 0
M  V30 2377 C 220.416 -0.382346 2.07609 0
M  V30 2378 O 219.764 -1.37031 1.82851 0
M  V30 2379 C 219.974 2.05858 2.81822 0
M  V30 2380 C 221.322 2.36539 3.52611 0
M  V30 2381 O 222.346 2.04019 2.91984 0
M  V30 2382 O 221.205 2.92085 4.61897 0
M  V30 2383 H 218.299 0.411547 0.717327 0
M  V30 2384 H 220.845 1.40449 0.952479 0
M  V30 2385 H 219.617 3.04037 2.46327 0
M  V30 2386 H 219.24 1.73613 3.57693 0
M  V30 2387 N 220.237 -1.11381 1.11499 0
M  V30 2388 C 221.462 -1.87475 0.887019 0
M  V30 2389 C 221.887 -1.79639 -0.557796 0
M  V30 2390 O 221.245 -1.15924 -1.39396 0
M  V30 2391 C 221.293 -3.34213 1.35403 0
M  V30 2392 O 220.397 -4.0903 0.526146 0
M  V30 2393 H 219.738 -0.582099 0.319463 0
M  V30 2394 H 222.268 -1.40785 1.48461 0
M  V30 2395 H 222.278 -3.8506 1.34881 0
M  V30 2396 H 220.953 -3.39232 2.40612 0
M  V30 2397 H 219.53 -3.68082 0.597522 0
M  V30 2398 N 221.715 -0.905404 -1.28997 0
M  V30 2399 C 222.963 -0.533192 -1.9494 0
M  V30 2400 C 223.284 0.924618 -1.71685 0
M  V30 2401 O 222.554 1.65268 -1.05183 0
M  V30 2402 H 221.134 -0.194194 -0.721317 0
M  V30 2403 H 223.796 -1.15294 -1.57141 0
M  V30 2404 H 222.892 -0.72059 -3.03667 0
M  V30 2405 N 223.193 1.4272 -0.668489 0
M  V30 2406 C 224.123 2.335 -0.000100175 0
M  V30 2407 C 225.104 1.50328 0.795964 0
M  V30 2408 O 226.289 1.78949 0.754385 0
M  V30 2409 C 223.419 3.33874 0.956302 0
M  V30 2410 C 222.373 4.27152 0.269278 0
M  V30 2411 C 221.699 5.17684 1.33818 0
M  V30 2412 C 222.999 5.15373 -0.847805 0
M  V30 2413 H 224.693 2.89639 -0.758244 0
M  V30 2414 H 222.239 1.39269 -0.366079 0
M  V30 2415 H 224.192 3.9629 1.43292 0
M  V30 2416 H 222.916 2.76025 1.74579 0
M  V30 2417 H 221.575 3.66123 -0.187042 0
M  V30 2418 H 221.223 4.56165 2.1195 0
M  V30 2419 H 220.923 5.80918 0.883659 0
M  V30 2420 H 222.447 5.82974 1.81586 0
M  V30 2421 H 223.861 5.7151 -0.452681 0
M  V30 2422 H 222.258 5.87407 -1.22773 0
M  V30 2423 H 223.328 4.5415 -1.69929 0
M  V30 2424 N 224.671 0.411399 1.52136 0
M  V30 2425 C 225.948 -0.222308 1.94333 0
M  V30 2426 C 226.328 -1.6242 1.34844 0
M  V30 2427 O 225.676 -2.22384 0.525145 0
M  V30 2428 C 225.886 -0.226345 3.48265 0
M  V30 2429 C 227.234 -0.444592 4.22266 0
M  V30 2430 O 228.258 -0.305602 3.54887 0
M  V30 2431 O 227.117 -0.718749 5.41753 0
M  V30 2432 H 224.211 -0.143907 0.814383 0
M  V30 2433 H 226.757 0.467506 1.63133 0
M  V30 2434 H 225.529 0.75475 3.83952 0
M  V30 2435 H 225.152 -0.960163 3.85832 0
M  V30 2436 N 226.149 -1.5696 0.141893 0
M  V30 2437 C 227.379 -2.00031 -0.516828 0
M  V30 2438 C 227.787 -1.02091 -1.59293 0
M  V30 2439 O 227.13 -0.00909657 -1.83698 0
M  V30 2440 C 227.192 -3.39534 -1.1814 0
M  V30 2441 C 226.856 -4.56313 -0.250513 0
M  V30 2442 C 227.853 -5.17295 0.519839 0
M  V30 2443 C 225.538 -5.02061 -0.154907 0
M  V30 2444 C 227.532 -6.2243 1.3733 0
M  V30 2445 C 225.219 -6.07053 0.702161 0
M  V30 2446 C 226.217 -6.67106 1.46487 0
M  V30 2447 O 225.905 -7.70066 2.30767 0
M  V30 2448 H 225.637 -0.661451 -0.139493 0
M  V30 2449 H 228.191 -2.04086 0.231926 0
M  V30 2450 H 226.421 -3.32302 -1.97769 0
M  V30 2451 H 228.11 -3.66745 -1.73933 0
M  V30 2452 H 228.876 -4.82852 0.45598 0
M  V30 2453 H 224.755 -4.5505 -0.7383 0
M  V30 2454 H 228.299 -6.69233 1.96909 0
M  V30 2455 H 224.196 -6.40923 0.76733 0
M  V30 2456 H 224.964 -7.87264 2.23959 0
M  V30 2457 N 227.627 0.131896 -1.57047 0
M  V30 2458 C 228.559 1.1878 -1.9602 0
M  V30 2459 C 229.572 1.38363 -0.857875 0
M  V30 2460 O 230.761 1.37666 -1.13623 0
M  V30 2461 C 227.861 2.55008 -2.23213 0
M  V30 2462 C 227.034 2.56201 -3.54513 0
M  V30 2463 C 226.093 3.7408 -3.70069 0
M  V30 2464 O 225.119 3.58258 -4.42312 0
M  V30 2465 N 226.321 4.92137 -3.07866 0
M  V30 2466 H 229.086 0.85639 -2.87204 0
M  V30 2467 H 226.647 0.321309 -1.5868 0
M  V30 2468 H 228.639 3.32404 -2.30846 0
M  V30 2469 H 227.209 2.80382 -1.3822 0
M  V30 2470 H 226.429 1.64613 -3.58185 0
M  V30 2471 H 227.717 2.54043 -4.4084 0
M  V30 2472 H 227.115 5.07895 -2.49116 0
M  V30 2473 H 225.672 5.67254 -3.21039 0
M  V30 2474 N 229.106 1.52395 0.401703 0
M  V30 2475 C 230.331 1.70972 1.17403 0
M  V30 2476 C 230.756 0.421615 1.83314 0
M  V30 2477 O 230.114 -0.621564 1.70312 0
M  V30 2478 C 230.162 2.85151 2.20728 0
M  V30 2479 O 229.266 2.51238 3.27037 0
M  V30 2480 H 228.607 0.568927 0.342372 0
M  V30 2481 H 231.137 1.99131 0.469891 0
M  V30 2482 H 231.147 3.10279 2.64936 0
M  V30 2483 H 229.822 3.78603 1.7214 0
M  V30 2484 H 228.399 2.36808 2.88057 0
M  V30 2485 N 230.584 -0.659388 1.43143 0
M  V30 2486 C 231.824 -1.43121 1.45931 0
M  V30 2487 C 232.188 -1.91838 0.0789298 0
M  V30 2488 O 233.389 -2.68794 -0.018491 0
M  V30 2489 C 231.66 -2.58534 2.46769 0
M  V30 2490 S 233.219 -3.47154 2.68384 0
M  V30 2491 H 230.037 -0.488624 0.516496 0
M  V30 2492 H 232.639 -0.766128 1.79863 0
M  V30 2493 H 231.343 -2.21007 3.45809 0
M  V30 2494 H 230.874 -3.29898 2.14315 0
M  V30 2495 H 232.889 -4.55051 1.97845 0
M  V30 2496 N 232.062 -1.29571 -0.897171 0
M  V30 2497 C 233.473 -1.15964 -1.46319 0
M  V30 2498 C 233.824 0.244267 -1.94674 0
M  V30 2499 O 232.949 1.13998 -1.83939 0
M  V30 2500 C 233.544 -2.09906 -2.65942 0
M  V30 2501 C 232.103 -2.00314 -3.18671 0
M  V30 2502 C 231.25 -2.00687 -1.91363 0
M  V30 2503 H 234.201 -1.42019 -0.708268 0
M  V30 2504 H 234.222 -1.67276 -3.41759 0
M  V30 2505 H 233.734 -3.12075 -2.30718 0
M  V30 2506 H 231.835 -1.01242 -3.58582 0
M  V30 2507 H 231.948 -2.88102 -3.82798 0
M  V30 2508 H 230.312 -1.45319 -2.09175 0
M  V30 2509 H 231.095 -3.04566 -1.58413 0
M  V30 2510 N 233.54 1.10788 -1.12088 0
M  V30 2511 C 234.768 1.86461 -0.896651 0
M  V30 2512 C 235.183 1.80492 0.553912 0
M  V30 2513 O 234.54 1.19102 1.38278 0
M  V30 2514 C 234.591 3.35006 -1.35843 0
M  V30 2515 O 234.312 3.40866 -2.75213 0
M  V30 2516 C 235.813 4.27565 -1.1706 0
M  V30 2517 H 233.033 0.589425 -0.320654 0
M  V30 2518 H 235.577 1.40076 -1.48993 0
M  V30 2519 H 233.732 3.7887 -0.808458 0
M  V30 2520 H 234.146 4.33411 -2.9539 0
M  V30 2521 H 235.62 5.30007 -1.54263 0
M  V30 2522 H 236.097 4.3906 -0.110814 0
M  V30 2523 H 236.703 3.89501 -1.70789 0
M  V30 2524 N 235.018 0.912232 1.28515 0
M  V30 2525 C 236.243 0.559774 1.99703 0
M  V30 2526 C 236.668 -0.851393 1.67729 0
M  V30 2527 O 236.026 -1.56875 0.908834 0
M  V30 2528 C 236.074 0.773874 3.52198 0
M  V30 2529 O 235.178 -0.167842 4.12058 0
M  V30 2530 H 234.519 0.21723 0.627461 0
M  V30 2531 H 237.049 1.22725 1.63706 0
M  V30 2532 H 237.059 0.683386 4.02236 0
M  V30 2533 H 235.734 1.80261 3.74805 0
M  V30 2534 H 234.311 -0.0287509 3.72889 0
M  V30 2535 N 236.496 -1.42363 0.676048 0
M  V30 2536 C 237.406 -2.346 -0.00153389 0
M  V30 2537 C 238.422 -1.5516 -0.787485 0
M  V30 2538 O 239.598 -1.87723 -0.729521 0
M  V30 2539 C 236.663 -3.33705 -0.940298 0
M  V30 2540 C 235.724 -4.29042 -0.148739 0
M  V30 2541 C 234.957 -5.23413 -1.04279 0
M  V30 2542 O 235.18 -5.22749 -2.28232 0
M  V30 2543 O 234.114 -5.99795 -0.502925 0
M  V30 2544 H 237.94 -2.94082 0.758268 0
M  V30 2545 H 235.525 -1.42888 0.436289 0
M  V30 2546 H 237.407 -3.94586 -1.47917 0
M  V30 2547 H 236.082 -2.76695 -1.67993 0
M  V30 2548 H 234.989 -3.71571 0.43427 0
M  V30 2549 H 236.322 -4.89097 0.551805 0
M  V30 2550 N 237.974 -0.419461 -1.51915 0
M  V30 2551 C 239.251 0.211999 -1.94448 0
M  V30 2552 C 239.631 1.61703 -1.35703 0
M  V30 2553 O 238.979 2.22102 -0.536931 0
M  V30 2554 C 239.189 0.207872 -3.4838 0
M  V30 2555 C 240.537 0.422192 -4.22496 0
M  V30 2556 O 241.561 0.286778 -3.55044 0
M  V30 2557 O 240.42 0.690009 -5.42126 0
M  V30 2558 H 237.514 0.139586 -0.815135 0
M  V30 2559 H 240.06 -0.476151 -1.62883 0
M  V30 2560 H 238.832 -0.775102 -3.83546 0
M  V30 2561 H 238.455 0.939688 -3.86336 0
M  V30 2562 N 239.452 1.56882 -0.150215 0
M  V30 2563 C 240.692 1.98119 0.502804 0
M  V30 2564 C 241.056 1.03327 1.61826 0
M  V30 2565 O 242.257 1.33621 2.33236 0
M  V30 2566 C 240.528 3.43329 0.992988 0
M  V30 2567 S 242.087 4.0659 1.65015 0
M  V30 2568 H 238.905 0.692189 0.162467 0
M  V30 2569 H 241.507 1.93988 -0.242689 0
M  V30 2570 H 240.211 4.10046 0.170436 0
M  V30 2571 H 239.742 3.5118 1.77303 0
M  V30 2572 H 241.757 3.99906 2.93752 0
M  V30 2573 N 240.93 -0.123565 1.57115 0
M  V30 2574 C 241.84 -1.17074 2.033 0
M  V30 2575 C 242.856 -1.4561 0.952559 0
M  V30 2576 O 244.032 -1.56817 1.26374 0
M  V30 2577 C 241.097 -2.47857 2.42421 0
M  V30 2578 C 240.158 -2.26758 3.64526 0
M  V30 2579 C 239.391 -3.51305 4.01771 0
M  V30 2580 O 239.614 -4.5843 3.39409 0
M  V30 2581 O 238.548 -3.42578 4.94898 0
M  V30 2582 H 242.374 -0.808555 2.92739 0
M  V30 2583 H 239.959 -0.334027 1.45618 0
M  V30 2584 H 241.841 -3.2492 2.68338 0
M  V30 2585 H 240.516 -2.83558 1.5613 0
M  V30 2586 H 239.423 -1.47569 3.43765 0
M  V30 2587 H 240.756 -1.95963 4.51508 0
M  V30 2588 N 242.408 -1.52605 -0.393616 0
M  V30 2589 C 243.356 -1.77688 -1.50099 0
M  V30 2590 C 244.35 -0.644615 -1.56656 0
M  V30 2591 O 245.556 -0.826997 -1.59877 0
M  V30 2592 H 241.931 -0.562159 -0.499481 0
M  V30 2593 H 243.902 -2.7043 -1.26135 0
M  V30 2594 C 242.651 -1.95858 -2.87289 0
M  V30 2595 H 241.974 -2.8241 -2.82992 0
M  V30 2596 H 243.414 -2.174 -3.64024 0
M  V30 2597 C 241.873 -0.729848 -3.28899 0
M  V30 2598 O 242.403 0.0949217 -4.01588 0
M  V30 2599 N 240.609 -0.561283 -2.85128 0
M  V30 2600 H 240.156 -1.23357 -2.26143 0
M  V30 2601 H 240.114 0.2595 -3.13327 0
M  V30 2602 N 243.887 0.651787 -1.4349 0
M  V30 2603 C 244.835 1.78586 -1.49029 0
M  V30 2604 C 245.829 1.65448 -0.363767 0
M  V30 2605 O 247.035 1.71777 -0.537821 0
M  V30 2606 H 243.41 0.589236 -0.467231 0
M  V30 2607 H 245.381 1.71035 -2.44519 0
M  V30 2608 C 244.13 3.16851 -1.43181 0
M  V30 2609 H 243.453 3.27598 -2.29171 0
M  V30 2610 H 244.893 3.96156 -1.51118 0
M  V30 2611 C 243.352 3.36568 -0.149616 0
M  V30 2612 O 243.882 3.93885 0.788509 0
M  V30 2613 N 242.088 2.90539 -0.0593484 0
M  V30 2614 H 241.635 2.4408 -0.823575 0
M  V30 2615 H 241.593 3.04108 0.797853 0
M  V30 2616 N 245.365 1.30045 0.890287 0
M  V30 2617 C 246.776 1.16738 1.45702 0
M  V30 2618 C 247.127 -0.233939 1.948 0
M  V30 2619 O 246.252 -1.13021 1.84541 0
M  V30 2620 C 246.847 2.11313 2.64825 0
M  V30 2621 C 245.406 2.02001 3.17604 0
M  V30 2622 C 244.553 2.01699 1.90296 0
M  V30 2623 H 247.504 1.42392 0.700726 0
M  V30 2624 H 247.525 1.69086 3.40867 0
M  V30 2625 H 247.037 3.13294 2.2906 0
M  V30 2626 H 245.138 1.03142 3.5804 0
M  V30 2627 H 245.251 2.90128 3.81264 0
M  V30 2628 H 243.615 1.46427 2.08402 0
M  V30 2629 H 244.398 3.05402 1.56795 0
M  V30 2630 N 246.843 -1.10192 1.12674 0
M  V30 2631 C 248.089 -1.82475 0.884915 0
M  V30 2632 C 248.422 -1.85093 -0.58773 0
M  V30 2633 O 247.697 -1.3134 -1.43457 0
M  V30 2634 C 247.98 -3.29018 1.46353 0
M  V30 2635 C 247.833 -3.34718 3.00473 0
M  V30 2636 C 249.152 -4.25473 1.12519 0
M  V30 2637 H 246.271 -0.662492 0.322915 0
M  V30 2638 H 248.913 -1.2913 1.39375 0
M  V30 2639 H 247.063 -3.74576 1.03077 0
M  V30 2640 H 248.735 -2.97622 3.52447 0
M  V30 2641 H 246.978 -2.74541 3.35872 0
M  V30 2642 H 247.649 -4.37918 3.36053 0
M  V30 2643 H 250.125 -3.88161 1.499 0
M  V30 2644 H 249.001 -5.26365 1.55663 0
M  V30 2645 H 249.262 -4.42084 0.0377407 0
M  V30 2646 N 248.321 -0.919034 -1.28029 0
M  V30 2647 C 249.598 -0.473668 -1.89778 0
M  V30 2648 C 249.978 1.04783 -1.83259 0
M  V30 2649 O 249.326 1.8982 -1.27202 0
M  V30 2650 C 249.536 -1.00998 -3.34066 0
M  V30 2651 C 250.884 -1.06525 -4.1102 0
M  V30 2652 O 251.908 -0.958996 -3.43048 0
M  V30 2653 O 250.767 -1.22776 -5.3253 0
M  V30 2654 H 247.861 -0.15098 -0.813101 0
M  V30 2655 H 250.407 -1.01016 -1.36359 0
M  V30 2656 H 249.179 -2.05392 -3.33061 0
M  V30 2657 H 248.802 -0.454626 -3.94992 0
M  V30 2658 N 249.799 1.42003 -0.683588 0
M  V30 2659 C 251.024 2.06265 -0.216647 0
M  V30 2660 C 251.449 1.51059 1.12083 0
M  V30 2661 O 250.807 0.632638 1.69904 0
M  V30 2662 C 250.855 3.60191 -0.171759 0
M  V30 2663 O 249.959 4.03396 0.857069 0
M  V30 2664 H 249.3 0.65502 -0.108834 0
M  V30 2665 H 251.83 1.81982 -0.935077 0
M  V30 2666 H 251.84 4.08 0.0014303 0
M  V30 2667 H 250.515 3.99743 -1.14796 0
M  V30 2668 H 249.092 3.67117 0.654208 0
M  V30 2669 N 251.277 0.427512 1.51691 0
M  V30 2670 C 252.524 -0.142229 2.02 0
M  V30 2671 C 252.852 -1.43566 1.31221 0
M  V30 2672 O 252.107 -1.91298 0.412744 0
M  V30 2673 C 252.406 -0.418249 3.54944 0
M  V30 2674 C 252.072 0.788187 4.43958 0
M  V30 2675 C 250.734 1.11906 4.68007 0
M  V30 2676 C 253.086 1.59347 4.96244 0
M  V30 2677 C 250.414 2.25608 5.41588 0
M  V30 2678 C 252.766 2.7214 5.71072 0
M  V30 2679 C 251.43 3.05692 5.93387 0
M  V30 2680 H 250.7 -0.0520451 0.73917 0
M  V30 2681 H 253.347 0.572697 1.82736 0
M  V30 2682 H 251.652 -1.21496 3.72486 0
M  V30 2683 H 253.349 -0.872339 3.91397 0
M  V30 2684 H 249.939 0.520344 4.2543 0
M  V30 2685 H 254.123 1.35106 4.77556 0
M  V30 2686 H 249.379 2.51929 5.57083 0
M  V30 2687 H 253.553 3.34914 6.10578 0
M  V30 2688 H 251.18 3.9391 6.50184 0
M  V30 2689 N 252.755 -1.56801 0.158532 0
M  V30 2690 C 254.001 -1.97559 -0.483957 0
M  V30 2691 C 254.356 -1.04239 -1.61716 0
M  V30 2692 O 253.649 -0.079603 -1.91435 0
M  V30 2693 C 253.843 -3.4235 -1.02623 0
M  V30 2694 C 253.672 -4.49669 0.0528929 0
M  V30 2695 C 252.442 -5.02838 0.498234 0
M  V30 2696 C 254.64 -5.0725 0.848616 0
M  V30 2697 N 252.622 -5.93775 1.559 0
M  V30 2698 C 253.993 -5.94506 1.7596 0
M  V30 2699 C 256.048 -4.89788 0.895121 0
M  V30 2700 C 254.751 -6.66169 2.71314 0
M  V30 2701 C 256.777 -5.62161 1.83654 0
M  V30 2702 C 256.139 -6.49134 2.73503 0
M  V30 2703 H 252.238 -0.768332 -0.145566 0
M  V30 2704 H 254.822 -1.93012 0.255799 0
M  V30 2705 H 252.993 -3.47467 -1.73555 0
M  V30 2706 H 254.725 -3.70145 -1.63629 0
M  V30 2707 H 251.48 -4.73498 0.0983222 0
M  V30 2708 H 251.904 -6.43948 2.08949 0
M  V30 2709 H 256.546 -4.22255 0.21453 0
M  V30 2710 H 254.264 -7.32923 3.40367 0
M  V30 2711 H 257.85 -5.5064 1.87847 0
M  V30 2712 H 256.73 -7.04153 3.45163 0
M  V30 2713 N 254.233 0.115231 -1.57178 0
M  V30 2714 C 255.18 1.14115 -2.00615 0
M  V30 2715 C 256.15 1.40939 -0.878941 0
M  V30 2716 O 257.335 1.52741 -1.14345 0
M  V30 2717 C 254.475 2.46156 -2.4187 0
M  V30 2718 C 253.588 2.26236 -3.68024 0
M  V30 2719 C 252.723 3.51534 -3.98243 0
M  V30 2720 C 251.762 3.26787 -5.17568 0
M  V30 2721 N 250.899 4.44298 -5.43639 0
M  V30 2722 H 255.739 0.763743 -2.88047 0
M  V30 2723 H 253.276 0.365615 -1.42484 0
M  V30 2724 H 255.234 3.23189 -2.63827 0
M  V30 2725 H 253.864 2.81783 -1.57475 0
M  V30 2726 H 252.916 1.40102 -3.5366 0
M  V30 2727 H 254.228 2.03929 -4.55208 0
M  V30 2728 H 253.382 4.36984 -4.20868 0
M  V30 2729 H 252.121 3.76876 -3.09541 0
M  V30 2730 H 251.126 2.39729 -4.94783 0
M  V30 2731 H 252.351 3.02812 -6.0785 0
M  V30 2732 H 250.297 4.69754 -4.57895 0
M  V30 2733 H 250.214 4.25109 -6.25154 0
M  V30 2734 H 251.482 5.3087 -5.70786 0
M  V30 2735 N 255.711 1.52812 0.385517 0
M  V30 2736 C 257.127 1.4214 0.725829 0
M  V30 2737 C 257.327 0.544589 1.94001 0
M  V30 2738 O 256.383 0.0193693 2.52493 0
M  V30 2739 C 257.696 2.85042 0.957668 0
M  V30 2740 C 259.244 2.94543 1.05892 0
M  V30 2741 C 259.719 4.38464 1.32337 0
M  V30 2742 N 261.21 4.41804 1.39151 0
M  V30 2743 C 261.945 5.5025 1.61285 0
M  V30 2744 N 261.441 6.68775 1.80866 0
M  V30 2745 N 263.234 5.37798 1.63492 0
M  V30 2746 H 255.385 2.08338 -0.413383 0
M  V30 2747 H 257.648 0.940016 -0.122775 0
M  V30 2748 H 257.354 3.51431 0.137568 0
M  V30 2749 H 257.228 3.27505 1.87137 0
M  V30 2750 H 259.615 2.28321 1.86959 0
M  V30 2751 H 259.696 2.55504 0.123057 0
M  V30 2752 H 259.34 5.05254 0.517793 0
M  V30 2753 H 259.27 4.75059 2.27214 0
M  V30 2754 H 261.761 3.56377 1.25713 0
M  V30 2755 H 262.074 7.47197 1.97271 0
M  V30 2756 H 260.419 6.71797 1.78083 0
M  V30 2757 H 263.61 4.44171 1.47749 0
M  V30 2758 H 263.783 6.22382 1.80402 0
M  V30 2759 N 257.189 -0.644168 1.43834 0
M  V30 2760 C 258.152 -1.73857 1.49353 0
M  V30 2761 C 259.152 -1.56315 0.377112 0
M  V30 2762 O 260.342 -1.62048 0.639226 0
M  V30 2763 C 257.474 -3.12819 1.35488 0
M  V30 2764 H 258.667 -1.70342 2.46827 0
M  V30 2765 H 256.22 -0.856652 1.30733 0
M  V30 2766 H 256.955 -3.2194 0.390569 0
M  V30 2767 H 256.74 -3.26958 2.16428 0
M  V30 2768 H 258.23 -3.92606 1.42302 0
M  V30 2769 N 258.668 -1.30515 -0.883378 0
M  V30 2770 C 259.893 -1.22487 -1.67367 0
M  V30 2771 C 260.318 0.208767 -1.86938 0
M  V30 2772 O 259.676 1.15015 -1.40148 0
M  V30 2773 C 259.724 -1.96041 -3.02655 0
M  V30 2774 O 258.828 -1.28859 -3.91751 0
M  V30 2775 H 258.169 -0.423573 -0.511353 0
M  V30 2776 H 260.699 -1.72362 -1.10239 0
M  V30 2777 H 260.709 -2.05124 -3.52687 0
M  V30 2778 H 259.384 -3.00307 -2.8773 0
M  V30 2779 H 257.961 -1.28141 -3.50192 0
M  V30 2780 N 260.146 1.09593 -1.13257 0
M  V30 2781 C 261.395 1.81105 -0.887917 0
M  V30 2782 C 261.708 1.86563 0.587672 0
M  V30 2783 O 262.914 2.54367 0.949204 0
M  V30 2784 C 261.37 3.25338 -1.53895 0
M  V30 2785 C 260.978 3.28151 -3.04994 0
M  V30 2786 C 262.722 4.01617 -1.37492 0
M  V30 2787 C 260.629 4.66897 -3.6299 0
M  V30 2788 H 259.559 0.678661 -0.328534 0
M  V30 2789 H 262.21 1.23183 -1.36008 0
M  V30 2790 H 260.592 3.8331 -0.994446 0
M  V30 2791 H 261.766 2.79953 -3.66009 0
M  V30 2792 H 260.081 2.65361 -3.20893 0
M  V30 2793 H 262.678 5.04119 -1.78235 0
M  V30 2794 H 263.021 4.15072 -0.31957 0
M  V30 2795 H 263.554 3.50082 -1.88912 0
M  V30 2796 H 260.293 4.58643 -4.68323 0
M  V30 2797 H 259.813 5.15426 -3.06752 0
M  V30 2798 H 261.492 5.3587 -3.62563 0
M  V30 2799 N 261.624 0.925811 1.2754 0
M  V30 2800 C 262.556 0.380753 2.26015 0
M  V30 2801 C 263.569 -0.487485 1.5533 0
M  V30 2802 O 264.758 -0.300413 1.75954 0
M  V30 2803 C 261.858 -0.473259 3.35579 0
M  V30 2804 C 261.031 0.375249 4.35787 0
M  V30 2805 C 260.09 -0.415809 5.24555 0
M  V30 2806 O 259.116 0.175834 5.68928 0
M  V30 2807 N 260.318 -1.71607 5.54555 0
M  V30 2808 H 263.083 1.22725 2.73421 0
M  V30 2809 H 260.644 0.793037 1.41147 0
M  V30 2810 H 262.636 -1.00949 3.91907 0
M  V30 2811 H 261.206 -1.2205 2.87789 0
M  V30 2812 H 260.426 1.09279 3.7875 0
M  V30 2813 H 261.714 0.955399 4.99749 0
M  V30 2814 H 261.112 -2.2191 5.20358 0
M  V30 2815 H 259.669 -2.19887 6.1359 0
M  V30 2816 N 263.102 -1.41638 0.69111 0
M  V30 2817 C 264.332 -2.0533 0.228758 0
M  V30 2818 C 264.74 -1.52089 -1.12541 0
M  V30 2819 O 264.083 -0.662145 -1.71351 0
M  V30 2820 C 264.145 -3.59349 0.10407 0
M  V30 2821 C 263.809 -4.35362 1.38956 0
M  V30 2822 C 264.806 -4.64942 2.32648 0
M  V30 2823 C 262.491 -4.74714 1.64169 0
M  V30 2824 C 264.485 -5.32828 3.49818 0
M  V30 2825 C 262.172 -5.42338 2.81625 0
M  V30 2826 C 263.17 -5.71322 3.74273 0
M  V30 2827 O 262.858 -6.37554 4.89673 0
M  V30 2828 H 262.59 -0.667796 0.104997 0
M  V30 2829 H 265.144 -1.82477 0.942938 0
M  V30 2830 H 263.374 -3.80924 -0.665839 0
M  V30 2831 H 265.063 -4.04633 -0.320519 0
M  V30 2832 H 265.829 -4.35025 2.14425 0
M  V30 2833 H 261.708 -4.51538 0.929202 0
M  V30 2834 H 265.252 -5.55368 4.22152 0
M  V30 2835 H 261.149 -5.71673 2.99768 0
M  V30 2836 H 261.917 -6.56049 4.8943 0
M  V30 2837 N 264.58 -0.43555 -1.51462 0
M  V30 2838 C 265.805 0.132627 -2.06976 0
M  V30 2839 C 266.23 1.35848 -1.30104 0
M  V30 2840 O 265.588 1.78112 -0.338493 0
M  V30 2841 C 265.636 0.43523 -3.57964 0
M  V30 2842 O 264.74 1.52198 -3.83288 0
M  V30 2843 H 264.081 0.00265 -0.663995 0
M  V30 2844 H 266.611 -0.616369 -1.95095 0
M  V30 2845 H 266.621 0.686206 -4.02188 0
M  V30 2846 H 265.296 -0.460739 -4.1334 0
M  V30 2847 H 263.873 1.2611 -3.50928 0
M  V30 2848 N 266.058 1.56714 -0.166846 0
M  V30 2849 C 267.005 2.17746 0.765193 0
M  V30 2850 C 267.975 1.11614 1.23011 0
M  V30 2851 O 269.16 1.39745 1.29908 0
M  V30 2852 C 266.3 2.81882 1.9909 0
M  V30 2853 C 265.413 4.02462 1.56997 0
M  V30 2854 C 264.548 4.54537 2.749 0
M  V30 2855 C 263.587 5.67538 2.29275 0
M  V30 2856 N 262.724 6.14142 3.40255 0
M  V30 2857 H 267.564 2.97048 0.237952 0
M  V30 2858 H 265.101 1.4672 0.105725 0
M  V30 2859 H 267.059 3.17221 2.70974 0
M  V30 2860 H 265.689 2.05191 2.49192 0
M  V30 2861 H 264.741 3.72973 0.748037 0
M  V30 2862 H 266.053 4.84273 1.19503 0
M  V30 2863 H 265.207 4.92035 3.54946 0
M  V30 2864 H 263.946 3.71774 3.1565 0
M  V30 2865 H 262.951 5.29597 1.47674 0
M  V30 2866 H 264.176 6.52099 1.89588 0
M  V30 2867 H 262.122 5.3431 3.8059 0
M  V30 2868 H 262.039 6.9093 3.06841 0
M  V30 2869 H 263.307 6.56289 4.206 0
M  V30 2870 N 267.536 -0.106894 1.57237 0
M  V30 2871 C 268.813 -0.843526 1.76477 0
M  V30 2872 C 269.193 -1.97499 0.745464 0
M  V30 2873 O 268.541 -2.27357 -0.228306 0
M  V30 2874 C 268.751 -1.34903 3.21873 0
M  V30 2875 C 270.099 -1.79654 3.8472 0
M  V30 2876 O 271.123 -1.44554 3.2555 0
M  V30 2877 O 269.982 -2.44515 4.88748 0
M  V30 2878 H 267.076 -0.401468 0.723016 0
M  V30 2879 H 269.622 -0.0896927 1.69463 0
M  V30 2880 H 268.394 -0.53781 3.87586 0
M  V30 2881 H 268.017 -2.16522 3.33473 0
M  V30 2882 N 269.014 -1.53014 -0.377408 0
M  V30 2883 C 270.239 -1.72818 -1.14668 0
M  V30 2884 C 270.664 -0.450725 -1.8262 0
M  V30 2885 O 270.022 0.59439 -1.7128 0
M  V30 2886 C 270.07 -2.88627 -2.16164 0
M  V30 2887 O 269.174 -2.56409 -3.22998 0
M  V30 2888 H 268.515 -0.574301 -0.333278 0
M  V30 2889 H 271.045 -1.99853 -0.438152 0
M  V30 2890 H 271.055 -3.14455 -2.59966 0
M  V30 2891 H 269.73 -3.81294 -1.66095 0
M  V30 2892 H 268.307 -2.4136 -2.84253 0
M  V30 2893 N 270.492 0.636531 -1.44174 0
M  V30 2894 C 271.717 1.42847 -1.50364 0
M  V30 2895 C 272.142 1.87665 -0.127867 0
M  V30 2896 O 271.5 1.58408 0.88185 0
M  V30 2897 C 271.548 2.62854 -2.4686 0
M  V30 2898 O 270.652 3.62501 -1.9664 0
M  V30 2899 H 269.993 0.427642 -0.507955 0
M  V30 2900 H 272.523 0.777422 -1.89255 0
M  V30 2901 H 272.533 3.10465 -2.64718 0
M  V30 2902 H 271.208 2.29578 -3.46795 0
M  V30 2903 H 269.785 3.21735 -1.88523 0
M  V30 2904 N 271.97 1.30982 0.876444 0
M  V30 2905 C 273.218 1.20058 1.62575 0
M  V30 2906 C 273.539 -0.242947 1.93481 0
M  V30 2907 O 272.809 -1.1619 1.57724 0
M  V30 2908 H 271.389 0.44135 0.602677 0
M  V30 2909 H 274.051 1.64222 1.04962 0
M  V30 2910 H 273.147 1.76762 2.57219 0
M  V30 2911 N 273.449 -1.08991 1.13837 0
M  V30 2912 C 274.695 -1.81526 0.90422 0
M  V30 2913 C 275.028 -1.85706 -0.568066 0
M  V30 2914 O 274.303 -1.32855 -1.42056 0
M  V30 2915 C 274.586 -3.27447 1.49835 0
M  V30 2916 C 274.439 -3.31512 3.04006 0
M  V30 2917 C 275.758 -4.24256 1.17025 0
M  V30 2918 H 272.877 -0.659029 0.329923 0
M  V30 2919 H 275.519 -1.27644 1.40737 0
M  V30 2920 H 273.669 -3.73462 1.07044 0
M  V30 2921 H 275.341 -2.93867 3.55584 0
M  V30 2922 H 273.584 -2.70963 3.38765 0
M  V30 2923 H 274.255 -4.34329 3.40679 0
M  V30 2924 H 276.731 -3.86549 1.54009 0
M  V30 2925 H 275.607 -5.24684 1.61237 0
M  V30 2926 H 275.868 -4.42019 0.0846274 0
M  V30 2927 N 274.927 -0.932562 -1.27047 0
M  V30 2928 C 276.176 -0.571351 -1.93439 0
M  V30 2929 C 276.489 0.892467 -1.74053 0
M  V30 2930 O 277.695 1.36267 -2.34826 0
M  V30 2931 C 276.151 -0.97106 -3.46552 0
M  V30 2932 C 275.759 -2.4559 -3.74686 0
M  V30 2933 C 277.503 -0.681333 -4.18997 0
M  V30 2934 C 275.41 -2.79475 -5.21198 0
M  V30 2935 H 274.34 -0.209966 -0.724176 0
M  V30 2936 H 276.991 -1.13403 -1.44263 0
M  V30 2937 H 275.373 -0.336983 -3.94564 0
M  V30 2938 H 276.547 -3.13829 -3.37414 0
M  V30 2939 H 274.862 -2.71802 -3.15456 0
M  V30 2940 H 277.459 -0.910939 -5.26883 0
M  V30 2941 H 277.802 0.381628 -4.14547 0
M  V30 2942 H 278.335 -1.27473 -3.76823 0
M  V30 2943 H 275.074 -3.847 -5.30741 0
M  V30 2944 H 274.594 -2.1589 -5.596 0
M  V30 2945 H 276.273 -2.67478 -5.89122 0
M  V30 2946 N 276.405 1.4127 -0.698611 0
M  V30 2947 C 277.355 2.27997 -0.0119836 0
M  V30 2948 C 278.339 1.42363 0.749765 0
M  V30 2949 O 279.531 1.65607 0.624758 0
M  V30 2950 C 276.66 3.30702 0.921458 0
M  V30 2951 C 275.746 4.23814 0.155796 0
M  V30 2952 N 276.137 4.98572 -0.852015 0
M  V30 2953 C 274.435 4.44284 0.390836 0
M  V30 2954 C 275.136 5.66744 -1.3106 0
M  V30 2955 N 274.112 5.39867 -0.635944 0
M  V30 2956 H 277.914 2.83232 -0.784649 0
M  V30 2957 H 275.428 1.53518 -0.529711 0
M  V30 2958 H 277.425 3.91661 1.42854 0
M  V30 2959 H 276.085 2.77028 1.69369 0
M  V30 2960 H 277.096 5.03024 -1.23235 0
M  V30 2961 H 273.773 4.01614 1.14071 0
M  V30 2962 H 275.163 6.36672 -2.14707 0
M  V30 2963 N 277.883 0.443576 1.51229 0
M  V30 2964 C 279.129 -0.120975 2.02439 0
M  V30 2965 C 279.462 -1.41815 1.32674 0
M  V30 2966 O 278.737 -1.89373 0.443622 0
M  V30 2967 C 279.02 -0.333291 3.58554 0
M  V30 2968 C 278.873 0.982968 4.38928 0
M  V30 2969 C 280.192 -1.10028 4.26124 0
M  V30 2970 H 277.311 -0.0424923 0.735774 0
M  V30 2971 H 279.953 0.583794 1.80809 0
M  V30 2972 H 278.103 -0.933614 3.77115 0
M  V30 2973 H 279.775 1.61775 4.32003 0
M  V30 2974 H 278.018 1.58611 4.03763 0
M  V30 2975 H 278.689 0.788379 5.46341 0
M  V30 2976 H 281.165 -0.591711 4.11871 0
M  V30 2977 H 280.041 -1.21761 5.35225 0
M  V30 2978 H 280.302 -2.12996 3.87408 0
M  V30 2979 N 279.361 -1.56624 0.175154 0
M  V30 2980 C 280.294 -2.14 -0.792412 0
M  V30 2981 C 281.272 -1.07114 -1.22333 0
M  V30 2982 O 282.456 -1.35112 -1.31442 0
M  V30 2983 C 279.583 -2.68268 -2.0676 0
M  V30 2984 C 278.629 -3.87562 -1.7804 0
M  V30 2985 S 279.462 -5.27074 -0.946222 0
M  V30 2986 C 280.618 -5.8475 -2.23199 0
M  V30 2987 H 280.851 -2.95736 -0.304588 0
M  V30 2988 H 278.384 -1.54349 -0.0395705 0
M  V30 2989 H 280.342 -3.00182 -2.80002 0
M  V30 2990 H 279.003 -1.86612 -2.52656 0
M  V30 2991 H 278.196 -4.23874 -2.72666 0
M  V30 2992 H 277.798 -3.56555 -1.12891 0
M  V30 2993 H 280.09 -5.97898 -3.18629 0
M  V30 2994 H 281.033 -6.81756 -1.91349 0
M  V30 2995 H 281.441 -5.13198 -2.35134 0
M  V30 2996 N 280.839 0.0985539 -1.57292 0
M  V30 2997 C 281.769 1.12064 -2.04851 0
M  V30 2998 C 282.75 1.41981 -0.936767 0
M  V30 2999 O 283.935 1.52071 -1.20781 0
M  V30 3000 C 281.065 2.44144 -2.47004 0
M  V30 3001 C 280.019 2.28643 -3.6181 0
M  V30 3002 C 279.345 3.65869 -3.89929 0
M  V30 3003 C 280.645 1.72986 -4.92822 0
M  V30 3004 H 282.339 0.724979 -2.9049 0
M  V30 3005 H 279.885 0.34729 -1.39749 0
M  V30 3006 H 281.838 3.15914 -2.78884 0
M  V30 3007 H 280.562 2.85639 -1.5836 0
M  V30 3008 H 279.221 1.59318 -3.30172 0
M  V30 3009 H 278.869 4.04885 -2.98458 0
M  V30 3010 H 278.569 3.56344 -4.67218 0
M  V30 3011 H 280.093 4.39112 -4.2428 0
M  V30 3012 H 281.507 2.34593 -5.23105 0
M  V30 3013 H 279.904 1.74229 -5.74251 0
M  V30 3014 H 280.974 0.689007 -4.7998 0
M  V30 3015 N 282.317 1.53212 0.369288 0
M  V30 3016 C 283.265 1.80054 1.47253 0
M  V30 3017 C 284.259 0.669456 1.55611 0
M  V30 3018 O 285.465 0.852328 1.58541 0
M  V30 3019 H 281.84 0.570034 0.490475 0
M  V30 3020 H 283.811 2.72403 1.21817 0
M  V30 3021 C 282.56 2.00403 2.84137 0
M  V30 3022 H 281.883 2.86876 2.78464 0
M  V30 3023 H 283.323 2.23164 3.60519 0
M  V30 3024 C 281.782 0.782081 3.27697 0
M  V30 3025 O 282.312 -0.0310205 4.01688 0
M  V30 3026 N 280.518 0.606573 2.84199 0
M  V30 3027 H 280.065 1.26939 2.24152 0
M  V30 3028 H 280.023 -0.20962 3.137 0
M  V30 3029 N 283.795 -0.628877 1.44509 0
M  V30 3030 C 285.043 -1.38565 1.4712 0
M  V30 3031 C 285.364 -1.94712 0.105899 0
M  V30 3032 O 284.634 -1.75912 -0.862079 0
M  V30 3033 H 283.214 -0.514333 0.541729 0
M  V30 3034 H 285.876 -0.740018 1.80305 0
M  V30 3035 H 284.972 -2.21583 2.19789 0
M  V30 3036 N 285.273 -1.31445 -0.869486 0
M  V30 3037 C 286.498 -1.24256 -1.66058 0
M  V30 3038 C 286.923 0.188928 -1.87149 0
M  V30 3039 O 286.281 1.13522 -1.4136 0
M  V30 3040 C 286.329 -1.9924 -3.00559 0
M  V30 3041 O 285.433 -1.33007 -3.90362 0
M  V30 3042 H 284.774 -0.428973 -0.506831 0
M  V30 3043 H 287.304 -1.73521 -1.08404 0
M  V30 3044 H 287.314 -2.08854 -3.50491 0
M  V30 3045 H 285.989 -3.03342 -2.84528 0
M  V30 3046 H 284.566 -1.31848 -3.48813 0
M  V30 3047 N 286.751 1.08385 -1.14413 0
M  V30 3048 C 287.661 2.18856 -0.844951 0
M  V30 3049 C 288.677 1.73121 0.174668 0
M  V30 3050 O 289.853 2.014 0.00312857 0
M  V30 3051 C 286.918 3.45155 -0.32696 0
M  V30 3052 C 285.979 4.05513 -1.40916 0
M  V30 3053 C 285.212 5.25784 -0.915793 0
M  V30 3054 O 285.435 5.69884 0.242651 0
M  V30 3055 O 284.369 5.77545 -1.69487 0
M  V30 3056 H 288.195 2.46919 -1.76818 0
M  V30 3057 H 285.78 1.17524 -0.922411 0
M  V30 3058 H 287.662 4.21377 -0.0440211 0
M  V30 3059 H 286.337 3.18668 0.568539 0
M  V30 3060 H 285.244 3.30879 -1.74556 0
M  V30 3061 H 286.577 4.3625 -2.27919 0
M  V30 3062 N 288.23 0.939286 1.26551 0
M  V30 3063 C 289.641 0.628782 1.75793 0
M  V30 3064 C 289.992 -0.856046 1.7654 0
M  V30 3065 O 289.117 -1.66994 1.3763 0
M  V30 3066 C 289.712 1.13465 3.19235 0
M  V30 3067 C 288.271 0.874601 3.66098 0
M  V30 3068 C 287.418 1.28667 2.45642 0
M  V30 3069 H 290.369 1.1178 1.12654 0
M  V30 3070 H 290.39 0.487609 3.77363 0
M  V30 3071 H 289.902 2.21535 3.1866 0
M  V30 3072 H 288.003 -0.191793 3.72106 0
M  V30 3073 H 288.116 1.50028 4.55004 0
M  V30 3074 H 286.48 0.705109 2.44745 0
M  V30 3075 H 287.263 2.37625 2.47769 0
M  V30 3076 N 289.708 -1.40897 0.706093 0
M  V30 3077 C 290.936 -2.05373 0.250887 0
M  V30 3078 C 291.351 -1.53172 -1.10381 0
M  V30 3079 O 290.708 -0.684305 -1.69185 0
M  V30 3080 C 290.759 -3.6088 0.211571 0
M  V30 3081 O 290.48 -4.11153 1.51276 0
M  V30 3082 C 291.981 -4.42517 -0.263346 0
M  V30 3083 H 289.201 -0.66115 0.114552 0
M  V30 3084 H 291.745 -1.80479 0.961635 0
M  V30 3085 H 289.9 -3.84777 -0.450073 0
M  V30 3086 H 290.314 -5.05279 1.40689 0
M  V30 3087 H 291.788 -5.51479 -0.239718 0
M  V30 3088 H 292.265 -4.19396 -1.30397 0
M  V30 3089 H 292.871 -4.23708 0.367677 0
M  V30 3090 N 291.186 -0.45159 -1.50991 0
M  V30 3091 C 292.434 0.109857 -2.01801 0
M  V30 3092 C 292.755 1.41958 -1.3369 0
M  V30 3093 O 292.025 1.9003 -0.475951 0
M  V30 3094 H 290.605 0.0435884 -0.745727 0
M  V30 3095 H 293.267 -0.597557 -1.85514 0
M  V30 3096 H 292.363 0.275489 -3.10882 0
M  V30 3097 N 292.664 1.56529 -0.183458 0
M  V30 3098 C 293.627 2.17324 0.728223 0
M  V30 3099 C 294.627 1.12453 1.14939 0
M  V30 3100 O 295.817 1.37902 1.06437 0
M  V30 3101 C 292.949 2.76591 1.99274 0
M  V30 3102 H 294.142 2.99241 0.198772 0
M  V30 3103 H 291.695 1.5616 0.0661391 0
M  V30 3104 H 292.43 1.98441 2.56499 0
M  V30 3105 H 292.215 3.5335 1.69959 0
M  V30 3106 H 293.705 3.23311 2.6431 0
M  V30 3107 N 294.142 -0.090211 1.57342 0
M  V30 3108 C 295.372 -0.805055 1.90269 0
M  V30 3109 C 295.78 -1.72561 0.775842 0
M  V30 3110 O 295.123 -1.81839 -0.260843 0
M  V30 3111 C 295.185 -1.66734 3.18497 0
M  V30 3112 C 294.849 -0.918092 4.47683 0
M  V30 3113 C 295.846 -0.245674 5.19319 0
M  V30 3114 C 293.531 -0.890724 4.94339 0
M  V30 3115 C 295.525 0.444088 6.35851 0
M  V30 3116 C 293.212 -0.197179 6.10782 0
M  V30 3117 C 294.21 0.469044 6.81388 0
M  V30 3118 O 293.898 1.15146 7.95611 0
M  V30 3119 H 293.63 -0.235143 0.633785 0
M  V30 3120 H 296.184 -0.0703805 2.05279 0
M  V30 3121 H 294.414 -2.44437 2.99646 0
M  V30 3122 H 296.103 -2.25919 3.37217 0
M  V30 3123 H 296.869 -0.258246 4.84312 0
M  V30 3124 H 292.748 -1.39873 4.39268 0
M  V30 3125 H 296.292 0.964667 6.90898 0
M  V30 3126 H 292.189 -0.18247 6.45242 0
M  V30 3127 H 292.957 1.05885 8.11622 0
M  V30 3128 N 295.62 -1.53406 -0.361157 0
M  V30 3129 C 297.031 -1.61442 -0.937728 0
M  V30 3130 C 297.382 -0.48461 -1.90121 0
M  V30 3131 O 296.507 0.388312 -2.12888 0
M  V30 3132 C 297.102 -2.92624 -1.70753 0
M  V30 3133 C 295.661 -3.02981 -2.23337 0
M  V30 3134 C 294.808 -2.5677 -1.04712 0
M  V30 3135 H 297.759 -1.58083 -0.139816 0
M  V30 3136 H 297.78 -2.80675 -2.56908 0
M  V30 3137 H 297.292 -3.74834 -1.00604 0
M  V30 3138 H 295.393 -2.25368 -2.96715 0
M  V30 3139 H 295.506 -4.0814 -2.50916 0
M  V30 3140 H 293.87 -2.11752 -1.41539 0
M  V30 3141 H 294.653 -3.41402 -0.360539 0
M  V30 3142 N 297.098 0.621204 -1.44841 0
M  V30 3143 C 298.347 1.37658 -1.47422 0
M  V30 3144 C 298.66 1.95264 -0.114629 0
M  V30 3145 O 299.866 2.71494 -0.0180199 0
M  V30 3146 C 298.322 2.49285 -2.59586 0
M  V30 3147 C 297.93 1.98149 -4.01797 0
M  V30 3148 C 299.674 3.26409 -2.71399 0
M  V30 3149 C 297.581 3.07178 -5.05367 0
M  V30 3150 H 296.511 0.517344 -0.548517 0
M  V30 3151 H 299.162 0.667257 -1.70938 0
M  V30 3152 H 297.544 3.22839 -2.29328 0
M  V30 3153 H 298.718 1.31395 -4.41669 0
M  V30 3154 H 297.033 1.33812 -3.94314 0
M  V30 3155 H 299.63 4.07706 -3.45948 0
M  V30 3156 H 299.973 3.76535 -1.77559 0
M  V30 3157 H 300.506 2.5995 -3.01116 0
M  V30 3158 H 297.245 2.61985 -6.00869 0
M  V30 3159 H 296.765 3.72542 -4.70077 0
M  V30 3160 H 298.444 3.71789 -5.29511 0
M  V30 3161 N 298.576 1.31904 0.862503 0
M  V30 3162 C 299.523 1.20182 1.9704 0
M  V30 3163 C 300.493 0.0858247 1.65878 0
M  V30 3164 O 301.678 0.26 1.8902 0
M  V30 3165 C 298.818 0.922797 3.32533 0
M  V30 3166 C 297.931 2.12284 3.76244 0
M  V30 3167 C 297.066 1.77996 5.00491 0
M  V30 3168 C 296.105 2.94366 5.36671 0
M  V30 3169 N 295.242 2.60223 6.52095 0
M  V30 3170 H 300.082 2.14951 2.06398 0
M  V30 3171 H 297.619 1.06917 1.01031 0
M  V30 3172 H 299.577 0.741548 4.10557 0
M  V30 3173 H 298.207 0.0119227 3.22798 0
M  V30 3174 H 297.259 2.41461 2.9394 0
M  V30 3175 H 298.571 2.99357 3.98982 0
M  V30 3176 H 297.725 1.56377 5.862 0
M  V30 3177 H 296.464 0.881252 4.79672 0
M  V30 3178 H 295.469 3.16625 4.49476 0
M  V30 3179 H 296.694 3.84957 5.59451 0
M  V30 3180 H 294.64 1.72884 6.32809 0
M  V30 3181 H 294.557 3.40827 6.74814 0
M  V30 3182 H 295.825 2.42016 7.40978 0
M  V30 3183 N 300.054 -1.07777 1.14986 0
M  V30 3184 C 301.302 -1.79934 0.920235 0
M  V30 3185 C 301.623 -1.86955 -0.554336 0
M  V30 3186 O 300.893 -1.36731 -1.40291 0
M  V30 3187 H 299.473 -0.666424 0.337473 0
M  V30 3188 H 302.135 -1.3027 1.44968 0
M  V30 3189 H 301.231 -2.82539 1.32583 0
M  V30 3190 N 301.532 -0.945985 -1.26051 0
M  V30 3191 C 302.779 -0.596118 -1.93527 0
M  V30 3192 C 303.107 0.865559 -1.74179 0
M  V30 3193 O 302.362 1.63524 -1.0751 0
M  V30 3194 C 302.661 -0.890475 -3.46129 0
M  V30 3195 C 302.327 -2.3368 -3.85622 0
M  V30 3196 C 300.989 -2.73216 -3.96114 0
M  V30 3197 C 303.341 -3.27648 -4.05334 0
M  V30 3198 C 300.669 -4.05806 -4.2372 0
M  V30 3199 C 303.021 -4.59841 -4.3443 0
M  V30 3200 C 301.685 -4.99185 -4.43137 0
M  V30 3201 H 300.955 -0.218135 -0.708165 0
M  V30 3202 H 303.602 -1.1934 -1.49768 0
M  V30 3203 H 301.907 -0.210711 -3.91233 0
M  V30 3204 H 303.604 -0.598478 -3.96509 0
M  V30 3205 H 300.194 -2.02015 -3.78005 0
M  V30 3206 H 304.378 -2.98298 -3.96651 0
M  V30 3207 H 299.634 -4.35945 -4.28675 0
M  V30 3208 H 303.808 -5.32641 -4.48628 0
M  V30 3209 H 301.435 -6.01952 -4.64282 0
M  V30 3210 N 303.011 1.40521 -0.713556 0
M  V30 3211 C 304.258 2.00923 -0.25219 0
M  V30 3212 C 304.586 1.56571 1.15395 0
M  V30 3213 O 303.841 0.775874 1.79663 0
M  V30 3214 C 304.14 3.56317 -0.278 0
M  V30 3215 C 303.806 4.20246 -1.63415 0
M  V30 3216 C 302.468 4.37422 -2.00538 0
M  V30 3217 C 304.82 4.55923 -2.52554 0
M  V30 3218 C 302.148 4.87558 -3.2635 0
M  V30 3219 C 304.5 5.07458 -3.77716 0
M  V30 3220 C 303.164 5.22843 -4.14959 0
M  V30 3221 H 302.434 0.735231 -0.0922829 0
M  V30 3222 H 305.081 1.68161 -0.916188 0
M  V30 3223 H 303.386 3.88976 0.469567 0
M  V30 3224 H 305.083 4.00883 0.0967819 0
M  V30 3225 H 301.673 4.07263 -1.33546 0
M  V30 3226 H 305.857 4.42291 -2.25149 0
M  V30 3227 H 301.113 4.97654 -3.55176 0
M  V30 3228 H 305.287 5.34041 -4.4696 0
M  V30 3229 H 302.914 5.61454 -5.12516 0
M  V30 3230 N 304.489 0.459591 1.5075 0
M  V30 3231 C 305.452 -0.329093 2.26825 0
M  V30 3232 C 306.452 -0.930481 1.31144 0
M  V30 3233 O 307.642 -0.801453 1.54669 0
M  V30 3234 C 304.774 -1.46768 3.07688 0
M  V30 3235 H 305.967 0.337924 2.9799 0
M  V30 3236 H 303.52 0.213336 1.54837 0
M  V30 3237 H 304.255 -2.17009 2.40993 0
M  V30 3238 H 304.04 -1.04238 3.77991 0
M  V30 3239 H 305.53 -2.02433 3.65254 0
M  V30 3240 N 305.967 -1.56429 0.191757 0
M  V30 3241 C 307.244 -1.89224 -0.495332 0
M  V30 3242 C 307.624 -1.10478 -1.79883 0
M  V30 3243 O 306.972 -0.204852 -2.2758 0
M  V30 3244 C 307.182 -3.41548 -0.717367 0
M  V30 3245 C 308.53 -4.11711 -1.03823 0
M  V30 3246 O 309.554 -3.4698 -0.805204 0
M  V30 3247 O 308.413 -5.2611 -1.47887 0
M  V30 3248 H 305.507 -0.785788 -0.25781 0
M  V30 3249 H 308.053 -1.68111 0.231721 0
M  V30 3250 H 306.825 -3.90772 0.203287 0
M  V30 3251 H 306.448 -3.68342 -1.497 0
M  V30 3252 N 307.445 0.0818655 -1.57387 0
M  V30 3253 C 308.675 0.794954 -1.90694 0
M  V30 3254 C 309.083 1.72147 -0.784982 0
M  V30 3255 O 308.426 1.81974 0.251196 0
M  V30 3256 C 308.488 1.65042 -3.19376 0
M  V30 3257 C 308.152 0.894337 -4.48164 0
M  V30 3258 C 309.149 0.21813 -5.19442 0
M  V30 3259 C 306.834 0.864495 -4.94805 0
M  V30 3260 C 308.828 -0.477802 -6.35607 0
M  V30 3261 C 306.515 0.164785 -6.10878 0
M  V30 3262 C 307.513 -0.505173 -6.81129 0
M  V30 3263 O 307.201 -1.19363 -7.94989 0
M  V30 3264 H 306.933 0.231779 -0.635023 0
M  V30 3265 H 309.487 0.059493 -2.05314 0
M  V30 3266 H 307.717 2.42844 -3.00938 0
M  V30 3267 H 309.406 2.24127 -3.38411 0
M  V30 3268 H 310.172 0.232558 -4.84442 0
M  V30 3269 H 306.051 1.37542 -4.40004 0
M  V30 3270 H 309.595 -1.00129 -6.90377 0
M  V30 3271 H 305.492 0.148249 -6.4533 0
M  V30 3272 H 306.26 -1.10188 -8.11049 0
M  V30 3273 N 308.923 1.53595 0.353017 0
M  V30 3274 C 309.833 1.83897 1.45667 0
M  V30 3275 C 310.849 0.728334 1.58023 0
M  V30 3276 O 312.025 1.01968 1.73679 0
M  V30 3277 C 309.09 2.03383 2.80778 0
M  V30 3278 C 308.151 3.27262 2.77845 0
M  V30 3279 C 307.384 3.45809 4.06512 0
M  V30 3280 O 307.607 2.68387 5.03314 0
M  V30 3281 O 306.541 4.39207 4.11559 0
M  V30 3282 H 310.367 2.77686 1.2298 0
M  V30 3283 H 307.952 1.39132 0.544308 0
M  V30 3284 H 309.834 2.17698 3.60812 0
M  V30 3285 H 308.509 1.12783 3.03417 0
M  V30 3286 H 307.416 3.18359 1.96465 0
M  V30 3287 H 308.749 4.17824 2.60161 0
M  V30 3288 N 310.401 -0.613514 1.45168 0
M  V30 3289 C 311.65 -1.36874 1.4815 0
M  V30 3290 C 311.963 -1.952 0.124982 0
M  V30 3291 O 313.169 -2.71481 0.0324176 0
M  V30 3292 C 311.625 -2.47905 2.60904 0
M  V30 3293 C 311.233 -1.96016 4.02842 0
M  V30 3294 C 312.977 -3.24965 2.73126 0
M  V30 3295 C 310.884 -3.04494 5.06988 0
M  V30 3296 H 309.814 -0.514428 0.551253 0
M  V30 3297 H 312.465 -0.658182 1.7129 0
M  V30 3298 H 310.847 -3.21618 2.31037 0
M  V30 3299 H 312.021 -1.29051 4.4236 0
M  V30 3300 H 310.336 -1.31719 3.95018 0
M  V30 3301 H 312.933 -4.05865 3.48106 0
M  V30 3302 H 313.276 -3.75588 1.79553 0
M  V30 3303 H 313.809 -2.5835 3.0249 0
M  V30 3304 H 310.548 -2.58795 6.0225 0
M  V30 3305 H 310.068 -3.70044 4.72046 0
M  V30 3306 H 311.747 -3.68976 5.31475 0
M  V30 3307 N 311.879 -1.3236 -0.855495 0
M  V30 3308 C 313.29 -1.2056 -1.42556 0
M  V30 3309 C 313.641 0.182209 -1.95352 0
M  V30 3310 O 312.766 1.08088 -1.87472 0
M  V30 3311 C 313.361 -2.1826 -2.59129 0
M  V30 3312 C 311.92 -2.10351 -3.12137 0
M  V30 3313 C 311.067 -2.06674 -1.84882 0
M  V30 3314 H 314.018 -1.442 -0.662727 0
M  V30 3315 H 314.039 -1.78064 -3.36264 0
M  V30 3316 H 313.551 -3.19257 -2.20673 0
M  V30 3317 H 311.652 -1.12599 -3.55179 0
M  V30 3318 H 311.765 -3.00135 -3.73438 0
M  V30 3319 H 310.129 -1.51901 -2.04446 0
M  V30 3320 H 310.912 -3.09451 -1.48643 0
M  V30 3321 N 313.357 1.07166 -1.15556 0
M  V30 3322 C 314.305 2.16517 -0.8499 0
M  V30 3323 C 315.299 1.68468 0.177454 0
M  V30 3324 O 316.505 1.79971 0.0323026 0
M  V30 3325 H 312.88 0.706652 -0.25719 0
M  V30 3326 H 314.851 2.39514 -1.77976 0
M  V30 3327 C 313.6 3.45855 -0.357682 0
M  V30 3328 H 312.923 3.83214 -1.13961 0
M  V30 3329 H 314.363 4.23607 -0.182489 0
M  V30 3330 C 312.822 3.24062 0.921152 0
M  V30 3331 O 313.352 3.48813 1.9923 0
M  V30 3332 N 311.558 2.77539 0.86141 0
M  V30 3333 H 311.105 2.57598 -0.0104408 0
M  V30 3334 H 311.063 2.63337 1.71758 0
M  V30 3335 N 314.835 0.952656 1.25548 0
M  V30 3336 C 315.765 0.489287 2.28316 0
M  V30 3337 C 316.746 -0.463359 1.63667 0
M  V30 3338 O 317.931 -0.36274 1.90782 0
M  V30 3339 C 315.061 -0.235603 3.465 0
M  V30 3340 C 314.015 0.631593 4.23314 0
M  V30 3341 C 313.341 -0.223923 5.34231 0
M  V30 3342 C 314.641 1.90871 4.86174 0
M  V30 3343 H 316.335 1.34822 2.67326 0
M  V30 3344 H 313.881 0.649728 1.28509 0
M  V30 3345 H 315.834 -0.570882 4.17515 0
M  V30 3346 H 314.558 -1.12877 3.06474 0
M  V30 3347 H 313.217 0.949929 3.54079 0
M  V30 3348 H 312.865 -1.11678 4.90446 0
M  V30 3349 H 312.565 0.35299 5.86539 0
M  V30 3350 H 314.089 -0.554214 6.0808 0
M  V30 3351 H 315.503 1.63997 5.49343 0
M  V30 3352 H 313.9 2.43112 5.4865 0
M  V30 3353 H 314.97 2.61304 4.08471 0
M  V30 3354 N 316.313 -1.40141 0.720998 0
M  V30 3355 C 317.245 -2.29177 0.0324669 0
M  V30 3356 C 318.258 -1.46105 -0.718126 0
M  V30 3357 O 319.447 -1.69335 -0.564608 0
M  V30 3358 C 316.547 -3.24473 -0.978292 0
M  V30 3359 C 315.72 -4.36423 -0.292115 0
M  V30 3360 C 314.779 -5.12122 -1.20901 0
M  V30 3361 O 313.805 -5.64981 -0.691766 0
M  V30 3362 N 315.007 -5.21992 -2.53978 0
M  V30 3363 H 317.772 -2.88909 0.796984 0
M  V30 3364 H 315.333 -1.51569 0.569068 0
M  V30 3365 H 317.325 -3.71987 -1.59398 0
M  V30 3366 H 315.895 -2.65871 -1.64413 0
M  V30 3367 H 315.115 -3.90967 0.503847 0
M  V30 3368 H 316.403 -5.08467 0.183971 0
M  V30 3369 H 315.801 -4.8054 -2.98493 0
M  V30 3370 H 314.358 -5.72995 -3.10677 0
M  V30 3371 N 317.792 -0.46758 -1.50504 0
M  V30 3372 C 318.739 0.328413 -2.28452 0
M  V30 3373 C 319.709 0.990313 -1.33349 0
M  V30 3374 O 320.894 1.00343 -1.62284 0
M  V30 3375 C 318.034 1.40648 -3.15138 0
M  V30 3376 C 317.147 0.759709 -4.25267 0
M  V30 3377 C 316.282 1.81537 -4.99217 0
M  V30 3378 C 315.321 1.14866 -6.01226 0
M  V30 3379 N 314.458 2.14702 -6.68467 0
M  V30 3380 H 319.298 -0.342603 -2.96024 0
M  V30 3381 H 316.835 -0.180801 -1.45985 0
M  V30 3382 H 318.793 2.04315 -3.63746 0
M  V30 3383 H 317.423 2.04671 -2.49619 0
M  V30 3384 H 316.475 0.0105671 -3.80399 0
M  V30 3385 H 317.787 0.233243 -4.98254 0
M  V30 3386 H 316.941 2.52793 -5.51526 0
M  V30 3387 H 315.68 2.37564 -4.25928 0
M  V30 3388 H 314.685 0.42171 -5.4818 0
M  V30 3389 H 315.91 0.595334 -6.76485 0
M  V30 3390 H 313.856 2.69752 -5.97972 0
M  V30 3391 H 313.773 1.6703 -7.37317 0
M  V30 3392 H 315.041 2.85348 -7.25394 0
M  V30 3393 N 319.27 1.56325 -0.20005 0
M  V30 3394 C 320.18 2.22931 0.730668 0
M  V30 3395 C 321.196 1.22997 1.23076 0
M  V30 3396 O 322.372 1.55748 1.27689 0
M  V30 3397 C 319.437 2.87948 1.93098 0
M  V30 3398 C 318.498 4.03166 1.47497 0
M  V30 3399 C 317.731 4.65073 2.61807 0
M  V30 3400 O 317.954 4.25913 3.79413 0
M  V30 3401 O 316.888 5.54452 2.34237 0
M  V30 3402 H 320.714 3.03084 0.193391 0
M  V30 3403 H 318.299 1.49371 0.0294621 0
M  V30 3404 H 320.181 3.29063 2.6324 0
M  V30 3405 H 318.856 2.10771 2.45677 0
M  V30 3406 H 317.763 3.66664 0.742201 0
M  V30 3407 H 319.096 4.82022 0.995796 0
M  V30 3408 N 320.748 -0.0735177 1.57428 0
M  V30 3409 C 321.695 -1.08756 2.0357 0
M  V30 3410 C 322.665 -1.38559 0.916 0
M  V30 3411 O 323.85 -1.49656 1.18354 0
M  V30 3412 C 320.99 -2.39657 2.48311 0
M  V30 3413 C 320.103 -2.16399 3.73892 0
M  V30 3414 C 319.238 -3.40852 4.07423 0
M  V30 3415 C 318.277 -3.1295 5.2605 0
M  V30 3416 N 317.414 -4.29729 5.55228 0
M  V30 3417 H 322.254 -0.687104 2.8997 0
M  V30 3418 H 319.791 -0.327709 1.43403 0
M  V30 3419 H 321.749 -3.16081 2.72303 0
M  V30 3420 H 320.379 -2.77508 1.64891 0
M  V30 3421 H 319.431 -1.30676 3.57251 0
M  V30 3422 H 320.743 -1.91788 4.60455 0
M  V30 3423 H 319.897 -4.25671 4.32306 0
M  V30 3424 H 318.636 -3.68537 3.19425 0
M  V30 3425 H 317.641 -2.26526 5.00965 0
M  V30 3426 H 318.866 -2.86589 6.15665 0
M  V30 3427 H 316.812 -4.57448 4.70188 0
M  V30 3428 H 316.729 -4.08385 6.36206 0
M  V30 3429 H 317.997 -5.1555 5.84661 0
M  V30 3430 N 322.226 -1.5378 -0.344866 0
M  V30 3431 C 323.475 -1.7018 -1.08267 0
M  V30 3432 C 323.788 -0.471 -1.89845 0
M  V30 3433 O 324.994 -0.515917 -2.66553 0
M  V30 3434 C 323.45 -3.00923 -1.97417 0
M  V30 3435 C 323.058 -4.31335 -1.21053 0
M  V30 3436 C 324.802 -3.26688 -2.71063 0
M  V30 3437 C 322.709 -5.53153 -2.09225 0
M  V30 3438 H 321.639 -0.634138 -0.407903 0
M  V30 3439 H 324.29 -1.8028 -0.342246 0
M  V30 3440 H 322.672 -2.84676 -2.75274 0
M  V30 3441 H 323.846 -4.58281 -0.481159 0
M  V30 3442 H 322.161 -4.12173 -0.591813 0
M  V30 3443 H 324.758 -4.1489 -3.37299 0
M  V30 3444 H 325.101 -2.43639 -3.37558 0
M  V30 3445 H 325.634 -3.43705 -2.0028 0
M  V30 3446 H 322.373 -6.38741 -1.47274 0
M  V30 3447 H 321.893 -5.30458 -2.79955 0
M  V30 3448 H 323.572 -5.88744 -2.68308 0
M  V30 3449 N 323.704 0.605807 -1.45491 0
M  V30 3450 C 324.932 1.39136 -1.5313 0
M  V30 3451 C 325.347 1.88082 -0.164507 0
M  V30 3452 O 324.704 1.62316 0.834247 0
M  V30 3453 C 324.755 2.59463 -2.51716 0
M  V30 3454 O 324.476 2.12551 -3.83084 0
M  V30 3455 C 325.977 3.52301 -2.6907 0
M  V30 3456 H 323.197 0.425849 -0.51855 0
M  V30 3457 H 325.741 0.73865 -1.90694 0
M  V30 3458 H 323.896 3.20772 -2.17219 0
M  V30 3459 H 324.31 2.90744 -4.36541 0
M  V30 3460 H 325.784 4.33271 -3.42024 0
M  V30 3461 H 326.261 4.02757 -1.75167 0
M  V30 3462 H 326.867 2.96845 -3.04571 0
M  V30 3463 N 325.182 1.32811 0.848464 0
M  V30 3464 C 326.598 1.11937 1.13764 0
M  V30 3465 C 326.798 -0.0960789 2.01271 0
M  V30 3466 O 325.854 -0.779165 2.40178 0
M  V30 3467 C 327.167 2.402 1.809 0
M  V30 3468 C 328.715 2.46016 1.93508 0
M  V30 3469 C 329.19 3.74215 2.64059 0
M  V30 3470 N 330.681 3.75232 2.71579 0
M  V30 3471 C 331.416 4.71134 3.26833 0
M  V30 3472 N 330.912 5.77406 3.8285 0
M  V30 3473 N 332.705 4.58623 3.24995 0
M  V30 3474 H 324.856 2.1073 0.265855 0
M  V30 3475 H 327.119 0.930671 0.180431 0
M  V30 3476 H 326.825 3.29093 1.24058 0
M  V30 3477 H 326.699 2.51628 2.81004 0
M  V30 3478 H 329.086 1.57577 2.49506 0
M  V30 3479 H 329.167 2.38536 0.923811 0
M  V30 3480 H 328.811 4.63031 2.08722 0
M  V30 3481 H 328.741 3.78968 3.65637 0
M  V30 3482 H 331.232 2.98423 2.31845 0
M  V30 3483 H 331.545 6.46632 4.23187 0
M  V30 3484 H 329.89 5.81152 3.81165 0
M  V30 3485 H 333.081 3.74762 2.80484 0
M  V30 3486 H 333.254 5.33535 3.67756 0
M  V30 3487 N 326.66 -1.06551 1.16123 0
M  V30 3488 C 327.909 -1.78687 0.935622 0
M  V30 3489 C 328.222 -1.88056 -0.538001 0
M  V30 3490 O 329.428 -2.56794 -0.88143 0
M  V30 3491 C 327.884 -3.21143 1.62466 0
M  V30 3492 C 327.492 -3.19949 3.13587 0
M  V30 3493 C 329.236 -3.9783 1.48092 0
M  V30 3494 C 327.143 -4.57108 3.75241 0
M  V30 3495 H 326.073 -0.669712 0.346412 0
M  V30 3496 H 328.724 -1.19534 1.39226 0
M  V30 3497 H 327.106 -3.80539 1.09572 0
M  V30 3498 H 328.28 -2.70151 3.73303 0
M  V30 3499 H 326.595 -2.5676 3.27816 0
M  V30 3500 H 329.192 -4.99217 1.91538 0
M  V30 3501 H 329.535 -4.14078 0.429507 0
M  V30 3502 H 330.068 -3.4495 1.98127 0
M  V30 3503 H 326.807 -4.46065 4.80319 0
M  V30 3504 H 326.327 -5.07111 3.20309 0
M  V30 3505 H 328.006 -5.26069 3.76644 0
M  V30 3506 N 328.138 -0.959301 -1.25041 0
M  V30 3507 C 329.048 -0.489994 -2.29426 0
M  V30 3508 C 330.064 0.444944 -1.68215 0
M  V30 3509 O 331.24 0.320046 -1.98841 0
M  V30 3510 C 328.305 0.220309 -3.45999 0
M  V30 3511 C 327.366 -0.753418 -4.22637 0
M  V30 3512 C 326.599 -0.076918 -5.33645 0
M  V30 3513 O 326.822 1.13649 -5.58963 0
M  V30 3514 O 325.756 -0.764824 -5.97021 0
M  V30 3515 H 329.582 -1.35755 -2.71669 0
M  V30 3516 H 327.167 -0.725961 -1.30576 0
M  V30 3517 H 329.049 0.619677 -4.16819 0
M  V30 3518 H 327.724 1.06296 -3.0575 0
M  V30 3519 H 326.631 -1.20308 -3.54227 0
M  V30 3520 H 327.964 -1.56423 -4.66683 0
M  V30 3521 N 329.616 1.39756 -0.72842 0
M  V30 3522 C 330.865 1.99879 -0.270407 0
M  V30 3523 C 331.178 1.58449 1.14688 0
M  V30 3524 O 332.384 2.11362 1.70407 0
M  V30 3525 C 330.84 3.57292 -0.43252 0
M  V30 3526 C 330.448 4.07688 -1.85727 0
M  V30 3527 C 332.192 4.24485 -0.0359507 0
M  V30 3528 C 330.099 5.5765 -1.96928 0
M  V30 3529 H 329.029 0.747689 -0.0973472 0
M  V30 3530 H 331.68 1.59837 -0.901355 0
M  V30 3531 H 330.062 3.95097 0.267219 0
M  V30 3532 H 331.236 3.81231 -2.58843 0
M  V30 3533 H 329.551 3.53135 -2.20646 0
M  V30 3534 H 332.148 5.34609 -0.0987484 0
M  V30 3535 H 332.491 4.03915 1.00787 0
M  V30 3536 H 333.024 3.9183 -0.686604 0
M  V30 3537 H 329.763 5.8309 -2.99476 0
M  V30 3538 H 329.283 5.8593 -1.28241 0
M  V30 3539 H 330.962 6.22957 -1.74737 0
M  V30 3540 N 331.094 0.475555 1.50254 0
M  V30 3541 C 332.34 -0.0701075 2.03279 0
M  V30 3542 C 332.695 -1.37007 1.35081 0
M  V30 3543 O 331.988 -1.8577 0.469052 0
M  V30 3544 C 332.182 -0.305114 3.56095 0
M  V30 3545 C 332.011 0.970515 4.39103 0
M  V30 3546 C 330.781 1.51509 4.82051 0
M  V30 3547 C 332.979 1.8671 4.79212 0
M  V30 3548 N 330.961 2.73928 5.49397 0
M  V30 3549 C 332.332 2.93715 5.46014 0
M  V30 3550 C 334.387 1.87695 4.61167 0
M  V30 3551 C 333.09 4.01699 5.96683 0
M  V30 3552 C 335.116 2.94637 5.12779 0
M  V30 3553 C 334.478 4.00361 5.79561 0
M  V30 3554 H 330.577 0.014486 0.781866 0
M  V30 3555 H 333.161 0.644755 1.83714 0
M  V30 3556 H 331.332 -0.989019 3.75597 0
M  V30 3557 H 333.064 -0.845516 3.95769 0
M  V30 3558 H 329.819 1.06367 4.61501 0
M  V30 3559 H 330.243 3.36109 5.87673 0
M  V30 3560 H 334.885 1.07273 4.08965 0
M  V30 3561 H 332.603 4.82934 6.4792 0
M  V30 3562 H 336.189 2.96388 5.00645 0
M  V30 3563 H 335.069 4.81751 6.18778 0
M  V30 3564 N 332.573 -1.56217 0.208337 0
M  V30 3565 C 333.819 -1.98242 -0.427552 0
M  V30 3566 C 334.152 -1.09554 -1.60348 0
M  V30 3567 O 333.427 -0.15035 -1.93918 0
M  V30 3568 C 333.71 -3.4931 -0.874907 0
M  V30 3569 C 333.563 -4.48773 0.303751 0
M  V30 3570 C 334.882 -4.04424 -1.73577 0
M  V30 3571 H 332.001 -0.720744 -0.153936 0
M  V30 3572 H 334.643 -1.87586 0.30192 0
M  V30 3573 H 332.793 -3.58522 -1.49648 0
M  V30 3574 H 334.465 -4.51586 0.941682 0
M  V30 3575 H 332.708 -4.23194 0.953375 0
M  V30 3576 H 333.379 -5.51976 -0.0519883 0
M  V30 3577 H 335.855 -3.98075 -1.21143 0
M  V30 3578 H 334.731 -5.1047 -2.01771 0
M  V30 3579 H 334.992 -3.50494 -2.69456 0
M  V30 3580 N 334.051 0.0651679 -1.57465 0
M  V30 3581 C 334.984 1.10876 -1.99453 0
M  V30 3582 C 335.962 1.37205 -0.872555 0
M  V30 3583 O 337.146 1.50468 -1.13542 0
M  V30 3584 C 334.273 2.45167 -2.3369 0
M  V30 3585 C 333.319 2.3493 -3.55964 0
M  V30 3586 S 334.152 1.73708 -5.06543 0
M  V30 3587 C 335.308 3.09563 -5.43987 0
M  V30 3588 H 335.541 0.750967 -2.87659 0
M  V30 3589 H 333.074 0.273933 -1.51951 0
M  V30 3590 H 335.032 3.22412 -2.54088 0
M  V30 3591 H 333.693 2.78105 -1.46001 0
M  V30 3592 H 332.886 3.3398 -3.77457 0
M  V30 3593 H 332.488 1.65823 -3.3523 0
M  V30 3594 H 334.78 4.05882 -5.42463 0
M  V30 3595 H 335.723 2.92843 -6.44708 0
M  V30 3596 H 336.131 3.10474 -4.71451 0
M  V30 3597 N 335.529 1.53961 0.336706 0
M  V30 3598 C 336.479 1.7881 1.41461 0
M  V30 3599 C 337.463 0.643561 1.47469 0
M  V30 3600 O 338.655 0.903166 1.52223 0
M  V30 3601 C 335.784 2.00722 2.78506 0
M  V30 3602 C 334.87 3.2126 2.76862 0
M  V30 3603 N 335.261 4.42588 2.44845 0
M  V30 3604 C 333.559 3.22568 3.08004 0
M  V30 3605 C 334.26 5.2447 2.51607 0
M  V30 3606 N 333.236 4.61344 2.87511 0
M  V30 3607 H 337.038 2.70205 1.15615 0
M  V30 3608 H 334.552 1.52978 0.545112 0
M  V30 3609 H 336.549 2.1666 3.5618 0
M  V30 3610 H 335.209 1.10573 3.05293 0
M  V30 3611 H 336.22 4.69819 2.17922 0
M  V30 3612 H 332.897 2.42409 3.39918 0
M  V30 3613 H 334.287 6.31324 2.29955 0
M  V30 3614 N 337.007 -0.598083 1.45811 0
M  V30 3615 C 337.917 -1.73632 1.57763 0
M  V30 3616 C 338.933 -1.67763 0.461676 0
M  V30 3617 O 340.109 -1.87949 0.723685 0
M  V30 3618 C 337.174 -3.10114 1.55018 0
M  V30 3619 C 336.235 -3.27364 2.77726 0
M  V30 3620 C 335.468 -4.57334 2.75102 0
M  V30 3621 O 335.691 -5.40258 1.8297 0
M  V30 3622 O 334.625 -4.77502 3.66437 0
M  V30 3623 H 338.451 -1.66498 2.53992 0
M  V30 3624 H 336.036 -0.763308 1.28429 0
M  V30 3625 H 337.918 -3.9141 1.56129 0
M  V30 3626 H 336.593 -3.17718 0.619431 0
M  V30 3627 H 335.5 -2.45619 2.82174 0
M  V30 3628 H 336.833 -3.24641 3.69958 0
M  V30 3629 N 338.485 -1.33259 -0.841409 0
M  V30 3630 C 339.734 -1.23921 -1.59143 0
M  V30 3631 C 340.047 0.1941 -1.94635 0
M  V30 3632 O 341.253 0.409474 -2.68394 0
M  V30 3633 C 339.709 -2.17119 -2.87032 0
M  V30 3634 C 339.317 -3.65606 -2.58914 0
M  V30 3635 C 341.061 -2.16648 -3.65053 0
M  V30 3636 C 338.968 -4.50726 -3.82884 0
M  V30 3637 H 337.898 -0.460264 -0.597221 0
M  V30 3638 H 340.549 -1.58307 -0.927959 0
M  V30 3639 H 338.931 -1.75663 -3.54906 0
M  V30 3640 H 340.105 -4.15487 -1.99267 0
M  V30 3641 H 338.42 -3.68341 -1.942 0
M  V30 3642 H 341.017 -2.77474 -4.57069 0
M  V30 3643 H 341.36 -1.16088 -3.99787 0
M  V30 3644 H 341.893 -2.56453 -3.041 0
M  V30 3645 H 338.632 -5.52151 -3.53283 0
M  V30 3646 H 338.152 -4.0559 -4.41879 0
M  V30 3647 H 339.831 -4.64401 -4.50489 0
M  V30 3648 N 339.963 1.05934 -1.16686 0
M  V30 3649 C 341.211 1.78447 -0.948744 0
M  V30 3650 C 341.532 1.87813 0.524523 0
M  V30 3651 O 340.802 1.38945 1.38098 0
M  V30 3652 H 339.382 0.660971 -0.348033 0
M  V30 3653 H 342.044 1.27947 -1.47022 0
M  V30 3654 H 341.14 2.80394 -1.37061 0
M  V30 3655 N 341.441 0.965919 1.2453 0
M  V30 3656 C 342.689 0.625593 1.92174 0
M  V30 3657 C 343.01 -0.841652 1.75901 0
M  V30 3658 O 342.28 -1.60061 1.12948 0
M  V30 3659 H 340.86 0.228388 0.71123 0
M  V30 3660 H 343.522 1.2266 1.51461 0
M  V30 3661 H 342.618 0.864653 2.99884 0
M  V30 3662 N 342.919 -1.39368 0.735821 0
M  V30 3663 C 344.33 -1.83313 0.354015 0
M  V30 3664 C 344.681 -1.61461 -1.11466 0
M  V30 3665 O 343.806 -1.10621 -1.85989 0
M  V30 3666 C 344.401 -3.32781 0.635769 0
M  V30 3667 C 342.96 -3.75142 0.307448 0
M  V30 3668 C 342.107 -2.62358 0.897974 0
M  V30 3669 H 345.058 -1.28349 0.933398 0
M  V30 3670 H 345.079 -3.80388 -0.0921773 0
M  V30 3671 H 344.591 -3.48654 1.70476 0
M  V30 3672 H 342.692 -3.64857 -0.755674 0
M  V30 3673 H 342.805 -4.72532 0.790583 0
M  V30 3674 H 341.169 -2.52624 0.324551 0
M  V30 3675 H 341.952 -2.81036 1.97164 0
M  V30 3676 N 344.397 -0.483516 -1.5 0
M  V30 3677 C 345.345 0.318061 -2.30415 0
M  V30 3678 C 346.339 0.978988 -1.38247 0
M  V30 3679 O 347.545 0.908673 -1.55381 0
M  V30 3680 H 343.92 0.121419 -0.742133 0
M  V30 3681 H 345.891 -0.380403 -2.95965 0
M  V30 3682 C 344.64 1.38013 -3.19136 0
M  V30 3683 H 343.963 0.880952 -3.89973 0
M  V30 3684 H 345.403 1.91332 -3.78375 0
M  V30 3685 C 343.862 2.38884 -2.37563 0
M  V30 3686 O 344.392 3.44412 -2.06744 0
M  V30 3687 N 342.598 2.10912 -1.99911 0
M  V30 3688 H 342.145 1.25118 -2.25174 0
M  V30 3689 H 342.103 2.78635 -1.45636 0
M  V30 3690 N 345.875 1.56104 -0.216619 0
M  V30 3691 C 347.121 1.98466 0.417033 0
M  V30 3692 C 347.454 1.10403 1.59765 0
M  V30 3693 O 346.729 0.160632 1.93836 0
M  V30 3694 C 347.012 3.49769 0.85637 0
M  V30 3695 C 346.865 4.48606 -0.327546 0
M  V30 3696 C 348.184 4.05339 1.7143 0
M  V30 3697 H 345.303 0.721551 0.150112 0
M  V30 3698 H 347.945 1.87423 -0.311864 0
M  V30 3699 H 346.095 3.5931 1.47745 0
M  V30 3700 H 347.767 4.5108 -0.965618 0
M  V30 3701 H 346.01 4.22682 -0.975805 0
M  V30 3702 H 346.681 5.51995 0.0227149 0
M  V30 3703 H 349.157 3.98712 1.19031 0
M  V30 3704 H 348.033 5.11533 1.99061 0
M  V30 3705 H 348.294 3.51918 2.67593 0
M  V30 3706 N 347.353 -0.0568162 1.57498 0
M  V30 3707 C 348.263 -1.08346 2.08083 0
M  V30 3708 C 349.279 -1.41439 1.01346 0
M  V30 3709 O 350.455 -1.51316 1.32912 0
M  V30 3710 C 347.52 -2.37352 2.52715 0
M  V30 3711 C 346.581 -2.11093 3.73816 0
M  V30 3712 C 345.814 -3.33949 4.1631 0
M  V30 3713 O 346.037 -4.43622 3.58547 0
M  V30 3714 O 344.971 -3.21279 5.08983 0
M  V30 3715 H 348.797 -0.683667 2.95905 0
M  V30 3716 H 346.382 -0.271965 1.46904 0
M  V30 3717 H 348.264 -3.13246 2.81877 0
M  V30 3718 H 346.939 -2.76681 1.68016 0
M  V30 3719 H 345.846 -1.32856 3.49714 0
M  V30 3720 H 347.179 -1.76637 4.59413 0
M  V30 3721 N 348.832 -1.54138 -0.328536 0
M  V30 3722 C 350.057 -1.76378 -1.09112 0
M  V30 3723 C 350.482 -0.508596 -1.81094 0
M  V30 3724 O 349.84 0.539598 -1.73084 0
M  V30 3725 C 349.888 -2.95358 -2.06872 0
M  V30 3726 O 348.992 -2.66556 -3.14677 0
M  V30 3727 H 348.333 -0.584614 -0.314838 0
M  V30 3728 H 350.863 -2.01146 -0.374348 0
M  V30 3729 H 350.873 -3.22566 -2.4983 0
M  V30 3730 H 349.548 -3.86385 -1.5388 0
M  V30 3731 H 348.125 -2.50282 -2.7643 0
M  V30 3732 N 350.31 0.590341 -1.46126 0
M  V30 3733 C 351.55 1.35995 -1.52593 0
M  V30 3734 C 351.914 1.91243 -0.170368 0
M  V30 3735 O 353.115 2.68576 -0.109775 0
M  V30 3736 C 351.386 2.46465 -2.58823 0
M  V30 3737 S 352.945 3.33953 -2.84641 0
M  V30 3738 H 349.763 0.463425 -0.53922 0
M  V30 3739 H 352.365 0.67944 -1.83314 0
M  V30 3740 H 351.069 2.04256 -3.5596 0
M  V30 3741 H 350.6 3.19297 -2.2981 0
M  V30 3742 H 352.615 4.45094 -2.19331 0
M  V30 3743 N 351.788 1.33704 0.83433 0
M  V30 3744 C 353.036 1.25169 1.58673 0
M  V30 3745 C 353.357 -0.18127 1.94156 0
M  V30 3746 O 352.627 -1.11113 1.6134 0
M  V30 3747 H 351.207 0.4603 0.58833 0
M  V30 3748 H 353.869 1.67478 0.996847 0
M  V30 3749 H 352.965 1.84856 2.51465 0
M  V30 3750 N 353.266 -1.05314 1.17247 0
M  V30 3751 C 354.176 -2.16538 0.90268 0
M  V30 3752 C 355.192 -1.73523 -0.128707 0
M  V30 3753 O 356.368 -2.01337 0.0502701 0
M  V30 3754 C 353.433 -3.44167 0.418356 0
M  V30 3755 C 352.494 -4.01635 1.51618 0
M  V30 3756 C 351.727 -5.23171 1.05487 0
M  V30 3757 O 351.95 -5.70327 -0.0914715 0
M  V30 3758 O 350.884 -5.72848 1.8474 0
M  V30 3759 H 354.71 -2.42145 1.83302 0
M  V30 3760 H 352.295 -1.15037 0.953246 0
M  V30 3761 H 354.177 -4.21112 0.155726 0
M  V30 3762 H 352.852 -3.20063 -0.48385 0
M  V30 3763 H 351.759 -3.26135 1.83268 0
M  V30 3764 H 353.092 -4.30053 2.39405 0
M  V30 3765 N 354.744 -0.972509 -1.24016 0
M  V30 3766 C 355.992 -0.635776 -1.91839 0
M  V30 3767 C 356.313 0.832312 -1.76345 0
M  V30 3768 O 355.583 1.5946 -1.13795 0
M  V30 3769 H 354.163 -0.232157 -0.710009 0
M  V30 3770 H 356.825 -1.23462 -1.50809 0
M  V30 3771 H 355.921 -0.880545 -2.99421 0
M  V30 3772 N 356.222 1.38976 -0.743202 0
M  V30 3773 C 357.447 2.05161 -0.303936 0
M  V30 3774 C 357.872 1.55677 1.05576 0
M  V30 3775 O 357.23 0.704131 1.67068 0
M  V30 3776 C 357.278 3.59138 -0.324373 0
M  V30 3777 O 356.382 4.06668 0.685204 0
M  V30 3778 H 355.723 0.649815 -0.136518 0
M  V30 3779 H 358.253 1.77852 -1.01142 0
M  V30 3780 H 358.263 4.07639 -0.171618 0
M  V30 3781 H 356.938 3.94515 -1.31647 0
M  V30 3782 H 355.515 3.69561 0.497913 0
M  V30 3783 N 357.7 0.491464 1.49741 0
M  V30 3784 C 358.633 -0.338464 2.25676 0
M  V30 3785 C 359.611 -0.978676 1.29849 0
M  V30 3786 O 360.795 -1.01064 1.59117 0
M  V30 3787 C 357.922 -1.47588 3.04853 0
M  V30 3788 C 356.968 -0.951 4.15762 0
M  V30 3789 S 357.801 0.150626 5.35288 0
M  V30 3790 C 358.957 -0.990178 6.18018 0
M  V30 3791 H 359.19 0.306068 2.9572 0
M  V30 3792 H 356.723 0.276622 1.51902 0
M  V30 3793 H 358.681 -2.12764 3.51058 0
M  V30 3794 H 357.342 -2.09199 2.34296 0
M  V30 3795 H 356.535 -1.80311 4.70642 0
M  V30 3796 H 356.137 -0.376607 3.72099 0
M  V30 3797 H 358.429 -1.89748 6.50386 0
M  V30 3798 H 359.372 -0.480205 7.0647 0
M  V30 3799 H 359.78 -1.25321 5.50413 0
M  V30 3800 N 359.178 -1.55987 0.224894 0
M  V30 3801 C 360.125 -2.20436 -0.68385 0
M  V30 3802 C 361.095 -1.16102 -1.18783 0
M  V30 3803 O 362.28 -1.4447 -1.24632 0
M  V30 3804 C 359.42 -2.89076 -1.88491 0
M  V30 3805 C 358.533 -4.08012 -1.41951 0
M  V30 3806 C 357.668 -4.64426 -2.5784 0
M  V30 3807 C 356.707 -5.75656 -2.08053 0
M  V30 3808 N 355.844 -6.26347 -3.17227 0
M  V30 3809 H 360.684 -2.97727 -0.12754 0
M  V30 3810 H 358.221 -1.47011 -0.0511978 0
M  V30 3811 H 360.179 -3.27059 -2.59014 0
M  V30 3812 H 358.809 -2.14298 -2.41405 0
M  V30 3813 H 357.861 -3.75492 -0.609095 0
M  V30 3814 H 359.173 -4.88375 -1.01447 0
M  V30 3815 H 358.327 -5.04869 -3.3644 0
M  V30 3816 H 357.066 -3.83233 -3.01635 0
M  V30 3817 H 356.071 -5.34712 -1.27916 0
M  V30 3818 H 357.296 -6.58686 -1.65255 0
M  V30 3819 H 355.242 -5.48067 -3.60497 0
M  V30 3820 H 355.159 -7.01843 -2.80986 0
M  V30 3821 H 356.427 -6.71447 -3.95953 0
M  V30 3822 N 360.656 0.0484629 -1.57525 0
M  V30 3823 C 361.902 0.744226 -1.88651 0
M  V30 3824 C 362.235 1.76029 -0.820212 0
M  V30 3825 O 361.51 1.93782 0.166985 0
M  V30 3826 C 361.793 1.43128 -3.30434 0
M  V30 3827 C 361.646 0.43005 -4.47739 0
M  V30 3828 C 362.965 2.37031 -3.70816 0
M  V30 3829 H 360.084 0.269089 -0.68612 0
M  V30 3830 H 362.726 0.00713532 -1.89999 0
M  V30 3831 H 360.876 2.05956 -3.29415 0
M  V30 3832 H 362.548 -0.194816 -4.60888 0
M  V30 3833 H 360.791 -0.252522 -4.33064 0
M  V30 3834 H 361.462 0.948874 -5.43783 0
M  V30 3835 H 363.938 1.84263 -3.73077 0
M  V30 3836 H 362.814 2.82094 -4.70865 0
M  V30 3837 H 363.075 3.22864 -3.02012 0
M  V30 3838 N 362.134 1.5431 0.320358 0
M  V30 3839 C 363.064 1.86912 1.3995 0
M  V30 3840 C 364.045 0.726211 1.53819 0
M  V30 3841 O 365.23 0.980233 1.67646 0
M  V30 3842 C 362.36 2.09932 2.7667 0
M  V30 3843 C 361.314 3.25776 2.77586 0
M  V30 3844 C 360.64 3.34173 4.17412 0
M  V30 3845 C 361.94 4.6335 2.41048 0
M  V30 3846 H 363.634 2.77292 1.12914 0
M  V30 3847 H 361.18 1.33421 0.541738 0
M  V30 3848 H 363.133 2.31324 3.52232 0
M  V30 3849 H 361.857 1.16304 3.0519 0
M  V30 3850 H 360.516 3.04276 2.04479 0
M  V30 3851 H 360.164 2.38098 4.43078 0
M  V30 3852 H 359.864 4.12033 4.18931 0
M  V30 3853 H 361.388 3.57803 4.94782 0
M  V30 3854 H 362.802 4.84602 3.06324 0
M  V30 3855 H 361.199 5.43782 2.53813 0
M  V30 3856 H 362.269 4.65381 1.36193 0
M  V30 3857 N 363.613 -0.582584 1.46437 0
M  V30 3858 C 364.523 -1.71949 1.59595 0
M  V30 3859 C 365.539 -1.67264 0.479443 0
M  V30 3860 O 366.715 -1.87171 0.743579 0
M  V30 3861 C 363.78 -3.08452 1.58298 0
M  V30 3862 C 362.841 -3.244 2.81182 0
M  V30 3863 C 362.074 -4.54391 2.79937 0
M  V30 3864 O 362.297 -5.38287 1.8869 0
M  V30 3865 O 361.231 -4.73588 3.71481 0
M  V30 3866 H 365.057 -1.63795 2.55744 0
M  V30 3867 H 362.642 -0.749643 1.29231 0
M  V30 3868 H 364.524 -3.89732 1.60271 0
M  V30 3869 H 363.199 -3.17043 0.653094 0
M  V30 3870 H 362.106 -2.42613 2.84763 0
M  V30 3871 H 363.439 -3.20699 3.7338 0
M  V30 3872 N 365.091 -1.34144 -0.827227 0
M  V30 3873 C 366.038 -1.25364 -1.93785 0
M  V30 3874 C 367.008 -0.129774 -1.65592 0
M  V30 3875 O 368.193 -0.310024 -1.88264 0
M  V30 3876 C 365.333 -1.01064 -3.2997 0
M  V30 3877 C 364.446 -2.22185 -3.70484 0
M  V30 3878 C 363.581 -1.91203 -4.95595 0
M  V30 3879 C 362.62 -3.08491 -5.28677 0
M  V30 3880 N 361.757 -2.77421 -6.44967 0
M  V30 3881 H 366.597 -2.20347 -2.00627 0
M  V30 3882 H 364.134 -1.09558 -0.981608 0
M  V30 3883 H 366.092 -0.850139 -4.08446 0
M  V30 3884 H 364.722 -0.0975026 -3.22653 0
M  V30 3885 H 363.774 -2.4917 -2.87434 0
M  V30 3886 H 365.086 -3.0983 -3.90905 0
M  V30 3887 H 364.24 -1.71864 -5.81848 0
M  V30 3888 H 362.979 -1.00812 -4.77167 0
M  V30 3889 H 361.984 -3.28431 -4.40923 0
M  V30 3890 H 363.209 -3.99655 -5.49047 0
M  V30 3891 H 361.155 -1.89601 -6.28003 0
M  V30 3892 H 361.072 -3.58598 -6.6554 0
M  V30 3893 H 362.34 -2.61577 -7.34301 0
M  V30 3894 N 366.569 1.04691 -1.17803 0
M  V30 3895 C 367.985 1.29963 -0.926379 0
M  V30 3896 C 368.185 1.97251 0.411635 0
M  V30 3897 O 367.241 2.24922 1.14744 0
M  V30 3898 C 368.554 2.16447 -2.08737 0
M  V30 3899 C 370.102 2.29814 -2.12496 0
M  V30 3900 C 370.577 3.19661 -3.27995 0
M  V30 3901 N 372.068 3.27247 -3.27816 0
M  V30 3902 C 372.803 3.96906 -4.13827 0
M  V30 3903 N 372.299 4.6895 -5.09959 0
M  V30 3904 N 374.092 3.93122 -4.01761 0
M  V30 3905 H 366.243 0.594182 -2.0392 0
M  V30 3906 H 368.506 0.324649 -0.890678 0
M  V30 3907 H 368.212 1.74304 -3.05469 0
M  V30 3908 H 368.086 3.17103 -2.04268 0
M  V30 3909 H 370.473 2.71196 -1.16347 0
M  V30 3910 H 370.554 1.2877 -2.21025 0
M  V30 3911 H 370.198 2.78991 -4.24413 0
M  V30 3912 H 370.128 4.20722 -3.16703 0
M  V30 3913 H 372.619 2.75921 -2.58217 0
M  V30 3914 H 372.932 5.19679 -5.71974 0
M  V30 3915 H 371.277 4.67875 -5.13924 0
M  V30 3916 H 374.468 3.35967 -3.2595 0
M  V30 3917 H 374.641 4.47139 -4.6901 0
M  V30 3918 N 368.047 0.979072 1.23499 0
M  V30 3919 C 368.977 0.537606 2.27227 0
M  V30 3920 C 369.958 -0.428539 1.64613 0
M  V30 3921 O 371.143 -0.322191 1.91509 0
M  V30 3922 C 368.273 -0.162052 3.46922 0
M  V30 3923 C 367.227 0.721242 4.21879 0
M  V30 3924 C 366.553 -0.110555 5.34586 0
M  V30 3925 C 367.853 2.01141 4.82016 0
M  V30 3926 H 369.547 1.40462 2.64406 0
M  V30 3927 H 367.093 0.67684 1.27102 0
M  V30 3928 H 369.046 -0.482192 4.18632 0
M  V30 3929 H 367.77 -1.06351 3.08799 0
M  V30 3930 H 366.429 1.02482 3.51984 0
M  V30 3931 H 366.077 -1.0125 4.92704 0
M  V30 3932 H 365.777 0.477325 5.85658 0
M  V30 3933 H 367.301 -0.425107 6.09118 0
M  V30 3934 H 368.715 1.75612 5.45741 0
M  V30 3935 H 367.112 2.54695 5.43369 0
M  V30 3936 H 368.182 2.69909 4.02836 0
M  V30 3937 N 369.525 -1.3858 0.750561 0
M  V30 3938 C 370.472 -2.30483 0.120835 0
M  V30 3939 C 371.442 -1.50022 -0.712923 0
M  V30 3940 O 372.627 -1.78662 -0.669676 0
M  V30 3941 C 369.767 -3.36431 -0.768666 0
M  V30 3942 C 368.88 -4.31927 0.0793922 0
M  V30 3943 C 368.015 -5.24944 -0.81283 0
M  V30 3944 C 367.054 -6.12088 0.0390447 0
M  V30 3945 N 366.191 -6.97412 -0.809969 0
M  V30 3946 H 371.031 -2.83761 0.91015 0
M  V30 3947 H 368.568 -1.39707 0.460463 0
M  V30 3948 H 370.526 -3.96462 -1.29898 0
M  V30 3949 H 369.156 -2.8457 -1.5238 0
M  V30 3950 H 368.208 -3.73382 0.727303 0
M  V30 3951 H 369.52 -4.93319 0.737401 0
M  V30 3952 H 368.674 -5.90078 -1.41042 0
M  V30 3953 H 367.413 -4.63911 -1.50458 0
M  V30 3954 H 366.418 -5.45952 0.649328 0
M  V30 3955 H 367.643 -6.75189 0.727809 0
M  V30 3956 H 365.589 -6.38931 -1.48672 0
M  V30 3957 H 365.506 -7.55712 -0.208789 0
M  V30 3958 H 366.774 -7.66959 -1.39263 0
M  V30 3959 N 371.003 -0.499398 -1.49478 0
M  V30 3960 C 372.28 0.108629 -1.95298 0
M  V30 3961 C 372.66 1.54282 -1.44084 0
M  V30 3962 O 372.008 2.18944 -0.653908 0
M  V30 3963 C 372.218 0.0229111 -3.48992 0
M  V30 3964 C 373.566 0.197643 -4.2414 0
M  V30 3965 O 374.59 0.0981735 -3.56065 0
M  V30 3966 O 373.449 0.401669 -5.45022 0
M  V30 3967 H 370.543 0.096181 -0.821388 0
M  V30 3968 H 373.089 -0.561822 -1.6013 0
M  V30 3969 H 371.861 -0.977321 -3.78899 0
M  V30 3970 H 371.484 0.733579 -3.90774 0
M  V30 3971 N 372.481 1.55866 -0.233164 0
M  V30 3972 C 373.414 2.16794 0.712442 0
M  V30 3973 C 374.392 1.1158 1.18273 0
M  V30 3974 O 375.576 1.39897 1.26337 0
M  V30 3975 C 372.703 2.75757 1.96661 0
M  V30 3976 C 371.749 3.93902 1.63533 0
M  V30 3977 S 372.582 5.30223 0.74995 0
M  V30 3978 C 373.738 5.92631 2.01343 0
M  V30 3979 H 373.971 2.96662 0.194617 0
M  V30 3980 H 371.504 1.5439 -0.0177425 0
M  V30 3981 H 373.462 3.10367 2.68668 0
M  V30 3982 H 372.123 1.9586 2.45556 0
M  V30 3983 H 371.316 4.33702 2.56747 0
M  V30 3984 H 370.918 3.60499 0.995804 0
M  V30 3985 H 373.21 6.09312 2.96219 0
M  V30 3986 H 374.153 6.88388 1.65915 0
M  V30 3987 H 374.561 5.21571 2.15925 0
M  V30 3988 N 373.959 -0.0401083 1.57549 0
M  V30 3989 C 375.207 -0.731677 1.8839 0
M  V30 3990 C 375.528 -1.76481 0.829425 0
M  V30 3991 O 374.798 -1.95411 -0.1383 0
M  V30 3992 H 373.378 -0.273225 0.695239 0
M  V30 3993 H 376.04 -0.00867725 1.94898 0
M  V30 3994 H 375.136 -1.22816 2.86919 0
M  V30 3995 N 375.437 -1.54477 -0.31217 0
M  V30 3996 C 376.684 -1.73227 -1.04875 0
M  V30 3997 C 377.012 -0.512042 -1.87639 0
M  V30 3998 O 376.267 0.506131 -1.89042 0
M  V30 3999 C 376.566 -2.967 -1.99258 0
M  V30 4000 C 376.232 -4.30974 -1.32559 0
M  V30 4001 C 374.894 -4.67477 -1.141 0
M  V30 4002 C 377.246 -5.14258 -0.847835 0
M  V30 4003 C 374.574 -5.84852 -0.465326 0
M  V30 4004 C 376.926 -6.32327 -0.185931 0
M  V30 4005 C 375.59 -6.67499 0.0107077 0
M  V30 4006 H 374.86 -0.633881 -0.383765 0
M  V30 4007 H 377.507 -1.88727 -0.324731 0
M  V30 4008 H 375.812 -2.75935 -2.7815 0
M  V30 4009 H 377.509 -3.08401 -2.563 0
M  V30 4010 H 374.099 -4.02262 -1.4793 0
M  V30 4011 H 378.283 -4.86565 -0.978192 0
M  V30 4012 H 373.539 -6.10654 -0.301883 0
M  V30 4013 H 377.713 -6.96135 0.192211 0
M  V30 4014 H 375.34 -7.58306 0.536287 0
M  V30 4015 N 376.915 0.57481 -1.46744 0
M  V30 4016 C 377.847 1.69804 -1.53946 0
M  V30 4017 C 378.86 1.57098 -0.427106 0
M  V30 4018 O 380.049 1.64378 -0.695863 0
M  V30 4019 C 377.149 3.08125 -1.4111 0
M  V30 4020 C 376.322 3.46757 -2.66605 0
M  V30 4021 C 375.381 4.6417 -2.47855 0
M  V30 4022 O 374.407 4.69634 -3.21609 0
M  V30 4023 N 375.609 5.59553 -1.54534 0
M  V30 4024 H 378.374 1.64077 -2.50796 0
M  V30 4025 H 375.935 0.761 -1.429 0
M  V30 4026 H 377.927 3.84478 -1.26328 0
M  V30 4027 H 376.497 3.08175 -0.524109 0
M  V30 4028 H 375.717 2.6003 -2.96274 0
M  V30 4029 H 377.005 3.69337 -3.49954 0
M  V30 4030 H 376.403 5.57881 -0.937304 0
M  V30 4031 H 374.96 6.35304 -1.45711 0
M  V30 4032 N 378.394 1.34581 0.820102 0
M  V30 4033 C 379.624 1.29991 1.6058 0
M  V30 4034 C 380.032 -0.127588 1.88769 0
M  V30 4035 O 379.375 -1.08595 1.48165 0
M  V30 4036 C 379.437 2.02548 2.9701 0
M  V30 4037 C 379.101 3.51794 2.91701 0
M  V30 4038 C 380.098 4.46647 2.66087 0
M  V30 4039 C 377.783 3.94249 3.11245 0
M  V30 4040 C 379.777 5.81929 2.60071 0
M  V30 4041 C 377.464 5.2963 3.04853 0
M  V30 4042 C 378.462 6.23282 2.793 0
M  V30 4043 O 378.15 7.56181 2.72847 0
M  V30 4044 H 377.882 0.448539 0.505756 0
M  V30 4045 H 380.436 1.77811 1.02822 0
M  V30 4046 H 378.666 1.49345 3.56697 0
M  V30 4047 H 380.355 1.91211 3.58041 0
M  V30 4048 H 381.121 4.15168 2.5072 0
M  V30 4049 H 377 3.21749 3.30149 0
M  V30 4050 H 380.544 6.54999 2.40046 0
M  V30 4051 H 376.441 5.60727 3.19774 0
M  V30 4052 H 377.209 7.6595 2.88553 0
M  V30 4053 N 379.872 -1.04064 1.18357 0
M  V30 4054 C 381.097 -1.81454 1.00445 0
M  V30 4055 C 381.522 -1.82823 -0.442423 0
M  V30 4056 O 380.88 -1.24555 -1.31741 0
M  V30 4057 C 380.928 -3.24925 1.56384 0
M  V30 4058 O 380.032 -4.04856 0.785209 0
M  V30 4059 H 379.373 -0.560604 0.355835 0
M  V30 4060 H 381.903 -1.31059 1.57114 0
M  V30 4061 H 381.913 -3.75702 1.59097 0
M  V30 4062 H 380.588 -3.23244 2.61699 0
M  V30 4063 H 379.165 -3.63537 0.830399 0
M  V30 4064 N 381.35 -0.985608 -1.22978 0
M  V30 4065 C 382.59 -0.665487 -1.93263 0
M  V30 4066 C 382.954 0.78706 -1.75127 0
M  V30 4067 O 384.155 1.21826 -2.39608 0
M  V30 4068 C 382.426 -1.0515 -3.41582 0
M  V30 4069 S 383.985 -0.848637 -4.30516 0
M  V30 4070 H 380.803 -0.24355 -0.667985 0
M  V30 4071 H 383.405 -1.26635 -1.48942 0
M  V30 4072 H 382.109 -2.10517 -3.52293 0
M  V30 4073 H 381.64 -0.442134 -3.90908 0
M  V30 4074 H 383.655 0.264717 -4.95493 0
M  V30 4075 N 382.828 1.3818 -0.7579 0
M  V30 4076 C 384.077 1.99261 -0.312744 0
M  V30 4077 C 384.39 1.60846 1.11301 0
M  V30 4078 O 385.596 2.14929 1.65885 0
M  V30 4079 C 384.052 3.56294 -0.50821 0
M  V30 4080 C 383.66 4.03657 -1.94333 0
M  V30 4081 C 385.404 4.24313 -0.125982 0
M  V30 4082 C 383.311 5.53347 -2.08712 0
M  V30 4083 H 382.241 0.745456 -0.113185 0
M  V30 4084 H 384.892 1.57889 -0.935056 0
M  V30 4085 H 383.274 3.95575 0.183353 0
M  V30 4086 H 384.448 3.75655 -2.66871 0
M  V30 4087 H 382.763 3.48376 -2.28086 0
M  V30 4088 H 385.36 5.34279 -0.212125 0
M  V30 4089 H 385.703 4.05962 0.921964 0
M  V30 4090 H 386.236 3.90285 -0.769563 0
M  V30 4091 H 382.975 5.76607 -3.11777 0
M  V30 4092 H 382.495 5.83078 -1.4064 0
M  V30 4093 H 384.174 6.19111 -1.87912 0
M  V30 4094 N 384.306 0.507319 1.49211 0
M  V30 4095 C 385.254 -0.281364 2.30892 0
M  V30 4096 C 386.248 -0.95687 1.39787 0
M  V30 4097 O 387.454 -0.883838 1.56807 0
M  V30 4098 H 383.829 -0.109597 0.743971 0
M  V30 4099 H 385.8 0.42744 2.95323 0
M  V30 4100 C 384.549 -1.32918 3.21291 0
M  V30 4101 H 383.872 -0.818799 3.91326 0
M  V30 4102 H 385.312 -1.85288 3.81372 0
M  V30 4103 C 383.771 -2.35074 2.41333 0
M  V30 4104 O 384.301 -3.4108 2.12197 0
M  V30 4105 N 382.507 -2.07705 2.03241 0
M  V30 4106 H 382.054 -1.2152 2.27136 0
M  V30 4107 H 382.012 -2.76283 1.50051 0
M  V30 4108 N 385.784 -1.5574 0.241426 0
M  V30 4109 C 387.061 -1.90704 -0.434881 0
M  V30 4110 C 387.441 -1.16145 -1.76277 0
M  V30 4111 O 386.789 -0.277152 -2.26813 0
M  V30 4112 C 386.999 -3.43657 -0.608343 0
M  V30 4113 C 388.347 -4.14806 -0.906725 0
M  V30 4114 O 389.371 -3.49366 -0.694408 0
M  V30 4115 O 388.23 -5.30548 -1.31075 0
M  V30 4116 H 385.324 -0.793592 -0.23268 0
M  V30 4117 H 387.87 -1.67288 0.285086 0
M  V30 4118 H 386.642 -3.89927 0.327505 0
M  V30 4119 H 386.265 -3.72918 -1.37906 0
M  V30 4120 N 387.262 0.0317525 -1.57568 0
M  V30 4121 C 388.492 0.733884 -1.93126 0
M  V30 4122 C 388.9 1.69563 -0.839352 0
M  V30 4123 O 388.243 1.82681 0.193175 0
M  V30 4124 C 388.305 1.54798 -3.24465 0
M  V30 4125 C 387.969 0.751304 -4.50782 0
M  V30 4126 C 388.966 0.0527632 -5.19873 0
M  V30 4127 C 386.651 0.706639 -4.97305 0
M  V30 4128 C 388.645 -0.679774 -6.33765 0
M  V30 4129 C 386.332 -0.0296449 -6.11093 0
M  V30 4130 C 387.33 -0.721614 -6.79177 0
M  V30 4131 O 387.018 -1.44595 -7.90789 0
M  V30 4132 H 386.75 0.211459 -0.642076 0
M  V30 4133 H 389.304 -0.00585615 -2.05399 0
M  V30 4134 H 387.534 2.33147 -3.08512 0
M  V30 4135 H 389.223 2.13247 -3.4537 0
M  V30 4136 H 389.989 0.0783188 -4.84937 0
M  V30 4137 H 385.868 1.23474 -4.44157 0
M  V30 4138 H 389.412 -1.22042 -6.86842 0
M  V30 4139 H 385.309 -0.0571331 -6.45475 0
M  V30 4140 H 386.077 -1.35935 -8.07133 0
M  V30 4141 N 388.74 1.54641 0.303973 0
M  V30 4142 C 390.156 1.45788 0.649463 0
M  V30 4143 C 390.356 0.64666 1.90842 0
M  V30 4144 O 389.412 0.153183 2.52035 0
M  V30 4145 C 390.725 2.89718 0.805227 0
M  V30 4146 C 392.273 2.99742 0.901305 0
M  V30 4147 C 392.748 4.44863 1.08909 0
M  V30 4148 N 394.239 4.48559 1.15536 0
M  V30 4149 C 394.974 5.58026 1.3189 0
M  V30 4150 N 394.47 6.77422 1.45161 0
M  V30 4151 N 396.263 5.45708 1.34755 0
M  V30 4152 H 388.414 2.05854 -0.523237 0
M  V30 4153 H 390.677 0.932186 -0.172431 0
M  V30 4154 H 390.383 3.51666 -0.0489108 0
M  V30 4155 H 390.257 3.36964 1.69513 0
M  V30 4156 H 392.644 2.3791 1.74593 0
M  V30 4157 H 392.725 2.55797 -0.0125531 0
M  V30 4158 H 392.369 5.07288 0.249241 0
M  V30 4159 H 392.299 4.86436 2.01713 0
M  V30 4160 H 394.79 3.6254 1.06646 0
M  V30 4161 H 395.103 7.56604 1.57387 0
M  V30 4162 H 393.448 6.80292 1.42223 0
M  V30 4163 H 396.639 4.51378 1.23996 0
M  V30 4164 H 396.812 6.3107 1.47157 0
M  V30 4165 N 390.218 -0.567019 1.47046 0
M  V30 4166 C 391.629 -1.14916 1.47143 0
M  V30 4167 C 391.98 -1.94954 0.220767 0
M  V30 4168 O 391.105 -2.05602 -0.67505 0
M  V30 4169 C 391.7 -2.09069 2.666 0
M  V30 4170 C 390.259 -2.62575 2.69687 0
M  V30 4171 C 389.406 -1.38755 2.40088 0
M  V30 4172 H 392.357 -0.354126 1.54699 0
M  V30 4173 H 392.378 -2.92789 2.43011 0
M  V30 4174 H 391.89 -1.50789 3.57609 0
M  V30 4175 H 389.991 -3.24681 1.82792 0
M  V30 4176 H 390.104 -3.04239 3.70102 0
M  V30 4177 H 388.468 -1.69098 1.90468 0
M  V30 4178 H 389.251 -0.822822 3.33293 0
M  V30 4179 N 391.696 -1.35014 -0.812953 0
M  V30 4180 C 392.942 -1.2812 -1.57204 0
M  V30 4181 C 393.275 0.145869 -1.93651 0
M  V30 4182 O 392.55 1.0937 -1.60836 0
M  V30 4183 C 392.833 -2.18162 -2.86492 0
M  V30 4184 C 392.686 -3.69454 -2.56561 0
M  V30 4185 C 394.005 -2.07439 -3.88145 0
M  V30 4186 H 391.124 -0.466746 -0.570366 0
M  V30 4187 H 393.766 -1.65357 -0.935783 0
M  V30 4188 H 391.916 -1.86535 -3.40789 0
M  V30 4189 H 393.588 -4.11493 -2.08497 0
M  V30 4190 H 391.831 -3.9005 -1.89851 0
M  V30 4191 H 392.502 -4.27835 -3.48799 0
M  V30 4192 H 394.978 -2.35228 -3.4323 0
M  V30 4193 H 393.854 -2.7265 -4.76396 0
M  V30 4194 H 394.115 -1.05439 -4.29343 0
M  V30 4195 N 393.175 1.03435 -1.18907 0
M  V30 4196 C 394.122 2.11591 -0.921837 0
M  V30 4197 C 395.092 1.65499 0.141226 0
M  V30 4198 O 396.277 1.908 0.000242829 0
M  V30 4199 C 393.417 3.42012 -0.460616 0
M  V30 4200 C 392.53 4.01682 -1.58982 0
M  V30 4201 C 391.665 5.20091 -1.08069 0
M  V30 4202 C 390.704 5.71805 -2.18416 0
M  V30 4203 N 389.841 6.81494 -1.68849 0
M  V30 4204 H 394.681 2.33787 -1.8479 0
M  V30 4205 H 392.218 1.1467 -0.921373 0
M  V30 4206 H 394.176 4.16834 -0.174642 0
M  V30 4207 H 392.806 3.19944 0.428467 0
M  V30 4208 H 391.858 3.24127 -1.99113 0
M  V30 4209 H 393.17 4.36084 -2.4214 0
M  V30 4210 H 392.324 6.02051 -0.749615 0
M  V30 4211 H 391.063 4.87209 -0.218771 0
M  V30 4212 H 390.068 4.88461 -2.5236 0
M  V30 4213 H 391.293 6.06728 -3.05054 0
M  V30 4214 H 389.239 6.50475 -0.849572 0
M  V30 4215 H 389.156 7.14994 -2.45601 0
M  V30 4216 H 390.424 7.67063 -1.38689 0
M  V30 4217 N 394.653 0.992116 1.22453 0
M  V30 4218 C 395.583 0.561677 2.26644 0
M  V30 4219 C 396.564 -0.411055 1.65059 0
M  V30 4220 O 397.749 -0.301861 1.9184 0
M  V30 4221 C 394.879 -0.125247 3.47074 0
M  V30 4222 C 393.833 0.765948 4.21091 0
M  V30 4223 C 393.159 -0.0538484 5.34673 0
M  V30 4224 C 394.459 2.06242 4.79856 0
M  V30 4225 H 396.153 1.43259 2.62902 0
M  V30 4226 H 393.699 0.690283 1.26377 0
M  V30 4227 H 395.652 -0.437764 4.1912 0
M  V30 4228 H 394.376 -1.03069 3.0991 0
M  V30 4229 H 393.035 1.0621 3.50878 0
M  V30 4230 H 392.683 -0.960188 4.9375 0
M  V30 4231 H 392.383 0.539415 5.85119 0
M  V30 4232 H 393.907 -0.360477 6.09535 0
M  V30 4233 H 395.321 1.8139 5.43848 0
M  V30 4234 H 393.718 2.60444 5.40638 0
M  V30 4235 H 394.788 2.74167 3.99951 0
M  V30 4236 N 396.131 -1.37776 0.765217 0
M  V30 4237 C 397.061 -2.32945 0.160953 0
M  V30 4238 C 398.042 -1.55454 -0.690516 0
M  V30 4239 O 399.227 -1.83721 -0.629318 0
M  V30 4240 C 396.357 -3.39669 -0.724031 0
M  V30 4241 C 395.311 -4.27992 0.0256173 0
M  V30 4242 C 394.637 -5.25673 -0.978383 0
M  V30 4243 C 395.937 -5.08309 1.20082 0
M  V30 4244 H 397.631 -2.83728 0.955969 0
M  V30 4245 H 395.177 -1.36416 0.461149 0
M  V30 4246 H 397.13 -4.05219 -1.15652 0
M  V30 4247 H 395.854 -2.87396 -1.5515 0
M  V30 4248 H 394.513 -3.63964 0.438812 0
M  V30 4249 H 394.161 -4.69682 -1.80022 0
M  V30 4250 H 393.861 -5.85625 -0.481378 0
M  V30 4251 H 395.385 -5.94098 -1.40995 0
M  V30 4252 H 396.799 -5.67034 0.845307 0
M  V30 4253 H 395.196 -5.77554 1.62947 0
M  V30 4254 H 396.266 -4.41365 2.00811 0
M  V30 4255 N 397.609 -0.515225 -1.4894 0
M  V30 4256 C 398.541 0.292481 -2.27326 0
M  V30 4257 C 399.554 0.917838 -1.3446 0
M  V30 4258 O 400.743 0.798772 -1.5963 0
M  V30 4259 C 397.843 1.42803 -3.07344 0
M  V30 4260 C 397.016 0.907347 -4.27885 0
M  V30 4261 C 396.075 1.92222 -4.89834 0
M  V30 4262 O 395.101 1.48506 -5.49486 0
M  V30 4263 N 396.303 3.25355 -4.80754 0
M  V30 4264 H 399.068 -0.379721 -2.97285 0
M  V30 4265 H 396.629 -0.348638 -1.58102 0
M  V30 4266 H 398.621 2.10481 -3.45658 0
M  V30 4267 H 397.191 2.00414 -2.39902 0
M  V30 4268 H 396.411 0.0550218 -3.94162 0
M  V30 4269 H 397.699 0.538108 -5.05946 0
M  V30 4270 H 397.097 3.6355 -4.33414 0
M  V30 4271 H 395.654 3.88707 -5.23211 0
M  V30 4272 N 399.087 1.5561 -0.249682 0
M  V30 4273 C 400.327 2.00916 0.37579 0
M  V30 4274 C 400.691 1.13409 1.54927 0
M  V30 4275 O 401.892 1.48183 2.24266 0
M  V30 4276 C 400.163 3.48949 0.772633 0
M  V30 4277 S 401.722 4.16261 1.38824 0
M  V30 4278 H 398.54 0.70112 0.118117 0
M  V30 4279 H 401.142 1.92052 -0.365567 0
M  V30 4280 H 399.846 4.103 -0.090683 0
M  V30 4281 H 399.377 3.61745 1.5461 0
M  V30 4282 H 401.392 4.17778 2.67724 0
M  V30 4283 N 400.565 -0.0233959 1.57583 0
M  V30 4284 C 401.811 -0.714119 1.89811 0
M  V30 4285 C 402.144 -1.74702 0.848113 0
M  V30 4286 O 401.419 -1.94023 -0.136135 0
M  V30 4287 C 401.702 -1.37853 3.32669 0
M  V30 4288 C 401.555 -0.358764 4.48367 0
M  V30 4289 C 402.874 -2.31101 3.7454 0
M  V30 4290 H 399.993 -0.25814 0.690314 0
M  V30 4291 H 402.635 0.0230927 1.89986 0
M  V30 4292 H 400.785 -2.00689 3.3265 0
M  V30 4293 H 402.457 0.268115 4.6052 0
M  V30 4294 H 400.7 0.321387 4.32608 0
M  V30 4295 H 401.371 -0.862242 5.45224 0
M  V30 4296 H 403.847 -1.78304 3.75961 0
M  V30 4297 H 402.723 -2.74567 4.75294 0
M  V30 4298 H 402.984 -3.18018 3.0711 0
M  V30 4299 N 402.043 -1.548 -0.295768 0
M  V30 4300 C 403.32 -1.65014 -1.05023 0
M  V30 4301 C 403.7 -0.501805 -2.05049 0
M  V30 4302 O 403.048 0.500869 -2.22943 0
M  V30 4303 C 403.258 -3.03252 -1.72741 0
M  V30 4304 C 404.606 -3.60242 -2.24746 0
M  V30 4305 O 405.63 -3.05737 -1.82765 0
M  V30 4306 O 404.489 -4.55687 -3.01681 0
M  V30 4307 H 401.583 -0.669314 -0.485744 0
M  V30 4308 H 404.129 -1.67144 -0.293438 0
M  V30 4309 H 402.901 -3.7827 -1.00138 0
M  V30 4310 H 402.524 -3.04922 -2.55163 0
M  V30 4311 N 403.521 0.559213 -1.47345 0
M  V30 4312 C 404.471 1.66192 -1.5609 0
M  V30 4313 C 405.455 1.55323 -0.419957 0
M  V30 4314 O 406.647 1.63839 -0.669762 0
M  V30 4315 C 403.776 3.0497 -1.57634 0
M  V30 4316 C 402.862 3.2105 -2.77106 0
M  V30 4317 N 403.253 3.07203 -4.01821 0
M  V30 4318 C 401.551 3.52046 -2.73825 0
M  V30 4319 C 402.252 3.25919 -4.81821 0
M  V30 4320 N 401.228 3.52161 -4.14106 0
M  V30 4321 H 405.03 1.54052 -2.5029 0
M  V30 4322 H 402.544 0.763914 -1.43311 0
M  V30 4323 H 404.541 3.84142 -1.61989 0
M  V30 4324 H 403.201 3.18224 -0.645281 0
M  V30 4325 H 404.212 2.84572 -4.32711 0
M  V30 4326 H 400.889 3.71839 -1.89848 0
M  V30 4327 H 402.279 3.20198 -5.90697 0
M  V30 4328 N 404.999 1.35443 0.805782 0
M  V30 4329 C 406.224 1.32037 1.59941 0
M  V30 4330 C 406.649 -0.0994215 1.87837 0
M  V30 4331 O 406.007 -1.06648 1.46615 0
M  V30 4332 C 406.055 2.13354 2.90711 0
M  V30 4333 O 405.159 1.5148 3.83572 0
M  V30 4334 H 404.5 0.452666 0.485787 0
M  V30 4335 H 407.03 1.78496 1.00002 0
M  V30 4336 H 407.04 2.25338 3.40128 0
M  V30 4337 H 405.715 3.16572 2.69732 0
M  V30 4338 H 404.292 1.4834 3.42125 0
M  V30 4339 N 406.477 -1.02803 1.19454 0
M  V30 4340 C 407.705 -1.79841 1.02297 0
M  V30 4341 C 408.12 -1.83879 -0.428259 0
M  V30 4342 O 407.477 -1.28345 -1.29745 0
M  V30 4343 C 407.528 -3.24852 1.58598 0
M  V30 4344 O 407.249 -3.21097 2.98041 0
M  V30 4345 C 408.75 -4.18485 1.46236 0
M  V30 4346 H 405.97 -0.565936 0.360496 0
M  V30 4347 H 408.514 -1.2948 1.58288 0
M  V30 4348 H 406.669 -3.72401 1.06753 0
M  V30 4349 H 407.083 -4.12033 3.24545 0
M  V30 4350 H 408.557 -5.18121 1.90407 0
M  V30 4351 H 409.034 -4.37254 0.41301 0
M  V30 4352 H 409.64 -3.76811 1.97215 0
M  V30 4353 N 407.956 -0.998596 -1.21925 0
M  V30 4354 C 408.906 -0.524743 -2.21879 0
M  V30 4355 C 409.89 0.41017 -1.55584 0
M  V30 4356 O 411.082 0.236063 -1.75419 0
M  V30 4357 C 408.211 0.153636 -3.42956 0
M  V30 4358 C 407.297 -0.801918 -4.16449 0
M  V30 4359 N 407.688 -1.95211 -4.66611 0
M  V30 4360 C 405.986 -0.618972 -4.41684 0
M  V30 4361 C 406.687 -2.55234 -5.22715 0
M  V30 4362 N 405.663 -1.83451 -5.1171 0
M  V30 4363 H 409.465 -1.40189 -2.58311 0
M  V30 4364 H 406.979 -0.86159 -1.3766 0
M  V30 4365 H 408.976 0.510534 -4.13762 0
M  V30 4366 H 407.636 1.02684 -3.08036 0
M  V30 4367 H 408.647 -2.33271 -4.62391 0
M  V30 4368 H 405.324 0.207694 -4.16983 0
M  V30 4369 H 406.714 -3.52471 -5.72026 0
M  V30 4370 N 409.434 1.37368 -0.772513 0
M  V30 4371 C 410.845 1.8231 -0.402493 0
M  V30 4372 C 411.196 1.6436 1.07146 0
M  V30 4373 O 410.321 1.15514 1.82991 0
M  V30 4374 C 410.916 3.30979 -0.723776 0
M  V30 4375 C 409.475 3.74195 -0.406802 0
M  V30 4376 C 408.622 2.59885 -0.967218 0
M  V30 4377 H 411.573 1.25829 -0.967099 0
M  V30 4378 H 411.594 3.80499 -0.00870832 0
M  V30 4379 H 411.106 3.44011 -1.7966 0
M  V30 4380 H 409.207 3.66732 0.658673 0
M  V30 4381 H 409.32 4.7027 -0.915588 0
M  V30 4382 H 407.684 2.51674 -0.391416 0
M  V30 4383 H 408.467 2.7571 -2.04546 0
M  V30 4384 N 410.912 0.523116 1.48665 0
M  V30 4385 C 412.189 -0.0775449 1.95446 0
M  V30 4386 C 412.569 -1.5197 1.4652 0
M  V30 4387 O 411.917 -2.17876 0.688657 0
M  V30 4388 C 412.127 0.0326135 3.48985 0
M  V30 4389 C 413.475 -0.130141 4.24401 0
M  V30 4390 O 414.499 -0.0415142 3.56176 0
M  V30 4391 O 413.358 -0.31491 5.45592 0
M  V30 4392 H 410.452 -0.0831012 0.822814 0
M  V30 4393 H 412.998 0.587227 1.59216 0
M  V30 4394 H 411.77 1.03748 3.77296 0
M  V30 4395 H 411.393 -0.671317 3.91892 0
M  V30 4396 N 412.39 -1.55475 0.257931 0
M  V30 4397 C 413.63 -2.01112 -0.365129 0
M  V30 4398 C 413.994 -1.1423 -1.54323 0
M  V30 4399 O 415.195 -1.49371 -2.23477 0
M  V30 4400 C 413.466 -3.49353 -0.754117 0
M  V30 4401 S 415.025 -4.16992 -1.36614 0
M  V30 4402 H 411.843 -0.701737 -0.114397 0
M  V30 4403 H 414.445 -1.91855 0.375747 0
M  V30 4404 H 413.149 -4.10246 0.112441 0
M  V30 4405 H 412.68 -3.6256 -1.52689 0
M  V30 4406 H 414.695 -4.19191 -2.65505 0
M  V30 4407 N 413.868 0.0150385 -1.57593 0
M  V30 4408 C 414.831 0.995996 -2.06428 0
M  V30 4409 C 415.831 1.2818 -0.970903 0
M  V30 4410 O 417.021 1.22949 -1.23406 0
M  V30 4411 C 414.153 2.32506 -2.49307 0
M  V30 4412 H 415.346 0.573873 -2.94358 0
M  V30 4413 H 412.899 0.262186 -1.54085 0
M  V30 4414 H 413.634 2.79438 -1.64575 0
M  V30 4415 H 413.419 2.13087 -3.29145 0
M  V30 4416 H 414.909 3.02906 -2.87468 0
M  V30 4417 N 415.346 1.54954 0.287554 0
M  V30 4418 C 416.276 1.89839 1.35954 0
M  V30 4419 C 417.257 0.758675 1.52244 0
M  V30 4420 O 418.442 1.01557 1.65529 0
M  V30 4421 C 415.572 2.15753 2.72154 0
M  V30 4422 C 414.526 3.3159 2.70614 0
M  V30 4423 C 413.852 3.42952 4.10229 0
M  V30 4424 C 415.152 4.68359 2.31165 0
M  V30 4425 H 416.846 2.79625 1.07007 0
M  V30 4426 H 414.392 1.3454 0.513316 0
M  V30 4427 H 416.345 2.38743 3.47246 0
M  V30 4428 H 415.069 1.22752 3.02654 0
M  V30 4429 H 413.728 3.08545 1.97979 0
M  V30 4430 H 413.376 2.47443 4.37928 0
M  V30 4431 H 413.076 4.20826 4.10097 0
M  V30 4432 H 414.6 3.68218 4.87081 0
M  V30 4433 H 416.014 4.9099 2.95976 0
M  V30 4434 H 414.411 5.49044 2.42221 0
M  V30 4435 H 415.481 4.68165 1.26291 0
M  V30 4436 N 416.824 -0.551391 1.4764 0
M  V30 4437 C 417.771 -1.65796 1.60563 0
M  V30 4438 C 418.741 -1.59932 0.448428 0
M  V30 4439 O 419.926 -1.78679 0.669222 0
M  V30 4440 C 417.066 -3.04108 1.63133 0
M  V30 4441 C 416.179 -3.20365 2.89811 0
M  V30 4442 C 415.314 -4.49109 2.8368 0
M  V30 4443 C 414.353 -4.58819 4.05156 0
M  V30 4444 N 413.49 -5.78926 3.97227 0
M  V30 4445 H 418.33 -1.54088 2.5507 0
M  V30 4446 H 415.867 -0.75052 1.26513 0
M  V30 4447 H 417.825 -3.84207 1.62606 0
M  V30 4448 H 416.455 -3.14637 0.721341 0
M  V30 4449 H 415.507 -2.33659 3.00179 0
M  V30 4450 H 416.819 -3.23402 3.79753 0
M  V30 4451 H 415.973 -5.37475 2.81434 0
M  V30 4452 H 414.712 -4.4856 1.91431 0
M  V30 4453 H 413.717 -3.68864 4.077 0
M  V30 4454 H 414.942 -4.61124 4.98539 0
M  V30 4455 H 412.888 -5.79314 3.07785 0
M  V30 4456 H 412.805 -5.83367 4.80853 0
M  V30 4457 H 414.073 -6.69637 3.99007 0
M  V30 4458 N 418.302 -1.35869 -0.798587 0
M  V30 4459 C 419.527 -1.32883 -1.59238 0
M  V30 4460 C 419.952 0.0894587 -1.87887 0
M  V30 4461 O 419.31 1.05869 -1.47178 0
M  V30 4462 C 419.358 -2.14892 -2.89575 0
M  V30 4463 O 418.462 -1.53512 -3.82763 0
M  V30 4464 H 417.803 -0.455236 -0.48338 0
M  V30 4465 H 420.333 -1.79024 -0.990539 0
M  V30 4466 H 420.343 -2.27139 -3.38928 0
M  V30 4467 H 419.018 -3.17998 -2.68049 0
M  V30 4468 H 417.595 -1.50153 -3.41334 0
M  V30 4469 N 419.78 1.02168 -1.19998 0
M  V30 4470 C 420.743 2.08765 -0.94604 0
M  V30 4471 C 421.743 1.60618 0.0763846 0
M  V30 4472 O 422.933 1.73472 -0.159135 0
M  V30 4473 C 420.065 3.38262 -0.423255 0
M  V30 4474 H 421.258 2.32726 -1.89153 0
M  V30 4475 H 418.811 1.1889 -1.01464 0
M  V30 4476 H 419.546 3.19974 0.527938 0
M  V30 4477 H 419.331 3.74532 -1.16053 0
M  V30 4478 H 420.821 4.16759 -0.264911 0
M  V30 4479 N 421.258 1.00505 1.21394 0
M  V30 4480 C 422.221 0.570459 2.21987 0
M  V30 4481 C 423.221 -0.353211 1.56873 0
M  V30 4482 O 424.411 -0.14349 1.73608 0
M  V30 4483 C 421.543 -0.168555 3.40483 0
M  V30 4484 H 422.736 1.46021 2.6195 0
M  V30 4485 H 420.289 0.793565 1.34656 0
M  V30 4486 H 421.024 -1.07374 3.06009 0
M  V30 4487 H 420.809 0.494823 3.88965 0
M  V30 4488 H 422.299 -0.460362 4.15055 0
M  V30 4489 N 422.737 -1.36956 0.779787 0
M  V30 4490 C 423.7 -2.2851 0.177662 0
M  V30 4491 C 424.7 -1.48393 -0.619377 0
M  V30 4492 O 425.89 -1.68505 -0.441785 0
M  V30 4493 C 423.022 -3.32428 -0.755279 0
M  V30 4494 H 424.215 -2.83269 0.984823 0
M  V30 4495 H 421.768 -1.46358 0.548544 0
M  V30 4496 H 422.503 -2.82808 -1.58714 0
M  V30 4497 H 422.288 -3.91659 -0.185817 0
M  V30 4498 H 423.778 -4.00824 -1.17174 0
M  V30 4499 N 424.215 -0.530993 -1.48385 0
M  V30 4500 C 425.178 0.220497 -2.28137 0
M  V30 4501 C 426.178 0.866851 -1.35434 0
M  V30 4502 O 427.368 0.726746 -1.58316 0
M  V30 4503 C 424.5 1.31921 -3.1434 0
M  V30 4504 H 425.693 -0.479714 -2.96038 0
M  V30 4505 H 423.246 -0.286968 -1.53643 0
M  V30 4506 H 423.981 2.05264 -2.51072 0
M  V30 4507 H 423.766 0.86085 -3.82533 0
M  V30 4508 H 425.256 1.84776 -3.74497 0
M  V30 4509 N 425.693 1.55336 -0.266172 0
M  V30 4510 C 426.921 2.03801 0.356756 0
M  V30 4511 C 427.336 1.14485 1.50129 0
M  V30 4512 O 426.693 0.163121 1.8177 0
M  V30 4513 C 426.744 3.51455 0.846281 0
M  V30 4514 O 426.465 4.37371 -0.252663 0
M  V30 4515 C 427.966 4.15767 1.53794 0
M  V30 4516 H 425.186 0.665906 0.0825218 0
M  V30 4517 H 427.73 2.00636 -0.39566 0
M  V30 4518 H 425.885 3.55092 1.54881 0
M  V30 4519 H 426.299 5.24358 0.122173 0
M  V30 4520 H 427.773 5.20714 1.83198 0
M  V30 4521 H 428.25 3.63404 2.46646 0
M  V30 4522 H 428.856 4.16107 0.879488 0
M  V30 4523 N 427.171 -0.0066808 1.57599 0
M  V30 4524 C 428.103 -1.02827 2.04839 0
M  V30 4525 C 429.116 -1.31108 0.965113 0
M  V30 4526 O 430.305 -1.28202 1.24203 0
M  V30 4527 C 427.405 -2.36464 2.42771 0
M  V30 4528 C 426.578 -2.27219 3.73751 0
M  V30 4529 C 425.637 -3.43489 3.98625 0
M  V30 4530 O 424.663 -3.21976 4.69382 0
M  V30 4531 N 425.865 -4.66116 3.46 0
M  V30 4532 H 428.63 -0.625455 2.93101 0
M  V30 4533 H 426.191 -0.194198 1.60731 0
M  V30 4534 H 428.183 -3.13008 2.56531 0
M  V30 4535 H 426.753 -2.68512 1.60063 0
M  V30 4536 H 425.973 -1.35629 3.70133 0
M  V30 4537 H 427.261 -2.18208 4.59633 0
M  V30 4538 H 426.659 -4.86493 2.88688 0
M  V30 4539 H 425.216 -5.39949 3.65101 0
M  V30 4540 N 428.649 -1.55105 -0.279332 0
M  V30 4541 C 430.065 -1.46803 -0.626187 0
M  V30 4542 C 430.265 -0.676939 -1.89789 0
M  V30 4543 O 429.321 -0.19326 -2.51759 0
M  V30 4544 C 430.634 -2.90962 -0.759034 0
M  V30 4545 C 432.182 -3.01138 -0.853504 0
M  V30 4546 C 432.657 -4.46539 -1.01818 0
M  V30 4547 N 434.148 -4.50341 -1.08386 0
M  V30 4548 C 434.883 -5.60053 -1.22996 0
M  V30 4549 N 434.379 -6.79645 -1.34366 0
M  V30 4550 N 436.172 -5.47783 -1.26056 0
M  V30 4551 H 428.323 -2.04996 0.555921 0
M  V30 4552 H 430.586 -0.929325 0.187239 0
M  V30 4553 H 430.292 -3.51544 0.104852 0
M  V30 4554 H 430.166 -3.39619 -1.64131 0
M  V30 4555 H 432.553 -2.40658 -1.70786 0
M  V30 4556 H 432.634 -2.55745 0.0532466 0
M  V30 4557 H 432.278 -5.0762 -0.168504 0
M  V30 4558 H 432.208 -4.89583 -1.93948 0
M  V30 4559 H 434.699 -3.64191 -1.00864 0
M  V30 4560 H 435.012 -7.59012 -1.4533 0
M  V30 4561 H 433.357 -6.82469 -1.31382 0
M  V30 4562 H 436.548 -4.53294 -1.168 0
M  V30 4563 H 436.721 -6.33331 -1.37098 0
M  V30 4564 N 430.127 0.543554 -1.4793 0
M  V30 4565 C 431.074 1.64942 -1.6144 0
M  V30 4566 C 432.044 1.59692 -0.456903 0
M  V30 4567 O 433.229 1.78321 -0.678688 0
M  V30 4568 C 430.369 3.03238 -1.64744 0
M  V30 4569 C 429.482 3.18823 -2.91506 0
M  V30 4570 C 428.617 4.47599 -2.86057 0
M  V30 4571 C 427.656 4.56664 -4.07584 0
M  V30 4572 N 426.793 5.76811 -4.00292 0
M  V30 4573 H 431.633 1.52733 -2.55884 0
M  V30 4574 H 429.17 0.7438 -1.2691 0
M  V30 4575 H 431.128 3.83339 -1.64641 0
M  V30 4576 H 429.758 3.1425 -0.738017 0
M  V30 4577 H 428.81 2.32064 -3.01414 0
M  V30 4578 H 430.122 3.21384 -3.81463 0
M  V30 4579 H 429.276 5.35975 -2.84281 0
M  V30 4580 H 428.015 4.47538 -1.93807 0
M  V30 4581 H 427.02 3.66697 -4.09651 0
M  V30 4582 H 428.245 4.58474 -5.00978 0
M  V30 4583 H 426.191 5.77673 -3.10853 0
M  V30 4584 H 426.108 5.80808 -4.8394 0
M  V30 4585 H 427.376 6.67512 -4.02553 0
M  V30 4586 N 431.605 1.3629 0.791371 0
M  V30 4587 C 432.568 1.30309 1.88553 0
M  V30 4588 C 433.568 0.211204 1.59407 0
M  V30 4589 O 434.758 0.465865 1.67855 0
M  V30 4590 C 431.89 1.01956 3.25297 0
M  V30 4591 H 433.083 2.27614 1.95273 0
M  V30 4592 H 430.636 1.21035 0.988953 0
M  V30 4593 H 431.371 0.050998 3.2426 0
M  V30 4594 H 431.156 1.80968 3.4784 0
M  V30 4595 H 432.646 1.0037 4.05359 0
M  V30 4596 N 433.083 -1.0153 1.20538 0
M  V30 4597 C 434.494 -1.56598 1.01657 0
M  V30 4598 C 434.845 -1.91505 -0.426668 0
M  V30 4599 O 433.97 -1.72375 -1.30827 0
M  V30 4600 C 434.565 -2.84542 1.83905 0
M  V30 4601 C 433.124 -3.36133 1.69386 0
M  V30 4602 C 432.271 -2.09427 1.81757 0
M  V30 4603 H 435.222 -0.838974 1.34711 0
M  V30 4604 H 435.243 -3.56004 1.34319 0
M  V30 4605 H 434.755 -2.59105 2.8894 0
M  V30 4606 H 432.856 -3.66528 0.669933 0
M  V30 4607 H 432.969 -4.08248 2.50739 0
M  V30 4608 H 431.333 -2.21941 1.24957 0
M  V30 4609 H 432.116 -1.86414 2.88279 0
M  V30 4610 N 434.561 -1.01147 -1.20859 0
M  V30 4611 C 435.786 -0.716698 -1.94623 0
M  V30 4612 C 436.211 0.715415 -1.73964 0
M  V30 4613 O 435.569 1.49157 -1.03062 0
M  V30 4614 C 435.617 -1.0513 -3.44935 0
M  V30 4615 O 434.721 -0.160131 -4.12089 0
M  V30 4616 H 434.062 -0.266404 -0.608214 0
M  V30 4617 H 436.592 -1.35346 -1.53436 0
M  V30 4618 H 436.602 -1.00086 -3.95533 0
M  V30 4619 H 435.277 -2.09475 -3.59295 0
M  V30 4620 H 433.854 -0.267657 -3.71938 0
M  V30 4621 N 436.039 1.36541 -0.78704 0
M  V30 4622 C 436.969 2.32659 -0.197992 0
M  V30 4623 C 437.95 1.56533 0.665697 0
M  V30 4624 O 439.135 1.84698 0.60001 0
M  V30 4625 C 436.265 3.40778 0.669901 0
M  V30 4626 C 435.219 4.27897 -0.0937039 0
M  V30 4627 C 434.545 5.27163 0.894629 0
M  V30 4628 C 435.845 5.06334 -1.28154 0
M  V30 4629 H 437.539 2.82171 -1.00099 0
M  V30 4630 H 435.085 1.35665 -0.482793 0
M  V30 4631 H 437.038 4.07008 1.09191 0
M  V30 4632 H 435.762 2.89827 1.50558 0
M  V30 4633 H 434.421 3.6322 -0.49666 0
M  V30 4634 H 434.069 4.72486 1.72527 0
M  V30 4635 H 433.769 5.86317 0.388149 0
M  V30 4636 H 435.293 5.96266 1.31525 0
M  V30 4637 H 436.707 5.65617 -0.93541 0
M  V30 4638 H 435.104 5.74888 -1.72115 0
M  V30 4639 H 436.174 4.38114 -2.07807 0
M  V30 4640 N 437.518 0.538854 1.48102 0
M  V30 4641 C 438.748 0.0122958 2.06596 0
M  V30 4642 C 439.156 -1.27861 1.39457 0
M  V30 4643 O 438.499 -1.77348 0.478907 0
M  V30 4644 C 438.561 -0.273131 3.58461 0
M  V30 4645 C 438.225 0.92561 4.47528 0
M  V30 4646 C 439.222 1.82637 4.86765 0
M  V30 4647 C 436.907 1.13511 4.89306 0
M  V30 4648 C 438.901 2.92047 5.66558 0
M  V30 4649 C 436.588 2.23233 5.68868 0
M  V30 4650 C 437.586 3.12333 6.07402 0
M  V30 4651 O 437.274 4.20155 6.85365 0
M  V30 4652 H 437.006 0.0344283 0.675123 0
M  V30 4653 H 439.56 0.746494 1.91355 0
M  V30 4654 H 437.79 -1.06141 3.71848 0
M  V30 4655 H 439.479 -0.742842 3.99045 0
M  V30 4656 H 440.245 1.67649 4.55103 0
M  V30 4657 H 436.124 0.450835 4.5879 0
M  V30 4658 H 439.668 3.6162 5.96554 0
M  V30 4659 H 435.565 2.38201 5.99942 0
M  V30 4660 H 436.333 4.17975 7.03732 0
M  V30 4661 N 438.996 -1.55193 0.274407 0
M  V30 4662 C 440.224 -2.03987 -0.345943 0
M  V30 4663 C 440.639 -1.15279 -1.4952 0
M  V30 4664 O 439.996 -0.172759 -1.8168 0
M  V30 4665 C 440.047 -3.51898 -0.827631 0
M  V30 4666 O 439.768 -4.37231 0.275855 0
M  V30 4667 C 441.269 -4.16577 -1.51587 0
M  V30 4668 H 438.489 -0.666335 -0.0789892 0
M  V30 4669 H 441.033 -2.00423 0.406294 0
M  V30 4670 H 439.188 -3.55909 -1.52996 0
M  V30 4671 H 439.602 -5.24415 -0.0943638 0
M  V30 4672 H 441.076 -5.21678 -1.80433 0
M  V30 4673 H 441.553 -3.64707 -2.44716 0
M  V30 4674 H 442.159 -4.16568 -0.857409 0
M  V30 4675 N 440.474 -0.00167713 -1.576 0
M  V30 4676 C 441.384 1.00548 -2.1196 0
M  V30 4677 C 442.4 1.3758 -1.06526 0
M  V30 4678 O 443.576 1.46278 -1.38436 0
M  V30 4679 C 440.641 2.27809 -2.6135 0
M  V30 4680 C 439.702 1.97074 -3.81393 0
M  V30 4681 C 438.935 3.18267 -4.28417 0
M  V30 4682 O 439.158 4.30009 -3.74765 0
M  V30 4683 O 438.092 3.02167 -5.20556 0
M  V30 4684 H 441.918 0.573373 -2.98238 0
M  V30 4685 H 439.503 0.217255 -1.47812 0
M  V30 4686 H 441.385 3.02568 -2.93309 0
M  V30 4687 H 440.06 2.70254 -1.78169 0
M  V30 4688 H 438.967 1.19785 -3.54404 0
M  V30 4689 H 440.3 1.59464 -4.65652 0
M  V30 4690 N 441.952 1.55251 0.271103 0
M  V30 4691 C 442.884 1.84675 1.35749 0
M  V30 4692 C 443.897 0.731366 1.45447 0
M  V30 4693 O 445.086 1.00924 1.4723 0
M  V30 4694 C 442.186 1.99638 2.73857 0
M  V30 4695 C 441.359 3.30312 2.86727 0
M  V30 4696 C 440.418 3.35318 4.05522 0
M  V30 4697 O 439.444 4.08682 3.96191 0
M  V30 4698 N 440.646 2.62857 5.17577 0
M  V30 4699 H 443.411 2.78445 1.10853 0
M  V30 4700 H 440.972 1.55191 0.461218 0
M  V30 4701 H 442.964 2.00355 3.51625 0
M  V30 4702 H 441.534 1.12725 2.91568 0
M  V30 4703 H 440.754 3.42118 1.95829 0
M  V30 4704 H 442.042 4.16488 2.92258 0
M  V30 4705 H 441.44 2.02939 5.28046 0
M  V30 4706 H 439.997 2.69295 5.93568 0
M  V30 4707 N 443.43 -0.535701 1.48216 0
M  V30 4708 C 444.846 -0.863701 1.3421 0
M  V30 4709 C 445.046 -1.98458 0.34879 0
M  V30 4710 O 444.102 -2.51432 -0.23204 0
M  V30 4711 C 445.415 -1.23662 2.74095 0
M  V30 4712 C 446.963 -1.34683 2.82541 0
M  V30 4713 C 447.438 -1.75322 4.23115 0
M  V30 4714 N 448.929 -1.82434 4.2576 0
M  V30 4715 C 449.664 -2.15252 5.31464 0
M  V30 4716 N 449.16 -2.46533 6.47452 0
M  V30 4717 N 450.953 -2.16209 5.18855 0
M  V30 4718 H 443.104 0.203965 2.11418 0
M  V30 4719 H 445.367 0.0286033 0.947568 0
M  V30 4720 H 445.073 -0.486674 3.48316 0
M  V30 4721 H 444.947 -2.18805 3.07253 0
M  V30 4722 H 447.334 -2.08756 2.08579 0
M  V30 4723 H 447.415 -0.376756 2.5301 0
M  V30 4724 H 447.059 -1.01812 4.97591 0
M  V30 4725 H 446.989 -2.7337 4.50085 0
M  V30 4726 H 449.48 -1.6056 3.42095 0
M  V30 4727 H 449.793 -2.70662 7.23852 0
M  V30 4728 H 448.138 -2.44065 6.50736 0
M  V30 4729 H 451.329 -1.91224 4.2726 0
M  V30 4730 H 451.502 -2.41453 6.01335 0
M  V30 4731 N 444.908 -1.36708 -0.784132 0
M  V30 4732 C 445.871 -1.31307 -1.87859 0
M  V30 4733 C 446.871 -0.219654 -1.59293 0
M  V30 4734 O 448.061 -0.47476 -1.67606 0
M  V30 4735 C 445.193 -1.03679 -3.24751 0
M  V30 4736 H 446.386 -2.28647 -1.94064 0
M  V30 4737 H 443.939 -1.21558 -0.98252 0
M  V30 4738 H 444.674 -0.0681936 -3.24228 0
M  V30 4739 H 444.459 -1.82811 -3.46876 0
M  V30 4740 H 445.949 -1.02518 -4.04821 0
M  V30 4741 N 446.386 1.0089 -1.21074 0
M  V30 4742 C 447.634 1.74262 -1.02358 0
M  V30 4743 C 447.955 1.89869 0.444393 0
M  V30 4744 O 447.225 1.44677 1.32081 0
M  V30 4745 H 445.805 0.645615 -0.375754 0
M  V30 4746 H 448.467 1.21596 -1.52317 0
M  V30 4747 H 447.563 2.74328 -1.4883 0
M  V30 4748 N 447.864 1.01787 1.20321 0
M  V30 4749 C 448.794 0.609625 2.25401 0
M  V30 4750 C 449.775 -0.375951 1.65893 0
M  V30 4751 O 450.96 -0.261101 1.92437 0
M  V30 4752 C 448.09 -0.0515995 3.47262 0
M  V30 4753 C 447.044 0.855095 4.19371 0
M  V30 4754 C 446.37 0.0595757 5.34667 0
M  V30 4755 C 447.67 2.16374 4.75373 0
M  V30 4756 H 449.364 1.48803 2.59804 0
M  V30 4757 H 446.91 0.716934 1.24884 0
M  V30 4758 H 448.863 -0.348764 4.19954 0
M  V30 4759 H 447.587 -0.964726 3.12027 0
M  V30 4760 H 446.246 1.13628 3.48546 0
M  V30 4761 H 445.894 -0.85524 4.95676 0
M  V30 4762 H 445.594 0.663406 5.83843 0
M  V30 4763 H 447.118 -0.231105 6.10162 0
M  V30 4764 H 448.532 1.92885 5.39878 0
M  V30 4765 H 446.929 2.71853 5.34991 0
M  V30 4766 H 447.999 2.82589 3.94045 0
M  V30 4767 N 449.342 -1.36122 0.79427 0
M  V30 4768 C 450.591 -1.98361 0.365464 0
M  V30 4769 C 450.904 -1.6374 -1.06997 0
M  V30 4770 O 452.11 -2.19251 -1.60129 0
M  V30 4771 C 450.566 -3.54821 0.602496 0
M  V30 4772 C 450.174 -3.98362 2.04967 0
M  V30 4773 C 451.918 -4.2383 0.238437 0
M  V30 4774 C 449.825 -5.47619 2.2331 0
M  V30 4775 H 448.755 -0.742193 0.13291 0
M  V30 4776 H 451.406 -1.55354 0.976589 0
M  V30 4777 H 449.788 -3.95922 -0.078409 0
M  V30 4778 H 450.962 -3.68447 2.76737 0
M  V30 4779 H 449.277 -3.42206 2.37243 0
M  V30 4780 H 451.874 -5.33529 0.353705 0
M  V30 4781 H 452.217 -4.08264 -0.814006 0
M  V30 4782 H 452.75 -3.88108 0.872769 0
M  V30 4783 H 449.489 -5.68138 3.26955 0
M  V30 4784 H 449.009 -5.79145 1.5605 0
M  V30 4785 H 450.688 -6.13911 2.0426 0
M  V30 4786 N 450.82 -0.546701 -1.47814 0
M  V30 4787 C 452.069 -0.0166497 -2.01693 0
M  V30 4788 C 452.382 1.33721 -1.42752 0
M  V30 4789 O 453.588 1.95658 -1.8823 0
M  V30 4790 C 452.044 0.0206769 -3.59894 0
M  V30 4791 C 451.652 -1.3293 -4.27824 0
M  V30 4792 C 453.396 0.498674 -4.21561 0
M  V30 4793 C 451.303 -1.25165 -5.78003 0
M  V30 4794 H 450.233 -0.0024541 -0.753996 0
M  V30 4795 H 452.884 -0.692984 -1.69912 0
M  V30 4796 H 451.266 0.76244 -3.88591 0
M  V30 4797 H 452.44 -2.08795 -4.10781 0
M  V30 4798 H 450.755 -1.74438 -3.78101 0
M  V30 4799 H 453.352 0.575 -5.31599 0
M  V30 4800 H 453.695 1.5083 -3.88016 0
M  V30 4801 H 454.228 -0.18791 -3.97356 0
M  V30 4802 H 450.967 -2.23695 -6.1615 0
M  V30 4803 H 450.487 -0.53464 -5.97412 0
M  V30 4804 H 452.166 -0.949299 -6.39998 0
M  V30 4805 N 452.299 1.55045 -0.282633 0
M  V30 4806 C 453.71 1.85473 0.213655 0
M  V30 4807 C 454.061 1.20465 1.54863 0
M  V30 4808 O 453.186 0.495676 2.10647 0
M  V30 4809 C 453.781 3.36496 0.394445 0
M  V30 4810 C 452.34 3.67022 0.834961 0
M  V30 4811 C 451.487 2.77218 -0.0674081 0
M  V30 4812 H 454.438 1.50478 -0.504202 0
M  V30 4813 H 454.459 3.60007 1.23186 0
M  V30 4814 H 453.971 3.83782 -0.577326 0
M  V30 4815 H 452.072 3.25241 1.81794 0
M  V30 4816 H 452.185 4.74433 0.667075 0
M  V30 4817 H 450.549 2.5069 0.450196 0
M  V30 4818 H 451.332 3.2732 -1.0352 0
M  V30 4819 N 453.777 0.010035 1.57597 0
M  V30 4820 C 454.707 -0.976857 2.12084 0
M  V30 4821 C 455.688 -1.35191 1.03235 0
M  V30 4822 O 456.873 -1.43389 1.3097 0
M  V30 4823 C 454.003 -2.26548 2.63236 0
M  V30 4824 C 452.957 -2.03175 3.76701 0
M  V30 4825 C 452.283 -3.38138 4.14206 0
M  V30 4826 C 453.583 -1.38625 5.03568 0
M  V30 4827 H 455.277 -0.523145 2.94794 0
M  V30 4828 H 452.823 -0.250195 1.4181 0
M  V30 4829 H 454.776 -2.95952 2.99984 0
M  V30 4830 H 453.5 -2.74051 1.77661 0
M  V30 4831 H 452.159 -1.36195 3.40362 0
M  V30 4832 H 451.807 -3.83363 3.25641 0
M  V30 4833 H 451.507 -3.23312 4.90656 0
M  V30 4834 H 453.031 -4.08841 4.53521 0
M  V30 4835 H 454.445 -1.98 5.38023 0
M  V30 4836 H 452.842 -1.34256 5.84889 0
M  V30 4837 H 453.912 -0.356722 4.83586 0
M  V30 4838 N 455.255 -1.55392 -0.262866 0
M  V30 4839 C 456.502 -1.76476 -0.993109 0
M  V30 4840 C 456.83 -0.571479 -1.85915 0
M  V30 4841 O 456.085 0.445733 -1.90556 0
M  V30 4842 C 456.384 -3.02889 -1.89718 0
M  V30 4843 C 456.05 -4.34974 -1.18781 0
M  V30 4844 C 454.712 -4.7087 -0.991699 0
M  V30 4845 C 457.064 -5.16695 -0.683798 0
M  V30 4846 C 454.392 -5.86036 -0.279024 0
M  V30 4847 C 456.744 -6.32598 0.0153327 0
M  V30 4848 C 455.408 -6.67127 0.223062 0
M  V30 4849 H 454.678 -0.64577 -0.363404 0
M  V30 4850 H 457.325 -1.89664 -0.264525 0
M  V30 4851 H 455.63 -2.84644 -2.6923 0
M  V30 4852 H 457.327 -3.16399 -2.46359 0
M  V30 4853 H 453.917 -4.06765 -1.35058 0
M  V30 4854 H 458.101 -4.8943 -0.8229 0
M  V30 4855 H 453.357 -6.11306 -0.107456 0
M  V30 4856 H 457.531 -6.95171 0.413584 0
M  V30 4857 H 455.158 -7.56216 0.777265 0
M  V30 4858 N 456.733 0.527833 -1.48498 0
M  V30 4859 C 457.663 1.64136 -1.66077 0
M  V30 4860 C 458.644 1.62286 -0.509625 0
M  V30 4861 O 459.829 1.79449 -0.742413 0
M  V30 4862 C 456.959 3.02717 -1.70234 0
M  V30 4863 C 455.913 3.19426 -2.8487 0
M  V30 4864 C 455.239 4.5909 -2.74118 0
M  V30 4865 C 456.539 3.01993 -4.26142 0
M  V30 4866 H 458.233 1.4968 -2.593 0
M  V30 4867 H 455.779 0.718654 -1.24785 0
M  V30 4868 H 457.732 3.80491 -1.8112 0
M  V30 4869 H 456.456 3.18201 -0.735911 0
M  V30 4870 H 455.115 2.4407 -2.73542 0
M  V30 4871 H 454.763 4.71413 -1.7544 0
M  V30 4872 H 454.463 4.71214 -3.51042 0
M  V30 4873 H 455.987 5.3896 -2.86974 0
M  V30 4874 H 457.401 3.69558 -4.38292 0
M  V30 4875 H 455.798 3.2561 -5.04082 0
M  V30 4876 H 456.868 1.98396 -4.42456 0
M  V30 4877 N 458.211 1.37122 0.776871 0
M  V30 4878 C 459.457 1.32243 1.53752 0
M  V30 4879 C 459.79 -0.0944745 1.9397 0
M  V30 4880 O 459.065 -1.05068 1.6368 0
M  V30 4881 C 459.348 2.25681 2.80607 0
M  V30 4882 C 459.201 3.76127 2.46676 0
M  V30 4883 C 460.52 2.17657 3.82509 0
M  V30 4884 H 457.639 0.481704 0.557791 0
M  V30 4885 H 460.281 1.6778 0.891612 0
M  V30 4886 H 458.431 1.95505 3.35723 0
M  V30 4887 H 460.103 4.16877 1.97513 0
M  V30 4888 H 458.346 3.94946 1.79443 0
M  V30 4889 H 459.017 4.36933 3.37333 0
M  V30 4890 H 461.493 2.44245 3.36873 0
M  V30 4891 H 460.369 2.85185 4.69 0
M  V30 4892 H 460.63 1.16785 4.26396 0
M  V30 4893 N 459.689 -1.00246 1.21608 0
M  V30 4894 C 460.619 -2.10921 1.00172 0
M  V30 4895 C 461.6 -1.69938 -0.0741587 0
M  V30 4896 O 462.785 -1.94009 0.0861753 0
M  V30 4897 C 459.915 -3.42618 0.568355 0
M  V30 4898 C 458.869 -3.97407 1.58909 0
M  V30 4899 C 458.195 -5.25038 1.01187 0
M  V30 4900 C 459.495 -4.2918 2.97661 0
M  V30 4901 H 461.189 -2.29112 1.92739 0
M  V30 4902 H 458.735 -1.10101 0.928102 0
M  V30 4903 H 460.688 -4.19444 0.405555 0
M  V30 4904 H 459.412 -3.24227 -0.392961 0
M  V30 4905 H 458.071 -3.22703 1.73949 0
M  V30 4906 H 457.719 -5.02982 0.0421965 0
M  V30 4907 H 457.419 -5.62661 1.6937 0
M  V30 4908 H 458.943 -6.04507 0.860448 0
M  V30 4909 H 460.357 -4.96839 2.86049 0
M  V30 4910 H 458.754 -4.77952 3.6288 0
M  V30 4911 H 459.824 -3.3735 3.48315 0
M  V30 4912 N 461.167 -1.02423 -1.1978 0
M  V30 4913 C 462.13 -0.605703 -2.21052 0
M  V30 4914 C 463.13 0.328209 -1.57415 0
M  V30 4915 O 464.32 0.115853 -1.73814 0
M  V30 4916 C 461.452 0.114366 -3.40708 0
M  V30 4917 H 462.645 -1.5017 -2.59594 0
M  V30 4918 H 460.198 -0.814888 -1.33376 0
M  V30 4919 H 460.933 1.02492 -3.07678 0
M  V30 4920 H 460.718 -0.556641 -3.88129 0
M  V30 4921 H 462.208 0.394272 -4.15735 0
M  V30 4922 N 462.645 1.35699 -0.801477 0
M  V30 4923 C 463.87 2.03687 -0.390678 0
M  V30 4924 C 464.295 1.60015 0.988778 0
M  V30 4925 O 463.653 0.774357 1.63931 0
M  V30 4926 C 463.701 3.57439 -0.476404 0
M  V30 4927 O 462.805 4.09208 0.512106 0
M  V30 4928 H 462.146 0.64344 -0.163956 0
M  V30 4929 H 464.676 1.73403 -1.08594 0
M  V30 4930 H 464.686 4.06544 -0.344357 0
M  V30 4931 H 463.361 3.88576 -1.48262 0
M  V30 4932 H 461.938 3.7134 0.340721 0
M  V30 4933 N 464.123 0.554532 1.47522 0
M  V30 4934 C 465.539 0.214107 1.58157 0
M  V30 4935 C 465.739 -1.28331 1.55349 0
M  V30 4936 O 464.795 -2.06329 1.45549 0
M  V30 4937 C 466.108 0.838391 2.88776 0
M  V30 4938 C 467.656 0.809374 3.02354 0
M  V30 4939 C 468.131 1.41268 4.35669 0
M  V30 4940 N 469.622 1.37574 4.42298 0
M  V30 4941 C 470.357 1.8122 5.4401 0
M  V30 4942 N 469.853 2.3271 6.52547 0
M  V30 4943 N 471.646 1.72307 5.35039 0
M  V30 4944 H 463.797 1.52744 1.4759 0
M  V30 4945 H 466.06 0.636812 0.702264 0
M  V30 4946 H 465.766 1.89065 2.96559 0
M  V30 4947 H 465.64 0.329847 3.75755 0
M  V30 4948 H 468.027 -0.234187 2.94169 0
M  V30 4949 H 468.108 1.35565 2.16924 0
M  V30 4950 H 467.752 2.45529 4.4461 0
M  V30 4951 H 467.682 0.841871 5.19827 0
M  V30 4952 H 470.173 0.999081 3.64454 0
M  V30 4953 H 470.486 2.63944 7.26329 0
M  V30 4954 H 468.831 2.36719 6.53444 0
M  V30 4955 H 472.022 1.3186 4.49144 0
M  V30 4956 H 472.195 2.06641 6.14169 0
M  V30 4957 N 465.601 -1.54893 0.290851 0
M  V30 4958 C 466.829 -2.04343 -0.324288 0
M  V30 4959 C 467.244 -1.16859 -1.48289 0
M  V30 4960 O 466.601 -0.192018 -1.81487 0
M  V30 4961 C 466.652 -3.52756 -0.79026 0
M  V30 4962 O 466.373 -4.36913 0.322213 0
M  V30 4963 C 467.874 -4.18161 -1.4716 0
M  V30 4964 H 465.094 -0.667135 -0.0719173 0
M  V30 4965 H 467.638 -1.99981 0.427529 0
M  V30 4966 H 465.793 -3.57511 -1.49213 0
M  V30 4967 H 466.207 -5.24486 -0.0387372 0
M  V30 4968 H 467.681 -5.23562 -1.7489 0
M  V30 4969 H 468.158 -3.67282 -2.40834 0
M  V30 4970 H 468.764 -4.17454 -0.813178 0
M  V30 4971 N 467.08 -0.0183926 -1.57589 0
M  V30 4972 C 468.012 0.995557 -2.06449 0
M  V30 4973 C 469.025 1.29556 -0.985849 0
M  V30 4974 O 470.214 1.2621 -1.26227 0
M  V30 4975 C 467.314 2.32572 -2.46502 0
M  V30 4976 C 466.487 2.21245 -3.77319 0
M  V30 4977 C 465.546 3.37104 -4.04039 0
M  V30 4978 O 464.572 3.14468 -4.74445 0
M  V30 4979 N 465.774 4.60553 -3.53372 0
M  V30 4980 H 468.539 0.578746 -2.94059 0
M  V30 4981 H 466.1 0.168603 -1.6102 0
M  V30 4982 H 468.092 3.08887 -2.61478 0
M  V30 4983 H 466.662 2.65931 -1.64315 0
M  V30 4984 H 465.882 1.29723 -3.72244 0
M  V30 4985 H 467.17 2.10868 -4.63047 0
M  V30 4986 H 466.568 4.81839 -2.96391 0
M  V30 4987 H 465.125 5.34072 -3.73644 0
M  V30 4988 N 468.558 1.5553 0.254621 0
M  V30 4989 C 469.488 1.9268 1.31897 0
M  V30 4990 C 470.469 0.790797 1.506 0
M  V30 4991 O 471.654 1.05045 1.63337 0
M  V30 4992 C 468.784 2.21477 2.67517 0
M  V30 4993 C 467.738 3.37256 2.63519 0
M  V30 4994 C 467.064 3.51576 4.02862 0
M  V30 4995 C 468.364 4.73157 2.21179 0
M  V30 4996 H 470.058 2.81832 1.01051 0
M  V30 4997 H 467.604 1.35599 0.484662 0
M  V30 4998 H 469.557 2.46055 3.42104 0
M  V30 4999 H 468.281 1.29144 2.99982 0
M  V30 5000 H 466.94 3.12675 1.9139 0
M  V30 5001 H 466.588 2.56676 4.32581 0
M  V30 5002 H 466.288 4.2943 4.01078 0
M  V30 5003 H 467.812 3.78467 4.79161 0
M  V30 5004 H 469.226 4.97158 2.85494 0
M  V30 5005 H 467.623 5.54058 2.30521 0
M  V30 5006 H 468.693 4.70739 1.16332 0
M  V30 5007 O 470.075 -0.400303 1.5646 0
M  V30 5008 H 470.766 -1.05256 1.62607 0
M  V30 END ATOM
M  V30 BEGIN BOND
M  V30 END BOND
M  V30 END CTAB
M  END
$$$$
