drugbank_target|P14060 3 beta-hydroxysteroid dehydrogenase/Delta 5-->4-isomerase type 1 (DB00157; DB01108; DB01536; DB14538; DB14539; DB14540; DB14541; DB14542; DB14543; DB14544)
 OpenBabel12092119233D

  0  0  0     0  0            999 V3000
M  V30 BEGIN CTAB
M  V30 COUNTS 5993 6067 0 0 0
M  V30 BEGIN ATOM
M  V30 1 H -0.908 1.98254 -0.117106 0
M  V30 2 N 0 1.576 0 0
M  V30 3 C 0.933 2.03868 1.02534 0
M  V30 4 C 1.911 0.928543 1.3348 0
M  V30 5 O 3.095 1.19667 1.45644 0
M  V30 6 C 0.222 2.43627 2.35294 0
M  V30 7 C -0.732 3.65373 2.2001 0
M  V30 8 S 0.101 5.13292 1.52614 0
M  V30 9 C 1.257 5.56322 2.86805 0
M  V30 10 H 1.49 2.90518 0.631377 0
M  V30 11 H -0.977 1.52953 0.210867 0
M  V30 12 H 0.981 2.67203 3.11629 0
M  V30 13 H -0.358 1.57376 2.7183 0
M  V30 14 H -1.165 3.90944 3.18086 0
M  V30 15 H -1.563 3.418 1.51819 0
M  V30 16 H 0.729 5.58782 3.83104 0
M  V30 17 H 1.672 6.56266 2.65933 0
M  V30 18 H 2.08 4.83886 2.90714 0
M  V30 19 N 1.4781 -0.272755 1.55222 0
M  V30 20 C 2.7061 -1.02255 1.79865 0
M  V30 21 C 3.1211 -1.79924 0.572088 0
M  V30 22 O 2.4781 -1.76638 -0.458842 0
M  V30 23 C 2.5291 -1.98094 3.02392 0
M  V30 24 O 2.2501 -1.23572 4.20311 0
M  V30 25 C 3.7511 -2.84884 3.39641 0
M  V30 26 H 0.9711 -0.302057 0.599168 0
M  V30 27 H 3.5151 -0.303465 2.02236 0
M  V30 28 H 1.6701 -2.65465 2.82147 0
M  V30 29 H 2.0841 -1.88172 4.89583 0
M  V30 30 H 3.5581 -3.47927 4.28545 0
M  V30 31 H 4.0351 -3.54665 2.59055 0
M  V30 32 H 4.6411 -2.23003 3.62146 0
M  V30 33 N 2.9562 -1.48159 -0.537278 0
M  V30 34 C 4.2042 -1.55497 -1.29094 0
M  V30 35 C 4.5252 -0.227454 -1.93669 0
M  V30 36 O 3.7952 0.750386 -1.80959 0
M  V30 37 H 2.3752 -0.572832 -0.47945 0
M  V30 38 H 5.0372 -1.84579 -0.625818 0
M  V30 39 H 4.1332 -2.33216 -2.07405 0
M  V30 40 N 4.4343 0.785586 -1.36625 0
M  V30 41 C 5.6803 1.5452 -1.32269 0
M  V30 42 C 6.0353 1.92159 0.0962266 0
M  V30 43 O 5.3283 1.60158 1.05167 0
M  V30 44 C 5.5223 2.83007 -2.1827 0
M  V30 45 C 5.3513 2.57925 -3.68382 0
M  V30 46 C 4.1213 2.52752 -4.37544 0
M  V30 47 C 6.3193 2.26861 -4.61561 0
M  V30 48 N 4.3013 2.19608 -5.73276 0
M  V30 49 C 5.6723 2.03738 -5.85569 0
M  V30 50 C 7.7273 2.129 -4.50087 0
M  V30 51 C 6.4303 1.68065 -6.9939 0
M  V30 52 C 8.4563 1.78626 -5.63779 0
M  V30 53 C 7.8183 1.56353 -6.86828 0
M  V30 54 H 3.9173 0.566301 -0.539283 0
M  V30 55 H 6.5013 0.917736 -1.71714 0
M  V30 56 H 4.6723 3.43614 -1.81063 0
M  V30 57 H 6.4043 3.48775 -2.05275 0
M  V30 58 H 3.1593 2.6813 -3.90389 0
M  V30 59 H 3.5833 2.05771 -6.44971 0
M  V30 60 H 8.2253 2.28808 -3.55537 0
M  V30 61 H 5.9433 1.50895 -7.93887 0
M  V30 62 H 9.5293 1.68502 -5.56865 0
M  V30 63 H 8.4093 1.30223 -7.73312 0
M  V30 64 N 5.9124 1.20967 1.01018 0
M  V30 65 C 7.1374 1.0503 1.78839 0
M  V30 66 C 7.5624 -0.395752 1.8389 0
M  V30 67 O 6.9204 -1.28529 1.27867 0
M  V30 68 C 6.9684 1.64602 3.2084 0
M  V30 69 O 6.0724 0.887988 4.02726 0
M  V30 70 H 5.4134 0.369987 0.551367 0
M  V30 71 H 7.9434 1.60399 1.27018 0
M  V30 72 H 7.9534 1.68607 3.71532 0
M  V30 73 H 6.6284 2.69841 3.16479 0
M  V30 74 H 5.2054 0.922648 3.61305 0
M  V30 75 N 7.3905 -1.2043 1.01659 0
M  V30 76 C 8.6305 -1.91507 0.714456 0
M  V30 77 C 8.9945 -1.77073 -0.742237 0
M  V30 78 O 10.1955 -2.42631 -1.15688 0
M  V30 79 C 8.4665 -3.38795 1.13809 0
M  V30 80 S 10.0255 -4.28216 0.957925 0
M  V30 81 H 6.8435 -0.661571 0.260471 0
M  V30 82 H 9.4455 -1.45671 1.30384 0
M  V30 83 H 8.1495 -3.46822 2.19415 0
M  V30 84 H 7.6805 -3.89656 0.541474 0
M  V30 85 H 9.6955 -4.96007 -0.138531 0
M  V30 86 N 8.8686 -0.792821 -1.36206 0
M  V30 87 C 9.7986 -0.207853 -2.32573 0
M  V30 88 C 10.7796 0.659055 -1.56813 0
M  V30 89 O 11.9646 0.592176 -1.84951 0
M  V30 90 C 9.0946 0.655449 -3.41059 0
M  V30 91 C 8.0486 -0.111842 -4.27854 0
M  V30 92 C 7.3746 0.872274 -5.27537 0
M  V30 93 C 8.6746 -1.30299 -5.05786 0
M  V30 94 H 10.3686 -1.01294 -2.81744 0
M  V30 95 H 7.9146 -0.48854 -1.3546 0
M  V30 96 H 9.8676 1.07464 -4.07467 0
M  V30 97 H 8.5916 1.49328 -2.90463 0
M  V30 98 H 7.2506 -0.512053 -3.63006 0
M  V30 99 H 6.8986 1.70523 -4.73214 0
M  V30 100 H 6.5986 0.363291 -5.86476 0
M  V30 101 H 8.1226 1.28996 -5.96818 0
M  V30 102 H 9.5366 -0.959379 -5.65216 0
M  V30 103 H 7.9336 -1.7455 -5.74154 0
M  V30 104 H 9.0036 -2.09663 -4.37229 0
M  V30 105 N 10.3467 1.47872 -0.545128 0
M  V30 106 C 11.5927 2.02793 -0.0166104 0
M  V30 107 C 11.9257 1.41987 1.32489 0
M  V30 108 O 11.2007 0.571045 1.85928 0
M  V30 109 C 11.4837 3.59989 0.0893294 0
M  V30 110 C 11.3367 4.3125 -1.27841 0
M  V30 111 C 12.6557 4.32606 0.808724 0
M  V30 112 H 9.7747 0.736962 -0.00751035 0
M  V30 113 H 12.4167 1.76433 -0.705085 0
M  V30 114 H 10.5667 3.82579 0.675681 0
M  V30 115 H 12.2387 4.20035 -1.90704 0
M  V30 116 H 10.4817 3.92076 -1.85632 0
M  V30 117 H 11.1527 5.39736 -1.15713 0
M  V30 118 H 13.6287 4.14936 0.310992 0
M  V30 119 H 12.5047 5.42251 0.851782 0
M  V30 120 H 12.7657 4.00963 1.86229 0
M  V30 121 N 11.8248 0.280983 1.55075 0
M  V30 122 C 13.0528 -0.337293 2.04132 0
M  V30 123 C 13.4678 -1.4903 1.15912 0
M  V30 124 O 12.8248 -1.81606 0.180459 0
M  V30 125 C 12.8758 -0.812706 3.52246 0
M  V30 126 O 12.5968 0.294387 4.3711 0
M  V30 127 C 14.0978 -1.4982 4.17216 0
M  V30 128 H 11.3178 -0.0761638 0.666663 0
M  V30 129 H 13.8618 0.414787 2.00249 0
M  V30 130 H 12.0168 -1.51486 3.56554 0
M  V30 131 H 12.4308 -0.0721325 5.2445 0
M  V30 132 H 13.9048 -1.7822 5.22438 0
M  V30 133 H 14.3818 -2.43168 3.65741 0
M  V30 134 H 14.9878 -0.839742 4.16927 0
M  V30 135 N 13.3029 -1.57598 0.00835791 0
M  V30 136 C 14.5509 -1.90551 -0.6734 0
M  V30 137 C 14.8719 -0.883301 -1.73847 0
M  V30 138 O 14.1419 0.0781442 -1.95744 0
M  V30 139 H 12.7219 -0.703312 -0.251717 0
M  V30 140 H 15.3839 -1.94833 0.0512592 0
M  V30 141 H 14.4799 -2.9056 -1.13935 0
M  V30 142 N 14.781 0.264519 -1.55364 0
M  V30 143 C 15.744 1.31046 -1.88042 0
M  V30 144 C 16.744 1.41943 -0.755569 0
M  V30 145 O 17.934 1.40947 -1.02369 0
M  V30 146 C 15.066 2.69067 -2.09323 0
M  V30 147 H 16.259 1.03297 -2.81549 0
M  V30 148 H 13.812 0.502989 -1.47986 0
M  V30 149 H 14.547 3.01982 -1.18226 0
M  V30 150 H 14.332 2.62542 -2.91229 0
M  V30 151 H 15.822 3.44623 -2.35848 0
M  V30 152 N 16.2591 1.48442 0.529413 0
M  V30 153 C 17.5071 1.56179 1.28267 0
M  V30 154 C 17.8281 0.237721 1.93546 0
M  V30 155 O 17.0981 -0.740779 1.81354 0
M  V30 156 H 15.6781 0.575367 0.476405 0
M  V30 157 H 18.3401 1.84909 0.61602 0
M  V30 158 H 17.4361 2.34312 2.06165 0
M  V30 159 N 17.7372 -0.778329 1.37039 0
M  V30 160 C 18.9852 -1.53361 1.31623 0
M  V30 161 C 19.3062 -1.94739 -0.100831 0
M  V30 162 O 18.5762 -1.65797 -1.04347 0
M  V30 163 H 17.1562 -0.568794 0.484234 0
M  V30 164 H 19.8182 -0.926742 1.71457 0
M  V30 165 H 18.9142 -2.43606 1.95096 0
M  V30 166 N 19.2153 -1.21501 -1.00376 0
M  V30 167 C 20.4623 -1.03299 -1.74171 0
M  V30 168 C 20.7903 0.433326 -1.89612 0
M  V30 169 O 20.0453 1.33779 -1.42834 0
M  V30 170 C 20.3443 -1.67673 -3.15627 0
M  V30 171 C 20.0103 -3.17533 -3.2013 0
M  V30 172 C 18.6723 -3.58427 -3.21067 0
M  V30 173 C 21.0243 -4.13504 -3.17275 0
M  V30 174 C 18.3523 -4.93794 -3.16835 0
M  V30 175 C 20.7043 -5.48834 -3.14585 0
M  V30 176 C 19.3683 -5.89123 -3.13831 0
M  V30 177 H 18.6383 -0.377999 -0.637336 0
M  V30 178 H 21.2853 -1.51111 -1.17634 0
M  V30 179 H 19.5903 -1.12158 -3.75404 0
M  V30 180 H 21.2873 -1.51091 -3.71446 0
M  V30 181 H 17.8773 -2.84965 -3.20145 0
M  V30 182 H 22.0613 -3.82936 -3.15711 0
M  V30 183 H 17.3173 -5.24255 -3.1459 0
M  V30 184 H 21.4913 -6.22934 -3.1133 0
M  V30 185 H 19.1183 -6.93984 -3.10307 0
M  V30 186 N 20.6934 1.19889 -1.02296 0
M  V30 187 C 21.6234 2.25141 -0.619174 0
M  V30 188 C 22.6044 1.66051 0.368915 0
M  V30 189 O 23.7894 1.92546 0.252941 0
M  V30 190 C 20.9194 3.4728 0.0368783 0
M  V30 191 C 19.8734 4.19005 -0.872865 0
M  V30 192 C 19.1994 5.34637 -0.0822402 0
M  V30 193 C 20.4994 4.74452 -2.18387 0
M  V30 194 H 22.1934 2.59171 -1.49903 0
M  V30 195 H 19.7394 1.24579 -0.722222 0
M  V30 196 H 21.6924 4.20098 0.330958 0
M  V30 197 H 20.4164 3.12433 0.95149 0
M  V30 198 H 19.0754 3.48061 -1.15105 0
M  V30 199 H 18.7234 4.96034 0.83422 0
M  V30 200 H 18.4234 5.83557 -0.688149 0
M  V30 201 H 19.9474 6.10255 0.205238 0
M  V30 202 H 21.3614 5.39055 -1.95172 0
M  V30 203 H 19.7584 5.33834 -2.74119 0
M  V30 204 H 20.8284 3.92844 -2.84257 0
M  V30 205 N 22.1715 0.800033 1.35784 0
M  V30 206 C 23.4195 0.376597 1.9856 0
M  V30 207 C 23.7405 -1.05812 1.63795 0
M  V30 208 O 23.0105 -1.73103 0.917171 0
M  V30 209 H 21.5905 0.136261 0.734467 0
M  V30 210 H 24.2525 1.02442 1.65806 0
M  V30 211 H 23.3485 0.477002 3.08433 0
M  V30 212 N 23.6496 -1.47581 0.552962 0
M  V30 213 C 24.5816 -2.27997 -0.234533 0
M  V30 214 C 25.5946 -1.36753 -0.883321 0
M  V30 215 O 26.7836 -1.61612 -0.757889 0
M  V30 216 C 23.8836 -3.10879 -1.34935 0
M  V30 217 C 23.0566 -4.30056 -0.798158 0
M  V30 218 C 22.1156 -4.94567 -1.79694 0
M  V30 219 O 21.1416 -5.53087 -1.34474 0
M  V30 220 N 22.3436 -4.88878 -3.13015 0
M  V30 221 H 25.1086 -2.96222 0.455255 0
M  V30 222 H 22.6696 -1.57163 0.388761 0
M  V30 223 H 24.6616 -3.50903 -2.01616 0
M  V30 224 H 23.2316 -2.44924 -1.94244 0
M  V30 225 H 22.4516 -3.94174 0.0453079 0
M  V30 226 H 23.7396 -5.07152 -0.409173 0
M  V30 227 H 23.1376 -4.42526 -3.52402 0
M  V30 228 H 21.6946 -5.32934 -3.75266 0
M  V30 229 N 25.1277 -0.289203 -1.54924 0
M  V30 230 C 26.5437 0.0645403 -1.59469 0
M  V30 231 C 26.7437 1.53419 -1.30632 0
M  V30 232 O 25.7997 2.2852 -1.074 0
M  V30 233 C 27.1127 -0.32278 -2.98963 0
M  V30 234 C 28.6607 -0.270564 -3.11828 0
M  V30 235 C 29.1357 -0.632532 -4.53611 0
M  V30 236 N 30.6267 -0.584617 -4.59496 0
M  V30 237 C 31.3617 -0.837314 -5.67254 0
M  V30 238 N 30.8577 -1.15536 -6.83098 0
M  V30 239 N 32.6507 -0.765166 -5.56868 0
M  V30 240 H 24.8017 -1.24714 -1.71931 0
M  V30 241 H 27.0647 -0.504809 -0.802416 0
M  V30 242 H 26.7707 -1.34541 -3.24948 0
M  V30 243 H 26.6447 0.32944 -3.75759 0
M  V30 244 H 29.0317 0.742805 -2.85598 0
M  V30 245 H 29.1127 -0.957242 -2.37214 0
M  V30 246 H 28.7567 -1.64365 -4.80569 0
M  V30 247 H 28.6867 0.07609 -5.26545 0
M  V30 248 H 31.1777 -0.349248 -3.76283 0
M  V30 249 H 31.4907 -1.33447 -7.61191 0
M  V30 250 H 29.8357 -1.19328 -6.84679 0
M  V30 251 H 33.0267 -0.516432 -4.65243 0
M  V30 252 H 33.1997 -0.965477 -6.40767 0
M  V30 253 N 26.6058 1.57591 -0.0167156 0
M  V30 254 C 27.8548 1.90461 0.663877 0
M  V30 255 C 28.1678 0.893515 1.73999 0
M  V30 256 O 29.3738 1.11302 2.47637 0
M  V30 257 C 27.8298 3.38155 1.23204 0
M  V30 258 C 27.4378 4.47597 0.189866 0
M  V30 259 C 29.1818 3.80111 1.88986 0
M  V30 260 C 27.0888 5.86379 0.768964 0
M  V30 261 H 26.0188 0.710738 0.251729 0
M  V30 262 H 28.6698 1.83326 -0.0799926 0
M  V30 263 H 27.0518 3.40182 2.02712 0
M  V30 264 H 28.2258 4.57112 -0.581846 0
M  V30 265 H 26.5408 4.14766 -0.368475 0
M  V30 266 H 29.1378 4.81145 2.33247 0
M  V30 267 H 29.4808 3.14511 2.72743 0
M  V30 268 H 30.0138 3.80454 1.16187 0
M  V30 269 H 26.7528 6.55493 -0.0301957 0
M  V30 270 H 26.2728 5.80496 1.50945 0
M  V30 271 H 27.9518 6.34563 1.26251 0
M  V30 272 N 28.0839 -0.256276 1.55502 0
M  V30 273 C 29.3329 -0.983486 1.76098 0
M  V30 274 C 29.6459 -1.86837 0.578896 0
M  V30 275 O 30.8519 -2.63163 0.667648 0
M  V30 276 C 29.3079 -1.79868 3.1173 0
M  V30 277 C 28.9159 -0.961648 4.37557 0
M  V30 278 C 30.6599 -2.51919 3.41668 0
M  V30 279 C 28.5669 -1.77219 5.64223 0
M  V30 280 H 27.4969 -0.370936 0.656447 0
M  V30 281 H 30.1479 -0.238492 1.81944 0
M  V30 282 H 28.5299 -2.58527 2.99966 0
M  V30 283 H 29.7039 -0.218048 4.60284 0
M  V30 284 H 28.0189 -0.354913 4.14885 0
M  V30 285 H 30.6159 -3.12998 4.33516 0
M  V30 286 H 30.9589 -3.23059 2.62562 0
M  V30 287 H 31.4919 -1.80278 3.54605 0
M  V30 288 H 28.2309 -1.10471 6.46124 0
M  V30 289 H 27.7509 -2.49132 5.45613 0
M  V30 290 H 29.4299 -2.34169 6.03137 0
M  V30 291 N 29.562 -1.4872 -0.521534 0
M  V30 292 C 30.978 -1.35028 -0.850855 0
M  V30 293 C 31.178 -0.367712 -1.98116 0
M  V30 294 O 30.234 0.208037 -2.51642 0
M  V30 295 C 31.547 -2.75263 -1.21041 0
M  V30 296 C 33.095 -2.83813 -1.31981 0
M  V30 297 C 33.57 -4.24769 -1.71276 0
M  V30 298 N 35.061 -4.27482 -1.78363 0
M  V30 299 C 35.796 -5.33494 -2.1017 0
M  V30 300 N 35.292 -6.49775 -2.40343 0
M  V30 301 N 37.085 -5.20894 -2.11248 0
M  V30 302 H 29.236 -2.11214 0.22413 0
M  V30 303 H 31.499 -0.947252 0.0376439 0
M  V30 304 H 31.205 -3.48765 -0.453415 0
M  V30 305 H 31.079 -3.09327 -2.15863 0
M  V30 306 H 33.466 -2.10561 -2.06756 0
M  V30 307 H 33.547 -2.53358 -0.352596 0
M  V30 308 H 33.191 -4.9854 -0.970588 0
M  V30 309 H 33.121 -4.52673 -2.69062 0
M  V30 310 H 35.612 -3.43611 -1.57288 0
M  V30 311 H 35.925 -7.26402 -2.63743 0
M  V30 312 H 34.27 -6.53035 -2.37844 0
M  V30 313 H 37.461 -4.29065 -1.87139 0
M  V30 314 H 37.634 -6.03612 -2.35704 0
M  V30 315 N 31.0401 0.771051 -1.3745 0
M  V30 316 C 31.9701 1.89827 -1.3597 0
M  V30 317 C 32.9511 1.68562 -0.228216 0
M  V30 318 O 34.1361 1.8941 -0.428675 0
M  V30 319 C 31.2661 3.2712 -1.16662 0
M  V30 320 C 30.2201 3.6295 -2.2683 0
M  V30 321 C 29.5461 4.98791 -1.92644 0
M  V30 322 C 30.8461 3.69627 -3.69017 0
M  V30 323 H 32.5401 1.91323 -2.30295 0
M  V30 324 H 30.0861 0.919082 -1.10855 0
M  V30 325 H 32.0391 4.05615 -1.14256 0
M  V30 326 H 30.7631 3.26059 -0.187926 0
M  V30 327 H 29.4221 2.86763 -2.28392 0
M  V30 328 H 29.0701 4.94271 -0.933021 0
M  V30 329 H 28.7701 5.23733 -2.66416 0
M  V30 330 H 30.2941 5.79685 -1.91826 0
M  V30 331 H 31.7081 4.38273 -3.69581 0
M  V30 332 H 30.1051 4.06067 -4.41848 0
M  V30 333 H 31.1751 2.70273 -4.02592 0
M  V30 334 N 32.5182 1.22032 0.997298 0
M  V30 335 C 33.4482 1.01065 2.10495 0
M  V30 336 C 34.4292 -0.0669542 1.69968 0
M  V30 337 O 35.6142 0.0943987 1.9397 0
M  V30 338 C 32.7442 0.582874 3.42374 0
M  V30 339 C 31.6982 1.60592 3.96729 0
M  V30 340 C 31.0242 1.03412 5.24605 0
M  V30 341 C 32.3242 2.99478 4.27914 0
M  V30 342 H 34.0182 1.93708 2.28292 0
M  V30 343 H 31.5642 0.932761 1.09707 0
M  V30 344 H 33.5172 0.423332 4.19268 0
M  V30 345 H 32.2412 -0.379213 3.24391 0
M  V30 346 H 30.9002 1.75316 3.21963 0
M  V30 347 H 30.5482 0.063518 5.0296 0
M  V30 348 H 30.2482 1.71754 5.61938 0
M  V30 349 H 31.7722 0.886066 6.04137 0
M  V30 350 H 33.1862 2.88153 4.95622 0
M  V30 351 H 31.5832 3.64903 4.76409 0
M  V30 352 H 32.6532 3.49742 3.3587 0
M  V30 353 N 33.9963 -1.19345 1.0293 0
M  V30 354 C 35.2423 -1.89318 0.727083 0
M  V30 355 C 35.5753 -1.79446 -0.742483 0
M  V30 356 O 34.8503 -1.1871 -1.54072 0
M  V30 357 C 35.1333 -3.40238 1.17942 0
M  V30 358 C 34.9863 -3.58979 2.71024 0
M  V30 359 C 36.3053 -4.33479 0.760548 0
M  V30 360 H 33.4243 -0.687475 0.265606 0
M  V30 361 H 36.0663 -1.40477 1.2793 0
M  V30 362 H 34.2163 -3.81964 0.709608 0
M  V30 363 H 35.8883 -3.26421 3.25955 0
M  V30 364 H 34.1313 -3.02018 3.11396 0
M  V30 365 H 34.8023 -4.64823 2.9773 0
M  V30 366 H 37.2783 -3.99469 1.16464 0
M  V30 367 H 36.1543 -5.37664 1.10493 0
M  V30 368 H 36.4153 -4.40813 -0.337063 0
M  V30 369 N 35.4744 -0.807222 -1.35358 0
M  V30 370 C 36.4214 -0.216037 -2.29787 0
M  V30 371 C 37.3914 0.650278 -1.52842 0
M  V30 372 O 38.5764 0.595227 -1.81278 0
M  V30 373 C 35.7164 0.628893 -3.39321 0
M  V30 374 C 34.8294 -0.257927 -4.31229 0
M  V30 375 C 33.9644 0.595069 -5.27856 0
M  V30 376 C 33.0034 -0.292111 -6.11403 0
M  V30 377 N 32.1404 0.520895 -7.00165 0
M  V30 378 H 36.9804 -1.02671 -2.79755 0
M  V30 379 H 34.5174 -0.517839 -1.37684 0
M  V30 380 H 36.4754 1.13393 -4.01494 0
M  V30 381 H 35.1054 1.40482 -2.90628 0
M  V30 382 H 34.1574 -0.881076 -3.70056 0
M  V30 383 H 35.4694 -0.940759 -4.89848 0
M  V30 384 H 34.6234 1.16522 -5.95405 0
M  V30 385 H 33.3624 1.31146 -4.69736 0
M  V30 386 H 32.3674 -0.874525 -5.428 0
M  V30 387 H 33.5924 -1.00638 -6.71602 0
M  V30 388 H 31.5384 1.22125 -6.44532 0
M  V30 389 H 31.4554 -0.103877 -7.55929 0
M  V30 390 H 32.7234 1.0743 -7.72062 0
M  V30 391 N 36.9525 1.47285 -0.560781 0
M  V30 392 C 37.8625 2.33846 0.187954 0
M  V30 393 C 38.8785 1.48412 0.908293 0
M  V30 394 O 40.0545 1.81332 0.876388 0
M  V30 395 C 37.1195 3.25178 1.2025 0
M  V30 396 C 36.1805 4.26504 0.489208 0
M  V30 397 C 35.4135 5.13472 1.45542 0
M  V30 398 O 35.6365 5.02959 2.6905 0
M  V30 399 O 34.5705 5.93902 0.977963 0
M  V30 400 H 38.3965 2.99177 -0.522177 0
M  V30 401 H 35.9815 1.45903 -0.321364 0
M  V30 402 H 37.8635 3.81584 1.78805 0
M  V30 403 H 36.5385 2.6247 1.89449 0
M  V30 404 H 35.4455 3.73847 -0.137627 0
M  V30 405 H 36.7785 4.91935 -0.161399 0
M  V30 406 N 38.4306 0.297415 1.54768 0
M  V30 407 C 39.3776 -0.580276 2.23386 0
M  V30 408 C 40.3476 -1.13238 1.21517 0
M  V30 409 O 41.5326 -1.17757 1.50126 0
M  V30 410 C 38.6726 -1.74801 2.97555 0
M  V30 411 C 37.7856 -1.22764 4.1419 0
M  V30 412 C 36.9206 -2.35895 4.75949 0
M  V30 413 C 35.9596 -1.80974 5.84735 0
M  V30 414 N 35.0966 -2.87664 6.40464 0
M  V30 415 H 39.9366 0.0114833 2.97998 0
M  V30 416 H 37.4736 0.0174361 1.4709 0
M  V30 417 H 39.4316 -2.43475 3.38786 0
M  V30 418 H 38.0616 -2.31145 2.25326 0
M  V30 419 H 37.1136 -0.433271 3.77924 0
M  V30 420 H 38.4256 -0.785551 4.92575 0
M  V30 421 H 37.5796 -3.12523 5.20014 0
M  V30 422 H 36.3186 -2.83429 3.96887 0
M  V30 423 H 35.3236 -1.02834 5.40097 0
M  V30 424 H 36.5486 -1.34348 6.65678 0
M  V30 425 H 34.4946 -3.34538 5.64287 0
M  V30 426 H 34.4116 -2.4794 7.14186 0
M  V30 427 H 35.6796 -3.642 6.89187 0
M  V30 428 N 39.9087 -1.5758 0.0250728 0
M  V30 429 C 40.8187 -2.1343 -0.973905 0
M  V30 430 C 41.8347 -1.08556 -1.35984 0
M  V30 431 O 43.0107 -1.40592 -1.44207 0
M  V30 432 C 40.0757 -2.64703 -2.23904 0
M  V30 433 C 39.1367 -3.84276 -1.91391 0
M  V30 434 C 38.3697 -4.33095 -3.11873 0
M  V30 435 O 38.5927 -3.81107 -4.24398 0
M  V30 436 O 37.5267 -5.24984 -2.94406 0
M  V30 437 H 41.3527 -2.99057 -0.529036 0
M  V30 438 H 38.9377 -1.48118 -0.195288 0
M  V30 439 H 40.8197 -2.97769 -2.98181 0
M  V30 440 H 39.4947 -1.82161 -2.6758 0
M  V30 441 H 38.4017 -3.56143 -1.14511 0
M  V30 442 H 39.7347 -4.67968 -1.52534 0
M  V30 443 N 41.3868 0.248026 -1.55636 0
M  V30 444 C 42.3168 1.31079 -1.93237 0
M  V30 445 C 43.2978 1.50264 -0.797174 0
M  V30 446 O 44.4828 1.62891 -1.05737 0
M  V30 447 C 41.6128 2.66575 -2.22609 0
M  V30 448 C 40.5668 2.62087 -3.3837 0
M  V30 449 C 39.8928 4.01369 -3.53281 0
M  V30 450 C 41.1928 2.19171 -4.7409 0
M  V30 451 H 42.8868 0.998556 -2.82257 0
M  V30 452 H 40.4328 0.47891 -1.35803 0
M  V30 453 H 42.3858 3.41057 -2.47503 0
M  V30 454 H 41.1098 2.99432 -1.30414 0
M  V30 455 H 39.7688 1.90063 -3.13483 0
M  V30 456 H 39.4168 4.31489 -2.58508 0
M  V30 457 H 39.1168 3.99254 -4.31127 0
M  V30 458 H 40.6408 4.77552 -3.80495 0
M  V30 459 H 42.0548 2.83384 -4.98363 0
M  V30 460 H 40.4518 2.2817 -5.5503 0
M  V30 461 H 41.5218 1.14336 -4.71227 0
M  V30 462 N 42.8649 1.48995 0.513639 0
M  V30 463 C 43.8119 1.6473 1.61656 0
M  V30 464 C 44.7819 0.488984 1.58739 0
M  V30 465 O 45.9669 0.714478 1.76918 0
M  V30 466 C 43.1069 1.7082 2.99858 0
M  V30 467 C 42.2199 2.9787 3.12885 0
M  V30 468 C 41.3549 2.95017 4.41744 0
M  V30 469 C 40.3939 4.16702 4.48359 0
M  V30 470 N 39.5309 4.11832 5.68629 0
M  V30 471 H 44.3709 2.58909 1.47547 0
M  V30 472 H 41.9079 1.28382 0.71808 0
M  V30 473 H 43.8659 1.72331 3.79944 0
M  V30 474 H 42.4959 0.801181 3.12699 0
M  V30 475 H 41.5479 3.06029 2.25944 0
M  V30 476 H 42.8599 3.8786 3.13633 0
M  V30 477 H 42.0139 2.95021 5.30139 0
M  V30 478 H 40.7529 2.02784 4.43542 0
M  V30 479 H 39.7579 4.16955 3.58369 0
M  V30 480 H 40.9829 5.10113 4.48287 0
M  V30 481 H 38.9289 3.22428 5.71293 0
M  V30 482 H 38.8459 4.95543 5.7094 0
M  V30 483 H 40.1139 4.1592 6.59266 0
M  V30 484 N 44.343 -0.763751 1.37857 0
M  V30 485 C 45.253 -1.90817 1.36478 0
M  V30 486 C 46.269 -1.71997 0.263248 0
M  V30 487 O 47.445 -1.95095 0.499979 0
M  V30 488 C 44.51 -3.2605 1.17864 0
M  V30 489 C 43.571 -3.57467 2.3773 0
M  V30 490 C 42.804 -4.86249 2.19995 0
M  V30 491 O 43.027 -5.57884 1.18836 0
M  V30 492 O 41.961 -5.16911 3.08361 0
M  V30 493 H 45.787 -1.94933 2.32884 0
M  V30 494 H 43.372 -0.907619 1.1867 0
M  V30 495 H 45.254 -4.06924 1.09504 0
M  V30 496 H 43.929 -3.22769 0.245372 0
M  V30 497 H 42.836 -2.76796 2.51664 0
M  V30 498 H 44.169 -3.655 3.29652 0
M  V30 499 N 45.8211 -1.22559 -0.990812 0
M  V30 500 C 47.0701 -1.04553 -1.72486 0
M  V30 501 C 47.3831 0.419349 -1.91052 0
M  V30 502 O 48.5891 0.719121 -2.61803 0
M  V30 503 C 47.0451 -1.82231 -3.10355 0
M  V30 504 C 46.6531 -3.32981 -2.99713 0
M  V30 505 C 48.3971 -1.7268 -3.87791 0
M  V30 506 C 46.3041 -4.03091 -4.32748 0
M  V30 507 H 45.2341 -0.387614 -0.646739 0
M  V30 508 H 47.8851 -1.46429 -1.10593 0
M  V30 509 H 46.2671 -1.33155 -3.72942 0
M  V30 510 H 47.4411 -3.89466 -2.46278 0
M  V30 511 H 45.7561 -3.43231 -2.35758 0
M  V30 512 H 48.3531 -2.22381 -4.86262 0
M  V30 513 H 48.6961 -0.687607 -4.10582 0
M  V30 514 H 49.2291 -2.1931 -3.31885 0
M  V30 515 H 45.9681 -5.07273 -4.15156 0
M  V30 516 H 45.4881 -3.51394 -4.86089 0
M  V30 517 H 47.1671 -4.08804 -5.01486 0
M  V30 518 N 47.2992 1.18797 -1.03562 0
M  V30 519 C 48.7152 1.40671 -0.753917 0
M  V30 520 C 48.9152 1.9043 0.658686 0
M  V30 521 O 47.9712 2.08538 1.42366 0
M  V30 522 C 49.2842 2.41192 -1.79574 0
M  V30 523 C 50.8322 2.54928 -1.81606 0
M  V30 524 C 51.3072 3.58709 -2.84766 0
M  V30 525 N 52.7982 3.66212 -2.83625 0
M  V30 526 C 53.5332 4.46225 -3.60098 0
M  V30 527 N 53.0292 5.29888 -4.46308 0
M  V30 528 N 54.8222 4.40939 -3.4861 0
M  V30 529 H 46.9732 0.848221 -1.94728 0
M  V30 530 H 49.2362 0.435081 -0.842264 0
M  V30 531 H 48.9422 2.11669 -2.80872 0
M  V30 532 H 48.8162 3.40467 -1.62365 0
M  V30 533 H 51.2032 2.83771 -0.809817 0
M  V30 534 H 51.2842 1.55784 -2.02891 0
M  V30 535 H 50.9282 3.30607 -3.85566 0
M  V30 536 H 50.8582 4.57519 -2.60737 0
M  V30 537 H 53.3492 3.06466 -2.21105 0
M  V30 538 H 53.6622 5.88078 -5.01382 0
M  V30 539 H 52.0072 5.29326 -4.50377 0
M  V30 540 H 55.1982 3.74624 -2.80668 0
M  V30 541 H 55.3712 5.03056 -4.08459 0
M  V30 542 N 48.7773 0.814389 1.34928 0
M  V30 543 C 50.0233 0.399013 1.98836 0
M  V30 544 C 50.3563 -1.03314 1.64438 0
M  V30 545 O 49.6313 -1.71811 0.911659 0
M  V30 546 C 49.9143 0.591629 3.55207 0
M  V30 547 C 49.7673 2.06928 3.99376 0
M  V30 548 C 51.0863 0.022199 4.40094 0
M  V30 549 H 48.2053 0.146451 0.722303 0
M  V30 550 H 50.8473 1.02537 1.59957 0
M  V30 551 H 48.9973 0.0584441 3.88456 0
M  V30 552 H 50.6693 2.66544 3.76499 0
M  V30 553 H 48.9123 2.56287 3.49999 0
M  V30 554 H 49.5833 2.1549 5.08201 0
M  V30 555 H 52.0593 0.477643 4.13349 0
M  V30 556 H 50.9353 0.186832 5.48582 0
M  V30 557 H 51.1963 -1.07215 4.28902 0
M  V30 558 N 50.2554 -1.46986 0.568584 0
M  V30 559 C 51.1854 -2.32946 -0.160753 0
M  V30 560 C 52.1664 -1.44487 -0.897631 0
M  V30 561 O 53.3514 -1.73327 -0.875867 0
M  V30 562 C 50.4814 -3.26494 -1.18403 0
M  V30 563 C 49.4354 -4.24282 -0.562895 0
M  V30 564 C 48.7614 -5.07236 -1.69163 0
M  V30 565 C 50.0614 -5.19989 0.490761 0
M  V30 566 H 51.7554 -2.94175 0.556916 0
M  V30 567 H 49.3014 -1.4146 0.26927 0
M  V30 568 H 51.2544 -3.85477 -1.70251 0
M  V30 569 H 49.9784 -2.63343 -1.93179 0
M  V30 570 H 48.6374 -3.66541 -0.0656164 0
M  V30 571 H 48.2854 -4.4048 -2.42871 0
M  V30 572 H 47.9854 -5.7345 -1.28174 0
M  V30 573 H 49.5094 -5.6908 -2.21314 0
M  V30 574 H 50.9234 -5.73271 0.0579047 0
M  V30 575 H 49.3204 -5.94469 0.820165 0
M  V30 576 H 50.3904 -4.64777 1.3824 0
M  V30 577 N 51.7335 -0.305618 -1.54608 0
M  V30 578 C 53.0105 0.355652 -1.92339 0
M  V30 579 C 53.3905 1.71324 -1.23335 0
M  V30 580 O 52.7385 2.25473 -0.370702 0
M  V30 581 C 52.9485 0.46572 -3.45879 0
M  V30 582 C 54.2965 0.734426 -4.182 0
M  V30 583 O 55.3205 0.54935 -3.51938 0
M  V30 584 O 54.1795 1.09024 -5.35515 0
M  V30 585 H 51.2735 0.199666 -0.802535 0
M  V30 586 H 53.8195 -0.354017 -1.65966 0
M  V30 587 H 52.5915 -0.488461 -3.88239 0
M  V30 588 H 52.2145 1.22367 -3.78301 0
M  V30 589 N 53.2116 1.57565 -0.0334293 0
M  V30 590 C 54.1586 2.10478 0.946981 0
M  V30 591 C 55.1286 1.00787 1.32027 0
M  V30 592 O 56.3136 1.28232 1.41284 0
M  V30 593 C 53.4536 2.63994 2.22263 0
M  V30 594 C 52.5666 3.87709 1.90541 0
M  V30 595 C 51.7016 4.29604 3.12433 0
M  V30 596 C 50.7406 5.46065 2.76549 0
M  V30 597 N 49.8776 5.83096 3.9108 0
M  V30 598 H 54.7176 2.93963 0.488846 0
M  V30 599 H 52.2546 1.45296 0.22969 0
M  V30 600 H 54.2126 2.93114 2.96884 0
M  V30 601 H 52.8426 1.83333 2.65685 0
M  V30 602 H 51.8946 3.65291 1.06144 0
M  V30 603 H 53.2066 4.72403 1.60116 0
M  V30 604 H 52.3606 4.60182 3.9537 0
M  V30 605 H 51.0996 3.43685 3.46023 0
M  V30 606 H 50.1046 5.15176 1.92026 0
M  V30 607 H 51.3296 6.33685 2.44171 0
M  V30 608 H 49.2756 5.00132 4.24504 0
M  V30 609 H 49.1926 6.6244 3.64293 0
M  V30 610 H 50.4606 6.18282 4.74708 0
M  V30 611 N 54.6897 -0.239769 1.55765 0
M  V30 612 C 55.6527 -1.28038 1.90103 0
M  V30 613 C 56.6527 -1.40723 0.778055 0
M  V30 614 O 57.8427 -1.39301 1.04599 0
M  V30 615 C 54.9747 -2.65702 2.13577 0
M  V30 616 H 56.1677 -0.988048 2.83157 0
M  V30 617 H 53.7207 -0.479382 1.48767 0
M  V30 618 H 54.4557 -3.00063 1.23015 0
M  V30 619 H 54.2407 -2.57875 2.95369 0
M  V30 620 H 55.7307 -3.40828 2.41301 0
M  V30 621 N 56.1678 -1.49265 -0.50573 0
M  V30 622 C 57.4148 -1.58513 -1.26015 0
M  V30 623 C 57.7428 -0.26972 -1.92621 0
M  V30 624 O 56.9978 0.741997 -1.81088 0
M  V30 625 C 57.2968 -2.69008 -2.35308 0
M  V30 626 C 56.9628 -4.10662 -1.86192 0
M  V30 627 C 55.6248 -4.49212 -1.72516 0
M  V30 628 C 57.9768 -4.99336 -1.49375 0
M  V30 629 C 55.3048 -5.74214 -1.20394 0
M  V30 630 C 57.6568 -6.24852 -0.987072 0
M  V30 631 C 56.3208 -6.62236 -0.836669 0
M  V30 632 H 55.5908 -0.580041 -0.461122 0
M  V30 633 H 58.2378 -1.83078 -0.561665 0
M  V30 634 H 56.5428 -2.38396 -3.10926 0
M  V30 635 H 58.2398 -2.73373 -2.93374 0
M  V30 636 H 54.8298 -3.8023 -1.97795 0
M  V30 637 H 59.0138 -4.70212 -1.5879 0
M  V30 638 H 54.2698 -6.01883 -1.07458 0
M  V30 639 H 58.4438 -6.92944 -0.692983 0
M  V30 640 H 56.0708 -7.58979 -0.430607 0
M  V30 641 N 57.6459 0.756429 -1.3826 0
M  V30 642 C 58.8939 1.51248 -1.34047 0
M  V30 643 C 59.2149 1.94875 0.0698372 0
M  V30 644 O 58.4849 1.67436 1.01696 0
M  V30 645 H 57.0649 0.561018 -0.493222 0
M  V30 646 H 59.7269 0.899347 -1.7291 0
M  V30 647 H 58.8229 2.40472 -1.98947 0
M  V30 648 N 59.124 1.23083 0.984299 0
M  V30 649 C 60.535 1.05609 1.5396 0
M  V30 650 C 60.886 -0.377793 1.92528 0
M  V30 651 O 60.011 -1.26398 1.75649 0
M  V30 652 C 60.606 1.91087 2.7977 0
M  V30 653 C 59.165 1.77885 3.31713 0
M  V30 654 C 58.312 1.87028 2.04733 0
M  V30 655 H 61.263 1.36802 0.804419 0
M  V30 656 H 61.284 1.43336 3.5247 0
M  V30 657 H 60.796 2.9544 2.51668 0
M  V30 658 H 58.897 0.762995 3.64704 0
M  V30 659 H 59.01 2.61047 4.01735 0
M  V30 660 H 57.374 1.30565 2.18689 0
M  V30 661 H 58.157 2.92929 1.79017 0
M  V30 662 N 60.6021 -1.18246 1.0419 0
M  V30 663 C 61.5121 -2.25574 0.644476 0
M  V30 664 C 62.5281 -1.70845 -0.329826 0
M  V30 665 O 63.7041 -2.00554 -0.184443 0
M  V30 666 C 60.7691 -3.46697 0.014877 0
M  V30 667 C 59.8301 -4.16554 1.03834 0
M  V30 668 C 59.0631 -5.31894 0.438692 0
M  V30 669 O 59.2861 -5.65385 -0.754752 0
M  V30 670 O 58.2201 -5.90459 1.168 0
M  V30 671 H 62.0461 -2.61836 1.53869 0
M  V30 672 H 59.6311 -1.25352 0.812854 0
M  V30 673 H 61.5131 -4.20062 -0.335538 0
M  V30 674 H 60.1881 -3.12255 -0.853138 0
M  V30 675 H 59.0951 -3.45251 1.44057 0
M  V30 676 H 60.4281 -4.54998 1.87716 0
M  V30 677 N 62.0802 -0.821533 -1.34494 0
M  V30 678 C 63.0102 -0.257138 -2.3208 0
M  V30 679 C 63.9912 0.625645 -1.58176 0
M  V30 680 O 65.1762 0.552811 -1.86166 0
M  V30 681 C 62.3062 0.582958 -3.42372 0
M  V30 682 C 61.2602 -0.202571 -4.2752 0
M  V30 683 C 60.5862 0.760179 -5.29269 0
M  V30 684 C 61.8862 -1.40998 -5.02908 0
M  V30 685 H 63.5802 -1.07247 -2.79532 0
M  V30 686 H 61.1262 -0.517163 -1.34393 0
M  V30 687 H 63.0792 0.987972 -4.09655 0
M  V30 688 H 61.8032 1.43133 -2.93565 0
M  V30 689 H 60.4622 -0.588936 -3.61838 0
M  V30 690 H 60.1102 1.60447 -4.76724 0
M  V30 691 H 59.8102 0.238809 -5.87115 0
M  V30 692 H 61.3342 1.16308 -5.9942 0
M  V30 693 H 62.7482 -1.07905 -5.63054 0
M  V30 694 H 61.1452 -1.86689 -5.70322 0
M  V30 695 H 62.2152 -2.1889 -4.32684 0
M  V30 696 N 63.5583 1.46682 -0.576371 0
M  V30 697 C 64.9743 1.57822 -0.237562 0
M  V30 698 C 65.1743 1.57237 1.26011 0
M  V30 699 O 64.2303 1.48596 2.04146 0
M  V30 700 C 65.5433 2.87499 -0.881168 0
M  V30 701 C 67.0913 3.01119 -0.85417 0
M  V30 702 C 67.5663 4.33524 -1.4772 0
M  V30 703 N 69.0573 4.40207 -1.44125 0
M  V30 704 C 69.7923 5.4126 -1.89276 0
M  V30 705 N 69.2883 6.49021 -2.42371 0
M  V30 706 N 71.0813 5.32422 -1.80231 0
M  V30 707 H 63.2323 1.45306 -1.54919 0
M  V30 708 H 65.4953 0.692733 -0.647167 0
M  V30 709 H 65.2013 2.9372 -1.93447 0
M  V30 710 H 65.0753 3.75224 -0.385592 0
M  V30 711 H 67.4623 2.94485 0.190491 0
M  V30 712 H 67.5433 2.14887 -1.3877 0
M  V30 713 H 67.1873 4.40916 -2.52103 0
M  V30 714 H 67.1173 5.1852 -0.918947 0
M  V30 715 H 69.6083 3.62931 -1.05307 0
M  V30 716 H 69.9213 7.2233 -2.74698 0
M  V30 717 H 68.2663 6.49858 -2.46393 0
M  V30 718 H 71.4573 4.47137 -1.38514 0
M  V30 719 H 71.6303 6.11034 -2.15735 0
M  V30 720 N 65.0364 0.313813 1.54444 0
M  V30 721 C 65.9464 -0.565714 2.27677 0
M  V30 722 C 66.9624 -1.13754 1.31666 0
M  V30 723 O 68.1384 -1.15959 1.64668 0
M  V30 724 C 65.2034 -1.71528 3.01296 0
M  V30 725 C 64.2644 -1.17624 4.12872 0
M  V30 726 C 63.4974 -2.27102 4.8297 0
M  V30 727 O 63.7204 -3.47256 4.52514 0
M  V30 728 O 62.6544 -1.9307 5.70094 0
M  V30 729 H 66.4804 0.0287296 3.03686 0
M  V30 730 H 64.0654 0.0798312 1.49187 0
M  V30 731 H 65.9474 -2.38476 3.4743 0
M  V30 732 H 64.6224 -2.29608 2.2817 0
M  V30 733 H 63.5294 -0.472124 3.71109 0
M  V30 734 H 64.8624 -0.640695 4.88012 0
M  V30 735 N 66.5145 -1.57545 0.0417849 0
M  V30 736 C 67.4245 -2.14451 -0.951213 0
M  V30 737 C 68.4405 -1.09992 -1.34825 0
M  V30 738 O 69.6165 -1.42114 -1.42708 0
M  V30 739 C 66.6815 -2.67063 -2.21084 0
M  V30 740 C 65.7425 -3.86284 -1.87304 0
M  V30 741 C 64.9755 -4.36378 -3.07261 0
M  V30 742 O 65.1985 -3.85587 -4.20332 0
M  V30 743 O 64.1325 -5.28077 -2.88822 0
M  V30 744 H 67.9585 -2.99601 -0.497287 0
M  V30 745 H 65.5435 -1.48317 -0.179567 0
M  V30 746 H 67.4255 -3.00914 -2.95006 0
M  V30 747 H 66.1005 -1.84989 -2.65633 0
M  V30 748 H 65.0075 -3.57338 -1.10727 0
M  V30 749 H 66.3405 -4.6956 -1.47562 0
M  V30 750 N 67.9926 0.231505 -1.5589 0
M  V30 751 C 69.2396 0.957352 -1.78441 0
M  V30 752 C 69.5676 1.84726 -0.60882 0
M  V30 753 O 68.8226 1.91416 0.40725 0
M  V30 754 C 69.1216 1.83577 -3.0665 0
M  V30 755 C 68.7876 1.09993 -4.37278 0
M  V30 756 C 67.4496 0.896629 -4.72773 0
M  V30 757 C 69.8016 0.579558 -5.17968 0
M  V30 758 C 67.1296 0.160896 -5.86479 0
M  V30 759 C 69.4816 -0.142783 -6.32439 0
M  V30 760 C 68.1456 -0.357427 -6.66542 0
M  V30 761 H 67.4156 0.35032 -0.65296 0
M  V30 762 H 70.0626 0.226259 -1.90159 0
M  V30 763 H 68.3676 2.63441 -2.90011 0
M  V30 764 H 70.0646 2.39934 -3.21298 0
M  V30 765 H 66.6546 1.26835 -4.09403 0
M  V30 766 H 70.8386 0.724125 -4.90989 0
M  V30 767 H 66.0946 -0.0157293 -6.11398 0
M  V30 768 H 70.2686 -0.553559 -6.94196 0
M  V30 769 H 67.8956 -0.929466 -7.54497 0
M  V30 770 N 69.4707 1.49531 0.497807 0
M  V30 771 C 70.6957 1.63159 1.28039 0
M  V30 772 C 71.1207 0.30418 1.85624 0
M  V30 773 O 70.4787 -0.728618 1.66015 0
M  V30 774 C 70.5267 2.70537 2.38416 0
M  V30 775 O 69.6307 2.29931 3.42353 0
M  V30 776 H 68.9717 0.546001 0.377861 0
M  V30 777 H 71.5017 1.9574 0.59558 0
M  V30 778 H 71.5117 2.92802 2.84132 0
M  V30 779 H 70.1867 3.6689 1.95869 0
M  V30 780 H 68.7637 2.18009 3.02533 0
M  V30 781 N 70.9488 -0.749086 1.3866 0
M  V30 782 C 71.8958 -1.86291 1.36251 0
M  V30 783 C 72.8658 -1.64578 0.224347 0
M  V30 784 O 74.0508 -1.86181 0.417279 0
M  V30 785 C 71.1908 -3.23644 1.19786 0
M  V30 786 C 70.3038 -3.57158 2.43027 0
M  V30 787 C 69.4388 -4.83838 2.19258 0
M  V30 788 C 68.4778 -5.10152 3.38247 0
M  V30 789 N 67.6148 -6.28029 3.13884 0
M  V30 790 H 72.4548 -1.87685 2.3147 0
M  V30 791 H 69.9918 -0.917287 1.14997 0
M  V30 792 H 71.9498 -4.0291 1.08254 0
M  V30 793 H 70.5798 -3.21566 0.282031 0
M  V30 794 H 69.6318 -2.72701 2.65214 0
M  V30 795 H 70.9438 -3.7253 3.31697 0
M  V30 796 H 70.0978 -5.71057 2.04888 0
M  V30 797 H 68.8368 -4.70614 1.2796 0
M  V30 798 H 67.8418 -4.21401 3.53131 0
M  V30 799 H 69.0668 -5.25271 4.30427 0
M  V30 800 H 67.0128 -6.1612 2.25238 0
M  V30 801 H 66.9298 -6.43922 3.96106 0
M  V30 802 H 68.1978 -7.18124 3.03179 0
M  V30 803 N 72.4269 -1.23603 -0.977757 0
M  V30 804 C 73.3569 -1.04401 -2.0886 0
M  V30 805 C 74.3379 0.0399052 -1.70053 0
M  V30 806 O 75.5229 -0.125246 -1.93796 0
M  V30 807 C 72.6529 -0.637269 -3.41403 0
M  V30 808 C 71.6069 -1.66883 -3.94124 0
M  V30 809 C 70.9329 -1.11745 -5.22893 0
M  V30 810 C 72.2329 -3.06247 -4.23096 0
M  V30 811 H 73.9269 -1.97316 -2.25182 0
M  V30 812 H 71.4729 -0.950096 -1.08209 0
M  V30 813 H 73.4259 -0.48998 -4.18542 0
M  V30 814 H 72.1499 0.327557 -3.24953 0
M  V30 815 H 70.8089 -1.80416 -3.19133 0
M  V30 816 H 70.4569 -0.143527 -5.02795 0
M  V30 817 H 70.1569 -1.80672 -5.59134 0
M  V30 818 H 71.6809 -0.982067 -6.02651 0
M  V30 819 H 73.0949 -2.96001 -4.90975 0
M  V30 820 H 71.4919 -3.72436 -4.70544 0
M  V30 821 H 72.5619 -3.55041 -3.30263 0
M  V30 822 N 73.905 1.17692 -1.04816 0
M  V30 823 C 74.837 2.21103 -0.603822 0
M  V30 824 C 75.85 1.59411 0.33046 0
M  V30 825 O 77.039 1.7807 0.12379 0
M  V30 826 C 74.139 3.38623 0.136898 0
M  V30 827 C 73.312 4.29888 -0.807137 0
M  V30 828 C 72.371 5.26088 -0.10836 0
M  V30 829 O 71.397 5.64353 -0.741232 0
M  V30 830 N 72.599 5.68882 1.15558 0
M  V30 831 H 75.364 2.59848 -1.49329 0
M  V30 832 H 72.925 1.32553 -0.929587 0
M  V30 833 H 74.917 4.00009 0.614401 0
M  V30 834 H 73.487 2.98508 0.927993 0
M  V30 835 H 72.707 3.65993 -1.46434 0
M  V30 836 H 73.995 4.87759 -1.44807 0
M  V30 837 H 73.393 5.39861 1.69015 0
M  V30 838 H 71.95 6.32429 1.57722 0
M  V30 839 N 75.3831 0.828654 1.34056 0
M  V30 840 C 76.3311 0.242973 2.31327 0
M  V30 841 C 77.3251 -0.61944 1.57668 0
M  V30 842 O 78.5311 -0.51014 1.7262 0
M  V30 843 H 74.9061 0.059834 0.749616 0
M  V30 844 H 76.8771 1.07809 2.78244 0
M  V30 845 C 75.6261 -0.575733 3.429 0
M  V30 846 H 74.9491 0.0785582 3.99723 0
M  V30 847 H 76.3891 -0.951547 4.13185 0
M  V30 848 C 74.8481 -1.75044 2.87856 0
M  V30 849 O 75.3781 -2.84882 2.83205 0
M  V30 850 N 73.5841 -1.56903 2.44602 0
M  V30 851 H 73.1311 -0.675547 2.48584 0
M  V30 852 H 73.0891 -2.35652 2.08124 0
M  V30 853 N 76.8612 -1.46375 0.584142 0
M  V30 854 C 77.8082 -2.30323 -0.148286 0
M  V30 855 C 78.7782 -1.40703 -0.882713 0
M  V30 856 O 79.9632 -1.69651 -0.873099 0
M  V30 857 C 77.1032 -3.25196 -1.15507 0
M  V30 858 C 76.2162 -4.29915 -0.423943 0
M  V30 859 C 75.3512 -5.11914 -1.41838 0
M  V30 860 C 74.3902 -6.08381 -0.673736 0
M  V30 861 N 73.5272 -6.83242 -1.6163 0
M  V30 862 H 78.3672 -2.92427 0.573644 0
M  V30 863 H 75.9042 -1.44118 0.294703 0
M  V30 864 H 77.8622 -3.78646 -1.75166 0
M  V30 865 H 76.4922 -2.64898 -1.8447 0
M  V30 866 H 75.5442 -3.7931 0.287714 0
M  V30 867 H 76.8562 -4.98549 0.158128 0
M  V30 868 H 76.0102 -5.69648 -2.08773 0
M  V30 869 H 74.7492 -4.43243 -2.03438 0
M  V30 870 H 73.7542 -5.49799 0.00938483 0
M  V30 871 H 74.9792 -6.79071 -0.0631082 0
M  V30 872 H 72.9252 -6.1728 -2.22038 0
M  V30 873 H 72.8422 -7.48144 -1.08707 0
M  V30 874 H 74.1102 -7.45534 -2.27596 0
M  V30 875 N 78.3393 -0.321999 -1.54275 0
M  V30 876 C 79.5673 0.283052 -2.04955 0
M  V30 877 C 79.9823 1.45904 -1.19823 0
M  V30 878 O 79.3393 1.81063 -0.228545 0
M  V30 879 C 79.3903 0.719028 -3.54277 0
M  V30 880 O 79.1113 -0.410175 -4.36176 0
M  V30 881 C 80.6123 1.38705 -4.21041 0
M  V30 882 H 77.8323 0.0584616 -0.668448 0
M  V30 883 H 80.3763 -0.467734 -1.99079 0
M  V30 884 H 78.5313 1.41979 -3.60445 0
M  V30 885 H 78.9453 -0.0669416 -5.24457 0
M  V30 886 H 80.4193 1.64306 -5.2698 0
M  V30 887 H 80.8963 2.33385 -3.72059 0
M  V30 888 H 81.5023 0.728906 -4.19007 0
M  V30 889 N 79.8174 1.5752 -0.0501392 0
M  V30 890 C 80.7644 2.1147 0.924603 0
M  V30 891 C 81.7344 1.02182 1.30951 0
M  V30 892 O 82.9194 1.29723 1.39916 0
M  V30 893 C 80.0594 2.66337 2.19451 0
M  V30 894 C 79.1724 3.89708 1.86418 0
M  V30 895 C 78.3074 4.32893 3.07859 0
M  V30 896 C 77.3464 5.48967 2.70742 0
M  V30 897 N 76.4834 5.87211 3.84874 0
M  V30 898 H 81.3234 2.94465 0.457639 0
M  V30 899 H 78.8604 1.45531 0.214266 0
M  V30 900 H 80.8184 2.96247 2.93758 0
M  V30 901 H 79.4484 1.86141 2.63726 0
M  V30 902 H 78.5004 3.66396 1.02264 0
M  V30 903 H 79.8124 4.74074 1.55096 0
M  V30 904 H 78.9664 4.6435 3.90466 0
M  V30 905 H 77.7054 3.47336 3.42358 0
M  V30 906 H 76.7104 5.17183 1.86551 0
M  V30 907 H 77.9354 6.3624 2.37436 0
M  V30 908 H 75.8814 5.04607 4.19175 0
M  V30 909 H 75.7984 6.66266 3.57247 0
M  V30 910 H 77.0664 6.23282 4.68123 0
M  V30 911 N 81.2955 -0.223234 1.56011 0
M  V30 912 C 82.2255 -1.27988 1.95298 0
M  V30 913 C 83.2065 -1.48976 0.820979 0
M  V30 914 O 84.3915 -1.61188 1.08315 0
M  V30 915 C 81.5215 -2.63 2.26822 0
M  V30 916 C 80.4755 -2.56671 3.42497 0
M  V30 917 C 79.8015 -3.95697 3.59622 0
M  V30 918 C 81.1015 -2.11601 4.77517 0
M  V30 919 H 82.7955 -0.953525 2.8381 0
M  V30 920 H 80.3415 -0.457244 1.36548 0
M  V30 921 H 82.2945 -3.37077 2.52898 0
M  V30 922 H 81.0185 -2.9732 1.35161 0
M  V30 923 H 79.6775 -1.85051 3.16467 0
M  V30 924 H 79.3255 -4.27322 2.6534 0
M  V30 925 H 79.0255 -3.92345 4.37424 0
M  V30 926 H 80.5495 -4.71438 3.88044 0
M  V30 927 H 81.9635 -2.7542 5.02809 0
M  V30 928 H 80.3605 -2.19311 5.5859 0
M  V30 929 H 81.4305 -1.06824 4.72987 0
M  V30 930 N 82.7736 -1.49793 -0.48987 0
M  V30 931 C 84.0016 -1.63568 -1.26701 0
M  V30 932 C 84.4166 -0.311465 -1.86213 0
M  V30 933 O 83.7736 0.704416 -1.68357 0
M  V30 934 C 83.8246 -2.71284 -2.38929 0
M  V30 935 O 83.5456 -3.9857 -1.81861 0
M  V30 936 C 85.0466 -2.95864 -3.3012 0
M  V30 937 H 82.2666 -0.550342 -0.383881 0
M  V30 938 H 84.8106 -1.95898 -0.586864 0
M  V30 939 H 82.9656 -2.417 -3.02753 0
M  V30 940 H 83.3796 -4.57993 -2.55622 0
M  V30 941 H 84.8536 -3.74941 -4.05121 0
M  V30 942 H 85.3306 -2.06206 -3.87783 0
M  V30 943 H 85.9366 -3.26907 -2.72051 0
M  V30 944 N 84.2517 0.741722 -1.39055 0
M  V30 945 C 85.4977 1.50336 -1.36113 0
M  V30 946 C 85.8307 1.94148 0.0450796 0
M  V30 947 O 85.1057 1.66301 1.00868 0
M  V30 948 C 85.3887 2.74773 -2.32749 0
M  V30 949 C 85.2417 2.37023 -3.82283 0
M  V30 950 C 86.5607 3.76846 -2.27322 0
M  V30 951 H 83.6797 0.545351 -0.495743 0
M  V30 952 H 86.3217 0.848624 -1.69995 0
M  V30 953 H 84.4717 3.30639 -2.03986 0
M  V30 954 H 86.1437 1.8684 -4.21768 0
M  V30 955 H 84.3867 1.69334 -3.99385 0
M  V30 956 H 85.0577 3.26104 -4.45376 0
M  V30 957 H 87.5337 3.30548 -2.5274 0
M  V30 958 H 86.4097 4.6159 -2.97028 0
M  V30 959 H 86.6707 4.23286 -1.27599 0
M  V30 960 N 85.7298 1.2412 0.971189 0
M  V30 961 C 86.6598 1.05508 2.08304 0
M  V30 962 C 87.6408 -0.0308864 1.70072 0
M  V30 963 O 88.8258 0.135521 1.93727 0
M  V30 964 C 85.9558 0.655365 3.4106 0
M  V30 965 C 84.9098 1.68971 3.93234 0
M  V30 966 C 84.2358 1.14516 5.22293 0
M  V30 967 C 85.5358 3.08487 4.21465 0
M  V30 968 H 87.2298 1.98507 2.24132 0
M  V30 969 H 84.7758 0.955821 1.07704 0
M  V30 970 H 86.7288 0.51217 4.18276 0
M  V30 971 H 85.4528 -0.31032 3.25122 0
M  V30 972 H 84.1118 1.82106 3.18171 0
M  V30 973 H 83.7598 0.170189 5.02712 0
M  V30 974 H 83.4598 1.83635 5.58168 0
M  V30 975 H 84.9838 1.01401 6.02121 0
M  V30 976 H 86.3978 2.98601 4.89398 0
M  V30 977 H 84.7948 3.74926 4.68562 0
M  V30 978 H 85.8648 3.56787 3.28376 0
M  V30 979 N 87.2079 -1.17134 1.05439 0
M  V30 980 C 88.1179 -2.24878 0.668365 0
M  V30 981 C 89.1339 -1.71186 -0.311687 0
M  V30 982 O 90.3099 -2.00738 -0.163161 0
M  V30 983 C 87.3749 -3.46662 0.051648 0
M  V30 984 C 86.4359 -4.15429 1.08246 0
M  V30 985 C 85.6689 -5.31399 0.495082 0
M  V30 986 O 85.8919 -5.66153 -0.694743 0
M  V30 987 O 84.8259 -5.89187 1.23056 0
M  V30 988 H 88.6519 -2.60189 1.56637 0
M  V30 989 H 86.2369 -1.24482 0.826104 0
M  V30 990 H 88.1189 -4.20394 -0.290966 0
M  V30 991 H 86.7939 -3.13142 -0.819971 0
M  V30 992 H 85.7009 -3.43704 1.47711 0
M  V30 993 H 87.0339 -4.52982 1.92532 0
M  V30 994 N 88.686 -0.835752 -1.33615 0
M  V30 995 C 89.934 -0.429109 -1.97492 0
M  V30 996 C 90.255 1.01433 -1.66543 0
M  V30 997 O 89.525 1.70611 -0.962744 0
M  V30 998 H 88.105 -0.155686 -0.730596 0
M  V30 999 H 90.767 -1.06802 -1.63031 0
M  V30 1000 H 89.863 -0.55861 -3.0706 0
M  V30 1001 N 90.1641 1.46063 -0.591896 0
M  V30 1002 C 91.4411 1.95595 -0.0137119 0
M  V30 1003 C 91.8211 1.5345 1.4497 0
M  V30 1004 O 91.1691 0.789543 2.14426 0
M  V30 1005 C 91.3791 3.48453 -0.195373 0
M  V30 1006 C 92.7271 4.24546 -0.0679765 0
M  V30 1007 O 93.7511 3.55982 -0.124681 0
M  V30 1008 O 92.6101 5.46467 0.0600579 0
M  V30 1009 H 89.7041 0.825795 0.0446279 0
M  V30 1010 H 92.2501 1.56303 -0.660859 0
M  V30 1011 H 91.0221 3.72045 -1.21235 0
M  V30 1012 H 90.6451 3.94597 0.487775 0
M  V30 1013 N 91.6422 0.330177 1.54103 0
M  V30 1014 C 92.8912 -0.271336 1.99867 0
M  V30 1015 C 93.2042 -1.52723 1.22209 0
M  V30 1016 O 94.4102 -2.20515 1.58383 0
M  V30 1017 C 92.8662 -0.534032 3.55916 0
M  V30 1018 C 92.4742 0.705193 4.42415 0
M  V30 1019 C 94.2182 -1.09514 4.1013 0
M  V30 1020 C 92.1252 0.414035 5.89949 0
M  V30 1021 H 91.0552 -0.105166 0.74663 0
M  V30 1022 H 93.7062 0.443429 1.78062 0
M  V30 1023 H 92.0882 -1.30915 3.73734 0
M  V30 1024 H 93.2622 1.4804 4.36372 0
M  V30 1025 H 91.5772 1.18698 3.99124 0
M  V30 1026 H 94.1742 -1.3277 5.17954 0
M  V30 1027 H 94.5172 -2.04656 3.62521 0
M  V30 1028 H 95.0502 -0.381038 3.95971 0
M  V30 1029 H 91.7892 1.33481 6.41766 0
M  V30 1030 H 91.3092 -0.323336 5.98928 0
M  V30 1031 H 92.9882 0.0263105 6.46995 0
M  V30 1032 N 93.1203 -1.57491 0.0584922 0
M  V30 1033 C 94.0503 -2.14988 -0.911178 0
M  V30 1034 C 95.0313 -1.07343 -1.31952 0
M  V30 1035 O 96.2163 -1.35318 -1.39294 0
M  V30 1036 C 93.3463 -2.70078 -2.18347 0
M  V30 1037 C 92.3003 -3.82771 -1.91495 0
M  V30 1038 C 91.6263 -4.24408 -3.25241 0
M  V30 1039 C 92.9263 -5.07592 -1.23075 0
M  V30 1040 H 94.6203 -2.96263 -0.432246 0
M  V30 1041 H 92.1663 -1.42512 -0.206469 0
M  V30 1042 H 94.1193 -3.08943 -2.86587 0
M  V30 1043 H 92.8433 -1.86005 -2.68458 0
M  V30 1044 H 91.5023 -3.44389 -1.25664 0
M  V30 1045 H 91.1503 -3.37275 -3.73168 0
M  V30 1046 H 90.8503 -5.00366 -3.08071 0
M  V30 1047 H 92.3743 -4.65879 -3.94701 0
M  V30 1048 H 93.7883 -5.43857 -1.81362 0
M  V30 1049 H 92.1853 -5.88741 -1.16207 0
M  V30 1050 H 93.2553 -4.84454 -0.207847 0
M  V30 1051 N 94.5984 0.214957 -1.56127 0
M  V30 1052 C 95.8754 0.963093 -1.70247 0
M  V30 1053 C 96.2554 2.02166 -0.60764 0
M  V30 1054 O 95.6034 2.25244 0.384385 0
M  V30 1055 C 95.8134 1.56756 -3.11815 0
M  V30 1056 C 97.1614 2.0573 -3.7143 0
M  V30 1057 O 98.1854 1.66637 -3.14818 0
M  V30 1058 O 97.0444 2.77603 -4.70743 0
M  V30 1059 H 94.1384 0.450321 -0.693643 0
M  V30 1060 H 96.6844 0.206219 -1.68442 0
M  V30 1061 H 95.4564 0.803533 -3.82961 0
M  V30 1062 H 95.0794 2.3898 -3.17765 0
M  V30 1063 N 96.0765 1.50051 0.48192 0
M  V30 1064 C 96.9865 1.7089 1.60728 0
M  V30 1065 C 98.0025 0.591788 1.63627 0
M  V30 1066 O 99.1785 0.868817 1.81696 0
M  V30 1067 C 96.2435 1.78855 2.97005 0
M  V30 1068 C 95.3045 3.02537 3.04581 0
M  V30 1069 C 94.5375 3.10112 4.34357 0
M  V30 1070 O 94.7605 2.24765 5.24249 0
M  V30 1071 O 93.6945 4.02747 4.47301 0
M  V30 1072 H 97.5205 2.66264 1.46072 0
M  V30 1073 H 95.1055 1.34018 0.660264 0
M  V30 1074 H 96.9875 1.86336 3.77964 0
M  V30 1075 H 95.6625 0.866628 3.11883 0
M  V30 1076 H 94.5695 3.00563 2.22739 0
M  V30 1077 H 95.9025 3.94272 2.94636 0
M  V30 1078 N 97.5546 -0.734337 1.39446 0
M  V30 1079 C 98.9656 -1.31264 1.32766 0
M  V30 1080 C 99.3166 -1.96198 -0.00767497 0
M  V30 1081 O 98.4416 -1.96346 -0.909796 0
M  V30 1082 C 99.0366 -2.38682 2.4045 0
M  V30 1083 C 97.5956 -2.92184 2.37288 0
M  V30 1084 C 96.7426 -1.6576 2.22304 0
M  V30 1085 H 99.6936 -0.531799 1.49525 0
M  V30 1086 H 99.7146 -3.19087 2.07276 0
M  V30 1087 H 99.2266 -1.91392 3.37625 0
M  V30 1088 H 97.3276 -3.43752 1.43754 0
M  V30 1089 H 97.4406 -3.45253 3.3217 0
M  V30 1090 H 95.8046 -1.9012 1.69489 0
M  V30 1091 H 96.5876 -1.20521 3.21449 0
M  V30 1092 N 99.0327 -1.24633 -0.964593 0
M  V30 1093 C 100.28 -1.08788 -1.70796 0
M  V30 1094 C 100.608 0.372783 -1.90894 0
M  V30 1095 O 99.8627 1.29167 -1.47018 0
M  V30 1096 C 100.162 -1.7763 -3.10133 0
M  V30 1097 C 99.8277 -3.27557 -3.09866 0
M  V30 1098 C 98.4897 -3.6846 -3.09501 0
M  V30 1099 C 100.842 -4.23389 -3.03959 0
M  V30 1100 C 98.1697 -5.03624 -3.00965 0
M  V30 1101 C 100.522 -5.58565 -2.96965 0
M  V30 1102 C 99.1857 -5.98809 -2.9493 0
M  V30 1103 H 98.4557 -0.398084 -0.624988 0
M  V30 1104 H 101.103 -1.54777 -1.12767 0
M  V30 1105 H 99.4077 -1.24044 -3.71645 0
M  V30 1106 H 101.105 -1.62832 -3.66451 0
M  V30 1107 H 97.6947 -2.95006 -3.10917 0
M  V30 1108 H 101.879 -3.92787 -3.03368 0
M  V30 1109 H 97.1347 -5.33998 -2.97752 0
M  V30 1110 H 101.309 -6.32523 -2.91354 0
M  V30 1111 H 98.9357 -7.03505 -2.88071 0
M  V30 1112 N 100.511 1.16574 -1.06058 0
M  V30 1113 C 101.441 2.23057 -0.690488 0
M  V30 1114 C 102.422 1.67141 0.315901 0
M  V30 1115 O 103.607 1.93253 0.191556 0
M  V30 1116 C 100.737 3.47222 -0.073625 0
M  V30 1117 C 99.6908 4.16016 -1.00573 0
M  V30 1118 C 99.0168 5.34104 -0.252289 0
M  V30 1119 C 100.317 4.67264 -2.33371 0
M  V30 1120 H 102.011 2.54271 -1.58072 0
M  V30 1121 H 99.5568 1.22218 -0.76149 0
M  V30 1122 H 101.51 4.20939 0.19714 0
M  V30 1123 H 100.234 3.15302 0.85161 0
M  V30 1124 H 98.8928 3.44223 -1.2612 0
M  V30 1125 H 98.5408 4.98437 0.675988 0
M  V30 1126 H 98.2408 5.81072 -0.873455 0
M  V30 1127 H 99.7648 6.10599 0.0109857 0
M  V30 1128 H 101.179 5.32573 -2.12223 0
M  V30 1129 H 99.5758 5.24843 -2.90963 0
M  V30 1130 H 100.646 3.83602 -2.96611 0
M  V30 1131 N 101.989 0.842826 1.3317 0
M  V30 1132 C 102.936 0.276885 2.29133 0
M  V30 1133 C 103.906 -0.609527 1.54512 0
M  V30 1134 O 105.091 -0.546955 1.82792 0
M  V30 1135 C 102.231 -0.538707 3.40869 0
M  V30 1136 C 101.344 0.372169 4.30394 0
M  V30 1137 C 100.479 -0.454908 5.29249 0
M  V30 1138 C 99.5179 0.45411 6.10413 0
M  V30 1139 N 98.6549 -0.335075 7.013 0
M  V30 1140 H 103.495 1.10052 2.76934 0
M  V30 1141 H 101.032 0.554161 1.36262 0
M  V30 1142 H 102.99 -1.02709 4.0436 0
M  V30 1143 H 101.62 -1.32727 2.9425 0
M  V30 1144 H 100.672 0.97888 3.6759 0
M  V30 1145 H 101.984 1.0703 4.87182 0
M  V30 1146 H 101.138 -1.00695 5.98285 0
M  V30 1147 H 99.8769 -1.18646 4.73048 0
M  V30 1148 H 98.8819 1.01813 5.40291 0
M  V30 1149 H 100.107 1.18409 6.68697 0
M  V30 1150 H 98.0529 -1.04994 6.47543 0
M  V30 1151 H 97.9699 0.304262 7.55387 0
M  V30 1152 H 99.2379 -0.869224 7.74638 0
M  V30 1153 N 103.467 -1.45747 0.599634 0
M  V30 1154 C 104.883 -1.57424 0.26264 0
M  V30 1155 C 105.083 -1.59222 -1.23493 0
M  V30 1156 O 104.139 -1.51825 -2.01756 0
M  V30 1157 C 105.452 -2.86061 0.926795 0
M  V30 1158 C 107 -2.99722 0.901967 0
M  V30 1159 C 107.475 -4.31119 1.54598 0
M  V30 1160 N 108.966 -4.37858 1.5111 0
M  V30 1161 C 109.701 -5.3818 1.97863 0
M  V30 1162 N 109.197 -6.45083 2.52666 0
M  V30 1163 N 110.99 -5.29487 1.88679 0
M  V30 1164 H 103.141 -1.42823 1.57211 0
M  V30 1165 H 105.404 -0.68235 0.658105 0
M  V30 1166 H 105.11 -2.90605 1.98095 0
M  V30 1167 H 104.984 -3.74563 0.445238 0
M  V30 1168 H 107.371 -2.9475 -0.143617 0
M  V30 1169 H 107.452 -2.12652 1.42171 0
M  V30 1170 H 107.096 -4.36849 2.59085 0
M  V30 1171 H 107.026 -5.16992 1.00132 0
M  V30 1172 H 109.517 -3.61209 1.11068 0
M  V30 1173 H 109.83 -7.17869 2.86155 0
M  V30 1174 H 108.175 -6.45856 2.56701 0
M  V30 1175 H 111.366 -4.44877 1.4561 0
M  V30 1176 H 111.539 -6.07524 2.25429 0
M  V30 1177 N 104.945 -0.338344 -1.53925 0
M  V30 1178 C 105.908 0.508299 -2.23493 0
M  V30 1179 C 106.908 1.03175 -1.23335 0
M  V30 1180 O 108.098 0.921826 -1.47811 0
M  V30 1181 C 105.23 1.70754 -2.95052 0
M  V30 1182 H 106.423 -0.100058 -2.99733 0
M  V30 1183 H 103.976 -0.0896198 -1.56043 0
M  V30 1184 H 104.711 2.35474 -2.22986 0
M  V30 1185 H 104.496 1.33946 -3.68512 0
M  V30 1186 H 105.986 2.30818 -3.48013 0
M  V30 1187 N 106.423 1.57458 -0.0668435 0
M  V30 1188 C 107.663 1.95175 0.607116 0
M  V30 1189 C 108.027 0.946039 1.67075 0
M  V30 1190 O 109.228 1.2107 2.39991 0
M  V30 1191 C 107.499 3.37582 1.17358 0
M  V30 1192 S 109.058 3.97271 1.86336 0
M  V30 1193 H 105.876 0.682604 0.19893 0
M  V30 1194 H 108.478 1.95002 -0.139519 0
M  V30 1195 H 107.182 4.08566 0.387553 0
M  V30 1196 H 106.713 3.41288 1.95669 0
M  V30 1197 H 108.728 3.83772 3.14537 0
M  V30 1198 N 107.901 -0.206675 1.56239 0
M  V30 1199 C 108.833 -1.27997 1.9013 0
M  V30 1200 C 109.846 -1.42299 0.790883 0
M  V30 1201 O 111.035 -1.42931 1.06925 0
M  V30 1202 C 108.135 -2.65368 2.10792 0
M  V30 1203 C 107.308 -2.72824 3.41886 0
M  V30 1204 C 106.367 -3.9131 3.51799 0
M  V30 1205 O 105.393 -3.78953 4.24716 0
M  V30 1206 N 106.595 -5.06265 2.84035 0
M  V30 1207 H 109.36 -0.992444 2.82791 0
M  V30 1208 H 106.921 -0.396652 1.56966 0
M  V30 1209 H 108.913 -3.43039 2.14724 0
M  V30 1210 H 107.483 -2.86657 1.24685 0
M  V30 1211 H 106.703 -1.81515 3.49923 0
M  V30 1212 H 107.991 -2.74786 4.28217 0
M  V30 1213 H 107.389 -5.19203 2.246 0
M  V30 1214 H 105.946 -5.81925 2.93609 0
M  V30 1215 N 109.379 -1.50304 -0.473955 0
M  V30 1216 C 110.656 -1.51667 -1.23518 0
M  V30 1217 C 111.036 -0.259701 -2.09496 0
M  V30 1218 O 110.384 0.756986 -2.15597 0
M  V30 1219 C 110.594 -2.81082 -2.06868 0
M  V30 1220 C 111.942 -3.31631 -2.65153 0
M  V30 1221 O 112.966 -2.82384 -2.17113 0
M  V30 1222 O 111.825 -4.17471 -3.52675 0
M  V30 1223 H 108.919 -0.60822 -0.560355 0
M  V30 1224 H 111.465 -1.62592 -0.486011 0
M  V30 1225 H 110.237 -3.64041 -1.4349 0
M  V30 1226 H 109.86 -2.73146 -2.88924 0
M  V30 1227 N 110.857 0.726932 -1.39834 0
M  V30 1228 C 112.103 1.48884 -1.377 0
M  V30 1229 C 112.436 1.94185 0.0244852 0
M  V30 1230 O 111.711 1.67361 0.990986 0
M  V30 1231 C 111.994 2.72288 -2.3565 0
M  V30 1232 C 111.847 2.32956 -3.84775 0
M  V30 1233 C 113.166 3.74414 -2.31306 0
M  V30 1234 H 110.285 0.540062 -0.5015 0
M  V30 1235 H 112.927 0.830547 -1.70886 0
M  V30 1236 H 111.077 3.28457 -2.07481 0
M  V30 1237 H 112.749 1.82356 -4.23726 0
M  V30 1238 H 110.992 1.65088 -4.01159 0
M  V30 1239 H 111.663 3.21362 -4.4881 0
M  V30 1240 H 114.139 3.27849 -2.56231 0
M  V30 1241 H 113.015 4.58414 -3.01907 0
M  V30 1242 H 113.276 4.21909 -1.32081 0
M  V30 1243 N 112.336 1.25143 0.95797 0
M  V30 1244 C 113.561 1.12521 1.74223 0
M  V30 1245 C 113.986 -0.317402 1.85403 0
M  V30 1246 O 113.344 -1.2299 1.33204 0
M  V30 1247 C 113.392 1.78062 3.1357 0
M  V30 1248 O 112.496 1.058 3.98598 0
M  V30 1249 H 111.837 0.39304 0.535178 0
M  V30 1250 H 114.367 1.65641 1.201 0
M  V30 1251 H 114.377 1.84213 3.64046 0
M  V30 1252 H 113.052 2.83021 3.04749 0
M  V30 1253 H 111.629 1.07506 3.57067 0
M  V30 1254 N 113.814 -1.1601 1.06675 0
M  V30 1255 C 115.06 -1.86909 0.786945 0
M  V30 1256 C 115.393 -1.81717 -0.685018 0
M  V30 1257 O 114.668 -1.23551 -1.50218 0
M  V30 1258 C 114.951 -3.36313 1.28707 0
M  V30 1259 C 114.804 -3.50175 2.82308 0
M  V30 1260 C 116.123 -4.3084 0.898071 0
M  V30 1261 H 113.242 -0.678677 0.287343 0
M  V30 1262 H 115.884 -1.36336 1.32334 0
M  V30 1263 H 114.034 -3.79513 0.830768 0
M  V30 1264 H 115.706 -3.15886 3.36175 0
M  V30 1265 H 113.949 -2.91959 3.20847 0
M  V30 1266 H 114.62 -4.55116 3.12368 0
M  V30 1267 H 117.096 -3.95561 1.29114 0
M  V30 1268 H 115.972 -5.33876 1.27543 0
M  V30 1269 H 116.233 -4.41662 -0.196651 0
M  V30 1270 N 115.292 -0.849877 -1.32721 0
M  V30 1271 C 116.541 -0.447175 -1.96681 0
M  V30 1272 C 116.854 1.00135 -1.68025 0
M  V30 1273 O 118.06 1.50926 -2.25685 0
M  V30 1274 C 116.516 -0.7487 -3.52026 0
M  V30 1275 C 116.124 -2.21264 -3.89546 0
M  V30 1276 C 117.868 -0.413487 -4.22481 0
M  V30 1277 C 115.775 -2.45763 -5.37917 0
M  V30 1278 H 114.705 -0.163486 -0.736063 0
M  V30 1279 H 117.356 -1.03999 -1.51183 0
M  V30 1280 H 115.738 -0.0853727 -3.95908 0
M  V30 1281 H 116.912 -2.91736 -3.56689 0
M  V30 1282 H 115.227 -2.5119 -3.32103 0
M  V30 1283 H 117.824 -0.574017 -5.3161 0
M  V30 1284 H 118.167 0.644492 -4.11281 0
M  V30 1285 H 118.7 -1.03251 -3.84167 0
M  V30 1286 H 115.439 -3.50168 -5.54132 0
M  V30 1287 H 114.959 -1.79864 -5.72197 0
M  V30 1288 H 116.638 -2.29471 -6.0494 0
M  V30 1289 N 116.77 1.45427 -0.607355 0
M  V30 1290 C 118.019 2.01452 -0.100036 0
M  V30 1291 C 118.332 1.48159 1.27704 0
M  V30 1292 O 119.538 1.96159 1.87707 0
M  V30 1293 C 117.994 3.59672 -0.128158 0
M  V30 1294 C 117.602 4.21962 -1.50507 0
M  V30 1295 C 119.346 4.23262 0.323932 0
M  V30 1296 C 117.253 5.72333 -1.48959 0
M  V30 1297 H 116.183 0.75325 -0.0336299 0
M  V30 1298 H 118.834 1.66901 -0.76265 0
M  V30 1299 H 117.216 3.91411 0.601105 0
M  V30 1300 H 118.39 4.01796 -2.25602 0
M  V30 1301 H 116.705 3.70565 -1.89923 0
M  V30 1302 H 119.302 5.33522 0.354691 0
M  V30 1303 H 119.645 3.93921 1.34656 0
M  V30 1304 H 120.178 3.96239 -0.352056 0
M  V30 1305 H 116.917 6.06373 -2.48981 0
M  V30 1306 H 116.437 5.94691 -0.781214 0
M  V30 1307 H 118.116 6.35525 -1.21313 0
M  V30 1308 N 118.248 0.346503 1.53744 0
M  V30 1309 C 119.198 -0.524953 2.21874 0
M  V30 1310 C 120.182 -1.06376 1.20718 0
M  V30 1311 O 121.374 -0.996972 1.46251 0
M  V30 1312 C 118.503 -1.6739 2.99726 0
M  V30 1313 C 117.589 -1.14888 4.08242 0
M  V30 1314 N 117.98 -0.345329 5.0462 0
M  V30 1315 C 116.278 -1.4255 4.22606 0
M  V30 1316 C 116.979 -0.0600706 5.81669 0
M  V30 1317 N 115.955 -0.65252 5.39669 0
M  V30 1318 H 119.757 0.0960091 2.93743 0
M  V30 1319 H 117.271 0.15352 1.61673 0
M  V30 1320 H 119.268 -2.3102 3.47038 0
M  V30 1321 H 117.928 -2.29811 2.29384 0
M  V30 1322 H 118.939 0.0138439 5.17898 0
M  V30 1323 H 115.616 -2.05389 3.63486 0
M  V30 1324 H 117.006 0.588321 6.69319 0
M  V30 1325 N 119.726 -1.57421 0.075193 0
M  V30 1326 C 120.954 -1.97946 -0.602076 0
M  V30 1327 C 121.369 -0.953674 -1.62943 0
M  V30 1328 O 120.726 0.0592551 -1.82404 0
M  V30 1329 C 120.777 -3.38546 -1.26762 0
M  V30 1330 O 120.498 -4.37195 -0.281376 0
M  V30 1331 C 121.999 -3.93966 -2.03239 0
M  V30 1332 H 119.219 -0.650918 -0.162931 0
M  V30 1333 H 121.763 -2.03959 0.148601 0
M  V30 1334 H 119.918 -3.33609 -1.96936 0
M  V30 1335 H 120.332 -5.18975 -0.759267 0
M  V30 1336 H 121.806 -4.94555 -2.45193 0
M  V30 1337 H 122.283 -3.30693 -2.8903 0
M  V30 1338 H 122.889 -4.02315 -1.37924 0
M  V30 1339 N 121.204 0.198386 -1.56346 0
M  V30 1340 C 122.167 1.22952 -1.93431 0
M  V30 1341 C 123.167 1.38611 -0.815092 0
M  V30 1342 O 124.357 1.36479 -1.08255 0
M  V30 1343 C 121.489 2.59946 -2.20546 0
M  V30 1344 H 122.682 0.912626 -2.85677 0
M  V30 1345 H 120.235 0.43977 -1.49986 0
M  V30 1346 H 120.97 2.96696 -1.30927 0
M  V30 1347 H 120.755 2.49953 -3.02102 0
M  V30 1348 H 122.245 3.3431 -2.50253 0
M  V30 1349 N 122.682 1.50554 0.465978 0
M  V30 1350 C 123.922 1.63439 1.22747 0
M  V30 1351 C 124.286 0.329822 1.89146 0
M  V30 1352 O 125.487 0.334161 2.66715 0
M  V30 1353 C 123.758 2.78542 2.2394 0
M  V30 1354 S 125.317 3.11591 3.0896 0
M  V30 1355 H 122.135 0.576113 0.416672 0
M  V30 1356 H 124.737 1.88357 0.523641 0
M  V30 1357 H 123.441 3.71805 1.7375 0
M  V30 1358 H 122.972 2.55726 2.98944 0
M  V30 1359 H 124.987 2.55811 4.25176 0
M  V30 1360 N 124.16 -0.719506 1.40217 0
M  V30 1361 C 125.409 -1.47486 1.37589 0
M  V30 1362 C 125.722 -1.9559 -0.0201568 0
M  V30 1363 O 126.928 -2.70973 -0.169049 0
M  V30 1364 C 125.384 -2.66575 2.41796 0
M  V30 1365 C 124.992 -2.25358 3.87192 0
M  V30 1366 C 126.736 -3.4433 2.48269 0
M  V30 1367 C 124.643 -3.41262 4.83005 0
M  V30 1368 H 123.573 -0.553901 0.511576 0
M  V30 1369 H 126.224 -0.783427 1.65936 0
M  V30 1370 H 124.606 -3.3787 2.06543 0
M  V30 1371 H 125.78 -1.61509 4.31569 0
M  V30 1372 H 124.095 -1.60657 3.84159 0
M  V30 1373 H 126.692 -4.30569 3.17041 0
M  V30 1374 H 127.035 -3.87872 1.51198 0
M  V30 1375 H 127.568 -2.80076 2.82493 0
M  V30 1376 H 124.307 -3.02755 5.81394 0
M  V30 1377 H 123.827 -4.0404 4.43297 0
M  V30 1378 H 125.506 -4.07383 5.02641 0
M  V30 1379 N 125.638 -1.25649 -0.95132 0
M  V30 1380 C 126.887 -1.09988 -1.69073 0
M  V30 1381 C 127.2 0.358355 -1.92289 0
M  V30 1382 O 128.406 0.635466 -2.63958 0
M  V30 1383 C 126.862 -1.92012 -3.044 0
M  V30 1384 C 126.47 -3.42347 -2.88968 0
M  V30 1385 C 128.214 -1.8493 -3.82101 0
M  V30 1386 C 126.121 -4.16655 -4.19705 0
M  V30 1387 H 125.051 -0.407993 -0.63408 0
M  V30 1388 H 127.702 -1.49873 -1.05879 0
M  V30 1389 H 126.084 -1.44952 -3.68517 0
M  V30 1390 H 127.258 -3.97104 -2.33762 0
M  V30 1391 H 125.573 -3.50557 -2.24719 0
M  V30 1392 H 128.17 -2.37739 -4.78941 0
M  V30 1393 H 128.513 -0.817883 -4.08187 0
M  V30 1394 H 129.046 -2.29758 -3.2474 0
M  V30 1395 H 125.785 -5.20224 -3.98807 0
M  V30 1396 H 125.305 -3.66681 -4.74663 0
M  V30 1397 H 126.984 -4.24551 -4.88227 0
M  V30 1398 N 127.117 1.15442 -1.07289 0
M  V30 1399 C 128.394 1.82306 -0.708792 0
M  V30 1400 C 128.774 1.94991 0.808807 0
M  V30 1401 O 128.122 1.50085 1.72298 0
M  V30 1402 C 128.332 3.18695 -1.42247 0
M  V30 1403 C 129.68 3.94341 -1.57417 0
M  V30 1404 O 130.704 3.28247 -1.38319 0
M  V30 1405 O 129.563 5.12839 -1.88834 0
M  V30 1406 H 126.657 0.787628 -0.252132 0
M  V30 1407 H 129.203 1.22559 -1.17377 0
M  V30 1408 H 127.975 3.04557 -2.45684 0
M  V30 1409 H 127.598 3.86128 -0.948223 0
M  V30 1410 N 128.595 0.856903 1.32268 0
M  V30 1411 C 129.841 0.462069 1.97466 0
M  V30 1412 C 130.174 -0.980298 1.67642 0
M  V30 1413 O 129.449 -1.68824 0.965858 0
M  V30 1414 C 129.732 0.704336 3.53145 0
M  V30 1415 C 129.585 2.19529 3.9259 0
M  V30 1416 C 130.904 0.1622 4.39801 0
M  V30 1417 H 128.023 0.169357 0.717278 0
M  V30 1418 H 130.665 1.07574 1.56614 0
M  V30 1419 H 128.815 0.181999 3.88073 0
M  V30 1420 H 130.487 2.78387 3.67829 0
M  V30 1421 H 128.73 2.67292 3.41668 0
M  V30 1422 H 129.401 2.31549 5.01088 0
M  V30 1423 H 131.877 0.608905 4.11621 0
M  V30 1424 H 130.753 0.361265 5.4771 0
M  V30 1425 H 131.014 -0.935158 4.32096 0
M  V30 1426 N 130.073 -1.45103 0.615059 0
M  V30 1427 C 131.32 -2.02183 0.113179 0
M  V30 1428 C 131.648 -1.48249 -1.25906 0
M  V30 1429 O 130.903 -0.650265 -1.84581 0
M  V30 1430 C 131.202 -3.57386 0.0318797 0
M  V30 1431 C 130.868 -4.30505 1.34077 0
M  V30 1432 C 129.53 -4.50197 1.69929 0
M  V30 1433 C 131.882 -4.72238 2.20546 0
M  V30 1434 C 129.21 -5.08881 2.91988 0
M  V30 1435 C 131.562 -5.32272 3.41861 0
M  V30 1436 C 130.226 -5.50187 3.77956 0
M  V30 1437 H 129.496 -0.739842 0.0414151 0
M  V30 1438 H 132.143 -1.74073 0.798168 0
M  V30 1439 H 130.448 -3.84817 -0.736409 0
M  V30 1440 H 132.145 -3.99264 -0.372712 0
M  V30 1441 H 128.735 -4.15496 1.05173 0
M  V30 1442 H 132.919 -4.56751 1.94146 0
M  V30 1443 H 128.175 -5.20939 3.2005 0
M  V30 1444 H 132.349 -5.63563 4.09109 0
M  V30 1445 H 129.976 -5.95427 4.72622 0
M  V30 1446 N 131.551 -0.354651 -1.53558 0
M  V30 1447 C 132.799 0.237972 -2.00694 0
M  V30 1448 C 133.12 1.50173 -1.24391 0
M  V30 1449 O 132.39 1.92673 -0.354135 0
M  V30 1450 H 130.97 0.0909256 -0.741446 0
M  V30 1451 H 133.632 -0.478368 -1.88938 0
M  V30 1452 H 132.728 0.47264 -3.085 0
M  V30 1453 N 133.029 1.57378 -0.0835403 0
M  V30 1454 C 134.275 1.94217 0.583733 0
M  V30 1455 C 134.608 0.964653 1.68547 0
M  V30 1456 O 133.883 -0.00422258 1.945 0
M  V30 1457 C 134.166 3.41253 1.14972 0
M  V30 1458 C 134.019 4.49768 0.0538277 0
M  V30 1459 C 135.338 3.89352 2.05166 0
M  V30 1460 H 132.457 0.706233 0.210724 0
M  V30 1461 H 135.099 1.89392 -0.1519 0
M  V30 1462 H 133.249 3.45496 1.77665 0
M  V30 1463 H 134.921 4.57641 -0.579851 0
M  V30 1464 H 133.164 4.29432 -0.614068 0
M  V30 1465 H 133.835 5.49817 0.490452 0
M  V30 1466 H 136.311 3.87189 1.52393 0
M  V30 1467 H 135.187 4.92822 2.41698 0
M  V30 1468 H 135.448 3.27973 2.96456 0
M  V30 1469 N 134.507 -0.190092 1.56449 0
M  V30 1470 C 135.735 -0.925772 1.85033 0
M  V30 1471 C 136.15 -1.76638 0.666658 0
M  V30 1472 O 135.507 -1.78822 -0.364565 0
M  V30 1473 C 135.558 -1.81786 3.12468 0
M  V30 1474 O 135.279 -1.01118 4.26271 0
M  V30 1475 C 136.78 -2.6648 3.54265 0
M  V30 1476 H 134 -0.269872 0.614337 0
M  V30 1477 H 136.544 -0.195837 2.0356 0
M  V30 1478 H 134.699 -2.50136 2.95822 0
M  V30 1479 H 135.113 -1.61956 4.98869 0
M  V30 1480 H 136.587 -3.24722 4.46385 0
M  V30 1481 H 137.064 -3.40434 2.77491 0
M  V30 1482 H 137.67 -2.03493 3.73458 0
M  V30 1483 N 135.985 -1.50799 -0.457987 0
M  V30 1484 C 136.935 -1.67003 -1.55222 0
M  V30 1485 C 137.919 -0.52434 -1.52117 0
M  V30 1486 O 139.111 -0.779345 -1.58919 0
M  V30 1487 C 136.24 -1.77956 -2.93576 0
M  V30 1488 C 135.326 -2.98243 -3.01516 0
M  V30 1489 N 135.717 -4.21732 -2.79241 0
M  V30 1490 C 134.015 -2.97072 -3.32662 0
M  V30 1491 C 134.716 -5.02817 -2.92489 0
M  V30 1492 N 133.692 -4.37038 -3.23262 0
M  V30 1493 H 137.494 -2.60163 -1.36721 0
M  V30 1494 H 135.008 -1.48163 -0.664952 0
M  V30 1495 H 137.005 -1.87671 -3.72271 0
M  V30 1496 H 135.665 -0.859634 -3.13114 0
M  V30 1497 H 136.676 -4.51016 -2.54567 0
M  V30 1498 H 133.353 -2.14631 -3.58106 0
M  V30 1499 H 134.743 -6.11054 -2.79396 0
M  V30 1500 N 137.463 0.71206 -1.40597 0
M  V30 1501 C 138.879 1.02058 -1.22704 0
M  V30 1502 C 139.079 2.01228 -0.104729 0
M  V30 1503 O 138.135 2.4674 0.53624 0
M  V30 1504 C 139.448 1.56094 -2.57012 0
M  V30 1505 C 140.996 1.6806 -2.64054 0
M  V30 1506 C 141.471 2.25501 -3.9864 0
M  V30 1507 N 142.962 2.32882 -4.004 0
M  V30 1508 C 143.697 2.78317 -5.01325 0
M  V30 1509 N 143.193 3.23478 -6.12645 0
M  V30 1510 N 144.986 2.77733 -4.88693 0
M  V30 1511 H 137.137 0.0547896 -2.12329 0
M  V30 1512 H 139.4 0.0869027 -0.944008 0
M  V30 1513 H 139.106 0.906865 -3.39807 0
M  V30 1514 H 138.98 2.54564 -2.78347 0
M  V30 1515 H 141.367 2.32583 -1.81629 0
M  V30 1516 H 141.448 0.681802 -2.46546 0
M  V30 1517 H 141.092 1.61598 -4.81506 0
M  V30 1518 H 141.022 3.26102 -4.13479 0
M  V30 1519 H 143.513 2.00991 -3.20017 0
M  V30 1520 H 143.826 3.56725 -6.85542 0
M  V30 1521 H 142.171 3.21429 -6.16205 0
M  V30 1522 H 145.362 2.4179 -4.00818 0
M  V30 1523 H 145.535 3.12826 -5.67489 0
M  V30 1524 N 138.941 1.26152 0.944643 0
M  V30 1525 C 139.851 1.09176 2.07648 0
M  V30 1526 C 140.867 0.0261935 1.7398 0
M  V30 1527 O 142.043 0.229208 2.00091 0
M  V30 1528 C 139.108 0.722915 3.39079 0
M  V30 1529 C 138.169 1.86752 3.86552 0
M  V30 1530 C 137.402 1.51617 5.11711 0
M  V30 1531 O 137.625 0.416331 5.68879 0
M  V30 1532 O 136.559 2.34975 5.54139 0
M  V30 1533 H 140.385 2.0412 2.24875 0
M  V30 1534 H 137.97 1.05182 1.061 0
M  V30 1535 H 139.852 0.529787 4.18056 0
M  V30 1536 H 138.527 -0.197159 3.23099 0
M  V30 1537 H 137.434 2.11558 3.08535 0
M  V30 1538 H 138.767 2.76719 4.07047 0
M  V30 1539 N 140.419 -1.14872 1.07899 0
M  V30 1540 C 141.644 -1.90202 0.826926 0
M  V30 1541 C 142.069 -1.77774 -0.614664 0
M  V30 1542 O 141.427 -1.11431 -1.43013 0
M  V30 1543 C 141.475 -3.38352 1.24702 0
M  V30 1544 O 140.579 -4.10497 0.39575 0
M  V30 1545 H 139.92 -0.591968 0.300782 0
M  V30 1546 H 142.45 -1.45437 1.43907 0
M  V30 1547 H 142.46 -3.89156 1.22563 0
M  V30 1548 H 141.135 -3.46715 2.29698 0
M  V30 1549 H 139.712 -3.69796 0.480117 0
M  V30 1550 N 141.898 -0.863906 -1.31812 0
M  V30 1551 C 143.147 -0.46801 -1.96195 0
M  V30 1552 C 143.46 0.983474 -1.69077 0
M  V30 1553 O 144.666 1.48523 -2.27273 0
M  V30 1554 C 143.122 -0.785995 -3.51212 0
M  V30 1555 C 142.73 -2.25383 -3.87178 0
M  V30 1556 C 144.474 -0.458274 -4.22019 0
M  V30 1557 C 142.381 -2.51455 -5.3528 0
M  V30 1558 H 141.311 -0.171283 -0.734287 0
M  V30 1559 H 143.962 -1.05597 -1.50072 0
M  V30 1560 H 142.344 -0.127359 -3.95795 0
M  V30 1561 H 143.518 -2.95502 -3.53575 0
M  V30 1562 H 141.833 -2.54698 -3.2942 0
M  V30 1563 H 144.43 -0.630369 -5.30971 0
M  V30 1564 H 144.773 0.600834 -4.11941 0
M  V30 1565 H 145.306 -1.07319 -3.8305 0
M  V30 1566 H 142.045 -3.56025 -5.50387 0
M  V30 1567 H 141.565 -1.85923 -5.70257 0
M  V30 1568 H 143.244 -2.35874 -6.02472 0
M  V30 1569 N 143.376 1.44774 -0.622745 0
M  V30 1570 C 144.309 2.27792 0.136329 0
M  V30 1571 C 145.287 1.38041 0.859264 0
M  V30 1572 O 146.471 1.67478 0.86506 0
M  V30 1573 C 143.598 3.16776 1.19878 0
M  V30 1574 C 142.644 4.22575 0.57731 0
M  V30 1575 S 143.477 5.31825 -0.626294 0
M  V30 1576 C 144.633 6.24377 0.436378 0
M  V30 1577 H 144.866 2.91824 -0.567967 0
M  V30 1578 H 142.399 1.48838 -0.410677 0
M  V30 1579 H 144.357 3.68596 1.80686 0
M  V30 1580 H 143.018 2.5198 1.87523 0
M  V30 1581 H 142.211 4.84818 1.37721 0
M  V30 1582 H 141.813 3.73974 0.0440439 0
M  V30 1583 H 144.105 6.64689 1.31128 0
M  V30 1584 H 145.048 7.07941 -0.150271 0
M  V30 1585 H 145.456 5.59381 0.758513 0
M  V30 1586 N 144.854 0.36279 1.53368 0
M  V30 1587 C 145.802 -0.500155 2.27159 0
M  V30 1588 C 146.796 -1.08575 1.3003 0
M  V30 1589 O 148.002 -1.02927 1.47668 0
M  V30 1590 H 144.377 -0.180009 0.730138 0
M  V30 1591 H 146.348 0.14401 2.98052 0
M  V30 1592 C 145.097 -1.62937 3.07159 0
M  V30 1593 H 144.42 -1.18806 3.8174 0
M  V30 1594 H 145.86 -2.20795 3.61975 0
M  V30 1595 C 144.319 -2.57007 2.17829 0
M  V30 1596 O 144.849 -3.59752 1.78721 0
M  V30 1597 N 143.055 -2.26131 1.82518 0
M  V30 1598 H 142.602 -1.42616 2.14519 0
M  V30 1599 H 142.56 -2.89327 1.23034 0
M  V30 1600 N 146.332 -1.57332 0.0918853 0
M  V30 1601 C 147.578 -1.94524 -0.573425 0
M  V30 1602 C 147.911 -0.973578 -1.68033 0
M  V30 1603 O 147.186 -0.00609226 -1.94499 0
M  V30 1604 C 147.469 -3.41858 -1.13161 0
M  V30 1605 C 147.322 -4.4979 -0.0299747 0
M  V30 1606 C 148.641 -3.90435 -2.03098 0
M  V30 1607 H 145.76 -0.70734 -0.206975 0
M  V30 1608 H 148.402 -1.89309 0.161942 0
M  V30 1609 H 146.552 -3.46433 -1.7583 0
M  V30 1610 H 148.224 -4.57327 0.604112 0
M  V30 1611 H 146.467 -4.291 0.636833 0
M  V30 1612 H 147.138 -5.50069 -0.461287 0
M  V30 1613 H 149.614 -3.87992 -1.50338 0
M  V30 1614 H 148.49 -4.94097 -2.39081 0
M  V30 1615 H 148.751 -3.29541 -2.94712 0
M  V30 1616 N 147.81 0.181792 -1.56548 0
M  V30 1617 C 148.758 1.24461 -1.965 0
M  V30 1618 C 149.752 1.464 -0.852261 0
M  V30 1619 O 150.958 1.47103 -1.03733 0
M  V30 1620 H 147.333 0.418138 -0.625031 0
M  V30 1621 H 149.304 0.880714 -2.85107 0
M  V30 1622 C 148.053 2.57891 -2.33212 0
M  V30 1623 H 147.376 2.41829 -3.18369 0
M  V30 1624 H 148.816 3.3097 -2.65019 0
M  V30 1625 C 147.275 3.15871 -1.17163 0
M  V30 1626 O 147.805 3.9913 -0.453708 0
M  V30 1627 N 146.011 2.74808 -0.944936 0
M  V30 1628 H 145.558 2.07205 -1.53049 0
M  V30 1629 H 145.516 3.13939 -0.170286 0
M  V30 1630 N 149.288 1.51039 0.449983 0
M  V30 1631 C 150.534 1.63322 1.20223 0
M  V30 1632 C 150.867 0.34241 1.91158 0
M  V30 1633 O 150.142 -0.657344 1.83055 0
M  V30 1634 C 150.425 2.82801 2.22925 0
M  V30 1635 C 150.278 4.21823 1.56157 0
M  V30 1636 C 151.597 2.97807 3.24035 0
M  V30 1637 H 148.716 0.594407 0.435718 0
M  V30 1638 H 151.358 1.83489 0.493136 0
M  V30 1639 H 149.508 2.65738 2.834 0
M  V30 1640 H 151.18 4.50526 0.991162 0
M  V30 1641 H 149.423 4.25105 0.864172 0
M  V30 1642 H 150.094 5.01391 2.30891 0
M  V30 1643 H 152.57 3.13497 2.73603 0
M  V30 1644 H 151.446 3.82992 3.93202 0
M  V30 1645 H 151.707 2.09328 3.89402 0
M  V30 1646 N 150.766 -0.704594 1.40972 0
M  V30 1647 C 151.713 -1.81862 1.42109 0
M  V30 1648 C 152.683 -1.63781 0.276593 0
M  V30 1649 O 153.868 -1.84759 0.4763 0
M  V30 1650 C 151.008 -3.19669 1.30022 0
M  V30 1651 C 150.121 -3.49246 2.54267 0
M  V30 1652 C 149.256 -4.76618 2.3454 0
M  V30 1653 C 148.295 -4.99133 3.54306 0
M  V30 1654 N 147.432 -6.17726 3.33706 0
M  V30 1655 H 152.272 -1.80226 2.37324 0
M  V30 1656 H 149.809 -0.880238 1.17857 0
M  V30 1657 H 151.767 -3.99263 1.21018 0
M  V30 1658 H 150.397 -3.20506 0.384192 0
M  V30 1659 H 149.449 -2.64125 2.73756 0
M  V30 1660 H 150.761 -3.61788 3.43381 0
M  V30 1661 H 149.915 -5.64249 2.22952 0
M  V30 1662 H 148.654 -4.66305 1.42867 0
M  V30 1663 H 147.659 -4.09953 3.66359 0
M  V30 1664 H 148.884 -5.11311 4.4692 0
M  V30 1665 H 146.83 -6.08642 2.44725 0
M  V30 1666 H 146.747 -6.30995 4.16391 0
M  V30 1667 H 148.015 -7.08115 3.25873 0
M  V30 1668 N 152.244 -1.26651 -0.937939 0
M  V30 1669 C 153.492 -1.12165 -1.68118 0
M  V30 1670 C 153.813 0.334983 -1.92101 0
M  V30 1671 O 153.083 1.23583 -1.52 0
M  V30 1672 H 151.663 -0.412093 -0.623048 0
M  V30 1673 H 154.325 -1.59027 -1.12678 0
M  V30 1674 H 153.421 -1.64289 -2.6536 0
M  V30 1675 N 153.722 1.14298 -1.08507 0
M  V30 1676 C 154.95 1.89219 -0.836876 0
M  V30 1677 C 155.365 1.78638 0.611054 0
M  V30 1678 O 154.722 1.14643 1.41998 0
M  V30 1679 C 154.773 3.39158 -1.25116 0
M  V30 1680 O 154.494 3.49449 -2.64229 0
M  V30 1681 C 155.995 4.31073 -1.03398 0
M  V30 1682 H 153.215 0.599328 -0.301739 0
M  V30 1683 H 155.759 1.44746 -1.44461 0
M  V30 1684 H 153.914 3.81251 -0.687514 0
M  V30 1685 H 154.328 4.42589 -2.81452 0
M  V30 1686 H 155.802 5.34646 -1.37323 0
M  V30 1687 H 156.279 4.3919 0.0289259 0
M  V30 1688 H 156.885 3.94738 -1.58311 0
M  V30 1689 N 155.201 0.870884 1.31352 0
M  V30 1690 C 156.133 0.28455 2.27427 0
M  V30 1691 C 157.146 -0.552927 1.53123 0
M  V30 1692 O 158.335 -0.374771 1.74521 0
M  V30 1693 C 155.435 -0.615164 3.3327 0
M  V30 1694 C 154.608 0.190079 4.36987 0
M  V30 1695 C 153.667 -0.637917 5.22319 0
M  V30 1696 O 152.693 -0.065626 5.69162 0
M  V30 1697 N 153.895 -1.94973 5.46778 0
M  V30 1698 H 156.66 1.11017 2.7838 0
M  V30 1699 H 154.221 0.732458 1.44384 0
M  V30 1700 H 156.213 -1.1748 3.87273 0
M  V30 1701 H 154.783 -1.34146 2.82354 0
M  V30 1702 H 154.003 0.931165 3.83044 0
M  V30 1703 H 155.291 0.742579 5.03352 0
M  V30 1704 H 154.689 -2.4378 5.10478 0
M  V30 1705 H 153.246 -2.45713 6.03712 0
M  V30 1706 N 156.679 -1.44442 0.630414 0
M  V30 1707 C 157.609 -2.33418 -0.0618083 0
M  V30 1708 C 158.59 -1.48165 -0.835541 0
M  V30 1709 O 159.775 -1.76886 -0.801564 0
M  V30 1710 C 156.905 -3.31222 -1.04449 0
M  V30 1711 C 155.859 -4.26288 -0.382436 0
M  V30 1712 C 155.185 -5.13954 -1.47497 0
M  V30 1713 C 156.485 -5.1744 0.710865 0
M  V30 1714 H 158.179 -2.91548 0.681184 0
M  V30 1715 H 155.725 -1.40191 0.329026 0
M  V30 1716 H 157.678 -3.92351 -1.53748 0
M  V30 1717 H 156.402 -2.71299 -1.81836 0
M  V30 1718 H 155.061 -3.6649 0.0899054 0
M  V30 1719 H 154.709 -4.50385 -2.2397 0
M  V30 1720 H 154.409 -5.7837 -1.03737 0
M  V30 1721 H 155.933 -5.77955 -1.96979 0
M  V30 1722 H 157.347 -5.72509 0.300996 0
M  V30 1723 H 155.744 -5.90455 1.07156 0
M  V30 1724 H 156.814 -4.58496 1.57829 0
M  V30 1725 N 158.157 -0.370918 -1.53173 0
M  V30 1726 C 159.087 0.464847 -2.28826 0
M  V30 1727 C 160.068 1.07936 -1.31468 0
M  V30 1728 O 161.253 1.0956 -1.60344 0
M  V30 1729 C 158.383 1.60196 -3.08147 0
M  V30 1730 C 157.337 1.11443 -4.13237 0
M  V30 1731 C 156.663 2.3422 -4.80672 0
M  V30 1732 C 157.963 0.195384 -5.21934 0
M  V30 1733 H 159.657 -0.166329 -2.98938 0
M  V30 1734 H 157.203 -0.0814359 -1.4377 0
M  V30 1735 H 159.156 2.19332 -3.59822 0
M  V30 1736 H 157.88 2.26045 -2.35735 0
M  V30 1737 H 156.539 0.545727 -3.62515 0
M  V30 1738 H 156.187 2.98537 -4.04827 0
M  V30 1739 H 155.887 2.02269 -5.51689 0
M  V30 1740 H 157.411 2.94032 -5.35143 0
M  V30 1741 H 158.825 0.694375 -5.69079 0
M  V30 1742 H 157.222 -0.0335027 -6.00091 0
M  V30 1743 H 158.292 -0.760961 -4.78892 0
M  V30 1744 N 159.635 1.57281 -0.100228 0
M  V30 1745 C 160.565 2.17328 0.853857 0
M  V30 1746 C 161.546 1.10804 1.2906 0
M  V30 1747 O 162.731 1.38963 1.35657 0
M  V30 1748 C 159.861 2.75772 2.11109 0
M  V30 1749 C 158.815 3.87713 1.81279 0
M  V30 1750 C 158.141 4.32882 3.13874 0
M  V30 1751 C 159.441 5.10677 1.09574 0
M  V30 1752 H 161.135 2.97305 0.353545 0
M  V30 1753 H 158.681 1.43009 0.168612 0
M  V30 1754 H 160.634 3.16433 2.78296 0
M  V30 1755 H 159.358 1.93057 2.63432 0
M  V30 1756 H 158.017 3.476 1.16489 0
M  V30 1757 H 157.665 3.47051 3.64095 0
M  V30 1758 H 157.365 5.08358 2.94696 0
M  V30 1759 H 158.889 4.7618 3.82211 0
M  V30 1760 H 160.303 5.48474 1.66879 0
M  V30 1761 H 158.7 5.91615 1.00557 0
M  V30 1762 H 159.77 4.84835 0.0793299 0
M  V30 1763 N 161.113 -0.173488 1.56642 0
M  V30 1764 C 162.023 -1.23482 1.99473 0
M  V30 1765 C 163.039 -1.48567 0.905752 0
M  V30 1766 O 164.215 -1.60758 1.21321 0
M  V30 1767 C 161.28 -2.55444 2.34413 0
M  V30 1768 C 160.341 -2.38241 3.57127 0
M  V30 1769 C 159.574 -3.63909 3.90392 0
M  V30 1770 O 159.797 -4.68996 3.24653 0
M  V30 1771 O 158.731 -3.58149 4.83749 0
M  V30 1772 H 162.557 -0.901279 2.90018 0
M  V30 1773 H 160.142 -0.380185 1.44482 0
M  V30 1774 H 162.024 -3.33292 2.57865 0
M  V30 1775 H 160.699 -2.88382 1.4703 0
M  V30 1776 H 159.606 -1.58431 3.38896 0
M  V30 1777 H 160.939 -2.10228 4.45045 0
M  V30 1778 N 162.591 -1.51276 -0.441967 0
M  V30 1779 C 163.554 -1.7167 -1.51862 0
M  V30 1780 C 164.554 -0.586793 -1.49711 0
M  V30 1781 O 165.744 -0.854276 -1.51815 0
M  V30 1782 C 162.876 -1.76889 -2.91416 0
M  V30 1783 H 164.069 -2.67754 -1.35084 0
M  V30 1784 H 161.622 -1.41196 -0.670333 0
M  V30 1785 H 162.357 -0.826026 -3.13604 0
M  V30 1786 H 162.142 -2.59001 -2.94382 0
M  V30 1787 H 163.632 -1.94522 -3.69528 0
M  V30 1788 N 164.069 0.697108 -1.41344 0
M  V30 1789 C 165.309 1.46939 -1.42085 0
M  V30 1790 C 165.673 1.9198 -0.0280397 0
M  V30 1791 O 166.874 2.6865 0.0897504 0
M  V30 1792 C 165.145 2.64985 -2.39828 0
M  V30 1793 S 166.704 3.54147 -2.59085 0
M  V30 1794 H 163.522 0.502146 -0.503359 0
M  V30 1795 H 166.124 0.813546 -1.77769 0
M  V30 1796 H 164.828 2.30098 -3.39828 0
M  V30 1797 H 164.359 3.35464 -2.05493 0
M  V30 1798 H 166.374 4.60137 -1.85711 0
M  V30 1799 N 165.547 1.27147 0.931209 0
M  V30 1800 C 166.793 1.13446 1.68101 0
M  V30 1801 C 167.126 -0.319628 1.91552 0
M  V30 1802 O 166.401 -1.23407 1.50336 0
M  V30 1803 C 166.684 1.91482 3.0497 0
M  V30 1804 C 166.537 3.44855 2.88782 0
M  V30 1805 C 167.856 1.71651 4.05246 0
M  V30 1806 H 164.975 0.413498 0.610072 0
M  V30 1807 H 167.617 1.56261 1.08086 0
M  V30 1808 H 165.767 1.55095 3.56199 0
M  V30 1809 H 167.439 3.9105 2.44698 0
M  V30 1810 H 165.682 3.71373 2.24198 0
M  V30 1811 H 166.353 3.94694 3.85902 0
M  V30 1812 H 168.829 2.0337 3.63015 0
M  V30 1813 H 167.705 2.28651 4.99009 0
M  V30 1814 H 167.966 0.663555 4.37092 0
M  V30 1815 N 167.025 -1.13721 1.09112 0
M  V30 1816 C 167.957 -2.1871 0.685467 0
M  V30 1817 C 168.97 -1.60527 -0.271068 0
M  V30 1818 O 170.159 -1.78407 -0.0576148 0
M  V30 1819 C 167.259 -3.38898 -0.0111255 0
M  V30 1820 C 166.432 -4.26597 0.966131 0
M  V30 1821 C 165.491 -5.25324 0.303539 0
M  V30 1822 O 164.517 -5.61213 0.950177 0
M  V30 1823 N 165.719 -5.72779 -0.943651 0
M  V30 1824 H 168.484 -2.54126 1.58871 0
M  V30 1825 H 166.045 -1.29012 0.978143 0
M  V30 1826 H 168.037 -4.02014 -0.465517 0
M  V30 1827 H 166.607 -3.01747 -0.816565 0
M  V30 1828 H 165.827 -3.60306 1.59917 0
M  V30 1829 H 167.115 -4.82048 1.6281 0
M  V30 1830 H 166.513 -5.45762 -1.48862 0
M  V30 1831 H 165.07 -6.37847 -1.34142 0
M  V30 1832 N 168.503 -0.877838 -1.30888 0
M  V30 1833 C 169.466 -0.344265 -2.266 0
M  V30 1834 C 170.466 0.50922 -1.52524 0
M  V30 1835 O 171.656 0.317398 -1.71284 0
M  V30 1836 C 168.788 0.510198 -3.37061 0
M  V30 1837 H 169.981 -1.1893 -2.7531 0
M  V30 1838 H 167.534 -0.654088 -1.41956 0
M  V30 1839 H 168.269 1.37612 -2.93655 0
M  V30 1840 H 168.054 -0.101047 -3.9197 0
M  V30 1841 H 169.544 0.875537 -4.08319 0
M  V30 1842 N 169.982 1.44106 -0.638065 0
M  V30 1843 C 171.207 2.0685 -0.150916 0
M  V30 1844 C 171.632 1.47417 1.16833 0
M  V30 1845 O 170.99 0.578264 1.71831 0
M  V30 1846 C 171.038 3.60555 -0.05708 0
M  V30 1847 O 170.142 4.00465 0.984972 0
M  V30 1848 H 169.483 0.658151 -0.0879399 0
M  V30 1849 H 172.013 1.84865 -0.876707 0
M  V30 1850 H 172.023 4.07789 0.131232 0
M  V30 1851 H 170.698 4.03193 -1.02021 0
M  V30 1852 H 169.275 3.64849 0.770672 0
M  V30 1853 N 171.46 0.379036 1.52974 0
M  V30 1854 C 172.706 -0.206727 2.01744 0
M  V30 1855 C 173.039 -1.47314 1.26539 0
M  V30 1856 O 172.314 -1.91084 0.362903 0
M  V30 1857 C 172.597 -0.485066 3.56818 0
M  V30 1858 C 172.45 0.795919 4.42702 0
M  V30 1859 C 173.769 -1.28003 4.21074 0
M  V30 1860 H 170.888 -0.0736607 0.73331 0
M  V30 1861 H 173.53 0.506581 1.83122 0
M  V30 1862 H 171.68 -1.09272 3.72816 0
M  V30 1863 H 173.352 1.43307 4.38476 0
M  V30 1864 H 171.595 1.41344 4.10127 0
M  V30 1865 H 172.266 0.555947 5.49193 0
M  V30 1866 H 174.742 -0.765867 4.08991 0
M  V30 1867 H 173.618 -1.44352 5.29579 0
M  V30 1868 H 173.879 -2.29236 3.78026 0
M  V30 1869 N 172.938 -1.57226 0.108567 0
M  V30 1870 C 174.349 -1.8195 -0.418464 0
M  V30 1871 C 174.7 -1.02508 -1.67292 0
M  V30 1872 O 173.825 -0.258496 -2.14851 0
M  V30 1873 C 174.42 -3.30028 -0.765979 0
M  V30 1874 C 172.979 -3.55469 -1.23769 0
M  V30 1875 C 172.126 -2.7625 -0.241106 0
M  V30 1876 H 175.077 -1.55149 0.33384 0
M  V30 1877 H 175.098 -3.44086 -1.62434 0
M  V30 1878 H 174.61 -3.87821 0.147219 0
M  V30 1879 H 172.711 -3.03022 -2.16814 0
M  V30 1880 H 172.824 -4.6408 -1.19022 0
M  V30 1881 H 171.188 -2.44133 -0.72602 0
M  V30 1882 H 171.971 -3.36797 0.665007 0
M  V30 1883 N 174.416 0.165178 -1.56732 0
M  V30 1884 C 175.662 0.882112 -1.82611 0
M  V30 1885 C 175.995 1.81628 -0.687378 0
M  V30 1886 O 175.27 1.92009 0.310267 0
M  V30 1887 C 175.553 1.67245 -3.18906 0
M  V30 1888 C 175.406 0.760987 -4.43316 0
M  V30 1889 C 176.725 2.63884 -3.52212 0
M  V30 1890 H 173.844 0.319242 -0.664269 0
M  V30 1891 H 176.486 0.148052 -1.89422 0
M  V30 1892 H 174.636 2.29824 -3.1323 0
M  V30 1893 H 176.308 0.147596 -4.61064 0
M  V30 1894 H 174.551 0.0694102 -4.33744 0
M  V30 1895 H 175.222 1.34962 -5.35247 0
M  V30 1896 H 177.698 2.11429 -3.58381 0
M  V30 1897 H 176.574 3.16245 -4.48643 0
M  V30 1898 H 176.835 3.44377 -2.77231 0
M  V30 1899 N 175.894 1.51508 0.433938 0
M  V30 1900 C 177.141 1.64345 1.18309 0
M  V30 1901 C 177.469 0.361315 1.91115 0
M  V30 1902 O 176.724 -0.654753 1.84422 0
M  V30 1903 C 177.023 2.79928 2.22205 0
M  V30 1904 C 176.689 4.19078 1.66387 0
M  V30 1905 C 175.351 4.56932 1.50887 0
M  V30 1906 C 177.703 5.05894 1.25381 0
M  V30 1907 C 175.031 5.79305 0.928608 0
M  V30 1908 C 177.383 6.2885 0.687823 0
M  V30 1909 C 176.047 6.65473 0.519755 0
M  V30 1910 H 175.317 0.601381 0.432923 0
M  V30 1911 H 177.964 1.85549 0.473676 0
M  V30 1912 H 176.269 2.52959 2.99197 0
M  V30 1913 H 177.966 2.87059 2.79997 0
M  V30 1914 H 174.556 3.89234 1.79428 0
M  V30 1915 H 178.74 4.77253 1.36175 0
M  V30 1916 H 173.996 6.06324 0.786186 0
M  V30 1917 H 178.17 6.95461 0.361581 0
M  V30 1918 H 175.797 7.6017 0.0679979 0
M  V30 1919 N 177.372 -0.689602 1.41712 0
M  V30 1920 C 178.621 -1.44534 1.40686 0
M  V30 1921 C 178.934 -1.95588 0.0213352 0
M  V30 1922 O 180.14 -2.71271 -0.111534 0
M  V30 1923 C 178.596 -2.61387 2.47396 0
M  V30 1924 C 178.204 -2.17094 3.91885 0
M  V30 1925 C 179.948 -3.38986 2.55517 0
M  V30 1926 C 177.855 -3.3094 4.90135 0
M  V30 1927 H 176.785 -0.542925 0.52321 0
M  V30 1928 H 179.436 -0.748054 1.6756 0
M  V30 1929 H 177.818 -3.33412 2.13664 0
M  V30 1930 H 178.992 -1.52318 4.34897 0
M  V30 1931 H 177.307 -1.52473 3.8748 0
M  V30 1932 H 179.904 -4.23747 3.26102 0
M  V30 1933 H 180.247 -3.84578 1.59391 0
M  V30 1934 H 180.78 -2.74021 2.8837 0
M  V30 1935 H 177.519 -2.90355 5.87685 0
M  V30 1936 H 177.039 -3.94546 4.51767 0
M  V30 1937 H 178.718 -3.9663 5.11169 0
M  V30 1938 N 178.85 -1.27639 -0.924453 0
M  V30 1939 C 180.08 -1.16819 -1.70402 0
M  V30 1940 C 180.488 0.277191 -1.87158 0
M  V30 1941 O 179.831 1.20025 -1.39067 0
M  V30 1942 C 179.893 -1.78305 -3.12166 0
M  V30 1943 C 179.557 -3.27502 -3.18734 0
M  V30 1944 C 180.554 -4.2409 -3.00738 0
M  V30 1945 C 178.239 -3.68269 -3.4159 0
M  V30 1946 C 180.233 -5.59422 -3.05492 0
M  V30 1947 C 177.92 -5.0373 -3.45977 0
M  V30 1948 C 178.918 -5.99116 -3.27946 0
M  V30 1949 O 178.606 -7.32108 -3.32074 0
M  V30 1950 H 178.338 -0.406931 -0.539799 0
M  V30 1951 H 180.892 -1.69078 -1.16626 0
M  V30 1952 H 179.122 -1.20528 -3.67437 0
M  V30 1953 H 180.811 -1.62154 -3.72103 0
M  V30 1954 H 181.577 -3.93931 -2.82919 0
M  V30 1955 H 177.456 -2.94496 -3.54673 0
M  V30 1956 H 181 -6.33852 -2.91337 0
M  V30 1957 H 176.897 -5.33543 -3.63321 0
M  V30 1958 H 177.665 -7.40598 -3.48507 0
M  V30 1959 N 180.328 1.1314 -1.09713 0
M  V30 1960 C 181.556 1.88321 -0.856898 0
M  V30 1961 C 181.971 1.79276 0.592073 0
M  V30 1962 O 181.328 1.16142 1.40774 0
M  V30 1963 C 181.379 3.37812 -1.28706 0
M  V30 1964 O 181.1 3.46627 -2.67921 0
M  V30 1965 C 182.601 4.29952 -1.07964 0
M  V30 1966 H 179.821 0.596094 -0.308079 0
M  V30 1967 H 182.365 1.43205 -1.45988 0
M  V30 1968 H 180.52 3.805 -0.727912 0
M  V30 1969 H 180.934 4.39579 -2.8613 0
M  V30 1970 H 182.408 5.33159 -1.42986 0
M  V30 1971 H 182.885 4.39196 -0.0176577 0
M  V30 1972 H 183.491 3.93036 -1.62489 0
M  V30 1973 N 181.806 0.884767 1.30421 0
M  V30 1974 C 183.031 0.517288 2.00845 0
M  V30 1975 C 183.456 -0.886779 1.65885 0
M  V30 1976 O 182.814 -1.58768 0.875354 0
M  V30 1977 C 182.862 0.698994 3.5376 0
M  V30 1978 O 181.966 -0.255208 4.1161 0
M  V30 1979 H 181.307 0.203872 0.631927 0
M  V30 1980 H 183.837 1.19225 1.66272 0
M  V30 1981 H 183.847 0.597912 4.03595 0
M  V30 1982 H 182.522 1.72271 3.78544 0
M  V30 1983 H 181.099 -0.10784 3.72744 0
M  V30 1984 N 183.284 -1.43765 0.645699 0
M  V30 1985 C 184.509 -2.06767 0.161883 0
M  V30 1986 C 184.934 -1.48034 -1.16049 0
M  V30 1987 O 184.292 -0.587369 -1.71522 0
M  V30 1988 C 184.34 -3.60519 0.0762003 0
M  V30 1989 O 183.444 -4.00982 -0.963721 0
M  V30 1990 H 182.785 -0.657675 0.091429 0
M  V30 1991 H 185.315 -1.84397 0.886499 0
M  V30 1992 H 185.325 -4.07853 -0.109604 0
M  V30 1993 H 184 -4.02646 1.04157 0
M  V30 1994 H 182.577 -3.65253 -0.751312 0
M  V30 1995 N 184.763 -0.387143 -1.52771 0
M  V30 1996 C 186.012 0.19697 -2.00736 0
M  V30 1997 C 186.325 1.48082 -1.27793 0
M  V30 1998 O 187.531 2.14485 -1.66458 0
M  V30 1999 C 185.987 0.401568 -3.57653 0
M  V30 2000 C 185.595 -0.868907 -4.39493 0
M  V30 2001 C 187.339 0.942164 -4.13912 0
M  V30 2002 C 185.246 -0.632705 -5.88006 0
M  V30 2003 H 184.176 0.0773827 -0.750019 0
M  V30 2004 H 186.827 -0.50921 -1.76293 0
M  V30 2005 H 185.209 1.16954 -3.78335 0
M  V30 2006 H 186.383 -1.64133 -4.30577 0
M  V30 2007 H 184.698 -1.33429 -3.94443 0
M  V30 2008 H 187.295 1.13455 -5.22525 0
M  V30 2009 H 187.638 1.9106 -3.69867 0
M  V30 2010 H 188.171 0.233814 -3.97112 0
M  V30 2011 H 184.91 -1.57208 -6.36369 0
M  V30 2012 H 184.43 0.100825 -5.99715 0
M  V30 2013 H 186.109 -0.26642 -6.46451 0
M  V30 2014 N 186.241 1.57166 -0.116904 0
M  V30 2015 C 187.151 2.18745 0.847812 0
M  V30 2016 C 188.167 1.163 1.29423 0
M  V30 2017 O 189.343 1.48761 1.35765 0
M  V30 2018 C 186.408 2.77307 2.0809 0
M  V30 2019 C 185.469 3.94781 1.68661 0
M  V30 2020 C 184.702 4.50541 2.86091 0
M  V30 2021 O 184.925 4.05202 4.01456 0
M  V30 2022 O 183.859 5.41256 2.63298 0
M  V30 2023 H 187.685 3.01632 0.353778 0
M  V30 2024 H 185.27 1.49005 0.108599 0
M  V30 2025 H 187.152 3.14647 2.80313 0
M  V30 2026 H 185.827 1.97452 2.56504 0
M  V30 2027 H 184.734 3.62214 0.935518 0
M  V30 2028 H 186.067 4.76065 1.24991 0
M  V30 2029 N 187.719 -0.156864 1.56817 0
M  V30 2030 C 188.965 -0.872416 1.83076 0
M  V30 2031 C 189.298 -1.81261 0.697001 0
M  V30 2032 O 188.573 -1.92171 -0.30008 0
M  V30 2033 C 188.856 -1.65551 3.19789 0
M  V30 2034 C 188.709 -0.737467 4.43713 0
M  V30 2035 C 190.028 -2.62012 3.53606 0
M  V30 2036 H 187.147 -0.315715 0.665953 0
M  V30 2037 H 189.789 -0.138004 1.89498 0
M  V30 2038 H 187.939 -2.28159 3.14445 0
M  V30 2039 H 189.611 -0.123143 4.61136 0
M  V30 2040 H 187.854 -0.0464067 4.33775 0
M  V30 2041 H 188.525 -1.32122 5.35955 0
M  V30 2042 H 191.001 -2.09525 3.59497 0
M  V30 2043 H 189.877 -3.13861 4.50314 0
M  V30 2044 H 190.138 -3.42902 2.79053 0
M  V30 2045 N 189.197 -1.51736 -0.425897 0
M  V30 2046 C 190.16 -1.73271 -1.50032 0
M  V30 2047 C 191.16 -0.602639 -1.4908 0
M  V30 2048 O 192.35 -0.87033 -1.509 0
M  V30 2049 C 189.482 -1.79969 -2.89523 0
M  V30 2050 H 190.675 -2.69172 -1.32237 0
M  V30 2051 H 188.228 -1.41899 -0.65532 0
M  V30 2052 H 188.963 -0.859241 -3.1271 0
M  V30 2053 H 188.748 -2.62109 -2.91619 0
M  V30 2054 H 190.238 -1.9843 -3.67444 0
M  V30 2055 N 190.675 0.682077 -1.42076 0
M  V30 2056 C 191.923 1.4393 -1.41876 0
M  V30 2057 C 192.244 1.94971 -0.0335599 0
M  V30 2058 O 191.514 1.72591 0.926773 0
M  V30 2059 H 190.094 0.534085 -0.522267 0
M  V30 2060 H 192.756 0.806427 -1.77434 0
M  V30 2061 H 191.852 2.29588 -2.11414 0
M  V30 2062 N 192.153 1.28127 0.917671 0
M  V30 2063 C 193.564 1.13622 1.48145 0
M  V30 2064 C 193.915 -0.275207 1.9426 0
M  V30 2065 O 193.04 -1.1691 1.82102 0
M  V30 2066 C 193.635 2.05648 2.69248 0
M  V30 2067 C 192.194 1.95219 3.21818 0
M  V30 2068 C 191.341 1.97618 1.94532 0
M  V30 2069 H 194.292 1.40874 0.730772 0
M  V30 2070 H 194.313 1.61818 3.44377 0
M  V30 2071 H 193.825 3.08365 2.35653 0
M  V30 2072 H 191.926 0.955244 3.60147 0
M  V30 2073 H 192.039 2.81976 3.87333 0
M  V30 2074 H 190.403 1.41973 2.11461 0
M  V30 2075 H 191.186 3.02007 1.63238 0
M  V30 2076 N 193.631 -1.12557 1.10312 0
M  V30 2077 C 194.579 -2.20325 0.745629 0
M  V30 2078 C 195.573 -1.67429 -0.25763 0
M  V30 2079 O 196.779 -1.79612 -0.118132 0
M  V30 2080 H 193.154 -0.718118 0.223182 0
M  V30 2081 H 195.125 -2.47733 1.66346 0
M  V30 2082 C 193.874 -3.47168 0.192262 0
M  V30 2083 H 193.197 -3.88215 0.955475 0
M  V30 2084 H 194.637 -4.23995 -0.0198274 0
M  V30 2085 C 193.096 -3.19298 -1.07472 0
M  V30 2086 O 193.626 -3.3891 -2.15645 0
M  V30 2087 N 191.832 -2.73113 -0.992847 0
M  V30 2088 H 191.379 -2.57354 -0.112474 0
M  V30 2089 H 191.337 -2.54842 -1.84127 0
M  V30 2090 N 195.109 -0.891671 -1.2995 0
M  V30 2091 C 196.334 -0.527932 -2.00568 0
M  V30 2092 C 196.759 0.877969 -1.66353 0
M  V30 2093 O 196.117 1.58301 -0.883762 0
M  V30 2094 C 196.165 -0.717745 -3.53385 0
M  V30 2095 O 195.269 0.233376 -4.11739 0
M  V30 2096 H 194.61 -0.20722 -0.630837 0
M  V30 2097 H 197.14 -1.20105 -1.65638 0
M  V30 2098 H 197.15 -0.619307 -4.03272 0
M  V30 2099 H 195.825 -1.74276 -3.77625 0
M  V30 2100 H 194.402 0.0880706 -3.72796 0
M  V30 2101 N 196.587 1.43421 -0.653314 0
M  V30 2102 C 197.817 2.05864 -0.174238 0
M  V30 2103 C 198.225 1.49052 1.16534 0
M  V30 2104 O 197.568 0.616481 1.73047 0
M  V30 2105 C 197.63 3.59499 -0.00875873 0
M  V30 2106 C 197.294 4.38893 -1.27364 0
M  V30 2107 C 198.291 4.70947 -2.20239 0
M  V30 2108 C 195.976 4.789 -1.51525 0
M  V30 2109 C 197.97 5.41916 -3.35568 0
M  V30 2110 C 195.657 5.49614 -2.67147 0
M  V30 2111 C 196.655 5.81044 -3.58994 0
M  V30 2112 O 196.343 6.50313 -4.72597 0
M  V30 2113 H 196.075 0.670345 -0.0872549 0
M  V30 2114 H 198.629 1.84913 -0.894226 0
M  V30 2115 H 196.859 3.79025 0.7666 0
M  V30 2116 H 198.548 4.0364 0.427687 0
M  V30 2117 H 199.314 4.40558 -2.02815 0
M  V30 2118 H 195.193 4.53843 -0.809158 0
M  V30 2119 H 198.737 5.66365 -4.07279 0
M  V30 2120 H 194.634 5.79419 -2.84505 0
M  V30 2121 H 195.402 6.68795 -4.71864 0
M  V30 2122 N 198.065 0.39524 1.52563 0
M  V30 2123 C 199.012 -0.437036 2.26624 0
M  V30 2124 C 199.982 -1.05281 1.28472 0
M  V30 2125 O 201.167 -1.07971 1.57311 0
M  V30 2126 C 198.307 -1.55524 3.08069 0
M  V30 2127 C 197.42 -0.961745 4.21158 0
M  V30 2128 C 196.555 -2.05149 4.89987 0
M  V30 2129 C 195.594 -1.4342 5.95061 0
M  V30 2130 N 194.731 -2.46351 6.57462 0
M  V30 2131 H 199.571 0.200976 2.97322 0
M  V30 2132 H 197.108 0.110944 1.46681 0
M  V30 2133 H 199.066 -2.21437 3.53584 0
M  V30 2134 H 197.696 -2.16348 2.3957 0
M  V30 2135 H 196.748 -0.192048 3.79915 0
M  V30 2136 H 198.06 -0.470701 4.96574 0
M  V30 2137 H 197.214 -2.78819 5.38837 0
M  V30 2138 H 195.953 -2.57615 4.14109 0
M  V30 2139 H 194.958 -0.682774 5.45544 0
M  V30 2140 H 196.183 -0.917416 6.72875 0
M  V30 2141 H 194.129 -2.97975 5.8442 0
M  V30 2142 H 194.046 -2.02019 7.28508 0
M  V30 2143 H 195.314 -3.19633 7.10954 0
M  V30 2144 N 199.544 -1.57102 0.125237 0
M  V30 2145 C 200.454 -2.19191 -0.8362 0
M  V30 2146 C 201.47 -1.16985 -1.28805 0
M  V30 2147 O 202.646 -1.49479 -1.34974 0
M  V30 2148 C 199.711 -2.78407 -2.06617 0
M  V30 2149 C 198.772 -3.9567 -1.66565 0
M  V30 2150 C 198.005 -4.52052 -2.83698 0
M  V30 2151 O 198.228 -4.07326 -3.99302 0
M  V30 2152 O 197.162 -5.42645 -2.60423 0
M  V30 2153 H 200.988 -3.01816 -0.337776 0
M  V30 2154 H 198.573 -1.4906 -0.100695 0
M  V30 2155 H 200.455 -3.16129 -2.7864 0
M  V30 2156 H 199.13 -1.9881 -2.55453 0
M  V30 2157 H 198.037 -3.62705 -0.916296 0
M  V30 2158 H 199.37 -4.76722 -1.22464 0
M  V30 2159 N 201.022 0.148545 -1.56898 0
M  V30 2160 C 202.271 0.85984 -1.82454 0
M  V30 2161 C 202.584 1.82406 -0.706229 0
M  V30 2162 O 203.79 2.57938 -0.847349 0
M  V30 2163 C 202.246 1.57967 -3.2338 0
M  V30 2164 C 201.854 0.65794 -4.43142 0
M  V30 2165 C 203.598 2.27784 -3.58211 0
M  V30 2166 C 201.505 1.3793 -5.75091 0
M  V30 2167 H 200.435 0.324834 -0.68044 0
M  V30 2168 H 203.086 0.112588 -1.83154 0
M  V30 2169 H 201.468 2.37249 -3.17063 0
M  V30 2170 H 202.642 -0.0995497 -4.60692 0
M  V30 2171 H 200.957 0.0682643 -4.16344 0
M  V30 2172 H 203.554 2.8239 -4.54048 0
M  V30 2173 H 203.897 3.04204 -2.84193 0
M  V30 2174 H 204.43 1.55421 -3.66182 0
M  V30 2175 H 201.169 0.656982 -6.52199 0
M  V30 2176 H 200.689 2.10954 -5.61479 0
M  V30 2177 H 202.368 1.92063 -6.17835 0
M  V30 2178 N 202.5 1.5196 0.417844 0
M  V30 2179 C 203.749 1.6482 1.16264 0
M  V30 2180 C 204.062 0.379886 1.91876 0
M  V30 2181 O 205.268 0.388154 2.68711 0
M  V30 2182 C 203.724 2.91161 2.1155 0
M  V30 2183 C 203.332 4.25068 1.41495 0
M  V30 2184 C 205.076 3.13383 2.86341 0
M  V30 2185 C 202.983 5.42541 2.35379 0
M  V30 2186 H 201.913 0.613954 0.437694 0
M  V30 2187 H 204.564 1.78442 0.427871 0
M  V30 2188 H 202.946 2.71218 2.88543 0
M  V30 2189 H 204.12 4.55463 0.699263 0
M  V30 2190 H 202.435 4.0888 0.787792 0
M  V30 2191 H 205.032 3.98324 3.5671 0
M  V30 2192 H 205.375 2.27256 3.48798 0
M  V30 2193 H 205.908 3.33757 2.1645 0
M  V30 2194 H 202.647 6.30987 1.77582 0
M  V30 2195 H 202.167 5.16497 3.04945 0
M  V30 2196 H 203.846 5.75272 2.96093 0
M  V30 2197 N 203.978 -0.674533 1.42435 0
M  V30 2198 C 204.91 -1.80005 1.41883 0
M  V30 2199 C 205.923 -1.59667 0.31787 0
M  V30 2200 O 207.112 -1.68781 0.580973 0
M  V30 2201 C 204.212 -3.17114 1.19549 0
M  V30 2202 C 203.385 -3.64299 2.42084 0
M  V30 2203 C 202.444 -4.80142 2.15291 0
M  V30 2204 O 201.47 -4.90673 2.88493 0
M  V30 2205 N 202.672 -5.68869 1.1562 0
M  V30 2206 H 205.437 -1.80964 2.38898 0
M  V30 2207 H 202.998 -0.857633 1.37318 0
M  V30 2208 H 204.99 -3.92267 0.995417 0
M  V30 2209 H 203.56 -3.11053 0.310569 0
M  V30 2210 H 202.78 -2.79822 2.77657 0
M  V30 2211 H 204.068 -3.92567 3.23679 0
M  V30 2212 H 203.466 -5.63012 0.550765 0
M  V30 2213 H 202.023 -6.43833 1.016 0
M  V30 2214 N 205.456 -1.28612 -0.910864 0
M  V30 2215 C 206.404 -1.1265 -2.03501 0
M  V30 2216 C 207.398 -0.0450054 -1.6934 0
M  V30 2217 O 208.604 -0.203988 -1.7884 0
M  V30 2218 H 204.979 -0.347639 -0.666822 0
M  V30 2219 H 206.95 -2.07849 -2.14106 0
M  V30 2220 C 205.699 -0.808143 -3.38178 0
M  V30 2221 H 205.022 -1.63231 -3.6496 0
M  V30 2222 H 206.462 -0.736426 -4.17556 0
M  V30 2223 C 204.921 0.488226 -3.33344 0
M  V30 2224 O 205.451 1.51766 -3.71927 0
M  V30 2225 N 203.657 0.490009 -2.86439 0
M  V30 2226 H 203.204 -0.348161 -2.55236 0
M  V30 2227 H 203.162 1.35741 -2.83587 0
M  V30 2228 N 206.934 1.1197 -1.10907 0
M  V30 2229 C 208.182 1.83225 -0.852819 0
M  V30 2230 C 208.503 1.84769 0.623341 0
M  V30 2231 O 207.773 1.3143 1.45269 0
M  V30 2232 H 206.353 0.67849 -0.312507 0
M  V30 2233 H 209.015 1.3556 -1.40033 0
M  V30 2234 H 208.111 2.87265 -1.22005 0
M  V30 2235 N 208.412 0.89855 1.29475 0
M  V30 2236 C 209.362 0.346767 2.25348 0
M  V30 2237 C 210.346 -0.532509 1.51833 0
M  V30 2238 O 211.538 -0.374714 1.72988 0
M  V30 2239 C 208.667 -0.425681 3.40651 0
M  V30 2240 C 207.753 0.46845 4.21505 0
M  V30 2241 N 208.144 1.57514 4.80648 0
M  V30 2242 C 206.442 0.26603 4.45206 0
M  V30 2243 C 207.143 2.12889 5.41344 0
M  V30 2244 N 206.119 1.42208 5.24669 0
M  V30 2245 H 209.921 1.19219 2.68634 0
M  V30 2246 H 207.435 0.749473 1.44072 0
M  V30 2247 H 209.432 -0.837716 4.08397 0
M  V30 2248 H 208.092 -1.26838 2.98902 0
M  V30 2249 H 209.103 1.95789 4.79465 0
M  V30 2250 H 205.78 -0.538394 4.14014 0
M  V30 2251 H 207.17 3.05901 5.98226 0
M  V30 2252 N 209.89 -1.43072 0.660911 0
M  V30 2253 C 210.8 -2.34585 -0.0264163 0
M  V30 2254 C 211.816 -1.54316 -0.803898 0
M  V30 2255 O 212.992 -1.86939 -0.749391 0
M  V30 2256 C 210.057 -3.32689 -0.975639 0
M  V30 2257 C 209.118 -4.2886 -0.194236 0
M  V30 2258 C 208.351 -5.22278 -1.09825 0
M  V30 2259 O 208.574 -5.20299 -2.33763 0
M  V30 2260 O 207.508 -5.99228 -0.566513 0
M  V30 2261 H 211.334 -2.94869 0.727034 0
M  V30 2262 H 208.919 -1.43342 0.42111 0
M  V30 2263 H 210.801 -3.92995 -1.52094 0
M  V30 2264 H 209.476 -2.74898 -1.70918 0
M  V30 2265 H 208.383 -3.72011 0.394835 0
M  V30 2266 H 209.716 -4.89655 0.499899 0
M  V30 2267 N 211.368 -0.403325 -1.52352 0
M  V30 2268 C 212.278 0.432009 -2.30588 0
M  V30 2269 C 213.294 1.05884 -1.38075 0
M  V30 2270 O 214.47 1.06161 -1.71148 0
M  V30 2271 C 211.535 1.53669 -3.10784 0
M  V30 2272 C 210.596 0.933525 -4.19027 0
M  V30 2273 C 209.829 1.98557 -4.9539 0
M  V30 2274 O 210.052 3.20283 -4.71991 0
M  V30 2275 O 208.986 1.59504 -5.80381 0
M  V30 2276 H 212.812 -0.205739 -3.03002 0
M  V30 2277 H 210.397 -0.166675 -1.48467 0
M  V30 2278 H 212.279 2.17814 -3.60742 0
M  V30 2279 H 210.954 2.15915 -2.41169 0
M  V30 2280 H 209.861 0.254954 -3.7323 0
M  V30 2281 H 211.194 0.35508 -4.90918 0
M  V30 2282 N 212.846 1.57033 -0.133567 0
M  V30 2283 C 213.756 2.19632 0.824564 0
M  V30 2284 C 214.772 1.17666 1.28182 0
M  V30 2285 O 215.948 1.50193 1.3418 0
M  V30 2286 C 213.013 2.79499 2.05137 0
M  V30 2287 C 212.074 3.96548 1.64464 0
M  V30 2288 C 211.307 4.5355 2.81297 0
M  V30 2289 O 211.53 4.09438 3.97136 0
M  V30 2290 O 210.464 5.44018 2.57542 0
M  V30 2291 H 214.29 3.01991 0.321766 0
M  V30 2292 H 211.875 1.49112 0.0927889 0
M  V30 2293 H 213.757 3.17602 2.7696 0
M  V30 2294 H 212.432 2.00162 2.54395 0
M  V30 2295 H 211.339 3.63186 0.897048 0
M  V30 2296 H 212.672 4.77364 1.19934 0
M  V30 2297 N 214.325 -0.140222 1.56975 0
M  V30 2298 C 215.736 -0.699596 1.73097 0
M  V30 2299 C 216.087 -1.8134 0.749022 0
M  V30 2300 O 215.212 -2.16241 -0.0828503 0
M  V30 2301 C 215.807 -1.27582 3.1386 0
M  V30 2302 C 214.366 -1.78169 3.31561 0
M  V30 2303 C 213.513 -0.672855 2.69013 0
M  V30 2304 H 216.464 0.0855115 1.58469 0
M  V30 2305 H 216.485 -2.14561 3.14235 0
M  V30 2306 H 215.997 -0.464955 3.85305 0
M  V30 2307 H 214.098 -2.61801 2.65124 0
M  V30 2308 H 214.211 -1.90574 4.39566 0
M  V30 2309 H 212.575 -1.10118 2.29665 0
M  V30 2310 H 213.358 0.126679 3.43066 0
M  V30 2311 N 215.803 -1.52179 -0.40978 0
M  V30 2312 C 216.733 -1.78435 -1.5061 0
M  V30 2313 C 217.714 -0.635295 -1.57791 0
M  V30 2314 O 218.899 -0.880823 -1.73076 0
M  V30 2315 C 216.029 -1.93444 -2.88439 0
M  V30 2316 C 214.983 -3.09038 -2.96108 0
M  V30 2317 C 214.309 -3.09268 -4.36185 0
M  V30 2318 C 215.609 -4.48508 -2.67652 0
M  V30 2319 H 217.303 -2.70237 -1.28889 0
M  V30 2320 H 214.849 -1.30036 -0.618605 0
M  V30 2321 H 216.802 -2.10394 -3.65119 0
M  V30 2322 H 215.526 -0.983129 -3.11452 0
M  V30 2323 H 214.185 -2.91837 -2.21872 0
M  V30 2324 H 213.833 -2.11861 -4.56206 0
M  V30 2325 H 213.533 -3.86907 -4.42241 0
M  V30 2326 H 215.057 -3.28348 -5.14801 0
M  V30 2327 H 216.471 -4.65918 -3.34056 0
M  V30 2328 H 214.868 -5.28059 -2.85085 0
M  V30 2329 H 215.938 -4.56649 -1.63095 0
M  V30 2330 N 217.281 0.66697 -1.42791 0
M  V30 2331 C 218.191 1.80962 -1.49299 0
M  V30 2332 C 219.207 1.69775 -0.381108 0
M  V30 2333 O 220.383 1.91188 -0.633188 0
M  V30 2334 C 217.448 3.17156 -1.40045 0
M  V30 2335 C 216.509 3.40242 -2.6179 0
M  V30 2336 C 215.742 4.69939 -2.52969 0
M  V30 2337 O 215.965 5.48372 -1.56985 0
M  V30 2338 O 214.899 4.94441 -3.43237 0
M  V30 2339 H 218.725 1.78427 -2.45759 0
M  V30 2340 H 216.31 0.823713 -1.24641 0
M  V30 2341 H 218.192 3.98413 -1.37276 0
M  V30 2342 H 216.867 3.20312 -0.467138 0
M  V30 2343 H 215.774 2.58802 -2.70134 0
M  V30 2344 H 217.107 3.41923 -3.54047 0
M  V30 2345 N 218.759 1.29093 0.90403 0
M  V30 2346 C 219.707 1.13727 2.02901 0
M  V30 2347 C 220.701 0.0539853 1.69314 0
M  V30 2348 O 221.907 0.213469 1.7873 0
M  V30 2349 H 218.282 0.35117 0.664969 0
M  V30 2350 H 220.253 2.08982 2.13001 0
M  V30 2351 C 219.002 0.826066 3.37745 0
M  V30 2352 H 218.325 1.65164 3.64089 0
M  V30 2353 H 219.765 0.758559 4.17159 0
M  V30 2354 C 218.224 -0.470541 3.33598 0
M  V30 2355 O 218.754 -1.49792 3.72727 0
M  V30 2356 N 216.96 -0.474812 2.86695 0
M  V30 2357 H 216.507 0.361692 2.55048 0
M  V30 2358 H 216.465 -1.34236 2.84303 0
M  V30 2359 N 220.237 -1.11381 1.11499 0
M  V30 2360 C 221.465 -1.86934 0.88675 0
M  V30 2361 C 221.88 -1.80195 -0.563476 0
M  V30 2362 O 221.237 -1.18367 -1.38908 0
M  V30 2363 C 221.288 -3.35722 1.34064 0
M  V30 2364 O 221.009 -3.4232 2.73401 0
M  V30 2365 C 222.51 -4.2818 1.14791 0
M  V30 2366 H 219.73 -0.591117 0.317523 0
M  V30 2367 H 222.274 -1.40865 1.48248 0
M  V30 2368 H 220.429 -3.79294 0.788355 0
M  V30 2369 H 220.843 -4.34971 2.93087 0
M  V30 2370 H 222.317 -5.30817 1.5145 0
M  V30 2371 H 222.794 -4.39113 0.0875279 0
M  V30 2372 H 223.4 -3.90402 1.68721 0
M  V30 2373 N 221.715 -0.905404 -1.28997 0
M  V30 2374 C 222.961 -0.544465 -1.95977 0
M  V30 2375 C 223.316 0.90041 -1.70031 0
M  V30 2376 O 222.609 1.63064 -1.00601 0
M  V30 2377 C 222.803 -0.779906 -3.48787 0
M  V30 2378 C 222.632 -2.24612 -3.89589 0
M  V30 2379 C 221.402 -2.89464 -4.14172 0
M  V30 2380 C 223.6 -3.22182 -4.00878 0
M  V30 2381 N 221.582 -4.26469 -4.41585 0
M  V30 2382 C 222.953 -4.44323 -4.32409 0
M  V30 2383 C 225.008 -3.17694 -3.83373 0
M  V30 2384 C 223.711 -5.62546 -4.48258 0
M  V30 2385 C 225.737 -4.35208 -4.00435 0
M  V30 2386 C 225.099 -5.56121 -4.3233 0
M  V30 2387 H 221.198 -0.248948 -0.741316 0
M  V30 2388 H 223.782 -1.1674 -1.5582 0
M  V30 2389 H 221.953 -0.186308 -3.87953 0
M  V30 2390 H 223.685 -0.383833 -4.02876 0
M  V30 2391 H 220.44 -2.40232 -4.08149 0
M  V30 2392 H 220.864 -4.97283 -4.5939 0
M  V30 2393 H 225.506 -2.25297 -3.57773 0
M  V30 2394 H 223.224 -6.55429 -4.72692 0
M  V30 2395 H 226.81 -4.33228 -3.88336 0
M  V30 2396 H 225.69 -6.45537 -4.45255 0
M  V30 2397 N 223.193 1.4272 -0.668489 0
M  V30 2398 C 224.604 1.84793 -0.266151 0
M  V30 2399 C 224.955 1.55959 1.19043 0
M  V30 2400 O 224.08 1.01622 1.91055 0
M  V30 2401 C 224.675 3.35436 -0.476271 0
M  V30 2402 C 223.234 3.76182 -0.128113 0
M  V30 2403 C 222.381 2.66344 -0.771777 0
M  V30 2404 H 225.332 1.32656 -0.871098 0
M  V30 2405 H 225.353 3.79515 0.273561 0
M  V30 2406 H 224.865 3.5639 -1.53647 0
M  V30 2407 H 222.966 3.60836 0.928891 0
M  V30 2408 H 223.079 4.75766 -0.564231 0
M  V30 2409 H 221.443 2.53885 -0.203652 0
M  V30 2410 H 222.226 2.90123 -1.83531 0
M  V30 2411 N 224.671 0.411399 1.52136 0
M  V30 2412 C 225.634 -0.401089 2.25663 0
M  V30 2413 C 226.634 -0.971732 1.28117 0
M  V30 2414 O 227.824 -0.850254 1.52041 0
M  V30 2415 C 224.956 -1.56483 3.02863 0
M  V30 2416 H 226.149 0.24295 2.98914 0
M  V30 2417 H 223.702 0.163968 1.55438 0
M  V30 2418 H 224.437 -2.24567 2.33967 0
M  V30 2419 H 224.222 -1.16211 3.74483 0
M  V30 2420 H 225.712 -2.13951 3.58629 0
M  V30 2421 N 226.149 -1.5696 0.141893 0
M  V30 2422 C 227.56 -1.82797 -0.379776 0
M  V30 2423 C 227.911 -1.06033 -1.6508 0
M  V30 2424 O 227.036 -0.304011 -2.14254 0
M  V30 2425 C 227.631 -3.31578 -0.695802 0
M  V30 2426 C 226.19 -3.58014 -1.16201 0
M  V30 2427 C 225.337 -2.76699 -0.182455 0
M  V30 2428 H 228.288 -1.54406 0.366675 0
M  V30 2429 H 228.309 -3.47454 -1.55099 0
M  V30 2430 H 227.821 -3.87421 0.229449 0
M  V30 2431 H 225.922 -3.07553 -2.10338 0
M  V30 2432 H 226.035 -4.66501 -1.09151 0
M  V30 2433 H 224.399 -2.45618 -0.674072 0
M  V30 2434 H 225.182 -3.35311 0.736297 0
M  V30 2435 N 227.627 0.131896 -1.57047 0
M  V30 2436 C 228.857 0.855219 -1.88068 0
M  V30 2437 C 229.265 1.74557 -0.729817 0
M  V30 2438 O 228.608 1.81083 0.308962 0
M  V30 2439 C 228.67 1.75119 -3.13964 0
M  V30 2440 C 228.334 1.03646 -4.45091 0
M  V30 2441 C 229.331 0.383276 -5.18485 0
M  V30 2442 C 227.016 1.02148 -4.91804 0
M  V30 2443 C 229.01 -0.275347 -6.36805 0
M  V30 2444 C 226.697 0.359047 -6.10044 0
M  V30 2445 C 227.695 -0.288222 -6.82392 0
M  V30 2446 O 227.383 -0.94011 -7.98384 0
M  V30 2447 H 227.115 0.251864 -0.627328 0
M  V30 2448 H 229.669 0.124782 -2.05021 0
M  V30 2449 H 227.899 2.52295 -2.9306 0
M  V30 2450 H 229.588 2.3478 -3.31109 0
M  V30 2451 H 230.354 0.386562 -4.83457 0
M  V30 2452 H 226.233 1.5147 -4.35405 0
M  V30 2453 H 229.777 -0.781148 -6.93213 0
M  V30 2454 H 225.674 0.35348 -6.44531 0
M  V30 2455 H 226.442 -0.84329 -8.14144 0
M  V30 2456 N 229.106 1.52395 0.401703 0
M  V30 2457 C 230.517 1.58899 0.980202 0
M  V30 2458 C 230.868 0.434032 1.91339 0
M  V30 2459 O 229.993 -0.444619 2.11783 0
M  V30 2460 C 230.588 2.87994 1.78451 0
M  V30 2461 C 229.147 2.96953 2.31292 0
M  V30 2462 C 228.294 2.53903 1.11483 0
M  V30 2463 H 231.245 1.57657 0.18168 0
M  V30 2464 H 231.266 2.73765 2.64259 0
M  V30 2465 H 230.778 3.72035 1.10506 0
M  V30 2466 H 228.879 2.17422 3.02586 0
M  V30 2467 H 228.992 4.01344 2.61649 0
M  V30 2468 H 227.356 2.07925 1.47104 0
M  V30 2469 H 228.139 3.40326 0.450928 0
M  V30 2470 N 230.584 -0.659388 1.43143 0
M  V30 2471 C 231.534 -1.7655 1.44271 0
M  V30 2472 C 232.518 -1.57847 0.311961 0
M  V30 2473 O 233.71 -1.68064 0.555306 0
M  V30 2474 C 230.839 -3.15104 1.36251 0
M  V30 2475 C 229.925 -3.39377 2.54331 0
M  V30 2476 N 230.316 -3.34153 3.79704 0
M  V30 2477 C 228.614 -3.70072 2.48922 0
M  V30 2478 C 229.315 -3.58337 4.58225 0
M  V30 2479 N 228.291 -3.79851 3.88863 0
M  V30 2480 H 232.093 -1.70928 2.39083 0
M  V30 2481 H 229.607 -0.860823 1.37708 0
M  V30 2482 H 231.604 -3.94389 1.35141 0
M  V30 2483 H 230.264 -3.21913 0.424531 0
M  V30 2484 H 231.275 -3.13704 4.1208 0
M  V30 2485 H 227.952 -3.84034 1.63781 0
M  V30 2486 H 229.342 -3.60129 5.67236 0
M  V30 2487 N 232.062 -1.29571 -0.897171 0
M  V30 2488 C 233.287 -1.20705 -1.68656 0
M  V30 2489 C 233.712 0.228582 -1.86706 0
M  V30 2490 O 233.07 1.16494 -1.3892 0
M  V30 2491 C 233.118 -1.9282 -3.04717 0
M  V30 2492 O 232.222 -1.24697 -3.93096 0
M  V30 2493 H 231.563 -0.418126 -0.515816 0
M  V30 2494 H 234.093 -1.71183 -1.12061 0
M  V30 2495 H 234.103 -2.01372 -3.54843 0
M  V30 2496 H 232.778 -2.97239 -2.90899 0
M  V30 2497 H 231.355 -1.2442 -3.51531 0
M  V30 2498 N 233.54 1.10788 -1.12088 0
M  V30 2499 C 234.487 2.17025 -0.785407 0
M  V30 2500 C 235.457 1.64265 0.246191 0
M  V30 2501 O 236.642 1.90412 0.121584 0
M  V30 2502 C 233.782 3.44249 -0.242177 0
M  V30 2503 C 232.895 4.1098 -1.33115 0
M  V30 2504 C 232.03 5.25911 -0.747741 0
M  V30 2505 C 231.069 5.84538 -1.81609 0
M  V30 2506 N 230.206 6.90853 -1.25167 0
M  V30 2507 H 235.046 2.45066 -1.69548 0
M  V30 2508 H 232.583 1.20297 -0.846582 0
M  V30 2509 H 234.541 4.17101 0.0908026 0
M  V30 2510 H 233.171 3.16571 0.631072 0
M  V30 2511 H 232.223 3.36133 -1.78097 0
M  V30 2512 H 233.535 4.50601 -2.13917 0
M  V30 2513 H 232.689 6.056 -0.365216 0
M  V30 2514 H 231.428 4.87614 0.0915188 0
M  V30 2515 H 230.433 5.03522 -2.20785 0
M  V30 2516 H 231.658 6.249 -2.6585 0
M  V30 2517 H 229.604 6.54562 -0.434174 0
M  V30 2518 H 229.521 7.29166 -1.99633 0
M  V30 2519 H 230.789 7.7433 -0.896259 0
M  V30 2520 N 235.018 0.912232 1.28515 0
M  V30 2521 C 235.965 0.397954 2.27343 0
M  V30 2522 C 236.935 -0.526766 1.57526 0
M  V30 2523 O 238.12 -0.449292 1.85435 0
M  V30 2524 C 235.26 -0.357263 3.43246 0
M  V30 2525 C 234.373 0.599788 4.27816 0
M  V30 2526 C 233.508 -0.173725 5.30916 0
M  V30 2527 C 232.547 0.777039 6.07148 0
M  V30 2528 N 231.684 0.0371398 7.0209 0
M  V30 2529 H 236.524 1.24577 2.70711 0
M  V30 2530 H 234.061 0.625612 1.33133 0
M  V30 2531 H 236.019 -0.8113 4.09236 0
M  V30 2532 H 234.649 -1.16943 3.00872 0
M  V30 2533 H 233.701 1.17235 3.61884 0
M  V30 2534 H 235.013 1.32704 4.80823 0
M  V30 2535 H 234.167 -0.688394 6.02782 0
M  V30 2536 H 232.906 -0.934041 4.78672 0
M  V30 2537 H 231.911 1.3031 5.34134 0
M  V30 2538 H 233.136 1.53689 6.61481 0
M  V30 2539 H 231.082 -0.705213 6.52198 0
M  V30 2540 H 230.999 0.704249 7.52713 0
M  V30 2541 H 232.267 -0.457383 7.78157 0
M  V30 2542 N 236.496 -1.42363 0.676048 0
M  V30 2543 C 237.426 -2.33497 0.0124832 0
M  V30 2544 C 238.407 -1.50748 -0.787981 0
M  V30 2545 O 239.592 -1.79346 -0.744884 0
M  V30 2546 C 236.722 -3.34377 -0.938582 0
M  V30 2547 C 235.676 -4.27289 -0.246622 0
M  V30 2548 C 235.002 -5.18386 -1.31071 0
M  V30 2549 C 236.302 -5.14916 0.875125 0
M  V30 2550 H 237.996 -2.89233 0.773593 0
M  V30 2551 H 235.542 -1.39073 0.37346 0
M  V30 2552 H 237.495 -3.97044 -1.41188 0
M  V30 2553 H 236.219 -2.76947 -1.73113 0
M  V30 2554 H 234.878 -3.66018 0.206456 0
M  V30 2555 H 234.526 -4.57282 -2.09528 0
M  V30 2556 H 234.226 -5.81378 -0.852839 0
M  V30 2557 H 235.75 -5.83929 -1.78492 0
M  V30 2558 H 237.164 -5.71262 0.482983 0
M  V30 2559 H 235.561 -5.86747 1.25887 0
M  V30 2560 H 236.631 -4.53242 1.72335 0
M  V30 2561 N 237.974 -0.419461 -1.51915 0
M  V30 2562 C 238.937 0.389116 -2.25873 0
M  V30 2563 C 239.937 0.964924 -1.28631 0
M  V30 2564 O 241.127 0.842179 -1.52489 0
M  V30 2565 C 238.259 1.54874 -3.03689 0
M  V30 2566 H 239.452 -0.258799 -2.98781 0
M  V30 2567 H 237.005 -0.172209 -1.55348 0
M  V30 2568 H 237.74 2.23323 -2.35154 0
M  V30 2569 H 237.525 1.14223 -3.75094 0
M  V30 2570 H 239.015 2.12046 -3.59759 0
M  V30 2571 N 239.452 1.56882 -0.150215 0
M  V30 2572 C 240.362 2.20494 0.801222 0
M  V30 2573 C 241.378 1.19019 1.26927 0
M  V30 2574 O 242.554 1.51607 1.32579 0
M  V30 2575 C 239.619 2.81659 2.02161 0
M  V30 2576 C 238.68 3.9827 1.60249 0
M  V30 2577 C 237.913 4.56508 2.7647 0
M  V30 2578 O 238.136 4.13627 3.92771 0
M  V30 2579 O 237.07 5.46719 2.51757 0
M  V30 2580 H 240.896 3.02315 0.289717 0
M  V30 2581 H 238.481 1.49202 0.0769684 0
M  V30 2582 H 240.363 3.20522 2.73576 0
M  V30 2583 H 239.038 2.02849 2.52258 0
M  V30 2584 H 237.945 3.64117 0.858477 0
M  V30 2585 H 239.278 4.78609 1.14864 0
M  V30 2586 N 240.93 -0.123565 1.57115 0
M  V30 2587 C 241.877 -1.15177 2.00007 0
M  V30 2588 C 242.847 -1.41403 0.871454 0
M  V30 2589 O 244.032 -1.53346 1.13533 0
M  V30 2590 C 241.172 -2.47436 2.40561 0
M  V30 2591 C 240.285 -2.28184 3.66819 0
M  V30 2592 C 239.42 -3.53641 3.96373 0
M  V30 2593 C 238.459 -3.29528 5.15827 0
M  V30 2594 N 237.596 -4.47175 5.41275 0
M  V30 2595 H 242.436 -0.779008 2.87638 0
M  V30 2596 H 239.973 -0.373166 1.42288 0
M  V30 2597 H 241.931 -3.24584 2.62109 0
M  V30 2598 H 240.561 -2.82614 1.55978 0
M  V30 2599 H 239.613 -1.41976 3.52912 0
M  V30 2600 H 240.925 -2.0634 4.5412 0
M  V30 2601 H 240.079 -4.39209 4.18545 0
M  V30 2602 H 238.818 -3.78512 3.07538 0
M  V30 2603 H 237.823 -2.42349 4.93505 0
M  V30 2604 H 239.048 -3.06031 6.06236 0
M  V30 2605 H 236.994 -4.72175 4.55397 0
M  V30 2606 H 236.911 -4.28419 6.22891 0
M  V30 2607 H 238.179 -5.3389 5.67963 0
M  V30 2608 N 242.408 -1.52605 -0.393616 0
M  V30 2609 C 243.371 -1.76415 -1.46323 0
M  V30 2610 C 244.371 -0.634126 -1.47768 0
M  V30 2611 O 245.561 -0.902142 -1.4902 0
M  V30 2612 C 242.693 -1.8607 -2.85641 0
M  V30 2613 H 243.886 -2.71916 -1.26498 0
M  V30 2614 H 241.439 -1.43257 -0.625073 0
M  V30 2615 H 242.174 -0.925378 -3.10817 0
M  V30 2616 H 241.959 -2.68235 -2.85993 0
M  V30 2617 H 243.449 -2.06179 -3.63153 0
M  V30 2618 N 243.887 0.651787 -1.4349 0
M  V30 2619 C 245.133 1.41376 -1.45398 0
M  V30 2620 C 245.466 1.94041 -0.0784823 0
M  V30 2621 O 244.741 1.72379 0.900878 0
M  V30 2622 C 245.024 2.59414 -2.49752 0
M  V30 2623 C 244.877 2.12232 -3.96582 0
M  V30 2624 C 246.196 3.61626 -2.50827 0
M  V30 2625 H 243.315 0.512719 -0.529422 0
M  V30 2626 H 245.957 0.738796 -1.75048 0
M  V30 2627 H 244.107 3.16997 -2.246 0
M  V30 2628 H 245.779 1.59639 -4.32797 0
M  V30 2629 H 244.022 1.43592 -4.09346 0
M  V30 2630 H 244.693 2.9712 -4.65214 0
M  V30 2631 H 247.169 3.13805 -2.7325 0
M  V30 2632 H 246.045 4.41766 -3.25783 0
M  V30 2633 H 246.306 4.14314 -1.5426 0
M  V30 2634 N 245.365 1.30045 0.890287 0
M  V30 2635 C 246.295 1.18541 2.01172 0
M  V30 2636 C 247.276 0.0773356 1.69924 0
M  V30 2637 O 248.461 0.25845 1.92473 0
M  V30 2638 C 245.591 0.870941 3.36202 0
M  V30 2639 C 244.545 1.93637 3.81692 0
M  V30 2640 C 243.871 1.475 5.13953 0
M  V30 2641 C 245.171 3.34666 4.00994 0
M  V30 2642 H 246.865 2.12359 2.11054 0
M  V30 2643 H 244.411 1.02238 1.01407 0
M  V30 2644 H 246.364 0.777141 4.14172 0
M  V30 2645 H 245.088 -0.102926 3.26438 0
M  V30 2646 H 243.747 2.01972 3.05946 0
M  V30 2647 H 243.395 0.489551 5.00612 0
M  V30 2648 H 243.095 2.1876 5.4536 0
M  V30 2649 H 244.619 1.39489 5.94454 0
M  V30 2650 H 246.033 3.2912 4.69417 0
M  V30 2651 H 244.43 4.03966 4.43769 0
M  V30 2652 H 245.5 3.76949 3.05021 0
M  V30 2653 N 246.843 -1.10192 1.12674 0
M  V30 2654 C 247.806 -2.14786 0.799979 0
M  V30 2655 C 248.806 -1.59711 -0.18685 0
M  V30 2656 O 249.996 -1.74156 0.0392558 0
M  V30 2657 C 247.128 -3.40374 0.189228 0
M  V30 2658 H 248.321 -2.45203 1.72671 0
M  V30 2659 H 245.874 -1.25597 0.930326 0
M  V30 2660 H 246.609 -3.15577 -0.747107 0
M  V30 2661 H 246.394 -3.81637 0.899766 0
M  V30 2662 H 247.884 -4.17594 -0.0228143 0
M  V30 2663 N 248.321 -0.919034 -1.28029 0
M  V30 2664 C 249.284 -0.416182 -2.2539 0
M  V30 2665 C 250.284 0.460438 -1.54067 0
M  V30 2666 O 251.474 0.262744 -1.72207 0
M  V30 2667 C 248.606 0.402707 -3.38513 0
M  V30 2668 H 249.799 -1.27629 -2.71387 0
M  V30 2669 H 247.352 -0.698919 -1.39803 0
M  V30 2670 H 248.087 1.282 -2.97885 0
M  V30 2671 H 247.872 -0.225698 -3.9145 0
M  V30 2672 H 249.362 0.745191 -4.10897 0
M  V30 2673 N 249.799 1.42003 -0.683588 0
M  V30 2674 C 250.747 2.326 0.000815408 0
M  V30 2675 C 251.741 1.50308 0.781278 0
M  V30 2676 O 252.947 1.66322 0.688251 0
M  V30 2677 H 249.322 0.751758 0.0190616 0
M  V30 2678 H 251.293 2.88011 -0.780528 0
M  V30 2679 C 250.042 3.34978 0.93195 0
M  V30 2680 H 249.365 3.98345 0.340817 0
M  V30 2681 H 250.805 4.00936 1.37936 0
M  V30 2682 C 249.264 2.67925 2.04249 0
M  V30 2683 O 249.794 2.51788 3.12995 0
M  V30 2684 N 248 2.2681 1.81675 0
M  V30 2685 H 247.547 2.40135 0.932363 0
M  V30 2686 H 247.505 1.8228 2.56167 0
M  V30 2687 N 251.277 0.427512 1.51691 0
M  V30 2688 C 252.525 -0.141948 2.01601 0
M  V30 2689 C 252.846 -1.44067 1.31414 0
M  V30 2690 O 252.116 -1.90763 0.445658 0
M  V30 2691 H 250.696 -0.0554468 0.744939 0
M  V30 2692 H 253.358 0.567968 1.86441 0
M  V30 2693 H 252.454 -0.324913 3.10404 0
M  V30 2694 N 252.755 -1.56801 0.158532 0
M  V30 2695 C 254.001 -1.97559 -0.483957 0
M  V30 2696 C 254.356 -1.04239 -1.61716 0
M  V30 2697 O 253.649 -0.079603 -1.91435 0
M  V30 2698 C 253.843 -3.4235 -1.02623 0
M  V30 2699 C 253.672 -4.49669 0.0528929 0
M  V30 2700 C 252.442 -5.02838 0.498234 0
M  V30 2701 C 254.64 -5.0725 0.848616 0
M  V30 2702 N 252.622 -5.93775 1.559 0
M  V30 2703 C 253.993 -5.94506 1.7596 0
M  V30 2704 C 256.048 -4.89788 0.895121 0
M  V30 2705 C 254.751 -6.66169 2.71314 0
M  V30 2706 C 256.777 -5.62161 1.83654 0
M  V30 2707 C 256.139 -6.49134 2.73503 0
M  V30 2708 H 252.238 -0.768332 -0.145566 0
M  V30 2709 H 254.822 -1.93012 0.255799 0
M  V30 2710 H 252.993 -3.47467 -1.73555 0
M  V30 2711 H 254.725 -3.70145 -1.63629 0
M  V30 2712 H 251.48 -4.73498 0.0983222 0
M  V30 2713 H 251.904 -6.43948 2.08949 0
M  V30 2714 H 256.546 -4.22255 0.21453 0
M  V30 2715 H 254.264 -7.32923 3.40367 0
M  V30 2716 H 257.85 -5.5064 1.87847 0
M  V30 2717 H 256.73 -7.04153 3.45163 0
M  V30 2718 N 254.233 0.115231 -1.57178 0
M  V30 2719 C 255.181 1.16014 -2.01602 0
M  V30 2720 C 256.175 1.42653 -0.913587 0
M  V30 2721 O 257.381 1.42571 -1.09879 0
M  V30 2722 H 253.756 0.391252 -0.642204 0
M  V30 2723 H 255.727 0.758998 -2.88586 0
M  V30 2724 C 254.476 2.47767 -2.4394 0
M  V30 2725 H 253.799 2.28108 -3.28339 0
M  V30 2726 H 255.239 3.19432 -2.78818 0
M  V30 2727 C 253.698 3.10617 -1.30455 0
M  V30 2728 O 254.228 3.96846 -0.622585 0
M  V30 2729 N 252.434 2.70553 -1.06064 0
M  V30 2730 H 251.981 2.00527 -1.61699 0
M  V30 2731 H 251.939 3.12934 -0.303284 0
M  V30 2732 N 255.711 1.52812 0.385517 0
M  V30 2733 C 256.641 1.80808 1.47752 0
M  V30 2734 C 257.622 0.660318 1.5676 0
M  V30 2735 O 258.807 0.908246 1.71652 0
M  V30 2736 C 255.937 1.98008 2.85324 0
M  V30 2737 C 254.891 3.13709 2.91154 0
M  V30 2738 C 254.217 3.16169 4.31209 0
M  V30 2739 C 255.517 4.52709 2.60483 0
M  V30 2740 H 257.211 2.72253 1.24573 0
M  V30 2741 H 254.757 1.31003 0.597839 0
M  V30 2742 H 256.71 2.16176 3.61726 0
M  V30 2743 H 255.434 1.03255 3.09848 0
M  V30 2744 H 254.093 2.95329 2.17201 0
M  V30 2745 H 253.741 2.19092 4.52778 0
M  V30 2746 H 253.441 3.93894 4.36029 0
M  V30 2747 H 254.965 3.36496 5.09512 0
M  V30 2748 H 256.379 4.71173 3.26602 0
M  V30 2749 H 254.776 5.32528 2.76648 0
M  V30 2750 H 255.846 4.59186 1.55809 0
M  V30 2751 N 257.189 -0.644168 1.43834 0
M  V30 2752 C 258.136 -1.75671 1.49694 0
M  V30 2753 C 259.106 -1.6246 0.345809 0
M  V30 2754 O 260.291 -1.82573 0.554234 0
M  V30 2755 C 257.431 -3.13867 1.43463 0
M  V30 2756 C 256.544 -3.38147 2.6885 0
M  V30 2757 C 255.679 -4.66241 2.54544 0
M  V30 2758 C 254.718 -4.83657 3.75157 0
M  V30 2759 N 253.855 -6.03016 3.59605 0
M  V30 2760 H 258.695 -1.69998 2.44754 0
M  V30 2761 H 256.232 -0.829458 1.21484 0
M  V30 2762 H 258.19 -3.9377 1.37843 0
M  V30 2763 H 256.82 -3.18588 0.519783 0
M  V30 2764 H 255.872 -2.52276 2.84712 0
M  V30 2765 H 257.184 -3.46899 3.58417 0
M  V30 2766 H 256.338 -5.54285 2.46683 0
M  V30 2767 H 255.077 -4.59826 1.62516 0
M  V30 2768 H 254.082 -3.94046 3.83416 0
M  V30 2769 H 255.307 -4.91896 4.68204 0
M  V30 2770 H 253.253 -5.97715 2.7032 0
M  V30 2771 H 253.17 -6.12766 4.42779 0
M  V30 2772 H 254.438 -6.93657 3.55613 0
M  V30 2773 N 258.668 -1.30515 -0.883378 0
M  V30 2774 C 259.616 -1.16941 -2.01066 0
M  V30 2775 C 260.61 -0.0809148 -1.69207 0
M  V30 2776 O 261.816 -0.241877 -1.78367 0
M  V30 2777 H 258.191 -0.361705 -0.659298 0
M  V30 2778 H 260.162 -2.12344 -2.09649 0
M  V30 2779 C 258.911 -0.879694 -3.36388 0
M  V30 2780 H 258.234 -1.70936 -3.61415 0
M  V30 2781 H 259.674 -0.82483 -4.159 0
M  V30 2782 C 258.133 0.417409 -3.34304 0
M  V30 2783 O 258.663 1.43843 -3.75063 0
M  V30 2784 N 256.869 0.429141 -2.87414 0
M  V30 2785 H 256.416 -0.402222 -2.5444 0
M  V30 2786 H 256.374 1.29696 -2.86403 0
M  V30 2787 N 260.146 1.09593 -1.13257 0
M  V30 2788 C 261.394 1.81375 -0.891492 0
M  V30 2789 C 261.715 1.86049 0.584009 0
M  V30 2790 O 260.985 1.34481 1.42449 0
M  V30 2791 H 259.565 0.671708 -0.326828 0
M  V30 2792 H 262.227 1.3256 -1.42877 0
M  V30 2793 H 261.323 2.84612 -1.28071 0
M  V30 2794 N 261.624 0.925811 1.2754 0
M  V30 2795 C 262.872 0.564138 1.94067 0
M  V30 2796 C 263.193 -0.897188 1.73134 0
M  V30 2797 O 262.463 -1.63573 1.07799 0
M  V30 2798 H 261.043 0.205645 0.718136 0
M  V30 2799 H 263.705 1.1778 1.55287 0
M  V30 2800 H 262.801 0.76881 3.02483 0
M  V30 2801 N 263.102 -1.41638 0.69111 0
M  V30 2802 C 264.33 -2.05628 0.22909 0
M  V30 2803 C 264.745 -1.51992 -1.11999 0
M  V30 2804 O 264.102 -0.666322 -1.69901 0
M  V30 2805 C 264.153 -3.61084 0.173283 0
M  V30 2806 O 263.874 -4.12735 1.46907 0
M  V30 2807 C 265.375 -4.42213 -0.310266 0
M  V30 2808 H 262.595 -0.662327 0.107534 0
M  V30 2809 H 265.139 -1.81489 0.942438 0
M  V30 2810 H 263.294 -3.84278 -0.490858 0
M  V30 2811 H 263.708 -5.06743 1.35322 0
M  V30 2812 H 265.182 -5.51194 -0.298196 0
M  V30 2813 H 265.659 -4.1799 -1.34838 0
M  V30 2814 H 266.265 -4.24074 0.322716 0
M  V30 2815 N 264.58 -0.43555 -1.51462 0
M  V30 2816 C 265.51 0.367376 -2.30592 0
M  V30 2817 C 266.491 1.02263 -1.35928 0
M  V30 2818 O 267.676 1.02661 -1.64847 0
M  V30 2819 C 264.806 1.46983 -3.14664 0
M  V30 2820 C 263.76 0.938161 -4.17591 0
M  V30 2821 C 263.086 2.13622 -4.90173 0
M  V30 2822 C 264.386 -0.0261621 -5.22293 0
M  V30 2823 H 266.08 -0.292969 -2.97963 0
M  V30 2824 H 263.626 -0.14234 -1.43295 0
M  V30 2825 H 265.579 2.03873 -3.688 0
M  V30 2826 H 264.303 2.15843 -2.4511 0
M  V30 2827 H 262.962 0.391481 -3.64504 0
M  V30 2828 H 262.61 2.81098 -4.17124 0
M  V30 2829 H 262.31 1.78688 -5.59772 0
M  V30 2830 H 263.834 2.7107 -5.47132 0
M  V30 2831 H 265.248 0.452384 -5.71512 0
M  V30 2832 H 263.645 -0.287992 -5.99409 0
M  V30 2833 H 264.715 -0.963391 -4.75233 0
M  V30 2834 N 266.058 1.56714 -0.166846 0
M  V30 2835 C 267.288 2.00828 0.48494 0
M  V30 2836 C 267.696 1.04612 1.57648 0
M  V30 2837 O 267.039 0.0383201 1.8366 0
M  V30 2838 C 267.101 3.4137 1.12723 0
M  V30 2839 C 266.765 4.56654 0.177886 0
M  V30 2840 C 267.762 5.16402 -0.60207 0
M  V30 2841 C 265.447 5.02244 0.0750139 0
M  V30 2842 C 267.441 6.20167 -1.47215 0
M  V30 2843 C 265.128 6.05859 -0.798649 0
M  V30 2844 C 266.126 6.64691 -1.57082 0
M  V30 2845 O 265.814 7.66297 -2.42989 0
M  V30 2846 H 265.546 0.663587 0.128953 0
M  V30 2847 H 268.1 2.03692 -0.264365 0
M  V30 2848 H 266.33 3.35406 1.92457 0
M  V30 2849 H 268.019 3.69466 1.68076 0
M  V30 2850 H 268.785 4.82065 -0.53274 0
M  V30 2851 H 264.664 4.56167 0.665812 0
M  V30 2852 H 268.208 6.66016 -2.07531 0
M  V30 2853 H 264.105 6.39621 -0.869199 0
M  V30 2854 H 264.873 7.83601 -2.36455 0
M  V30 2855 N 267.536 -0.106894 1.57237 0
M  V30 2856 C 268.764 -0.826389 1.8968 0
M  V30 2857 C 269.179 -1.72856 0.759353 0
M  V30 2858 O 268.536 -1.80503 -0.269263 0
M  V30 2859 C 268.587 -1.64967 3.21665 0
M  V30 2860 O 268.308 -0.783804 4.31031 0
M  V30 2861 C 269.809 -2.47326 3.67892 0
M  V30 2862 H 267.029 -0.236927 0.627779 0
M  V30 2863 H 269.573 -0.0876593 2.04312 0
M  V30 2864 H 267.728 -2.34103 3.08666 0
M  V30 2865 H 268.142 -1.35284 5.06753 0
M  V30 2866 H 269.616 -3.00604 4.6297 0
M  V30 2867 H 270.093 -3.25247 2.95146 0
M  V30 2868 H 270.699 -1.83411 3.83719 0
M  V30 2869 N 269.014 -1.53014 -0.377408 0
M  V30 2870 C 270.254 -1.70318 -1.1301 0
M  V30 2871 C 270.618 -0.439538 -1.86901 0
M  V30 2872 O 271.819 -0.489095 -2.64313 0
M  V30 2873 C 270.09 -2.91125 -2.07319 0
M  V30 2874 S 271.649 -3.29075 -2.90268 0
M  V30 2875 H 268.467 -0.599426 -0.382374 0
M  V30 2876 H 271.069 -1.91089 -0.412933 0
M  V30 2877 H 269.773 -3.81303 -1.51777 0
M  V30 2878 H 269.304 -2.7272 -2.83526 0
M  V30 2879 H 271.319 -2.80165 -4.09539 0
M  V30 2880 N 270.492 0.636531 -1.44174 0
M  V30 2881 C 271.455 1.73063 -1.50273 0
M  V30 2882 C 272.455 1.56113 -0.385397 0
M  V30 2883 O 273.645 1.61707 -0.64781 0
M  V30 2884 C 270.777 3.12096 -1.37145 0
M  V30 2885 H 271.97 1.69031 -2.47727 0
M  V30 2886 H 269.523 0.849706 -1.31186 0
M  V30 2887 H 270.258 3.21728 -0.407636 0
M  V30 2888 H 270.043 3.25805 -2.18159 0
M  V30 2889 H 271.533 3.91846 -1.44382 0
M  V30 2890 N 271.97 1.30982 0.876444 0
M  V30 2891 C 272.9 1.20668 1.99903 0
M  V30 2892 C 273.881 0.095354 1.69833 0
M  V30 2893 O 275.066 0.27885 1.92188 0
M  V30 2894 C 272.196 0.90655 3.3526 0
M  V30 2895 C 271.15 1.97675 3.79617 0
M  V30 2896 C 270.476 1.52943 5.1236 0
M  V30 2897 C 271.776 3.389 3.97422 0
M  V30 2898 H 273.47 2.14586 2.0879 0
M  V30 2899 H 271.016 1.03308 1.00317 0
M  V30 2900 H 272.969 0.821025 4.13324 0
M  V30 2901 H 271.693 -0.0682969 3.26529 0
M  V30 2902 H 270.352 2.05205 3.03787 0
M  V30 2903 H 270 0.54262 5.00065 0
M  V30 2904 H 269.7 2.24532 5.43009 0
M  V30 2905 H 271.224 1.45786 5.92941 0
M  V30 2906 H 272.638 3.34081 4.659 0
M  V30 2907 H 271.035 4.0865 4.3946 0
M  V30 2908 H 272.105 3.80163 3.01006 0
M  V30 2909 N 273.449 -1.08991 1.13837 0
M  V30 2910 C 274.865 -1.33312 0.877506 0
M  V30 2911 C 275.065 -1.95587 -0.48456 0
M  V30 2912 O 274.121 -2.20509 -1.23013 0
M  V30 2913 C 275.434 -2.24045 2.0056 0
M  V30 2914 C 276.982 -2.37542 2.03821 0
M  V30 2915 C 277.457 -3.31614 3.15905 0
M  V30 2916 N 278.948 -3.39189 3.15445 0
M  V30 2917 C 279.683 -4.11992 3.98811 0
M  V30 2918 N 279.179 -4.87553 4.92203 0
M  V30 2919 N 280.972 -4.07762 3.86894 0
M  V30 2920 H 273.123 -0.669456 2.01574 0
M  V30 2921 H 275.386 -0.357482 0.878015 0
M  V30 2922 H 275.092 -1.85521 2.98789 0
M  V30 2923 H 274.966 -3.24466 1.92359 0
M  V30 2924 H 277.353 -2.75327 1.06202 0
M  V30 2925 H 277.434 -1.36884 2.16093 0
M  V30 2926 H 277.078 -2.94551 4.13766 0
M  V30 2927 H 277.008 -4.32186 3.0087 0
M  V30 2928 H 279.499 -2.85314 2.47799 0
M  V30 2929 H 279.812 -5.40549 5.52292 0
M  V30 2930 H 278.157 -4.86627 4.96205 0
M  V30 2931 H 281.348 -3.47833 3.13257 0
M  V30 2932 H 281.521 -4.64238 4.52092 0
M  V30 2933 N 274.927 -0.932562 -1.27047 0
M  V30 2934 C 276.338 -0.619451 -1.76124 0
M  V30 2935 C 276.689 0.865397 -1.76083 0
M  V30 2936 O 275.814 1.67722 -1.36742 0
M  V30 2937 C 276.409 -1.11771 -3.19832 0
M  V30 2938 C 274.968 -0.855174 -3.66557 0
M  V30 2939 C 274.115 -1.27362 -2.46321 0
M  V30 2940 H 277.066 -1.11181 -1.13245 0
M  V30 2941 H 277.087 -0.46759 -3.77616 0
M  V30 2942 H 276.599 -2.19842 -3.1983 0
M  V30 2943 H 274.7 0.211524 -3.71999 0
M  V30 2944 H 274.813 -1.47613 -4.55793 0
M  V30 2945 H 273.177 -0.692119 -2.45116 0
M  V30 2946 H 273.96 -2.36307 -2.49025 0
M  V30 2947 N 276.405 1.4127 -0.698611 0
M  V30 2948 C 277.338 2.28195 0.0153898 0
M  V30 2949 C 278.316 1.42402 0.784883 0
M  V30 2950 O 279.5 1.71828 0.775067 0
M  V30 2951 C 276.627 3.22685 1.02918 0
M  V30 2952 C 275.673 4.25041 0.352501 0
M  V30 2953 S 276.506 5.27757 -0.907322 0
M  V30 2954 C 277.662 6.25812 0.104796 0
M  V30 2955 H 277.895 2.88403 -0.721858 0
M  V30 2956 H 275.428 1.46452 -0.488996 0
M  V30 2957 H 277.386 3.77655 1.60893 0
M  V30 2958 H 276.047 2.61566 1.73902 0
M  V30 2959 H 275.24 4.91437 1.11828 0
M  V30 2960 H 274.842 3.73682 -0.154254 0
M  V30 2961 H 277.134 6.70705 0.957103 0
M  V30 2962 H 278.077 7.06149 -0.525323 0
M  V30 2963 H 278.485 5.62615 0.460931 0
M  V30 2964 N 277.883 0.443576 1.51229 0
M  V30 2965 C 279.113 -0.119117 2.06256 0
M  V30 2966 C 279.521 -1.36471 1.31043 0
M  V30 2967 O 278.864 -1.80034 0.365151 0
M  V30 2968 C 278.926 -0.500546 3.55998 0
M  V30 2969 C 278.59 0.639125 4.52509 0
M  V30 2970 C 279.587 1.51311 4.97394 0
M  V30 2971 C 277.272 0.821632 4.95535 0
M  V30 2972 C 279.266 2.55425 5.83984 0
M  V30 2973 C 276.953 1.86603 5.81913 0
M  V30 2974 C 277.951 2.73072 6.26036 0
M  V30 2975 O 277.639 3.75718 7.10698 0
M  V30 2976 H 277.371 -0.00857665 0.675946 0
M  V30 2977 H 279.925 0.623288 1.95715 0
M  V30 2978 H 278.155 -1.29575 3.64345 0
M  V30 2979 H 279.844 -0.995116 3.93513 0
M  V30 2980 H 280.61 1.38367 4.64844 0
M  V30 2981 H 276.489 0.158149 4.60729 0
M  V30 2982 H 280.033 3.22949 6.18344 0
M  V30 2983 H 275.93 1.99564 6.13876 0
M  V30 2984 H 276.698 3.72374 7.2889 0
M  V30 2985 N 279.361 -1.56624 0.175154 0
M  V30 2986 C 280.61 -1.96173 -0.468921 0
M  V30 2987 C 280.923 -1.06401 -1.64128 0
M  V30 2988 O 282.129 -1.35648 -2.35185 0
M  V30 2989 C 280.585 -3.48833 -0.885633 0
M  V30 2990 C 280.193 -4.47237 0.261343 0
M  V30 2991 C 281.937 -3.97194 -1.49791 0
M  V30 2992 C 279.844 -5.9114 -0.175214 0
M  V30 2993 H 278.774 -0.732455 -0.178958 0
M  V30 2994 H 281.425 -1.81591 0.263997 0
M  V30 2995 H 279.807 -3.58848 -1.67464 0
M  V30 2996 H 280.981 -4.4894 1.03871 0
M  V30 2997 H 279.296 -4.08956 0.783827 0
M  V30 2998 H 281.893 -5.02167 -1.83665 0
M  V30 2999 H 282.236 -3.40351 -2.39722 0
M  V30 3000 H 282.769 -3.90212 -0.773267 0
M  V30 3001 H 279.508 -6.51865 0.689414 0
M  V30 3002 H 279.028 -5.92735 -0.91786 0
M  V30 3003 H 280.707 -6.44044 -0.617792 0
M  V30 3004 N 280.839 0.0985539 -1.57292 0
M  V30 3005 C 282.069 0.815135 -1.8984 0
M  V30 3006 C 282.477 1.7297 -0.766679 0
M  V30 3007 O 281.82 1.81698 0.270483 0
M  V30 3008 C 281.882 1.6842 -3.17608 0
M  V30 3009 C 281.546 0.94182 -4.4719 0
M  V30 3010 C 282.543 0.273212 -5.19182 0
M  V30 3011 C 280.228 0.916927 -4.9386 0
M  V30 3012 C 282.222 -0.410361 -6.36078 0
M  V30 3013 C 279.909 0.229567 -6.10669 0
M  V30 3014 C 280.907 -0.432902 -6.81627 0
M  V30 3015 O 280.595 -1.10925 -7.9621 0
M  V30 3016 H 280.327 0.238501 -0.632529 0
M  V30 3017 H 282.881 0.0812659 -2.05239 0
M  V30 3018 H 281.111 2.46022 -2.98345 0
M  V30 3019 H 282.8 2.27704 -3.36015 0
M  V30 3020 H 283.566 0.283927 -4.84168 0
M  V30 3021 H 279.445 1.42201 -4.3852 0
M  V30 3022 H 282.989 -0.928013 -6.914 0
M  V30 3023 H 278.886 0.216686 -6.45136 0
M  V30 3024 H 279.654 -1.01579 -8.12172 0
M  V30 3025 N 282.317 1.53212 0.369288 0
M  V30 3026 C 283.565 1.68881 1.11012 0
M  V30 3027 C 283.886 0.441285 1.89941 0
M  V30 3028 O 283.156 -0.544623 1.88177 0
M  V30 3029 H 281.736 0.622569 0.412816 0
M  V30 3030 H 284.398 1.90391 0.416802 0
M  V30 3031 H 283.494 2.54822 1.80201 0
M  V30 3032 N 283.795 -0.628877 1.44509 0
M  V30 3033 C 284.705 -1.7694 1.54044 0
M  V30 3034 C 285.721 -1.68705 0.425987 0
M  V30 3035 O 286.897 -1.89442 0.683656 0
M  V30 3036 C 283.962 -3.13332 1.48405 0
M  V30 3037 C 283.023 -3.33181 2.70719 0
M  V30 3038 C 282.256 -4.63067 2.6534 0
M  V30 3039 O 282.479 -5.44017 1.71469 0
M  V30 3040 O 281.413 -4.85167 3.56226 0
M  V30 3041 H 285.239 -1.71848 2.50403 0
M  V30 3042 H 282.824 -0.790378 1.26781 0
M  V30 3043 H 284.706 -3.94634 1.47791 0
M  V30 3044 H 283.381 -3.1896 0.551898 0
M  V30 3045 H 282.288 -2.51549 2.769 0
M  V30 3046 H 283.621 -3.32416 3.62988 0
M  V30 3047 N 285.273 -1.31445 -0.869486 0
M  V30 3048 C 286.521 -1.20918 -1.61936 0
M  V30 3049 C 286.842 0.232683 -1.93607 0
M  V30 3050 O 286.112 1.15352 -1.58338 0
M  V30 3051 H 284.692 -0.44454 -0.600328 0
M  V30 3052 H 287.354 -1.64776 -1.0409 0
M  V30 3053 H 286.45 -1.78124 -2.56278 0
M  V30 3054 N 286.751 1.08385 -1.14413 0
M  V30 3055 C 287.976 1.85057 -0.936413 0
M  V30 3056 C 288.401 1.81055 0.509971 0
M  V30 3057 O 287.759 1.1958 1.36273 0
M  V30 3058 C 287.807 3.30505 -1.44217 0
M  V30 3059 O 286.911 4.07491 -0.634409 0
M  V30 3060 H 286.252 0.573425 -0.334784 0
M  V30 3061 H 288.782 1.36799 -1.52142 0
M  V30 3062 H 288.792 3.81348 -1.45043 0
M  V30 3063 H 287.467 3.32734 -2.49522 0
M  V30 3064 H 286.044 3.66368 -0.694902 0
M  V30 3065 N 288.23 0.939286 1.26551 0
M  V30 3066 C 289.646 0.641304 1.46149 0
M  V30 3067 C 289.846 -0.805964 1.84679 0
M  V30 3068 O 288.902 -1.58278 1.96734 0
M  V30 3069 C 290.215 1.6011 2.54529 0
M  V30 3070 C 291.763 1.6106 2.68382 0
M  V30 3071 C 292.238 2.55765 3.79932 0
M  V30 3072 N 293.729 2.5404 3.87322 0
M  V30 3073 C 294.464 3.24004 4.73085 0
M  V30 3074 N 293.96 4.03388 5.63249 0
M  V30 3075 N 295.753 3.12965 4.66914 0
M  V30 3076 H 287.904 1.87478 0.998285 0
M  V30 3077 H 290.167 0.805559 0.499779 0
M  V30 3078 H 289.873 2.63412 2.33039 0
M  V30 3079 H 289.747 1.35171 3.52149 0
M  V30 3080 H 292.134 0.584835 2.89247 0
M  V30 3081 H 292.215 1.90053 1.71212 0
M  V30 3082 H 291.859 3.58458 3.5982 0
M  V30 3083 H 291.789 2.24063 4.76554 0
M  V30 3084 H 294.28 1.96396 3.22858 0
M  V30 3085 H 294.593 4.5373 6.25579 0
M  V30 3086 H 292.938 4.07489 5.63008 0
M  V30 3087 H 296.129 2.50432 3.95476 0
M  V30 3088 H 296.302 3.67759 5.33533 0
M  V30 3089 N 289.708 -1.40897 0.706093 0
M  V30 3090 C 290.955 -2.01054 0.241531 0
M  V30 3091 C 291.283 -1.55956 -1.16223 0
M  V30 3092 O 290.538 -0.766336 -1.80072 0
M  V30 3093 C 290.837 -3.5646 0.259099 0
M  V30 3094 C 290.503 -4.21106 1.61184 0
M  V30 3095 C 289.165 -4.38479 1.98216 0
M  V30 3096 C 291.517 -4.57256 2.50132 0
M  V30 3097 C 288.845 -4.89282 3.2376 0
M  V30 3098 C 291.197 -5.09454 3.7502 0
M  V30 3099 C 289.861 -5.25037 4.12181 0
M  V30 3100 H 289.131 -0.73571 0.0883825 0
M  V30 3101 H 291.778 -1.68645 0.907257 0
M  V30 3102 H 290.083 -3.88721 -0.490189 0
M  V30 3103 H 291.78 -4.00826 -0.11804 0
M  V30 3104 H 288.37 -4.07966 1.31384 0
M  V30 3105 H 292.554 -4.43479 2.228 0
M  V30 3106 H 287.81 -4.99531 3.52532 0
M  V30 3107 H 291.984 -5.36404 4.44121 0
M  V30 3108 H 289.611 -5.64164 5.09532 0
M  V30 3109 N 291.186 -0.45159 -1.50991 0
M  V30 3110 C 292.116 0.342898 -2.30969 0
M  V30 3111 C 293.097 1.00815 -1.37005 0
M  V30 3112 O 294.282 1.00907 -1.65926 0
M  V30 3113 C 291.412 1.43637 -3.16205 0
M  V30 3114 C 290.366 0.893818 -4.18563 0
M  V30 3115 C 289.692 2.08411 -4.92411 0
M  V30 3116 C 290.992 -0.0815568 -5.22236 0
M  V30 3117 H 292.686 -0.324556 -2.97636 0
M  V30 3118 H 290.232 -0.157531 -1.43136 0
M  V30 3119 H 292.185 1.9995 -3.70942 0
M  V30 3120 H 290.909 2.13232 -2.47386 0
M  V30 3121 H 289.568 0.352798 -3.64898 0
M  V30 3122 H 289.216 2.76658 -4.20082 0
M  V30 3123 H 288.916 1.72741 -5.61636 0
M  V30 3124 H 290.44 2.65251 -5.49976 0
M  V30 3125 H 291.854 0.391742 -5.7196 0
M  V30 3126 H 290.251 -0.351551 -5.99069 0
M  V30 3127 H 291.321 -1.01374 -4.74185 0
M  V30 3128 N 292.664 1.56529 -0.183458 0
M  V30 3129 C 293.889 2.02064 0.467428 0
M  V30 3130 C 294.314 1.06282 1.55196 0
M  V30 3131 O 293.672 0.0443565 1.81246 0
M  V30 3132 C 293.72 3.46122 1.01153 0
M  V30 3133 O 292.824 3.53437 2.12499 0
M  V30 3134 H 292.165 0.654726 0.110588 0
M  V30 3135 H 294.695 2.02521 -0.290917 0
M  V30 3136 H 294.705 3.85676 1.33108 0
M  V30 3137 H 293.38 4.15331 0.217533 0
M  V30 3138 H 291.957 3.2575 1.81497 0
M  V30 3139 N 294.142 -0.090211 1.57342 0
M  V30 3140 C 295.105 -1.09335 2.01441 0
M  V30 3141 C 296.105 -1.32666 0.908641 0
M  V30 3142 O 297.295 -1.28697 1.174 0
M  V30 3143 C 294.427 -2.44136 2.3793 0
M  V30 3144 H 295.62 -0.713662 2.91285 0
M  V30 3145 H 293.173 -0.335404 1.52659 0
M  V30 3146 H 293.908 -2.86972 1.51055 0
M  V30 3147 H 293.693 -2.28548 3.18603 0
M  V30 3148 H 295.183 -3.16277 2.72688 0
M  V30 3149 N 295.62 -1.53406 -0.361157 0
M  V30 3150 C 296.845 -1.74024 -1.12829 0
M  V30 3151 C 297.27 -0.470069 -1.82132 0
M  V30 3152 O 296.628 0.57619 -1.719 0
M  V30 3153 C 296.676 -2.90903 -2.13091 0
M  V30 3154 O 295.78 -2.59821 -3.20261 0
M  V30 3155 H 295.121 -0.577804 -0.327168 0
M  V30 3156 H 297.651 -2.00307 -0.41693 0
M  V30 3157 H 297.661 -3.17194 -2.56616 0
M  V30 3158 H 296.336 -3.83034 -1.62042 0
M  V30 3159 H 294.913 -2.44362 -2.81677 0
M  V30 3160 N 297.098 0.621204 -1.44841 0
M  V30 3161 C 298.347 1.37658 -1.47422 0
M  V30 3162 C 298.66 1.95264 -0.114629 0
M  V30 3163 O 299.866 2.71494 -0.0180199 0
M  V30 3164 C 298.322 2.49285 -2.59586 0
M  V30 3165 C 297.93 1.98149 -4.01797 0
M  V30 3166 C 299.674 3.26409 -2.71399 0
M  V30 3167 C 297.581 3.07178 -5.05367 0
M  V30 3168 H 296.511 0.517344 -0.548517 0
M  V30 3169 H 299.162 0.667257 -1.70938 0
M  V30 3170 H 297.544 3.22839 -2.29328 0
M  V30 3171 H 298.718 1.31395 -4.41669 0
M  V30 3172 H 297.033 1.33812 -3.94314 0
M  V30 3173 H 299.63 4.07706 -3.45948 0
M  V30 3174 H 299.973 3.76535 -1.77559 0
M  V30 3175 H 300.506 2.5995 -3.01116 0
M  V30 3176 H 297.245 2.61985 -6.00869 0
M  V30 3177 H 296.765 3.72542 -4.70077 0
M  V30 3178 H 298.444 3.71789 -5.29511 0
M  V30 3179 N 298.576 1.31904 0.862503 0
M  V30 3180 C 299.524 1.20125 1.9918 0
M  V30 3181 C 300.518 0.107824 1.69056 0
M  V30 3182 O 301.724 0.270223 1.7796 0
M  V30 3183 H 298.099 0.372148 0.65346 0
M  V30 3184 H 300.07 2.15652 2.06244 0
M  V30 3185 C 298.819 0.933099 3.34946 0
M  V30 3186 H 298.142 1.76664 3.5865 0
M  V30 3187 H 299.582 0.890892 4.14535 0
M  V30 3188 C 298.041 -0.364172 3.34926 0
M  V30 3189 O 298.571 -1.37858 3.77304 0
M  V30 3190 N 296.777 -0.383362 2.8806 0
M  V30 3191 H 296.324 0.442651 2.53768 0
M  V30 3192 H 296.282 -1.25123 2.8843 0
M  V30 3193 N 300.054 -1.07777 1.14986 0
M  V30 3194 C 300.964 -2.18404 0.856546 0
M  V30 3195 C 301.98 -1.73211 -0.165485 0
M  V30 3196 O 303.156 -2.01399 0.00755219 0
M  V30 3197 C 300.221 -3.44977 0.34526 0
M  V30 3198 C 299.282 -4.0476 1.43065 0
M  V30 3199 C 298.515 -5.25291 0.943663 0
M  V30 3200 O 298.738 -5.70004 -0.212426 0
M  V30 3201 O 297.672 -5.76638 1.72547 0
M  V30 3202 H 301.498 -2.45978 1.78125 0
M  V30 3203 H 299.083 -1.17033 0.928631 0
M  V30 3204 H 300.965 -4.21348 0.0663671 0
M  V30 3205 H 299.64 -3.18965 -0.551631 0
M  V30 3206 H 298.547 -3.29949 1.76309 0
M  V30 3207 H 299.88 -4.35035 2.30229 0
M  V30 3208 N 301.532 -0.945985 -1.26051 0
M  V30 3209 C 302.495 -0.463897 -2.24456 0
M  V30 3210 C 303.495 0.427655 -1.55009 0
M  V30 3211 O 304.685 0.226157 -1.72726 0
M  V30 3212 C 301.817 0.330812 -3.39291 0
M  V30 3213 H 303.01 -1.33357 -2.68619 0
M  V30 3214 H 300.563 -0.728416 -1.38289 0
M  V30 3215 H 301.298 1.21852 -3.00537 0
M  V30 3216 H 301.083 -0.308679 -3.90883 0
M  V30 3217 H 302.573 0.657865 -4.12386 0
M  V30 3218 N 303.011 1.40521 -0.713556 0
M  V30 3219 C 303.941 2.33381 -0.0743864 0
M  V30 3220 C 304.922 1.52784 0.747735 0
M  V30 3221 O 306.107 1.81258 0.697071 0
M  V30 3222 C 303.237 3.36748 0.849598 0
M  V30 3223 C 302.191 4.27793 0.133247 0
M  V30 3224 C 301.517 5.21679 1.17281 0
M  V30 3225 C 302.817 5.12415 -1.01134 0
M  V30 3226 H 304.511 2.87081 -0.850007 0
M  V30 3227 H 302.057 1.38034 -0.410201 0
M  V30 3228 H 304.01 4.00648 1.30612 0
M  V30 3229 H 302.734 2.81439 1.65709 0
M  V30 3230 H 301.393 3.65342 -0.303426 0
M  V30 3231 H 301.041 4.62677 1.9733 0
M  V30 3232 H 300.741 5.83435 0.698397 0
M  V30 3233 H 302.265 5.88456 1.62947 0
M  V30 3234 H 303.679 5.69781 -0.634274 0
M  V30 3235 H 302.076 5.83203 -1.41399 0
M  V30 3236 H 303.146 4.48514 -1.84292 0
M  V30 3237 N 304.489 0.459591 1.5075 0
M  V30 3238 C 305.437 -0.354678 2.2988 0
M  V30 3239 C 306.431 -1.00086 1.36672 0
M  V30 3240 O 307.637 -0.933277 1.53915 0
M  V30 3241 H 304.012 -0.13321 0.740107 0
M  V30 3242 H 305.983 0.333269 2.96533 0
M  V30 3243 C 304.732 -1.43073 3.169 0
M  V30 3244 H 304.055 -0.942882 3.88523 0
M  V30 3245 H 305.495 -1.97328 3.75284 0
M  V30 3246 C 303.954 -2.42633 2.33732 0
M  V30 3247 O 304.484 -3.47658 2.01238 0
M  V30 3248 N 302.69 -2.14066 1.9653 0
M  V30 3249 H 302.237 -1.28685 2.23155 0
M  V30 3250 H 302.195 -2.80917 1.41185 0
M  V30 3251 N 305.967 -1.56429 0.191757 0
M  V30 3252 C 306.915 -2.20273 -0.747174 0
M  V30 3253 C 307.909 -1.17288 -1.22229 0
M  V30 3254 O 309.115 -1.35441 -1.18557 0
M  V30 3255 H 305.49 -0.705885 -0.259289 0
M  V30 3256 H 307.461 -2.97826 -0.184963 0
M  V30 3257 C 306.21 -2.87356 -1.95759 0
M  V30 3258 H 305.533 -3.66341 -1.60106 0
M  V30 3259 H 306.973 -3.3547 -2.59299 0
M  V30 3260 C 305.432 -1.88213 -2.79423 0
M  V30 3261 O 305.962 -1.38033 -3.7724 0
M  V30 3262 N 304.168 -1.56516 -2.44849 0
M  V30 3263 H 303.715 -1.97516 -1.65364 0
M  V30 3264 H 303.673 -0.904369 -3.01112 0
M  V30 3265 N 307.445 0.0818655 -1.57387 0
M  V30 3266 C 308.393 1.11712 -2.04018 0
M  V30 3267 C 309.387 1.40683 -0.94364 0
M  V30 3268 O 310.593 1.40209 -1.12878 0
M  V30 3269 H 306.968 0.377542 -0.650358 0
M  V30 3270 H 308.939 0.697614 -2.90131 0
M  V30 3271 C 307.688 2.42537 -2.49141 0
M  V30 3272 H 307.011 2.21092 -3.33104 0
M  V30 3273 H 308.451 3.13446 -2.85531 0
M  V30 3274 C 306.91 3.0778 -1.37014 0
M  V30 3275 O 307.44 3.95436 -0.706621 0
M  V30 3276 N 305.646 2.68242 -1.11779 0
M  V30 3277 H 305.193 1.97052 -1.65917 0
M  V30 3278 H 305.151 3.1222 -0.369594 0
M  V30 3279 N 308.923 1.53595 0.353017 0
M  V30 3280 C 310.171 1.70049 1.09215 0
M  V30 3281 C 310.492 0.461406 1.89463 0
M  V30 3282 O 309.762 -0.524633 1.88744 0
M  V30 3283 H 308.342 0.626912 0.40619 0
M  V30 3284 H 311.004 1.90822 0.396585 0
M  V30 3285 H 310.1 2.56718 1.77488 0
M  V30 3286 N 310.401 -0.613514 1.45168 0
M  V30 3287 C 311.65 -1.36874 1.4815 0
M  V30 3288 C 311.963 -1.952 0.124982 0
M  V30 3289 O 313.169 -2.71481 0.0324176 0
M  V30 3290 C 311.625 -2.47905 2.60904 0
M  V30 3291 C 311.233 -1.96016 4.02842 0
M  V30 3292 C 312.977 -3.24965 2.73126 0
M  V30 3293 C 310.884 -3.04494 5.06988 0
M  V30 3294 H 309.814 -0.514428 0.551253 0
M  V30 3295 H 312.465 -0.658182 1.7129 0
M  V30 3296 H 310.847 -3.21618 2.31037 0
M  V30 3297 H 312.021 -1.29051 4.4236 0
M  V30 3298 H 310.336 -1.31719 3.95018 0
M  V30 3299 H 312.933 -4.05865 3.48106 0
M  V30 3300 H 313.276 -3.75588 1.79553 0
M  V30 3301 H 313.809 -2.5835 3.0249 0
M  V30 3302 H 310.548 -2.58795 6.0225 0
M  V30 3303 H 310.068 -3.70044 4.72046 0
M  V30 3304 H 311.747 -3.68976 5.31475 0
M  V30 3305 N 311.879 -1.3236 -0.855495 0
M  V30 3306 C 312.809 -1.23833 -1.97958 0
M  V30 3307 C 313.79 -0.122361 -1.69659 0
M  V30 3308 O 314.975 -0.30939 -1.9172 0
M  V30 3309 C 312.105 -0.959772 -3.33775 0
M  V30 3310 C 311.059 -2.03689 -3.76424 0
M  V30 3311 C 310.385 -1.61075 -5.09862 0
M  V30 3312 C 311.685 -3.4518 -3.9198 0
M  V30 3313 H 313.379 -2.1788 -2.0535 0
M  V30 3314 H 310.925 -1.04891 -0.986605 0
M  V30 3315 H 312.878 -0.886678 -4.11966 0
M  V30 3316 H 311.602 0.0163404 -3.26596 0
M  V30 3317 H 310.261 -2.10012 -3.00484 0
M  V30 3318 H 309.909 -0.622107 -4.99138 0
M  V30 3319 H 309.609 -2.33143 -5.39368 0
M  V30 3320 H 311.133 -1.55201 -5.90546 0
M  V30 3321 H 312.547 -3.4145 -4.60526 0
M  V30 3322 H 310.944 -4.1559 -4.32903 0
M  V30 3323 H 312.014 -3.84903 -2.94919 0
M  V30 3324 N 313.357 1.07166 -1.15556 0
M  V30 3325 C 314.582 1.84053 -0.955988 0
M  V30 3326 C 315.007 1.81586 0.490739 0
M  V30 3327 O 314.365 1.21018 1.34997 0
M  V30 3328 C 314.413 3.28957 -1.47714 0
M  V30 3329 O 313.517 4.06795 -0.677593 0
M  V30 3330 H 312.858 0.569842 -0.340847 0
M  V30 3331 H 315.388 1.35178 -1.53584 0
M  V30 3332 H 315.398 3.79788 -1.4908 0
M  V30 3333 H 314.073 3.30068 -2.53037 0
M  V30 3334 H 312.65 3.6561 -0.733721 0
M  V30 3335 N 314.835 0.952656 1.25548 0
M  V30 3336 C 316.06 0.623025 1.97821 0
M  V30 3337 C 316.485 -0.7976 1.70352 0
M  V30 3338 O 315.843 -1.53905 0.958283 0
M  V30 3339 C 315.891 0.885532 3.49558 0
M  V30 3340 O 314.995 -0.0366641 4.12384 0
M  V30 3341 H 314.336 0.237082 0.620232 0
M  V30 3342 H 316.866 1.27871 1.59719 0
M  V30 3343 H 316.876 0.811009 3.99858 0
M  V30 3344 H 315.551 1.92094 3.6888 0
M  V30 3345 H 314.128 0.0898954 3.72792 0
M  V30 3346 N 316.313 -1.40141 0.720998 0
M  V30 3347 C 317.559 -2.01084 0.263231 0
M  V30 3348 C 317.892 -1.57052 -1.14229 0
M  V30 3349 O 317.167 -0.793027 -1.77599 0
M  V30 3350 C 317.45 -3.58401 0.349344 0
M  V30 3351 C 317.303 -4.12491 1.79363 0
M  V30 3352 C 318.622 -4.39231 -0.276351 0
M  V30 3353 H 315.741 -0.730572 0.0971228 0
M  V30 3354 H 318.383 -1.66543 0.914518 0
M  V30 3355 H 316.533 -3.87958 -0.205165 0
M  V30 3356 H 318.205 -3.93711 2.40394 0
M  V30 3357 H 316.448 -3.66576 2.31958 0
M  V30 3358 H 317.119 -5.21646 1.80524 0
M  V30 3359 H 319.595 -4.15637 0.196184 0
M  V30 3360 H 318.471 -5.48586 -0.185681 0
M  V30 3361 H 318.732 -4.20643 -1.36059 0
M  V30 3362 N 317.792 -0.46758 -1.50504 0
M  V30 3363 C 319.04 0.0884469 -2.01906 0
M  V30 3364 C 319.361 1.40532 -1.35188 0
M  V30 3365 O 318.631 1.89515 -0.496079 0
M  V30 3366 H 317.211 0.0356765 -0.746148 0
M  V30 3367 H 319.873 -0.6172 -1.84869 0
M  V30 3368 H 318.969 0.2425 -3.11156 0
M  V30 3369 N 319.27 1.56325 -0.20005 0
M  V30 3370 C 320.217 2.1932 0.718833 0
M  V30 3371 C 321.187 1.14198 1.20615 0
M  V30 3372 O 322.372 1.42469 1.26914 0
M  V30 3373 C 319.512 2.86041 1.93066 0
M  V30 3374 C 318.625 4.05702 1.48425 0
M  V30 3375 C 317.76 4.60266 2.65196 0
M  V30 3376 C 316.799 5.72273 2.17185 0
M  V30 3377 N 315.936 6.21221 3.27152 0
M  V30 3378 H 320.776 2.97486 0.17489 0
M  V30 3379 H 318.313 1.46911 0.0745794 0
M  V30 3380 H 320.271 3.22897 2.64184 0
M  V30 3381 H 318.901 2.1043 2.44783 0
M  V30 3382 H 317.953 3.74475 0.668755 0
M  V30 3383 H 319.265 4.86699 1.09204 0
M  V30 3384 H 318.419 4.99453 3.4443 0
M  V30 3385 H 317.158 3.78386 3.07693 0
M  V30 3386 H 316.163 5.3261 1.36407 0
M  V30 3387 H 317.388 6.55974 1.75713 0
M  V30 3388 H 315.334 5.42263 3.69171 0
M  V30 3389 H 315.251 6.97284 2.92116 0
M  V30 3390 H 316.519 6.65063 4.06585 0
M  V30 3391 N 320.748 -0.0735177 1.57428 0
M  V30 3392 C 321.995 -0.772999 1.87166 0
M  V30 3393 C 322.323 -1.77665 0.791551 0
M  V30 3394 O 321.578 -1.94541 -0.212636 0
M  V30 3395 C 321.877 -1.51799 3.23561 0
M  V30 3396 C 321.543 -0.654484 4.46125 0
M  V30 3397 C 320.205 -0.416511 4.79394 0
M  V30 3398 C 322.557 -0.0555862 5.2117 0
M  V30 3399 C 319.885 0.429869 5.85123 0
M  V30 3400 C 322.237 0.778239 6.27795 0
M  V30 3401 C 320.901 1.0261 6.59566 0
M  V30 3402 H 320.171 -0.282861 0.684888 0
M  V30 3403 H 322.818 -0.0338272 1.9147 0
M  V30 3404 H 321.123 -2.32932 3.1504 0
M  V30 3405 H 322.82 -2.06397 3.43804 0
M  V30 3406 H 319.41 -0.850091 4.20085 0
M  V30 3407 H 323.594 -0.226558 4.95783 0
M  V30 3408 H 318.85 0.630665 6.08139 0
M  V30 3409 H 323.024 1.24906 6.85107 0
M  V30 3410 H 320.651 1.68371 7.4132 0
M  V30 3411 N 322.226 -1.5378 -0.344866 0
M  V30 3412 C 323.451 -1.75211 -1.10977 0
M  V30 3413 C 323.876 -0.48936 -1.81623 0
M  V30 3414 O 323.234 0.557925 -1.72502 0
M  V30 3415 C 323.282 -2.93147 -2.09993 0
M  V30 3416 O 322.386 -2.63203 -3.17487 0
M  V30 3417 H 321.727 -0.581241 -0.321021 0
M  V30 3418 H 324.257 -2.00738 -0.395661 0
M  V30 3419 H 324.267 -3.19898 -2.53237 0
M  V30 3420 H 322.942 -3.84731 -1.5797 0
M  V30 3421 H 321.519 -2.47336 -2.79069 0
M  V30 3422 N 323.704 0.605807 -1.45491 0
M  V30 3423 C 324.932 1.39136 -1.5313 0
M  V30 3424 C 325.347 1.88082 -0.164507 0
M  V30 3425 O 324.704 1.62316 0.834247 0
M  V30 3426 C 324.755 2.59463 -2.51716 0
M  V30 3427 O 324.476 2.12551 -3.83084 0
M  V30 3428 C 325.977 3.52301 -2.6907 0
M  V30 3429 H 323.197 0.425849 -0.51855 0
M  V30 3430 H 325.741 0.73865 -1.90694 0
M  V30 3431 H 323.896 3.20772 -2.17219 0
M  V30 3432 H 324.31 2.90744 -4.36541 0
M  V30 3433 H 325.784 4.33271 -3.42024 0
M  V30 3434 H 326.261 4.02757 -1.75167 0
M  V30 3435 H 326.867 2.96845 -3.04571 0
M  V30 3436 N 325.182 1.32811 0.848464 0
M  V30 3437 C 326.428 1.23907 1.60546 0
M  V30 3438 C 326.761 -0.197161 1.93197 0
M  V30 3439 O 326.036 -1.13596 1.5788 0
M  V30 3440 C 326.319 2.10489 2.92175 0
M  V30 3441 C 326.172 3.62522 2.66266 0
M  V30 3442 C 327.491 1.97075 3.93509 0
M  V30 3443 H 324.61 0.451459 0.58254 0
M  V30 3444 H 327.252 1.62818 0.979296 0
M  V30 3445 H 325.402 1.77434 3.45614 0
M  V30 3446 H 327.074 4.05821 2.19334 0
M  V30 3447 H 325.317 3.84879 2.00126 0
M  V30 3448 H 325.988 4.18437 3.6002 0
M  V30 3449 H 328.464 2.26045 3.49346 0
M  V30 3450 H 327.34 2.59923 4.83457 0
M  V30 3451 H 327.601 0.940186 4.31987 0
M  V30 3452 N 326.66 -1.06551 1.16123 0
M  V30 3453 C 327.608 -2.16063 0.861371 0
M  V30 3454 C 328.602 -1.6856 -0.168517 0
M  V30 3455 O 329.808 -1.79986 -0.0227579 0
M  V30 3456 H 326.183 -0.705278 0.260934 0
M  V30 3457 H 328.154 -2.38567 1.79244 0
M  V30 3458 C 326.903 -3.45661 0.376018 0
M  V30 3459 H 326.226 -3.82604 1.15992 0
M  V30 3460 H 327.666 -4.23504 0.204951 0
M  V30 3461 C 326.125 -3.24546 -0.903954 0
M  V30 3462 O 326.655 -3.49865 -1.97377 0
M  V30 3463 N 324.861 -2.77992 -0.846679 0
M  V30 3464 H 324.408 -2.57589 0.0241017 0
M  V30 3465 H 324.366 -2.64244 -1.70359 0
M  V30 3466 N 328.138 -0.959301 -1.25041 0
M  V30 3467 C 329.549 -0.65667 -1.74771 0
M  V30 3468 C 329.9 0.827852 -1.77879 0
M  V30 3469 O 329.025 1.64783 -1.40269 0
M  V30 3470 C 329.62 -1.1853 -3.1739 0
M  V30 3471 C 328.179 -0.932734 -3.6466 0
M  V30 3472 C 327.326 -1.32558 -2.43564 0
M  V30 3473 H 330.277 -1.13558 -1.10862 0
M  V30 3474 H 330.298 -0.547582 -3.76539 0
M  V30 3475 H 329.81 -2.26576 -3.15095 0
M  V30 3476 H 327.911 0.13257 -3.72364 0
M  V30 3477 H 328.024 -1.57248 -4.52559 0
M  V30 3478 H 326.388 -0.743956 -2.43593 0
M  V30 3479 H 327.171 -2.41537 -2.43957 0
M  V30 3480 N 329.616 1.39756 -0.72842 0
M  V30 3481 C 330.862 2.00942 -0.273892 0
M  V30 3482 C 331.195 1.57656 1.13394 0
M  V30 3483 O 330.47 0.802434 1.77176 0
M  V30 3484 C 330.753 3.58211 -0.368346 0
M  V30 3485 C 330.606 4.11534 -1.81548 0
M  V30 3486 C 331.925 4.39372 0.253054 0
M  V30 3487 H 329.044 0.730047 -0.100996 0
M  V30 3488 H 331.686 1.66056 -0.923337 0
M  V30 3489 H 329.836 3.88061 0.184588 0
M  V30 3490 H 331.508 3.92431 -2.42478 0
M  V30 3491 H 329.751 3.65341 -2.33898 0
M  V30 3492 H 330.422 5.20682 -1.83288 0
M  V30 3493 H 332.898 4.15527 -0.218224 0
M  V30 3494 H 331.774 5.48677 0.156585 0
M  V30 3495 H 332.035 4.21358 1.33826 0
M  V30 3496 N 331.094 0.475555 1.50254 0
M  V30 3497 C 332.324 -0.0753399 2.06463 0
M  V30 3498 C 332.732 -1.33661 1.33908 0
M  V30 3499 O 332.075 -1.79219 0.403257 0
M  V30 3500 C 332.137 -0.424921 3.5698 0
M  V30 3501 C 331.801 0.734965 4.51051 0
M  V30 3502 C 332.798 1.61827 4.94073 0
M  V30 3503 C 330.483 0.926557 4.9368 0
M  V30 3504 C 332.477 2.67754 5.78434 0
M  V30 3505 C 330.164 1.98904 5.77824 0
M  V30 3506 C 331.162 2.8629 6.20103 0
M  V30 3507 O 330.85 3.90708 7.02568 0
M  V30 3508 H 330.582 0.00576308 0.675975 0
M  V30 3509 H 333.136 0.664662 1.94349 0
M  V30 3510 H 331.366 -1.21817 3.67012 0
M  V30 3511 H 333.055 -0.911422 3.95535 0
M  V30 3512 H 333.821 1.48196 4.61804 0
M  V30 3513 H 329.7 0.25584 4.6029 0
M  V30 3514 H 333.244 3.35992 6.11355 0
M  V30 3515 H 329.141 2.12541 6.09505 0
M  V30 3516 H 329.909 3.87751 7.20827 0
M  V30 3517 N 332.573 -1.56217 0.208337 0
M  V30 3518 C 333.819 -1.98242 -0.427552 0
M  V30 3519 C 334.152 -1.09554 -1.60348 0
M  V30 3520 O 333.427 -0.15035 -1.93918 0
M  V30 3521 C 333.71 -3.4931 -0.874907 0
M  V30 3522 C 333.563 -4.48773 0.303751 0
M  V30 3523 C 334.882 -4.04424 -1.73577 0
M  V30 3524 H 332.001 -0.720744 -0.153936 0
M  V30 3525 H 334.643 -1.87586 0.30192 0
M  V30 3526 H 332.793 -3.58522 -1.49648 0
M  V30 3527 H 334.465 -4.51586 0.941682 0
M  V30 3528 H 332.708 -4.23194 0.953375 0
M  V30 3529 H 333.379 -5.51976 -0.0519883 0
M  V30 3530 H 335.855 -3.98075 -1.21143 0
M  V30 3531 H 334.731 -5.1047 -2.01771 0
M  V30 3532 H 334.992 -3.50494 -2.69456 0
M  V30 3533 N 334.051 0.0651679 -1.57465 0
M  V30 3534 C 335.299 0.761555 -1.87202 0
M  V30 3535 C 335.62 1.77778 -0.801243 0
M  V30 3536 O 334.89 1.95166 0.16937 0
M  V30 3537 H 333.47 0.284251 -0.690804 0
M  V30 3538 H 336.132 0.0396827 -1.9486 0
M  V30 3539 H 335.228 1.27365 -2.84929 0
M  V30 3540 N 335.529 1.53961 0.336706 0
M  V30 3541 C 336.477 1.83136 1.43401 0
M  V30 3542 C 337.471 0.702313 1.54156 0
M  V30 3543 O 338.677 0.885765 1.56698 0
M  V30 3544 H 335.052 0.580309 0.478273 0
M  V30 3545 H 337.023 2.74925 1.16012 0
M  V30 3546 C 335.772 2.06385 2.79822 0
M  V30 3547 H 335.095 2.92718 2.72316 0
M  V30 3548 H 336.535 2.30761 3.55704 0
M  V30 3549 C 334.994 0.851414 3.25964 0
M  V30 3550 O 335.524 0.0541904 4.01663 0
M  V30 3551 N 333.73 0.66672 2.82848 0
M  V30 3552 H 333.277 1.31665 2.21409 0
M  V30 3553 H 333.235 -0.143032 3.14074 0
M  V30 3554 N 337.007 -0.598083 1.45811 0
M  V30 3555 C 338.253 -1.35882 1.50545 0
M  V30 3556 C 338.586 -1.93616 0.150445 0
M  V30 3557 O 337.861 -1.75604 -0.83628 0
M  V30 3558 C 338.144 -2.49966 2.59208 0
M  V30 3559 C 337.997 -1.97367 4.04186 0
M  V30 3560 C 339.316 -3.52068 2.64076 0
M  V30 3561 H 336.435 -0.492717 0.548087 0
M  V30 3562 H 339.077 -0.673319 1.77669 0
M  V30 3563 H 337.227 -3.08443 2.3621 0
M  V30 3564 H 338.899 -1.43466 4.38423 0
M  V30 3565 H 337.142 -1.283 4.14393 0
M  V30 3566 H 337.813 -2.79649 4.75921 0
M  V30 3567 H 340.289 -3.03448 2.84708 0
M  V30 3568 H 339.165 -4.2937 3.41954 0
M  V30 3569 H 339.426 -4.08304 1.69531 0
M  V30 3570 N 338.485 -1.33259 -0.841409 0
M  V30 3571 C 339.448 -1.23221 -1.9326 0
M  V30 3572 C 340.448 -0.151895 -1.60081 0
M  V30 3573 O 341.638 -0.403246 -1.69468 0
M  V30 3574 C 338.77 -0.898123 -3.28856 0
M  V30 3575 H 339.963 -2.2021 -2.03587 0
M  V30 3576 H 337.516 -1.17281 -1.03319 0
M  V30 3577 H 338.251 0.0693841 -3.24226 0
M  V30 3578 H 338.036 -1.67934 -3.54317 0
M  V30 3579 H 339.526 -0.852563 -4.08805 0
M  V30 3580 N 339.963 1.05934 -1.16686 0
M  V30 3581 C 341.209 1.79211 -0.962023 0
M  V30 3582 C 341.564 1.85667 0.504545 0
M  V30 3583 O 340.857 1.33991 1.36956 0
M  V30 3584 C 341.051 3.23105 -1.52767 0
M  V30 3585 C 340.88 3.30673 -3.04771 0
M  V30 3586 C 339.65 3.40395 -3.73442 0
M  V30 3587 C 341.848 3.20234 -4.02436 0
M  V30 3588 N 339.83 3.37015 -5.13122 0
M  V30 3589 C 341.201 3.24138 -5.28521 0
M  V30 3590 C 343.256 3.04143 -3.9421 0
M  V30 3591 C 341.959 3.13607 -6.47336 0
M  V30 3592 C 343.985 2.94951 -5.12599 0
M  V30 3593 C 343.347 2.99481 -6.37566 0
M  V30 3594 H 339.446 0.668442 -0.405844 0
M  V30 3595 H 342.03 1.26341 -1.48142 0
M  V30 3596 H 340.201 3.74364 -1.03471 0
M  V30 3597 H 341.933 3.84579 -1.26021 0
M  V30 3598 H 338.688 3.45344 -3.2409 0
M  V30 3599 H 339.112 3.38815 -5.86117 0
M  V30 3600 H 343.754 2.99484 -2.98445 0
M  V30 3601 H 341.472 3.17022 -7.43319 0
M  V30 3602 H 345.058 2.83583 -5.08008 0
M  V30 3603 H 343.938 2.92431 -7.27636 0
M  V30 3604 N 341.441 0.965919 1.2453 0
M  V30 3605 C 342.404 0.499547 2.2369 0
M  V30 3606 C 343.404 -0.40294 1.5567 0
M  V30 3607 O 344.594 -0.19865 1.73064 0
M  V30 3608 C 341.726 -0.276792 3.39774 0
M  V30 3609 H 342.919 1.37613 2.66463 0
M  V30 3610 H 340.472 0.750324 1.37112 0
M  V30 3611 H 341.207 -1.17055 3.02438 0
M  V30 3612 H 340.992 0.370826 3.90343 0
M  V30 3613 H 342.482 -0.592175 4.1338 0
M  V30 3614 N 342.919 -1.39368 0.735821 0
M  V30 3615 C 343.869 -2.27885 0.0724287 0
M  V30 3616 C 344.853 -1.44301 -0.711756 0
M  V30 3617 O 346.045 -1.67206 -0.58063 0
M  V30 3618 C 343.174 -3.33029 -0.833454 0
M  V30 3619 C 342.26 -4.24078 -0.0433749 0
M  V30 3620 N 342.651 -4.96138 0.983903 0
M  V30 3621 C 340.949 -4.45164 -0.272905 0
M  V30 3622 C 341.65 -5.63069 1.4604 0
M  V30 3623 N 340.626 -5.37991 0.778857 0
M  V30 3624 H 344.428 -2.81052 0.859467 0
M  V30 3625 H 341.942 -1.5206 0.570227 0
M  V30 3626 H 343.939 -3.95311 -1.32419 0
M  V30 3627 H 342.599 -2.81421 -1.61964 0
M  V30 3628 H 343.61 -4.9958 1.36528 0
M  V30 3629 H 340.287 -4.04497 -1.03383 0
M  V30 3630 H 341.677 -6.30755 2.31511 0
M  V30 3631 N 344.397 -0.483516 -1.5 0
M  V30 3632 C 345.646 0.0689102 -2.01582 0
M  V30 3633 C 345.959 1.39655 -1.36952 0
M  V30 3634 O 347.165 2.03465 -1.79762 0
M  V30 3635 C 345.621 0.173302 -3.59483 0
M  V30 3636 C 345.229 -1.14665 -4.33077 0
M  V30 3637 C 346.973 0.677024 -4.19066 0
M  V30 3638 C 344.88 -1.00537 -5.82792 0
M  V30 3639 H 343.81 0.0295277 -0.753422 0
M  V30 3640 H 346.461 -0.620295 -1.72698 0
M  V30 3641 H 344.843 0.926569 -3.85007 0
M  V30 3642 H 346.017 -1.91184 -4.19268 0
M  V30 3643 H 344.332 -1.58244 -3.85159 0
M  V30 3644 H 346.929 0.799952 -5.28682 0
M  V30 3645 H 347.272 1.67151 -3.81269 0
M  V30 3646 H 347.805 -0.0192083 -3.97795 0
M  V30 3647 H 344.544 -1.9736 -6.25083 0
M  V30 3648 H 344.064 -0.280776 -5.99142 0
M  V30 3649 H 345.743 -0.677 -6.43448 0
M  V30 3650 N 345.875 1.56104 -0.216619 0
M  V30 3651 C 346.805 2.23063 0.690296 0
M  V30 3652 C 347.786 1.20072 1.20485 0
M  V30 3653 O 348.971 1.48643 1.24976 0
M  V30 3654 C 346.101 2.90672 1.90072 0
M  V30 3655 C 345.055 4.00092 1.5202 0
M  V30 3656 C 344.381 4.54972 2.80899 0
M  V30 3657 C 345.681 5.17398 0.71391 0
M  V30 3658 H 347.375 2.99109 0.132038 0
M  V30 3659 H 344.921 1.43866 0.0620664 0
M  V30 3660 H 346.874 3.36204 2.54057 0
M  V30 3661 H 345.598 2.12066 2.48386 0
M  V30 3662 H 344.257 3.55283 0.903839 0
M  V30 3663 H 343.905 3.73102 3.37348 0
M  V30 3664 H 343.605 5.28817 2.56176 0
M  V30 3665 H 345.129 5.0322 3.45836 0
M  V30 3666 H 346.543 5.59342 1.25735 0
M  V30 3667 H 344.94 5.97444 0.563951 0
M  V30 3668 H 346.01 4.84088 -0.280527 0
M  V30 3669 N 347.353 -0.0568162 1.57498 0
M  V30 3670 C 348.316 -1.05038 2.03715 0
M  V30 3671 C 349.316 -1.30709 0.936577 0
M  V30 3672 O 350.506 -1.26178 1.20103 0
M  V30 3673 C 347.638 -2.39034 2.43055 0
M  V30 3674 H 348.831 -0.651715 2.92733 0
M  V30 3675 H 346.384 -0.302947 1.53336 0
M  V30 3676 H 347.119 -2.83703 1.57108 0
M  V30 3677 H 346.904 -2.21739 3.2338 0
M  V30 3678 H 348.394 -3.10421 2.79336 0
M  V30 3679 N 348.832 -1.54138 -0.328536 0
M  V30 3680 C 349.762 -1.86167 -1.40939 0
M  V30 3681 C 350.743 -0.718044 -1.54202 0
M  V30 3682 O 351.928 -0.971328 -1.68163 0
M  V30 3683 C 349.058 -2.08461 -2.77779 0
M  V30 3684 C 348.012 -3.24299 -2.7931 0
M  V30 3685 C 347.338 -3.31955 -4.19178 0
M  V30 3686 C 348.638 -4.62065 -2.43502 0
M  V30 3687 H 350.332 -2.76689 -1.14383 0
M  V30 3688 H 347.878 -1.33132 -0.548806 0
M  V30 3689 H 349.831 -2.29453 -3.53454 0
M  V30 3690 H 348.555 -1.14684 -3.05802 0
M  V30 3691 H 347.214 -3.03187 -2.0609 0
M  V30 3692 H 346.862 -2.35745 -4.44335 0
M  V30 3693 H 346.562 -4.09805 -4.2111 0
M  V30 3694 H 348.086 -3.55175 -4.96672 0
M  V30 3695 H 349.5 -4.8297 -3.08889 0
M  V30 3696 H 347.897 -5.42429 -2.56693 0
M  V30 3697 H 348.967 -4.64652 -1.38659 0
M  V30 3698 N 350.31 0.590341 -1.46126 0
M  V30 3699 C 351.726 0.912917 -1.30912 0
M  V30 3700 C 351.926 1.99616 -0.274893 0
M  V30 3701 O 350.982 2.50397 0.325197 0
M  V30 3702 C 352.295 1.3375 -2.69317 0
M  V30 3703 C 353.843 1.45077 -2.77348 0
M  V30 3704 C 354.318 1.90904 -4.16317 0
M  V30 3705 N 355.809 1.9811 -4.18696 0
M  V30 3706 C 356.544 2.34828 -5.23109 0
M  V30 3707 N 356.04 2.70393 -6.37856 0
M  V30 3708 N 357.833 2.35317 -5.10473 0
M  V30 3709 H 349.984 -0.125358 -2.1203 0
M  V30 3710 H 352.247 0.00658481 -0.947977 0
M  V30 3711 H 351.953 0.615614 -3.4627 0
M  V30 3712 H 351.827 2.30058 -2.9892 0
M  V30 3713 H 354.214 2.16353 -2.00687 0
M  V30 3714 H 354.295 0.4704 -2.51438 0
M  V30 3715 H 353.939 1.20209 -4.9347 0
M  V30 3716 H 353.869 2.89886 -4.39629 0
M  V30 3717 H 356.36 1.73146 -3.359 0
M  V30 3718 H 356.673 2.97341 -7.13308 0
M  V30 3719 H 355.018 2.68048 -6.41229 0
M  V30 3720 H 358.209 2.0695 -4.19868 0
M  V30 3721 H 358.382 2.63605 -5.9196 0
M  V30 3722 N 351.788 1.33704 0.83433 0
M  V30 3723 C 352.751 1.24244 1.92603 0
M  V30 3724 C 353.751 0.160383 1.59998 0
M  V30 3725 O 354.941 0.412228 1.69252 0
M  V30 3726 C 352.073 0.91555 3.28376 0
M  V30 3727 H 353.266 2.21287 2.02416 0
M  V30 3728 H 350.819 1.17827 1.02696 0
M  V30 3729 H 351.554 -0.0521886 3.24258 0
M  V30 3730 H 351.339 1.69811 3.53422 0
M  V30 3731 H 352.829 0.874231 4.08347 0
M  V30 3732 N 353.266 -1.05314 1.17247 0
M  V30 3733 C 354.196 -2.1498 0.911362 0
M  V30 3734 C 355.177 -1.69471 -0.146169 0
M  V30 3735 O 356.362 -1.942 0.003812 0
M  V30 3736 C 353.492 -3.4472 0.422528 0
M  V30 3737 C 352.446 -4.03789 1.4191 0
M  V30 3738 C 351.772 -5.28858 0.788274 0
M  V30 3739 C 353.072 -4.41418 2.7919 0
M  V30 3740 H 354.766 -2.3708 1.82848 0
M  V30 3741 H 352.312 -1.13938 0.880569 0
M  V30 3742 H 354.265 -4.20787 0.227289 0
M  V30 3743 H 352.989 -3.22269 -0.530123 0
M  V30 3744 H 351.648 -3.2979 1.60106 0
M  V30 3745 H 351.296 -5.02709 -0.171173 0
M  V30 3746 H 350.996 -5.69338 1.45353 0
M  V30 3747 H 352.52 -6.07612 0.603282 0
M  V30 3748 H 353.934 -5.08524 2.64719 0
M  V30 3749 H 352.331 -4.92913 3.42282 0
M  V30 3750 H 353.401 -3.51819 3.33693 0
M  V30 3751 N 354.744 -0.972509 -1.24016 0
M  V30 3752 C 355.676 -0.464375 -2.24446 0
M  V30 3753 C 356.689 0.4295 -1.57032 0
M  V30 3754 O 357.878 0.234902 -1.76948 0
M  V30 3755 C 354.978 0.348385 -3.37105 0
M  V30 3756 C 354.151 -0.53673 -4.34094 0
M  V30 3757 C 353.21 0.220838 -5.25736 0
M  V30 3758 O 352.236 -0.386867 -5.67884 0
M  V30 3759 N 353.438 1.50907 -5.60542 0
M  V30 3760 H 356.203 -1.32788 -2.68677 0
M  V30 3761 H 353.764 -0.844877 -1.38107 0
M  V30 3762 H 355.756 0.863341 -3.95384 0
M  V30 3763 H 354.326 1.11285 -2.92121 0
M  V30 3764 H 353.546 -1.23261 -3.74433 0
M  V30 3765 H 354.834 -1.14022 -4.95859 0
M  V30 3766 H 354.232 2.02444 -5.28236 0
M  V30 3767 H 352.789 1.96962 -6.21329 0
M  V30 3768 N 356.222 1.38976 -0.743202 0
M  V30 3769 C 357.499 1.94351 -0.220705 0
M  V30 3770 C 357.879 1.67935 1.2791 0
M  V30 3771 O 357.227 1.01211 2.04862 0
M  V30 3772 C 357.437 3.44426 -0.563171 0
M  V30 3773 C 358.785 4.2144 -0.517046 0
M  V30 3774 O 359.809 3.52661 -0.500846 0
M  V30 3775 O 358.668 5.44032 -0.518806 0
M  V30 3776 H 355.762 0.825879 -0.043047 0
M  V30 3777 H 358.308 1.48429 -0.822618 0
M  V30 3778 H 357.08 3.5712 -1.59941 0
M  V30 3779 H 356.703 3.97543 0.0672883 0
M  V30 3780 N 357.7 0.491464 1.49741 0
M  V30 3781 C 359.111 0.0413169 1.86654 0
M  V30 3782 C 359.462 -1.36985 1.40462 0
M  V30 3783 O 358.587 -2.01917 0.778354 0
M  V30 3784 C 359.182 0.0682023 3.38731 0
M  V30 3785 C 357.741 -0.32656 3.74981 0
M  V30 3786 C 356.888 0.444888 2.73708 0
M  V30 3787 H 359.839 0.704733 1.42194 0
M  V30 3788 H 359.86 -0.729322 3.73445 0
M  V30 3789 H 359.372 1.09539 3.72321 0
M  V30 3790 H 357.473 -1.35734 3.46997 0
M  V30 3791 H 357.586 -0.013741 4.79098 0
M  V30 3792 H 355.95 -0.104062 2.54487 0
M  V30 3793 H 356.733 1.47197 3.10142 0
M  V30 3794 N 359.178 -1.55987 0.224894 0
M  V30 3795 C 360.125 -2.20436 -0.68385 0
M  V30 3796 C 361.095 -1.16102 -1.18783 0
M  V30 3797 O 362.28 -1.4447 -1.24632 0
M  V30 3798 C 359.42 -2.89076 -1.88491 0
M  V30 3799 C 358.533 -4.08012 -1.41951 0
M  V30 3800 C 357.668 -4.64426 -2.5784 0
M  V30 3801 C 356.707 -5.75656 -2.08053 0
M  V30 3802 N 355.844 -6.26347 -3.17227 0
M  V30 3803 H 360.684 -2.97727 -0.12754 0
M  V30 3804 H 358.221 -1.47011 -0.0511978 0
M  V30 3805 H 360.179 -3.27059 -2.59014 0
M  V30 3806 H 358.809 -2.14298 -2.41405 0
M  V30 3807 H 357.861 -3.75492 -0.609095 0
M  V30 3808 H 359.173 -4.88375 -1.01447 0
M  V30 3809 H 358.327 -5.04869 -3.3644 0
M  V30 3810 H 357.066 -3.83233 -3.01635 0
M  V30 3811 H 356.071 -5.34712 -1.27916 0
M  V30 3812 H 357.296 -6.58686 -1.65255 0
M  V30 3813 H 355.242 -5.48067 -3.60497 0
M  V30 3814 H 355.159 -7.01843 -2.80986 0
M  V30 3815 H 356.427 -6.71447 -3.95953 0
M  V30 3816 N 360.656 0.0484629 -1.57525 0
M  V30 3817 C 361.603 1.05504 -2.05275 0
M  V30 3818 C 362.573 1.37084 -0.937927 0
M  V30 3819 O 363.758 1.47754 -1.2072 0
M  V30 3820 C 360.898 2.35676 -2.52093 0
M  V30 3821 C 360.011 2.10423 -3.77288 0
M  V30 3822 C 359.146 3.34327 -4.12794 0
M  V30 3823 C 358.185 3.04542 -5.30962 0
M  V30 3824 N 357.322 4.20841 -5.61994 0
M  V30 3825 H 362.162 0.640885 -2.91027 0
M  V30 3826 H 359.699 0.304854 -1.43906 0
M  V30 3827 H 361.657 3.11709 -2.77297 0
M  V30 3828 H 360.287 2.7485 -1.69285 0
M  V30 3829 H 359.339 1.24976 -3.59284 0
M  V30 3830 H 360.651 1.84438 -4.63448 0
M  V30 3831 H 359.805 4.1874 -4.39024 0
M  V30 3832 H 358.544 3.63408 -3.25247 0
M  V30 3833 H 357.549 2.18528 -5.04505 0
M  V30 3834 H 358.774 2.76758 -6.20146 0
M  V30 3835 H 356.72 4.4991 -4.77406 0
M  V30 3836 H 356.637 3.98212 -6.42622 0
M  V30 3837 H 357.905 5.06184 -5.92789 0
M  V30 3838 N 362.134 1.5431 0.320358 0
M  V30 3839 C 363.097 1.83195 1.3774 0
M  V30 3840 C 364.097 0.703906 1.44575 0
M  V30 3841 O 365.287 0.972214 1.44546 0
M  V30 3842 C 362.419 1.99487 2.76438 0
M  V30 3843 H 363.612 2.77642 1.1338 0
M  V30 3844 H 361.165 1.46076 0.556012 0
M  V30 3845 H 361.9 1.07262 3.06048 0
M  V30 3846 H 361.685 2.81575 2.7287 0
M  V30 3847 H 363.175 2.23271 3.52902 0
M  V30 3848 N 363.613 -0.582584 1.46437 0
M  V30 3849 C 365.024 -1.1647 1.45916 0
M  V30 3850 C 365.375 -1.95177 0.200077 0
M  V30 3851 O 364.5 -2.04874 -0.696819 0
M  V30 3852 C 365.095 -2.11885 2.64367 0
M  V30 3853 C 363.654 -2.65421 2.66887 0
M  V30 3854 C 362.801 -1.41294 2.38603 0
M  V30 3855 H 365.752 -0.370514 1.54314 0
M  V30 3856 H 365.773 -2.9535 2.39892 0
M  V30 3857 H 365.285 -1.54573 3.5599 0
M  V30 3858 H 363.386 -3.26602 1.79338 0
M  V30 3859 H 363.499 -3.08147 3.66854 0
M  V30 3860 H 361.863 -1.71109 1.88663 0
M  V30 3861 H 362.646 -0.858125 3.32402 0
M  V30 3862 N 365.091 -1.34144 -0.827227 0
M  V30 3863 C 366.316 -1.29476 -1.62021 0
M  V30 3864 C 366.741 0.129292 -1.87655 0
M  V30 3865 O 366.099 1.08967 -1.449 0
M  V30 3866 C 366.147 -2.08702 -2.94068 0
M  V30 3867 O 365.251 -1.45359 -3.85933 0
M  V30 3868 H 364.592 -0.444881 -0.492927 0
M  V30 3869 H 367.122 -1.76882 -1.02829 0
M  V30 3870 H 367.132 -2.19898 -3.43669 0
M  V30 3871 H 365.807 -3.12241 -2.74734 0
M  V30 3872 H 364.384 -1.42879 -3.44442 0
M  V30 3873 N 366.569 1.04691 -1.17803 0
M  V30 3874 C 367.818 1.77176 -0.963931 0
M  V30 3875 C 368.131 1.88888 0.508015 0
M  V30 3876 O 369.337 2.58164 0.840465 0
M  V30 3877 C 367.793 3.18518 -1.67555 0
M  V30 3878 C 367.401 3.14919 -3.18637 0
M  V30 3879 C 369.145 3.95424 -1.54402 0
M  V30 3880 C 367.052 4.51081 -3.82466 0
M  V30 3881 H 365.982 0.664116 -0.357023 0
M  V30 3882 H 368.633 1.17303 -1.4111 0
M  V30 3883 H 367.015 3.78748 -1.15613 0
M  V30 3884 H 368.189 2.64178 -3.77554 0
M  V30 3885 H 366.504 2.51512 -3.31859 0
M  V30 3886 H 369.101 4.96106 -1.99456 0
M  V30 3887 H 369.444 4.13343 -0.495329 0
M  V30 3888 H 369.977 3.41754 -2.0359 0
M  V30 3889 H 366.716 4.38368 -4.87354 0
M  V30 3890 H 366.236 5.01951 -3.28337 0
M  V30 3891 H 367.915 5.2001 -3.84965 0
M  V30 3892 N 368.047 0.979072 1.23499 0
M  V30 3893 C 369.463 0.687475 1.44034 0
M  V30 3894 C 369.663 -0.746801 1.8715 0
M  V30 3895 O 368.719 -1.51939 2.0167 0
M  V30 3896 C 370.032 1.68127 2.49307 0
M  V30 3897 C 371.58 1.69516 2.63122 0
M  V30 3898 C 372.055 2.67723 3.71603 0
M  V30 3899 N 373.546 2.66233 3.79044 0
M  V30 3900 C 374.281 3.38891 4.62537 0
M  V30 3901 N 373.777 4.21103 5.50131 0
M  V30 3902 N 375.57 3.27661 4.56721 0
M  V30 3903 H 367.721 1.90559 0.938135 0
M  V30 3904 H 369.984 0.821051 0.473897 0
M  V30 3905 H 369.69 2.70693 2.2454 0
M  V30 3906 H 369.564 1.46306 3.4767 0
M  V30 3907 H 371.951 0.676561 2.8724 0
M  V30 3908 H 372.032 1.95404 1.65079 0
M  V30 3909 H 371.676 3.69724 3.48233 0
M  V30 3910 H 371.606 2.39111 4.69184 0
M  V30 3911 H 374.097 2.06568 3.16446 0
M  V30 3912 H 374.41 4.73403 6.10827 0
M  V30 3913 H 372.755 4.25195 5.49759 0
M  V30 3914 H 375.946 2.62887 3.87309 0
M  V30 3915 H 376.119 3.84547 5.21562 0
M  V30 3916 N 369.525 -1.3858 0.750561 0
M  V30 3917 C 370.773 -1.99789 0.30477 0
M  V30 3918 C 371.094 -1.59874 -1.11649 0
M  V30 3919 O 370.364 -0.85417 -1.76297 0
M  V30 3920 H 368.944 -0.738902 0.109694 0
M  V30 3921 H 371.606 -1.69391 0.963983 0
M  V30 3922 H 370.702 -3.09952 0.365499 0
M  V30 3923 N 371.003 -0.499398 -1.49478 0
M  V30 3924 C 371.935 0.316575 -2.27003 0
M  V30 3925 C 372.948 0.932047 -1.33479 0
M  V30 3926 O 374.137 0.815658 -1.58774 0
M  V30 3927 C 371.237 1.46055 -3.05812 0
M  V30 3928 C 370.41 0.952679 -4.26899 0
M  V30 3929 C 369.469 1.97407 -4.87767 0
M  V30 3930 O 368.495 1.54326 -5.4788 0
M  V30 3931 N 369.697 3.30436 -4.77276 0
M  V30 3932 H 372.462 -0.348168 -2.97671 0
M  V30 3933 H 370.023 -0.33185 -1.58463 0
M  V30 3934 H 372.015 2.14135 -3.43407 0
M  V30 3935 H 370.585 2.02948 -2.37762 0
M  V30 3936 H 369.805 0.0968248 -3.94081 0
M  V30 3937 H 371.093 0.59174 -5.05347 0
M  V30 3938 H 370.491 3.68126 -4.29534 0
M  V30 3939 H 369.048 3.94235 -5.19059 0
M  V30 3940 N 372.481 1.55866 -0.233164 0
M  V30 3941 C 373.728 1.98603 0.395374 0
M  V30 3942 C 374.056 1.12105 1.58942 0
M  V30 3943 O 373.311 0.168656 1.94972 0
M  V30 3944 C 373.61 3.46856 0.861724 0
M  V30 3945 C 373.276 4.50348 -0.223066 0
M  V30 3946 C 371.938 4.78371 -0.521038 0
M  V30 3947 C 374.29 5.12355 -0.956124 0
M  V30 3948 C 371.618 5.6568 -1.55638 0
M  V30 3949 C 373.97 6.00786 -1.98089 0
M  V30 3950 C 372.634 6.27148 -2.28565 0
M  V30 3951 H 371.904 0.726739 0.144677 0
M  V30 3952 H 374.551 1.88491 -0.338114 0
M  V30 3953 H 372.856 3.5423 1.67418 0
M  V30 3954 H 374.553 3.77302 1.35809 0
M  V30 3955 H 371.143 4.28596 0.0193234 0
M  V30 3956 H 375.327 4.90765 -0.739166 0
M  V30 3957 H 370.583 5.84365 -1.798 0
M  V30 3958 H 374.757 6.4788 -2.55391 0
M  V30 3959 H 372.384 6.94597 -3.08932 0
M  V30 3960 N 373.959 -0.0401083 1.57549 0
M  V30 3961 C 375.189 -0.744115 1.92734 0
M  V30 3962 C 375.597 -1.70005 0.830348 0
M  V30 3963 O 374.94 -1.82576 -0.20286 0
M  V30 3964 C 375.002 -1.56516 3.2364 0
M  V30 3965 C 374.666 -0.7752 4.50377 0
M  V30 3966 C 375.663 -0.0803326 5.19838 0
M  V30 3967 C 373.348 -0.733002 4.96923 0
M  V30 3968 C 375.342 0.646154 6.34116 0
M  V30 3969 C 373.029 -0.00276321 6.111 0
M  V30 3970 C 374.027 0.685585 6.7955 0
M  V30 3971 O 373.715 1.40399 7.91545 0
M  V30 3972 H 373.447 -0.214861 0.640945 0
M  V30 3973 H 376.001 -0.00503675 2.05399 0
M  V30 3974 H 374.231 -2.3478 3.07271 0
M  V30 3975 H 375.92 -2.15076 3.44234 0
M  V30 3976 H 376.686 -0.104035 4.84888 0
M  V30 3977 H 372.565 -1.25827 4.43496 0
M  V30 3978 H 376.109 1.18398 6.87479 0
M  V30 3979 H 372.006 0.0229012 6.45496 0
M  V30 3980 H 372.774 1.31653 8.07843 0
M  V30 3981 N 375.437 -1.54477 -0.31217 0
M  V30 3982 C 376.667 -1.76948 -1.06645 0
M  V30 3983 C 377.075 -0.523593 -1.81811 0
M  V30 3984 O 376.418 0.51578 -1.76311 0
M  V30 3985 C 376.48 -2.91668 -2.10166 0
M  V30 3986 C 376.144 -4.30165 -1.54296 0
M  V30 3987 C 377.141 -5.10603 -0.978793 0
M  V30 3988 C 374.826 -4.76738 -1.58196 0
M  V30 3989 C 376.82 -6.3573 -0.461048 0
M  V30 3990 C 374.507 -6.01831 -1.06034 0
M  V30 3991 C 375.505 -6.81161 -0.500844 0
M  V30 3992 O 375.193 -8.03899 0.0128958 0
M  V30 3993 H 374.925 -0.594088 -0.322546 0
M  V30 3994 H 377.479 -2.02213 -0.360441 0
M  V30 3995 H 375.709 -2.62001 -2.84416 0
M  V30 3996 H 377.398 -3.01817 -2.71406 0
M  V30 3997 H 378.164 -4.75771 -0.941651 0
M  V30 3998 H 374.043 -4.15027 -2.00683 0
M  V30 3999 H 377.587 -6.97596 -0.0236894 0
M  V30 4000 H 373.484 -6.36152 -1.09459 0
M  V30 4001 H 374.252 -8.18437 -0.101457 0
M  V30 4002 N 376.915 0.57481 -1.46744 0
M  V30 4003 C 378.164 1.32898 -1.51727 0
M  V30 4004 C 378.477 1.948 -0.176692 0
M  V30 4005 O 379.683 2.71299 -0.104385 0
M  V30 4006 C 378.139 2.40901 -2.67385 0
M  V30 4007 C 377.747 1.85266 -4.07898 0
M  V30 4008 C 379.491 3.17609 -2.81646 0
M  V30 4009 C 377.398 2.90945 -5.14883 0
M  V30 4010 H 376.328 0.499631 -0.564699 0
M  V30 4011 H 378.979 0.612536 -1.72975 0
M  V30 4012 H 377.361 3.15379 -2.39483 0
M  V30 4013 H 378.535 1.17278 -4.45626 0
M  V30 4014 H 376.85 1.21199 -3.98371 0
M  V30 4015 H 379.447 3.96493 -3.58744 0
M  V30 4016 H 379.79 3.70696 -1.89448 0
M  V30 4017 H 380.323 2.50239 -3.09233 0
M  V30 4018 H 377.062 2.42736 -6.089 0
M  V30 4019 H 376.582 3.57398 -4.81691 0
M  V30 4020 H 378.261 3.54755 -5.41071 0
M  V30 4021 N 378.394 1.34581 0.820102 0
M  V30 4022 C 379.619 1.30333 1.61332 0
M  V30 4023 C 380.044 -0.119339 1.87721 0
M  V30 4024 O 379.402 -1.08197 1.45475 0
M  V30 4025 C 379.45 2.10258 2.92957 0
M  V30 4026 O 378.554 1.47404 3.85157 0
M  V30 4027 H 377.895 0.447488 0.490561 0
M  V30 4028 H 380.425 1.77425 1.01889 0
M  V30 4029 H 380.435 2.21718 3.42498 0
M  V30 4030 H 379.11 3.13693 2.73074 0
M  V30 4031 H 377.687 1.44703 3.43679 0
M  V30 4032 N 379.872 -1.04064 1.18357 0
M  V30 4033 C 381.149 -1.74252 0.888581 0
M  V30 4034 C 381.529 -2.02138 -0.60856 0
M  V30 4035 O 380.877 -1.66656 -1.56327 0
M  V30 4036 C 381.087 -3.0277 1.73584 0
M  V30 4037 C 382.435 -3.76506 1.96286 0
M  V30 4038 O 383.459 -3.12668 1.70637 0
M  V30 4039 O 382.318 -4.91243 2.39464 0
M  V30 4040 H 379.412 -0.758271 0.330082 0
M  V30 4041 H 381.958 -1.1013 1.2911 0
M  V30 4042 H 380.73 -2.78299 2.75073 0
M  V30 4043 H 380.353 -3.74631 1.33183 0
M  V30 4044 N 381.35 -0.985608 -1.22978 0
M  V30 4045 C 382.627 -0.573599 -1.87001 0
M  V30 4046 C 383.007 0.949213 -1.88555 0
M  V30 4047 O 382.355 1.82811 -1.37086 0
M  V30 4048 C 382.565 -1.18564 -3.28243 0
M  V30 4049 C 383.913 -1.28163 -4.04796 0
M  V30 4050 O 384.937 -1.13949 -3.37482 0
M  V30 4051 O 383.796 -1.50832 -5.25273 0
M  V30 4052 H 380.89 -0.193868 -0.803955 0
M  V30 4053 H 383.436 -1.08102 -1.30813 0
M  V30 4054 H 382.208 -2.22758 -3.21706 0
M  V30 4055 H 381.831 -0.663363 -3.92027 0
M  V30 4056 N 382.828 1.3818 -0.7579 0
M  V30 4057 C 384.056 2.04301 -0.326937 0
M  V30 4058 C 384.471 1.57163 1.0462 0
M  V30 4059 O 383.828 0.746626 1.66529 0
M  V30 4060 C 383.879 3.59846 -0.345363 0
M  V30 4061 O 383.6 4.05256 -1.66432 0
M  V30 4062 C 385.101 4.4319 0.098927 0
M  V30 4063 H 382.321 0.656443 -0.139012 0
M  V30 4064 H 384.865 1.76786 -1.02796 0
M  V30 4065 H 383.02 3.86182 0.306955 0
M  V30 4066 H 383.434 4.99709 -1.59345 0
M  V30 4067 H 384.908 5.51989 0.0348745 0
M  V30 4068 H 385.385 4.23947 1.14741 0
M  V30 4069 H 385.991 4.22051 -0.52468 0
M  V30 4070 N 384.306 0.507319 1.49211 0
M  V30 4071 C 385.717 0.0611118 1.866 0
M  V30 4072 C 386.068 -1.35488 1.41907 0
M  V30 4073 O 385.193 -2.0108 0.799726 0
M  V30 4074 C 385.788 0.104125 3.3864 0
M  V30 4075 C 384.347 -0.28677 3.75306 0
M  V30 4076 C 383.494 0.473893 2.73221 0
M  V30 4077 H 386.445 0.719775 1.41439 0
M  V30 4078 H 386.466 -0.689672 3.74198 0
M  V30 4079 H 385.978 1.13482 3.71138 0
M  V30 4080 H 384.079 -1.32046 3.48417 0
M  V30 4081 H 384.192 0.0370745 4.79086 0
M  V30 4082 H 382.556 -0.0770644 2.54583 0
M  V30 4083 H 383.339 1.50478 3.08563 0
M  V30 4084 N 385.784 -1.5574 0.241426 0
M  V30 4085 C 386.734 -2.17803 -0.674233 0
M  V30 4086 C 387.718 -1.13225 -1.14319 0
M  V30 4087 O 388.91 -1.39153 -1.09387 0
M  V30 4088 C 386.039 -2.87682 -1.87333 0
M  V30 4089 C 385.125 -3.99509 -1.42313 0
M  V30 4090 N 385.516 -5.01115 -0.686798 0
M  V30 4091 C 383.814 -4.11964 -1.70885 0
M  V30 4092 C 384.515 -5.79922 -0.454456 0
M  V30 4093 N 383.491 -5.34001 -1.01705 0
M  V30 4094 H 387.293 -2.93718 -0.103447 0
M  V30 4095 H 384.807 -1.62342 0.0435095 0
M  V30 4096 H 386.804 -3.3057 -2.54026 0
M  V30 4097 H 385.464 -2.13269 -2.4484 0
M  V30 4098 H 386.475 -5.16799 -0.337459 0
M  V30 4099 H 383.152 -3.48718 -2.2957 0
M  V30 4100 H 384.542 -6.71768 0.132992 0
M  V30 4101 N 387.262 0.0317525 -1.57568 0
M  V30 4102 C 388.194 1.06073 -2.03178 0
M  V30 4103 C 389.207 1.32627 -0.944132 0
M  V30 4104 O 390.396 1.30162 -1.22148 0
M  V30 4105 C 387.496 2.40297 -2.38978 0
M  V30 4106 C 386.669 2.33137 -3.70089 0
M  V30 4107 C 385.728 3.49787 -3.9311 0
M  V30 4108 O 384.754 3.29403 -4.64201 0
M  V30 4109 N 385.956 4.71562 -3.38541 0
M  V30 4110 H 388.721 0.672006 -2.92069 0
M  V30 4111 H 386.282 0.219745 -1.60402 0
M  V30 4112 H 388.274 3.1705 -2.51518 0
M  V30 4113 H 386.844 2.71024 -1.55771 0
M  V30 4114 H 386.064 1.415 -3.67928 0
M  V30 4115 H 387.352 2.25493 -4.56104 0
M  V30 4116 H 386.75 4.91024 -2.80912 0
M  V30 4117 H 385.307 5.45689 -3.56464 0
M  V30 4118 N 388.74 1.54641 0.303973 0
M  V30 4119 C 389.965 1.78092 1.06292 0
M  V30 4120 C 390.39 0.537342 1.80262 0
M  V30 4121 O 389.748 -0.511993 1.7392 0
M  V30 4122 C 389.796 2.98612 2.02147 0
M  V30 4123 O 388.9 2.71528 3.10397 0
M  V30 4124 H 388.241 0.589548 0.305497 0
M  V30 4125 H 390.771 2.01716 0.3423 0
M  V30 4126 H 390.781 3.265 2.44667 0
M  V30 4127 H 389.456 3.88785 1.47714 0
M  V30 4128 H 388.033 2.54648 2.72413 0
M  V30 4129 N 390.218 -0.567019 1.47046 0
M  V30 4130 C 391.448 -1.34831 1.56538 0
M  V30 4131 C 391.856 -1.8802 0.21101 0
M  V30 4132 O 391.199 -1.65152 -0.804387 0
M  V30 4133 C 391.261 -2.56139 2.52256 0
M  V30 4134 C 390.925 -2.24307 3.98165 0
M  V30 4135 C 391.922 -1.82192 4.86931 0
M  V30 4136 C 389.607 -2.35968 4.43423 0
M  V30 4137 C 391.601 -1.52153 6.18973 0
M  V30 4138 C 389.288 -2.05542 5.75496 0
M  V30 4139 C 390.286 -1.63701 6.63092 0
M  V30 4140 O 389.974 -1.33657 7.92711 0
M  V30 4141 H 389.706 -0.417683 0.531523 0
M  V30 4142 H 392.26 -0.694726 1.93294 0
M  V30 4143 H 390.49 -3.24356 2.10548 0
M  V30 4144 H 392.179 -3.18214 2.51982 0
M  V30 4145 H 392.945 -1.72684 4.53217 0
M  V30 4146 H 388.824 -2.67495 3.75456 0
M  V30 4147 H 392.368 -1.19421 6.87302 0
M  V30 4148 H 388.265 -2.14679 6.08755 0
M  V30 4149 H 389.033 -1.4737 8.05124 0
M  V30 4150 N 391.696 -1.35014 -0.812953 0
M  V30 4151 C 392.973 -1.18502 -1.55617 0
M  V30 4152 C 393.353 0.238421 -2.09749 0
M  V30 4153 O 392.701 1.2411 -1.91857 0
M  V30 4154 C 392.911 -2.24783 -2.66971 0
M  V30 4155 C 394.259 -2.60268 -3.35478 0
M  V30 4156 O 395.283 -2.23648 -2.77236 0
M  V30 4157 O 394.142 -3.2321 -4.40678 0
M  V30 4158 H 391.236 -0.459984 -0.687272 0
M  V30 4159 H 393.782 -1.46677 -0.853464 0
M  V30 4160 H 392.554 -3.20284 -2.24798 0
M  V30 4161 H 392.177 -1.97841 -3.44884 0
M  V30 4162 N 393.175 1.03435 -1.18907 0
M  V30 4163 C 394.123 2.13703 -0.918353 0
M  V30 4164 C 395.117 1.68947 0.123767 0
M  V30 4165 O 396.323 1.79983 -0.0249701 0
M  V30 4166 H 392.698 0.698112 -0.279542 0
M  V30 4167 H 394.669 2.33731 -1.85506 0
M  V30 4168 C 393.418 3.44542 -0.467532 0
M  V30 4169 H 392.741 3.79394 -1.26095 0
M  V30 4170 H 394.181 4.22812 -0.317164 0
M  V30 4171 C 392.64 3.26829 0.817588 0
M  V30 4172 O 393.17 3.54975 1.88031 0
M  V30 4173 N 391.376 2.80139 0.772677 0
M  V30 4174 H 390.923 2.57434 -0.0923883 0
M  V30 4175 H 390.881 2.68668 1.63294 0
M  V30 4176 N 394.653 0.992116 1.22453 0
M  V30 4177 C 395.583 0.561677 2.26644 0
M  V30 4178 C 396.564 -0.411055 1.65059 0
M  V30 4179 O 397.749 -0.301861 1.9184 0
M  V30 4180 C 394.879 -0.125247 3.47074 0
M  V30 4181 C 393.833 0.765948 4.21091 0
M  V30 4182 C 393.159 -0.0538484 5.34673 0
M  V30 4183 C 394.459 2.06242 4.79856 0
M  V30 4184 H 396.153 1.43259 2.62902 0
M  V30 4185 H 393.699 0.690283 1.26377 0
M  V30 4186 H 395.652 -0.437764 4.1912 0
M  V30 4187 H 394.376 -1.03069 3.0991 0
M  V30 4188 H 393.035 1.0621 3.50878 0
M  V30 4189 H 392.683 -0.960188 4.9375 0
M  V30 4190 H 392.383 0.539415 5.85119 0
M  V30 4191 H 393.907 -0.360477 6.09535 0
M  V30 4192 H 395.321 1.8139 5.43848 0
M  V30 4193 H 393.718 2.60444 5.40638 0
M  V30 4194 H 394.788 2.74167 3.99951 0
M  V30 4195 N 396.131 -1.37776 0.765217 0
M  V30 4196 C 397.079 -2.32209 0.134798 0
M  V30 4197 C 398.073 -1.54607 -0.692315 0
M  V30 4198 O 399.279 -1.70052 -0.590109 0
M  V30 4199 H 395.654 -0.751591 0.0248005 0
M  V30 4200 H 397.625 -2.8297 0.947119 0
M  V30 4201 C 396.374 -3.39841 -0.735063 0
M  V30 4202 H 395.697 -3.99654 -0.107991 0
M  V30 4203 H 397.137 -4.08296 -1.14326 0
M  V30 4204 C 395.596 -2.79378 -1.88281 0
M  V30 4205 O 396.126 -2.69608 -2.97783 0
M  V30 4206 N 394.332 -2.37016 -1.68142 0
M  V30 4207 H 393.879 -2.45162 -0.790772 0
M  V30 4208 H 393.837 -1.96905 -2.45104 0
M  V30 4209 N 397.609 -0.515225 -1.4894 0
M  V30 4210 C 398.839 0.0205735 -2.0659 0
M  V30 4211 C 399.247 1.30064 -1.37405 0
M  V30 4212 O 398.59 1.78087 -0.450632 0
M  V30 4213 C 398.652 0.330124 -3.57981 0
M  V30 4214 C 398.316 -0.854295 -4.48944 0
M  V30 4215 C 399.313 -1.7487 -4.89609 0
M  V30 4216 C 396.998 -1.05712 -4.9105 0
M  V30 4217 C 398.992 -2.82996 -5.71132 0
M  V30 4218 C 396.679 -2.14154 -5.72347 0
M  V30 4219 C 397.677 -3.0263 -6.12294 0
M  V30 4220 O 397.365 -4.09198 -6.91962 0
M  V30 4221 H 397.097 -0.0236833 -0.675585 0
M  V30 4222 H 399.651 -0.715956 -1.92518 0
M  V30 4223 H 397.881 1.12044 -3.70112 0
M  V30 4224 H 399.57 0.806233 -3.97812 0
M  V30 4225 H 400.336 -1.60388 -4.57712 0
M  V30 4226 H 396.215 -0.377788 -4.59449 0
M  V30 4227 H 399.759 -3.52083 -6.02232 0
M  V30 4228 H 395.656 -2.28626 -6.03656 0
M  V30 4229 H 396.424 -4.06726 -7.10293 0
M  V30 4230 N 399.087 1.5561 -0.249682 0
M  V30 4231 C 400.315 2.03411 0.378352 0
M  V30 4232 C 400.73 1.12886 1.51335 0
M  V30 4233 O 400.087 0.143833 1.81932 0
M  V30 4234 C 400.138 3.50537 0.88351 0
M  V30 4235 O 399.859 4.37614 -0.20626 0
M  V30 4236 C 401.36 4.14113 1.58195 0
M  V30 4237 H 398.58 0.664994 0.08958 0
M  V30 4238 H 401.124 2.01044 -0.374357 0
M  V30 4239 H 399.279 3.5343 1.58639 0
M  V30 4240 H 399.693 5.24199 0.177782 0
M  V30 4241 H 401.167 5.18741 1.8871 0
M  V30 4242 H 401.644 3.60767 2.50487 0
M  V30 4243 H 402.25 4.15151 0.923573 0
M  V30 4244 N 400.565 -0.0233959 1.57583 0
M  V30 4245 C 401.495 -1.02162 2.09965 0
M  V30 4246 C 402.476 -1.3735 1.00344 0
M  V30 4247 O 403.661 -1.46135 1.27899 0
M  V30 4248 C 400.791 -2.32081 2.58371 0
M  V30 4249 C 399.745 -2.1112 3.72307 0
M  V30 4250 C 399.071 -3.46848 4.06941 0
M  V30 4251 C 400.371 -1.49276 5.00514 0
M  V30 4252 H 402.065 -0.585557 2.93618 0
M  V30 4253 H 399.611 -0.280218 1.41247 0
M  V30 4254 H 401.564 -3.02249 2.93639 0
M  V30 4255 H 400.288 -2.77758 1.71808 0
M  V30 4256 H 398.947 -1.43384 3.37397 0
M  V30 4257 H 398.595 -3.90184 3.17436 0
M  V30 4258 H 398.295 -3.33646 4.83688 0
M  V30 4259 H 399.819 -4.18369 4.44747 0
M  V30 4260 H 401.233 -2.09368 5.33702 0
M  V30 4261 H 399.63 -1.46632 5.8191 0
M  V30 4262 H 400.7 -0.459217 4.82721 0
M  V30 4263 N 402.043 -1.548 -0.295768 0
M  V30 4264 C 403.268 -1.78653 -1.05346 0
M  V30 4265 C 403.693 -0.546894 -1.79974 0
M  V30 4266 O 403.051 0.502763 -1.7419 0
M  V30 4267 C 403.099 -2.99679 -2.00561 0
M  V30 4268 O 402.203 -2.7317 -3.08953 0
M  V30 4269 H 401.544 -0.59116 -0.302367 0
M  V30 4270 H 404.074 -2.01895 -0.331598 0
M  V30 4271 H 404.084 -3.27793 -2.42932 0
M  V30 4272 H 402.759 -3.89562 -1.4565 0
M  V30 4273 H 401.336 -2.56089 -2.71059 0
M  V30 4274 N 403.521 0.559213 -1.47345 0
M  V30 4275 C 404.468 1.66645 -1.59682 0
M  V30 4276 C 405.438 1.60168 -0.43994 0
M  V30 4277 O 406.623 1.79031 -0.659736 0
M  V30 4278 C 403.763 3.04969 -1.61518 0
M  V30 4279 C 402.876 3.21897 -2.88108 0
M  V30 4280 C 402.011 4.50608 -2.81294 0
M  V30 4281 C 401.05 4.60961 -4.02717 0
M  V30 4282 N 400.187 5.81024 -3.94151 0
M  V30 4283 H 405.027 1.55439 -2.54249 0
M  V30 4284 H 402.564 0.757219 -1.26113 0
M  V30 4285 H 404.522 3.85064 -1.60566 0
M  V30 4286 H 403.152 3.15015 -0.704645 0
M  V30 4287 H 402.204 2.35248 -2.98936 0
M  V30 4288 H 403.516 3.25412 -3.78032 0
M  V30 4289 H 402.67 5.3896 -2.7858 0
M  V30 4290 H 401.409 4.49568 -1.89049 0
M  V30 4291 H 400.414 3.71021 -4.05738 0
M  V30 4292 H 401.639 4.63761 -4.96087 0
M  V30 4293 H 399.585 5.80938 -3.04708 0
M  V30 4294 H 399.502 5.85909 -4.77752 0
M  V30 4295 H 400.77 6.71744 -3.9545 0
M  V30 4296 N 404.999 1.35443 0.805782 0
M  V30 4297 C 405.909 1.30546 1.94923 0
M  V30 4298 C 406.925 0.210233 1.72725 0
M  V30 4299 O 408.101 0.43975 1.9654 0
M  V30 4300 C 405.166 1.07782 3.29521 0
M  V30 4301 C 404.227 2.26625 3.64609 0
M  V30 4302 C 403.46 2.04938 4.92784 0
M  V30 4303 O 403.683 1.01624 5.61274 0
M  V30 4304 O 402.617 2.9232 5.26149 0
M  V30 4305 H 406.443 2.26779 2.02002 0
M  V30 4306 H 404.028 1.15823 0.943682 0
M  V30 4307 H 405.91 0.969392 4.10098 0
M  V30 4308 H 404.585 0.146003 3.23371 0
M  V30 4309 H 403.492 2.43033 2.84404 0
M  V30 4310 H 404.825 3.18257 3.75464 0
M  V30 4311 N 406.477 -1.02803 1.19454 0
M  V30 4312 C 407.724 -1.76217 0.997693 0
M  V30 4313 C 408.052 -1.887 -0.47144 0
M  V30 4314 O 407.307 -1.4011 -1.3663 0
M  V30 4315 C 407.606 -3.18941 1.6128 0
M  V30 4316 C 407.272 -3.26463 3.11019 0
M  V30 4317 C 405.934 -3.28223 3.51885 0
M  V30 4318 C 408.286 -3.25542 4.07028 0
M  V30 4319 C 405.614 -3.26719 4.8731 0
M  V30 4320 C 407.966 -3.25579 5.42385 0
M  V30 4321 C 406.63 -3.25637 5.82681 0
M  V30 4322 H 405.9 -0.644823 0.365082 0
M  V30 4323 H 408.547 -1.20655 1.4871 0
M  V30 4324 H 406.852 -3.77587 1.04572 0
M  V30 4325 H 408.549 -3.74415 1.43577 0
M  V30 4326 H 405.139 -3.25822 2.78457 0
M  V30 4327 H 409.323 -3.23362 3.76498 0
M  V30 4328 H 404.579 -3.25089 5.1781 0
M  V30 4329 H 408.753 -3.23817 6.16535 0
M  V30 4330 H 406.38 -3.24226 6.87591 0
M  V30 4331 N 407.956 -0.998596 -1.21925 0
M  V30 4332 C 409.204 -0.676325 -1.90448 0
M  V30 4333 C 409.525 0.794719 -1.78071 0
M  V30 4334 O 408.795 1.5701 -1.17152 0
M  V30 4335 H 407.375 -0.247165 -0.704925 0
M  V30 4336 H 410.037 -1.26633 -1.48156 0
M  V30 4337 H 409.133 -0.943858 -2.97486 0
M  V30 4338 N 409.434 1.37368 -0.772513 0
M  V30 4339 C 410.364 2.32856 -0.173304 0
M  V30 4340 C 411.345 1.55818 0.682262 0
M  V30 4341 O 412.53 1.84052 0.619566 0
M  V30 4342 C 409.66 3.40048 0.706007 0
M  V30 4343 C 408.614 4.27973 -0.0483144 0
M  V30 4344 C 407.94 5.26184 0.950491 0
M  V30 4345 C 409.24 5.07665 -1.22776 0
M  V30 4346 H 410.934 2.83217 -0.971002 0
M  V30 4347 H 408.48 1.3617 -0.468377 0
M  V30 4348 H 410.433 4.05827 1.13501 0
M  V30 4349 H 409.157 2.88214 1.53623 0
M  V30 4350 H 407.816 3.63726 -0.458107 0
M  V30 4351 H 407.464 4.7063 1.77529 0
M  V30 4352 H 407.164 5.85872 0.450314 0
M  V30 4353 H 408.688 5.94838 1.37842 0
M  V30 4354 H 410.102 5.66578 -0.875366 0
M  V30 4355 H 408.499 5.76681 -1.66007 0
M  V30 4356 H 409.569 4.40294 -2.03149 0
M  V30 4357 N 410.912 0.523116 1.48665 0
M  V30 4358 C 412.328 0.180511 1.58576 0
M  V30 4359 C 412.528 -1.31597 1.52592 0
M  V30 4360 O 411.584 -2.0937 1.4114 0
M  V30 4361 C 412.897 0.776949 2.90489 0
M  V30 4362 C 414.445 0.745058 3.04003 0
M  V30 4363 C 414.92 1.31995 4.38567 0
M  V30 4364 N 416.411 1.28162 4.45117 0
M  V30 4365 C 417.146 1.6964 5.47731 0
M  V30 4366 N 416.642 2.18816 6.57337 0
M  V30 4367 N 418.435 1.6092 5.38573 0
M  V30 4368 H 410.586 1.4958 1.50797 0
M  V30 4369 H 412.849 0.621772 0.715614 0
M  V30 4370 H 412.555 1.82732 3.00503 0
M  V30 4371 H 412.429 0.25007 3.7637 0
M  V30 4372 H 414.816 -0.296532 2.93606 0
M  V30 4373 H 414.897 1.30933 2.1975 0
M  V30 4374 H 414.541 2.36043 4.49718 0
M  V30 4375 H 414.471 0.731418 5.21496 0
M  V30 4376 H 416.962 0.92155 3.66491 0
M  V30 4377 H 417.275 2.48478 7.31764 0
M  V30 4378 H 415.62 2.22805 6.58318 0
M  V30 4379 H 418.811 1.22304 4.5184 0
M  V30 4380 H 418.984 1.93567 6.18414 0
M  V30 4381 N 412.39 -1.55475 0.257931 0
M  V30 4382 C 413.32 -2.24815 -0.630912 0
M  V30 4383 C 414.301 -1.23224 -1.17259 0
M  V30 4384 O 415.486 -1.51904 -1.20991 0
M  V30 4385 C 412.616 -2.95609 -1.82298 0
M  V30 4386 C 411.57 -4.03982 -1.41359 0
M  V30 4387 C 410.896 -4.6226 -2.68738 0
M  V30 4388 C 412.196 -5.19109 -0.57648 0
M  V30 4389 H 413.89 -2.99354 -0.0526878 0
M  V30 4390 H 411.436 -1.4398 -0.023901 0
M  V30 4391 H 413.389 -3.42822 -2.45054 0
M  V30 4392 H 412.113 -2.18577 -2.42676 0
M  V30 4393 H 410.772 -3.57555 -0.809324 0
M  V30 4394 H 410.42 -3.81915 -3.27338 0
M  V30 4395 H 410.12 -5.35424 -2.42065 0
M  V30 4396 H 411.644 -5.12212 -3.32372 0
M  V30 4397 H 413.058 -5.62479 -1.10861 0
M  V30 4398 H 411.455 -5.98729 -0.405351 0
M  V30 4399 H 412.525 -4.83174 0.408776 0
M  V30 4400 N 413.868 0.0150385 -1.57593 0
M  V30 4401 C 415.145 0.7392 -1.81094 0
M  V30 4402 C 415.525 1.92817 -0.859344 0
M  V30 4403 O 414.873 2.28301 0.095362 0
M  V30 4404 C 415.083 1.15907 -3.29191 0
M  V30 4405 C 416.431 1.56918 -3.9454 0
M  V30 4406 O 417.455 1.25328 -3.33424 0
M  V30 4407 O 416.314 2.15604 -5.02173 0
M  V30 4408 H 413.408 0.358631 -0.745193 0
M  V30 4409 H 415.954 -0.00926156 -1.69697 0
M  V30 4410 H 414.726 0.310921 -3.90063 0
M  V30 4411 H 414.349 1.96711 -3.45529 0
M  V30 4412 N 415.346 1.54954 0.287554 0
M  V30 4413 C 416.571 1.79209 1.04397 0
M  V30 4414 C 416.996 0.556431 1.79682 0
M  V30 4415 O 416.354 -0.493518 1.74454 0
M  V30 4416 C 416.402 3.00739 1.98969 0
M  V30 4417 O 415.506 2.74805 3.075 0
M  V30 4418 H 414.847 0.592755 0.299227 0
M  V30 4419 H 417.377 2.02068 0.320886 0
M  V30 4420 H 417.387 3.29077 2.4119 0
M  V30 4421 H 416.062 3.90329 1.43582 0
M  V30 4422 H 414.639 2.57523 2.69697 0
M  V30 4423 N 416.824 -0.551391 1.4764 0
M  V30 4424 C 418.24 -0.877887 1.33287 0
M  V30 4425 C 418.44 -1.98817 0.327721 0
M  V30 4426 O 417.496 -2.51171 -0.258695 0
M  V30 4427 C 418.809 -1.26563 2.72768 0
M  V30 4428 C 420.357 -1.37673 2.81097 0
M  V30 4429 C 420.832 -1.79799 4.21232 0
M  V30 4430 N 422.323 -1.8694 4.23802 0
M  V30 4431 C 423.058 -2.20876 5.29151 0
M  V30 4432 N 422.554 -2.53386 6.448 0
M  V30 4433 N 424.347 -2.217 5.16532 0
M  V30 4434 H 416.498 0.18153 2.11623 0
M  V30 4435 H 418.761 0.0185514 0.947818 0
M  V30 4436 H 418.467 -0.523591 3.47781 0
M  V30 4437 H 418.341 -2.22052 3.04915 0
M  V30 4438 H 420.728 -2.10956 2.06353 0
M  V30 4439 H 420.809 -0.40357 2.52596 0
M  V30 4440 H 420.453 -1.07083 4.96483 0
M  V30 4441 H 420.383 -2.78128 4.4716 0
M  V30 4442 H 422.874 -1.64179 3.40373 0
M  V30 4443 H 423.187 -2.78325 7.20941 0
M  V30 4444 H 421.532 -2.50953 6.48111 0
M  V30 4445 H 424.723 -1.95745 4.25207 0
M  V30 4446 H 424.896 -2.47818 5.98741 0
M  V30 4447 N 418.302 -1.35869 -0.798587 0
M  V30 4448 C 419.548 -1.30788 -1.55775 0
M  V30 4449 C 419.903 0.114558 -1.92059 0
M  V30 4450 O 419.196 1.06691 -1.59147 0
M  V30 4451 C 419.39 -2.1556 -2.85077 0
M  V30 4452 C 419.219 -3.65904 -2.61428 0
M  V30 4453 C 417.989 -4.35112 -2.56915 0
M  V30 4454 C 420.187 -4.59375 -2.31255 0
M  V30 4455 N 418.169 -5.71155 -2.25068 0
M  V30 4456 C 419.54 -5.83598 -2.09316 0
M  V30 4457 C 421.595 -4.48035 -2.17185 0
M  V30 4458 C 420.298 -6.97755 -1.74731 0
M  V30 4459 C 422.324 -5.62049 -1.83998 0
M  V30 4460 C 421.686 -6.85305 -1.629 0
M  V30 4461 H 417.785 -0.533855 -0.571422 0
M  V30 4462 H 420.369 -1.7083 -0.934079 0
M  V30 4463 H 418.54 -1.77776 -3.45326 0
M  V30 4464 H 420.272 -2.01938 -3.50718 0
M  V30 4465 H 417.027 -3.87812 -2.71843 0
M  V30 4466 H 417.451 -6.42978 -2.11916 0
M  V30 4467 H 422.093 -3.53338 -2.3219 0
M  V30 4468 H 419.811 -7.92411 -1.58464 0
M  V30 4469 H 423.397 -5.55232 -1.73808 0
M  V30 4470 H 422.277 -7.72034 -1.37596 0
M  V30 4471 N 419.78 1.02168 -1.19998 0
M  V30 4472 C 421.005 1.79833 -1.03319 0
M  V30 4473 C 421.43 1.83504 0.413281 0
M  V30 4474 O 420.788 1.26635 1.29743 0
M  V30 4475 C 420.836 3.22396 -1.61533 0
M  V30 4476 O 419.94 4.03555 -0.849519 0
M  V30 4477 H 419.281 0.554872 -0.364709 0
M  V30 4478 H 421.811 1.28542 -1.59179 0
M  V30 4479 H 421.821 3.73124 -1.65054 0
M  V30 4480 H 420.496 3.19039 -2.66809 0
M  V30 4481 H 419.073 3.62169 -0.888129 0
M  V30 4482 N 421.258 1.00505 1.21394 0
M  V30 4483 C 422.505 0.687774 1.90462 0
M  V30 4484 C 422.833 -0.78147 1.7811 0
M  V30 4485 O 422.088 -1.58208 1.1519 0
M  V30 4486 C 422.387 1.0546 3.41486 0
M  V30 4487 C 422.053 2.51812 3.74034 0
M  V30 4488 C 420.715 2.91804 3.82628 0
M  V30 4489 C 423.067 3.46614 3.8924 0
M  V30 4490 C 420.395 4.2556 4.03876 0
M  V30 4491 C 422.747 4.80044 4.11995 0
M  V30 4492 C 421.411 5.19759 4.18816 0
M  V30 4493 H 420.681 0.251674 0.696951 0
M  V30 4494 H 423.328 1.26349 1.43903 0
M  V30 4495 H 421.633 0.397133 3.89782 0
M  V30 4496 H 423.33 0.786976 3.93202 0
M  V30 4497 H 419.92 2.1982 3.67936 0
M  V30 4498 H 424.104 3.16883 3.81967 0
M  V30 4499 H 419.36 4.55901 4.07387 0
M  V30 4500 H 423.534 5.53439 4.22704 0
M  V30 4501 H 421.161 6.23418 4.35033 0
M  V30 4502 N 422.737 -1.36956 0.779787 0
M  V30 4503 C 424.148 -1.82094 0.412156 0
M  V30 4504 C 424.499 -1.64926 -1.06273 0
M  V30 4505 O 423.624 -1.16483 -1.82375 0
M  V30 4506 C 424.219 -3.3059 0.741319 0
M  V30 4507 C 422.778 -3.73974 0.426641 0
M  V30 4508 C 421.925 -2.59368 0.980987 0
M  V30 4509 H 424.876 -1.25314 0.973758 0
M  V30 4510 H 424.897 -3.80489 0.028887 0
M  V30 4511 H 424.409 -3.43054 1.81482 0
M  V30 4512 H 422.51 -3.67076 -0.639215 0
M  V30 4513 H 422.623 -4.69778 0.940515 0
M  V30 4514 H 420.987 -2.51463 0.404757 0
M  V30 4515 H 421.77 -2.74621 2.06005 0
M  V30 4516 N 424.215 -0.530993 -1.48385 0
M  V30 4517 C 425.145 0.219985 -2.32461 0
M  V30 4518 C 426.126 0.934111 -1.42156 0
M  V30 4519 O 427.311 0.919694 -1.71042 0
M  V30 4520 C 424.441 1.26674 -3.23375 0
M  V30 4521 C 423.395 0.67069 -4.22712 0
M  V30 4522 C 422.721 1.82017 -5.02766 0
M  V30 4523 C 424.021 -0.358268 -5.2107 0
M  V30 4524 H 425.715 -0.48187 -2.95497 0
M  V30 4525 H 423.261 -0.233182 -1.42099 0
M  V30 4526 H 425.214 1.80006 -3.81019 0
M  V30 4527 H 423.938 1.99818 -2.58341 0
M  V30 4528 H 422.597 0.158878 -3.66256 0
M  V30 4529 H 422.245 2.54002 -4.34157 0
M  V30 4530 H 421.945 1.42727 -5.70003 0
M  V30 4531 H 423.469 2.35725 -5.63264 0
M  V30 4532 H 424.883 0.0880081 -5.73232 0
M  V30 4533 H 423.28 -0.66861 -5.96364 0
M  V30 4534 H 424.35 -1.26367 -4.68145 0
M  V30 4535 N 425.693 1.55336 -0.266172 0
M  V30 4536 C 426.918 2.04258 0.359661 0
M  V30 4537 C 427.343 1.14359 1.49344 0
M  V30 4538 O 426.701 0.140369 1.80756 0
M  V30 4539 C 426.749 3.50997 0.826635 0
M  V30 4540 O 425.853 3.64204 1.93466 0
M  V30 4541 H 425.194 0.659668 0.075727 0
M  V30 4542 H 427.724 2.00694 -0.39786 0
M  V30 4543 H 427.734 3.9219 1.12477 0
M  V30 4544 H 426.409 4.159 -0.00293032 0
M  V30 4545 H 424.986 3.34913 1.63974 0
M  V30 4546 N 427.171 -0.0066808 1.57599 0
M  V30 4547 C 428.101 -0.999296 2.11036 0
M  V30 4548 C 429.082 -1.36278 1.01795 0
M  V30 4549 O 430.267 -1.4477 1.29442 0
M  V30 4550 C 427.397 -2.29328 2.60818 0
M  V30 4551 C 426.351 -2.07159 3.74525 0
M  V30 4552 C 425.677 -3.42512 4.10596 0
M  V30 4553 C 426.977 -1.43959 5.02069 0
M  V30 4554 H 428.671 -0.554382 2.94223 0
M  V30 4555 H 426.217 -0.265221 1.41536 0
M  V30 4556 H 428.17 -2.99117 2.96828 0
M  V30 4557 H 426.894 -2.7592 1.74745 0
M  V30 4558 H 425.553 -1.39797 3.38899 0
M  V30 4559 H 425.201 -3.86795 3.21556 0
M  V30 4560 H 424.901 -3.28498 4.87199 0
M  V30 4561 H 426.425 -4.13628 4.4916 0
M  V30 4562 H 427.839 -2.03696 5.35893 0
M  V30 4563 H 426.236 -1.40452 5.83432 0
M  V30 4564 H 427.306 -0.407992 4.83181 0
M  V30 4565 N 428.649 -1.55105 -0.279332 0
M  V30 4566 C 429.582 -1.82467 -1.37044 0
M  V30 4567 C 430.56 -0.677261 -1.47824 0
M  V30 4568 O 431.744 -0.919578 -1.64548 0
M  V30 4569 C 428.871 -1.98066 -2.7475 0
M  V30 4570 C 427.917 -3.20594 -2.81286 0
M  V30 4571 S 428.75 -4.78116 -2.41175 0
M  V30 4572 C 429.906 -4.9668 -3.80867 0
M  V30 4573 H 430.139 -2.74728 -1.1363 0
M  V30 4574 H 427.672 -1.46794 -0.478625 0
M  V30 4575 H 429.63 -2.07739 -3.54055 0
M  V30 4576 H 428.291 -1.06704 -2.9542 0
M  V30 4577 H 427.484 -3.28376 -3.82341 0
M  V30 4578 H 427.086 -3.09479 -2.09996 0
M  V30 4579 H 429.378 -4.82033 -4.76078 0
M  V30 4580 H 430.321 -5.98741 -3.78041 0
M  V30 4581 H 430.729 -4.24698 -3.71876 0
M  V30 4582 N 430.127 0.543554 -1.4793 0
M  V30 4583 C 431.357 1.32324 -1.58663 0
M  V30 4584 C 431.765 1.8766 -0.240896 0
M  V30 4585 O 431.108 1.66411 0.778011 0
M  V30 4586 C 431.17 2.52094 -2.56299 0
M  V30 4587 C 430.834 2.17944 -4.01683 0
M  V30 4588 C 431.831 1.74422 -4.89768 0
M  V30 4589 C 429.516 2.28884 -4.47121 0
M  V30 4590 C 431.51 1.42287 -6.21316 0
M  V30 4591 C 429.197 1.96361 -5.78693 0
M  V30 4592 C 430.195 1.53132 -6.65612 0
M  V30 4593 O 429.883 1.21029 -7.94737 0
M  V30 4594 H 429.615 0.409174 -0.538101 0
M  V30 4595 H 432.169 0.663887 -1.94375 0
M  V30 4596 H 430.399 3.20965 -2.15681 0
M  V30 4597 H 432.088 3.14165 -2.57012 0
M  V30 4598 H 432.854 1.65452 -4.55907 0
M  V30 4599 H 428.733 2.61488 -3.79664 0
M  V30 4600 H 432.277 1.08472 -6.89115 0
M  V30 4601 H 428.174 2.04967 -6.12094 0
M  V30 4602 H 428.942 1.34543 -8.07366 0
M  V30 4603 N 431.605 1.3629 0.791371 0
M  V30 4604 C 432.851 1.31613 1.5508 0
M  V30 4605 C 433.206 -0.104372 1.92117 0
M  V30 4606 O 432.499 -1.05845 1.5971 0
M  V30 4607 C 432.693 2.17068 2.8393 0
M  V30 4608 C 432.522 3.67285 2.59484 0
M  V30 4609 C 431.292 4.36469 2.54604 0
M  V30 4610 C 433.49 4.60595 2.28816 0
M  V30 4611 N 431.472 5.7234 2.22036 0
M  V30 4612 C 432.843 5.847 2.06218 0
M  V30 4613 C 434.898 4.4918 2.14806 0
M  V30 4614 C 433.601 6.98671 1.71028 0
M  V30 4615 C 435.627 5.63017 1.81014 0
M  V30 4616 C 434.989 6.86159 1.59263 0
M  V30 4617 H 431.088 0.536878 0.568582 0
M  V30 4618 H 433.672 1.71323 0.925007 0
M  V30 4619 H 431.843 1.79605 3.44378 0
M  V30 4620 H 433.575 2.03795 3.49642 0
M  V30 4621 H 430.33 3.89249 2.69782 0
M  V30 4622 H 430.754 6.44093 2.08503 0
M  V30 4623 H 435.396 3.54564 2.30313 0
M  V30 4624 H 433.114 7.9324 1.54259 0
M  V30 4625 H 436.7 5.56146 1.70861 0
M  V30 4626 H 435.58 7.72753 1.335 0
M  V30 4627 N 433.083 -1.0153 1.20538 0
M  V30 4628 C 434.332 -1.74558 1.01057 0
M  V30 4629 C 434.645 -1.90168 -0.457756 0
M  V30 4630 O 435.851 -2.60301 -0.771722 0
M  V30 4631 C 434.307 -3.13963 1.75941 0
M  V30 4632 C 433.915 -3.06361 3.26875 0
M  V30 4633 C 435.659 -3.91191 1.64832 0
M  V30 4634 C 433.566 -4.40782 3.94291 0
M  V30 4635 H 432.496 -0.654417 0.374505 0
M  V30 4636 H 435.147 -1.13521 1.44171 0
M  V30 4637 H 433.529 -3.75549 1.25614 0
M  V30 4638 H 434.703 -2.54074 3.84425 0
M  V30 4639 H 433.018 -2.42625 3.38411 0
M  V30 4640 H 435.615 -4.90644 2.12539 0
M  V30 4641 H 435.958 -4.11884 0.604745 0
M  V30 4642 H 436.491 -3.36236 2.12579 0
M  V30 4643 H 433.23 -4.25292 4.98805 0
M  V30 4644 H 432.75 -4.9307 3.41529 0
M  V30 4645 H 434.429 -5.09621 3.98617 0
M  V30 4646 N 434.561 -1.01147 -1.20859 0
M  V30 4647 C 435.809 -0.696486 -1.89719 0
M  V30 4648 C 436.13 0.775788 -1.78904 0
M  V30 4649 O 435.4 1.55759 -1.18811 0
M  V30 4650 H 433.98 -0.254628 -0.702263 0
M  V30 4651 H 436.642 -1.28197 -1.46804 0
M  V30 4652 H 435.738 -0.975357 -2.96468 0
M  V30 4653 N 436.039 1.36541 -0.78704 0
M  V30 4654 C 437.286 1.99304 -0.358341 0
M  V30 4655 C 437.614 1.62467 1.06933 0
M  V30 4656 O 436.869 0.870019 1.75297 0
M  V30 4657 C 437.168 3.54343 -0.466485 0
M  V30 4658 C 436.834 4.10993 -1.85461 0
M  V30 4659 C 435.496 4.26177 -2.23443 0
M  V30 4660 C 437.848 4.41895 -2.76366 0
M  V30 4661 C 435.176 4.69573 -3.51736 0
M  V30 4662 C 437.528 4.86722 -4.04084 0
M  V30 4663 C 436.192 5.00112 -4.42091 0
M  V30 4664 H 435.462 0.729306 -0.131126 0
M  V30 4665 H 438.109 1.63068 -1.00404 0
M  V30 4666 H 436.414 3.90918 0.262719 0
M  V30 4667 H 438.111 4.00833 -0.115854 0
M  V30 4668 H 434.701 3.99612 -1.54946 0
M  V30 4669 H 438.885 4.29735 -2.48277 0
M  V30 4670 H 434.141 4.78127 -3.81057 0
M  V30 4671 H 438.315 5.09598 -4.7464 0
M  V30 4672 H 435.942 5.33498 -5.41557 0
M  V30 4673 N 437.518 0.538854 1.48102 0
M  V30 4674 C 438.448 -0.207654 2.32575 0
M  V30 4675 C 439.429 -0.926559 1.4265 0
M  V30 4676 O 440.614 -0.91061 1.71527 0
M  V30 4677 C 437.744 -1.24957 3.24042 0
M  V30 4678 C 436.698 -0.648263 4.23062 0
M  V30 4679 C 436.024 -1.79348 5.03725 0
M  V30 4680 C 437.324 0.385897 5.20872 0
M  V30 4681 H 439.018 0.497534 2.95237 0
M  V30 4682 H 436.564 0.240715 1.41974 0
M  V30 4683 H 438.517 -1.77983 3.81969 0
M  V30 4684 H 437.241 -1.98446 2.59397 0
M  V30 4685 H 435.9 -0.139452 3.66335 0
M  V30 4686 H 435.548 -2.51696 4.35498 0
M  V30 4687 H 435.248 -1.39702 5.70751 0
M  V30 4688 H 436.772 -2.32735 5.64506 0
M  V30 4689 H 438.186 -0.057607 5.73271 0
M  V30 4690 H 436.583 0.700227 5.96001 0
M  V30 4691 H 437.653 1.28848 4.67468 0
M  V30 4692 N 438.996 -1.55193 0.274407 0
M  V30 4693 C 439.926 -2.25471 -0.607032 0
M  V30 4694 C 440.907 -1.24461 -1.15946 0
M  V30 4695 O 442.092 -1.53179 -1.19373 0
M  V30 4696 C 439.222 -2.97526 -1.79153 0
M  V30 4697 C 438.176 -4.05459 -1.37067 0
M  V30 4698 C 437.502 -4.65084 -2.6382 0
M  V30 4699 C 438.802 -5.19691 -0.521389 0
M  V30 4700 H 440.496 -2.99393 -0.0209343 0
M  V30 4701 H 438.042 -1.43997 -0.00862866 0
M  V30 4702 H 439.995 -3.45402 -2.41404 0
M  V30 4703 H 438.719 -2.21138 -2.40344 0
M  V30 4704 H 437.378 -3.58393 -0.771355 0
M  V30 4705 H 437.026 -3.85365 -3.23268 0
M  V30 4706 H 436.726 -5.37961 -2.36372 0
M  V30 4707 H 438.25 -5.15708 -3.26921 0
M  V30 4708 H 439.664 -5.63623 -1.04889 0
M  V30 4709 H 438.061 -5.99126 -0.341825 0
M  V30 4710 H 439.131 -4.82713 0.46 0
M  V30 4711 N 440.474 -0.00167713 -1.576 0
M  V30 4712 C 441.384 1.00548 -2.1196 0
M  V30 4713 C 442.4 1.3758 -1.06526 0
M  V30 4714 O 443.576 1.46278 -1.38436 0
M  V30 4715 C 440.641 2.27809 -2.6135 0
M  V30 4716 C 439.702 1.97074 -3.81393 0
M  V30 4717 C 438.935 3.18267 -4.28417 0
M  V30 4718 O 439.158 4.30009 -3.74765 0
M  V30 4719 O 438.092 3.02167 -5.20556 0
M  V30 4720 H 441.918 0.573373 -2.98238 0
M  V30 4721 H 439.503 0.217255 -1.47812 0
M  V30 4722 H 441.385 3.02568 -2.93309 0
M  V30 4723 H 440.06 2.70254 -1.78169 0
M  V30 4724 H 438.967 1.19785 -3.54404 0
M  V30 4725 H 440.3 1.59464 -4.65652 0
M  V30 4726 N 441.952 1.55251 0.271103 0
M  V30 4727 C 443.201 1.75151 1.00025 0
M  V30 4728 C 443.514 0.561041 1.87381 0
M  V30 4729 O 444.72 0.642506 2.63788 0
M  V30 4730 C 443.176 3.09999 1.82835 0
M  V30 4731 C 442.784 4.3662 1.00336 0
M  V30 4732 C 444.528 3.39249 2.55168 0
M  V30 4733 C 442.435 5.62506 1.82595 0
M  V30 4734 H 441.365 0.652877 0.377183 0
M  V30 4735 H 444.016 1.81708 0.255843 0
M  V30 4736 H 442.398 2.97485 2.61378 0
M  V30 4737 H 443.572 4.60055 0.261959 0
M  V30 4738 H 441.887 4.14527 0.394486 0
M  V30 4739 H 444.484 4.3051 3.1712 0
M  V30 4740 H 444.827 2.59467 3.2555 0
M  V30 4741 H 445.36 3.52869 1.83653 0
M  V30 4742 H 442.099 6.45041 1.16631 0
M  V30 4743 H 441.619 5.43211 2.54327 0
M  V30 4744 H 443.298 6.00875 2.39913 0
M  V30 4745 N 443.43 -0.535701 1.48216 0
M  V30 4746 C 444.676 -1.29375 1.56173 0
M  V30 4747 C 445.009 -1.92804 0.232429 0
M  V30 4748 O 444.284 -1.78992 -0.761048 0
M  V30 4749 C 444.567 -2.38747 2.69577 0
M  V30 4750 C 444.42 -1.80046 4.12193 0
M  V30 4751 C 445.739 -3.40551 2.78771 0
M  V30 4752 H 442.858 -0.469027 0.568491 0
M  V30 4753 H 445.5 -0.597358 1.80365 0
M  V30 4754 H 443.65 -2.98147 2.4908 0
M  V30 4755 H 445.322 -1.24742 4.44114 0
M  V30 4756 H 443.565 -1.10609 4.19462 0
M  V30 4757 H 444.236 -2.59212 4.87353 0
M  V30 4758 H 446.712 -2.91099 2.97322 0
M  V30 4759 H 445.588 -4.1448 3.59857 0
M  V30 4760 H 445.849 -4.00746 1.86696 0
M  V30 4761 N 444.908 -1.36708 -0.784132 0
M  V30 4762 C 446.133 -1.34565 -1.5782 0
M  V30 4763 C 446.558 0.0695257 -1.87971 0
M  V30 4764 O 445.916 1.04302 -1.48293 0
M  V30 4765 C 445.964 -2.17952 -2.87279 0
M  V30 4766 O 445.068 -1.57563 -3.81114 0
M  V30 4767 H 444.409 -0.460337 -0.478524 0
M  V30 4768 H 446.939 -1.80064 -0.971495 0
M  V30 4769 H 446.949 -2.30721 -3.365 0
M  V30 4770 H 445.624 -3.20823 -2.64661 0
M  V30 4771 H 444.201 -1.53764 -3.39722 0
M  V30 4772 N 446.386 1.0089 -1.21074 0
M  V30 4773 C 447.633 1.74607 -1.0256 0
M  V30 4774 C 447.961 1.89426 0.44136 0
M  V30 4775 O 447.216 1.42266 1.34384 0
M  V30 4776 C 447.515 3.16335 -1.66334 0
M  V30 4777 C 447.181 3.21474 -3.16173 0
M  V30 4778 C 445.843 3.22583 -3.57062 0
M  V30 4779 C 448.195 3.19025 -4.12156 0
M  V30 4780 C 445.523 3.18925 -4.92446 0
M  V30 4781 C 447.875 3.16909 -5.47496 0
M  V30 4782 C 446.539 3.16326 -5.87787 0
M  V30 4783 H 445.809 0.638933 -0.375294 0
M  V30 4784 H 448.456 1.18274 -1.50611 0
M  V30 4785 H 446.761 3.75876 -1.10566 0
M  V30 4786 H 448.458 3.72083 -1.49516 0
M  V30 4787 H 445.048 3.2135 -2.83605 0
M  V30 4788 H 449.232 3.17332 -3.81595 0
M  V30 4789 H 444.488 3.16809 -5.22917 0
M  V30 4790 H 448.662 3.13968 -6.21609 0
M  V30 4791 H 446.289 3.13246 -6.92662 0
M  V30 4792 N 447.864 1.01787 1.20321 0
M  V30 4793 C 448.794 0.609625 2.25401 0
M  V30 4794 C 449.775 -0.375951 1.65893 0
M  V30 4795 O 450.96 -0.261101 1.92437 0
M  V30 4796 C 448.09 -0.0515995 3.47262 0
M  V30 4797 C 447.044 0.855095 4.19371 0
M  V30 4798 C 446.37 0.0595757 5.34667 0
M  V30 4799 C 447.67 2.16374 4.75373 0
M  V30 4800 H 449.364 1.48803 2.59804 0
M  V30 4801 H 446.91 0.716934 1.24884 0
M  V30 4802 H 448.863 -0.348764 4.19954 0
M  V30 4803 H 447.587 -0.964726 3.12027 0
M  V30 4804 H 446.246 1.13628 3.48546 0
M  V30 4805 H 445.894 -0.85524 4.95676 0
M  V30 4806 H 445.594 0.663406 5.83843 0
M  V30 4807 H 447.118 -0.231105 6.10162 0
M  V30 4808 H 448.532 1.92885 5.39878 0
M  V30 4809 H 446.929 2.71853 5.34991 0
M  V30 4810 H 447.999 2.82589 3.94045 0
M  V30 4811 N 449.342 -1.36122 0.79427 0
M  V30 4812 C 450.272 -2.32551 0.210328 0
M  V30 4813 C 451.253 -1.56884 -0.657386 0
M  V30 4814 O 452.438 -1.85014 -0.590207 0
M  V30 4815 C 449.568 -3.41128 -0.651819 0
M  V30 4816 C 448.522 -4.27842 0.116395 0
M  V30 4817 C 447.848 -5.2763 -0.86666 0
M  V30 4818 C 449.148 -5.05647 1.30837 0
M  V30 4819 H 450.842 -2.81636 1.01594 0
M  V30 4820 H 448.388 -1.35407 0.489981 0
M  V30 4821 H 450.341 -4.07581 -1.07031 0
M  V30 4822 H 449.065 -2.90622 -1.49019 0
M  V30 4823 H 447.724 -3.62952 0.515915 0
M  V30 4824 H 447.372 -4.73395 -1.70019 0
M  V30 4825 H 447.072 -5.86514 -0.35705 0
M  V30 4826 H 448.596 -5.96955 -1.28361 0
M  V30 4827 H 450.01 -5.65113 0.965393 0
M  V30 4828 H 448.407 -5.73967 1.75161 0
M  V30 4829 H 449.477 -4.37006 2.10128 0
M  V30 4830 N 450.82 -0.546701 -1.47814 0
M  V30 4831 C 452.236 -0.205717 -1.58269 0
M  V30 4832 C 452.436 1.29153 -1.54667 0
M  V30 4833 O 451.492 2.07098 -1.44453 0
M  V30 4834 C 452.805 -0.823065 -2.89216 0
M  V30 4835 C 454.353 -0.793328 -3.02779 0
M  V30 4836 C 454.828 -1.38955 -4.36412 0
M  V30 4837 N 456.319 -1.35227 -4.43021 0
M  V30 4838 C 457.054 -1.78333 -5.44963 0
M  V30 4839 N 456.55 -2.29246 -6.53772 0
M  V30 4840 N 458.343 -1.69467 -5.35945 0
M  V30 4841 H 450.494 -1.5196 -1.48398 0
M  V30 4842 H 452.757 -0.633078 -0.705632 0
M  V30 4843 H 452.463 -1.8749 -2.97558 0
M  V30 4844 H 452.337 -0.309915 -3.75925 0
M  V30 4845 H 454.724 0.249784 -2.94041 0
M  V30 4846 H 454.805 -1.34412 -2.17639 0
M  V30 4847 H 454.449 -2.43168 -4.45906 0
M  V30 4848 H 454.379 -0.814291 -5.20266 0
M  V30 4849 H 456.87 -0.979739 -3.64979 0
M  V30 4850 H 457.183 -2.60089 -7.27718 0
M  V30 4851 H 455.528 -2.3325 -6.5469 0
M  V30 4852 H 458.719 -1.29477 -4.49837 0
M  V30 4853 H 458.892 -2.03381 -6.15256 0
M  V30 4854 N 452.299 1.55045 -0.282633 0
M  V30 4855 C 453.71 1.85473 0.213655 0
M  V30 4856 C 454.061 1.20465 1.54863 0
M  V30 4857 O 453.186 0.495676 2.10647 0
M  V30 4858 C 453.781 3.36496 0.394445 0
M  V30 4859 C 452.34 3.67022 0.834961 0
M  V30 4860 C 451.487 2.77218 -0.0674081 0
M  V30 4861 H 454.438 1.50478 -0.504202 0
M  V30 4862 H 454.459 3.60007 1.23186 0
M  V30 4863 H 453.971 3.83782 -0.577326 0
M  V30 4864 H 452.072 3.25241 1.81794 0
M  V30 4865 H 452.185 4.74433 0.667075 0
M  V30 4866 H 450.549 2.5069 0.450196 0
M  V30 4867 H 451.332 3.2732 -1.0352 0
M  V30 4868 N 453.777 0.010035 1.57597 0
M  V30 4869 C 455.026 -0.671945 1.90178 0
M  V30 4870 C 455.339 -1.74376 0.886131 0
M  V30 4871 O 456.545 -2.48107 1.10252 0
M  V30 4872 C 455.001 -1.24636 3.3763 0
M  V30 4873 C 454.609 -0.208838 4.47513 0
M  V30 4874 C 456.353 -1.90595 3.79307 0
M  V30 4875 C 454.26 -0.793814 5.86048 0
M  V30 4876 H 453.19 -0.25474 0.709665 0
M  V30 4877 H 455.841 0.0722206 1.83358 0
M  V30 4878 H 454.223 -2.04152 3.3932 0
M  V30 4879 H 455.397 0.562463 4.57354 0
M  V30 4880 H 453.712 0.350889 4.14919 0
M  V30 4881 H 456.309 -2.35284 4.80151 0
M  V30 4882 H 456.652 -2.74074 3.13352 0
M  V30 4883 H 457.185 -1.17798 3.79958 0
M  V30 4884 H 453.924 0.00240855 6.555 0
M  V30 4885 H 453.444 -1.53404 5.79851 0
M  V30 4886 H 455.123 -1.2894 6.34022 0
M  V30 4887 N 455.255 -1.55392 -0.262866 0
M  V30 4888 C 456.485 -1.80251 -1.00961 0
M  V30 4889 C 456.893 -0.58117 -1.80053 0
M  V30 4890 O 456.236 0.459427 -1.77862 0
M  V30 4891 C 456.298 -2.98207 -2.00781 0
M  V30 4892 C 455.962 -4.34856 -1.40533 0
M  V30 4893 C 456.959 -5.13459 -0.815853 0
M  V30 4894 C 454.644 -4.8153 -1.42948 0
M  V30 4895 C 456.638 -6.36875 -0.258562 0
M  V30 4896 C 454.325 -6.04899 -0.868334 0
M  V30 4897 C 455.323 -6.8241 -0.283884 0
M  V30 4898 O 455.011 -8.03451 0.268644 0
M  V30 4899 H 454.743 -0.604049 -0.303482 0
M  V30 4900 H 457.297 -2.03257 -0.295926 0
M  V30 4901 H 455.527 -2.70917 -2.75936 0
M  V30 4902 H 457.216 -3.10299 -2.61667 0
M  V30 4903 H 457.982 -4.78526 -0.789812 0
M  V30 4904 H 453.861 -4.21201 -1.87378 0
M  V30 4905 H 457.405 -6.97318 0.198257 0
M  V30 4906 H 453.302 -6.39312 -0.891649 0
M  V30 4907 H 454.07 -8.18346 0.158974 0
M  V30 4908 N 456.733 0.527833 -1.48498 0
M  V30 4909 C 457.961 1.30823 -1.6029 0
M  V30 4910 C 458.376 1.86945 -0.263974 0
M  V30 4911 O 457.733 1.6651 0.747034 0
M  V30 4912 C 457.784 2.45756 -2.65116 0
M  V30 4913 O 457.505 1.91946 -3.93813 0
M  V30 4914 C 459.006 3.37543 -2.87367 0
M  V30 4915 H 456.226 0.397763 -0.540394 0
M  V30 4916 H 458.77 0.636529 -1.94341 0
M  V30 4917 H 456.925 3.08806 -2.33917 0
M  V30 4918 H 457.339 2.67195 -4.51339 0
M  V30 4919 H 458.813 4.14532 -3.6451 0
M  V30 4920 H 459.29 3.92905 -1.9627 0
M  V30 4921 H 459.896 2.80283 -3.19878 0
M  V30 4922 N 458.211 1.37122 0.776871 0
M  V30 4923 C 459.441 1.35034 1.56363 0
M  V30 4924 C 459.849 -0.0674681 1.8908 0
M  V30 4925 O 459.192 -1.03826 1.51545 0
M  V30 4926 C 459.254 2.11894 2.90415 0
M  V30 4927 C 458.918 3.60897 2.80362 0
M  V30 4928 C 459.915 4.54887 2.51742 0
M  V30 4929 C 457.6 4.03951 2.98545 0
M  V30 4930 C 459.594 5.89909 2.41426 0
M  V30 4931 C 457.281 5.3906 2.87849 0
M  V30 4932 C 458.279 6.31852 2.5933 0
M  V30 4933 O 457.967 7.64479 2.48651 0
M  V30 4934 H 457.699 0.464402 0.49123 0
M  V30 4935 H 460.253 1.80992 0.971127 0
M  V30 4936 H 458.483 1.60618 3.51765 0
M  V30 4937 H 460.172 2.02505 3.51776 0
M  V30 4938 H 460.938 4.22934 2.37385 0
M  V30 4939 H 456.817 3.3209 3.19746 0
M  V30 4940 H 460.361 6.62304 2.19086 0
M  V30 4941 H 456.258 5.70617 3.01773 0
M  V30 4942 H 457.026 7.74742 2.64039 0
M  V30 4943 N 459.689 -1.00246 1.21608 0
M  V30 4944 C 461.105 -1.26435 0.973975 0
M  V30 4945 C 461.305 -1.98642 -0.338143 0
M  V30 4946 O 460.361 -2.29026 -1.06317 0
M  V30 4947 C 461.674 -2.08551 2.16626 0
M  V30 4948 C 463.222 -2.21769 2.20879 0
M  V30 4949 C 463.697 -3.07267 3.39633 0
M  V30 4950 N 465.188 -3.14855 3.39736 0
M  V30 4951 C 465.923 -3.81274 4.28273 0
M  V30 4952 N 465.419 -4.497 5.27012 0
M  V30 4953 N 467.212 -3.7794 4.16074 0
M  V30 4954 H 459.363 -0.518089 2.05984 0
M  V30 4955 H 461.626 -0.291368 0.902113 0
M  V30 4956 H 461.332 -1.62847 3.11727 0
M  V30 4957 H 461.206 -3.09303 2.15897 0
M  V30 4958 H 463.593 -2.66691 1.26332 0
M  V30 4959 H 463.674 -1.20478 2.25652 0
M  V30 4960 H 463.318 -2.63047 4.34475 0
M  V30 4961 H 463.248 -4.08678 3.321 0
M  V30 4962 H 465.739 -2.66147 2.6828 0
M  V30 4963 H 466.052 -4.98092 5.90867 0
M  V30 4964 H 464.397 -4.48479 5.30935 0
M  V30 4965 H 467.588 -3.23638 3.38195 0
M  V30 4966 H 467.761 -4.29424 4.85282 0
M  V30 4967 N 461.167 -1.02423 -1.1978 0
M  V30 4968 C 462.578 -0.748389 -1.71044 0
M  V30 4969 C 462.929 0.732398 -1.82017 0
M  V30 4970 O 462.054 1.57116 -1.48807 0
M  V30 4971 C 462.649 -1.35187 -3.1066 0
M  V30 4972 C 461.208 -1.12472 -3.59203 0
M  V30 4973 C 460.355 -1.45283 -2.36195 0
M  V30 4974 H 463.306 -1.19275 -1.04686 0
M  V30 4975 H 463.327 -0.746408 -3.73107 0
M  V30 4976 H 462.839 -2.4296 -3.02642 0
M  V30 4977 H 460.94 -0.0649983 -3.72543 0
M  V30 4978 H 461.053 -1.81016 -4.43588 0
M  V30 4979 H 459.417 -0.872034 -2.39307 0
M  V30 4980 H 460.2 -2.54129 -2.30811 0
M  V30 4981 N 462.645 1.35699 -0.801477 0
M  V30 4982 C 464.056 1.81415 -0.441073 0
M  V30 4983 C 464.407 1.66595 1.03636 0
M  V30 4984 O 463.532 1.19369 1.80499 0
M  V30 4985 C 464.127 3.29369 -0.793819 0
M  V30 4986 C 462.686 3.73248 -0.486083 0
M  V30 4987 C 461.833 2.57775 -1.02213 0
M  V30 4988 H 464.784 1.23749 -0.993572 0
M  V30 4989 H 464.805 3.80395 -0.0894158 0
M  V30 4990 H 464.317 3.40123 -1.86917 0
M  V30 4991 H 462.418 3.68046 0.580735 0
M  V30 4992 H 462.531 4.68222 -1.01513 0
M  V30 4993 H 460.895 2.50788 -0.444712 0
M  V30 4994 H 461.678 2.71309 -2.10348 0
M  V30 4995 N 464.123 0.554532 1.47522 0
M  V30 4996 C 465.37 0.029479 2.02479 0
M  V30 4997 C 465.698 -1.31929 1.42916 0
M  V30 4998 O 464.953 -1.87112 0.573385 0
M  V30 4999 C 465.252 -0.115927 3.57212 0
M  V30 5000 C 464.918 1.16161 4.3568 0
M  V30 5001 C 463.58 1.51168 4.56839 0
M  V30 5002 C 465.932 2.0083 4.80954 0
M  V30 5003 C 463.26 2.70696 5.2052 0
M  V30 5004 C 465.612 3.19559 5.45953 0
M  V30 5005 C 464.276 3.54882 5.65345 0
M  V30 5006 H 463.546 0.0107871 0.740921 0
M  V30 5007 H 466.193 0.725506 1.77225 0
M  V30 5008 H 464.498 -0.894902 3.81443 0
M  V30 5009 H 466.195 -0.53749 3.97381 0
M  V30 5010 H 462.785 0.879026 4.19489 0
M  V30 5011 H 466.969 1.75093 4.64388 0
M  V30 5012 H 462.225 2.98236 5.33728 0
M  V30 5013 H 466.399 3.85456 5.79997 0
M  V30 5014 H 464.026 4.47596 6.1446 0
M  V30 5015 N 465.601 -1.54893 0.290851 0
M  V30 5016 C 466.549 -2.24579 -0.605576 0
M  V30 5017 C 467.543 -1.24824 -1.14522 0
M  V30 5018 O 468.749 -1.42706 -1.09704 0
M  V30 5019 H 465.124 -0.720946 -0.213872 0
M  V30 5020 H 467.095 -2.984 0.0048173 0
M  V30 5021 C 465.844 -2.99224 -1.77088 0
M  V30 5022 H 465.167 -3.75782 -1.36484 0
M  V30 5023 H 466.607 -3.51281 -2.3744 0
M  V30 5024 C 465.066 -2.05602 -2.66888 0
M  V30 5025 O 465.596 -1.61745 -3.67698 0
M  V30 5026 N 463.802 -1.71771 -2.34399 0
M  V30 5027 H 463.349 -2.07633 -1.52468 0
M  V30 5028 H 463.307 -1.09403 -2.94751 0
M  V30 5029 N 467.08 -0.0183926 -1.57589 0
M  V30 5030 C 468.496 0.337897 -1.55982 0
M  V30 5031 C 468.696 1.73604 -1.02294 0
M  V30 5032 O 467.752 2.43589 -0.664895 0
M  V30 5033 C 469.065 0.196305 -3.00059 0
M  V30 5034 C 470.613 0.269875 -3.11834 0
M  V30 5035 C 471.088 0.157197 -4.5773 0
M  V30 5036 N 472.579 0.214521 -4.62703 0
M  V30 5037 C 473.314 0.150955 -5.73201 0
M  V30 5038 N 472.81 0.0369212 -6.9279 0
M  V30 5039 N 474.603 0.204162 -5.61729 0
M  V30 5040 H 466.754 -0.93279 -1.90821 0
M  V30 5041 H 469.017 -0.359253 -0.877292 0
M  V30 5042 H 468.723 -0.766383 -3.43248 0
M  V30 5043 H 468.597 0.970908 -3.6449 0
M  V30 5044 H 470.984 1.22302 -2.68563 0
M  V30 5045 H 471.065 -0.534918 -2.50144 0
M  V30 5046 H 470.709 -0.792479 -5.01679 0
M  V30 5047 H 470.639 0.980717 -5.17387 0
M  V30 5048 H 473.13 0.303238 -3.76681 0
M  V30 5049 H 473.443 -0.00518321 -7.728 0
M  V30 5050 H 471.788 0.0022886 -6.95 0
M  V30 5051 H 474.979 0.291575 -4.67191 0
M  V30 5052 H 475.152 0.15116 -6.47824 0
M  V30 5053 N 468.558 1.5553 0.254621 0
M  V30 5054 C 469.508 1.86057 1.31783 0
M  V30 5055 C 470.492 0.720827 1.4385 0
M  V30 5056 O 471.684 0.982586 1.47222 0
M  V30 5057 C 468.813 2.15203 2.67475 0
M  V30 5058 C 467.899 3.35484 2.59444 0
M  V30 5059 N 468.29 4.54945 2.2104 0
M  V30 5060 C 466.588 3.38441 2.90472 0
M  V30 5061 C 467.289 5.3707 2.23453 0
M  V30 5062 N 466.265 4.75936 2.62652 0
M  V30 5063 H 470.067 2.75953 1.01129 0
M  V30 5064 H 467.581 1.55653 0.463255 0
M  V30 5065 H 469.578 2.35235 3.44195 0
M  V30 5066 H 468.238 1.26601 2.99002 0
M  V30 5067 H 469.249 4.8071 1.92712 0
M  V30 5068 H 465.926 2.60087 3.2659 0
M  V30 5069 H 467.316 6.42626 1.96166 0
M  V30 5070 N 470.036 -0.519951 1.48776 0
M  V30 5071 C 471.285 -1.27175 1.56555 0
M  V30 5072 C 471.598 -1.9401 0.248869 0
M  V30 5073 O 472.804 -2.70725 0.205004 0
M  V30 5074 C 471.26 -2.30811 2.76142 0
M  V30 5075 C 470.868 -1.7 4.14493 0
M  V30 5076 C 472.612 -3.06937 2.9324 0
M  V30 5077 C 470.519 -2.71635 5.25327 0
M  V30 5078 H 469.449 -0.478329 0.582853 0
M  V30 5079 H 472.1 -0.547916 1.75129 0
M  V30 5080 H 470.482 -3.06274 2.51023 0
M  V30 5081 H 471.656 -1.00658 4.49672 0
M  V30 5082 H 469.971 -1.06331 4.02595 0
M  V30 5083 H 472.568 -3.82905 3.73213 0
M  V30 5084 H 472.911 -3.63409 2.03075 0
M  V30 5085 H 473.444 -2.38589 3.18308 0
M  V30 5086 H 470.183 -2.1997 6.1749 0
M  V30 5087 H 469.703 -3.39275 4.94624 0
M  V30 5088 H 471.382 -3.34429 5.53865 0
M  V30 5089 N 471.514 -1.37532 -0.769588 0
M  V30 5090 C 472.76 -1.33057 -1.53048 0
M  V30 5091 C 473.093 0.0841865 -1.94017 0
M  V30 5092 O 472.368 1.04198 -1.64235 0
M  V30 5093 C 472.651 -2.27166 -2.79406 0
M  V30 5094 C 472.504 -3.77429 -2.44677 0
M  V30 5095 C 473.823 -2.19683 -3.81349 0
M  V30 5096 H 470.942 -0.484655 -0.555228 0
M  V30 5097 H 473.584 -1.68251 -0.882702 0
M  V30 5098 H 471.734 -1.97283 -3.34682 0
M  V30 5099 H 473.406 -4.17918 -1.953 0
M  V30 5100 H 471.649 -3.95892 -1.77346 0
M  V30 5101 H 472.32 -4.38716 -3.35011 0
M  V30 5102 H 474.796 -2.46029 -3.35573 0
M  V30 5103 H 473.672 -2.87668 -4.67481 0
M  V30 5104 H 473.933 -1.19045 -4.25771 0
M  V30 5105 N 472.992 0.995999 -1.22138 0
M  V30 5106 C 474.22 1.77066 -1.07029 0
M  V30 5107 C 474.635 1.8495 0.379357 0
M  V30 5108 O 473.992 1.3174 1.26297 0
M  V30 5109 C 474.043 3.20533 -1.67155 0
M  V30 5110 O 473.764 3.13082 -3.06449 0
M  V30 5111 C 475.265 4.14461 -1.5728 0
M  V30 5112 H 472.485 0.556179 -0.375374 0
M  V30 5113 H 475.029 1.25238 -1.61666 0
M  V30 5114 H 473.184 3.6944 -1.16589 0
M  V30 5115 H 473.598 4.03283 -3.35355 0
M  V30 5116 H 475.072 5.1289 -2.04078 0
M  V30 5117 H 475.549 4.36005 -0.528795 0
M  V30 5118 H 476.155 3.71449 -2.07136 0
M  V30 5119 N 474.47 1.03057 1.19235 0
M  V30 5120 C 475.4 0.633497 2.24742 0
M  V30 5121 C 476.381 -0.358335 1.66283 0
M  V30 5122 O 477.566 -0.240676 1.92703 0
M  V30 5123 C 474.696 -0.0147648 3.47297 0
M  V30 5124 C 473.65 0.899527 4.18441 0
M  V30 5125 C 472.976 0.116281 5.34574 0
M  V30 5126 C 474.276 2.21404 4.73051 0
M  V30 5127 H 475.97 1.5155 2.58211 0
M  V30 5128 H 473.516 0.73014 1.24117 0
M  V30 5129 H 475.469 -0.304202 4.20301 0
M  V30 5130 H 474.193 -0.931577 3.13032 0
M  V30 5131 H 472.852 1.17319 3.47321 0
M  V30 5132 H 472.5 -0.802619 4.96555 0
M  V30 5133 H 472.2 0.725293 5.83107 0
M  V30 5134 H 473.724 -0.166376 6.10373 0
M  V30 5135 H 475.138 1.98601 5.37802 0
M  V30 5136 H 473.535 2.77512 5.32078 0
M  V30 5137 H 474.605 2.86752 3.91026 0
M  V30 5138 N 475.948 -1.35272 0.808662 0
M  V30 5139 C 477.173 -2.03477 0.401475 0
M  V30 5140 C 477.598 -1.60537 -0.980279 0
M  V30 5141 O 476.956 -0.78304 -1.63518 0
M  V30 5142 C 477.004 -3.57181 0.495354 0
M  V30 5143 O 476.108 -4.09474 -0.490397 0
M  V30 5144 H 475.449 -0.642561 0.167366 0
M  V30 5145 H 477.979 -1.72824 1.09512 0
M  V30 5146 H 477.989 -4.06356 0.365912 0
M  V30 5147 H 476.664 -3.87784 1.5032 0
M  V30 5148 H 475.241 -3.71516 -0.321023 0
M  V30 5149 N 477.426 -0.562348 -1.47226 0
M  V30 5150 C 478.374 0.195476 -2.31777 0
M  V30 5151 C 479.368 0.90433 -1.43242 0
M  V30 5152 O 480.574 0.825031 -1.59979 0
M  V30 5153 H 476.949 0.0819095 -0.747526 0
M  V30 5154 H 478.92 -0.536753 -2.93533 0
M  V30 5155 C 477.669 1.20902 -3.26003 0
M  V30 5156 H 476.992 0.672997 -3.94095 0
M  V30 5157 H 478.432 1.71006 -3.87986 0
M  V30 5158 C 476.891 2.25955 -2.49891 0
M  V30 5159 O 477.421 3.32969 -2.2471 0
M  V30 5160 N 475.627 2.00019 -2.1081 0
M  V30 5161 H 475.174 1.13006 -2.31489 0
M  V30 5162 H 475.132 2.70523 -1.60201 0
M  V30 5163 N 478.904 1.54736 -0.299062 0
M  V30 5164 C 480.129 2.04975 0.316254 0
M  V30 5165 C 480.554 1.17501 1.46885 0
M  V30 5166 O 479.912 0.178678 1.80417 0
M  V30 5167 C 479.96 3.52672 0.751997 0
M  V30 5168 O 479.064 3.68226 1.85697 0
M  V30 5169 H 478.405 0.661126 0.0617175 0
M  V30 5170 H 480.935 1.99805 -0.440341 0
M  V30 5171 H 480.945 3.94488 1.04133 0
M  V30 5172 H 479.62 4.158 -0.0911482 0
M  V30 5173 H 478.197 3.38316 1.56834 0
M  V30 5174 N 480.382 0.0267497 1.57577 0
M  V30 5175 C 481.628 -0.653371 1.91987 0
M  V30 5176 C 481.961 -1.71915 0.903263 0
M  V30 5177 O 481.236 -1.94358 -0.0743387 0
M  V30 5178 C 481.519 -1.272 3.36886 0
M  V30 5179 C 481.372 -0.215938 4.49281 0
M  V30 5180 C 482.691 -2.19069 3.81703 0
M  V30 5181 H 479.81 -0.236047 0.698177 0
M  V30 5182 H 482.452 0.0835236 1.89816 0
M  V30 5183 H 480.602 -1.90005 3.38866 0
M  V30 5184 H 482.274 0.41449 4.59434 0
M  V30 5185 H 480.517 0.458855 4.31366 0
M  V30 5186 H 481.188 -0.688347 5.47691 0
M  V30 5187 H 483.664 -1.66253 3.81444 0
M  V30 5188 H 482.54 -2.59307 4.83788 0
M  V30 5189 H 482.801 -3.08087 3.17072 0
M  V30 5190 N 481.861 -1.55662 -0.24637 0
M  V30 5191 C 483.108 -1.77519 -0.974335 0
M  V30 5192 C 483.436 -0.591165 -1.85298 0
M  V30 5193 O 482.691 0.425497 -1.91018 0
M  V30 5194 C 482.99 -3.04885 -1.86494 0
M  V30 5195 C 482.656 -4.36209 -1.14161 0
M  V30 5196 C 481.318 -4.71896 -0.941701 0
M  V30 5197 C 483.67 -5.17391 -0.628957 0
M  V30 5198 C 480.998 -5.86299 -0.216852 0
M  V30 5199 C 483.35 -6.32546 0.0824273 0
M  V30 5200 C 482.014 -6.66853 0.293807 0
M  V30 5201 H 481.284 -0.649588 -0.356535 0
M  V30 5202 H 483.931 -1.89934 -0.244394 0
M  V30 5203 H 482.236 -2.87484 -2.66196 0
M  V30 5204 H 483.933 -3.18994 -2.42989 0
M  V30 5205 H 480.523 -4.08174 -1.30736 0
M  V30 5206 H 484.707 -4.90276 -0.770943 0
M  V30 5207 H 479.963 -6.11385 -0.0426124 0
M  V30 5208 H 484.137 -6.94693 0.487292 0
M  V30 5209 H 481.764 -7.55349 0.857428 0
M  V30 5210 N 483.339 0.512053 -1.4905 0
M  V30 5211 C 484.567 1.29116 -1.61669 0
M  V30 5212 C 484.982 1.86655 -0.283787 0
M  V30 5213 O 484.339 1.67293 0.729331 0
M  V30 5214 C 484.39 2.4293 -2.67707 0
M  V30 5215 O 484.111 1.87758 -3.95826 0
M  V30 5216 C 485.612 3.34476 -2.90931 0
M  V30 5217 H 482.832 0.392009 -0.544583 0
M  V30 5218 H 485.376 0.615881 -1.95006 0
M  V30 5219 H 483.531 3.06308 -2.37179 0
M  V30 5220 H 483.945 2.62393 -4.54148 0
M  V30 5221 H 485.419 4.10642 -3.68886 0
M  V30 5222 H 485.896 3.90801 -2.00427 0
M  V30 5223 H 486.502 2.76874 -3.22832 0
M  V30 5224 N 484.817 1.37938 0.762283 0
M  V30 5225 C 486.064 1.33668 1.52115 0
M  V30 5226 C 486.392 -0.0759538 1.94352 0
M  V30 5227 O 485.647 -1.05121 1.6507 0
M  V30 5228 C 485.946 2.23042 2.79261 0
M  V30 5229 C 485.612 3.71159 2.56031 0
M  V30 5230 C 484.274 4.11523 2.49404 0
M  V30 5231 C 486.626 4.64955 2.35513 0
M  V30 5232 C 483.954 5.43784 2.20263 0
M  V30 5233 C 486.306 5.97464 2.07894 0
M  V30 5234 C 484.97 6.36922 1.99718 0
M  V30 5235 H 484.24 0.489127 0.556629 0
M  V30 5236 H 486.887 1.70224 0.877262 0
M  V30 5237 H 485.192 1.79512 3.48256 0
M  V30 5238 H 486.889 2.17047 3.37182 0
M  V30 5239 H 483.479 3.39153 2.62056 0
M  V30 5240 H 487.663 4.34623 2.39617 0
M  V30 5241 H 482.919 5.73307 2.12435 0
M  V30 5242 H 487.093 6.6969 1.91019 0
M  V30 5243 H 484.72 7.39331 1.76902 0
M  V30 5244 N 486.295 -0.989507 1.22664 0
M  V30 5245 C 487.52 -1.77031 1.08051 0
M  V30 5246 C 487.945 -1.84535 -0.364483 0
M  V30 5247 O 487.303 -1.3003 -1.2634 0
M  V30 5248 C 487.351 -3.18 1.70024 0
M  V30 5249 O 486.455 -4.01161 0.956216 0
M  V30 5250 H 485.796 -0.545008 0.379292 0
M  V30 5251 H 488.326 -1.24277 1.62531 0
M  V30 5252 H 488.336 -3.68616 1.74888 0
M  V30 5253 H 487.011 -3.11853 2.75174 0
M  V30 5254 H 485.588 -3.59687 0.98384 0
M  V30 5255 N 487.773 -1.03688 -1.18687 0
M  V30 5256 C 489.003 -0.756819 -1.92239 0
M  V30 5257 C 489.411 0.689374 -1.76194 0
M  V30 5258 O 488.754 1.48126 -1.08648 0
M  V30 5259 C 488.816 -1.03851 -3.44173 0
M  V30 5260 C 488.48 -2.47785 -3.83994 0
M  V30 5261 C 489.477 -3.4595 -3.88091 0
M  V30 5262 C 487.162 -2.82397 -4.154 0
M  V30 5263 C 489.156 -4.76779 -4.23038 0
M  V30 5264 C 486.843 -4.13433 -4.50018 0
M  V30 5265 C 487.841 -5.10434 -4.53813 0
M  V30 5266 O 487.529 -6.39122 -4.87625 0
M  V30 5267 H 487.261 -0.275678 -0.617234 0
M  V30 5268 H 489.815 -1.38658 -1.51536 0
M  V30 5269 H 488.045 -0.351612 -3.85098 0
M  V30 5270 H 489.734 -0.746846 -3.9897 0
M  V30 5271 H 490.5 -3.20549 -3.63969 0
M  V30 5272 H 486.379 -2.07568 -4.11627 0
M  V30 5273 H 489.923 -5.52488 -4.25914 0
M  V30 5274 H 485.82 -4.38604 -4.736 0
M  V30 5275 H 486.588 -6.43715 -5.05542 0
M  V30 5276 N 489.251 1.34841 -0.815825 0
M  V30 5277 C 490.198 2.29644 -0.230664 0
M  V30 5278 C 491.168 1.53253 0.640533 0
M  V30 5279 O 492.353 1.81653 0.583672 0
M  V30 5280 C 489.493 3.39715 0.607275 0
M  V30 5281 C 488.606 4.31056 -0.28538 0
M  V30 5282 C 487.741 5.28225 0.561446 0
M  V30 5283 C 486.78 6.11204 -0.331035 0
M  V30 5284 N 485.917 7.00483 0.476302 0
M  V30 5285 H 490.757 2.79095 -1.0445 0
M  V30 5286 H 488.294 1.37351 -0.526595 0
M  V30 5287 H 490.252 4.02208 1.10835 0
M  V30 5288 H 488.882 2.91517 1.38629 0
M  V30 5289 H 487.934 3.69487 -0.904621 0
M  V30 5290 H 489.246 4.89239 -0.97193 0
M  V30 5291 H 488.4 5.96135 1.12728 0
M  V30 5292 H 487.139 4.70562 1.28153 0
M  V30 5293 H 486.144 5.42232 -0.909069 0
M  V30 5294 H 487.369 6.70947 -1.04912 0
M  V30 5295 H 485.315 6.45296 1.18019 0
M  V30 5296 H 485.232 7.55847 -0.152008 0
M  V30 5297 H 486.5 7.7273 1.02512 0
M  V30 5298 N 490.729 0.570148 1.46925 0
M  V30 5299 C 491.676 -0.170257 2.30171 0
M  V30 5300 C 492.646 -0.896099 1.39855 0
M  V30 5301 O 493.831 -0.889248 1.68811 0
M  V30 5302 C 490.971 -1.18605 3.24079 0
M  V30 5303 C 490.084 -0.464947 4.29491 0
M  V30 5304 C 489.219 -1.46716 5.10537 0
M  V30 5305 C 488.258 -0.731758 6.0771 0
M  V30 5306 N 487.395 -1.68142 6.81669 0
M  V30 5307 H 492.235 0.545713 2.92961 0
M  V30 5308 H 489.772 0.280938 1.44392 0
M  V30 5309 H 491.73 -1.78771 3.76957 0
M  V30 5310 H 490.36 -1.86989 2.63125 0
M  V30 5311 H 489.412 0.251506 3.79568 0
M  V30 5312 H 490.724 0.110548 4.98677 0
M  V30 5313 H 489.878 -2.14199 5.6763 0
M  V30 5314 H 488.617 -2.07658 4.41282 0
M  V30 5315 H 487.622 -0.0430787 5.49783 0
M  V30 5316 H 488.847 -0.127904 6.7898 0
M  V30 5317 H 486.793 -2.27918 6.15134 0
M  V30 5318 H 486.71 -1.15841 7.47072 0
M  V30 5319 H 487.978 -2.347 7.43328 0
M  V30 5320 N 492.207 -1.54576 0.307264 0
M  V30 5321 C 493.17 -2.22423 -0.553224 0
M  V30 5322 C 494.17 -1.21231 -1.05639 0
M  V30 5323 O 495.36 -1.45923 -0.951419 0
M  V30 5324 C 492.492 -2.91552 -1.76664 0
M  V30 5325 H 493.685 -2.99874 0.0396484 0
M  V30 5326 H 491.238 -1.56192 0.0581629 0
M  V30 5327 H 491.973 -2.18196 -2.39918 0
M  V30 5328 H 491.758 -3.65738 -1.41343 0
M  V30 5329 H 493.248 -3.43292 -2.37783 0
M  V30 5330 N 493.685 -0.035106 -1.57561 0
M  V30 5331 C 494.617 0.973604 -2.07494 0
M  V30 5332 C 495.63 1.28504 -0.999534 0
M  V30 5333 O 496.819 1.24864 -1.27559 0
M  V30 5334 C 493.919 2.29945 -2.48955 0
M  V30 5335 C 493.092 2.1723 -3.79644 0
M  V30 5336 C 492.151 3.328 -4.07592 0
M  V30 5337 O 491.177 3.09418 -4.77754 0
M  V30 5338 N 492.379 4.56779 -3.58236 0
M  V30 5339 H 495.144 0.547525 -2.94656 0
M  V30 5340 H 492.705 0.151515 -1.61189 0
M  V30 5341 H 494.697 3.06097 -2.64739 0
M  V30 5342 H 493.267 2.64173 -1.67126 0
M  V30 5343 H 492.487 1.25768 -3.73599 0
M  V30 5344 H 493.775 2.05945 -4.65257 0
M  V30 5345 H 493.173 4.78668 -3.01485 0
M  V30 5346 H 491.73 5.30079 -3.79288 0
M  V30 5347 N 495.163 1.55791 0.238111 0
M  V30 5348 C 496.579 1.48411 0.587045 0
M  V30 5349 C 496.779 0.72702 1.87927 0
M  V30 5350 O 495.835 0.259942 2.51158 0
M  V30 5351 C 497.148 2.92873 0.681623 0
M  V30 5352 C 498.696 3.03295 0.773363 0
M  V30 5353 C 499.171 4.49082 0.899428 0
M  V30 5354 N 500.662 4.53056 0.964075 0
M  V30 5355 C 501.397 5.63117 1.08104 0
M  V30 5356 N 500.893 6.82969 1.16299 0
M  V30 5357 N 502.686 5.50933 1.11488 0
M  V30 5358 H 494.837 2.0345 -0.610076 0
M  V30 5359 H 497.1 0.924034 -0.211813 0
M  V30 5360 H 496.806 3.51142 -0.19802 0
M  V30 5361 H 496.68 3.43851 1.55069 0
M  V30 5362 H 499.067 2.45101 1.64346 0
M  V30 5363 H 499.148 2.55513 -0.121034 0
M  V30 5364 H 498.792 5.07889 0.0338586 0
M  V30 5365 H 498.722 4.94553 1.809 0
M  V30 5366 H 501.213 3.66737 0.91173 0
M  V30 5367 H 501.526 7.62598 1.25155 0
M  V30 5368 H 499.871 6.85712 1.13241 0
M  V30 5369 H 503.062 4.56231 1.0474 0
M  V30 5370 H 503.235 6.36743 1.20259 0
M  V30 5371 N 496.642 -0.504142 1.49319 0
M  V30 5372 C 497.919 -1.26548 1.49147 0
M  V30 5373 C 498.299 -2.09977 0.21744 0
M  V30 5374 O 497.647 -2.14028 -0.800269 0
M  V30 5375 C 497.857 -2.12489 2.76857 0
M  V30 5376 C 499.205 -2.7178 3.26222 0
M  V30 5377 O 500.229 -2.22758 2.77952 0
M  V30 5378 O 499.088 -3.61015 4.10281 0
M  V30 5379 H 496.182 -0.572495 0.596806 0
M  V30 5380 H 498.728 -0.51867 1.61579 0
M  V30 5381 H 497.5 -1.50796 3.61077 0
M  V30 5382 H 497.123 -2.94368 2.6727 0
M  V30 5383 N 498.12 -1.38341 -0.754957 0
M  V30 5384 C 499.05 -1.38176 -1.88227 0
M  V30 5385 C 500.031 -0.247873 -1.68284 0
M  V30 5386 O 501.216 -0.45075 -1.88896 0
M  V30 5387 C 498.346 -1.20471 -3.25736 0
M  V30 5388 C 497.3 -2.3105 -3.60278 0
M  V30 5389 C 496.626 -1.98452 -4.96509 0
M  V30 5390 C 497.926 -3.73305 -3.65295 0
M  V30 5391 H 499.62 -2.32512 -1.88622 0
M  V30 5392 H 497.166 -1.1192 -0.906082 0
M  V30 5393 H 499.119 -1.18982 -4.04254 0
M  V30 5394 H 497.843 -0.225965 -3.25817 0
M  V30 5395 H 496.502 -2.31723 -2.84078 0
M  V30 5396 H 496.15 -0.990641 -4.93148 0
M  V30 5397 H 495.85 -2.7251 -5.20588 0
M  V30 5398 H 497.374 -1.98578 -5.77407 0
M  V30 5399 H 498.788 -3.7467 -4.3393 0
M  V30 5400 H 497.185 -4.46557 -4.00883 0
M  V30 5401 H 498.255 -4.05719 -2.65556 0
M  V30 5402 N 499.598 0.982988 -1.23187 0
M  V30 5403 C 500.561 2.05649 -1.01198 0
M  V30 5404 C 501.561 1.6078 0.0252464 0
M  V30 5405 O 502.751 1.72878 -0.214243 0
M  V30 5406 C 499.883 3.36744 -0.530656 0
M  V30 5407 H 501.076 2.2659 -1.96461 0
M  V30 5408 H 498.629 1.15602 -1.05195 0
M  V30 5409 H 499.364 3.21492 0.425873 0
M  V30 5410 H 499.149 3.7065 -1.2791 0
M  V30 5411 H 500.639 4.15705 -0.397366 0
M  V30 5412 N 501.076 1.04316 1.18135 0
M  V30 5413 C 502.306 0.767003 1.91835 0
M  V30 5414 C 502.714 -0.68002 1.76557 0
M  V30 5415 O 502.057 -1.47548 1.09432 0
M  V30 5416 C 502.119 1.05674 3.43618 0
M  V30 5417 C 501.783 2.49818 3.82675 0
M  V30 5418 C 502.78 3.48003 3.86251 0
M  V30 5419 C 500.465 2.84596 4.13897 0
M  V30 5420 C 502.459 4.79016 4.20503 0
M  V30 5421 C 500.146 4.15813 4.4782 0
M  V30 5422 C 501.144 5.12834 4.51099 0
M  V30 5423 O 500.832 6.41699 4.84229 0
M  V30 5424 H 500.564 0.278948 0.615763 0
M  V30 5425 H 503.118 1.3946 1.50798 0
M  V30 5426 H 501.348 0.372029 3.84906 0
M  V30 5427 H 503.037 0.767994 3.98568 0
M  V30 5428 H 503.803 3.22475 3.62264 0
M  V30 5429 H 499.682 2.09748 4.1052 0
M  V30 5430 H 503.226 5.54739 4.22978 0
M  V30 5431 H 499.123 4.41109 4.71268 0
M  V30 5432 H 499.891 6.46387 5.02121 0
M  V30 5433 N 502.554 -1.34406 0.822964 0
M  V30 5434 C 503.501 -2.29519 0.24284 0
M  V30 5435 C 504.471 -1.5359 -0.632397 0
M  V30 5436 O 505.656 -1.8196 -0.57403 0
M  V30 5437 C 502.796 -3.40032 -0.58925 0
M  V30 5438 C 501.909 -4.30899 0.308236 0
M  V30 5439 C 501.044 -5.28515 -0.533425 0
M  V30 5440 C 500.083 -6.1102 0.363444 0
M  V30 5441 N 499.22 -7.00725 -0.439147 0
M  V30 5442 H 504.06 -2.78537 1.05929 0
M  V30 5443 H 501.597 -1.3707 0.533872 0
M  V30 5444 H 503.555 -4.0279 -1.087 0
M  V30 5445 H 502.185 -2.92248 -1.37081 0
M  V30 5446 H 501.237 -3.69002 0.924203 0
M  V30 5447 H 502.549 -4.88717 0.997862 0
M  V30 5448 H 501.703 -5.96725 -1.09565 0
M  V30 5449 H 500.442 -4.71235 -1.25656 0
M  V30 5450 H 499.447 -5.41743 0.937812 0
M  V30 5451 H 500.672 -6.70381 1.08469 0
M  V30 5452 H 498.618 -6.45913 -1.14595 0
M  V30 5453 H 498.535 -7.55756 0.19209 0
M  V30 5454 H 499.803 -7.73263 -0.984124 0
M  V30 5455 N 504.032 -0.577932 -1.46621 0
M  V30 5456 C 505.443 -0.150071 -1.86096 0
M  V30 5457 C 505.794 1.28563 -1.48209 0
M  V30 5458 O 504.919 1.97036 -0.894754 0
M  V30 5459 C 505.514 -0.265576 -3.37758 0
M  V30 5460 C 504.073 0.10738 -3.76247 0
M  V30 5461 C 503.22 -0.603711 -2.70649 0
M  V30 5462 H 506.171 -0.786438 -1.37844 0
M  V30 5463 H 506.192 0.510352 -3.77062 0
M  V30 5464 H 505.704 -1.3106 -3.65301 0
M  V30 5465 H 503.805 1.15272 -3.54321 0
M  V30 5466 H 503.918 -0.26561 -4.78363 0
M  V30 5467 H 502.282 -0.0444884 -2.54661 0
M  V30 5468 H 503.065 -1.65029 -3.01032 0
M  V30 5469 N 505.51 1.54411 -0.315457 0
M  V30 5470 C 506.44 2.27002 0.547039 0
M  V30 5471 C 507.421 1.27492 1.12605 0
M  V30 5472 O 508.606 1.5629 1.15269 0
M  V30 5473 C 505.736 3.02171 1.71201 0
M  V30 5474 C 504.69 4.0895 1.26268 0
M  V30 5475 C 504.016 4.71915 2.51396 0
M  V30 5476 C 505.316 5.20891 0.383419 0
M  V30 5477 H 507.01 2.99343 -0.0584517 0
M  V30 5478 H 504.556 1.4397 -0.0295527 0
M  V30 5479 H 506.509 3.51681 2.32161 0
M  V30 5480 H 505.233 2.27433 2.34397 0
M  V30 5481 H 503.892 3.60312 0.676062 0
M  V30 5482 H 503.54 3.93801 3.12937 0
M  V30 5483 H 503.24 5.44039 2.22026 0
M  V30 5484 H 504.764 5.24195 3.13133 0
M  V30 5485 H 506.178 5.66206 0.899082 0
M  V30 5486 H 504.575 5.99821 0.182857 0
M  V30 5487 H 505.645 4.81324 -0.587821 0
M  V30 5488 N 506.988 0.0434614 1.5754 0
M  V30 5489 C 508.218 -0.640905 1.96408 0
M  V30 5490 C 508.626 -1.65365 0.919297 0
M  V30 5491 O 507.969 -1.83395 -0.105795 0
M  V30 5492 C 508.031 -1.39141 3.31482 0
M  V30 5493 C 507.695 -0.535375 4.53853 0
M  V30 5494 C 508.692 0.195335 5.19533 0
M  V30 5495 C 506.377 -0.468564 5.0011 0
M  V30 5496 C 508.371 0.981377 6.298 0
M  V30 5497 C 506.058 0.321171 6.10255 0
M  V30 5498 C 507.056 1.04484 6.74961 0
M  V30 5499 O 506.744 1.8216 7.8299 0
M  V30 5500 H 506.476 -0.180584 0.651433 0
M  V30 5501 H 509.03 0.103848 2.05137 0
M  V30 5502 H 507.26 -2.18162 3.19284 0
M  V30 5503 H 508.949 -1.96526 3.55151 0
M  V30 5504 H 509.715 0.15314 4.84758 0
M  V30 5505 H 505.594 -1.02142 4.49542 0
M  V30 5506 H 509.138 1.54674 6.80237 0
M  V30 5507 H 505.035 0.365032 6.44467 0
M  V30 5508 H 505.803 1.74289 7.99728 0
M  V30 5509 N 508.466 -1.55915 -0.229846 0
M  V30 5510 C 509.691 -1.8296 -0.976743 0
M  V30 5511 C 510.116 -0.622735 -1.77493 0
M  V30 5512 O 509.474 0.428431 -1.76165 0
M  V30 5513 C 509.522 -3.07916 -1.8767 0
M  V30 5514 O 508.626 -2.86028 -2.97088 0
M  V30 5515 H 507.967 -0.603453 -0.277021 0
M  V30 5516 H 510.497 -2.0312 -0.245669 0
M  V30 5517 H 510.507 -3.37802 -2.2881 0
M  V30 5518 H 509.182 -3.95389 -1.28996 0
M  V30 5519 H 507.759 -2.67355 -2.59954 0
M  V30 5520 N 509.944 0.496216 -1.49584 0
M  V30 5521 C 511.19 1.24918 -1.60521 0
M  V30 5522 C 511.545 1.90197 -0.290352 0
M  V30 5523 O 510.838 1.77967 0.709813 0
M  V30 5524 C 511.032 2.3359 -2.705 0
M  V30 5525 C 510.861 1.78969 -4.12553 0
M  V30 5526 C 509.631 1.60057 -4.79281 0
M  V30 5527 C 511.829 1.29883 -4.97629 0
M  V30 5528 N 509.811 1.00415 -6.05632 0
M  V30 5529 C 511.182 0.824057 -6.14499 0
M  V30 5530 C 513.237 1.18501 -4.83593 0
M  V30 5531 C 511.94 0.246721 -7.18877 0
M  V30 5532 C 513.966 0.621634 -5.88124 0
M  V30 5533 C 513.328 0.157116 -7.04225 0
M  V30 5534 H 509.427 0.446896 -0.641722 0
M  V30 5535 H 512.011 0.555456 -1.86609 0
M  V30 5536 H 510.182 3.00418 -2.46178 0
M  V30 5537 H 511.914 3.00628 -2.70933 0
M  V30 5538 H 508.669 1.84562 -4.36158 0
M  V30 5539 H 509.093 0.725074 -6.73106 0
M  V30 5540 H 513.735 1.53012 -3.94141 0
M  V30 5541 H 511.453 -0.110651 -8.08024 0
M  V30 5542 H 515.039 0.536279 -5.79323 0
M  V30 5543 H 513.919 -0.272009 -7.83728 0
M  V30 5544 N 511.423 1.38739 0.74761 0
M  V30 5545 C 512.333 1.38696 1.89211 0
M  V30 5546 C 513.349 0.283303 1.71678 0
M  V30 5547 O 514.525 0.522713 1.94498 0
M  V30 5548 C 511.59 1.21662 3.24653 0
M  V30 5549 C 510.651 2.41886 3.54669 0
M  V30 5550 C 509.884 2.25655 4.83648 0
M  V30 5551 O 510.107 1.25339 5.56459 0
M  V30 5552 O 509.041 3.14372 5.13277 0
M  V30 5553 H 512.867 2.35143 1.92202 0
M  V30 5554 H 510.452 1.19721 0.893708 0
M  V30 5555 H 512.334 1.14246 4.05618 0
M  V30 5556 H 511.009 0.283024 3.2246 0
M  V30 5557 H 509.916 2.54877 2.73841 0
M  V30 5558 H 511.249 3.33895 3.61628 0
M  V30 5559 N 512.901 -0.976442 1.23707 0
M  V30 5560 C 513.811 -2.10359 1.03856 0
M  V30 5561 C 514.827 -1.73991 -0.0180919 0
M  V30 5562 O 516.003 -2.0061 0.178211 0
M  V30 5563 C 513.068 -3.40809 0.636387 0
M  V30 5564 C 512.129 -3.91179 1.76854 0
M  V30 5565 C 511.362 -5.15404 1.38546 0
M  V30 5566 O 511.585 -5.69754 0.27142 0
M  V30 5567 O 510.519 -5.5994 2.20797 0
M  V30 5568 H 514.345 -2.29997 1.98331 0
M  V30 5569 H 511.93 -1.08742 1.02448 0
M  V30 5570 H 513.812 -4.19269 0.423223 0
M  V30 5571 H 512.487 -3.22493 -0.279322 0
M  V30 5572 H 511.394 -3.13819 2.03638 0
M  V30 5573 H 512.727 -4.13958 2.6627 0
M  V30 5574 N 514.379 -1.04941 -1.1758 0
M  V30 5575 C 515.342 -0.652456 -2.19717 0
M  V30 5576 C 516.342 0.294745 -1.58076 0
M  V30 5577 O 517.532 0.0789579 -1.74021 0
M  V30 5578 C 514.664 0.0420712 -3.40874 0
M  V30 5579 H 515.857 -1.55642 -2.5635 0
M  V30 5580 H 513.41 -0.842995 -1.31618 0
M  V30 5581 H 514.145 0.95943 -3.09783 0
M  V30 5582 H 513.93 -0.638844 -3.86861 0
M  V30 5583 H 515.42 0.306 -4.16477 0
M  V30 5584 N 515.857 1.33968 -0.830081 0
M  V30 5585 C 516.804 2.29387 -0.255008 0
M  V30 5586 C 517.774 1.53923 0.624243 0
M  V30 5587 O 518.959 1.82262 0.564372 0
M  V30 5588 C 516.099 3.4034 0.571209 0
M  V30 5589 C 515.212 4.30729 -0.331083 0
M  V30 5590 C 514.347 5.2879 0.505389 0
M  V30 5591 C 513.386 6.10819 -0.395843 0
M  V30 5592 N 512.523 7.00948 0.401979 0
M  V30 5593 H 517.363 2.77972 -1.07404 0
M  V30 5594 H 514.9 1.36785 -0.541133 0
M  V30 5595 H 516.858 4.03361 1.06562 0
M  V30 5596 H 515.488 2.9297 1.35529 0
M  V30 5597 H 514.54 3.68507 -0.943759 0
M  V30 5598 H 515.852 4.88181 -1.02377 0
M  V30 5599 H 515.006 5.97297 1.06399 0
M  V30 5600 H 513.745 4.71894 1.23155 0
M  V30 5601 H 512.75 5.41238 -0.966529 0
M  V30 5602 H 513.975 6.69797 -1.12023 0
M  V30 5603 H 511.921 6.46512 1.11168 0
M  V30 5604 H 511.838 7.55643 -0.232167 0
M  V30 5605 H 513.106 7.73774 0.943102 0
M  V30 5606 N 517.335 0.585699 1.46312 0
M  V30 5607 C 518.267 -0.183687 2.28463 0
M  V30 5608 C 519.28 -0.85264 1.38686 0
M  V30 5609 O 520.469 -0.721701 1.6326 0
M  V30 5610 C 517.569 -1.27977 3.13808 0
M  V30 5611 C 516.742 -0.702164 4.31727 0
M  V30 5612 C 515.801 -1.68633 4.98447 0
M  V30 5613 O 514.827 -1.22121 5.55945 0
M  V30 5614 N 516.029 -3.02047 4.95729 0
M  V30 5615 H 518.794 0.521127 2.95134 0
M  V30 5616 H 516.355 0.423673 1.56258 0
M  V30 5617 H 518.347 -1.9375 3.55307 0
M  V30 5618 H 516.917 -1.8874 2.4919 0
M  V30 5619 H 516.137 0.1331 3.93975 0
M  V30 5620 H 517.425 -0.296101 5.07938 0
M  V30 5621 H 516.823 -3.42457 4.50266 0
M  V30 5622 H 515.38 -3.63301 5.41161 0
M  V30 5623 N 518.813 -1.54241 0.323641 0
M  V30 5624 C 519.76 -2.24339 -0.542277 0
M  V30 5625 C 520.73 -1.23421 -1.11159 0
M  V30 5626 O 521.915 -1.52104 -1.15192 0
M  V30 5627 C 519.055 -3.00479 -1.69725 0
M  V30 5628 C 518.168 -4.16214 -1.15716 0
M  V30 5629 C 517.303 -4.79884 -2.27783 0
M  V30 5630 C 516.342 -5.87722 -1.71023 0
M  V30 5631 N 515.479 -6.45254 -2.76752 0
M  V30 5632 H 520.319 -2.97935 0.0620613 0
M  V30 5633 H 517.856 -1.47039 0.0423993 0
M  V30 5634 H 519.814 -3.42869 -2.3769 0
M  V30 5635 H 518.444 -2.29217 -2.27288 0
M  V30 5636 H 517.496 -3.78605 -0.369063 0
M  V30 5637 H 518.808 -4.93838 -0.701832 0
M  V30 5638 H 517.962 -5.25243 -3.03651 0
M  V30 5639 H 516.701 -4.01641 -2.76652 0
M  V30 5640 H 515.706 -5.41765 -0.936518 0
M  V30 5641 H 516.931 -6.67863 -1.2303 0
M  V30 5642 H 514.877 -5.69884 -3.24912 0
M  V30 5643 H 514.794 -7.18292 -2.35782 0
M  V30 5644 H 516.062 -6.95269 -3.5245 0
M  V30 5645 N 520.291 -0.0518155 -1.57515 0
M  V30 5646 C 521.519 0.631395 -1.9703 0
M  V30 5647 C 521.934 1.64341 -0.92938 0
M  V30 5648 O 521.291 1.82296 0.0863266 0
M  V30 5649 C 521.342 1.31774 -3.36627 0
M  V30 5650 O 521.063 0.346247 -4.3673 0
M  V30 5651 C 522.564 2.09065 -3.90905 0
M  V30 5652 H 519.784 0.172576 -0.648428 0
M  V30 5653 H 522.328 -0.118306 -2.04158 0
M  V30 5654 H 520.483 2.01867 -3.30649 0
M  V30 5655 H 520.897 0.836226 -5.17791 0
M  V30 5656 H 522.371 2.52508 -4.9086 0
M  V30 5657 H 522.848 2.93908 -3.26366 0
M  V30 5658 H 523.454 1.43882 -4.00223 0
M  V30 5659 N 521.769 1.56035 0.221574 0
M  V30 5660 C 523.015 1.79312 0.947372 0
M  V30 5661 C 523.348 0.621453 1.83988 0
M  V30 5662 O 522.623 -0.379287 1.90766 0
M  V30 5663 C 522.906 3.1267 1.78633 0
M  V30 5664 C 522.759 4.40284 0.920312 0
M  V30 5665 C 524.078 3.4247 2.7641 0
M  V30 5666 H 521.197 0.652328 0.342982 0
M  V30 5667 H 523.839 1.88765 0.216244 0
M  V30 5668 H 521.989 3.04741 2.40967 0
M  V30 5669 H 523.661 4.60232 0.313718 0
M  V30 5670 H 521.904 4.33212 0.225734 0
M  V30 5671 H 522.575 5.30033 1.54171 0
M  V30 5672 H 525.051 3.50526 2.24211 0
M  V30 5673 H 523.927 4.3695 3.32213 0
M  V30 5674 H 524.188 2.64635 3.54148 0
M  V30 5675 N 523.247 -0.488276 1.49845 0
M  V30 5676 C 524.157 -1.61451 1.70207 0
M  V30 5677 C 525.173 -1.63877 0.584846 0
M  V30 5678 O 526.349 -1.82063 0.861107 0
M  V30 5679 C 523.414 -2.9776 1.77594 0
M  V30 5680 C 522.475 -3.05861 3.01243 0
M  V30 5681 C 521.708 -4.35668 3.08268 0
M  V30 5682 O 521.931 -5.25197 2.22541 0
M  V30 5683 O 520.865 -4.49005 4.00847 0
M  V30 5684 H 524.691 -1.47199 2.65643 0
M  V30 5685 H 522.276 -0.665939 1.33737 0
M  V30 5686 H 524.158 -3.7875 1.84732 0
M  V30 5687 H 522.833 -3.12248 0.8534 0
M  V30 5688 H 521.74 -2.24012 2.99616 0
M  V30 5689 H 523.073 -2.96304 3.9302 0
M  V30 5690 N 524.725 -1.39134 -0.740242 0
M  V30 5691 C 525.971 -1.37278 -1.50088 0
M  V30 5692 C 526.326 0.0329967 -1.92372 0
M  V30 5693 O 525.619 0.998447 -1.63529 0
M  V30 5694 C 525.813 -2.27457 -2.75678 0
M  V30 5695 C 525.642 -3.76662 -2.45674 0
M  V30 5696 C 524.412 -4.45617 -2.38229 0
M  V30 5697 C 526.61 -4.6877 -2.11563 0
M  V30 5698 N 524.592 -5.80187 -2.00641 0
M  V30 5699 C 525.963 -5.91951 -1.84376 0
M  V30 5700 C 528.018 -4.56843 -1.97987 0
M  V30 5701 C 526.721 -7.04538 -1.4498 0
M  V30 5702 C 528.747 -5.69347 -1.59994 0
M  V30 5703 C 528.109 -6.91597 -1.33687 0
M  V30 5704 H 524.208 -0.557611 -0.548265 0
M  V30 5705 H 526.792 -1.74638 -0.860784 0
M  V30 5706 H 524.963 -1.92263 -3.37475 0
M  V30 5707 H 526.695 -2.16631 -3.41838 0
M  V30 5708 H 523.45 -3.98993 -2.5515 0
M  V30 5709 H 523.874 -6.51387 -1.84454 0
M  V30 5710 H 528.516 -3.62868 -2.16995 0
M  V30 5711 H 526.234 -7.98419 -1.24712 0
M  V30 5712 H 529.82 -5.62104 -1.50102 0
M  V30 5713 H 528.7 -7.77176 -1.04728 0
M  V30 5714 N 526.204 0.969867 -1.24223 0
M  V30 5715 C 527.45 1.7151 -1.08223 0
M  V30 5716 C 527.783 1.90478 0.37838 0
M  V30 5717 O 527.058 1.4647 1.27971 0
M  V30 5718 C 527.341 3.10714 -1.82013 0
M  V30 5719 C 527.194 2.9925 -3.35811 0
M  V30 5720 C 528.513 4.10332 -1.59108 0
M  V30 5721 H 525.632 0.622499 -0.394543 0
M  V30 5722 H 528.274 1.1284 -1.52863 0
M  V30 5723 H 526.424 3.608 -1.44068 0
M  V30 5724 H 528.096 2.56608 -3.83341 0
M  V30 5725 H 526.339 2.35512 -3.64303 0
M  V30 5726 H 527.01 3.97857 -3.82641 0
M  V30 5727 H 529.486 3.69097 -1.92111 0
M  V30 5728 H 528.362 5.05804 -2.13198 0
M  V30 5729 H 528.623 4.38926 -0.528832 0
M  V30 5730 N 527.682 1.05563 1.17022 0
M  V30 5731 C 528.93 0.76642 1.87004 0
M  V30 5732 C 529.251 -0.708854 1.8166 0
M  V30 5733 O 528.521 -1.51242 1.2451 0
M  V30 5734 H 527.101 0.280516 0.692329 0
M  V30 5735 H 529.763 1.33557 1.41945 0
M  V30 5736 H 528.859 1.08472 2.92644 0
M  V30 5737 N 529.16 -1.33526 0.837174 0
M  V30 5738 C 530.385 -2.0258 0.444545 0
M  V30 5739 C 530.81 -1.6258 -0.946006 0
M  V30 5740 O 530.168 -0.817548 -1.6182 0
M  V30 5741 C 530.216 -3.5605 0.571006 0
M  V30 5742 O 529.32 -4.10422 -0.403431 0
M  V30 5743 H 528.661 -0.638866 0.180958 0
M  V30 5744 H 531.191 -1.70462 1.13154 0
M  V30 5745 H 531.201 -4.05488 0.452024 0
M  V30 5746 H 529.876 -3.84509 1.58512 0
M  V30 5747 H 528.453 -3.72113 -0.242147 0
M  V30 5748 N 530.638 -0.59345 -1.46 0
M  V30 5749 C 531.568 0.121192 -2.33185 0
M  V30 5750 C 532.549 0.872977 -1.4599 0
M  V30 5751 O 533.734 0.846321 -1.74789 0
M  V30 5752 C 530.864 1.12844 -3.28456 0
M  V30 5753 C 529.818 0.4908 -4.25177 0
M  V30 5754 C 529.144 1.60529 -5.10034 0
M  V30 5755 C 530.444 -0.578949 -5.19081 0
M  V30 5756 H 532.138 -0.606767 -2.93187 0
M  V30 5757 H 529.684 -0.293242 -1.40983 0
M  V30 5758 H 531.637 1.63684 -3.88311 0
M  V30 5759 H 530.361 1.88681 -2.66584 0
M  V30 5760 H 529.02 0.00339328 -3.666 0
M  V30 5761 H 528.668 2.35359 -4.44539 0
M  V30 5762 H 528.368 1.18422 -5.75543 0
M  V30 5763 H 529.892 2.11623 -5.72755 0
M  V30 5764 H 531.306 -0.155199 -5.7309 0
M  V30 5765 H 529.703 -0.920947 -5.92991 0
M  V30 5766 H 530.773 -1.46109 -4.62364 0
M  V30 5767 N 532.116 1.54067 -0.331816 0
M  V30 5768 C 533.362 2.01012 0.268667 0
M  V30 5769 C 533.695 1.2195 1.51136 0
M  V30 5770 O 532.97 0.303972 1.9211 0
M  V30 5771 C 533.253 3.55158 0.59456 0
M  V30 5772 C 533.106 4.4494 -0.659409 0
M  V30 5773 C 534.425 4.16939 1.4089 0
M  V30 5774 H 531.544 0.730698 0.0961756 0
M  V30 5775 H 534.186 1.84593 -0.450031 0
M  V30 5776 H 532.336 3.6928 1.20685 0
M  V30 5777 H 534.008 4.42675 -1.29756 0
M  V30 5778 H 532.251 4.1428 -1.28665 0
M  V30 5779 H 532.922 5.50643 -0.386804 0
M  V30 5780 H 535.398 4.06443 0.891272 0
M  V30 5781 H 534.274 5.24889 1.60569 0
M  V30 5782 H 534.535 3.70798 2.40752 0
M  V30 5783 N 533.594 0.0601682 1.57485 0
M  V30 5784 C 534.871 -0.651956 1.84415 0
M  V30 5785 C 535.251 -1.88498 0.950361 0
M  V30 5786 O 534.599 -2.28496 0.0136719 0
M  V30 5787 C 534.809 -1.00069 3.34346 0
M  V30 5788 C 536.157 -1.37915 4.01578 0
M  V30 5789 O 537.181 -1.09277 3.39024 0
M  V30 5790 O 536.04 -1.91399 5.11887 0
M  V30 5791 H 533.134 -0.322668 0.761455 0
M  V30 5792 H 535.68 0.0902159 1.6946 0
M  V30 5793 H 534.452 -0.124463 3.91102 0
M  V30 5794 H 534.075 -1.80001 3.54521 0
M  V30 5795 N 535.072 -1.5615 -0.213296 0
M  V30 5796 C 536.488 -1.49327 -0.56336 0
M  V30 5797 C 536.688 -0.756826 -1.86747 0
M  V30 5798 O 535.744 -0.299866 -2.50713 0
M  V30 5799 C 537.057 -2.9392 -0.634944 0
M  V30 5800 C 538.605 -3.04487 -0.725013 0
M  V30 5801 C 539.08 -4.50456 -0.82787 0
M  V30 5802 N 540.571 -4.54533 -0.891876 0
M  V30 5803 C 541.306 -5.64766 -0.991315 0
M  V30 5804 N 540.802 -6.84733 -1.05419 0
M  V30 5805 N 542.595 -5.52637 -1.02709 0
M  V30 5806 H 534.746 -2.02453 0.642366 0
M  V30 5807 H 537.009 -0.920548 0.226487 0
M  V30 5808 H 536.715 -3.50783 0.253859 0
M  V30 5809 H 536.589 -3.46274 -1.49579 0
M  V30 5810 H 538.976 -2.47685 -1.60425 0
M  V30 5811 H 539.057 -2.55289 0.161669 0
M  V30 5812 H 538.701 -5.07878 0.0469464 0
M  V30 5813 H 538.631 -4.97369 -1.73009 0
M  V30 5814 H 541.122 -3.68141 -0.85327 0
M  V30 5815 H 541.435 -7.64493 -1.13007 0
M  V30 5816 H 539.78 -6.87427 -1.02318 0
M  V30 5817 H 542.971 -4.5784 -0.974687 0
M  V30 5818 H 543.144 -6.38576 -1.10113 0
M  V30 5819 N 536.55 0.480323 -1.50102 0
M  V30 5820 C 537.5 1.57685 -1.6468 0
M  V30 5821 C 538.484 1.52878 -0.5017 0
M  V30 5822 O 539.676 1.60058 -0.755668 0
M  V30 5823 C 536.805 2.96185 -1.73578 0
M  V30 5824 C 535.891 3.0591 -2.93734 0
M  V30 5825 N 536.282 2.85471 -4.1754 0
M  V30 5826 C 534.58 3.37036 -2.92101 0
M  V30 5827 C 535.281 2.99921 -4.9842 0
M  V30 5828 N 534.257 3.29715 -4.32191 0
M  V30 5829 H 538.059 1.40568 -2.58104 0
M  V30 5830 H 535.573 0.686874 -1.47159 0
M  V30 5831 H 537.57 3.75015 -1.82124 0
M  V30 5832 H 536.23 3.14356 -0.813057 0
M  V30 5833 H 537.241 2.61235 -4.47188 0
M  V30 5834 H 533.918 3.61253 -2.09291 0
M  V30 5835 H 535.308 2.88436 -6.06839 0
M  V30 5836 N 538.028 1.39524 0.732853 0
M  V30 5837 C 538.975 1.38416 1.84688 0
M  V30 5838 C 539.945 0.243539 1.64305 0
M  V30 5839 O 541.13 0.438979 1.85681 0
M  V30 5840 C 538.27 1.23555 3.22224 0
M  V30 5841 C 537.383 2.47179 3.54298 0
M  V30 5842 C 536.518 2.2489 4.81246 0
M  V30 5843 C 535.557 3.44178 5.0617 0
M  V30 5844 N 534.694 3.21192 6.24323 0
M  V30 5845 H 539.534 2.33645 1.84971 0
M  V30 5846 H 537.071 1.16059 0.903804 0
M  V30 5847 H 539.029 1.12949 4.0162 0
M  V30 5848 H 537.659 0.31954 3.21215 0
M  V30 5849 H 536.711 2.68379 2.69587 0
M  V30 5850 H 538.023 3.36022 3.68633 0
M  V30 5851 H 537.177 2.11538 5.68627 0
M  V30 5852 H 535.916 1.33443 4.69089 0
M  V30 5853 H 534.921 3.58025 4.17251 0
M  V30 5854 H 536.146 4.36528 5.20212 0
M  V30 5855 H 534.092 2.32413 6.1345 0
M  V30 5856 H 534.009 4.03594 6.39256 0
M  V30 5857 H 535.277 3.1154 7.14537 0
M  V30 5858 N 539.506 -0.963266 1.24736 0
M  V30 5859 C 540.416 -2.09246 1.06082 0
M  V30 5860 C 541.432 -1.74 0.000363101 0
M  V30 5861 O 542.608 -2.0041 0.199479 0
M  V30 5862 C 539.673 -3.40115 0.672498 0
M  V30 5863 C 538.734 -3.89282 1.80993 0
M  V30 5864 C 537.967 -5.13905 1.44004 0
M  V30 5865 O 538.19 -5.69434 0.331835 0
M  V30 5866 O 537.124 -5.57566 2.26723 0
M  V30 5867 H 540.95 -2.27881 2.00759 0
M  V30 5868 H 538.535 -1.07649 1.03595 0
M  V30 5869 H 540.417 -4.18797 0.467668 0
M  V30 5870 H 539.092 -3.22771 -0.245102 0
M  V30 5871 H 537.999 -3.11642 2.06955 0
M  V30 5872 H 539.332 -4.1111 2.70646 0
M  V30 5873 N 540.985 -1.06182 -1.16461 0
M  V30 5874 C 542.213 -0.798583 -1.90867 0
M  V30 5875 C 542.628 0.646921 -1.77371 0
M  V30 5876 O 541.985 1.44279 -1.11758 0
M  V30 5877 C 542.036 -1.18258 -3.4161 0
M  V30 5878 O 541.757 -2.57135 -3.54701 0
M  V30 5879 C 543.258 -0.946917 -4.33069 0
M  V30 5880 H 540.478 -0.289603 -0.605286 0
M  V30 5881 H 543.022 -1.41515 -1.47627 0
M  V30 5882 H 541.177 -0.610562 -3.82558 0
M  V30 5883 H 541.591 -2.72477 -4.4817 0
M  V30 5884 H 543.065 -1.26523 -5.37304 0
M  V30 5885 H 543.542 0.117406 -4.39043 0
M  V30 5886 H 544.148 -1.50326 -3.97847 0
M  V30 5887 N 542.463 1.3308 -0.844243 0
M  V30 5888 C 543.393 2.3161 -0.296493 0
M  V30 5889 C 544.374 1.59215 0.598707 0
M  V30 5890 O 545.559 1.87077 0.521134 0
M  V30 5891 C 542.689 3.43313 0.524762 0
M  V30 5892 C 541.643 4.27115 -0.275106 0
M  V30 5893 C 540.969 5.30483 0.670236 0
M  V30 5894 C 542.269 5.00443 -1.49514 0
M  V30 5895 H 543.963 2.77672 -1.11976 0
M  V30 5896 H 541.509 1.33496 -0.539899 0
M  V30 5897 H 543.462 4.11273 0.918298 0
M  V30 5898 H 542.186 2.95952 1.3813 0
M  V30 5899 H 540.845 3.60787 -0.650267 0
M  V30 5900 H 540.493 4.79379 1.52332 0
M  V30 5901 H 540.193 5.87435 0.139123 0
M  V30 5902 H 541.717 6.01308 1.06117 0
M  V30 5903 H 543.131 5.61141 -1.17447 0
M  V30 5904 H 541.528 5.67071 -1.96343 0
M  V30 5905 H 542.598 4.28906 -2.26202 0
M  V30 5906 N 543.941 0.601185 1.45683 0
M  V30 5907 C 544.888 -0.121396 2.30481 0
M  V30 5908 C 545.858 -0.866232 1.41724 0
M  V30 5909 O 547.043 -0.85324 1.70659 0
M  V30 5910 C 544.183 -1.11704 3.26521 0
M  V30 5911 C 543.296 -0.373741 4.3038 0
M  V30 5912 C 542.431 -1.35854 5.13534 0
M  V30 5913 C 541.47 -0.602689 6.09126 0
M  V30 5914 N 540.607 -1.53645 6.85082 0
M  V30 5915 H 545.447 0.607732 2.91737 0
M  V30 5916 H 542.984 0.311502 1.43764 0
M  V30 5917 H 544.942 -1.70735 3.80664 0
M  V30 5918 H 543.572 -1.81366 2.67032 0
M  V30 5919 H 542.624 0.331962 3.78949 0
M  V30 5920 H 543.936 0.2163 4.98331 0
M  V30 5921 H 543.09 -2.02111 5.72046 0
M  V30 5922 H 541.829 -1.98251 4.45587 0
M  V30 5923 H 540.834 0.0735482 5.49751 0
M  V30 5924 H 542.059 0.0161467 6.79098 0
M  V30 5925 H 540.005 -2.14819 6.1983 0
M  V30 5926 H 539.922 -0.999688 7.49361 0
M  V30 5927 H 541.19 -2.1888 7.48139 0
M  V30 5928 N 545.419 -1.53889 0.339982 0
M  V30 5929 C 546.644 -2.05741 -0.261798 0
M  V30 5930 C 547.069 -1.21354 -1.43718 0
M  V30 5931 O 546.427 -0.22645 -1.7988 0
M  V30 5932 C 546.475 -3.54542 -0.658228 0
M  V30 5933 O 545.579 -3.7302 -1.75869 0
M  V30 5934 H 544.92 -0.662529 -0.0441672 0
M  V30 5935 H 547.45 -1.98568 0.493161 0
M  V30 5936 H 547.46 -3.9711 -0.936368 0
M  V30 5937 H 546.135 -4.15412 0.201358 0
M  V30 5938 H 544.712 -3.42355 -1.47809 0
M  V30 5939 N 546.897 -0.0685191 -1.57451 0
M  V30 5940 C 547.844 0.899861 -2.12535 0
M  V30 5941 C 548.814 1.29749 -1.03703 0
M  V30 5942 O 549.999 1.38392 -1.31348 0
M  V30 5943 C 547.139 2.16328 -2.6888 0
M  V30 5944 C 546.252 1.81857 -3.91857 0
M  V30 5945 C 545.387 3.02786 -4.36457 0
M  V30 5946 C 544.426 2.64317 -5.5209 0
M  V30 5947 N 543.563 3.77994 -5.91663 0
M  V30 5948 H 548.403 0.423243 -2.94979 0
M  V30 5949 H 545.94 0.197268 -1.45771 0
M  V30 5950 H 547.898 2.90281 -2.99655 0
M  V30 5951 H 546.528 2.61536 -1.89206 0
M  V30 5952 H 545.58 0.979808 -3.67565 0
M  V30 5953 H 546.892 1.49553 -4.75852 0
M  V30 5954 H 546.046 3.85021 -4.68875 0
M  V30 5955 H 544.785 3.38281 -3.51308 0
M  V30 5956 H 543.79 1.80503 -5.19325 0
M  V30 5957 H 545.015 2.29995 -6.38967 0
M  V30 5958 H 542.961 4.13258 -5.09464 0
M  V30 5959 H 542.878 3.49447 -6.7039 0
M  V30 5960 H 544.146 4.60818 -6.28703 0
M  V30 5961 N 548.375 1.56261 0.205012 0
M  V30 5962 C 549.603 1.84141 0.943386 0
M  V30 5963 C 550.018 0.649772 1.77266 0
M  V30 5964 O 549.375 -0.381612 1.78466 0
M  V30 5965 C 549.426 3.10719 1.84759 0
M  V30 5966 O 549.147 4.25286 1.05181 0
M  V30 5967 C 550.648 3.51706 2.69848 0
M  V30 5968 H 547.868 0.611734 0.275721 0
M  V30 5969 H 550.412 2.03364 0.215253 0
M  V30 5970 H 548.567 2.93422 2.52947 0
M  V30 5971 H 548.981 4.97301 1.66709 0
M  V30 5972 H 550.455 4.43266 3.28967 0
M  V30 5973 H 550.932 2.7423 3.43067 0
M  V30 5974 H 551.538 3.71499 2.07047 0
M  V30 5975 N 549.853 -0.472356 1.50355 0
M  V30 5976 C 550.785 -1.58795 1.65278 0
M  V30 5977 C 551.798 -1.53782 0.534313 0
M  V30 5978 O 552.987 -1.59193 0.807446 0
M  V30 5979 C 550.087 -2.97672 1.62001 0
M  V30 5980 C 549.26 -3.27568 2.89859 0
M  V30 5981 C 548.319 -4.45993 2.79242 0
M  V30 5982 O 547.345 -4.46364 3.53197 0
M  V30 5983 N 548.547 -5.47578 1.92713 0
M  V30 5984 H 551.312 -1.46411 2.61503 0
M  V30 5985 H 548.873 -0.660751 1.47803 0
M  V30 5986 H 550.865 -3.74862 1.52513 0
M  V30 5987 H 549.435 -3.03832 0.735159 0
M  V30 5988 H 548.655 -2.39003 3.13483 0
M  V30 5989 H 549.943 -3.44352 3.74565 0
M  V30 5990 H 549.341 -5.50099 1.31939 0
M  V30 5991 H 547.898 -6.23757 1.8913 0
M  V30 5992 O 551.37 -1.49213 -0.617887 0
M  V30 5993 H 552.061 -1.46058 -1.27227 0
M  V30 END ATOM
M  V30 BEGIN BOND
M  V30 END BOND
M  V30 END CTAB
M  END
$$$$
