drugbank_target|P83791 Cytochrome b6 (DB04646; DB08453)
 OpenBabel12092120223D

  0  0  0     0  0            999 V3000
M  V30 BEGIN CTAB
M  V30 COUNTS 3449 3501 0 0 0
M  V30 BEGIN ATOM
M  V30 1 H -0.908 1.98254 -0.117106 0
M  V30 2 N 0 1.576 0 0
M  V30 3 C 0.933 2.03868 1.02534 0
M  V30 4 C 1.911 0.928543 1.3348 0
M  V30 5 O 3.095 1.19667 1.45644 0
M  V30 6 C 0.222 2.43627 2.35294 0
M  V30 7 C -0.732 3.65373 2.2001 0
M  V30 8 S 0.101 5.13292 1.52614 0
M  V30 9 C 1.257 5.56322 2.86805 0
M  V30 10 H 1.49 2.90518 0.631377 0
M  V30 11 H -0.977 1.52953 0.210867 0
M  V30 12 H 0.981 2.67203 3.11629 0
M  V30 13 H -0.358 1.57376 2.7183 0
M  V30 14 H -1.165 3.90944 3.18086 0
M  V30 15 H -1.563 3.418 1.51819 0
M  V30 16 H 0.729 5.58782 3.83104 0
M  V30 17 H 1.672 6.56266 2.65933 0
M  V30 18 H 2.08 4.83886 2.90714 0
M  V30 19 N 1.4781 -0.272755 1.55222 0
M  V30 20 C 2.4411 -1.32041 1.87344 0
M  V30 21 C 3.4411 -1.42342 0.74803 0
M  V30 22 O 4.6311 -1.41488 1.0162 0
M  V30 23 C 1.7631 -2.70173 2.07893 0
M  V30 24 H 2.9561 -1.04789 2.80997 0
M  V30 25 H 0.5091 -0.51083 1.47717 0
M  V30 26 H 1.2441 -3.02605 1.16622 0
M  V30 27 H 1.0291 -2.64082 2.89833 0
M  V30 28 H 2.5191 -3.45869 2.34017 0
M  V30 29 N 2.9562 -1.48159 -0.537278 0
M  V30 30 C 3.9042 -1.62573 -1.66352 0
M  V30 31 C 4.8982 -0.492366 -1.62087 0
M  V30 32 O 6.1042 -0.670847 -1.67032 0
M  V30 33 H 2.4792 -0.511992 -0.550789 0
M  V30 34 H 4.4502 -2.57176 -1.51337 0
M  V30 35 C 3.1992 -1.67583 -3.04649 0
M  V30 36 H 2.5222 -2.54151 -3.08622 0
M  V30 37 H 3.9622 -1.81713 -3.83088 0
M  V30 38 C 2.4212 -0.413039 -3.34358 0
M  V30 39 O 2.9512 0.477259 -3.98855 0
M  V30 40 N 1.1572 -0.286961 -2.8918 0
M  V30 41 H 0.7042 -1.01241 -2.36871 0
M  V30 42 H 0.6622 0.556963 -3.09427 0
M  V30 43 N 4.4343 0.785586 -1.36625 0
M  V30 44 C 5.6803 1.54591 -1.31261 0
M  V30 45 C 6.0133 1.93906 0.106823 0
M  V30 46 O 5.2883 1.63007 1.06108 0
M  V30 47 C 5.5713 2.82038 -2.23889 0
M  V30 48 C 5.4243 2.49066 -3.74548 0
M  V30 49 C 6.7433 3.83887 -2.15217 0
M  V30 50 H 3.8623 0.560846 -0.478143 0
M  V30 51 H 6.5043 0.902278 -1.67209 0
M  V30 52 H 4.6543 3.36961 -1.93363 0
M  V30 53 H 6.3263 2.00164 -4.15611 0
M  V30 54 H 4.5693 1.81954 -3.93796 0
M  V30 55 H 5.2403 3.40109 -4.34776 0
M  V30 56 H 7.7163 3.38421 -2.42096 0
M  V30 57 H 6.5923 4.70806 -2.82193 0
M  V30 58 H 6.8533 4.27131 -1.14068 0
M  V30 59 N 5.9124 1.20967 1.01018 0
M  V30 60 C 7.1424 1.04803 1.78044 0
M  V30 61 C 7.5504 -0.405462 1.84804 0
M  V30 62 O 6.8934 -1.2932 1.30468 0
M  V30 63 C 6.9554 1.56377 3.23707 0
M  V30 64 C 6.6194 3.04767 3.40538 0
M  V30 65 C 7.6164 4.02366 3.29239 0
M  V30 66 C 5.3014 3.43862 3.66147 0
M  V30 67 C 7.2954 5.37049 3.43304 0
M  V30 68 C 4.9824 4.78699 3.79855 0
M  V30 69 C 5.9804 5.75101 3.68439 0
M  V30 70 O 5.6684 7.07493 3.81719 0
M  V30 71 H 5.4004 0.368778 0.56655 0
M  V30 72 H 7.9544 1.60642 1.27997 0
M  V30 73 H 6.1844 0.949297 3.74867 0
M  V30 74 H 7.8734 1.36136 3.8239 0
M  V30 75 H 8.6394 3.73506 3.09384 0
M  V30 76 H 4.5184 2.69364 3.74118 0
M  V30 77 H 8.0624 6.12277 3.34309 0
M  V30 78 H 3.9594 5.07247 3.99213 0
M  V30 79 H 4.7274 7.1483 3.98697 0
M  V30 80 N 7.3905 -1.2043 1.01659 0
M  V30 81 C 8.6675 -1.8548 0.621004 0
M  V30 82 C 9.0475 -1.9091 -0.900919 0
M  V30 83 O 8.3955 -1.41694 -1.79263 0
M  V30 84 C 8.6055 -3.25119 1.2688 0
M  V30 85 C 9.9535 -4.01403 1.38423 0
M  V30 86 O 10.9775 -3.34473 1.22501 0
M  V30 87 O 9.8365 -5.21265 1.64151 0
M  V30 88 H 6.9305 -0.798761 0.214266 0
M  V30 89 H 9.4765 -1.28019 1.11396 0
M  V30 90 H 8.2485 -3.15932 2.30873 0
M  V30 91 H 7.8715 -3.90212 0.762917 0
M  V30 92 N 8.8686 -0.792821 -1.36206 0
M  V30 93 C 10.1146 -0.376415 -1.99887 0
M  V30 94 C 10.4696 1.04127 -1.61788 0
M  V30 95 O 9.7626 1.71004 -0.864193 0
M  V30 96 C 9.9566 -0.481501 -3.54142 0
M  V30 97 C 9.7856 -1.90786 -4.07223 0
M  V30 98 C 8.5556 -2.53322 -4.37214 0
M  V30 99 C 10.7536 -2.87048 -4.26741 0
M  V30 100 N 8.7356 -3.8751 -4.7614 0
M  V30 101 C 10.1066 -4.06077 -4.6851 0
M  V30 102 C 12.1616 -2.8406 -4.08918 0
M  V30 103 C 10.8646 -5.22532 -4.94321 0
M  V30 104 C 12.8906 -3.99705 -4.35878 0
M  V30 105 C 12.2526 -5.1748 -4.77906 0
M  V30 106 H 8.3516 -0.185226 -0.759747 0
M  V30 107 H 10.9356 -1.03114 -1.65153 0
M  V30 108 H 9.1066 0.143154 -3.88136 0
M  V30 109 H 10.8386 -0.0410128 -4.04679 0
M  V30 110 H 7.5936 -2.04777 -4.2704 0
M  V30 111 H 8.0176 -4.5656 -4.99882 0
M  V30 112 H 12.6596 -1.94165 -3.75579 0
M  V30 113 H 10.3776 -6.1301 -5.2654 0
M  V30 114 H 13.9636 -3.98758 -4.23655 0
M  V30 115 H 12.8436 -6.05478 -4.98363 0
M  V30 116 N 10.3467 1.47872 -0.545128 0
M  V30 117 C 11.5937 2.02493 -0.0165858 0
M  V30 118 C 11.9217 1.42073 1.32836 0
M  V30 119 O 11.1767 0.561459 1.87473 0
M  V30 120 C 11.4757 3.57131 0.13867 0
M  V30 121 C 11.1417 4.36411 -1.13384 0
M  V30 122 C 9.8037 4.57792 -1.48256 0
M  V30 123 C 12.1557 4.82223 -1.97764 0
M  V30 124 C 9.4837 5.22233 -2.67376 0
M  V30 125 C 11.8357 5.47977 -3.16076 0
M  V30 126 C 10.4997 5.67593 -3.51275 0
M  V30 127 H 9.7697 0.740975 -0.00606918 0
M  V30 128 H 12.4167 1.77683 -0.714207 0
M  V30 129 H 10.7217 3.80865 0.919172 0
M  V30 130 H 12.4187 3.97031 0.562782 0
M  V30 131 H 9.0087 4.2004 -0.852297 0
M  V30 132 H 13.1927 4.65493 -1.72132 0
M  V30 133 H 8.4487 5.35616 -2.94831 0
M  V30 134 H 12.6227 5.8244 -3.81755 0
M  V30 135 H 10.2497 6.17298 -4.43675 0
M  V30 136 N 11.8248 0.280983 1.55075 0
M  V30 137 C 12.7568 -0.637268 2.20163 0
M  V30 138 C 13.7698 -1.11298 1.18813 0
M  V30 139 O 14.9588 -1.03388 1.4551 0
M  V30 140 C 12.0588 -1.88199 2.81841 0
M  V30 141 C 11.2318 -1.55211 4.08936 0
M  V30 142 C 10.2908 -2.64991 4.54606 0
M  V30 143 O 9.3168 -2.30929 5.2025 0
M  V30 144 N 10.5188 -3.95161 4.25238 0
M  V30 145 H 13.2838 -0.0801694 2.99593 0
M  V30 146 H 10.8448 0.102329 1.61576 0
M  V30 147 H 12.8368 -2.60948 3.09335 0
M  V30 148 H 11.4068 -2.34799 2.06369 0
M  V30 149 H 10.6268 -0.658185 3.88666 0
M  V30 150 H 11.9148 -1.30681 4.91732 0
M  V30 151 H 11.3128 -4.25653 3.72607 0
M  V30 152 H 9.8698 -4.6427 4.5749 0
M  V30 153 N 13.3029 -1.57598 0.00835791 0
M  V30 154 C 14.2129 -2.12385 -0.996487 0
M  V30 155 C 15.2289 -1.07108 -1.37127 0
M  V30 156 O 16.4049 -1.39055 -1.4569 0
M  V30 157 C 13.4699 -2.62314 -2.26699 0
M  V30 158 C 12.5309 -3.82225 -1.95456 0
M  V30 159 C 11.7639 -4.29763 -3.16449 0
M  V30 160 O 11.9869 -3.76584 -4.28416 0
M  V30 161 O 10.9209 -5.21832 -2.99958 0
M  V30 162 H 14.7469 -2.98479 -0.560725 0
M  V30 163 H 12.3319 -1.47903 -0.210987 0
M  V30 164 H 14.2139 -2.94589 -3.01322 0
M  V30 165 H 12.8889 -1.79313 -2.69497 0
M  V30 166 H 11.7959 -3.54909 -1.18282 0
M  V30 167 H 13.1289 -4.66324 -1.57489 0
M  V30 168 N 14.781 0.264519 -1.55364 0
M  V30 169 C 16.197 0.61215 -1.47394 0
M  V30 170 C 16.397 1.89134 -0.695018 0
M  V30 171 O 15.453 2.51563 -0.217275 0
M  V30 172 C 16.766 0.731235 -2.91674 0
M  V30 173 C 18.314 0.82473 -3.01939 0
M  V30 174 C 18.789 0.975522 -4.4749 0
M  V30 175 N 20.28 1.04083 -4.51354 0
M  V30 176 C 21.015 1.17646 -5.61201 0
M  V30 177 N 20.511 1.27874 -6.80896 0
M  V30 178 N 22.304 1.20823 -5.48961 0
M  V30 179 H 14.455 -0.575456 -2.04456 0
M  V30 180 H 16.718 -0.196099 -0.927496 0
M  V30 181 H 16.424 -0.138392 -3.51428 0
M  V30 182 H 16.298 1.60883 -3.41169 0
M  V30 183 H 18.685 1.68482 -2.42276 0
M  V30 184 H 18.766 -0.0776479 -2.55682 0
M  V30 185 H 18.41 0.120058 -5.07758 0
M  V30 186 H 18.34 1.89268 -4.91412 0
M  V30 187 H 20.831 0.973846 -3.65136 0
M  V30 188 H 21.144 1.38081 -7.60364 0
M  V30 189 H 19.489 1.24863 -6.83692 0
M  V30 190 H 22.68 1.12469 -4.54388 0
M  V30 191 H 22.853 1.31049 -6.3461 0
M  V30 192 N 16.2591 1.48442 0.529413 0
M  V30 193 C 17.1891 1.65902 1.64313 0
M  V30 194 C 18.1701 0.507897 1.6234 0
M  V30 195 O 19.3551 0.740503 1.79528 0
M  V30 196 C 16.4851 1.69911 3.02898 0
M  V30 197 C 15.4391 2.8453 3.19729 0
M  V30 198 C 14.7651 2.73629 4.59381 0
M  V30 199 C 16.0651 4.25821 3.02447 0
M  V30 200 H 17.7591 2.5914 1.49955 0
M  V30 201 H 15.3051 1.24709 0.719982 0
M  V30 202 H 17.2581 1.80715 3.80684 0
M  V30 203 H 15.9821 0.732524 3.18279 0
M  V30 204 H 14.6411 2.73283 2.44361 0
M  V30 205 H 14.2891 1.74938 4.71599 0
M  V30 206 H 13.9891 3.50541 4.71588 0
M  V30 207 H 15.5131 2.86401 5.39265 0
M  V30 208 H 16.9271 4.37898 3.70024 0
M  V30 209 H 15.3241 5.03735 3.26146 0
M  V30 210 H 16.3941 4.42244 1.98867 0
M  V30 211 N 17.7372 -0.778329 1.37039 0
M  V30 212 C 18.6472 -1.92253 1.34446 0
M  V30 213 C 19.6632 -1.72267 0.244991 0
M  V30 214 O 20.8392 -1.95615 0.479258 0
M  V30 215 C 17.9042 -3.27282 1.144 0
M  V30 216 C 16.9652 -3.59969 2.33925 0
M  V30 217 C 16.1982 -4.88555 2.14825 0
M  V30 218 O 16.4212 -5.59113 1.12912 0
M  V30 219 O 15.3552 -5.20153 3.02861 0
M  V30 220 H 19.1812 -1.97392 2.30803 0
M  V30 221 H 16.7662 -0.920154 1.17701 0
M  V30 222 H 18.6482 -4.08062 1.05182 0
M  V30 223 H 17.3232 -3.23011 0.211124 0
M  V30 224 H 16.2302 -2.7945 2.48714 0
M  V30 225 H 17.5632 -3.68976 3.25757 0
M  V30 226 N 19.2153 -1.21501 -1.00376 0
M  V30 227 C 20.4643 -1.02718 -1.73586 0
M  V30 228 C 20.7773 0.439589 -1.90596 0
M  V30 229 O 21.9833 0.746848 -2.61026 0
M  V30 230 C 20.4393 -1.78929 -3.1227 0
M  V30 231 C 20.0473 -3.29783 -3.03228 0
M  V30 232 C 21.7913 -1.68557 -3.89601 0
M  V30 233 C 19.6983 -3.98479 -4.36999 0
M  V30 234 H 18.6283 -0.380733 -0.650814 0
M  V30 235 H 21.2793 -1.45248 -1.1214 0
M  V30 236 H 19.6613 -1.29192 -3.74333 0
M  V30 237 H 20.8353 -3.86832 -2.50395 0
M  V30 238 H 19.1503 -3.40711 -2.39385 0
M  V30 239 H 21.7473 -2.17211 -4.88593 0
M  V30 240 H 22.0903 -0.644021 -4.11288 0
M  V30 241 H 22.6233 -2.15778 -3.34193 0
M  V30 242 H 19.3623 -5.02841 -4.20513 0
M  V30 243 H 18.8823 -3.46219 -4.89788 0
M  V30 244 H 20.5613 -4.03462 -5.05794 0
M  V30 245 N 20.6934 1.19889 -1.02296 0
M  V30 246 C 21.6254 2.22334 -0.556787 0
M  V30 247 C 22.6384 1.58674 0.364199 0
M  V30 248 O 23.8274 1.77768 0.161533 0
M  V30 249 C 20.9274 3.38257 0.208694 0
M  V30 250 C 20.1004 4.31504 -0.71577 0
M  V30 251 C 19.1594 5.262 0.00325597 0
M  V30 252 O 18.1854 5.65798 -0.621357 0
M  V30 253 N 19.3874 5.66303 1.27599 0
M  V30 254 H 22.1524 2.62957 -1.43784 0
M  V30 255 H 19.7134 1.34495 -0.901261 0
M  V30 256 H 21.7054 3.98616 0.699111 0
M  V30 257 H 20.2754 2.96472 0.991102 0
M  V30 258 H 19.4954 3.69016 -1.38638 0
M  V30 259 H 20.7834 4.9072 -1.34428 0
M  V30 260 H 20.1814 5.36155 1.80429 0
M  V30 261 H 18.7384 6.28942 1.71102 0
M  V30 262 N 22.1715 0.800033 1.35784 0
M  V30 263 C 23.1345 0.211565 2.28221 0
M  V30 264 C 24.1345 -0.59728 1.49296 0
M  V30 265 O 25.3245 -0.416721 1.69142 0
M  V30 266 C 22.4565 -0.705846 3.33513 0
M  V30 267 H 23.6495 1.02677 2.81776 0
M  V30 268 H 21.2025 0.570211 1.45528 0
M  V30 269 H 21.9375 -1.54498 2.85133 0
M  V30 270 H 21.7225 -0.127655 3.91892 0
M  V30 271 H 23.2125 -1.11211 4.02519 0
M  V30 272 N 23.6496 -1.47581 0.552962 0
M  V30 273 C 24.5796 -2.32762 -0.185451 0
M  V30 274 C 25.5606 -1.43527 -0.912905 0
M  V30 275 O 26.7456 -1.72388 -0.894201 0
M  V30 276 C 23.8756 -3.25219 -1.21859 0
M  V30 277 C 22.8296 -4.23661 -0.607864 0
M  V30 278 C 22.1556 -5.05413 -1.74533 0
M  V30 279 C 23.4556 -5.20481 0.435582 0
M  V30 280 H 25.1496 -2.94749 0.525684 0
M  V30 281 H 22.6956 -1.41738 0.254251 0
M  V30 282 H 24.6486 -3.8365 -1.7433 0
M  V30 283 H 23.3726 -2.61279 -1.95961 0
M  V30 284 H 22.0316 -3.66451 -0.104489 0
M  V30 285 H 21.6796 -4.3788 -2.47529 0
M  V30 286 H 21.3796 -5.72059 -1.34249 0
M  V30 287 H 22.9036 -5.66701 -2.27338 0
M  V30 288 H 24.3176 -5.733 -0.00290157 0
M  V30 289 H 22.7146 -5.95305 0.757067 0
M  V30 290 H 23.7846 -4.66217 1.33303 0
M  V30 291 N 25.1277 -0.289203 -1.54924 0
M  V30 292 C 26.0907 0.579144 -2.21762 0
M  V30 293 C 27.0907 1.07047 -1.1999 0
M  V30 294 O 28.2807 0.968384 -1.44803 0
M  V30 295 C 25.4127 1.80055 -2.8947 0
M  V30 296 H 26.6057 -0.00464908 -2.999 0
M  V30 297 H 24.1587 -0.0399306 -1.56249 0
M  V30 298 H 24.8937 2.42449 -2.15381 0
M  V30 299 H 24.6787 1.45602 -3.64064 0
M  V30 300 H 26.1687 2.41773 -3.40493 0
M  V30 301 N 26.6058 1.57591 -0.0167156 0
M  V30 302 C 27.8828 1.82547 0.702564 0
M  V30 303 C 28.2628 0.898018 1.91047 0
M  V30 304 O 27.6108 -0.0493456 2.28447 0
M  V30 305 C 27.8208 3.31459 1.09251 0
M  V30 306 C 29.1688 3.97622 1.48937 0
M  V30 307 O 30.1928 3.35881 1.18584 0
M  V30 308 O 29.0518 5.06415 2.05442 0
M  V30 309 H 26.1458 0.752268 0.343544 0
M  V30 310 H 28.6918 1.69644 -0.0434495 0
M  V30 311 H 27.4638 3.9061 0.23227 0
M  V30 312 H 27.0868 3.49422 1.89709 0
M  V30 313 N 28.0839 -0.256276 1.55502 0
M  V30 314 C 29.3609 -1.00789 1.67633 0
M  V30 315 C 29.7409 -2.03706 0.553826 0
M  V30 316 O 29.0889 -2.24145 -0.443969 0
M  V30 317 C 29.2989 -1.64968 3.07549 0
M  V30 318 C 30.6469 -2.15505 3.65845 0
M  V30 319 O 31.6709 -1.74925 3.1029 0
M  V30 320 O 30.5299 -2.89986 4.63217 0
M  V30 321 H 27.6239 -0.468553 0.681459 0
M  V30 322 H 30.1699 -0.250806 1.67836 0
M  V30 323 H 28.9419 -0.904785 3.80696 0
M  V30 324 H 28.5649 -2.47321 3.11317 0
M  V30 325 N 29.562 -1.4872 -0.521534 0
M  V30 326 C 30.808 -1.574 -1.27879 0
M  V30 327 C 31.141 -0.250817 -1.92573 0
M  V30 328 O 30.416 0.743934 -1.79711 0
M  V30 329 C 30.699 -2.71843 -2.36164 0
M  V30 330 C 30.552 -4.13893 -1.76105 0
M  V30 331 C 31.871 -2.82008 -3.37875 0
M  V30 332 H 28.99 -0.572941 -0.463581 0
M  V30 333 H 31.632 -1.80927 -0.580119 0
M  V30 334 H 29.782 -2.51914 -2.95756 0
M  V30 335 H 31.454 -4.45284 -1.20499 0
M  V30 336 H 29.697 -4.20498 -1.06601 0
M  V30 337 H 30.368 -4.89804 -2.5455 0
M  V30 338 H 32.844 -3.00086 -2.88249 0
M  V30 339 H 31.72 -3.63796 -4.11028 0
M  V30 340 H 31.981 -1.90511 -3.98946 0
M  V30 341 N 31.0401 0.771051 -1.3745 0
M  V30 342 C 32.2681 1.56015 -1.35893 0
M  V30 343 C 32.6831 1.88718 0.0555523 0
M  V30 344 O 32.0401 1.51502 1.01752 0
M  V30 345 C 32.0911 2.87001 -2.19801 0
M  V30 346 O 31.8121 2.557 -3.55738 0
M  V30 347 C 33.3131 3.81228 -2.26231 0
M  V30 348 H 30.5331 0.483317 -0.465453 0
M  V30 349 H 33.0771 0.955611 -1.80799 0
M  V30 350 H 31.2321 3.43877 -1.78402 0
M  V30 351 H 31.6461 3.39584 -3.99729 0
M  V30 352 H 33.1201 4.70139 -2.89263 0
M  V30 353 H 33.5971 4.20409 -1.27093 0
M  V30 354 H 34.2031 3.30281 -2.67945 0
M  V30 355 N 32.5182 1.22032 0.997298 0
M  V30 356 C 33.7432 1.06921 1.77715 0
M  V30 357 C 34.1682 -0.376226 1.84299 0
M  V30 358 O 33.5262 -1.27165 1.29223 0
M  V30 359 C 33.5742 1.67996 3.19076 0
M  V30 360 O 32.6782 0.930653 4.01762 0
M  V30 361 H 32.0192 0.375814 0.547412 0
M  V30 362 H 34.5492 1.61737 1.25309 0
M  V30 363 H 34.5592 1.72538 3.69723 0
M  V30 364 H 33.2342 2.73182 3.13599 0
M  V30 365 H 31.8112 0.960917 3.60307 0
M  V30 366 N 33.9963 -1.19345 1.0293 0
M  V30 367 C 34.9433 -2.2258 0.610464 0
M  V30 368 C 35.9133 -1.6179 -0.375946 0
M  V30 369 O 37.0983 -1.88844 -0.272511 0
M  V30 370 C 34.2383 -3.45085 -0.0321473 0
M  V30 371 C 33.3513 -4.20258 1.00035 0
M  V30 372 C 32.4863 -5.3019 0.32746 0
M  V30 373 C 31.5253 -5.97121 1.34584 0
M  V30 374 N 30.6623 -6.98615 0.698726 0
M  V30 375 H 35.5023 -2.57764 1.49538 0
M  V30 376 H 33.0393 -1.26644 0.748311 0
M  V30 377 H 34.9973 -4.15061 -0.421966 0
M  V30 378 H 33.6273 -3.10555 -0.88064 0
M  V30 379 H 32.6793 -3.49223 1.50823 0
M  V30 380 H 33.9913 -4.66175 1.77433 0
M  V30 381 H 33.1453 -6.06587 -0.11718 0
M  V30 382 H 31.8843 -4.85345 -0.478713 0
M  V30 383 H 30.8893 -5.19474 1.80074 0
M  V30 384 H 32.1143 -6.4405 2.15352 0
M  V30 385 H 30.0603 -6.55942 -0.0873471 0
M  V30 386 H 29.9773 -7.42724 1.41058 0
M  V30 387 H 31.2453 -7.79004 0.278102 0
M  V30 388 N 35.4744 -0.807222 -1.35358 0
M  V30 389 C 36.7044 -0.399796 -2.02695 0
M  V30 390 C 37.1124 0.994176 -1.60974 0
M  V30 391 O 36.4554 1.65209 -0.803226 0
M  V30 392 C 36.5174 -0.404445 -3.57218 0
M  V30 393 C 36.1814 -1.74904 -4.22206 0
M  V30 394 C 37.1784 -2.70743 -4.4384 0
M  V30 395 C 34.8634 -2.03322 -4.5931 0
M  V30 396 C 36.8574 -3.93183 -5.01683 0
M  V30 397 C 34.5444 -3.26026 -5.16866 0
M  V30 398 C 35.5424 -4.20774 -5.37994 0
M  V30 399 O 35.2304 -5.41312 -5.94337 0
M  V30 400 H 34.9624 -0.160517 -0.656666 0
M  V30 401 H 37.5164 -1.09235 -1.73945 0
M  V30 402 H 35.7464 0.344707 -3.85161 0
M  V30 403 H 37.4354 -0.0192429 -4.05895 0
M  V30 404 H 38.2014 -2.5008 -4.15554 0
M  V30 405 H 34.0804 -1.30384 -4.42178 0
M  V30 406 H 37.6244 -4.6715 -5.1809 0
M  V30 407 H 33.5214 -3.46559 -5.44579 0
M  V30 408 H 34.2894 -5.42618 -6.12787 0
M  V30 409 N 36.9525 1.47285 -0.560781 0
M  V30 410 C 38.1985 2.02764 -0.0381184 0
M  V30 411 C 38.5315 1.43384 1.30976 0
M  V30 412 O 37.8065 0.590733 1.85312 0
M  V30 413 C 38.0895 3.60064 0.0511427 0
M  V30 414 C 37.9425 4.2987 -1.32408 0
M  V30 415 C 39.2615 4.33439 0.762795 0
M  V30 416 H 36.3805 0.736841 -0.0153264 0
M  V30 417 H 39.0225 1.75675 -0.723759 0
M  V30 418 H 37.1725 3.83274 0.635065 0
M  V30 419 H 38.8445 4.17989 -1.95148 0
M  V30 420 H 37.0875 3.90085 -1.8978 0
M  V30 421 H 37.7585 5.38478 -1.21431 0
M  V30 422 H 40.2345 4.15243 0.266965 0
M  V30 423 H 39.1105 5.43124 0.794221 0
M  V30 424 H 39.3715 4.02915 1.81966 0
M  V30 425 N 38.4306 0.297415 1.54768 0
M  V30 426 C 39.8416 -0.195947 1.85669 0
M  V30 427 C 40.1926 -1.53707 1.21937 0
M  V30 428 O 39.3176 -2.10164 0.515754 0
M  V30 429 C 39.9126 -0.362318 3.36857 0
M  V30 430 C 38.4716 -0.799901 3.67802 0
M  V30 431 C 37.6186 0.0938578 2.77141 0
M  V30 432 H 40.5696 0.518538 1.4999 0
M  V30 433 H 40.5906 -1.19745 3.61167 0
M  V30 434 H 40.1026 0.613921 3.83214 0
M  V30 435 H 38.2036 -1.78682 3.26961 0
M  V30 436 H 38.3166 -0.621773 4.75048 0
M  V30 437 H 36.6806 -0.426254 2.51108 0
M  V30 438 H 37.4636 1.06639 3.26318 0
M  V30 439 N 39.9087 -1.5758 0.0250728 0
M  V30 440 C 41.3197 -1.79476 -0.514323 0
M  V30 441 C 41.6707 -0.934956 -1.72491 0
M  V30 442 O 40.7957 -0.144245 -2.15919 0
M  V30 443 C 41.3907 -3.25503 -0.939842 0
M  V30 444 C 39.9497 -3.48408 -1.42438 0
M  V30 445 C 39.0967 -2.74583 -0.387201 0
M  V30 446 H 42.0477 -1.567 0.25113 0
M  V30 447 H 42.0687 -3.34992 -1.80445 0
M  V30 448 H 41.5807 -3.88056 -0.0585628 0
M  V30 449 H 39.6817 -2.91103 -2.32572 0
M  V30 450 H 39.7947 -4.57119 -1.43455 0
M  V30 451 H 38.1587 -2.39942 -0.854409 0
M  V30 452 H 38.9417 -3.39849 0.485543 0
M  V30 453 N 41.3868 0.248026 -1.55636 0
M  V30 454 C 42.3368 1.30994 -1.86614 0
M  V30 455 C 43.3208 1.43543 -0.726918 0
M  V30 456 O 44.5128 1.46804 -0.988818 0
M  V30 457 C 41.6418 2.6656 -2.16335 0
M  V30 458 C 40.7278 2.58019 -3.36581 0
M  V30 459 N 41.1188 2.1911 -4.55878 0
M  V30 460 C 39.4168 2.89035 -3.39669 0
M  V30 461 C 40.1178 2.21174 -5.38012 0
M  V30 462 N 39.0938 2.60632 -4.77045 0
M  V30 463 H 42.8958 0.999583 -2.76379 0
M  V30 464 H 40.4098 0.456652 -1.55848 0
M  V30 465 H 42.4068 3.43194 -2.36692 0
M  V30 466 H 41.0668 2.98463 -1.27867 0
M  V30 467 H 42.0778 1.90672 -4.81523 0
M  V30 468 H 38.7548 3.25485 -2.61469 0
M  V30 469 H 40.1448 1.9344 -6.43452 0
M  V30 470 N 42.8649 1.48995 0.513639 0
M  V30 471 C 44.1109 1.58076 1.27042 0
M  V30 472 C 44.4439 0.261026 1.92438 0
M  V30 473 O 43.7189 -0.734393 1.80103 0
M  V30 474 C 44.0019 2.73091 2.34719 0
M  V30 475 C 43.8549 4.14821 1.73907 0
M  V30 476 C 45.1739 2.83796 3.36375 0
M  V30 477 H 42.2929 0.575391 0.460536 0
M  V30 478 H 44.9349 1.81232 0.570516 0
M  V30 479 H 43.0849 2.53479 2.94416 0
M  V30 480 H 44.7569 4.45917 1.18135 0
M  V30 481 H 42.9999 4.21058 1.0437 0
M  V30 482 H 43.6709 4.91147 2.51949 0
M  V30 483 H 46.1469 3.01611 2.86653 0
M  V30 484 H 45.0229 3.65971 4.09093 0
M  V30 485 H 45.2839 1.92624 3.9793 0
M  V30 486 N 44.343 -0.763751 1.37857 0
M  V30 487 C 45.291 -1.89864 1.34367 0
M  V30 488 C 46.285 -1.67816 0.231143 0
M  V30 489 O 47.491 -1.75508 0.399617 0
M  V30 490 H 43.866 -0.624501 0.41893 0
M  V30 491 H 45.837 -1.89925 2.30155 0
M  V30 492 C 44.586 -3.27227 1.1755 0
M  V30 493 H 43.909 -3.44773 2.02414 0
M  V30 494 H 45.349 -4.06911 1.1916 0
M  V30 495 C 43.808 -3.36692 -0.118311 0
M  V30 496 O 44.338 -3.86374 -1.09902 0
M  V30 497 N 42.544 -2.90092 -0.171717 0
M  V30 498 H 42.091 -2.49853 0.627012 0
M  V30 499 H 42.049 -2.96806 -1.03699 0
M  V30 500 N 45.8211 -1.22559 -0.990812 0
M  V30 501 C 47.0701 -1.04553 -1.72486 0
M  V30 502 C 47.3831 0.419349 -1.91052 0
M  V30 503 O 48.5891 0.719121 -2.61803 0
M  V30 504 C 47.0451 -1.82231 -3.10355 0
M  V30 505 C 46.6531 -3.32981 -2.99713 0
M  V30 506 C 48.3971 -1.7268 -3.87791 0
M  V30 507 C 46.3041 -4.03091 -4.32748 0
M  V30 508 H 45.2341 -0.387614 -0.646739 0
M  V30 509 H 47.8851 -1.46429 -1.10593 0
M  V30 510 H 46.2671 -1.33155 -3.72942 0
M  V30 511 H 47.4411 -3.89466 -2.46278 0
M  V30 512 H 45.7561 -3.43231 -2.35758 0
M  V30 513 H 48.3531 -2.22381 -4.86262 0
M  V30 514 H 48.6961 -0.687607 -4.10582 0
M  V30 515 H 49.2291 -2.1931 -3.31885 0
M  V30 516 H 45.9681 -5.07273 -4.15156 0
M  V30 517 H 45.4881 -3.51394 -4.86089 0
M  V30 518 H 47.1671 -4.08804 -5.01486 0
M  V30 519 N 47.2992 1.18797 -1.03562 0
M  V30 520 C 48.5462 1.8865 -0.736023 0
M  V30 521 C 48.8742 1.80041 0.735889 0
M  V30 522 O 48.1292 1.19179 1.55225 0
M  V30 523 C 48.4282 3.38692 -1.14117 0
M  V30 524 C 48.0942 3.67504 -2.6125 0
M  V30 525 C 46.7562 3.75078 -3.01447 0
M  V30 526 C 49.1082 3.80293 -3.56408 0
M  V30 527 C 46.4362 3.92915 -4.35701 0
M  V30 528 C 48.7882 3.99645 -4.90374 0
M  V30 529 C 47.4522 4.05453 -5.30249 0
M  V30 530 H 46.7222 0.690321 -0.26933 0
M  V30 531 H 49.3692 1.40641 -1.29971 0
M  V30 532 H 47.6742 3.88645 -0.496202 0
M  V30 533 H 49.3712 3.91072 -0.886789 0
M  V30 534 H 45.9612 3.62223 -2.29113 0
M  V30 535 H 50.1452 3.73779 -3.26501 0
M  V30 536 H 45.4012 3.95653 -4.66121 0
M  V30 537 H 49.5752 4.08482 -5.64017 0
M  V30 538 H 47.2022 4.19027 -6.34288 0
M  V30 539 N 48.7773 0.814389 1.34928 0
M  V30 540 C 50.0073 0.41054 2.0248 0
M  V30 541 C 50.4153 -0.985625 1.61499 0
M  V30 542 O 49.7583 -1.64781 0.811976 0
M  V30 543 C 49.8203 0.423384 3.56998 0
M  V30 544 C 49.4843 1.77141 4.21272 0
M  V30 545 C 50.4813 2.73093 4.42398 0
M  V30 546 C 48.1663 2.05755 4.58225 0
M  V30 547 C 50.1603 3.95838 4.9959 0
M  V30 548 C 47.8473 3.28762 5.1513 0
M  V30 549 C 48.8453 4.23621 5.35755 0
M  V30 550 O 48.5333 5.44456 5.91458 0
M  V30 551 H 48.2653 0.163997 0.655806 0
M  V30 552 H 50.8193 1.10155 1.73364 0
M  V30 553 H 49.0493 -0.324276 3.85338 0
M  V30 554 H 50.7383 0.0407683 4.0588 0
M  V30 555 H 51.5043 2.5228 4.14222 0
M  V30 556 H 47.3833 1.32727 4.4148 0
M  V30 557 H 50.9273 4.69891 5.15605 0
M  V30 558 H 46.8243 3.49443 5.42734 0
M  V30 559 H 47.5923 5.4586 6.09901 0
M  V30 560 N 50.2554 -1.46986 0.568584 0
M  V30 561 C 51.4954 -2.04336 0.0512999 0
M  V30 562 C 51.8594 -1.43214 -1.27881 0
M  V30 563 O 53.0604 -1.91679 -1.88448 0
M  V30 564 C 51.3314 -3.57389 -0.0282328 0
M  V30 565 S 52.8904 -4.36056 -0.489991 0
M  V30 566 H 49.7084 -0.71034 0.0306349 0
M  V30 567 H 52.3104 -1.80212 0.757891 0
M  V30 568 H 51.0144 -3.99395 0.944011 0
M  V30 569 H 50.5454 -3.86028 -0.75803 0
M  V30 570 H 52.5604 -4.6441 -1.74752 0
M  V30 571 N 51.7335 -0.305618 -1.54608 0
M  V30 572 C 52.6635 0.561482 -2.26649 0
M  V30 573 C 53.6445 1.13415 -1.26772 0
M  V30 574 O 54.8295 1.16262 -1.55553 0
M  V30 575 C 51.9595 1.73122 -3.01075 0
M  V30 576 C 50.9135 1.2887 -4.08138 0
M  V30 577 C 50.2395 2.54396 -4.70305 0
M  V30 578 C 51.5395 0.416578 -5.20636 0
M  V30 579 H 53.2335 -0.0393902 -2.99374 0
M  V30 580 H 50.7795 -0.020385 -1.43986 0
M  V30 581 H 52.7325 2.34396 -3.50195 0
M  V30 582 H 51.4565 2.3584 -2.25936 0
M  V30 583 H 50.1155 0.698991 -3.59875 0
M  V30 584 H 49.7635 3.15439 -3.918 0
M  V30 585 H 49.4635 2.25486 -5.42614 0
M  V30 586 H 50.9875 3.16464 -5.2219 0
M  V30 587 H 52.4015 0.935116 -5.65622 0
M  V30 588 H 50.7985 0.221046 -5.99693 0
M  V30 589 H 51.8685 -0.557162 -4.81688 0
M  V30 590 N 53.2116 1.57565 -0.0334293 0
M  V30 591 C 54.4596 1.91598 0.642999 0
M  V30 592 C 54.7806 0.910847 1.7242 0
M  V30 593 O 54.0506 -0.0469931 1.95844 0
M  V30 594 H 52.6306 0.707228 0.240496 0
M  V30 595 H 55.2926 1.94726 -0.0822488 0
M  V30 596 H 54.3886 2.92336 1.09298 0
M  V30 597 N 54.6897 -0.239769 1.55765 0
M  V30 598 C 55.9377 -0.964892 1.77579 0
M  V30 599 C 56.2587 -1.85582 0.598699 0
M  V30 600 O 55.5287 -1.92075 -0.385226 0
M  V30 601 H 54.1087 -0.359265 0.654933 0
M  V30 602 H 56.7707 -0.256001 1.93211 0
M  V30 603 H 55.8667 -1.58243 2.69009 0
M  V30 604 N 56.1678 -1.49265 -0.50573 0
M  V30 605 C 57.4168 -1.57761 -1.25675 0
M  V30 606 C 57.7298 -0.267371 -1.93764 0
M  V30 607 O 58.9358 -0.230827 -2.70517 0
M  V30 608 C 57.3918 -2.78332 -2.28165 0
M  V30 609 C 56.9998 -4.16096 -1.66037 0
M  V30 610 C 58.7438 -2.96155 -3.04125 0
M  V30 611 C 56.6508 -5.27895 -2.6661 0
M  V30 612 H 55.5808 -0.587391 -0.472745 0
M  V30 613 H 58.2318 -1.75644 -0.53118 0
M  V30 614 H 56.6138 -2.53934 -3.03865 0
M  V30 615 H 57.7878 -4.50612 -0.963622 0
M  V30 616 H 56.1028 -4.03591 -1.02484 0
M  V30 617 H 58.6998 -3.76849 -3.79327 0
M  V30 618 H 59.0428 -2.06534 -3.61455 0
M  V30 619 H 59.5758 -3.2057 -2.35541 0
M  V30 620 H 56.3148 -6.1956 -2.14068 0
M  V30 621 H 55.8348 -4.97839 -3.34539 0
M  V30 622 H 57.5138 -5.57031 -3.29129 0
M  V30 623 N 57.6459 0.756429 -1.3826 0
M  V30 624 C 58.8739 1.54565 -1.3754 0
M  V30 625 C 59.2889 1.88767 0.0355331 0
M  V30 626 O 58.6459 1.52572 1.0014 0
M  V30 627 C 58.6969 2.84654 -2.22833 0
M  V30 628 O 58.4179 2.51912 -3.5843 0
M  V30 629 C 59.9189 3.78807 -2.30261 0
M  V30 630 H 57.1389 0.478353 -0.470553 0
M  V30 631 H 59.6829 0.936381 -1.81803 0
M  V30 632 H 57.8379 3.41965 -1.8204 0
M  V30 633 H 58.2519 3.35325 -4.03308 0
M  V30 634 H 59.7259 4.67045 -2.94233 0
M  V30 635 H 60.2029 4.19038 -1.31545 0
M  V30 636 H 60.8089 3.2742 -2.71433 0
M  V30 637 N 59.124 1.23083 0.984299 0
M  V30 638 C 60.054 1.03292 2.09411 0
M  V30 639 C 61.035 -0.048923 1.7003 0
M  V30 640 O 62.22 0.114967 1.93859 0
M  V30 641 C 59.35 0.619155 3.41736 0
M  V30 642 C 58.304 1.64791 3.95004 0
M  V30 643 C 57.63 1.0897 5.23478 0
M  V30 644 C 58.93 3.03999 4.24714 0
M  V30 645 H 60.624 1.96119 2.26225 0
M  V30 646 H 58.17 0.944344 1.08711 0
M  V30 647 H 60.123 0.467777 4.18796 0
M  V30 648 H 58.847 -0.344786 3.24775 0
M  V30 649 H 57.506 1.78721 3.20085 0
M  V30 650 H 57.154 0.11686 5.02864 0
M  V30 651 H 56.854 1.77704 5.60085 0
M  V30 652 H 58.378 0.950093 6.03163 0
M  V30 653 H 59.792 2.93393 4.92538 0
M  V30 654 H 58.189 3.69936 4.72512 0
M  V30 655 H 59.259 3.53285 3.32142 0
M  V30 656 N 60.6021 -1.18246 1.0419 0
M  V30 657 C 61.8301 -1.92195 0.766072 0
M  V30 658 C 62.2451 -1.76247 -0.676933 0
M  V30 659 O 61.6021 -1.09293 -1.46155 0
M  V30 660 C 61.6531 -3.43568 1.12442 0
M  V30 661 O 61.3741 -3.59015 2.51078 0
M  V30 662 C 62.8751 -4.34613 0.873275 0
M  V30 663 H 60.0951 -0.610114 0.279288 0
M  V30 664 H 62.6391 -1.50007 1.38989 0
M  V30 665 H 60.7941 -3.8354 0.545542 0
M  V30 666 H 61.2081 -4.5273 2.64831 0
M  V30 667 H 62.6821 -5.39374 1.17385 0
M  V30 668 H 63.1591 -4.38781 -0.191909 0
M  V30 669 H 63.7651 -4.00341 1.43551 0
M  V30 670 N 62.0802 -0.821533 -1.34494 0
M  V30 671 C 63.3202 -0.414785 -2.00147 0
M  V30 672 C 63.6842 1.00299 -1.6372 0
M  V30 673 O 64.8852 1.51255 -2.22206 0
M  V30 674 C 63.1562 -0.609403 -3.52166 0
M  V30 675 S 64.7152 -0.295297 -4.37805 0
M  V30 676 H 61.5332 -0.15679 -0.693497 0
M  V30 677 H 64.1352 -1.06705 -1.63812 0
M  V30 678 H 62.8392 -1.64096 -3.76166 0
M  V30 679 H 62.3702 0.0576414 -3.93358 0
M  V30 680 H 64.3852 0.891531 -4.88125 0
M  V30 681 N 63.5583 1.46682 -0.576371 0
M  V30 682 C 64.8053 2.02412 -0.0595339 0
M  V30 683 C 65.1333 1.44859 1.29793 0
M  V30 684 O 64.3883 0.601099 1.8624 0
M  V30 685 C 64.6873 3.57345 0.062886 0
M  V30 686 C 64.3533 4.33908 -1.22616 0
M  V30 687 C 63.0153 4.54544 -1.57933 0
M  V30 688 C 65.3673 4.77919 -2.07948 0
M  V30 689 C 62.6953 5.16444 -2.78393 0
M  V30 690 C 65.0473 5.41149 -3.27629 0
M  V30 691 C 63.7113 5.60014 -3.63236 0
M  V30 692 H 62.9813 0.74068 -0.021785 0
M  V30 693 H 65.6283 1.76128 -0.751735 0
M  V30 694 H 63.9333 3.82729 0.838178 0
M  V30 695 H 65.6303 3.98136 0.478439 0
M  V30 696 H 62.2203 4.18138 -0.941202 0
M  V30 697 H 66.4043 4.61738 -1.81967 0
M  V30 698 H 61.6603 5.29242 -3.06126 0
M  V30 699 H 65.8343 5.74211 -3.94023 0
M  V30 700 H 63.4613 6.07748 -4.56669 0
M  V30 701 N 65.0364 0.313813 1.54444 0
M  V30 702 C 65.9664 -0.549454 2.26943 0
M  V30 703 C 66.9474 -1.12741 1.27372 0
M  V30 704 O 68.1324 -1.15436 1.56167 0
M  V30 705 C 65.2624 -1.71523 3.01989 0
M  V30 706 C 64.2164 -1.26703 4.08816 0
M  V30 707 C 63.5424 -2.51898 4.71647 0
M  V30 708 C 64.8424 -0.388962 5.2085 0
M  V30 709 H 66.5364 0.0552661 2.99349 0
M  V30 710 H 64.0824 0.0280207 1.43973 0
M  V30 711 H 66.0354 -2.32535 3.51433 0
M  V30 712 H 64.7594 -2.34639 2.27183 0
M  V30 713 H 63.4184 -0.679896 3.6024 0
M  V30 714 H 63.0664 -3.13356 3.93468 0
M  V30 715 H 62.7664 -2.22605 5.43802 0
M  V30 716 H 64.2904 -3.1369 5.23861 0
M  V30 717 H 65.7044 -0.905107 5.6611 0
M  V30 718 H 64.1014 -0.18924 5.99802 0
M  V30 719 H 65.1714 0.582699 4.81386 0
M  V30 720 N 66.5145 -1.57545 0.0417849 0
M  V30 721 C 67.7635 -1.91494 -0.633492 0
M  V30 722 C 68.0765 -0.921084 -1.72556 0
M  V30 723 O 69.2825 -1.15228 -2.45835 0
M  V30 724 C 67.7385 -3.40072 -1.17808 0
M  V30 725 C 67.3465 -4.47843 -0.118633 0
M  V30 726 C 69.0905 -3.8307 -1.82915 0
M  V30 727 C 66.9975 -5.87529 -0.675578 0
M  V30 728 H 65.9275 -0.714653 -0.24039 0
M  V30 729 H 68.5785 -1.83175 0.109148 0
M  V30 730 H 66.9605 -3.43364 -1.97274 0
M  V30 731 H 68.1345 -4.56128 0.654494 0
M  V30 732 H 66.4495 -4.14128 0.434414 0
M  V30 733 H 69.0465 -4.84794 -2.25563 0
M  V30 734 H 69.3895 -3.1881 -2.67705 0
M  V30 735 H 69.9225 -3.82255 -1.10119 0
M  V30 736 H 66.6615 -6.55362 0.134475 0
M  V30 737 H 66.1815 -5.82824 -1.4169 0
M  V30 738 H 67.8605 -6.36491 -1.1614 0
M  V30 739 N 67.9926 0.231505 -1.5589 0
M  V30 740 C 68.9246 1.31006 -1.8807 0
M  V30 741 C 69.9376 1.43539 -0.768145 0
M  V30 742 O 71.1266 1.44614 -1.04638 0
M  V30 743 C 68.2266 2.68688 -2.06543 0
M  V30 744 C 67.3996 2.78228 -3.37502 0
M  V30 745 C 66.4586 3.96857 -3.4553 0
M  V30 746 O 65.4846 3.85662 -4.18633 0
M  V30 747 N 66.6866 5.1072 -2.75944 0
M  V30 748 H 69.4516 1.03731 -2.81176 0
M  V30 749 H 67.0126 0.421573 -1.56315 0
M  V30 750 H 69.0046 3.46412 -2.09239 0
M  V30 751 H 67.5746 2.88605 -1.20109 0
M  V30 752 H 66.7946 1.87059 -3.46991 0
M  V30 753 H 68.0826 2.81564 -4.23791 0
M  V30 754 H 67.4806 5.2271 -2.16311 0
M  V30 755 H 66.0376 5.86523 -2.84314 0
M  V30 756 N 69.4707 1.49531 0.497807 0
M  V30 757 C 70.7177 1.59179 1.25173 0
M  V30 758 C 71.0457 0.279932 1.92475 0
M  V30 759 O 70.3007 -0.732383 1.81479 0
M  V30 760 C 70.5997 2.70252 2.33878 0
M  V30 761 C 70.2657 4.11644 1.84012 0
M  V30 762 C 68.9277 4.50121 1.70132 0
M  V30 763 C 71.2797 5.00121 1.46725 0
M  V30 764 C 68.6077 5.74845 1.17348 0
M  V30 765 C 70.9597 6.25366 0.95392 0
M  V30 766 C 69.6237 6.6267 0.801538 0
M  V30 767 H 68.8937 0.582478 0.45804 0
M  V30 768 H 71.5407 1.83373 0.551948 0
M  V30 769 H 69.8457 2.40041 3.09657 0
M  V30 770 H 71.5427 2.74925 2.9192 0
M  V30 771 H 68.1327 3.81274 1.95775 0
M  V30 772 H 72.3167 4.71048 1.56294 0
M  V30 773 H 67.5727 6.02444 1.04264 0
M  V30 774 H 71.7467 6.93301 0.656225 0
M  V30 775 H 69.3737 7.59197 0.390351 0
M  V30 776 N 70.9488 -0.749086 1.3866 0
M  V30 777 C 71.9118 -1.84457 1.36045 0
M  V30 778 C 72.9118 -1.58682 0.260122 0
M  V30 779 O 74.1018 -1.66343 0.517261 0
M  V30 780 C 71.2338 -3.22008 1.11911 0
M  V30 781 H 72.4268 -1.88182 2.33512 0
M  V30 782 H 69.9798 -0.951266 1.24019 0
M  V30 783 H 70.7148 -3.2395 0.150686 0
M  V30 784 H 70.4998 -3.42111 1.91579 0
M  V30 785 H 71.9898 -4.0208 1.12788 0
M  V30 786 N 72.4269 -1.23603 -0.977757 0
M  V30 787 C 73.6549 -1.09646 -1.75458 0
M  V30 788 C 74.0699 0.351859 -1.85492 0
M  V30 789 O 73.4269 1.24327 -1.336 0
M  V30 790 C 73.4779 -1.71895 -3.18016 0
M  V30 791 O 73.1989 -3.11063 -3.08498 0
M  V30 792 C 74.6999 -1.63415 -4.12081 0
M  V30 793 H 71.9199 -0.38359 -0.550545 0
M  V30 794 H 74.4639 -1.63507 -1.22824 0
M  V30 795 H 72.6189 -1.22061 -3.67668 0
M  V30 796 H 73.0329 -3.41305 -3.9826 0
M  V30 797 H 74.5069 -2.11669 -5.09804 0
M  V30 798 H 74.9839 -0.593462 -4.35172 0
M  V30 799 H 75.5899 -2.12628 -3.68334 0
M  V30 800 N 73.905 1.17692 -1.04816 0
M  V30 801 C 75.153 1.87488 -0.754497 0
M  V30 802 C 75.474 1.81205 0.720407 0
M  V30 803 O 74.744 1.23544 1.52032 0
M  V30 804 H 73.324 0.694101 -0.276102 0
M  V30 805 H 75.986 1.42793 -1.32651 0
M  V30 806 H 75.082 2.93328 -1.06606 0
M  V30 807 N 75.3831 0.828654 1.34056 0
M  V30 808 C 76.6301 0.419458 1.98108 0
M  V30 809 C 76.9581 -1.01886 1.65679 0
M  V30 810 O 76.2131 -1.72539 0.923512 0
M  V30 811 C 76.5121 0.575226 3.52741 0
M  V30 812 C 76.1781 1.98012 4.05095 0
M  V30 813 C 74.8401 2.36442 4.19104 0
M  V30 814 C 77.1921 2.89824 4.33188 0
M  V30 815 C 74.5201 3.66009 4.58535 0
M  V30 816 C 76.8721 4.1886 4.74066 0
M  V30 817 C 75.5361 4.5726 4.86281 0
M  V30 818 H 74.8061 0.153491 0.724929 0
M  V30 819 H 77.4531 1.05371 1.59904 0
M  V30 820 H 75.7581 -0.142385 3.91541 0
M  V30 821 H 77.4551 0.239057 4.00287 0
M  V30 822 H 74.0451 1.67162 3.94658 0
M  V30 823 H 78.2291 2.61375 4.21897 0
M  V30 824 H 73.4851 3.95579 4.66184 0
M  V30 825 H 77.6591 4.90086 4.94761 0
M  V30 826 H 75.2861 5.57707 5.16592 0
M  V30 827 N 76.8612 -1.46375 0.584142 0
M  V30 828 C 77.8242 -2.28784 -0.138108 0
M  V30 829 C 78.8242 -1.38471 -0.817462 0
M  V30 830 O 80.0142 -1.60833 -0.669199 0
M  V30 831 C 77.1462 -3.18892 -1.20503 0
M  V30 832 H 78.3392 -2.94117 0.586127 0
M  V30 833 H 75.8922 -1.52509 0.342171 0
M  V30 834 H 76.6272 -2.58309 -1.96079 0
M  V30 835 H 76.4122 -3.85388 -0.722384 0
M  V30 836 H 77.9022 -3.80914 -1.71155 0
M  V30 837 N 78.3393 -0.321999 -1.54275 0
M  V30 838 C 79.2723 0.58718 -2.20516 0
M  V30 839 C 80.2503 1.11693 -1.18167 0
M  V30 840 O 81.4343 1.18122 -1.46899 0
M  V30 841 C 78.5613 1.80554 -2.86562 0
M  V30 842 C 77.6073 1.40718 -4.02617 0
M  V30 843 S 78.4403 0.445218 -5.33646 0
M  V30 844 C 79.5963 1.6709 -6.03185 0
M  V30 845 H 79.8293 0.0244875 -2.9729 0
M  V30 846 H 77.3623 -0.106087 -1.54035 0
M  V30 847 H 79.3203 2.50462 -3.25237 0
M  V30 848 H 77.9813 2.33942 -2.09595 0
M  V30 849 H 77.1743 2.31501 -4.47687 0
M  V30 850 H 76.7763 0.78782 -3.65608 0
M  V30 851 H 79.0683 2.60856 -6.25268 0
M  V30 852 H 80.0113 1.26239 -6.96756 0
M  V30 853 H 80.4193 1.85716 -5.33076 0
M  V30 854 N 79.8174 1.5752 -0.0501392 0
M  V30 855 C 81.0454 1.96963 0.633492 0
M  V30 856 C 81.4604 0.927631 1.6444 0
M  V30 857 O 80.8174 -0.0882665 1.82286 0
M  V30 858 C 80.8684 3.36487 1.32132 0
M  V30 859 O 80.5894 4.36693 0.350894 0
M  V30 860 C 82.0904 3.90682 2.09481 0
M  V30 861 H 79.3104 0.648244 0.173266 0
M  V30 862 H 81.8544 2.0417 -0.116134 0
M  V30 863 H 80.0094 3.30434 2.02218 0
M  V30 864 H 80.4234 5.17702 0.841735 0
M  V30 865 H 81.8974 4.90591 2.5303 0
M  V30 866 H 82.3744 3.26053 2.94255 0
M  V30 867 H 82.9804 4.00069 1.44307 0
M  V30 868 N 81.2955 -0.223234 1.56011 0
M  V30 869 C 82.5425 -0.947875 1.78946 0
M  V30 870 C 82.8705 -1.844 0.618608 0
M  V30 871 O 82.1255 -1.91629 -0.397093 0
M  V30 872 C 82.4245 -1.81948 3.0762 0
M  V30 873 C 82.0905 -1.07672 4.37856 0
M  V30 874 C 80.7525 -0.871544 4.73242 0
M  V30 875 C 83.1045 -0.552081 5.18268 0
M  V30 876 C 80.4325 -0.129791 5.86556 0
M  V30 877 C 82.7845 0.17632 6.32354 0
M  V30 878 C 81.4485 0.39277 6.66343 0
M  V30 879 H 80.7185 -0.346852 0.654809 0
M  V30 880 H 83.3655 -0.216171 1.90276 0
M  V30 881 H 81.6705 -2.61899 2.91404 0
M  V30 882 H 83.3675 -2.38227 3.22566 0
M  V30 883 H 79.9575 -1.24662 4.1007 0
M  V30 884 H 84.1415 -0.698076 4.91366 0
M  V30 885 H 79.3975 0.048153 6.11381 0
M  V30 886 H 83.5715 0.590367 6.93893 0
M  V30 887 H 81.1985 0.969466 7.53993 0
M  V30 888 N 82.7736 -1.49793 -0.48987 0
M  V30 889 C 84.0036 -1.6333 -1.26518 0
M  V30 890 C 84.4116 -0.308392 -1.8667 0
M  V30 891 O 83.7546 0.717512 -1.69108 0
M  V30 892 C 83.8166 -2.6522 -2.4269 0
M  V30 893 C 83.4806 -4.09279 -2.03321 0
M  V30 894 C 84.4776 -4.95738 -1.56652 0
M  V30 895 C 82.1626 -4.55082 -2.12616 0
M  V30 896 C 84.1566 -6.26041 -1.19795 0
M  V30 897 C 81.8436 -5.85396 -1.75371 0
M  V30 898 C 82.8416 -6.707 -1.29036 0
M  V30 899 O 82.5296 -7.98584 -0.92299 0
M  V30 900 H 82.2616 -0.552502 -0.389509 0
M  V30 901 H 84.8156 -1.96642 -0.593381 0
M  V30 902 H 83.0456 -2.27112 -3.12981 0
M  V30 903 H 84.7346 -2.68171 -3.04695 0
M  V30 904 H 85.5006 -4.61575 -1.48908 0
M  V30 905 H 81.3796 -3.88844 -2.47631 0
M  V30 906 H 84.9236 -6.92578 -0.835582 0
M  V30 907 H 80.8206 -6.19085 -1.82768 0
M  V30 908 H 81.5886 -8.11692 -1.05349 0
M  V30 909 N 84.2517 0.741722 -1.39055 0
M  V30 910 C 85.4817 1.52876 -1.3897 0
M  V30 911 C 85.8897 1.8919 0.0193266 0
M  V30 912 O 85.2327 1.54138 0.999356 0
M  V30 913 C 85.2947 2.84929 -2.19216 0
M  V30 914 C 84.9587 2.71086 -3.67915 0
M  V30 915 C 85.9557 2.40084 -4.61146 0
M  V30 916 C 83.6407 2.88168 -4.11418 0
M  V30 917 C 85.6347 2.26335 -5.95862 0
M  V30 918 C 83.3217 2.74037 -5.46211 0
M  V30 919 C 84.3197 2.43166 -6.38247 0
M  V30 920 O 84.0077 2.29115 -7.70559 0
M  V30 921 H 83.7397 0.479252 -0.476753 0
M  V30 922 H 86.2937 0.924751 -1.83405 0
M  V30 923 H 84.5237 3.47564 -1.69518 0
M  V30 924 H 86.2127 3.46509 -2.11392 0
M  V30 925 H 86.9787 2.26545 -4.28838 0
M  V30 926 H 82.8577 3.11191 -3.40119 0
M  V30 927 H 86.4017 2.0216 -6.67665 0
M  V30 928 H 82.2987 2.87153 -5.78112 0
M  V30 929 H 83.0667 2.44237 -7.81211 0
M  V30 930 N 85.7298 1.2412 0.971189 0
M  V30 931 C 86.6768 1.0305 2.06517 0
M  V30 932 C 87.6468 -0.0550666 1.66009 0
M  V30 933 O 88.8318 0.0988688 1.90544 0
M  V30 934 C 85.9718 0.637653 3.39158 0
M  V30 935 C 85.0848 1.79633 3.92882 0
M  V30 936 C 84.2198 1.34939 5.13775 0
M  V30 937 C 83.2588 2.47823 5.59687 0
M  V30 938 N 82.3958 2.04022 6.71803 0
M  V30 939 H 87.2358 1.96685 2.23873 0
M  V30 940 H 84.7728 0.979694 1.09729 0
M  V30 941 H 86.7308 0.390931 4.15364 0
M  V30 942 H 85.3608 -0.261693 3.21737 0
M  V30 943 H 84.4128 2.15681 3.13346 0
M  V30 944 H 85.7248 2.64466 4.22918 0
M  V30 945 H 84.8788 1.06134 5.97345 0
M  V30 946 H 83.6178 0.471557 4.85415 0
M  V30 947 H 82.6228 2.77392 4.74693 0
M  V30 948 H 83.8478 3.36158 5.90063 0
M  V30 949 H 81.7938 1.18632 6.45184 0
M  V30 950 H 81.7108 2.82409 7.01271 0
M  V30 951 H 82.9788 1.78347 7.58823 0
M  V30 952 N 87.2079 -1.17134 1.05439 0
M  V30 953 C 88.6189 -1.69084 0.791676 0
M  V30 954 C 88.9699 -1.83822 -0.685839 0
M  V30 955 O 88.0949 -1.52757 -1.53278 0
M  V30 956 C 88.6899 -3.07119 1.4305 0
M  V30 957 C 87.2489 -3.56225 1.21577 0
M  V30 958 C 86.3959 -2.32421 1.51247 0
M  V30 959 H 89.3469 -1.01617 1.219 0
M  V30 960 H 89.3679 -3.71087 0.84112 0
M  V30 961 H 88.8799 -2.9636 2.50584 0
M  V30 962 H 86.9809 -3.72257 0.159787 0
M  V30 963 H 87.0939 -4.38837 1.92246 0
M  V30 964 H 85.4579 -2.3701 0.932653 0
M  V30 965 H 86.2409 -2.24268 2.5992 0
M  V30 966 N 88.686 -0.835752 -1.33615 0
M  V30 967 C 89.914 -0.443344 -2.02094 0
M  V30 968 C 90.329 0.954522 -1.62894 0
M  V30 969 O 89.686 1.61982 -0.840723 0
M  V30 970 C 89.737 -0.550775 -3.5728 0
M  V30 971 O 89.458 -1.89356 -3.95065 0
M  V30 972 C 90.959 -0.154919 -4.43029 0
M  V30 973 H 88.179 -0.176359 -0.647409 0
M  V30 974 H 90.723 -1.12746 -1.70612 0
M  V30 975 H 88.878 0.0853997 -3.87306 0
M  V30 976 H 89.292 -1.87687 -4.89769 0
M  V30 977 H 90.766 -0.281144 -5.51284 0
M  V30 978 H 91.243 0.902863 -4.2982 0
M  V30 979 H 91.849 -0.765404 -4.18356 0
M  V30 980 N 90.1641 1.46063 -0.591896 0
M  V30 981 C 91.4101 2.02638 -0.0811191 0
M  V30 982 C 91.7431 1.4613 1.27905 0
M  V30 983 O 91.0181 0.629908 1.84017 0
M  V30 984 C 91.3011 3.60091 -0.0252436 0
M  V30 985 C 91.1541 4.26965 -1.41496 0
M  V30 986 C 92.4731 4.3496 0.670685 0
M  V30 987 H 89.5921 0.73635 -0.0309524 0
M  V30 988 H 92.2341 1.741 -0.760859 0
M  V30 989 H 90.3841 3.84535 0.553624 0
M  V30 990 H 92.0561 4.13756 -2.0397 0
M  V30 991 H 90.2991 3.85971 -1.98011 0
M  V30 992 H 90.9701 5.35781 -1.32825 0
M  V30 993 H 93.4461 4.15716 0.178825 0
M  V30 994 H 92.3221 5.44686 0.678837 0
M  V30 995 H 92.5831 4.06685 1.73379 0
M  V30 996 N 91.6422 0.330177 1.54103 0
M  V30 997 C 92.8702 -0.272179 2.05102 0
M  V30 998 C 93.2852 -1.45267 1.20595 0
M  V30 999 O 92.6422 -1.8094 0.238144 0
M  V30 1000 C 92.6932 -0.70023 3.54653 0
M  V30 1001 O 92.4142 0.433301 4.35952 0
M  V30 1002 C 93.9152 -1.3647 4.21771 0
M  V30 1003 H 91.1352 -0.0549159 0.668749 0
M  V30 1004 H 93.6792 0.478285 1.98828 0
M  V30 1005 H 91.8342 -1.40066 3.61193 0
M  V30 1006 H 92.2482 0.0947539 5.24414 0
M  V30 1007 H 93.7222 -1.61509 5.27843 0
M  V30 1008 H 94.1992 -2.31409 3.73292 0
M  V30 1009 H 94.8052 -0.706675 4.19388 0
M  V30 1010 N 93.1203 -1.57491 0.0584922 0
M  V30 1011 C 94.0303 -2.15448 -0.928414 0
M  V30 1012 C 95.0463 -1.11416 -1.3365 0
M  V30 1013 O 96.2223 -1.4362 -1.41193 0
M  V30 1014 C 93.2873 -2.69393 -2.18239 0
M  V30 1015 C 92.3483 -3.88249 -1.83196 0
M  V30 1016 C 91.5813 -4.39613 -3.02616 0
M  V30 1017 O 91.8043 -3.90023 -4.16219 0
M  V30 1018 O 90.7383 -5.31111 -2.83204 0
M  V30 1019 H 94.5643 -3.00112 -0.465483 0
M  V30 1020 H 92.1493 -1.48499 -0.163826 0
M  V30 1021 H 94.0313 -3.04026 -2.91798 0
M  V30 1022 H 92.7063 -1.87796 -2.63656 0
M  V30 1023 H 91.6133 -3.58492 -1.06931 0
M  V30 1024 H 92.9463 -4.71098 -1.42573 0
M  V30 1025 N 94.5984 0.214957 -1.56127 0
M  V30 1026 C 95.5614 1.24997 -1.92116 0
M  V30 1027 C 96.5614 1.39467 -0.800344 0
M  V30 1028 O 97.7514 1.37619 -1.06802 0
M  V30 1029 C 94.8834 2.62271 -2.17777 0
M  V30 1030 H 96.0764 0.942875 -2.84693 0
M  V30 1031 H 93.6294 0.455654 -1.49511 0
M  V30 1032 H 94.3644 2.98068 -1.27773 0
M  V30 1033 H 94.1494 2.53143 -2.99434 0
M  V30 1034 H 95.6394 3.36946 -2.46693 0
M  V30 1035 N 96.0765 1.50051 0.48192 0
M  V30 1036 C 97.3065 1.63999 1.2565 0
M  V30 1037 C 97.7145 0.318288 1.86504 0
M  V30 1038 O 97.0575 -0.708534 1.69486 0
M  V30 1039 C 97.1195 2.66504 2.4128 0
M  V30 1040 C 96.7835 4.10352 2.01148 0
M  V30 1041 C 97.7805 4.96562 1.54021 0
M  V30 1042 C 95.4655 4.56203 2.10199 0
M  V30 1043 C 97.4595 6.26668 1.16473 0
M  V30 1044 C 95.1465 5.86318 1.72264 0
M  V30 1045 C 96.1445 6.71375 1.25477 0
M  V30 1046 O 95.8325 7.99062 0.880626 0
M  V30 1047 H 95.5645 0.55456 0.386574 0
M  V30 1048 H 98.1185 1.96954 0.582944 0
M  V30 1049 H 96.3485 2.28769 3.11772 0
M  V30 1050 H 98.0375 2.69783 3.03268 0
M  V30 1051 H 98.8035 4.62358 1.46458 0
M  V30 1052 H 94.6825 3.90152 2.45566 0
M  V30 1053 H 98.2265 6.93011 0.798841 0
M  V30 1054 H 94.1235 6.20046 1.79482 0
M  V30 1055 H 94.8915 8.12239 1.01043 0
M  V30 1056 N 97.5546 -0.734337 1.39446 0
M  V30 1057 C 98.5176 -1.83004 1.37994 0
M  V30 1058 C 99.5176 -1.58397 0.276938 0
M  V30 1059 O 100.708 -1.65785 0.534875 0
M  V30 1060 C 97.8396 -3.20802 1.1532 0
M  V30 1061 H 99.0326 -1.85694 2.35494 0
M  V30 1062 H 96.5856 -0.938059 1.25021 0
M  V30 1063 H 97.3206 -3.23772 0.185036 0
M  V30 1064 H 97.1056 -3.4006 1.95197 0
M  V30 1065 H 98.5956 -4.00862 1.17046 0
M  V30 1066 N 99.0327 -1.24633 -0.964593 0
M  V30 1067 C 100.258 -1.11596 -1.74818 0
M  V30 1068 C 100.683 0.32723 -1.85232 0
M  V30 1069 O 100.041 1.23695 -1.32549 0
M  V30 1070 C 100.089 -1.76397 -3.1451 0
M  V30 1071 O 99.1927 -1.03685 -3.99153 0
M  V30 1072 H 98.5337 -0.390196 -0.537255 0
M  V30 1073 H 101.064 -1.65002 -1.20977 0
M  V30 1074 H 101.074 -1.8228 -3.65018 0
M  V30 1075 H 99.7487 -2.81401 -3.06246 0
M  V30 1076 H 98.3257 -1.05611 -3.57632 0
M  V30 1077 N 100.511 1.16574 -1.06058 0
M  V30 1078 C 101.757 1.87324 -0.777022 0
M  V30 1079 C 102.09 1.81351 0.694645 0
M  V30 1080 O 101.365 1.22753 1.50871 0
M  V30 1081 C 101.648 3.36991 -1.26922 0
M  V30 1082 C 101.501 3.51667 -2.80447 0
M  V30 1083 C 102.82 4.3131 -0.87521 0
M  V30 1084 H 99.9388 0.680191 -0.28374 0
M  V30 1085 H 102.581 1.37036 -1.3161 0
M  V30 1086 H 100.731 3.79949 -0.81063 0
M  V30 1087 H 102.403 3.17664 -3.34495 0
M  V30 1088 H 100.646 2.93656 -3.19294 0
M  V30 1089 H 101.317 4.56766 -3.0995 0
M  V30 1090 H 103.793 3.9624 -1.27014 0
M  V30 1091 H 102.669 5.34545 -1.2471 0
M  V30 1092 H 102.93 4.41552 0.220071 0
M  V30 1093 N 101.989 0.842826 1.3317 0
M  V30 1094 C 102.921 0.236245 2.27979 0
M  V30 1095 C 103.934 -0.585282 1.51915 0
M  V30 1096 O 105.123 -0.411705 1.73687 0
M  V30 1097 C 102.223 -0.685717 3.3189 0
M  V30 1098 C 101.396 0.0973448 4.37292 0
M  V30 1099 C 100.455 -0.748565 5.20848 0
M  V30 1100 O 99.4809 -0.186339 5.68895 0
M  V30 1101 N 100.683 -2.06527 5.42519 0
M  V30 1102 H 103.448 1.05088 2.80672 0
M  V30 1103 H 101.009 0.701667 1.45905 0
M  V30 1104 H 103.001 -1.25669 3.84694 0
M  V30 1105 H 101.571 -1.40105 2.79445 0
M  V30 1106 H 100.791 0.849706 3.84933 0
M  V30 1107 H 102.079 0.635643 5.04814 0
M  V30 1108 H 101.477 -2.54554 5.05192 0
M  V30 1109 H 100.034 -2.58464 5.98364 0
M  V30 1110 N 103.467 -1.45747 0.599634 0
M  V30 1111 C 104.697 -2.06369 0.0977132 0
M  V30 1112 C 105.105 -1.44624 -1.21985 0
M  V30 1113 O 104.448 -0.551831 -1.75216 0
M  V30 1114 C 104.51 -3.59284 -0.124673 0
M  V30 1115 C 104.174 -4.43318 1.10987 0
M  V30 1116 C 105.171 -4.78796 2.02609 0
M  V30 1117 C 102.856 -4.84194 1.33647 0
M  V30 1118 C 104.85 -5.53997 3.15224 0
M  V30 1119 C 102.537 -5.5915 2.46565 0
M  V30 1120 C 103.535 -5.93968 3.37182 0
M  V30 1121 O 103.223 -6.67405 4.48136 0
M  V30 1122 H 102.955 -0.673122 0.0623153 0
M  V30 1123 H 105.509 -1.88104 0.824981 0
M  V30 1124 H 103.739 -3.75919 -0.906745 0
M  V30 1125 H 105.428 -4.01775 -0.577201 0
M  V30 1126 H 106.194 -4.47781 1.86325 0
M  V30 1127 H 102.073 -4.56534 0.64016 0
M  V30 1128 H 105.617 -5.81091 3.85978 0
M  V30 1129 H 101.514 -5.89579 2.62805 0
M  V30 1130 H 102.282 -6.85847 4.46717 0
M  V30 1131 N 104.945 -0.338344 -1.53925 0
M  V30 1132 C 106.194 0.260732 -2.00008 0
M  V30 1133 C 106.507 1.52073 -1.23017 0
M  V30 1134 O 107.713 2.19672 -1.5955 0
M  V30 1135 C 106.169 0.51515 -3.56194 0
M  V30 1136 C 105.777 -0.728645 -4.42035 0
M  V30 1137 C 107.521 1.07337 -4.10706 0
M  V30 1138 C 105.428 -0.445315 -5.89721 0
M  V30 1139 H 104.358 0.101205 -0.747177 0
M  V30 1140 H 107.009 -0.452866 -1.77824 0
M  V30 1141 H 105.391 1.28932 -3.74423 0
M  V30 1142 H 106.565 -1.50352 -4.35581 0
M  V30 1143 H 104.88 -1.20813 -3.98489 0
M  V30 1144 H 107.477 1.30022 -5.18651 0
M  V30 1145 H 107.82 2.0273 -3.63602 0
M  V30 1146 H 108.353 0.360034 -3.96167 0
M  V30 1147 H 105.092 -1.36883 -6.41049 0
M  V30 1148 H 104.612 0.291569 -5.99091 0
M  V30 1149 H 106.291 -0.0606218 -6.46972 0
M  V30 1150 N 106.423 1.57458 -0.0668435 0
M  V30 1151 C 107.356 2.08033 0.93795 0
M  V30 1152 C 108.334 0.984321 1.29421 0
M  V30 1153 O 109.518 1.25736 1.40437 0
M  V30 1154 C 106.645 2.53388 2.24749 0
M  V30 1155 C 105.691 3.74376 2.04315 0
M  V30 1156 S 106.524 5.19303 1.30706 0
M  V30 1157 C 107.68 5.67986 2.62951 0
M  V30 1158 H 107.913 2.92935 0.50759 0
M  V30 1159 H 105.446 1.5371 0.145804 0
M  V30 1160 H 107.404 2.8018 3.00016 0
M  V30 1161 H 106.065 1.68763 2.64911 0
M  V30 1162 H 105.258 4.04083 3.01218 0
M  V30 1163 H 104.86 3.47931 1.37186 0
M  V30 1164 H 107.152 5.74528 3.5906 0
M  V30 1165 H 108.095 6.66955 2.3786 0
M  V30 1166 H 108.503 4.95781 2.69929 0
M  V30 1167 N 107.901 -0.206675 1.56239 0
M  V30 1168 C 108.849 -1.27571 1.94495 0
M  V30 1169 C 109.843 -1.47737 0.828862 0
M  V30 1170 O 111.049 -1.48735 1.0138 0
M  V30 1171 H 107.424 -0.428029 0.6183 0
M  V30 1172 H 109.395 -0.925961 2.8367 0
M  V30 1173 C 108.144 -2.61568 2.29079 0
M  V30 1174 H 107.467 -2.46863 3.14482 0
M  V30 1175 H 108.907 -3.35144 2.5972 0
M  V30 1176 C 107.366 -3.17695 1.12123 0
M  V30 1177 O 107.896 -3.99801 0.390153 0
M  V30 1178 N 106.102 -2.76276 0.901097 0
M  V30 1179 H 105.649 -2.09613 1.49733 0
M  V30 1180 H 105.607 -3.1417 0.120319 0
M  V30 1181 N 109.379 -1.50304 -0.473955 0
M  V30 1182 C 110.289 -1.7174 -1.5982 0
M  V30 1183 C 111.305 -0.600457 -1.63311 0
M  V30 1184 O 112.481 -0.878441 -1.81233 0
M  V30 1185 C 109.546 -1.80427 -2.96052 0
M  V30 1186 C 108.607 -3.04148 -3.02972 0
M  V30 1187 C 107.84 -3.12411 -4.32706 0
M  V30 1188 O 108.063 -2.27542 -5.23049 0
M  V30 1189 O 106.997 -4.05113 -4.45159 0
M  V30 1190 H 110.823 -2.67035 -1.44657 0
M  V30 1191 H 108.408 -1.34366 -0.653148 0
M  V30 1192 H 110.29 -1.88338 -3.7697 0
M  V30 1193 H 108.965 -0.883156 -3.11419 0
M  V30 1194 H 107.872 -3.0174 -2.21142 0
M  V30 1195 H 109.205 -3.95829 -2.92541 0
M  V30 1196 N 110.857 0.726932 -1.39834 0
M  V30 1197 C 112.103 1.48884 -1.377 0
M  V30 1198 C 112.436 1.94185 0.0244852 0
M  V30 1199 O 111.711 1.67361 0.990986 0
M  V30 1200 C 111.994 2.72288 -2.3565 0
M  V30 1201 C 111.847 2.32956 -3.84775 0
M  V30 1202 C 113.166 3.74414 -2.31306 0
M  V30 1203 H 110.285 0.540062 -0.5015 0
M  V30 1204 H 112.927 0.830547 -1.70886 0
M  V30 1205 H 111.077 3.28457 -2.07481 0
M  V30 1206 H 112.749 1.82356 -4.23726 0
M  V30 1207 H 110.992 1.65088 -4.01159 0
M  V30 1208 H 111.663 3.21362 -4.4881 0
M  V30 1209 H 114.139 3.27849 -2.56231 0
M  V30 1210 H 113.015 4.58414 -3.01907 0
M  V30 1211 H 113.276 4.21909 -1.32081 0
M  V30 1212 N 112.336 1.25143 0.95797 0
M  V30 1213 C 113.561 1.12521 1.74223 0
M  V30 1214 C 113.986 -0.317402 1.85403 0
M  V30 1215 O 113.344 -1.2299 1.33204 0
M  V30 1216 C 113.392 1.78062 3.1357 0
M  V30 1217 O 112.496 1.058 3.98598 0
M  V30 1218 H 111.837 0.39304 0.535178 0
M  V30 1219 H 114.367 1.65641 1.201 0
M  V30 1220 H 114.377 1.84213 3.64046 0
M  V30 1221 H 113.052 2.83021 3.04749 0
M  V30 1222 H 111.629 1.07506 3.57067 0
M  V30 1223 N 113.814 -1.1601 1.06675 0
M  V30 1224 C 115.061 -1.86633 0.785781 0
M  V30 1225 C 115.389 -1.81929 -0.687896 0
M  V30 1226 O 114.644 -1.23253 -1.52011 0
M  V30 1227 C 114.943 -3.35547 1.23057 0
M  V30 1228 C 114.609 -3.60448 2.70902 0
M  V30 1229 C 113.271 -3.66954 3.11285 0
M  V30 1230 C 115.623 -3.7071 3.66365 0
M  V30 1231 C 112.951 -3.81225 4.45965 0
M  V30 1232 C 115.303 -3.86503 5.00797 0
M  V30 1233 C 113.967 -3.91252 5.40813 0
M  V30 1234 H 113.237 -0.682937 0.287538 0
M  V30 1235 H 115.884 -1.37146 1.33654 0
M  V30 1236 H 114.189 -3.87193 0.59907 0
M  V30 1237 H 115.886 -3.88583 0.990163 0
M  V30 1238 H 112.476 -3.56021 2.38636 0
M  V30 1239 H 116.66 -3.64991 3.36296 0
M  V30 1240 H 111.916 -3.83155 4.76447 0
M  V30 1241 H 116.09 -3.93385 5.74649 0
M  V30 1242 H 113.717 -4.02062 6.45174 0
M  V30 1243 N 115.292 -0.849877 -1.32721 0
M  V30 1244 C 116.54 -0.450032 -1.97026 0
M  V30 1245 C 116.861 0.996604 -1.67609 0
M  V30 1246 O 116.131 1.6958 -0.980786 0
M  V30 1247 H 114.711 -0.163426 -0.728904 0
M  V30 1248 H 117.373 -1.08526 -1.6189 0
M  V30 1249 H 116.469 -0.591146 -3.0645 0
M  V30 1250 N 116.77 1.45427 -0.607355 0
M  V30 1251 C 118.016 2.03097 -0.111035 0
M  V30 1252 C 118.371 1.46735 1.24445 0
M  V30 1253 O 117.664 0.632478 1.8086 0
M  V30 1254 C 117.858 3.57398 -0.0129263 0
M  V30 1255 C 117.687 4.28726 -1.35735 0
M  V30 1256 C 116.457 4.66659 -1.93798 0
M  V30 1257 C 118.655 4.60699 -2.28607 0
M  V30 1258 N 116.637 5.22845 -3.21723 0
M  V30 1259 C 118.008 5.17716 -3.41131 0
M  V30 1260 C 120.063 4.42638 -2.27982 0
M  V30 1261 C 118.766 5.58576 -4.53194 0
M  V30 1262 C 120.792 4.84531 -3.39093 0
M  V30 1263 C 120.154 5.4164 -4.50339 0
M  V30 1264 H 116.253 0.777476 -0.083994 0
M  V30 1265 H 118.837 1.77249 -0.805655 0
M  V30 1266 H 117.008 3.82907 0.650914 0
M  V30 1267 H 118.74 4.01722 0.490033 0
M  V30 1268 H 115.495 4.50207 -1.47007 0
M  V30 1269 H 115.919 5.55438 -3.87063 0
M  V30 1270 H 120.561 3.97798 -1.43235 0
M  V30 1271 H 118.279 6.02382 -5.38667 0
M  V30 1272 H 121.865 4.72289 -3.39757 0
M  V30 1273 H 120.745 5.73461 -5.34895 0
M  V30 1274 N 118.248 0.346503 1.53744 0
M  V30 1275 C 119.178 -0.501193 2.28058 0
M  V30 1276 C 120.159 -1.10014 1.29734 0
M  V30 1277 O 121.344 -1.12097 1.58581 0
M  V30 1278 C 118.474 -1.65078 3.05559 0
M  V30 1279 C 117.428 -1.18003 4.11411 0
M  V30 1280 C 116.754 -2.41837 4.76884 0
M  V30 1281 C 118.054 -0.278394 5.21558 0
M  V30 1282 H 119.748 0.11875 2.99164 0
M  V30 1283 H 117.294 0.0585531 1.43881 0
M  V30 1284 H 119.247 -2.25028 3.56287 0
M  V30 1285 H 117.971 -2.29767 2.32109 0
M  V30 1286 H 116.63 -0.603331 3.61601 0
M  V30 1287 H 116.278 -3.0494 4.00026 0
M  V30 1288 H 115.978 -2.1102 5.48402 0
M  V30 1289 H 117.502 -3.02508 5.30397 0
M  V30 1290 H 118.916 -0.784823 5.67903 0
M  V30 1291 H 117.313 -0.0619707 6.00068 0
M  V30 1292 H 118.383 0.684677 4.80042 0
M  V30 1293 N 119.726 -1.57421 0.075193 0
M  V30 1294 C 120.975 -1.92794 -0.592731 0
M  V30 1295 C 121.288 -0.957478 -1.70563 0
M  V30 1296 O 122.494 -1.20417 -2.43335 0
M  V30 1297 C 120.95 -3.42495 -1.10569 0
M  V30 1298 C 120.558 -4.47994 -0.0236121 0
M  V30 1299 C 122.302 -3.86864 -1.74748 0
M  V30 1300 C 120.209 -5.88829 -0.550803 0
M  V30 1301 H 119.139 -0.719591 -0.225177 0
M  V30 1302 H 121.79 -1.82902 0.147978 0
M  V30 1303 H 120.172 -3.47471 -1.89947 0
M  V30 1304 H 121.346 -4.54637 0.751099 0
M  V30 1305 H 119.661 -4.13113 0.522159 0
M  V30 1306 H 122.258 -4.8947 -2.15229 0
M  V30 1307 H 122.601 -3.24417 -2.60882 0
M  V30 1308 H 123.134 -3.84504 -1.01986 0
M  V30 1309 H 119.873 -6.54929 0.273457 0
M  V30 1310 H 119.393 -5.85698 -1.29296 0
M  V30 1311 H 121.072 -6.38811 -1.02613 0
M  V30 1312 N 121.204 0.198386 -1.56346 0
M  V30 1313 C 122.62 0.549085 -1.49857 0
M  V30 1314 C 122.82 1.86016 -0.774611 0
M  V30 1315 O 121.876 2.50416 -0.323776 0
M  V30 1316 C 123.189 0.606868 -2.94512 0
M  V30 1317 C 124.737 0.695925 -3.05165 0
M  V30 1318 C 125.212 0.784848 -4.51225 0
M  V30 1319 N 126.703 0.848463 -4.55363 0
M  V30 1320 C 127.438 0.937378 -5.65686 0
M  V30 1321 N 126.934 0.9888 -6.85707 0
M  V30 1322 N 128.727 0.974312 -5.53592 0
M  V30 1323 H 120.878 -0.661655 -2.01831 0
M  V30 1324 H 123.141 -0.235261 -0.918344 0
M  V30 1325 H 122.847 -0.28732 -3.50524 0
M  V30 1326 H 122.721 1.46268 -3.47686 0
M  V30 1327 H 125.108 1.58055 -2.49204 0
M  V30 1328 H 125.189 -0.186022 -2.55123 0
M  V30 1329 H 124.833 -0.0954072 -5.0781 0
M  V30 1330 H 124.763 1.68255 -4.98997 0
M  V30 1331 H 127.254 0.818103 -3.68938 0
M  V30 1332 H 127.567 1.05707 -7.65536 0
M  V30 1333 H 125.912 0.957534 -6.88372 0
M  V30 1334 H 129.103 0.930954 -4.58749 0
M  V30 1335 H 129.276 1.04015 -6.39597 0
M  V30 1336 N 122.682 1.50554 0.465978 0
M  V30 1337 C 123.907 1.65838 1.24549 0
M  V30 1338 C 124.332 0.343486 1.84937 0
M  V30 1339 O 123.69 -0.69324 1.67523 0
M  V30 1340 C 123.738 2.75533 2.32624 0
M  V30 1341 O 122.842 2.37142 3.37398 0
M  V30 1342 H 122.183 0.553893 0.366194 0
M  V30 1343 H 124.713 1.96959 0.553927 0
M  V30 1344 H 124.723 2.98763 2.77857 0
M  V30 1345 H 123.398 3.70962 1.88043 0
M  V30 1346 H 121.975 2.24377 2.97841 0
M  V30 1347 N 124.16 -0.719506 1.40217 0
M  V30 1348 C 125.409 -1.47486 1.37589 0
M  V30 1349 C 125.722 -1.9559 -0.0201568 0
M  V30 1350 O 126.928 -2.70973 -0.169049 0
M  V30 1351 C 125.384 -2.66575 2.41796 0
M  V30 1352 C 124.992 -2.25358 3.87192 0
M  V30 1353 C 126.736 -3.4433 2.48269 0
M  V30 1354 C 124.643 -3.41262 4.83005 0
M  V30 1355 H 123.573 -0.553901 0.511576 0
M  V30 1356 H 126.224 -0.783427 1.65936 0
M  V30 1357 H 124.606 -3.3787 2.06543 0
M  V30 1358 H 125.78 -1.61509 4.31569 0
M  V30 1359 H 124.095 -1.60657 3.84159 0
M  V30 1360 H 126.692 -4.30569 3.17041 0
M  V30 1361 H 127.035 -3.87872 1.51198 0
M  V30 1362 H 127.568 -2.80076 2.82493 0
M  V30 1363 H 124.307 -3.02755 5.81394 0
M  V30 1364 H 123.827 -4.0404 4.43297 0
M  V30 1365 H 125.506 -4.07383 5.02641 0
M  V30 1366 N 125.638 -1.25649 -0.95132 0
M  V30 1367 C 126.588 -1.03004 -2.03406 0
M  V30 1368 C 127.572 0.034187 -1.60864 0
M  V30 1369 O 128.764 -0.181549 -1.76066 0
M  V30 1370 C 125.893 -0.654255 -3.37008 0
M  V30 1371 C 124.979 -1.75542 -3.86065 0
M  V30 1372 N 125.37 -2.99113 -4.07879 0
M  V30 1373 C 123.668 -1.63669 -4.14884 0
M  V30 1374 C 124.369 -3.70611 -4.48356 0
M  V30 1375 N 123.345 -2.98247 -4.54477 0
M  V30 1376 H 127.147 -1.96813 -2.1827 0
M  V30 1377 H 124.661 -1.16017 -1.13639 0
M  V30 1378 H 126.658 -0.473206 -4.14206 0
M  V30 1379 H 125.318 0.276468 -3.23521 0
M  V30 1380 H 126.329 -3.35124 -3.94857 0
M  V30 1381 H 123.006 -0.775161 -4.10241 0
M  V30 1382 H 124.396 -4.76695 -4.73509 0
M  V30 1383 N 127.117 1.15442 -1.07289 0
M  V30 1384 C 128.533 1.38201 -0.798288 0
M  V30 1385 C 128.733 1.92429 0.597769 0
M  V30 1386 O 127.789 2.12962 1.3566 0
M  V30 1387 C 129.102 2.35357 -1.87156 0
M  V30 1388 C 130.65 2.49021 -1.89624 0
M  V30 1389 C 131.125 3.49468 -2.96034 0
M  V30 1390 N 132.616 3.57003 -2.95132 0
M  V30 1391 C 133.351 4.34543 -3.74112 0
M  V30 1392 N 132.847 5.15421 -4.6294 0
M  V30 1393 N 134.64 4.29625 -3.62462 0
M  V30 1394 H 126.791 0.78584 -1.97328 0
M  V30 1395 H 129.054 0.408065 -0.855679 0
M  V30 1396 H 128.76 2.02626 -2.87464 0
M  V30 1397 H 128.634 3.35129 -1.73114 0
M  V30 1398 H 131.021 2.81051 -0.899687 0
M  V30 1399 H 131.102 1.4925 -2.07745 0
M  V30 1400 H 130.746 3.18173 -3.95889 0
M  V30 1401 H 130.676 4.48992 -2.75161 0
M  V30 1402 H 133.167 2.99276 -2.30743 0
M  V30 1403 H 133.48 5.7183 -5.19837 0
M  V30 1404 H 131.825 5.14729 -4.66989 0
M  V30 1405 H 135.016 3.65505 -2.92444 0
M  V30 1406 H 135.189 4.89807 -4.24256 0
M  V30 1407 N 128.595 0.856903 1.32268 0
M  V30 1408 C 129.841 0.471355 1.97863 0
M  V30 1409 C 130.196 -0.962896 1.66572 0
M  V30 1410 O 129.489 -1.66686 0.944797 0
M  V30 1411 C 129.683 0.649919 3.51441 0
M  V30 1412 C 129.512 2.09997 3.97657 0
M  V30 1413 C 128.282 2.73893 4.2463 0
M  V30 1414 C 130.48 3.07081 4.1256 0
M  V30 1415 N 128.462 4.09786 4.57109 0
M  V30 1416 C 129.833 4.27968 4.48602 0
M  V30 1417 C 131.888 3.03247 3.949 0
M  V30 1418 C 130.591 5.45521 4.68827 0
M  V30 1419 C 132.617 4.20046 4.16311 0
M  V30 1420 C 131.979 5.39692 4.52672 0
M  V30 1421 H 128.078 0.221263 0.750044 0
M  V30 1422 H 130.662 1.10876 1.60045 0
M  V30 1423 H 128.833 0.0421938 3.88377 0
M  V30 1424 H 130.565 0.234044 4.04023 0
M  V30 1425 H 127.32 2.24918 4.16784 0
M  V30 1426 H 127.744 4.7989 4.7753 0
M  V30 1427 H 132.386 2.11863 3.65888 0
M  V30 1428 H 130.104 6.37434 4.96693 0
M  V30 1429 H 133.69 4.18517 4.04147 0
M  V30 1430 H 132.57 6.28566 4.68907 0
M  V30 1431 N 130.073 -1.45103 0.615059 0
M  V30 1432 C 131.298 -2.07064 0.117988 0
M  V30 1433 C 131.723 -1.4554 -1.19163 0
M  V30 1434 O 131.081 -0.550855 -1.72729 0
M  V30 1435 C 131.129 -3.606 -0.000288387 0
M  V30 1436 O 130.233 -3.98847 -1.04856 0
M  V30 1437 H 129.574 -0.659467 0.0774581 0
M  V30 1438 H 132.104 -1.86236 0.847186 0
M  V30 1439 H 132.114 -4.07529 -0.196091 0
M  V30 1440 H 130.789 -4.04765 0.955932 0
M  V30 1441 H 129.366 -3.63577 -0.828619 0
M  V30 1442 N 131.551 -0.354651 -1.53558 0
M  V30 1443 C 132.514 0.484566 -2.24019 0
M  V30 1444 C 133.514 1.01861 -1.24422 0
M  V30 1445 O 134.704 0.906097 -1.4878 0
M  V30 1446 C 131.836 1.67615 -2.96847 0
M  V30 1447 H 133.029 -0.131843 -2.9961 0
M  V30 1448 H 130.582 -0.106165 -1.55939 0
M  V30 1449 H 131.317 2.33095 -2.25471 0
M  V30 1450 H 131.102 1.30029 -3.69912 0
M  V30 1451 H 132.592 2.27114 -3.50441 0
M  V30 1452 N 133.029 1.57378 -0.0835403 0
M  V30 1453 C 134.254 1.98682 0.594987 0
M  V30 1454 C 134.679 0.961969 1.61641 0
M  V30 1455 O 134.037 -0.0709989 1.81161 0
M  V30 1456 C 134.085 3.38988 1.2296 0
M  V30 1457 O 133.189 3.39208 2.34546 0
M  V30 1458 H 132.53 0.646368 0.152002 0
M  V30 1459 H 135.06 2.03961 -0.161533 0
M  V30 1460 H 135.07 3.76431 1.57366 0
M  V30 1461 H 133.745 4.13107 0.481228 0
M  V30 1462 H 132.322 3.13548 2.01846 0
M  V30 1463 N 134.507 -0.190092 1.56449 0
M  V30 1464 C 135.44 -1.26375 1.90012 0
M  V30 1465 C 136.418 -1.43705 0.760765 0
M  V30 1466 O 137.602 -1.59014 1.01226 0
M  V30 1467 C 134.729 -2.62962 2.13468 0
M  V30 1468 C 133.775 -2.62474 3.36169 0
M  V30 1469 S 134.608 -2.13412 4.91137 0
M  V30 1470 C 135.764 -3.51812 5.17667 0
M  V30 1471 H 135.997 -0.977181 2.80782 0
M  V30 1472 H 133.53 -0.393814 1.49293 0
M  V30 1473 H 135.488 -3.41583 2.27664 0
M  V30 1474 H 134.149 -2.88828 1.23439 0
M  V30 1475 H 133.342 -3.62918 3.49723 0
M  V30 1476 H 132.944 -1.91937 3.20992 0
M  V30 1477 H 135.236 -4.47706 5.08494 0
M  V30 1478 H 136.179 -3.43148 6.19399 0
M  V30 1479 H 136.587 -3.46956 4.45288 0
M  V30 1480 N 135.985 -1.50799 -0.457987 0
M  V30 1481 C 136.918 -1.65273 -1.57353 0
M  V30 1482 C 137.896 -0.500578 -1.54703 0
M  V30 1483 O 139.08 -0.721781 -1.74134 0
M  V30 1484 C 136.207 -1.64737 -2.95938 0
M  V30 1485 C 135.253 -2.8567 -3.16693 0
M  V30 1486 S 136.086 -4.46791 -2.95191 0
M  V30 1487 C 137.242 -4.48968 -4.36095 0
M  V30 1488 H 137.475 -2.59633 -1.44838 0
M  V30 1489 H 135.008 -1.40225 -0.64625 0
M  V30 1490 H 136.966 -1.65112 -3.7583 0
M  V30 1491 H 135.627 -0.715899 -3.05833 0
M  V30 1492 H 134.82 -2.81637 -4.17967 0
M  V30 1493 H 134.422 -2.8293 -2.44594 0
M  V30 1494 H 136.714 -4.23337 -5.28954 0
M  V30 1495 H 137.657 -5.50664 -4.45168 0
M  V30 1496 H 138.065 -3.78522 -4.18786 0
M  V30 1497 N 137.463 0.71206 -1.40597 0
M  V30 1498 C 138.709 1.47416 -1.39271 0
M  V30 1499 C 139.042 1.942 0.00388791 0
M  V30 1500 O 138.317 1.68403 0.973179 0
M  V30 1501 C 138.6 2.69774 -2.38525 0
M  V30 1502 C 138.453 2.28861 -3.87224 0
M  V30 1503 C 139.772 3.71939 -2.35264 0
M  V30 1504 H 136.891 0.534713 -0.5072 0
M  V30 1505 H 139.533 0.812375 -1.71757 0
M  V30 1506 H 137.683 3.26238 -2.10953 0
M  V30 1507 H 139.355 1.77852 -4.25636 0
M  V30 1508 H 137.598 1.60824 -4.02887 0
M  V30 1509 H 138.269 3.16584 -4.52193 0
M  V30 1510 H 140.745 3.25113 -2.59694 0
M  V30 1511 H 139.621 4.55186 -3.06753 0
M  V30 1512 H 139.882 4.20484 -1.36549 0
M  V30 1513 N 138.941 1.26152 0.944643 0
M  V30 1514 C 139.871 1.09902 2.06019 0
M  V30 1515 C 140.852 0.00519538 1.70099 0
M  V30 1516 O 142.037 0.176583 1.93396 0
M  V30 1517 C 139.167 0.727562 3.39594 0
M  V30 1518 C 138.121 1.77274 3.89561 0
M  V30 1519 C 137.447 1.25569 5.19747 0
M  V30 1520 C 138.747 3.17357 4.14827 0
M  V30 1521 H 140.441 2.03217 2.19871 0
M  V30 1522 H 137.987 0.978452 1.05652 0
M  V30 1523 H 139.94 0.600777 4.17095 0
M  V30 1524 H 138.664 -0.241287 3.25707 0
M  V30 1525 H 137.323 1.88814 3.14237 0
M  V30 1526 H 136.971 0.276783 5.02238 0
M  V30 1527 H 136.671 1.95433 5.54148 0
M  V30 1528 H 138.195 1.1415 5.99835 0
M  V30 1529 H 139.609 3.08914 4.82954 0
M  V30 1530 H 138.006 3.84781 4.60504 0
M  V30 1531 H 139.076 3.63673 3.20734 0
M  V30 1532 N 140.419 -1.14872 1.07899 0
M  V30 1533 C 141.352 -2.18794 0.64841 0
M  V30 1534 C 142.33 -1.59065 -0.337189 0
M  V30 1535 O 143.514 -1.86936 -0.242284 0
M  V30 1536 C 140.641 -3.38667 -0.0470417 0
M  V30 1537 C 139.687 -4.16942 0.897884 0
M  V30 1538 S 140.52 -4.78615 2.40183 0
M  V30 1539 C 141.676 -6.0185 1.71834 0
M  V30 1540 H 141.909 -2.5498 1.52881 0
M  V30 1541 H 139.442 -1.25922 0.893484 0
M  V30 1542 H 141.4 -4.08113 -0.442027 0
M  V30 1543 H 140.061 -3.00814 -0.903861 0
M  V30 1544 H 139.254 -5.02726 0.358096 0
M  V30 1545 H 138.856 -3.53073 1.23352 0
M  V30 1546 H 141.148 -6.69574 1.03328 0
M  V30 1547 H 142.091 -6.60408 2.55473 0
M  V30 1548 H 142.499 -5.5173 1.19392 0
M  V30 1549 N 141.898 -0.863906 -1.31812 0
M  V30 1550 C 142.831 -0.259963 -2.26714 0
M  V30 1551 C 143.809 0.607392 -1.50829 0
M  V30 1552 O 144.993 0.562155 -1.79922 0
M  V30 1553 C 142.12 0.632456 -3.32743 0
M  V30 1554 C 141.166 -0.162743 -4.26189 0
M  V30 1555 S 141.999 -1.53726 -5.12961 0
M  V30 1556 C 143.155 -0.650803 -6.22507 0
M  V30 1557 H 143.388 -1.06445 -2.77591 0
M  V30 1558 H 140.921 -0.662071 -1.39485 0
M  V30 1559 H 142.879 1.14167 -3.94305 0
M  V30 1560 H 141.54 1.41083 -2.80632 0
M  V30 1561 H 140.733 0.517366 -5.01338 0
M  V30 1562 H 140.335 -0.60385 -3.69093 0
M  V30 1563 H 142.627 0.141134 -6.77353 0
M  V30 1564 H 143.57 -1.37322 -6.94657 0
M  V30 1565 H 143.978 -0.221041 -5.64067 0
M  V30 1566 N 143.376 1.44774 -0.622745 0
M  V30 1567 C 144.625 2.01334 -0.121397 0
M  V30 1568 C 144.938 1.49505 1.26125 0
M  V30 1569 O 146.144 1.98139 1.85616 0
M  V30 1570 C 144.6 3.59516 -0.166298 0
M  V30 1571 C 144.208 4.20342 -1.54974 0
M  V30 1572 C 145.952 4.23582 0.279021 0
M  V30 1573 C 143.859 5.70721 -1.55021 0
M  V30 1574 H 142.789 0.752851 -0.0416172 0
M  V30 1575 H 145.44 1.66083 -0.780309 0
M  V30 1576 H 143.822 3.92027 0.559557 0
M  V30 1577 H 144.996 3.99381 -2.29851 0
M  V30 1578 H 143.311 3.68529 -1.93843 0
M  V30 1579 H 145.908 5.33868 0.298083 0
M  V30 1580 H 146.251 3.95327 1.30471 0
M  V30 1581 H 146.784 3.95843 -0.394063 0
M  V30 1582 H 143.523 6.03698 -2.55399 0
M  V30 1583 H 143.043 5.93829 -0.844245 0
M  V30 1584 H 144.722 6.34203 -1.28047 0
M  V30 1585 N 144.854 0.36279 1.53368 0
M  V30 1586 C 145.784 -0.476976 2.28576 0
M  V30 1587 C 146.765 -1.08631 1.30894 0
M  V30 1588 O 147.95 -1.10409 1.59761 0
M  V30 1589 C 145.08 -1.61828 3.07293 0
M  V30 1590 C 144.034 -1.13633 4.1264 0
M  V30 1591 C 143.36 -2.36766 4.79423 0
M  V30 1592 C 144.66 -0.223061 5.21823 0
M  V30 1593 H 146.354 0.150474 2.99022 0
M  V30 1594 H 143.9 0.0738103 1.43811 0
M  V30 1595 H 145.853 -2.21237 3.58653 0
M  V30 1596 H 144.577 -2.27292 2.34533 0
M  V30 1597 H 143.236 -0.564945 3.62221 0
M  V30 1598 H 142.884 -3.0068 4.03238 0
M  V30 1599 H 142.584 -2.05192 5.50609 0
M  V30 1600 H 144.108 -2.96865 5.33576 0
M  V30 1601 H 145.522 -0.724545 5.68703 0
M  V30 1602 H 143.919 0.001678 6.001 0
M  V30 1603 H 144.989 0.735553 4.79289 0
M  V30 1604 N 146.332 -1.57332 0.0918853 0
M  V30 1605 C 147.282 -2.10385 -0.87876 0
M  V30 1606 C 148.266 -1.01814 -1.24591 0
M  V30 1607 O 149.458 -1.28093 -1.22152 0
M  V30 1608 C 146.587 -2.68517 -2.13901 0
M  V30 1609 C 145.673 -3.84126 -1.79744 0
M  V30 1610 N 146.064 -4.92288 -1.1613 0
M  V30 1611 C 144.362 -3.93801 -2.09373 0
M  V30 1612 C 145.063 -5.7295 -1.00513 0
M  V30 1613 N 144.039 -5.21876 -1.5214 0
M  V30 1614 H 147.841 -2.91395 -0.38293 0
M  V30 1615 H 145.355 -1.62017 -0.111423 0
M  V30 1616 H 147.352 -3.04852 -2.84378 0
M  V30 1617 H 146.012 -1.88961 -2.64053 0
M  V30 1618 H 147.023 -5.1123 -0.828504 0
M  V30 1619 H 143.7 -3.25249 -2.61762 0
M  V30 1620 H 145.09 -6.69978 -0.507902 0
M  V30 1621 N 147.81 0.181792 -1.56548 0
M  V30 1622 C 149.056 0.901431 -1.81665 0
M  V30 1623 C 149.389 1.82347 -0.668075 0
M  V30 1624 O 148.664 1.91669 0.330615 0
M  V30 1625 C 148.947 1.70618 -3.17115 0
M  V30 1626 C 148.8 0.807964 -4.42484 0
M  V30 1627 C 150.119 2.67605 -3.49393 0
M  V30 1628 H 147.238 0.32627 -0.660846 0
M  V30 1629 H 149.88 0.168134 -1.89255 0
M  V30 1630 H 148.03 2.33133 -3.10775 0
M  V30 1631 H 149.702 0.19649 -4.60881 0
M  V30 1632 H 147.945 0.115411 -4.33646 0
M  V30 1633 H 148.616 1.40632 -5.33785 0
M  V30 1634 H 151.092 2.15218 -3.56118 0
M  V30 1635 H 149.968 3.20985 -4.45264 0
M  V30 1636 H 150.229 3.47298 -2.73563 0
M  V30 1637 N 149.288 1.51039 0.449983 0
M  V30 1638 C 150.535 1.63081 1.20045 0
M  V30 1639 C 150.863 0.341024 1.91487 0
M  V30 1640 O 150.118 -0.674276 1.83717 0
M  V30 1641 C 150.417 2.77556 2.25161 0
M  V30 1642 C 150.083 4.17289 1.70823 0
M  V30 1643 C 148.745 4.55305 1.55725 0
M  V30 1644 C 151.097 5.04536 1.3074 0
M  V30 1645 C 148.425 5.78287 0.989999 0
M  V30 1646 C 150.777 6.28085 0.754482 0
M  V30 1647 C 149.441 6.64885 0.590308 0
M  V30 1648 H 148.711 0.596755 0.439277 0
M  V30 1649 H 151.358 1.85037 0.49333 0
M  V30 1650 H 149.663 2.49771 3.01863 0
M  V30 1651 H 151.36 2.84073 2.83026 0
M  V30 1652 H 147.95 3.8731 1.83546 0
M  V30 1653 H 152.134 4.75782 1.41229 0
M  V30 1654 H 147.39 6.05456 0.850451 0
M  V30 1655 H 151.564 6.95038 0.435324 0
M  V30 1656 H 149.191 7.60055 0.14862 0
M  V30 1657 N 150.766 -0.704594 1.40972 0
M  V30 1658 C 152.182 -1.01406 1.23244 0
M  V30 1659 C 152.382 -2.01169 0.115399 0
M  V30 1660 O 151.438 -2.47021 -0.523147 0
M  V30 1661 C 152.751 -1.54728 2.57836 0
M  V30 1662 C 154.299 -1.66658 2.64942 0
M  V30 1663 C 154.774 -2.23383 3.9983 0
M  V30 1664 N 156.265 -2.30756 4.01629 0
M  V30 1665 C 157 -2.75655 5.02794 0
M  V30 1666 N 156.496 -3.20225 6.14352 0
M  V30 1667 N 158.289 -2.75138 4.90159 0
M  V30 1668 H 150.44 -0.0435285 2.12355 0
M  V30 1669 H 152.703 -0.0818951 0.944456 0
M  V30 1670 H 152.409 -0.888832 3.40283 0
M  V30 1671 H 152.283 -2.53084 2.79693 0
M  V30 1672 H 154.67 -2.31617 1.8286 0
M  V30 1673 H 154.751 -0.668717 2.46904 0
M  V30 1674 H 154.395 -1.59043 4.82357 0
M  V30 1675 H 154.325 -3.23904 4.15203 0
M  V30 1676 H 156.816 -1.99291 3.21079 0
M  V30 1677 H 157.129 -3.53084 6.87424 0
M  V30 1678 H 155.474 -3.18156 6.17901 0
M  V30 1679 H 158.665 -2.39661 4.02095 0
M  V30 1680 H 158.838 -3.09812 5.6914 0
M  V30 1681 N 152.244 -1.26651 -0.937939 0
M  V30 1682 C 153.49 -1.12553 -1.687 0
M  V30 1683 C 153.823 0.329782 -1.91379 0
M  V30 1684 O 153.098 1.24202 -1.4968 0
M  V30 1685 C 153.381 -1.89862 -3.05981 0
M  V30 1686 C 153.234 -3.43318 -2.90607 0
M  V30 1687 C 154.553 -1.69499 -4.0615 0
M  V30 1688 H 151.672 -0.410257 -0.612257 0
M  V30 1689 H 154.314 -1.55685 -1.08913 0
M  V30 1690 H 152.464 -1.53204 -3.57017 0
M  V30 1691 H 154.136 -3.89747 -2.46769 0
M  V30 1692 H 152.379 -3.70179 -2.26164 0
M  V30 1693 H 153.05 -3.92642 -3.8799 0
M  V30 1694 H 155.526 -2.01442 -3.64088 0
M  V30 1695 H 154.402 -2.26002 -5.00214 0
M  V30 1696 H 154.663 -0.640365 -4.37438 0
M  V30 1697 N 153.722 1.14298 -1.08507 0
M  V30 1698 C 154.952 1.88945 -0.835663 0
M  V30 1699 C 155.36 1.78894 0.615928 0
M  V30 1700 O 154.703 1.1468 1.43506 0
M  V30 1701 C 154.765 3.39585 -1.17994 0
M  V30 1702 C 154.429 3.7342 -2.63451 0
M  V30 1703 C 155.426 3.73454 -3.61702 0
M  V30 1704 C 153.111 4.03368 -2.99332 0
M  V30 1705 C 155.105 4.02961 -4.93864 0
M  V30 1706 C 152.792 4.32538 -4.31687 0
M  V30 1707 C 153.79 4.32318 -5.28763 0
M  V30 1708 O 153.478 4.6078 -6.58739 0
M  V30 1709 H 153.21 0.605307 -0.300965 0
M  V30 1710 H 155.764 1.45673 -1.44806 0
M  V30 1711 H 153.994 3.83315 -0.51055 0
M  V30 1712 H 155.683 3.9554 -0.911182 0
M  V30 1713 H 156.449 3.50403 -3.35325 0
M  V30 1714 H 152.328 4.02692 -2.24411 0
M  V30 1715 H 155.872 4.02704 -5.69627 0
M  V30 1716 H 151.769 4.55059 -4.57812 0
M  V30 1717 H 152.537 4.78492 -6.64069 0
M  V30 1718 N 155.201 0.870884 1.31352 0
M  V30 1719 C 156.131 0.343096 2.30966 0
M  V30 1720 C 157.112 -0.566507 1.60389 0
M  V30 1721 O 158.297 -0.483336 1.88089 0
M  V30 1722 C 155.427 -0.455487 3.443 0
M  V30 1723 C 154.381 0.361103 4.26474 0
M  V30 1724 C 153.707 -0.563221 5.31725 0
M  V30 1725 C 155.007 1.59566 4.97329 0
M  V30 1726 H 156.701 1.17548 2.75359 0
M  V30 1727 H 154.247 0.566686 1.32381 0
M  V30 1728 H 156.2 -0.83525 4.13039 0
M  V30 1729 H 154.924 -1.32139 2.98675 0
M  V30 1730 H 153.583 0.722825 3.59403 0
M  V30 1731 H 153.231 -1.42643 4.82351 0
M  V30 1732 H 152.931 -0.0207409 5.87596 0
M  V30 1733 H 154.455 -0.939808 6.03324 0
M  V30 1734 H 155.869 1.28728 5.58661 0
M  V30 1735 H 154.266 2.07728 5.63 0
M  V30 1736 H 155.336 2.34798 4.24262 0
M  V30 1737 N 156.679 -1.44442 0.630414 0
M  V30 1738 C 157.907 -2.06414 0.141671 0
M  V30 1739 C 158.322 -1.47105 -1.18345 0
M  V30 1740 O 157.679 -0.593662 -1.72574 0
M  V30 1741 C 157.73 -3.61494 0.0199784 0
M  V30 1742 O 157.451 -4.18594 1.29269 0
M  V30 1743 C 158.952 -4.40499 -0.497544 0
M  V30 1744 H 156.172 -0.666292 0.0793452 0
M  V30 1745 H 158.716 -1.85323 0.864614 0
M  V30 1746 H 156.871 -3.8185 -0.653402 0
M  V30 1747 H 157.285 -5.12026 1.13707 0
M  V30 1748 H 158.759 -5.49433 -0.531708 0
M  V30 1749 H 159.236 -4.11895 -1.52445 0
M  V30 1750 H 159.842 -4.25061 0.142562 0
M  V30 1751 N 158.157 -0.370918 -1.53173 0
M  V30 1752 C 159.405 0.216673 -2.00935 0
M  V30 1753 C 159.726 1.48845 -1.25977 0
M  V30 1754 O 158.996 1.92286 -0.374551 0
M  V30 1755 H 157.576 0.0830565 -0.742368 0
M  V30 1756 H 160.238 -0.49838 -1.8842 0
M  V30 1757 H 159.334 0.439893 -3.08984 0
M  V30 1758 N 159.635 1.57281 -0.100228 0
M  V30 1759 C 160.883 1.94153 0.561157 0
M  V30 1760 C 161.204 0.983157 1.68401 0
M  V30 1761 O 160.474 0.0361132 1.95867 0
M  V30 1762 H 159.054 0.716791 0.210283 0
M  V30 1763 H 161.716 1.94202 -0.164765 0
M  V30 1764 H 160.812 2.96709 0.968008 0
M  V30 1765 N 161.113 -0.173488 1.56642 0
M  V30 1766 C 162.36 -0.890465 1.81871 0
M  V30 1767 C 162.688 -1.82339 0.67696 0
M  V30 1768 O 161.943 -1.92795 -0.335926 0
M  V30 1769 C 162.242 -1.72069 3.13252 0
M  V30 1770 C 161.908 -0.936878 4.41059 0
M  V30 1771 C 160.57 -0.720545 4.75775 0
M  V30 1772 C 162.922 -0.386919 5.19762 0
M  V30 1773 C 160.25 0.0568829 5.86672 0
M  V30 1774 C 162.602 0.37741 6.31473 0
M  V30 1775 C 161.266 0.604563 6.64757 0
M  V30 1776 H 160.536 -0.325844 0.665512 0
M  V30 1777 H 163.183 -0.155527 1.90867 0
M  V30 1778 H 161.488 -2.52496 2.99588 0
M  V30 1779 H 163.185 -2.27844 3.29982 0
M  V30 1780 H 159.775 -1.11553 4.13828 0
M  V30 1781 H 163.959 -0.541398 4.93338 0
M  V30 1782 H 159.215 0.242635 6.10918 0
M  V30 1783 H 163.389 0.810825 6.91664 0
M  V30 1784 H 161.016 1.20885 7.50527 0
M  V30 1785 N 162.591 -1.51276 -0.441967 0
M  V30 1786 C 163.538 -1.72256 -1.53612 0
M  V30 1787 C 164.508 -0.564164 -1.56225 0
M  V30 1788 O 165.693 -0.798074 -1.73307 0
M  V30 1789 C 162.833 -1.84932 -2.91366 0
M  V30 1790 C 161.946 -3.12459 -2.98317 0
M  V30 1791 C 161.081 -3.15758 -4.27166 0
M  V30 1792 C 160.12 -4.37619 -4.27967 0
M  V30 1793 N 159.257 -4.38493 -5.48333 0
M  V30 1794 H 164.097 -2.65654 -1.35026 0
M  V30 1795 H 161.634 -1.31662 -0.656009 0
M  V30 1796 H 163.592 -1.90263 -3.7129 0
M  V30 1797 H 162.222 -0.949461 -3.08521 0
M  V30 1798 H 161.274 -3.1646 -2.11086 0
M  V30 1799 H 162.586 -4.02382 -2.94771 0
M  V30 1800 H 161.74 -3.19979 -5.15459 0
M  V30 1801 H 160.479 -2.23715 -4.33362 0
M  V30 1802 H 159.484 -4.33579 -3.38067 0
M  V30 1803 H 160.709 -5.30921 -4.23438 0
M  V30 1804 H 158.655 -3.49318 -5.55259 0
M  V30 1805 H 158.572 -5.22219 -5.46647 0
M  V30 1806 H 159.84 -4.469 -6.38671 0
M  V30 1807 N 164.069 0.697108 -1.41344 0
M  V30 1808 C 165.016 1.81106 -1.43071 0
M  V30 1809 C 165.986 1.63632 -0.285275 0
M  V30 1810 O 167.171 1.84504 -0.486091 0
M  V30 1811 C 164.311 3.18975 -1.31715 0
M  V30 1812 C 163.424 3.47892 -2.56115 0
M  V30 1813 C 162.559 4.75367 -2.37064 0
M  V30 1814 C 161.598 4.97247 -3.56948 0
M  V30 1815 N 160.735 6.15947 -3.36977 0
M  V30 1816 H 165.575 1.78965 -2.38276 0
M  V30 1817 H 163.112 0.873975 -1.18322 0
M  V30 1818 H 165.07 3.98615 -1.23133 0
M  V30 1819 H 163.7 3.20297 -0.401183 0
M  V30 1820 H 162.752 2.62669 -2.75153 0
M  V30 1821 H 164.064 3.59962 -3.45295 0
M  V30 1822 H 163.218 5.63059 -2.25941 0
M  V30 1823 H 161.957 4.65541 -1.45338 0
M  V30 1824 H 160.962 4.08004 -3.68527 0
M  V30 1825 H 162.187 5.08934 -4.49626 0
M  V30 1826 H 160.133 6.07336 -2.47949 0
M  V30 1827 H 160.05 6.28777 -4.19732 0
M  V30 1828 H 161.318 7.06377 -3.29623 0
M  V30 1829 N 165.547 1.27147 0.931209 0
M  V30 1830 C 166.958 1.12044 1.49342 0
M  V30 1831 C 167.309 -0.295795 1.93957 0
M  V30 1832 O 166.434 -1.18835 1.80852 0
M  V30 1833 C 167.029 2.02781 2.71414 0
M  V30 1834 C 165.588 1.91794 3.2387 0
M  V30 1835 C 164.735 1.95543 1.96617 0
M  V30 1836 H 167.686 1.40091 0.745672 0
M  V30 1837 H 167.707 1.58156 3.46074 0
M  V30 1838 H 167.219 3.05848 2.38911 0
M  V30 1839 H 165.32 0.916992 3.6114 0
M  V30 1840 H 165.433 2.77852 3.90302 0
M  V30 1841 H 163.797 1.39722 2.12955 0
M  V30 1842 H 164.58 3.00259 1.66432 0
M  V30 1843 N 167.025 -1.13721 1.09112 0
M  V30 1844 C 168.441 -1.36914 0.820174 0
M  V30 1845 C 168.641 -1.93356 -0.567079 0
M  V30 1846 O 167.697 -2.15093 -1.32255 0
M  V30 1847 C 169.01 -2.3235 1.90877 0
M  V30 1848 C 170.558 -2.45973 1.93562 0
M  V30 1849 C 171.033 -3.44714 3.01556 0
M  V30 1850 N 172.524 -3.52263 3.00775 0
M  V30 1851 C 173.259 -4.28536 3.80978 0
M  V30 1852 N 172.755 -5.07991 4.71081 0
M  V30 1853 N 174.548 -4.23804 3.69251 0
M  V30 1854 H 166.699 -0.754348 1.98553 0
M  V30 1855 H 168.962 -0.3944 0.862063 0
M  V30 1856 H 168.668 -1.98027 2.90651 0
M  V30 1857 H 168.542 -3.32332 1.78424 0
M  V30 1858 H 170.929 -2.79584 0.944286 0
M  V30 1859 H 171.01 -1.45926 2.10093 0
M  V30 1860 H 170.654 -3.11835 4.00901 0
M  V30 1861 H 170.584 -4.44558 2.82269 0
M  V30 1862 H 173.075 -2.95567 2.35475 0
M  V30 1863 H 173.388 -5.63487 5.28869 0
M  V30 1864 H 171.733 -5.07235 4.75119 0
M  V30 1865 H 174.924 -3.60806 2.98222 0
M  V30 1866 H 175.097 -4.82995 4.31995 0
M  V30 1867 N 168.503 -0.877838 -1.30888 0
M  V30 1868 C 169.413 -0.343096 -2.32078 0
M  V30 1869 C 170.429 0.551022 -1.65045 0
M  V30 1870 O 171.605 0.445854 -1.96403 0
M  V30 1871 C 168.67 0.439905 -3.43898 0
M  V30 1872 C 167.731 -0.483111 -4.26573 0
M  V30 1873 C 166.964 0.262616 -5.33053 0
M  V30 1874 O 167.187 1.48967 -5.50604 0
M  V30 1875 O 166.121 -0.383593 -6.00676 0
M  V30 1876 H 169.947 -1.18203 -2.79753 0
M  V30 1877 H 167.532 -0.64145 -1.34929 0
M  V30 1878 H 169.414 0.883504 -4.12034 0
M  V30 1879 H 168.089 1.25526 -2.98371 0
M  V30 1880 H 166.996 -0.975374 -3.61161 0
M  V30 1881 H 168.329 -1.26427 -4.75686 0
M  V30 1882 N 169.982 1.44106 -0.638065 0
M  V30 1883 C 170.912 2.33448 0.0494287 0
M  V30 1884 C 171.893 1.48606 0.827672 0
M  V30 1885 O 173.078 1.77308 0.792173 0
M  V30 1886 C 170.208 3.31771 1.02691 0
M  V30 1887 C 169.162 4.26485 0.359823 0
M  V30 1888 C 168.488 5.14729 1.44769 0
M  V30 1889 C 169.788 5.17056 -0.738296 0
M  V30 1890 H 171.482 2.91183 -0.696636 0
M  V30 1891 H 169.028 1.40014 -0.336456 0
M  V30 1892 H 170.981 3.93161 1.51666 0
M  V30 1893 H 169.705 2.7226 1.80395 0
M  V30 1894 H 168.364 3.66437 -0.10934 0
M  V30 1895 H 168.012 4.51566 2.21578 0
M  V30 1896 H 167.712 5.78913 1.00668 0
M  V30 1897 H 169.236 5.78991 1.93911 0
M  V30 1898 H 170.65 5.72342 -0.331354 0
M  V30 1899 H 169.047 5.89879 -1.10286 0
M  V30 1900 H 170.117 4.57652 -1.60258 0
M  V30 1901 N 171.46 0.379036 1.52974 0
M  V30 1902 C 172.688 -0.20679 2.05864 0
M  V30 1903 C 173.103 -1.41356 1.25155 0
M  V30 1904 O 172.46 -1.8009 0.295588 0
M  V30 1905 C 172.511 -0.587045 3.56702 0
M  V30 1906 O 172.232 0.571776 4.34353 0
M  V30 1907 C 173.733 -1.22983 4.25899 0
M  V30 1908 H 170.953 -0.0336123 0.670158 0
M  V30 1909 H 173.497 0.541298 1.97206 0
M  V30 1910 H 171.652 -1.28504 3.65466 0
M  V30 1911 H 172.066 0.261544 5.23847 0
M  V30 1912 H 173.54 -1.44635 5.32715 0
M  V30 1913 H 174.017 -2.19416 3.80465 0
M  V30 1914 H 174.623 -0.572892 4.21424 0
M  V30 1915 N 172.938 -1.57226 0.108567 0
M  V30 1916 C 174.184 -1.95919 -0.546564 0
M  V30 1917 C 174.539 -0.990417 -1.6495 0
M  V30 1918 O 173.832 -0.0186593 -1.91591 0
M  V30 1919 C 174.026 -3.38911 -1.13463 0
M  V30 1920 C 173.855 -4.4961 -0.0901926 0
M  V30 1921 C 172.625 -5.04168 0.338008 0
M  V30 1922 C 174.823 -5.09693 0.686808 0
M  V30 1923 N 172.805 -5.98434 1.36931 0
M  V30 1924 C 174.176 -5.99804 1.56958 0
M  V30 1925 C 176.231 -4.92388 0.738846 0
M  V30 1926 C 174.934 -6.74463 2.49983 0
M  V30 1927 C 176.96 -5.67719 1.65676 0
M  V30 1928 C 176.322 -6.57507 2.52713 0
M  V30 1929 H 172.421 -0.763312 -0.169936 0
M  V30 1930 H 175.005 -1.93728 0.194264 0
M  V30 1931 H 173.176 -3.41769 -1.84522 0
M  V30 1932 H 174.908 -3.64752 -1.75322 0
M  V30 1933 H 171.663 -4.73571 -0.0523673 0
M  V30 1934 H 172.087 -6.5027 1.88356 0
M  V30 1935 H 176.729 -4.22724 0.080084 0
M  V30 1936 H 174.447 -7.4338 3.16878 0
M  V30 1937 H 178.033 -5.56338 1.70233 0
M  V30 1938 H 176.913 -7.14778 3.22586 0
M  V30 1939 N 174.416 0.165178 -1.56732 0
M  V30 1940 C 175.665 0.879143 -1.81532 0
M  V30 1941 C 175.978 1.83144 -0.686842 0
M  V30 1942 O 177.184 2.58823 -0.819944 0
M  V30 1943 C 175.64 1.61388 -3.21686 0
M  V30 1944 C 175.248 0.704904 -4.4242 0
M  V30 1945 C 176.992 2.3157 -3.55774 0
M  V30 1946 C 174.899 1.44022 -5.73595 0
M  V30 1947 H 173.829 0.332033 -0.676957 0
M  V30 1948 H 176.48 0.132008 -1.83025 0
M  V30 1949 H 174.862 2.40599 -3.14529 0
M  V30 1950 H 176.036 -0.0506815 -4.60772 0
M  V30 1951 H 174.351 0.112419 -4.16248 0
M  V30 1952 H 176.948 2.8719 -4.51028 0
M  V30 1953 H 177.291 3.07201 -2.8095 0
M  V30 1954 H 177.824 1.59297 -3.64513 0
M  V30 1955 H 174.563 0.72612 -6.51466 0
M  V30 1956 H 174.083 2.16898 -5.5921 0
M  V30 1957 H 175.762 1.98606 -6.15764 0
M  V30 1958 N 175.894 1.51508 0.433938 0
M  V30 1959 C 177.119 1.68443 1.21003 0
M  V30 1960 C 177.544 0.382636 1.84167 0
M  V30 1961 O 176.902 -0.65755 1.68956 0
M  V30 1962 C 176.95 2.80405 2.26727 0
M  V30 1963 O 176.054 2.44245 3.32292 0
M  V30 1964 H 175.395 0.561536 0.354363 0
M  V30 1965 H 177.925 1.9809 0.512024 0
M  V30 1966 H 177.935 3.0459 2.71457 0
M  V30 1967 H 176.61 3.74867 1.80132 0
M  V30 1968 H 175.187 2.30644 2.93015 0
M  V30 1969 N 177.372 -0.689602 1.41712 0
M  V30 1970 C 178.62 -1.4468 1.4111 0
M  V30 1971 C 178.941 -1.94986 0.0232196 0
M  V30 1972 O 178.211 -1.72097 -0.935913 0
M  V30 1973 H 176.791 -0.536847 0.519427 0
M  V30 1974 H 179.453 -0.815825 1.77004 0
M  V30 1975 H 178.549 -2.30706 2.10193 0
M  V30 1976 N 178.85 -1.27639 -0.924453 0
M  V30 1977 C 180.096 -1.14336 -1.67497 0
M  V30 1978 C 180.429 0.309465 -1.91718 0
M  V30 1979 O 179.704 1.22608 -1.50989 0
M  V30 1980 C 179.987 -1.93096 -3.0395 0
M  V30 1981 C 179.84 -3.46381 -2.8695 0
M  V30 1982 C 181.159 -1.73798 -4.0433 0
M  V30 1983 H 178.278 -0.416728 -0.607871 0
M  V30 1984 H 180.92 -1.56832 -1.07256 0
M  V30 1985 H 179.07 -1.56982 -3.55372 0
M  V30 1986 H 180.742 -3.92343 -2.42621 0
M  V30 1987 H 178.985 -3.72557 -2.22225 0
M  V30 1988 H 179.656 -3.96735 -3.83804 0
M  V30 1989 H 182.132 -2.05293 -3.61931 0
M  V30 1990 H 181.008 -2.31294 -4.97789 0
M  V30 1991 H 181.269 -0.686725 -4.36734 0
M  V30 1992 N 180.328 1.1314 -1.09713 0
M  V30 1993 C 181.577 1.83838 -0.829851 0
M  V30 1994 C 181.89 1.84599 0.646728 0
M  V30 1995 O 183.096 2.51218 1.02965 0
M  V30 1996 C 181.552 3.30069 -1.43466 0
M  V30 1997 C 181.16 3.37688 -2.94399 0
M  V30 1998 C 182.904 4.05788 -1.24645 0
M  V30 1999 C 180.811 4.78209 -3.47952 0
M  V30 2000 H 179.741 0.68877 -0.306777 0
M  V30 2001 H 182.392 1.27448 -1.3202 0
M  V30 2002 H 180.774 3.8628 -0.871996 0
M  V30 2003 H 181.948 2.91456 -3.56918 0
M  V30 2004 H 180.263 2.75436 -3.12289 0
M  V30 2005 H 182.86 5.09535 -1.62107 0
M  V30 2006 H 183.203 4.15878 -0.187357 0
M  V30 2007 H 183.736 3.55915 -1.77678 0
M  V30 2008 H 180.475 4.73311 -4.53495 0
M  V30 2009 H 179.995 5.24924 -2.90198 0
M  V30 2010 H 181.674 5.47133 -3.45332 0
M  V30 2011 N 181.806 0.884767 1.30421 0
M  V30 2012 C 182.736 0.367574 2.30589 0
M  V30 2013 C 183.717 -0.549464 1.60981 0
M  V30 2014 O 184.902 -0.46336 1.88591 0
M  V30 2015 C 182.032 -0.418944 3.44764 0
M  V30 2016 C 180.986 0.406316 4.26067 0
M  V30 2017 C 180.312 -0.506793 5.32293 0
M  V30 2018 C 181.612 1.64832 4.95608 0
M  V30 2019 H 183.306 1.20462 2.74097 0
M  V30 2020 H 180.852 0.580695 1.31772 0
M  V30 2021 H 182.805 -0.791395 4.13902 0
M  V30 2022 H 181.529 -1.28964 3.0006 0
M  V30 2023 H 180.188 0.760903 3.58617 0
M  V30 2024 H 179.836 -1.37519 4.83836 0
M  V30 2025 H 179.536 0.0415828 5.87585 0
M  V30 2026 H 181.06 -0.875764 6.04287 0
M  V30 2027 H 182.474 1.34646 5.57264 0
M  V30 2028 H 180.871 2.13688 5.60765 0
M  V30 2029 H 181.941 2.39284 4.21748 0
M  V30 2030 N 183.284 -1.43765 0.645699 0
M  V30 2031 C 184.247 -2.29163 -0.0409488 0
M  V30 2032 C 185.247 -1.41813 -0.757996 0
M  V30 2033 O 186.437 -1.63527 -0.600382 0
M  V30 2034 C 183.569 -3.23716 -1.06869 0
M  V30 2035 H 184.762 -2.91366 0.710345 0
M  V30 2036 H 182.315 -1.5092 0.406547 0
M  V30 2037 H 183.05 -2.66393 -1.84947 0
M  V30 2038 H 182.835 -3.88105 -0.558277 0
M  V30 2039 H 184.325 -3.87831 -1.54845 0
M  V30 2040 N 184.763 -0.387143 -1.52771 0
M  V30 2041 C 186.009 0.196025 -2.0185 0
M  V30 2042 C 186.342 1.46641 -1.27319 0
M  V30 2043 O 185.617 1.90889 -0.373032 0
M  V30 2044 C 185.9 0.466136 -3.5707 0
M  V30 2045 C 185.753 -0.819385 -4.42274 0
M  V30 2046 C 187.072 1.25768 -4.21747 0
M  V30 2047 H 184.191 0.0697708 -0.73369 0
M  V30 2048 H 186.833 -0.516286 -1.82851 0
M  V30 2049 H 184.983 1.07293 -3.7339 0
M  V30 2050 H 186.655 -1.4563 -4.37709 0
M  V30 2051 H 184.898 -1.43517 -4.09372 0
M  V30 2052 H 185.569 -0.585065 -5.48891 0
M  V30 2053 H 188.045 0.744167 -4.09391 0
M  V30 2054 H 186.921 1.41541 -5.30337 0
M  V30 2055 H 187.182 2.27228 -3.79236 0
M  V30 2056 N 186.241 1.57166 -0.116904 0
M  V30 2057 C 187.49 1.94298 0.541407 0
M  V30 2058 C 187.803 1.00236 1.67964 0
M  V30 2059 O 189.009 1.26826 2.40057 0
M  V30 2060 C 187.465 3.45306 1.01449 0
M  V30 2061 C 187.073 4.47899 -0.0951738 0
M  V30 2062 C 188.817 3.91361 1.6443 0
M  V30 2063 C 186.724 5.90083 0.394491 0
M  V30 2064 H 185.654 0.725308 0.206019 0
M  V30 2065 H 188.305 1.82446 -0.196419 0
M  V30 2066 H 186.687 3.52385 1.80667 0
M  V30 2067 H 187.861 4.52486 -0.871374 0
M  V30 2068 H 186.176 4.11583 -0.631505 0
M  V30 2069 H 188.773 4.95004 2.02176 0
M  V30 2070 H 189.116 3.3122 2.52189 0
M  V30 2071 H 189.649 3.87073 0.917559 0
M  V30 2072 H 186.388 6.53974 -0.447004 0
M  V30 2073 H 185.908 5.88921 1.13722 0
M  V30 2074 H 187.587 6.41307 0.856399 0
M  V30 2075 N 187.719 -0.156864 1.56817 0
M  V30 2076 C 188.947 -0.886316 1.86955 0
M  V30 2077 C 189.362 -1.75185 0.703975 0
M  V30 2078 O 188.719 -1.79555 -0.326552 0
M  V30 2079 C 188.77 -1.75117 3.16253 0
M  V30 2080 O 188.491 -0.920537 4.2832 0
M  V30 2081 C 189.992 -2.58905 3.59837 0
M  V30 2082 H 187.212 -0.25678 0.619923 0
M  V30 2083 H 189.756 -0.152615 2.0393 0
M  V30 2084 H 187.911 -2.43805 3.01062 0
M  V30 2085 H 188.325 -1.51337 5.02192 0
M  V30 2086 H 189.799 -3.1518 4.53172 0
M  V30 2087 H 190.276 -3.34472 2.84649 0
M  V30 2088 H 190.882 -1.95526 3.7769 0
M  V30 2089 N 189.197 -1.51736 -0.425897 0
M  V30 2090 C 190.443 -1.65214 -1.1761 0
M  V30 2091 C 190.776 -0.372778 -1.90589 0
M  V30 2092 O 190.051 0.628139 -1.84078 0
M  V30 2093 C 190.334 -2.86312 -2.18398 0
M  V30 2094 C 190.187 -4.24254 -1.49426 0
M  V30 2095 C 191.506 -3.02925 -3.19256 0
M  V30 2096 H 188.625 -0.601263 -0.426206 0
M  V30 2097 H 191.267 -1.8425 -0.463882 0
M  V30 2098 H 189.417 -2.70213 -2.79137 0
M  V30 2099 H 191.089 -4.52046 -0.919362 0
M  V30 2100 H 189.332 -4.26426 -0.796432 0
M  V30 2101 H 190.003 -5.05001 -2.22885 0
M  V30 2102 H 192.479 -3.1781 -2.68581 0
M  V30 2103 H 191.355 -3.89199 -3.8706 0
M  V30 2104 H 191.616 -2.15497 -3.86023 0
M  V30 2105 N 190.675 0.682077 -1.42076 0
M  V30 2106 C 191.9 1.47558 -1.45744 0
M  V30 2107 C 192.325 1.87977 -0.0680981 0
M  V30 2108 O 191.683 1.55522 0.9318 0
M  V30 2109 C 191.731 2.70575 -2.38373 0
M  V30 2110 O 190.835 3.68573 -1.85007 0
M  V30 2111 H 190.176 0.443585 -0.494093 0
M  V30 2112 H 192.706 0.837238 -1.86686 0
M  V30 2113 H 192.716 3.18729 -2.54707 0
M  V30 2114 H 191.391 2.40495 -3.39315 0
M  V30 2115 H 189.968 3.2757 -1.78192 0
M  V30 2116 N 192.153 1.28127 0.917671 0
M  V30 2117 C 193.4 1.15052 1.66641 0
M  V30 2118 C 193.728 -0.301677 1.92146 0
M  V30 2119 O 192.983 -1.23622 1.51711 0
M  V30 2120 C 193.282 1.89018 3.03327 0
M  V30 2121 C 192.948 3.38832 2.97496 0
M  V30 2122 C 191.61 3.79693 2.95613 0
M  V30 2123 C 193.962 4.34378 2.88036 0
M  V30 2124 C 191.29 5.14447 2.82066 0
M  V30 2125 C 193.642 5.69201 2.7603 0
M  V30 2126 C 192.306 6.09343 2.72502 0
M  V30 2127 H 191.576 0.421006 0.609783 0
M  V30 2128 H 194.223 1.58855 1.06945 0
M  V30 2129 H 192.528 1.37752 3.66785 0
M  V30 2130 H 194.225 1.76321 3.60156 0
M  V30 2131 H 190.815 3.06342 2.99754 0
M  V30 2132 H 194.999 4.03775 2.88581 0
M  V30 2133 H 190.255 5.44681 2.77728 0
M  V30 2134 H 194.429 6.42901 2.67678 0
M  V30 2135 H 192.056 7.13712 2.61762 0
M  V30 2136 N 193.631 -1.12557 1.10312 0
M  V30 2137 C 194.879 -1.83675 0.843091 0
M  V30 2138 C 195.2 -1.84435 -0.633131 0
M  V30 2139 O 194.47 -1.30657 -1.45964 0
M  V30 2140 H 193.05 -0.680138 0.308904 0
M  V30 2141 H 195.712 -1.36301 1.39313 0
M  V30 2142 H 194.808 -2.87908 1.2048 0
M  V30 2143 N 195.109 -0.891671 -1.2995 0
M  V30 2144 C 196.355 -0.514261 -1.96171 0
M  V30 2145 C 196.688 0.935506 -1.70182 0
M  V30 2146 O 195.963 1.66204 -1.01028 0
M  V30 2147 C 196.246 -0.797719 -3.51153 0
M  V30 2148 C 196.099 -2.2986 -3.86632 0
M  V30 2149 C 197.418 -0.278749 -4.39216 0
M  V30 2150 H 194.537 -0.188314 -0.712535 0
M  V30 2151 H 197.179 -1.11689 -1.53706 0
M  V30 2152 H 195.329 -0.284826 -3.87455 0
M  V30 2153 H 197.001 -2.88042 -3.60319 0
M  V30 2154 H 195.244 -2.76257 -3.34462 0
M  V30 2155 H 195.915 -2.44753 -4.94773 0
M  V30 2156 H 198.391 -0.717825 -4.09862 0
M  V30 2157 H 197.267 -0.506353 -5.46559 0
M  V30 2158 H 197.528 0.820266 -4.34424 0
M  V30 2159 N 196.587 1.43421 -0.653314 0
M  V30 2160 C 197.815 2.06163 -0.174491 0
M  V30 2161 C 198.23 1.48969 1.1599 0
M  V30 2162 O 197.587 0.621042 1.71608 0
M  V30 2163 C 197.638 3.61417 -0.0774865 0
M  V30 2164 O 197.359 4.16485 -1.35912 0
M  V30 2165 C 198.86 4.41235 0.427402 0
M  V30 2166 H 196.08 0.664946 -0.0899353 0
M  V30 2167 H 198.624 1.83924 -0.893988 0
M  V30 2168 H 196.779 3.82841 0.59257 0
M  V30 2169 H 197.193 5.10153 -1.21839 0
M  V30 2170 H 198.667 5.5021 0.44423 0
M  V30 2171 H 199.144 4.14268 1.45873 0
M  V30 2172 H 199.75 4.2478 -0.210167 0
M  V30 2173 N 198.065 0.39524 1.52563 0
M  V30 2174 C 199.313 -0.184678 2.01254 0
M  V30 2175 C 199.634 -1.46822 1.28329 0
M  V30 2176 O 198.904 -1.91666 0.405094 0
M  V30 2177 H 197.484 -0.0712355 0.743596 0
M  V30 2178 H 200.146 0.528293 1.87603 0
M  V30 2179 H 199.242 -0.390681 3.09645 0
M  V30 2180 N 199.544 -1.57102 0.125237 0
M  V30 2181 C 200.774 -1.99472 -0.538015 0
M  V30 2182 C 201.182 -1.00395 -1.60366 0
M  V30 2183 O 200.525 0.0103875 -1.83697 0
M  V30 2184 C 200.587 -3.38262 -1.21734 0
M  V30 2185 C 200.251 -4.56021 -0.298897 0
M  V30 2186 C 201.248 -5.17817 0.464943 0
M  V30 2187 C 198.933 -5.01869 -0.208149 0
M  V30 2188 C 200.927 -6.23852 1.3072 0
M  V30 2189 C 198.614 -6.07763 0.637736 0
M  V30 2190 C 199.612 -6.68622 1.39403 0
M  V30 2191 O 199.3 -7.7247 2.22586 0
M  V30 2192 H 199.032 -0.659934 -0.146501 0
M  V30 2193 H 201.586 -2.04321 0.210267 0
M  V30 2194 H 199.816 -3.30185 -2.01282 0
M  V30 2195 H 201.505 -3.6488 -1.77813 0
M  V30 2196 H 202.271 -4.83308 0.404741 0
M  V30 2197 H 198.15 -4.54241 -0.786522 0
M  V30 2198 H 201.694 -6.71284 1.898 0
M  V30 2199 H 197.591 -6.41701 0.699309 0
M  V30 2200 H 198.359 -7.89595 2.15596 0
M  V30 2201 N 201.022 0.148545 -1.56898 0
M  V30 2202 C 202.247 0.880385 -1.87787 0
M  V30 2203 C 202.672 1.74018 -0.714093 0
M  V30 2204 O 202.03 1.78153 0.336343 0
M  V30 2205 C 202.078 1.71422 -3.17249 0
M  V30 2206 O 201.182 2.8183 -3.01074 0
M  V30 2207 H 200.523 0.245301 -0.617028 0
M  V30 2208 H 203.053 0.139826 -2.04122 0
M  V30 2209 H 203.063 2.10954 -3.49231 0
M  V30 2210 H 201.738 1.08284 -4.01556 0
M  V30 2211 H 200.315 2.45715 -2.80497 0
M  V30 2212 N 202.5 1.5196 0.417844 0
M  V30 2213 C 203.43 1.77634 1.51554 0
M  V30 2214 C 204.411 0.626918 1.58126 0
M  V30 2215 O 205.596 0.871632 1.7354 0
M  V30 2216 C 202.726 1.91911 2.8946 0
M  V30 2217 C 201.68 3.07463 2.97743 0
M  V30 2218 C 201.006 3.06951 4.37819 0
M  V30 2219 C 202.306 4.47082 2.70027 0
M  V30 2220 H 204 2.6955 1.3032 0
M  V30 2221 H 201.546 1.29706 0.625492 0
M  V30 2222 H 203.499 2.08455 3.6623 0
M  V30 2223 H 202.223 0.966598 3.11969 0
M  V30 2224 H 200.882 2.90656 2.23416 0
M  V30 2225 H 200.53 2.09438 4.57323 0
M  V30 2226 H 200.23 3.84556 4.44286 0
M  V30 2227 H 201.754 3.25613 5.16535 0
M  V30 2228 H 203.168 4.6414 3.36522 0
M  V30 2229 H 201.565 5.2654 2.87881 0
M  V30 2230 H 202.635 4.55777 1.65514 0
M  V30 2231 N 203.978 -0.674533 1.42435 0
M  V30 2232 C 205.389 -1.25514 1.38214 0
M  V30 2233 C 205.74 -1.96055 0.0755464 0
M  V30 2234 O 204.865 -2.00028 -0.8257 0
M  V30 2235 C 205.46 -2.28269 2.50357 0
M  V30 2236 C 204.019 -2.81856 2.49467 0
M  V30 2237 C 203.166 -1.56182 2.29134 0
M  V30 2238 H 206.117 -0.467902 1.51646 0
M  V30 2239 H 206.138 -3.10009 2.20624 0
M  V30 2240 H 205.65 -1.769 3.45439 0
M  V30 2241 H 203.751 -3.37346 1.58204 0
M  V30 2242 H 203.864 -3.30854 3.46515 0
M  V30 2243 H 202.228 -1.82761 1.774 0
M  V30 2244 H 203.011 -1.06778 3.26272 0
M  V30 2245 N 205.456 -1.28612 -0.910864 0
M  V30 2246 C 206.702 -1.17116 -1.66299 0
M  V30 2247 C 207.057 0.276917 -1.90397 0
M  V30 2248 O 206.35 1.19795 -1.49532 0
M  V30 2249 C 206.544 -1.90624 -3.0232 0
M  V30 2250 C 206.373 -3.42431 -2.91498 0
M  V30 2251 C 205.143 -4.11773 -2.92867 0
M  V30 2252 C 207.341 -4.38124 -2.69355 0
M  V30 2253 N 205.323 -5.50025 -2.72664 0
M  V30 2254 C 206.694 -5.63759 -2.58023 0
M  V30 2255 C 208.749 -4.28016 -2.54375 0
M  V30 2256 C 207.452 -6.80436 -2.33238 0
M  V30 2257 C 209.478 -5.44433 -2.30969 0
M  V30 2258 C 208.84 -6.69034 -2.20394 0
M  V30 2259 H 204.939 -0.483506 -0.61461 0
M  V30 2260 H 207.523 -1.62299 -1.0755 0
M  V30 2261 H 205.694 -1.4787 -3.5915 0
M  V30 2262 H 207.426 -1.71488 -3.66571 0
M  V30 2263 H 204.181 -3.63378 -3.03732 0
M  V30 2264 H 204.605 -6.22705 -2.65646 0
M  V30 2265 H 209.247 -3.32388 -2.613 0
M  V30 2266 H 206.965 -7.7613 -2.25051 0
M  V30 2267 H 210.551 -5.38504 -2.20238 0
M  V30 2268 H 209.431 -7.57595 -2.02531 0
M  V30 2269 N 206.934 1.1197 -1.10907 0
M  V30 2270 C 208.211 1.79959 -0.766432 0
M  V30 2271 C 208.591 1.97466 0.746363 0
M  V30 2272 O 207.939 1.55491 1.67436 0
M  V30 2273 C 208.149 3.14009 -1.52314 0
M  V30 2274 C 209.497 3.89134 -1.69883 0
M  V30 2275 O 210.521 3.2368 -1.48692 0
M  V30 2276 O 209.38 5.06572 -2.05054 0
M  V30 2277 H 206.474 0.779208 -0.277062 0
M  V30 2278 H 209.02 1.18762 -1.21217 0
M  V30 2279 H 207.792 2.96587 -2.55249 0
M  V30 2280 H 207.415 3.82915 -1.07059 0
M  V30 2281 N 208.412 0.89855 1.29475 0
M  V30 2282 C 209.344 0.332726 2.26772 0
M  V30 2283 C 210.357 -0.520323 1.54261 0
M  V30 2284 O 211.546 -0.337668 1.75277 0
M  V30 2285 C 208.646 -0.544334 3.345 0
M  V30 2286 C 207.819 0.282728 4.36485 0
M  V30 2287 C 206.878 -0.526982 5.23555 0
M  V30 2288 O 205.904 0.0551165 5.69173 0
M  V30 2289 N 207.106 -1.83331 5.5079 0
M  V30 2290 H 209.871 1.16897 2.75962 0
M  V30 2291 H 207.432 0.762919 1.42798 0
M  V30 2292 H 209.424 -1.09239 3.89678 0
M  V30 2293 H 207.994 -1.28127 2.85136 0
M  V30 2294 H 207.214 1.01221 3.80983 0
M  V30 2295 H 208.502 0.84918 5.01664 0
M  V30 2296 H 207.9 -2.32898 5.15534 0
M  V30 2297 H 206.457 -2.32852 6.08788 0
M  V30 2298 N 209.89 -1.43072 0.660911 0
M  V30 2299 C 211.136 -2.0202 0.177708 0
M  V30 2300 C 211.469 -1.52066 -1.20787 0
M  V30 2301 O 210.744 -0.716987 -1.80802 0
M  V30 2302 C 211.027 -3.59561 0.197019 0
M  V30 2303 C 210.88 -4.19727 1.61706 0
M  V30 2304 C 212.199 -4.37664 -0.462396 0
M  V30 2305 H 209.318 -0.734034 0.0660494 0
M  V30 2306 H 211.96 -1.70272 0.843058 0
M  V30 2307 H 210.11 -3.86739 -0.369527 0
M  V30 2308 H 211.782 -4.03553 2.23479 0
M  V30 2309 H 210.025 -3.76084 2.16201 0
M  V30 2310 H 210.696 -5.28834 1.58237 0
M  V30 2311 H 213.172 -4.16095 0.0197215 0
M  V30 2312 H 212.048 -5.47305 -0.418188 0
M  V30 2313 H 212.309 -4.14493 -1.53778 0
M  V30 2314 N 211.368 -0.403325 -1.52352 0
M  V30 2315 C 212.616 0.174003 -2.0135 0
M  V30 2316 C 212.937 1.46139 -1.29106 0
M  V30 2317 O 212.207 1.91448 -0.415253 0
M  V30 2318 H 210.787 0.0672911 -0.743963 0
M  V30 2319 H 213.449 -0.538235 -1.87321 0
M  V30 2320 H 212.545 0.374254 -3.09848 0
M  V30 2321 N 212.846 1.57033 -0.133567 0
M  V30 2322 C 214.076 1.99754 0.527429 0
M  V30 2323 C 214.484 1.01245 1.59832 0
M  V30 2324 O 213.827 -0.000645496 1.837 0
M  V30 2325 C 213.889 3.38903 1.19939 0
M  V30 2326 C 213.553 4.56174 0.274709 0
M  V30 2327 C 214.55 5.17563 -0.492398 0
M  V30 2328 C 212.235 5.01972 0.18153 0
M  V30 2329 C 214.229 6.2315 -1.34027 0
M  V30 2330 C 211.916 6.07416 -0.669958 0
M  V30 2331 C 212.914 6.67874 -1.42947 0
M  V30 2332 O 212.602 7.71279 -2.2668 0
M  V30 2333 H 212.334 0.660702 0.142999 0
M  V30 2334 H 214.888 2.04207 -0.221099 0
M  V30 2335 H 213.118 3.31248 1.99528 0
M  V30 2336 H 214.807 3.65818 1.75875 0
M  V30 2337 H 215.573 4.83087 -0.430367 0
M  V30 2338 H 211.452 4.54652 0.762422 0
M  V30 2339 H 214.996 6.70268 -1.93357 0
M  V30 2340 H 210.893 6.41321 -0.73333 0
M  V30 2341 H 211.661 7.88441 -2.1978 0
M  V30 2342 N 214.325 -0.140222 1.56975 0
M  V30 2343 C 215.571 -0.848084 1.84876 0
M  V30 2344 C 215.926 -1.78481 0.718481 0
M  V30 2345 O 215.219 -1.89497 -0.283093 0
M  V30 2346 C 215.413 -1.65386 3.16832 0
M  V30 2347 C 215.242 -0.79665 4.42587 0
M  V30 2348 C 214.012 -0.459648 5.03205 0
M  V30 2349 C 216.21 -0.12389 5.14151 0
M  V30 2350 N 214.192 0.410446 6.12526 0
M  V30 2351 C 215.563 0.606064 6.17031 0
M  V30 2352 C 217.618 -0.0452654 4.97879 0
M  V30 2353 C 216.321 1.40723 7.054 0
M  V30 2354 C 218.347 0.742658 5.86718 0
M  V30 2355 C 217.709 1.46087 6.89085 0
M  V30 2356 H 213.808 -0.287946 0.727056 0
M  V30 2357 H 216.392 -0.11304 1.94372 0
M  V30 2358 H 214.563 -2.36009 3.08471 0
M  V30 2359 H 216.295 -2.30541 3.32615 0
M  V30 2360 H 213.05 -0.797006 4.66846 0
M  V30 2361 H 213.474 0.836716 6.7181 0
M  V30 2362 H 218.116 -0.586184 4.18717 0
M  V30 2363 H 215.834 1.95938 7.83986 0
M  V30 2364 H 219.42 0.805574 5.76196 0
M  V30 2365 H 218.3 2.06077 7.56639 0
M  V30 2366 N 215.803 -1.52179 -0.40978 0
M  V30 2367 C 216.766 -1.74853 -1.48186 0
M  V30 2368 C 217.766 -0.618417 -1.48433 0
M  V30 2369 O 218.956 -0.886286 -1.49969 0
M  V30 2370 C 216.088 -1.8303 -2.87598 0
M  V30 2371 H 217.281 -2.70559 -1.29374 0
M  V30 2372 H 214.834 -1.42586 -0.640233 0
M  V30 2373 H 215.569 -0.89236 -3.11781 0
M  V30 2374 H 215.354 -2.65187 -2.88822 0
M  V30 2375 H 216.844 -2.02316 -3.65319 0
M  V30 2376 N 217.281 0.66697 -1.42791 0
M  V30 2377 C 218.527 1.4291 -1.43891 0
M  V30 2378 C 218.86 1.94114 -0.0578972 0
M  V30 2379 O 218.135 1.71414 0.91911 0
M  V30 2380 C 218.418 2.62049 -2.46987 0
M  V30 2381 C 218.271 2.16426 -3.94309 0
M  V30 2382 C 219.59 3.64266 -2.46978 0
M  V30 2383 H 216.709 0.518306 -0.523954 0
M  V30 2384 H 219.351 0.757321 -1.74255 0
M  V30 2385 H 217.501 3.19361 -2.21225 0
M  V30 2386 H 219.173 1.64221 -4.31079 0
M  V30 2387 H 217.416 1.47925 -4.078 0
M  V30 2388 H 218.087 3.02038 -4.62036 0
M  V30 2389 H 220.563 3.16686 -2.69906 0
M  V30 2390 H 219.439 4.45196 -3.21079 0
M  V30 2391 H 219.7 4.15927 -1.49857 0
M  V30 2392 N 218.759 1.29093 0.90403 0
M  V30 2393 C 219.706 1.13853 2.00764 0
M  V30 2394 C 220.676 0.0330084 1.66067 0
M  V30 2395 O 221.861 0.199733 1.89752 0
M  V30 2396 C 219.001 0.816537 3.35301 0
M  V30 2397 C 218.114 2.00206 3.82807 0
M  V30 2398 C 217.249 1.61983 5.059 0
M  V30 2399 C 216.288 2.77143 5.45764 0
M  V30 2400 N 215.425 2.39346 6.60044 0
M  V30 2401 H 220.265 2.08276 2.13132 0
M  V30 2402 H 217.802 1.03648 1.04381 0
M  V30 2403 H 219.76 0.610557 4.12708 0
M  V30 2404 H 218.39 -0.090779 3.22672 0
M  V30 2405 H 217.442 2.31988 3.01473 0
M  V30 2406 H 218.754 2.86512 4.08304 0
M  V30 2407 H 217.908 1.37649 5.90879 0
M  V30 2408 H 216.647 0.728202 4.82233 0
M  V30 2409 H 215.652 3.02165 4.59322 0
M  V30 2410 H 216.877 3.66964 5.71414 0
M  V30 2411 H 214.823 1.52665 6.37989 0
M  V30 2412 H 214.74 3.19185 6.85315 0
M  V30 2413 H 216.008 2.1832 7.48303 0
M  V30 2414 N 220.237 -1.11381 1.11499 0
M  V30 2415 C 221.486 -1.82494 0.858993 0
M  V30 2416 C 221.799 -1.85605 -0.617278 0
M  V30 2417 O 223.005 -2.52824 -0.989552 0
M  V30 2418 C 221.461 -3.27745 1.48699 0
M  V30 2419 C 221.069 -3.32961 2.99735 0
M  V30 2420 C 222.813 -4.03754 1.31085 0
M  V30 2421 C 220.72 -4.72612 3.55516 0
M  V30 2422 H 219.65 -0.683802 0.317696 0
M  V30 2423 H 222.301 -1.25331 1.34031 0
M  V30 2424 H 220.683 -3.84844 0.933339 0
M  V30 2425 H 221.857 -2.85741 3.61509 0
M  V30 2426 H 220.172 -2.70433 3.16631 0
M  V30 2427 H 222.769 -5.06891 1.70192 0
M  V30 2428 H 223.112 -4.15527 0.253496 0
M  V30 2429 H 223.645 -3.53043 1.83318 0
M  V30 2430 H 220.384 -4.66036 4.60967 0
M  V30 2431 H 219.904 -5.2024 2.98513 0
M  V30 2432 H 221.583 -5.4157 3.53992 0
M  V30 2433 N 221.715 -0.905404 -1.28997 0
M  V30 2434 C 222.961 -0.535039 -1.95615 0
M  V30 2435 C 223.294 0.917404 -1.71165 0
M  V30 2436 O 222.569 1.65123 -1.02785 0
M  V30 2437 C 222.852 -0.834918 -3.50287 0
M  V30 2438 C 222.705 -2.33948 -3.84172 0
M  V30 2439 C 224.024 -0.325318 -4.38896 0
M  V30 2440 H 221.143 -0.195861 -0.710498 0
M  V30 2441 H 223.785 -1.13313 -1.52513 0
M  V30 2442 H 221.935 -0.325904 -3.87131 0
M  V30 2443 H 223.607 -2.91847 -3.57243 0
M  V30 2444 H 221.85 -2.79789 -3.31513 0
M  V30 2445 H 222.521 -2.49987 -4.92149 0
M  V30 2446 H 224.997 -0.761256 -4.09077 0
M  V30 2447 H 223.873 -0.564295 -5.45992 0
M  V30 2448 H 224.134 0.774144 -4.35269 0
M  V30 2449 N 223.193 1.4272 -0.668489 0
M  V30 2450 C 224.418 2.06484 -0.194758 0
M  V30 2451 C 224.843 1.49862 1.13679 0
M  V30 2452 O 224.201 0.614582 1.70565 0
M  V30 2453 C 224.249 3.60353 -0.133546 0
M  V30 2454 O 223.353 4.02464 0.899806 0
M  V30 2455 H 222.694 0.656137 -0.10188 0
M  V30 2456 H 225.224 1.82964 -0.915722 0
M  V30 2457 H 225.234 4.07976 0.0447041 0
M  V30 2458 H 223.909 4.00938 -1.1055 0
M  V30 2459 H 222.486 3.66402 0.693109 0
M  V30 2460 N 224.671 0.411399 1.52136 0
M  V30 2461 C 225.919 -0.163322 2.01439 0
M  V30 2462 C 226.24 -1.45453 1.29879 0
M  V30 2463 O 225.51 -1.91225 0.4254 0
M  V30 2464 H 224.09 -0.0633447 0.744309 0
M  V30 2465 H 226.752 0.548161 1.87033 0
M  V30 2466 H 225.848 -0.357817 3.10042 0
M  V30 2467 N 226.149 -1.5696 0.141893 0
M  V30 2468 C 227.395 -1.9625 -0.511248 0
M  V30 2469 C 227.728 -1.02654 -1.64851 0
M  V30 2470 O 227.003 -0.0679676 -1.94381 0
M  V30 2471 C 227.286 -3.45285 -1.02227 0
M  V30 2472 C 227.139 -4.49658 0.113138 0
M  V30 2473 C 228.458 -3.96698 -1.90574 0
M  V30 2474 H 225.577 -0.713567 -0.184367 0
M  V30 2475 H 228.219 -1.88698 0.222087 0
M  V30 2476 H 226.369 -3.51852 -1.64719 0
M  V30 2477 H 228.041 -4.55174 0.749302 0
M  V30 2478 H 226.284 -4.26857 0.773026 0
M  V30 2479 H 226.955 -5.51258 -0.286053 0
M  V30 2480 H 229.431 -3.92578 -1.37918 0
M  V30 2481 H 228.307 -5.01453 -2.2324 0
M  V30 2482 H 228.568 -3.3875 -2.84079 0
M  V30 2483 N 227.627 0.131896 -1.57047 0
M  V30 2484 C 229.038 0.690407 -1.73465 0
M  V30 2485 C 229.389 1.8094 -0.758629 0
M  V30 2486 O 228.514 2.16282 0.0713813 0
M  V30 2487 C 229.109 1.25916 -3.14532 0
M  V30 2488 C 227.668 1.76409 -3.32501 0
M  V30 2489 C 226.815 0.658579 -2.69366 0
M  V30 2490 H 229.766 -0.0939144 -1.58422 0
M  V30 2491 H 229.787 2.12892 -3.15369 0
M  V30 2492 H 229.299 0.444515 -3.85546 0
M  V30 2493 H 227.4 2.60391 -2.66509 0
M  V30 2494 H 227.513 1.88241 -4.4057 0
M  V30 2495 H 225.877 1.08899 -2.30246 0
M  V30 2496 H 226.66 -0.14487 -3.42994 0
M  V30 2497 N 229.106 1.52395 0.401703 0
M  V30 2498 C 230.016 1.7917 1.51444 0
M  V30 2499 C 231.032 0.677691 1.6026 0
M  V30 2500 O 232.208 0.963909 1.76835 0
M  V30 2501 C 229.273 1.94347 2.87107 0
M  V30 2502 C 228.334 3.18257 2.88116 0
M  V30 2503 C 227.567 3.32701 4.17308 0
M  V30 2504 O 227.79 2.52238 5.11598 0
M  V30 2505 O 226.724 4.25891 4.25324 0
M  V30 2506 H 230.55 2.73633 1.31752 0
M  V30 2507 H 228.135 1.3733 0.588296 0
M  V30 2508 H 230.017 2.06109 3.67555 0
M  V30 2509 H 228.692 1.03073 3.06851 0
M  V30 2510 H 227.599 3.11947 2.06494 0
M  V30 2511 H 228.932 4.09336 2.73322 0
M  V30 2512 N 230.584 -0.659388 1.43143 0
M  V30 2513 C 231.547 -1.75432 1.47501 0
M  V30 2514 C 232.547 -1.56707 0.360512 0
M  V30 2515 O 233.737 -1.62717 0.622002 0
M  V30 2516 C 230.869 -3.14239 1.32162 0
M  V30 2517 H 232.062 -1.7295 2.45006 0
M  V30 2518 H 229.615 -0.870469 1.29817 0
M  V30 2519 H 230.35 -3.22336 0.356401 0
M  V30 2520 H 230.135 -3.29235 2.12948 0
M  V30 2521 H 231.625 -3.94094 1.3813 0
M  V30 2522 N 232.062 -1.29571 -0.897171 0
M  V30 2523 C 233.311 -1.1706 -1.64256 0
M  V30 2524 C 233.624 0.276476 -1.93636 0
M  V30 2525 O 234.83 0.52294 -2.66416 0
M  V30 2526 C 233.286 -2.0475 -2.95982 0
M  V30 2527 C 232.894 -3.54295 -2.74187 0
M  V30 2528 C 234.638 -2.0097 -3.73914 0
M  V30 2529 C 232.545 -4.34081 -4.01656 0
M  V30 2530 H 231.475 -0.43452 -0.616205 0
M  V30 2531 H 234.126 -1.54229 -0.994268 0
M  V30 2532 H 232.508 -1.60452 -3.62038 0
M  V30 2533 H 233.682 -4.06662 -2.1671 0
M  V30 2534 H 231.997 -3.59773 -2.09648 0
M  V30 2535 H 234.594 -2.57838 -4.68427 0
M  V30 2536 H 234.937 -0.990273 -4.0435 0
M  V30 2537 H 235.47 -2.43325 -3.14703 0
M  V30 2538 H 232.209 -5.36671 -3.76384 0
M  V30 2539 H 231.729 -3.86483 -4.58684 0
M  V30 2540 H 233.408 -4.44877 -4.69781 0
M  V30 2541 N 233.54 1.10788 -1.12088 0
M  V30 2542 C 234.951 1.64181 -0.88891 0
M  V30 2543 C 235.302 1.87508 0.577498 0
M  V30 2544 O 234.427 1.61434 1.44112 0
M  V30 2545 C 235.022 2.98257 -1.60712 0
M  V30 2546 C 233.581 3.4853 -1.42139 0
M  V30 2547 C 232.728 2.23208 -1.6454 0
M  V30 2548 H 235.679 0.943368 -1.27618 0
M  V30 2549 H 235.7 3.65552 -1.05604 0
M  V30 2550 H 235.212 2.81246 -2.67436 0
M  V30 2551 H 233.313 3.70692 -0.376552 0
M  V30 2552 H 233.426 4.26882 -2.17505 0
M  V30 2553 H 231.79 2.31169 -1.06925 0
M  V30 2554 H 232.573 2.08733 -2.72554 0
M  V30 2555 N 235.018 0.912232 1.28515 0
M  V30 2556 C 236.264 0.545405 1.95328 0
M  V30 2557 C 236.597 -0.908313 1.71649 0
M  V30 2558 O 235.872 -1.64575 1.03659 0
M  V30 2559 C 236.155 0.853483 3.4984 0
M  V30 2560 C 236.008 2.35982 3.82926 0
M  V30 2561 C 237.327 0.348589 4.38717 0
M  V30 2562 H 234.446 0.199626 0.709449 0
M  V30 2563 H 237.088 1.1412 1.5191 0
M  V30 2564 H 235.238 0.34643 3.86952 0
M  V30 2565 H 236.91 2.93738 3.55691 0
M  V30 2566 H 235.153 2.81543 3.30024 0
M  V30 2567 H 235.824 2.52593 4.90816 0
M  V30 2568 H 238.3 0.78294 4.08668 0
M  V30 2569 H 237.176 0.593242 5.45685 0
M  V30 2570 H 237.437 -0.751049 4.35674 0
M  V30 2571 N 236.496 -1.42363 0.676048 0
M  V30 2572 C 237.742 -2.0182 0.199125 0
M  V30 2573 C 238.075 -1.53339 -1.19168 0
M  V30 2574 O 237.35 -0.736124 -1.80032 0
M  V30 2575 C 237.633 -3.59331 0.235144 0
M  V30 2576 C 237.486 -4.17989 1.66149 0
M  V30 2577 C 238.805 -4.3813 -0.41595 0
M  V30 2578 H 235.924 -0.733293 0.0738311 0
M  V30 2579 H 238.566 -1.69368 0.86107 0
M  V30 2580 H 236.716 -3.87109 -0.328487 0
M  V30 2581 H 238.388 -4.0116 2.27747 0
M  V30 2582 H 236.631 -3.7377 2.20178 0
M  V30 2583 H 237.302 -5.27126 1.63837 0
M  V30 2584 H 239.778 -4.16051 0.0638529 0
M  V30 2585 H 238.654 -5.47717 -0.360115 0
M  V30 2586 H 238.915 -4.16101 -1.49373 0
M  V30 2587 N 237.974 -0.419461 -1.51915 0
M  V30 2588 C 239.222 0.152637 -2.01523 0
M  V30 2589 C 239.543 1.44762 -1.30649 0
M  V30 2590 O 238.813 1.90997 -0.435535 0
M  V30 2591 H 237.393 0.0593966 -0.744635 0
M  V30 2592 H 240.055 -0.558073 -1.86739 0
M  V30 2593 H 239.151 0.341369 -3.10227 0
M  V30 2594 N 239.452 1.56882 -0.150215 0
M  V30 2595 C 240.698 1.96518 0.500834 0
M  V30 2596 C 241.031 1.03527 1.64304 0
M  V30 2597 O 240.306 0.0782751 1.94342 0
M  V30 2598 C 240.589 3.45822 1.00395 0
M  V30 2599 C 240.442 4.49591 -0.136983 0
M  V30 2600 C 241.761 3.97704 1.88467 0
M  V30 2601 H 238.88 0.714535 0.18058 0
M  V30 2602 H 241.522 1.88577 -0.232091 0
M  V30 2603 H 239.672 3.5272 1.62851 0
M  V30 2604 H 241.344 4.5477 -0.77343 0
M  V30 2605 H 239.587 4.26441 -0.795652 0
M  V30 2606 H 240.258 5.51402 0.256815 0
M  V30 2607 H 242.734 3.93304 1.35834 0
M  V30 2608 H 241.61 5.0263 2.20578 0
M  V30 2609 H 241.871 3.40252 2.82279 0
M  V30 2610 N 240.93 -0.123565 1.57115 0
M  V30 2611 C 241.86 -1.15309 2.03042 0
M  V30 2612 C 242.841 -1.43454 0.914061 0
M  V30 2613 O 244.026 -1.53973 1.18347 0
M  V30 2614 C 241.156 -2.48043 2.43089 0
M  V30 2615 C 240.11 -2.3437 3.58127 0
M  V30 2616 C 239.436 -3.72026 3.84059 0
M  V30 2617 C 240.736 -1.80804 4.90007 0
M  V30 2618 H 242.43 -0.771102 2.893 0
M  V30 2619 H 239.976 -0.369479 1.39179 0
M  V30 2620 H 241.929 -3.20311 2.73823 0
M  V30 2621 H 240.653 -2.88122 1.53796 0
M  V30 2622 H 239.312 -1.64551 3.27595 0
M  V30 2623 H 238.96 -4.09582 2.91979 0
M  V30 2624 H 238.66 -3.63732 4.6149 0
M  V30 2625 H 240.184 -4.45806 4.1724 0
M  V30 2626 H 241.598 -2.42886 5.19307 0
M  V30 2627 H 239.995 -1.83343 5.71407 0
M  V30 2628 H 241.065 -0.76528 4.78823 0
M  V30 2629 N 242.408 -1.52605 -0.393616 0
M  V30 2630 C 243.657 -1.66649 -1.13627 0
M  V30 2631 C 243.97 -0.410364 -1.91247 0
M  V30 2632 O 245.176 -0.430854 -2.68059 0
M  V30 2633 C 243.632 -2.9449 -2.06891 0
M  V30 2634 C 243.24 -4.27266 -1.34714 0
M  V30 2635 C 244.984 -3.17899 -2.81319 0
M  V30 2636 C 242.891 -5.46217 -2.26717 0
M  V30 2637 H 241.821 -0.62084 -0.427871 0
M  V30 2638 H 244.472 -1.791 -0.399428 0
M  V30 2639 H 242.854 -2.75774 -2.84191 0
M  V30 2640 H 244.028 -4.56518 -0.626714 0
M  V30 2641 H 242.343 -4.10081 -0.722643 0
M  V30 2642 H 244.94 -4.03949 -3.50328 0
M  V30 2643 H 245.283 -2.32777 -3.45139 0
M  V30 2644 H 245.816 -3.37159 -2.11113 0
M  V30 2645 H 242.555 -6.33733 -1.67521 0
M  V30 2646 H 242.075 -5.21283 -2.96689 0
M  V30 2647 H 243.754 -5.7991 -2.86903 0
M  V30 2648 N 243.887 0.651787 -1.4349 0
M  V30 2649 C 245.112 1.44434 -1.48841 0
M  V30 2650 C 245.537 1.8779 -0.107955 0
M  V30 2651 O 244.895 1.57464 0.898602 0
M  V30 2652 C 244.943 2.65458 -2.44059 0
M  V30 2653 O 244.047 3.64566 -1.92784 0
M  V30 2654 H 243.388 0.433005 -0.503391 0
M  V30 2655 H 245.918 0.797451 -1.88419 0
M  V30 2656 H 245.928 3.13255 -2.6141 0
M  V30 2657 H 244.603 2.33244 -3.4434 0
M  V30 2658 H 243.18 3.23716 -1.851 0
M  V30 2659 N 245.365 1.30045 0.890287 0
M  V30 2660 C 246.642 1.09227 1.62262 0
M  V30 2661 C 247.022 -0.360305 2.08002 0
M  V30 2662 O 246.37 -1.35084 1.84295 0
M  V30 2663 C 246.58 2.08835 2.79623 0
M  V30 2664 C 247.928 2.40266 3.50082 0
M  V30 2665 O 248.952 2.07104 2.89804 0
M  V30 2666 O 247.811 2.96967 4.58773 0
M  V30 2667 H 244.905 0.419132 0.712922 0
M  V30 2668 H 247.451 1.41451 0.937529 0
M  V30 2669 H 246.223 3.06633 2.43089 0
M  V30 2670 H 245.846 1.77397 3.55832 0
M  V30 2671 N 246.843 -1.10192 1.12674 0
M  V30 2672 C 247.773 -2.18652 0.819362 0
M  V30 2673 C 248.754 -1.68698 -0.217915 0
M  V30 2674 O 249.939 -1.94041 -0.0785581 0
M  V30 2675 C 247.069 -3.46202 0.27594 0
M  V30 2676 C 246.023 -4.09444 1.24656 0
M  V30 2677 C 245.349 -5.31725 0.563258 0
M  V30 2678 C 246.649 -4.52863 2.60217 0
M  V30 2679 H 248.343 -2.44622 1.72628 0
M  V30 2680 H 245.889 -1.17571 0.831451 0
M  V30 2681 H 247.842 -4.21372 0.0486149 0
M  V30 2682 H 246.566 -3.1973 -0.666331 0
M  V30 2683 H 245.225 -3.36284 1.45974 0
M  V30 2684 H 244.873 -5.0153 -0.384235 0
M  V30 2685 H 244.573 -5.74991 1.21075 0
M  V30 2686 H 246.097 -6.09624 0.34503 0
M  V30 2687 H 247.511 -5.19294 2.42913 0
M  V30 2688 H 245.908 -5.06986 3.21068 0
M  V30 2689 H 246.978 -3.65656 3.18471 0
M  V30 2690 N 248.321 -0.919034 -1.28029 0
M  V30 2691 C 249.251 -0.428581 -2.29533 0
M  V30 2692 C 250.232 0.50659 -1.62381 0
M  V30 2693 O 251.417 0.413195 -1.89753 0
M  V30 2694 C 248.547 0.327388 -3.45753 0
M  V30 2695 C 247.501 -0.519137 -4.2484 0
M  V30 2696 C 246.827 0.365486 -5.33449 0
M  V30 2697 C 248.127 -1.77914 -4.91064 0
M  V30 2698 H 249.821 -1.27687 -2.70807 0
M  V30 2699 H 247.367 -0.615428 -1.30186 0
M  V30 2700 H 249.32 0.681378 -4.15855 0
M  V30 2701 H 248.044 1.20963 -3.03374 0
M  V30 2702 H 246.703 -0.855717 -3.56473 0
M  V30 2703 H 246.351 1.24642 -4.87312 0
M  V30 2704 H 246.051 -0.197356 -5.87268 0
M  V30 2705 H 247.575 0.715241 -6.06396 0
M  V30 2706 H 248.989 -1.49374 -5.53498 0
M  V30 2707 H 247.386 -2.2848 -5.54903 0
M  V30 2708 H 248.456 -2.50382 -4.15255 0
M  V30 2709 N 249.799 1.42003 -0.683588 0
M  V30 2710 C 251.215 1.55625 -0.353976 0
M  V30 2711 C 251.415 1.66151 1.14 0
M  V30 2712 O 250.471 1.63329 1.92561 0
M  V30 2713 C 251.784 2.80171 -1.092 0
M  V30 2714 C 253.332 2.93954 -1.07518 0
M  V30 2715 C 253.807 4.21372 -1.79471 0
M  V30 2716 N 255.298 4.28303 -1.76381 0
M  V30 2717 C 256.033 5.25729 -2.28904 0
M  V30 2718 N 255.529 6.29254 -2.89846 0
M  V30 2719 N 257.322 5.17586 -2.19228 0
M  V30 2720 H 249.473 1.33415 -1.6527 0
M  V30 2721 H 251.736 0.64282 -0.696769 0
M  V30 2722 H 251.442 2.78561 -2.14701 0
M  V30 2723 H 251.316 3.7133 -0.662862 0
M  V30 2724 H 253.703 2.95086 -0.028475 0
M  V30 2725 H 253.784 2.04002 -1.54328 0
M  V30 2726 H 253.428 4.21001 -2.84114 0
M  V30 2727 H 253.358 5.10275 -1.30104 0
M  V30 2728 H 255.849 3.54119 -1.31939 0
M  V30 2729 H 256.162 6.99964 -3.27522 0
M  V30 2730 H 254.507 6.29791 -2.93919 0
M  V30 2731 H 257.698 4.35631 -1.71299 0
M  V30 2732 H 257.871 5.93348 -2.60466 0
M  V30 2733 N 251.277 0.427512 1.51691 0
M  V30 2734 C 252.525 -0.141948 2.01601 0
M  V30 2735 C 252.846 -1.44067 1.31414 0
M  V30 2736 O 252.116 -1.90763 0.445658 0
M  V30 2737 H 250.696 -0.0554468 0.744939 0
M  V30 2738 H 253.358 0.567968 1.86441 0
M  V30 2739 H 252.454 -0.324913 3.10404 0
M  V30 2740 N 252.755 -1.56801 0.158532 0
M  V30 2741 C 254.003 -1.96102 -0.488712 0
M  V30 2742 C 254.324 -1.04498 -1.64636 0
M  V30 2743 O 253.594 -0.108783 -1.95598 0
M  V30 2744 H 252.174 -0.724102 -0.183535 0
M  V30 2745 H 254.836 -1.93457 0.236728 0
M  V30 2746 H 253.932 -3.00097 -0.857219 0
M  V30 2747 N 254.233 0.115231 -1.57178 0
M  V30 2748 C 255.458 0.840354 -1.89612 0
M  V30 2749 C 255.883 1.72464 -0.750845 0
M  V30 2750 O 255.241 1.78826 0.298478 0
M  V30 2751 C 255.289 1.64654 -3.20814 0
M  V30 2752 O 254.393 2.7538 -3.06985 0
M  V30 2753 H 253.734 0.232158 -0.622092 0
M  V30 2754 H 256.264 0.0964977 -2.04372 0
M  V30 2755 H 256.274 2.03499 -3.53627 0
M  V30 2756 H 254.949 0.997416 -4.03763 0
M  V30 2757 H 253.526 2.3971 -2.85646 0
M  V30 2758 N 255.711 1.52812 0.385517 0
M  V30 2759 C 256.936 1.72207 1.15583 0
M  V30 2760 C 257.361 0.441034 1.82857 0
M  V30 2761 O 256.719 -0.603465 1.70962 0
M  V30 2762 C 256.767 2.87476 2.17692 0
M  V30 2763 O 255.871 2.54693 3.24354 0
M  V30 2764 H 255.212 0.572526 0.336319 0
M  V30 2765 H 257.742 1.99618 0.448744 0
M  V30 2766 H 257.752 3.13072 2.6163 0
M  V30 2767 H 256.427 3.80408 1.68115 0
M  V30 2768 H 255.004 2.3985 2.85529 0
M  V30 2769 N 257.189 -0.644168 1.43834 0
M  V30 2770 C 258.435 -1.40603 1.46146 0
M  V30 2771 C 258.768 -1.93997 0.0887717 0
M  V30 2772 O 258.043 -1.72854 -0.891724 0
M  V30 2773 C 258.326 -2.58086 2.51124 0
M  V30 2774 C 258.179 -2.10126 3.97702 0
M  V30 2775 C 259.498 -3.60291 2.52742 0
M  V30 2776 H 256.617 -0.509905 0.532134 0
M  V30 2777 H 259.259 -0.729502 1.75437 0
M  V30 2778 H 257.409 -3.15801 2.26278 0
M  V30 2779 H 259.081 -1.57342 4.33637 0
M  V30 2780 H 257.324 -1.41419 4.10101 0
M  V30 2781 H 257.995 -2.94649 4.66783 0
M  V30 2782 H 260.471 -3.12352 2.7491 0
M  V30 2783 H 259.347 -4.40032 3.28121 0
M  V30 2784 H 259.608 -4.1349 1.56455 0
M  V30 2785 N 258.668 -1.30515 -0.883378 0
M  V30 2786 C 259.916 -1.19194 -1.63209 0
M  V30 2787 C 260.237 0.253205 -1.93349 0
M  V30 2788 O 259.507 1.17025 -1.57105 0
M  V30 2789 H 258.087 -0.438148 -0.605009 0
M  V30 2790 H 260.749 -1.63663 -1.05832 0
M  V30 2791 H 259.845 -1.75396 -2.58153 0
M  V30 2792 N 260.146 1.09593 -1.13257 0
M  V30 2793 C 261.078 2.16015 -0.766167 0
M  V30 2794 C 262.091 1.61423 0.211303 0
M  V30 2795 O 263.28 1.78498 -0.00863946 0
M  V30 2796 C 260.38 3.38706 -0.114662 0
M  V30 2797 C 259.553 4.22717 -1.12379 0
M  V30 2798 C 258.612 5.23835 -0.498301 0
M  V30 2799 O 257.638 5.573 -1.15781 0
M  V30 2800 N 258.84 5.75886 0.730417 0
M  V30 2801 H 261.605 2.48055 -1.68193 0
M  V30 2802 H 259.166 1.25292 -1.02535 0
M  V30 2803 H 261.158 4.03464 0.315991 0
M  V30 2804 H 259.728 3.04569 0.704011 0
M  V30 2805 H 258.948 3.54122 -1.73179 0
M  V30 2806 H 260.236 4.75673 -1.80589 0
M  V30 2807 H 259.634 5.50911 1.28504 0
M  V30 2808 H 258.191 6.42387 1.10376 0
M  V30 2809 N 261.624 0.925811 1.2754 0
M  V30 2810 C 262.587 0.428129 2.25166 0
M  V30 2811 C 263.587 -0.452261 1.54309 0
M  V30 2812 O 264.777 -0.253608 1.72344 0
M  V30 2813 C 261.909 -0.384749 3.38722 0
M  V30 2814 H 263.102 1.29066 2.70706 0
M  V30 2815 H 260.655 0.706323 1.3943 0
M  V30 2816 H 261.39 -1.26618 2.98561 0
M  V30 2817 H 261.175 0.246454 3.91325 0
M  V30 2818 H 262.665 -0.723389 4.11287 0
M  V30 2819 N 263.102 -1.41638 0.69111 0
M  V30 2820 C 264.33 -2.05628 0.22909 0
M  V30 2821 C 264.745 -1.51992 -1.11999 0
M  V30 2822 O 264.102 -0.666322 -1.69901 0
M  V30 2823 C 264.153 -3.61084 0.173283 0
M  V30 2824 O 263.874 -4.12735 1.46907 0
M  V30 2825 C 265.375 -4.42213 -0.310266 0
M  V30 2826 H 262.595 -0.662327 0.107534 0
M  V30 2827 H 265.139 -1.81489 0.942438 0
M  V30 2828 H 263.294 -3.84278 -0.490858 0
M  V30 2829 H 263.708 -5.06743 1.35322 0
M  V30 2830 H 265.182 -5.51194 -0.298196 0
M  V30 2831 H 265.659 -4.1799 -1.34838 0
M  V30 2832 H 266.265 -4.24074 0.322716 0
M  V30 2833 N 264.58 -0.43555 -1.51462 0
M  V30 2834 C 265.51 0.367376 -2.30592 0
M  V30 2835 C 266.491 1.02263 -1.35928 0
M  V30 2836 O 267.676 1.02661 -1.64847 0
M  V30 2837 C 264.806 1.46983 -3.14664 0
M  V30 2838 C 263.76 0.938161 -4.17591 0
M  V30 2839 C 263.086 2.13622 -4.90173 0
M  V30 2840 C 264.386 -0.0261621 -5.22293 0
M  V30 2841 H 266.08 -0.292969 -2.97963 0
M  V30 2842 H 263.626 -0.14234 -1.43295 0
M  V30 2843 H 265.579 2.03873 -3.688 0
M  V30 2844 H 264.303 2.15843 -2.4511 0
M  V30 2845 H 262.962 0.391481 -3.64504 0
M  V30 2846 H 262.61 2.81098 -4.17124 0
M  V30 2847 H 262.31 1.78688 -5.59772 0
M  V30 2848 H 263.834 2.7107 -5.47132 0
M  V30 2849 H 265.248 0.452384 -5.71512 0
M  V30 2850 H 263.645 -0.287992 -5.99409 0
M  V30 2851 H 264.715 -0.963391 -4.75233 0
M  V30 2852 N 266.058 1.56714 -0.166846 0
M  V30 2853 C 267.286 2.0112 0.485644 0
M  V30 2854 C 267.701 1.04705 1.57106 0
M  V30 2855 O 267.058 0.0471923 1.82439 0
M  V30 2856 C 267.109 3.45361 1.06808 0
M  V30 2857 O 266.83 4.38092 0.0259995 0
M  V30 2858 C 268.331 4.05145 1.79924 0
M  V30 2859 H 265.551 0.65931 0.124704 0
M  V30 2860 H 268.095 2.02746 -0.267262 0
M  V30 2861 H 266.25 3.44524 1.7715 0
M  V30 2862 H 266.664 5.22519 0.455398 0
M  V30 2863 H 268.138 5.08009 2.15942 0
M  V30 2864 H 268.615 3.46982 2.69258 0
M  V30 2865 H 269.221 4.09672 1.14234 0
M  V30 2866 N 267.536 -0.106894 1.57237 0
M  V30 2867 C 268.952 -0.46078 1.52804 0
M  V30 2868 C 269.152 -1.81184 0.881746 0
M  V30 2869 O 268.208 -2.48102 0.469224 0
M  V30 2870 C 269.521 -0.434127 2.9755 0
M  V30 2871 C 271.069 -0.516821 3.08704 0
M  V30 2872 C 271.544 -0.520436 4.55033 0
M  V30 2873 N 273.035 -0.58153 4.59535 0
M  V30 2874 C 273.77 -0.605973 5.70189 0
M  V30 2875 N 273.266 -0.587331 6.90306 0
M  V30 2876 N 275.059 -0.649895 5.5833 0
M  V30 2877 H 267.21 0.778203 1.9763 0
M  V30 2878 H 269.473 0.288403 0.903066 0
M  V30 2879 H 269.179 0.491197 3.48253 0
M  V30 2880 H 269.053 -1.25748 3.55622 0
M  V30 2881 H 271.44 -1.43256 2.57995 0
M  V30 2882 H 271.521 0.334449 2.53604 0
M  V30 2883 H 271.165 0.391313 5.0639 0
M  V30 2884 H 271.095 -1.38876 5.07958 0
M  V30 2885 H 273.586 -0.60161 3.73081 0
M  V30 2886 H 273.899 -0.60894 7.70397 0
M  V30 2887 H 272.244 -0.554564 6.92784 0
M  V30 2888 H 275.435 -0.661907 4.63397 0
M  V30 2889 H 275.608 -0.665476 6.44574 0
M  V30 2890 N 269.014 -1.53014 -0.377408 0
M  V30 2891 C 270.244 -1.72265 -1.14054 0
M  V30 2892 C 270.652 -0.44601 -1.83868 0
M  V30 2893 O 269.995 0.590095 -1.73964 0
M  V30 2894 C 270.057 -2.82492 -2.22348 0
M  V30 2895 C 269.721 -4.23233 -1.72402 0
M  V30 2896 C 270.718 -5.05992 -1.19448 0
M  V30 2897 C 268.403 -4.696 -1.78273 0
M  V30 2898 C 270.397 -6.33203 -0.730268 0
M  V30 2899 C 268.084 -5.96792 -1.31464 0
M  V30 2900 C 269.082 -6.78424 -0.789297 0
M  V30 2901 O 268.77 -8.0323 -0.328077 0
M  V30 2902 H 268.502 -0.579873 -0.347453 0
M  V30 2903 H 271.056 -2.00502 -0.445882 0
M  V30 2904 H 269.286 -2.49702 -2.95272 0
M  V30 2905 H 270.975 -2.90034 -2.83963 0
M  V30 2906 H 271.741 -4.71349 -1.14259 0
M  V30 2907 H 267.62 -4.06142 -2.18106 0
M  V30 2908 H 271.164 -6.96868 -0.319542 0
M  V30 2909 H 267.061 -6.30937 -1.36342 0
M  V30 2910 H 267.829 -8.1727 -0.448493 0
M  V30 2911 N 270.492 0.636531 -1.44174 0
M  V30 2912 C 271.722 1.42146 -1.49927 0
M  V30 2913 C 272.13 1.88812 -0.121063 0
M  V30 2914 O 271.473 1.61126 0.882267 0
M  V30 2915 C 271.535 2.67883 -2.39748 0
M  V30 2916 C 271.199 2.43048 -3.8701 0
M  V30 2917 C 272.196 2.05216 -4.77684 0
M  V30 2918 C 269.881 2.56856 -4.3166 0
M  V30 2919 C 271.875 1.81512 -6.11009 0
M  V30 2920 C 269.562 2.32766 -5.65034 0
M  V30 2921 C 270.56 1.95152 -6.54526 0
M  V30 2922 O 270.248 1.71326 -7.85431 0
M  V30 2923 H 269.98 0.442567 -0.51099 0
M  V30 2924 H 272.534 0.786158 -1.8976 0
M  V30 2925 H 270.764 3.34032 -1.94832 0
M  V30 2926 H 272.453 3.29874 -2.36513 0
M  V30 2927 H 273.219 1.94111 -4.44462 0
M  V30 2928 H 269.098 2.85104 -3.62266 0
M  V30 2929 H 272.642 1.52077 -6.80822 0
M  V30 2930 H 268.539 2.43479 -5.97819 0
M  V30 2931 H 269.307 1.85616 -7.97176 0
M  V30 2932 N 271.97 1.30982 0.876444 0
M  V30 2933 C 273.195 1.23373 1.66715 0
M  V30 2934 C 273.62 -0.19885 1.87046 0
M  V30 2935 O 272.978 -1.1427 1.40756 0
M  V30 2936 C 273.026 1.97644 3.01611 0
M  V30 2937 O 272.13 1.30935 3.91062 0
M  V30 2938 H 271.471 0.426279 0.509099 0
M  V30 2939 H 274.001 1.72944 1.09323 0
M  V30 2940 H 274.011 2.06992 3.51594 0
M  V30 2941 H 272.686 3.01829 2.86133 0
M  V30 2942 H 271.263 1.29996 3.49507 0
M  V30 2943 N 273.449 -1.08991 1.13837 0
M  V30 2944 C 274.412 -2.13925 0.822715 0
M  V30 2945 C 275.412 -1.599 -0.1699 0
M  V30 2946 O 276.602 -1.74104 0.0577251 0
M  V30 2947 C 273.734 -3.40155 0.225318 0
M  V30 2948 H 274.927 -2.43358 1.75262 0
M  V30 2949 H 272.48 -1.24603 0.943594 0
M  V30 2950 H 273.215 -3.16352 -0.713594 0
M  V30 2951 H 273 -3.80661 0.940193 0
M  V30 2952 H 274.49 -4.17594 0.0214784 0
M  V30 2953 N 274.927 -0.932562 -1.27047 0
M  V30 2954 C 275.877 -0.406392 -2.24349 0
M  V30 2955 C 276.861 0.492066 -1.53191 0
M  V30 2956 O 278.053 0.328717 -1.73921 0
M  V30 2957 C 275.182 0.335214 -3.41659 0
M  V30 2958 C 274.268 -0.58004 -4.20115 0
M  V30 2959 N 274.659 -1.70203 -4.76303 0
M  V30 2960 C 272.957 -0.383974 -4.44344 0
M  V30 2961 C 273.658 -2.27167 -5.35509 0
M  V30 2962 N 272.634 -1.56068 -5.20715 0
M  V30 2963 H 276.436 -1.26299 -2.65378 0
M  V30 2964 H 273.95 -0.787408 -1.42034 0
M  V30 2965 H 275.947 0.729142 -4.10474 0
M  V30 2966 H 274.607 1.18868 -3.0216 0
M  V30 2967 H 275.618 -2.08433 -4.74106 0
M  V30 2968 H 272.295 0.428436 -4.15296 0
M  V30 2969 H 273.685 -3.21654 -5.89905 0
M  V30 2970 N 276.405 1.4127 -0.698611 0
M  V30 2971 C 277.633 2.05503 -0.239992 0
M  V30 2972 C 278.048 1.52584 1.11191 0
M  V30 2973 O 277.405 0.675323 1.69545 0
M  V30 2974 C 277.456 3.60987 -0.192429 0
M  V30 2975 O 277.177 4.1195 -1.49094 0
M  V30 2976 C 278.678 4.42371 0.28681 0
M  V30 2977 H 275.898 0.661748 -0.111045 0
M  V30 2978 H 278.442 1.80987 -0.95205 0
M  V30 2979 H 276.597 3.84533 0.470472 0
M  V30 2980 H 277.011 5.06018 -1.38007 0
M  V30 2981 H 278.485 5.51344 0.26896 0
M  V30 2982 H 278.962 4.18699 1.32619 0
M  V30 2983 H 279.568 4.23897 -0.345201 0
M  V30 2984 N 277.883 0.443576 1.51229 0
M  V30 2985 C 279.13 -0.120796 2.02139 0
M  V30 2986 C 279.458 -1.42166 1.32736 0
M  V30 2987 O 278.713 -1.90849 0.43301 0
M  V30 2988 C 279.012 -0.380579 3.55368 0
M  V30 2989 C 278.678 0.83523 4.43097 0
M  V30 2990 C 277.34 1.16864 4.66794 0
M  V30 2991 C 279.692 1.64601 4.94526 0
M  V30 2992 C 277.02 2.31339 5.39165 0
M  V30 2993 C 279.372 2.78181 5.68153 0
M  V30 2994 C 278.036 3.11969 5.90112 0
M  V30 2995 H 277.306 -0.0442023 0.73968 0
M  V30 2996 H 279.953 0.592046 1.82118 0
M  V30 2997 H 278.258 -1.17538 3.73754 0
M  V30 2998 H 279.955 -0.830777 3.923 0
M  V30 2999 H 276.545 0.565437 4.24854 0
M  V30 3000 H 280.729 1.40163 4.76097 0
M  V30 3001 H 275.985 2.57823 5.5438 0
M  V30 3002 H 280.159 3.41371 6.06992 0
M  V30 3003 H 277.786 4.00784 6.45969 0
M  V30 3004 N 279.361 -1.56624 0.175154 0
M  V30 3005 C 280.607 -1.9729 -0.469506 0
M  V30 3006 C 280.94 -1.06128 -1.62636 0
M  V30 3007 O 280.215 -0.109183 -1.94193 0
M  V30 3008 C 280.498 -3.47375 -0.948804 0
M  V30 3009 C 280.351 -4.49317 0.208491 0
M  V30 3010 C 281.67 -4.00652 -1.82116 0
M  V30 3011 H 278.789 -0.717317 -0.16919 0
M  V30 3012 H 281.431 -1.88184 0.262062 0
M  V30 3013 H 279.581 -3.55267 -1.57219 0
M  V30 3014 H 281.253 -4.53482 0.845682 0
M  V30 3015 H 279.496 -4.25121 0.863395 0
M  V30 3016 H 280.167 -5.51741 -0.169059 0
M  V30 3017 H 282.643 -3.95416 -1.2956 0
M  V30 3018 H 281.519 -5.06075 -2.12554 0
M  V30 3019 H 281.78 -3.44699 -2.7683 0
M  V30 3020 N 280.839 0.0985539 -1.57292 0
M  V30 3021 C 281.769 1.12064 -2.04851 0
M  V30 3022 C 282.75 1.41981 -0.936767 0
M  V30 3023 O 283.935 1.52071 -1.20781 0
M  V30 3024 C 281.065 2.44144 -2.47004 0
M  V30 3025 C 280.019 2.28643 -3.6181 0
M  V30 3026 C 279.345 3.65869 -3.89929 0
M  V30 3027 C 280.645 1.72986 -4.92822 0
M  V30 3028 H 282.339 0.724979 -2.9049 0
M  V30 3029 H 279.885 0.34729 -1.39749 0
M  V30 3030 H 281.838 3.15914 -2.78884 0
M  V30 3031 H 280.562 2.85639 -1.5836 0
M  V30 3032 H 279.221 1.59318 -3.30172 0
M  V30 3033 H 278.869 4.04885 -2.98458 0
M  V30 3034 H 278.569 3.56344 -4.67218 0
M  V30 3035 H 280.093 4.39112 -4.2428 0
M  V30 3036 H 281.507 2.34593 -5.23105 0
M  V30 3037 H 279.904 1.74229 -5.74251 0
M  V30 3038 H 280.974 0.689007 -4.7998 0
M  V30 3039 N 282.317 1.53212 0.369288 0
M  V30 3040 C 283.728 1.60943 0.946276 0
M  V30 3041 C 284.079 0.47452 1.90375 0
M  V30 3042 O 283.204 -0.399597 2.12679 0
M  V30 3043 C 283.799 2.91715 1.72302 0
M  V30 3044 C 282.358 3.01792 2.24941 0
M  V30 3045 C 281.505 2.56211 1.06072 0
M  V30 3046 H 284.456 1.58007 0.148198 0
M  V30 3047 H 284.477 2.79309 2.58393 0
M  V30 3048 H 283.989 3.74295 1.0259 0
M  V30 3049 H 282.09 2.23791 2.97906 0
M  V30 3050 H 282.203 4.06803 2.53077 0
M  V30 3051 H 280.567 2.10998 1.4266 0
M  V30 3052 H 281.35 3.41206 0.378639 0
M  V30 3053 N 283.795 -0.628877 1.44509 0
M  V30 3054 C 285.041 -1.38863 1.48623 0
M  V30 3055 C 285.396 -1.92038 0.117933 0
M  V30 3056 O 284.689 -1.70853 -0.86716 0
M  V30 3057 C 284.883 -2.56995 2.48371 0
M  V30 3058 C 284.712 -2.15385 3.94765 0
M  V30 3059 C 283.482 -2.02558 4.62924 0
M  V30 3060 C 285.68 -1.74158 4.83915 0
M  V30 3061 N 283.662 -1.54534 5.94132 0
M  V30 3062 C 285.033 -1.37396 6.04584 0
M  V30 3063 C 287.088 -1.61559 4.7096 0
M  V30 3064 C 285.791 -0.892948 7.13736 0
M  V30 3065 C 287.817 -1.14862 5.80139 0
M  V30 3066 C 287.179 -0.790516 6.9995 0
M  V30 3067 H 283.278 -0.502858 0.59888 0
M  V30 3068 H 285.862 -0.72121 1.8085 0
M  V30 3069 H 284.033 -3.21362 2.1813 0
M  V30 3070 H 285.765 -3.23801 2.42766 0
M  V30 3071 H 282.52 -2.23082 4.1777 0
M  V30 3072 H 282.944 -1.32815 6.63844 0
M  V30 3073 H 287.586 -1.87876 3.78764 0
M  V30 3074 H 285.304 -0.617291 8.05739 0
M  V30 3075 H 288.89 -1.05569 5.72142 0
M  V30 3076 H 287.77 -0.434713 7.82994 0
M  V30 3077 N 285.273 -1.31445 -0.869486 0
M  V30 3078 C 286.203 -1.21727 -1.99261 0
M  V30 3079 C 287.184 -0.104359 -1.6978 0
M  V30 3080 O 288.369 -0.289038 -1.92037 0
M  V30 3081 C 285.499 -0.924317 -3.34774 0
M  V30 3082 C 284.453 -1.99685 -3.78563 0
M  V30 3083 C 283.779 -1.55658 -5.11541 0
M  V30 3084 C 285.079 -3.41003 -3.95619 0
M  V30 3085 H 286.773 -2.1569 -2.07649 0
M  V30 3086 H 284.319 -1.03839 -0.997675 0
M  V30 3087 H 286.272 -0.842934 -4.12883 0
M  V30 3088 H 284.996 0.0509793 -3.2656 0
M  V30 3089 H 283.655 -2.06813 -3.02694 0
M  V30 3090 H 283.303 -0.569132 -4.9977 0
M  V30 3091 H 283.003 -2.27409 -5.41811 0
M  V30 3092 H 284.527 -1.48928 -5.92159 0
M  V30 3093 H 285.941 -3.36547 -4.64122 0
M  V30 3094 H 284.338 -4.10975 -4.37286 0
M  V30 3095 H 285.408 -3.81754 -2.98985 0
M  V30 3096 N 286.751 1.08385 -1.14413 0
M  V30 3097 C 288 1.80153 -0.907076 0
M  V30 3098 C 288.313 1.87176 0.567851 0
M  V30 3099 O 289.519 2.55359 0.922172 0
M  V30 3100 C 287.975 3.23687 -1.57336 0
M  V30 3101 C 287.583 3.24897 -3.08457 0
M  V30 3102 C 289.327 4.00136 -1.41744 0
M  V30 3103 C 287.234 4.6302 -3.67921 0
M  V30 3104 H 286.164 0.675139 -0.335714 0
M  V30 3105 H 288.815 1.21733 -1.37307 0
M  V30 3106 H 287.197 3.82234 -1.03505 0
M  V30 3107 H 288.371 2.76055 -3.68958 0
M  V30 3108 H 286.686 2.61943 -3.2369 0
M  V30 3109 H 289.283 5.02201 -1.83572 0
M  V30 3110 H 289.626 4.14709 -0.363576 0
M  V30 3111 H 290.159 3.48058 -1.92614 0
M  V30 3112 H 286.898 4.5365 -4.73161 0
M  V30 3113 H 286.418 5.12143 -3.12201 0
M  V30 3114 H 288.097 5.31994 -3.68227 0
M  V30 3115 N 288.23 0.939286 1.26551 0
M  V30 3116 C 289.193 0.451987 2.24699 0
M  V30 3117 C 290.193 -0.435869 1.5478 0
M  V30 3118 O 291.383 -0.235314 1.72603 0
M  V30 3119 C 288.515 -0.348801 3.39111 0
M  V30 3120 H 289.708 1.3193 2.69322 0
M  V30 3121 H 287.261 0.721072 1.38673 0
M  V30 3122 H 287.996 -1.23444 2.99887 0
M  V30 3123 H 287.781 0.287945 3.91041 0
M  V30 3124 H 289.271 -0.679726 4.12031 0
M  V30 3125 N 289.708 -1.40897 0.706093 0
M  V30 3126 C 290.954 -2.01352 0.241889 0
M  V30 3127 C 291.287 -1.55832 -1.15888 0
M  V30 3128 O 290.562 -0.774145 -1.7843 0
M  V30 3129 C 290.845 -3.58752 0.311311 0
M  V30 3130 C 290.698 -4.1437 1.74978 0
M  V30 3131 C 292.017 -4.38914 -0.322922 0
M  V30 3132 H 289.136 -0.731562 0.0893687 0
M  V30 3133 H 291.778 -1.67504 0.896802 0
M  V30 3134 H 289.928 -3.87718 -0.246302 0
M  V30 3135 H 291.6 -3.96239 2.36205 0
M  V30 3136 H 289.843 -3.69016 2.28057 0
M  V30 3137 H 290.514 -5.23532 1.74981 0
M  V30 3138 H 292.99 -4.15822 0.152089 0
M  V30 3139 H 291.866 -5.48358 -0.243855 0
M  V30 3140 H 292.127 -4.19176 -1.40513 0
M  V30 3141 N 291.186 -0.45159 -1.50991 0
M  V30 3142 C 292.433 0.110074 -2.02201 0
M  V30 3143 C 292.761 1.4146 -1.33489 0
M  V30 3144 O 292.016 1.90617 -0.443125 0
M  V30 3145 C 292.315 0.361728 -3.55565 0
M  V30 3146 C 291.981 -0.858717 -4.42648 0
M  V30 3147 C 290.643 -1.19338 -4.66167 0
M  V30 3148 C 292.995 -1.67221 -4.93646 0
M  V30 3149 C 290.323 -2.34195 -5.37931 0
M  V30 3150 C 292.675 -2.8119 -5.6667 0
M  V30 3151 C 291.339 -3.15094 -5.88449 0
M  V30 3152 H 290.609 0.040279 -0.739904 0
M  V30 3153 H 293.256 -0.601696 -1.81802 0
M  V30 3154 H 291.561 1.15554 -3.74372 0
M  V30 3155 H 293.258 0.80996 -3.92735 0
M  V30 3156 H 289.848 -0.58796 -4.24548 0
M  V30 3157 H 294.032 -1.42686 -4.75347 0
M  V30 3158 H 289.288 -2.6076 -5.53005 0
M  V30 3159 H 293.462 -3.44585 -6.05173 0
M  V30 3160 H 291.089 -4.04204 -6.43835 0
M  V30 3161 N 292.664 1.56529 -0.183458 0
M  V30 3162 C 293.597 2.14417 0.781052 0
M  V30 3163 C 294.575 1.07761 1.21763 0
M  V30 3164 O 295.759 1.35807 1.30724 0
M  V30 3165 C 292.886 2.69361 2.05335 0
M  V30 3166 C 291.932 3.885 1.75982 0
M  V30 3167 S 292.765 5.27568 0.918256 0
M  V30 3168 C 293.921 5.85926 2.20095 0
M  V30 3169 H 294.154 2.95893 0.2889 0
M  V30 3170 H 291.687 1.54368 0.0313844 0
M  V30 3171 H 293.645 3.01662 2.78406 0
M  V30 3172 H 292.306 1.87949 2.51663 0
M  V30 3173 H 291.499 4.25314 2.70415 0
M  V30 3174 H 291.101 3.57149 1.10999 0
M  V30 3175 H 293.393 5.99579 3.15453 0
M  V30 3176 H 294.336 6.82761 1.87731 0
M  V30 3177 H 294.744 5.14438 2.32409 0
M  V30 3178 N 294.142 -0.090211 1.57342 0
M  V30 3179 C 295.072 -1.10976 2.05443 0
M  V30 3180 C 296.053 -1.41482 0.944284 0
M  V30 3181 O 297.238 -1.51428 1.21586 0
M  V30 3182 C 294.368 -2.42831 2.48295 0
M  V30 3183 C 293.322 -2.26721 3.63018 0
M  V30 3184 C 292.648 -3.63796 3.91863 0
M  V30 3185 C 293.948 -1.7037 4.93732 0
M  V30 3186 H 295.642 -0.709564 2.9087 0
M  V30 3187 H 293.188 -0.339874 1.39932 0
M  V30 3188 H 295.141 -3.14431 2.80555 0
M  V30 3189 H 293.865 -2.84795 1.59873 0
M  V30 3190 H 292.524 -1.57565 3.31012 0
M  V30 3191 H 292.172 -4.03297 3.00601 0
M  V30 3192 H 291.872 -3.53861 4.69101 0
M  V30 3193 H 293.396 -4.36855 4.26603 0
M  V30 3194 H 294.81 -2.31816 5.24342 0
M  V30 3195 H 293.207 -1.71181 5.75167 0
M  V30 3196 H 294.277 -0.663542 4.80339 0
M  V30 3197 N 295.62 -1.53406 -0.361157 0
M  V30 3198 C 296.55 -1.83136 -1.44857 0
M  V30 3199 C 297.531 -0.685174 -1.5569 0
M  V30 3200 O 298.716 -0.93544 -1.70186 0
M  V30 3201 C 295.846 -2.02522 -2.82138 0
M  V30 3202 C 294.8 -3.18302 -2.86126 0
M  V30 3203 C 294.126 -3.22989 -4.26125 0
M  V30 3204 C 295.426 -4.56796 -2.53248 0
M  V30 3205 H 297.12 -2.74201 -1.20226 0
M  V30 3206 H 294.666 -1.31938 -0.576922 0
M  V30 3207 H 296.619 -2.21904 -3.58241 0
M  V30 3208 H 295.343 -1.08172 -3.08166 0
M  V30 3209 H 294.002 -2.98747 -2.12475 0
M  V30 3210 H 293.65 -2.26267 -4.49235 0
M  V30 3211 H 293.35 -4.00781 -4.29708 0
M  V30 3212 H 294.874 -3.44559 -5.04094 0
M  V30 3213 H 296.288 -4.7631 -3.19064 0
M  V30 3214 H 294.685 -5.36862 -2.68141 0
M  V30 3215 H 295.755 -4.61606 -1.48484 0
M  V30 3216 N 297.098 0.621204 -1.44841 0
M  V30 3217 C 298.048 1.72663 -1.48901 0
M  V30 3218 C 299.032 1.56964 -0.353702 0
M  V30 3219 O 300.224 1.66532 -0.599669 0
M  V30 3220 C 297.353 3.11381 -1.44557 0
M  V30 3221 C 296.439 3.32514 -2.6324 0
M  V30 3222 N 296.83 3.23969 -3.8843 0
M  V30 3223 C 295.128 3.63343 -2.58647 0
M  V30 3224 C 295.829 3.46062 -4.67564 0
M  V30 3225 N 294.805 3.69407 -3.98797 0
M  V30 3226 H 298.607 1.64529 -2.43531 0
M  V30 3227 H 296.121 0.82401 -1.39942 0
M  V30 3228 H 298.118 3.90667 -1.4555 0
M  V30 3229 H 296.778 3.20674 -0.509731 0
M  V30 3230 H 297.789 3.02669 -4.20252 0
M  V30 3231 H 294.466 3.79556 -1.73906 0
M  V30 3232 H 295.856 3.44963 -5.76585 0
M  V30 3233 N 298.576 1.31904 0.862503 0
M  V30 3234 C 299.823 1.22017 1.61611 0
M  V30 3235 C 300.151 -0.21991 1.93253 0
M  V30 3236 O 299.406 -1.17076 1.56817 0
M  V30 3237 C 299.705 2.01713 2.95037 0
M  V30 3238 C 299.371 3.51145 2.82857 0
M  V30 3239 C 298.033 3.91889 2.79243 0
M  V30 3240 C 300.385 4.46204 2.69353 0
M  V30 3241 C 297.713 5.25947 2.59993 0
M  V30 3242 C 300.065 5.80397 2.5164 0
M  V30 3243 C 298.729 6.20352 2.46413 0
M  V30 3244 H 297.999 0.44649 0.591378 0
M  V30 3245 H 300.646 1.63248 1.00111 0
M  V30 3246 H 298.951 1.53185 3.60613 0
M  V30 3247 H 300.648 1.91437 3.52353 0
M  V30 3248 H 297.238 3.1878 2.86491 0
M  V30 3249 H 301.422 4.15652 2.71196 0
M  V30 3250 H 296.678 5.5597 2.54376 0
M  V30 3251 H 300.852 6.53676 2.40169 0
M  V30 3252 H 298.479 7.24172 2.31256 0
M  V30 3253 N 300.054 -1.07777 1.14986 0
M  V30 3254 C 300.984 -2.16865 0.865557 0
M  V30 3255 C 301.965 -1.69123 -0.182083 0
M  V30 3256 O 303.15 -1.94164 -0.0373815 0
M  V30 3257 C 300.28 -3.45539 0.349313 0
M  V30 3258 C 299.234 -4.06708 1.33313 0
M  V30 3259 C 298.56 -5.30411 0.675918 0
M  V30 3260 C 299.86 -4.47241 2.69764 0
M  V30 3261 H 301.554 -2.40905 1.77778 0
M  V30 3262 H 299.1 -1.15781 0.856203 0
M  V30 3263 H 301.053 -4.21174 0.137983 0
M  V30 3264 H 299.777 -3.21072 -0.598362 0
M  V30 3265 H 298.436 -3.33112 1.53075 0
M  V30 3266 H 298.084 -5.02232 -0.277767 0
M  V30 3267 H 297.784 -5.72293 1.33244 0
M  V30 3268 H 299.308 -6.08755 0.474262 0
M  V30 3269 H 300.722 -5.14025 2.53873 0
M  V30 3270 H 299.119 -5.00062 3.3175 0
M  V30 3271 H 300.189 -3.58818 3.26156 0
M  V30 3272 N 301.532 -0.945985 -1.26051 0
M  V30 3273 C 302.465 -0.403619 -2.24602 0
M  V30 3274 C 303.443 0.510241 -1.54387 0
M  V30 3275 O 304.627 0.446593 -1.83133 0
M  V30 3276 C 301.754 0.419564 -3.36091 0
M  V30 3277 C 300.8 -0.433454 -4.24292 0
M  V30 3278 S 301.633 -1.86037 -5.02146 0
M  V30 3279 C 302.789 -1.04538 -6.17108 0
M  V30 3280 H 303.022 -1.23883 -2.7026 0
M  V30 3281 H 300.555 -0.749438 -1.34992 0
M  V30 3282 H 302.513 0.888595 -4.00767 0
M  V30 3283 H 301.174 1.22951 -2.89036 0
M  V30 3284 H 300.367 0.197486 -5.03613 0
M  V30 3285 H 299.969 -0.837357 -3.64506 0
M  V30 3286 H 302.261 -0.289923 -6.76879 0
M  V30 3287 H 303.204 -1.81222 -6.84518 0
M  V30 3288 H 303.612 -0.579319 -5.61519 0
M  V30 3289 N 303.011 1.40521 -0.713556 0
M  V30 3290 C 304.26 2.00155 -0.249192 0
M  V30 3291 C 304.573 1.57224 1.16362 0
M  V30 3292 O 305.779 2.09542 1.72639 0
M  V30 3293 C 304.235 3.5773 -0.3946 0
M  V30 3294 C 303.843 4.09635 -1.81392 0
M  V30 3295 C 305.587 4.24499 0.00907364 0
M  V30 3296 C 303.494 5.59707 -1.91003 0
M  V30 3297 H 302.424 0.74868 -0.0894114 0
M  V30 3298 H 305.075 1.60784 -0.884352 0
M  V30 3299 H 303.457 3.94792 0.30911 0
M  V30 3300 H 304.631 3.83955 -2.54785 0
M  V30 3301 H 302.946 3.55456 -2.16888 0
M  V30 3302 H 305.543 5.34683 -0.0420404 0
M  V30 3303 H 305.886 4.02824 1.05065 0
M  V30 3304 H 306.419 3.92536 -0.645007 0
M  V30 3305 H 303.158 5.86234 -2.93275 0
M  V30 3306 H 302.678 5.87258 -1.22019 0
M  V30 3307 H 304.357 6.24776 -1.6812 0
M  V30 3308 N 304.489 0.459591 1.5075 0
M  V30 3309 C 305.905 0.113092 1.59199 0
M  V30 3310 C 306.105 -1.37951 1.46874 0
M  V30 3311 O 305.161 -2.15168 1.32132 0
M  V30 3312 C 306.474 0.653043 2.93523 0
M  V30 3313 C 308.022 0.615449 3.0689 0
M  V30 3314 C 308.497 1.13275 4.43771 0
M  V30 3315 N 309.988 1.09167 4.50152 0
M  V30 3316 C 310.723 1.46256 5.54434 0
M  V30 3317 N 310.219 1.90739 6.66026 0
M  V30 3318 N 312.012 1.37932 5.44914 0
M  V30 3319 H 304.163 1.43049 1.57005 0
M  V30 3320 H 306.426 0.590861 0.741341 0
M  V30 3321 H 306.132 1.69822 3.07983 0
M  V30 3322 H 306.006 0.0902132 3.77092 0
M  V30 3323 H 308.393 -0.420793 2.92084 0
M  V30 3324 H 308.474 1.21495 2.25106 0
M  V30 3325 H 308.118 2.16757 4.59324 0
M  V30 3326 H 308.048 0.509576 5.24129 0
M  V30 3327 H 310.539 0.76528 3.7007 0
M  V30 3328 H 310.852 2.17218 7.41644 0
M  V30 3329 H 309.197 1.94683 6.67176 0
M  V30 3330 H 312.388 1.0303 4.56621 0
M  V30 3331 H 312.561 1.67164 6.26067 0
M  V30 3332 N 305.967 -1.56429 0.191757 0
M  V30 3333 C 306.914 -2.18936 -0.730454 0
M  V30 3334 C 307.884 -1.13557 -1.21219 0
M  V30 3335 O 309.069 -1.41794 -1.27668 0
M  V30 3336 C 306.209 -2.85013 -1.9458 0
M  V30 3337 C 305.322 -4.04909 -1.50574 0
M  V30 3338 C 304.457 -4.58853 -2.67634 0
M  V30 3339 C 303.496 -5.71114 -2.20217 0
M  V30 3340 N 302.633 -6.19478 -3.30442 0
M  V30 3341 H 307.473 -2.97389 -0.190664 0
M  V30 3342 H 305.01 -1.46869 -0.0823694 0
M  V30 3343 H 306.968 -3.21492 -2.65893 0
M  V30 3344 H 305.598 -2.09129 -2.45896 0
M  V30 3345 H 304.65 -3.74115 -0.688605 0
M  V30 3346 H 305.962 -4.86113 -1.11784 0
M  V30 3347 H 305.116 -4.97619 -3.47074 0
M  V30 3348 H 303.855 -3.76749 -3.09696 0
M  V30 3349 H 302.86 -5.31879 -1.3923 0
M  V30 3350 H 304.085 -6.55033 -1.79189 0
M  V30 3351 H 302.031 -5.40297 -3.72041 0
M  V30 3352 H 301.948 -6.95725 -2.9581 0
M  V30 3353 H 303.216 -6.62898 -4.10106 0
M  V30 3354 N 307.445 0.0818655 -1.57387 0
M  V30 3355 C 308.377 1.12484 -1.997 0
M  V30 3356 C 309.39 1.35564 -0.90146 0
M  V30 3357 O 310.579 1.33982 -1.17945 0
M  V30 3358 C 307.679 2.47778 -2.31213 0
M  V30 3359 C 306.852 2.44793 -3.62485 0
M  V30 3360 C 305.911 3.62117 -3.81782 0
M  V30 3361 O 304.937 3.44005 -4.53486 0
M  V30 3362 N 306.139 4.82094 -3.23367 0
M  V30 3363 H 308.904 0.764585 -2.89783 0
M  V30 3364 H 306.465 0.270664 -1.59621 0
M  V30 3365 H 308.457 3.24891 -2.41304 0
M  V30 3366 H 307.027 2.75843 -1.4707 0
M  V30 3367 H 306.247 1.53134 -3.6324 0
M  V30 3368 H 307.535 2.39889 -4.48699 0
M  V30 3369 H 306.933 4.99713 -2.65148 0
M  V30 3370 H 305.49 5.56753 -3.38923 0
M  V30 3371 N 308.923 1.53595 0.353017 0
M  V30 3372 C 310.171 1.70049 1.09215 0
M  V30 3373 C 310.492 0.461406 1.89463 0
M  V30 3374 O 309.762 -0.524633 1.88744 0
M  V30 3375 H 308.342 0.626912 0.40619 0
M  V30 3376 H 311.004 1.90822 0.396585 0
M  V30 3377 H 310.1 2.56718 1.77488 0
M  V30 3378 N 310.401 -0.613514 1.45168 0
M  V30 3379 C 311.65 -1.36874 1.4815 0
M  V30 3380 C 311.963 -1.952 0.124982 0
M  V30 3381 O 313.169 -2.71481 0.0324176 0
M  V30 3382 C 311.625 -2.47905 2.60904 0
M  V30 3383 C 311.233 -1.96016 4.02842 0
M  V30 3384 C 312.977 -3.24965 2.73126 0
M  V30 3385 C 310.884 -3.04494 5.06988 0
M  V30 3386 H 309.814 -0.514428 0.551253 0
M  V30 3387 H 312.465 -0.658182 1.7129 0
M  V30 3388 H 310.847 -3.21618 2.31037 0
M  V30 3389 H 312.021 -1.29051 4.4236 0
M  V30 3390 H 310.336 -1.31719 3.95018 0
M  V30 3391 H 312.933 -4.05865 3.48106 0
M  V30 3392 H 313.276 -3.75588 1.79553 0
M  V30 3393 H 313.809 -2.5835 3.0249 0
M  V30 3394 H 310.548 -2.58795 6.0225 0
M  V30 3395 H 310.068 -3.70044 4.72046 0
M  V30 3396 H 311.747 -3.68976 5.31475 0
M  V30 3397 N 311.879 -1.3236 -0.855495 0
M  V30 3398 C 313.104 -1.2601 -1.64731 0
M  V30 3399 C 313.529 0.169068 -1.87339 0
M  V30 3400 O 312.887 1.12016 -1.42556 0
M  V30 3401 C 312.935 -2.02417 -2.98429 0
M  V30 3402 O 312.039 -1.3714 -3.8893 0
M  V30 3403 H 311.38 -0.434325 -0.502253 0
M  V30 3404 H 313.91 -1.74661 -1.06558 0
M  V30 3405 H 313.92 -2.12559 -3.48257 0
M  V30 3406 H 312.595 -3.06343 -2.81295 0
M  V30 3407 H 311.172 -1.3554 -3.47395 0
M  V30 3408 N 313.357 1.07166 -1.15556 0
M  V30 3409 C 314.605 1.79443 -0.929764 0
M  V30 3410 C 314.926 1.87246 0.544414 0
M  V30 3411 O 314.196 1.37473 1.39564 0
M  V30 3412 H 312.776 0.664625 -0.341003 0
M  V30 3413 H 315.438 1.29499 -1.45657 0
M  V30 3414 H 314.534 2.81832 -1.34079 0
M  V30 3415 N 314.835 0.952656 1.25548 0
M  V30 3416 C 316.246 0.647392 1.75116 0
M  V30 3417 C 316.597 -0.837274 1.77438 0
M  V30 3418 O 315.722 -1.65525 1.39393 0
M  V30 3419 C 316.317 1.16845 3.18014 0
M  V30 3420 C 314.876 0.913382 3.6515 0
M  V30 3421 C 314.023 1.31265 2.44264 0
M  V30 3422 H 316.974 1.12968 1.11462 0
M  V30 3423 H 316.995 0.527606 3.76824 0
M  V30 3424 H 316.507 2.24902 3.16292 0
M  V30 3425 H 314.608 -0.152316 3.72289 0
M  V30 3426 H 314.721 1.54845 4.53387 0
M  V30 3427 H 313.085 0.731028 2.43984 0
M  V30 3428 H 313.868 2.40239 2.45234 0
M  V30 3429 N 316.313 -1.40141 0.720998 0
M  V30 3430 C 317.243 -2.33339 0.0867621 0
M  V30 3431 C 318.224 -1.53178 -0.739622 0
M  V30 3432 O 319.409 -1.81625 -0.687449 0
M  V30 3433 C 316.539 -3.37194 -0.831728 0
M  V30 3434 C 315.493 -4.27857 -0.110558 0
M  V30 3435 C 314.819 -5.22294 -1.14513 0
M  V30 3436 C 316.119 -5.11872 1.0385 0
M  V30 3437 H 317.813 -2.86626 0.865219 0
M  V30 3438 H 315.359 -1.37814 0.417516 0
M  V30 3439 H 317.312 -4.01335 -1.28485 0
M  V30 3440 H 316.036 -2.82314 -1.64214 0
M  V30 3441 H 314.695 -3.65176 0.322797 0
M  V30 3442 H 314.343 -4.63717 -1.94874 0
M  V30 3443 H 314.043 -5.83797 -0.667446 0
M  V30 3444 H 315.567 -5.89312 -1.59824 0
M  V30 3445 H 316.981 -5.69436 0.664482 0
M  V30 3446 H 315.378 -5.82445 1.4449 0
M  V30 3447 H 316.448 -4.4753 1.86668 0
M  V30 3448 O 317.83 -0.609464 -1.49559 0
M  V30 3449 H 318.521 -0.121877 -1.93316 0
M  V30 END ATOM
M  V30 BEGIN BOND
M  V30 END BOND
M  V30 END CTAB
M  END
$$$$
