drugbank_target|P30291 Wee1-like protein kinase (DB04608; DB07006; DB07226; DB07257; DB07265; DB08365; DB11740; DB12010)
 OpenBabel12092120303D

  0  0  0     0  0            999 V3000
M  V30 BEGIN CTAB
M  V30 COUNTS 9948 10057 0 0 0
M  V30 BEGIN ATOM
M  V30 1 H -0.908 1.98254 -0.117106 0
M  V30 2 N 0 1.576 0 0
M  V30 3 C 0.933 2.03868 1.02534 0
M  V30 4 C 1.911 0.928543 1.3348 0
M  V30 5 O 3.095 1.19667 1.45644 0
M  V30 6 C 0.222 2.43627 2.35294 0
M  V30 7 C -0.732 3.65373 2.2001 0
M  V30 8 S 0.101 5.13292 1.52614 0
M  V30 9 C 1.257 5.56322 2.86805 0
M  V30 10 H 1.49 2.90518 0.631377 0
M  V30 11 H -0.977 1.52953 0.210867 0
M  V30 12 H 0.981 2.67203 3.11629 0
M  V30 13 H -0.358 1.57376 2.7183 0
M  V30 14 H -1.165 3.90944 3.18086 0
M  V30 15 H -1.563 3.418 1.51819 0
M  V30 16 H 0.729 5.58782 3.83104 0
M  V30 17 H 1.672 6.56266 2.65933 0
M  V30 18 H 2.08 4.83886 2.90714 0
M  V30 19 N 1.4781 -0.272755 1.55222 0
M  V30 20 C 2.7031 -1.02683 1.80197 0
M  V30 21 C 3.1281 -1.79142 0.573551 0
M  V30 22 O 2.4861 -1.74917 -0.476849 0
M  V30 23 C 2.5341 -1.9609 3.02624 0
M  V30 24 O 1.6381 -3.04863 2.77727 0
M  V30 25 H 0.9791 -0.293557 0.595584 0
M  V30 26 H 3.5091 -0.30159 2.02365 0
M  V30 27 H 3.5191 -2.38039 3.31363 0
M  V30 28 H 2.1941 -1.39851 3.91682 0
M  V30 29 H 0.7711 -2.67228 2.60084 0
M  V30 30 N 2.9562 -1.48159 -0.537278 0
M  V30 31 C 4.2032 -1.55804 -1.29349 0
M  V30 32 C 4.5312 -0.228802 -1.9315 0
M  V30 33 O 3.7862 0.780242 -1.79473 0
M  V30 34 C 4.0852 -2.63956 -2.40961 0
M  V30 35 C 3.7512 -4.0662 -1.94861 0
M  V30 36 C 2.4132 -4.45452 -1.82006 0
M  V30 37 C 4.7652 -4.96055 -1.59933 0
M  V30 38 C 2.0932 -5.71531 -1.32547 0
M  V30 39 C 4.4452 -6.22617 -1.11939 0
M  V30 40 C 3.1092 -6.60312 -0.976951 0
M  V30 41 H 2.3792 -0.570129 -0.473322 0
M  V30 42 H 5.0262 -1.81845 -0.600372 0
M  V30 43 H 3.3312 -2.31747 -3.15912 0
M  V30 44 H 5.0282 -2.67089 -2.99107 0
M  V30 45 H 1.6182 -3.75949 -2.05815 0
M  V30 46 H 5.8022 -4.66738 -1.68728 0
M  V30 47 H 1.0582 -5.99468 -1.202 0
M  V30 48 H 5.2322 -6.91318 -0.839811 0
M  V30 49 H 2.8592 -7.57895 -0.591501 0
M  V30 50 N 4.4343 0.785586 -1.36625 0
M  V30 51 C 5.3643 1.91259 -1.33949 0
M  V30 52 C 6.3453 1.68795 -0.210325 0
M  V30 53 O 7.5303 1.89854 -0.408561 0
M  V30 54 C 4.6603 3.28339 -1.13186 0
M  V30 55 C 3.6143 3.65335 -2.22967 0
M  V30 56 C 2.9403 5.00806 -1.87342 0
M  V30 57 C 4.2403 3.7352 -3.65075 0
M  V30 58 H 5.9343 1.93755 -2.28253 0
M  V30 59 H 3.4803 0.930788 -1.09874 0
M  V30 60 H 5.4333 4.06804 -1.09948 0
M  V30 61 H 4.1573 3.2624 -0.153332 0
M  V30 62 H 2.8163 2.89169 -2.25337 0
M  V30 63 H 2.4643 4.95233 -0.880545 0
M  V30 64 H 2.1643 5.26529 -2.60846 0
M  V30 65 H 3.6883 5.81687 -1.85667 0
M  V30 66 H 5.1023 4.42168 -3.64911 0
M  V30 67 H 3.4993 4.10731 -4.37516 0
M  V30 68 H 4.5693 2.74527 -3.99703 0
M  V30 69 N 5.9124 1.20967 1.01018 0
M  V30 70 C 7.1374 1.0503 1.78839 0
M  V30 71 C 7.5624 -0.395752 1.8389 0
M  V30 72 O 6.9204 -1.28529 1.27867 0
M  V30 73 C 6.9684 1.64602 3.2084 0
M  V30 74 O 6.0724 0.887988 4.02726 0
M  V30 75 H 5.4134 0.369987 0.551367 0
M  V30 76 H 7.9434 1.60399 1.27018 0
M  V30 77 H 7.9534 1.68607 3.71532 0
M  V30 78 H 6.6284 2.69841 3.16479 0
M  V30 79 H 5.2054 0.922648 3.61305 0
M  V30 80 N 7.3905 -1.2043 1.01659 0
M  V30 81 C 8.8065 -1.41852 0.731442 0
M  V30 82 C 9.0065 -1.89358 -0.688898 0
M  V30 83 O 8.0625 -2.06247 -1.45666 0
M  V30 84 C 9.3755 -2.44019 1.75714 0
M  V30 85 C 10.9235 -2.57785 1.77527 0
M  V30 86 C 11.3985 -3.63194 2.79023 0
M  V30 87 N 12.8895 -3.70678 2.77763 0
M  V30 88 C 13.6245 -4.51897 3.52954 0
M  V30 89 N 13.1205 -5.36921 4.37821 0
M  V30 90 N 14.9135 -4.4643 3.41551 0
M  V30 91 H 7.0645 -0.879093 1.93354 0
M  V30 92 H 9.3275 -0.448425 0.835236 0
M  V30 93 H 9.0335 -2.1611 2.77469 0
M  V30 94 H 8.9075 -3.43007 1.56927 0
M  V30 95 H 11.2945 -2.85023 0.764569 0
M  V30 96 H 11.3755 -1.58992 2.00387 0
M  V30 97 H 11.0195 -3.36699 3.80258 0
M  V30 98 H 10.9495 -4.61609 2.53425 0
M  V30 99 H 13.4405 -3.09944 2.16201 0
M  V30 100 H 13.7535 -5.95981 4.91962 0
M  V30 101 H 12.0985 -5.36424 4.41899 0
M  V30 102 H 15.2895 -3.79042 2.74672 0
M  V30 103 H 15.4625 -5.09491 4.00404 0
M  V30 104 N 8.8686 -0.792821 -1.36206 0
M  V30 105 C 9.8006 -0.151469 -2.28699 0
M  V30 106 C 10.8136 0.641262 -1.49638 0
M  V30 107 O 12.0026 0.475885 -1.72039 0
M  V30 108 C 9.1026 0.808424 -3.29117 0
M  V30 109 C 8.2756 0.0650202 -4.37352 0
M  V30 110 C 7.3346 0.941358 -5.17711 0
M  V30 111 O 6.3606 0.397352 -5.67811 0
M  V30 112 N 7.5626 2.2652 -5.3448 0
M  V30 113 H 10.3276 -0.945982 -2.84379 0
M  V30 114 H 7.8886 -0.647032 -1.48409 0
M  V30 115 H 9.8806 1.3986 -3.79765 0
M  V30 116 H 8.4506 1.5038 -2.74052 0
M  V30 117 H 7.6706 -0.706255 -3.87822 0
M  V30 118 H 8.9586 -0.447847 -5.06825 0
M  V30 119 H 8.3566 2.73128 -4.95396 0
M  V30 120 H 6.9136 2.80493 -5.88359 0
M  V30 121 N 10.3467 1.47872 -0.545128 0
M  V30 122 C 11.2787 2.27869 0.246621 0
M  V30 123 C 12.2917 1.36282 0.890561 0
M  V30 124 O 13.4807 1.61207 0.766449 0
M  V30 125 C 10.5807 3.10159 1.36582 0
M  V30 126 C 9.7537 4.29627 0.820954 0
M  V30 127 C 8.8127 4.93607 1.82314 0
M  V30 128 O 7.8387 5.52366 1.37406 0
M  V30 129 N 9.0407 4.87211 3.15603 0
M  V30 130 H 11.8057 2.96459 -0.439539 0
M  V30 131 H 9.3667 1.57367 -0.380421 0
M  V30 132 H 11.3587 3.49829 2.03474 0
M  V30 133 H 9.9287 2.43891 1.9554 0
M  V30 134 H 9.1487 3.94192 -0.0244032 0
M  V30 135 H 10.4367 5.06928 0.436063 0
M  V30 136 H 9.8347 4.40651 3.54744 0
M  V30 137 H 8.3917 5.30937 3.78087 0
M  V30 138 N 11.8248 0.280983 1.55075 0
M  V30 139 C 13.2358 -0.215629 1.85451 0
M  V30 140 C 13.5868 -1.54991 1.203 0
M  V30 141 O 12.7118 -2.10699 0.493435 0
M  V30 142 C 13.3068 -0.398026 3.36454 0
M  V30 143 C 11.8658 -0.838866 3.66933 0
M  V30 144 C 11.0128 0.064458 2.77225 0
M  V30 145 H 13.9638 0.502601 1.50531 0
M  V30 146 H 13.9848 -1.23569 3.59876 0
M  V30 147 H 13.4968 0.573241 3.83843 0
M  V30 148 H 11.5978 -1.8214 3.25048 0
M  V30 149 H 11.7108 -0.672123 4.74362 0
M  V30 150 H 10.0748 -0.452863 2.50642 0
M  V30 151 H 10.8578 1.03172 3.2743 0
M  V30 152 N 13.3029 -1.57598 0.00835791 0
M  V30 153 C 14.7139 -1.7892 -0.53333 0
M  V30 154 C 15.0649 -0.916609 -1.73473 0
M  V30 155 O 14.1899 -0.121336 -2.1606 0
M  V30 156 C 14.7849 -3.24488 -0.974313 0
M  V30 157 C 13.3439 -3.46878 -1.46125 0
M  V30 158 C 12.4909 -2.74157 -0.416302 0
M  V30 159 H 15.4419 -1.56958 0.234495 0
M  V30 160 H 15.4629 -3.3306 -1.83988 0
M  V30 161 H 14.9749 -3.87972 -0.099718 0
M  V30 162 H 13.0759 -2.8862 -2.35646 0
M  V30 163 H 13.1889 -4.55572 -1.48295 0
M  V30 164 H 11.5529 -2.39022 -0.87981 0
M  V30 165 H 12.3359 -3.40345 0.44947 0
M  V30 166 N 14.781 0.264519 -1.55364 0
M  V30 167 C 16.192 0.834936 -1.6699 0
M  V30 168 C 16.543 1.86718 -0.602552 0
M  V30 169 O 15.668 2.14899 0.254425 0
M  V30 170 C 16.263 1.5212 -3.02729 0
M  V30 171 C 14.822 2.03954 -3.16354 0
M  V30 172 C 13.969 0.884498 -2.62815 0
M  V30 173 H 16.92 0.0406869 -1.58648 0
M  V30 174 H 16.941 2.38853 -2.96191 0
M  V30 175 H 16.453 0.769668 -3.80392 0
M  V30 176 H 14.554 2.82041 -2.43482 0
M  V30 177 H 14.667 2.24902 -4.23032 0
M  V30 178 H 13.031 1.2802 -2.20188 0
M  V30 179 H 13.814 0.14634 -3.42988 0
M  V30 180 N 16.2591 1.48442 0.529413 0
M  V30 181 C 17.6701 1.5002 1.11134 0
M  V30 182 C 18.0211 0.27031 1.94329 0
M  V30 183 O 17.1461 -0.622507 2.07253 0
M  V30 184 C 17.7411 2.71834 2.02217 0
M  V30 185 C 16.3001 2.76283 2.55627 0
M  V30 186 C 15.4471 2.43542 1.326 0
M  V30 187 H 18.3981 1.5555 0.314641 0
M  V30 188 H 18.4191 2.50384 2.8651 0
M  V30 189 H 17.9311 3.61331 1.41639 0
M  V30 190 H 16.0321 1.90995 3.19924 0
M  V30 191 H 16.1451 3.77725 2.94721 0
M  V30 192 H 14.5091 1.94709 1.64196 0
M  V30 193 H 15.2921 3.3528 0.737734 0
M  V30 194 N 17.7372 -0.778329 1.37039 0
M  V30 195 C 19.1532 -1.07796 1.17695 0
M  V30 196 C 19.3532 -2.01498 0.00860115 0
M  V30 197 O 18.4092 -2.43901 -0.653352 0
M  V30 198 C 19.7222 -1.68178 2.49272 0
M  V30 199 C 21.2702 -1.80467 2.55735 0
M  V30 200 C 21.7452 -2.44263 3.87427 0
M  V30 201 N 23.2362 -2.51721 3.88833 0
M  V30 202 C 23.9712 -3.01919 4.87476 0
M  V30 203 N 23.4672 -3.5234 5.96513 0
M  V30 204 N 25.2602 -3.00733 4.74885 0
M  V30 205 H 17.4112 -0.156032 2.11826 0
M  V30 206 H 19.6742 -0.131844 0.938787 0
M  V30 207 H 19.3802 -1.06796 3.35093 0
M  V30 208 H 19.2542 -2.67554 2.65885 0
M  V30 209 H 21.6412 -2.40984 1.70325 0
M  V30 210 H 21.7222 -0.798656 2.43013 0
M  V30 211 H 21.3662 -1.84388 4.73248 0
M  V30 212 H 21.2962 -3.45458 3.9745 0
M  V30 213 H 23.7872 -2.1603 3.10063 0
M  V30 214 H 24.1002 -3.89027 6.67741 0
M  V30 215 H 22.4452 -3.50462 6.00168 0
M  V30 216 H 25.6362 -2.60638 3.88826 0
M  V30 217 H 25.8092 -3.39545 5.51918 0
M  V30 218 N 19.2153 -1.21501 -1.00376 0
M  V30 219 C 20.6313 -0.972629 -1.26539 0
M  V30 220 C 20.8313 0.340257 -1.98606 0
M  V30 221 O 19.8873 1.06561 -2.28913 0
M  V30 222 C 21.2003 -2.16404 -2.08781 0
M  V30 223 C 22.7483 -2.20643 -2.22004 0
M  V30 224 C 23.2233 -3.39306 -3.07629 0
M  V30 225 N 24.7143 -3.39401 -3.15217 0
M  V30 226 C 25.4493 -4.27867 -3.81729 0
M  V30 227 N 24.9453 -5.26533 -4.5026 0
M  V30 228 N 26.7383 -4.15672 -3.78382 0
M  V30 229 H 18.8893 -2.05929 -0.520281 0
M  V30 230 H 21.1523 -0.901803 -0.292328 0
M  V30 231 H 20.8583 -3.11554 -1.63178 0
M  V30 232 H 20.7323 -2.15567 -3.09533 0
M  V30 233 H 23.1193 -1.26048 -2.66825 0
M  V30 234 H 23.2003 -2.25523 -1.20718 0
M  V30 235 H 22.8443 -4.34195 -2.63509 0
M  V30 236 H 22.7743 -3.31665 -4.09031 0
M  V30 237 H 25.2653 -2.67997 -2.66432 0
M  V30 238 H 25.5783 -5.90337 -4.98721 0
M  V30 239 H 23.9233 -5.30457 -4.49044 0
M  V30 240 H 27.1143 -3.3785 -3.23998 0
M  V30 241 H 27.2873 -4.84825 -4.2994 0
M  V30 242 N 20.6934 1.19889 -1.02296 0
M  V30 243 C 21.6564 2.21116 -0.603351 0
M  V30 244 C 22.6564 1.5738 0.329884 0
M  V30 245 O 23.8464 1.73802 0.117702 0
M  V30 246 C 20.9784 3.40696 0.117992 0
M  V30 247 H 22.1714 2.59754 -1.49893 0
M  V30 248 H 19.7244 1.33463 -0.813468 0
M  V30 249 H 20.4594 3.07569 1.0282 0
M  V30 250 H 20.2444 3.88188 -0.552511 0
M  V30 251 H 21.7344 4.15692 0.398696 0
M  V30 252 N 22.1715 0.800033 1.35784 0
M  V30 253 C 23.4195 0.376597 1.9856 0
M  V30 254 C 23.7405 -1.05812 1.63795 0
M  V30 255 O 23.0105 -1.73103 0.917171 0
M  V30 256 H 21.5905 0.136261 0.734467 0
M  V30 257 H 24.2525 1.02442 1.65806 0
M  V30 258 H 23.3485 0.477002 3.08433 0
M  V30 259 N 23.6496 -1.47581 0.552962 0
M  V30 260 C 24.6126 -2.28439 -0.186605 0
M  V30 261 C 25.6126 -1.36706 -0.84665 0
M  V30 262 O 26.8026 -1.59378 -0.703164 0
M  V30 263 C 23.9346 -3.16264 -1.2724 0
M  V30 264 H 25.1276 -2.95294 0.523609 0
M  V30 265 H 22.6806 -1.532 0.309745 0
M  V30 266 H 23.4156 -2.54091 -2.01514 0
M  V30 267 H 23.2006 -3.83769 -0.803968 0
M  V30 268 H 24.6906 -3.77198 -1.79196 0
M  V30 269 N 25.1277 -0.289203 -1.54924 0
M  V30 270 C 26.0907 0.579144 -2.21762 0
M  V30 271 C 27.0907 1.07047 -1.1999 0
M  V30 272 O 28.2807 0.968384 -1.44803 0
M  V30 273 C 25.4127 1.80055 -2.8947 0
M  V30 274 H 26.6057 -0.00464908 -2.999 0
M  V30 275 H 24.1587 -0.0399306 -1.56249 0
M  V30 276 H 24.8937 2.42449 -2.15381 0
M  V30 277 H 24.6787 1.45602 -3.64064 0
M  V30 278 H 26.1687 2.41773 -3.40493 0
M  V30 279 N 26.6058 1.57591 -0.0167156 0
M  V30 280 C 27.8458 1.93145 0.668902 0
M  V30 281 C 28.2098 0.892406 1.7 0
M  V30 282 O 29.4108 1.13373 2.43721 0
M  V30 283 C 27.6818 3.33678 1.28039 0
M  V30 284 S 29.2408 3.91142 1.9888 0
M  V30 285 H 26.0588 0.67593 0.220545 0
M  V30 286 H 28.6608 1.95347 -0.0774105 0
M  V30 287 H 27.3648 4.07126 0.517339 0
M  V30 288 H 26.8958 3.3489 2.06427 0
M  V30 289 H 28.9108 3.73571 3.26587 0
M  V30 290 N 28.0839 -0.256276 1.55502 0
M  V30 291 C 29.3119 -1.00342 1.8094 0
M  V30 292 C 29.7269 -1.79307 0.59114 0
M  V30 293 O 29.0839 -1.77114 -0.440081 0
M  V30 294 C 29.1349 -1.94875 3.04476 0
M  V30 295 O 28.8559 -1.19107 4.21598 0
M  V30 296 C 30.3569 -2.81266 3.42644 0
M  V30 297 H 27.5769 -0.295685 0.602338 0
M  V30 298 H 30.1209 -0.281998 2.02546 0
M  V30 299 H 28.2759 -2.62457 2.84947 0
M  V30 300 H 28.6899 -1.82969 4.91551 0
M  V30 301 H 30.1639 -3.43362 4.32211 0
M  V30 302 H 30.6409 -3.51897 2.62802 0
M  V30 303 H 31.2469 -2.1915 3.64491 0
M  V30 304 N 29.562 -1.4872 -0.521534 0
M  V30 305 C 30.492 -1.66771 -1.63431 0
M  V30 306 C 31.473 -0.516499 -1.62069 0
M  V30 307 O 32.658 -0.750013 -1.79132 0
M  V30 308 C 29.788 -1.71515 -3.01993 0
M  V30 309 C 28.742 -2.86222 -3.18216 0
M  V30 310 C 28.068 -2.76061 -4.57924 0
M  V30 311 C 29.368 -4.27419 -3.00184 0
M  V30 312 H 31.062 -2.59932 -1.48579 0
M  V30 313 H 28.608 -1.25089 -0.713358 0
M  V30 314 H 30.561 -1.82731 -3.7972 0
M  V30 315 H 29.285 -0.749393 -3.17886 0
M  V30 316 H 27.944 -2.74575 -2.42908 0
M  V30 317 H 27.592 -1.77437 -4.70665 0
M  V30 318 H 27.292 -3.53037 -4.69722 0
M  V30 319 H 28.816 -2.89256 -5.37739 0
M  V30 320 H 30.23 -4.39855 -3.67697 0
M  V30 321 H 28.627 -5.05458 -3.2347 0
M  V30 322 H 29.697 -4.43293 -1.96518 0
M  V30 323 N 31.0401 0.771051 -1.3745 0
M  V30 324 C 32.4561 1.07171 -1.18265 0
M  V30 325 C 32.6561 2.01491 -0.019287 0
M  V30 326 O 31.7121 2.44244 0.640408 0
M  V30 327 C 33.0251 1.66854 -2.50161 0
M  V30 328 C 34.5731 1.79109 -2.56689 0
M  V30 329 C 35.0481 2.42205 -3.88717 0
M  V30 330 N 36.5391 2.49655 -3.90162 0
M  V30 331 C 37.2741 2.9933 -4.8907 0
M  V30 332 N 36.7701 3.49172 -5.98374 0
M  V30 333 N 38.5631 2.9821 -4.76474 0
M  V30 334 H 30.7141 0.144796 -2.11906 0
M  V30 335 H 32.9771 0.126863 -0.939473 0
M  V30 336 H 32.6831 1.05017 -3.35655 0
M  V30 337 H 32.5571 2.6614 -2.673 0
M  V30 338 H 34.9441 2.40077 -1.71601 0
M  V30 339 H 35.0251 0.785757 -2.43433 0
M  V30 340 H 34.6691 1.81875 -4.74219 0
M  V30 341 H 34.5991 3.43345 -3.99276 0
M  V30 342 H 37.0901 2.14383 -3.11205 0
M  V30 343 H 37.4031 3.8548 -6.69795 0
M  V30 344 H 35.7481 3.47275 -6.02018 0
M  V30 345 H 38.9391 2.58572 -3.90203 0
M  V30 346 H 39.1121 3.36613 -5.53711 0
M  V30 347 N 32.5182 1.22032 0.997298 0
M  V30 348 C 33.4502 0.944263 2.08845 0
M  V30 349 C 34.4632 -0.0754663 1.62625 0
M  V30 350 O 35.6522 0.157994 1.77799 0
M  V30 351 C 32.7522 0.397723 3.36558 0
M  V30 352 C 31.9252 1.47362 4.11829 0
M  V30 353 C 30.9842 0.934951 5.17827 0
M  V30 354 O 30.0102 1.62016 5.45655 0
M  V30 355 N 31.2122 -0.245895 5.79979 0
M  V30 356 H 33.9772 1.88363 2.33109 0
M  V30 357 H 31.5382 1.12661 1.16272 0
M  V30 358 H 33.5302 0.0227771 4.04694 0
M  V30 359 H 32.1002 -0.446646 3.09393 0
M  V30 360 H 31.3202 2.02208 3.38386 0
M  V30 361 H 32.6082 2.19764 4.58891 0
M  V30 362 H 32.0062 -0.819475 5.59733 0
M  V30 363 H 30.5632 -0.562272 6.4937 0
M  V30 364 N 33.9963 -1.19345 1.0293 0
M  V30 365 C 34.9433 -2.2258 0.610464 0
M  V30 366 C 35.9133 -1.6179 -0.375946 0
M  V30 367 O 37.0983 -1.88844 -0.272511 0
M  V30 368 C 34.2383 -3.45085 -0.0321473 0
M  V30 369 C 33.3513 -4.20258 1.00035 0
M  V30 370 C 32.4863 -5.3019 0.32746 0
M  V30 371 C 31.5253 -5.97121 1.34584 0
M  V30 372 N 30.6623 -6.98615 0.698726 0
M  V30 373 H 35.5023 -2.57764 1.49538 0
M  V30 374 H 33.0393 -1.26644 0.748311 0
M  V30 375 H 34.9973 -4.15061 -0.421966 0
M  V30 376 H 33.6273 -3.10555 -0.88064 0
M  V30 377 H 32.6793 -3.49223 1.50823 0
M  V30 378 H 33.9913 -4.66175 1.77433 0
M  V30 379 H 33.1453 -6.06587 -0.11718 0
M  V30 380 H 31.8843 -4.85345 -0.478713 0
M  V30 381 H 30.8893 -5.19474 1.80074 0
M  V30 382 H 32.1143 -6.4405 2.15352 0
M  V30 383 H 30.0603 -6.55942 -0.0873471 0
M  V30 384 H 29.9773 -7.42724 1.41058 0
M  V30 385 H 31.2453 -7.79004 0.278102 0
M  V30 386 N 35.4744 -0.807222 -1.35358 0
M  V30 387 C 36.4044 -0.232509 -2.3234 0
M  V30 388 C 37.3854 0.642386 -1.57504 0
M  V30 389 O 38.5704 0.572526 -1.85569 0
M  V30 390 C 35.7004 0.619238 -3.41735 0
M  V30 391 C 34.6544 -0.157215 -4.27711 0
M  V30 392 C 33.9804 0.816273 -5.28433 0
M  V30 393 C 35.2804 -1.35656 -5.04376 0
M  V30 394 H 36.9744 -1.04276 -2.80654 0
M  V30 395 H 34.5204 -0.50288 -1.34934 0
M  V30 396 H 36.4734 1.03137 -4.08584 0
M  V30 397 H 35.1974 1.46239 -2.92031 0
M  V30 398 H 33.8564 -0.550525 -3.62443 0
M  V30 399 H 33.5044 1.65494 -4.74996 0
M  V30 400 H 33.2044 0.301067 -5.86828 0
M  V30 401 H 34.7284 1.22659 -5.98153 0
M  V30 402 H 36.1424 -1.01927 -5.64166 0
M  V30 403 H 34.5394 -1.8063 -5.7227 0
M  V30 404 H 35.6094 -2.14288 -4.34981 0
M  V30 405 N 36.9525 1.47285 -0.560781 0
M  V30 406 C 38.2015 2.01668 -0.035895 0
M  V30 407 C 38.5145 1.44021 1.32353 0
M  V30 408 O 39.7205 1.90088 1.93853 0
M  V30 409 C 38.1765 3.59897 -0.0136659 0
M  V30 410 C 37.7845 4.26536 -1.37006 0
M  V30 411 C 39.5285 4.22017 0.458425 0
M  V30 412 C 37.4355 5.76782 -1.30675 0
M  V30 413 H 36.3655 0.753938 -0.00964879 0
M  V30 414 H 39.0165 1.69243 -0.709166 0
M  V30 415 H 37.3985 3.89301 0.725325 0
M  V30 416 H 38.5725 4.0877 -2.12705 0
M  V30 417 H 36.8875 3.76419 -1.78038 0
M  V30 418 H 39.4845 5.32124 0.524247 0
M  V30 419 H 39.8275 3.89437 1.4712 0
M  V30 420 H 40.3605 3.97159 -0.225818 0
M  V30 421 H 37.0995 6.13988 -2.29564 0
M  V30 422 H 36.6195 5.96875 -0.591622 0
M  V30 423 H 38.2985 6.39063 -1.01033 0
M  V30 424 N 38.4306 0.297415 1.54768 0
M  V30 425 C 39.6776 -0.312913 2.00068 0
M  V30 426 C 40.0056 -1.54171 1.18582 0
M  V30 427 O 39.2606 -1.94108 0.249133 0
M  V30 428 C 39.5596 -0.717561 3.50123 0
M  V30 429 C 39.2256 0.409095 4.4904 0
M  V30 430 C 37.8876 0.718399 4.75807 0
M  V30 431 C 40.2396 1.16717 5.07963 0
M  V30 432 C 37.5676 1.78896 5.5876 0
M  V30 433 C 39.9196 2.22762 5.92081 0
M  V30 434 C 38.5836 2.54303 6.1716 0
M  V30 435 H 37.8536 -0.114503 0.7321 0
M  V30 436 H 40.5006 0.415767 1.86932 0
M  V30 437 H 38.8056 -1.52627 3.60849 0
M  V30 438 H 40.5026 -1.20091 3.82595 0
M  V30 439 H 37.0926 0.157918 4.28309 0
M  V30 440 H 41.2766 0.941466 4.87289 0
M  V30 441 H 36.5326 2.0381 5.7643 0
M  V30 442 H 40.7066 2.81962 6.36765 0
M  V30 443 H 38.3336 3.3739 6.81229 0
M  V30 444 N 39.9087 -1.5758 0.0250728 0
M  V30 445 C 41.1337 -1.96337 -0.668317 0
M  V30 446 C 41.5587 -0.901314 -1.651 0
M  V30 447 O 40.9167 0.138187 -1.80773 0
M  V30 448 C 40.9647 -3.34191 -1.35457 0
M  V30 449 O 40.0687 -3.30269 -2.46974 0
M  V30 450 H 39.4097 -0.640281 -0.175887 0
M  V30 451 H 41.9397 -2.0442 0.0857224 0
M  V30 452 H 41.9497 -3.70331 -1.71228 0
M  V30 453 H 40.6247 -4.11036 -0.634218 0
M  V30 454 H 39.2017 -3.05841 -2.13344 0
M  V30 455 N 41.3868 0.248026 -1.55636 0
M  V30 456 C 42.7978 0.817177 -1.67866 0
M  V30 457 C 43.1488 1.86069 -0.622322 0
M  V30 458 O 42.2738 2.15157 0.231618 0
M  V30 459 C 42.8688 1.489 -3.04326 0
M  V30 460 C 41.4278 2.00587 -3.185 0
M  V30 461 C 40.5748 0.856573 -2.63739 0
M  V30 462 H 43.5258 0.0238579 -1.58682 0
M  V30 463 H 43.5468 2.35698 -2.98708 0
M  V30 464 H 43.0588 0.729279 -3.81186 0
M  V30 465 H 41.1598 2.79443 -2.4646 0
M  V30 466 H 41.2728 2.20402 -4.25393 0
M  V30 467 H 39.6368 1.25678 -2.21534 0
M  V30 468 H 40.4198 0.109953 -3.43124 0
M  V30 469 N 42.8649 1.48995 0.513639 0
M  V30 470 C 44.1049 1.59452 1.27885 0
M  V30 471 C 44.4689 0.269479 1.90099 0
M  V30 472 O 45.6699 0.249139 2.67643 0
M  V30 473 C 43.9409 2.71277 2.32688 0
M  V30 474 S 45.4999 3.01604 3.18717 0
M  V30 475 H 42.3179 0.562565 0.434789 0
M  V30 476 H 44.9199 1.86595 0.583301 0
M  V30 477 H 43.6239 3.66089 1.8549 0
M  V30 478 H 43.1549 2.46086 3.06929 0
M  V30 479 H 45.1699 2.42155 4.331 0
M  V30 480 N 44.343 -0.763751 1.37857 0
M  V30 481 C 45.568 -1.55805 1.36893 0
M  V30 482 C 45.993 -1.88054 -0.0416135 0
M  V30 483 O 45.351 -1.49825 -1.02089 0
M  V30 484 C 45.399 -2.84012 2.22192 0
M  V30 485 O 44.503 -3.78732 1.63204 0
M  V30 486 H 43.844 -0.471638 0.46739 0
M  V30 487 H 46.374 -0.944657 1.81487 0
M  V30 488 H 46.384 -3.33037 2.35691 0
M  V30 489 H 45.059 -2.59869 3.24716 0
M  V30 490 H 43.636 -3.37402 1.58791 0
M  V30 491 N 45.8211 -1.22559 -0.990812 0
M  V30 492 C 47.0981 -0.959875 -1.70428 0
M  V30 493 C 47.4781 0.524455 -2.04481 0
M  V30 494 O 46.8261 1.49302 -1.72977 0
M  V30 495 C 47.0361 -1.85955 -2.95333 0
M  V30 496 C 48.3841 -2.11687 -3.68068 0
M  V30 497 O 49.4081 -1.8342 -3.05345 0
M  V30 498 O 48.2671 -2.59572 -4.80921 0
M  V30 499 H 45.3611 -0.361154 -0.743974 0
M  V30 500 H 47.9071 -1.33554 -1.04697 0
M  V30 501 H 46.6791 -2.86346 -2.66687 0
M  V30 502 H 46.3021 -1.4856 -3.68803 0
M  V30 503 N 47.2992 1.18797 -1.03562 0
M  V30 504 C 48.5392 1.90346 -0.744832 0
M  V30 505 C 48.9032 1.78231 0.713972 0
M  V30 506 O 50.1042 2.44441 1.11813 0
M  V30 507 C 48.3752 3.36942 -1.19184 0
M  V30 508 S 49.9342 4.26638 -1.02593 0
M  V30 509 H 46.7522 0.657343 -0.270963 0
M  V30 510 H 49.3542 1.43579 -1.32685 0
M  V30 511 H 48.0582 3.43287 -2.24905 0
M  V30 512 H 47.5892 3.88745 -0.603397 0
M  V30 513 H 49.6042 4.96164 0.0596033 0
M  V30 514 N 48.7773 0.814389 1.34928 0
M  V30 515 C 49.6873 0.231978 2.3345 0
M  V30 516 C 50.7033 -0.629139 1.62228 0
M  V30 517 O 51.8793 -0.539052 1.94052 0
M  V30 518 C 48.9443 -0.603482 3.41407 0
M  V30 519 C 48.0053 0.279037 4.28392 0
M  V30 520 C 47.2383 -0.516643 5.31193 0
M  V30 521 O 47.4613 -1.75068 5.4287 0
M  V30 522 O 46.3953 0.0965652 6.01823 0
M  V30 523 H 50.2213 1.04721 2.85074 0
M  V30 524 H 47.8063 0.576343 1.37836 0
M  V30 525 H 49.6883 -1.07908 4.0735 0
M  V30 526 H 48.3633 -1.39618 2.92042 0
M  V30 527 H 47.2703 0.801948 3.65403 0
M  V30 528 H 48.6033 1.03588 4.81176 0
M  V30 529 N 50.2554 -1.46986 0.568584 0
M  V30 530 C 51.1654 -2.33942 -0.17555 0
M  V30 531 C 52.1814 -1.48891 -0.90041 0
M  V30 532 O 53.3574 -1.81794 -0.86676 0
M  V30 533 C 50.4224 -3.25811 -1.18524 0
M  V30 534 C 49.4834 -4.26757 -0.466582 0
M  V30 535 C 48.7164 -5.14236 -1.42817 0
M  V30 536 O 48.9394 -5.04379 -2.66379 0
M  V30 537 O 47.8734 -5.94412 -0.946453 0
M  V30 538 H 51.6994 -2.98896 0.538036 0
M  V30 539 H 49.2844 -1.4573 0.329097 0
M  V30 540 H 51.1664 -3.82527 -1.76779 0
M  V30 541 H 49.8414 -2.63471 -1.88055 0
M  V30 542 H 48.7484 -3.73769 0.157451 0
M  V30 543 H 50.0814 -4.91843 0.187485 0
M  V30 544 N 51.7335 -0.305618 -1.54608 0
M  V30 545 C 52.6435 0.57778 -2.27374 0
M  V30 546 C 53.6595 1.14451 -1.31061 0
M  V30 547 O 54.8355 1.16831 -1.6405 0
M  V30 548 C 51.9005 1.73123 -3.00382 0
M  V30 549 C 50.9615 1.19812 -4.12242 0
M  V30 550 C 50.1945 2.2966 -4.81759 0
M  V30 551 O 50.4175 3.49651 -4.50666 0
M  V30 552 O 49.3515 1.96091 -5.69062 0
M  V30 553 H 53.1775 -0.012624 -3.03697 0
M  V30 554 H 50.7625 -0.0719184 -1.49227 0
M  V30 555 H 52.6445 2.40315 -3.4616 0
M  V30 556 H 51.3195 2.30815 -2.26949 0
M  V30 557 H 50.2265 0.491798 -3.70853 0
M  V30 558 H 51.5595 0.666566 -4.87666 0
M  V30 559 N 53.2116 1.57565 -0.0334293 0
M  V30 560 C 54.1216 2.13943 0.962572 0
M  V30 561 C 55.1376 1.09276 1.35406 0
M  V30 562 O 56.3136 1.41355 1.4346 0
M  V30 563 C 53.3786 2.65887 2.22497 0
M  V30 564 C 52.4396 3.85286 1.8935 0
M  V30 565 C 51.6726 4.34743 3.09571 0
M  V30 566 O 51.8956 3.83352 4.22371 0
M  V30 567 O 50.8296 5.26538 2.91618 0
M  V30 568 H 54.6556 2.99333 0.513169 0
M  V30 569 H 52.2406 1.4822 0.18743 0
M  V30 570 H 54.1226 2.99346 2.96598 0
M  V30 571 H 52.7976 1.83578 2.6661 0
M  V30 572 H 51.7046 3.56746 1.1262 0
M  V30 573 H 53.0376 4.68771 1.5005 0
M  V30 574 N 54.6897 -0.239769 1.55765 0
M  V30 575 C 55.5997 -1.31831 1.94056 0
M  V30 576 C 56.6157 -1.52275 0.841925 0
M  V30 577 O 57.7917 -1.65759 1.14394 0
M  V30 578 C 54.8567 -2.65156 2.23368 0
M  V30 579 C 53.9177 -2.53173 3.46701 0
M  V30 580 C 53.1507 -3.8014 3.74606 0
M  V30 581 O 53.3737 -4.82343 3.04469 0
M  V30 582 O 52.3077 -3.78344 4.68123 0
M  V30 583 H 56.1337 -1.02347 2.85935 0
M  V30 584 H 53.7187 -0.441123 1.42739 0
M  V30 585 H 55.6007 -3.43929 2.43497 0
M  V30 586 H 54.2757 -2.94358 1.34666 0
M  V30 587 H 53.1827 -1.72662 3.31871 0
M  V30 588 H 54.5157 -2.28915 4.35728 0
M  V30 589 N 56.1678 -1.49265 -0.50573 0
M  V30 590 C 57.0778 -1.68312 -1.63427 0
M  V30 591 C 58.0938 -0.565682 -1.64548 0
M  V30 592 O 59.2698 -0.839801 -1.83055 0
M  V30 593 C 56.3348 -1.74107 -2.99813 0
M  V30 594 C 55.3958 -2.97653 -3.09356 0
M  V30 595 C 54.6288 -3.03163 -4.39236 0
M  V30 596 O 54.8518 -2.16396 -5.27758 0
M  V30 597 O 53.7858 -3.9558 -4.53652 0
M  V30 598 H 57.6118 -2.63907 -1.50289 0
M  V30 599 H 55.1968 -1.32951 -0.681502 0
M  V30 600 H 57.0788 -1.803 -3.80881 0
M  V30 601 H 55.7538 -0.816901 -3.13223 0
M  V30 602 H 54.6608 -2.96981 -2.27493 0
M  V30 603 H 55.9938 -3.89535 -3.00871 0
M  V30 604 N 57.6459 0.756429 -1.3826 0
M  V30 605 C 58.5559 1.9009 -1.37488 0
M  V30 606 C 59.5719 1.71855 -0.272366 0
M  V30 607 O 60.7479 1.94827 -0.510318 0
M  V30 608 C 57.8129 3.25421 -1.19592 0
M  V30 609 C 56.8739 3.56202 -2.39622 0
M  V30 610 C 56.1069 4.85075 -2.2257 0
M  V30 611 O 56.3299 5.57246 -1.21793 0
M  V30 612 O 55.2639 5.15269 -3.11098 0
M  V30 613 H 59.0899 1.93695 -2.33914 0
M  V30 614 H 56.6749 0.901313 -1.1915 0
M  V30 615 H 58.5569 4.06337 -1.11661 0
M  V30 616 H 57.2319 3.22634 -0.262486 0
M  V30 617 H 56.1389 2.75458 -2.53128 0
M  V30 618 H 57.4719 3.63747 -3.31586 0
M  V30 619 N 59.124 1.23083 0.984299 0
M  V30 620 C 60.034 1.02515 2.11016 0
M  V30 621 C 61.05 -0.0291702 1.73976 0
M  V30 622 O 62.226 0.165434 2.00719 0
M  V30 623 C 59.291 0.614673 3.41208 0
M  V30 624 C 58.352 1.74359 3.92297 0
M  V30 625 C 57.585 1.35261 5.16275 0
M  V30 626 O 57.808 0.235136 5.69915 0
M  V30 627 O 56.742 2.17227 5.61334 0
M  V30 628 H 60.568 1.96862 2.31255 0
M  V30 629 H 58.153 1.01753 1.09392 0
M  V30 630 H 60.035 0.396518 4.1953 0
M  V30 631 H 58.71 -0.299851 3.22308 0
M  V30 632 H 57.617 2.01635 3.1511 0
M  V30 633 H 58.95 2.63629 4.15645 0
M  V30 634 N 60.6021 -1.18246 1.0419 0
M  V30 635 C 61.5121 -2.25574 0.644476 0
M  V30 636 C 62.5281 -1.70845 -0.329826 0
M  V30 637 O 63.7041 -2.00554 -0.184443 0
M  V30 638 C 60.7691 -3.46697 0.014877 0
M  V30 639 C 59.8301 -4.16554 1.03834 0
M  V30 640 C 59.0631 -5.31894 0.438692 0
M  V30 641 O 59.2861 -5.65385 -0.754752 0
M  V30 642 O 58.2201 -5.90459 1.168 0
M  V30 643 H 62.0461 -2.61836 1.53869 0
M  V30 644 H 59.6311 -1.25352 0.812854 0
M  V30 645 H 61.5131 -4.20062 -0.335538 0
M  V30 646 H 60.1881 -3.12255 -0.853138 0
M  V30 647 H 59.0951 -3.45251 1.44057 0
M  V30 648 H 60.4281 -4.54998 1.87716 0
M  V30 649 N 62.0802 -0.821533 -1.34494 0
M  V30 650 C 62.9902 -0.244355 -2.33324 0
M  V30 651 C 64.0062 0.620527 -1.62559 0
M  V30 652 O 65.1822 0.528754 -1.94335 0
M  V30 653 C 62.2472 0.585368 -3.41723 0
M  V30 654 C 61.3082 -0.301752 -4.28238 0
M  V30 655 C 60.5412 0.488466 -5.3146 0
M  V30 656 O 60.7642 1.72186 -5.4379 0
M  V30 657 O 59.6982 -0.12848 -6.01763 0
M  V30 658 H 63.5242 -1.06231 -2.84515 0
M  V30 659 H 61.1092 -0.583645 -1.37528 0
M  V30 660 H 62.9912 1.05747 -4.07916 0
M  V30 661 H 61.6662 1.38068 -2.92778 0
M  V30 662 H 60.5732 -0.821315 -3.64973 0
M  V30 663 H 61.9062 -1.06138 -4.8062 0
M  V30 664 N 63.5583 1.46682 -0.576371 0
M  V30 665 C 64.8063 2.02013 -0.0594163 0
M  V30 666 C 65.1273 1.45101 1.30271 0
M  V30 667 O 64.3973 0.633317 1.8538 0
M  V30 668 H 62.9773 0.746759 -0.0189745 0
M  V30 669 H 65.6393 1.79862 -0.750717 0
M  V30 670 H 64.7353 3.12097 0.014345 0
M  V30 671 N 65.0364 0.313813 1.54444 0
M  V30 672 C 66.2614 -0.296681 2.05267 0
M  V30 673 C 66.6864 -1.45757 1.18897 0
M  V30 674 O 66.0444 -1.80239 0.195886 0
M  V30 675 C 66.0924 -0.71831 3.53373 0
M  V30 676 O 65.1964 -1.82175 3.69981 0
M  V30 677 H 64.5374 -0.0554061 0.661684 0
M  V30 678 H 67.0674 0.459387 1.99376 0
M  V30 679 H 67.0774 -1.00364 3.95463 0
M  V30 680 H 65.7524 0.130821 4.15694 0
M  V30 681 H 64.3294 -1.53598 3.39797 0
M  V30 682 N 66.5145 -1.57545 0.0417849 0
M  V30 683 C 67.7625 -1.91937 -0.632829 0
M  V30 684 C 68.0835 -0.919978 -1.71934 0
M  V30 685 O 67.3535 0.0366064 -1.95866 0
M  V30 686 H 65.9335 -0.708493 -0.236742 0
M  V30 687 H 68.5955 -1.9468 0.0925745 0
M  V30 688 H 67.6915 -2.92912 -1.07746 0
M  V30 689 N 67.9926 0.231505 -1.5589 0
M  V30 690 C 68.9426 1.29007 -1.87993 0
M  V30 691 C 69.9266 1.42764 -0.742102 0
M  V30 692 O 71.1186 1.45747 -1.00433 0
M  V30 693 C 68.2476 2.6425 -2.1915 0
M  V30 694 C 67.3336 2.54435 -3.39299 0
M  V30 695 N 67.7246 2.14262 -4.58176 0
M  V30 696 C 66.0226 2.85416 -3.42715 0
M  V30 697 C 66.7236 2.15455 -5.40328 0
M  V30 698 N 65.6996 2.55558 -4.79783 0
M  V30 699 H 69.5016 0.970213 -2.77424 0
M  V30 700 H 67.0156 0.440097 -1.56323 0
M  V30 701 H 69.0126 3.40665 -2.40319 0
M  V30 702 H 67.6726 2.9709 -1.31025 0
M  V30 703 H 68.6836 1.85554 -4.83518 0
M  V30 704 H 65.3606 3.22693 -2.64906 0
M  V30 705 H 66.7506 1.86605 -6.45467 0
M  V30 706 N 69.4707 1.49531 0.497807 0
M  V30 707 C 70.6957 1.63159 1.28039 0
M  V30 708 C 71.1207 0.30418 1.85624 0
M  V30 709 O 70.4787 -0.728618 1.66015 0
M  V30 710 C 70.5267 2.70537 2.38416 0
M  V30 711 O 69.6307 2.29931 3.42353 0
M  V30 712 H 68.9717 0.546001 0.377861 0
M  V30 713 H 71.5017 1.9574 0.59558 0
M  V30 714 H 71.5117 2.92802 2.84132 0
M  V30 715 H 70.1867 3.6689 1.95869 0
M  V30 716 H 68.7637 2.18009 3.02533 0
M  V30 717 N 70.9488 -0.749086 1.3866 0
M  V30 718 C 72.1768 -1.53834 1.38358 0
M  V30 719 C 72.5918 -1.88783 -0.0255219 0
M  V30 720 O 71.9488 -1.53101 -0.993292 0
M  V30 721 C 71.9998 -2.83468 2.2434 0
M  V30 722 O 71.7208 -2.50008 3.5976 0
M  V30 723 C 73.2218 -3.7758 2.32267 0
M  V30 724 H 70.4418 -0.47585 0.473083 0
M  V30 725 H 72.9858 -0.926726 1.82297 0
M  V30 726 H 71.1408 -3.40995 1.83851 0
M  V30 727 H 71.5548 -3.33182 4.05081 0
M  V30 728 H 73.0288 -4.65478 2.96706 0
M  V30 729 H 73.5058 -4.18334 1.33765 0
M  V30 730 H 74.1118 -3.25976 2.73166 0
M  V30 731 N 72.4269 -1.23603 -0.977757 0
M  V30 732 C 73.6749 -1.06759 -1.71601 0
M  V30 733 C 73.9959 0.395929 -1.90938 0
M  V30 734 O 73.2659 1.28356 -1.47992 0
M  V30 735 H 71.8459 -0.392062 -0.635843 0
M  V30 736 H 74.5079 -1.55362 -1.1768 0
M  V30 737 H 73.6039 -1.55763 -2.70452 0
M  V30 738 N 73.905 1.17692 -1.04816 0
M  V30 739 C 74.815 2.25229 -0.65643 0
M  V30 740 C 75.831 1.71018 0.320761 0
M  V30 741 O 77.007 2.00649 0.173805 0
M  V30 742 C 74.072 3.46684 -0.0332629 0
M  V30 743 C 73.133 4.15997 -1.06042 0
M  V30 744 C 72.366 5.31654 -0.466893 0
M  V30 745 O 72.589 5.65777 0.724758 0
M  V30 746 O 71.523 5.89831 -1.1993 0
M  V30 747 H 75.349 2.61016 -1.55255 0
M  V30 748 H 72.934 1.24919 -0.81949 0
M  V30 749 H 74.816 4.20234 0.313256 0
M  V30 750 H 73.491 3.12703 0.836566 0
M  V30 751 H 72.398 3.44482 -1.45886 0
M  V30 752 H 73.731 4.53996 -1.90127 0
M  V30 753 N 75.3831 0.828654 1.34056 0
M  V30 754 C 76.6601 0.341809 1.9259 0
M  V30 755 C 77.0401 -1.17158 1.75605 0
M  V30 756 O 76.3881 -1.98132 1.13824 0
M  V30 757 C 76.5981 0.777453 3.4023 0
M  V30 758 C 77.9461 0.779579 4.17382 0
M  V30 759 O 78.9701 0.7204 3.48839 0
M  V30 760 O 77.8291 0.857996 5.39723 0
M  V30 761 H 74.9231 0.0946085 0.821571 0
M  V30 762 H 77.4691 0.913827 1.42994 0
M  V30 763 H 76.2411 1.8196 3.46419 0
M  V30 764 H 75.8641 0.181444 3.97186 0
M  V30 765 N 76.8612 -1.46375 0.584142 0
M  V30 766 C 78.0862 -2.07268 0.0740405 0
M  V30 767 C 78.5112 -1.42979 -1.22223 0
M  V30 768 O 77.8692 -0.514092 -1.73859 0
M  V30 769 C 77.9172 -3.60518 -0.0767769 0
M  V30 770 O 77.0212 -3.96533 -1.13292 0
M  V30 771 H 76.3622 -0.660961 0.0634524 0
M  V30 772 H 78.8922 -1.87991 0.807492 0
M  V30 773 H 78.9022 -4.07021 -0.282489 0
M  V30 774 H 77.5772 -4.06702 0.86986 0
M  V30 775 H 76.1542 -3.61738 -0.905553 0
M  V30 776 N 78.3393 -0.321999 -1.54275 0
M  V30 777 C 79.3023 0.531975 -2.22941 0
M  V30 778 C 80.3023 1.04478 -1.22234 0
M  V30 779 O 81.4923 0.937452 -1.46825 0
M  V30 780 C 78.6243 1.73874 -2.93224 0
M  V30 781 H 79.8173 -0.0682612 -2.99822 0
M  V30 782 H 77.3703 -0.0730644 -1.56129 0
M  V30 783 H 78.1053 2.37825 -2.20476 0
M  V30 784 H 77.8903 1.37847 -3.6707 0
M  V30 785 H 79.3803 2.34496 -3.45545 0
M  V30 786 N 79.8174 1.5752 -0.0501392 0
M  V30 787 C 81.0644 1.9265 0.623874 0
M  V30 788 C 81.3924 0.928411 1.70912 0
M  V30 789 O 80.6474 -0.0594525 1.9561 0
M  V30 790 C 80.9464 3.34467 1.25963 0
M  V30 791 C 80.6124 4.49883 0.302689 0
M  V30 792 C 79.2744 4.81184 0.0393636 0
M  V30 793 C 81.6264 5.20002 -0.353205 0
M  V30 794 C 78.9544 5.79951 -0.887308 0
M  V30 795 C 81.3064 6.1976 -1.26806 0
M  V30 796 C 79.9704 6.49491 -1.54007 0
M  V30 797 H 79.2404 0.704957 0.228292 0
M  V30 798 H 81.8874 1.91146 -0.116398 0
M  V30 799 H 80.1924 3.32333 2.07514 0
M  V30 800 H 81.8894 3.58928 1.78806 0
M  V30 801 H 78.4794 4.25457 0.518109 0
M  V30 802 H 82.6634 4.96033 -0.162854 0
M  V30 803 H 77.9194 6.01322 -1.10553 0
M  V30 804 H 82.0934 6.73205 -1.78236 0
M  V30 805 H 79.7204 7.25837 -2.25976 0
M  V30 806 N 81.2955 -0.223234 1.56011 0
M  V30 807 C 82.2275 -1.30006 1.88762 0
M  V30 808 C 83.2405 -1.43129 0.775746 0
M  V30 809 O 84.4295 -1.44057 1.05403 0
M  V30 810 C 81.5295 -2.67589 2.07965 0
M  V30 811 C 80.7025 -2.76434 3.38973 0
M  V30 812 C 79.7615 -3.95019 3.47629 0
M  V30 813 O 78.7875 -3.83436 4.20672 0
M  V30 814 N 79.9895 -5.09249 2.78649 0
M  V30 815 H 82.7545 -1.02238 2.81722 0
M  V30 816 H 80.3155 -0.413278 1.56536 0
M  V30 817 H 82.3075 -3.45297 2.11073 0
M  V30 818 H 80.8775 -2.87964 1.21638 0
M  V30 819 H 80.0975 -1.85216 3.47978 0
M  V30 820 H 81.3855 -2.79313 4.25278 0
M  V30 821 H 80.7835 -5.21556 2.19081 0
M  V30 822 H 79.3405 -5.85007 2.8742 0
M  V30 823 N 82.7736 -1.49793 -0.48987 0
M  V30 824 C 83.6836 -1.70036 -1.61632 0
M  V30 825 C 84.6996 -0.583102 -1.63939 0
M  V30 826 O 85.8756 -0.859169 -1.82154 0
M  V30 827 C 82.9406 -1.77277 -2.97949 0
M  V30 828 C 82.0016 -3.00918 -3.06181 0
M  V30 829 C 81.2346 -3.07804 -4.35996 0
M  V30 830 O 81.4576 -2.21982 -5.25433 0
M  V30 831 O 80.3916 -4.00369 -4.49431 0
M  V30 832 H 84.2176 -2.65486 -1.47482 0
M  V30 833 H 81.8026 -1.33666 -0.667362 0
M  V30 834 H 83.6846 -1.84329 -3.78947 0
M  V30 835 H 82.3596 -0.850076 -3.12339 0
M  V30 836 H 81.2666 -2.99377 -2.2433 0
M  V30 837 H 82.5996 -3.92704 -2.96723 0
M  V30 838 N 84.2517 0.741722 -1.39055 0
M  V30 839 C 85.6627 1.31966 -1.32068 0
M  V30 840 C 86.0137 1.96192 0.0180797 0
M  V30 841 O 85.1387 1.95861 0.920196 0
M  V30 842 C 85.7337 2.39954 -2.39181 0
M  V30 843 C 84.2927 2.93438 -2.35735 0
M  V30 844 C 83.4397 1.66936 -2.21422 0
M  V30 845 H 86.3907 0.539721 -1.4924 0
M  V30 846 H 86.4117 3.20182 -2.05581 0
M  V30 847 H 85.9237 1.9318 -3.36605 0
M  V30 848 H 84.0247 3.4451 -1.41929 0
M  V30 849 H 84.1377 3.4701 -3.30335 0
M  V30 850 H 82.5017 1.91016 -1.68478 0
M  V30 851 H 83.2847 1.22224 -3.20806 0
M  V30 852 N 85.7298 1.2412 0.971189 0
M  V30 853 C 87.0068 0.986867 1.6888 0
M  V30 854 C 87.3868 -0.491857 2.0529 0
M  V30 855 O 86.7348 -1.46531 1.75331 0
M  V30 856 C 86.9448 1.9063 2.92338 0
M  V30 857 C 88.2928 2.17515 3.64654 0
M  V30 858 O 89.3168 1.88254 3.02388 0
M  V30 859 O 88.1758 2.6719 4.7673 0
M  V30 860 H 85.2698 0.372944 0.738134 0
M  V30 861 H 87.8158 1.35203 1.02559 0
M  V30 862 H 86.5878 2.90552 2.62097 0
M  V30 863 H 86.2108 1.54408 3.66393 0
M  V30 864 N 87.2079 -1.17134 1.05439 0
M  V30 865 C 88.4329 -1.91913 0.786396 0
M  V30 866 C 88.8579 -1.7643 -0.652234 0
M  V30 867 O 88.2159 -1.08372 -1.45345 0
M  V30 868 C 88.2639 -3.40921 1.17497 0
M  V30 869 O 87.3679 -4.11244 0.308589 0
M  V30 870 H 86.7089 -0.598215 0.288158 0
M  V30 871 H 89.2389 -1.48457 1.4079 0
M  V30 872 H 89.2489 -3.91668 1.14281 0
M  V30 873 H 87.9239 -3.5151 2.22292 0
M  V30 874 H 86.5009 -3.70731 0.40157 0
M  V30 875 N 88.686 -0.835752 -1.33615 0
M  V30 876 C 90.097 -0.487099 -1.80234 0
M  V30 877 C 90.448 0.993627 -1.69179 0
M  V30 878 O 89.573 1.77403 -1.23924 0
M  V30 879 C 90.168 -0.877385 -3.27242 0
M  V30 880 C 88.727 -0.580915 -3.7189 0
M  V30 881 C 87.874 -1.0874 -2.5509 0
M  V30 882 H 90.825 -1.02474 -1.2118 0
M  V30 883 H 90.846 -0.186195 -3.80044 0
M  V30 884 H 90.358 -1.95512 -3.35256 0
M  V30 885 H 88.459 0.486881 -3.69405 0
M  V30 886 H 88.572 -1.13396 -4.65487 0
M  V30 887 H 86.936 -0.508392 -2.49575 0
M  V30 888 H 87.719 -2.17184 -2.65868 0
M  V30 889 N 90.1641 1.46063 -0.591896 0
M  V30 890 C 91.0941 2.33172 0.123673 0
M  V30 891 C 92.0751 1.45897 0.87453 0
M  V30 892 O 93.2601 1.74698 0.848181 0
M  V30 893 C 90.3901 3.28336 1.13194 0
M  V30 894 C 89.3441 4.25124 0.495324 0
M  V30 895 C 88.6701 5.09863 1.61071 0
M  V30 896 C 89.9701 5.19143 -0.573425 0
M  V30 897 H 91.6641 2.93252 -0.603646 0
M  V30 898 H 89.2101 1.41014 -0.291741 0
M  V30 899 H 91.1631 3.88137 1.64097 0
M  V30 900 H 89.8871 2.66383 1.88965 0
M  V30 901 H 88.5461 3.66599 0.00729452 0
M  V30 902 H 88.1941 4.44288 2.35832 0
M  V30 903 H 87.8941 5.75417 1.19035 0
M  V30 904 H 89.4181 5.72529 2.12233 0
M  V30 905 H 90.8321 5.73106 -0.1491 0
M  V30 906 H 89.2291 5.93089 -0.914636 0
M  V30 907 H 90.2991 4.62519 -1.45617 0
M  V30 908 N 91.6422 0.330177 1.54103 0
M  V30 909 C 93.0532 -0.15652 1.86043 0
M  V30 910 C 93.4042 -1.51086 1.2517 0
M  V30 911 O 92.5292 -2.09023 0.560217 0
M  V30 912 C 93.1242 -0.290784 3.3755 0
M  V30 913 C 91.6832 -0.721705 3.69416 0
M  V30 914 C 90.8302 0.152622 2.7688 0
M  V30 915 H 93.7812 0.550237 1.48856 0
M  V30 916 H 93.8022 -1.12058 3.63625 0
M  V30 917 H 93.3142 0.695068 3.81825 0
M  V30 918 H 91.4152 -1.71706 3.30678 0
M  V30 919 H 91.5282 -0.520869 4.7626 0
M  V30 920 H 89.8922 -0.372894 2.51956 0
M  V30 921 H 90.6752 1.13536 3.23982 0
M  V30 922 N 93.1203 -1.57491 0.0584922 0
M  V30 923 C 94.5313 -1.80526 -0.476138 0
M  V30 924 C 94.8823 -0.971334 -1.70469 0
M  V30 925 O 94.0073 -0.190012 -2.15564 0
M  V30 926 C 94.6023 -3.27424 -0.870587 0
M  V30 927 C 93.1613 -3.51351 -1.35015 0
M  V30 928 C 92.3083 -2.75343 -0.32887 0
M  V30 929 H 95.2593 -1.56133 0.284312 0
M  V30 930 H 95.2803 -3.38745 -1.73299 0
M  V30 931 H 94.7923 -3.88093 0.0237627 0
M  V30 932 H 92.8933 -2.95971 -2.26345 0
M  V30 933 H 93.0063 -4.60059 -1.33726 0
M  V30 934 H 91.3703 -2.417 -0.803321 0
M  V30 935 H 92.1533 -3.38743 0.557521 0
M  V30 936 N 94.5984 0.214957 -1.56127 0
M  V30 937 C 95.5614 1.24997 -1.92116 0
M  V30 938 C 96.5614 1.39467 -0.800344 0
M  V30 939 O 97.7514 1.37619 -1.06802 0
M  V30 940 C 94.8834 2.62271 -2.17777 0
M  V30 941 H 96.0764 0.942875 -2.84693 0
M  V30 942 H 93.6294 0.455654 -1.49511 0
M  V30 943 H 94.3644 2.98068 -1.27773 0
M  V30 944 H 94.1494 2.53143 -2.99434 0
M  V30 945 H 95.6394 3.36946 -2.46693 0
M  V30 946 N 96.0765 1.50051 0.48192 0
M  V30 947 C 97.4925 1.37237 0.814756 0
M  V30 948 C 97.6925 0.420109 1.97072 0
M  V30 949 O 96.7485 -0.141246 2.52105 0
M  V30 950 C 98.0615 2.78375 1.13701 0
M  V30 951 C 99.6095 2.87213 1.2441 0
M  V30 952 C 100.084 4.29161 1.59954 0
M  V30 953 N 101.575 4.32061 1.66967 0
M  V30 954 C 102.31 5.38879 1.95952 0
M  V30 955 N 101.806 6.55918 2.23031 0
M  V30 956 N 103.599 5.26312 1.97363 0
M  V30 957 H 95.7505 2.10546 -0.28005 0
M  V30 958 H 98.0135 0.945921 -0.0627454 0
M  V30 959 H 97.7195 3.49845 0.360787 0
M  V30 960 H 97.5935 3.14941 2.07586 0
M  V30 961 H 99.9805 2.15969 2.01101 0
M  V30 962 H 100.061 2.54204 0.285299 0
M  V30 963 H 99.7055 5.00938 0.838067 0
M  V30 964 H 99.6355 4.59648 2.56966 0
M  V30 965 H 102.126 3.47661 1.48123 0
M  V30 966 H 102.439 7.33139 2.44391 0
M  V30 967 H 100.784 6.59112 2.20447 0
M  V30 968 H 103.975 4.33876 1.75697 0
M  V30 969 H 104.148 6.09649 2.19618 0
M  V30 970 N 97.5546 -0.734337 1.39446 0
M  V30 971 C 98.7796 -1.52866 1.40167 0
M  V30 972 C 99.2046 -1.881 -0.00171513 0
M  V30 973 O 98.5626 -1.51957 -0.988879 0
M  V30 974 C 98.6106 -2.79235 2.28167 0
M  V30 975 O 97.7146 -3.75185 1.71201 0
M  V30 976 H 97.0556 -0.461618 0.477289 0
M  V30 977 H 99.5856 -0.905949 1.8345 0
M  V30 978 H 99.5956 -3.27963 2.42702 0
M  V30 979 H 98.2706 -2.52923 3.30156 0
M  V30 980 H 96.8476 -3.33958 1.65912 0
M  V30 981 N 99.0327 -1.24633 -0.964593 0
M  V30 982 C 100.444 -1.08045 -1.5226 0
M  V30 983 C 100.795 0.347116 -1.93105 0
M  V30 984 O 99.9197 1.23588 -1.77637 0
M  V30 985 C 100.515 -1.95514 -2.76695 0
M  V30 986 C 99.0737 -1.8314 -3.28841 0
M  V30 987 C 98.2207 -1.90262 -2.01732 0
M  V30 988 H 101.172 -1.38064 -0.782553 0
M  V30 989 H 101.193 -1.48925 -3.50145 0
M  V30 990 H 100.705 -2.99407 -2.46936 0
M  V30 991 H 98.8057 -0.82092 -3.63444 0
M  V30 992 H 98.9187 -2.67406 -3.97531 0
M  V30 993 H 97.2827 -1.34027 -2.16584 0
M  V30 994 H 98.0657 -2.9574 -1.74334 0
M  V30 995 N 100.511 1.16574 -1.06058 0
M  V30 996 C 101.739 1.90952 -0.796552 0
M  V30 997 C 102.154 1.77302 0.648808 0
M  V30 998 O 101.511 1.11605 1.44397 0
M  V30 999 C 101.562 3.41736 -1.17894 0
M  V30 1000 O 101.283 3.54975 -2.56758 0
M  V30 1001 C 102.784 4.33169 -0.942308 0
M  V30 1002 H 100.004 0.605594 -0.288959 0
M  V30 1003 H 102.548 1.47777 -1.41358 0
M  V30 1004 H 100.703 3.82623 -0.606491 0
M  V30 1005 H 101.117 4.4846 -2.72 0
M  V30 1006 H 102.591 5.37439 -1.25952 0
M  V30 1007 H 103.068 4.3903 0.122078 0
M  V30 1008 H 103.674 3.98007 -1.49902 0
M  V30 1009 N 101.989 0.842826 1.3317 0
M  V30 1010 C 102.899 0.281444 2.32906 0
M  V30 1011 C 103.915 -0.594587 1.63526 0
M  V30 1012 O 105.091 -0.49777 1.95152 0
M  V30 1013 C 102.156 -0.530929 3.42611 0
M  V30 1014 C 101.217 0.369843 4.27704 0
M  V30 1015 C 100.45 -0.403853 5.3217 0
M  V30 1016 O 100.673 -1.63513 5.46461 0
M  V30 1017 O 99.6069 0.224199 6.01482 0
M  V30 1018 H 103.433 1.10744 2.82789 0
M  V30 1019 H 101.018 0.60545 1.36582 0
M  V30 1020 H 102.9 -0.992437 4.09547 0
M  V30 1021 H 101.575 -1.33392 2.94938 0
M  V30 1022 H 100.482 0.879275 3.6362 0
M  V30 1023 H 101.815 1.13771 4.78871 0
M  V30 1024 N 103.467 -1.45747 0.599634 0
M  V30 1025 C 104.878 -1.85853 0.177681 0
M  V30 1026 C 105.229 -1.50102 -1.26348 0
M  V30 1027 O 104.354 -0.923905 -1.95686 0
M  V30 1028 C 104.949 -3.37326 0.315688 0
M  V30 1029 C 103.508 -3.76365 -0.0515144 0
M  V30 1030 C 102.655 -2.69722 0.643822 0
M  V30 1031 H 105.606 -1.36661 0.806814 0
M  V30 1032 H 105.627 -3.77778 -0.454321 0
M  V30 1033 H 105.139 -3.63315 1.36468 0
M  V30 1034 H 103.24 -3.55993 -1.09999 0
M  V30 1035 H 103.353 -4.77916 0.336594 0
M  V30 1036 H 101.717 -2.54567 0.0822881 0
M  V30 1037 H 102.5 -2.98549 1.6948 0
M  V30 1038 N 104.945 -0.338344 -1.53925 0
M  V30 1039 C 106.193 0.259245 -2.0043 0
M  V30 1040 C 106.514 1.51484 -1.22791 0
M  V30 1041 O 105.784 1.93037 -0.33368 0
M  V30 1042 H 104.364 0.0987845 -0.740439 0
M  V30 1043 H 107.026 -0.458302 -1.89435 0
M  V30 1044 H 106.122 0.505334 -3.07982 0
M  V30 1045 N 106.423 1.57458 -0.0668435 0
M  V30 1046 C 107.834 1.80776 0.466558 0
M  V30 1047 C 108.185 0.980361 1.69951 0
M  V30 1048 O 107.31 0.201441 2.1546 0
M  V30 1049 C 107.905 3.27881 0.85321 0
M  V30 1050 C 106.464 3.52062 1.3315 0
M  V30 1051 C 105.611 2.75513 0.314264 0
M  V30 1052 H 108.562 1.5598 -0.292588 0
M  V30 1053 H 108.583 3.39659 1.715 0
M  V30 1054 H 108.095 3.88075 -0.0443439 0
M  V30 1055 H 106.196 2.97167 2.24772 0
M  V30 1056 H 106.309 4.60762 1.31285 0
M  V30 1057 H 104.673 2.42123 0.790492 0
M  V30 1058 H 105.456 3.38442 -0.575477 0
M  V30 1059 N 107.901 -0.206675 1.56239 0
M  V30 1060 C 108.811 -1.27686 1.96808 0
M  V30 1061 C 109.827 -1.50455 0.874035 0
M  V30 1062 O 111.003 -1.63295 1.17884 0
M  V30 1063 C 108.068 -2.60358 2.28942 0
M  V30 1064 C 107.129 -2.45762 3.51994 0
M  V30 1065 C 106.362 -3.72108 3.82585 0
M  V30 1066 O 106.585 -4.75776 3.14631 0
M  V30 1067 O 105.519 -3.6833 4.76043 0
M  V30 1068 H 109.345 -0.962593 2.88041 0
M  V30 1069 H 106.93 -0.410746 1.43643 0
M  V30 1070 H 108.812 -3.38687 2.50737 0
M  V30 1071 H 107.487 -2.91435 1.4088 0
M  V30 1072 H 106.394 -1.65584 3.35459 0
M  V30 1073 H 107.727 -2.19621 4.40486 0
M  V30 1074 N 109.379 -1.50304 -0.473955 0
M  V30 1075 C 110.795 -1.37667 -0.807466 0
M  V30 1076 C 110.995 -0.430555 -1.96846 0
M  V30 1077 O 110.051 0.127874 -2.52176 0
M  V30 1078 C 111.364 -2.78974 -1.12223 0
M  V30 1079 C 112.912 -2.87868 -1.22885 0
M  V30 1080 C 113.387 -4.30003 -1.57676 0
M  V30 1081 N 114.878 -4.3294 -1.64673 0
M  V30 1082 C 115.613 -5.3991 -1.93091 0
M  V30 1083 N 115.109 -6.57092 -2.1955 0
M  V30 1084 N 116.902 -5.27351 -1.94569 0
M  V30 1085 H 109.053 -2.10394 0.291212 0
M  V30 1086 H 111.316 -0.945575 0.0677609 0
M  V30 1087 H 111.022 -3.50031 -0.342229 0
M  V30 1088 H 110.896 -3.16038 -2.05913 0
M  V30 1089 H 113.283 -2.17032 -1.99953 0
M  V30 1090 H 113.364 -2.54352 -0.271814 0
M  V30 1091 H 113.008 -5.01375 -0.81149 0
M  V30 1092 H 112.938 -4.61004 -2.54525 0
M  V30 1093 H 115.429 -3.48441 -1.46277 0
M  V30 1094 H 115.742 -7.34425 -2.405 0
M  V30 1095 H 114.087 -6.60272 -2.16948 0
M  V30 1096 H 117.278 -4.34801 -1.73394 0
M  V30 1097 H 117.451 -6.10805 -2.16381 0
M  V30 1098 N 110.857 0.726932 -1.39834 0
M  V30 1099 C 112.273 1.03354 -1.21615 0
M  V30 1100 C 112.473 2.01327 -0.08338 0
M  V30 1101 O 111.529 2.46158 0.56238 0
M  V30 1102 C 112.842 1.58811 -2.55342 0
M  V30 1103 C 114.39 1.70851 -2.62257 0
M  V30 1104 C 114.865 2.29716 -3.96225 0
M  V30 1105 N 116.356 2.37116 -3.97907 0
M  V30 1106 C 117.091 2.83619 -4.98345 0
M  V30 1107 N 116.587 3.29958 -6.09179 0
M  V30 1108 N 118.38 2.82901 -4.8572 0
M  V30 1109 H 110.531 0.0773069 -2.12259 0
M  V30 1110 H 112.794 0.0969102 -0.943034 0
M  V30 1111 H 112.5 0.942855 -3.38826 0
M  V30 1112 H 112.374 2.57502 -2.75632 0
M  V30 1113 H 114.761 2.34497 -1.79152 0
M  V30 1114 H 114.842 0.707913 -2.45809 0
M  V30 1115 H 114.486 1.66696 -4.79765 0
M  V30 1116 H 114.416 3.30469 -4.09997 0
M  V30 1117 H 116.907 2.04374 -3.17868 0
M  V30 1118 H 117.22 3.63976 -6.8172 0
M  V30 1119 H 115.565 3.27946 -6.12761 0
M  V30 1120 H 118.756 2.46027 -3.98231 0
M  V30 1121 H 118.929 3.18827 -5.6414 0
M  V30 1122 N 112.336 1.25143 0.95797 0
M  V30 1123 C 113.752 1.01892 1.22842 0
M  V30 1124 C 113.952 -0.266311 1.99732 0
M  V30 1125 O 113.008 -0.979913 2.3271 0
M  V30 1126 C 114.321 2.24004 2.00606 0
M  V30 1127 C 115.869 2.28731 2.13662 0
M  V30 1128 C 116.344 3.5049 2.94823 0
M  V30 1129 N 117.835 3.50866 3.02403 0
M  V30 1130 C 118.57 4.4174 3.65586 0
M  V30 1131 N 118.066 5.42882 4.30408 0
M  V30 1132 N 119.859 4.29429 3.62694 0
M  V30 1133 H 112.01 2.07718 0.443493 0
M  V30 1134 H 114.273 0.912031 0.258657 0
M  V30 1135 H 113.979 3.17395 1.51503 0
M  V30 1136 H 113.853 2.26907 3.01319 0
M  V30 1137 H 116.24 1.35865 2.61963 0
M  V30 1138 H 116.321 2.29848 1.12265 0
M  V30 1139 H 115.965 4.43676 2.47213 0
M  V30 1140 H 115.895 3.46617 3.96439 0
M  V30 1141 H 118.386 2.777 2.56302 0
M  V30 1142 H 118.699 6.0844 4.76467 0
M  V30 1143 H 117.044 5.46758 4.29047 0
M  V30 1144 H 120.235 3.49643 3.11236 0
M  V30 1145 H 120.408 5.00448 4.1165 0
M  V30 1146 N 113.814 -1.1601 1.06675 0
M  V30 1147 C 115.039 -1.91068 0.806706 0
M  V30 1148 C 115.464 -1.77112 -0.633485 0
M  V30 1149 O 114.822 -1.09908 -1.44187 0
M  V30 1150 C 114.87 -3.39655 1.21106 0
M  V30 1151 O 113.974 -4.10893 0.352189 0
M  V30 1152 H 113.315 -0.595125 0.294486 0
M  V30 1153 H 115.845 -1.46955 1.42356 0
M  V30 1154 H 115.855 -3.90434 1.18428 0
M  V30 1155 H 114.53 -3.49132 2.26008 0
M  V30 1156 H 113.107 -3.70285 0.440868 0
M  V30 1157 N 115.292 -0.849877 -1.32721 0
M  V30 1158 C 116.703 -0.506188 -1.79707 0
M  V30 1159 C 117.054 0.975627 -1.70223 0
M  V30 1160 O 116.179 1.76078 -1.25799 0
M  V30 1161 C 116.774 -0.912044 -3.26293 0
M  V30 1162 C 115.333 -0.620326 -3.71253 0
M  V30 1163 C 114.48 -1.11439 -2.53922 0
M  V30 1164 H 117.431 -1.03754 -1.20087 0
M  V30 1165 H 117.452 -0.226493 -3.79825 0
M  V30 1166 H 116.964 -1.99057 -3.33164 0
M  V30 1167 H 115.065 0.447674 -3.69901 0
M  V30 1168 H 115.178 -1.18327 -4.64258 0
M  V30 1169 H 113.542 -0.534834 -2.49021 0
M  V30 1170 H 114.325 -2.19992 -2.6355 0
M  V30 1171 N 116.77 1.45427 -0.607355 0
M  V30 1172 C 118.018 2.01841 -0.102253 0
M  V30 1173 C 118.339 1.47832 1.27164 0
M  V30 1174 O 117.609 0.672497 1.83995 0
M  V30 1175 H 116.189 0.746188 -0.0348101 0
M  V30 1176 H 118.851 1.78229 -0.7887 0
M  V30 1177 H 117.947 3.12057 -0.0518585 0
M  V30 1178 N 118.248 0.346503 1.53744 0
M  V30 1179 C 119.659 -0.136779 1.86198 0
M  V30 1180 C 120.01 -1.49749 1.26766 0
M  V30 1181 O 119.135 -2.08417 0.582355 0
M  V30 1182 C 119.73 -0.254966 3.37839 0
M  V30 1183 C 118.289 -0.682482 3.70161 0
M  V30 1184 C 117.436 0.181981 2.76702 0
M  V30 1185 H 120.387 0.565994 1.48264 0
M  V30 1186 H 120.408 -1.08195 3.64793 0
M  V30 1187 H 119.92 0.735526 3.81066 0
M  V30 1188 H 118.021 -1.68189 3.3248 0
M  V30 1189 H 118.134 -0.470326 4.76786 0
M  V30 1190 H 116.498 -0.34615 2.52337 0
M  V30 1191 H 117.281 1.16966 3.2276 0
M  V30 1192 N 119.726 -1.57421 0.075193 0
M  V30 1193 C 120.689 -2.11791 -0.876203 0
M  V30 1194 C 121.689 -1.04268 -1.22412 0
M  V30 1195 O 122.879 -1.30242 -1.15684 0
M  V30 1196 C 120.011 -2.62207 -2.17854 0
M  V30 1197 H 121.204 -2.9716 -0.40444 0
M  V30 1198 H 118.757 -1.55333 -0.173557 0
M  V30 1199 H 119.492 -1.803 -2.6956 0
M  V30 1200 H 119.277 -3.40802 -1.93897 0
M  V30 1201 H 120.767 -3.04335 -2.85955 0
M  V30 1202 N 121.204 0.198386 -1.56346 0
M  V30 1203 C 122.615 0.763358 -1.70381 0
M  V30 1204 C 122.966 1.83995 -0.681203 0
M  V30 1205 O 122.091 2.15785 0.16305 0
M  V30 1206 C 122.686 1.39143 -3.08909 0
M  V30 1207 C 121.245 1.90352 -3.2472 0
M  V30 1208 C 120.392 0.772233 -2.6633 0
M  V30 1209 H 123.343 -0.0266377 -1.58678 0
M  V30 1210 H 123.364 2.26076 -3.06055 0
M  V30 1211 H 122.876 0.607638 -3.83314 0
M  V30 1212 H 120.977 2.71461 -2.55225 0
M  V30 1213 H 121.09 2.06757 -4.3219 0
M  V30 1214 H 119.454 1.18566 -2.2542 0
M  V30 1215 H 120.237 0.00073556 -3.433 0
M  V30 1216 N 122.682 1.50554 0.465978 0
M  V30 1217 C 123.93 1.61479 1.21528 0
M  V30 1218 C 124.251 0.319596 1.92363 0
M  V30 1219 O 123.521 -0.663194 1.84333 0
M  V30 1220 H 122.101 0.595055 0.451573 0
M  V30 1221 H 124.763 1.87355 0.53704 0
M  V30 1222 H 123.859 2.42846 1.96042 0
M  V30 1223 N 124.16 -0.719506 1.40217 0
M  V30 1224 C 125.385 -1.51371 1.4178 0
M  V30 1225 C 125.81 -1.88091 0.0182355 0
M  V30 1226 O 125.168 -1.52997 -0.972707 0
M  V30 1227 C 125.216 -2.768 2.31115 0
M  V30 1228 O 124.32 -3.73349 1.7517 0
M  V30 1229 H 123.661 -0.456529 0.482159 0
M  V30 1230 H 126.191 -0.88644 1.844 0
M  V30 1231 H 126.201 -3.25371 2.46167 0
M  V30 1232 H 124.876 -2.49407 3.3282 0
M  V30 1233 H 123.453 -3.32179 1.69444 0
M  V30 1234 N 125.638 -1.25649 -0.95132 0
M  V30 1235 C 127.049 -1.09654 -1.51106 0
M  V30 1236 C 127.4 0.326615 -1.93462 0
M  V30 1237 O 126.525 1.21697 -1.78938 0
M  V30 1238 C 127.12 -1.98437 -2.74605 0
M  V30 1239 C 125.679 -1.86618 -3.2688 0
M  V30 1240 C 124.826 -1.9239 -1.99703 0
M  V30 1241 H 127.777 -1.38887 -0.767865 0
M  V30 1242 H 127.798 -1.5263 -3.48546 0
M  V30 1243 H 127.31 -3.02009 -2.43746 0
M  V30 1244 H 125.411 -0.859421 -3.62553 0
M  V30 1245 H 125.524 -2.71607 -3.94673 0
M  V30 1246 H 123.888 -1.36317 -2.15151 0
M  V30 1247 H 124.671 -2.97573 -1.71188 0
M  V30 1248 N 127.117 1.15442 -1.07289 0
M  V30 1249 C 128.365 1.85845 -0.794096 0
M  V30 1250 C 128.686 1.82692 0.681809 0
M  V30 1251 O 127.956 1.26741 1.49377 0
M  V30 1252 H 126.536 0.688089 -0.290763 0
M  V30 1253 H 129.198 1.39947 -1.3565 0
M  V30 1254 H 128.294 2.91001 -1.12804 0
M  V30 1255 N 128.595 0.856903 1.32268 0
M  V30 1256 C 129.505 0.306131 2.32594 0
M  V30 1257 C 130.521 -0.577209 1.64147 0
M  V30 1258 O 131.697 -0.477043 1.95669 0
M  V30 1259 C 128.762 -0.494561 3.43154 0
M  V30 1260 C 127.823 0.415186 4.27288 0
M  V30 1261 C 127.056 -0.347387 5.32568 0
M  V30 1262 O 127.279 -1.57708 5.48165 0
M  V30 1263 O 126.213 0.287982 6.01211 0
M  V30 1264 H 130.039 1.13737 2.81598 0
M  V30 1265 H 127.624 0.619902 1.35932 0
M  V30 1266 H 129.506 -0.948944 4.10576 0
M  V30 1267 H 128.181 -1.30257 2.96336 0
M  V30 1268 H 127.088 0.917793 3.62667 0
M  V30 1269 H 128.421 1.18844 4.77637 0
M  V30 1270 N 130.073 -1.45103 0.615059 0
M  V30 1271 C 131.003 -2.33339 -0.0865619 0
M  V30 1272 C 131.984 -1.4727 -0.851209 0
M  V30 1273 O 133.169 -1.76026 -0.820281 0
M  V30 1274 C 130.299 -3.30095 -1.07956 0
M  V30 1275 C 129.253 -4.25858 -0.427628 0
M  V30 1276 C 128.579 -5.12361 -1.5294 0
M  V30 1277 C 129.879 -5.18165 0.655944 0
M  V30 1278 H 131.573 -2.92254 0.650224 0
M  V30 1279 H 129.119 -1.40532 0.314138 0
M  V30 1280 H 131.072 -3.90698 -1.57901 0
M  V30 1281 H 129.796 -2.69355 -1.84703 0
M  V30 1282 H 128.455 -3.66564 0.0510292 0
M  V30 1283 H 128.103 -4.47984 -2.28734 0
M  V30 1284 H 127.803 -5.77238 -1.09865 0
M  V30 1285 H 129.327 -5.75833 -2.03098 0
M  V30 1286 H 130.741 -5.72796 0.240257 0
M  V30 1287 H 129.138 -5.91559 1.00888 0
M  V30 1288 H 130.208 -4.60144 1.52957 0
M  V30 1289 N 131.551 -0.354651 -1.53558 0
M  V30 1290 C 132.461 0.50515 -2.29097 0
M  V30 1291 C 133.477 1.10223 -1.34636 0
M  V30 1292 O 134.653 1.11553 -1.67684 0
M  V30 1293 C 131.718 1.63479 -3.05738 0
M  V30 1294 C 130.779 1.06636 -4.15845 0
M  V30 1295 C 130.012 2.14217 -4.88822 0
M  V30 1296 O 130.235 3.35137 -4.61562 0
M  V30 1297 O 129.169 1.77887 -5.75013 0
M  V30 1298 H 132.995 -0.109237 -3.03503 0
M  V30 1299 H 130.58 -0.119357 -1.48922 0
M  V30 1300 H 132.462 2.2918 -3.5363 0
M  V30 1301 H 131.137 2.23478 -2.34178 0
M  V30 1302 H 130.044 0.373565 -3.7223 0
M  V30 1303 H 131.377 0.511081 -4.89539 0
M  V30 1304 N 133.029 1.57378 -0.0835403 0
M  V30 1305 C 133.939 2.16897 0.894021 0
M  V30 1306 C 134.955 1.13528 1.31861 0
M  V30 1307 O 136.131 1.45848 1.3889 0
M  V30 1308 C 133.196 2.72831 2.13925 0
M  V30 1309 C 132.257 3.91115 1.76997 0
M  V30 1310 C 131.49 4.44371 2.95584 0
M  V30 1311 O 131.713 3.96596 4.09961 0
M  V30 1312 O 130.647 5.35549 2.74719 0
M  V30 1313 H 134.473 3.00814 0.417679 0
M  V30 1314 H 132.058 1.48741 0.140181 0
M  V30 1315 H 133.94 3.0863 2.86924 0
M  V30 1316 H 132.615 1.91967 2.60635 0
M  V30 1317 H 131.522 3.60148 1.01214 0
M  V30 1318 H 132.855 4.73307 1.3506 0
M  V30 1319 N 134.507 -0.190092 1.56449 0
M  V30 1320 C 135.784 -0.935886 1.71757 0
M  V30 1321 C 136.164 -2.01173 0.639726 0
M  V30 1322 O 135.512 -2.25827 -0.348502 0
M  V30 1323 C 135.722 -1.51775 3.1427 0
M  V30 1324 C 137.07 -1.99794 3.74656 0
M  V30 1325 O 138.094 -1.61607 3.1743 0
M  V30 1326 O 136.953 -2.70079 4.751 0
M  V30 1327 H 134.047 -0.439229 0.700719 0
M  V30 1328 H 136.593 -0.179395 1.68749 0
M  V30 1329 H 135.365 -0.742505 3.84191 0
M  V30 1330 H 134.988 -2.33894 3.21527 0
M  V30 1331 N 135.985 -1.50799 -0.457987 0
M  V30 1332 C 136.915 -1.73553 -1.5621 0
M  V30 1333 C 137.896 -0.584774 -1.59732 0
M  V30 1334 O 139.081 -0.825314 -1.7579 0
M  V30 1335 C 136.211 -1.84169 -2.94447 0
M  V30 1336 C 135.165 -2.99461 -3.0579 0
M  V30 1337 C 134.491 -2.95235 -4.45803 0
M  V30 1338 C 135.791 -4.39766 -2.81786 0
M  V30 1339 H 137.485 -2.66 -1.37421 0
M  V30 1340 H 135.031 -1.28002 -0.659662 0
M  V30 1341 H 136.984 -1.98672 -3.71628 0
M  V30 1342 H 135.708 -0.883545 -3.14422 0
M  V30 1343 H 134.367 -2.8463 -2.31044 0
M  V30 1344 H 134.015 -1.97239 -4.62715 0
M  V30 1345 H 133.715 -3.72642 -4.54326 0
M  V30 1346 H 135.239 -3.11803 -5.24987 0
M  V30 1347 H 136.653 -4.55054 -3.4871 0
M  V30 1348 H 135.05 -5.18722 -3.0174 0
M  V30 1349 H 136.12 -4.51229 -1.7754 0
M  V30 1350 N 137.463 0.71206 -1.40597 0
M  V30 1351 C 138.393 1.83889 -1.43899 0
M  V30 1352 C 139.374 1.67442 -0.299504 0
M  V30 1353 O 140.559 1.87421 -0.508624 0
M  V30 1354 C 137.689 3.21877 -1.30431 0
M  V30 1355 C 136.643 3.53002 -2.42019 0
M  V30 1356 C 135.969 4.90172 -2.13626 0
M  V30 1357 C 137.269 3.53643 -3.84362 0
M  V30 1358 H 138.963 1.81383 -2.38203 0
M  V30 1359 H 136.509 0.871237 -1.14654 0
M  V30 1360 H 138.462 4.00404 -1.31357 0
M  V30 1361 H 137.186 3.24968 -0.326049 0
M  V30 1362 H 135.845 2.76818 -2.40349 0
M  V30 1363 H 135.493 4.89869 -1.14182 0
M  V30 1364 H 135.193 5.11962 -2.88389 0
M  V30 1365 H 136.717 5.71028 -2.1624 0
M  V30 1366 H 138.131 4.22203 -3.87837 0
M  V30 1367 H 136.528 3.86961 -4.58673 0
M  V30 1368 H 137.598 2.52954 -4.13693 0
M  V30 1369 N 138.941 1.26152 0.944643 0
M  V30 1370 C 139.871 1.09902 2.06019 0
M  V30 1371 C 140.852 0.00519538 1.70099 0
M  V30 1372 O 142.037 0.176583 1.93396 0
M  V30 1373 C 139.167 0.727562 3.39594 0
M  V30 1374 C 138.121 1.77274 3.89561 0
M  V30 1375 C 137.447 1.25569 5.19747 0
M  V30 1376 C 138.747 3.17357 4.14827 0
M  V30 1377 H 140.441 2.03217 2.19871 0
M  V30 1378 H 137.987 0.978452 1.05652 0
M  V30 1379 H 139.94 0.600777 4.17095 0
M  V30 1380 H 138.664 -0.241287 3.25707 0
M  V30 1381 H 137.323 1.88814 3.14237 0
M  V30 1382 H 136.971 0.276783 5.02238 0
M  V30 1383 H 136.671 1.95433 5.54148 0
M  V30 1384 H 138.195 1.1415 5.99835 0
M  V30 1385 H 139.609 3.08914 4.82954 0
M  V30 1386 H 138.006 3.84781 4.60504 0
M  V30 1387 H 139.076 3.63673 3.20734 0
M  V30 1388 N 140.419 -1.14872 1.07899 0
M  V30 1389 C 141.83 -1.67367 0.827363 0
M  V30 1390 C 142.181 -1.85236 -0.646693 0
M  V30 1391 O 141.306 -1.55974 -1.50004 0
M  V30 1392 C 141.901 -3.04016 1.49532 0
M  V30 1393 C 140.46 -3.53566 1.29106 0
M  V30 1394 C 139.607 -2.29161 1.56143 0
M  V30 1395 H 142.558 -0.990083 1.24028 0
M  V30 1396 H 142.579 -3.69219 0.919643 0
M  V30 1397 H 142.091 -2.90978 2.56814 0
M  V30 1398 H 140.192 -3.71835 0.238713 0
M  V30 1399 H 140.305 -4.34661 2.01511 0
M  V30 1400 H 138.669 -2.34978 0.982717 0
M  V30 1401 H 139.452 -2.18705 2.64619 0
M  V30 1402 N 141.898 -0.863906 -1.31812 0
M  V30 1403 C 143.146 -0.470904 -1.96537 0
M  V30 1404 C 143.467 0.978771 -1.68657 0
M  V30 1405 O 142.737 1.6853 -0.998717 0
M  V30 1406 H 141.317 -0.171148 -0.72713 0
M  V30 1407 H 143.979 -1.10236 -1.60729 0
M  V30 1408 H 143.075 -0.623616 -3.05806 0
M  V30 1409 N 143.376 1.44774 -0.622745 0
M  V30 1410 C 144.339 2.29069 0.0774015 0
M  V30 1411 C 145.339 1.4059 0.780461 0
M  V30 1412 O 146.529 1.62551 0.626322 0
M  V30 1413 C 143.661 3.21974 1.12006 0
M  V30 1414 H 144.854 2.92459 -0.663901 0
M  V30 1415 H 142.407 1.51548 -0.382486 0
M  V30 1416 H 143.142 2.63417 1.89162 0
M  V30 1417 H 142.927 3.87168 0.619951 0
M  V30 1418 H 144.417 3.85318 1.60995 0
M  V30 1419 N 144.854 0.36279 1.53368 0
M  V30 1420 C 146.094 -0.227882 2.03126 0
M  V30 1421 C 146.458 -1.4622 1.24434 0
M  V30 1422 O 147.659 -2.12831 1.64184 0
M  V30 1423 C 145.93 -0.515427 3.53664 0
M  V30 1424 S 147.489 -1.08017 4.25297 0
M  V30 1425 H 144.307 -0.0665377 0.70788 0
M  V30 1426 H 146.909 0.50501 1.88865 0
M  V30 1427 H 145.613 0.390436 4.08539 0
M  V30 1428 H 145.144 -1.27747 3.72081 0
M  V30 1429 H 147.159 -2.36462 4.36234 0
M  V30 1430 N 146.332 -1.57332 0.0918853 0
M  V30 1431 C 147.743 -1.81496 -0.437739 0
M  V30 1432 C 148.094 -1.00727 -1.6837 0
M  V30 1433 O 147.219 -0.235694 -2.15113 0
M  V30 1434 C 147.814 -3.29197 -0.800939 0
M  V30 1435 C 146.373 -3.54136 -1.27532 0
M  V30 1436 C 145.52 -2.75979 -0.270392 0
M  V30 1437 H 148.471 -1.55494 0.317366 0
M  V30 1438 H 148.492 -3.42344 -1.66074 0
M  V30 1439 H 148.004 -3.87955 0.106078 0
M  V30 1440 H 146.105 -3.00705 -2.20016 0
M  V30 1441 H 146.218 -4.62792 -1.23938 0
M  V30 1442 H 144.582 -2.43349 -0.751872 0
M  V30 1443 H 145.365 -3.37484 0.629248 0
M  V30 1444 N 147.81 0.181792 -1.56548 0
M  V30 1445 C 149.058 0.89832 -1.81038 0
M  V30 1446 C 149.379 1.83232 -0.667164 0
M  V30 1447 O 148.649 1.93372 0.313673 0
M  V30 1448 H 147.229 0.33471 -0.667816 0
M  V30 1449 H 149.891 0.184116 -1.94028 0
M  V30 1450 H 148.987 1.4815 -2.74696 0
M  V30 1451 N 149.288 1.51039 0.449983 0
M  V30 1452 C 150.251 1.70863 1.5277 0
M  V30 1453 C 151.251 0.578846 1.5002 0
M  V30 1454 O 152.441 0.846213 1.52266 0
M  V30 1455 C 149.573 1.75341 2.9235 0
M  V30 1456 H 150.766 2.67034 1.36502 0
M  V30 1457 H 148.319 1.40838 0.677812 0
M  V30 1458 H 149.054 0.809383 3.14037 0
M  V30 1459 H 148.839 2.57436 2.95752 0
M  V30 1460 H 150.329 1.92559 3.70555 0
M  V30 1461 N 150.766 -0.704594 1.40972 0
M  V30 1462 C 152.043 -1.45847 1.30338 0
M  V30 1463 C 152.423 -2.10973 -0.0732344 0
M  V30 1464 O 151.771 -2.00997 -1.08685 0
M  V30 1465 C 151.981 -2.48525 2.45023 0
M  V30 1466 C 153.329 -3.1404 2.8577 0
M  V30 1467 O 154.353 -2.58848 2.44696 0
M  V30 1468 O 153.212 -4.13981 3.56766 0
M  V30 1469 H 150.306 -0.649092 0.512454 0
M  V30 1470 H 152.852 -0.735836 1.52917 0
M  V30 1471 H 151.624 -1.98994 3.36923 0
M  V30 1472 H 151.247 -3.2831 2.24272 0
M  V30 1473 N 152.244 -1.26651 -0.937939 0
M  V30 1474 C 153.154 -1.10276 -2.07066 0
M  V30 1475 C 154.17 -0.0354197 -1.73964 0
M  V30 1476 O 155.346 -0.239816 -1.99967 0
M  V30 1477 C 152.411 -0.740887 -3.38691 0
M  V30 1478 C 151.472 -1.88799 -3.85556 0
M  V30 1479 C 150.705 -1.54329 -5.10899 0
M  V30 1480 O 150.928 -0.446494 -5.6865 0
M  V30 1481 O 149.862 -2.37911 -5.52885 0
M  V30 1482 H 153.688 -2.05309 -2.23789 0
M  V30 1483 H 151.273 -1.05743 -1.0554 0
M  V30 1484 H 153.155 -0.55195 -4.1777 0
M  V30 1485 H 151.83 0.180022 -3.23199 0
M  V30 1486 H 150.737 -2.13191 -3.07409 0
M  V30 1487 H 152.07 -2.78874 -4.05574 0
M  V30 1488 N 153.722 1.14298 -1.08507 0
M  V30 1489 C 154.685 2.17607 -0.719711 0
M  V30 1490 C 155.685 1.58907 0.245997 0
M  V30 1491 O 156.875 1.74181 0.0254081 0
M  V30 1492 C 154.007 3.40842 -0.0627695 0
M  V30 1493 H 155.2 2.51443 -1.63452 0
M  V30 1494 H 152.753 1.28963 -0.88307 0
M  V30 1495 H 153.488 3.12587 0.863716 0
M  V30 1496 H 153.273 3.84713 -0.757504 0
M  V30 1497 H 154.763 4.17221 0.177786 0
M  V30 1498 N 155.201 0.870884 1.31352 0
M  V30 1499 C 156.449 0.48132 1.96285 0
M  V30 1500 C 156.77 -0.969813 1.69173 0
M  V30 1501 O 156.04 -1.67998 1.00764 0
M  V30 1502 H 154.62 0.175002 0.726212 0
M  V30 1503 H 157.282 1.11087 1.60143 0
M  V30 1504 H 156.378 0.639825 3.05471 0
M  V30 1505 N 156.679 -1.44442 0.630414 0
M  V30 1506 C 157.927 -2.01653 0.134351 0
M  V30 1507 C 158.248 -1.49836 -1.24796 0
M  V30 1508 O 157.518 -0.701684 -1.82902 0
M  V30 1509 H 156.098 -0.74554 0.0466769 0
M  V30 1510 H 158.76 -1.76952 0.816955 0
M  V30 1511 H 157.856 -3.11935 0.101498 0
M  V30 1512 N 158.157 -0.370918 -1.53173 0
M  V30 1513 C 159.405 0.216673 -2.00935 0
M  V30 1514 C 159.726 1.48845 -1.25977 0
M  V30 1515 O 158.996 1.92286 -0.374551 0
M  V30 1516 H 157.576 0.0830565 -0.742368 0
M  V30 1517 H 160.238 -0.49838 -1.8842 0
M  V30 1518 H 159.334 0.439893 -3.08984 0
M  V30 1519 N 159.635 1.57281 -0.100228 0
M  V30 1520 C 160.598 2.13158 0.842398 0
M  V30 1521 C 161.598 1.06202 1.20738 0
M  V30 1522 O 162.788 1.32066 1.13597 0
M  V30 1523 C 159.92 2.65639 2.13655 0
M  V30 1524 H 161.113 2.97766 0.357114 0
M  V30 1525 H 158.666 1.5559 0.148823 0
M  V30 1526 H 159.401 1.84566 2.66657 0
M  V30 1527 H 159.186 3.43844 1.88451 0
M  V30 1528 H 160.676 3.08846 2.81077 0
M  V30 1529 N 161.113 -0.173488 1.56642 0
M  V30 1530 C 162.023 -1.23482 1.99473 0
M  V30 1531 C 163.039 -1.48567 0.905752 0
M  V30 1532 O 164.215 -1.60758 1.21321 0
M  V30 1533 C 161.28 -2.55444 2.34413 0
M  V30 1534 C 160.341 -2.38241 3.57127 0
M  V30 1535 C 159.574 -3.63909 3.90392 0
M  V30 1536 O 159.797 -4.68996 3.24653 0
M  V30 1537 O 158.731 -3.58149 4.83749 0
M  V30 1538 H 162.557 -0.901279 2.90018 0
M  V30 1539 H 160.142 -0.380185 1.44482 0
M  V30 1540 H 162.024 -3.33292 2.57865 0
M  V30 1541 H 160.699 -2.88382 1.4703 0
M  V30 1542 H 159.606 -1.58431 3.38896 0
M  V30 1543 H 160.939 -2.10228 4.45045 0
M  V30 1544 N 162.591 -1.51276 -0.441967 0
M  V30 1545 C 163.839 -1.63392 -1.18943 0
M  V30 1546 C 164.16 -0.350159 -1.9183 0
M  V30 1547 O 163.43 0.633784 -1.85364 0
M  V30 1548 H 162.01 -0.602164 -0.442049 0
M  V30 1549 H 164.672 -1.88186 -0.507165 0
M  V30 1550 H 163.768 -2.45934 -1.92154 0
M  V30 1551 N 164.069 0.697108 -1.41344 0
M  V30 1552 C 165.346 1.45154 -1.31109 0
M  V30 1553 C 165.726 2.11009 0.0620449 0
M  V30 1554 O 165.074 2.01571 1.07618 0
M  V30 1555 C 165.284 2.47223 -2.46337 0
M  V30 1556 C 166.632 3.1252 -2.87431 0
M  V30 1557 O 167.656 2.57547 -2.46065 0
M  V30 1558 O 166.515 4.12083 -3.58957 0
M  V30 1559 H 163.609 0.646365 -0.515889 0
M  V30 1560 H 166.155 0.727716 -1.53305 0
M  V30 1561 H 164.927 1.97204 -3.37974 0
M  V30 1562 H 164.55 3.27116 -2.2601 0
M  V30 1563 N 165.547 1.27147 0.931209 0
M  V30 1564 C 166.772 1.16191 1.71797 0
M  V30 1565 C 167.197 -0.278004 1.86034 0
M  V30 1566 O 166.555 -1.20137 1.35782 0
M  V30 1567 C 166.603 1.84673 3.09723 0
M  V30 1568 O 165.707 1.14231 3.96264 0
M  V30 1569 H 165.048 0.404303 0.526721 0
M  V30 1570 H 167.578 1.68152 1.1656 0
M  V30 1571 H 167.588 1.91893 3.60057 0
M  V30 1572 H 166.263 2.89421 2.98677 0
M  V30 1573 H 164.84 1.15056 3.54706 0
M  V30 1574 N 167.025 -1.13721 1.09112 0
M  V30 1575 C 168.271 -1.85413 0.836283 0
M  V30 1576 C 168.626 -1.8175 -0.631249 0
M  V30 1577 O 167.919 -1.24238 -1.45861 0
M  V30 1578 C 168.113 -3.32861 1.30146 0
M  V30 1579 C 167.942 -3.50882 2.81268 0
M  V30 1580 C 166.712 -3.65312 3.49106 0
M  V30 1581 C 168.91 -3.47196 3.7942 0
M  V30 1582 N 166.892 -3.71563 4.88686 0
M  V30 1583 C 168.263 -3.59777 5.04936 0
M  V30 1584 C 170.318 -3.30577 3.72321 0
M  V30 1585 C 169.021 -3.57455 6.24194 0
M  V30 1586 C 171.047 -3.29562 4.91063 0
M  V30 1587 C 170.409 -3.42691 6.15421 0
M  V30 1588 H 166.508 -0.694812 0.358832 0
M  V30 1589 H 169.092 -1.36246 1.39087 0
M  V30 1590 H 167.263 -3.80602 0.774361 0
M  V30 1591 H 168.995 -3.92346 0.99229 0
M  V30 1592 H 165.75 -3.6685 2.9953 0
M  V30 1593 H 166.174 -3.78387 5.61384 0
M  V30 1594 H 170.816 -3.19332 2.77105 0
M  V30 1595 H 168.534 -3.67475 7.19714 0
M  V30 1596 H 172.12 -3.17905 4.87266 0
M  V30 1597 H 171 -3.41862 7.05762 0
M  V30 1598 N 168.503 -0.877838 -1.30888 0
M  V30 1599 C 169.413 -0.343096 -2.32078 0
M  V30 1600 C 170.429 0.551022 -1.65045 0
M  V30 1601 O 171.605 0.445854 -1.96403 0
M  V30 1602 C 168.67 0.439905 -3.43898 0
M  V30 1603 C 167.731 -0.483111 -4.26573 0
M  V30 1604 C 166.964 0.262616 -5.33053 0
M  V30 1605 O 167.187 1.48967 -5.50604 0
M  V30 1606 O 166.121 -0.383593 -6.00676 0
M  V30 1607 H 169.947 -1.18203 -2.79753 0
M  V30 1608 H 167.532 -0.64145 -1.34929 0
M  V30 1609 H 169.414 0.883504 -4.12034 0
M  V30 1610 H 168.089 1.25526 -2.98371 0
M  V30 1611 H 166.996 -0.975374 -3.61161 0
M  V30 1612 H 168.329 -1.26427 -4.75686 0
M  V30 1613 N 169.982 1.44106 -0.638065 0
M  V30 1614 C 170.892 2.34513 0.0637334 0
M  V30 1615 C 171.908 1.53018 0.828346 0
M  V30 1616 O 173.084 1.85723 0.779036 0
M  V30 1617 C 170.149 3.31095 1.02844 0
M  V30 1618 C 169.21 4.28497 0.26244 0
M  V30 1619 C 168.443 5.20465 1.1812 0
M  V30 1620 O 168.666 5.16514 2.42011 0
M  V30 1621 O 167.6 5.98251 0.661774 0
M  V30 1622 H 171.426 2.95989 -0.68003 0
M  V30 1623 H 169.011 1.43994 -0.398252 0
M  V30 1624 H 170.893 3.90526 1.58327 0
M  V30 1625 H 169.568 2.72144 1.7527 0
M  V30 1626 H 168.475 3.72592 -0.335602 0
M  V30 1627 H 169.808 4.90388 -0.421936 0
M  V30 1628 N 171.46 0.379036 1.52974 0
M  V30 1629 C 172.37 -0.468639 2.29872 0
M  V30 1630 C 173.386 -1.08067 1.36373 0
M  V30 1631 O 174.562 -1.08871 1.69438 0
M  V30 1632 C 171.627 -1.58594 3.083 0
M  V30 1633 C 170.688 -1.00007 4.17489 0
M  V30 1634 C 169.921 -2.06413 4.92168 0
M  V30 1635 O 170.144 -3.27751 4.66835 0
M  V30 1636 O 169.078 -1.68717 5.7777 0
M  V30 1637 H 172.904 0.157508 3.03291 0
M  V30 1638 H 170.489 0.143035 1.48714 0
M  V30 1639 H 172.371 -2.23525 3.57232 0
M  V30 1640 H 171.046 -2.19724 2.37703 0
M  V30 1641 H 169.953 -0.314299 3.72777 0
M  V30 1642 H 171.286 -0.433135 4.90291 0
M  V30 1643 N 172.938 -1.57226 0.108567 0
M  V30 1644 C 174.186 -1.94448 -0.550853 0
M  V30 1645 C 174.507 -0.992074 -1.67878 0
M  V30 1646 O 173.777 -0.0465 -1.95845 0
M  V30 1647 H 172.357 -0.717897 -0.206479 0
M  V30 1648 H 175.019 -1.94112 0.175062 0
M  V30 1649 H 174.115 -2.97218 -0.952259 0
M  V30 1650 N 174.416 0.165178 -1.56732 0
M  V30 1651 C 175.663 0.880807 -1.8234 0
M  V30 1652 C 175.991 1.81977 -0.686621 0
M  V30 1653 O 175.246 1.92971 0.325697 0
M  V30 1654 C 175.545 1.70405 -3.1416 0
M  V30 1655 C 175.211 0.913475 -4.4155 0
M  V30 1656 C 173.873 0.695303 -4.7615 0
M  V30 1657 C 176.225 0.359349 -5.1996 0
M  V30 1658 C 173.553 -0.0879947 -5.86634 0
M  V30 1659 C 175.905 -0.410893 -6.31264 0
M  V30 1660 C 174.569 -0.639808 -6.64427 0
M  V30 1661 H 173.839 0.32231 -0.667231 0
M  V30 1662 H 176.486 0.145402 -1.90947 0
M  V30 1663 H 174.791 2.50903 -3.00923 0
M  V30 1664 H 176.488 2.26091 -3.31186 0
M  V30 1665 H 173.078 1.09357 -4.14414 0
M  V30 1666 H 177.262 0.515228 -4.93618 0
M  V30 1667 H 172.518 -0.27503 -6.10781 0
M  V30 1668 H 176.692 -0.847494 -6.91224 0
M  V30 1669 H 174.319 -1.24864 -7.49875 0
M  V30 1670 N 175.894 1.51508 0.433938 0
M  V30 1671 C 177.142 1.6402 1.18075 0
M  V30 1672 C 177.463 0.360328 1.91642 0
M  V30 1673 O 176.733 -0.623945 1.85698 0
M  V30 1674 H 175.313 0.6045 0.43885 0
M  V30 1675 H 177.975 1.88452 0.497178 0
M  V30 1676 H 177.071 2.46949 1.90847 0
M  V30 1677 N 177.372 -0.689602 1.41712 0
M  V30 1678 C 178.597 -1.48329 1.44959 0
M  V30 1679 C 179.022 -1.8801 0.0581283 0
M  V30 1680 O 178.38 -1.55026 -0.940035 0
M  V30 1681 C 178.428 -2.71835 2.36935 0
M  V30 1682 O 177.532 -3.69549 1.8305 0
M  V30 1683 H 176.873 -0.446199 0.491734 0
M  V30 1684 H 179.403 -0.847127 1.86239 0
M  V30 1685 H 179.413 -3.20076 2.53013 0
M  V30 1686 H 178.088 -2.42291 3.38035 0
M  V30 1687 H 176.665 -3.2851 1.76452 0
M  V30 1688 N 178.85 -1.27639 -0.924453 0
M  V30 1689 C 180.075 -1.17101 -1.71179 0
M  V30 1690 C 180.5 0.268134 -1.86179 0
M  V30 1691 O 179.858 1.19415 -1.36418 0
M  V30 1692 C 179.906 -1.86313 -3.08739 0
M  V30 1693 O 179.01 -1.16331 -3.95652 0
M  V30 1694 H 178.351 -0.407091 -0.524569 0
M  V30 1695 H 180.881 -1.68767 -1.15666 0
M  V30 1696 H 180.891 -1.938 -3.59034 0
M  V30 1697 H 179.566 -2.91001 -2.97138 0
M  V30 1698 H 178.143 -1.16935 -3.54091 0
M  V30 1699 N 180.328 1.1314 -1.09713 0
M  V30 1700 C 181.553 1.88862 -0.857081 0
M  V30 1701 C 181.978 1.78729 0.586304 0
M  V30 1702 O 181.336 1.13692 1.41222 0
M  V30 1703 C 181.384 3.36325 -1.30069 0
M  V30 1704 O 180.488 4.09815 -0.461007 0
M  V30 1705 H 179.829 0.587108 -0.310162 0
M  V30 1706 H 182.359 1.43129 -1.46203 0
M  V30 1707 H 182.369 3.87157 -1.28738 0
M  V30 1708 H 181.044 3.43017 -2.35185 0
M  V30 1709 H 179.621 3.68986 -0.538888 0
M  V30 1710 N 181.806 0.884767 1.30421 0
M  V30 1711 C 183.217 0.553656 1.78302 0
M  V30 1712 C 183.568 -0.930153 1.7275 0
M  V30 1713 O 182.693 -1.72681 1.30423 0
M  V30 1714 C 183.288 0.998234 3.2376 0
M  V30 1715 C 181.847 0.71854 3.69478 0
M  V30 1716 C 180.994 1.18132 2.50879 0
M  V30 1717 H 183.945 1.06901 1.17294 0
M  V30 1718 H 183.966 0.327118 3.79091 0
M  V30 1719 H 183.478 2.0782 3.27769 0
M  V30 1720 H 181.579 -0.349444 3.70958 0
M  V30 1721 H 181.692 1.30595 4.60958 0
M  V30 1722 H 180.056 0.600669 2.47516 0
M  V30 1723 H 180.839 2.26902 2.57624 0
M  V30 1724 N 183.284 -1.43765 0.645699 0
M  V30 1725 C 184.53 -2.02197 0.156271 0
M  V30 1726 C 184.863 -1.50776 -1.22393 0
M  V30 1727 O 184.138 -0.697771 -1.81553 0
M  V30 1728 C 184.421 -3.59749 0.158872 0
M  V30 1729 C 184.274 -4.21419 1.57245 0
M  V30 1730 C 185.593 -4.37149 -0.50879 0
M  V30 1731 H 182.712 -0.734694 0.0582602 0
M  V30 1732 H 185.354 -1.71157 0.824951 0
M  V30 1733 H 183.504 -3.86325 -0.410525 0
M  V30 1734 H 185.176 -4.059 2.19186 0
M  V30 1735 H 183.419 -3.78356 2.122 0
M  V30 1736 H 184.09 -5.30482 1.52619 0
M  V30 1737 H 186.566 -4.16093 -0.024412 0
M  V30 1738 H 185.442 -5.4683 -0.476213 0
M  V30 1739 H 185.703 -4.12839 -1.58165 0
M  V30 1740 N 184.763 -0.387143 -1.52771 0
M  V30 1741 C 185.71 0.449048 -2.26389 0
M  V30 1742 C 186.68 1.05961 -1.27912 0
M  V30 1743 O 187.865 1.08804 -1.56737 0
M  V30 1744 C 185.005 1.57155 -3.0724 0
M  V30 1745 C 184.118 0.984066 -4.20643 0
M  V30 1746 C 183.253 2.07745 -4.88892 0
M  V30 1747 C 182.292 1.46574 -5.94292 0
M  V30 1748 N 181.429 2.49834 -6.56146 0
M  V30 1749 H 186.269 -0.185205 -2.97424 0
M  V30 1750 H 183.806 -0.103164 -1.46738 0
M  V30 1751 H 185.764 2.23309 -3.52405 0
M  V30 1752 H 184.394 2.17615 -2.38419 0
M  V30 1753 H 183.446 0.212193 -3.79808 0
M  V30 1754 H 184.758 0.497029 -4.96318 0
M  V30 1755 H 183.912 2.81673 -5.3735 0
M  V30 1756 H 182.651 2.59807 -4.12737 0
M  V30 1757 H 181.656 0.711696 -5.45174 0
M  V30 1758 H 182.881 0.953088 -6.72379 0
M  V30 1759 H 180.827 3.0107 -5.82832 0
M  V30 1760 H 180.744 2.05879 -7.27427 0
M  V30 1761 H 182.012 3.23399 -7.09249 0
M  V30 1762 N 186.241 1.57166 -0.116904 0
M  V30 1763 C 187.466 1.999 0.55271 0
M  V30 1764 C 187.891 0.996039 1.59564 0
M  V30 1765 O 187.249 -0.032556 1.81271 0
M  V30 1766 C 187.297 3.4152 1.15742 0
M  V30 1767 O 186.401 3.44106 2.27299 0
M  V30 1768 H 185.742 0.649447 0.138258 0
M  V30 1769 H 188.272 2.03573 -0.204759 0
M  V30 1770 H 188.282 3.79684 1.49346 0
M  V30 1771 H 186.957 4.14034 0.393493 0
M  V30 1772 H 185.534 3.17759 1.9515 0
M  V30 1773 N 187.719 -0.156864 1.56817 0
M  V30 1774 C 189.13 -0.717916 1.72345 0
M  V30 1775 C 189.481 -1.82124 0.729747 0
M  V30 1776 O 188.606 -2.16141 -0.105781 0
M  V30 1777 C 189.201 -1.30904 3.12489 0
M  V30 1778 C 187.76 -1.81676 3.29653 0
M  V30 1779 C 186.907 -0.701349 2.68284 0
M  V30 1780 H 189.858 0.0686989 1.58551 0
M  V30 1781 H 189.879 -2.17882 3.11942 0
M  V30 1782 H 189.391 -0.505796 3.8479 0
M  V30 1783 H 187.492 -2.64598 2.62333 0
M  V30 1784 H 187.605 -1.95226 4.3752 0
M  V30 1785 H 185.969 -1.12548 2.28484 0
M  V30 1786 H 186.752 0.0902846 3.43181 0
M  V30 1787 N 189.197 -1.51736 -0.425897 0
M  V30 1788 C 190.16 -1.73271 -1.50032 0
M  V30 1789 C 191.16 -0.602639 -1.4908 0
M  V30 1790 O 192.35 -0.87033 -1.509 0
M  V30 1791 C 189.482 -1.79969 -2.89523 0
M  V30 1792 H 190.675 -2.69172 -1.32237 0
M  V30 1793 H 188.228 -1.41899 -0.65532 0
M  V30 1794 H 188.963 -0.859241 -3.1271 0
M  V30 1795 H 188.748 -2.62109 -2.91619 0
M  V30 1796 H 190.238 -1.9843 -3.67444 0
M  V30 1797 N 190.675 0.682077 -1.42076 0
M  V30 1798 C 191.638 1.77756 -1.44691 0
M  V30 1799 C 192.638 1.5726 -0.335535 0
M  V30 1800 O 193.828 1.63686 -0.596037 0
M  V30 1801 C 190.96 3.16301 -1.27146 0
M  V30 1802 H 192.153 1.76826 -2.42224 0
M  V30 1803 H 189.706 0.891012 -1.28416 0
M  V30 1804 H 190.441 3.22862 -0.305075 0
M  V30 1805 H 190.226 3.32581 -2.07683 0
M  V30 1806 H 191.716 3.96241 -1.31843 0
M  V30 1807 N 192.153 1.28127 0.917671 0
M  V30 1808 C 193.564 1.13622 1.48145 0
M  V30 1809 C 193.915 -0.275207 1.9426 0
M  V30 1810 O 193.04 -1.1691 1.82102 0
M  V30 1811 C 193.635 2.05648 2.69248 0
M  V30 1812 C 192.194 1.95219 3.21818 0
M  V30 1813 C 191.341 1.97618 1.94532 0
M  V30 1814 H 194.292 1.40874 0.730772 0
M  V30 1815 H 194.313 1.61818 3.44377 0
M  V30 1816 H 193.825 3.08365 2.35653 0
M  V30 1817 H 191.926 0.955244 3.60147 0
M  V30 1818 H 192.039 2.81976 3.87333 0
M  V30 1819 H 190.403 1.41973 2.11461 0
M  V30 1820 H 191.186 3.02007 1.63238 0
M  V30 1821 N 193.631 -1.12557 1.10312 0
M  V30 1822 C 194.861 -1.87592 0.865617 0
M  V30 1823 C 195.269 -1.79851 -0.587389 0
M  V30 1824 O 194.612 -1.16949 -1.41664 0
M  V30 1825 C 194.674 -3.37665 1.23381 0
M  V30 1826 C 194.338 -3.69181 2.69359 0
M  V30 1827 C 195.335 -3.67652 3.67597 0
M  V30 1828 C 193.02 -3.98555 3.05711 0
M  V30 1829 C 195.014 -3.95053 5.00212 0
M  V30 1830 C 192.701 -4.25616 4.38514 0
M  V30 1831 C 193.699 -4.23851 5.35574 0
M  V30 1832 O 193.387 -4.50242 6.65986 0
M  V30 1833 H 193.119 -0.600442 0.310557 0
M  V30 1834 H 195.673 -1.4335 1.47105 0
M  V30 1835 H 193.903 -3.82454 0.571467 0
M  V30 1836 H 195.592 -3.94041 0.973994 0
M  V30 1837 H 196.358 -3.45024 3.40857 0
M  V30 1838 H 192.237 -3.99071 2.30789 0
M  V30 1839 H 195.781 -3.93591 5.75962 0
M  V30 1840 H 191.678 -4.47718 4.64994 0
M  V30 1841 H 192.446 -4.67867 6.71597 0
M  V30 1842 N 195.109 -0.891671 -1.2995 0
M  V30 1843 C 196.356 -0.513501 -1.95881 0
M  V30 1844 C 196.684 0.938655 -1.70351 0
M  V30 1845 O 195.939 1.67936 -1.00478 0
M  V30 1846 C 196.238 -0.742868 -3.49594 0
M  V30 1847 C 195.904 -2.17114 -3.95186 0
M  V30 1848 C 194.566 -2.56169 -4.07346 0
M  V30 1849 C 196.918 -3.10162 -4.18866 0
M  V30 1850 C 194.246 -3.87469 -4.4055 0
M  V30 1851 C 196.598 -4.41001 -4.53542 0
M  V30 1852 C 195.262 -4.79941 -4.63911 0
M  V30 1853 H 194.532 -0.187903 -0.71678 0
M  V30 1854 H 197.179 -1.1288 -1.54694 0
M  V30 1855 H 195.484 -0.044586 -3.91775 0
M  V30 1856 H 197.181 -0.429767 -3.9869 0
M  V30 1857 H 193.771 -1.85801 -3.86233 0
M  V30 1858 H 197.955 -2.81206 -4.08946 0
M  V30 1859 H 193.211 -4.17371 -4.46779 0
M  V30 1860 H 197.385 -5.13133 -4.70815 0
M  V30 1861 H 195.012 -5.81719 -4.89395 0
M  V30 1862 N 196.587 1.43421 -0.653314 0
M  V30 1863 C 197.517 2.33487 0.0246656 0
M  V30 1864 C 198.498 1.49475 0.811863 0
M  V30 1865 O 199.683 1.78139 0.773322 0
M  V30 1866 C 196.813 3.32841 0.99166 0
M  V30 1867 C 195.767 4.26842 0.314568 0
M  V30 1868 C 195.093 5.16236 1.39302 0
M  V30 1869 C 196.393 5.16243 -0.793095 0
M  V30 1870 H 198.087 2.90427 -0.727481 0
M  V30 1871 H 195.633 1.39649 -0.351287 0
M  V30 1872 H 197.586 3.94747 1.47487 0
M  V30 1873 H 196.31 2.74158 1.77497 0
M  V30 1874 H 194.969 3.663 -0.148199 0
M  V30 1875 H 194.617 4.53891 2.16776 0
M  V30 1876 H 194.317 5.79948 0.945223 0
M  V30 1877 H 195.841 5.81015 1.87759 0
M  V30 1878 H 197.255 5.71958 -0.392039 0
M  V30 1879 H 195.652 5.88676 -1.16536 0
M  V30 1880 H 196.722 4.55927 -1.65103 0
M  V30 1881 N 198.065 0.39524 1.52563 0
M  V30 1882 C 199.313 -0.184678 2.01254 0
M  V30 1883 C 199.634 -1.46822 1.28329 0
M  V30 1884 O 198.904 -1.91666 0.405094 0
M  V30 1885 H 197.484 -0.0712355 0.743596 0
M  V30 1886 H 200.146 0.528293 1.87603 0
M  V30 1887 H 199.242 -0.390681 3.09645 0
M  V30 1888 N 199.544 -1.57102 0.125237 0
M  V30 1889 C 200.769 -2.0019 -0.542101 0
M  V30 1890 C 201.194 -1.00449 -1.59034 0
M  V30 1891 O 200.552 0.0229423 -1.81285 0
M  V30 1892 C 200.6 -3.42129 -1.13929 0
M  V30 1893 O 199.704 -3.45307 -2.2547 0
M  V30 1894 H 199.045 -0.650171 -0.134812 0
M  V30 1895 H 201.575 -2.03461 0.215553 0
M  V30 1896 H 201.585 -3.80471 -1.4733 0
M  V30 1897 H 200.26 -4.14237 -0.371531 0
M  V30 1898 H 198.837 -3.1879 -1.93462 0
M  V30 1899 N 201.022 0.148545 -1.56898 0
M  V30 1900 C 202.247 0.880385 -1.87787 0
M  V30 1901 C 202.672 1.74018 -0.714093 0
M  V30 1902 O 202.03 1.78153 0.336343 0
M  V30 1903 C 202.078 1.71422 -3.17249 0
M  V30 1904 O 201.182 2.8183 -3.01074 0
M  V30 1905 H 200.523 0.245301 -0.617028 0
M  V30 1906 H 203.053 0.139826 -2.04122 0
M  V30 1907 H 203.063 2.10954 -3.49231 0
M  V30 1908 H 201.738 1.08284 -4.01556 0
M  V30 1909 H 200.315 2.45715 -2.80497 0
M  V30 1910 N 202.5 1.5196 0.417844 0
M  V30 1911 C 203.747 1.65591 1.16559 0
M  V30 1912 C 204.075 0.381565 1.90721 0
M  V30 1913 O 203.33 -0.635156 1.85106 0
M  V30 1914 C 203.629 2.82269 2.19223 0
M  V30 1915 C 203.295 4.20819 1.61933 0
M  V30 1916 C 201.957 4.58506 1.46033 0
M  V30 1917 C 204.309 5.07196 1.20008 0
M  V30 1918 C 201.637 5.80257 0.867113 0
M  V30 1919 C 203.989 6.29544 0.621086 0
M  V30 1920 C 202.653 6.65987 0.449144 0
M  V30 1921 H 201.923 0.605939 0.42652 0
M  V30 1922 H 204.57 1.86041 0.45397 0
M  V30 1923 H 202.875 2.56118 2.96498 0
M  V30 1924 H 204.572 2.90012 2.76936 0
M  V30 1925 H 201.162 3.91116 1.7529 0
M  V30 1926 H 205.346 4.7867 1.31105 0
M  V30 1927 H 200.602 6.07124 0.721833 0
M  V30 1928 H 204.776 6.95805 0.287798 0
M  V30 1929 H 202.403 7.60199 -0.012632 0
M  V30 1930 N 203.978 -0.674533 1.42435 0
M  V30 1931 C 205.203 -1.46784 1.46524 0
M  V30 1932 C 205.628 -1.87938 0.078066 0
M  V30 1933 O 204.986 -1.56014 -0.92354 0
M  V30 1934 C 205.034 -2.69307 2.39805 0
M  V30 1935 O 204.138 -3.67587 1.86959 0
M  V30 1936 H 203.479 -0.440959 0.496439 0
M  V30 1937 H 206.009 -0.827326 1.87127 0
M  V30 1938 H 206.019 -3.17374 2.56393 0
M  V30 1939 H 204.694 -2.38692 3.40586 0
M  V30 1940 H 203.271 -3.2662 1.79927 0
M  V30 1941 N 205.456 -1.28612 -0.910864 0
M  V30 1942 C 206.867 -1.14406 -1.47541 0
M  V30 1943 C 207.218 0.264901 -1.94403 0
M  V30 1944 O 206.343 1.15942 -1.82719 0
M  V30 1945 C 206.938 -2.07073 -2.68153 0
M  V30 1946 C 205.497 -1.96923 -3.20778 0
M  V30 1947 C 204.644 -1.98646 -1.93481 0
M  V30 1948 H 207.595 -1.41259 -0.723291 0
M  V30 1949 H 207.616 -1.63642 -3.43514 0
M  V30 1950 H 207.128 -3.09611 -2.34015 0
M  V30 1951 H 205.229 -0.97433 -3.59635 0
M  V30 1952 H 205.342 -2.84026 -3.85832 0
M  V30 1953 H 203.706 -1.43093 -2.10705 0
M  V30 1954 H 204.489 -3.02868 -1.61634 0
M  V30 1955 N 206.934 1.1197 -1.10907 0
M  V30 1956 C 208.18 1.8386 -0.855773 0
M  V30 1957 C 208.513 1.84134 0.617103 0
M  V30 1958 O 207.788 1.29041 1.45529 0
M  V30 1959 C 208.071 3.31305 -1.411 0
M  V30 1960 C 207.924 3.39456 -2.9511 0
M  V30 1961 C 209.243 4.2721 -1.05736 0
M  V30 1962 H 206.362 0.667545 -0.312334 0
M  V30 1963 H 209.004 1.31331 -1.37303 0
M  V30 1964 H 207.154 3.76169 -0.97105 0
M  V30 1965 H 208.826 3.03191 -3.47668 0
M  V30 1966 H 207.069 2.79849 -3.31462 0
M  V30 1967 H 207.74 4.43209 -3.29044 0
M  V30 1968 H 210.216 3.90497 -1.43706 0
M  V30 1969 H 209.092 5.28775 -1.47269 0
M  V30 1970 H 209.353 4.42088 0.0325958 0
M  V30 1971 N 208.412 0.89855 1.29475 0
M  V30 1972 C 209.828 0.594483 1.48115 0
M  V30 1973 C 210.028 -0.86431 1.82022 0
M  V30 1974 O 209.084 -1.64457 1.91599 0
M  V30 1975 C 210.397 1.51932 2.59494 0
M  V30 1976 C 211.945 1.5244 2.7337 0
M  V30 1977 C 212.42 2.43548 3.87877 0
M  V30 1978 N 213.911 2.41589 3.95208 0
M  V30 1979 C 214.646 3.08789 4.83153 0
M  V30 1980 N 214.142 3.85265 5.75798 0
M  V30 1981 N 215.935 2.97952 4.76635 0
M  V30 1982 H 208.086 1.84207 1.05742 0
M  V30 1983 H 210.349 0.789251 0.525154 0
M  V30 1984 H 210.055 2.55865 2.41301 0
M  V30 1985 H 209.929 1.23899 3.56271 0
M  V30 1986 H 212.316 0.492518 2.90961 0
M  V30 1987 H 212.397 1.8451 1.77172 0
M  V30 1988 H 212.041 3.46829 3.71041 0
M  V30 1989 H 211.971 2.08788 4.83441 0
M  V30 1990 H 214.462 1.86025 3.28943 0
M  V30 1991 H 214.775 4.33598 6.39697 0
M  V30 1992 H 213.12 3.89371 5.75687 0
M  V30 1993 H 216.311 2.37723 4.03244 0
M  V30 1994 H 216.484 3.50599 5.44962 0
M  V30 1995 N 209.89 -1.43072 0.660911 0
M  V30 1996 C 211.13 -2.03596 0.181146 0
M  V30 1997 C 211.494 -1.51057 -1.18515 0
M  V30 1998 O 212.695 -2.03275 -1.75877 0
M  V30 1999 C 210.966 -3.56845 0.19911 0
M  V30 2000 S 212.525 -4.38289 -0.211684 0
M  V30 2001 H 209.343 -0.706954 0.0757479 0
M  V30 2002 H 211.945 -1.75027 0.870965 0
M  V30 2003 H 210.649 -3.92583 1.1961 0
M  V30 2004 H 210.18 -3.90067 -0.510996 0
M  V30 2005 H 212.195 -4.74583 -1.44863 0
M  V30 2006 N 211.368 -0.403325 -1.52352 0
M  V30 2007 C 212.616 0.174003 -2.0135 0
M  V30 2008 C 212.937 1.46139 -1.29106 0
M  V30 2009 O 212.207 1.91448 -0.415253 0
M  V30 2010 H 210.787 0.0672911 -0.743963 0
M  V30 2011 H 213.449 -0.538235 -1.87321 0
M  V30 2012 H 212.545 0.374254 -3.09848 0
M  V30 2013 N 212.846 1.57033 -0.133567 0
M  V30 2014 C 214.094 1.953 0.519848 0
M  V30 2015 C 214.415 1.01866 1.66278 0
M  V30 2016 O 213.685 0.0776513 1.95746 0
M  V30 2017 H 212.265 0.721091 0.195032 0
M  V30 2018 H 214.927 1.93809 -0.205921 0
M  V30 2019 H 214.023 2.98695 0.904854 0
M  V30 2020 N 214.325 -0.140222 1.56975 0
M  V30 2021 C 215.736 -0.699596 1.73097 0
M  V30 2022 C 216.087 -1.8134 0.749022 0
M  V30 2023 O 215.212 -2.16241 -0.0828503 0
M  V30 2024 C 215.807 -1.27582 3.1386 0
M  V30 2025 C 214.366 -1.78169 3.31561 0
M  V30 2026 C 213.513 -0.672855 2.69013 0
M  V30 2027 H 216.464 0.0855115 1.58469 0
M  V30 2028 H 216.485 -2.14561 3.14235 0
M  V30 2029 H 215.997 -0.464955 3.85305 0
M  V30 2030 H 214.098 -2.61801 2.65124 0
M  V30 2031 H 214.211 -1.90574 4.39566 0
M  V30 2032 H 212.575 -1.10118 2.29665 0
M  V30 2033 H 213.358 0.126679 3.43066 0
M  V30 2034 N 215.803 -1.52179 -0.40978 0
M  V30 2035 C 217.051 -1.65878 -1.15451 0
M  V30 2036 C 217.372 -0.390771 -1.91044 0
M  V30 2037 O 216.642 0.594323 -1.86667 0
M  V30 2038 H 215.222 -0.611405 -0.429177 0
M  V30 2039 H 217.884 -1.89219 -0.467134 0
M  V30 2040 H 216.98 -2.49954 -1.86894 0
M  V30 2041 N 217.281 0.66697 -1.42791 0
M  V30 2042 C 218.558 1.4234 -1.34159 0
M  V30 2043 C 218.938 2.11093 0.0172729 0
M  V30 2044 O 218.286 2.03808 1.03318 0
M  V30 2045 C 218.496 2.41942 -2.51526 0
M  V30 2046 C 219.844 3.06353 -2.93995 0
M  V30 2047 O 220.868 2.52269 -2.51473 0
M  V30 2048 O 219.727 4.04376 -3.67617 0
M  V30 2049 H 216.821 0.635277 -0.529483 0
M  V30 2050 H 219.367 0.695034 -1.54814 0
M  V30 2051 H 218.139 1.89991 -3.42081 0
M  V30 2052 H 217.762 3.22249 -2.32898 0
M  V30 2053 N 218.759 1.29093 0.90403 0
M  V30 2054 C 219.722 1.1386 1.98919 0
M  V30 2055 C 220.722 0.0753457 1.60623 0
M  V30 2056 O 221.912 0.321931 1.71199 0
M  V30 2057 C 219.044 0.740198 3.32767 0
M  V30 2058 H 220.237 2.10246 2.13861 0
M  V30 2059 H 217.79 1.12218 1.08797 0
M  V30 2060 H 218.525 -0.223997 3.23525 0
M  V30 2061 H 218.31 1.50838 3.61926 0
M  V30 2062 H 219.8 0.656546 4.12407 0
M  V30 2063 N 220.237 -1.11381 1.11499 0
M  V30 2064 C 221.462 -1.87475 0.887019 0
M  V30 2065 C 221.887 -1.79639 -0.557796 0
M  V30 2066 O 221.245 -1.15924 -1.39396 0
M  V30 2067 C 221.293 -3.34213 1.35403 0
M  V30 2068 O 220.397 -4.0903 0.526146 0
M  V30 2069 H 219.738 -0.582099 0.319463 0
M  V30 2070 H 222.268 -1.40785 1.48461 0
M  V30 2071 H 222.278 -3.8506 1.34881 0
M  V30 2072 H 220.953 -3.39232 2.40612 0
M  V30 2073 H 219.53 -3.68082 0.597522 0
M  V30 2074 N 221.715 -0.905404 -1.28997 0
M  V30 2075 C 223.126 -0.581953 -1.77398 0
M  V30 2076 C 223.477 0.902552 -1.74208 0
M  V30 2077 O 222.602 1.70584 -1.33154 0
M  V30 2078 C 223.197 -1.04961 -3.22131 0
M  V30 2079 C 221.756 -0.777229 -3.68288 0
M  V30 2080 C 220.903 -1.22109 -2.48967 0
M  V30 2081 H 223.854 -1.08754 -1.15578 0
M  V30 2082 H 223.875 -0.387387 -3.78523 0
M  V30 2083 H 223.387 -2.13008 -3.24421 0
M  V30 2084 H 221.488 0.290383 -3.71467 0
M  V30 2085 H 221.601 -1.37911 -4.58822 0
M  V30 2086 H 219.965 -0.639971 -2.46529 0
M  V30 2087 H 220.748 -2.30972 -2.53982 0
M  V30 2088 N 223.193 1.4272 -0.668489 0
M  V30 2089 C 224.609 1.55992 -0.33745 0
M  V30 2090 C 224.809 1.64933 1.15756 0
M  V30 2091 O 223.865 1.61278 1.94282 0
M  V30 2092 C 225.178 2.81314 -1.06222 0
M  V30 2093 C 226.726 2.95078 -1.04394 0
M  V30 2094 C 227.201 4.23252 -1.74991 0
M  V30 2095 N 228.692 4.3015 -1.71829 0
M  V30 2096 C 229.427 5.28127 -2.23315 0
M  V30 2097 N 228.923 6.32293 -2.83156 0
M  V30 2098 N 230.716 5.19882 -2.13726 0
M  V30 2099 H 222.867 1.3516 -1.63846 0
M  V30 2100 H 225.13 0.650174 -0.689912 0
M  V30 2101 H 224.836 2.80823 -2.11734 0
M  V30 2102 H 224.71 3.72012 -0.62344 0
M  V30 2103 H 227.097 2.951 0.0028244 0
M  V30 2104 H 227.178 2.05627 -1.52155 0
M  V30 2105 H 226.822 4.2399 -2.79633 0
M  V30 2106 H 226.752 5.11626 -1.24685 0
M  V30 2107 H 229.243 3.55499 -1.28175 0
M  V30 2108 H 229.556 7.03398 -3.20079 0
M  V30 2109 H 227.901 6.32873 -2.87223 0
M  V30 2110 H 231.092 4.37423 -1.66669 0
M  V30 2111 H 231.265 5.96077 -2.54158 0
M  V30 2112 N 224.671 0.411399 1.52136 0
M  V30 2113 C 225.919 -0.163322 2.01439 0
M  V30 2114 C 226.24 -1.45453 1.29879 0
M  V30 2115 O 225.51 -1.91225 0.4254 0
M  V30 2116 H 224.09 -0.0633447 0.744309 0
M  V30 2117 H 226.752 0.548161 1.87033 0
M  V30 2118 H 225.848 -0.357817 3.10042 0
M  V30 2119 N 226.149 -1.5696 0.141893 0
M  V30 2120 C 227.389 -1.9785 -0.513304 0
M  V30 2121 C 227.753 -1.02467 -1.62371 0
M  V30 2122 O 228.954 -1.32382 -2.33941 0
M  V30 2123 C 227.225 -3.42797 -1.01118 0
M  V30 2124 S 228.784 -4.05709 -1.67169 0
M  V30 2125 H 225.602 -0.691318 -0.166135 0
M  V30 2126 H 228.204 -1.94114 0.232398 0
M  V30 2127 H 226.908 -4.0995 -0.192179 0
M  V30 2128 H 226.439 -3.50235 -1.79162 0
M  V30 2129 H 228.454 -3.98342 -2.95868 0
M  V30 2130 N 227.627 0.131896 -1.57047 0
M  V30 2131 C 228.875 0.840269 -1.83804 0
M  V30 2132 C 229.196 1.81017 -0.72512 0
M  V30 2133 O 228.466 1.94272 0.251995 0
M  V30 2134 H 227.046 0.313294 -0.678127 0
M  V30 2135 H 229.708 0.122294 -1.94516 0
M  V30 2136 H 228.804 1.39335 -2.79271 0
M  V30 2137 N 229.106 1.52395 0.401703 0
M  V30 2138 C 230.069 1.75636 1.47257 0
M  V30 2139 C 231.069 0.62628 1.48103 0
M  V30 2140 O 232.259 0.894227 1.49497 0
M  V30 2141 C 229.391 1.84553 2.86624 0
M  V30 2142 H 230.584 2.71241 1.27938 0
M  V30 2143 H 228.137 1.42923 0.632662 0
M  V30 2144 H 228.872 0.908882 3.11303 0
M  V30 2145 H 228.657 2.66715 2.87412 0
M  V30 2146 H 230.147 2.04251 3.64241 0
M  V30 2147 N 230.584 -0.659388 1.43143 0
M  V30 2148 C 232 -0.974337 1.26407 0
M  V30 2149 C 232.2 -2.007 0.179341 0
M  V30 2150 O 231.256 -2.4856 -0.444295 0
M  V30 2151 C 232.569 -1.46447 2.62628 0
M  V30 2152 C 234.117 -1.58144 2.7011 0
M  V30 2153 C 234.592 -2.1055 4.06734 0
M  V30 2154 N 236.083 -2.17861 4.08767 0
M  V30 2155 C 236.818 -2.59519 5.1131 0
M  V30 2156 N 236.314 -3.00518 6.24228 0
M  V30 2157 N 238.107 -2.59404 4.98664 0
M  V30 2158 H 230.258 0.0240528 2.12386 0
M  V30 2159 H 232.521 -0.0518065 0.946583 0
M  V30 2160 H 232.227 -0.780123 3.42939 0
M  V30 2161 H 232.101 -2.44058 2.87603 0
M  V30 2162 H 234.488 -2.25682 1.90136 0
M  V30 2163 H 234.569 -0.589828 2.48907 0
M  V30 2164 H 234.213 -1.43616 4.87172 0
M  V30 2165 H 234.143 -3.10531 4.25298 0
M  V30 2166 H 236.634 -1.88975 3.27257 0
M  V30 2167 H 236.947 -3.31036 6.98309 0
M  V30 2168 H 235.292 -2.98337 6.2771 0
M  V30 2169 H 238.483 -2.26747 4.09516 0
M  V30 2170 H 238.656 -2.91548 5.78709 0
M  V30 2171 N 232.062 -1.29571 -0.897171 0
M  V30 2172 C 233.478 -1.07637 -1.17841 0
M  V30 2173 C 233.678 0.170713 -2.00776 0
M  V30 2174 O 232.734 0.867768 -2.3712 0
M  V30 2175 C 234.047 -2.3332 -1.8969 0
M  V30 2176 C 235.595 -2.38664 -2.02505 0
M  V30 2177 C 236.07 -3.64157 -2.77765 0
M  V30 2178 N 237.561 -3.64894 -2.85318 0
M  V30 2179 C 238.296 -4.58679 -3.44094 0
M  V30 2180 N 237.792 -5.62799 -4.04017 0
M  V30 2181 N 239.585 -4.46245 -3.41793 0
M  V30 2182 H 231.736 -2.09598 -0.343883 0
M  V30 2183 H 233.999 -0.923333 -0.214848 0
M  V30 2184 H 233.705 -3.24262 -1.36187 0
M  V30 2185 H 233.579 -2.41025 -2.9015 0
M  V30 2186 H 235.966 -1.48208 -2.55183 0
M  V30 2187 H 236.047 -2.34943 -1.01171 0
M  V30 2188 H 235.691 -4.54965 -2.25763 0
M  V30 2189 H 235.621 -3.65137 -3.7945 0
M  V30 2190 H 238.112 -2.89613 -2.42761 0
M  V30 2191 H 238.425 -6.3048 -4.46895 0
M  V30 2192 H 236.77 -5.66605 -4.02472 0
M  V30 2193 H 239.961 -3.64094 -2.94199 0
M  V30 2194 H 240.134 -5.19518 -3.87304 0
M  V30 2195 N 233.54 1.10788 -1.12088 0
M  V30 2196 C 234.503 2.15207 -0.788577 0
M  V30 2197 C 235.503 1.59609 0.195317 0
M  V30 2198 O 236.693 1.74174 -0.0300193 0
M  V30 2199 C 233.825 3.4047 -0.171174 0
M  V30 2200 H 235.018 2.46116 -1.71368 0
M  V30 2201 H 232.571 1.26089 -0.923652 0
M  V30 2202 H 233.306 3.15176 0.763832 0
M  V30 2203 H 233.091 3.82109 -0.879514 0
M  V30 2204 H 234.581 4.17576 0.04496 0
M  V30 2205 N 235.018 0.912232 1.28515 0
M  V30 2206 C 236.266 0.543523 1.94654 0
M  V30 2207 C 236.587 -0.9155 1.72173 0
M  V30 2208 O 235.857 -1.64708 1.06058 0
M  V30 2209 H 234.437 0.198017 0.720277 0
M  V30 2210 H 237.099 1.16126 1.56527 0
M  V30 2211 H 236.195 0.736684 3.03281 0
M  V30 2212 N 236.496 -1.42363 0.676048 0
M  V30 2213 C 237.406 -2.346 -0.00153389 0
M  V30 2214 C 238.422 -1.5516 -0.787485 0
M  V30 2215 O 239.598 -1.87723 -0.729521 0
M  V30 2216 C 236.663 -3.33705 -0.940298 0
M  V30 2217 C 235.724 -4.29042 -0.148739 0
M  V30 2218 C 234.957 -5.23413 -1.04279 0
M  V30 2219 O 235.18 -5.22749 -2.28232 0
M  V30 2220 O 234.114 -5.99795 -0.502925 0
M  V30 2221 H 237.94 -2.94082 0.758268 0
M  V30 2222 H 235.525 -1.42888 0.436289 0
M  V30 2223 H 237.407 -3.94586 -1.47917 0
M  V30 2224 H 236.082 -2.76695 -1.67993 0
M  V30 2225 H 234.989 -3.71571 0.43427 0
M  V30 2226 H 236.322 -4.89097 0.551805 0
M  V30 2227 N 237.974 -0.419461 -1.51915 0
M  V30 2228 C 239.222 0.152637 -2.01523 0
M  V30 2229 C 239.543 1.44762 -1.30649 0
M  V30 2230 O 238.813 1.90997 -0.435535 0
M  V30 2231 H 237.393 0.0593966 -0.744635 0
M  V30 2232 H 240.055 -0.558073 -1.86739 0
M  V30 2233 H 239.151 0.341369 -3.10227 0
M  V30 2234 N 239.452 1.56882 -0.150215 0
M  V30 2235 C 240.868 1.58263 0.20617 0
M  V30 2236 C 241.068 1.16464 1.64434 0
M  V30 2237 O 240.124 0.866422 2.3717 0
M  V30 2238 C 241.437 3.00649 -0.0555025 0
M  V30 2239 C 242.985 3.12999 0.00795388 0
M  V30 2240 C 243.46 4.5744 -0.226429 0
M  V30 2241 N 244.951 4.62875 -0.173469 0
M  V30 2242 C 245.686 5.72454 -0.329288 0
M  V30 2243 N 245.182 6.90669 -0.543005 0
M  V30 2244 N 246.975 5.61467 -0.266666 0
M  V30 2245 H 239.126 1.82345 -1.08922 0
M  V30 2246 H 241.389 0.844149 -0.431413 0
M  V30 2247 H 241.095 3.3563 -1.05096 0
M  V30 2248 H 240.969 3.71337 0.66246 0
M  V30 2249 H 243.356 2.77857 0.993966 0
M  V30 2250 H 243.437 2.4479 -0.742388 0
M  V30 2251 H 243.081 4.93287 -1.20956 0
M  V30 2252 H 243.011 5.2378 0.544274 0
M  V30 2253 H 245.502 3.77898 -0.0130709 0
M  V30 2254 H 245.815 7.70045 -0.651922 0
M  V30 2255 H 244.16 6.92581 -0.579366 0
M  V30 2256 H 247.351 4.67992 -0.100441 0
M  V30 2257 H 247.524 6.46816 -0.391535 0
M  V30 2258 N 240.93 -0.123565 1.57115 0
M  V30 2259 C 242.346 -0.476961 1.52306 0
M  V30 2260 C 242.546 -1.82109 0.86248 0
M  V30 2261 O 241.602 -2.48586 0.442884 0
M  V30 2262 C 242.915 -0.465661 2.97073 0
M  V30 2263 C 244.463 -0.549534 3.08138 0
M  V30 2264 C 244.938 -0.568669 4.54456 0
M  V30 2265 N 246.429 -0.630237 4.58892 0
M  V30 2266 C 247.164 -0.666415 5.69514 0
M  V30 2267 N 246.66 -0.660514 6.89644 0
M  V30 2268 N 248.453 -0.709077 5.5761 0
M  V30 2269 H 240.604 0.757198 1.98445 0
M  V30 2270 H 242.867 0.278808 0.906074 0
M  V30 2271 H 242.573 0.454232 3.48754 0
M  V30 2272 H 242.447 -1.29513 3.54269 0
M  V30 2273 H 244.834 -1.45985 2.56461 0
M  V30 2274 H 244.915 0.307532 2.53945 0
M  V30 2275 H 244.559 0.337581 5.06777 0
M  V30 2276 H 244.489 -1.44256 5.06456 0
M  V30 2277 H 246.98 -0.641146 3.72421 0
M  V30 2278 H 247.293 -0.690616 7.69708 0
M  V30 2279 H 245.638 -0.628012 6.92157 0
M  V30 2280 H 248.829 -0.711019 4.62668 0
M  V30 2281 H 249.002 -0.733804 6.43832 0
M  V30 2282 N 242.408 -1.52605 -0.393616 0
M  V30 2283 C 243.633 -1.71592 -1.16495 0
M  V30 2284 C 244.058 -0.43133 -1.83088 0
M  V30 2285 O 243.416 0.612523 -1.7064 0
M  V30 2286 C 243.464 -2.86318 -2.19213 0
M  V30 2287 O 242.568 -2.52969 -3.257 0
M  V30 2288 H 241.909 -0.570734 -0.33935 0
M  V30 2289 H 244.439 -1.99377 -0.459324 0
M  V30 2290 H 244.449 -3.1168 -2.63286 0
M  V30 2291 H 243.124 -3.79511 -1.7013 0
M  V30 2292 H 241.701 -2.38332 -2.86797 0
M  V30 2293 N 243.887 0.651787 -1.4349 0
M  V30 2294 C 245.298 1.233 -1.40193 0
M  V30 2295 C 245.649 1.9591 -0.106727 0
M  V30 2296 O 244.774 2.01316 0.793773 0
M  V30 2297 C 245.369 2.24257 -2.53957 0
M  V30 2298 C 243.928 2.77852 -2.5392 0
M  V30 2299 C 243.075 1.52517 -2.3159 0
M  V30 2300 H 246.026 0.443717 -1.52371 0
M  V30 2301 H 246.047 3.0646 -2.25528 0
M  V30 2302 H 245.559 1.71382 -3.4821 0
M  V30 2303 H 243.66 3.34786 -1.63551 0
M  V30 2304 H 243.773 3.25299 -3.51735 0
M  V30 2305 H 242.137 1.79915 -1.80285 0
M  V30 2306 H 242.92 1.01574 -3.27929 0
M  V30 2307 N 245.365 1.30045 0.890287 0
M  V30 2308 C 246.781 1.08261 1.17268 0
M  V30 2309 C 246.981 -0.160063 2.00863 0
M  V30 2310 O 246.037 -0.855181 2.37577 0
M  V30 2311 C 247.35 2.34323 1.8845 0
M  V30 2312 C 248.898 2.39735 2.01237 0
M  V30 2313 C 249.373 3.65625 2.7583 0
M  V30 2314 N 250.864 3.66402 2.83379 0
M  V30 2315 C 251.599 4.60498 3.41657 0
M  V30 2316 N 251.095 5.64933 4.01026 0
M  V30 2317 N 252.888 4.48051 3.39421 0
M  V30 2318 H 245.039 2.09777 0.332762 0
M  V30 2319 H 247.302 0.92446 0.209948 0
M  V30 2320 H 247.008 3.2498 1.34465 0
M  V30 2321 H 246.882 2.4256 2.88867 0
M  V30 2322 H 249.269 1.4956 2.54393 0
M  V30 2323 H 249.35 2.35476 0.999232 0
M  V30 2324 H 248.994 4.56156 2.23347 0
M  V30 2325 H 248.924 3.67144 3.77509 0
M  V30 2326 H 251.415 2.90896 2.41222 0
M  V30 2327 H 251.728 6.32841 4.43545 0
M  V30 2328 H 250.073 5.68732 3.99461 0
M  V30 2329 H 253.264 3.65649 2.92264 0
M  V30 2330 H 253.437 5.21565 3.84544 0
M  V30 2331 N 246.843 -1.10192 1.12674 0
M  V30 2332 C 248.254 -1.63707 0.897604 0
M  V30 2333 C 248.605 -1.87812 -0.567546 0
M  V30 2334 O 247.73 -1.62196 -1.43253 0
M  V30 2335 C 248.325 -2.974 1.62292 0
M  V30 2336 C 246.884 -3.47772 1.43986 0
M  V30 2337 C 246.031 -2.22332 1.65722 0
M  V30 2338 H 248.982 -0.936587 1.28116 0
M  V30 2339 H 249.003 -3.64986 1.07541 0
M  V30 2340 H 248.515 -2.79824 2.68924 0
M  V30 2341 H 246.616 -3.70487 0.396206 0
M  V30 2342 H 246.729 -4.25723 2.19765 0
M  V30 2343 H 245.093 -2.30599 1.08149 0
M  V30 2344 H 245.876 -2.07285 2.73657 0
M  V30 2345 N 248.321 -0.919034 -1.28029 0
M  V30 2346 C 249.598 -0.473668 -1.89778 0
M  V30 2347 C 249.978 1.04783 -1.83259 0
M  V30 2348 O 249.326 1.8982 -1.27202 0
M  V30 2349 C 249.536 -1.00998 -3.34066 0
M  V30 2350 C 250.884 -1.06525 -4.1102 0
M  V30 2351 O 251.908 -0.958996 -3.43048 0
M  V30 2352 O 250.767 -1.22776 -5.3253 0
M  V30 2353 H 247.861 -0.15098 -0.813101 0
M  V30 2354 H 250.407 -1.01016 -1.36359 0
M  V30 2355 H 249.179 -2.05392 -3.33061 0
M  V30 2356 H 248.802 -0.454626 -3.94992 0
M  V30 2357 N 249.799 1.42003 -0.683588 0
M  V30 2358 C 250.749 2.27997 0.0121992 0
M  V30 2359 C 251.733 1.4156 0.764822 0
M  V30 2360 O 252.925 1.64935 0.642287 0
M  V30 2361 C 250.054 3.29706 0.956482 0
M  V30 2362 C 249.14 4.23625 0.200739 0
M  V30 2363 N 249.531 4.99448 -0.799087 0
M  V30 2364 C 247.829 4.43845 0.437937 0
M  V30 2365 C 248.53 5.68102 -1.25041 0
M  V30 2366 N 247.506 5.40511 -0.578648 0
M  V30 2367 H 251.308 2.84048 -0.754564 0
M  V30 2368 H 248.822 1.54071 -0.513398 0
M  V30 2369 H 250.819 3.90124 1.47 0
M  V30 2370 H 249.479 2.75216 1.72297 0
M  V30 2371 H 250.49 5.04303 -1.17893 0
M  V30 2372 H 247.167 4.00382 1.18325 0
M  V30 2373 H 248.557 6.38913 -2.07942 0
M  V30 2374 N 251.277 0.427512 1.51691 0
M  V30 2375 C 252.688 -0.0378867 1.86662 0
M  V30 2376 C 253.039 -1.42819 1.34525 0
M  V30 2377 O 252.164 -2.05037 0.692014 0
M  V30 2378 C 252.759 -0.0755266 3.38716 0
M  V30 2379 C 251.318 -0.485309 3.73258 0
M  V30 2380 C 250.465 0.328399 2.75349 0
M  V30 2381 H 253.416 0.64379 1.45055 0
M  V30 2382 H 253.437 -0.887056 3.70016 0
M  V30 2383 H 252.949 0.936487 3.76632 0
M  V30 2384 H 251.05 -1.50329 3.40928 0
M  V30 2385 H 251.163 -0.21693 4.78609 0
M  V30 2386 H 249.527 -0.211905 2.53817 0
M  V30 2387 H 250.31 1.3391 3.16106 0
M  V30 2388 N 252.755 -1.56801 0.158532 0
M  V30 2389 C 254.003 -1.96102 -0.488712 0
M  V30 2390 C 254.324 -1.04498 -1.64636 0
M  V30 2391 O 253.594 -0.108783 -1.95598 0
M  V30 2392 H 252.174 -0.724102 -0.183535 0
M  V30 2393 H 254.836 -1.93457 0.236728 0
M  V30 2394 H 253.932 -3.00097 -0.857219 0
M  V30 2395 N 254.233 0.115231 -1.57178 0
M  V30 2396 C 255.461 0.836437 -1.89239 0
M  V30 2397 C 255.876 1.73256 -0.750175 0
M  V30 2398 O 255.233 1.80357 0.278832 0
M  V30 2399 C 255.284 1.66671 -3.20785 0
M  V30 2400 O 255.005 0.806652 -4.3061 0
M  V30 2401 C 256.506 2.49274 -3.66575 0
M  V30 2402 H 253.726 0.240253 -0.626514 0
M  V30 2403 H 256.27 0.0984932 -2.04263 0
M  V30 2404 H 254.425 2.35737 -3.0742 0
M  V30 2405 H 254.839 1.37969 -5.06028 0
M  V30 2406 H 256.313 3.03055 -4.6137 0
M  V30 2407 H 256.79 3.26807 -2.93417 0
M  V30 2408 H 257.396 1.85443 -3.82741 0
M  V30 2409 N 255.711 1.52812 0.385517 0
M  V30 2410 C 257.122 1.5993 0.963293 0
M  V30 2411 C 257.473 0.454302 1.90868 0
M  V30 2412 O 256.598 -0.422132 2.12243 0
M  V30 2413 C 257.193 2.89871 1.75387 0
M  V30 2414 C 255.752 2.99389 2.28129 0
M  V30 2415 C 254.899 2.55071 1.08783 0
M  V30 2416 H 257.85 1.5784 0.164948 0
M  V30 2417 H 257.871 2.76553 2.61341 0
M  V30 2418 H 257.383 3.73186 1.06554 0
M  V30 2419 H 255.484 2.20619 3.00263 0
M  V30 2420 H 255.597 4.04096 2.57377 0
M  V30 2421 H 253.961 2.09473 1.4489 0
M  V30 2422 H 254.744 3.40785 0.414807 0
M  V30 2423 N 257.189 -0.644168 1.43834 0
M  V30 2424 C 258.6 -1.22554 1.40845 0
M  V30 2425 C 258.951 -1.9585 0.117115 0
M  V30 2426 O 258.076 -2.01734 -0.783086 0
M  V30 2427 C 258.671 -2.22907 2.55143 0
M  V30 2428 C 257.23 -2.76501 2.5539 0
M  V30 2429 C 256.377 -1.51287 2.32396 0
M  V30 2430 H 259.328 -0.43563 1.52604 0
M  V30 2431 H 259.349 -3.05259 2.2715 0
M  V30 2432 H 258.861 -1.69533 3.49114 0
M  V30 2433 H 256.962 -3.33914 1.65324 0
M  V30 2434 H 257.075 -3.23429 3.53455 0
M  V30 2435 H 255.439 -1.78957 1.81236 0
M  V30 2436 H 256.222 -0.998336 3.28463 0
M  V30 2437 N 258.668 -1.30515 -0.883378 0
M  V30 2438 C 259.618 -1.13641 -1.9766 0
M  V30 2439 C 260.602 -0.0511314 -1.60819 0
M  V30 2440 O 261.794 -0.274623 -1.74857 0
M  V30 2441 C 258.923 -0.831976 -3.33066 0
M  V30 2442 C 258.009 -1.95759 -3.76217 0
M  V30 2443 N 258.4 -3.20313 -3.9145 0
M  V30 2444 C 256.698 -1.85431 -4.05625 0
M  V30 2445 C 257.399 -3.93856 -4.2808 0
M  V30 2446 N 256.375 -3.21919 -4.38029 0
M  V30 2447 H 260.177 -2.08106 -2.07531 0
M  V30 2448 H 257.691 -1.21877 -1.0733 0
M  V30 2449 H 259.688 -0.692102 -4.11115 0
M  V30 2450 H 258.348 0.104588 -3.24532 0
M  V30 2451 H 259.359 -3.55583 -3.76538 0
M  V30 2452 H 256.036 -0.991531 -4.05555 0
M  V30 2453 H 257.426 -5.01125 -4.47575 0
M  V30 2454 N 260.146 1.09593 -1.13257 0
M  V30 2455 C 261.093 2.1618 -0.808381 0
M  V30 2456 C 262.063 1.64517 0.228754 0
M  V30 2457 O 263.248 1.9053 0.101381 0
M  V30 2458 C 260.388 3.43973 -0.278675 0
M  V30 2459 C 259.501 4.09545 -1.37466 0
M  V30 2460 C 258.636 5.25088 -0.803479 0
M  V30 2461 C 257.675 5.82579 -1.87799 0
M  V30 2462 N 256.812 6.89486 -1.32488 0
M  V30 2463 H 261.652 2.43254 -1.72138 0
M  V30 2464 H 259.189 1.19392 -0.859294 0
M  V30 2465 H 261.147 4.17174 0.0465583 0
M  V30 2466 H 259.777 3.17223 0.597459 0
M  V30 2467 H 258.829 3.34226 -1.81652 0
M  V30 2468 H 260.141 4.48307 -2.18684 0
M  V30 2469 H 259.295 6.05178 -0.429427 0
M  V30 2470 H 258.034 4.87684 0.0397956 0
M  V30 2471 H 257.039 5.01152 -2.26113 0
M  V30 2472 H 258.264 6.22045 -2.72463 0
M  V30 2473 H 256.21 6.54064 -0.503575 0
M  V30 2474 H 256.127 7.27007 -2.07355 0
M  V30 2475 H 257.395 7.73336 -0.978336 0
M  V30 2476 N 261.624 0.925811 1.2754 0
M  V30 2477 C 262.852 0.581509 1.9856 0
M  V30 2478 C 263.267 -0.840041 1.69082 0
M  V30 2479 O 262.624 -1.55805 0.950312 0
M  V30 2480 C 262.675 0.795589 3.52637 0
M  V30 2481 O 262.396 2.16121 3.81082 0
M  V30 2482 C 263.897 0.459744 4.4091 0
M  V30 2483 H 261.117 0.220538 0.633722 0
M  V30 2484 H 263.661 1.24232 1.6244 0
M  V30 2485 H 261.816 0.18161 3.86974 0
M  V30 2486 H 262.23 2.2098 4.75676 0
M  V30 2487 H 263.704 0.660244 5.48037 0
M  V30 2488 H 264.181 -0.604625 4.35018 0
M  V30 2489 H 264.787 1.05178 4.12089 0
M  V30 2490 N 263.102 -1.41638 0.69111 0
M  V30 2491 C 264.349 -2.01299 0.220193 0
M  V30 2492 C 264.677 -1.54715 -1.17871 0
M  V30 2493 O 263.932 -0.747193 -1.80874 0
M  V30 2494 C 264.231 -3.56714 0.221277 0
M  V30 2495 C 263.897 -4.22792 1.56709 0
M  V30 2496 C 262.559 -4.40557 1.93554 0
M  V30 2497 C 264.911 -4.59883 2.45268 0
M  V30 2498 C 262.239 -4.92688 3.18552 0
M  V30 2499 C 264.591 -5.13403 3.69595 0
M  V30 2500 C 263.255 -5.29379 4.06589 0
M  V30 2501 H 262.525 -0.736606 0.0805743 0
M  V30 2502 H 265.172 -1.69598 0.889319 0
M  V30 2503 H 263.477 -3.8818 -0.531391 0
M  V30 2504 H 265.174 -4.00678 -0.160547 0
M  V30 2505 H 261.764 -4.09336 1.2705 0
M  V30 2506 H 265.948 -4.45817 2.18084 0
M  V30 2507 H 261.204 -5.03242 3.47214 0
M  V30 2508 H 265.378 -5.41084 4.38407 0
M  V30 2509 H 263.005 -5.69537 5.03519 0
M  V30 2510 N 264.58 -0.43555 -1.51462 0
M  V30 2511 C 265.996 -0.0877501 -1.59359 0
M  V30 2512 C 266.196 1.4027 -1.4466 0
M  V30 2513 O 265.252 2.17243 -1.28693 0
M  V30 2514 C 266.565 -0.606264 -2.94525 0
M  V30 2515 C 268.113 -0.566548 -3.0783 0
M  V30 2516 C 268.588 -1.06201 -4.45517 0
M  V30 2517 N 270.079 -1.01992 -4.51832 0
M  V30 2518 C 270.814 -1.37417 -5.5669 0
M  V30 2519 N 270.31 -1.80119 -6.68976 0
M  V30 2520 N 272.103 -1.29245 -5.47039 0
M  V30 2521 H 264.254 -1.40533 -1.59261 0
M  V30 2522 H 266.517 -0.578992 -0.750648 0
M  V30 2523 H 266.223 -1.64901 -3.10645 0
M  V30 2524 H 266.097 -0.0302097 -3.77188 0
M  V30 2525 H 268.484 0.467208 -2.91378 0
M  V30 2526 H 268.565 -1.17898 -2.2701 0
M  V30 2527 H 268.209 -2.09422 -4.62715 0
M  V30 2528 H 268.139 -0.426127 -5.24873 0
M  V30 2529 H 270.63 -0.706308 -3.71241 0
M  V30 2530 H 270.943 -2.05392 -7.45006 0
M  V30 2531 H 269.288 -1.84044 -6.70189 0
M  V30 2532 H 272.479 -0.957522 -4.58202 0
M  V30 2533 H 272.652 -1.57182 -6.28648 0
M  V30 2534 N 266.058 1.56714 -0.166846 0
M  V30 2535 C 267.005 2.17746 0.765193 0
M  V30 2536 C 267.975 1.11614 1.23011 0
M  V30 2537 O 269.16 1.39745 1.29908 0
M  V30 2538 C 266.3 2.81882 1.9909 0
M  V30 2539 C 265.413 4.02462 1.56997 0
M  V30 2540 C 264.548 4.54537 2.749 0
M  V30 2541 C 263.587 5.67538 2.29275 0
M  V30 2542 N 262.724 6.14142 3.40255 0
M  V30 2543 H 267.564 2.97048 0.237952 0
M  V30 2544 H 265.101 1.4672 0.105725 0
M  V30 2545 H 267.059 3.17221 2.70974 0
M  V30 2546 H 265.689 2.05191 2.49192 0
M  V30 2547 H 264.741 3.72973 0.748037 0
M  V30 2548 H 266.053 4.84273 1.19503 0
M  V30 2549 H 265.207 4.92035 3.54946 0
M  V30 2550 H 263.946 3.71774 3.1565 0
M  V30 2551 H 262.951 5.29597 1.47674 0
M  V30 2552 H 264.176 6.52099 1.89588 0
M  V30 2553 H 262.122 5.3431 3.8059 0
M  V30 2554 H 262.039 6.9093 3.06841 0
M  V30 2555 H 263.307 6.56289 4.206 0
M  V30 2556 N 267.536 -0.106894 1.57237 0
M  V30 2557 C 268.466 -1.13148 2.04254 0
M  V30 2558 C 269.447 -1.42476 0.929224 0
M  V30 2559 O 270.632 -1.52709 1.19973 0
M  V30 2560 C 267.762 -2.4545 2.45706 0
M  V30 2561 C 266.716 -2.30558 3.60592 0
M  V30 2562 C 266.042 -3.67931 3.87983 0
M  V30 2563 C 267.342 -1.75597 4.91897 0
M  V30 2564 H 269.036 -0.740374 2.90101 0
M  V30 2565 H 266.582 -0.354696 1.39563 0
M  V30 2566 H 268.535 -3.17389 2.77205 0
M  V30 2567 H 267.259 -2.86475 1.56843 0
M  V30 2568 H 265.918 -1.61067 3.29322 0
M  V30 2569 H 265.566 -4.06462 2.96306 0
M  V30 2570 H 265.266 -3.58817 4.65322 0
M  V30 2571 H 266.79 -4.41356 4.21945 0
M  V30 2572 H 268.204 -2.37364 5.21854 0
M  V30 2573 H 266.601 -1.77272 5.73319 0
M  V30 2574 H 267.671 -0.714451 4.79608 0
M  V30 2575 N 269.014 -1.53014 -0.377408 0
M  V30 2576 C 270.43 -1.42523 -0.718281 0
M  V30 2577 C 270.63 -0.55487 -1.9371 0
M  V30 2578 O 269.686 -0.0327593 -2.52479 0
M  V30 2579 C 270.999 -2.85546 -0.942539 0
M  V30 2580 C 272.547 -2.95101 -1.04329 0
M  V30 2581 C 273.022 -4.3916 -1.3001 0
M  V30 2582 N 274.513 -4.42536 -1.36806 0
M  V30 2583 C 275.248 -5.51097 -1.58364 0
M  V30 2584 N 274.744 -6.69724 -1.77317 0
M  V30 2585 N 276.537 -5.38657 -1.60638 0
M  V30 2586 H 268.688 -2.08116 0.424426 0
M  V30 2587 H 270.951 -0.939352 0.127759 0
M  V30 2588 H 270.657 -3.51499 -0.118929 0
M  V30 2589 H 270.531 -3.28493 -1.85397 0
M  V30 2590 H 272.918 -2.29309 -1.85745 0
M  V30 2591 H 272.999 -2.55566 -0.109505 0
M  V30 2592 H 272.643 -5.05521 -0.490991 0
M  V30 2593 H 272.573 -4.76258 -2.24691 0
M  V30 2594 H 275.064 -3.57039 -1.23821 0
M  V30 2595 H 275.377 -7.48233 -1.93306 0
M  V30 2596 H 273.722 -6.72732 -1.74518 0
M  V30 2597 H 276.913 -4.44948 -1.45391 0
M  V30 2598 H 277.086 -6.2333 -1.77098 0
M  V30 2599 N 270.492 0.636531 -1.44174 0
M  V30 2600 C 271.422 1.76003 -1.53444 0
M  V30 2601 C 272.403 1.65619 -0.387841 0
M  V30 2602 O 273.588 1.84461 -0.607257 0
M  V30 2603 C 270.718 3.14511 -1.4731 0
M  V30 2604 C 269.672 3.39677 -2.60391 0
M  V30 2605 C 268.998 4.78159 -2.39308 0
M  V30 2606 C 270.298 3.32772 -4.02567 0
M  V30 2607 H 271.992 1.68501 -2.47483 0
M  V30 2608 H 269.538 0.809237 -1.19111 0
M  V30 2609 H 271.491 3.92878 -1.52397 0
M  V30 2610 H 270.215 3.22783 -0.49785 0
M  V30 2611 H 268.874 2.63688 -2.54684 0
M  V30 2612 H 268.522 4.83128 -1.39988 0
M  V30 2613 H 268.222 4.95956 -3.15122 0
M  V30 2614 H 269.746 5.58762 -2.46205 0
M  V30 2615 H 271.16 4.01051 -4.09672 0
M  V30 2616 H 269.557 3.62104 -4.7854 0
M  V30 2617 H 270.627 2.30669 -4.2652 0
M  V30 2618 N 271.97 1.30982 0.876444 0
M  V30 2619 C 273.217 1.20296 1.62896 0
M  V30 2620 C 273.545 -0.240395 1.93009 0
M  V30 2621 O 272.8 -1.18733 1.55567 0
M  V30 2622 C 273.099 1.98572 2.9716 0
M  V30 2623 C 272.765 3.48125 2.86566 0
M  V30 2624 C 271.427 3.88905 2.83383 0
M  V30 2625 C 273.779 4.43322 2.74071 0
M  V30 2626 C 271.107 5.2316 2.65556 0
M  V30 2627 C 273.459 5.77695 2.57781 0
M  V30 2628 C 272.123 6.17704 2.52979 0
M  V30 2629 H 271.393 0.440193 0.59608 0
M  V30 2630 H 274.04 1.62177 1.01837 0
M  V30 2631 H 272.345 1.49352 3.62217 0
M  V30 2632 H 274.042 1.8769 3.54364 0
M  V30 2633 H 270.632 3.15723 2.89856 0
M  V30 2634 H 274.816 4.12752 2.75589 0
M  V30 2635 H 270.072 5.53241 2.60259 0
M  V30 2636 H 274.246 6.51091 2.47089 0
M  V30 2637 H 271.873 7.21678 2.38924 0
M  V30 2638 N 273.449 -1.08991 1.13837 0
M  V30 2639 C 274.726 -1.77863 0.813876 0
M  V30 2640 C 275.106 -1.99375 -0.693746 0
M  V30 2641 O 274.454 -1.59875 -1.63255 0
M  V30 2642 C 274.664 -3.0986 1.60586 0
M  V30 2643 C 276.012 -3.84493 1.8014 0
M  V30 2644 O 277.036 -3.19624 1.57222 0
M  V30 2645 O 275.895 -5.00957 2.18413 0
M  V30 2646 H 272.989 -0.771589 0.297624 0
M  V30 2647 H 275.535 -1.15507 1.24323 0
M  V30 2648 H 274.307 -2.89715 2.63022 0
M  V30 2649 H 273.93 -3.79942 1.17173 0
M  V30 2650 N 274.927 -0.932562 -1.27047 0
M  V30 2651 C 276.155 -0.592031 -1.98249 0
M  V30 2652 C 276.57 0.831062 -1.69525 0
M  V30 2653 O 275.927 1.55299 -0.958561 0
M  V30 2654 C 275.978 -0.814279 -3.5221 0
M  V30 2655 O 275.699 -2.18139 -3.7993 0
M  V30 2656 C 277.2 -0.483121 -4.4066 0
M  V30 2657 H 274.42 -0.223896 -0.632544 0
M  V30 2658 H 276.964 -1.25091 -1.61779 0
M  V30 2659 H 275.119 -0.20213 -3.86872 0
M  V30 2660 H 275.533 -2.235 -4.74498 0
M  V30 2661 H 277.007 -0.689298 -5.47679 0
M  V30 2662 H 277.484 0.581546 -4.35333 0
M  V30 2663 H 278.09 -1.07362 -4.11526 0
M  V30 2664 N 276.405 1.4127 -0.698611 0
M  V30 2665 C 277.816 1.84187 -0.305289 0
M  V30 2666 C 278.167 1.58449 1.15708 0
M  V30 2667 O 277.292 1.05651 1.88856 0
M  V30 2668 C 277.887 3.3435 -0.547314 0
M  V30 2669 C 276.446 3.75826 -0.207878 0
M  V30 2670 C 275.593 2.64647 -0.828099 0
M  V30 2671 H 278.544 1.30778 -0.89904 0
M  V30 2672 H 278.565 3.8001 0.192998 0
M  V30 2673 H 278.077 3.53051 -1.61172 0
M  V30 2674 H 276.178 3.62725 0.852143 0
M  V30 2675 H 276.291 4.74462 -0.665021 0
M  V30 2676 H 274.655 2.53395 -0.257458 0
M  V30 2677 H 275.438 2.86165 -1.89643 0
M  V30 2678 N 277.883 0.443576 1.51229 0
M  V30 2679 C 278.833 -0.382787 2.24764 0
M  V30 2680 C 279.817 -0.984836 1.27239 0
M  V30 2681 O 281.009 -0.901943 1.52296 0
M  V30 2682 C 278.138 -1.47989 3.09765 0
M  V30 2683 C 277.224 -0.886931 4.14722 0
M  V30 2684 N 277.615 -0.0237103 5.05794 0
M  V30 2685 C 275.913 -1.15385 4.30816 0
M  V30 2686 C 276.614 0.309971 5.80874 0
M  V30 2687 N 275.59 -0.307989 5.42727 0
M  V30 2688 H 279.392 0.282624 2.92538 0
M  V30 2689 H 276.906 0.256027 1.60369 0
M  V30 2690 H 278.903 -2.08482 3.61027 0
M  V30 2691 H 277.563 -2.14758 2.43535 0
M  V30 2692 H 278.574 0.34318 5.16762 0
M  V30 2693 H 275.251 -1.81857 3.75812 0
M  V30 2694 H 276.641 1.01279 6.64223 0
M  V30 2695 N 279.361 -1.56624 0.175154 0
M  V30 2696 C 280.589 -2.01374 -0.474971 0
M  V30 2697 C 281.004 -1.05537 -1.56548 0
M  V30 2698 O 280.361 -0.0568668 -1.82411 0
M  V30 2699 C 280.412 -3.45923 -1.04975 0
M  V30 2700 O 280.133 -4.381 -0.00276605 0
M  V30 2701 C 281.634 -4.06093 -1.77773 0
M  V30 2702 H 278.854 -0.659962 -0.121206 0
M  V30 2703 H 281.398 -2.02601 0.27801 0
M  V30 2704 H 279.553 -3.45458 -1.75321 0
M  V30 2705 H 279.967 -5.22753 -0.427681 0
M  V30 2706 H 281.441 -5.09147 -2.13245 0
M  V30 2707 H 281.918 -3.48405 -2.67414 0
M  V30 2708 H 282.524 -4.10272 -1.12059 0
M  V30 2709 N 280.839 0.0985539 -1.57292 0
M  V30 2710 C 282.25 0.653457 -1.74891 0
M  V30 2711 C 282.601 1.7929 -0.796838 0
M  V30 2712 O 281.726 2.16385 0.0254886 0
M  V30 2713 C 282.321 1.19216 -3.17133 0
M  V30 2714 C 280.88 1.69316 -3.36168 0
M  V30 2715 C 280.027 0.601294 -2.70702 0
M  V30 2716 H 282.978 -0.127497 -1.58187 0
M  V30 2717 H 282.999 2.06154 -3.19814 0
M  V30 2718 H 282.511 0.362635 -3.86402 0
M  V30 2719 H 280.612 2.5468 -2.71972 0
M  V30 2720 H 280.725 1.78853 -4.44464 0
M  V30 2721 H 279.089 1.0399 -2.32504 0
M  V30 2722 H 279.872 -0.217592 -3.4261 0
M  V30 2723 N 282.317 1.53212 0.369288 0
M  V30 2724 C 283.264 1.79388 1.45219 0
M  V30 2725 C 284.234 0.638059 1.53356 0
M  V30 2726 O 285.419 0.879852 1.69302 0
M  V30 2727 C 282.559 1.98623 2.82211 0
M  V30 2728 C 281.672 3.26337 2.8307 0
M  V30 2729 C 280.807 3.35779 4.11614 0
M  V30 2730 C 279.846 4.5754 4.06601 0
M  V30 2731 N 278.983 4.64155 5.26787 0
M  V30 2732 H 283.823 2.71794 1.22198 0
M  V30 2733 H 281.36 1.34642 0.592444 0
M  V30 2734 H 283.318 2.07761 3.61789 0
M  V30 2735 H 281.948 1.09558 3.03639 0
M  V30 2736 H 281 3.26171 1.95747 0
M  V30 2737 H 282.312 4.15988 2.75237 0
M  V30 2738 H 281.466 3.44208 4.99606 0
M  V30 2739 H 280.205 2.44137 4.22195 0
M  V30 2740 H 279.21 4.49215 3.16996 0
M  V30 2741 H 280.435 5.50519 3.97625 0
M  V30 2742 H 278.381 3.75413 5.3796 0
M  V30 2743 H 278.298 5.47706 5.21109 0
M  V30 2744 H 279.566 4.76863 6.16621 0
M  V30 2745 N 283.795 -0.628877 1.44509 0
M  V30 2746 C 285.02 -1.42048 1.5112 0
M  V30 2747 C 285.445 -1.87594 0.137818 0
M  V30 2748 O 284.803 -1.58873 -0.873437 0
M  V30 2749 C 284.851 -2.61541 2.48251 0
M  V30 2750 O 283.955 -3.61453 1.98559 0
M  V30 2751 H 283.296 -0.424942 0.510216 0
M  V30 2752 H 285.826 -0.767374 1.89664 0
M  V30 2753 H 285.836 -3.09057 2.66361 0
M  V30 2754 H 284.511 -2.27736 3.48007 0
M  V30 2755 H 283.088 -3.20731 1.90227 0
M  V30 2756 N 285.273 -1.31445 -0.869486 0
M  V30 2757 C 286.203 -1.21727 -1.99261 0
M  V30 2758 C 287.184 -0.104359 -1.6978 0
M  V30 2759 O 288.369 -0.289038 -1.92037 0
M  V30 2760 C 285.499 -0.924317 -3.34774 0
M  V30 2761 C 284.453 -1.99685 -3.78563 0
M  V30 2762 C 283.779 -1.55658 -5.11541 0
M  V30 2763 C 285.079 -3.41003 -3.95619 0
M  V30 2764 H 286.773 -2.1569 -2.07649 0
M  V30 2765 H 284.319 -1.03839 -0.997675 0
M  V30 2766 H 286.272 -0.842934 -4.12883 0
M  V30 2767 H 284.996 0.0509793 -3.2656 0
M  V30 2768 H 283.655 -2.06813 -3.02694 0
M  V30 2769 H 283.303 -0.569132 -4.9977 0
M  V30 2770 H 283.003 -2.27409 -5.41811 0
M  V30 2771 H 284.527 -1.48928 -5.92159 0
M  V30 2772 H 285.941 -3.36547 -4.64122 0
M  V30 2773 H 284.338 -4.10975 -4.37286 0
M  V30 2774 H 285.408 -3.81754 -2.98985 0
M  V30 2775 N 286.751 1.08385 -1.14413 0
M  V30 2776 C 287.681 2.17321 -0.854044 0
M  V30 2777 C 288.662 1.69024 0.191049 0
M  V30 2778 O 289.847 1.94141 0.0476779 0
M  V30 2779 C 286.977 3.45719 -0.330983 0
M  V30 2780 C 285.931 4.07409 -1.31155 0
M  V30 2781 C 285.257 5.30762 -0.64778 0
M  V30 2782 C 286.557 4.48665 -2.67388 0
M  V30 2783 H 288.251 2.41845 -1.76498 0
M  V30 2784 H 285.797 1.16233 -0.850051 0
M  V30 2785 H 287.75 4.21241 -0.115645 0
M  V30 2786 H 286.474 3.2075 0.615381 0
M  V30 2787 H 285.133 3.33919 -1.51306 0
M  V30 2788 H 284.781 5.02078 0.304398 0
M  V30 2789 H 284.481 5.72992 -1.30207 0
M  V30 2790 H 286.005 6.08998 -0.441972 0
M  V30 2791 H 287.419 5.15364 -2.51143 0
M  V30 2792 H 285.816 5.01814 -3.29093 0
M  V30 2793 H 286.886 3.60543 -3.24248 0
M  V30 2794 N 288.23 0.939286 1.26551 0
M  V30 2795 C 289.455 0.602008 1.98471 0
M  V30 2796 C 289.88 -0.815624 1.69497 0
M  V30 2797 O 289.238 -1.54912 0.941905 0
M  V30 2798 C 289.286 0.848407 3.50477 0
M  V30 2799 O 288.39 -0.0804009 4.12322 0
M  V30 2800 H 287.731 0.23049 0.622712 0
M  V30 2801 H 290.261 1.2617 1.61066 0
M  V30 2802 H 290.271 0.768553 4.00696 0
M  V30 2803 H 288.946 1.88171 3.70897 0
M  V30 2804 H 287.523 0.0503508 3.72866 0
M  V30 2805 N 289.708 -1.40897 0.706093 0
M  V30 2806 C 290.655 -2.30751 0.0474474 0
M  V30 2807 C 291.625 -1.47678 -0.76029 0
M  V30 2808 O 292.81 -1.76441 -0.726177 0
M  V30 2809 C 289.95 -3.33815 -0.875309 0
M  V30 2810 C 289.063 -4.31961 -0.0580623 0
M  V30 2811 C 288.198 -5.22093 -0.979425 0
M  V30 2812 C 287.237 -6.11902 -0.155706 0
M  V30 2813 N 286.374 -6.94482 -1.03144 0
M  V30 2814 H 291.214 -2.86513 0.819413 0
M  V30 2815 H 288.751 -1.41102 0.415783 0
M  V30 2816 H 290.709 -3.92129 -1.42446 0
M  V30 2817 H 289.339 -2.79579 -1.61356 0
M  V30 2818 H 288.391 -3.75507 0.608147 0
M  V30 2819 H 289.703 -4.95415 0.580082 0
M  V30 2820 H 288.857 -5.85292 -1.59744 0
M  V30 2821 H 287.596 -4.5889 -1.65141 0
M  V30 2822 H 286.601 -5.47742 0.475309 0
M  V30 2823 H 287.826 -6.77162 0.512635 0
M  V30 2824 H 285.772 -6.33877 -1.68924 0
M  V30 2825 H 285.689 -7.54665 -0.449108 0
M  V30 2826 H 286.957 -7.6214 -1.63593 0
M  V30 2827 N 291.186 -0.45159 -1.50991 0
M  V30 2828 C 292.149 0.341117 -2.26647 0
M  V30 2829 C 293.149 0.937422 -1.30649 0
M  V30 2830 O 294.339 0.809644 -1.54241 0
M  V30 2831 C 291.471 1.48398 -3.06905 0
M  V30 2832 H 292.664 -0.322117 -2.98165 0
M  V30 2833 H 290.217 -0.205122 -1.54948 0
M  V30 2834 H 290.952 2.18284 -2.39838 0
M  V30 2835 H 290.737 1.06241 -3.77432 0
M  V30 2836 H 292.227 2.04367 -3.64176 0
M  V30 2837 N 292.664 1.56529 -0.183458 0
M  V30 2838 C 294.08 1.58664 0.172554 0
M  V30 2839 C 294.28 1.19925 1.61926 0
M  V30 2840 O 293.336 0.916534 2.35278 0
M  V30 2841 C 294.649 3.00463 -0.119262 0
M  V30 2842 C 296.197 3.12945 -0.0584396 0
M  V30 2843 C 296.672 4.56857 -0.323408 0
M  V30 2844 N 298.163 4.62403 -0.271612 0
M  V30 2845 C 298.898 5.71626 -0.450639 0
M  V30 2846 N 298.394 6.89362 -0.689384 0
M  V30 2847 N 300.187 5.60775 -0.385701 0
M  V30 2848 H 292.338 1.79994 -1.12765 0
M  V30 2849 H 294.601 0.834808 -0.449222 0
M  V30 2850 H 294.307 3.33326 -1.12192 0
M  V30 2851 H 294.181 3.72659 0.583544 0
M  V30 2852 H 296.568 2.79902 0.934805 0
M  V30 2853 H 296.649 2.4316 -0.794144 0
M  V30 2854 H 296.293 4.9061 -1.31392 0
M  V30 2855 H 296.223 5.24816 0.43305 0
M  V30 2856 H 298.714 3.77785 -0.0932256 0
M  V30 2857 H 299.027 7.68489 -0.815113 0
M  V30 2858 H 297.372 6.91196 -0.726142 0
M  V30 2859 H 300.563 4.67674 -0.199687 0
M  V30 2860 H 300.736 6.4584 -0.528646 0
M  V30 2861 N 294.142 -0.090211 1.57342 0
M  V30 2862 C 295.39 -0.791241 1.85967 0
M  V30 2863 C 295.711 -1.7903 0.772859 0
M  V30 2864 O 294.981 -1.94872 -0.200398 0
M  V30 2865 H 293.561 -0.295205 0.686195 0
M  V30 2866 H 296.223 -0.0706782 1.94772 0
M  V30 2867 H 295.319 -1.31882 2.82867 0
M  V30 2868 N 295.62 -1.53406 -0.361157 0
M  V30 2869 C 296.869 -1.69022 -1.10066 0
M  V30 2870 C 297.182 -0.450838 -1.90333 0
M  V30 2871 O 298.388 -0.487617 -2.67085 0
M  V30 2872 C 296.844 -2.98812 -2.00598 0
M  V30 2873 C 296.452 -4.30027 -1.25621 0
M  V30 2874 C 298.196 -3.23795 -2.74513 0
M  V30 2875 C 296.103 -5.50903 -2.1508 0
M  V30 2876 H 295.033 -0.629776 -0.414606 0
M  V30 2877 H 297.684 -1.79907 -0.361348 0
M  V30 2878 H 296.066 -2.8174 -2.78278 0
M  V30 2879 H 297.24 -4.57745 -0.529739 0
M  V30 2880 H 295.555 -4.11522 -0.635496 0
M  V30 2881 H 298.152 -4.11289 -3.41681 0
M  V30 2882 H 298.495 -2.40045 -3.40123 0
M  V30 2883 H 299.028 -3.41561 -2.03914 0
M  V30 2884 H 295.767 -6.37143 -1.54041 0
M  V30 2885 H 295.287 -5.27459 -2.85565 0
M  V30 2886 H 296.966 -5.85865 -2.74538 0
M  V30 2887 N 297.098 0.621204 -1.44841 0
M  V30 2888 C 298.375 1.38 -1.38619 0
M  V30 2889 C 298.755 2.11041 -0.0498935 0
M  V30 2890 O 298.103 2.06992 0.967816 0
M  V30 2891 C 298.313 2.33817 -2.59096 0
M  V30 2892 C 299.661 2.96844 -3.03593 0
M  V30 2893 O 300.685 2.44141 -2.59371 0
M  V30 2894 O 299.544 3.92476 -3.80296 0
M  V30 2895 H 296.638 0.61811 -0.549426 0
M  V30 2896 H 299.184 0.645429 -1.56947 0
M  V30 2897 H 297.956 1.79012 -3.47952 0
M  V30 2898 H 297.579 3.14676 -2.43032 0
M  V30 2899 N 298.576 1.31904 0.862503 0
M  V30 2900 C 299.801 1.25135 1.65397 0
M  V30 2901 C 300.226 -0.179 1.87246 0
M  V30 2902 O 299.584 -1.1277 1.4196 0
M  V30 2903 C 299.632 2.00832 2.99498 0
M  V30 2904 O 298.736 1.35075 3.89652 0
M  V30 2905 H 298.077 0.431655 0.504549 0
M  V30 2906 H 300.607 1.74094 1.07483 0
M  V30 2907 H 300.617 2.10709 3.49379 0
M  V30 2908 H 299.292 3.04847 2.82916 0
M  V30 2909 H 297.869 1.33696 3.48109 0
M  V30 2910 N 300.054 -1.07777 1.14986 0
M  V30 2911 C 301.279 -1.84558 0.946213 0
M  V30 2912 C 301.704 -1.81323 -0.500362 0
M  V30 2913 O 301.062 -1.20301 -1.35637 0
M  V30 2914 C 301.11 -3.29736 1.45968 0
M  V30 2915 O 300.214 -4.07149 0.65601 0
M  V30 2916 H 299.555 -0.571641 0.33782 0
M  V30 2917 H 302.085 -1.35991 1.52865 0
M  V30 2918 H 302.095 -3.80574 1.47063 0
M  V30 2919 H 300.77 -3.31406 2.51283 0
M  V30 2920 H 299.347 -3.65994 0.714322 0
M  V30 2921 N 301.532 -0.945985 -1.26051 0
M  V30 2922 C 302.757 -0.612525 -1.98149 0
M  V30 2923 C 303.182 0.806623 -1.69927 0
M  V30 2924 O 302.54 1.54411 -0.950108 0
M  V30 2925 C 302.588 -0.866981 -3.50023 0
M  V30 2926 O 301.692 0.0585333 -4.12358 0
M  V30 2927 H 301.033 -0.23379 -0.621481 0
M  V30 2928 H 303.563 -1.27023 -1.60395 0
M  V30 2929 H 303.573 -0.789792 -4.00283 0
M  V30 2930 H 302.248 -1.90135 -3.69894 0
M  V30 2931 H 300.825 -0.0701241 -3.72834 0
M  V30 2932 N 303.011 1.40521 -0.713556 0
M  V30 2933 C 304.257 2.01221 -0.252564 0
M  V30 2934 C 304.59 1.56444 1.1506 0
M  V30 2935 O 303.865 0.783597 1.78017 0
M  V30 2936 C 304.148 3.58582 -0.330332 0
M  V30 2937 C 304.001 4.13437 -1.77173 0
M  V30 2938 C 305.32 4.39079 0.299641 0
M  V30 2939 H 302.439 0.731077 -0.0932471 0
M  V30 2940 H 305.081 1.67026 -0.905673 0
M  V30 2941 H 303.231 3.87844 0.225737 0
M  V30 2942 H 304.903 3.9498 -2.38303 0
M  V30 2943 H 303.146 3.67801 -2.3001 0
M  V30 2944 H 303.817 5.22597 -1.77755 0
M  V30 2945 H 306.293 4.15735 -0.174139 0
M  V30 2946 H 305.169 5.4848 0.214771 0
M  V30 2947 H 305.43 4.19915 1.38288 0
M  V30 2948 N 304.489 0.459591 1.5075 0
M  V30 2949 C 305.436 -0.340524 2.28274 0
M  V30 2950 C 306.406 -0.997371 1.32822 0
M  V30 2951 O 307.591 -1.01202 1.61749 0
M  V30 2952 C 304.731 -1.42317 3.14388 0
M  V30 2953 C 303.844 -0.782251 4.24859 0
M  V30 2954 C 302.979 -1.84182 4.98247 0
M  V30 2955 C 302.018 -1.18053 6.00608 0
M  V30 2956 N 301.155 -2.18244 6.67319 0
M  V30 2957 H 305.995 0.326899 2.96202 0
M  V30 2958 H 303.532 0.173057 1.46078 0
M  V30 2959 H 305.49 -2.06241 3.62658 0
M  V30 2960 H 304.12 -2.05992 2.4853 0
M  V30 2961 H 303.172 -0.0307404 3.80388 0
M  V30 2962 H 304.484 -0.259663 4.98124 0
M  V30 2963 H 303.638 -2.55714 5.50177 0
M  V30 2964 H 302.377 -2.39819 4.24662 0
M  V30 2965 H 301.382 -0.450776 5.47949 0
M  V30 2966 H 302.607 -0.631202 6.7616 0
M  V30 2967 H 300.553 -2.72919 5.96533 0
M  V30 2968 H 300.47 -1.70938 7.36421 0
M  V30 2969 H 301.738 -2.89191 7.23871 0
M  V30 2970 N 305.967 -1.56429 0.191757 0
M  V30 2971 C 306.897 -2.21937 -0.725696 0
M  V30 2972 C 307.878 -1.1814 -1.2238 0
M  V30 2973 O 309.063 -1.46636 -1.27325 0
M  V30 2974 C 306.193 -2.87611 -1.94672 0
M  V30 2975 C 305.147 -3.97623 -1.58366 0
M  V30 2976 C 304.473 -4.50446 -2.88102 0
M  V30 2977 C 305.773 -5.16197 -0.796133 0
M  V30 2978 H 307.467 -2.98861 -0.179606 0
M  V30 2979 H 305.013 -1.43749 -0.0849464 0
M  V30 2980 H 306.966 -3.3212 -2.59373 0
M  V30 2981 H 305.69 -2.08087 -2.51728 0
M  V30 2982 H 304.349 -3.53801 -0.960247 0
M  V30 2983 H 303.997 -3.67688 -3.43241 0
M  V30 2984 H 303.697 -5.24675 -2.64556 0
M  V30 2985 H 305.221 -4.97654 -3.53798 0
M  V30 2986 H 306.635 -5.57271 -1.34618 0
M  V30 2987 H 305.032 -5.96471 -0.658928 0
M  V30 2988 H 306.102 -4.84473 0.203478 0
M  V30 2989 N 307.445 0.0818655 -1.57387 0
M  V30 2990 C 308.861 0.436412 -1.53517 0
M  V30 2991 C 309.061 1.79758 -0.910459 0
M  V30 2992 O 308.117 2.47324 -0.508636 0
M  V30 2993 C 309.43 0.386734 -2.98203 0
M  V30 2994 C 310.978 0.467644 -3.09487 0
M  V30 2995 C 311.453 0.447978 -4.55804 0
M  V30 2996 N 312.944 0.508348 -4.60402 0
M  V30 2997 C 313.679 0.515184 -5.71081 0
M  V30 2998 N 313.175 0.477435 -6.91153 0
M  V30 2999 N 314.968 0.560988 -5.59294 0
M  V30 3000 H 307.119 -0.809546 -1.96367 0
M  V30 3001 H 309.382 -0.302733 -0.898363 0
M  V30 3002 H 309.088 -0.546539 -3.47427 0
M  V30 3003 H 308.962 1.20075 -3.57578 0
M  V30 3004 H 311.349 1.39134 -2.60242 0
M  V30 3005 H 311.43 -0.374753 -2.5304 0
M  V30 3006 H 311.074 -0.471826 -5.05704 0
M  V30 3007 H 311.004 1.30777 -5.10103 0
M  V30 3008 H 313.495 0.54218 -3.7399 0
M  V30 3009 H 313.808 0.486299 -7.71268 0
M  V30 3010 H 312.153 0.444278 -6.93579 0
M  V30 3011 H 315.344 0.5881 -4.64391 0
M  V30 3012 H 315.517 0.562846 -6.45551 0
M  V30 3013 N 308.923 1.53595 0.353017 0
M  V30 3014 C 310.171 1.70049 1.09215 0
M  V30 3015 C 310.492 0.461406 1.89463 0
M  V30 3016 O 309.762 -0.524633 1.88744 0
M  V30 3017 H 308.342 0.626912 0.40619 0
M  V30 3018 H 311.004 1.90822 0.396585 0
M  V30 3019 H 310.1 2.56718 1.77488 0
M  V30 3020 N 310.401 -0.613514 1.45168 0
M  V30 3021 C 311.626 -1.40437 1.52618 0
M  V30 3022 C 312.051 -1.87438 0.157707 0
M  V30 3023 O 311.409 -1.59791 -0.856537 0
M  V30 3024 C 311.457 -2.58894 2.51011 0
M  V30 3025 O 310.561 -3.59326 2.02382 0
M  V30 3026 H 309.902 -0.419506 0.514695 0
M  V30 3027 H 312.432 -0.747215 1.90467 0
M  V30 3028 H 312.442 -3.06214 2.69624 0
M  V30 3029 H 311.117 -2.24032 3.50403 0
M  V30 3030 H 309.694 -3.18695 1.93618 0
M  V30 3031 N 311.879 -1.3236 -0.855495 0
M  V30 3032 C 313.104 -1.2601 -1.64731 0
M  V30 3033 C 313.529 0.169068 -1.87339 0
M  V30 3034 O 312.887 1.12016 -1.42556 0
M  V30 3035 C 312.935 -2.02417 -2.98429 0
M  V30 3036 O 312.039 -1.3714 -3.8893 0
M  V30 3037 H 311.38 -0.434325 -0.502253 0
M  V30 3038 H 313.91 -1.74661 -1.06558 0
M  V30 3039 H 313.92 -2.12559 -3.48257 0
M  V30 3040 H 312.595 -3.06343 -2.81295 0
M  V30 3041 H 311.172 -1.3554 -3.47395 0
M  V30 3042 N 313.357 1.07166 -1.15556 0
M  V30 3043 C 314.287 2.16403 -0.877046 0
M  V30 3044 C 315.268 1.69217 0.173111 0
M  V30 3045 O 316.453 1.94181 0.027084 0
M  V30 3046 C 313.583 3.45349 -0.367632 0
M  V30 3047 C 312.537 4.05995 -1.35468 0
M  V30 3048 C 311.863 5.30045 -0.704038 0
M  V30 3049 C 313.163 4.45804 -2.72132 0
M  V30 3050 H 314.857 2.39959 -1.79053 0
M  V30 3051 H 312.403 1.15325 -0.862331 0
M  V30 3052 H 314.356 4.21095 -0.160317 0
M  V30 3053 H 313.08 3.21385 0.581326 0
M  V30 3054 H 311.739 3.32296 -1.54839 0
M  V30 3055 H 311.387 5.02373 0.251128 0
M  V30 3056 H 311.087 5.71579 -1.36277 0
M  V30 3057 H 312.611 6.08495 -0.50654 0
M  V30 3058 H 314.025 5.12671 -2.56595 0
M  V30 3059 H 312.422 4.98296 -3.34397 0
M  V30 3060 H 313.492 3.57083 -3.28054 0
M  V30 3061 N 314.835 0.952656 1.25548 0
M  V30 3062 C 316.082 0.606373 1.93208 0
M  V30 3063 C 316.41 -0.85631 1.74636 0
M  V30 3064 O 315.665 -1.62951 1.08376 0
M  V30 3065 C 315.964 0.908818 3.45652 0
M  V30 3066 C 315.63 2.35722 3.84378 0
M  V30 3067 C 314.292 2.75312 3.9466 0
M  V30 3068 C 316.644 3.29793 4.03591 0
M  V30 3069 C 313.972 4.08047 4.21562 0
M  V30 3070 C 316.324 4.62138 4.31985 0
M  V30 3071 C 314.988 5.01528 4.40484 0
M  V30 3072 H 314.258 0.221888 0.706998 0
M  V30 3073 H 316.905 1.20132 1.49133 0
M  V30 3074 H 315.21 0.231456 3.91116 0
M  V30 3075 H 316.907 0.619498 3.96186 0
M  V30 3076 H 313.497 2.04017 3.76928 0
M  V30 3077 H 317.681 3.00397 3.95064 0
M  V30 3078 H 312.937 4.38212 4.26357 0
M  V30 3079 H 317.111 5.35012 4.45797 0
M  V30 3080 H 314.738 6.04406 4.61083 0
M  V30 3081 N 316.313 -1.40141 0.720998 0
M  V30 3082 C 317.246 -2.2819 0.020916 0
M  V30 3083 C 318.224 -1.43633 -0.762129 0
M  V30 3084 O 319.408 -1.7304 -0.747633 0
M  V30 3085 C 316.535 -3.24281 -0.977715 0
M  V30 3086 C 315.581 -4.25548 -0.284836 0
M  V30 3087 S 316.414 -5.26247 0.991169 0
M  V30 3088 C 317.57 -6.259 -0.0052214 0
M  V30 3089 H 317.803 -2.87218 0.767649 0
M  V30 3090 H 315.336 -1.45656 0.512233 0
M  V30 3091 H 317.294 -3.80167 -1.54865 0
M  V30 3092 H 315.955 -2.643 -1.69719 0
M  V30 3093 H 315.148 -4.93154 -1.03996 0
M  V30 3094 H 314.75 -3.73389 0.213684 0
M  V30 3095 H 317.042 -6.72143 -0.850279 0
M  V30 3096 H 317.985 -7.05224 0.637599 0
M  V30 3097 H 318.393 -5.63277 -0.371366 0
M  V30 3098 N 317.792 -0.46758 -1.50504 0
M  V30 3099 C 319.069 0.15003 -1.95024 0
M  V30 3100 C 319.449 1.57304 -1.40779 0
M  V30 3101 O 318.797 2.20281 -0.607319 0
M  V30 3102 C 319.007 0.0969324 -3.48865 0
M  V30 3103 C 320.355 0.287565 -4.23625 0
M  V30 3104 O 321.379 0.173678 -3.55776 0
M  V30 3105 O 320.238 0.517186 -5.44047 0
M  V30 3106 H 317.332 0.113582 -0.819163 0
M  V30 3107 H 319.878 -0.52773 -1.61286 0
M  V30 3108 H 318.65 -0.896732 -3.80886 0
M  V30 3109 H 318.273 0.816303 -3.8913 0
M  V30 3110 N 319.27 1.56325 -0.20005 0
M  V30 3111 C 320.498 2.02105 0.442874 0
M  V30 3112 C 320.913 1.08014 1.5485 0
M  V30 3113 O 320.27 0.0858797 1.82298 0
M  V30 3114 C 320.321 3.47549 0.994583 0
M  V30 3115 O 320.042 4.38049 -0.0669322 0
M  V30 3116 C 321.543 4.0887 1.7129 0
M  V30 3117 H 318.763 0.661807 0.110691 0
M  V30 3118 H 321.307 2.02134 -0.310207 0
M  V30 3119 H 319.462 3.48204 1.69803 0
M  V30 3120 H 319.876 5.23368 0.344462 0
M  V30 3121 H 321.35 5.12475 2.05118 0
M  V30 3122 H 321.827 3.52615 2.61838 0
M  V30 3123 H 322.433 4.12002 1.05518 0
M  V30 3124 N 320.748 -0.0735177 1.57428 0
M  V30 3125 C 321.658 -1.10547 2.06922 0
M  V30 3126 C 322.674 -1.42506 0.998402 0
M  V30 3127 O 323.85 -1.52717 1.31299 0
M  V30 3128 C 320.915 -2.40019 2.50184 0
M  V30 3129 C 319.976 -2.15046 3.71556 0
M  V30 3130 C 319.209 -3.38345 4.12745 0
M  V30 3131 O 319.432 -4.47399 3.53822 0
M  V30 3132 O 318.366 -3.2666 5.05546 0
M  V30 3133 H 322.192 -0.715013 2.95163 0
M  V30 3134 H 319.777 -0.287531 1.46607 0
M  V30 3135 H 321.659 -3.16218 2.78539 0
M  V30 3136 H 320.334 -2.78447 1.65072 0
M  V30 3137 H 319.241 -1.36558 3.48285 0
M  V30 3138 H 320.574 -1.81499 4.57514 0
M  V30 3139 N 322.226 -1.5378 -0.344866 0
M  V30 3140 C 323.173 -1.81676 -1.42346 0
M  V30 3141 C 324.143 -0.662376 -1.52321 0
M  V30 3142 O 325.328 -0.906675 -1.67881 0
M  V30 3143 C 322.468 -2.03087 -2.79015 0
M  V30 3144 C 321.581 -3.30799 -2.77842 0
M  V30 3145 C 320.716 -3.42285 -4.0622 0
M  V30 3146 C 319.755 -4.6395 -3.9927 0
M  V30 3147 N 318.892 -4.72477 -5.19336 0
M  V30 3148 H 323.732 -2.73703 -1.17858 0
M  V30 3149 H 321.269 -1.35568 -0.570949 0
M  V30 3150 H 323.227 -2.1349 -3.58438 0
M  V30 3151 H 321.857 -1.14375 -3.01858 0
M  V30 3152 H 320.909 -3.29244 -1.90533 0
M  V30 3153 H 322.221 -4.20314 -2.68584 0
M  V30 3154 H 321.375 -3.52113 -4.94066 0
M  V30 3155 H 320.114 -2.50823 -4.18258 0
M  V30 3156 H 319.119 -4.54201 -3.09809 0
M  V30 3157 H 320.344 -5.56775 -3.88817 0
M  V30 3158 H 318.29 -3.83924 -5.3192 0
M  V30 3159 H 318.207 -5.55927 -5.12329 0
M  V30 3160 H 319.475 -4.86613 -6.08957 0
M  V30 3161 N 323.704 0.605807 -1.45491 0
M  V30 3162 C 324.929 1.39625 -1.53361 0
M  V30 3163 C 325.354 1.87351 -0.167645 0
M  V30 3164 O 324.712 1.60243 0.848051 0
M  V30 3165 C 324.76 2.57559 -2.5238 0
M  V30 3166 O 323.864 3.58248 -2.04285 0
M  V30 3167 H 323.205 0.416771 -0.516912 0
M  V30 3168 H 325.735 0.737103 -1.90861 0
M  V30 3169 H 325.745 3.0478 -2.71244 0
M  V30 3170 H 324.42 2.22171 -3.51586 0
M  V30 3171 H 322.997 3.17664 -1.95305 0
M  V30 3172 N 325.182 1.32811 0.848464 0
M  V30 3173 C 326.43 1.23479 1.59991 0
M  V30 3174 C 326.751 -0.201853 1.93952 0
M  V30 3175 O 326.021 -1.12818 1.60153 0
M  V30 3176 H 324.601 0.454034 0.593179 0
M  V30 3177 H 327.263 1.66412 1.01455 0
M  V30 3178 H 326.359 1.82178 2.53412 0
M  V30 3179 N 326.66 -1.06551 1.16123 0
M  V30 3180 C 327.607 -2.13961 0.865414 0
M  V30 3181 C 328.577 -1.65066 -0.185055 0
M  V30 3182 O 329.762 -1.90732 -0.05083 0
M  V30 3183 C 326.902 -3.43113 0.369776 0
M  V30 3184 C 326.015 -4.05756 1.48276 0
M  V30 3185 C 325.15 -5.22773 0.942414 0
M  V30 3186 C 324.189 -5.77395 2.03179 0
M  V30 3187 N 323.326 -6.85731 1.50721 0
M  V30 3188 H 328.166 -2.38605 1.78527 0
M  V30 3189 H 325.703 -1.17072 0.890646 0
M  V30 3190 H 327.661 -4.17151 0.0640643 0
M  V30 3191 H 326.291 -3.18695 -0.513143 0
M  V30 3192 H 325.343 -3.29292 1.9045 0
M  V30 3193 H 326.655 -4.42351 2.30493 0
M  V30 3194 H 325.809 -6.03827 0.589729 0
M  V30 3195 H 324.548 -4.87618 0.0895191 0
M  V30 3196 H 323.553 -4.94981 2.3932 0
M  V30 3197 H 324.778 -6.14603 2.8886 0
M  V30 3198 H 322.724 -6.52499 0.676811 0
M  V30 3199 H 322.641 -7.21254 2.26557 0
M  V30 3200 H 323.909 -7.7047 1.18303 0
M  V30 3201 N 328.138 -0.959301 -1.25041 0
M  V30 3202 C 329.554 -0.664474 -1.4511 0
M  V30 3203 C 329.754 0.776481 -1.85938 0
M  V30 3204 O 328.81 1.55128 -1.99227 0
M  V30 3205 C 330.123 -1.64139 -2.5195 0
M  V30 3206 C 331.671 -1.65309 -2.65786 0
M  V30 3207 C 332.146 -2.61777 -3.75815 0
M  V30 3208 N 333.637 -2.60169 -3.83231 0
M  V30 3209 C 334.372 -3.31489 -4.6787 0
M  V30 3210 N 333.868 -4.12298 -5.56761 0
M  V30 3211 N 335.661 -3.20354 -4.61876 0
M  V30 3212 H 327.812 -1.89043 -0.968332 0
M  V30 3213 H 330.075 -0.813408 -0.4869 0
M  V30 3214 H 329.781 -2.67086 -2.28819 0
M  V30 3215 H 329.655 -1.40756 -3.49954 0
M  V30 3216 H 332.042 -0.630778 -2.8828 0
M  V30 3217 H 332.123 -1.92753 -1.68167 0
M  V30 3218 H 331.767 -3.64137 -3.54071 0
M  V30 3219 H 331.697 -2.31616 -4.72929 0
M  V30 3220 H 334.188 -2.01507 -3.19692 0
M  V30 3221 H 334.501 -4.63625 -6.18281 0
M  V30 3222 H 332.846 -4.16395 -5.56454 0
M  V30 3223 H 336.037 -2.56692 -3.91442 0
M  V30 3224 H 336.21 -3.76201 -5.27614 0
M  V30 3225 N 329.616 1.39756 -0.72842 0
M  V30 3226 C 330.526 2.34444 -0.0855374 0
M  V30 3227 C 331.542 1.57976 0.729356 0
M  V30 3228 O 332.718 1.90301 0.659346 0
M  V30 3229 C 329.783 3.36965 0.815798 0
M  V30 3230 C 328.844 4.29299 -0.0105996 0
M  V30 3231 C 328.077 5.26923 0.84781 0
M  V30 3232 O 328.3 5.30859 2.08673 0
M  V30 3233 O 327.234 6.01249 0.279969 0
M  V30 3234 H 331.06 2.91065 -0.866892 0
M  V30 3235 H 328.645 1.4117 -0.48902 0
M  V30 3236 H 330.527 3.99804 1.33171 0
M  V30 3237 H 329.202 2.82739 1.57608 0
M  V30 3238 H 328.109 3.69703 -0.571877 0
M  V30 3239 H 329.442 4.86712 -0.73295 0
M  V30 3240 N 331.094 0.475555 1.50254 0
M  V30 3241 C 332.341 -0.0778919 2.0235 0
M  V30 3242 C 332.669 -1.39319 1.35722 0
M  V30 3243 O 331.924 -1.89888 0.473395 0
M  V30 3244 C 332.223 -0.305114 3.56095 0
M  V30 3245 C 331.889 0.92903 4.41225 0
M  V30 3246 C 330.551 1.26739 4.6421 0
M  V30 3247 C 332.903 1.75054 4.90923 0
M  V30 3248 C 330.231 2.42724 5.34137 0
M  V30 3249 C 332.583 2.9017 5.62125 0
M  V30 3250 C 331.247 3.24416 5.83362 0
M  V30 3251 H 330.517 -0.0285027 0.740452 0
M  V30 3252 H 333.164 0.630543 1.80821 0
M  V30 3253 H 331.469 -1.09584 3.76163 0
M  V30 3254 H 333.166 -0.747377 3.93974 0
M  V30 3255 H 329.756 0.655428 4.23559 0
M  V30 3256 H 333.94 1.50231 4.73016 0
M  V30 3257 H 329.196 2.69525 5.48786 0
M  V30 3258 H 333.37 3.54169 5.99614 0
M  V30 3259 H 330.997 4.14396 6.37323 0
M  V30 3260 N 332.573 -1.56217 0.208337 0
M  V30 3261 C 333.85 -1.89739 -0.475234 0
M  V30 3262 C 334.23 -1.1238 -1.78701 0
M  V30 3263 O 333.578 -0.228979 -2.2735 0
M  V30 3264 C 333.788 -3.42289 -0.681101 0
M  V30 3265 C 335.136 -4.12789 -0.994507 0
M  V30 3266 O 336.16 -3.47814 -0.768357 0
M  V30 3267 O 335.019 -5.27649 -1.42299 0
M  V30 3268 H 332.113 -0.788478 -0.249461 0
M  V30 3269 H 334.659 -1.67855 0.249538 0
M  V30 3270 H 333.431 -3.90534 0.244722 0
M  V30 3271 H 333.054 -3.69909 -1.45785 0
M  V30 3272 N 334.051 0.0651679 -1.57465 0
M  V30 3273 C 335.297 0.764193 -1.87851 0
M  V30 3274 C 335.63 1.76889 -0.801495 0
M  V30 3275 O 334.905 1.93594 0.187528 0
M  V30 3276 C 335.188 1.46625 -3.28897 0
M  V30 3277 C 335.041 0.477515 -4.47258 0
M  V30 3278 C 336.36 2.4095 -3.68281 0
M  V30 3279 H 333.479 0.276351 -0.683227 0
M  V30 3280 H 336.121 0.0272868 -1.8998 0
M  V30 3281 H 334.271 2.09438 -3.27212 0
M  V30 3282 H 335.943 -0.145922 -4.61069 0
M  V30 3283 H 334.186 -0.206576 -4.33308 0
M  V30 3284 H 334.857 1.0065 -5.42746 0
M  V30 3285 H 337.333 1.88209 -3.71102 0
M  V30 3286 H 336.209 2.87072 -4.67847 0
M  V30 3287 H 336.47 3.26049 -2.98571 0
M  V30 3288 N 335.529 1.53961 0.336706 0
M  V30 3289 C 336.945 1.44378 0.680241 0
M  V30 3290 C 337.145 0.606034 1.9217 0
M  V30 3291 O 336.201 0.099688 2.52303 0
M  V30 3292 C 337.514 2.87945 0.8665 0
M  V30 3293 C 339.062 2.97763 0.964682 0
M  V30 3294 C 339.537 4.42453 1.18321 0
M  V30 3295 N 341.028 4.46008 1.25025 0
M  V30 3296 C 341.763 5.55102 1.43697 0
M  V30 3297 N 341.259 6.7419 1.59498 0
M  V30 3298 N 343.052 5.42727 1.463 0
M  V30 3299 H 335.203 2.06918 -0.479455 0
M  V30 3300 H 337.466 0.935634 -0.152619 0
M  V30 3301 H 337.172 3.51691 0.0256937 0
M  V30 3302 H 337.046 3.33293 1.76623 0
M  V30 3303 H 339.433 2.34153 1.796 0
M  V30 3304 H 339.514 2.55766 0.041708 0
M  V30 3305 H 339.158 5.06645 0.356788 0
M  V30 3306 H 339.088 4.82048 2.11985 0
M  V30 3307 H 341.579 3.60196 1.14312 0
M  V30 3308 H 341.892 7.53095 1.734 0
M  V30 3309 H 340.237 6.77123 1.56621 0
M  V30 3310 H 343.428 4.48647 1.33543 0
M  V30 3311 H 343.601 6.27806 1.6051 0
M  V30 3312 N 337.007 -0.598083 1.45811 0
M  V30 3313 C 337.939 -1.72231 1.51225 0
M  V30 3314 C 338.952 -1.57757 0.402059 0
M  V30 3315 O 340.141 -1.65464 0.669624 0
M  V30 3316 C 337.241 -3.10331 1.3619 0
M  V30 3317 C 336.414 -3.50955 2.61054 0
M  V30 3318 C 335.473 -4.68055 2.40439 0
M  V30 3319 O 334.499 -4.74691 3.14097 0
M  V30 3320 N 335.701 -5.61941 1.45612 0
M  V30 3321 H 338.466 -1.68046 2.48154 0
M  V30 3322 H 336.027 -0.783637 1.41671 0
M  V30 3323 H 338.019 -3.86439 1.20195 0
M  V30 3324 H 336.589 -3.0897 0.475015 0
M  V30 3325 H 335.809 -2.64711 2.92099 0
M  V30 3326 H 337.097 -3.74858 3.44034 0
M  V30 3327 H 336.495 -5.59301 0.848431 0
M  V30 3328 H 335.052 -6.37542 1.35585 0
M  V30 3329 N 338.485 -1.33259 -0.841409 0
M  V30 3330 C 339.713 -1.27605 -1.62864 0
M  V30 3331 C 340.128 0.153507 -1.88175 0
M  V30 3332 O 339.485 1.09485 -1.46011 0
M  V30 3333 C 339.536 -2.04596 -2.98031 0
M  V30 3334 O 339.257 -3.41975 -2.73834 0
M  V30 3335 C 340.758 -2.06122 -3.92465 0
M  V30 3336 H 337.978 -0.439718 -0.506842 0
M  V30 3337 H 340.522 -1.75591 -1.04824 0
M  V30 3338 H 338.677 -1.60299 -3.5268 0
M  V30 3339 H 339.091 -3.81549 -3.59889 0
M  V30 3340 H 340.565 -2.64451 -4.84531 0
M  V30 3341 H 341.042 -1.05083 -4.26444 0
M  V30 3342 H 341.648 -2.50427 -3.43753 0
M  V30 3343 N 339.963 1.05934 -1.16686 0
M  V30 3344 C 341.374 1.60263 -0.957745 0
M  V30 3345 C 341.725 1.89789 0.49745 0
M  V30 3346 O 340.85 1.67401 1.37135 0
M  V30 3347 C 341.445 2.91172 -1.73218 0
M  V30 3348 C 340.004 3.42188 -1.56794 0
M  V30 3349 C 339.151 2.16028 -1.73859 0
M  V30 3350 H 342.102 0.888392 -1.31504 0
M  V30 3351 H 342.123 3.60744 -1.21014 0
M  V30 3352 H 341.635 2.6965 -2.79124 0
M  V30 3353 H 339.736 3.68762 -0.533437 0
M  V30 3354 H 339.849 4.17273 -2.35414 0
M  V30 3355 H 338.213 2.26426 -1.16633 0
M  V30 3356 H 338.996 1.96985 -2.81161 0
M  V30 3357 N 341.441 0.965919 1.2453 0
M  V30 3358 C 342.373 0.452465 2.2469 0
M  V30 3359 C 343.386 -0.437821 1.56802 0
M  V30 3360 O 344.575 -0.244283 1.76821 0
M  V30 3361 C 341.675 -0.366258 3.36915 0
M  V30 3362 C 340.848 0.513701 4.34373 0
M  V30 3363 C 339.907 -0.248716 5.25612 0
M  V30 3364 O 338.933 0.356745 5.68081 0
M  V30 3365 N 340.135 -1.53877 5.59734 0
M  V30 3366 H 342.9 1.31361 2.69378 0
M  V30 3367 H 340.461 0.837541 1.38553 0
M  V30 3368 H 342.453 -0.884297 3.94921 0
M  V30 3369 H 341.023 -1.12832 2.91526 0
M  V30 3370 H 340.243 1.21273 3.75082 0
M  V30 3371 H 341.531 1.11391 4.96457 0
M  V30 3372 H 340.929 -2.05243 5.27154 0
M  V30 3373 H 339.486 -2.00254 6.20275 0
M  V30 3374 N 342.919 -1.39368 0.735821 0
M  V30 3375 C 344.165 -2.00794 0.284544 0
M  V30 3376 C 344.498 -1.58255 -1.12557 0
M  V30 3377 O 343.773 -0.811819 -1.76748 0
M  V30 3378 C 344.056 -3.58011 0.387337 0
M  V30 3379 C 343.909 -4.10566 1.83728 0
M  V30 3380 C 345.228 -4.395 -0.22975 0
M  V30 3381 H 342.347 -0.729501 0.104866 0
M  V30 3382 H 344.989 -1.65564 0.93213 0
M  V30 3383 H 343.139 -3.88154 -0.164006 0
M  V30 3384 H 344.811 -3.91139 2.44556 0
M  V30 3385 H 343.054 -3.64095 2.35833 0
M  V30 3386 H 343.725 -5.19702 1.86047 0
M  V30 3387 H 346.201 -4.15406 0.240257 0
M  V30 3388 H 345.077 -5.48752 -0.127485 0
M  V30 3389 H 345.338 -4.22062 -1.3159 0
M  V30 3390 N 344.397 -0.483516 -1.5 0
M  V30 3391 C 345.345 0.318061 -2.30415 0
M  V30 3392 C 346.339 0.978988 -1.38247 0
M  V30 3393 O 347.545 0.908673 -1.55381 0
M  V30 3394 H 343.92 0.121419 -0.742133 0
M  V30 3395 H 345.891 -0.380403 -2.95965 0
M  V30 3396 C 344.64 1.38013 -3.19136 0
M  V30 3397 H 343.963 0.880952 -3.89973 0
M  V30 3398 H 345.403 1.91332 -3.78375 0
M  V30 3399 C 343.862 2.38884 -2.37563 0
M  V30 3400 O 344.392 3.44412 -2.06744 0
M  V30 3401 N 342.598 2.10912 -1.99911 0
M  V30 3402 H 342.145 1.25118 -2.25174 0
M  V30 3403 H 342.103 2.78635 -1.45636 0
M  V30 3404 N 345.875 1.56104 -0.216619 0
M  V30 3405 C 347.124 1.97348 0.416744 0
M  V30 3406 C 347.437 1.10715 1.6125 0
M  V30 3407 O 348.643 1.41836 2.31506 0
M  V30 3408 C 347.099 3.51059 0.792835 0
M  V30 3409 C 346.707 4.46387 -0.379828 0
M  V30 3410 C 348.451 4.01026 1.39208 0
M  V30 3411 C 346.358 5.91397 0.0184223 0
M  V30 3412 H 345.288 0.736942 0.159475 0
M  V30 3413 H 347.939 1.80827 -0.31205 0
M  V30 3414 H 346.321 3.63162 1.57891 0
M  V30 3415 H 347.495 4.46029 -1.15737 0
M  V30 3416 H 345.81 4.06734 -0.891979 0
M  V30 3417 H 348.407 5.0686 1.70286 0
M  V30 3418 H 348.75 3.46587 2.30614 0
M  V30 3419 H 349.283 3.92125 0.669537 0
M  V30 3420 H 346.022 6.49807 -0.862002 0
M  V30 3421 H 345.542 5.94961 0.760384 0
M  V30 3422 H 347.221 6.45455 0.446818 0
M  V30 3423 N 347.353 -0.0568162 1.57498 0
M  V30 3424 C 348.301 -1.08452 2.05769 0
M  V30 3425 C 349.295 -1.39164 0.965903 0
M  V30 3426 O 350.501 -1.38395 1.15095 0
M  V30 3427 H 346.876 -0.367148 0.656282 0
M  V30 3428 H 348.847 -0.651368 2.91204 0
M  V30 3429 C 347.596 -2.38543 2.52968 0
M  V30 3430 H 346.919 -2.15765 3.36579 0
M  V30 3431 H 348.359 -3.08863 2.90481 0
M  V30 3432 C 346.818 -3.05562 1.41893 0
M  V30 3433 O 347.348 -3.94262 0.769442 0
M  V30 3434 N 345.554 -2.6643 1.16032 0
M  V30 3435 H 345.101 -1.94387 1.6903 0
M  V30 3436 H 345.059 -3.11593 0.419219 0
M  V30 3437 N 348.832 -1.54138 -0.328536 0
M  V30 3438 C 350.243 -1.63395 -0.903272 0
M  V30 3439 C 350.594 -0.524828 -1.8905 0
M  V30 3440 O 349.719 0.343068 -2.13663 0
M  V30 3441 C 350.314 -2.9618 -1.64507 0
M  V30 3442 C 348.873 -3.0765 -2.1686 0
M  V30 3443 C 348.02 -2.58933 -0.992416 0
M  V30 3444 H 350.971 -1.58344 -0.106253 0
M  V30 3445 H 350.992 -2.86061 -2.50897 0
M  V30 3446 H 350.504 -3.76884 -0.926302 0
M  V30 3447 H 348.605 -2.31611 -2.91868 0
M  V30 3448 H 348.718 -4.1337 -2.42202 0
M  V30 3449 H 347.082 -2.14706 -1.37016 0
M  V30 3450 H 347.865 -3.42089 -0.288041 0
M  V30 3451 N 350.31 0.590341 -1.46126 0
M  V30 3452 C 351.557 1.34882 -1.5104 0
M  V30 3453 C 351.885 1.93849 -0.159021 0
M  V30 3454 O 351.14 1.76544 0.844436 0
M  V30 3455 C 351.439 2.5032 -2.55097 0
M  V30 3456 C 351.105 2.09394 -3.99331 0
M  V30 3457 C 349.767 1.97947 -4.38601 0
M  V30 3458 C 352.119 1.77712 -4.89967 0
M  V30 3459 C 349.447 1.53065 -5.66381 0
M  V30 3460 C 351.799 1.34312 -6.18177 0
M  V30 3461 C 350.463 1.21436 -6.56361 0
M  V30 3462 H 349.733 0.493568 -0.552695 0
M  V30 3463 H 352.38 0.665539 -1.79563 0
M  V30 3464 H 350.685 3.24062 -2.20207 0
M  V30 3465 H 352.382 3.08541 -2.56132 0
M  V30 3466 H 348.972 2.19235 -3.68285 0
M  V30 3467 H 353.156 1.85445 -4.60352 0
M  V30 3468 H 348.412 1.41733 -5.94745 0
M  V30 3469 H 352.586 1.08849 -6.87841 0
M  V30 3470 H 350.213 0.864345 -7.5527 0
M  V30 3471 N 351.788 1.33704 0.83433 0
M  V30 3472 C 353.016 1.28467 1.62185 0
M  V30 3473 C 353.431 -0.143526 1.88254 0
M  V30 3474 O 352.788 -1.08709 1.4659 0
M  V30 3475 C 352.839 2.06174 2.96942 0
M  V30 3476 O 352.56 3.43422 2.72016 0
M  V30 3477 C 354.061 2.08201 3.91366 0
M  V30 3478 H 351.281 0.4424 0.504503 0
M  V30 3479 H 353.825 1.76145 1.03891 0
M  V30 3480 H 351.98 1.62167 3.51825 0
M  V30 3481 H 352.394 3.83453 3.57861 0
M  V30 3482 H 353.868 2.67017 4.83121 0
M  V30 3483 H 354.345 1.07343 4.2588 0
M  V30 3484 H 354.951 2.52246 3.42421 0
M  V30 3485 N 353.266 -1.05314 1.17247 0
M  V30 3486 C 354.677 -1.59753 0.96623 0
M  V30 3487 C 355.028 -1.9005 -0.487378 0
M  V30 3488 O 354.153 -1.68126 -1.36245 0
M  V30 3489 C 354.748 -2.90249 1.74759 0
M  V30 3490 C 353.307 -3.41352 1.58606 0
M  V30 3491 C 352.454 -2.15103 1.75002 0
M  V30 3492 H 355.405 -0.881406 1.31973 0
M  V30 3493 H 355.426 -3.60097 1.22925 0
M  V30 3494 H 354.938 -2.68166 2.8055 0
M  V30 3495 H 353.039 -3.68474 0.552985 0
M  V30 3496 H 353.152 -4.16019 2.37624 0
M  V30 3497 H 351.516 -2.25804 1.17833 0
M  V30 3498 H 352.299 -1.95491 2.82202 0
M  V30 3499 N 354.744 -0.972509 -1.24016 0
M  V30 3500 C 356.021 -0.553733 -1.87598 0
M  V30 3501 C 356.401 0.969158 -1.87538 0
M  V30 3502 O 355.749 1.84255 -1.35139 0
M  V30 3503 C 355.959 -1.15076 -3.29482 0
M  V30 3504 C 357.307 -1.23862 -4.06132 0
M  V30 3505 O 358.331 -1.10363 -3.38672 0
M  V30 3506 O 357.19 -1.45252 -5.26844 0
M  V30 3507 H 354.284 -0.185331 -0.805966 0
M  V30 3508 H 356.83 -1.06709 -1.31952 0
M  V30 3509 H 355.602 -2.19333 -3.2405 0
M  V30 3510 H 355.225 -0.621746 -3.92709 0
M  V30 3511 N 356.222 1.38976 -0.743202 0
M  V30 3512 C 357.447 2.05161 -0.303936 0
M  V30 3513 C 357.872 1.55677 1.05576 0
M  V30 3514 O 357.23 0.704131 1.67068 0
M  V30 3515 C 357.278 3.59138 -0.324373 0
M  V30 3516 O 356.382 4.06668 0.685204 0
M  V30 3517 H 355.723 0.649815 -0.136518 0
M  V30 3518 H 358.253 1.77852 -1.01142 0
M  V30 3519 H 358.263 4.07639 -0.171618 0
M  V30 3520 H 356.938 3.94515 -1.31647 0
M  V30 3521 H 355.515 3.69561 0.497913 0
M  V30 3522 N 357.7 0.491464 1.49741 0
M  V30 3523 C 358.63 -0.28154 2.31796 0
M  V30 3524 C 359.611 -0.971473 1.3963 0
M  V30 3525 O 360.796 -0.964719 1.68543 0
M  V30 3526 C 357.926 -1.35203 3.19902 0
M  V30 3527 C 356.88 -0.782529 4.20786 0
M  V30 3528 C 356.206 -1.95283 4.97764 0
M  V30 3529 C 357.506 0.21999 5.21837 0
M  V30 3530 H 359.2 0.403355 2.96671 0
M  V30 3531 H 356.746 0.195425 1.42668 0
M  V30 3532 H 358.699 -1.90045 3.76113 0
M  V30 3533 H 357.423 -2.06598 2.52953 0
M  V30 3534 H 356.082 -0.255928 3.65706 0
M  V30 3535 H 355.73 -2.65423 4.2727 0
M  V30 3536 H 355.43 -1.57789 5.66018 0
M  V30 3537 H 356.954 -2.50577 5.56816 0
M  V30 3538 H 358.368 -0.23996 5.72798 0
M  V30 3539 H 356.765 0.51026 5.97927 0
M  V30 3540 H 357.835 1.13911 4.7133 0
M  V30 3541 N 359.178 -1.55987 0.224894 0
M  V30 3542 C 360.108 -2.23426 -0.678457 0
M  V30 3543 C 361.089 -1.20709 -1.19847 0
M  V30 3544 O 362.274 -1.49304 -1.24186 0
M  V30 3545 C 359.404 -2.91676 -1.88527 0
M  V30 3546 C 358.358 -4.00893 -1.49896 0
M  V30 3547 C 357.684 -4.56455 -2.78483 0
M  V30 3548 C 358.984 -5.17769 -0.686461 0
M  V30 3549 H 360.678 -2.99175 -0.116173 0
M  V30 3550 H 358.224 -1.43897 -0.054436 0
M  V30 3551 H 360.177 -3.37547 -2.5227 0
M  V30 3552 H 358.901 -2.1338 -2.47258 0
M  V30 3553 H 357.56 -3.55758 -0.884985 0
M  V30 3554 H 357.208 -3.74886 -3.35365 0
M  V30 3555 H 356.908 -5.30169 -2.53368 0
M  V30 3556 H 358.432 -5.05047 -3.43162 0
M  V30 3557 H 359.846 -5.60001 -1.22767 0
M  V30 3558 H 358.243 -5.97735 -0.532259 0
M  V30 3559 H 359.313 -4.83932 0.306196 0
M  V30 3560 N 360.656 0.0484629 -1.57525 0
M  V30 3561 C 361.586 1.0549 -2.08313 0
M  V30 3562 C 362.567 1.38929 -0.981463 0
M  V30 3563 O 363.752 1.48151 -1.25558 0
M  V30 3564 C 360.882 2.36162 -2.54646 0
M  V30 3565 C 359.836 2.17016 -3.68901 0
M  V30 3566 C 359.162 3.53278 -4.01371 0
M  V30 3567 C 360.462 1.57219 -4.98076 0
M  V30 3568 H 362.156 0.632195 -2.92649 0
M  V30 3569 H 359.702 0.302654 -1.40784 0
M  V30 3570 H 361.655 3.06882 -2.88793 0
M  V30 3571 H 360.379 2.80456 -1.67368 0
M  V30 3572 H 359.038 1.48733 -3.35073 0
M  V30 3573 H 358.686 3.95185 -3.11188 0
M  V30 3574 H 358.386 3.41299 -4.78318 0
M  V30 3575 H 359.91 4.25391 -4.38035 0
M  V30 3576 H 361.324 2.17832 -5.30304 0
M  V30 3577 H 359.721 1.55871 -5.79503 0
M  V30 3578 H 360.791 0.535956 -4.81929 0
M  V30 3579 N 362.134 1.5431 0.320358 0
M  V30 3580 C 363.084 1.803 1.39556 0
M  V30 3581 C 364.068 0.659166 1.46778 0
M  V30 3582 O 365.26 0.91926 1.51257 0
M  V30 3583 C 362.389 2.03665 2.76361 0
M  V30 3584 C 361.475 3.24178 2.73439 0
M  V30 3585 N 361.866 4.4516 2.40137 0
M  V30 3586 C 360.164 3.25816 3.04565 0
M  V30 3587 C 360.865 5.27109 2.4603 0
M  V30 3588 N 359.841 4.64368 2.82601 0
M  V30 3589 H 363.643 2.71416 1.12742 0
M  V30 3590 H 361.157 1.53548 0.528856 0
M  V30 3591 H 363.154 2.20425 3.53862 0
M  V30 3592 H 361.814 1.13805 3.04103 0
M  V30 3593 H 362.825 4.72104 2.12927 0
M  V30 3594 H 359.502 2.46001 3.37328 0
M  V30 3595 H 360.892 6.33728 2.23246 0
M  V30 3596 N 363.613 -0.582584 1.46437 0
M  V30 3597 C 364.838 -1.37168 1.55563 0
M  V30 3598 C 365.263 -1.87061 0.19743 0
M  V30 3599 O 364.621 -1.61572 -0.822451 0
M  V30 3600 C 364.669 -2.53511 2.56446 0
M  V30 3601 O 363.773 -3.54953 2.09958 0
M  V30 3602 H 363.114 -0.408494 0.523477 0
M  V30 3603 H 365.644 -0.706646 1.9201 0
M  V30 3604 H 365.654 -3.00426 2.76058 0
M  V30 3605 H 364.329 -2.16549 3.55076 0
M  V30 3606 H 362.906 -3.14516 2.00334 0
M  V30 3607 N 365.091 -1.34144 -0.827227 0
M  V30 3608 C 366.316 -1.29476 -1.62021 0
M  V30 3609 C 366.741 0.129292 -1.87655 0
M  V30 3610 O 366.099 1.08967 -1.449 0
M  V30 3611 C 366.147 -2.08702 -2.94068 0
M  V30 3612 O 365.251 -1.45359 -3.85933 0
M  V30 3613 H 364.592 -0.444881 -0.492927 0
M  V30 3614 H 367.122 -1.76882 -1.02829 0
M  V30 3615 H 367.132 -2.19898 -3.43669 0
M  V30 3616 H 365.807 -3.12241 -2.74734 0
M  V30 3617 H 364.384 -1.42879 -3.44442 0
M  V30 3618 N 366.569 1.04691 -1.17803 0
M  V30 3619 C 367.817 1.7743 -0.967617 0
M  V30 3620 C 368.138 1.88359 0.504574 0
M  V30 3621 O 367.408 1.40402 1.36617 0
M  V30 3622 H 365.988 0.657242 -0.355024 0
M  V30 3623 H 368.65 1.2638 -1.48371 0
M  V30 3624 H 367.746 2.78924 -1.40027 0
M  V30 3625 N 368.047 0.979072 1.23499 0
M  V30 3626 C 368.979 0.476271 2.24197 0
M  V30 3627 C 369.992 -0.421166 1.57258 0
M  V30 3628 O 371.181 -0.225515 1.7707 0
M  V30 3629 C 368.281 -0.330503 3.37285 0
M  V30 3630 C 367.454 0.559744 4.33804 0
M  V30 3631 C 366.513 -0.192954 5.25846 0
M  V30 3632 O 365.539 0.416978 5.67671 0
M  V30 3633 N 366.741 -1.47932 5.61334 0
M  V30 3634 H 369.506 1.34211 2.67969 0
M  V30 3635 H 367.067 0.852189 1.37657 0
M  V30 3636 H 369.059 -0.842361 3.95836 0
M  V30 3637 H 367.629 -1.09734 2.92707 0
M  V30 3638 H 366.849 1.25245 3.73775 0
M  V30 3639 H 368.137 1.1665 4.95248 0
M  V30 3640 H 367.535 -1.9964 5.29302 0
M  V30 3641 H 366.092 -1.93664 6.22364 0
M  V30 3642 N 369.525 -1.3858 0.750561 0
M  V30 3643 C 370.765 -2.02032 0.310258 0
M  V30 3644 C 371.129 -1.58288 -1.08668 0
M  V30 3645 O 372.33 -2.14049 -1.62593 0
M  V30 3646 C 370.601 -3.54856 0.425647 0
M  V30 3647 S 372.16 -4.38748 0.0674797 0
M  V30 3648 H 368.978 -0.700705 0.120554 0
M  V30 3649 H 371.58 -1.69134 0.980512 0
M  V30 3650 H 370.284 -3.84182 1.44335 0
M  V30 3651 H 369.815 -3.92527 -0.261894 0
M  V30 3652 H 371.83 -4.82835 -1.14388 0
M  V30 3653 N 371.003 -0.499398 -1.49478 0
M  V30 3654 C 372.419 -0.155261 -1.58843 0
M  V30 3655 C 372.619 1.34008 -1.50479 0
M  V30 3656 O 371.675 2.11589 -1.37791 0
M  V30 3657 C 372.988 -0.730636 -2.91689 0
M  V30 3658 C 374.536 -0.696599 -3.0515 0
M  V30 3659 C 375.011 -1.25001 -4.40612 0
M  V30 3660 N 376.502 -1.21064 -4.47099 0
M  V30 3661 C 377.237 -1.60905 -5.50361 0
M  V30 3662 N 376.733 -2.08331 -6.60735 0
M  V30 3663 N 378.526 -1.52331 -5.41065 0
M  V30 3664 H 370.677 -1.47162 -1.53158 0
M  V30 3665 H 372.94 -0.610309 -0.725415 0
M  V30 3666 H 372.646 -1.77928 -3.03372 0
M  V30 3667 H 372.52 -0.190161 -3.7672 0
M  V30 3668 H 374.907 0.343204 -2.93097 0
M  V30 3669 H 374.988 -1.2742 -2.21806 0
M  V30 3670 H 374.632 -2.28859 -4.53416 0
M  V30 3671 H 374.562 -0.64836 -5.22593 0
M  V30 3672 H 377.053 -0.863128 -3.67911 0
M  V30 3673 H 377.366 -2.36805 -7.35624 0
M  V30 3674 H 375.711 -2.12304 -6.6178 0
M  V30 3675 H 378.902 -1.151 -4.53729 0
M  V30 3676 H 379.075 -1.83704 -6.21415 0
M  V30 3677 N 372.481 1.55866 -0.233164 0
M  V30 3678 C 373.897 1.59133 0.121988 0
M  V30 3679 C 374.097 1.25016 1.58029 0
M  V30 3680 O 373.153 0.990922 2.32243 0
M  V30 3681 C 374.466 2.99932 -0.214792 0
M  V30 3682 C 376.014 3.12601 -0.157971 0
M  V30 3683 C 376.489 4.55597 -0.46859 0
M  V30 3684 N 377.98 4.61305 -0.418585 0
M  V30 3685 C 378.715 5.69903 -0.63227 0
M  V30 3686 N 378.211 6.86819 -0.90835 0
M  V30 3687 N 380.004 5.59264 -0.563913 0
M  V30 3688 H 372.155 1.76315 -1.18434 0
M  V30 3689 H 374.418 0.820093 -0.475553 0
M  V30 3690 H 374.124 3.29588 -1.22739 0
M  V30 3691 H 373.998 3.74327 0.464691 0
M  V30 3692 H 376.385 2.82735 0.845283 0
M  V30 3693 H 376.466 2.40511 -0.871102 0
M  V30 3694 H 376.11 4.86182 -1.46934 0
M  V30 3695 H 376.04 5.25928 0.265865 0
M  V30 3696 H 378.531 3.77297 -0.213368 0
M  V30 3697 H 378.844 7.65507 -1.05919 0
M  V30 3698 H 377.189 6.88536 -0.945673 0
M  V30 3699 H 380.38 4.66802 -0.348372 0
M  V30 3700 H 380.553 6.43831 -0.733847 0
M  V30 3701 N 373.959 -0.0401083 1.57549 0
M  V30 3702 C 375.375 -0.395556 1.54621 0
M  V30 3703 C 375.575 -1.77281 0.957799 0
M  V30 3704 O 374.631 -2.45888 0.574031 0
M  V30 3705 C 375.944 -0.307535 2.99123 0
M  V30 3706 C 377.492 -0.385425 3.10618 0
M  V30 3707 C 377.967 -0.326973 4.56831 0
M  V30 3708 N 379.458 -0.386102 4.61588 0
M  V30 3709 C 380.193 -0.363591 5.72246 0
M  V30 3710 N 379.689 -0.29402 6.92176 0
M  V30 3711 N 381.482 -0.412503 5.60584 0
M  V30 3712 H 373.633 0.861325 1.94152 0
M  V30 3713 H 375.896 0.326445 0.890021 0
M  V30 3714 H 375.602 0.638461 3.45856 0
M  V30 3715 H 375.476 -1.10552 3.60636 0
M  V30 3716 H 377.863 -1.32185 2.63839 0
M  V30 3717 H 377.944 0.44171 2.51957 0
M  V30 3718 H 377.588 0.605738 5.04275 0
M  V30 3719 H 377.518 -1.17207 5.13391 0
M  V30 3720 H 380.009 -0.442832 3.75296 0
M  V30 3721 H 380.322 -0.28164 7.72287 0
M  V30 3722 H 378.667 -0.260232 6.94513 0
M  V30 3723 H 381.858 -0.464769 4.65787 0
M  V30 3724 H 382.031 -0.391492 6.46816 0
M  V30 3725 N 375.437 -1.54477 -0.31217 0
M  V30 3726 C 376.384 -1.84655 -1.38461 0
M  V30 3727 C 377.354 -0.694536 -1.50882 0
M  V30 3728 O 378.539 -0.942081 -1.6592 0
M  V30 3729 C 375.679 -2.0896 -2.74645 0
M  V30 3730 C 374.792 -3.36618 -2.70763 0
M  V30 3731 C 373.927 -3.50824 -3.98868 0
M  V30 3732 C 372.966 -4.72315 -3.89339 0
M  V30 3733 N 372.103 -4.83387 -5.09197 0
M  V30 3734 H 376.943 -2.76142 -1.12026 0
M  V30 3735 H 374.48 -1.36748 -0.542065 0
M  V30 3736 H 376.438 -2.21045 -3.53829 0
M  V30 3737 H 375.068 -1.20752 -2.99364 0
M  V30 3738 H 374.12 -3.33211 -1.83506 0
M  V30 3739 H 375.432 -4.25917 -2.59608 0
M  V30 3740 H 374.586 -3.62513 -4.86486 0
M  V30 3741 H 373.325 -2.59638 -4.12843 0
M  V30 3742 H 372.33 -4.6067 -3.00105 0
M  V30 3743 H 373.555 -5.64897 -3.76919 0
M  V30 3744 H 371.501 -3.9512 -5.23657 0
M  V30 3745 H 371.418 -5.66669 -5.00422 0
M  V30 3746 H 372.686 -4.9942 -5.98498 0
M  V30 3747 N 376.915 0.57481 -1.46744 0
M  V30 3748 C 378.331 0.898981 -1.31873 0
M  V30 3749 C 378.531 1.99313 -0.29605 0
M  V30 3750 O 377.587 2.50728 0.298621 0
M  V30 3751 C 378.9 1.30886 -2.7072 0
M  V30 3752 C 380.448 1.42127 -2.78871 0
M  V30 3753 C 380.923 1.86478 -4.18318 0
M  V30 3754 N 382.414 1.93658 -4.20774 0
M  V30 3755 C 383.149 2.29267 -5.2557 0
M  V30 3756 N 382.645 2.63612 -6.40688 0
M  V30 3757 N 384.438 2.29889 -5.1294 0
M  V30 3758 H 376.589 -0.147839 -2.11885 0
M  V30 3759 H 378.852 -0.00347013 -0.947994 0
M  V30 3760 H 378.558 0.578853 -3.46904 0
M  V30 3761 H 378.432 2.26874 -3.01343 0
M  V30 3762 H 380.819 2.14213 -2.0297 0
M  V30 3763 H 380.9 0.443705 -2.51922 0
M  V30 3764 H 380.544 1.14968 -4.94717 0
M  V30 3765 H 380.474 2.85207 -4.42679 0
M  V30 3766 H 382.965 1.69574 -3.37718 0
M  V30 3767 H 383.278 2.89759 -7.16421 0
M  V30 3768 H 381.623 2.61232 -6.44036 0
M  V30 3769 H 384.814 2.02485 -4.22039 0
M  V30 3770 H 384.987 2.57312 -5.94722 0
M  V30 3771 N 378.394 1.34581 0.820102 0
M  V30 3772 C 379.622 1.3018 1.60813 0
M  V30 3773 C 380.037 -0.123551 1.88395 0
M  V30 3774 O 379.394 -1.07148 1.47735 0
M  V30 3775 C 379.445 2.09312 2.94739 0
M  V30 3776 O 379.166 3.46288 2.68358 0
M  V30 3777 C 380.667 2.1234 3.89136 0
M  V30 3778 H 377.887 0.447726 0.499782 0
M  V30 3779 H 380.431 1.77237 1.02017 0
M  V30 3780 H 378.586 1.65889 3.50085 0
M  V30 3781 H 379 3.87227 3.53774 0
M  V30 3782 H 380.474 2.72126 4.80262 0
M  V30 3783 H 380.951 1.11854 4.24718 0
M  V30 3784 H 381.557 2.55864 3.39726 0
M  V30 3785 N 379.872 -1.04064 1.18357 0
M  V30 3786 C 381.102 -1.80654 1.00238 0
M  V30 3787 C 381.51 -1.83713 -0.452362 0
M  V30 3788 O 380.853 -1.27135 -1.32599 0
M  V30 3789 C 380.915 -3.27582 1.48088 0
M  V30 3790 C 380.579 -3.48184 2.96002 0
M  V30 3791 C 381.576 -3.39372 3.93856 0
M  V30 3792 C 379.261 -3.7478 3.34433 0
M  V30 3793 C 381.255 -3.5686 5.28138 0
M  V30 3794 C 378.942 -3.91915 4.68877 0
M  V30 3795 C 379.94 -3.82956 5.65539 0
M  V30 3796 O 379.628 -3.996 6.97549 0
M  V30 3797 H 379.36 -0.575751 0.354241 0
M  V30 3798 H 381.914 -1.32044 1.57333 0
M  V30 3799 H 380.144 -3.77161 0.853588 0
M  V30 3800 H 381.833 -3.8573 1.2636 0
M  V30 3801 H 382.599 -3.18789 3.65511 0
M  V30 3802 H 378.478 -3.80852 2.59756 0
M  V30 3803 H 382.022 -3.49783 6.03571 0
M  V30 3804 H 377.919 -4.11992 4.96923 0
M  V30 3805 H 378.687 -4.1676 7.04452 0
M  V30 3806 N 381.35 -0.985608 -1.22978 0
M  V30 3807 C 382.596 -0.667998 -1.92118 0
M  V30 3808 C 382.951 0.790454 -1.75413 0
M  V30 3809 O 382.244 1.56336 -1.10768 0
M  V30 3810 C 382.438 -1.00014 -3.43121 0
M  V30 3811 C 382.267 -2.48933 -3.74516 0
M  V30 3812 C 381.037 -3.15218 -3.94925 0
M  V30 3813 C 383.235 -3.47024 -3.79577 0
M  V30 3814 N 381.217 -4.53689 -4.13569 0
M  V30 3815 C 382.588 -4.70923 -4.03276 0
M  V30 3816 C 384.643 -3.41432 -3.62393 0
M  V30 3817 C 383.346 -5.89914 -4.11574 0
M  V30 3818 C 385.372 -4.59793 -3.71947 0
M  V30 3819 C 384.734 -5.82489 -3.96088 0
M  V30 3820 H 380.833 -0.295589 -0.723983 0
M  V30 3821 H 383.417 -1.26413 -1.4808 0
M  V30 3822 H 381.588 -0.432655 -3.85983 0
M  V30 3823 H 383.32 -0.63927 -3.99619 0
M  V30 3824 H 380.075 -2.65702 -3.92045 0
M  V30 3825 H 380.499 -5.25492 -4.26834 0
M  V30 3826 H 385.141 -2.47594 -3.4272 0
M  V30 3827 H 382.859 -6.84164 -4.30053 0
M  V30 3828 H 386.445 -4.57048 -3.59998 0
M  V30 3829 H 385.325 -6.72546 -4.033 0
M  V30 3830 N 382.828 1.3818 -0.7579 0
M  V30 3831 C 383.776 2.32277 -0.122482 0
M  V30 3832 C 384.77 1.54238 0.700505 0
M  V30 3833 O 385.976 1.69737 0.599119 0
M  V30 3834 H 382.351 0.751712 -0.0208143 0
M  V30 3835 H 384.322 2.83469 -0.932099 0
M  V30 3836 C 383.071 3.39447 0.753076 0
M  V30 3837 H 382.394 3.99591 0.129184 0
M  V30 3838 H 383.834 4.07684 1.16489 0
M  V30 3839 C 382.293 2.78375 1.8976 0
M  V30 3840 O 382.823 2.68025 2.99208 0
M  V30 3841 N 381.029 2.36121 1.69397 0
M  V30 3842 H 380.576 2.4474 0.803762 0
M  V30 3843 H 380.534 1.95602 2.46145 0
M  V30 3844 N 384.306 0.507319 1.49211 0
M  V30 3845 C 385.583 -0.0982702 1.95353 0
M  V30 3846 C 385.963 -1.53516 1.449 0
M  V30 3847 O 385.311 -2.18594 0.66551 0
M  V30 3848 C 385.521 -0.00440283 3.49 0
M  V30 3849 C 386.869 -0.175147 4.24239 0
M  V30 3850 O 387.893 -0.0792891 3.56112 0
M  V30 3851 O 386.752 -0.37276 5.45227 0
M  V30 3852 H 383.846 -0.0918236 0.821887 0
M  V30 3853 H 386.392 0.570307 1.5983 0
M  V30 3854 H 385.164 0.997402 3.78375 0
M  V30 3855 H 384.787 -0.712845 3.91158 0
M  V30 3856 N 385.784 -1.5574 0.241426 0
M  V30 3857 C 387.009 -2.0366 -0.392111 0
M  V30 3858 C 387.434 -1.11969 -1.51144 0
M  V30 3859 O 386.792 -0.111594 -1.80956 0
M  V30 3860 C 386.84 -3.49638 -0.882371 0
M  V30 3861 O 385.944 -3.6108 -1.99235 0
M  V30 3862 H 385.285 -0.658379 -0.0862122 0
M  V30 3863 H 387.815 -2.01302 0.365881 0
M  V30 3864 H 387.825 -3.90351 -1.18702 0
M  V30 3865 H 386.5 -4.15852 -0.0632361 0
M  V30 3866 H 385.077 -3.32262 -1.69282 0
M  V30 3867 N 387.262 0.0317525 -1.57568 0
M  V30 3868 C 388.502 0.727979 -1.90997 0
M  V30 3869 C 388.866 1.72664 -0.839708 0
M  V30 3870 O 390.067 2.47092 -1.05825 0
M  V30 3871 C 388.338 1.38239 -3.29583 0
M  V30 3872 S 389.897 2.10814 -3.84841 0
M  V30 3873 H 386.715 0.241226 -0.668828 0
M  V30 3874 H 389.317 -0.0173037 -1.95492 0
M  V30 3875 H 388.021 0.642288 -4.05343 0
M  V30 3876 H 387.552 2.16628 -3.28384 0
M  V30 3877 H 389.567 3.3792 -3.63352 0
M  V30 3878 N 388.74 1.54641 0.303973 0
M  V30 3879 C 389.988 1.73437 1.0375 0
M  V30 3880 C 390.309 0.521449 1.87899 0
M  V30 3881 O 389.579 -0.46432 1.90318 0
M  V30 3882 H 388.159 0.639518 0.386039 0
M  V30 3883 H 390.821 1.91988 0.335675 0
M  V30 3884 H 389.917 2.62235 1.69231 0
M  V30 3885 N 390.218 -0.567019 1.47046 0
M  V30 3886 C 391.128 -1.70247 1.6141 0
M  V30 3887 C 392.144 -1.66746 0.497157 0
M  V30 3888 O 393.32 -1.86371 0.763389 0
M  V30 3889 C 390.385 -3.06756 1.61561 0
M  V30 3890 C 389.446 -3.21399 2.84607 0
M  V30 3891 C 388.679 -4.51396 2.84741 0
M  V30 3892 O 388.902 -5.36255 1.94388 0
M  V30 3893 O 387.836 -4.69621 3.76483 0
M  V30 3894 H 391.662 -1.61073 2.57467 0
M  V30 3895 H 389.247 -0.735894 1.30019 0
M  V30 3896 H 391.129 -3.8801 1.64396 0
M  V30 3897 H 389.804 -3.16333 0.686684 0
M  V30 3898 H 388.711 -2.39579 2.8732 0
M  V30 3899 H 390.044 -3.16721 3.76761 0
M  V30 3900 N 391.696 -1.35014 -0.812953 0
M  V30 3901 C 392.973 -1.18502 -1.55617 0
M  V30 3902 C 393.353 0.238421 -2.09749 0
M  V30 3903 O 392.701 1.2411 -1.91857 0
M  V30 3904 C 392.911 -2.24783 -2.66971 0
M  V30 3905 C 394.259 -2.60268 -3.35478 0
M  V30 3906 O 395.283 -2.23648 -2.77236 0
M  V30 3907 O 394.142 -3.2321 -4.40678 0
M  V30 3908 H 391.236 -0.459984 -0.687272 0
M  V30 3909 H 393.782 -1.46677 -0.853464 0
M  V30 3910 H 392.554 -3.20284 -2.24798 0
M  V30 3911 H 392.177 -1.97841 -3.44884 0
M  V30 3912 N 393.175 1.03435 -1.18907 0
M  V30 3913 C 394.108 2.11162 -0.86521 0
M  V30 3914 C 395.086 1.6165 0.175473 0
M  V30 3915 O 396.27 1.88425 0.0530129 0
M  V30 3916 C 393.397 3.37423 -0.293868 0
M  V30 3917 C 392.443 4.05795 -1.31274 0
M  V30 3918 S 393.276 4.52027 -2.8711 0
M  V30 3919 C 394.432 5.81513 -2.31504 0
M  V30 3920 H 394.665 2.38308 -1.77754 0
M  V30 3921 H 392.198 1.16295 -1.01562 0
M  V30 3922 H 394.156 4.1049 0.0292572 0
M  V30 3923 H 392.817 3.0838 0.596682 0
M  V30 3924 H 392.01 4.96574 -0.86198 0
M  V30 3925 H 391.612 3.38874 -1.58242 0
M  V30 3926 H 393.904 6.55784 -1.70157 0
M  V30 3927 H 394.847 6.3136 -3.20608 0
M  V30 3928 H 395.255 5.36921 -1.74286 0
M  V30 3929 N 394.653 0.992116 1.22453 0
M  V30 3930 C 395.563 0.55065 2.28046 0
M  V30 3931 C 396.579 -0.400189 1.69335 0
M  V30 3932 O 397.755 -0.267215 1.99619 0
M  V30 3933 C 394.82 -0.128496 3.46462 0
M  V30 3934 C 393.881 0.865208 4.20491 0
M  V30 3935 C 393.114 0.218377 5.33253 0
M  V30 3936 O 393.337 -0.987894 5.6178 0
M  V30 3937 O 392.271 0.922845 5.94783 0
M  V30 3938 H 396.097 1.4291 2.67975 0
M  V30 3939 H 393.682 0.760326 1.28606 0
M  V30 3940 H 395.564 -0.508947 4.18315 0
M  V30 3941 H 394.239 -0.981526 3.0846 0
M  V30 3942 H 393.146 1.29658 3.50913 0
M  V30 3943 H 394.479 1.68741 4.62371 0
M  V30 3944 N 396.131 -1.37776 0.765217 0
M  V30 3945 C 397.094 -2.28686 0.153416 0
M  V30 3946 C 398.094 -1.47727 -0.635081 0
M  V30 3947 O 399.284 -1.68027 -0.459632 0
M  V30 3948 C 396.416 -3.31608 -0.790495 0
M  V30 3949 H 397.609 -2.84297 0.954723 0
M  V30 3950 H 395.162 -1.46932 0.53299 0
M  V30 3951 H 395.897 -2.81109 -1.61705 0
M  V30 3952 H 395.682 -3.9144 -0.227348 0
M  V30 3953 H 397.172 -3.99559 -1.21419 0
M  V30 3954 N 397.609 -0.515225 -1.4894 0
M  V30 3955 C 398.834 0.022727 -2.07388 0
M  V30 3956 C 399.259 1.2876 -1.37122 0
M  V30 3957 O 398.617 1.76067 -0.432431 0
M  V30 3958 C 398.665 0.244869 -3.59768 0
M  V30 3959 O 397.769 1.31667 -3.90817 0
M  V30 3960 H 397.11 -0.0325506 -0.663202 0
M  V30 3961 H 399.64 -0.718918 -1.91553 0
M  V30 3962 H 399.65 0.47205 -4.0526 0
M  V30 3963 H 398.325 -0.679194 -4.10317 0
M  V30 3964 H 396.902 1.07331 -3.5712 0
M  V30 3965 N 399.087 1.5561 -0.249682 0
M  V30 3966 C 400.364 1.90932 0.424761 0
M  V30 3967 C 400.744 1.17078 1.75658 0
M  V30 3968 O 400.092 0.289176 2.26663 0
M  V30 3969 C 400.302 3.43975 0.590109 0
M  V30 3970 C 401.65 4.15281 0.884714 0
M  V30 3971 O 402.674 3.49729 0.67587 0
M  V30 3972 O 401.533 5.31236 1.28259 0
M  V30 3973 H 398.627 0.794815 0.228468 0
M  V30 3974 H 401.173 1.67135 -0.293954 0
M  V30 3975 H 399.945 3.89748 -0.34818 0
M  V30 3976 H 399.568 3.73644 1.35926 0
M  V30 3977 N 400.565 -0.0233959 1.57583 0
M  V30 3978 C 401.795 -0.723631 1.93513 0
M  V30 3979 C 402.203 -1.69115 0.848333 0
M  V30 3980 O 401.546 -1.82781 -0.183484 0
M  V30 3981 C 401.608 -1.53075 3.25282 0
M  V30 3982 C 401.272 -0.727388 4.51174 0
M  V30 3983 C 402.269 -0.0251924 5.19894 0
M  V30 3984 C 399.954 -0.680256 4.97672 0
M  V30 3985 C 401.948 0.713374 6.33395 0
M  V30 3986 C 399.635 0.0620523 6.11068 0
M  V30 3987 C 400.633 0.757622 6.78785 0
M  V30 3988 O 400.321 1.48787 7.90011 0
M  V30 3989 H 400.053 -0.208051 0.643188 0
M  V30 3990 H 402.607 0.0167489 2.05393 0
M  V30 3991 H 400.837 -2.31508 3.09744 0
M  V30 3992 H 402.526 -2.11413 3.46496 0
M  V30 3993 H 403.292 -0.0526003 4.84971 0
M  V30 3994 H 399.171 -1.21116 4.44805 0
M  V30 3995 H 402.715 1.25683 6.86185 0
M  V30 3996 H 398.612 0.0913634 6.45435 0
M  V30 3997 H 399.38 1.40213 8.06401 0
M  V30 3998 N 402.043 -1.548 -0.295768 0
M  V30 3999 C 402.953 -1.89177 -1.38742 0
M  V30 4000 C 403.969 -0.786481 -1.55211 0
M  V30 4001 O 405.145 -1.08344 -1.69775 0
M  V30 4002 C 402.21 -2.13663 -2.73036 0
M  V30 4003 C 401.271 -3.37349 -2.65508 0
M  V30 4004 C 400.504 -3.60658 -3.93398 0
M  V30 4005 O 400.727 -2.86882 -4.93006 0
M  V30 4006 O 399.661 -4.54179 -3.94975 0
M  V30 4007 H 403.487 -2.82059 -1.12589 0
M  V30 4008 H 401.072 -1.41056 -0.492295 0
M  V30 4009 H 402.954 -2.3094 -3.52484 0
M  V30 4010 H 401.629 -1.23967 -2.99022 0
M  V30 4011 H 400.536 -3.25431 -1.84514 0
M  V30 4012 H 401.869 -4.27192 -2.44474 0
M  V30 4013 N 403.521 0.559213 -1.47345 0
M  V30 4014 C 404.451 1.67622 -1.62558 0
M  V30 4015 C 405.432 1.63331 -0.475087 0
M  V30 4016 O 406.617 1.80983 -0.704182 0
M  V30 4017 C 403.747 3.0626 -1.63774 0
M  V30 4018 C 402.701 3.25397 -2.7803 0
M  V30 4019 C 402.027 4.64801 -2.64318 0
M  V30 4020 C 403.327 3.10965 -4.19641 0
M  V30 4021 H 405.021 1.55146 -2.56067 0
M  V30 4022 H 402.567 0.744961 -1.23233 0
M  V30 4023 H 404.52 3.84247 -1.73008 0
M  V30 4024 H 403.244 3.1969 -0.66825 0
M  V30 4025 H 401.903 2.49817 -2.68304 0
M  V30 4026 H 401.551 4.75028 -1.65401 0
M  V30 4027 H 401.251 4.78555 -3.40968 0
M  V30 4028 H 402.775 5.44926 -2.75478 0
M  V30 4029 H 404.189 3.78772 -4.30354 0
M  V30 4030 H 402.586 3.36229 -4.97062 0
M  V30 4031 H 403.656 2.07736 -4.38148 0
M  V30 4032 N 404.999 1.35443 0.805782 0
M  V30 4033 C 405.909 1.30546 1.94923 0
M  V30 4034 C 406.925 0.210233 1.72725 0
M  V30 4035 O 408.101 0.43975 1.9654 0
M  V30 4036 C 405.166 1.07782 3.29521 0
M  V30 4037 C 404.227 2.26625 3.64609 0
M  V30 4038 C 403.46 2.04938 4.92784 0
M  V30 4039 O 403.683 1.01624 5.61274 0
M  V30 4040 O 402.617 2.9232 5.26149 0
M  V30 4041 H 406.443 2.26779 2.02002 0
M  V30 4042 H 404.028 1.15823 0.943682 0
M  V30 4043 H 405.91 0.969392 4.10098 0
M  V30 4044 H 404.585 0.146003 3.23371 0
M  V30 4045 H 403.492 2.43033 2.84404 0
M  V30 4046 H 404.825 3.18257 3.75464 0
M  V30 4047 N 406.477 -1.02803 1.19454 0
M  V30 4048 C 407.754 -1.73299 0.907013 0
M  V30 4049 C 408.134 -2.02772 -0.587086 0
M  V30 4050 O 407.482 -1.68304 -1.54551 0
M  V30 4051 C 407.692 -3.00912 1.76785 0
M  V30 4052 C 409.04 -3.74403 2.00268 0
M  V30 4053 O 410.064 -3.10841 1.73943 0
M  V30 4054 O 408.923 -4.88675 2.4466 0
M  V30 4055 H 406.017 -0.754727 0.338106 0
M  V30 4056 H 408.563 -1.08754 1.30271 0
M  V30 4057 H 407.335 -2.75366 2.7801 0
M  V30 4058 H 406.958 -3.73197 1.37149 0
M  V30 4059 N 407.956 -0.998596 -1.21925 0
M  V30 4060 C 408.866 -0.562736 -2.27751 0
M  V30 4061 C 409.882 0.391203 -1.69545 0
M  V30 4062 O 411.058 0.256625 -1.99758 0
M  V30 4063 C 408.123 0.11012 -3.46525 0
M  V30 4064 C 407.184 -0.887495 -4.20026 0
M  V30 4065 C 406.417 -0.246654 -5.3313 0
M  V30 4066 O 406.64 0.958088 -5.62296 0
M  V30 4067 O 405.574 -0.954374 -5.94286 0
M  V30 4068 H 409.4 -1.44329 -2.67213 0
M  V30 4069 H 406.985 -0.767135 -1.28201 0
M  V30 4070 H 408.867 0.486756 -4.18579 0
M  V30 4071 H 407.542 0.965154 -3.08976 0
M  V30 4072 H 406.449 -1.31517 -3.5022 0
M  V30 4073 H 407.782 -1.71191 -4.6147 0
M  V30 4074 N 409.434 1.37368 -0.772513 0
M  V30 4075 C 410.662 2.03942 -0.348588 0
M  V30 4076 C 411.077 1.58264 1.02947 0
M  V30 4077 O 410.434 0.764246 1.65727 0
M  V30 4078 C 410.485 3.5946 -0.38351 0
M  V30 4079 O 410.206 4.03468 -1.70721 0
M  V30 4080 C 411.707 4.4327 0.0519152 0
M  V30 4081 H 408.927 0.654931 -0.145966 0
M  V30 4082 H 411.471 1.75686 -1.04665 0
M  V30 4083 H 409.626 3.86486 0.265978 0
M  V30 4084 H 410.04 4.97991 -1.64636 0
M  V30 4085 H 411.514 5.51995 -0.0236733 0
M  V30 4086 H 411.991 4.2514 1.10238 0
M  V30 4087 H 412.597 4.21471 -0.569415 0
M  V30 4088 N 410.912 0.523116 1.48665 0
M  V30 4089 C 412.328 0.180511 1.58576 0
M  V30 4090 C 412.528 -1.31597 1.52592 0
M  V30 4091 O 411.584 -2.0937 1.4114 0
M  V30 4092 C 412.897 0.776949 2.90489 0
M  V30 4093 C 414.445 0.745058 3.04003 0
M  V30 4094 C 414.92 1.31995 4.38567 0
M  V30 4095 N 416.411 1.28162 4.45117 0
M  V30 4096 C 417.146 1.6964 5.47731 0
M  V30 4097 N 416.642 2.18816 6.57337 0
M  V30 4098 N 418.435 1.6092 5.38573 0
M  V30 4099 H 410.586 1.4958 1.50797 0
M  V30 4100 H 412.849 0.621772 0.715614 0
M  V30 4101 H 412.555 1.82732 3.00503 0
M  V30 4102 H 412.429 0.25007 3.7637 0
M  V30 4103 H 414.816 -0.296532 2.93606 0
M  V30 4104 H 414.897 1.30933 2.1975 0
M  V30 4105 H 414.541 2.36043 4.49718 0
M  V30 4106 H 414.471 0.731418 5.21496 0
M  V30 4107 H 416.962 0.92155 3.66491 0
M  V30 4108 H 417.275 2.48478 7.31764 0
M  V30 4109 H 415.62 2.22805 6.58318 0
M  V30 4110 H 418.811 1.22304 4.5184 0
M  V30 4111 H 418.984 1.93567 6.18414 0
M  V30 4112 N 412.39 -1.55475 0.257931 0
M  V30 4113 C 413.801 -1.8511 -0.243135 0
M  V30 4114 C 414.152 -1.17986 -1.5676 0
M  V30 4115 O 413.277 -0.462102 -2.11409 0
M  V30 4116 C 413.872 -3.35826 -0.447929 0
M  V30 4117 C 412.431 -3.65647 -0.893245 0
M  V30 4118 C 411.578 -2.7729 0.0232965 0
M  V30 4119 H 414.529 -1.51261 0.480199 0
M  V30 4120 H 414.55 -3.58002 -1.28898 0
M  V30 4121 H 414.062 -3.84652 0.516196 0
M  V30 4122 H 412.163 -3.22308 -1.86945 0
M  V30 4123 H 412.276 -4.73312 -0.742469 0
M  V30 4124 H 410.64 -2.49942 -0.490021 0
M  V30 4125 H 411.423 -3.28926 0.982994 0
M  V30 4126 N 413.868 0.0150385 -1.57593 0
M  V30 4127 C 414.831 0.995996 -2.06428 0
M  V30 4128 C 415.831 1.2818 -0.970903 0
M  V30 4129 O 417.021 1.22949 -1.23406 0
M  V30 4130 C 414.153 2.32506 -2.49307 0
M  V30 4131 H 415.346 0.573873 -2.94358 0
M  V30 4132 H 412.899 0.262186 -1.54085 0
M  V30 4133 H 413.634 2.79438 -1.64575 0
M  V30 4134 H 413.419 2.13087 -3.29145 0
M  V30 4135 H 414.909 3.02906 -2.87468 0
M  V30 4136 N 415.346 1.54954 0.287554 0
M  V30 4137 C 416.293 1.86834 1.35505 0
M  V30 4138 C 417.263 0.718452 1.49758 0
M  V30 4139 O 418.448 0.968358 1.644 0
M  V30 4140 C 415.588 2.13303 2.71286 0
M  V30 4141 C 414.701 3.40883 2.65373 0
M  V30 4142 C 413.836 3.57125 3.93236 0
M  V30 4143 C 412.875 4.78449 3.81776 0
M  V30 4144 N 412.012 4.91426 5.01443 0
M  V30 4145 H 416.852 2.77889 1.07619 0
M  V30 4146 H 414.389 1.37593 0.520241 0
M  V30 4147 H 416.347 2.26646 3.50267 0
M  V30 4148 H 414.977 1.25499 2.97405 0
M  V30 4149 H 414.029 3.36088 1.78182 0
M  V30 4150 H 415.341 4.29993 2.52799 0
M  V30 4151 H 414.495 3.70207 4.80658 0
M  V30 4152 H 413.234 2.66173 4.0866 0
M  V30 4153 H 412.239 4.65386 2.92738 0
M  V30 4154 H 413.464 5.70822 3.67884 0
M  V30 4155 H 411.41 4.03401 5.17304 0
M  V30 4156 H 411.327 5.74559 4.91343 0
M  V30 4157 H 412.595 5.08879 5.90477 0
M  V30 4158 N 416.824 -0.551391 1.4764 0
M  V30 4159 C 418.24 -0.877887 1.33287 0
M  V30 4160 C 418.44 -1.98817 0.327721 0
M  V30 4161 O 417.496 -2.51171 -0.258695 0
M  V30 4162 C 418.809 -1.26563 2.72768 0
M  V30 4163 C 420.357 -1.37673 2.81097 0
M  V30 4164 C 420.832 -1.79799 4.21232 0
M  V30 4165 N 422.323 -1.8694 4.23802 0
M  V30 4166 C 423.058 -2.20876 5.29151 0
M  V30 4167 N 422.554 -2.53386 6.448 0
M  V30 4168 N 424.347 -2.217 5.16532 0
M  V30 4169 H 416.498 0.18153 2.11623 0
M  V30 4170 H 418.761 0.0185514 0.947818 0
M  V30 4171 H 418.467 -0.523591 3.47781 0
M  V30 4172 H 418.341 -2.22052 3.04915 0
M  V30 4173 H 420.728 -2.10956 2.06353 0
M  V30 4174 H 420.809 -0.40357 2.52596 0
M  V30 4175 H 420.453 -1.07083 4.96483 0
M  V30 4176 H 420.383 -2.78128 4.4716 0
M  V30 4177 H 422.874 -1.64179 3.40373 0
M  V30 4178 H 423.187 -2.78325 7.20941 0
M  V30 4179 H 421.532 -2.50953 6.48111 0
M  V30 4180 H 424.723 -1.95745 4.25207 0
M  V30 4181 H 424.896 -2.47818 5.98741 0
M  V30 4182 N 418.302 -1.35869 -0.798587 0
M  V30 4183 C 419.551 -1.28921 -1.5512 0
M  V30 4184 C 419.864 0.13208 -1.95154 0
M  V30 4185 O 421.07 0.323879 -2.69561 0
M  V30 4186 C 419.526 -2.26141 -2.79979 0
M  V30 4187 C 419.134 -3.73658 -2.47151 0
M  V30 4188 C 420.878 -2.28152 -3.57976 0
M  V30 4189 C 418.785 -4.62679 -3.6835 0
M  V30 4190 H 417.715 -0.479031 -0.582276 0
M  V30 4191 H 420.366 -1.61179 -0.877125 0
M  V30 4192 H 418.748 -1.86865 -3.49138 0
M  V30 4193 H 419.922 -4.21616 -1.85947 0
M  V30 4194 H 418.237 -3.74333 -1.82383 0
M  V30 4195 H 420.834 -2.91875 -4.4801 0
M  V30 4196 H 421.177 -1.28748 -3.95891 0
M  V30 4197 H 421.71 -2.65998 -2.95787 0
M  V30 4198 H 418.449 -5.63111 -3.35538 0
M  V30 4199 H 417.969 -4.19442 -4.28752 0
M  V30 4200 H 419.648 -4.78498 -4.35487 0
M  V30 4201 N 419.78 1.02168 -1.19998 0
M  V30 4202 C 421.008 1.79296 -1.03249 0
M  V30 4203 C 421.423 1.84103 0.418502 0
M  V30 4204 O 420.78 1.29031 1.29063 0
M  V30 4205 C 420.831 3.24007 -1.60319 0
M  V30 4206 O 420.552 3.19512 -2.99739 0
M  V30 4207 C 422.053 4.17704 -1.48453 0
M  V30 4208 H 419.273 0.564016 -0.363493 0
M  V30 4209 H 421.817 1.28639 -1.58973 0
M  V30 4210 H 419.972 3.7183 -1.08727 0
M  V30 4211 H 420.386 4.10306 -3.26725 0
M  V30 4212 H 421.86 5.17104 -1.93153 0
M  V30 4213 H 422.337 4.37029 -0.436193 0
M  V30 4214 H 422.943 3.7576 -1.99211 0
M  V30 4215 N 421.258 1.00505 1.21394 0
M  V30 4216 C 422.507 0.683159 1.89778 0
M  V30 4217 C 422.82 -0.789471 1.7896 0
M  V30 4218 O 424.026 -1.22344 2.42372 0
M  V30 4219 C 422.482 1.17146 3.40301 0
M  V30 4220 C 422.09 2.67017 3.5973 0
M  V30 4221 C 423.834 0.924461 4.14311 0
M  V30 4222 C 421.741 3.09387 5.04017 0
M  V30 4223 H 420.671 0.25183 0.710702 0
M  V30 4224 H 423.322 1.21622 1.37406 0
M  V30 4225 H 421.704 0.566451 3.91928 0
M  V30 4226 H 422.878 3.32968 3.18542 0
M  V30 4227 H 421.193 2.89732 2.99073 0
M  V30 4228 H 423.79 1.21658 5.20676 0
M  V30 4229 H 424.133 -0.139286 4.16067 0
M  V30 4230 H 424.666 1.49226 3.6875 0
M  V30 4231 H 421.405 4.14989 5.07409 0
M  V30 4232 H 420.925 2.48149 5.46061 0
M  V30 4233 H 422.604 3.01371 5.72525 0
M  V30 4234 N 422.737 -1.36956 0.779787 0
M  V30 4235 C 423.965 -2.03755 0.359398 0
M  V30 4236 C 424.38 -1.58807 -1.02106 0
M  V30 4237 O 423.737 -0.773024 -1.6532 0
M  V30 4238 C 423.788 -3.59251 0.402568 0
M  V30 4239 O 423.509 -4.02557 1.72858 0
M  V30 4240 C 425.01 -4.43291 -0.0284068 0
M  V30 4241 H 422.23 -0.654148 0.149437 0
M  V30 4242 H 424.774 -1.75128 1.05595 0
M  V30 4243 H 422.929 -3.86621 -0.245478 0
M  V30 4244 H 423.343 -4.97111 1.67275 0
M  V30 4245 H 424.817 -5.51975 0.0529466 0
M  V30 4246 H 425.294 -4.25719 -1.07982 0
M  V30 4247 H 425.9 -4.21163 0.591758 0
M  V30 4248 N 424.215 -0.530993 -1.48385 0
M  V30 4249 C 425.125 0.23503 -2.3342 0
M  V30 4250 C 426.141 0.93801 -1.46552 0
M  V30 4251 O 427.317 0.912745 -1.7953 0
M  V30 4252 C 424.382 1.26778 -3.22689 0
M  V30 4253 C 423.443 0.575038 -4.25431 0
M  V30 4254 C 422.676 1.55858 -5.10435 0
M  V30 4255 O 422.899 2.79129 -4.97437 0
M  V30 4256 O 421.833 1.09742 -5.91811 0
M  V30 4257 H 425.659 -0.461794 -3.00169 0
M  V30 4258 H 423.244 -0.291903 -1.46521 0
M  V30 4259 H 425.126 1.86457 -3.77904 0
M  V30 4260 H 423.801 1.94699 -2.586 0
M  V30 4261 H 422.708 -0.0622782 -3.74048 0
M  V30 4262 H 424.041 -0.062253 -4.92161 0
M  V30 4263 N 425.693 1.55336 -0.266172 0
M  V30 4264 C 426.918 2.04258 0.359661 0
M  V30 4265 C 427.343 1.14359 1.49344 0
M  V30 4266 O 426.701 0.140369 1.80756 0
M  V30 4267 C 426.749 3.50997 0.826635 0
M  V30 4268 O 425.853 3.64204 1.93466 0
M  V30 4269 H 425.194 0.659668 0.075727 0
M  V30 4270 H 427.724 2.00694 -0.39786 0
M  V30 4271 H 427.734 3.9219 1.12477 0
M  V30 4272 H 426.409 4.159 -0.00293032 0
M  V30 4273 H 424.986 3.34913 1.63974 0
M  V30 4274 N 427.171 -0.0066808 1.57599 0
M  V30 4275 C 428.119 -1.01851 2.09115 0
M  V30 4276 C 429.113 -1.36021 1.00969 0
M  V30 4277 O 430.319 -1.34663 1.19439 0
M  V30 4278 H 426.694 -0.346083 0.667631 0
M  V30 4279 H 428.665 -0.558394 2.93129 0
M  V30 4280 C 427.414 -2.30374 2.60429 0
M  V30 4281 H 426.737 -2.04947 3.43273 0
M  V30 4282 H 428.177 -2.99466 3.00161 0
M  V30 4283 C 426.636 -3.00893 1.51542 0
M  V30 4284 O 427.166 -3.91614 0.894484 0
M  V30 4285 N 425.372 -2.62603 1.2445 0
M  V30 4286 H 424.919 -1.88911 1.75129 0
M  V30 4287 H 424.877 -3.10101 0.518137 0
M  V30 4288 N 428.649 -1.55105 -0.279332 0
M  V30 4289 C 429.582 -1.82467 -1.37044 0
M  V30 4290 C 430.56 -0.677261 -1.47824 0
M  V30 4291 O 431.744 -0.919578 -1.64548 0
M  V30 4292 C 428.871 -1.98066 -2.7475 0
M  V30 4293 C 427.917 -3.20594 -2.81286 0
M  V30 4294 S 428.75 -4.78116 -2.41175 0
M  V30 4295 C 429.906 -4.9668 -3.80867 0
M  V30 4296 H 430.139 -2.74728 -1.1363 0
M  V30 4297 H 427.672 -1.46794 -0.478625 0
M  V30 4298 H 429.63 -2.07739 -3.54055 0
M  V30 4299 H 428.291 -1.06704 -2.9542 0
M  V30 4300 H 427.484 -3.28376 -3.82341 0
M  V30 4301 H 427.086 -3.09479 -2.09996 0
M  V30 4302 H 429.378 -4.82033 -4.76078 0
M  V30 4303 H 430.321 -5.98741 -3.78041 0
M  V30 4304 H 430.729 -4.24698 -3.71876 0
M  V30 4305 N 430.127 0.543554 -1.4793 0
M  V30 4306 C 431.074 1.64942 -1.6144 0
M  V30 4307 C 432.044 1.59692 -0.456903 0
M  V30 4308 O 433.229 1.78321 -0.678688 0
M  V30 4309 C 430.369 3.03238 -1.64744 0
M  V30 4310 C 429.482 3.18823 -2.91506 0
M  V30 4311 C 428.617 4.47599 -2.86057 0
M  V30 4312 C 427.656 4.56664 -4.07584 0
M  V30 4313 N 426.793 5.76811 -4.00292 0
M  V30 4314 H 431.633 1.52733 -2.55884 0
M  V30 4315 H 429.17 0.7438 -1.2691 0
M  V30 4316 H 431.128 3.83339 -1.64641 0
M  V30 4317 H 429.758 3.1425 -0.738017 0
M  V30 4318 H 428.81 2.32064 -3.01414 0
M  V30 4319 H 430.122 3.21384 -3.81463 0
M  V30 4320 H 429.276 5.35975 -2.84281 0
M  V30 4321 H 428.015 4.47538 -1.93807 0
M  V30 4322 H 427.02 3.66697 -4.09651 0
M  V30 4323 H 428.245 4.58474 -5.00978 0
M  V30 4324 H 426.191 5.77673 -3.10853 0
M  V30 4325 H 426.108 5.80808 -4.8394 0
M  V30 4326 H 427.376 6.67512 -4.02553 0
M  V30 4327 N 431.605 1.3629 0.791371 0
M  V30 4328 C 432.83 1.33726 1.58531 0
M  V30 4329 C 433.255 -0.0794933 1.87932 0
M  V30 4330 O 432.613 -1.05087 1.47738 0
M  V30 4331 C 432.661 2.16425 2.88431 0
M  V30 4332 O 431.765 1.5554 3.81944 0
M  V30 4333 H 431.106 0.457793 0.480959 0
M  V30 4334 H 433.636 1.79547 0.981031 0
M  V30 4335 H 433.646 2.28933 3.37718 0
M  V30 4336 H 432.321 3.19415 2.66359 0
M  V30 4337 H 430.898 1.51961 3.40532 0
M  V30 4338 N 433.083 -1.0153 1.20538 0
M  V30 4339 C 434.499 -1.27461 0.96051 0
M  V30 4340 C 434.699 -1.98273 -0.359193 0
M  V30 4341 O 433.755 -2.27886 -1.0874 0
M  V30 4342 C 435.068 -2.10837 2.14402 0
M  V30 4343 C 436.616 -2.24099 2.18515 0
M  V30 4344 C 437.091 -3.10852 3.36355 0
M  V30 4345 N 438.582 -3.18441 3.36377 0
M  V30 4346 C 439.317 -3.85795 4.24205 0
M  V30 4347 N 438.813 -4.55264 5.22213 0
M  V30 4348 N 440.606 -3.82331 4.12043 0
M  V30 4349 H 432.757 -0.539907 2.05423 0
M  V30 4350 H 435.02 -0.30092 0.898972 0
M  V30 4351 H 434.726 -1.66144 3.09983 0
M  V30 4352 H 434.6 -3.11576 2.12604 0
M  V30 4353 H 436.987 -2.68016 1.23497 0
M  V30 4354 H 437.068 -1.22865 2.24361 0
M  V30 4355 H 436.712 -2.6764 4.31661 0
M  V30 4356 H 436.642 -4.12177 3.27746 0
M  V30 4357 H 439.133 -2.68978 2.65442 0
M  V30 4358 H 439.446 -5.04331 5.85551 0
M  V30 4359 H 437.791 -4.54085 5.26148 0
M  V30 4360 H 440.982 -3.27207 3.34743 0
M  V30 4361 H 441.155 -4.34547 4.807 0
M  V30 4362 N 434.561 -1.01147 -1.20859 0
M  V30 4363 C 435.791 -0.715872 -1.93801 0
M  V30 4364 C 436.199 0.726592 -1.74692 0
M  V30 4365 O 435.542 1.50397 -1.05482 0
M  V30 4366 C 435.604 -0.965269 -3.46299 0
M  V30 4367 C 435.268 -2.39584 -3.89164 0
M  V30 4368 C 436.265 -3.3764 -3.95342 0
M  V30 4369 C 433.95 -2.73522 -4.21297 0
M  V30 4370 C 435.944 -4.67698 -4.33056 0
M  V30 4371 C 433.631 -4.03794 -4.58687 0
M  V30 4372 C 434.629 -5.00693 -4.64538 0
M  V30 4373 O 434.317 -6.28635 -5.01072 0
M  V30 4374 H 434.049 -0.262524 -0.622942 0
M  V30 4375 H 436.603 -1.35413 -1.54443 0
M  V30 4376 H 434.833 -0.269847 -3.85757 0
M  V30 4377 H 436.522 -0.662051 -4.00464 0
M  V30 4378 H 437.288 -3.12757 -3.70686 0
M  V30 4379 H 433.167 -1.9879 -4.15937 0
M  V30 4380 H 436.711 -5.4333 -4.37537 0
M  V30 4381 H 432.608 -4.28459 -4.82797 0
M  V30 4382 H 433.376 -6.32847 -5.19083 0
M  V30 4383 N 436.039 1.36541 -0.78704 0
M  V30 4384 C 437.267 2.03561 -0.370199 0
M  V30 4385 C 437.682 1.59347 1.01263 0
M  V30 4386 O 437.039 0.781781 1.64907 0
M  V30 4387 C 437.09 3.59033 -0.421614 0
M  V30 4388 O 436.811 4.01634 -1.7499 0
M  V30 4389 C 438.312 4.433 0.00489763 0
M  V30 4390 H 435.532 0.653346 -0.152904 0
M  V30 4391 H 438.076 1.74566 -1.06522 0
M  V30 4392 H 436.231 3.86746 0.224971 0
M  V30 4393 H 436.645 4.96217 -1.69909 0
M  V30 4394 H 438.119 5.51939 -0.0822184 0
M  V30 4395 H 438.596 4.26285 1.05723 0
M  V30 4396 H 439.202 4.20843 -0.614085 0
M  V30 4397 N 437.518 0.538854 1.48102 0
M  V30 4398 C 438.746 0.0123136 2.06896 0
M  V30 4399 C 439.161 -1.27312 1.39417 0
M  V30 4400 O 438.518 -1.75949 0.484582 0
M  V30 4401 C 438.569 -0.206118 3.60912 0
M  V30 4402 O 438.29 1.0284 4.25859 0
M  V30 4403 C 439.791 -0.772033 4.36526 0
M  V30 4404 H 437.011 0.0375239 0.66995 0
M  V30 4405 H 439.555 0.747032 1.90367 0
M  V30 4406 H 437.71 -0.89091 3.77017 0
M  V30 4407 H 438.124 0.814654 5.18135 0
M  V30 4408 H 439.598 -0.874251 5.45033 0
M  V30 4409 H 440.075 -1.77904 4.01555 0
M  V30 4410 H 440.681 -0.123526 4.25121 0
M  V30 4411 N 438.996 -1.55193 0.274407 0
M  V30 4412 C 439.906 -2.26164 -0.623473 0
M  V30 4413 C 440.922 -1.28729 -1.17068 0
M  V30 4414 O 442.098 -1.61663 -1.20112 0
M  V30 4415 C 439.163 -2.96833 -1.7914 0
M  V30 4416 C 438.224 -4.09745 -1.28093 0
M  V30 4417 C 437.457 -4.77034 -2.3932 0
M  V30 4418 O 437.68 -4.4353 -3.5866 0
M  V30 4419 O 436.614 -5.64996 -2.07516 0
M  V30 4420 H 440.44 -3.03661 -0.0485661 0
M  V30 4421 H 438.025 -1.49341 0.0418382 0
M  V30 4422 H 439.907 -3.41248 -2.4724 0
M  V30 4423 H 438.582 -2.22253 -2.35341 0
M  V30 4424 H 437.489 -3.69787 -0.566416 0
M  V30 4425 H 438.822 -4.86224 -0.764683 0
M  V30 4426 N 440.474 -0.00167713 -1.576 0
M  V30 4427 C 441.721 0.68282 -1.90641 0
M  V30 4428 C 442.049 1.73686 -0.875415 0
M  V30 4429 O 441.304 1.95334 0.119575 0
M  V30 4430 C 441.603 1.36189 -3.30435 0
M  V30 4431 C 441.269 0.440887 -4.48739 0
M  V30 4432 C 439.931 0.187312 -4.80835 0
M  V30 4433 C 442.283 -0.193134 -5.20842 0
M  V30 4434 C 439.611 -0.70855 -5.82406 0
M  V30 4435 C 441.963 -1.07688 -6.23367 0
M  V30 4436 C 440.627 -1.33962 -6.53919 0
M  V30 4437 H 439.897 0.249862 -0.697603 0
M  V30 4438 H 442.544 -0.0575642 -1.91413 0
M  V30 4439 H 440.849 2.17636 -3.25794 0
M  V30 4440 H 442.546 1.89759 -3.5326 0
M  V30 4441 H 439.136 0.648694 -4.23663 0
M  V30 4442 H 443.32 -0.0102445 -4.96299 0
M  V30 4443 H 438.576 -0.920097 -6.04437 0
M  V30 4444 H 442.75 -1.57451 -6.78367 0
M  V30 4445 H 440.377 -2.03549 -7.32442 0
M  V30 4446 N 441.952 1.55251 0.271103 0
M  V30 4447 C 442.902 1.84649 1.33749 0
M  V30 4448 C 443.886 0.705529 1.44607 0
M  V30 4449 O 445.078 0.966916 1.48256 0
M  V30 4450 C 442.207 2.12354 2.69742 0
M  V30 4451 C 441.293 3.32714 2.62988 0
M  V30 4452 N 441.684 4.52575 2.25853 0
M  V30 4453 C 439.982 3.35341 2.94045 0
M  V30 4454 C 440.683 5.34669 2.29136 0
M  V30 4455 N 439.659 4.73123 2.67685 0
M  V30 4456 H 443.461 2.74865 1.0405 0
M  V30 4457 H 440.975 1.55152 0.479738 0
M  V30 4458 H 442.972 2.31572 3.4667 0
M  V30 4459 H 441.632 1.23422 3.00328 0
M  V30 4460 H 442.643 4.78639 1.978 0
M  V30 4461 H 439.32 2.56608 3.2933 0
M  V30 4462 H 440.71 6.40509 2.02971 0
M  V30 4463 N 443.43 -0.535701 1.48216 0
M  V30 4464 C 444.34 -1.66785 1.64985 0
M  V30 4465 C 445.356 -1.65654 0.532414 0
M  V30 4466 O 446.532 -1.8471 0.80275 0
M  V30 4467 C 443.597 -3.0326 1.68031 0
M  V30 4468 C 442.658 -3.1529 2.9136 0
M  V30 4469 C 441.891 -4.45255 2.94252 0
M  V30 4470 O 442.114 -5.32011 2.05719 0
M  V30 4471 O 441.048 -4.6153 3.86359 0
M  V30 4472 H 444.874 -1.55576 2.60825 0
M  V30 4473 H 442.459 -0.70815 1.31551 0
M  V30 4474 H 444.341 -3.84436 1.72589 0
M  V30 4475 H 443.016 -3.14805 0.753628 0
M  V30 4476 H 441.923 -2.3343 2.92337 0
M  V30 4477 H 443.256 -3.08658 3.83394 0
M  V30 4478 N 444.908 -1.36708 -0.784132 0
M  V30 4479 C 445.838 -1.34153 -1.91116 0
M  V30 4480 C 446.819 -0.212121 -1.68772 0
M  V30 4481 O 448.004 -0.410581 -1.8981 0
M  V30 4482 C 445.134 -1.13535 -3.28218 0
M  V30 4483 C 444.088 -2.23356 -3.65097 0
M  V30 4484 C 443.414 -1.87875 -5.00607 0
M  V30 4485 C 444.714 -3.65473 -3.73131 0
M  V30 4486 H 446.408 -2.28459 -1.93512 0
M  V30 4487 H 443.954 -1.09973 -0.929618 0
M  V30 4488 H 445.907 -1.10381 -4.06687 0
M  V30 4489 H 444.631 -0.156804 -3.26223 0
M  V30 4490 H 443.29 -2.25645 -2.88929 0
M  V30 4491 H 442.938 -0.885814 -4.95139 0
M  V30 4492 H 442.638 -2.61406 -5.26252 0
M  V30 4493 H 444.162 -1.86286 -5.81489 0
M  V30 4494 H 445.576 -3.65382 -4.41779 0
M  V30 4495 H 443.973 -4.37953 -4.10265 0
M  V30 4496 H 445.043 -3.99995 -2.74102 0
M  V30 4497 N 446.386 1.0089 -1.21074 0
M  V30 4498 C 447.296 2.13039 -0.982425 0
M  V30 4499 C 448.312 1.73881 0.0642161 0
M  V30 4500 O 449.488 2.01012 -0.12496 0
M  V30 4501 C 446.553 3.42377 -0.545803 0
M  V30 4502 C 445.614 3.95731 -1.6642 0
M  V30 4503 C 444.847 5.18896 -1.24832 0
M  V30 4504 O 445.07 5.70273 -0.120265 0
M  V30 4505 O 444.004 5.65597 -2.05873 0
M  V30 4506 H 447.83 2.35175 -1.92163 0
M  V30 4507 H 445.415 1.1142 -0.995285 0
M  V30 4508 H 447.297 4.20244 -0.311912 0
M  V30 4509 H 445.972 3.21639 0.364727 0
M  V30 4510 H 444.879 3.19108 -1.95246 0
M  V30 4511 H 446.212 4.20872 -2.55201 0
M  V30 4512 N 447.864 1.01787 1.20321 0
M  V30 4513 C 448.811 0.589197 2.23153 0
M  V30 4514 C 449.781 -0.391367 1.61423 0
M  V30 4515 O 450.966 -0.290518 1.88575 0
M  V30 4516 C 448.106 -0.0650747 3.45039 0
M  V30 4517 C 447.219 0.960207 4.21194 0
M  V30 4518 C 446.354 0.276854 5.30478 0
M  V30 4519 C 445.393 1.2888 5.98378 0
M  V30 4520 N 444.53 0.632031 6.99249 0
M  V30 4521 H 449.37 1.47071 2.59179 0
M  V30 4522 H 446.907 0.736192 1.27352 0
M  V30 4523 H 448.865 -0.461552 4.14639 0
M  V30 4524 H 447.495 -0.910233 3.09701 0
M  V30 4525 H 446.547 1.47484 3.50646 0
M  V30 4526 H 447.859 1.72977 4.67847 0
M  V30 4527 H 447.013 -0.175056 6.06447 0
M  V30 4528 H 445.752 -0.525004 4.84866 0
M  V30 4529 H 444.757 1.75109 5.21169 0
M  V30 4530 H 445.982 2.09196 6.46076 0
M  V30 4531 H 443.928 -0.149935 6.55829 0
M  V30 4532 H 443.845 1.33964 7.44036 0
M  V30 4533 H 445.113 0.203755 7.79234 0
M  V30 4534 N 449.342 -1.36122 0.79427 0
M  V30 4535 C 450.591 -1.98361 0.365464 0
M  V30 4536 C 450.904 -1.6374 -1.06997 0
M  V30 4537 O 452.11 -2.19251 -1.60129 0
M  V30 4538 C 450.566 -3.54821 0.602496 0
M  V30 4539 C 450.174 -3.98362 2.04967 0
M  V30 4540 C 451.918 -4.2383 0.238437 0
M  V30 4541 C 449.825 -5.47619 2.2331 0
M  V30 4542 H 448.755 -0.742193 0.13291 0
M  V30 4543 H 451.406 -1.55354 0.976589 0
M  V30 4544 H 449.788 -3.95922 -0.078409 0
M  V30 4545 H 450.962 -3.68447 2.76737 0
M  V30 4546 H 449.277 -3.42206 2.37243 0
M  V30 4547 H 451.874 -5.33529 0.353705 0
M  V30 4548 H 452.217 -4.08264 -0.814006 0
M  V30 4549 H 452.75 -3.88108 0.872769 0
M  V30 4550 H 449.489 -5.68138 3.26955 0
M  V30 4551 H 449.009 -5.79145 1.5605 0
M  V30 4552 H 450.688 -6.13911 2.0426 0
M  V30 4553 N 450.82 -0.546701 -1.47814 0
M  V30 4554 C 452.068 -0.0187037 -2.02091 0
M  V30 4555 C 452.389 1.33168 -1.42447 0
M  V30 4556 O 451.659 1.86619 -0.595839 0
M  V30 4557 H 450.239 -0.00392531 -0.74699 0
M  V30 4558 H 452.901 -0.714327 -1.81338 0
M  V30 4559 H 451.997 0.0772219 -3.12004 0
M  V30 4560 N 452.299 1.55045 -0.282633 0
M  V30 4561 C 453.524 2.04628 0.337977 0
M  V30 4562 C 453.949 1.15937 1.48123 0
M  V30 4563 O 453.307 0.159532 1.80597 0
M  V30 4564 C 453.355 3.51854 0.78936 0
M  V30 4565 O 452.459 3.66236 1.89592 0
M  V30 4566 H 451.8 0.660434 0.0687261 0
M  V30 4567 H 454.33 2.00261 -0.419124 0
M  V30 4568 H 454.34 3.93361 1.08311 0
M  V30 4569 H 453.015 4.15873 -0.0470419 0
M  V30 4570 H 451.592 3.36633 1.60413 0
M  V30 4571 N 453.777 0.010035 1.57597 0
M  V30 4572 C 455.025 -0.671371 1.90623 0
M  V30 4573 C 455.346 -1.73753 0.885151 0
M  V30 4574 O 454.616 -1.95752 -0.0760611 0
M  V30 4575 H 453.196 -0.250968 0.703579 0
M  V30 4576 H 455.858 0.0533325 1.94827 0
M  V30 4577 H 454.954 -1.13626 2.90681 0
M  V30 4578 N 455.255 -1.55392 -0.262866 0
M  V30 4579 C 456.165 -1.92077 -1.34698 0
M  V30 4580 C 457.181 -0.819227 -1.53508 0
M  V30 4581 O 458.357 -1.11921 -1.67439 0
M  V30 4582 C 455.422 -2.19407 -2.68443 0
M  V30 4583 C 454.483 -3.42905 -2.58292 0
M  V30 4584 C 453.716 -3.68921 -3.85659 0
M  V30 4585 O 453.939 -2.97275 -4.8681 0
M  V30 4586 O 452.873 -4.62455 -3.85252 0
M  V30 4587 H 456.699 -2.84384 -1.06581 0
M  V30 4588 H 454.284 -1.42069 -0.462264 0
M  V30 4589 H 456.166 -2.38365 -3.47506 0
M  V30 4590 H 454.841 -1.30282 -2.96325 0
M  V30 4591 H 453.748 -3.29272 -1.7757 0
M  V30 4592 H 455.081 -4.32282 -2.35358 0
M  V30 4593 N 456.733 0.527833 -1.48498 0
M  V30 4594 C 457.98 1.28354 -1.56625 0
M  V30 4595 C 458.308 1.93 -0.241096 0
M  V30 4596 O 457.563 1.79967 0.768798 0
M  V30 4597 C 457.862 2.39275 -2.65485 0
M  V30 4598 C 457.528 1.92268 -4.07853 0
M  V30 4599 C 456.19 1.79166 -4.46602 0
M  V30 4600 C 458.542 1.56771 -4.97064 0
M  V30 4601 C 455.87 1.28905 -5.72364 0
M  V30 4602 C 458.222 1.07972 -6.23318 0
M  V30 4603 C 456.886 0.934887 -6.60921 0
M  V30 4604 H 456.156 0.469682 -0.573131 0
M  V30 4605 H 458.803 0.588781 -1.82224 0
M  V30 4606 H 457.108 3.1443 -2.33754 0
M  V30 4607 H 458.805 2.974 -2.68988 0
M  V30 4608 H 455.395 2.03417 -3.77252 0
M  V30 4609 H 459.579 1.65753 -4.67803 0
M  V30 4610 H 454.835 1.16381 -6.00221 0
M  V30 4611 H 459.009 0.795775 -6.91838 0
M  V30 4612 H 456.636 0.543231 -7.58257 0
M  V30 4613 N 458.211 1.37122 0.776871 0
M  V30 4614 C 459.459 1.31787 1.53221 0
M  V30 4615 C 459.78 -0.0987589 1.9475 0
M  V30 4616 O 459.05 -1.0417 1.65908 0
M  V30 4617 H 457.63 0.484839 0.568278 0
M  V30 4618 H 460.292 1.71556 0.924917 0
M  V30 4619 H 459.388 1.95355 2.43398 0
M  V30 4620 N 459.689 -1.00246 1.21608 0
M  V30 4621 C 460.914 -1.78167 1.06167 0
M  V30 4622 C 461.339 -1.84138 -0.384035 0
M  V30 4623 O 460.697 -1.28683 -1.27712 0
M  V30 4624 C 460.745 -3.19786 1.66642 0
M  V30 4625 O 459.849 -4.02153 0.913613 0
M  V30 4626 H 459.19 -0.549 0.37349 0
M  V30 4627 H 461.72 -1.25994 1.61204 0
M  V30 4628 H 461.73 -3.70451 1.70969 0
M  V30 4629 H 460.405 -3.14754 2.7185 0
M  V30 4630 H 458.982 -3.60711 0.945635 0
M  V30 4631 N 461.167 -1.02423 -1.1978 0
M  V30 4632 C 462.413 -0.719051 -1.89625 0
M  V30 4633 C 462.746 0.750083 -1.7913 0
M  V30 4634 O 462.021 1.54574 -1.18056 0
M  V30 4635 C 462.304 -1.16499 -3.40735 0
M  V30 4636 C 462.157 -2.695 -3.60125 0
M  V30 4637 C 463.476 -0.742166 -4.33797 0
M  V30 4638 H 460.595 -0.26269 -0.688595 0
M  V30 4639 H 463.237 -1.27333 -1.41018 0
M  V30 4640 H 461.387 -0.69341 -3.82262 0
M  V30 4641 H 463.059 -3.24569 -3.278 0
M  V30 4642 H 461.302 -3.10113 -3.03336 0
M  V30 4643 H 461.973 -2.95757 -4.66081 0
M  V30 4644 H 464.449 -1.1477 -3.99959 0
M  V30 4645 H 463.325 -1.08213 -5.38127 0
M  V30 4646 H 463.586 0.355747 -4.40666 0
M  V30 4647 N 462.645 1.35699 -0.801477 0
M  V30 4648 C 463.892 1.98913 -0.379459 0
M  V30 4649 C 464.22 1.63592 1.05204 0
M  V30 4650 O 463.475 0.888563 1.74365 0
M  V30 4651 C 463.774 3.53828 -0.504041 0
M  V30 4652 C 463.44 4.09002 -1.8981 0
M  V30 4653 C 462.102 4.23783 -2.27951 0
M  V30 4654 C 464.454 4.38939 -2.81038 0
M  V30 4655 C 461.782 4.65816 -3.56696 0
M  V30 4656 C 464.134 4.82409 -4.09224 0
M  V30 4657 C 462.798 4.95395 -4.4737 0
M  V30 4658 H 462.068 0.727874 -0.138854 0
M  V30 4659 H 464.715 1.61994 -1.02128 0
M  V30 4660 H 463.02 3.91175 0.221242 0
M  V30 4661 H 464.717 4.00687 -0.158361 0
M  V30 4662 H 461.307 3.97946 -1.59176 0
M  V30 4663 H 465.491 4.27077 -2.52821 0
M  V30 4664 H 460.747 4.74059 -3.86106 0
M  V30 4665 H 464.921 5.04535 -4.80018 0
M  V30 4666 H 462.548 5.27724 -5.47185 0
M  V30 4667 N 464.123 0.554532 1.47522 0
M  V30 4668 C 465.07 -0.19466 2.29978 0
M  V30 4669 C 466.04 -0.910882 1.38896 0
M  V30 4670 O 467.225 -0.907102 1.67858 0
M  V30 4671 C 464.365 -1.22035 3.22802 0
M  V30 4672 C 463.478 -0.510474 4.28973 0
M  V30 4673 C 462.613 -1.52123 5.08952 0
M  V30 4674 C 461.652 -0.796173 6.069 0
M  V30 4675 N 460.789 -1.75363 6.79847 0
M  V30 4676 H 465.629 0.51461 2.93523 0
M  V30 4677 H 463.166 0.265607 1.44682 0
M  V30 4678 H 465.124 -1.8276 3.7504 0
M  V30 4679 H 463.754 -1.89769 2.61127 0
M  V30 4680 H 462.806 0.211234 3.79813 0
M  V30 4681 H 464.118 0.0576503 4.98767 0
M  V30 4682 H 463.272 -2.20207 5.65326 0
M  V30 4683 H 462.011 -2.12327 4.39054 0
M  V30 4684 H 461.016 -0.101388 5.49707 0
M  V30 4685 H 462.241 -0.199911 6.78806 0
M  V30 4686 H 460.187 -2.3443 6.12682 0
M  V30 4687 H 460.104 -1.23759 7.45801 0
M  V30 4688 H 461.372 -2.4257 7.40797 0
M  V30 4689 N 465.601 -1.54893 0.290851 0
M  V30 4690 C 466.841 -2.01842 -0.322388 0
M  V30 4691 C 467.205 -1.17477 -1.51865 0
M  V30 4692 O 468.406 -1.54077 -2.20258 0
M  V30 4693 C 466.677 -3.50874 -0.679844 0
M  V30 4694 S 468.236 -4.19796 -1.27739 0
M  V30 4695 H 465.054 -0.704005 -0.0994866 0
M  V30 4696 H 467.656 -1.91015 0.416358 0
M  V30 4697 H 466.36 -4.09915 0.199435 0
M  V30 4698 H 465.891 -3.65717 -1.44964 0
M  V30 4699 H 467.906 -4.24729 -2.56554 0
M  V30 4700 N 467.08 -0.0183926 -1.57589 0
M  V30 4701 C 468.326 0.663543 -1.91638 0
M  V30 4702 C 468.659 1.72392 -0.894134 0
M  V30 4703 O 467.934 1.94316 0.0846449 0
M  V30 4704 C 468.217 1.28984 -3.36207 0
M  V30 4705 C 468.07 0.239761 -4.49161 0
M  V30 4706 C 469.389 2.2109 -3.80536 0
M  V30 4707 H 466.508 0.239746 -0.696915 0
M  V30 4708 H 469.15 -0.073456 -1.89858 0
M  V30 4709 H 467.3 1.91799 -3.37854 0
M  V30 4710 H 468.972 -0.390119 -4.59647 0
M  V30 4711 H 467.215 -0.435972 -4.31604 0
M  V30 4712 H 467.886 0.717383 -5.47319 0
M  V30 4713 H 470.362 1.68273 -3.80557 0
M  V30 4714 H 469.238 2.61869 -4.82406 0
M  V30 4715 H 469.499 3.09764 -3.15434 0
M  V30 4716 N 468.558 1.5553 0.254621 0
M  V30 4717 C 469.505 1.89666 1.31512 0
M  V30 4718 C 470.475 0.750057 1.482 0
M  V30 4719 O 471.66 1.00301 1.62309 0
M  V30 4720 C 468.8 2.19009 2.667 0
M  V30 4721 C 467.913 3.46435 2.58083 0
M  V30 4722 C 467.048 3.65386 3.85573 0
M  V30 4723 C 466.087 4.8644 3.71541 0
M  V30 4724 N 465.224 5.01952 4.90906 0
M  V30 4725 H 470.064 2.80109 1.017 0
M  V30 4726 H 467.601 1.38666 0.490938 0
M  V30 4727 H 469.559 2.34025 3.45381 0
M  V30 4728 H 468.189 1.31779 2.94676 0
M  V30 4729 H 467.241 3.39792 1.71013 0
M  V30 4730 H 468.553 4.35258 2.43622 0
M  V30 4731 H 467.707 3.80319 4.72697 0
M  V30 4732 H 466.446 2.74781 4.02922 0
M  V30 4733 H 465.451 4.71491 2.82801 0
M  V30 4734 H 466.676 5.78497 3.55694 0
M  V30 4735 H 464.622 4.14283 5.08631 0
M  V30 4736 H 464.539 5.84851 4.79046 0
M  V30 4737 H 465.807 5.21289 5.7955 0
M  V30 4738 N 470.036 -0.519951 1.48776 0
M  V30 4739 C 471.452 -0.849418 1.35119 0
M  V30 4740 C 471.652 -1.98077 0.36982 0
M  V30 4741 O 470.708 -2.51664 -0.205359 0
M  V30 4742 C 472.021 -1.20748 2.75391 0
M  V30 4743 C 473.569 -1.31679 2.83954 0
M  V30 4744 C 474.044 -1.70824 4.24951 0
M  V30 4745 N 475.535 -1.77908 4.27672 0
M  V30 4746 C 476.27 -2.09603 5.33717 0
M  V30 4747 N 475.766 -2.39652 6.5003 0
M  V30 4748 N 477.559 -2.10694 5.21119 0
M  V30 4749 H 469.71 0.226377 2.1119 0
M  V30 4750 H 471.973 0.0386519 0.947212 0
M  V30 4751 H 471.679 -0.449703 3.48813 0
M  V30 4752 H 471.553 -2.15534 3.09556 0
M  V30 4753 H 473.94 -2.06532 2.10781 0
M  V30 4754 H 474.021 -0.3499 2.53396 0
M  V30 4755 H 473.665 -0.965282 4.98643 0
M  V30 4756 H 473.595 -2.6858 4.52959 0
M  V30 4757 H 476.086 -1.56923 3.43779 0
M  V30 4758 H 476.399 -2.6297 7.26682 0
M  V30 4759 H 474.744 -2.37149 6.53288 0
M  V30 4760 H 477.935 -1.86682 4.29264 0
M  V30 4761 H 478.108 -2.35062 6.03863 0
M  V30 4762 N 471.514 -1.37532 -0.769588 0
M  V30 4763 C 472.444 -1.36172 -1.89682 0
M  V30 4764 C 473.425 -0.23001 -1.68538 0
M  V30 4765 O 474.61 -0.43069 -1.89364 0
M  V30 4766 C 471.74 -1.1701 -3.26995 0
M  V30 4767 C 470.694 -2.27216 -3.62708 0
M  V30 4768 C 470.02 -1.93174 -4.98586 0
M  V30 4769 C 471.32 -3.6941 -3.69234 0
M  V30 4770 H 473.014 -2.30499 -1.91078 0
M  V30 4771 H 470.56 -1.10953 -0.917902 0
M  V30 4772 H 472.513 -1.14688 -4.05493 0
M  V30 4773 H 471.237 -0.191395 -3.26039 0
M  V30 4774 H 469.896 -2.28697 -2.86519 0
M  V30 4775 H 469.544 -0.938281 -4.94171 0
M  V30 4776 H 469.244 -2.66973 -5.23449 0
M  V30 4777 H 470.768 -1.92443 -5.79481 0
M  V30 4778 H 472.182 -3.70047 -4.37879 0
M  V30 4779 H 470.579 -4.4228 -4.05597 0
M  V30 4780 H 471.649 -4.0288 -2.69844 0
M  V30 4781 N 472.992 0.995999 -1.22138 0
M  V30 4782 C 474.269 1.70834 -0.952642 0
M  V30 4783 C 474.649 2.04257 0.533119 0
M  V30 4784 O 473.997 1.72343 1.50034 0
M  V30 4785 C 474.207 2.96119 -1.84701 0
M  V30 4786 C 475.555 3.68962 -2.10124 0
M  V30 4787 O 476.579 3.0612 -1.82124 0
M  V30 4788 O 475.438 4.82017 -2.57531 0
M  V30 4789 H 472.532 0.745498 -0.357997 0
M  V30 4790 H 475.078 1.05262 -1.33109 0
M  V30 4791 H 473.85 2.67898 -2.85213 0
M  V30 4792 H 473.473 3.6943 -1.46995 0
M  V30 4793 N 474.47 1.03057 1.19235 0
M  V30 4794 C 475.718 0.726581 1.88587 0
M  V30 4795 C 476.039 -0.747227 1.80115 0
M  V30 4796 O 475.309 -1.53849 1.21274 0
M  V30 4797 H 473.889 0.265768 0.698124 0
M  V30 4798 H 476.551 1.30516 1.44746 0
M  V30 4799 H 475.647 1.0224 2.94879 0
M  V30 4800 N 475.948 -1.35272 0.808662 0
M  V30 4801 C 477.188 -2.00534 0.395668 0
M  V30 4802 C 477.552 -1.62755 -1.01857 0
M  V30 4803 O 478.753 -2.20752 -1.53368 0
M  V30 4804 C 477.024 -3.52732 0.575771 0
M  V30 4805 S 478.583 -4.38067 0.253507 0
M  V30 4806 H 475.401 -0.694962 0.150165 0
M  V30 4807 H 478.003 -1.64823 1.05137 0
M  V30 4808 H 476.707 -3.77714 1.60499 0
M  V30 4809 H 476.238 -3.93285 -0.0951739 0
M  V30 4810 H 478.253 -4.87252 -0.938068 0
M  V30 4811 N 477.426 -0.562348 -1.47226 0
M  V30 4812 C 478.675 -0.038041 -2.01664 0
M  V30 4813 C 478.988 1.32199 -1.44162 0
M  V30 4814 O 480.194 1.9365 -1.90294 0
M  V30 4815 C 478.65 -0.0174958 -3.59896 0
M  V30 4816 C 478.258 -1.3746 -4.2639 0
M  V30 4817 C 480.002 0.453934 -4.22066 0
M  V30 4818 C 477.909 -1.31289 -5.76643 0
M  V30 4819 H 476.839 -0.0104511 -0.753928 0
M  V30 4820 H 479.49 -0.710966 -1.69167 0
M  V30 4821 H 477.872 0.721182 -3.89378 0
M  V30 4822 H 479.046 -2.1314 -4.08544 0
M  V30 4823 H 477.361 -1.78438 -3.7623 0
M  V30 4824 H 479.958 0.518584 -5.32179 0
M  V30 4825 H 480.301 1.46706 -3.89594 0
M  V30 4826 H 480.834 -0.230044 -3.97134 0
M  V30 4827 H 477.573 -2.30217 -6.13743 0
M  V30 4828 H 477.093 -0.597973 -5.96812 0
M  V30 4829 H 478.772 -1.01713 -6.38955 0
M  V30 4830 N 478.904 1.54736 -0.299062 0
M  V30 4831 C 480.134 2.04215 0.312992 0
M  V30 4832 C 480.542 1.17596 1.48215 0
M  V30 4833 O 479.885 0.193835 1.82674 0
M  V30 4834 C 479.947 3.49696 0.833862 0
M  V30 4835 C 479.611 4.56518 -0.20977 0
M  V30 4836 C 480.608 5.09442 -1.03756 0
M  V30 4837 C 478.293 5.01073 -0.35091 0
M  V30 4838 C 480.287 6.05459 -1.99244 0
M  V30 4839 C 477.974 5.9691 -1.30924 0
M  V30 4840 C 478.972 6.48987 -2.1285 0
M  V30 4841 O 478.66 7.42947 -3.07059 0
M  V30 4842 H 478.392 0.672128 0.0722494 0
M  V30 4843 H 480.946 2.00718 -0.436043 0
M  V30 4844 H 479.176 3.5051 1.63339 0
M  V30 4845 H 480.865 3.82381 1.36159 0
M  V30 4846 H 481.631 4.75816 -0.939376 0
M  V30 4847 H 477.51 4.60168 0.276813 0
M  V30 4848 H 481.054 6.46031 -2.63229 0
M  V30 4849 H 476.951 6.29953 -1.40815 0
M  V30 4850 H 477.719 7.60743 -3.02015 0
M  V30 4851 N 480.382 0.0267497 1.57577 0
M  V30 4852 C 481.345 -0.940916 2.08996 0
M  V30 4853 C 482.345 -1.25561 1.00455 0
M  V30 4854 O 483.535 -1.19634 1.26623 0
M  V30 4855 C 480.667 -2.25814 2.55384 0
M  V30 4856 H 481.86 -0.495628 2.95776 0
M  V30 4857 H 479.413 -0.221241 1.54726 0
M  V30 4858 H 480.148 -2.74976 1.71926 0
M  V30 4859 H 479.933 -2.04285 3.34679 0
M  V30 4860 H 481.423 -2.95178 2.95398 0
M  V30 4861 N 481.861 -1.55662 -0.24637 0
M  V30 4862 C 483.11 -1.7672 -0.972254 0
M  V30 4863 C 483.423 -0.59078 -1.86465 0
M  V30 4864 O 484.629 -0.684391 -2.62732 0
M  V30 4865 C 483.085 -3.12869 -1.7788 0
M  V30 4866 C 482.693 -4.38161 -0.933768 0
M  V30 4867 C 484.437 -3.43265 -2.49738 0
M  V30 4868 C 482.344 -5.6534 -1.73623 0
M  V30 4869 H 481.274 -0.658795 -0.366749 0
M  V30 4870 H 483.925 -1.82092 -0.226902 0
M  V30 4871 H 482.307 -3.01606 -2.56612 0
M  V30 4872 H 483.481 -4.60413 -0.188736 0
M  V30 4873 H 481.796 -4.15102 -0.328488 0
M  V30 4874 H 484.393 -4.35501 -3.10231 0
M  V30 4875 H 484.736 -2.64614 -3.2138 0
M  V30 4876 H 485.269 -3.55746 -1.78016 0
M  V30 4877 H 482.008 -6.46814 -1.06354 0
M  V30 4878 H 481.528 -5.47188 -2.45653 0
M  V30 4879 H 483.207 -6.04616 -2.30323 0
M  V30 4880 N 483.339 0.512053 -1.4905 0
M  V30 4881 C 484.286 1.6148 -1.64902 0
M  V30 4882 C 485.256 1.58687 -0.490673 0
M  V30 4883 O 486.441 1.76842 -0.71636 0
M  V30 4884 C 483.581 2.99676 -1.71139 0
M  V30 4885 C 482.694 3.12568 -2.98203 0
M  V30 4886 C 481.829 4.4143 -2.95487 0
M  V30 4887 C 480.868 4.47916 -4.17179 0
M  V30 4888 N 480.005 5.68191 -4.12437 0
M  V30 4889 H 484.845 1.47271 -2.59066 0
M  V30 4890 H 482.382 0.716713 -1.28459 0
M  V30 4891 H 484.34 3.79761 -1.72736 0
M  V30 4892 H 482.97 3.12614 -0.804508 0
M  V30 4893 H 482.022 2.25618 -3.06269 0
M  V30 4894 H 483.334 3.1322 -3.88194 0
M  V30 4895 H 482.488 5.29825 -2.95585 0
M  V30 4896 H 481.227 4.43326 -2.03256 0
M  V30 4897 H 480.232 3.57925 -4.17337 0
M  V30 4898 H 481.457 4.47744 -5.1059 0
M  V30 4899 H 479.403 5.7095 -3.23036 0
M  V30 4900 H 479.32 5.70413 -4.96151 0
M  V30 4901 H 480.588 6.58823 -4.16621 0
M  V30 4902 N 484.817 1.37938 0.762283 0
M  V30 4903 C 486.233 1.18945 1.06415 0
M  V30 4904 C 486.433 0.0321163 2.01474 0
M  V30 4905 O 485.489 -0.624844 2.44647 0
M  V30 4906 C 486.802 2.51218 1.65258 0
M  V30 4907 C 488.35 2.57824 1.7747 0
M  V30 4908 C 488.825 3.90251 2.39725 0
M  V30 4909 N 490.316 3.91744 2.47166 0
M  V30 4910 C 491.051 4.90966 2.96209 0
M  V30 4911 N 490.547 6.00585 3.45354 0
M  V30 4912 N 492.34 4.78363 2.9517 0
M  V30 4913 H 484.491 2.11994 0.131301 0
M  V30 4914 H 486.754 0.940262 0.120879 0
M  V30 4915 H 486.46 3.36317 1.02878 0
M  V30 4916 H 486.334 2.68989 2.64433 0
M  V30 4917 H 488.721 1.73126 2.3898 0
M  V30 4918 H 488.802 2.43928 0.770241 0
M  V30 4919 H 488.446 4.75368 1.78852 0
M  V30 4920 H 488.376 4.01454 3.40796 0
M  V30 4921 H 490.867 3.12563 2.12397 0
M  V30 4922 H 491.18 6.72236 3.81207 0
M  V30 4923 H 489.525 6.04217 3.43434 0
M  V30 4924 H 492.716 3.91841 2.56082 0
M  V30 4925 H 492.889 5.55843 3.33081 0
M  V30 4926 N 486.295 -0.989507 1.22664 0
M  V30 4927 C 487.52 -1.77031 1.08051 0
M  V30 4928 C 487.945 -1.84535 -0.364483 0
M  V30 4929 O 487.303 -1.3003 -1.2634 0
M  V30 4930 C 487.351 -3.18 1.70024 0
M  V30 4931 O 486.455 -4.01161 0.956216 0
M  V30 4932 H 485.796 -0.545008 0.379292 0
M  V30 4933 H 488.326 -1.24277 1.62531 0
M  V30 4934 H 488.336 -3.68616 1.74888 0
M  V30 4935 H 487.011 -3.11853 2.75174 0
M  V30 4936 H 485.588 -3.59687 0.98384 0
M  V30 4937 N 487.773 -1.03688 -1.18687 0
M  V30 4938 C 488.72 -0.624624 -2.22187 0
M  V30 4939 C 489.69 0.365636 -1.62026 0
M  V30 4940 O 490.875 0.260481 -1.89014 0
M  V30 4941 C 488.015 0.0101738 -3.45099 0
M  V30 4942 C 487.128 -1.02709 -4.19613 0
M  V30 4943 C 486.263 -0.361213 -5.2997 0
M  V30 4944 C 485.302 -1.38384 -5.96252 0
M  V30 4945 N 484.439 -0.743196 -6.98155 0
M  V30 4946 H 489.279 -1.51176 -2.56807 0
M  V30 4947 H 486.816 -0.75636 -1.26165 0
M  V30 4948 H 488.774 0.395528 -4.15321 0
M  V30 4949 H 487.404 0.860848 -3.1111 0
M  V30 4950 H 486.456 -1.53043 -3.48256 0
M  V30 4951 H 487.768 -1.80398 -4.65036 0
M  V30 4952 H 486.922 0.0785537 -6.06649 0
M  V30 4953 H 485.661 0.447799 -4.8564 0
M  V30 4954 H 484.666 -1.83378 -5.18317 0
M  V30 4955 H 485.891 -2.19448 -6.42666 0
M  V30 4956 H 483.837 0.0455789 -6.55984 0
M  V30 4957 H 483.754 -1.45784 -7.41811 0
M  V30 4958 H 485.022 -0.327698 -7.78811 0
M  V30 4959 N 489.251 1.34841 -0.815825 0
M  V30 4960 C 490.198 2.29644 -0.230664 0
M  V30 4961 C 491.168 1.53253 0.640533 0
M  V30 4962 O 492.353 1.81653 0.583672 0
M  V30 4963 C 489.493 3.39715 0.607275 0
M  V30 4964 C 488.606 4.31056 -0.28538 0
M  V30 4965 C 487.741 5.28225 0.561446 0
M  V30 4966 C 486.78 6.11204 -0.331035 0
M  V30 4967 N 485.917 7.00483 0.476302 0
M  V30 4968 H 490.757 2.79095 -1.0445 0
M  V30 4969 H 488.294 1.37351 -0.526595 0
M  V30 4970 H 490.252 4.02208 1.10835 0
M  V30 4971 H 488.882 2.91517 1.38629 0
M  V30 4972 H 487.934 3.69487 -0.904621 0
M  V30 4973 H 489.246 4.89239 -0.97193 0
M  V30 4974 H 488.4 5.96135 1.12728 0
M  V30 4975 H 487.139 4.70562 1.28153 0
M  V30 4976 H 486.144 5.42232 -0.909069 0
M  V30 4977 H 487.369 6.70947 -1.04912 0
M  V30 4978 H 485.315 6.45296 1.18019 0
M  V30 4979 H 485.232 7.55847 -0.152008 0
M  V30 4980 H 486.5 7.7273 1.02512 0
M  V30 4981 N 490.729 0.570148 1.46925 0
M  V30 4982 C 492.14 0.1402 1.86173 0
M  V30 4983 C 492.491 -1.29347 1.47526 0
M  V30 4984 O 491.616 -1.97508 0.884292 0
M  V30 4985 C 492.211 0.247661 3.37894 0
M  V30 4986 C 490.77 -0.127332 3.76185 0
M  V30 4987 C 489.917 0.589349 2.70965 0
M  V30 4988 H 492.868 0.779117 1.38259 0
M  V30 4989 H 492.889 -0.530341 3.76786 0
M  V30 4990 H 492.401 1.29121 3.65991 0
M  V30 4991 H 490.502 -1.17149 3.53704 0
M  V30 4992 H 490.615 0.240238 4.78497 0
M  V30 4993 H 488.979 0.0309824 2.54681 0
M  V30 4994 H 489.762 1.6343 3.01903 0
M  V30 4995 N 492.207 -1.54576 0.307264 0
M  V30 4996 C 493.137 -2.26708 -0.55907 0
M  V30 4997 C 494.118 -1.26893 -1.1328 0
M  V30 4998 O 495.303 -1.55677 -1.16097 0
M  V30 4999 C 492.433 -3.01259 -1.72801 0
M  V30 5000 C 491.387 -4.08275 -1.28435 0
M  V30 5001 C 490.713 -4.70575 -2.53895 0
M  V30 5002 C 492.013 -5.2068 -0.411038 0
M  V30 5003 H 493.707 -2.9937 0.042576 0
M  V30 5004 H 491.253 -1.43983 0.0219173 0
M  V30 5005 H 493.206 -3.50444 -2.34023 0
M  V30 5006 H 491.93 -2.26187 -2.356 0
M  V30 5007 H 490.589 -3.59949 -0.695161 0
M  V30 5008 H 490.237 -3.92136 -3.15021 0
M  V30 5009 H 489.937 -5.42854 -2.24908 0
M  V30 5010 H 491.461 -5.22527 -3.15908 0
M  V30 5011 H 492.875 -5.65721 -0.929097 0
M  V30 5012 H 491.272 -5.99716 -0.214664 0
M  V30 5013 H 492.342 -4.81629 0.562287 0
M  V30 5014 N 493.685 -0.035106 -1.57561 0
M  V30 5015 C 494.648 0.929819 -2.09492 0
M  V30 5016 C 495.648 1.25026 -1.01119 0
M  V30 5017 O 496.838 1.18961 -1.27255 0
M  V30 5018 C 493.97 2.24457 -2.56577 0
M  V30 5019 H 495.163 0.479935 -2.96035 0
M  V30 5020 H 492.716 0.213033 -1.54841 0
M  V30 5021 H 493.451 2.74061 -1.73382 0
M  V30 5022 H 493.236 2.02508 -3.35757 0
M  V30 5023 H 494.726 2.93607 -2.96959 0
M  V30 5024 N 495.163 1.55791 0.238111 0
M  V30 5025 C 496.411 1.77681 0.963001 0
M  V30 5026 C 496.732 0.600674 1.85518 0
M  V30 5027 O 496.002 -0.383182 1.92116 0
M  V30 5028 H 494.582 0.655315 0.358568 0
M  V30 5029 H 497.244 1.93239 0.253945 0
M  V30 5030 H 496.34 2.69177 1.57956 0
M  V30 5031 N 496.642 -0.504142 1.49319 0
M  V30 5032 C 497.867 -1.28729 1.62615 0
M  V30 5033 C 498.292 -1.85752 0.296309 0
M  V30 5034 O 497.65 -1.65704 -0.735649 0
M  V30 5035 C 497.698 -2.39561 2.69524 0
M  V30 5036 O 496.802 -3.43324 2.28478 0
M  V30 5037 H 496.143 -0.380172 0.544395 0
M  V30 5038 H 498.673 -0.603872 1.95485 0
M  V30 5039 H 498.683 -2.8537 2.91595 0
M  V30 5040 H 497.358 -1.97423 3.66056 0
M  V30 5041 H 495.935 -3.03455 2.16725 0
M  V30 5042 N 498.12 -1.38341 -0.754957 0
M  V30 5043 C 499.366 -1.34672 -1.51628 0
M  V30 5044 C 499.699 0.0636036 -1.94096 0
M  V30 5045 O 498.974 1.0245 -1.6533 0
M  V30 5046 C 499.257 -2.30116 -2.76981 0
M  V30 5047 C 499.11 -3.80003 -2.4066 0
M  V30 5048 C 500.429 -2.23715 -3.78998 0
M  V30 5049 H 497.548 -0.490517 -0.550056 0
M  V30 5050 H 500.19 -1.69178 -0.864807 0
M  V30 5051 H 498.34 -2.00821 -3.3257 0
M  V30 5052 H 500.012 -4.19966 -1.90856 0
M  V30 5053 H 498.255 -3.97751 -1.73137 0
M  V30 5054 H 498.926 -4.42244 -3.30339 0
M  V30 5055 H 501.402 -2.49574 -3.32945 0
M  V30 5056 H 500.278 -2.9261 -4.64403 0
M  V30 5057 H 500.539 -1.23554 -4.24484 0
M  V30 5058 N 499.598 0.982988 -1.23187 0
M  V30 5059 C 500.875 1.69814 -0.970707 0
M  V30 5060 C 501.255 2.04811 0.511424 0
M  V30 5061 O 500.603 1.73924 1.48198 0
M  V30 5062 C 500.813 2.94143 -1.87831 0
M  V30 5063 C 502.161 3.66712 -2.14026 0
M  V30 5064 O 503.185 3.04171 -1.8536 0
M  V30 5065 O 502.044 4.79258 -2.62629 0
M  V30 5066 H 499.138 0.741659 -0.365884 0
M  V30 5067 H 501.684 1.03844 -1.34218 0
M  V30 5068 H 500.456 2.64858 -2.88038 0
M  V30 5069 H 500.079 3.6785 -1.50905 0
M  V30 5070 N 501.076 1.04316 1.18135 0
M  V30 5071 C 501.986 0.646876 2.25505 0
M  V30 5072 C 503.002 -0.328008 1.7088 0
M  V30 5073 O 504.178 -0.182309 2.00573 0
M  V30 5074 C 501.243 0.0185664 3.46695 0
M  V30 5075 C 500.304 1.04277 4.16443 0
M  V30 5076 C 499.537 0.444352 5.31847 0
M  V30 5077 O 499.76 -0.748735 5.65465 0
M  V30 5078 O 498.694 1.17428 5.90334 0
M  V30 5079 H 502.52 1.54147 2.61672 0
M  V30 5080 H 500.105 0.814188 1.25265 0
M  V30 5081 H 501.987 -0.331068 4.20097 0
M  V30 5082 H 500.662 -0.849814 3.12346 0
M  V30 5083 H 499.569 1.44425 3.45098 0
M  V30 5084 H 500.902 1.882 4.54798 0
M  V30 5085 N 502.554 -1.34406 0.822964 0
M  V30 5086 C 503.486 -2.28305 0.202375 0
M  V30 5087 C 504.499 -1.5103 -0.60777 0
M  V30 5088 O 505.688 -1.73057 -0.437444 0
M  V30 5089 C 502.788 -3.30836 -0.734911 0
M  V30 5090 C 501.961 -4.37388 0.0324177 0
M  V30 5091 C 501.02 -5.1968 -0.825803 0
M  V30 5092 O 500.046 -5.68556 -0.270771 0
M  V30 5093 N 501.248 -5.39393 -2.14558 0
M  V30 5094 H 504.013 -2.82201 1.00909 0
M  V30 5095 H 501.574 -1.4693 0.67993 0
M  V30 5096 H 503.566 -3.82786 -1.31365 0
M  V30 5097 H 502.136 -2.77334 -1.44238 0
M  V30 5098 H 501.356 -3.86152 0.792469 0
M  V30 5099 H 502.644 -5.05702 0.560633 0
M  V30 5100 H 502.042 -5.01357 -2.62025 0
M  V30 5101 H 500.599 -5.94461 -2.67318 0
M  V30 5102 N 504.032 -0.577932 -1.46621 0
M  V30 5103 C 504.98 0.170882 -2.31971 0
M  V30 5104 C 505.974 0.889086 -1.44193 0
M  V30 5105 O 507.18 0.808017 -1.60845 0
M  V30 5106 H 503.555 0.0739763 -0.748353 0
M  V30 5107 H 505.526 -0.567856 -2.92947 0
M  V30 5108 C 504.275 1.17438 -3.27267 0
M  V30 5109 H 503.598 0.63116 -3.94787 0
M  V30 5110 H 505.038 1.66882 -3.89778 0
M  V30 5111 C 503.497 2.23292 -2.52274 0
M  V30 5112 O 504.027 3.30567 -2.28229 0
M  V30 5113 N 502.233 1.97772 -2.12919 0
M  V30 5114 H 501.78 1.10545 -2.32675 0
M  V30 5115 H 501.738 2.68809 -1.63062 0
M  V30 5116 N 505.51 1.54411 -0.315457 0
M  V30 5117 C 506.473 2.22713 0.54142 0
M  V30 5118 C 507.473 1.2179 1.04995 0
M  V30 5119 O 508.663 1.46426 0.943667 0
M  V30 5120 C 505.795 2.92485 1.75116 0
M  V30 5121 H 506.988 2.99849 -0.0555508 0
M  V30 5122 H 504.541 1.56159 -0.0664453 0
M  V30 5123 H 505.276 2.19466 2.38758 0
M  V30 5124 H 505.061 3.66483 1.39401 0
M  V30 5125 H 506.551 3.44548 2.35959 0
M  V30 5126 N 506.988 0.0434614 1.5754 0
M  V30 5127 C 507.918 -0.931651 2.14109 0
M  V30 5128 C 508.899 -1.32971 1.06079 0
M  V30 5129 O 510.084 -1.40579 1.33982 0
M  V30 5130 C 507.214 -2.20914 2.67982 0
M  V30 5131 C 506.168 -1.95139 3.80926 0
M  V30 5132 C 505.494 -3.29276 4.21285 0
M  V30 5133 C 506.794 -1.27913 5.06395 0
M  V30 5134 H 508.488 -0.460497 2.95837 0
M  V30 5135 H 506.034 -0.220058 1.42309 0
M  V30 5136 H 507.987 -2.89522 3.06194 0
M  V30 5137 H 506.711 -2.70221 1.83434 0
M  V30 5138 H 505.37 -1.28945 3.43175 0
M  V30 5139 H 505.018 -3.76369 3.33699 0
M  V30 5140 H 504.718 -3.12831 4.97404 0
M  V30 5141 H 506.242 -3.99129 4.62091 0
M  V30 5142 H 507.656 -1.86544 5.42102 0
M  V30 5143 H 506.053 -1.2182 5.87605 0
M  V30 5144 H 507.123 -0.254066 4.84234 0
M  V30 5145 N 508.466 -1.55915 -0.229846 0
M  V30 5146 C 509.882 -1.48721 -0.579166 0
M  V30 5147 C 510.082 -0.736976 -1.87539 0
M  V30 5148 O 509.138 -0.273258 -2.51017 0
M  V30 5149 C 510.451 -2.9323 -0.666082 0
M  V30 5150 C 511.999 -3.03701 -0.757267 0
M  V30 5151 C 512.474 -4.49552 -0.8756 0
M  V30 5152 N 513.965 -4.53561 -0.940035 0
M  V30 5153 C 514.7 -5.63683 -1.05116 0
M  V30 5154 N 514.196 -6.83576 -1.12675 0
M  V30 5155 N 515.989 -5.51516 -1.08565 0
M  V30 5156 H 508.14 -2.03123 0.620857 0
M  V30 5157 H 510.403 -0.922898 0.21671 0
M  V30 5158 H 510.109 -3.51032 0.21664 0
M  V30 5159 H 509.983 -3.44668 -1.53243 0
M  V30 5160 H 512.37 -2.45969 -1.63043 0
M  V30 5161 H 512.451 -2.55446 0.134583 0
M  V30 5162 H 512.095 -5.079 -0.00692351 0
M  V30 5163 H 512.025 -4.95506 -1.78274 0
M  V30 5164 H 514.516 -3.67215 -0.892269 0
M  V30 5165 H 514.829 -7.63251 -1.21109 0
M  V30 5166 H 513.174 -6.86303 -1.09603 0
M  V30 5167 H 516.365 -4.5678 -1.02319 0
M  V30 5168 H 516.538 -6.37372 -1.1688 0
M  V30 5169 N 509.944 0.496216 -1.49584 0
M  V30 5170 C 510.854 1.62352 -1.69349 0
M  V30 5171 C 511.87 1.64184 -0.576147 0
M  V30 5172 O 513.046 1.82517 -0.85144 0
M  V30 5173 C 510.111 2.98698 -1.76013 0
M  V30 5174 C 509.172 3.07454 -2.99617 0
M  V30 5175 C 508.405 4.37296 -3.05953 0
M  V30 5176 O 508.628 5.2637 -2.19752 0
M  V30 5177 O 507.562 4.51124 -3.9846 0
M  V30 5178 H 511.388 1.48606 -2.64859 0
M  V30 5179 H 508.973 0.673022 -1.33382 0
M  V30 5180 H 510.855 3.79725 -1.82721 0
M  V30 5181 H 509.53 3.12696 -0.836828 0
M  V30 5182 H 508.437 2.25597 -2.98424 0
M  V30 5183 H 509.77 2.98385 -3.91443 0
M  V30 5184 N 511.423 1.38739 0.74761 0
M  V30 5185 C 512.669 1.35475 1.50912 0
M  V30 5186 C 513.002 -0.0533093 1.94127 0
M  V30 5187 O 512.277 -1.01572 1.65871 0
M  V30 5188 C 512.56 2.31582 2.75757 0
M  V30 5189 C 512.413 3.81274 2.38642 0
M  V30 5190 C 513.732 2.25722 3.77806 0
M  V30 5191 H 510.851 0.493427 0.547447 0
M  V30 5192 H 513.493 1.69634 0.855823 0
M  V30 5193 H 511.643 2.02582 3.31501 0
M  V30 5194 H 513.315 4.20972 1.88626 0
M  V30 5195 H 511.558 3.98664 1.71025 0
M  V30 5196 H 512.229 4.4399 3.27989 0
M  V30 5197 H 514.705 2.51336 3.31616 0
M  V30 5198 H 513.581 2.95069 4.62845 0
M  V30 5199 H 513.842 1.25803 4.23823 0
M  V30 5200 N 512.901 -0.976442 1.23707 0
M  V30 5201 C 514.131 -1.75087 1.09673 0
M  V30 5202 C 514.539 -1.85852 -0.354344 0
M  V30 5203 O 513.882 -1.33985 -1.25673 0
M  V30 5204 C 513.944 -3.19272 1.65245 0
M  V30 5205 C 513.608 -3.32004 3.14042 0
M  V30 5206 C 514.605 -3.18017 4.11292 0
M  V30 5207 C 512.29 -3.56525 3.53829 0
M  V30 5208 C 514.284 -3.28363 5.46312 0
M  V30 5209 C 511.971 -3.6651 4.88993 0
M  V30 5210 C 512.969 -3.52439 5.85043 0
M  V30 5211 O 512.657 -3.62063 7.1775 0
M  V30 5212 H 512.389 -0.556164 0.384262 0
M  V30 5213 H 514.943 -1.23518 1.64111 0
M  V30 5214 H 513.173 -3.72107 1.05231 0
M  V30 5215 H 514.862 -3.7849 1.46629 0
M  V30 5216 H 515.628 -2.98966 3.81896 0
M  V30 5217 H 511.507 -3.66547 2.79579 0
M  V30 5218 H 515.051 -3.17297 6.21263 0
M  V30 5219 H 510.948 -3.85072 5.18063 0
M  V30 5220 H 511.716 -3.78833 7.25553 0
M  V30 5221 N 514.379 -1.04941 -1.1758 0
M  V30 5222 C 515.342 -0.652456 -2.19717 0
M  V30 5223 C 516.342 0.294745 -1.58076 0
M  V30 5224 O 517.532 0.0789579 -1.74021 0
M  V30 5225 C 514.664 0.0420712 -3.40874 0
M  V30 5226 H 515.857 -1.55642 -2.5635 0
M  V30 5227 H 513.41 -0.842995 -1.31618 0
M  V30 5228 H 514.145 0.95943 -3.09783 0
M  V30 5229 H 513.93 -0.638844 -3.86861 0
M  V30 5230 H 515.42 0.306 -4.16477 0
M  V30 5231 N 515.857 1.33968 -0.830081 0
M  V30 5232 C 516.807 2.26845 -0.229242 0
M  V30 5233 C 517.791 1.48862 0.610659 0
M  V30 5234 O 518.983 1.70808 0.464067 0
M  V30 5235 C 516.112 3.3798 0.602057 0
M  V30 5236 C 515.198 4.23369 -0.248866 0
M  V30 5237 N 515.589 4.88182 -1.32334 0
M  V30 5238 C 513.887 4.45987 -0.0344077 0
M  V30 5239 C 514.588 5.51671 -1.84482 0
M  V30 5240 N 513.564 5.31348 -1.14762 0
M  V30 5241 H 517.366 2.74464 -1.05104 0
M  V30 5242 H 514.88 1.4777 -0.673623 0
M  V30 5243 H 516.877 4.03494 1.04873 0
M  V30 5244 H 515.537 2.9191 1.42193 0
M  V30 5245 H 516.548 4.88988 -1.70619 0
M  V30 5246 H 513.225 4.10658 0.752727 0
M  V30 5247 H 514.615 6.13308 -2.74413 0
M  V30 5248 N 517.335 0.585699 1.46312 0
M  V30 5249 C 518.298 -0.135673 2.28798 0
M  V30 5250 C 519.298 -0.815988 1.38558 0
M  V30 5251 O 520.488 -0.667487 1.60904 0
M  V30 5252 C 517.62 -1.20163 3.1902 0
M  V30 5253 H 518.813 0.589257 2.94054 0
M  V30 5254 H 516.366 0.343794 1.52472 0
M  V30 5255 H 517.101 -1.95804 2.58517 0
M  V30 5256 H 516.886 -0.718282 3.85465 0
M  V30 5257 H 518.376 -1.70749 3.81096 0
M  V30 5258 N 518.813 -1.54241 0.323641 0
M  V30 5259 C 520.059 -2.00867 -0.279323 0
M  V30 5260 C 520.392 -1.21146 -1.5178 0
M  V30 5261 O 519.667 -0.29378 -1.92269 0
M  V30 5262 C 519.95 -3.54837 -0.613387 0
M  V30 5263 C 519.803 -4.45284 0.635803 0
M  V30 5264 C 521.122 -4.16186 -1.43099 0
M  V30 5265 H 518.241 -0.730177 -0.100049 0
M  V30 5266 H 520.883 -1.84829 0.440235 0
M  V30 5267 H 519.033 -3.68634 -1.22641 0
M  V30 5268 H 520.705 -4.43357 1.27406 0
M  V30 5269 H 518.948 -4.14956 1.26466 0
M  V30 5270 H 519.619 -5.5084 0.357597 0
M  V30 5271 H 522.095 -4.05964 -0.912814 0
M  V30 5272 H 520.971 -5.24031 -1.6335 0
M  V30 5273 H 521.232 -3.69516 -2.42715 0
M  V30 5274 N 520.291 -0.0518155 -1.57515 0
M  V30 5275 C 521.221 0.920283 -2.146 0
M  V30 5276 C 522.202 1.32406 -1.06783 0
M  V30 5277 O 523.387 1.39866 -1.34726 0
M  V30 5278 C 520.517 2.1949 -2.6915 0
M  V30 5279 C 519.471 1.93116 -3.81956 0
M  V30 5280 C 518.797 3.27037 -4.23026 0
M  V30 5281 C 520.097 1.25225 -5.07066 0
M  V30 5282 H 521.791 0.444801 -2.96077 0
M  V30 5283 H 519.337 0.212508 -1.42423 0
M  V30 5284 H 521.29 2.87894 -3.07725 0
M  V30 5285 H 520.014 2.69244 -1.84865 0
M  V30 5286 H 518.673 1.27123 -3.43854 0
M  V30 5287 H 518.321 3.74595 -3.3569 0
M  V30 5288 H 518.021 3.10189 -4.99056 0
M  V30 5289 H 519.545 3.96673 -4.64202 0
M  V30 5290 H 520.959 1.83666 -5.43083 0
M  V30 5291 H 519.356 1.18702 -5.88243 0
M  V30 5292 H 520.426 0.228382 -4.84362 0
M  V30 5293 N 521.769 1.56035 0.221574 0
M  V30 5294 C 523.017 1.78693 0.944102 0
M  V30 5295 C 523.338 0.620317 1.8487 0
M  V30 5296 O 522.608 -0.362784 1.92512 0
M  V30 5297 H 521.188 0.659082 0.351597 0
M  V30 5298 H 523.85 1.93497 0.233435 0
M  V30 5299 H 522.946 2.70837 1.55093 0
M  V30 5300 N 523.247 -0.488276 1.49845 0
M  V30 5301 C 524.179 -1.60539 1.63584 0
M  V30 5302 C 525.192 -1.5434 0.517972 0
M  V30 5303 O 526.381 -1.60041 0.790516 0
M  V30 5304 C 523.481 -2.99374 1.58835 0
M  V30 5305 C 522.654 -3.30624 2.86368 0
M  V30 5306 C 521.713 -4.4893 2.74496 0
M  V30 5307 O 520.739 -4.50085 3.48443 0
M  V30 5308 N 521.941 -5.49591 1.86894 0
M  V30 5309 H 524.706 -1.49176 2.59936 0
M  V30 5310 H 522.267 -0.67639 1.47094 0
M  V30 5311 H 524.259 -3.76459 1.48529 0
M  V30 5312 H 522.829 -3.04595 0.702892 0
M  V30 5313 H 522.049 -2.42314 3.1093 0
M  V30 5314 H 523.337 -3.48305 3.70892 0
M  V30 5315 H 522.735 -5.51467 1.26097 0
M  V30 5316 H 521.292 -6.25728 1.82503 0
M  V30 5317 N 524.725 -1.39134 -0.740242 0
M  V30 5318 C 525.675 -1.33928 -1.84519 0
M  V30 5319 C 526.659 -0.221097 -1.59374 0
M  V30 5320 O 527.851 -0.458195 -1.70967 0
M  V30 5321 C 524.98 -1.17991 -3.22387 0
M  V30 5322 C 524.066 -2.34488 -3.53378 0
M  V30 5323 N 524.457 -3.59954 -3.5534 0
M  V30 5324 C 522.755 -2.27331 -3.83714 0
M  V30 5325 C 523.456 -4.36962 -3.83978 0
M  V30 5326 N 522.432 -3.66482 -4.01487 0
M  V30 5327 H 526.234 -2.28907 -1.84333 0
M  V30 5328 H 523.748 -1.32555 -0.938237 0
M  V30 5329 H 525.745 -1.12345 -4.01478 0
M  V30 5330 H 524.405 -0.23957 -3.23815 0
M  V30 5331 H 525.416 -3.93448 -3.36778 0
M  V30 5332 H 522.093 -1.41531 -3.92779 0
M  V30 5333 H 523.483 -5.45692 -3.92008 0
M  V30 5334 N 526.204 0.969867 -1.24223 0
M  V30 5335 C 527.429 1.75289 -1.10853 0
M  V30 5336 C 527.854 1.85091 0.335079 0
M  V30 5337 O 527.212 1.32024 1.24255 0
M  V30 5338 C 527.26 3.15255 -1.75062 0
M  V30 5339 O 526.364 3.99589 -1.01992 0
M  V30 5340 H 525.705 0.538904 -0.387915 0
M  V30 5341 H 528.235 1.21675 -1.64488 0
M  V30 5342 H 528.245 3.65787 -1.80731 0
M  V30 5343 H 526.92 3.07436 -2.801 0
M  V30 5344 H 525.497 3.58077 -1.04094 0
M  V30 5345 N 527.682 1.05563 1.17022 0
M  V30 5346 C 528.632 0.630007 2.19123 0
M  V30 5347 C 529.616 -0.335472 1.57364 0
M  V30 5348 O 530.808 -0.1521 1.76345 0
M  V30 5349 C 527.937 0.0101676 3.43298 0
M  V30 5350 C 527.023 0.999698 4.12149 0
M  V30 5351 N 527.414 2.17251 4.56766 0
M  V30 5352 C 525.712 0.829 4.38228 0
M  V30 5353 C 526.413 2.79883 5.09942 0
M  V30 5354 N 525.389 2.07656 5.02374 0
M  V30 5355 H 529.191 1.52353 2.51328 0
M  V30 5356 H 526.705 0.926288 1.33393 0
M  V30 5357 H 528.702 -0.312541 4.15727 0
M  V30 5358 H 527.362 -0.878707 3.12584 0
M  V30 5359 H 528.373 2.55067 4.50734 0
M  V30 5360 H 525.05 -0.00850974 4.17499 0
M  V30 5361 H 526.44 3.79362 5.54558 0
M  V30 5362 N 529.16 -1.33526 0.837174 0
M  V30 5363 C 530.406 -1.9813 0.432704 0
M  V30 5364 C 530.739 -1.66168 -1.00508 0
M  V30 5365 O 530.014 -0.94069 -1.70239 0
M  V30 5366 C 530.297 -3.54151 0.651834 0
M  V30 5367 C 530.15 -3.95806 2.13676 0
M  V30 5368 C 531.469 -4.39993 0.0968937 0
M  V30 5369 H 528.588 -0.719713 0.15869 0
M  V30 5370 H 531.23 -1.58193 1.05237 0
M  V30 5371 H 529.38 -3.88301 0.124369 0
M  V30 5372 H 531.052 -3.71921 2.72896 0
M  V30 5373 H 529.295 -3.45599 2.62191 0
M  V30 5374 H 529.966 -5.0447 2.24084 0
M  V30 5375 H 532.442 -4.12479 0.547733 0
M  V30 5376 H 531.318 -5.48186 0.279917 0
M  V30 5377 H 531.579 -4.3066 -0.9992 0
M  V30 5378 N 530.638 -0.59345 -1.46 0
M  V30 5379 C 531.884 -0.0832754 -2.02629 0
M  V30 5380 C 532.217 1.27749 -1.46266 0
M  V30 5381 O 531.492 1.8395 -0.631866 0
M  V30 5382 C 531.775 -0.0290756 -3.60088 0
M  V30 5383 C 531.628 -1.41951 -4.26814 0
M  V30 5384 C 532.947 0.666055 -4.35031 0
M  V30 5385 H 530.066 -0.031736 -0.736316 0
M  V30 5386 H 532.708 -0.762711 -1.74019 0
M  V30 5387 H 530.858 0.549532 -3.84594 0
M  V30 5388 H 532.53 -2.04411 -4.13538 0
M  V30 5389 H 530.773 -1.98422 -3.8576 0
M  V30 5390 H 531.444 -1.33395 -5.3564 0
M  V30 5391 H 533.92 0.174401 -4.15734 0
M  V30 5392 H 532.796 0.673041 -5.44758 0
M  V30 5393 H 533.057 1.72946 -4.06869 0
M  V30 5394 N 532.116 1.54067 -0.331816 0
M  V30 5395 C 533.532 1.59587 0.0205388 0
M  V30 5396 C 533.732 1.34813 1.49759 0
M  V30 5397 O 532.788 1.13661 2.25471 0
M  V30 5398 C 534.101 2.97959 -0.405103 0
M  V30 5399 C 535.649 3.10964 -0.356454 0
M  V30 5400 C 536.124 4.51694 -0.757384 0
M  V30 5401 N 537.615 4.57709 -0.71111 0
M  V30 5402 C 538.35 5.64729 -0.993427 0
M  V30 5403 N 537.846 6.79652 -1.3433 0
M  V30 5404 N 539.639 5.54546 -0.918442 0
M  V30 5405 H 531.79 1.68426 -1.29407 0
M  V30 5406 H 534.053 0.78819 -0.526745 0
M  V30 5407 H 533.759 3.21115 -1.43451 0
M  V30 5408 H 533.633 3.76524 0.225692 0
M  V30 5409 H 536.02 2.87538 0.663763 0
M  V30 5410 H 536.101 2.34484 -1.02229 0
M  V30 5411 H 535.745 4.75853 -1.77555 0
M  V30 5412 H 535.675 5.26555 -0.0691444 0
M  V30 5413 H 538.166 3.75176 -0.452883 0
M  V30 5414 H 538.479 7.57221 -1.54388 0
M  V30 5415 H 536.824 6.81128 -1.38164 0
M  V30 5416 H 540.015 4.63641 -0.644536 0
M  V30 5417 H 540.188 6.37861 -1.14181 0
M  V30 5418 N 533.594 0.0601682 1.57485 0
M  V30 5419 C 534.824 -0.620037 1.97076 0
M  V30 5420 C 535.232 -1.64381 0.936784 0
M  V30 5421 O 534.575 -1.83497 -0.0863377 0
M  V30 5422 C 534.637 -1.35617 3.32939 0
M  V30 5423 C 534.301 -0.487208 4.54396 0
M  V30 5424 C 535.298 0.250428 5.19297 0
M  V30 5425 C 532.983 -0.415494 5.00579 0
M  V30 5426 C 534.977 1.04812 6.28723 0
M  V30 5427 C 532.664 0.385879 6.0988 0
M  V30 5428 C 533.662 1.11637 6.73815 0
M  V30 5429 O 533.35 1.90454 7.81014 0
M  V30 5430 H 533.082 -0.173664 0.653312 0
M  V30 5431 H 535.636 0.1256 2.05016 0
M  V30 5432 H 533.866 -2.14763 3.2158 0
M  V30 5433 H 535.555 -1.92749 3.57215 0
M  V30 5434 H 536.321 0.204546 4.84568 0
M  V30 5435 H 532.2 -0.973679 4.506 0
M  V30 5436 H 535.744 1.6188 6.78558 0
M  V30 5437 H 531.641 0.433366 6.44044 0
M  V30 5438 H 532.409 1.82762 7.97835 0
M  V30 5439 N 535.072 -1.5615 -0.213296 0
M  V30 5440 C 536.319 -1.79546 -0.936462 0
M  V30 5441 C 536.647 -0.630337 -1.84003 0
M  V30 5442 O 535.902 0.384883 -1.91878 0
M  V30 5443 C 536.201 -3.08772 -1.79985 0
M  V30 5444 C 535.867 -4.38532 -1.04882 0
M  V30 5445 C 534.529 -4.73787 -0.841393 0
M  V30 5446 C 536.881 -5.18609 -0.51907 0
M  V30 5447 C 534.209 -5.86627 -0.0924403 0
M  V30 5448 C 536.561 -6.32229 0.216581 0
M  V30 5449 C 535.225 -6.6608 0.435191 0
M  V30 5450 H 534.495 -0.657004 -0.342676 0
M  V30 5451 H 537.142 -1.9041 -0.204051 0
M  V30 5452 H 535.447 -2.93065 -2.60038 0
M  V30 5453 H 537.144 -3.24077 -2.36168 0
M  V30 5454 H 533.734 -4.10855 -1.22048 0
M  V30 5455 H 537.918 -4.91801 -0.666775 0
M  V30 5456 H 533.174 -6.11338 0.087081 0
M  V30 5457 H 537.348 -6.93503 0.634538 0
M  V30 5458 H 534.975 -7.5336 1.01746 0
M  V30 5459 N 536.55 0.480323 -1.50102 0
M  V30 5460 C 537.775 1.26126 -1.64642 0
M  V30 5461 C 538.2 1.85257 -0.325823 0
M  V30 5462 O 537.558 1.66854 0.709194 0
M  V30 5463 C 537.606 2.35243 -2.73301 0
M  V30 5464 O 536.71 3.39646 -2.33911 0
M  V30 5465 H 536.051 0.371463 -0.550374 0
M  V30 5466 H 538.581 0.572696 -1.96421 0
M  V30 5467 H 538.591 2.80695 -2.96098 0
M  V30 5468 H 537.266 1.91574 -3.6915 0
M  V30 5469 H 535.843 2.99969 -2.21525 0
M  V30 5470 N 538.028 1.39524 0.732853 0
M  V30 5471 C 538.991 1.38189 1.82857 0
M  V30 5472 C 539.991 0.278624 1.58368 0
M  V30 5473 O 541.181 0.536639 1.65728 0
M  V30 5474 C 538.313 1.15661 3.2068 0
M  V30 5475 H 539.506 2.35692 1.85444 0
M  V30 5476 H 537.059 1.2512 0.936728 0
M  V30 5477 H 537.794 0.188482 3.23752 0
M  V30 5478 H 537.579 1.95559 3.39852 0
M  V30 5479 H 539.069 1.17472 4.00737 0
M  V30 5480 N 539.506 -0.963266 1.24736 0
M  V30 5481 C 540.752 -1.71 1.10139 0
M  V30 5482 C 541.107 -1.89089 -0.35541 0
M  V30 5483 O 540.4 -1.44451 -1.25875 0
M  V30 5484 C 540.594 -3.09944 1.7796 0
M  V30 5485 C 540.423 -3.05408 3.30085 0
M  V30 5486 C 539.193 -3.09643 3.99311 0
M  V30 5487 C 541.391 -2.87241 4.26611 0
M  V30 5488 N 539.373 -2.95174 5.3828 0
M  V30 5489 C 540.744 -2.81114 5.52607 0
M  V30 5490 C 542.799 -2.71856 4.17132 0
M  V30 5491 C 541.502 -2.61174 6.70209 0
M  V30 5492 C 543.528 -2.53284 5.34417 0
M  V30 5493 C 542.89 -2.4787 6.59348 0
M  V30 5494 H 538.989 -0.634078 0.457678 0
M  V30 5495 H 541.573 -1.14169 1.57713 0
M  V30 5496 H 539.744 -3.64958 1.32893 0
M  V30 5497 H 541.476 -3.73348 1.56183 0
M  V30 5498 H 538.231 -3.18498 3.50508 0
M  V30 5499 H 538.655 -2.91168 6.11188 0
M  V30 5500 H 543.297 -2.74821 3.21299 0
M  V30 5501 H 541.015 -2.56952 7.6616 0
M  V30 5502 H 544.601 -2.42317 5.28936 0
M  V30 5503 H 543.481 -2.33685 7.48573 0
M  V30 5504 N 540.985 -1.06182 -1.16461 0
M  V30 5505 C 541.948 -0.675723 -2.19013 0
M  V30 5506 C 542.948 0.277963 -1.58379 0
M  V30 5507 O 544.138 0.0604962 -1.74095 0
M  V30 5508 C 541.27 0.00591459 -3.40899 0
M  V30 5509 H 542.463 -1.58353 -2.54685 0
M  V30 5510 H 540.016 -0.856908 -1.30716 0
M  V30 5511 H 540.751 0.92652 -3.10783 0
M  V30 5512 H 540.536 -0.67984 -3.86161 0
M  V30 5513 H 542.026 0.26181 -4.16778 0
M  V30 5514 N 542.463 1.3308 -0.844243 0
M  V30 5515 C 543.373 2.32876 -0.283922 0
M  V30 5516 C 544.389 1.63589 0.592846 0
M  V30 5517 O 545.565 1.95205 0.495693 0
M  V30 5518 C 542.63 3.42667 0.527283 0
M  V30 5519 C 541.691 4.27664 -0.374394 0
M  V30 5520 C 540.924 5.32212 0.39819 0
M  V30 5521 O 541.147 5.46635 1.62932 0
M  V30 5522 O 540.081 6.01458 -0.2306 0
M  V30 5523 H 543.907 2.82671 -1.11045 0
M  V30 5524 H 541.492 1.36518 -0.606903 0
M  V30 5525 H 543.374 4.09652 0.988078 0
M  V30 5526 H 542.049 2.95079 1.33078 0
M  V30 5527 H 540.956 3.63526 -0.883144 0
M  V30 5528 H 542.289 4.78749 -1.1428 0
M  V30 5529 N 543.941 0.601185 1.45683 0
M  V30 5530 C 545.218 0.0261659 1.95582 0
M  V30 5531 C 545.598 -1.4399 1.5437 0
M  V30 5532 O 544.946 -2.13919 0.80318 0
M  V30 5533 C 545.156 0.217557 3.48321 0
M  V30 5534 C 546.504 0.0950076 4.24494 0
M  V30 5535 O 547.528 0.147345 3.55895 0
M  V30 5536 O 546.387 -0.025261 5.46494 0
M  V30 5537 H 543.481 -0.0393688 0.826062 0
M  V30 5538 H 546.027 0.670798 1.55879 0
M  V30 5539 H 544.799 1.23601 3.71266 0
M  V30 5540 H 544.422 -0.46264 3.94899 0
M  V30 5541 N 545.419 -1.53889 0.339982 0
M  V30 5542 C 546.696 -1.93084 -0.312719 0
M  V30 5543 C 547.076 -1.2712 -1.68534 0
M  V30 5544 O 546.424 -0.420835 -2.24591 0
M  V30 5545 C 546.634 -3.4683 -0.388558 0
M  V30 5546 C 547.982 -4.19732 -0.641088 0
M  V30 5547 O 549.006 -3.53075 -0.470818 0
M  V30 5548 O 547.865 -5.3781 -0.970685 0
M  V30 5549 H 544.959 -0.806784 -0.18174 0
M  V30 5550 H 547.505 -1.65137 0.390898 0
M  V30 5551 H 546.277 -3.87055 0.574821 0
M  V30 5552 H 545.9 -3.80933 -1.1391 0
M  V30 5553 N 546.897 -0.0685191 -1.57451 0
M  V30 5554 C 547.847 0.909895 -2.09057 0
M  V30 5555 C 548.831 1.26088 -0.999528 0
M  V30 5556 O 550.023 1.24041 -1.26265 0
M  V30 5557 C 547.152 2.17863 -2.65312 0
M  V30 5558 C 546.238 1.85427 -3.81415 0
M  V30 5559 N 546.629 1.23426 -4.9051 0
M  V30 5560 C 544.927 2.15196 -3.90649 0
M  V30 5561 C 545.628 1.09008 -5.71395 0
M  V30 5562 N 544.604 1.59871 -5.1956 0
M  V30 5563 H 548.406 0.426145 -2.90794 0
M  V30 5564 H 545.92 0.135462 -1.61834 0
M  V30 5565 H 547.917 2.88872 -3.00597 0
M  V30 5566 H 546.577 2.66829 -1.85021 0
M  V30 5567 H 547.588 0.904305 -5.09944 0
M  V30 5568 H 544.265 2.66562 -3.21327 0
M  V30 5569 H 545.655 0.607305 -6.6915 0
M  V30 5570 N 548.375 1.56261 0.205012 0
M  V30 5571 C 549.308 1.88797 1.28183 0
M  V30 5572 C 550.286 0.747018 1.44424 0
M  V30 5573 O 551.47 0.997039 1.59973 0
M  V30 5574 C 548.597 2.10949 2.64987 0
M  V30 5575 C 547.643 3.33649 2.6567 0
M  V30 5576 S 548.476 4.89078 2.18088 0
M  V30 5577 C 549.632 5.14286 3.56736 0
M  V30 5578 H 549.865 2.79837 1.00393 0
M  V30 5579 H 547.398 1.48911 0.408042 0
M  V30 5580 H 549.356 2.24395 3.4374 0
M  V30 5581 H 548.017 1.20678 2.89993 0
M  V30 5582 H 547.21 3.46245 3.66239 0
M  V30 5583 H 546.812 3.19146 1.94992 0
M  V30 5584 H 549.104 5.04198 4.52537 0
M  V30 5585 H 550.047 6.16096 3.49043 0
M  V30 5586 H 550.455 4.41957 3.51189 0
M  V30 5587 N 549.853 -0.472356 1.50355 0
M  V30 5588 C 550.783 -1.57859 1.72055 0
M  V30 5589 C 551.764 -1.60283 0.569505 0
M  V30 5590 O 552.949 -1.7657 0.808503 0
M  V30 5591 C 550.079 -2.96191 1.81351 0
M  V30 5592 C 549.033 -3.08633 2.96529 0
M  V30 5593 C 548.359 -4.486 2.90968 0
M  V30 5594 C 549.659 -2.85969 4.37057 0
M  V30 5595 H 551.353 -1.39953 2.64676 0
M  V30 5596 H 548.899 -0.671846 1.27367 0
M  V30 5597 H 550.852 -3.73507 1.95117 0
M  V30 5598 H 549.576 -3.15251 0.853502 0
M  V30 5599 H 548.235 -2.33749 2.82413 0
M  V30 5600 H 547.883 -4.64577 1.92815 0
M  V30 5601 H 547.583 -4.57861 3.68289 0
M  V30 5602 H 549.107 -5.27938 3.0678 0
M  V30 5603 H 550.521 -3.53036 4.51706 0
M  V30 5604 H 548.918 -3.06677 5.15819 0
M  V30 5605 H 549.988 -1.81838 4.49514 0
M  V30 5606 N 551.331 -1.39911 -0.725443 0
M  V30 5607 C 552.58 -1.36963 -1.48068 0
M  V30 5608 C 552.893 0.0284478 -1.95579 0
M  V30 5609 O 554.099 0.180535 -2.70899 0
M  V30 5610 C 552.555 -2.40664 -2.67598 0
M  V30 5611 C 552.163 -3.86234 -2.26997 0
M  V30 5612 C 553.907 -2.46807 -3.45379 0
M  V30 5613 C 551.814 -4.81554 -3.43307 0
M  V30 5614 H 550.744 -0.509223 -0.556065 0
M  V30 5615 H 553.395 -1.65602 -0.790454 0
M  V30 5616 H 551.777 -2.05109 -3.38742 0
M  V30 5617 H 552.951 -4.3088 -1.63337 0
M  V30 5618 H 551.266 -3.83475 -1.62284 0
M  V30 5619 H 553.863 -3.15213 -4.31909 0
M  V30 5620 H 554.206 -1.49552 -3.8851 0
M  V30 5621 H 554.739 -2.81303 -2.81271 0
M  V30 5622 H 551.478 -5.80106 -3.05217 0
M  V30 5623 H 550.998 -4.4158 -4.05915 0
M  V30 5624 H 552.677 -5.0091 -4.0951 0
M  V30 5625 N 552.809 0.956637 -1.25245 0
M  V30 5626 C 553.741 2.05628 -1.01242 0
M  V30 5627 C 554.754 1.62785 0.0219579 0
M  V30 5628 O 555.943 1.77184 -0.216365 0
M  V30 5629 C 553.043 3.35069 -0.508161 0
M  V30 5630 C 552.216 4.06761 -1.60823 0
M  V30 5631 C 551.275 5.14473 -1.1047 0
M  V30 5632 O 550.301 5.40033 -1.79868 0
M  V30 5633 N 551.503 5.80474 0.0550773 0
M  V30 5634 H 554.268 2.2679 -1.95925 0
M  V30 5635 H 551.829 1.12505 -1.16423 0
M  V30 5636 H 553.821 4.044 -0.155819 0
M  V30 5637 H 552.391 3.10694 0.344683 0
M  V30 5638 H 551.611 3.31555 -2.13224 0
M  V30 5639 H 552.899 4.51418 -2.34733 0
M  V30 5640 H 552.297 5.62125 0.635004 0
M  V30 5641 H 550.854 6.50868 0.348469 0
M  V30 5642 N 554.287 1.06798 1.15896 0
M  V30 5643 C 555.235 0.677525 2.22514 0
M  V30 5644 C 556.229 -0.308994 1.66558 0
M  V30 5645 O 557.435 -0.173308 1.79164 0
M  V30 5646 H 553.81 0.200994 0.724642 0
M  V30 5647 H 555.781 1.5865 2.52731 0
M  V30 5648 C 554.53 0.0854153 3.47595 0
M  V30 5649 H 553.853 0.835645 3.90969 0
M  V30 5650 H 555.293 -0.150199 4.23734 0
M  V30 5651 C 553.752 -1.1724 3.15843 0
M  V30 5652 O 554.282 -2.25965 3.32119 0
M  V30 5653 N 552.488 -1.07636 2.69931 0
M  V30 5654 H 552.035 -0.191559 2.56887 0
M  V30 5655 H 551.993 -1.91876 2.4906 0
M  V30 5656 N 555.766 -1.3263 0.851289 0
M  V30 5657 C 556.676 -2.32722 0.296268 0
M  V30 5658 C 557.692 -1.63901 -0.584162 0
M  V30 5659 O 558.868 -1.95465 -0.485334 0
M  V30 5660 C 555.933 -3.42942 -0.509103 0
M  V30 5661 C 554.994 -4.2746 0.397069 0
M  V30 5662 C 554.227 -5.32416 -0.36996 0
M  V30 5663 O 554.45 -5.47491 -1.6003 0
M  V30 5664 O 553.384 -6.01327 0.262493 0
M  V30 5665 H 557.21 -2.82078 1.12543 0
M  V30 5666 H 554.795 -1.36194 0.614135 0
M  V30 5667 H 556.677 -4.1017 -0.96634 0
M  V30 5668 H 555.352 -2.95781 -1.31512 0
M  V30 5669 H 554.259 -3.63053 0.902411 0
M  V30 5670 H 555.592 -4.78136 1.16818 0
M  V30 5671 N 557.244 -0.608902 -1.45362 0
M  V30 5672 C 558.474 -0.110852 -2.06302 0
M  V30 5673 C 558.882 1.21062 -1.45398 0
M  V30 5674 O 558.225 1.74861 -0.562976 0
M  V30 5675 C 558.287 0.101793 -3.59356 0
M  V30 5676 C 557.951 -1.13808 -4.42602 0
M  V30 5677 C 558.948 -2.05653 -4.77496 0
M  V30 5678 C 556.633 -1.36727 -4.83333 0
M  V30 5679 C 558.627 -3.18745 -5.51978 0
M  V30 5680 C 556.314 -2.5012 -5.57569 0
M  V30 5681 C 557.312 -3.40957 -5.91809 0
M  V30 5682 O 557 -4.52376 -6.64538 0
M  V30 5683 H 556.732 -0.0666001 -0.672711 0
M  V30 5684 H 559.286 -0.836942 -1.87575 0
M  V30 5685 H 557.516 0.88279 -3.76489 0
M  V30 5686 H 559.205 0.551607 -4.02134 0
M  V30 5687 H 559.971 -1.89172 -4.46586 0
M  V30 5688 H 555.85 -0.669216 -4.56117 0
M  V30 5689 H 559.394 -3.8967 -5.78622 0
M  V30 5690 H 555.291 -2.66553 -5.87894 0
M  V30 5691 H 556.059 -4.51075 -6.82989 0
M  V30 5692 N 558.722 1.53707 -0.348139 0
M  V30 5693 C 559.962 2.02899 0.247254 0
M  V30 5694 C 560.326 1.23033 1.47401 0
M  V30 5695 O 561.527 1.62146 2.14388 0
M  V30 5696 C 559.798 3.53156 0.549151 0
M  V30 5697 S 561.357 4.24247 1.1207 0
M  V30 5698 H 558.175 0.707213 0.0732894 0
M  V30 5699 H 560.777 1.89338 -0.486965 0
M  V30 5700 H 559.481 4.08893 -0.351435 0
M  V30 5701 H 559.012 3.70845 1.31291 0
M  V30 5702 H 561.027 4.33958 2.40613 0
M  V30 5703 N 560.2 0.0768682 1.57412 0
M  V30 5704 C 561.148 -0.906229 2.1422 0
M  V30 5705 C 562.142 -1.30477 1.08037 0
M  V30 5706 O 563.348 -1.28143 1.2641 0
M  V30 5707 H 559.723 -0.310207 0.685037 0
M  V30 5708 H 561.694 -0.402228 2.95677 0
M  V30 5709 C 560.443 -2.16245 2.72274 0
M  V30 5710 H 559.766 -1.86463 3.53655 0
M  V30 5711 H 561.206 -2.83134 3.15613 0
M  V30 5712 C 559.665 -2.92437 1.67279 0
M  V30 5713 O 560.195 -3.86322 1.10081 0
M  V30 5714 N 558.401 -2.55637 1.38195 0
M  V30 5715 H 557.948 -1.79363 1.84897 0
M  V30 5716 H 557.906 -3.06919 0.681787 0
M  V30 5717 N 561.678 -1.56367 -0.196722 0
M  V30 5718 C 562.926 -1.80172 -0.915554 0
M  V30 5719 C 563.247 -0.649649 -1.8386 0
M  V30 5720 O 562.517 0.332111 -1.93064 0
M  V30 5721 H 561.097 -0.664592 -0.341067 0
M  V30 5722 H 563.759 -1.93844 -0.202622 0
M  V30 5723 H 562.855 -2.7327 -1.50764 0
M  V30 5724 N 563.156 0.464375 -1.50603 0
M  V30 5725 C 564.404 1.21356 -1.61608 0
M  V30 5726 C 564.725 1.92329 -0.321643 0
M  V30 5727 O 563.995 1.84403 0.661232 0
M  V30 5728 H 562.575 0.45094 -0.595535 0
M  V30 5729 H 565.237 0.535046 -1.87412 0
M  V30 5730 H 564.333 1.95783 -2.43054 0
M  V30 5731 N 564.634 1.40294 0.718013 0
M  V30 5732 C 565.859 1.41941 1.5122 0
M  V30 5733 C 566.284 0.0202371 1.88089 0
M  V30 5734 O 565.642 -0.971078 1.53101 0
M  V30 5735 C 565.69 2.3141 2.76554 0
M  V30 5736 O 564.794 1.75567 3.73162 0
M  V30 5737 H 564.135 0.482644 0.456016 0
M  V30 5738 H 566.665 1.84494 0.884478 0
M  V30 5739 H 566.675 2.46513 3.25108 0
M  V30 5740 H 565.35 3.33085 2.49053 0
M  V30 5741 H 563.927 1.69798 3.31999 0
M  V30 5742 N 566.112 -0.949982 1.2575 0
M  V30 5743 C 567.042 -2.06483 1.09028 0
M  V30 5744 C 568.023 -1.701 -0.00201532 0
M  V30 5745 O 569.208 -1.93469 0.168383 0
M  V30 5746 C 566.338 -3.39899 0.71316 0
M  V30 5747 C 565.292 -3.90309 1.75621 0
M  V30 5748 C 564.618 -5.20274 1.23365 0
M  V30 5749 C 565.918 -4.16169 3.15596 0
M  V30 5750 H 567.612 -2.20731 2.02283 0
M  V30 5751 H 565.158 -1.06066 0.973964 0
M  V30 5752 H 567.111 -4.17346 0.58309 0
M  V30 5753 H 565.835 -3.25602 -0.255091 0
M  V30 5754 H 564.494 -3.15035 1.8748 0
M  V30 5755 H 564.142 -5.02351 0.255491 0
M  V30 5756 H 563.842 -5.54971 1.93082 0
M  V30 5757 H 565.366 -6.00314 1.11607 0
M  V30 5758 H 566.78 -4.84259 3.06864 0
M  V30 5759 H 565.177 -4.62131 3.82825 0
M  V30 5760 H 566.247 -3.22273 3.6231 0
M  V30 5761 N 567.59 -1.07411 -1.15328 0
M  V30 5762 C 568.553 -0.698914 -2.18284 0
M  V30 5763 C 569.553 0.261149 -1.58665 0
M  V30 5764 O 570.743 0.0420277 -1.74149 0
M  V30 5765 C 567.875 -0.0302427 -3.40887 0
M  V30 5766 H 569.068 -1.61045 -2.52991 0
M  V30 5767 H 566.621 -0.870724 -1.298 0
M  V30 5768 H 567.356 0.893505 -3.11748 0
M  V30 5769 H 567.141 -0.720759 -3.85419 0
M  V30 5770 H 568.631 0.21759 -4.17033 0
M  V30 5771 N 569.068 1.32177 -0.85831 0
M  V30 5772 C 570.345 1.91781 -0.384624 0
M  V30 5773 C 570.725 1.78171 1.13217 0
M  V30 5774 O 570.073 1.18209 1.95548 0
M  V30 5775 C 570.283 3.38414 -0.853047 0
M  V30 5776 C 571.631 4.15542 -0.872359 0
M  V30 5777 O 572.655 3.47148 -0.797926 0
M  V30 5778 O 571.514 5.37678 -0.978009 0
M  V30 5779 H 568.608 0.819259 -0.112886 0
M  V30 5780 H 571.154 1.40923 -0.945453 0
M  V30 5781 H 569.926 3.4228 -1.89632 0
M  V30 5782 H 569.549 3.96683 -0.269874 0
M  V30 5783 N 570.547 0.616602 1.45037 0
M  V30 5784 C 571.51 -0.0871112 2.29034 0
M  V30 5785 C 572.51 -0.786414 1.40258 0
M  V30 5786 O 573.7 -0.633207 1.62284 0
M  V30 5787 C 570.832 -1.13369 3.21497 0
M  V30 5788 H 572.025 0.651497 2.92738 0
M  V30 5789 H 569.578 0.376058 1.51709 0
M  V30 5790 H 570.313 -1.90277 2.62612 0
M  V30 5791 H 570.098 -0.636358 3.86902 0
M  V30 5792 H 571.588 -1.62627 3.84633 0
M  V30 5793 N 572.025 -1.5352 0.356285 0
M  V30 5794 C 573.274 -2.00298 -0.237373 0
M  V30 5795 C 573.587 -1.24784 -1.50627 0
M  V30 5796 O 574.793 -1.62103 -2.17795 0
M  V30 5797 C 573.249 -3.56771 -0.473545 0
M  V30 5798 C 572.857 -4.41154 0.780183 0
M  V30 5799 C 574.601 -4.1193 -1.02537 0
M  V30 5800 C 572.508 -5.89161 0.514108 0
M  V30 5801 H 571.438 -0.748307 -0.092478 0
M  V30 5802 H 574.089 -1.77283 0.473588 0
M  V30 5803 H 572.471 -3.75902 -1.24553 0
M  V30 5804 H 573.645 -4.33797 1.55425 0
M  V30 5805 H 571.96 -3.97052 1.25455 0
M  V30 5806 H 574.557 -5.20133 -1.2396 0
M  V30 5807 H 574.9 -3.65943 -1.98473 0
M  V30 5808 H 575.433 -3.96561 -0.313775 0
M  V30 5809 H 572.172 -6.39408 1.44355 0
M  V30 5810 H 571.692 -5.9939 -0.221632 0
M  V30 5811 H 573.371 -6.46857 0.136122 0
M  V30 5812 N 573.503 -0.0852151 -1.57369 0
M  V30 5813 C 574.728 0.592872 -1.98746 0
M  V30 5814 C 575.153 1.61538 -0.963689 0
M  V30 5815 O 574.511 1.81168 0.069071 0
M  V30 5816 C 574.559 1.22599 -3.39119 0
M  V30 5817 O 573.663 2.34185 -3.39457 0
M  V30 5818 H 573.004 0.151314 -0.646529 0
M  V30 5819 H 575.534 -0.163703 -2.03944 0
M  V30 5820 H 575.544 1.56965 -3.76598 0
M  V30 5821 H 574.219 0.476831 -4.13158 0
M  V30 5822 H 572.796 2.01512 -3.13763 0
M  V30 5823 N 574.981 1.5647 0.188427 0
M  V30 5824 C 575.891 1.98285 1.2538 0
M  V30 5825 C 576.907 0.891535 1.49424 0
M  V30 5826 O 578.083 1.19782 1.61908 0
M  V30 5827 C 575.148 2.31965 2.57669 0
M  V30 5828 C 574.209 3.54838 2.41638 0
M  V30 5829 C 573.442 3.86901 3.67618 0
M  V30 5830 O 573.665 3.20163 4.72072 0
M  V30 5831 O 572.599 4.80309 3.62749 0
M  V30 5832 H 576.425 2.89145 0.928912 0
M  V30 5833 H 574.01 1.44112 0.393955 0
M  V30 5834 H 575.892 2.54673 3.35737 0
M  V30 5835 H 574.567 1.44271 2.89771 0
M  V30 5836 H 573.474 3.37369 1.61658 0
M  V30 5837 H 574.807 4.43019 2.14465 0
M  V30 5838 N 576.459 -0.456382 1.50847 0
M  V30 5839 C 577.407 -1.57318 1.71329 0
M  V30 5840 C 578.401 -1.59187 0.579287 0
M  V30 5841 O 579.607 -1.6316 0.76018 0
M  V30 5842 H 575.982 -0.5223 0.541024 0
M  V30 5843 H 577.953 -1.3721 2.64983 0
M  V30 5844 C 576.702 -2.95142 1.83811 0
M  V30 5845 H 576.025 -2.94428 2.70467 0
M  V30 5846 H 577.465 -3.72702 2.02161 0
M  V30 5847 C 575.924 -3.31636 0.593224 0
M  V30 5848 O 576.454 -4.00852 -0.260898 0
M  V30 5849 N 574.66 -2.87205 0.442902 0
M  V30 5850 H 574.207 -2.31051 1.13901 0
M  V30 5851 H 574.165 -3.11986 -0.38884 0
M  V30 5852 N 577.937 -1.40673 -0.710563 0
M  V30 5853 C 579.167 -1.4234 -1.49742 0
M  V30 5854 C 579.575 -0.022821 -1.89186 0
M  V30 5855 O 578.918 0.964773 -1.56326 0
M  V30 5856 C 578.98 -2.25509 -2.79975 0
M  V30 5857 C 578.644 -3.73862 -2.62824 0
M  V30 5858 C 579.641 -4.66379 -2.29752 0
M  V30 5859 C 577.326 -4.17735 -2.78932 0
M  V30 5860 C 579.32 -6.00756 -2.13006 0
M  V30 5861 C 577.007 -5.5218 -2.61802 0
M  V30 5862 C 578.005 -6.43505 -2.28888 0
M  V30 5863 O 577.693 -7.75472 -2.11894 0
M  V30 5864 H 577.425 -0.487311 -0.468513 0
M  V30 5865 H 579.979 -1.8542 -0.883668 0
M  V30 5866 H 578.209 -1.77218 -3.43701 0
M  V30 5867 H 579.898 -2.19058 -3.41714 0
M  V30 5868 H 580.664 -4.33778 -2.16936 0
M  V30 5869 H 576.543 -3.46967 -3.03537 0
M  V30 5870 H 580.087 -6.72003 -1.87237 0
M  V30 5871 H 575.984 -5.84365 -2.74204 0
M  V30 5872 H 576.752 -7.86458 -2.26775 0
M  V30 5873 N 579.415 0.9433 -1.26252 0
M  V30 5874 C 580.831 1.21644 -1.03319 0
M  V30 5875 C 581.031 2.0003 0.242983 0
M  V30 5876 O 580.087 2.33838 0.952688 0
M  V30 5877 C 581.4 1.97978 -2.2633 0
M  V30 5878 C 582.948 2.10978 -2.31209 0
M  V30 5879 C 583.423 2.90713 -3.53907 0
M  V30 5880 N 584.914 2.98287 -3.54371 0
M  V30 5881 C 585.649 3.60406 -4.45976 0
M  V30 5882 N 585.145 4.24043 -5.47868 0
M  V30 5883 N 586.938 3.57658 -4.33633 0
M  V30 5884 H 579.089 0.419221 -2.08222 0
M  V30 5885 H 581.352 0.247995 -0.914988 0
M  V30 5886 H 581.058 1.47788 -3.19142 0
M  V30 5887 H 580.932 2.9865 -2.30408 0
M  V30 5888 H 583.319 2.6036 -1.38913 0
M  V30 5889 H 583.4 1.09575 -2.31143 0
M  V30 5890 H 583.044 2.42018 -4.46531 0
M  V30 5891 H 582.974 3.92367 -3.5122 0
M  V30 5892 H 585.465 2.53044 -2.80673 0
M  V30 5893 H 585.778 4.69334 -6.13959 0
M  V30 5894 H 584.123 4.22637 -5.51728 0
M  V30 5895 H 587.314 3.07134 -3.53251 0
M  V30 5896 H 587.487 4.05782 -5.05218 0
M  V30 5897 N 580.893 1.08022 1.14757 0
M  V30 5898 C 582.142 0.802468 1.8505 0
M  V30 5899 C 582.455 -0.674061 1.83619 0
M  V30 5900 O 583.661 -1.06683 2.49662 0
M  V30 5901 C 582.117 1.38551 3.32162 0
M  V30 5902 C 581.725 2.89354 3.42021 0
M  V30 5903 C 583.469 1.18608 4.07594 0
M  V30 5904 C 581.376 3.40815 4.83321 0
M  V30 5905 H 580.306 0.296518 0.693248 0
M  V30 5906 H 582.957 1.30114 1.29393 0
M  V30 5907 H 581.339 0.814556 3.87532 0
M  V30 5908 H 582.513 3.52552 2.96722 0
M  V30 5909 H 580.828 3.08165 2.80041 0
M  V30 5910 H 583.425 1.54525 5.11885 0
M  V30 5911 H 583.768 0.125599 4.1611 0
M  V30 5912 H 584.301 1.72375 3.58513 0
M  V30 5913 H 581.04 4.46418 4.79991 0
M  V30 5914 H 580.56 2.82374 5.29174 0
M  V30 5915 H 582.239 3.37171 5.522 0
M  V30 5916 N 582.371 -1.3172 0.865308 0
M  V30 5917 C 583.304 -2.26687 0.262376 0
M  V30 5918 C 584.282 -1.50894 -0.605787 0
M  V30 5919 O 585.466 -1.79982 -0.56024 0
M  V30 5920 C 582.593 -3.3281 -0.628915 0
M  V30 5921 C 581.639 -4.26172 0.167278 0
M  V30 5922 S 582.472 -5.12797 1.54272 0
M  V30 5923 C 583.628 -6.22438 0.657427 0
M  V30 5924 H 583.861 -2.77478 1.0674 0
M  V30 5925 H 581.394 -1.39414 0.663555 0
M  V30 5926 H 583.352 -3.94426 -1.13747 0
M  V30 5927 H 582.013 -2.80782 -1.40785 0
M  V30 5928 H 581.206 -5.01392 -0.51203 0
M  V30 5929 H 580.808 -3.69029 0.607777 0
M  V30 5930 H 583.1 -6.77368 -0.133925 0
M  V30 5931 H 584.043 -6.9451 1.38061 0
M  V30 5932 H 584.451 -5.64043 0.227044 0
M  V30 5933 N 583.85 -0.624285 -1.44708 0
M  V30 5934 C 585.075 -0.131171 -2.06985 0
M  V30 5935 C 585.5 1.18234 -1.46295 0
M  V30 5936 O 584.858 1.72375 -0.561842 0
M  V30 5937 C 584.906 -0.0226724 -3.60593 0
M  V30 5938 O 584.01 1.02314 -3.99507 0
M  V30 5939 H 583.351 -0.0816556 -0.65896 0
M  V30 5940 H 585.88 -0.859027 -1.85693 0
M  V30 5941 H 585.891 0.170138 -4.07645 0
M  V30 5942 H 584.566 -0.981685 -4.04148 0
M  V30 5943 H 583.143 0.805452 -3.64097 0
M  V30 5944 N 585.328 1.53329 -0.364422 0
M  V30 5945 C 586.558 2.05359 0.226096 0
M  V30 5946 C 586.966 1.23777 1.43094 0
M  V30 5947 O 586.309 0.271139 1.81688 0
M  V30 5948 C 586.371 3.52918 0.684794 0
M  V30 5949 C 586.035 4.55218 -0.403206 0
M  V30 5950 C 587.032 5.04583 -1.2527 0
M  V30 5951 C 584.717 4.99134 -0.563117 0
M  V30 5952 C 586.711 5.96463 -2.24745 0
M  V30 5953 C 584.398 5.9082 -1.56124 0
M  V30 5954 C 585.396 6.39375 -2.40184 0
M  V30 5955 O 585.084 7.29255 -3.38293 0
M  V30 5956 H 584.816 0.674588 0.0436772 0
M  V30 5957 H 587.37 1.98688 -0.520782 0
M  V30 5958 H 585.6 3.57122 1.48326 0
M  V30 5959 H 587.289 3.87812 1.19818 0
M  V30 5960 H 588.055 4.71403 -1.14034 0
M  V30 5961 H 583.934 4.60928 0.0813909 0
M  V30 5962 H 587.478 6.34285 -2.90393 0
M  V30 5963 H 583.375 6.23414 -1.67407 0
M  V30 5964 H 584.143 7.47249 -3.34009 0
M  V30 5965 N 586.806 0.0935595 1.57322 0
M  V30 5966 C 588.053 -0.570509 1.94297 0
M  V30 5967 C 588.381 -1.68286 0.97519 0
M  V30 5968 O 587.636 -1.95699 -0.00548655 0
M  V30 5969 C 587.935 -1.16692 3.37813 0
M  V30 5970 C 587.601 -0.178509 4.50547 0
M  V30 5971 C 586.263 0.0933475 4.81109 0
M  V30 5972 C 588.615 0.496472 5.1883 0
M  V30 5973 C 585.943 1.0469 5.77284 0
M  V30 5974 C 588.295 1.43849 6.16028 0
M  V30 5975 C 586.959 1.71859 6.44997 0
M  V30 5976 H 586.229 -0.208764 0.710984 0
M  V30 5977 H 588.876 0.169066 1.90752 0
M  V30 5978 H 587.181 -1.98271 3.37929 0
M  V30 5979 H 588.878 -1.6884 3.63722 0
M  V30 5980 H 585.468 -0.400584 4.26724 0
M  V30 5981 H 589.652 0.299584 4.95395 0
M  V30 5982 H 584.908 1.27094 5.98044 0
M  V30 5983 H 589.082 1.96734 6.68034 0
M  V30 5984 H 586.709 2.45906 7.19329 0
M  V30 5985 N 588.284 -1.56567 -0.180126 0
M  V30 5986 C 589.231 -1.95725 -1.22313 0
M  V30 5987 C 590.201 -0.819911 -1.44453 0
M  V30 5988 O 591.386 -1.07931 -1.57339 0
M  V30 5989 C 588.526 -2.31484 -2.55947 0
M  V30 5990 C 587.639 -3.58354 -2.4126 0
M  V30 5991 C 586.774 -3.83366 -3.67701 0
M  V30 5992 C 585.813 -5.03612 -3.47909 0
M  V30 5993 N 584.95 -5.24802 -4.66398 0
M  V30 5994 H 589.79 -2.84642 -0.882198 0
M  V30 5995 H 587.327 -1.4085 -0.42422 0
M  V30 5996 H 589.285 -2.50237 -3.33822 0
M  V30 5997 H 587.915 -1.45689 -2.88053 0
M  V30 5998 H 586.967 -3.47565 -1.54606 0
M  V30 5999 H 588.279 -4.46386 -2.22577 0
M  V30 6000 H 587.433 -4.02439 -4.54013 0
M  V30 6001 H 586.172 -2.93692 -3.89353 0
M  V30 6002 H 585.177 -4.84447 -2.59983 0
M  V30 6003 H 586.402 -5.94809 -3.27688 0
M  V30 6004 H 584.348 -4.38079 -4.88286 0
M  V30 6005 H 584.265 -6.07041 -4.50596 0
M  V30 6006 H 585.533 -5.48346 -5.54019 0
M  V30 6007 N 589.762 0.448376 -1.51087 0
M  V30 6008 C 590.672 1.56882 -1.74428 0
M  V30 6009 C 591.688 1.62268 -0.62809 0
M  V30 6010 O 592.864 1.79716 -0.909075 0
M  V30 6011 C 589.929 2.92947 -1.85426 0
M  V30 6012 C 588.99 2.97766 -3.09247 0
M  V30 6013 C 588.223 4.27341 -3.19711 0
M  V30 6014 O 588.446 5.19112 -2.36387 0
M  V30 6015 O 587.38 4.38219 -4.12611 0
M  V30 6016 H 591.206 1.40104 -2.69452 0
M  V30 6017 H 588.791 0.630247 -1.35456 0
M  V30 6018 H 590.673 3.73719 -1.94709 0
M  V30 6019 H 589.348 3.09876 -0.935887 0
M  V30 6020 H 588.255 2.15989 -3.0545 0
M  V30 6021 H 589.588 2.8578 -4.00738 0
M  V30 6022 N 591.24 1.41047 0.703093 0
M  V30 6023 C 592.203 1.42036 1.79884 0
M  V30 6024 C 593.203 0.312153 1.57741 0
M  V30 6025 O 594.393 0.571672 1.64553 0
M  V30 6026 C 591.525 1.22437 3.18154 0
M  V30 6027 H 592.718 2.39572 1.80403 0
M  V30 6028 H 590.271 1.27079 0.909977 0
M  V30 6029 H 591.006 0.257112 3.23279 0
M  V30 6030 H 590.791 2.02723 3.35627 0
M  V30 6031 H 592.281 1.25946 3.98155 0
M  V30 6032 N 592.718 -0.936591 1.26751 0
M  V30 6033 C 593.628 -2.06949 1.10496 0
M  V30 6034 C 594.644 -1.7396 0.037271 0
M  V30 6035 O 595.82 -1.99941 0.241944 0
M  V30 6036 C 592.885 -3.38612 0.744491 0
M  V30 6037 C 591.946 -3.85355 1.89209 0
M  V30 6038 C 591.179 -5.10735 1.54873 0
M  V30 6039 O 591.402 -5.68602 0.452546 0
M  V30 6040 O 590.336 -5.52632 2.38499 0
M  V30 6041 H 594.162 -2.23571 2.05547 0
M  V30 6042 H 591.747 -1.05428 1.05855 0
M  V30 6043 H 593.629 -4.17711 0.556396 0
M  V30 6044 H 592.304 -3.23218 -0.176582 0
M  V30 6045 H 591.211 -3.07182 2.13518 0
M  V30 6046 H 592.544 -4.05277 2.79305 0
M  V30 6047 N 594.196 -1.08629 -1.14182 0
M  V30 6048 C 595.126 -0.740003 -2.21464 0
M  V30 6049 C 596.107 0.278591 -1.67803 0
M  V30 6050 O 597.292 0.148461 -1.93632 0
M  V30 6051 C 594.422 -0.150952 -3.46972 0
M  V30 6052 C 593.376 -1.09815 -4.13672 0
M  V30 6053 C 592.702 -0.3712 -5.3341 0
M  V30 6054 C 594.002 -2.43722 -4.61949 0
M  V30 6055 H 595.696 -1.63697 -2.50686 0
M  V30 6056 H 593.242 -0.788526 -1.20492 0
M  V30 6057 H 595.195 0.103325 -4.21273 0
M  V30 6058 H 593.919 0.781164 -3.1712 0
M  V30 6059 H 592.578 -1.33756 -3.41328 0
M  V30 6060 H 592.226 0.564792 -4.99819 0
M  V30 6061 H 591.926 -1.00267 -5.78982 0
M  V30 6062 H 593.45 -0.12503 -6.10472 0
M  V30 6063 H 594.864 -2.24034 -5.27714 0
M  V30 6064 H 593.261 -3.02582 -5.18232 0
M  V30 6065 H 594.331 -3.05082 -3.76899 0
M  V30 6066 N 595.674 1.31259 -0.872281 0
M  V30 6067 C 596.621 2.28459 -0.327857 0
M  V30 6068 C 597.591 1.55831 0.574957 0
M  V30 6069 O 598.776 1.83965 0.506101 0
M  V30 6070 C 595.916 3.41985 0.462644 0
M  V30 6071 C 595.029 4.29458 -0.467949 0
M  V30 6072 C 594.164 5.30131 0.336903 0
M  V30 6073 C 593.203 6.0925 -0.58997 0
M  V30 6074 N 592.34 7.01872 0.178775 0
M  V30 6075 H 597.18 2.74414 -1.16193 0
M  V30 6076 H 594.717 1.34994 -0.584376 0
M  V30 6077 H 596.675 4.06547 0.936759 0
M  V30 6078 H 595.305 2.97134 1.2614 0
M  V30 6079 H 594.357 3.65318 -1.06052 0
M  V30 6080 H 595.669 4.84677 -1.17856 0
M  V30 6081 H 594.823 6.0038 0.873427 0
M  V30 6082 H 593.562 4.75573 1.08079 0
M  V30 6083 H 592.567 5.37889 -1.13823 0
M  V30 6084 H 593.792 6.65894 -1.33275 0
M  V30 6085 H 591.738 6.49721 0.905435 0
M  V30 6086 H 591.655 7.54522 -0.472452 0
M  V30 6087 H 592.923 7.76382 0.696454 0
M  V30 6088 N 597.152 0.631951 1.44375 0
M  V30 6089 C 598.429 0.067646 1.95483 0
M  V30 6090 C 598.809 -1.40683 1.57389 0
M  V30 6091 O 598.157 -2.12167 0.848375 0
M  V30 6092 C 598.367 0.291392 3.47781 0
M  V30 6093 C 599.715 0.185028 4.24197 0
M  V30 6094 O 600.739 0.222803 3.55503 0
M  V30 6095 O 599.598 0.0906642 5.46425 0
M  V30 6096 H 596.692 -0.0218379 0.826712 0
M  V30 6097 H 599.238 0.703711 1.54421 0
M  V30 6098 H 598.01 1.31449 3.68561 0
M  V30 6099 H 597.633 -0.378772 3.95792 0
M  V30 6100 N 598.631 -1.53133 0.372548 0
M  V30 6101 C 599.561 -2.28876 -0.462412 0
M  V30 6102 C 600.542 -1.31583 -1.07796 0
M  V30 6103 O 601.727 -1.60461 -1.09389 0
M  V30 6104 C 598.857 -3.08317 -1.59868 0
M  V30 6105 C 597.811 -4.13355 -1.11003 0
M  V30 6106 C 597.137 -4.8092 -2.33708 0
M  V30 6107 C 598.437 -5.21955 -0.18983 0
M  V30 6108 H 600.131 -2.9892 0.169511 0
M  V30 6109 H 597.677 -1.43761 0.0829658 0
M  V30 6110 H 599.63 -3.60055 -2.18949 0
M  V30 6111 H 598.354 -2.35976 -2.25794 0
M  V30 6112 H 597.013 -3.62573 -0.541869 0
M  V30 6113 H 596.661 -4.05144 -2.98106 0
M  V30 6114 H 596.361 -5.51904 -2.01682 0
M  V30 6115 H 597.885 -5.35455 -2.93462 0
M  V30 6116 H 599.299 -5.69153 -0.688319 0
M  V30 6117 H 597.696 -6.00087 0.0398887 0
M  V30 6118 H 598.766 -4.78811 0.766057 0
M  V30 6119 N 600.109 -0.101901 -1.5727 0
M  V30 6120 C 601.039 0.851544 -2.17419 0
M  V30 6121 C 602.02 1.28942 -1.10941 0
M  V30 6122 O 603.205 1.35509 -1.39107 0
M  V30 6123 C 600.335 2.10816 -2.75996 0
M  V30 6124 C 599.289 1.80867 -3.87906 0
M  V30 6125 C 598.615 3.13413 -4.33216 0
M  V30 6126 C 599.915 1.0903 -5.10793 0
M  V30 6127 H 601.609 0.350381 -2.97343 0
M  V30 6128 H 599.155 0.16709 -1.43027 0
M  V30 6129 H 601.108 2.77959 -3.16729 0
M  V30 6130 H 599.832 2.63227 -1.93337 0
M  V30 6131 H 598.491 1.16119 -3.47724 0
M  V30 6132 H 598.139 3.63725 -3.47438 0
M  V30 6133 H 597.839 2.94155 -5.08671 0
M  V30 6134 H 599.363 3.81704 -4.76586 0
M  V30 6135 H 600.777 1.66295 -5.48652 0
M  V30 6136 H 599.174 0.99927 -5.91722 0
M  V30 6137 H 600.244 0.0741704 -4.84843 0
M  V30 6138 N 601.587 1.56661 0.17182 0
M  V30 6139 C 602.517 1.99401 1.21498 0
M  V30 6140 C 603.498 0.869516 1.46197 0
M  V30 6141 O 604.683 1.13556 1.57539 0
M  V30 6142 C 601.813 2.35346 2.55401 0
M  V30 6143 C 600.767 3.5075 2.45272 0
M  V30 6144 C 600.093 3.72437 3.8366 0
M  V30 6145 C 601.393 4.84216 1.95787 0
M  V30 6146 H 603.087 2.86792 0.859699 0
M  V30 6147 H 600.633 1.37977 0.412103 0
M  V30 6148 H 602.586 2.63843 3.2858 0
M  V30 6149 H 601.31 1.44864 2.92715 0
M  V30 6150 H 599.969 3.2238 1.74547 0
M  V30 6151 H 599.617 2.79246 4.18367 0
M  V30 6152 H 599.317 4.50087 3.77751 0
M  V30 6153 H 600.841 4.03334 4.58426 0
M  V30 6154 H 602.255 5.11592 2.5874 0
M  V30 6155 H 600.652 5.65498 2.00827 0
M  V30 6156 H 601.722 4.76243 0.912159 0
M  V30 6157 N 603.065 -0.440357 1.51323 0
M  V30 6158 C 603.997 -1.55254 1.68609 0
M  V30 6159 C 605.01 -1.52614 0.566812 0
M  V30 6160 O 606.199 -1.57445 0.841032 0
M  V30 6161 C 603.299 -2.94169 1.68279 0
M  V30 6162 C 602.472 -3.21346 2.96742 0
M  V30 6163 C 601.531 -4.3997 2.8864 0
M  V30 6164 O 600.557 -4.38771 3.62586 0
M  V30 6165 N 601.759 -5.43367 2.04285 0
M  V30 6166 H 604.524 -1.40831 2.6455 0
M  V30 6167 H 602.085 -0.629251 1.49171 0
M  V30 6168 H 604.077 -3.71543 1.60431 0
M  V30 6169 H 602.647 -3.02205 0.799441 0
M  V30 6170 H 601.867 -2.32299 3.18482 0
M  V30 6171 H 603.155 -3.3633 3.81785 0
M  V30 6172 H 602.553 -5.47176 1.43578 0
M  V30 6173 H 601.11 -6.19605 2.02318 0
M  V30 6174 N 604.543 -1.41418 -0.695603 0
M  V30 6175 C 605.789 -1.40982 -1.4578 0
M  V30 6176 C 606.122 -0.0187763 -1.94191 0
M  V30 6177 O 605.397 0.95346 -1.69527 0
M  V30 6178 C 605.68 -2.41657 -2.66972 0
M  V30 6179 C 605.533 -3.89869 -2.24327 0
M  V30 6180 C 606.852 -2.39589 -3.69168 0
M  V30 6181 H 603.971 -0.513405 -0.528757 0
M  V30 6182 H 606.613 -1.72693 -0.792275 0
M  V30 6183 H 604.763 -2.14746 -3.23754 0
M  V30 6184 H 606.435 -4.27683 -1.72872 0
M  V30 6185 H 604.678 -4.04737 -1.56111 0
M  V30 6186 H 605.349 -4.55857 -3.11285 0
M  V30 6187 H 607.825 -2.63471 -3.2206 0
M  V30 6188 H 606.701 -3.12044 -4.51575 0
M  V30 6189 H 606.962 -1.41447 -4.18862 0
M  V30 6190 N 606.021 0.929856 -1.27246 0
M  V30 6191 C 607.269 1.674 -1.13233 0
M  V30 6192 C 607.59 1.92311 0.322744 0
M  V30 6193 O 606.86 1.52784 1.22612 0
M  V30 6194 H 605.44 0.620411 -0.416052 0
M  V30 6195 H 608.102 1.11663 -1.59741 0
M  V30 6196 H 607.198 2.64308 -1.65975 0
M  V30 6197 N 607.499 1.09233 1.13605 0
M  V30 6198 C 608.915 0.82163 1.36826 0
M  V30 6199 C 609.115 -0.565021 1.93416 0
M  V30 6200 O 608.171 -1.32026 2.15234 0
M  V30 6201 C 609.484 1.91124 2.32147 0
M  V30 6202 C 611.032 1.93824 2.45767 0
M  V30 6203 C 611.507 3.01923 3.44393 0
M  V30 6204 N 612.998 3.01149 3.51942 0
M  V30 6205 C 613.733 3.81434 4.2813 0
M  V30 6206 N 613.229 4.71621 5.07489 0
M  V30 6207 N 615.022 3.69702 4.23411 0
M  V30 6208 H 607.173 1.98633 0.752234 0
M  V30 6209 H 609.436 0.862482 0.393482 0
M  V30 6210 H 609.142 2.90862 1.97717 0
M  V30 6211 H 609.016 1.78777 3.32142 0
M  V30 6212 H 611.403 0.94726 2.79483 0
M  V30 6213 H 611.484 2.10248 1.45703 0
M  V30 6214 H 611.128 4.01232 3.11408 0
M  V30 6215 H 611.058 2.82742 4.44257 0
M  V30 6216 H 613.549 2.35789 2.95317 0
M  V30 6217 H 613.862 5.29468 5.62924 0
M  V30 6218 H 612.207 4.75658 5.06729 0
M  V30 6219 H 615.398 2.98606 3.60489 0
M  V30 6220 H 615.571 4.32509 4.82535 0
M  V30 6221 N 608.977 -1.30795 0.87923 0
M  V30 6222 C 610.225 -1.95974 0.493809 0
M  V30 6223 C 610.546 -1.69787 -0.959021 0
M  V30 6224 O 609.816 -1.01832 -1.67353 0
M  V30 6225 H 608.396 -0.725083 0.179622 0
M  V30 6226 H 611.058 -1.59432 1.12105 0
M  V30 6227 H 610.154 -3.05058 0.659263 0
M  V30 6228 N 610.455 -0.639598 -1.44038 0
M  V30 6229 C 611.385 0.0469443 -2.33453 0
M  V30 6230 C 612.366 0.82609 -1.48694 0
M  V30 6231 O 613.551 0.790285 -1.77393 0
M  V30 6232 C 610.681 1.02338 -3.3188 0
M  V30 6233 C 609.635 0.355284 -4.26523 0
M  V30 6234 C 608.961 1.44221 -5.14883 0
M  V30 6235 C 610.261 -0.743798 -5.16977 0
M  V30 6236 H 611.955 -0.699735 -2.91108 0
M  V30 6237 H 609.501 -0.337946 -1.39978 0
M  V30 6238 H 611.454 1.51247 -3.93322 0
M  V30 6239 H 610.178 1.80105 -2.72451 0
M  V30 6240 H 608.837 -0.113239 -3.66425 0
M  V30 6241 H 608.485 2.21097 -4.51802 0
M  V30 6242 H 608.185 1.00052 -5.79019 0
M  V30 6243 H 609.709 1.93295 -5.79197 0
M  V30 6244 H 611.123 -0.337444 -5.72306 0
M  V30 6245 H 609.52 -1.10914 -5.89761 0
M  V30 6246 H 610.59 -1.60745 -4.57481 0
M  V30 6247 N 611.933 1.52934 -0.380664 0
M  V30 6248 C 613.349 1.59571 -0.0302429 0
M  V30 6249 C 613.549 1.39509 1.45394 0
M  V30 6250 O 612.605 1.20777 2.21741 0
M  V30 6251 C 613.918 2.96519 -0.499691 0
M  V30 6252 C 615.466 3.09672 -0.455204 0
M  V30 6253 C 615.941 4.49056 -0.900703 0
M  V30 6254 N 617.432 4.55215 -0.856367 0
M  V30 6255 C 618.167 5.61282 -1.17259 0
M  V30 6256 N 617.663 6.75035 -1.55885 0
M  V30 6257 N 619.456 5.51343 -1.0944 0
M  V30 6258 H 611.607 1.64224 -1.347 0
M  V30 6259 H 613.87 0.771033 -0.551554 0
M  V30 6260 H 613.576 3.16388 -1.53595 0
M  V30 6261 H 613.45 3.77052 0.105789 0
M  V30 6262 H 615.837 2.89504 0.571949 0
M  V30 6263 H 615.918 2.31113 -1.09638 0
M  V30 6264 H 615.562 4.69964 -1.92604 0
M  V30 6265 H 615.492 5.26068 -0.236629 0
M  V30 6266 H 617.983 3.73546 -0.572013 0
M  V30 6267 H 618.296 7.51926 -1.784 0
M  V30 6268 H 616.641 6.76388 -1.59764 0
M  V30 6269 H 619.832 4.61356 -0.791713 0
M  V30 6270 H 620.005 6.33905 -1.34417 0
M  V30 6271 N 613.412 0.11024 1.57214 0
M  V30 6272 C 614.642 -0.557025 1.98949 0
M  V30 6273 C 615.05 -1.61317 0.988606 0
M  V30 6274 O 614.393 -1.83679 -0.0279159 0
M  V30 6275 C 614.455 -1.24956 3.37085 0
M  V30 6276 C 614.119 -0.342398 4.55716 0
M  V30 6277 C 615.116 0.415511 5.18237 0
M  V30 6278 C 612.801 -0.256029 5.01647 0
M  V30 6279 C 614.795 1.24761 6.25071 0
M  V30 6280 C 612.482 0.579713 6.08344 0
M  V30 6281 C 613.48 1.33017 6.69922 0
M  V30 6282 O 613.168 2.15205 7.74559 0
M  V30 6283 H 612.9 -0.152792 0.658506 0
M  V30 6284 H 615.454 0.19076 2.04512 0
M  V30 6285 H 613.684 -2.04424 3.2825 0
M  V30 6286 H 615.373 -1.81286 3.63167 0
M  V30 6287 H 616.139 0.358605 4.83672 0
M  V30 6288 H 612.018 -0.829831 4.5347 0
M  V30 6289 H 615.562 1.83386 6.73064 0
M  V30 6290 H 611.459 0.638044 6.42339 0
M  V30 6291 H 612.227 2.08052 7.91617 0
M  V30 6292 N 614.89 -1.56749 -0.16351 0
M  V30 6293 C 616.139 -1.81626 -0.877211 0
M  V30 6294 C 616.452 -0.688791 -1.83071 0
M  V30 6295 O 617.658 -0.822697 -2.58735 0
M  V30 6296 C 616.114 -3.21858 -1.61045 0
M  V30 6297 C 615.722 -4.42494 -0.700195 0
M  V30 6298 C 617.466 -3.56021 -2.31192 0
M  V30 6299 C 615.373 -5.73748 -1.43412 0
M  V30 6300 H 614.303 -0.67731 -0.331312 0
M  V30 6301 H 616.954 -1.83039 -0.13006 0
M  V30 6302 H 615.336 -3.14784 -2.40264 0
M  V30 6303 H 616.51 -4.60766 0.0555849 0
M  V30 6304 H 614.825 -4.1626 -0.10799 0
M  V30 6305 H 617.422 -4.51333 -2.8671 0
M  V30 6306 H 617.765 -2.81277 -3.06902 0
M  V30 6307 H 618.298 -3.64682 -1.58909 0
M  V30 6308 H 615.037 -6.51543 -0.719186 0
M  V30 6309 H 614.557 -5.5944 -2.16302 0
M  V30 6310 H 616.236 -6.15975 -1.9795 0
M  V30 6311 N 616.368 0.432326 -1.51554 0
M  V30 6312 C 617.318 1.52366 -1.69614 0
M  V30 6313 C 618.302 1.51205 -0.550083 0
M  V30 6314 O 619.494 1.57573 -0.806206 0
M  V30 6315 C 616.623 2.90513 -1.82913 0
M  V30 6316 C 615.709 2.9641 -3.03318 0
M  V30 6317 N 616.1 2.72043 -4.26411 0
M  V30 6318 C 614.398 3.27572 -3.02675 0
M  V30 6319 C 615.099 2.83912 -5.07709 0
M  V30 6320 N 614.075 3.15798 -4.42462 0
M  V30 6321 H 617.877 1.32285 -2.62446 0
M  V30 6322 H 615.391 0.639708 -1.4927 0
M  V30 6323 H 617.388 3.69032 -1.93962 0
M  V30 6324 H 616.048 3.1161 -0.912655 0
M  V30 6325 H 617.059 2.46876 -4.55272 0
M  V30 6326 H 613.736 3.54411 -2.20678 0
M  V30 6327 H 615.126 2.68984 -6.15709 0
M  V30 6328 N 617.846 1.41785 0.688094 0
M  V30 6329 C 619.071 1.45117 1.48175 0
M  V30 6330 C 619.496 0.060129 1.88004 0
M  V30 6331 O 618.854 -0.938385 1.55126 0
M  V30 6332 C 618.902 2.37224 2.71583 0
M  V30 6333 O 618.006 1.83443 3.69354 0
M  V30 6334 H 617.347 0.492208 0.445676 0
M  V30 6335 H 619.877 1.86329 0.845145 0
M  V30 6336 H 619.887 2.53353 3.19806 0
M  V30 6337 H 618.562 3.38293 2.41931 0
M  V30 6338 H 617.139 1.76802 3.28322 0
M  V30 6339 N 619.324 -0.923095 1.27737 0
M  V30 6340 C 620.257 -2.02515 1.05181 0
M  V30 6341 C 621.235 -1.62574 -0.0292204 0
M  V30 6342 O 622.419 -1.88137 0.116848 0
M  V30 6343 C 619.546 -3.33407 0.596468 0
M  V30 6344 C 618.592 -3.92328 1.67276 0
M  V30 6345 S 619.425 -4.24342 3.26641 0
M  V30 6346 C 620.581 -5.58308 2.82919 0
M  V30 6347 H 620.814 -2.21336 1.98488 0
M  V30 6348 H 618.347 -1.06679 1.1162 0
M  V30 6349 H 620.305 -4.09086 0.34044 0
M  V30 6350 H 618.966 -3.125 -0.316614 0
M  V30 6351 H 618.159 -4.86797 1.30556 0
M  V30 6352 H 617.761 -3.2325 1.8811 0
M  V30 6353 H 620.053 -6.37801 2.28509 0
M  V30 6354 H 620.996 -5.99931 3.7615 0
M  V30 6355 H 621.404 -5.19049 2.21919 0
M  V30 6356 N 620.802 -1.09834 -1.13024 0
M  V30 6357 C 622.027 -0.85909 -1.88771 0
M  V30 6358 C 622.452 0.584402 -1.78791 0
M  V30 6359 O 621.81 1.41101 -1.13842 0
M  V30 6360 C 621.858 -1.30427 -3.36186 0
M  V30 6361 O 620.962 -0.465368 -4.09766 0
M  V30 6362 H 620.303 -0.310786 -0.586778 0
M  V30 6363 H 622.833 -1.46355 -1.42973 0
M  V30 6364 H 622.843 -1.2915 -3.8702 0
M  V30 6365 H 621.518 -2.3555 -3.42767 0
M  V30 6366 H 620.095 -0.542814 -3.68928 0
M  V30 6367 N 622.28 1.30327 -0.886154 0
M  V30 6368 C 623.21 2.30549 -0.370028 0
M  V30 6369 C 624.191 1.61039 0.547751 0
M  V30 6370 O 625.376 1.8864 0.461353 0
M  V30 6371 C 622.506 3.44808 0.415275 0
M  V30 6372 C 621.46 4.26024 -0.41085 0
M  V30 6373 C 620.786 5.32347 0.501128 0
M  V30 6374 C 622.086 4.95433 -1.65359 0
M  V30 6375 H 623.78 2.73969 -1.20754 0
M  V30 6376 H 621.326 1.3171 -0.582097 0
M  V30 6377 H 623.279 4.13986 0.78699 0
M  V30 6378 H 622.003 3.00197 1.28644 0
M  V30 6379 H 620.662 3.58535 -0.764719 0
M  V30 6380 H 620.31 4.83982 1.37004 0
M  V30 6381 H 620.01 5.87581 -0.0478356 0
M  V30 6382 H 621.534 6.0438 0.869333 0
M  V30 6383 H 622.948 5.5712 -1.35239 0
M  V30 6384 H 621.345 5.60537 -2.14284 0
M  V30 6385 H 622.415 4.21493 -2.39733 0
M  V30 6386 N 623.758 0.647228 1.43697 0
M  V30 6387 C 625.004 0.158422 2.0218 0
M  V30 6388 C 625.337 -1.22233 1.50907 0
M  V30 6389 O 624.612 -1.81478 0.699702 0
M  V30 6390 C 624.895 0.1627 3.59732 0
M  V30 6391 C 624.748 1.57694 4.21251 0
M  V30 6392 C 626.067 -0.504138 4.37203 0
M  V30 6393 H 623.186 0.059042 0.734631 0
M  V30 6394 H 625.828 0.826772 1.71069 0
M  V30 6395 H 623.978 -0.406414 3.86368 0
M  V30 6396 H 625.65 2.19618 4.05667 0
M  V30 6397 H 623.893 2.12603 3.7813 0
M  V30 6398 H 624.564 1.53183 5.3032 0
M  V30 6399 H 627.04 -0.0199841 4.16095 0
M  V30 6400 H 625.916 -0.470394 5.46881 0
M  V30 6401 H 626.177 -1.57726 4.13007 0
M  V30 6402 N 625.236 -1.5273 0.388769 0
M  V30 6403 C 626.186 -2.23238 -0.463567 0
M  V30 6404 C 627.17 -1.23606 -1.03007 0
M  V30 6405 O 628.362 -1.48945 -0.956261 0
M  V30 6406 C 625.491 -3.04228 -1.5906 0
M  V30 6407 C 624.577 -4.11255 -1.03587 0
M  V30 6408 N 624.968 -5.0538 -0.206038 0
M  V30 6409 C 623.266 -4.26376 -1.30841 0
M  V30 6410 C 623.967 -5.81613 0.100359 0
M  V30 6411 N 622.943 -5.41264 -0.503447 0
M  V30 6412 H 626.745 -2.93367 0.176978 0
M  V30 6413 H 624.259 -1.61188 0.198046 0
M  V30 6414 H 626.256 -3.53277 -2.21362 0
M  V30 6415 H 624.916 -2.35634 -2.23398 0
M  V30 6416 H 625.927 -5.17663 0.156659 0
M  V30 6417 H 622.604 -3.69011 -1.95287 0
M  V30 6418 H 623.994 -6.67442 0.772676 0
M  V30 6419 N 626.714 -0.118576 -1.57153 0
M  V30 6420 C 627.647 0.869046 -2.11004 0
M  V30 6421 C 628.625 1.26115 -1.02634 0
M  V30 6422 O 629.809 1.36228 -1.30285 0
M  V30 6423 C 626.936 2.16297 -2.6064 0
M  V30 6424 C 625.982 1.91896 -3.80891 0
M  V30 6425 S 626.815 1.13562 -5.2332 0
M  V30 6426 C 627.971 2.44135 -5.76324 0
M  V30 6427 H 628.204 0.411005 -2.94445 0
M  V30 6428 H 625.737 0.0951891 -1.54106 0
M  V30 6429 H 627.695 2.90642 -2.89892 0
M  V30 6430 H 626.356 2.59219 -1.77382 0
M  V30 6431 H 625.549 2.8777 -4.13768 0
M  V30 6432 H 625.151 1.25672 -3.52253 0
M  V30 6433 H 627.443 3.39976 -5.86022 0
M  V30 6434 H 628.386 2.15803 -6.74414 0
M  V30 6435 H 628.794 2.53483 -5.04387 0
M  V30 6436 N 628.193 1.56834 0.155195 0
M  V30 6437 C 629.47 1.73799 0.897395 0
M  V30 6438 C 629.85 0.684379 1.99698 0
M  V30 6439 O 629.198 -0.298111 2.26547 0
M  V30 6440 C 629.408 3.17572 1.44737 0
M  V30 6441 C 630.756 3.79014 1.91399 0
M  V30 6442 O 631.78 3.20951 1.54496 0
M  V30 6443 O 630.639 4.80998 2.59429 0
M  V30 6444 H 627.733 0.710329 0.423511 0
M  V30 6445 H 630.279 1.69107 0.141761 0
M  V30 6446 H 629.051 3.85749 0.656741 0
M  V30 6447 H 628.674 3.26657 2.26674 0
M  V30 6448 N 629.671 -0.424282 1.51781 0
M  V30 6449 C 630.92 -1.16961 1.64326 0
M  V30 6450 C 631.233 -1.92035 0.371749 0
M  V30 6451 O 632.439 -2.68873 0.37676 0
M  V30 6452 C 630.895 -2.12782 2.90262 0
M  V30 6453 C 630.503 -1.43295 4.24465 0
M  V30 6454 C 632.247 -2.87667 3.12166 0
M  V30 6455 C 630.154 -2.37676 5.41538 0
M  V30 6456 H 629.084 -0.440293 0.612093 0
M  V30 6457 H 631.735 -0.435431 1.78259 0
M  V30 6458 H 630.117 -2.8969 2.69992 0
M  V30 6459 H 631.291 -0.718564 4.55163 0
M  V30 6460 H 629.606 -0.805118 4.08542 0
M  V30 6461 H 632.203 -3.58395 3.96808 0
M  V30 6462 H 632.546 -3.49758 2.25776 0
M  V30 6463 H 633.079 -2.17863 3.32837 0
M  V30 6464 H 629.818 -1.80255 6.30229 0
M  V30 6465 H 629.338 -3.07132 5.15199 0
M  V30 6466 H 631.017 -2.98529 5.74012 0
M  V30 6467 N 631.149 -1.42148 -0.680565 0
M  V30 6468 C 632.096 -1.45175 -1.79424 0
M  V30 6469 C 633.066 -0.304352 -1.63288 0
M  V30 6470 O 634.251 -0.507591 -1.83924 0
M  V30 6471 C 631.391 -1.35429 -3.17416 0
M  V30 6472 C 630.504 -2.60158 -3.4488 0
M  V30 6473 C 629.639 -2.42596 -4.72568 0
M  V30 6474 C 628.678 -3.62727 -4.93047 0
M  V30 6475 N 627.815 -3.44143 -6.11973 0
M  V30 6476 H 632.655 -2.40349 -1.76172 0
M  V30 6477 H 630.192 -1.19334 -0.860107 0
M  V30 6478 H 632.15 -1.27777 -3.97151 0
M  V30 6479 H 630.78 -0.438536 -3.19807 0
M  V30 6480 H 629.832 -2.78199 -2.5944 0
M  V30 6481 H 631.144 -3.49473 -3.55908 0
M  V30 6482 H 630.298 -2.32497 -5.60384 0
M  V30 6483 H 629.037 -1.50761 -4.63813 0
M  V30 6484 H 628.042 -3.73264 -4.03676 0
M  V30 6485 H 629.267 -4.55534 -5.03652 0
M  V30 6486 H 627.213 -2.5502 -6.04401 0
M  V30 6487 H 627.13 -4.27041 -6.23836 0
M  V30 6488 H 628.398 -3.37845 -7.02482 0
M  V30 6489 N 632.627 0.916307 -1.28225 0
M  V30 6490 C 634.038 1.48024 -1.13779 0
M  V30 6491 C 634.389 1.94289 0.273139 0
M  V30 6492 O 633.514 1.82226 1.16716 0
M  V30 6493 C 634.109 2.69029 -2.05935 0
M  V30 6494 C 632.668 3.2161 -1.95561 0
M  V30 6495 C 631.815 1.94321 -1.97825 0
M  V30 6496 H 634.766 0.729272 -1.40951 0
M  V30 6497 H 634.787 3.44204 -1.62184 0
M  V30 6498 H 634.299 2.35325 -3.08616 0
M  V30 6499 H 632.4 3.60045 -0.959076 0
M  V30 6500 H 632.513 3.87032 -2.82388 0
M  V30 6501 H 630.877 2.1131 -1.42198 0
M  V30 6502 H 631.66 1.62917 -3.0218 0
M  V30 6503 N 634.105 1.10431 1.1244 0
M  V30 6504 C 635.33 0.869089 1.88313 0
M  V30 6505 C 635.755 -0.574912 1.79099 0
M  V30 6506 O 635.113 -1.40496 1.14589 0
M  V30 6507 C 635.161 1.32208 3.3549 0
M  V30 6508 O 634.265 0.487092 4.09513 0
M  V30 6509 H 633.606 0.313894 0.585121 0
M  V30 6510 H 636.136 1.47111 1.42195 0
M  V30 6511 H 636.146 1.31201 3.86329 0
M  V30 6512 H 634.821 2.37364 3.41513 0
M  V30 6513 H 633.398 0.562372 3.68635 0
M  V30 6514 N 635.583 -1.29855 0.893053 0
M  V30 6515 C 636.531 -2.29867 0.355512 0
M  V30 6516 C 637.525 -1.60502 -0.541801 0
M  V30 6517 O 638.731 -1.74902 -0.425339 0
M  V30 6518 H 635.106 -0.745805 0.0963247 0
M  V30 6519 H 637.077 -2.72655 1.21252 0
M  V30 6520 C 635.826 -3.453 -0.407801 0
M  V30 6521 H 635.149 -3.98864 0.273426 0
M  V30 6522 H 636.589 -4.17334 -0.748887 0
M  V30 6523 C 635.048 -2.96051 -1.60795 0
M  V30 6524 O 635.578 -2.96763 -2.7073 0
M  V30 6525 N 633.784 -2.51963 -1.44786 0
M  V30 6526 H 633.331 -2.51583 -0.553498 0
M  V30 6527 H 633.289 -2.1937 -2.2522 0
M  V30 6528 N 637.061 -0.65484 -1.43351 0
M  V30 6529 C 638.31 -0.166215 -2.01014 0
M  V30 6530 C 638.623 1.22764 -1.52278 0
M  V30 6531 O 639.829 1.81156 -2.02224 0
M  V30 6532 C 638.285 -0.246341 -3.59056 0
M  V30 6533 C 637.893 -1.64299 -4.16785 0
M  V30 6534 C 639.637 0.184597 -4.24098 0
M  V30 6535 C 637.544 -1.67695 -5.67126 0
M  V30 6536 H 636.474 -0.0583769 -0.751737 0
M  V30 6537 H 639.125 -0.817111 -1.64303 0
M  V30 6538 H 637.507 0.472092 -3.93176 0
M  V30 6539 H 638.681 -2.3869 -3.94162 0
M  V30 6540 H 636.996 -2.02004 -3.6412 0
M  V30 6541 H 639.593 0.179088 -5.344 0
M  V30 6542 H 639.936 1.21632 -3.98135 0
M  V30 6543 H 640.469 -0.482141 -3.94867 0
M  V30 6544 H 637.208 -2.68783 -5.9786 0
M  V30 6545 H 636.728 -0.976313 -5.91801 0
M  V30 6546 H 638.407 -1.42142 -6.31193 0
M  V30 6547 N 638.539 1.52521 -0.396863 0
M  V30 6548 C 639.786 2.01672 0.182898 0
M  V30 6549 C 640.114 1.28302 1.46181 0
M  V30 6550 O 639.369 0.374118 1.92091 0
M  V30 6551 C 639.668 3.5403 0.489677 0
M  V30 6552 C 639.334 4.45456 -0.698581 0
M  V30 6553 C 637.996 4.70166 -1.02454 0
M  V30 6554 C 640.348 4.99354 -1.49316 0
M  V30 6555 C 637.676 5.46024 -2.1465 0
M  V30 6556 C 640.028 5.76439 -2.60579 0
M  V30 6557 C 638.692 5.99426 -2.93675 0
M  V30 6558 H 637.962 0.737971 0.066927 0
M  V30 6559 H 640.609 1.83853 -0.535764 0
M  V30 6560 H 638.914 3.69963 1.28976 0
M  V30 6561 H 640.611 3.8956 0.951018 0
M  V30 6562 H 637.201 4.26392 -0.434525 0
M  V30 6563 H 641.385 4.80182 -1.25457 0
M  V30 6564 H 636.641 5.62046 -2.40654 0
M  V30 6565 H 640.815 6.17202 -3.22544 0
M  V30 6566 H 638.442 6.57988 -3.80731 0
M  V30 6567 N 640.017 0.126909 1.57088 0
M  V30 6568 C 641.266 -0.529024 1.94639 0
M  V30 6569 C 641.579 -1.67323 1.01304 0
M  V30 6570 O 642.785 -2.39245 1.28352 0
M  V30 6571 C 641.241 -0.992483 3.45945 0
M  V30 6572 C 640.849 0.123691 4.47829 0
M  V30 6573 C 642.593 -1.61934 3.924 0
M  V30 6574 C 640.5 -0.356911 5.90322 0
M  V30 6575 H 639.43 -0.201397 0.726605 0
M  V30 6576 H 642.081 0.208032 1.82317 0
M  V30 6577 H 640.463 -1.7842 3.53528 0
M  V30 6578 H 641.637 0.900168 4.51922 0
M  V30 6579 H 639.952 0.657699 4.11173 0
M  V30 6580 H 642.549 -1.9902 4.96281 0
M  V30 6581 H 642.892 -2.50075 3.32819 0
M  V30 6582 H 643.425 -0.892894 3.8765 0
M  V30 6583 H 640.164 0.488636 6.53676 0
M  V30 6584 H 639.684 -1.0997 5.89633 0
M  V30 6585 H 641.363 -0.815547 6.41839 0
M  V30 6586 N 641.495 -1.56914 -0.146875 0
M  V30 6587 C 642.72 -1.87881 -0.878386 0
M  V30 6588 C 643.145 -0.715945 -1.73942 0
M  V30 6589 O 642.503 0.334447 -1.78189 0
M  V30 6590 C 642.551 -3.17431 -1.71084 0
M  V30 6591 O 641.655 -3.01374 -2.81509 0
M  V30 6592 H 640.996 -0.617289 -0.244644 0
M  V30 6593 H 643.526 -2.04136 -0.137654 0
M  V30 6594 H 643.536 -3.49455 -2.10582 0
M  V30 6595 H 642.211 -4.01671 -1.07856 0
M  V30 6596 H 640.788 -2.80758 -2.45416 0
M  V30 6597 N 642.974 0.416227 -1.52004 0
M  V30 6598 C 644.39 0.754319 -1.40649 0
M  V30 6599 C 644.59 1.95059 -0.505392 0
M  V30 6600 O 643.646 2.5248 0.0315057 0
M  V30 6601 C 644.959 1.0149 -2.83055 0
M  V30 6602 C 646.507 1.11805 -2.9235 0
M  V30 6603 C 646.982 1.41144 -4.35709 0
M  V30 6604 N 648.473 1.48024 -4.38911 0
M  V30 6605 C 649.208 1.72338 -5.46889 0
M  V30 6606 N 648.704 1.94303 -6.64995 0
M  V30 6607 N 650.497 1.74294 -5.34395 0
M  V30 6608 H 642.648 -0.371324 -2.09129 0
M  V30 6609 H 644.911 -0.103811 -0.942299 0
M  V30 6610 H 644.617 0.208345 -3.51082 0
M  V30 6611 H 644.491 1.93697 -3.23668 0
M  V30 6612 H 646.878 1.91521 -2.24508 0
M  V30 6613 H 646.959 0.17451 -2.55204 0
M  V30 6614 H 646.603 0.619484 -5.04108 0
M  V30 6615 H 646.533 2.36739 -4.70385 0
M  V30 6616 H 649.024 1.32868 -3.53772 0
M  V30 6617 H 649.337 2.12286 -7.43071 0
M  V30 6618 H 647.682 1.91582 -6.68073 0
M  V30 6619 H 650.873 1.56667 -4.41104 0
M  V30 6620 H 651.046 1.92904 -6.18621 0
M  V30 6621 N 644.452 1.42507 0.673017 0
M  V30 6622 C 645.68 1.46473 1.46128 0
M  V30 6623 C 646.095 0.0765912 1.88645 0
M  V30 6624 O 645.452 -0.909057 1.58248 0
M  V30 6625 C 645.503 2.39339 2.70923 0
M  V30 6626 O 645.224 3.72752 2.3019 0
M  V30 6627 C 646.725 2.52343 3.64469 0
M  V30 6628 H 643.945 0.49812 0.449575 0
M  V30 6629 H 646.489 1.87041 0.826802 0
M  V30 6630 H 644.644 2.02019 3.30556 0
M  V30 6631 H 645.058 4.22503 3.10791 0
M  V30 6632 H 646.532 3.2144 4.48754 0
M  V30 6633 H 647.009 1.56189 4.1049 0
M  V30 6634 H 647.615 2.90392 3.10729 0
M  V30 6635 N 645.93 -0.909495 1.28709 0
M  V30 6636 C 647.155 -1.69801 1.1909 0
M  V30 6637 C 647.58 -1.86479 -0.246388 0
M  V30 6638 O 646.938 -1.37802 -1.17815 0
M  V30 6639 C 646.986 -3.06543 1.89904 0
M  V30 6640 O 646.09 -3.94268 1.2094 0
M  V30 6641 H 645.431 -0.519783 0.413185 0
M  V30 6642 H 647.961 -1.13689 1.70106 0
M  V30 6643 H 647.971 -3.56748 1.97977 0
M  V30 6644 H 646.646 -2.93722 2.94449 0
M  V30 6645 H 645.223 -3.52702 1.2106 0
M  V30 6646 N 647.408 -1.11026 -1.11852 0
M  V30 6647 C 648.657 -0.851249 -1.82857 0
M  V30 6648 C 648.97 0.62514 -1.85341 0
M  V30 6649 O 650.176 1.00026 -2.52403 0
M  V30 6650 C 648.632 -1.47309 -3.28372 0
M  V30 6651 C 648.24 -2.9832 -3.34229 0
M  V30 6652 C 649.984 -1.29373 -4.04306 0
M  V30 6653 C 647.891 -3.53509 -4.74115 0
M  V30 6654 H 646.821 -0.314794 -0.685143 0
M  V30 6655 H 649.472 -1.33499 -1.25898 0
M  V30 6656 H 647.854 -0.917017 -3.85236 0
M  V30 6657 H 649.028 -3.60295 -2.87271 0
M  V30 6658 H 647.343 -3.15482 -2.71772 0
M  V30 6659 H 649.94 -1.68042 -5.07608 0
M  V30 6660 H 650.283 -0.235879 -4.15631 0
M  V30 6661 H 650.816 -1.8182 -3.53817 0
M  V30 6662 H 647.555 -4.58987 -4.67986 0
M  V30 6663 H 647.075 -2.96305 -5.21501 0
M  V30 6664 H 648.754 -3.51693 -5.43066 0
M  V30 6665 N 648.886 1.2938 -0.899927 0
M  V30 6666 C 650.297 1.77644 -0.574427 0
M  V30 6667 C 650.648 1.73824 0.909928 0
M  V30 6668 O 649.773 1.32429 1.71147 0
M  V30 6669 C 650.368 3.22573 -1.03595 0
M  V30 6670 C 648.927 3.68614 -0.76161 0
M  V30 6671 C 648.074 2.49483 -1.21052 0
M  V30 6672 H 651.025 1.16038 -1.08263 0
M  V30 6673 H 651.046 3.78684 -0.371337 0
M  V30 6674 H 650.558 3.25321 -2.11631 0
M  V30 6675 H 648.659 3.7134 0.306127 0
M  V30 6676 H 648.772 4.59402 -1.35965 0
M  V30 6677 H 647.136 2.46798 -0.629515 0
M  V30 6678 H 647.919 2.54959 -2.29893 0
M  V30 6679 N 650.364 0.662433 1.43002 0
M  V30 6680 C 651.312 -0.035345 2.32573 0
M  V30 6681 C 652.306 -0.803505 1.49131 0
M  V30 6682 O 653.512 -0.712865 1.65282 0
M  V30 6683 H 649.887 -0.0302194 0.751393 0
M  V30 6684 H 651.858 0.737686 2.89138 0
M  V30 6685 C 650.607 -0.981575 3.33557 0
M  V30 6686 H 649.93 -0.399914 3.97795 0
M  V30 6687 H 651.37 -1.43873 3.98844 0
M  V30 6688 C 649.829 -2.08204 2.64863 0
M  V30 6689 O 650.359 -3.16698 2.47113 0
M  V30 6690 N 648.565 -1.85022 2.24088 0
M  V30 6691 H 648.112 -0.967909 2.38724 0
M  V30 6692 H 648.07 -2.58845 1.78457 0
M  V30 6693 N 651.842 -1.52309 0.404946 0
M  V30 6694 C 652.805 -2.25491 -0.410651 0
M  V30 6695 C 653.805 -1.27704 -0.977154 0
M  V30 6696 O 654.995 -1.51679 -0.856691 0
M  V30 6697 C 652.127 -3.02197 -1.57765 0
M  V30 6698 H 653.32 -2.99015 0.230277 0
M  V30 6699 H 650.873 -1.55506 0.157377 0
M  V30 6700 H 651.608 -2.33013 -2.25556 0
M  V30 6701 H 651.393 -3.73987 -1.17797 0
M  V30 6702 H 652.883 -3.57719 -2.15469 0
M  V30 6703 N 653.32 -0.135238 -1.57019 0
M  V30 6704 C 654.283 0.794707 -2.14981 0
M  V30 6705 C 655.283 1.18342 -1.08866 0
M  V30 6706 O 656.473 1.10627 -1.34563 0
M  V30 6707 C 653.605 2.07685 -2.70333 0
M  V30 6708 H 654.798 0.290696 -2.98488 0
M  V30 6709 H 652.351 0.114128 -1.55883 0
M  V30 6710 H 653.086 2.6248 -1.9046 0
M  V30 6711 H 652.871 1.80745 -3.47957 0
M  V30 6712 H 654.361 2.74127 -3.1503 0
M  V30 6713 N 654.798 1.5699 0.138552 0
M  V30 6714 C 656.023 1.88344 0.86841 0
M  V30 6715 C 656.448 0.725159 1.7356 0
M  V30 6716 O 655.806 -0.324992 1.78363 0
M  V30 6717 C 655.854 3.18334 1.69398 0
M  V30 6718 O 654.958 3.02863 2.79907 0
M  V30 6719 H 654.299 0.618577 0.241367 0
M  V30 6720 H 656.829 2.04207 0.126826 0
M  V30 6721 H 656.839 3.50567 2.08726 0
M  V30 6722 H 655.514 4.02238 1.05725 0
M  V30 6723 H 654.091 2.82056 2.43924 0
M  V30 6724 N 656.276 -0.40816 1.52223 0
M  V30 6725 C 657.186 -1.52202 1.78526 0
M  V30 6726 C 658.202 -1.60546 0.670892 0
M  V30 6727 O 659.378 -1.77242 0.956404 0
M  V30 6728 C 656.443 -2.87928 1.93128 0
M  V30 6729 C 655.504 -2.89463 3.17033 0
M  V30 6730 C 654.737 -4.18715 3.30929 0
M  V30 6731 O 654.96 -5.12662 2.50067 0
M  V30 6732 O 653.894 -4.27125 4.24084 0
M  V30 6733 H 657.72 -1.32911 2.73072 0
M  V30 6734 H 655.305 -0.594112 1.37079 0
M  V30 6735 H 657.187 -3.68426 2.04549 0
M  V30 6736 H 655.862 -3.07285 1.01772 0
M  V30 6737 H 654.769 -2.07815 3.11069 0
M  V30 6738 H 656.102 -2.75055 4.08174 0
M  V30 6739 N 657.755 -1.42862 -0.66545 0
M  V30 6740 C 658.665 -1.49491 -1.80803 0
M  V30 6741 C 659.681 -0.382914 -1.69734 0
M  V30 6742 O 660.857 -0.635223 -1.9112 0
M  V30 6743 C 657.922 -1.40383 -3.17007 0
M  V30 6744 C 656.983 -2.62152 -3.39963 0
M  V30 6745 C 656.216 -2.53469 -4.69669 0
M  V30 6746 O 656.439 -1.57568 -5.48205 0
M  V30 6747 O 655.373 -3.43763 -4.94075 0
M  V30 6748 H 659.199 -2.45949 -1.78165 0
M  V30 6749 H 656.784 -1.24728 -0.822387 0
M  V30 6750 H 658.666 -1.377 -3.98267 0
M  V30 6751 H 657.341 -0.470546 -3.20262 0
M  V30 6752 H 656.248 -2.70409 -2.58515 0
M  V30 6753 H 657.581 -3.54411 -3.41546 0
M  V30 6754 N 659.233 0.902656 -1.29189 0
M  V30 6755 C 660.481 1.6496 -1.16758 0
M  V30 6756 C 660.802 1.92952 0.28188 0
M  V30 6757 O 660.072 1.55351 1.19344 0
M  V30 6758 H 658.652 0.611447 -0.429118 0
M  V30 6759 H 661.314 1.0825 -1.62074 0
M  V30 6760 H 660.41 2.60728 -1.71544 0
M  V30 6761 N 660.711 1.11618 1.11262 0
M  V30 6762 C 661.988 0.777876 1.79467 0
M  V30 6763 C 662.368 -0.733774 1.97937 0
M  V30 6764 O 661.716 -1.66443 1.56554 0
M  V30 6765 C 661.926 1.5431 3.13032 0
M  V30 6766 C 663.274 1.72357 3.88044 0
M  V30 6767 O 664.298 1.5075 3.22727 0
M  V30 6768 O 663.157 2.08276 5.05256 0
M  V30 6769 H 660.251 0.282018 0.777428 0
M  V30 6770 H 662.797 1.21971 1.17988 0
M  V30 6771 H 661.569 2.57132 2.94956 0
M  V30 6772 H 661.192 1.09495 3.82226 0
M  V30 6773 N 662.189 -1.289 0.906776 0
M  V30 6774 C 663.099 -2.31256 0.394707 0
M  V30 6775 C 664.115 -1.66231 -0.514121 0
M  V30 6776 O 665.291 -1.97347 -0.401994 0
M  V30 6777 C 662.356 -3.44792 -0.363191 0
M  V30 6778 C 661.417 -4.25391 0.578012 0
M  V30 6779 C 660.65 -5.33506 -0.143811 0
M  V30 6780 O 660.873 -5.53786 -1.36665 0
M  V30 6781 O 659.807 -5.99673 0.5173 0
M  V30 6782 H 663.633 -2.77051 1.24405 0
M  V30 6783 H 661.218 -1.33466 0.671346 0
M  V30 6784 H 663.1 -4.139 -0.791503 0
M  V30 6785 H 661.775 -3.01093 -1.18848 0
M  V30 6786 H 660.682 -3.58899 1.05558 0
M  V30 6787 H 662.015 -4.72752 1.36992 0
M  V30 6788 N 663.667 -0.670007 -1.42649 0
M  V30 6789 C 664.944 -0.119451 -1.95235 0
M  V30 6790 C 665.324 1.36461 -1.61064 0
M  V30 6791 O 664.672 2.09843 -0.904329 0
M  V30 6792 C 664.882 -0.383498 -3.46887 0
M  V30 6793 C 666.23 -0.297431 -4.23557 0
M  V30 6794 O 667.254 -0.31698 -3.54787 0
M  V30 6795 O 666.113 -0.235507 -5.45992 0
M  V30 6796 H 663.207 -8.85474e-05 -0.827 0
M  V30 6797 H 665.753 -0.744406 -1.52501 0
M  V30 6798 H 664.525 -1.41174 -3.64946 0
M  V30 6799 H 664.148 0.273702 -3.96657 0
M  V30 6800 N 665.145 1.52092 -0.413018 0
M  V30 6801 C 666.422 1.94356 0.22024 0
M  V30 6802 C 666.802 1.35017 1.62277 0
M  V30 6803 O 666.15 0.527511 2.22328 0
M  V30 6804 C 666.36 3.48289 0.222638 0
M  V30 6805 C 667.708 4.22313 0.440098 0
M  V30 6806 O 668.732 3.54919 0.301826 0
M  V30 6807 O 667.591 5.41829 0.712984 0
M  V30 6808 H 664.685 0.814536 0.14304 0
M  V30 6809 H 667.231 1.63083 -0.469242 0
M  V30 6810 H 666.003 3.83872 -0.758836 0
M  V30 6811 H 665.626 3.85934 0.956057 0
M  V30 6812 N 666.623 0.143563 1.56945 0
M  V30 6813 C 667.869 -0.502787 1.97088 0
M  V30 6814 C 668.224 -1.62703 1.02691 0
M  V30 6815 O 667.517 -1.91502 0.0613323 0
M  V30 6816 C 667.711 -1.05885 3.41355 0
M  V30 6817 C 667.54 0.00998209 4.49699 0
M  V30 6818 C 666.31 0.450229 5.0329 0
M  V30 6819 C 668.508 0.800174 5.08037 0
M  V30 6820 N 666.49 1.50227 5.95235 0
M  V30 6821 C 667.861 1.70279 5.96158 0
M  V30 6822 C 669.916 0.848344 4.9062 0
M  V30 6823 C 668.619 2.64945 6.68728 0
M  V30 6824 C 670.645 1.78281 5.63888 0
M  V30 6825 C 670.007 2.67296 6.51715 0
M  V30 6826 H 666.106 -0.152891 0.766908 0
M  V30 6827 H 668.69 0.23737 1.93248 0
M  V30 6828 H 666.861 -1.76863 3.45795 0
M  V30 6829 H 668.593 -1.67154 3.68567 0
M  V30 6830 H 665.348 0.0531355 4.7357 0
M  V30 6831 H 665.772 2.02795 6.45913 0
M  V30 6832 H 670.414 0.174228 4.22441 0
M  V30 6833 H 668.132 3.33358 7.36137 0
M  V30 6834 H 671.718 1.82584 5.52408 0
M  V30 6835 H 670.598 3.38428 7.07415 0
M  V30 6836 N 668.101 -1.57061 -0.130224 0
M  V30 6837 C 669.064 -1.98593 -1.14426 0
M  V30 6838 C 670.064 -0.874584 -1.34936 0
M  V30 6839 O 671.254 -1.14086 -1.31643 0
M  V30 6840 C 668.386 -2.31639 -2.50112 0
M  V30 6841 H 669.579 -2.89374 -0.787561 0
M  V30 6842 H 667.132 -1.51756 -0.374146 0
M  V30 6843 H 667.867 -1.43703 -2.90723 0
M  V30 6844 H 667.652 -3.12684 -2.36583 0
M  V30 6845 H 669.142 -2.64551 -3.23114 0
M  V30 6846 N 669.579 0.400081 -1.52437 0
M  V30 6847 C 670.804 1.17221 -1.71096 0
M  V30 6848 C 671.229 1.83269 -0.423565 0
M  V30 6849 O 670.587 1.70378 0.619751 0
M  V30 6850 C 670.635 2.20425 -2.85386 0
M  V30 6851 O 669.739 3.26769 -2.51586 0
M  V30 6852 H 669.08 0.341766 -0.569291 0
M  V30 6853 H 671.61 0.467772 -1.99181 0
M  V30 6854 H 671.62 2.64605 -3.10561 0
M  V30 6855 H 670.295 1.71737 -3.78786 0
M  V30 6856 H 668.872 2.87804 -2.37114 0
M  V30 6857 N 671.057 1.43213 0.657864 0
M  V30 6858 C 672.005 1.48271 1.79216 0
M  V30 6859 C 672.999 0.35675 1.65601 0
M  V30 6860 O 674.205 0.530535 1.72004 0
M  V30 6861 H 670.58 0.464729 0.591211 0
M  V30 6862 H 672.551 2.43792 1.7207 0
M  V30 6863 C 671.3 1.41837 3.17455 0
M  V30 6864 H 670.623 2.27781 3.28567 0
M  V30 6865 H 672.063 1.49438 3.96793 0
M  V30 6866 C 670.522 0.135347 3.36628 0
M  V30 6867 O 671.052 -0.805199 3.93547 0
M  V30 6868 N 669.258 0.0470316 2.90562 0
M  V30 6869 H 668.805 0.813221 2.44427 0
M  V30 6870 H 668.763 -0.810737 3.03767 0
M  V30 6871 N 672.536 -0.895792 1.29666 0
M  V30 6872 C 673.483 -2.00035 1.15129 0
M  V30 6873 C 674.453 -1.66043 0.0435819 0
M  V30 6874 O 675.638 -1.89621 0.211811 0
M  V30 6875 C 672.778 -3.34774 0.83787 0
M  V30 6876 C 671.891 -3.81525 2.0264 0
M  V30 6877 C 671.026 -5.04858 1.65201 0
M  V30 6878 C 670.065 -5.43988 2.80612 0
M  V30 6879 N 669.202 -6.58507 2.43544 0
M  V30 6880 H 674.042 -2.11802 2.09628 0
M  V30 6881 H 671.579 -1.03719 1.04311 0
M  V30 6882 H 673.537 -4.12311 0.636824 0
M  V30 6883 H 672.167 -3.22724 -0.0702314 0
M  V30 6884 H 671.219 -2.9999 2.33903 0
M  V30 6885 H 672.531 -4.06472 2.89106 0
M  V30 6886 H 671.685 -5.8999 1.41408 0
M  V30 6887 H 670.424 -4.81759 0.758893 0
M  V30 6888 H 669.429 -4.57388 3.05083 0
M  V30 6889 H 670.654 -5.69066 3.70595 0
M  V30 6890 H 668.6 -6.37004 1.56724 0
M  V30 6891 H 668.517 -6.83269 3.23542 0
M  V30 6892 H 669.785 -7.46897 2.2308 0
M  V30 6893 N 674.014 -1.12206 -1.10668 0
M  V30 6894 C 675.26 -0.877172 -1.82848 0
M  V30 6895 C 675.593 0.595571 -1.84842 0
M  V30 6896 O 674.868 1.44013 -1.30731 0
M  V30 6897 C 675.151 -1.44957 -3.29635 0
M  V30 6898 C 675.004 -2.99051 -3.35989 0
M  V30 6899 C 676.323 -1.10714 -4.25946 0
M  V30 6900 H 673.442 -0.320103 -0.663854 0
M  V30 6901 H 676.084 -1.38827 -1.2972 0
M  V30 6902 H 674.234 -1.01488 -3.7501 0
M  V30 6903 H 675.906 -3.51182 -2.99113 0
M  V30 6904 H 674.149 -3.34705 -2.75962 0
M  V30 6905 H 674.82 -3.34194 -4.39339 0
M  V30 6906 H 677.296 -1.48254 -3.88793 0
M  V30 6907 H 676.172 -1.5343 -5.2702 0
M  V30 6908 H 676.433 -0.019 -4.42096 0
M  V30 6909 N 675.492 1.28418 -0.913599 0
M  V30 6910 C 676.425 2.25557 -0.346328 0
M  V30 6911 C 677.403 1.53038 0.549366 0
M  V30 6912 O 678.587 1.81937 0.493055 0
M  V30 6913 C 675.714 3.34915 0.504961 0
M  V30 6914 C 674.76 4.25257 -0.325334 0
M  V30 6915 S 675.593 5.06718 -1.73198 0
M  V30 6916 C 676.749 6.19569 -0.887988 0
M  V30 6917 H 676.982 2.73325 -1.16965 0
M  V30 6918 H 674.515 1.36855 -0.714841 0
M  V30 6919 H 676.473 3.98376 0.990301 0
M  V30 6920 H 675.134 2.85814 1.30267 0
M  V30 6921 H 674.327 5.02947 0.325589 0
M  V30 6922 H 673.929 3.66519 -0.744321 0
M  V30 6923 H 676.221 6.77398 -0.117568 0
M  V30 6924 H 677.164 6.88908 -1.63742 0
M  V30 6925 H 677.572 5.62812 -0.436228 0
M  V30 6926 N 676.97 0.677563 1.42291 0
M  V30 6927 C 678.217 0.200975 2.015 0
M  V30 6928 C 678.545 -1.19342 1.53583 0
M  V30 6929 O 677.8 -1.81579 0.7299 0
M  V30 6930 C 678.099 0.187229 3.56909 0
M  V30 6931 C 677.765 1.52667 4.24268 0
M  V30 6932 C 676.427 1.89341 4.42384 0
M  V30 6933 C 678.779 2.40869 4.62203 0
M  V30 6934 C 676.107 3.13836 4.95705 0
M  V30 6935 C 678.459 3.64679 5.16906 0
M  V30 6936 C 677.123 4.01519 5.33234 0
M  V30 6937 H 676.393 0.0735418 0.737342 0
M  V30 6938 H 679.04 0.873095 1.70439 0
M  V30 6939 H 677.345 -0.568407 3.87655 0
M  V30 6940 H 679.042 -0.198773 4.00507 0
M  V30 6941 H 675.632 1.23138 4.1053 0
M  V30 6942 H 679.816 2.1382 4.47878 0
M  V30 6943 H 675.072 3.42396 5.06532 0
M  V30 6944 H 679.246 4.33224 5.45243 0
M  V30 6945 H 676.873 4.98062 5.74316 0
M  V30 6946 N 678.448 -1.51871 0.421078 0
M  V30 6947 C 679.395 -2.27334 -0.398508 0
M  V30 6948 C 680.365 -1.30241 -1.03085 0
M  V30 6949 O 681.55 -1.59121 -1.05285 0
M  V30 6950 C 678.69 -3.10664 -1.50272 0
M  V30 6951 C 677.803 -4.2273 -0.890122 0
M  V30 6952 C 676.938 -4.93399 -1.96803 0
M  V30 6953 C 675.977 -5.97409 -1.333 0
M  V30 6954 N 675.114 -6.61548 -2.35156 0
M  V30 6955 H 679.954 -2.96938 0.251411 0
M  V30 6956 H 677.491 -1.46472 0.135825 0
M  V30 6957 H 679.449 -3.57292 -2.15403 0
M  V30 6958 H 678.079 -2.43207 -2.1225 0
M  V30 6959 H 677.131 -3.80186 -0.127537 0
M  V30 6960 H 678.443 -4.97302 -0.386349 0
M  V30 6961 H 677.597 -5.43491 -2.69633 0
M  V30 6962 H 676.336 -4.18421 -2.50549 0
M  V30 6963 H 675.341 -5.46624 -0.59008 0
M  V30 6964 H 676.566 -6.74335 -0.803076 0
M  V30 6965 H 674.512 -5.89394 -2.88012 0
M  V30 6966 H 674.429 -7.31832 -1.89624 0
M  V30 6967 H 675.697 -7.16276 -3.0752 0
M  V30 6968 N 679.926 -0.151884 -1.56866 0
M  V30 6969 C 681.175 0.497992 -1.95456 0
M  V30 6970 C 681.488 1.6569 -1.03953 0
M  V30 6971 O 682.694 2.37173 -1.32142 0
M  V30 6972 C 681.15 0.93732 -3.4748 0
M  V30 6973 C 680.758 -0.194921 -4.47576 0
M  V30 6974 C 682.502 1.55671 -3.94926 0
M  V30 6975 C 680.409 0.26295 -5.90815 0
M  V30 6976 H 679.339 0.189811 -0.729717 0
M  V30 6977 H 681.99 -0.237011 -1.81963 0
M  V30 6978 H 680.372 1.72773 -3.56322 0
M  V30 6979 H 681.546 -0.971951 -4.50433 0
M  V30 6980 H 679.861 -0.72303 -4.10075 0
M  V30 6981 H 682.458 1.91099 -4.99385 0
M  V30 6982 H 682.801 2.44748 -3.36755 0
M  V30 6983 H 683.334 0.831109 -3.89021 0
M  V30 6984 H 680.073 -0.592568 -6.52816 0
M  V30 6985 H 679.593 1.00575 -5.91308 0
M  V30 6986 H 681.272 0.713333 -6.43056 0
M  V30 6987 N 681.404 1.57128 0.121893 0
M  V30 6988 C 682.652 1.84335 0.828548 0
M  V30 6989 C 682.973 0.736632 1.80551 0
M  V30 6990 O 682.243 -0.23962 1.94429 0
M  V30 6991 H 680.823 0.680108 0.30897 0
M  V30 6992 H 683.485 1.9459 0.109906 0
M  V30 6993 H 682.581 2.80152 1.37554 0
M  V30 6994 N 682.882 -0.391992 1.52647 0
M  V30 6995 C 684.159 -1.15136 1.58123 0
M  V30 6996 C 684.539 -2.07786 0.372597 0
M  V30 6997 O 683.887 -2.19374 -0.639304 0
M  V30 6998 C 684.097 -1.91367 2.91856 0
M  V30 6999 C 685.445 -2.46833 3.45483 0
M  V30 7000 O 686.469 -2.01527 2.9371 0
M  V30 7001 O 685.328 -3.29587 4.3593 0
M  V30 7002 H 682.422 -0.526649 0.637629 0
M  V30 7003 H 684.968 -0.397386 1.64982 0
M  V30 7004 H 683.74 -1.23597 3.71268 0
M  V30 7005 H 683.363 -2.73732 2.88369 0
M  V30 7006 N 684.36 -1.4356 -0.65026 0
M  V30 7007 C 685.29 -1.51758 -1.77459 0
M  V30 7008 C 686.271 -0.372019 -1.65982 0
M  V30 7009 O 687.456 -0.589627 -1.85033 0
M  V30 7010 C 684.586 -1.44302 -3.15902 0
M  V30 7011 C 683.54 -2.57138 -3.42146 0
M  V30 7012 C 682.866 -2.34735 -4.8042 0
M  V30 7013 C 684.166 -3.99373 -3.36598 0
M  V30 7014 H 685.86 -2.45863 -1.70855 0
M  V30 7015 H 683.406 -1.18333 -0.820566 0
M  V30 7016 H 685.359 -1.48641 -3.94314 0
M  V30 7017 H 684.083 -0.467026 -3.23244 0
M  V30 7018 H 682.742 -2.52157 -2.66106 0
M  V30 7019 H 682.39 -1.35372 -4.84441 0
M  V30 7020 H 682.09 -3.10375 -4.9894 0
M  V30 7021 H 683.614 -2.40862 -5.61086 0
M  V30 7022 H 685.028 -4.05826 -4.04942 0
M  V30 7023 H 683.425 -4.75063 -3.66654 0
M  V30 7024 H 684.495 -4.243 -2.34729 0
M  V30 7025 N 685.838 0.888903 -1.30139 0
M  V30 7026 C 687.086 1.63713 -1.18501 0
M  V30 7027 C 687.407 1.9324 0.261399 0
M  V30 7028 O 686.677 1.56608 1.17689 0
M  V30 7029 H 685.257 0.606861 -0.435579 0
M  V30 7030 H 687.919 1.06525 -1.63213 0
M  V30 7031 H 687.015 2.58894 -1.743 0
M  V30 7032 N 687.317 1.12792 1.10072 0
M  V30 7033 C 688.267 0.768086 2.14673 0
M  V30 7034 C 689.251 -0.234716 1.59179 0
M  V30 7035 O 690.443 -0.039643 1.76956 0
M  V30 7036 C 687.572 0.228472 3.42539 0
M  V30 7037 C 686.658 1.25979 4.04957 0
M  V30 7038 N 687.049 2.4586 4.42025 0
M  V30 7039 C 685.347 1.10602 4.32069 0
M  V30 7040 C 686.048 3.11747 4.9111 0
M  V30 7041 N 685.024 2.39185 4.88151 0
M  V30 7042 H 688.826 1.68029 2.4113 0
M  V30 7043 H 686.34 1.00925 1.27232 0
M  V30 7044 H 688.337 -0.0475216 4.16873 0
M  V30 7045 H 686.997 -0.678136 3.1754 0
M  V30 7046 H 688.008 2.83215 4.33601 0
M  V30 7047 H 684.685 0.257021 4.16708 0
M  V30 7048 H 686.075 4.13862 5.29309 0
M  V30 7049 N 688.795 -1.27931 0.920396 0
M  V30 7050 C 690.041 -1.94977 0.557832 0
M  V30 7051 C 690.374 -1.72224 -0.897365 0
M  V30 7052 O 689.649 -1.04705 -1.63912 0
M  V30 7053 C 689.932 -3.49289 0.875741 0
M  V30 7054 C 689.785 -3.81416 2.38416 0
M  V30 7055 C 691.104 -4.38486 0.376517 0
M  V30 7056 H 688.223 -0.708164 0.20414 0
M  V30 7057 H 690.865 -1.5118 1.15085 0
M  V30 7058 H 689.015 -3.86724 0.371062 0
M  V30 7059 H 690.687 -3.53813 2.95997 0
M  V30 7060 H 688.93 -3.28225 2.83639 0
M  V30 7061 H 689.601 -4.89198 2.55713 0
M  V30 7062 H 692.077 -4.08161 0.808945 0
M  V30 7063 H 690.953 -5.45296 0.627976 0
M  V30 7064 H 691.214 -4.36143 -0.723293 0
M  V30 7065 N 690.273 -0.685099 -1.4193 0
M  V30 7066 C 691.501 -0.220372 -2.05723 0
M  V30 7067 C 691.916 1.12642 -1.51516 0
M  V30 7068 O 691.273 1.70182 -0.659114 0
M  V30 7069 C 691.324 -0.157974 -3.61155 0
M  V30 7070 O 691.045 -1.45156 -4.13354 0
M  V30 7071 C 692.546 0.329009 -4.42077 0
M  V30 7072 H 689.766 -0.104725 -0.662777 0
M  V30 7073 H 692.31 -0.934736 -1.81887 0
M  V30 7074 H 690.465 0.507144 -3.84066 0
M  V30 7075 H 690.879 -1.33172 -5.07312 0
M  V30 7076 H 692.353 0.321559 -5.51063 0
M  V30 7077 H 692.83 1.36608 -4.17414 0
M  V30 7078 H 693.436 -0.304737 -4.24207 0
M  V30 7079 N 691.751 1.51645 -0.429126 0
M  V30 7080 C 693.167 1.59394 -0.080994 0
M  V30 7081 C 693.367 1.44064 1.40882 0
M  V30 7082 O 692.423 1.27771 2.17786 0
M  V30 7083 C 693.736 2.94779 -0.593773 0
M  V30 7084 C 695.284 3.08067 -0.553494 0
M  V30 7085 C 695.759 4.45963 -1.04311 0
M  V30 7086 N 697.25 4.5226 -1.00076 0
M  V30 7087 C 697.985 5.57268 -1.35056 0
M  V30 7088 N 697.481 6.69734 -1.77282 0
M  V30 7089 N 699.274 5.47582 -1.26925 0
M  V30 7090 H 691.425 1.59856 -1.39857 0
M  V30 7091 H 693.688 0.753095 -0.575805 0
M  V30 7092 H 693.394 3.11342 -1.63583 0
M  V30 7093 H 693.268 3.77197 -0.0142202 0
M  V30 7094 H 695.655 2.91177 0.479556 0
M  V30 7095 H 695.736 2.27508 -1.16935 0
M  V30 7096 H 695.38 4.63598 -2.07459 0
M  V30 7097 H 695.31 5.25049 -0.403873 0
M  V30 7098 H 697.801 3.71537 -0.690564 0
M  V30 7099 H 698.114 7.4587 -2.02232 0
M  V30 7100 H 696.459 6.70963 -1.81202 0
M  V30 7101 H 699.65 4.58604 -0.93809 0
M  V30 7102 H 699.823 6.29308 -1.54516 0
M  V30 7103 N 693.229 0.160201 1.56784 0
M  V30 7104 C 694.478 -0.487619 1.95717 0
M  V30 7105 C 694.791 -1.65136 1.0483 0
M  V30 7106 O 695.997 -2.36468 1.33398 0
M  V30 7107 C 694.453 -0.91888 3.47972 0
M  V30 7108 C 694.061 0.218655 4.47466 0
M  V30 7109 C 695.805 -1.53575 3.95746 0
M  V30 7110 C 693.712 -0.231614 5.90946 0
M  V30 7111 H 692.642 -0.185939 0.730714 0
M  V30 7112 H 695.293 0.246657 1.81835 0
M  V30 7113 H 693.675 -1.70881 3.57234 0
M  V30 7114 H 694.849 0.995825 4.49911 0
M  V30 7115 H 693.164 0.744767 4.09685 0
M  V30 7116 H 695.761 -1.88448 5.00391 0
M  V30 7117 H 696.104 -2.42959 3.38048 0
M  V30 7118 H 696.637 -0.810467 3.89456 0
M  V30 7119 H 693.376 0.62718 6.52493 0
M  V30 7120 H 692.896 -0.974379 5.91833 0
M  V30 7121 H 694.575 -0.67922 6.43425 0
M  V30 7122 N 694.707 -1.5719 -0.113559 0
M  V30 7123 C 695.932 -1.89702 -0.838336 0
M  V30 7124 C 696.357 -0.752679 -1.72384 0
M  V30 7125 O 695.715 0.296575 -1.78858 0
M  V30 7126 C 695.763 -3.20989 -1.64312 0
M  V30 7127 O 694.867 -3.07278 -2.75053 0
M  V30 7128 H 694.208 -0.622339 -0.231496 0
M  V30 7129 H 696.738 -2.04382 -0.0943228 0
M  V30 7130 H 696.748 -3.53843 -2.03123 0
M  V30 7131 H 695.423 -4.03869 -0.993119 0
M  V30 7132 H 694 -2.85901 -2.39406 0
M  V30 7133 N 696.185 0.383891 -1.52853 0
M  V30 7134 C 697.41 1.154 -1.7233 0
M  V30 7135 C 697.835 1.82809 -0.44298 0
M  V30 7136 O 697.193 1.71026 0.601645 0
M  V30 7137 C 697.241 2.17386 -2.87708 0
M  V30 7138 O 696.345 3.24082 -2.55038 0
M  V30 7139 H 695.686 0.335709 -0.572883 0
M  V30 7140 H 698.216 0.44662 -1.99666 0
M  V30 7141 H 698.226 2.61296 -3.1335 0
M  V30 7142 H 696.901 1.6771 -3.80587 0
M  V30 7143 H 695.478 2.85273 -2.40153 0
M  V30 7144 N 697.663 1.43903 0.642637 0
M  V30 7145 C 699.074 1.40975 1.22404 0
M  V30 7146 C 699.425 0.1192 1.95838 0
M  V30 7147 O 698.55 -0.780939 2.01818 0
M  V30 7148 C 699.145 2.5538 2.22636 0
M  V30 7149 C 697.704 2.55684 2.76229 0
M  V30 7150 C 696.851 2.32556 1.51039 0
M  V30 7151 H 699.802 1.5265 0.434006 0
M  V30 7152 H 699.823 2.27474 3.05017 0
M  V30 7153 H 699.335 3.49294 1.69161 0
M  V30 7154 H 697.436 1.65679 3.33738 0
M  V30 7155 H 697.549 3.53799 3.23053 0
M  V30 7156 H 695.913 1.81427 1.78764 0
M  V30 7157 H 696.696 3.28569 0.99484 0
M  V30 7158 N 699.141 -0.881989 1.30609 0
M  V30 7159 C 700.073 -1.99375 1.13058 0
M  V30 7160 C 701.086 -1.62636 0.0729879 0
M  V30 7161 O 702.275 -1.75621 0.319301 0
M  V30 7162 C 699.375 -3.31536 0.702651 0
M  V30 7163 C 698.548 -3.96693 1.84265 0
M  V30 7164 C 697.607 -5.07158 1.40277 0
M  V30 7165 O 696.633 -5.28628 2.11048 0
M  V30 7166 N 697.835 -5.79808 0.283449 0
M  V30 7167 H 700.6 -2.14981 2.08814 0
M  V30 7168 H 698.161 -1.05526 1.22784 0
M  V30 7169 H 700.153 -4.02804 0.391331 0
M  V30 7170 H 698.723 -3.12175 -0.162954 0
M  V30 7171 H 697.943 -3.1856 2.32192 0
M  V30 7172 H 699.231 -4.36964 2.60653 0
M  V30 7173 H 698.629 -5.64871 -0.306189 0
M  V30 7174 H 697.186 -6.51792 0.0315985 0
M  V30 7175 N 700.619 -1.13374 -1.09472 0
M  V30 7176 C 701.865 -0.896516 -1.81908 0
M  V30 7177 C 702.198 0.575933 -1.85463 0
M  V30 7178 O 701.473 1.42618 -1.32251 0
M  V30 7179 C 701.756 -1.48445 -3.28079 0
M  V30 7180 C 701.609 -3.02598 -3.32798 0
M  V30 7181 C 702.928 -1.15226 -4.24748 0
M  V30 7182 H 700.047 -0.327127 -0.660422 0
M  V30 7183 H 702.689 -1.40195 -1.2824 0
M  V30 7184 H 700.839 -1.0546 -3.73912 0
M  V30 7185 H 702.511 -3.54335 -2.95372 0
M  V30 7186 H 700.754 -3.37613 -2.72397 0
M  V30 7187 H 701.425 -3.38835 -4.3577 0
M  V30 7188 H 703.901 -1.52369 -3.87199 0
M  V30 7189 H 702.777 -1.59012 -5.25363 0
M  V30 7190 H 703.038 -0.0658891 -4.42051 0
M  V30 7191 N 702.098 1.27442 -0.927168 0
M  V30 7192 C 703.008 2.30599 -0.431448 0
M  V30 7193 C 704.024 1.67028 0.48761 0
M  V30 7194 O 705.2 1.97962 0.370546 0
M  V30 7195 C 702.265 3.45327 0.308292 0
M  V30 7196 C 701.326 4.24418 -0.645615 0
M  V30 7197 C 700.559 5.33667 0.0589164 0
M  V30 7198 O 700.782 5.5589 1.27838 0
M  V30 7199 O 699.716 5.98774 -0.612638 0
M  V30 7200 H 703.542 2.75036 -1.28797 0
M  V30 7201 H 701.127 1.32382 -0.692495 0
M  V30 7202 H 703.009 4.15107 0.725555 0
M  V30 7203 H 701.684 3.02945 1.14043 0
M  V30 7204 H 700.591 3.57174 -1.11255 0
M  V30 7205 H 701.924 4.70512 -1.44496 0
M  V30 7206 N 703.576 0.692616 1.41565 0
M  V30 7207 C 704.486 0.0258451 2.34586 0
M  V30 7208 C 705.502 -0.769324 1.56069 0
M  V30 7209 O 706.678 -0.707563 1.88562 0
M  V30 7210 C 703.743 -0.901289 3.3478 0
M  V30 7211 C 702.804 -0.0986579 4.29187 0
M  V30 7212 C 702.037 -0.981634 5.24595 0
M  V30 7213 O 702.26 -2.22115 5.25377 0
M  V30 7214 O 701.194 -0.432892 6.00341 0
M  V30 7215 H 705.02 0.792537 2.93177 0
M  V30 7216 H 702.605 0.452935 1.42369 0
M  V30 7217 H 704.487 -1.43302 3.96286 0
M  V30 7218 H 703.162 -1.64752 2.78637 0
M  V30 7219 H 702.069 0.477604 3.71039 0
M  V30 7220 H 703.402 0.608848 4.8842 0
M  V30 7221 N 705.054 -1.51416 0.437162 0
M  V30 7222 C 706.302 -2.01687 -0.129108 0
M  V30 7223 C 706.623 -1.32329 -1.43227 0
M  V30 7224 O 705.893 -0.457796 -1.90476 0
M  V30 7225 H 704.473 -0.745277 -0.0507023 0
M  V30 7226 H 707.135 -1.86075 0.579828 0
M  V30 7227 H 706.231 -3.10605 -0.305141 0
M  V30 7228 N 706.532 -0.168513 -1.56696 0
M  V30 7229 C 707.809 0.523367 -1.88468 0
M  V30 7230 C 708.189 1.81503 -1.07796 0
M  V30 7231 O 707.537 2.27859 -0.171045 0
M  V30 7232 C 707.747 0.767991 -3.40445 0
M  V30 7233 C 709.095 1.09924 -4.10124 0
M  V30 7234 O 710.119 0.856625 -3.45746 0
M  V30 7235 O 708.978 1.55681 -5.23856 0
M  V30 7236 H 706.072 0.269447 -0.781874 0
M  V30 7237 H 708.618 -0.206739 -1.68436 0
M  V30 7238 H 707.39 -0.145254 -3.9103 0
M  V30 7239 H 707.013 1.55151 -3.66079 0
M  V30 7240 N 708.01 1.57248 0.105221 0
M  V30 7241 C 709.235 1.90143 0.828264 0
M  V30 7242 C 709.66 0.761811 1.71983 0
M  V30 7243 O 709.018 -0.287086 1.79013 0
M  V30 7244 C 709.066 3.21856 1.62608 0
M  V30 7245 O 708.17 3.08732 2.7342 0
M  V30 7246 H 707.511 0.623558 0.228192 0
M  V30 7247 H 710.041 2.0443 0.0834826 0
M  V30 7248 H 710.051 3.54916 2.01243 0
M  V30 7249 H 708.726 4.0439 0.971687 0
M  V30 7250 H 707.303 2.87167 2.37886 0
M  V30 7251 N 709.488 -0.375779 1.53054 0
M  V30 7252 C 710.904 -0.716764 1.426 0
M  V30 7253 C 711.104 -1.93651 0.556931 0
M  V30 7254 O 710.16 -2.52475 0.0354461 0
M  V30 7255 C 711.473 -0.939499 2.85646 0
M  V30 7256 C 713.021 -1.04015 2.95212 0
M  V30 7257 C 713.496 -1.29543 4.39298 0
M  V30 7258 N 714.987 -1.36335 4.42682 0
M  V30 7259 C 715.722 -1.57778 5.51266 0
M  V30 7260 N 715.218 -1.76604 6.69913 0
M  V30 7261 N 717.011 -1.60065 5.38828 0
M  V30 7262 H 709.162 0.42664 2.08071 0
M  V30 7263 H 711.425 0.128758 0.939215 0
M  V30 7264 H 711.131 -0.115189 3.51511 0
M  V30 7265 H 711.005 -1.85048 3.2869 0
M  V30 7266 H 713.392 -1.85501 2.29507 0
M  V30 7267 H 713.473 -0.106785 2.55577 0
M  V30 7268 H 713.117 -0.485611 5.05573 0
M  V30 7269 H 713.047 -2.24184 4.76497 0
M  V30 7270 H 715.538 -1.23441 3.5717 0
M  V30 7271 H 715.851 -1.9251 7.48438 0
M  V30 7272 H 714.196 -1.73802 6.72917 0
M  V30 7273 H 717.387 -1.44917 4.45103 0
M  V30 7274 H 717.56 -1.76435 6.23518 0
M  V30 7275 N 710.966 -1.44241 -0.634997 0
M  V30 7276 C 712.213 -1.46821 -1.39463 0
M  V30 7277 C 712.541 -0.0993362 -1.94246 0
M  V30 7278 O 711.796 0.898325 -1.73864 0
M  V30 7279 C 712.095 -2.47279 -2.58046 0
M  V30 7280 C 711.761 -3.92703 -2.21574 0
M  V30 7281 C 710.423 -4.32306 -2.1134 0
M  V30 7282 C 712.775 -4.84271 -1.92695 0
M  V30 7283 C 710.103 -5.61407 -1.70409 0
M  V30 7284 C 712.455 -6.13755 -1.53258 0
M  V30 7285 C 711.119 -6.52316 -1.41562 0
M  V30 7286 H 710.389 -0.537256 -0.51033 0
M  V30 7287 H 713.036 -1.77431 -0.720441 0
M  V30 7288 H 711.341 -2.10138 -3.3068 0
M  V30 7289 H 713.038 -2.46523 -3.16271 0
M  V30 7290 H 709.628 -3.61369 -2.30456 0
M  V30 7291 H 713.812 -4.54432 -1.99513 0
M  V30 7292 H 709.068 -5.90105 -1.59955 0
M  V30 7293 H 713.242 -6.84168 -1.29949 0
M  V30 7294 H 710.869 -7.52255 -1.09619 0
M  V30 7295 N 712.444 0.87505 -1.31075 0
M  V30 7296 C 713.374 1.99775 -1.20881 0
M  V30 7297 C 714.355 1.69822 -0.0971612 0
M  V30 7298 O 715.54 1.92158 -0.280895 0
M  V30 7299 C 712.67 3.35163 -0.910118 0
M  V30 7300 C 711.624 3.79406 -1.98078 0
M  V30 7301 C 710.95 5.12197 -1.53488 0
M  V30 7302 C 712.25 3.97061 -3.39323 0
M  V30 7303 H 713.944 2.08562 -2.14808 0
M  V30 7304 H 711.49 1.00207 -1.03415 0
M  V30 7305 H 713.443 4.13237 -0.825423 0
M  V30 7306 H 712.167 3.26536 0.064822 0
M  V30 7307 H 710.826 3.03568 -2.05528 0
M  V30 7308 H 710.474 5.00007 -0.547941 0
M  V30 7309 H 710.174 5.4277 -2.2511 0
M  V30 7310 H 711.698 5.92785 -1.46417 0
M  V30 7311 H 713.112 4.65545 -3.34576 0
M  V30 7312 H 711.509 4.39025 -4.09118 0
M  V30 7313 H 712.579 3.00601 -3.80483 0
M  V30 7314 N 713.922 1.13953 1.08869 0
M  V30 7315 C 714.885 0.824991 2.13838 0
M  V30 7316 C 715.885 -0.168198 1.59918 0
M  V30 7317 O 717.075 0.0595778 1.74098 0
M  V30 7318 C 714.207 0.228938 3.4013 0
M  V30 7319 H 715.4 1.75521 2.43171 0
M  V30 7320 H 712.953 0.94492 1.24503 0
M  V30 7321 H 713.688 -0.710227 3.16427 0
M  V30 7322 H 713.473 0.944243 3.80561 0
M  V30 7323 H 714.963 0.0259223 4.17592 0
M  V30 7324 N 715.4 -1.26948 0.933913 0
M  V30 7325 C 716.348 -2.2862 0.428463 0
M  V30 7326 C 717.342 -1.62144 -0.490464 0
M  V30 7327 O 718.548 -1.76167 -0.36948 0
M  V30 7328 H 714.923 -0.742363 0.120003 0
M  V30 7329 H 716.894 -2.68659 1.29865 0
M  V30 7330 C 715.643 -3.46423 -0.29774 0
M  V30 7331 H 714.966 -3.97792 0.400183 0
M  V30 7332 H 716.406 -4.19505 -0.615736 0
M  V30 7333 C 714.865 -3.01017 -1.51295 0
M  V30 7334 O 715.395 -3.05226 -2.61151 0
M  V30 7335 N 713.601 -2.56442 -1.36696 0
M  V30 7336 H 713.148 -2.53217 -0.473178 0
M  V30 7337 H 713.106 -2.26424 -2.18127 0
M  V30 7338 N 716.879 -0.700114 -1.41195 0
M  V30 7339 C 717.789 -0.0382854 -2.34569 0
M  V30 7340 C 718.805 0.761036 -1.56474 0
M  V30 7341 O 719.981 0.697553 -1.88934 0
M  V30 7342 C 717.046 0.883522 -3.35253 0
M  V30 7343 C 716.107 0.0758957 -4.29233 0
M  V30 7344 C 715.34 0.9538 -5.25108 0
M  V30 7345 O 715.563 2.19326 -5.26547 0
M  V30 7346 O 714.497 0.401049 -6.00562 0
M  V30 7347 H 718.323 -0.808073 -2.92752 0
M  V30 7348 H 715.908 -0.460479 -1.42127 0
M  V30 7349 H 717.79 1.41199 -3.9704 0
M  V30 7350 H 716.465 1.63272 -2.79506 0
M  V30 7351 H 715.372 -0.497274 -3.7078 0
M  V30 7352 H 716.705 -0.634741 -4.8809 0
M  V30 7353 N 718.357 1.51182 -0.445186 0
M  V30 7354 C 719.603 2.02452 0.11882 0
M  V30 7355 C 719.936 1.32824 1.41673 0
M  V30 7356 O 719.211 0.445637 1.89326 0
M  V30 7357 C 719.494 3.5859 0.329475 0
M  V30 7358 C 719.347 4.38823 -0.987638 0
M  V30 7359 C 720.666 4.26241 1.09575 0
M  V30 7360 H 717.785 0.735819 0.0417092 0
M  V30 7361 H 720.427 1.80747 -0.585718 0
M  V30 7362 H 718.577 3.77214 0.9296 0
M  V30 7363 H 720.249 4.3183 -1.62235 0
M  V30 7364 H 718.492 4.03594 -1.59041 0
M  V30 7365 H 719.163 5.46257 -0.794192 0
M  V30 7366 H 721.639 4.11934 0.587328 0
M  V30 7367 H 720.515 5.35354 1.21191 0
M  V30 7368 H 720.776 3.87635 2.12584 0
M  V30 7369 N 719.835 0.176821 1.56605 0
M  V30 7370 C 720.765 -0.746841 2.21234 0
M  V30 7371 C 721.746 -1.23502 1.16967 0
M  V30 7372 O 722.931 -1.28718 1.45414 0
M  V30 7373 C 720.061 -1.97407 2.8574 0
M  V30 7374 C 719.015 -1.62153 3.96094 0
M  V30 7375 C 718.341 -2.92387 4.47676 0
M  V30 7376 C 719.641 -0.845353 5.15413 0
M  V30 7377 H 721.335 -0.208116 2.98676 0
M  V30 7378 H 718.881 -0.0986594 1.43662 0
M  V30 7379 H 720.834 -2.62531 3.2963 0
M  V30 7380 H 719.558 -2.53703 2.05676 0
M  V30 7381 H 718.217 -0.993964 3.52868 0
M  V30 7382 H 717.865 -3.46734 3.64396 0
M  V30 7383 H 717.565 -2.69551 5.22127 0
M  V30 7384 H 719.089 -3.5853 4.94255 0
M  V30 7385 H 720.503 -1.39929 5.55961 0
M  V30 7386 H 718.9 -0.715814 5.95815 0
M  V30 7387 H 719.97 0.157239 4.84645 0
M  V30 7388 N 721.313 -1.57302 -0.09688 0
M  V30 7389 C 722.245 -1.98618 -1.14384 0
M  V30 7390 C 723.258 -0.888483 -1.36418 0
M  V30 7391 O 724.447 -1.16661 -1.35101 0
M  V30 7392 C 721.547 -2.28838 -2.49973 0
M  V30 7393 C 720.72 -3.60132 -2.48241 0
M  V30 7394 C 719.779 -3.7831 -3.65743 0
M  V30 7395 O 718.805 -4.50183 -3.48316 0
M  V30 7396 N 720.007 -3.18752 -4.85157 0
M  V30 7397 H 722.772 -2.8904 -0.792202 0
M  V30 7398 H 720.333 -1.59356 -0.285883 0
M  V30 7399 H 722.325 -2.38193 -3.27179 0
M  V30 7400 H 720.895 -1.44431 -2.77233 0
M  V30 7401 H 720.115 -3.61763 -1.56593 0
M  V30 7402 H 721.403 -4.46389 -2.4416 0
M  V30 7403 H 720.801 -2.60368 -5.0222 0
M  V30 7404 H 719.358 -3.33595 -5.59962 0
M  V30 7405 N 722.791 0.367657 -1.53252 0
M  V30 7406 C 723.701 1.47415 -1.82499 0
M  V30 7407 C 724.717 1.58711 -0.713222 0
M  V30 7408 O 725.893 1.74644 -1.00306 0
M  V30 7409 C 722.958 2.82706 -2.00694 0
M  V30 7410 C 722.019 2.80955 -3.24596 0
M  V30 7411 C 721.252 4.09793 -3.41914 0
M  V30 7412 O 721.475 5.05852 -2.63572 0
M  V30 7413 O 720.409 4.15731 -4.3526 0
M  V30 7414 H 724.235 1.25624 -2.765 0
M  V30 7415 H 721.82 0.557559 -1.38606 0
M  V30 7416 H 723.702 3.62873 -2.14246 0
M  V30 7417 H 722.377 3.04479 -1.09883 0
M  V30 7418 H 721.284 1.99494 -3.16469 0
M  V30 7419 H 722.617 2.64136 -4.15323 0
M  V30 7420 N 724.269 1.44576 0.627338 0
M  V30 7421 C 725.217 1.52039 1.76031 0
M  V30 7422 C 726.211 0.391796 1.64807 0
M  V30 7423 O 727.417 0.5669 1.7084 0
M  V30 7424 H 723.792 0.477165 0.581221 0
M  V30 7425 H 725.763 2.47387 1.6686 0
M  V30 7426 C 724.512 1.48539 3.14375 0
M  V30 7427 H 723.835 2.34699 3.23661 0
M  V30 7428 H 725.275 1.57821 3.93534 0
M  V30 7429 C 723.734 0.20672 3.36265 0
M  V30 7430 O 724.264 -0.72154 3.95167 0
M  V30 7431 N 722.47 0.108654 2.90397 0
M  V30 7432 H 722.017 0.864884 2.42647 0
M  V30 7433 H 721.975 -0.746121 3.05418 0
M  V30 7434 N 725.747 -0.868086 1.31537 0
M  V30 7435 C 726.977 -1.65162 1.24118 0
M  V30 7436 C 727.385 -1.88187 -0.195558 0
M  V30 7437 O 726.728 -1.44154 -1.13866 0
M  V30 7438 C 726.79 -3.04119 1.91708 0
M  V30 7439 C 726.454 -3.04194 3.4105 0
M  V30 7440 C 727.451 -2.82016 4.36764 0
M  V30 7441 C 725.136 -3.25256 3.82772 0
M  V30 7442 C 727.13 -2.80881 5.72175 0
M  V30 7443 C 724.817 -3.23749 5.18295 0
M  V30 7444 C 725.815 -3.01589 6.12808 0
M  V30 7445 O 725.503 -2.9993 7.45853 0
M  V30 7446 H 725.235 -0.521597 0.430015 0
M  V30 7447 H 727.789 -1.09165 1.73989 0
M  V30 7448 H 726.019 -3.61849 1.36389 0
M  V30 7449 H 727.708 -3.64701 1.78179 0
M  V30 7450 H 728.474 -2.65525 4.05859 0
M  V30 7451 H 724.353 -3.41534 3.09638 0
M  V30 7452 H 727.897 -2.63503 6.45919 0
M  V30 7453 H 723.794 -3.39781 5.48834 0
M  V30 7454 H 724.562 -3.15979 7.55049 0
M  V30 7455 N 727.225 -1.14528 -1.08264 0
M  V30 7456 C 728.453 -0.937964 -1.84418 0
M  V30 7457 C 728.868 0.51357 -1.81681 0
M  V30 7458 O 728.225 1.35591 -1.22153 0
M  V30 7459 C 728.276 -1.43272 -3.31897 0
M  V30 7460 O 727.997 -2.82738 -3.34651 0
M  V30 7461 C 729.498 -1.26555 -4.24851 0
M  V30 7462 H 726.718 -0.333704 -0.582136 0
M  V30 7463 H 729.262 -1.52076 -1.36723 0
M  V30 7464 H 727.417 -0.892653 -3.76975 0
M  V30 7465 H 727.831 -3.04971 -4.26724 0
M  V30 7466 H 729.305 -1.66031 -5.26439 0
M  V30 7467 H 729.782 -0.208589 -4.38704 0
M  V30 7468 H 730.388 -1.79423 -3.856 0
M  V30 7469 N 728.703 1.26451 -0.940633 0
M  V30 7470 C 729.653 2.24086 -0.420669 0
M  V30 7471 C 730.637 1.53501 0.482301 0
M  V30 7472 O 731.829 1.74127 0.317636 0
M  V30 7473 C 728.958 3.41866 0.313452 0
M  V30 7474 C 728.044 4.19737 -0.606779 0
M  V30 7475 N 728.435 4.7521 -1.73232 0
M  V30 7476 C 726.733 4.44091 -0.41226 0
M  V30 7477 C 727.434 5.34052 -2.30572 0
M  V30 7478 N 726.41 5.1971 -1.59381 0
M  V30 7479 H 730.212 2.64569 -1.27986 0
M  V30 7480 H 727.726 1.4153 -0.796436 0
M  V30 7481 H 729.723 4.1093 0.702991 0
M  V30 7482 H 728.383 3.0291 1.16942 0
M  V30 7483 H 729.394 4.72769 -2.11447 0
M  V30 7484 H 726.071 4.1556 0.401984 0
M  V30 7485 H 727.461 5.87845 -3.25404 0
M  V30 7486 N 730.181 0.707592 1.40822 0
M  V30 7487 C 731.111 0.0644925 2.33411 0
M  V30 7488 C 732.092 -0.754205 1.52466 0
M  V30 7489 O 733.277 -0.704749 1.80961 0
M  V30 7490 C 730.407 -0.863865 3.36385 0
M  V30 7491 C 729.361 -0.15138 4.27732 0
M  V30 7492 C 728.687 -1.19491 5.21177 0
M  V30 7493 C 729.987 0.989607 5.12839 0
M  V30 7494 H 731.681 0.837829 2.87438 0
M  V30 7495 H 729.227 0.404346 1.38207 0
M  V30 7496 H 731.18 -1.32309 4.0009 0
M  V30 7497 H 729.904 -1.66901 2.80734 0
M  V30 7498 H 728.563 0.287937 3.65467 0
M  V30 7499 H 728.211 -1.9929 4.61836 0
M  V30 7500 H 727.911 -0.723123 5.83134 0
M  V30 7501 H 729.435 -1.6544 5.8776 0
M  V30 7502 H 730.849 0.610114 5.70044 0
M  V30 7503 H 729.246 1.38926 5.83798 0
M  V30 7504 H 730.316 1.82389 4.49291 0
M  V30 7505 N 731.66 -1.50943 0.453197 0
M  V30 7506 C 733.071 -1.86699 -0.00619892 0
M  V30 7507 C 733.422 -1.3693 -1.40515 0
M  V30 7508 O 732.547 -0.726715 -2.03833 0
M  V30 7509 C 733.142 -3.38795 -0.018025 0
M  V30 7510 C 731.701 -3.74028 -0.421885 0
M  V30 7511 C 730.848 -2.74752 0.375087 0
M  V30 7512 H 733.799 -1.43942 0.668317 0
M  V30 7513 H 733.82 -3.71468 -0.824125 0
M  V30 7514 H 733.332 -3.74988 1.00028 0
M  V30 7515 H 731.433 -3.43431 -1.44521 0
M  V30 7516 H 731.546 -4.78908 -0.135664 0
M  V30 7517 H 729.91 -2.5414 -0.168794 0
M  V30 7518 H 730.693 -3.13787 1.39256 0
M  V30 7519 N 733.138 -0.185124 -1.56509 0
M  V30 7520 C 734.085 0.739729 -2.18624 0
M  V30 7521 C 735.055 1.217 -1.13042 0
M  V30 7522 O 736.24 1.28268 -1.41251 0
M  V30 7523 C 733.38 1.95787 -2.84186 0
M  V30 7524 C 732.493 1.52289 -4.04267 0
M  V30 7525 C 731.628 2.69576 -4.57714 0
M  V30 7526 C 730.667 2.22636 -5.70175 0
M  V30 7527 N 729.804 3.33065 -6.18071 0
M  V30 7528 H 734.644 0.203269 -2.97306 0
M  V30 7529 H 732.181 0.0885946 -1.46833 0
M  V30 7530 H 734.139 2.67253 -3.20361 0
M  V30 7531 H 732.769 2.4678 -2.08085 0
M  V30 7532 H 731.821 0.704458 -3.7382 0
M  V30 7533 H 733.133 1.13843 -4.85635 0
M  V30 7534 H 732.287 3.4918 -4.96143 0
M  V30 7535 H 731.026 3.1129 -3.75433 0
M  V30 7536 H 730.031 1.41483 -5.31284 0
M  V30 7537 H 731.256 1.81964 -6.54267 0
M  V30 7538 H 729.202 3.74328 -5.38715 0
M  V30 7539 H 729.119 2.98756 -6.94464 0
M  V30 7540 H 730.387 4.12912 -6.61153 0
M  V30 7541 N 734.616 1.57351 0.0885366 0
M  V30 7542 C 735.579 2.01557 1.09121 0
M  V30 7543 C 736.579 0.910052 1.3257 0
M  V30 7544 O 737.769 1.17537 1.28572 0
M  V30 7545 C 734.901 2.38189 2.43883 0
M  V30 7546 H 736.094 2.91361 0.710562 0
M  V30 7547 H 733.647 1.52694 0.333779 0
M  V30 7548 H 734.382 1.5136 2.86811 0
M  V30 7549 H 734.167 3.18846 2.28209 0
M  V30 7550 H 735.657 2.73025 3.15986 0
M  V30 7551 N 736.094 -0.359525 1.53444 0
M  V30 7552 C 737.371 -1.11756 1.6053 0
M  V30 7553 C 737.751 -2.06949 0.416587 0
M  V30 7554 O 737.099 -2.20681 -0.592628 0
M  V30 7555 C 737.309 -1.85133 2.95849 0
M  V30 7556 C 738.657 -2.3945 3.50641 0
M  V30 7557 O 739.681 -1.95251 2.97918 0
M  V30 7558 O 738.54 -3.20266 4.42823 0
M  V30 7559 H 735.634 -0.513005 0.648656 0
M  V30 7560 H 738.18 -0.362301 1.65787 0
M  V30 7561 H 736.952 -1.15694 3.73806 0
M  V30 7562 H 736.575 -2.67554 2.9411 0
M  V30 7563 N 737.572 -1.44907 -0.619662 0
M  V30 7564 C 738.821 -1.47569 -1.37501 0
M  V30 7565 C 739.134 -0.116707 -1.95252 0
M  V30 7566 O 740.34 -0.020909 -2.71492 0
M  V30 7567 C 738.796 -2.59851 -2.49009 0
M  V30 7568 C 738.404 -4.02008 -1.97722 0
M  V30 7569 C 740.148 -2.71746 -3.2612 0
M  V30 7570 C 738.055 -5.05693 -3.0664 0
M  V30 7571 H 736.985 -0.549068 -0.51676 0
M  V30 7572 H 739.636 -1.71009 -0.665437 0
M  V30 7573 H 738.018 -2.29671 -3.22594 0
M  V30 7574 H 739.192 -4.41809 -1.30925 0
M  V30 7575 H 737.507 -3.94456 -1.33392 0
M  V30 7576 H 740.104 -3.46382 -4.07337 0
M  V30 7577 H 740.447 -1.77959 -3.76346 0
M  V30 7578 H 740.98 -3.01392 -2.5963 0
M  V30 7579 H 737.719 -6.01148 -2.61345 0
M  V30 7580 H 737.239 -4.70473 -3.72042 0
M  V30 7581 H 738.918 -5.29906 -3.71226 0
M  V30 7582 N 739.05 0.861098 -1.31996 0
M  V30 7583 C 740.297 1.61481 -1.22188 0
M  V30 7584 C 740.625 1.93276 0.217853 0
M  V30 7585 O 739.88 1.56942 1.16909 0
M  V30 7586 C 740.179 2.94822 -2.02027 0
M  V30 7587 C 739.845 2.82483 -3.51446 0
M  V30 7588 C 738.507 2.78825 -3.92186 0
M  V30 7589 C 740.859 2.68878 -4.46491 0
M  V30 7590 C 738.187 2.59433 -5.26224 0
M  V30 7591 C 740.539 2.51022 -5.80664 0
M  V30 7592 C 739.203 2.45753 -6.20614 0
M  V30 7593 H 738.473 0.590902 -0.447119 0
M  V30 7594 H 741.12 0.999376 -1.63355 0
M  V30 7595 H 739.425 3.6045 -1.53569 0
M  V30 7596 H 741.122 3.52149 -1.91812 0
M  V30 7597 H 737.712 2.86152 -3.19085 0
M  V30 7598 H 741.896 2.70754 -4.1594 0
M  V30 7599 H 737.152 2.53784 -5.5624 0
M  V30 7600 H 741.326 2.39473 -6.53931 0
M  V30 7601 H 738.953 2.30485 -7.24417 0
M  V30 7602 N 740.528 1.15101 1.07655 0
M  V30 7603 C 741.491 0.847625 2.12951 0
M  V30 7604 C 742.491 -0.151227 1.60087 0
M  V30 7605 O 743.681 0.0780399 1.74025 0
M  V30 7606 C 740.813 0.265 3.39868 0
M  V30 7607 H 742.006 1.7809 2.41296 0
M  V30 7608 H 739.559 0.958072 1.23494 0
M  V30 7609 H 740.294 -0.676625 3.17163 0
M  V30 7610 H 740.079 0.984554 3.79538 0
M  V30 7611 H 741.569 0.0702121 4.17541 0
M  V30 7612 N 742.006 -1.2595 0.947325 0
M  V30 7613 C 742.936 -2.28521 0.479604 0
M  V30 7614 C 743.917 -1.63469 -0.470293 0
M  V30 7615 O 745.102 -1.90627 -0.370824 0
M  V30 7616 C 742.232 -3.46397 -0.250289 0
M  V30 7617 C 741.186 -4.23578 0.613643 0
M  V30 7618 C 740.512 -5.34131 -0.246568 0
M  V30 7619 C 741.812 -4.86979 1.88809 0
M  V30 7620 H 743.506 -2.67895 1.33688 0
M  V30 7621 H 741.052 -1.28783 0.644274 0
M  V30 7622 H 743.005 -4.17269 -0.588576 0
M  V30 7623 H 741.729 -3.05993 -1.14175 0
M  V30 7624 H 740.388 -3.54478 0.93491 0
M  V30 7625 H 740.036 -4.89968 -1.13756 0
M  V30 7626 H 739.736 -5.86683 0.328123 0
M  V30 7627 H 741.26 -6.07839 -0.579986 0
M  V30 7628 H 742.674 -5.50034 1.61666 0
M  V30 7629 H 741.071 -5.49675 2.40784 0
M  V30 7630 H 742.141 -4.09575 2.5957 0
M  V30 7631 N 743.484 -0.715051 -1.40445 0
M  V30 7632 C 744.447 -0.0708726 -2.2909 0
M  V30 7633 C 745.447 0.687926 -1.45342 0
M  V30 7634 O 746.637 0.519908 -1.66261 0
M  V30 7635 C 743.769 0.909528 -3.28543 0
M  V30 7636 H 744.962 -0.851611 -2.87555 0
M  V30 7637 H 742.515 -0.479674 -1.48758 0
M  V30 7638 H 743.25 1.71734 -2.75096 0
M  V30 7639 H 743.035 0.368318 -3.90366 0
M  V30 7640 H 744.525 1.35744 -3.94922 0
M  V30 7641 N 744.962 1.50701 -0.461195 0
M  V30 7642 C 745.892 2.31182 0.328184 0
M  V30 7643 C 746.873 1.37644 0.999408 0
M  V30 7644 O 748.058 1.66565 0.99848 0
M  V30 7645 C 745.188 3.17113 1.41621 0
M  V30 7646 C 744.142 4.19124 0.867148 0
M  V30 7647 C 743.468 4.93728 2.05272 0
M  V30 7648 C 744.768 5.22174 -0.114808 0
M  V30 7649 H 746.462 2.97423 -0.343501 0
M  V30 7650 H 744.008 1.43033 -0.166641 0
M  V30 7651 H 745.961 3.72208 1.97584 0
M  V30 7652 H 744.685 2.48739 2.11652 0
M  V30 7653 H 743.344 3.65116 0.329557 0
M  V30 7654 H 742.992 4.21835 2.73978 0
M  V30 7655 H 742.692 5.62724 1.69161 0
M  V30 7656 H 744.216 5.51654 2.61744 0
M  V30 7657 H 745.63 5.72198 0.355316 0
M  V30 7658 H 744.027 5.98833 -0.389689 0
M  V30 7659 H 745.097 4.7353 -1.04391 0
M  V30 7660 N 746.441 0.193421 1.56409 0
M  V30 7661 C 747.669 -0.451438 2.01915 0
M  V30 7662 C 748.084 -1.55306 1.07357 0
M  V30 7663 O 747.441 -1.82333 0.0781512 0
M  V30 7664 C 747.492 -1.00931 3.47124 0
M  V30 7665 O 747.213 0.0483623 4.38073 0
M  V30 7666 C 748.714 -1.73021 4.0814 0
M  V30 7667 H 745.934 -0.113495 0.661332 0
M  V30 7668 H 748.478 0.301636 2.02263 0
M  V30 7669 H 746.633 -1.71277 3.47481 0
M  V30 7670 H 747.047 -0.366644 5.23217 0
M  V30 7671 H 748.521 -2.07289 5.11601 0
M  V30 7672 H 748.998 -2.6333 3.51502 0
M  V30 7673 H 749.604 -1.07264 4.11551 0
M  V30 7674 N 747.919 -1.57396 -0.0801906 0
M  V30 7675 C 749.165 -1.87113 -0.782083 0
M  V30 7676 C 749.498 -0.78458 -1.77646 0
M  V30 7677 O 748.773 0.205993 -1.93406 0
M  V30 7678 C 749.056 -3.27483 -1.49756 0
M  V30 7679 C 748.909 -4.46782 -0.520171 0
M  V30 7680 C 750.228 -3.65965 -2.44454 0
M  V30 7681 H 747.347 -0.680559 -0.282858 0
M  V30 7682 H 749.989 -1.89946 -0.0454139 0
M  V30 7683 H 748.139 -3.25199 -2.12551 0
M  V30 7684 H 749.811 -4.61187 0.101919 0
M  V30 7685 H 748.054 -4.33485 0.165219 0
M  V30 7686 H 748.725 -5.41761 -1.05824 0
M  V30 7687 H 751.201 -3.69289 -1.91742 0
M  V30 7688 H 750.077 -4.65086 -2.91524 0
M  V30 7689 H 750.338 -2.95446 -3.28883 0
M  V30 7690 N 749.397 0.351382 -1.53633 0
M  V30 7691 C 750.643 1.09411 -1.70754 0
M  V30 7692 C 750.976 1.88544 -0.465293 0
M  V30 7693 O 750.251 1.86923 0.537608 0
M  V30 7694 C 750.534 2.04173 -2.96623 0
M  V30 7695 C 750.387 1.28556 -4.31038 0
M  V30 7696 C 751.706 3.04102 -3.18136 0
M  V30 7697 H 748.825 0.396373 -0.621335 0
M  V30 7698 H 751.467 0.373464 -1.86293 0
M  V30 7699 H 749.617 2.65625 -2.83506 0
M  V30 7700 H 751.289 0.697786 -4.55992 0
M  V30 7701 H 749.532 0.587498 -4.29803 0
M  V30 7702 H 750.203 1.97989 -5.15271 0
M  V30 7703 H 752.679 2.5276 -3.30532 0
M  V30 7704 H 751.555 3.67616 -4.07615 0
M  V30 7705 H 751.816 3.75053 -2.34068 0
M  V30 7706 N 750.875 1.45233 0.611969 0
M  V30 7707 C 752.115 1.50558 1.38245 0
M  V30 7708 C 752.479 0.141959 1.91474 0
M  V30 7709 O 753.68 0.0698926 2.68709 0
M  V30 7710 C 751.951 2.55136 2.50281 0
M  V30 7711 S 753.51 2.79652 3.38142 0
M  V30 7712 H 750.328 0.532281 0.471378 0
M  V30 7713 H 752.93 1.82285 0.706578 0
M  V30 7714 H 751.634 3.52888 2.09518 0
M  V30 7715 H 751.165 2.25045 3.22674 0
M  V30 7716 H 753.18 2.12699 4.48301 0
M  V30 7717 N 752.353 -0.854086 1.3245 0
M  V30 7718 C 753.316 -1.94427 1.21371 0
M  V30 7719 C 754.316 -1.60219 0.136613 0
M  V30 7720 O 755.506 -1.69846 0.387057 0
M  V30 7721 C 752.638 -3.29698 0.866701 0
M  V30 7722 H 753.831 -2.05679 2.18257 0
M  V30 7723 H 751.384 -1.04434 1.1629 0
M  V30 7724 H 752.119 -3.24145 -0.100319 0
M  V30 7725 H 751.904 -3.55903 1.64545 0
M  V30 7726 H 753.394 -4.09599 0.813515 0
M  V30 7727 N 753.831 -1.1567 -1.07043 0
M  V30 7728 C 754.794 -0.858906 -2.12498 0
M  V30 7729 C 755.794 0.142735 -1.60165 0
M  V30 7730 O 756.984 -0.0872678 -1.73981 0
M  V30 7731 C 754.116 -0.283021 -3.39723 0
M  V30 7732 H 755.309 -1.79368 -2.40348 0
M  V30 7733 H 752.862 -0.964608 -1.22984 0
M  V30 7734 H 753.597 0.659796 -3.17517 0
M  V30 7735 H 753.382 -1.00467 -3.7901 0
M  V30 7736 H 754.872 -0.0923543 -4.17498 0
M  V30 7737 N 755.309 1.25446 -0.953992 0
M  V30 7738 C 756.557 1.92762 -0.607227 0
M  V30 7739 C 756.878 1.7509 0.858399 0
M  V30 7740 O 756.148 1.11416 1.61132 0
M  V30 7741 H 754.728 0.713377 -0.221591 0
M  V30 7742 H 757.39 1.52625 -1.21209 0
M  V30 7743 H 756.486 3.00695 -0.835998 0
M  V30 7744 N 756.787 0.722489 1.40064 0
M  V30 7745 C 757.75 0.0830209 2.2905 0
M  V30 7746 C 758.75 -0.680208 1.45705 0
M  V30 7747 O 759.94 -0.511084 1.66534 0
M  V30 7748 C 757.072 -0.892092 3.29021 0
M  V30 7749 H 758.265 0.866848 2.87099 0
M  V30 7750 H 755.818 0.487556 1.48501 0
M  V30 7751 H 756.553 -1.70273 2.76003 0
M  V30 7752 H 756.338 -0.34761 3.90556 0
M  V30 7753 H 757.828 -1.33648 3.95636 0
M  V30 7754 N 758.265 -1.50454 0.469181 0
M  V30 7755 C 759.175 -2.32248 -0.331349 0
M  V30 7756 C 760.191 -1.42548 -0.997807 0
M  V30 7757 O 761.367 -1.75602 -0.9862 0
M  V30 7758 C 758.432 -3.17171 -1.40012 0
M  V30 7759 C 757.493 -4.2269 -0.750463 0
M  V30 7760 C 756.726 -5.03554 -1.76831 0
M  V30 7761 O 756.949 -4.85469 -2.99459 0
M  V30 7762 O 755.883 -5.86767 -1.3412 0
M  V30 7763 H 759.709 -3.01821 0.337279 0
M  V30 7764 H 757.294 -1.47602 0.231066 0
M  V30 7765 H 759.176 -3.69871 -2.01924 0
M  V30 7766 H 757.851 -2.50328 -2.05226 0
M  V30 7767 H 756.758 -3.73986 -0.0924446 0
M  V30 7768 H 758.091 -4.91997 -0.14131 0
M  V30 7769 N 759.743 -0.201713 -1.56304 0
M  V30 7770 C 761.154 0.309711 -1.84113 0
M  V30 7771 C 761.505 1.60912 -1.12258 0
M  V30 7772 O 760.63 2.12937 -0.385587 0
M  V30 7773 C 761.225 0.568706 -3.33993 0
M  V30 7774 C 759.784 1.02448 -3.6219 0
M  V30 7775 C 758.931 0.0766842 -2.77194 0
M  V30 7776 H 761.882 -0.425356 -1.52893 0
M  V30 7777 H 761.903 1.41721 -3.53122 0
M  V30 7778 H 761.415 -0.37719 -3.86263 0
M  V30 7779 H 759.516 1.98443 -3.15359 0
M  V30 7780 H 759.629 0.912619 -4.70328 0
M  V30 7781 H 757.993 0.579809 -2.48013 0
M  V30 7782 H 758.776 -0.863774 -3.32256 0
M  V30 7783 N 761.222 1.57436 0.0718424 0
M  V30 7784 C 762.152 2.06724 1.08571 0
M  V30 7785 C 763.133 0.960731 1.40371 0
M  V30 7786 O 764.318 1.23345 1.49999 0
M  V30 7787 C 761.448 2.51112 2.39916 0
M  V30 7788 C 760.402 3.65639 2.22469 0
M  V30 7789 C 759.728 3.96082 3.59198 0
M  V30 7790 C 761.028 4.95687 1.64596 0
M  V30 7791 H 762.722 2.91679 0.675569 0
M  V30 7792 H 760.268 1.40319 0.32352 0
M  V30 7793 H 762.221 2.84206 3.11135 0
M  V30 7794 H 760.945 1.63186 2.8291 0
M  V30 7795 H 759.604 3.32828 1.53691 0
M  V30 7796 H 759.252 3.05287 3.99761 0
M  V30 7797 H 758.952 4.73199 3.48362 0
M  V30 7798 H 760.476 4.31672 4.31847 0
M  V30 7799 H 761.89 5.27011 2.25681 0
M  V30 7800 H 760.287 5.77126 1.64457 0
M  V30 7801 H 761.357 4.8108 0.60744 0
M  V30 7802 N 762.7 -0.34323 1.53817 0
M  V30 7803 C 764.111 -0.918823 1.62525 0
M  V30 7804 C 764.462 -1.89542 0.506765 0
M  V30 7805 O 763.587 -2.13326 -0.363441 0
M  V30 7806 C 764.182 -1.67326 2.94597 0
M  V30 7807 C 762.741 -2.19786 3.05567 0
M  V30 7808 C 761.888 -1.01708 2.57974 0
M  V30 7809 H 764.839 -0.121358 1.58235 0
M  V30 7810 H 764.86 -2.53615 2.83654 0
M  V30 7811 H 764.372 -0.962223 3.75983 0
M  V30 7812 H 762.473 -2.94065 2.28816 0
M  V30 7813 H 762.586 -2.46135 4.1104 0
M  V30 7814 H 760.95 -1.39058 2.13389 0
M  V30 7815 H 761.733 -0.320671 3.41799 0
M  V30 7816 N 764.178 -1.45556 -0.604258 0
M  V30 7817 C 765.594 -1.30035 -0.925368 0
M  V30 7818 C 765.794 -0.255833 -1.99869 0
M  V30 7819 O 764.85 0.349076 -2.50075 0
M  V30 7820 C 766.163 -2.68028 -1.36314 0
M  V30 7821 C 767.711 -2.75951 -1.47717 0
M  V30 7822 C 768.186 -4.14476 -1.94868 0
M  V30 7823 N 769.677 -4.16787 -2.02097 0
M  V30 7824 C 770.412 -5.20845 -2.39809 0
M  V30 7825 N 769.908 -6.35246 -2.76467 0
M  V30 7826 N 771.701 -5.08204 -2.40177 0
M  V30 7827 H 763.852 -2.1214 0.10512 0
M  V30 7828 H 766.115 -0.947871 -0.0156303 0
M  V30 7829 H 765.821 -3.45667 -0.648628 0
M  V30 7830 H 765.695 -2.96711 -2.329 0
M  V30 7831 H 768.082 -1.98613 -2.18258 0
M  V30 7832 H 768.163 -2.50977 -0.494371 0
M  V30 7833 H 767.807 -4.923 -1.24912 0
M  V30 7834 H 767.737 -4.36843 -2.94068 0
M  V30 7835 H 770.228 -3.34233 -1.76343 0
M  V30 7836 H 770.541 -7.10438 -3.04134 0
M  V30 7837 H 768.886 -6.38642 -2.74155 0
M  V30 7838 H 772.077 -4.17874 -2.10947 0
M  V30 7839 H 772.25 -5.89417 -2.69242 0
M  V30 7840 N 765.656 0.84705 -1.32902 0
M  V30 7841 C 766.604 1.97765 -1.22441 0
M  V30 7842 C 767.598 1.68919 -0.127546 0
M  V30 7843 O 768.804 1.77633 -0.290973 0
M  V30 7844 H 765.179 0.649072 -0.379748 0
M  V30 7845 H 767.15 2.03713 -2.18044 0
M  V30 7846 C 765.899 3.33834 -0.972125 0
M  V30 7847 H 765.222 3.56564 -1.80837 0
M  V30 7848 H 766.662 4.13467 -0.939209 0
M  V30 7849 C 765.121 3.35328 0.325059 0
M  V30 7850 O 765.651 3.78887 1.33445 0
M  V30 7851 N 763.857 2.88488 0.349718 0
M  V30 7852 H 763.404 2.53234 -0.472236 0
M  V30 7853 H 763.362 2.8987 1.21748 0
M  V30 7854 N 767.134 1.16236 1.06428 0
M  V30 7855 C 768.382 0.941171 1.78847 0
M  V30 7856 C 768.703 -0.53248 1.87589 0
M  V30 7857 O 767.973 -1.38686 1.38358 0
M  V30 7858 H 766.553 0.345228 0.66244 0
M  V30 7859 H 769.215 1.46479 1.28569 0
M  V30 7860 H 768.311 1.35871 2.80972 0
M  V30 7861 N 768.612 -1.24939 0.960631 0
M  V30 7862 C 769.889 -1.88118 0.535807 0
M  V30 7863 C 770.269 -1.86605 -0.987009 0
M  V30 7864 O 769.617 -1.33375 -1.85536 0
M  V30 7865 C 769.827 -3.30565 1.11927 0
M  V30 7866 C 771.175 -4.07296 1.19981 0
M  V30 7867 O 772.199 -3.39709 1.07126 0
M  V30 7868 O 771.058 -5.28206 1.40218 0
M  V30 7869 H 768.152 -0.807698 0.177631 0
M  V30 7870 H 770.698 -1.32964 1.05445 0
M  V30 7871 H 769.47 -3.26128 2.16231 0
M  V30 7872 H 769.093 -3.93284 0.584245 0
M  V30 7873 N 770.09 -0.729906 -1.39679 0
M  V30 7874 C 771.022 -0.0470588 -2.29152 0
M  V30 7875 C 772.035 0.708808 -1.4656 0
M  V30 7876 O 773.224 0.553815 -1.69691 0
M  V30 7877 C 770.324 0.957612 -3.25089 0
M  V30 7878 C 769.497 0.264321 -4.36601 0
M  V30 7879 C 768.556 1.17638 -5.12882 0
M  V30 7880 O 767.582 0.655777 -5.6541 0
M  V30 7881 N 768.784 2.50649 -5.23598 0
M  V30 7882 H 771.549 -0.815364 -2.88395 0
M  V30 7883 H 769.11 -0.578707 -1.51204 0
M  V30 7884 H 771.102 1.57026 -3.72995 0
M  V30 7885 H 769.672 1.62716 -2.66912 0
M  V30 7886 H 768.892 -0.528732 -3.90638 0
M  V30 7887 H 770.18 -0.216344 -5.0834 0
M  V30 7888 H 769.578 2.95427 -4.82431 0
M  V30 7889 H 768.135 3.07022 -5.74961 0
M  V30 7890 N 771.568 1.50203 -0.477153 0
M  V30 7891 C 772.814 2.03286 0.0679442 0
M  V30 7892 C 773.169 1.35227 1.36863 0
M  V30 7893 O 772.462 0.471029 1.8572 0
M  V30 7894 C 772.656 3.56127 0.301325 0
M  V30 7895 C 772.485 4.38999 -0.975188 0
M  V30 7896 C 771.255 4.81889 -1.52022 0
M  V30 7897 C 773.453 4.79013 -1.8722 0
M  V30 7898 N 771.435 5.49105 -2.74513 0
M  V30 7899 C 772.806 5.45701 -2.94296 0
M  V30 7900 C 774.861 4.60967 -1.88185 0
M  V30 7901 C 773.564 5.96255 -4.02333 0
M  V30 7902 C 775.59 5.12466 -2.95183 0
M  V30 7903 C 774.952 5.79134 -4.00977 0
M  V30 7904 H 771.051 0.78185 -0.015318 0
M  V30 7905 H 773.635 1.83646 -0.64671 0
M  V30 7906 H 771.806 3.75702 0.985021 0
M  V30 7907 H 773.538 3.95859 0.841304 0
M  V30 7908 H 770.293 4.61387 -1.06858 0
M  V30 7909 H 770.717 5.87315 -3.36734 0
M  V30 7910 H 775.359 4.0885 -1.07708 0
M  V30 7911 H 773.077 6.47406 -4.83623 0
M  V30 7912 H 776.663 5.00329 -2.96921 0
M  V30 7913 H 775.543 6.18265 -4.82409 0
M  V30 7914 N 773.046 0.209999 1.56195 0
M  V30 7915 C 773.996 -0.717978 2.164 0
M  V30 7916 C 774.98 -1.16577 1.10899 0
M  V30 7917 O 776.172 -1.12169 1.3692 0
M  V30 7918 C 773.301 -1.93091 2.8385 0
M  V30 7919 C 772.387 -1.50333 3.96561 0
M  V30 7920 N 772.778 -0.787621 4.9963 0
M  V30 7921 C 771.076 -1.79151 4.08437 0
M  V30 7922 C 771.777 -0.571204 5.78889 0
M  V30 7923 N 770.753 -1.12444 5.31843 0
M  V30 7924 H 774.555 -0.162603 2.9345 0
M  V30 7925 H 772.069 0.0107928 1.62396 0
M  V30 7926 H 774.066 -2.60635 3.25384 0
M  V30 7927 H 772.726 -2.49087 2.08293 0
M  V30 7928 H 773.737 -0.441513 5.16015 0
M  V30 7929 H 770.414 -2.36549 3.44022 0
M  V30 7930 H 771.804 -0.00237941 6.719 0
M  V30 7931 N 774.524 -1.57472 -0.0634922 0
M  V30 7932 C 775.434 -2.07621 -1.09227 0
M  V30 7933 C 776.45 -1.00746 -1.41867 0
M  V30 7934 O 777.626 -1.32269 -1.51878 0
M  V30 7935 C 774.691 -2.51707 -2.38421 0
M  V30 7936 C 773.752 -3.72917 -2.12676 0
M  V30 7937 C 772.985 -4.14891 -3.3571 0
M  V30 7938 O 773.208 -3.56663 -4.45137 0
M  V30 7939 O 772.142 -5.07616 -3.23434 0
M  V30 7940 H 775.968 -2.95612 -0.696205 0
M  V30 7941 H 773.553 -1.46787 -0.27819 0
M  V30 7942 H 775.435 -2.80547 -3.14438 0
M  V30 7943 H 774.11 -1.66842 -2.77391 0
M  V30 7944 H 773.017 -3.49148 -1.34337 0
M  V30 7945 H 774.35 -4.5866 -1.78583 0
M  V30 7946 N 776.003 0.335068 -1.53997 0
M  V30 7947 C 777.252 1.07182 -1.70865 0
M  V30 7948 C 777.565 1.89541 -0.483078 0
M  V30 7949 O 778.771 2.66219 -0.532879 0
M  V30 7950 C 777.227 1.95497 -3.02174 0
M  V30 7951 C 776.835 1.18304 -4.32097 0
M  V30 7952 C 778.579 2.68978 -3.28407 0
M  V30 7953 C 776.486 2.05699 -5.54474 0
M  V30 7954 H 775.416 0.403857 -0.636722 0
M  V30 7955 H 778.067 0.33076 -1.80494 0
M  V30 7956 H 776.449 2.73456 -2.86423 0
M  V30 7957 H 777.623 0.451969 -4.58578 0
M  V30 7958 H 775.938 0.565556 -4.12541 0
M  V30 7959 H 778.535 3.34651 -4.17029 0
M  V30 7960 H 778.878 3.36 -2.45784 0
M  V30 7961 H 779.411 1.98087 -3.44973 0
M  V30 7962 H 776.15 1.43204 -6.39666 0
M  V30 7963 H 775.67 2.76572 -5.32229 0
M  V30 7964 H 777.349 2.64554 -5.90441 0
M  V30 7965 N 777.481 1.45874 0.596531 0
M  V30 7966 C 778.897 1.30524 0.918459 0
M  V30 7967 C 779.097 0.266429 1.99731 0
M  V30 7968 O 778.153 -0.335809 2.50257 0
M  V30 7969 C 779.466 2.68747 1.3489 0
M  V30 7970 C 781.014 2.7673 1.46251 0
M  V30 7971 C 781.489 4.15504 1.92667 0
M  V30 7972 N 782.98 4.17853 1.99883 0
M  V30 7973 C 783.715 5.22109 2.37044 0
M  V30 7974 N 783.211 6.36704 2.73094 0
M  V30 7975 N 785.004 5.09471 2.37479 0
M  V30 7976 H 777.155 2.12081 -0.116368 0
M  V30 7977 H 779.418 0.947941 0.0106033 0
M  V30 7978 H 779.124 3.46006 0.630288 0
M  V30 7979 H 778.998 2.97942 2.31323 0
M  V30 7980 H 781.385 1.99768 2.17202 0
M  V30 7981 H 781.466 2.51236 0.481054 0
M  V30 7982 H 781.11 4.92956 1.223 0
M  V30 7983 H 781.04 4.38396 2.91747 0
M  V30 7984 H 783.531 3.35163 1.74568 0
M  V30 7985 H 783.844 7.12041 3.00362 0
M  V30 7986 H 782.189 6.40087 2.70764 0
M  V30 7987 H 785.38 4.18987 2.08728 0
M  V30 7988 H 785.553 5.90837 2.66112 0
M  V30 7989 N 778.959 -0.83999 1.33349 0
M  V30 7990 C 779.891 -1.95678 1.19344 0
M  V30 7991 C 780.904 -1.62322 0.124692 0
M  V30 7992 O 782.093 -1.74516 0.375012 0
M  V30 7993 C 779.193 -3.29133 0.807771 0
M  V30 7994 C 778.366 -3.9063 1.96792 0
M  V30 7995 C 777.425 -5.02438 1.56341 0
M  V30 7996 O 776.451 -5.21646 2.27759 0
M  V30 7997 N 777.653 -5.78612 0.467767 0
M  V30 7998 H 780.418 -2.08229 2.15548 0
M  V30 7999 H 777.979 -1.01566 1.26079 0
M  V30 8000 H 779.971 -4.01355 0.519282 0
M  V30 8001 H 778.541 -3.12535 -0.063555 0
M  V30 8002 H 777.761 -3.11011 2.4221 0
M  V30 8003 H 779.049 -4.2845 2.74422 0
M  V30 8004 H 778.447 -5.65559 -0.126324 0
M  V30 8005 H 777.004 -6.51362 0.238945 0
M  V30 8006 N 780.437 -1.16799 -1.0581 0
M  V30 8007 C 781.685 -0.950642 -1.78346 0
M  V30 8008 C 782.006 0.522524 -1.87869 0
M  V30 8009 O 781.276 1.3795 -1.39092 0
M  V30 8010 H 779.856 -0.348736 -0.6606 0
M  V30 8011 H 782.518 -1.47158 -1.27791 0
M  V30 8012 H 781.614 -1.37359 -2.80248 0
M  V30 8013 N 781.915 1.24427 -0.967243 0
M  V30 8014 C 783.331 1.44684 -0.6737 0
M  V30 8015 C 783.531 1.86429 0.764625 0
M  V30 8016 O 782.587 2.00211 1.53857 0
M  V30 8017 C 783.9 2.509 -1.6574 0
M  V30 8018 C 785.448 2.64728 -1.66998 0
M  V30 8019 C 785.923 3.7414 -2.64165 0
M  V30 8020 N 787.414 3.81567 -2.62604 0
M  V30 8021 C 788.149 4.6575 -3.34462 0
M  V30 8022 N 787.645 5.54124 -4.15835 0
M  V30 8023 N 789.438 4.59827 -3.23288 0
M  V30 8024 H 781.589 0.956276 -1.89655 0
M  V30 8025 H 783.852 0.48171 -0.816492 0
M  V30 8026 H 783.558 2.27113 -2.68538 0
M  V30 8027 H 783.432 3.4905 -1.42981 0
M  V30 8028 H 785.819 2.87872 -0.649121 0
M  V30 8029 H 785.9 1.66936 -1.93819 0
M  V30 8030 H 785.544 3.51745 -3.66384 0
M  V30 8031 H 785.474 4.71444 -2.34623 0
M  V30 8032 H 787.965 3.18403 -2.03539 0
M  V30 8033 H 788.278 6.15316 -4.67553 0
M  V30 8034 H 786.623 5.53791 -4.19929 0
M  V30 8035 H 789.814 3.898 -2.59179 0
M  V30 8036 H 789.987 5.25208 -3.79553 0
M  V30 8037 N 783.393 0.737304 1.3929 0
M  V30 8038 C 784.323 0.113988 2.33222 0
M  V30 8039 C 785.304 -0.721695 1.54031 0
M  V30 8040 O 786.489 -0.666206 1.82415 0
M  V30 8041 C 783.619 -0.792319 3.38141 0
M  V30 8042 C 782.573 -0.0606178 4.27957 0
M  V30 8043 C 781.899 -1.08409 5.23595 0
M  V30 8044 C 783.199 1.09817 5.10625 0
M  V30 8045 H 784.893 0.898611 2.85596 0
M  V30 8046 H 782.439 0.433571 1.37318 0
M  V30 8047 H 784.392 -1.23793 4.02807 0
M  V30 8048 H 783.116 -1.60908 2.84211 0
M  V30 8049 H 781.775 0.365393 3.64775 0
M  V30 8050 H 781.423 -1.89449 4.6596 0
M  V30 8051 H 781.123 -0.599269 5.84536 0
M  V30 8052 H 782.647 -1.52936 5.91137 0
M  V30 8053 H 784.061 0.730892 5.68622 0
M  V30 8054 H 782.458 1.51278 5.80719 0
M  V30 8055 H 783.528 1.91878 4.45321 0
M  V30 8056 N 784.871 -1.49948 0.485112 0
M  V30 8057 C 786.282 -1.8667 0.0334041 0
M  V30 8058 C 786.633 -1.3988 -1.37579 0
M  V30 8059 O 785.758 -0.769788 -2.02245 0
M  V30 8060 C 786.353 -3.38757 0.0538426 0
M  V30 8061 C 784.912 -3.74839 -0.342453 0
M  V30 8062 C 784.059 -2.73894 0.433281 0
M  V30 8063 H 787.01 -1.42492 0.698699 0
M  V30 8064 H 787.031 -3.73132 -0.745146 0
M  V30 8065 H 786.543 -3.72782 1.07959 0
M  V30 8066 H 784.644 -3.46419 -1.37203 0
M  V30 8067 H 784.757 -4.79088 -0.0340503 0
M  V30 8068 H 783.121 -2.54441 -0.114849 0
M  V30 8069 H 783.904 -3.10763 1.45881 0
M  V30 8070 N 786.349 -0.21828 -1.56081 0
M  V30 8071 C 787.765 0.137168 -1.59009 0
M  V30 8072 C 787.965 1.59215 -1.23503 0
M  V30 8073 O 787.021 2.33178 -0.968716 0
M  V30 8074 C 788.334 -0.186162 -3.00123 0
M  V30 8075 C 789.882 -0.128135 -3.12738 0
M  V30 8076 C 790.357 -0.425094 -4.56023 0
M  V30 8077 N 791.848 -0.374547 -4.61683 0
M  V30 8078 C 792.583 -0.57786 -5.70481 0
M  V30 8079 N 792.079 -0.842771 -6.87655 0
M  V30 8080 N 793.872 -0.510521 -5.59777 0
M  V30 8081 H 786.023 -1.16746 -1.77437 0
M  V30 8082 H 788.286 -0.467706 -0.824594 0
M  V30 8083 H 787.992 -1.19589 -3.30744 0
M  V30 8084 H 787.866 0.500388 -3.73866 0
M  V30 8085 H 790.253 0.872224 -2.81915 0
M  V30 8086 H 790.334 -0.848112 -2.41331 0
M  V30 8087 H 789.978 -1.42288 -4.87562 0
M  V30 8088 H 789.908 0.316038 -5.25651 0
M  V30 8089 H 792.399 -0.177356 -3.77484 0
M  V30 8090 H 792.712 -0.986095 -7.66483 0
M  V30 8091 H 791.057 -0.879929 -6.89407 0
M  V30 8092 H 794.248 -0.303813 -4.67113 0
M  V30 8093 H 794.421 -0.672378 -6.44502 0
M  V30 8094 N 787.827 1.57504 0.0551401 0
M  V30 8095 C 789.076 1.87237 0.750009 0
M  V30 8096 C 789.389 0.813268 1.77891 0
M  V30 8097 O 790.595 0.99898 2.52453 0
M  V30 8098 C 789.051 3.32187 1.38491 0
M  V30 8099 C 788.659 4.46267 0.393707 0
M  V30 8100 C 790.403 3.71101 2.06117 0
M  V30 8101 C 788.31 5.82265 1.03547 0
M  V30 8102 H 787.24 0.698524 0.283866 0
M  V30 8103 H 789.891 1.835 0.00365997 0
M  V30 8104 H 788.273 3.30588 2.18008 0
M  V30 8105 H 789.447 4.59289 -0.372865 0
M  V30 8106 H 787.762 4.16015 -0.17902 0
M  V30 8107 H 790.359 4.70012 2.54937 0
M  V30 8108 H 790.702 3.01751 2.86796 0
M  V30 8109 H 791.235 3.74762 1.33409 0
M  V30 8110 H 787.974 6.54949 0.268644 0
M  V30 8111 H 787.494 5.73012 1.7725 0
M  V30 8112 H 789.173 6.28148 1.55047 0
M  V30 8113 N 789.305 -0.326896 1.54172 0
M  V30 8114 C 790.716 -0.901533 1.63491 0
M  V30 8115 C 791.067 -1.88994 0.52684 0
M  V30 8116 O 790.192 -2.137 -0.340794 0
M  V30 8117 C 790.787 -1.64192 2.96355 0
M  V30 8118 C 789.346 -2.16533 3.07881 0
M  V30 8119 C 788.493 -0.98966 2.59039 0
M  V30 8120 H 791.444 -0.104568 1.58355 0
M  V30 8121 H 791.465 -2.50592 2.86328 0
M  V30 8122 H 790.977 -0.922291 3.76982 0
M  V30 8123 H 789.078 -2.91622 2.31922 0
M  V30 8124 H 789.191 -2.41762 4.13628 0
M  V30 8125 H 787.555 -1.36787 2.14852 0
M  V30 8126 H 788.338 -0.284401 3.4212 0
M  V30 8127 N 790.784 -1.46188 -0.588786 0
M  V30 8128 C 791.716 -1.52319 -1.71265 0
M  V30 8129 C 792.729 -0.412096 -1.57498 0
M  V30 8130 O 793.918 -0.680146 -1.65034 0
M  V30 8131 C 791.018 -1.38164 -3.09458 0
M  V30 8132 C 790.191 -2.63284 -3.49286 0
M  V30 8133 C 789.25 -2.43415 -4.66514 0
M  V30 8134 O 788.276 -3.17113 -4.72682 0
M  V30 8135 N 789.478 -1.49187 -5.61002 0
M  V30 8136 H 792.243 -2.49219 -1.66463 0
M  V30 8137 H 789.804 -1.42167 -0.774601 0
M  V30 8138 H 791.796 -1.22653 -3.85666 0
M  V30 8139 H 790.366 -0.494678 -3.08661 0
M  V30 8140 H 789.586 -2.93779 -2.62845 0
M  V30 8141 H 790.874 -3.46413 -3.7266 0
M  V30 8142 H 790.272 -0.884027 -5.5875 0
M  V30 8143 H 788.829 -1.39642 -6.36666 0
M  V30 8144 N 792.262 0.832906 -1.33792 0
M  V30 8145 C 793.508 1.59089 -1.25772 0
M  V30 8146 C 793.841 1.93414 0.174601 0
M  V30 8147 O 793.116 1.59195 1.11746 0
M  V30 8148 C 793.399 2.89699 -2.13885 0
M  V30 8149 C 793.252 2.62017 -3.65605 0
M  V30 8150 C 794.571 3.91182 -2.01654 0
M  V30 8151 H 791.69 0.577232 -0.458227 0
M  V30 8152 H 794.332 0.960227 -1.6395 0
M  V30 8153 H 792.482 3.4352 -1.81456 0
M  V30 8154 H 794.154 2.14582 -4.08353 0
M  V30 8155 H 792.397 1.95621 -3.87189 0
M  V30 8156 H 793.068 3.55112 -4.2261 0
M  V30 8157 H 795.544 3.46684 -2.30107 0
M  V30 8158 H 794.42 4.80391 -2.65548 0
M  V30 8159 H 794.681 4.30861 -0.990536 0
M  V30 8160 N 793.74 1.17359 1.05189 0
M  V30 8161 C 794.67 0.91365 2.14883 0
M  V30 8162 C 795.651 -0.144365 1.69486 0
M  V30 8163 O 796.836 0.00587861 1.94199 0
M  V30 8164 C 793.966 0.426196 3.44675 0
M  V30 8165 C 792.92 1.4234 4.03638 0
M  V30 8166 C 792.246 0.793902 5.28773 0
M  V30 8167 C 793.546 2.7966 4.41121 0
M  V30 8168 H 795.24 1.831 2.36885 0
M  V30 8169 H 792.786 0.881781 1.13845 0
M  V30 8170 H 794.739 0.231767 4.20762 0
M  V30 8171 H 793.463 -0.526693 3.22325 0
M  V30 8172 H 792.122 1.60457 3.2962 0
M  V30 8173 H 791.77 -0.165824 5.02727 0
M  V30 8174 H 791.47 1.45959 5.69183 0
M  V30 8175 H 792.994 0.609747 6.07548 0
M  V30 8176 H 794.408 2.6526 5.08242 0
M  V30 8177 H 792.805 3.42807 4.92548 0
M  V30 8178 H 793.875 3.34068 3.51464 0
M  V30 8179 N 795.218 -1.23913 0.973828 0
M  V30 8180 C 796.443 -1.96735 0.656511 0
M  V30 8181 C 796.868 -1.71682 -0.768571 0
M  V30 8182 O 796.226 -0.984267 -1.52256 0
M  V30 8183 C 796.274 -3.48004 0.944735 0
M  V30 8184 O 795.378 -4.12387 0.0333357 0
M  V30 8185 H 794.719 -0.616119 0.247575 0
M  V30 8186 H 797.249 -1.57525 1.30564 0
M  V30 8187 H 797.259 -3.98424 0.87876 0
M  V30 8188 H 795.934 -3.65567 1.98328 0
M  V30 8189 H 794.511 -3.72585 0.153157 0
M  V30 8190 N 796.696 -0.74468 -1.38897 0
M  V30 8191 C 797.628 -0.0713608 -2.29089 0
M  V30 8192 C 798.641 0.693224 -1.47303 0
M  V30 8193 O 799.83 0.535785 -1.70269 0
M  V30 8194 C 796.93 0.923078 -3.26087 0
M  V30 8195 C 796.103 0.217998 -4.36856 0
M  V30 8196 C 795.162 1.12192 -5.14101 0
M  V30 8197 O 794.188 0.595771 -5.66073 0
M  V30 8198 N 795.39 2.45082 -5.26227 0
M  V30 8199 H 798.155 -0.845906 -2.87514 0
M  V30 8200 H 795.716 -0.594712 -1.50581 0
M  V30 8201 H 797.708 1.53061 -3.74639 0
M  V30 8202 H 796.278 1.59876 -2.68623 0
M  V30 8203 H 795.498 -0.570134 -3.90055 0
M  V30 8204 H 796.786 -0.270248 -5.08082 0
M  V30 8205 H 796.184 2.90294 -4.85537 0
M  V30 8206 H 794.741 3.00907 -5.78185 0
M  V30 8207 N 798.174 1.49689 -0.493057 0
M  V30 8208 C 799.084 2.32746 0.294358 0
M  V30 8209 C 800.1 1.44117 0.975003 0
M  V30 8210 O 801.276 1.77149 0.958138 0
M  V30 8211 C 798.341 3.19358 1.34949 0
M  V30 8212 C 797.402 4.2383 0.683122 0
M  V30 8213 C 796.635 5.06303 1.68798 0
M  V30 8214 O 796.858 4.90172 2.91698 0
M  V30 8215 O 795.792 5.88826 1.24768 0
M  V30 8216 H 799.618 3.01247 -0.385254 0
M  V30 8217 H 797.203 1.47216 -0.254519 0
M  V30 8218 H 799.085 3.73037 1.96014 0
M  V30 8219 H 797.76 2.53561 2.01217 0
M  V30 8220 H 796.667 3.74086 0.0329351 0
M  V30 8221 H 798 4.9216 0.0630192 0
M  V30 8222 N 799.652 0.226554 1.55963 0
M  V30 8223 C 800.899 -0.403789 1.98433 0
M  V30 8224 C 801.227 -1.59416 1.1143 0
M  V30 8225 O 800.482 -1.95042 0.160389 0
M  V30 8226 C 800.781 -0.87642 3.46488 0
M  V30 8227 C 800.447 0.203973 4.50438 0
M  V30 8228 C 799.109 0.500754 4.78587 0
M  V30 8229 C 801.461 0.934396 5.12756 0
M  V30 8230 C 798.789 1.53239 5.66334 0
M  V30 8231 C 801.141 1.9554 6.0162 0
M  V30 8232 C 799.805 2.25905 6.28111 0
M  V30 8233 H 799.075 -0.147757 0.726119 0
M  V30 8234 H 801.722 0.330121 1.88633 0
M  V30 8235 H 800.027 -1.68918 3.53517 0
M  V30 8236 H 801.724 -1.37407 3.76723 0
M  V30 8237 H 798.314 -0.0374917 4.28584 0
M  V30 8238 H 802.498 0.718355 4.91074 0
M  V30 8239 H 797.754 1.77321 5.85122 0
M  V30 8240 H 801.928 2.52642 6.48957 0
M  V30 8241 H 799.555 3.05985 6.959 0
M  V30 8242 N 801.13 -1.57531 -0.0467866 0
M  V30 8243 C 802.358 -1.92696 -0.753371 0
M  V30 8244 C 802.773 -0.824792 -1.69831 0
M  V30 8245 O 802.13 0.200155 -1.81399 0
M  V30 8246 C 802.181 -3.27728 -1.52566 0
M  V30 8247 O 801.902 -4.3371 -0.618674 0
M  V30 8248 C 803.403 -3.77066 -2.33101 0
M  V30 8249 H 800.623 -0.636367 -0.212788 0
M  V30 8250 H 803.167 -2.04498 -0.00959361 0
M  V30 8251 H 801.322 -3.17378 -2.22148 0
M  V30 8252 H 801.736 -5.11548 -1.15839 0
M  V30 8253 H 803.21 -4.74109 -2.82709 0
M  V30 8254 H 803.687 -3.07348 -3.13741 0
M  V30 8255 H 804.293 -3.90442 -1.68628 0
M  V30 8256 N 802.608 0.318715 -1.54344 0
M  V30 8257 C 803.518 1.41535 -1.87097 0
M  V30 8258 C 804.534 1.56361 -0.763353 0
M  V30 8259 O 805.71 1.71365 -1.05811 0
M  V30 8260 C 802.775 2.76178 -2.09587 0
M  V30 8261 C 801.836 2.70486 -3.3337 0
M  V30 8262 C 801.069 3.98708 -3.54778 0
M  V30 8263 O 801.292 4.9721 -2.79532 0
M  V30 8264 O 800.226 4.01674 -4.48266 0
M  V30 8265 H 804.052 1.16764 -2.80357 0
M  V30 8266 H 801.637 0.51318 -1.4031 0
M  V30 8267 H 803.519 3.55873 -2.25682 0
M  V30 8268 H 802.194 3.00829 -1.19514 0
M  V30 8269 H 801.101 1.89325 -3.22656 0
M  V30 8270 H 802.434 2.50789 -4.23516 0
M  V30 8271 N 804.086 1.46499 0.581025 0
M  V30 8272 C 805.016 1.60052 1.70017 0
M  V30 8273 C 805.997 0.450788 1.64018 0
M  V30 8274 O 807.182 0.677237 1.82009 0
M  V30 8275 C 804.312 1.5921 3.08658 0
M  V30 8276 C 803.266 2.73169 3.29488 0
M  V30 8277 C 802.592 2.57389 4.68674 0
M  V30 8278 C 803.892 4.14978 3.1716 0
M  V30 8279 H 805.586 2.53735 1.5893 0
M  V30 8280 H 803.132 1.22113 0.763173 0
M  V30 8281 H 805.085 1.67285 3.86773 0
M  V30 8282 H 803.809 0.620718 3.20647 0
M  V30 8283 H 802.468 2.64566 2.53773 0
M  V30 8284 H 802.116 1.58331 4.77431 0
M  V30 8285 H 801.816 3.33826 4.83564 0
M  V30 8286 H 803.34 2.67358 5.48956 0
M  V30 8287 H 804.754 4.24684 3.85119 0
M  V30 8288 H 803.151 4.92016 3.4357 0
M  V30 8289 H 804.221 4.35016 2.14218 0
M  V30 8290 N 805.565 -0.825799 1.34232 0
M  V30 8291 C 806.495 -1.95151 1.28212 0
M  V30 8292 C 807.476 -1.69345 0.160123 0
M  V30 8293 O 808.661 -1.90983 0.352019 0
M  V30 8294 C 805.791 -3.31554 1.03388 0
M  V30 8295 C 804.745 -3.71793 2.12023 0
M  V30 8296 C 804.071 -5.06147 1.72392 0
M  V30 8297 C 805.371 -3.84193 3.53826 0
M  V30 8298 H 807.065 -2.00445 2.22401 0
M  V30 8299 H 804.611 -0.962996 1.07063 0
M  V30 8300 H 806.564 -4.09889 0.978225 0
M  V30 8301 H 805.288 -3.26551 0.0564142 0
M  V30 8302 H 803.947 -2.95731 2.16654 0
M  V30 8303 H 803.595 -4.97628 0.733137 0
M  V30 8304 H 803.295 -5.34041 2.451 0
M  V30 8305 H 804.819 -5.86943 1.68317 0
M  V30 8306 H 806.233 -4.52806 3.51624 0
M  V30 8307 H 804.63 -4.23538 4.2513 0
M  V30 8308 H 805.7 -2.86272 3.91377 0
M  V30 8309 N 807.043 -1.17915 -1.04565 0
M  V30 8310 C 807.99 -0.901605 -2.12461 0
M  V30 8311 C 808.96 0.157011 -1.65356 0
M  V30 8312 O 810.145 0.0184494 -1.90791 0
M  V30 8313 C 807.285 -0.42796 -3.42436 0
M  V30 8314 C 806.398 -1.55142 -4.03181 0
M  V30 8315 C 805.533 -1.03101 -5.21098 0
M  V30 8316 C 804.572 -2.1295 -5.73863 0
M  V30 8317 N 803.709 -1.62339 -6.83074 0
M  V30 8318 H 808.549 -1.82551 -2.3554 0
M  V30 8319 H 806.086 -0.910389 -1.15544 0
M  V30 8320 H 808.044 -0.134859 -4.16982 0
M  V30 8321 H 806.674 0.458977 -3.1952 0
M  V30 8322 H 805.726 -1.96011 -3.26012 0
M  V30 8323 H 807.038 -2.37968 -4.38375 0
M  V30 8324 H 806.192 -0.692132 -6.02739 0
M  V30 8325 H 804.931 -0.17227 -4.87396 0
M  V30 8326 H 803.936 -2.47687 -4.90847 0
M  V30 8327 H 805.161 -2.9925 -6.09611 0
M  V30 8328 H 803.107 -0.787464 -6.51256 0
M  V30 8329 H 803.024 -2.38767 -7.17305 0
M  V30 8330 H 804.292 -1.31363 -7.68351 0
M  V30 8331 N 808.521 1.23394 -0.980386 0
M  V30 8332 C 809.767 1.92094 -0.650223 0
M  V30 8333 C 810.1 1.76309 0.814173 0
M  V30 8334 O 809.375 1.12406 1.5873 0
M  V30 8335 C 809.658 3.44713 -1.04139 0
M  V30 8336 C 809.511 3.69606 -2.56342 0
M  V30 8337 C 810.83 4.36191 -0.585296 0
M  V30 8338 H 807.949 0.697618 -0.237695 0
M  V30 8339 H 810.591 1.45517 -1.22167 0
M  V30 8340 H 808.741 3.84513 -0.55515 0
M  V30 8341 H 810.413 3.39288 -3.1254 0
M  V30 8342 H 808.656 3.14318 -2.98976 0
M  V30 8343 H 809.327 4.76441 -2.78762 0
M  V30 8344 H 811.803 4.03836 -1.00276 0
M  V30 8345 H 810.679 5.41679 -0.887428 0
M  V30 8346 H 810.94 4.39097 0.51438 0
M  V30 8347 N 809.999 0.752036 1.385 0
M  V30 8348 C 810.932 0.0717411 2.28087 0
M  V30 8349 C 811.91 -0.729945 1.45295 0
M  V30 8350 O 813.094 -0.708902 1.74662 0
M  V30 8351 C 810.221 -0.905237 3.26379 0
M  V30 8352 C 809.267 -0.189973 4.26077 0
M  V30 8353 S 810.1 1.10815 5.23909 0
M  V30 8354 C 811.256 0.134202 6.25756 0
M  V30 8355 H 811.489 0.831438 2.85437 0
M  V30 8356 H 809.022 0.544552 1.44478 0
M  V30 8357 H 810.98 -1.46358 3.83523 0
M  V30 8358 H 809.641 -1.63789 2.68015 0
M  V30 8359 H 808.834 -0.92985 4.95348 0
M  V30 8360 H 808.436 0.296804 3.7282 0
M  V30 8361 H 810.728 -0.700345 6.7387 0
M  V30 8362 H 811.671 0.794532 7.03628 0
M  V30 8363 H 812.079 -0.245801 5.63965 0
M  V30 8364 N 811.477 -1.49425 0.500989 0
M  V30 8365 C 812.726 -2.01649 -0.04538 0
M  V30 8366 C 813.039 -1.38572 -1.38047 0
M  V30 8367 O 814.245 -1.82124 -2.01353 0
M  V30 8368 C 812.701 -3.5966 -0.131337 0
M  V30 8369 C 812.309 -4.3171 1.19711 0
M  V30 8370 C 814.053 -4.19828 -0.628071 0
M  V30 8371 C 811.96 -5.81579 1.07332 0
M  V30 8372 H 810.89 -0.753715 -0.0207329 0
M  V30 8373 H 813.541 -1.71962 0.640407 0
M  V30 8374 H 811.923 -3.86063 -0.881574 0
M  V30 8375 H 813.097 -4.17008 1.96064 0
M  V30 8376 H 811.412 -3.83286 1.62729 0
M  V30 8377 H 814.009 -5.2958 -0.738198 0
M  V30 8378 H 814.352 -3.83194 -1.6269 0
M  V30 8379 H 814.885 -3.97746 0.0656314 0
M  V30 8380 H 811.624 -6.22738 2.04642 0
M  V30 8381 H 811.144 -5.98774 0.350679 0
M  V30 8382 H 812.823 -6.42614 0.752047 0
M  V30 8383 N 812.955 -0.234822 -1.55841 0
M  V30 8384 C 813.905 0.68346 -2.17515 0
M  V30 8385 C 814.889 1.14798 -1.1274 0
M  V30 8386 O 816.081 1.09976 -1.38688 0
M  V30 8387 C 813.21 1.88551 -2.86886 0
M  V30 8388 C 812.296 1.44006 -3.98903 0
M  V30 8389 N 812.687 0.708034 -5.0082 0
M  V30 8390 C 810.985 1.7263 -4.11236 0
M  V30 8391 C 811.686 0.479036 -5.79724 0
M  V30 8392 N 810.662 1.03968 -5.33565 0
M  V30 8393 H 814.464 0.115897 -2.93671 0
M  V30 8394 H 811.978 -0.0366273 -1.62359 0
M  V30 8395 H 813.975 2.55425 -3.2949 0
M  V30 8396 H 812.635 2.45742 -2.12229 0
M  V30 8397 H 813.646 0.359363 -5.16652 0
M  V30 8398 H 810.323 2.31046 -3.47741 0
M  V30 8399 H 811.713 -0.104514 -6.71819 0
M  V30 8400 N 814.433 1.57553 0.0384317 0
M  V30 8401 C 815.844 1.77258 0.586211 0
M  V30 8402 C 816.195 0.864706 1.76117 0
M  V30 8403 O 815.32 0.057141 2.16325 0
M  V30 8404 C 815.915 3.21453 1.07021 0
M  V30 8405 C 814.474 3.42387 1.56358 0
M  V30 8406 C 813.621 2.72801 0.497508 0
M  V30 8407 H 816.572 1.57585 -0.187796 0
M  V30 8408 H 816.593 3.27451 1.93794 0
M  V30 8409 H 816.105 3.87505 0.214851 0
M  V30 8410 H 814.206 2.81497 2.44111 0
M  V30 8411 H 814.319 4.50968 1.61754 0
M  V30 8412 H 812.683 2.36305 0.95038 0
M  V30 8413 H 813.466 3.41529 -0.348234 0
M  V30 8414 N 815.911 -0.310526 1.54511 0
M  V30 8415 C 817.188 -1.06593 1.64004 0
M  V30 8416 C 817.568 -2.05519 0.482216 0
M  V30 8417 O 816.916 -2.22455 -0.52212 0
M  V30 8418 C 817.126 -1.75627 3.01589 0
M  V30 8419 C 818.474 -2.28173 3.58081 0
M  V30 8420 O 819.498 -1.85674 3.03979 0
M  V30 8421 O 818.357 -3.06015 4.52788 0
M  V30 8422 H 815.451 -0.492109 0.664649 0
M  V30 8423 H 817.997 -0.309374 1.66856 0
M  V30 8424 H 816.769 -1.03743 3.77297 0
M  V30 8425 H 816.392 -2.58061 3.02473 0
M  V30 8426 N 817.389 -1.46805 -0.573248 0
M  V30 8427 C 818.8 -1.46655 -1.15539 0
M  V30 8428 C 819.151 -0.2125 -1.95046 0
M  V30 8429 O 818.276 0.683759 -2.05314 0
M  V30 8430 C 818.871 -2.65711 -2.10198 0
M  V30 8431 C 817.43 -2.68572 -2.63716 0
M  V30 8432 C 816.577 -2.39498 -1.39772 0
M  V30 8433 H 819.528 -1.54547 -0.36068 0
M  V30 8434 H 819.549 -2.41768 -2.93817 0
M  V30 8435 H 819.061 -3.56967 -1.52303 0
M  V30 8436 H 817.162 -1.81414 -3.25453 0
M  V30 8437 H 817.275 -3.68809 -3.05805 0
M  V30 8438 H 815.639 -1.89749 -1.69904 0
M  V30 8439 H 816.422 -3.32942 -0.836943 0
M  V30 8440 N 818.867 0.818669 -1.34668 0
M  V30 8441 C 819.777 1.9616 -1.2868 0
M  V30 8442 C 820.793 1.72918 -0.193742 0
M  V30 8443 O 821.969 1.96951 -0.420975 0
M  V30 8444 C 819.034 3.30534 -1.04633 0
M  V30 8445 C 818.095 3.66755 -2.23136 0
M  V30 8446 C 817.328 4.94717 -2.00227 0
M  V30 8447 O 817.551 5.62218 -0.96264 0
M  V30 8448 O 816.485 5.28915 -2.87286 0
M  V30 8449 H 820.311 2.04157 -2.24842 0
M  V30 8450 H 817.896 0.954691 -1.14917 0
M  V30 8451 H 819.778 4.11005 -0.930216 0
M  V30 8452 H 818.453 3.23495 -0.115139 0
M  V30 8453 H 817.36 2.8671 -2.40308 0
M  V30 8454 H 818.693 3.78484 -3.1466 0
M  V30 8455 N 820.346 1.18468 1.03938 0
M  V30 8456 C 821.762 0.934635 1.29371 0
M  V30 8457 C 821.962 -0.399067 1.97509 0
M  V30 8458 O 821.018 -1.13309 2.25648 0
M  V30 8459 C 822.331 2.10111 2.15114 0
M  V30 8460 C 823.879 2.13955 2.28456 0
M  V30 8461 C 824.354 3.30024 3.17566 0
M  V30 8462 N 825.845 3.29893 3.25153 0
M  V30 8463 C 826.58 4.16346 3.94263 0
M  V30 8464 N 826.076 5.12934 4.65693 0
M  V30 8465 N 827.869 4.04256 3.90556 0
M  V30 8466 H 820.02 2.04294 0.581185 0
M  V30 8467 H 822.283 0.892727 0.318971 0
M  V30 8468 H 821.989 3.06572 1.72355 0
M  V30 8469 H 821.863 2.06283 3.15796 0
M  V30 8470 H 824.25 1.18072 2.7045 0
M  V30 8471 H 824.331 2.2184 1.2736 0
M  V30 8472 H 823.975 4.26181 2.76283 0
M  V30 8473 H 823.905 3.19376 4.18697 0
M  V30 8474 H 826.396 2.59969 2.74271 0
M  V30 8475 H 826.709 5.75271 5.16026 0
M  V30 8476 H 825.054 5.16893 4.64593 0
M  V30 8477 H 828.245 3.28083 3.33885 0
M  V30 8478 H 828.418 4.71848 4.44144 0
M  V30 8479 N 821.824 -1.22873 0.986916 0
M  V30 8480 C 823.24 -1.43594 0.696633 0
M  V30 8481 C 823.44 -1.87622 -0.734869 0
M  V30 8482 O 822.496 -2.02633 -1.50652 0
M  V30 8483 C 823.809 -2.48231 1.69711 0
M  V30 8484 C 825.357 -2.62037 1.71188 0
M  V30 8485 C 825.832 -3.6989 2.70084 0
M  V30 8486 N 827.323 -3.77341 2.68641 0
M  V30 8487 C 828.058 -4.6037 3.41829 0
M  V30 8488 N 827.554 -5.47438 4.24598 0
M  V30 8489 N 829.347 -4.54626 3.30563 0
M  V30 8490 H 821.498 -0.925982 1.91153 0
M  V30 8491 H 823.761 -0.46866 0.824052 0
M  V30 8492 H 823.467 -2.22812 2.72117 0
M  V30 8493 H 823.341 -3.46731 1.48516 0
M  V30 8494 H 825.728 -2.86803 0.694837 0
M  V30 8495 H 825.809 -1.63831 1.96451 0
M  V30 8496 H 825.453 -3.45872 3.71934 0
M  V30 8497 H 825.383 -4.67652 2.42093 0
M  V30 8498 H 827.874 -3.15124 2.08578 0
M  V30 8499 H 828.187 -6.078 4.77283 0
M  V30 8500 H 826.532 -5.4704 4.28687 0
M  V30 8501 H 829.723 -3.85627 2.65347 0
M  V30 8502 H 829.896 -5.19103 3.8786 0
M  V30 8503 N 823.302 -0.75937 -1.38099 0
M  V30 8504 C 824.713 -0.385078 -1.82686 0
M  V30 8505 C 825.064 1.0871 -1.6333 0
M  V30 8506 O 824.189 1.84084 -1.13762 0
M  V30 8507 C 824.784 -0.692161 -3.31654 0
M  V30 8508 C 823.343 -0.371077 -3.74566 0
M  V30 8509 C 822.49 -0.942375 -2.60796 0
M  V30 8510 H 825.441 -0.955048 -1.26746 0
M  V30 8511 H 825.462 0.0276001 -3.8049 0
M  V30 8512 H 824.974 -1.76369 -3.4571 0
M  V30 8513 H 823.075 0.693637 -3.66087 0
M  V30 8514 H 823.188 -0.870672 -4.71122 0
M  V30 8515 H 821.552 -0.367383 -2.52036 0
M  V30 8516 H 822.335 -2.01905 -2.77649 0
M  V30 8517 N 824.78 1.49157 -0.508906 0
M  V30 8518 C 826.005 2.07376 0.0315182 0
M  V30 8519 C 826.43 1.36575 1.2934 0
M  V30 8520 O 825.788 0.424963 1.76249 0
M  V30 8521 C 825.836 3.59661 0.260118 0
M  V30 8522 O 824.94 3.90255 1.33322 0
M  V30 8523 H 824.281 0.663334 -0.029739 0
M  V30 8524 H 826.811 1.91857 -0.710791 0
M  V30 8525 H 826.821 4.05056 0.489225 0
M  V30 8526 H 825.496 4.10601 -0.661794 0
M  V30 8527 H 824.073 3.56661 1.08844 0
M  V30 8528 N 826.258 0.243083 1.55714 0
M  V30 8529 C 827.221 -0.644723 2.19945 0
M  V30 8530 C 828.221 -1.10562 1.16759 0
M  V30 8531 O 829.411 -1.01095 1.41865 0
M  V30 8532 C 826.543 -1.88569 2.83997 0
M  V30 8533 H 827.736 -0.0843839 2.99781 0
M  V30 8534 H 825.289 -0.00647246 1.56299 0
M  V30 8535 H 826.024 -2.48736 2.08089 0
M  V30 8536 H 825.809 -1.56345 3.59581 0
M  V30 8537 H 827.299 -2.51774 3.33166 0
M  V30 8538 N 827.736 -1.57571 -0.0300757 0
M  V30 8539 C 828.669 -2.01874 -1.06406 0
M  V30 8540 C 829.647 -0.902901 -1.35227 0
M  V30 8541 O 830.831 -1.16865 -1.47901 0
M  V30 8542 C 827.958 -2.39093 -2.39901 0
M  V30 8543 C 827.004 -3.61108 -2.26943 0
M  V30 8544 S 827.837 -5.10287 -1.62382 0
M  V30 8545 C 828.993 -5.50747 -2.97369 0
M  V30 8546 H 829.226 -2.89261 -0.686703 0
M  V30 8547 H 826.759 -1.52523 -0.240017 0
M  V30 8548 H 828.717 -2.61207 -3.16672 0
M  V30 8549 H 827.378 -1.52159 -2.74784 0
M  V30 8550 H 826.571 -3.84803 -3.25489 0
M  V30 8551 H 826.173 -3.3884 -1.58314 0
M  V30 8552 H 828.465 -5.51369 -3.93698 0
M  V30 8553 H 829.408 -6.51071 -2.78409 0
M  V30 8554 H 829.816 -4.7825 -2.99895 0
M  V30 8555 N 829.214 0.302327 -1.54673 0
M  V30 8556 C 830.177 1.35592 -1.8479 0
M  V30 8557 C 831.177 1.43743 -0.72073 0
M  V30 8558 O 832.367 1.43402 -0.989017 0
M  V30 8559 C 829.499 2.74091 -2.02699 0
M  V30 8560 H 830.692 1.10132 -2.78946 0
M  V30 8561 H 828.245 0.538926 -1.46715 0
M  V30 8562 H 828.98 3.04775 -1.10826 0
M  V30 8563 H 828.765 2.69565 -2.8474 0
M  V30 8564 H 830.255 3.50272 -2.27374 0
M  V30 8565 N 830.692 1.47107 0.565454 0
M  V30 8566 C 831.622 1.61846 1.68309 0
M  V30 8567 C 832.603 0.468159 1.63531 0
M  V30 8568 O 833.788 0.696504 1.8128 0
M  V30 8569 C 830.918 1.62474 3.06952 0
M  V30 8570 C 829.872 2.76649 3.26572 0
M  V30 8571 C 829.198 2.62345 4.65917 0
M  V30 8572 C 830.498 4.18319 3.12741 0
M  V30 8573 H 832.192 2.55407 1.5623 0
M  V30 8574 H 829.738 1.22916 0.750179 0
M  V30 8575 H 831.691 1.71378 3.84977 0
M  V30 8576 H 830.415 0.654692 3.19971 0
M  V30 8577 H 829.074 2.67242 2.50952 0
M  V30 8578 H 828.722 1.63386 4.75725 0
M  V30 8579 H 828.422 3.38936 4.79996 0
M  V30 8580 H 829.946 2.73165 5.46089 0
M  V30 8581 H 831.36 4.28745 3.80593 0
M  V30 8582 H 829.757 4.95632 3.38333 0
M  V30 8583 H 830.827 4.37263 2.09592 0
M  V30 8584 N 832.17 -0.811516 1.35101 0
M  V30 8585 C 833.416 -1.57068 1.28287 0
M  V30 8586 C 833.749 -1.93667 -0.143808 0
M  V30 8587 O 833.024 -1.60953 -1.09199 0
M  V30 8588 C 833.307 -2.86259 2.18466 0
M  V30 8589 C 833.16 -2.56168 3.69727 0
M  V30 8590 C 834.479 -3.87924 2.07852 0
M  V30 8591 H 831.598 -0.569869 0.467353 0
M  V30 8592 H 834.24 -0.934023 1.65457 0
M  V30 8593 H 832.39 -3.4059 1.86898 0
M  V30 8594 H 834.062 -2.08059 4.11715 0
M  V30 8595 H 832.305 -1.89436 3.90252 0
M  V30 8596 H 832.976 -3.48344 4.28206 0
M  V30 8597 H 835.452 -3.4298 2.35593 0
M  V30 8598 H 834.328 -4.76106 2.73157 0
M  V30 8599 H 834.589 -4.2923 1.05896 0
M  V30 8600 N 833.648 -1.19017 -1.03309 0
M  V30 8601 C 834.595 -0.924088 -2.11493 0
M  V30 8602 C 835.565 0.139464 -1.65513 0
M  V30 8603 O 836.75 -0.00178761 -1.908 0
M  V30 8604 C 833.89 -0.464255 -3.41963 0
M  V30 8605 C 833.003 -1.5941 -4.01513 0
M  V30 8606 C 832.138 -1.08622 -5.19976 0
M  V30 8607 C 831.177 -2.19024 -5.71572 0
M  V30 8608 N 830.314 -1.69575 -6.81314 0
M  V30 8609 H 835.154 -1.85039 -2.33591 0
M  V30 8610 H 832.691 -0.922593 -1.14572 0
M  V30 8611 H 834.649 -0.179078 -4.16815 0
M  V30 8612 H 833.279 0.425062 -3.19989 0
M  V30 8613 H 832.331 -1.99458 -3.23915 0
M  V30 8614 H 833.643 -2.42604 -4.35826 0
M  V30 8615 H 832.797 -0.756022 -6.01971 0
M  V30 8616 H 831.536 -0.223955 -4.87186 0
M  V30 8617 H 830.541 -2.5288 -4.88193 0
M  V30 8618 H 831.766 -3.05699 -6.06403 0
M  V30 8619 H 829.712 -0.856494 -6.50385 0
M  V30 8620 H 829.629 -2.46361 -7.14732 0
M  V30 8621 H 830.897 -1.39505 -7.66915 0
M  V30 8622 N 835.127 1.22348 -0.993418 0
M  V30 8623 C 836.077 2.221 -0.515333 0
M  V30 8624 C 837.061 1.55409 0.416762 0
M  V30 8625 O 838.253 1.75317 0.243497 0
M  V30 8626 C 835.382 3.42888 0.168173 0
M  V30 8627 C 834.468 4.16786 -0.784257 0
M  V30 8628 N 834.859 4.67435 -1.93231 0
M  V30 8629 C 833.157 4.41942 -0.600243 0
M  V30 8630 C 833.858 5.23792 -2.53016 0
M  V30 8631 N 832.834 5.12483 -1.8128 0
M  V30 8632 H 836.636 2.58902 -1.39093 0
M  V30 8633 H 834.15 1.38024 -0.855747 0
M  V30 8634 H 836.147 4.13542 0.528069 0
M  V30 8635 H 834.807 3.07598 1.03989 0
M  V30 8636 H 835.818 4.63375 -2.31309 0
M  V30 8637 H 832.495 4.16891 0.225369 0
M  V30 8638 H 833.885 5.73515 -3.50043 0
M  V30 8639 N 836.605 0.766683 1.37694 0
M  V30 8640 C 837.83 0.338715 2.04615 0
M  V30 8641 C 838.255 -1.02918 1.57447 0
M  V30 8642 O 837.613 -1.65849 0.732386 0
M  V30 8643 C 837.661 0.385284 3.58536 0
M  V30 8644 O 836.765 -0.616081 4.07772 0
M  V30 8645 H 836.106 0.147527 0.647404 0
M  V30 8646 H 838.636 1.04146 1.7611 0
M  V30 8647 H 838.646 0.240782 4.07289 0
M  V30 8648 H 837.321 1.38325 3.92223 0
M  V30 8649 H 835.898 -0.435115 3.70353 0
M  V30 8650 N 838.083 -1.48885 0.516809 0
M  V30 8651 C 839.329 -2.02788 -0.0220928 0
M  V30 8652 C 839.662 -1.39433 -1.35175 0
M  V30 8653 O 838.937 -0.535459 -1.86984 0
M  V30 8654 C 839.22 -3.59753 -0.158012 0
M  V30 8655 C 839.073 -4.33611 1.19588 0
M  V30 8656 C 840.392 -4.30984 -0.891133 0
M  V30 8657 H 837.511 -0.736971 -0.00655488 0
M  V30 8658 H 840.153 -1.77746 0.671287 0
M  V30 8659 H 838.303 -3.8122 -0.748568 0
M  V30 8660 H 839.975 -4.23598 1.82653 0
M  V30 8661 H 838.218 -3.95547 1.78116 0
M  V30 8662 H 838.889 -5.41846 1.05391 0
M  V30 8663 H 841.365 -4.14267 -0.39012 0
M  V30 8664 H 840.241 -5.40527 -0.955107 0
M  V30 8665 H 840.502 -3.97336 -1.93847 0
M  V30 8666 N 839.561 -0.251338 -1.55583 0
M  V30 8667 C 840.491 0.640437 -2.24545 0
M  V30 8668 C 841.472 1.17781 -1.22726 0
M  V30 8669 O 842.657 1.21633 -1.5139 0
M  V30 8670 C 839.787 1.8355 -2.94834 0
M  V30 8671 C 838.741 1.4307 -4.03379 0
M  V30 8672 C 838.067 2.70695 -4.61116 0
M  V30 8673 C 839.367 0.59848 -5.1886 0
M  V30 8674 H 841.061 0.0653772 -2.99329 0
M  V30 8675 H 838.607 0.0300042 -1.43969 0
M  V30 8676 H 840.56 2.46505 -3.4178 0
M  V30 8677 H 839.284 2.43601 -2.17546 0
M  V30 8678 H 837.943 0.824474 -3.57209 0
M  V30 8679 H 837.591 3.28954 -3.80524 0
M  V30 8680 H 837.291 2.44332 -5.34393 0
M  V30 8681 H 838.815 3.34541 -5.10798 0
M  V30 8682 H 840.229 1.13244 -5.62004 0
M  V30 8683 H 838.626 0.430728 -5.98552 0
M  V30 8684 H 839.696 -0.38829 -4.83343 0
M  V30 8685 N 841.039 1.57585 0.0217189 0
M  V30 8686 C 841.969 2.10073 1.01939 0
M  V30 8687 C 842.95 1.0049 1.37243 0
M  V30 8688 O 844.135 1.28055 1.45999 0
M  V30 8689 C 841.265 2.58618 2.31806 0
M  V30 8690 C 840.219 3.72531 2.10724 0
M  V30 8691 C 839.545 4.07309 3.46415 0
M  V30 8692 C 840.845 5.00672 1.48743 0
M  V30 8693 H 842.539 2.9368 0.582432 0
M  V30 8694 H 840.085 1.41277 0.278715 0
M  V30 8695 H 842.038 2.9396 3.01936 0
M  V30 8696 H 840.762 1.72104 2.77575 0
M  V30 8697 H 839.421 3.37549 1.43025 0
M  V30 8698 H 839.069 3.17851 3.89846 0
M  V30 8699 H 838.769 4.84042 3.33132 0
M  V30 8700 H 840.293 4.45192 4.17895 0
M  V30 8701 H 841.707 5.33925 2.088 0
M  V30 8702 H 840.104 5.82065 1.46013 0
M  V30 8703 H 841.174 4.82769 0.45408 0
M  V30 8704 N 842.517 -0.29412 1.54831 0
M  V30 8705 C 843.742 -1.05156 1.78765 0
M  V30 8706 C 844.167 -1.79916 0.548809 0
M  V30 8707 O 843.525 -1.74243 -0.500909 0
M  V30 8708 C 843.573 -2.00242 2.99893 0
M  V30 8709 O 842.677 -3.08662 2.73499 0
M  V30 8710 H 842.018 -0.301737 0.591482 0
M  V30 8711 H 844.548 -0.329449 2.0193 0
M  V30 8712 H 844.558 -2.42583 3.28051 0
M  V30 8713 H 843.233 -1.45235 3.89717 0
M  V30 8714 H 841.81 -2.70786 2.56377 0
M  V30 8715 N 843.995 -1.47404 -0.557645 0
M  V30 8716 C 844.958 -1.59411 -1.64684 0
M  V30 8717 C 845.958 -0.469244 -1.53801 0
M  V30 8718 O 847.148 -0.734298 -1.57967 0
M  V30 8719 C 844.28 -1.5382 -3.04224 0
M  V30 8720 H 845.473 -2.56504 -1.55389 0
M  V30 8721 H 843.026 -1.35588 -0.777531 0
M  V30 8722 H 843.761 -0.581 -3.19053 0
M  V30 8723 H 843.546 -2.35456 -3.13533 0
M  V30 8724 H 845.036 -1.65358 -3.83466 0
M  V30 8725 N 845.473 0.80434 -1.35529 0
M  V30 8726 C 846.698 1.598 -1.32207 0
M  V30 8727 C 847.123 1.87848 0.0974226 0
M  V30 8728 O 846.481 1.46728 1.06492 0
M  V30 8729 C 846.529 2.90483 -2.13663 0
M  V30 8730 O 845.633 3.83411 -1.51888 0
M  V30 8731 H 844.974 0.485305 -0.453183 0
M  V30 8732 H 847.504 0.998119 -1.78602 0
M  V30 8733 H 847.514 3.39888 -2.257 0
M  V30 8734 H 846.189 2.69395 -3.16859 0
M  V30 8735 H 844.766 3.41967 -1.48704 0
M  V30 8736 N 846.951 1.19563 1.02676 0
M  V30 8737 C 848.367 0.948304 1.28372 0
M  V30 8738 C 848.567 -0.378096 1.97921 0
M  V30 8739 O 847.623 -1.1091 2.26838 0
M  V30 8740 C 848.936 2.12381 2.12873 0
M  V30 8741 C 850.484 2.16366 2.26174 0
M  V30 8742 C 850.959 3.33374 3.14048 0
M  V30 8743 N 852.45 3.33323 3.21636 0
M  V30 8744 C 853.185 4.20504 3.89825 0
M  V30 8745 N 852.681 5.17845 4.60227 0
M  V30 8746 N 854.474 4.08375 3.86246 0
M  V30 8747 H 846.625 2.04899 0.559485 0
M  V30 8748 H 848.888 0.89606 0.309484 0
M  V30 8749 H 848.594 3.08383 1.69094 0
M  V30 8750 H 848.468 2.09621 3.1359 0
M  V30 8751 H 850.855 1.20933 2.69182 0
M  V30 8752 H 850.936 2.23179 1.25 0
M  V30 8753 H 850.58 4.29087 2.71747 0
M  V30 8754 H 850.51 3.23798 4.15286 0
M  V30 8755 H 853.001 2.62863 2.71498 0
M  V30 8756 H 853.314 5.80712 5.09896 0
M  V30 8757 H 851.659 5.21791 4.59085 0
M  V30 8758 H 854.85 3.31606 3.30386 0
M  V30 8759 H 855.023 4.76532 4.39114 0
M  V30 8760 N 848.429 -1.21819 0.999893 0
M  V30 8761 C 849.376 -2.24003 0.556005 0
M  V30 8762 C 850.346 -1.60825 -0.415287 0
M  V30 8763 O 851.531 -1.88123 -0.318481 0
M  V30 8764 C 848.671 -3.44904 -0.116289 0
M  V30 8765 C 847.784 -4.22573 0.897574 0
M  V30 8766 C 846.919 -5.30831 0.198073 0
M  V30 8767 C 845.958 -6.00225 1.19983 0
M  V30 8768 N 845.095 -7.00111 0.528157 0
M  V30 8769 H 849.935 -2.61334 1.43208 0
M  V30 8770 H 847.472 -1.28431 0.717205 0
M  V30 8771 H 849.43 -4.13908 -0.523055 0
M  V30 8772 H 848.06 -3.08315 -0.956108 0
M  V30 8773 H 847.112 -3.52797 1.42262 0
M  V30 8774 H 848.424 -4.70363 1.66013 0
M  V30 8775 H 847.578 -6.06121 -0.265065 0
M  V30 8776 H 846.317 -4.84033 -0.596924 0
M  V30 8777 H 845.322 -5.23711 1.67353 0
M  V30 8778 H 846.547 -6.4911 1.99582 0
M  V30 8779 H 844.493 -6.55534 -0.247276 0
M  V30 8780 H 844.41 -7.45943 1.22904 0
M  V30 8781 H 845.678 -7.7945 0.0880543 0
M  V30 8782 N 849.908 -0.773975 -1.37286 0
M  V30 8783 C 851.133 -0.349561 -2.04433 0
M  V30 8784 C 851.558 1.02082 -1.5799 0
M  V30 8785 O 850.916 1.65458 -0.741172 0
M  V30 8786 C 850.964 -0.404292 -3.58326 0
M  V30 8787 O 850.068 0.594447 -4.08093 0
M  V30 8788 H 849.409 -0.150959 -0.646612 0
M  V30 8789 H 851.939 -1.05079 -1.75555 0
M  V30 8790 H 851.949 -0.262378 -4.07155 0
M  V30 8791 H 850.624 -1.40403 -3.91484 0
M  V30 8792 H 849.201 0.415468 -3.70578 0
M  V30 8793 N 851.386 1.48609 -0.524698 0
M  V30 8794 C 852.349 2.28041 0.230166 0
M  V30 8795 C 853.349 1.35065 0.872584 0
M  V30 8796 O 854.539 1.58007 0.73345 0
M  V30 8797 C 851.671 3.13778 1.33252 0
M  V30 8798 H 852.864 2.96239 -0.467161 0
M  V30 8799 H 850.417 1.53763 -0.280452 0
M  V30 8800 H 851.152 2.502 2.06327 0
M  V30 8801 H 850.937 3.82165 0.877058 0
M  V30 8802 H 852.427 3.7371 1.86362 0
M  V30 8803 N 852.864 0.259585 1.55447 0
M  V30 8804 C 853.774 -0.645026 2.25558 0
M  V30 8805 C 854.79 -1.18291 1.27606 0
M  V30 8806 O 855.966 -1.21649 1.6051 0
M  V30 8807 C 853.031 -1.81964 2.9511 0
M  V30 8808 C 852.092 -1.31997 4.08504 0
M  V30 8809 C 851.325 -2.43861 4.74729 0
M  V30 8810 O 851.548 -3.62876 4.40088 0
M  V30 8811 O 850.482 -2.12898 5.6299 0
M  V30 8812 H 854.308 -0.0775399 3.03601 0
M  V30 8813 H 851.893 0.0275859 1.49375 0
M  V30 8814 H 853.775 -2.50485 3.38873 0
M  V30 8815 H 852.45 -2.37451 2.19997 0
M  V30 8816 H 851.357 -0.601676 3.6923 0
M  V30 8817 H 852.69 -0.811045 4.85472 0
M  V30 8818 N 854.342 -1.57594 -0.0133615 0
M  V30 8819 C 855.274 -2.04402 -1.03695 0
M  V30 8820 C 856.287 -0.959546 -1.31516 0
M  V30 8821 O 857.476 -1.23659 -1.28727 0
M  V30 8822 C 854.576 -2.41766 -2.37491 0
M  V30 8823 C 853.749 -3.72785 -2.28802 0
M  V30 8824 C 852.808 -3.97165 -3.45176 0
M  V30 8825 O 851.834 -4.68013 -3.23963 0
M  V30 8826 N 853.036 -3.44021 -4.67579 0
M  V30 8827 H 855.801 -2.92833 -0.637874 0
M  V30 8828 H 853.362 -1.60647 -0.20101 0
M  V30 8829 H 855.354 -2.55201 -3.14093 0
M  V30 8830 H 853.924 -1.58924 -2.69188 0
M  V30 8831 H 853.144 -3.69555 -1.37197 0
M  V30 8832 H 854.432 -4.58704 -2.20154 0
M  V30 8833 H 853.83 -2.86623 -4.87713 0
M  V30 8834 H 852.387 -3.62808 -5.41492 0
M  V30 8835 N 855.82 0.285905 -1.54985 0
M  V30 8836 C 856.75 1.35752 -1.89983 0
M  V30 8837 C 857.731 1.52163 -0.760295 0
M  V30 8838 O 858.916 1.65421 -1.01733 0
M  V30 8839 C 856.046 2.71925 -2.16042 0
M  V30 8840 C 855 2.70261 -3.31878 0
M  V30 8841 C 854.326 4.09864 -3.43388 0
M  V30 8842 C 855.626 2.30667 -4.68604 0
M  V30 8843 H 857.32 1.06709 -2.79738 0
M  V30 8844 H 854.866 0.511884 -1.34595 0
M  V30 8845 H 856.819 3.46992 -2.39113 0
M  V30 8846 H 855.543 3.02523 -1.23074 0
M  V30 8847 H 854.202 1.97651 -3.08755 0
M  V30 8848 H 853.85 4.37664 -2.47909 0
M  V30 8849 H 853.55 4.09648 -4.21262 0
M  V30 8850 H 855.074 4.86689 -3.68736 0
M  V30 8851 H 856.488 2.95453 -4.91305 0
M  V30 8852 H 854.885 2.41637 -5.49301 0
M  V30 8853 H 855.955 1.25793 -4.68299 0
M  V30 8854 N 857.298 1.47698 0.54982 0
M  V30 8855 C 858.714 1.3338 0.876468 0
M  V30 8856 C 858.914 0.329837 1.98782 0
M  V30 8857 O 857.97 -0.256022 2.51199 0
M  V30 8858 C 859.283 2.72903 1.26272 0
M  V30 8859 C 860.831 2.81243 1.37373 0
M  V30 8860 C 861.306 4.21423 1.79351 0
M  V30 8861 N 862.797 4.24 1.86489 0
M  V30 8862 C 863.532 5.29386 2.20313 0
M  V30 8863 N 863.028 6.4507 2.527 0
M  V30 8864 N 864.821 5.16768 2.2115 0
M  V30 8865 H 856.972 2.11603 -0.183781 0
M  V30 8866 H 859.235 0.947798 -0.0195601 0
M  V30 8867 H 858.941 3.47836 0.519889 0
M  V30 8868 H 858.815 3.05151 2.21727 0
M  V30 8869 H 861.202 2.06577 2.10737 0
M  V30 8870 H 861.283 2.52639 0.400882 0
M  V30 8871 H 860.927 4.96597 1.06555 0
M  V30 8872 H 860.857 4.47456 2.77652 0
M  V30 8873 H 863.348 3.40547 1.63817 0
M  V30 8874 H 863.661 7.21236 2.77557 0
M  V30 8875 H 862.006 6.48377 2.50263 0
M  V30 8876 H 865.197 4.25416 1.95293 0
M  V30 8877 H 865.37 5.99004 2.4718 0
M  V30 8878 N 858.776 -0.797141 1.35954 0
M  V30 8879 C 860.025 -1.54983 1.29086 0
M  V30 8880 C 860.338 -1.95167 -0.130003 0
M  V30 8881 O 861.544 -2.69596 -0.32101 0
M  V30 8882 C 860 -2.79738 2.26439 0
M  V30 8883 C 859.608 -2.46753 3.73921 0
M  V30 8884 C 861.352 -3.57733 2.28533 0
M  V30 8885 C 859.259 -3.67858 4.63071 0
M  V30 8886 H 858.189 -0.581766 0.479651 0
M  V30 8887 H 860.84 -0.87541 1.61273 0
M  V30 8888 H 859.222 -3.48939 1.87236 0
M  V30 8889 H 860.396 -1.85499 4.21814 0
M  V30 8890 H 858.711 -1.81985 3.74527 0
M  V30 8891 H 861.308 -4.47699 2.92351 0
M  V30 8892 H 861.651 -3.95754 1.29169 0
M  V30 8893 H 862.184 -2.95504 2.66313 0
M  V30 8894 H 858.923 -3.34939 5.63468 0
M  V30 8895 H 858.443 -4.28305 4.19898 0
M  V30 8896 H 860.122 -4.34977 4.78961 0
M  V30 8897 N 860.254 -1.20106 -1.0204 0
M  V30 8898 C 861.164 -0.962051 -2.13967 0
M  V30 8899 C 862.18 0.0808053 -1.73812 0
M  V30 8900 O 863.356 -0.105774 -2.01122 0
M  V30 8901 C 860.421 -0.513108 -3.42882 0
M  V30 8902 C 859.482 -1.62636 -3.97301 0
M  V30 8903 C 858.715 -1.19875 -5.20063 0
M  V30 8904 O 858.938 -0.0658423 -5.70362 0
M  V30 8905 O 857.872 -2.00467 -5.67536 0
M  V30 8906 H 861.698 -1.8991 -2.36998 0
M  V30 8907 H 859.283 -0.984608 -1.12365 0
M  V30 8908 H 861.165 -0.271797 -4.20523 0
M  V30 8909 H 859.84 0.395402 -3.21276 0
M  V30 8910 H 858.747 -1.92192 -3.20957 0
M  V30 8911 H 860.08 -2.51174 -4.23288 0
M  V30 8912 N 861.732 1.21287 -1.00634 0
M  V30 8913 C 862.662 2.25973 -0.588089 0
M  V30 8914 C 863.643 1.65527 0.391764 0
M  V30 8915 O 864.828 1.92179 0.279452 0
M  V30 8916 C 861.958 3.47197 0.0847336 0
M  V30 8917 C 860.912 4.20168 -0.815039 0
M  V30 8918 C 860.238 5.34699 -0.00855393 0
M  V30 8919 C 861.538 4.77416 -2.11828 0
M  V30 8920 H 863.232 2.61212 -1.46317 0
M  V30 8921 H 860.778 1.25563 -0.704985 0
M  V30 8922 H 862.731 4.19602 0.388821 0
M  V30 8923 H 861.455 3.11092 0.994456 0
M  V30 8924 H 860.114 3.49614 -1.10297 0
M  V30 8925 H 859.762 4.94837 0.902499 0
M  V30 8926 H 859.462 5.84449 -0.607664 0
M  V30 8927 H 860.986 6.09914 0.289317 0
M  V30 8928 H 862.4 5.41694 -1.87725 0
M  V30 8929 H 860.797 5.37561 -2.66736 0
M  V30 8930 H 861.867 3.96724 -2.78816 0
M  V30 8931 N 863.21 0.781244 1.36873 0
M  V30 8932 C 864.158 0.161889 2.32036 0
M  V30 8933 C 865.152 -0.674225 1.55405 0
M  V30 8934 O 866.358 -0.570223 1.70729 0
M  V30 8935 H 862.733 0.0335702 0.75125 0
M  V30 8936 H 864.704 0.980078 2.81846 0
M  V30 8937 C 863.453 -0.695352 3.40676 0
M  V30 8938 H 862.776 -0.0613425 3.99753 0
M  V30 8939 H 864.216 -1.09553 4.09602 0
M  V30 8940 C 862.675 -1.85008 2.81556 0
M  V30 8941 O 863.205 -2.94616 2.73065 0
M  V30 8942 N 861.411 -1.65364 2.38962 0
M  V30 8943 H 860.958 -0.762106 2.46068 0
M  V30 8944 H 860.916 -2.42789 1.99752 0
M  V30 8945 N 864.689 -1.48329 0.532571 0
M  V30 8946 C 865.652 -2.2816 -0.218069 0
M  V30 8947 C 866.652 -1.35526 -0.865409 0
M  V30 8948 O 867.842 -1.58394 -0.725061 0
M  V30 8949 C 864.974 -3.1448 -1.31586 0
M  V30 8950 H 866.167 -2.95987 0.482865 0
M  V30 8951 H 863.72 -1.53612 0.288603 0
M  V30 8952 H 864.455 -2.5129 -2.04997 0
M  V30 8953 H 864.24 -3.82625 -0.856779 0
M  V30 8954 H 865.73 -3.74693 -1.84377 0
M  V30 8955 N 866.167 -0.267825 -1.55308 0
M  V30 8956 C 867.077 0.633055 -2.25897 0
M  V30 8957 C 868.093 1.17613 -1.28231 0
M  V30 8958 O 869.269 1.20797 -1.61153 0
M  V30 8959 C 866.334 1.80397 -2.96071 0
M  V30 8960 C 865.395 1.29829 -4.09198 0
M  V30 8961 C 864.628 2.4134 -4.76016 0
M  V30 8962 O 864.851 3.60537 -4.42006 0
M  V30 8963 O 863.785 2.09909 -5.64111 0
M  V30 8964 H 867.611 0.0614381 -3.03638 0
M  V30 8965 H 865.196 -0.0355072 -1.49358 0
M  V30 8966 H 867.078 2.48685 -3.40197 0
M  V30 8967 H 865.753 2.36281 -2.21253 0
M  V30 8968 H 864.66 0.582086 -3.69544 0
M  V30 8969 H 865.993 0.785288 -4.85895 0
M  V30 8970 N 867.645 1.57599 0.00500368 0
M  V30 8971 C 868.592 2.08106 0.998025 0
M  V30 8972 C 869.562 0.975374 1.34446 0
M  V30 8973 O 870.747 1.24749 1.44369 0
M  V30 8974 C 867.887 2.58496 2.28635 0
M  V30 8975 C 867 3.82947 1.99939 0
M  V30 8976 C 866.135 4.21857 3.22816 0
M  V30 8977 C 865.174 5.39159 2.89783 0
M  V30 8978 N 864.311 5.73386 4.05183 0
M  V30 8979 H 869.151 2.92684 0.560385 0
M  V30 8980 H 866.688 1.44692 0.265053 0
M  V30 8981 H 868.646 2.85787 3.03943 0
M  V30 8982 H 867.276 1.768 2.70077 0
M  V30 8983 H 866.328 3.62594 1.1502 0
M  V30 8984 H 867.64 4.68358 1.71588 0
M  V30 8985 H 866.794 4.50404 4.06474 0
M  V30 8986 H 865.533 3.35145 3.54301 0
M  V30 8987 H 864.538 5.1034 2.04532 0
M  V30 8988 H 865.763 6.27543 2.59551 0
M  V30 8989 H 863.709 4.89632 4.36574 0
M  V30 8990 H 863.626 6.53359 3.80339 0
M  V30 8991 H 864.894 6.06522 4.89644 0
M  V30 8992 N 869.123 -0.277682 1.55134 0
M  V30 8993 C 870.37 -1.0099 1.7552 0
M  V30 8994 C 870.698 -1.86452 0.553712 0
M  V30 8995 O 869.953 -1.90122 -0.463896 0
M  V30 8996 C 870.252 -1.92599 3.01065 0
M  V30 8997 C 869.918 -1.22926 4.3382 0
M  V30 8998 C 868.58 -1.03659 4.69902 0
M  V30 8999 C 870.932 -0.733071 5.16019 0
M  V30 9000 C 868.26 -0.334933 5.85743 0
M  V30 9001 C 870.612 -0.0450319 6.32584 0
M  V30 9002 C 869.276 0.159393 6.6731 0
M  V30 9003 H 868.546 -0.36955 0.642273 0
M  V30 9004 H 871.193 -0.282611 1.89403 0
M  V30 9005 H 869.498 -2.71934 2.82062 0
M  V30 9006 H 871.195 -2.49367 3.14034 0
M  V30 9007 H 867.785 -1.38933 4.05457 0
M  V30 9008 H 871.969 -0.869565 4.88623 0
M  V30 9009 H 867.225 -0.165783 6.11175 0
M  V30 9010 H 871.399 0.34723 6.95534 0
M  V30 9011 H 869.026 0.70507 7.56923 0
M  V30 9012 N 870.601 -1.47988 -0.541979 0
M  V30 9013 C 871.548 -1.61615 -1.6477 0
M  V30 9014 C 872.518 -0.458602 -1.59644 0
M  V30 9015 O 873.703 -0.680585 -1.78249 0
M  V30 9016 C 870.843 -1.65066 -3.03063 0
M  V30 9017 C 869.956 -2.91845 -3.18513 0
M  V30 9018 C 869.091 -2.86534 -4.47294 0
M  V30 9019 C 868.13 -4.0807 -4.5623 0
M  V30 9020 N 867.267 -4.00905 -5.76385 0
M  V30 9021 H 872.107 -2.56046 -1.52461 0
M  V30 9022 H 869.644 -1.26989 -0.742449 0
M  V30 9023 H 871.602 -1.65049 -3.83164 0
M  V30 9024 H 870.232 -0.74136 -3.14171 0
M  V30 9025 H 869.284 -3.01661 -2.31743 0
M  V30 9026 H 870.596 -3.81804 -3.20978 0
M  V30 9027 H 869.75 -2.84851 -5.35672 0
M  V30 9028 H 868.489 -1.94283 -4.47332 0
M  V30 9029 H 867.494 -4.10041 -3.66261 0
M  V30 9030 H 868.719 -5.01465 -4.5794 0
M  V30 9031 H 866.665 -3.11467 -5.77342 0
M  V30 9032 H 866.582 -4.84557 -5.80293 0
M  V30 9033 H 867.85 -4.03263 -6.67083 0
M  V30 9034 N 872.079 0.78992 -1.36375 0
M  V30 9035 C 873.027 1.92394 -1.30719 0
M  V30 9036 C 874.021 1.68226 -0.199076 0
M  V30 9037 O 875.227 1.76239 -0.366051 0
M  V30 9038 H 871.602 0.632382 -0.406936 0
M  V30 9039 H 873.573 1.94282 -2.26488 0
M  V30 9040 C 872.322 3.2941 -1.11284 0
M  V30 9041 H 871.645 3.48573 -1.95798 0
M  V30 9042 H 873.085 4.09111 -1.11373 0
M  V30 9043 C 871.544 3.36405 0.182543 0
M  V30 9044 O 872.074 3.84206 1.17255 0
M  V30 9045 N 870.28 2.89712 0.227046 0
M  V30 9046 H 869.827 2.51004 -0.579217 0
M  V30 9047 H 869.785 2.94773 1.09344 0
M  V30 9048 N 873.557 1.20646 1.01402 0
M  V30 9049 C 874.782 1.04462 1.79172 0
M  V30 9050 C 875.207 -0.401588 1.83763 0
M  V30 9051 O 874.565 -1.28934 1.27459 0
M  V30 9052 C 874.613 1.63583 3.21361 0
M  V30 9053 O 873.717 0.875198 4.03006 0
M  V30 9054 H 873.058 0.368235 0.552539 0
M  V30 9055 H 875.588 1.59994 1.27526 0
M  V30 9056 H 875.598 1.67426 3.72065 0
M  V30 9057 H 874.273 2.68835 3.17334 0
M  V30 9058 H 872.85 0.911172 3.61597 0
M  V30 9059 N 875.035 -1.20752 1.01276 0
M  V30 9060 C 875.965 -2.25658 0.600064 0
M  V30 9061 C 876.946 -1.65733 -0.38298 0
M  V30 9062 O 878.131 -1.92324 -0.269256 0
M  V30 9063 C 875.261 -3.47237 -0.0663197 0
M  V30 9064 C 874.215 -4.1973 0.83731 0
M  V30 9065 C 873.541 -5.34687 0.0369102 0
M  V30 9066 C 874.841 -4.76286 2.14357 0
M  V30 9067 H 876.535 -2.60432 1.477 0
M  V30 9068 H 874.081 -1.25187 0.711634 0
M  V30 9069 H 876.034 -4.19803 -0.366563 0
M  V30 9070 H 874.758 -3.11615 -0.977944 0
M  V30 9071 H 873.417 -3.49024 1.1215 0
M  V30 9072 H 873.065 -4.95309 -0.876244 0
M  V30 9073 H 872.765 -5.84119 0.63865 0
M  V30 9074 H 874.289 -6.10059 -0.256968 0
M  V30 9075 H 875.703 -5.40691 1.90595 0
M  V30 9076 H 874.1 -5.36139 2.69583 0
M  V30 9077 H 875.17 -3.9524 2.80916 0
M  V30 9078 N 876.513 -0.788492 -1.36457 0
M  V30 9079 C 877.443 -0.200468 -2.32638 0
M  V30 9080 C 878.424 0.664031 -1.56603 0
M  V30 9081 O 879.609 0.598045 -1.84762 0
M  V30 9082 C 876.739 0.666274 -3.40849 0
M  V30 9083 C 875.693 -0.0982574 -4.27887 0
M  V30 9084 C 875.019 0.889018 -5.27258 0
M  V30 9085 C 876.319 -1.28692 -5.06197 0
M  V30 9086 H 878.013 -1.00399 -2.82065 0
M  V30 9087 H 875.559 -0.484237 -1.35614 0
M  V30 9088 H 877.512 1.08757 -4.07124 0
M  V30 9089 H 876.236 1.50249 -2.89987 0
M  V30 9090 H 874.895 -0.500525 -3.63167 0
M  V30 9091 H 874.543 1.72024 -4.7267 0
M  V30 9092 H 874.243 0.381909 -5.86358 0
M  V30 9093 H 875.767 1.30891 -5.96406 0
M  V30 9094 H 877.181 -0.941429 -5.65517 0
M  V30 9095 H 875.578 -1.72726 -5.74705 0
M  V30 9096 H 876.648 -2.08273 -4.37893 0
M  V30 9097 N 877.991 1.48044 -0.54043 0
M  V30 9098 C 878.923 2.2779 0.253854 0
M  V30 9099 C 879.936 1.35999 0.894883 0
M  V30 9100 O 881.125 1.60963 0.771563 0
M  V30 9101 C 878.225 3.09724 1.37566 0
M  V30 9102 C 877.398 4.29364 0.83459 0
M  V30 9103 C 876.457 4.93026 1.83881 0
M  V30 9104 O 875.483 5.51927 1.39159 0
M  V30 9105 N 876.685 4.86207 3.17149 0
M  V30 9106 H 879.45 2.96597 -0.430125 0
M  V30 9107 H 877.011 1.57487 -0.375423 0
M  V30 9108 H 879.003 3.49181 2.04584 0
M  V30 9109 H 877.573 2.43269 1.96314 0
M  V30 9110 H 876.793 3.94198 -0.0118878 0
M  V30 9111 H 878.081 5.06787 0.452155 0
M  V30 9112 H 877.479 4.39523 3.56141 0
M  V30 9113 H 876.036 5.29733 3.79771 0
M  V30 9114 N 879.47 0.276058 1.55163 0
M  V30 9115 C 880.417 -0.611006 2.22565 0
M  V30 9116 C 881.387 -1.14902 1.19945 0
M  V30 9117 O 882.572 -1.19815 1.48489 0
M  V30 9118 C 879.712 -1.78885 2.95117 0
M  V30 9119 C 878.825 -1.2846 4.12458 0
M  V30 9120 C 877.96 -2.42432 4.72652 0
M  V30 9121 C 876.999 -1.89015 5.82185 0
M  V30 9122 N 876.136 -2.96463 6.36439 0
M  V30 9123 H 880.976 -0.0295849 2.97985 0
M  V30 9124 H 878.513 -0.00283607 1.471 0
M  V30 9125 H 880.471 -2.48121 3.35398 0
M  V30 9126 H 879.101 -2.34229 2.22119 0
M  V30 9127 H 878.153 -0.485312 3.77292 0
M  V30 9128 H 879.465 -0.853358 4.91446 0
M  V30 9129 H 878.619 -3.19659 5.15658 0
M  V30 9130 H 877.358 -2.88872 3.92943 0
M  V30 9131 H 876.363 -1.10267 5.38629 0
M  V30 9132 H 877.588 -1.43509 6.63763 0
M  V30 9133 H 875.534 -3.42283 5.59623 0
M  V30 9134 H 875.451 -2.57759 7.10701 0
M  V30 9135 H 876.719 -3.73663 6.84103 0
M  V30 9136 N 880.948 -1.576 0.00335426 0
M  V30 9137 C 881.858 -2.12067 -1.00322 0
M  V30 9138 C 882.874 -1.06672 -1.37467 0
M  V30 9139 O 884.05 -1.38592 -1.46131 0
M  V30 9140 C 881.115 -2.61593 -2.27531 0
M  V30 9141 C 880.176 -3.81602 -1.96668 0
M  V30 9142 C 879.409 -4.28756 -3.17811 0
M  V30 9143 O 879.632 -3.75222 -4.2961 0
M  V30 9144 O 878.566 -5.20877 -3.01613 0
M  V30 9145 H 882.392 -2.98299 -0.570199 0
M  V30 9146 H 879.977 -1.47835 -0.215682 0
M  V30 9147 H 881.859 -2.93631 -3.02256 0
M  V30 9148 H 880.534 -1.78457 -2.70065 0
M  V30 9149 H 879.441 -3.54531 -1.19408 0
M  V30 9150 H 880.774 -4.65822 -1.58968 0
M  V30 9151 N 882.426 0.269451 -1.5528 0
M  V30 9152 C 883.356 1.33729 -1.91413 0
M  V30 9153 C 884.337 1.51348 -0.776391 0
M  V30 9154 O 885.522 1.64332 -1.03482 0
M  V30 9155 C 882.652 2.69618 -2.18914 0
M  V30 9156 C 881.606 2.66725 -3.34726 0
M  V30 9157 C 880.932 4.06199 -3.47716 0
M  V30 9158 C 882.232 2.25684 -4.71025 0
M  V30 9159 H 883.926 1.03736 -2.80854 0
M  V30 9160 H 881.472 0.497579 -1.3513 0
M  V30 9161 H 883.425 3.44436 -2.42779 0
M  V30 9162 H 882.149 3.01201 -1.26275 0
M  V30 9163 H 880.808 1.94365 -3.10834 0
M  V30 9164 H 880.456 4.3501 -2.52537 0
M  V30 9165 H 880.156 4.05157 -4.25583 0
M  V30 9166 H 881.68 4.8275 -3.73877 0
M  V30 9167 H 883.094 2.90225 -4.94411 0
M  V30 9168 H 881.491 2.35797 -5.51833 0
M  V30 9169 H 882.561 1.20819 -4.69607 0
M  V30 9170 N 883.904 1.48273 0.534124 0
M  V30 9171 C 884.851 1.62487 1.6391 0
M  V30 9172 C 885.821 0.467062 1.59398 0
M  V30 9173 O 887.006 0.690029 1.77885 0
M  V30 9174 C 884.146 1.66671 3.02183 0
M  V30 9175 C 883.259 2.9353 3.16961 0
M  V30 9176 C 882.394 2.88902 4.45768 0
M  V30 9177 C 881.433 4.10483 4.54059 0
M  V30 9178 N 880.57 4.03956 5.74251 0
M  V30 9179 H 885.41 2.56851 1.51101 0
M  V30 9180 H 882.947 1.27381 0.735704 0
M  V30 9181 H 884.905 1.67079 3.82283 0
M  V30 9182 H 883.535 0.758011 3.13774 0
M  V30 9183 H 882.587 3.02886 2.3014 0
M  V30 9184 H 883.899 3.83501 3.18949 0
M  V30 9185 H 883.053 2.87688 5.34154 0
M  V30 9186 H 881.792 1.96652 4.46295 0
M  V30 9187 H 880.797 4.11977 3.64081 0
M  V30 9188 H 882.022 5.03887 4.55274 0
M  V30 9189 H 879.968 3.14525 5.75682 0
M  V30 9190 H 879.885 4.87628 5.77715 0
M  V30 9191 H 881.153 4.06795 6.64935 0
M  V30 9192 N 885.382 -0.782676 1.36792 0
M  V30 9193 C 886.329 -1.89558 1.31667 0
M  V30 9194 C 887.299 -1.65076 0.184147 0
M  V30 9195 O 888.484 -1.87143 0.371753 0
M  V30 9196 C 885.624 -3.26469 1.11858 0
M  V30 9197 C 884.737 -3.62978 2.34245 0
M  V30 9198 C 883.872 -4.89041 2.07394 0
M  V30 9199 C 882.911 -5.18249 3.25706 0
M  V30 9200 N 882.048 -6.35497 2.98476 0
M  V30 9201 H 886.888 -1.93274 2.26824 0
M  V30 9202 H 884.425 -0.945057 1.12726 0
M  V30 9203 H 886.383 -4.05431 0.983968 0
M  V30 9204 H 885.013 -3.22158 0.203531 0
M  V30 9205 H 884.065 -2.79087 2.58485 0
M  V30 9206 H 885.377 -3.80507 3.22514 0
M  V30 9207 H 884.531 -5.75883 1.90901 0
M  V30 9208 H 883.27 -4.73594 1.16446 0
M  V30 9209 H 882.275 -4.29887 3.4275 0
M  V30 9210 H 883.5 -5.35611 4.1749 0
M  V30 9211 H 881.446 -6.21429 2.10146 0
M  V30 9212 H 881.363 -6.5339 3.80286 0
M  V30 9213 H 882.631 -7.25304 2.85577 0
M  V30 9214 N 886.86 -1.21182 -1.00761 0
M  V30 9215 C 887.823 -0.970339 -2.07646 0
M  V30 9216 C 888.823 0.0576345 -1.60697 0
M  V30 9217 O 890.013 -0.179369 -1.73274 0
M  V30 9218 C 887.145 -0.462703 -3.37745 0
M  V30 9219 H 888.338 -1.91856 -2.30502 0
M  V30 9220 H 885.891 -1.02844 -1.17698 0
M  V30 9221 H 886.626 0.490559 -3.20568 0
M  V30 9222 H 886.411 -1.20416 -3.73152 0
M  V30 9223 H 887.901 -0.313531 -4.16421 0
M  V30 9224 N 888.338 1.20213 -1.01915 0
M  V30 9225 C 889.27 2.2251 -0.549725 0
M  V30 9226 C 890.283 1.58558 0.369235 0
M  V30 9227 O 891.472 1.77715 0.167176 0
M  V30 9228 C 888.572 3.38189 0.219432 0
M  V30 9229 C 887.745 4.31729 -0.702066 0
M  V30 9230 C 886.804 5.26196 0.0199624 0
M  V30 9231 O 885.83 5.65993 -0.60339 0
M  V30 9232 N 887.032 5.65895 1.29397 0
M  V30 9233 H 889.797 2.63412 -1.42948 0
M  V30 9234 H 887.358 1.3478 -0.896987 0
M  V30 9235 H 889.35 3.98392 0.711763 0
M  V30 9236 H 887.92 2.96156 1.00051 0
M  V30 9237 H 887.14 3.69455 -1.37466 0
M  V30 9238 H 888.428 4.91145 -1.3287 0
M  V30 9239 H 887.826 5.35579 1.8213 0
M  V30 9240 H 886.383 6.28395 1.73098 0
M  V30 9241 N 889.816 0.795718 1.36037 0
M  V30 9242 C 890.749 0.144269 2.27744 0
M  V30 9243 C 891.727 -0.683351 1.47543 0
M  V30 9244 O 892.911 -0.652976 1.76829 0
M  V30 9245 C 890.038 -0.800944 3.29094 0
M  V30 9246 C 889.084 -0.0543234 4.26465 0
M  V30 9247 S 889.917 1.27426 5.20118 0
M  V30 9248 C 891.073 0.333213 6.25012 0
M  V30 9249 H 891.306 0.921827 2.82648 0
M  V30 9250 H 888.839 0.590241 1.42673 0
M  V30 9251 H 890.797 -1.34082 3.87985 0
M  V30 9252 H 889.458 -1.5518 2.7309 0
M  V30 9253 H 888.651 -0.771788 4.98056 0
M  V30 9254 H 888.253 0.415264 3.71687 0
M  V30 9255 H 890.545 -0.485604 6.75757 0
M  V30 9256 H 891.488 1.01798 7.00744 0
M  V30 9257 H 891.896 -0.066256 5.64461 0
M  V30 9258 N 891.294 -1.47756 0.548274 0
M  V30 9259 C 892.257 -2.28379 -0.193857 0
M  V30 9260 C 893.257 -1.36436 -0.850986 0
M  V30 9261 O 894.447 -1.59154 -0.70822 0
M  V30 9262 C 891.579 -3.15858 -1.28243 0
M  V30 9263 H 892.772 -2.95458 0.514231 0
M  V30 9264 H 890.325 -1.53298 0.304879 0
M  V30 9265 H 891.06 -2.5345 -2.0232 0
M  V30 9266 H 890.845 -3.83512 -0.816148 0
M  V30 9267 H 892.335 -3.76627 -1.80393 0
M  V30 9268 N 892.772 -0.284283 -1.55015 0
M  V30 9269 C 893.719 0.599194 -2.22886 0
M  V30 9270 C 894.689 1.14264 -1.20553 0
M  V30 9271 O 895.874 1.19025 -1.49123 0
M  V30 9272 C 893.014 1.77317 -2.96062 0
M  V30 9273 C 892.127 1.26271 -4.13134 0
M  V30 9274 C 891.262 2.39922 -4.73931 0
M  V30 9275 C 890.301 1.85925 -5.8318 0
M  V30 9276 N 889.438 2.93084 -6.38002 0
M  V30 9277 H 894.278 0.0137816 -2.97997 0
M  V30 9278 H 891.815 -0.00496503 -1.47099 0
M  V30 9279 H 893.773 2.46339 -3.36709 0
M  V30 9280 H 892.403 2.33047 -2.23358 0
M  V30 9281 H 891.455 0.465296 -3.77544 0
M  V30 9282 H 892.767 0.827284 -4.91892 0
M  V30 9283 H 891.921 3.1692 -5.17346 0
M  V30 9284 H 890.66 2.86784 -3.9447 0
M  V30 9285 H 889.665 1.07409 -5.39206 0
M  V30 9286 H 890.89 1.39987 -6.64515 0
M  V30 9287 H 888.836 3.3931 -5.61431 0
M  V30 9288 H 888.753 2.53986 -7.12058 0
M  V30 9289 H 890.021 3.7003 -6.86075 0
M  V30 9290 N 894.251 1.57596 -0.0117121 0
M  V30 9291 C 895.214 2.08089 0.960816 0
M  V30 9292 C 896.214 0.992519 1.26514 0
M  V30 9293 O 897.404 1.25475 1.20837 0
M  V30 9294 C 894.536 2.53217 2.28241 0
M  V30 9295 H 895.729 2.9529 0.523829 0
M  V30 9296 H 893.282 1.54508 0.235995 0
M  V30 9297 H 894.017 1.69294 2.76604 0
M  V30 9298 H 893.802 3.32714 2.0747 0
M  V30 9299 H 895.292 2.92568 2.97983 0
M  V30 9300 N 895.729 -0.261212 1.5542 0
M  V30 9301 C 896.692 -1.30645 1.8832 0
M  V30 9302 C 897.692 -1.41782 0.758588 0
M  V30 9303 O 898.882 -1.40729 1.02669 0
M  V30 9304 C 896.014 -2.6862 2.09895 0
M  V30 9305 H 897.207 -1.02698 2.81768 0
M  V30 9306 H 894.76 -0.499838 1.48092 0
M  V30 9307 H 895.495 -3.0173 1.18868 0
M  V30 9308 H 895.28 -2.61921 2.91787 0
M  V30 9309 H 896.77 -3.44121 2.36581 0
M  V30 9310 N 897.207 -1.48554 -0.526253 0
M  V30 9311 C 898.17 -1.62868 -1.61266 0
M  V30 9312 C 899.17 -0.501762 -1.52771 0
M  V30 9313 O 900.36 -0.76764 -1.56374 0
M  V30 9314 C 897.492 -1.60238 -3.00893 0
M  V30 9315 H 898.685 -2.59742 -1.49913 0
M  V30 9316 H 896.238 -1.37207 -0.748595 0
M  V30 9317 H 896.973 -0.648545 -3.17749 0
M  V30 9318 H 896.758 -2.42054 -3.08468 0
M  V30 9319 H 898.248 -1.73455 -3.79872 0
M  V30 9320 N 898.685 0.775411 -1.37205 0
M  V30 9321 C 899.595 1.91967 -1.34855 0
M  V30 9322 C 900.611 1.72214 -0.248656 0
M  V30 9323 O 901.787 1.95512 -0.483421 0
M  V30 9324 C 898.852 3.27038 -1.15096 0
M  V30 9325 C 897.913 3.5947 -2.34691 0
M  V30 9326 C 897.146 4.88097 -2.15865 0
M  V30 9327 O 897.369 5.58871 -1.14102 0
M  V30 9328 O 896.303 5.19507 -3.03967 0
M  V30 9329 H 900.129 1.969 -2.31223 0
M  V30 9330 H 897.714 0.917647 -1.17897 0
M  V30 9331 H 899.596 4.07837 -1.0605 0
M  V30 9332 H 898.271 3.22965 -0.217999 0
M  V30 9333 H 897.178 2.7892 -2.49308 0
M  V30 9334 H 898.511 3.68282 -3.26541 0
M  V30 9335 N 900.163 1.21714 1.00117 0
M  V30 9336 C 901.073 0.99597 2.12409 0
M  V30 9337 C 902.089 -0.0531431 1.73919 0
M  V30 9338 O 903.265 0.137757 2.00928 0
M  V30 9339 C 900.33 0.567593 3.42022 0
M  V30 9340 C 899.391 1.68936 3.94663 0
M  V30 9341 C 898.624 1.28133 5.1809 0
M  V30 9342 O 898.847 0.156574 5.70185 0
M  V30 9343 O 897.781 2.0947 5.64275 0
M  V30 9344 H 901.607 1.93657 2.33946 0
M  V30 9345 H 899.192 1.00236 1.10784 0
M  V30 9346 H 901.074 0.338664 4.20037 0
M  V30 9347 H 899.749 -0.34424 3.21864 0
M  V30 9348 H 898.656 1.97274 3.17858 0
M  V30 9349 H 899.989 2.57876 4.19238 0
M  V30 9350 N 901.641 -1.19671 1.02551 0
M  V30 9351 C 903.057 -1.41305 0.741963 0
M  V30 9352 C 903.257 -1.89865 -0.674807 0
M  V30 9353 O 902.313 -2.07323 -1.44129 0
M  V30 9354 C 903.626 -2.42706 1.77522 0
M  V30 9355 C 905.174 -2.56458 1.79438 0
M  V30 9356 C 905.649 -3.61111 2.81715 0
M  V30 9357 N 907.14 -3.68603 2.8051 0
M  V30 9358 C 907.875 -4.49262 3.56302 0
M  V30 9359 N 907.371 -5.33653 4.41799 0
M  V30 9360 N 909.164 -4.43879 3.44859 0
M  V30 9361 H 901.315 -0.8647 1.94002 0
M  V30 9362 H 903.578 -0.442206 0.838545 0
M  V30 9363 H 903.284 -2.14042 2.79068 0
M  V30 9364 H 903.158 -3.41831 1.59472 0
M  V30 9365 H 905.545 -2.84447 0.78573 0
M  V30 9366 H 905.626 -1.57499 2.01563 0
M  V30 9367 H 905.27 -3.33864 3.82749 0
M  V30 9368 H 905.2 -4.59713 2.56849 0
M  V30 9369 H 907.691 -3.08329 2.18498 0
M  V30 9370 H 908.004 -5.92308 4.96378 0
M  V30 9371 H 906.349 -5.33125 4.45873 0
M  V30 9372 H 909.54 -3.7699 2.77482 0
M  V30 9373 H 909.713 -5.06501 4.04179 0
M  V30 9374 N 903.119 -0.802921 -1.35613 0
M  V30 9375 C 904.082 -0.216422 -2.28176 0
M  V30 9376 C 905.082 0.594101 -1.49422 0
M  V30 9377 O 906.272 0.41312 -1.6923 0
M  V30 9378 C 903.404 0.698746 -3.33662 0
M  V30 9379 H 904.597 -1.03276 -2.81557 0
M  V30 9380 H 902.15 -0.573307 -1.45406 0
M  V30 9381 H 902.885 1.53891 -2.85461 0
M  V30 9382 H 902.67 0.119314 -3.91918 0
M  V30 9383 H 904.16 1.10354 -4.02755 0
M  V30 9384 N 904.597 1.47463 -0.556102 0
M  V30 9385 C 905.527 2.32801 0.180497 0
M  V30 9386 C 906.508 1.43721 0.909848 0
M  V30 9387 O 907.693 1.72578 0.89053 0
M  V30 9388 C 904.823 3.25478 1.21167 0
M  V30 9389 C 903.777 4.2379 0.598846 0
M  V30 9390 C 903.103 5.05783 1.73457 0
M  V30 9391 C 904.403 5.20387 -0.446659 0
M  V30 9392 H 906.097 2.94636 -0.531956 0
M  V30 9393 H 903.643 1.41683 -0.257267 0
M  V30 9394 H 905.596 3.8402 1.73513 0
M  V30 9395 H 904.32 2.61695 1.95405 0
M  V30 9396 H 902.979 3.66472 0.0966897 0
M  V30 9397 H 902.627 4.38405 2.46596 0
M  V30 9398 H 902.327 5.72343 1.33031 0
M  V30 9399 H 903.851 5.67183 2.26131 0
M  V30 9400 H 905.265 5.73299 -0.00930019 0
M  V30 9401 H 903.662 5.95143 -0.769735 0
M  V30 9402 H 904.732 4.65932 -1.34295 0
M  V30 9403 N 906.075 0.2925 1.54862 0
M  V30 9404 C 907.322 -0.319263 1.99967 0
M  V30 9405 C 907.65 -1.54547 1.18092 0
M  V30 9406 O 906.905 -1.94186 0.242969 0
M  V30 9407 C 907.204 -0.728674 3.49893 0
M  V30 9408 C 906.87 0.394836 4.49168 0
M  V30 9409 C 905.532 0.703289 4.76033 0
M  V30 9410 C 907.884 1.15103 5.08331 0
M  V30 9411 C 905.212 1.77121 5.59325 0
M  V30 9412 C 907.564 2.20881 5.92785 0
M  V30 9413 C 906.228 2.52342 6.17964 0
M  V30 9414 H 905.498 -0.116827 0.731733 0
M  V30 9415 H 908.145 0.40983 1.87063 0
M  V30 9416 H 906.45 -1.53772 3.60363 0
M  V30 9417 H 908.147 -1.21305 3.82212 0
M  V30 9418 H 904.737 0.144319 4.28357 0
M  V30 9419 H 908.921 0.92599 4.87585 0
M  V30 9420 H 904.177 2.01978 5.77074 0
M  V30 9421 H 908.351 2.79939 6.37657 0
M  V30 9422 H 905.978 3.35225 6.82296 0
M  V30 9423 N 907.553 -1.57587 0.0200696 0
M  V30 9424 C 908.781 -1.95718 -0.670964 0
M  V30 9425 C 909.196 -0.896081 -1.6618 0
M  V30 9426 O 908.553 0.123037 -1.82085 0
M  V30 9427 C 908.604 -3.33904 -1.38529 0
M  V30 9428 O 908.325 -4.35943 -0.434167 0
M  V30 9429 C 909.826 -3.86614 -2.16898 0
M  V30 9430 H 907.046 -0.644819 -0.185606 0
M  V30 9431 H 909.59 -2.04354 0.0771495 0
M  V30 9432 H 907.745 -3.26515 -2.08487 0
M  V30 9433 H 908.159 -5.16001 -0.940378 0
M  V30 9434 H 909.633 -4.85673 -2.62346 0
M  V30 9435 H 910.11 -3.20379 -3.00423 0
M  V30 9436 H 910.716 -3.97243 -1.51916 0
M  V30 9437 N 909.032 0.252966 -1.55557 0
M  V30 9438 C 910.309 1.00432 -1.67847 0
M  V30 9439 C 910.689 2.03587 -0.55816 0
M  V30 9440 O 910.037 2.24239 0.439197 0
M  V30 9441 C 910.247 1.64313 -3.079 0
M  V30 9442 C 911.595 2.14726 -3.66303 0
M  V30 9443 O 912.619 1.74264 -3.10661 0
M  V30 9444 O 911.478 2.89 -4.63833 0
M  V30 9445 H 908.572 0.467102 -0.682455 0
M  V30 9446 H 911.118 0.247233 -1.67889 0
M  V30 9447 H 909.89 0.896681 -3.80888 0
M  V30 9448 H 909.513 2.46657 -3.11843 0
M  V30 9449 N 910.51 1.48831 0.518367 0
M  V30 9450 C 911.926 1.35209 0.847979 0
M  V30 9451 C 912.126 0.371927 1.98038 0
M  V30 9452 O 911.182 -0.202681 2.51685 0
M  V30 9453 C 912.495 2.7552 1.20455 0
M  V30 9454 C 914.043 2.84094 1.31377 0
M  V30 9455 C 914.518 4.25132 1.70372 0
M  V30 9456 N 916.009 4.27861 1.77453 0
M  V30 9457 C 916.744 5.3394 2.09035 0
M  V30 9458 N 916.24 6.50285 2.3896 0
M  V30 9459 N 918.033 5.21343 2.10139 0
M  V30 9460 H 910.184 2.11166 -0.228624 0
M  V30 9461 H 912.447 0.94717 -0.0396599 0
M  V30 9462 H 912.153 3.48861 0.445991 0
M  V30 9463 H 912.027 3.09785 2.15204 0
M  V30 9464 H 914.414 2.11001 2.06307 0
M  V30 9465 H 914.495 2.53433 0.347203 0
M  V30 9466 H 914.139 4.98745 0.959975 0
M  V30 9467 H 914.069 4.53245 2.68098 0
M  V30 9468 H 916.56 3.43945 1.56557 0
M  V30 9469 H 916.873 7.26961 2.62196 0
M  V30 9470 H 915.218 6.5354 2.36454 0
M  V30 9471 H 918.409 4.29462 1.86225 0
M  V30 9472 H 918.582 6.04112 2.34419 0
M  V30 9473 N 911.988 -0.768124 1.37614 0
M  V30 9474 C 912.921 -1.88894 1.2804 0
M  V30 9475 C 913.899 -1.61809 0.160226 0
M  V30 9476 O 915.083 -1.85498 0.33506 0
M  V30 9477 C 912.21 -3.24197 0.980523 0
M  V30 9478 C 911.256 -3.70188 2.11808 0
M  V30 9479 S 912.089 -3.83433 3.73817 0
M  V30 9480 C 913.245 -5.21578 3.45987 0
M  V30 9481 H 913.478 -1.96726 2.22904 0
M  V30 9482 H 911.011 -0.929602 1.23279 0
M  V30 9483 H 912.969 -4.02342 0.814331 0
M  V30 9484 H 911.63 -3.14061 0.0493122 0
M  V30 9485 H 910.823 -4.6829 1.86335 0
M  V30 9486 H 910.425 -2.99155 2.2446 0
M  V30 9487 H 912.717 -6.06865 3.012 0
M  V30 9488 H 913.66 -5.52065 4.43429 0
M  V30 9489 H 914.068 -4.89687 2.80832 0
M  V30 9490 N 913.466 -1.22244 -0.994698 0
M  V30 9491 C 914.429 -0.992308 -2.06606 0
M  V30 9492 C 915.429 0.0405872 -1.60749 0
M  V30 9493 O 916.619 -0.197737 -1.73074 0
M  V30 9494 C 913.751 -0.498499 -3.37236 0
M  V30 9495 H 914.944 -1.9429 -2.28455 0
M  V30 9496 H 912.497 -1.04087 -1.166 0
M  V30 9497 H 913.232 0.456531 -3.21071 0
M  V30 9498 H 913.017 -1.24367 -3.71854 0
M  V30 9499 H 914.507 -0.35768 -4.16065 0
M  V30 9500 N 914.944 1.19125 -1.03184 0
M  V30 9501 C 916.172 1.92838 -0.74975 0
M  V30 9502 C 916.587 1.75667 0.691851 0
M  V30 9503 O 915.944 1.0805 1.47076 0
M  V30 9504 C 915.995 3.44509 -1.09525 0
M  V30 9505 O 915.716 3.6113 -2.48025 0
M  V30 9506 C 917.217 4.35338 -0.836397 0
M  V30 9507 H 914.437 0.61246 -0.274105 0
M  V30 9508 H 916.981 1.5118 -1.37712 0
M  V30 9509 H 915.136 3.83988 -0.513006 0
M  V30 9510 H 915.55 4.54959 -2.60984 0
M  V30 9511 H 917.024 5.4035 -1.12808 0
M  V30 9512 H 917.501 4.38602 0.229102 0
M  V30 9513 H 918.107 4.01544 -1.40152 0
M  V30 9514 N 916.422 0.810101 1.35185 0
M  V30 9515 C 917.838 0.494269 1.51754 0
M  V30 9516 C 918.038 -0.983907 1.75845 0
M  V30 9517 O 917.094 -1.76882 1.80191 0
M  V30 9518 C 918.407 1.34268 2.69059 0
M  V30 9519 C 919.955 1.33848 2.82938 0
M  V30 9520 C 920.43 2.17109 4.03271 0
M  V30 9521 N 921.921 2.14664 4.10456 0
M  V30 9522 C 922.656 2.75843 5.02691 0
M  V30 9523 N 922.152 3.45962 6.00235 0
M  V30 9524 N 923.945 2.65465 4.95464 0
M  V30 9525 H 916.096 1.76736 1.17805 0
M  V30 9526 H 918.359 0.752429 0.576676 0
M  V30 9527 H 918.065 2.39183 2.57845 0
M  V30 9528 H 917.939 0.998362 3.63748 0
M  V30 9529 H 920.326 0.29716 2.936 0
M  V30 9530 H 920.407 1.72269 1.89095 0
M  V30 9531 H 920.051 3.21283 3.93369 0
M  V30 9532 H 919.981 1.76046 4.96302 0
M  V30 9533 H 922.472 1.63648 3.40628 0
M  V30 9534 H 922.785 3.89922 6.67219 0
M  V30 9535 H 921.13 3.50067 6.00398 0
M  V30 9536 H 924.321 2.1027 4.18215 0
M  V30 9537 H 924.494 3.13433 5.67154 0
M  V30 9538 N 917.9 -1.47166 0.563914 0
M  V30 9539 C 919.125 -2.0735 0.0454698 0
M  V30 9540 C 919.55 -1.41281 -1.24182 0
M  V30 9541 O 918.908 -0.490084 -1.7455 0
M  V30 9542 C 918.956 -3.60378 -0.126453 0
M  V30 9543 O 918.06 -3.94934 -1.18746 0
M  V30 9544 H 917.401 -0.661773 0.0543377 0
M  V30 9545 H 919.931 -1.89086 0.781508 0
M  V30 9546 H 919.941 -4.06593 -0.338554 0
M  V30 9547 H 918.616 -4.07862 0.81373 0
M  V30 9548 H 917.193 -3.60455 -0.955318 0
M  V30 9549 N 919.378 -0.300708 -1.54705 0
M  V30 9550 C 920.606 0.31127 -2.04545 0
M  V30 9551 C 921.021 1.47542 -1.178 0
M  V30 9552 O 920.378 1.81361 -0.203571 0
M  V30 9553 C 920.429 0.767783 -3.53253 0
M  V30 9554 O 920.15 -0.350027 -4.36699 0
M  V30 9555 C 921.651 1.44494 -4.1909 0
M  V30 9556 H 918.871 0.067668 -0.667579 0
M  V30 9557 H 921.415 -0.440254 -1.99705 0
M  V30 9558 H 919.57 1.46933 -3.58454 0
M  V30 9559 H 919.984 0.00534038 -5.245 0
M  V30 9560 H 921.458 1.71553 -5.24665 0
M  V30 9561 H 921.935 2.3849 -3.68808 0
M  V30 9562 H 922.541 0.786581 -4.17963 0
M  V30 9563 N 920.856 1.57574 -0.0284266 0
M  V30 9564 C 922.084 1.96071 0.660575 0
M  V30 9565 C 922.499 0.904881 1.65703 0
M  V30 9566 O 921.856 -0.113379 1.82147 0
M  V30 9567 C 921.907 3.34634 1.36756 0
M  V30 9568 O 921.628 4.36167 0.411041 0
M  V30 9569 C 923.129 3.87758 2.14845 0
M  V30 9570 H 920.349 0.645794 0.182183 0
M  V30 9571 H 922.893 2.04311 -0.0879858 0
M  V30 9572 H 921.048 3.27616 2.06753 0
M  V30 9573 H 921.462 5.16493 0.913 0
M  V30 9574 H 922.936 4.87058 2.59767 0
M  V30 9575 H 923.413 3.21967 2.9872 0
M  V30 9576 H 924.019 3.98043 1.49807 0
M  V30 9577 N 922.334 -0.244713 1.55689 0
M  V30 9578 C 923.266 -1.32595 1.86952 0
M  V30 9579 C 924.279 -1.44185 0.755948 0
M  V30 9580 O 925.468 -1.45496 1.03408 0
M  V30 9581 C 922.568 -2.70429 2.04258 0
M  V30 9582 C 921.741 -2.8108 3.35131 0
M  V30 9583 C 920.8 -3.99773 3.42152 0
M  V30 9584 O 919.826 -3.89197 4.15348 0
M  V30 9585 N 921.028 -5.13041 2.71604 0
M  V30 9586 H 923.793 -1.06111 2.80287 0
M  V30 9587 H 921.354 -0.434811 1.55952 0
M  V30 9588 H 923.346 -3.48173 2.06295 0
M  V30 9589 H 921.916 -2.89612 1.17658 0
M  V30 9590 H 921.136 -1.89994 3.45392 0
M  V30 9591 H 922.424 -2.85147 4.21389 0
M  V30 9592 H 921.822 -5.24525 2.11872 0
M  V30 9593 H 920.379 -5.88912 2.79331 0
M  V30 9594 N 923.813 -1.49104 -0.510467 0
M  V30 9595 C 925.038 -1.62068 -1.29417 0
M  V30 9596 C 925.463 -0.288432 -1.85875 0
M  V30 9597 O 924.821 0.742667 -1.65391 0
M  V30 9598 C 924.869 -2.68506 -2.40701 0
M  V30 9599 O 923.973 -2.27021 -3.4429 0
M  V30 9600 H 923.314 -0.542778 -0.382476 0
M  V30 9601 H 925.844 -1.95228 -0.612154 0
M  V30 9602 H 925.854 -2.90383 -2.86604 0
M  V30 9603 H 924.529 -3.65216 -1.98973 0
M  V30 9604 H 923.106 -2.15436 -3.04371 0
M  V30 9605 N 925.291 0.760815 -1.38019 0
M  V30 9606 C 926.239 1.89578 -1.34771 0
M  V30 9607 C 927.233 1.67766 -0.234714 0
M  V30 9608 O 928.439 1.75423 -0.403352 0
M  V30 9609 H 924.814 0.623608 -0.420258 0
M  V30 9610 H 926.785 1.89434 -2.30558 0
M  V30 9611 C 925.534 3.26976 -1.18246 0
M  V30 9612 H 924.857 3.44342 -2.03147 0
M  V30 9613 H 926.297 4.06657 -1.20026 0
M  V30 9614 C 924.756 3.36717 0.111145 0
M  V30 9615 O 925.286 3.86607 1.09079 0
M  V30 9616 N 923.492 2.90128 0.165542 0
M  V30 9617 H 923.039 2.49719 -0.632328 0
M  V30 9618 H 922.997 2.97026 1.03067 0
M  V30 9619 N 926.769 1.22769 0.988202 0
M  V30 9620 C 928.185 0.988665 1.2529 0
M  V30 9621 C 928.385 -0.314938 1.99024 0
M  V30 9622 O 927.441 -1.03637 2.30251 0
M  V30 9623 C 928.754 2.19046 2.06009 0
M  V30 9624 C 930.302 2.23452 2.19176 0
M  V30 9625 C 930.777 3.43196 3.03283 0
M  V30 9626 N 932.268 3.43387 3.10869 0
M  V30 9627 C 933.003 4.32693 3.7625 0
M  V30 9628 N 932.499 5.32224 4.43519 0
M  V30 9629 N 934.292 4.20457 3.73058 0
M  V30 9630 H 926.443 2.06575 0.494014 0
M  V30 9631 H 928.706 0.905452 0.28082 0
M  V30 9632 H 928.412 3.13607 1.59197 0
M  V30 9633 H 928.286 2.19492 3.06763 0
M  V30 9634 H 930.673 1.29436 2.65199 0
M  V30 9635 H 930.754 2.27042 1.17836 0
M  V30 9636 H 930.398 4.37515 2.57959 0
M  V30 9637 H 930.328 3.36847 4.04774 0
M  V30 9638 H 932.819 2.71368 2.62998 0
M  V30 9639 H 933.132 5.9664 4.91163 0
M  V30 9640 H 931.477 5.36133 4.42252 0
M  V30 9641 H 934.668 3.41949 3.19669 0
M  V30 9642 H 934.841 4.90261 4.23731 0
M  V30 9643 N 928.247 -1.18576 1.03814 0
M  V30 9644 C 929.475 -1.92437 0.759966 0
M  V30 9645 C 929.89 -1.76031 -0.682526 0
M  V30 9646 O 929.247 -1.08829 -1.46501 0
M  V30 9647 C 929.298 -3.43923 1.11351 0
M  V30 9648 O 929.019 -3.5981 2.49937 0
M  V30 9649 C 930.52 -4.34888 0.859472 0
M  V30 9650 H 927.74 -0.610998 0.277349 0
M  V30 9651 H 930.284 -1.50448 1.38512 0
M  V30 9652 H 928.439 -3.83711 0.533362 0
M  V30 9653 H 928.853 -4.53569 2.63393 0
M  V30 9654 H 930.327 -5.39744 1.15672 0
M  V30 9655 H 930.804 -4.38717 -0.205839 0
M  V30 9656 H 931.41 -4.00795 1.42279 0
M  V30 9657 N 929.725 -0.817259 -1.34754 0
M  V30 9658 C 930.95 -0.414423 -2.03217 0
M  V30 9659 C 931.375 0.970037 -1.61158 0
M  V30 9660 O 930.733 1.63016 -0.793436 0
M  V30 9661 C 930.781 -0.518087 -3.56859 0
M  V30 9662 O 929.885 0.464314 -4.09778 0
M  V30 9663 H 929.226 -0.171454 -0.641482 0
M  V30 9664 H 931.756 -1.10611 -1.72123 0
M  V30 9665 H 931.766 -0.391779 -4.06115 0
M  V30 9666 H 930.441 -1.52786 -3.86819 0
M  V30 9667 H 929.018 0.297361 -3.71712 0
M  V30 9668 N 931.203 1.46865 -0.571711 0
M  V30 9669 C 932.619 1.57897 -0.23255 0
M  V30 9670 C 932.819 1.56836 1.26509 0
M  V30 9671 O 931.875 1.47947 2.04617 0
M  V30 9672 C 933.188 2.87778 -0.872036 0
M  V30 9673 C 934.736 3.01389 -0.844605 0
M  V30 9674 C 935.211 4.33991 -1.46343 0
M  V30 9675 N 936.702 4.40662 -1.42727 0
M  V30 9676 C 937.437 5.41858 -1.87557 0
M  V30 9677 N 936.933 6.49787 -2.4031 0
M  V30 9678 N 938.726 5.32992 -1.7854 0
M  V30 9679 H 930.877 1.45798 -1.54457 0
M  V30 9680 H 933.14 0.694785 -0.644964 0
M  V30 9681 H 932.846 2.94332 -1.92513 0
M  V30 9682 H 932.72 3.75345 -0.373677 0
M  V30 9683 H 935.107 2.94423 0.19984 0
M  V30 9684 H 935.188 2.15327 -1.38087 0
M  V30 9685 H 934.832 4.41714 -2.50701 0
M  V30 9686 H 934.762 5.18809 -0.902479 0
M  V30 9687 H 937.253 3.63263 -1.04155 0
M  V30 9688 H 937.566 7.23199 -2.72403 0
M  V30 9689 H 935.911 6.50637 -2.44329 0
M  V30 9690 H 939.102 4.47575 -1.37093 0
M  V30 9691 H 939.275 6.11716 -2.13794 0
M  V30 9692 N 932.681 0.308908 1.54543 0
M  V30 9693 C 933.611 -0.556657 2.26768 0
M  V30 9694 C 934.592 -1.13145 1.27013 0
M  V30 9695 O 935.777 -1.15931 1.558 0
M  V30 9696 C 932.907 -1.72481 3.01443 0
M  V30 9697 C 931.861 -1.28001 4.08411 0
M  V30 9698 C 931.187 -2.53395 4.70845 0
M  V30 9699 C 932.487 -0.405497 5.20724 0
M  V30 9700 H 934.181 0.0457618 2.99365 0
M  V30 9701 H 931.727 0.0234495 1.43981 0
M  V30 9702 H 933.68 -2.3365 3.50693 0
M  V30 9703 H 932.404 -2.35359 2.26437 0
M  V30 9704 H 931.063 -0.69133 3.60022 0
M  V30 9705 H 930.711 -3.14604 3.92471 0
M  V30 9706 H 930.411 -2.2433 5.43093 0
M  V30 9707 H 931.935 -3.15352 5.22863 0
M  V30 9708 H 933.349 -0.923076 5.6582 0
M  V30 9709 H 931.746 -0.208282 5.99738 0
M  V30 9710 H 932.816 0.567412 4.81569 0
M  V30 9711 N 934.159 -1.57557 0.0367827 0
M  V30 9712 C 935.408 -1.91291 -0.639569 0
M  V30 9713 C 935.721 -0.915601 -1.72847 0
M  V30 9714 O 936.927 -1.14447 -2.46199 0
M  V30 9715 C 935.383 -3.39697 -1.18888 0
M  V30 9716 C 934.991 -4.47803 -0.132851 0
M  V30 9717 C 936.735 -3.82487 -1.8413 0
M  V30 9718 C 934.642 -5.87311 -0.694229 0
M  V30 9719 H 933.572 -0.713886 -0.242658 0
M  V30 9720 H 936.223 -1.83209 0.103332 0
M  V30 9721 H 934.605 -3.42736 -1.98363 0
M  V30 9722 H 935.779 -4.56334 0.640009 0
M  V30 9723 H 934.094 -4.14264 0.421264 0
M  V30 9724 H 936.691 -4.84076 -2.27101 0
M  V30 9725 H 937.034 -3.17959 -2.68716 0
M  V30 9726 H 937.567 -3.81903 -1.11332 0
M  V30 9727 H 934.306 -6.55401 0.113667 0
M  V30 9728 H 933.826 -5.82371 -1.4354 0
M  V30 9729 H 935.505 -6.36119 -1.1816 0
M  V30 9730 N 935.637 0.236453 -1.55816 0
M  V30 9731 C 936.885 0.96111 -1.77784 0
M  V30 9732 C 937.206 1.85454 -0.602648 0
M  V30 9733 O 936.476 1.92157 0.381137 0
M  V30 9734 H 935.056 0.35787 -0.655697 0
M  V30 9735 H 937.718 0.251888 -1.93265 0
M  V30 9736 H 936.814 1.5767 -2.69345 0
M  V30 9737 N 937.115 1.49373 0.502552 0
M  V30 9738 C 938.062 1.65927 1.60427 0
M  V30 9739 C 939.032 0.500768 1.58371 0
M  V30 9740 O 940.217 0.727606 1.76382 0
M  V30 9741 C 937.357 1.73043 2.9858 0
M  V30 9742 C 936.47 3.00187 3.10663 0
M  V30 9743 C 935.605 2.98292 4.3954 0
M  V30 9744 C 934.644 4.20022 4.4525 0
M  V30 9745 N 933.781 4.16046 5.65553 0
M  V30 9746 H 938.621 2.59998 1.45619 0
M  V30 9747 H 936.158 1.28912 0.708519 0
M  V30 9748 H 938.116 1.7515 3.78653 0
M  V30 9749 H 936.746 0.824397 3.12095 0
M  V30 9750 H 935.798 3.07699 2.23663 0
M  V30 9751 H 937.11 3.9018 3.10742 0
M  V30 9752 H 936.264 2.98953 5.27932 0
M  V30 9753 H 935.003 2.06075 4.42023 0
M  V30 9754 H 934.008 4.19607 3.5526 0
M  V30 9755 H 935.233 5.13431 4.44484 0
M  V30 9756 H 933.179 3.26665 5.68881 0
M  V30 9757 H 933.096 4.99773 5.67242 0
M  V30 9758 H 934.364 4.20807 6.56156 0
M  V30 9759 N 938.594 -0.753485 1.38421 0
M  V30 9760 C 939.541 -1.86723 1.35659 0
M  V30 9761 C 940.511 -1.64648 0.219121 0
M  V30 9762 O 941.696 -1.86313 0.411366 0
M  V30 9763 C 938.836 -3.24023 1.18758 0
M  V30 9764 C 937.949 -3.57928 2.41892 0
M  V30 9765 C 937.084 -4.84532 2.17721 0
M  V30 9766 C 936.123 -5.11224 3.36626 0
M  V30 9767 N 935.26 -6.29023 3.11889 0
M  V30 9768 H 940.1 -1.88419 2.30873 0
M  V30 9769 H 937.637 -0.920934 1.14705 0
M  V30 9770 H 939.595 -4.03252 1.06974 0
M  V30 9771 H 938.225 -3.21654 0.27182 0
M  V30 9772 H 937.277 -2.73541 2.64347 0
M  V30 9773 H 938.589 -3.73581 3.30513 0
M  V30 9774 H 937.743 -5.71704 2.03074 0
M  V30 9775 H 936.482 -4.71018 1.26465 0
M  V30 9776 H 935.487 -4.2252 3.51791 0
M  V30 9777 H 936.712 -5.26635 4.28757 0
M  V30 9778 H 934.658 -6.16832 2.2328 0
M  V30 9779 H 934.575 -6.45177 3.9406 0
M  V30 9780 H 935.843 -7.19083 3.00898 0
M  V30 9781 N 940.072 -1.23292 -0.981677 0
M  V30 9782 C 941.005 -0.956198 -2.07201 0
M  V30 9783 C 941.983 0.105027 -1.6226 0
M  V30 9784 O 943.167 -0.0289582 -1.88478 0
M  V30 9785 C 940.294 -0.44029 -3.35826 0
M  V30 9786 C 939.34 -1.48792 -3.99704 0
M  V30 9787 S 940.173 -3.06491 -4.39117 0
M  V30 9788 C 941.329 -2.56567 -5.70898 0
M  V30 9789 H 941.562 -1.87947 -2.30355 0
M  V30 9790 H 939.095 -1.06522 -1.1177 0
M  V30 9791 H 941.053 -0.149237 -4.10229 0
M  V30 9792 H 939.714 0.462045 -3.10683 0
M  V30 9793 H 938.907 -1.07706 -4.92357 0
M  V30 9794 H 938.509 -1.72826 -3.31673 0
M  V30 9795 H 940.801 -1.98508 -6.47766 0
M  V30 9796 H 941.744 -3.47755 -6.16824 0
M  V30 9797 H 942.152 -1.97465 -5.28836 0
M  V30 9798 N 941.55 1.18024 -1.04442 0
M  V30 9799 C 942.498 2.23834 -0.632557 0
M  V30 9800 C 943.492 1.65902 0.342488 0
M  V30 9801 O 944.698 1.78778 0.20937 0
M  V30 9802 H 941.073 0.728544 -0.186353 0
M  V30 9803 H 943.044 2.55876 -1.53526 0
M  V30 9804 C 941.793 3.47697 -0.0153661 0
M  V30 9805 H 941.116 3.92574 -0.756704 0
M  V30 9806 H 942.556 4.23345 0.235541 0
M  V30 9807 C 941.015 3.13416 1.23579 0
M  V30 9808 O 941.545 3.27499 2.3261 0
M  V30 9809 N 939.751 2.67708 1.13053 0
M  V30 9810 H 939.298 2.56449 0.243277 0
M  V30 9811 H 939.256 2.45143 1.96855 0
M  V30 9812 N 943.028 0.824394 1.34319 0
M  V30 9813 C 944.444 0.510336 1.51221 0
M  V30 9814 C 944.644 -0.965201 1.76879 0
M  V30 9815 O 943.7 -1.74961 1.82057 0
M  V30 9816 C 945.013 1.37114 2.6762 0
M  V30 9817 C 946.561 1.36842 2.81502 0
M  V30 9818 C 947.036 2.21374 4.00946 0
M  V30 9819 N 948.527 2.19005 4.08156 0
M  V30 9820 C 949.262 2.81159 4.99737 0
M  V30 9821 N 948.758 3.52309 5.96532 0
M  V30 9822 N 950.551 2.70706 4.9262 0
M  V30 9823 H 942.702 1.77976 1.15924 0
M  V30 9824 H 944.965 0.758503 0.568663 0
M  V30 9825 H 944.671 2.41905 2.55294 0
M  V30 9826 H 944.545 1.03689 3.62669 0
M  V30 9827 H 946.932 0.328284 2.93268 0
M  V30 9828 H 947.013 1.74265 1.87257 0
M  V30 9829 H 946.657 3.25437 3.8994 0
M  V30 9830 H 946.587 1.813 4.94407 0
M  V30 9831 H 949.078 1.67252 3.38874 0
M  V30 9832 H 949.391 3.96977 6.63045 0
M  V30 9833 H 947.736 3.56415 5.96652 0
M  V30 9834 H 950.927 2.14694 4.15962 0
M  V30 9835 H 951.1 3.19431 5.63798 0
M  V30 9836 N 944.506 -1.46559 0.579492 0
M  V30 9837 C 945.731 -2.0729 0.0674595 0
M  V30 9838 C 946.156 -1.4259 -1.22677 0
M  V30 9839 O 945.514 -0.50857 -1.74021 0
M  V30 9840 C 945.562 -3.60492 -0.0882227 0
M  V30 9841 O 944.666 -3.96172 -1.14551 0
M  V30 9842 H 944.007 -0.661159 0.0613536 0
M  V30 9843 H 946.537 -1.88247 0.801519 0
M  V30 9844 H 946.547 -4.06929 -0.295411 0
M  V30 9845 H 945.222 -4.06976 0.856943 0
M  V30 9846 H 943.799 -3.61448 -0.917033 0
M  V30 9847 N 945.984 -0.3171 -1.54377 0
M  V30 9848 C 947.23 0.287836 -2.00747 0
M  V30 9849 C 947.563 1.52292 -1.20502 0
M  V30 9850 O 946.838 1.92391 -0.285626 0
M  V30 9851 C 947.121 0.628423 -3.54574 0
M  V30 9852 C 946.974 -0.616922 -4.45549 0
M  V30 9853 C 948.293 1.44862 -4.15575 0
M  V30 9854 H 945.412 0.103144 -0.729747 0
M  V30 9855 H 948.054 -0.432396 -1.85014 0
M  V30 9856 H 946.204 1.24203 -3.68111 0
M  V30 9857 H 947.876 -1.25526 -4.43893 0
M  V30 9858 H 946.119 -1.24706 -4.15489 0
M  V30 9859 H 946.79 -0.334243 -5.50987 0
M  V30 9860 H 949.266 0.930015 -4.05574 0
M  V30 9861 H 948.142 1.6557 -5.23333 0
M  V30 9862 H 948.403 2.44279 -3.68484 0
M  V30 9863 N 947.462 1.57535 -0.0451378 0
M  V30 9864 C 948.687 1.97172 0.64326 0
M  V30 9865 C 949.112 0.922266 1.63939 0
M  V30 9866 O 948.47 -0.115155 1.80934 0
M  V30 9867 C 948.518 3.35889 1.3119 0
M  V30 9868 O 947.622 3.33387 2.42748 0
M  V30 9869 H 946.963 0.642469 0.167719 0
M  V30 9870 H 949.493 2.04295 -0.111747 0
M  V30 9871 H 949.503 3.72481 1.66499 0
M  V30 9872 H 948.178 4.1181 0.581823 0
M  V30 9873 H 946.755 3.08533 2.09432 0
M  V30 9874 N 948.94 -0.228186 1.55939 0
M  V30 9875 C 949.87 -1.28607 1.94891 0
M  V30 9876 C 950.851 -1.49236 0.816245 0
M  V30 9877 O 952.036 -1.61531 1.07803 0
M  V30 9878 C 949.166 -2.63719 2.25986 0
M  V30 9879 C 948.12 -2.57757 3.4168 0
M  V30 9880 C 947.446 -3.96837 3.58364 0
M  V30 9881 C 948.746 -2.13116 4.76843 0
M  V30 9882 H 950.44 -0.962531 2.83506 0
M  V30 9883 H 947.986 -0.461577 1.36402 0
M  V30 9884 H 949.939 -3.37878 2.51826 0
M  V30 9885 H 948.663 -2.97747 1.34217 0
M  V30 9886 H 947.322 -1.86055 3.15878 0
M  V30 9887 H 946.97 -4.28162 2.63982 0
M  V30 9888 H 946.67 -3.93731 4.36176 0
M  V30 9889 H 948.194 -4.72668 3.86545 0
M  V30 9890 H 949.608 -2.77015 5.01932 0
M  V30 9891 H 948.005 -2.21083 5.57891 0
M  V30 9892 H 949.075 -1.08326 4.72645 0
M  V30 9893 N 950.418 -1.49637 -0.494624 0
M  V30 9894 C 951.646 -1.63164 -1.2722 0
M  V30 9895 C 952.061 -0.305552 -1.86311 0
M  V30 9896 O 951.418 0.709758 -1.68133 0
M  V30 9897 C 951.469 -2.70524 -2.39789 0
M  V30 9898 O 951.19 -3.97991 -1.83126 0
M  V30 9899 C 952.691 -2.94814 -3.31058 0
M  V30 9900 H 949.911 -0.54912 -0.385627 0
M  V30 9901 H 952.455 -1.95711 -0.593081 0
M  V30 9902 H 950.61 -2.40738 -3.03519 0
M  V30 9903 H 951.024 -4.57179 -2.57075 0
M  V30 9904 H 952.498 -3.73653 -4.06309 0
M  V30 9905 H 952.975 -2.04974 -3.88436 0
M  V30 9906 H 953.581 -3.26042 -2.73088 0
M  V30 9907 N 951.896 0.746133 -1.38819 0
M  V30 9908 C 953.145 1.50085 -1.34749 0
M  V30 9909 C 953.458 1.95516 0.0574786 0
M  V30 9910 O 954.664 2.70601 0.22073 0
M  V30 9911 C 953.12 2.71141 -2.36665 0
M  V30 9912 C 952.728 2.32706 -3.82821 0
M  V30 9913 C 954.472 3.49005 -2.41652 0
M  V30 9914 C 952.379 3.50418 -4.76405 0
M  V30 9915 H 951.309 0.563563 -0.500912 0
M  V30 9916 H 953.96 0.814951 -1.6441 0
M  V30 9917 H 952.342 3.4175 -2.00058 0
M  V30 9918 H 953.516 1.69715 -4.28408 0
M  V30 9919 H 951.831 1.67959 -3.81023 0
M  V30 9920 H 954.428 4.36541 -3.08766 0
M  V30 9921 H 954.771 3.90687 -1.43769 0
M  V30 9922 H 955.304 2.85416 -2.77097 0
M  V30 9923 H 952.043 3.13795 -5.75511 0
M  V30 9924 H 951.563 4.12426 -4.35505 0
M  V30 9925 H 953.242 4.16901 -4.94775 0
M  V30 9926 N 953.375 1.23811 0.975125 0
M  V30 9927 C 954.605 1.0986 1.7497 0
M  V30 9928 C 955.013 -0.352366 1.8589 0
M  V30 9929 O 954.356 -1.2553 1.34119 0
M  V30 9930 C 954.418 1.65584 3.19096 0
M  V30 9931 C 954.082 3.14395 3.3167 0
M  V30 9932 C 955.079 4.1163 3.17579 0
M  V30 9933 C 952.764 3.54208 3.56149 0
M  V30 9934 C 954.758 5.46661 3.27781 0
M  V30 9935 C 952.445 4.89382 3.65989 0
M  V30 9936 C 953.443 5.85418 3.51817 0
M  V30 9937 O 953.131 7.18135 3.61299 0
M  V30 9938 H 952.863 0.384854 0.555755 0
M  V30 9939 H 955.417 1.64242 1.23343 0
M  V30 9940 H 953.647 1.05627 3.71994 0
M  V30 9941 H 955.336 1.47032 3.78334 0
M  V30 9942 H 956.102 3.82214 2.98559 0
M  V30 9943 H 951.981 2.79968 3.66249 0
M  V30 9944 H 955.525 6.21601 3.16636 0
M  V30 9945 H 951.422 5.18473 3.84521 0
M  V30 9946 H 952.19 7.25956 3.78061 0
M  V30 9947 O 954.892 -1.10713 1.17579 0
M  V30 9948 H 955.583 -1.70774 0.914101 0
M  V30 END ATOM
M  V30 BEGIN BOND
M  V30 END BOND
M  V30 END CTAB
M  END
$$$$
