drugbank_target|P17252 Protein kinase C alpha type (DB00144; DB00163; DB05013; DB06451; DB06595; DB06641; DB08846; DB11752; DB14001; DB14002)
 OpenBabel12092119483D

  0  0  0     0  0            999 V3000
M  V30 BEGIN CTAB
M  V30 COUNTS 10691 10828 0 0 0
M  V30 BEGIN ATOM
M  V30 1 H -0.908 1.98254 -0.117106 0
M  V30 2 N 0 1.576 0 0
M  V30 3 C 0.933 2.03868 1.02534 0
M  V30 4 C 1.911 0.928543 1.3348 0
M  V30 5 O 3.095 1.19667 1.45644 0
M  V30 6 C 0.222 2.43627 2.35294 0
M  V30 7 C -0.732 3.65373 2.2001 0
M  V30 8 S 0.101 5.13292 1.52614 0
M  V30 9 C 1.257 5.56322 2.86805 0
M  V30 10 H 1.49 2.90518 0.631377 0
M  V30 11 H -0.977 1.52953 0.210867 0
M  V30 12 H 0.981 2.67203 3.11629 0
M  V30 13 H -0.358 1.57376 2.7183 0
M  V30 14 H -1.165 3.90944 3.18086 0
M  V30 15 H -1.563 3.418 1.51819 0
M  V30 16 H 0.729 5.58782 3.83104 0
M  V30 17 H 1.672 6.56266 2.65933 0
M  V30 18 H 2.08 4.83886 2.90714 0
M  V30 19 N 1.4781 -0.272755 1.55222 0
M  V30 20 C 2.4411 -1.32041 1.87344 0
M  V30 21 C 3.4411 -1.42342 0.74803 0
M  V30 22 O 4.6311 -1.41488 1.0162 0
M  V30 23 C 1.7631 -2.70173 2.07893 0
M  V30 24 H 2.9561 -1.04789 2.80997 0
M  V30 25 H 0.5091 -0.51083 1.47717 0
M  V30 26 H 1.2441 -3.02605 1.16622 0
M  V30 27 H 1.0291 -2.64082 2.89833 0
M  V30 28 H 2.5191 -3.45869 2.34017 0
M  V30 29 N 2.9562 -1.48159 -0.537278 0
M  V30 30 C 4.2332 -1.46291 -1.29839 0
M  V30 31 C 4.6132 -0.170613 -2.10409 0
M  V30 32 O 3.9612 0.847746 -2.12192 0
M  V30 33 C 4.1712 -2.72055 -2.18603 0
M  V30 34 C 5.5192 -3.20087 -2.7898 0
M  V30 35 O 6.5432 -2.72921 -2.28894 0
M  V30 36 O 5.4022 -4.02138 -3.70064 0
M  V30 37 H 2.4962 -0.583906 -0.585647 0
M  V30 38 H 5.0422 -1.60384 -0.554534 0
M  V30 39 H 3.8142 -3.57628 -1.58801 0
M  V30 40 H 3.4372 -2.60646 -3.00249 0
M  V30 41 N 4.4343 0.785586 -1.36625 0
M  V30 42 C 5.6803 1.54591 -1.31261 0
M  V30 43 C 6.0133 1.93906 0.106823 0
M  V30 44 O 5.2883 1.63007 1.06108 0
M  V30 45 C 5.5713 2.82038 -2.23889 0
M  V30 46 C 5.4243 2.49066 -3.74548 0
M  V30 47 C 6.7433 3.83887 -2.15217 0
M  V30 48 H 3.8623 0.560846 -0.478143 0
M  V30 49 H 6.5043 0.902278 -1.67209 0
M  V30 50 H 4.6543 3.36961 -1.93363 0
M  V30 51 H 6.3263 2.00164 -4.15611 0
M  V30 52 H 4.5693 1.81954 -3.93796 0
M  V30 53 H 5.2403 3.40109 -4.34776 0
M  V30 54 H 7.7163 3.38421 -2.42096 0
M  V30 55 H 6.5923 4.70806 -2.82193 0
M  V30 56 H 6.8533 4.27131 -1.14068 0
M  V30 57 N 5.9124 1.20967 1.01018 0
M  V30 58 C 7.1594 1.02374 1.74716 0
M  V30 59 C 7.4874 -0.443375 1.89379 0
M  V30 60 O 6.7424 -1.34535 1.42123 0
M  V30 61 C 7.0414 1.65997 3.16512 0
M  V30 62 C 6.7074 3.15831 3.2181 0
M  V30 63 C 5.3694 3.56719 3.22963 0
M  V30 64 C 7.7214 4.11816 3.19464 0
M  V30 65 C 5.0494 4.92107 3.19449 0
M  V30 66 C 7.4014 5.47158 3.17491 0
M  V30 67 C 6.0654 5.87451 3.16951 0
M  V30 68 H 5.3354 0.374614 0.639332 0
M  V30 69 H 7.9824 1.50485 1.18434 0
M  V30 70 H 6.2874 1.10166 3.75993 0
M  V30 71 H 7.9844 1.49119 3.72242 0
M  V30 72 H 4.5744 2.83263 3.21652 0
M  V30 73 H 8.7584 3.81257 3.17737 0
M  V30 74 H 4.0144 5.22579 3.17366 0
M  V30 75 H 8.1884 6.21274 3.14629 0
M  V30 76 H 5.8154 6.92329 3.13983 0
M  V30 77 N 7.3905 -1.2043 1.01659 0
M  V30 78 C 8.8015 -1.71517 0.737482 0
M  V30 79 C 9.1525 -1.81547 -0.743973 0
M  V30 80 O 8.2775 -1.47803 -1.58061 0
M  V30 81 C 8.8725 -3.11515 1.33206 0
M  V30 82 C 7.4315 -3.59912 1.10183 0
M  V30 83 C 6.5785 -2.37116 1.43776 0
M  V30 84 H 9.5295 -1.05444 1.18606 0
M  V30 85 H 9.5505 -3.73575 0.722636 0
M  V30 86 H 9.0625 -3.04182 2.41028 0
M  V30 87 H 7.1635 -3.72577 0.0412756 0
M  V30 88 H 7.2765 -4.44731 1.78188 0
M  V30 89 H 5.6405 -2.39857 0.856778 0
M  V30 90 H 6.4235 -2.32424 2.52654 0
M  V30 91 N 8.8686 -0.792821 -1.36206 0
M  V30 92 C 10.1166 -0.366062 -1.98757 0
M  V30 93 C 10.4376 1.0668 -1.63231 0
M  V30 94 O 9.7076 1.73587 -0.907978 0
M  V30 95 H 8.2876 -0.132364 -0.735179 0
M  V30 96 H 10.9496 -1.01562 -1.66347 0
M  V30 97 H 10.0456 -0.460638 -3.08682 0
M  V30 98 N 10.3467 1.47872 -0.545128 0
M  V30 99 C 11.2947 2.31533 0.222512 0
M  V30 100 C 12.2887 1.42177 0.920985 0
M  V30 101 O 13.4947 1.59005 0.843645 0
M  V30 102 H 9.8697 0.746519 0.0906278 0
M  V30 103 H 11.8407 2.94139 -0.50246 0
M  V30 104 C 10.5897 3.2457 1.24699 0
M  V30 105 H 9.9127 3.93283 0.718944 0
M  V30 106 H 11.3527 3.85963 1.75523 0
M  V30 107 C 9.8117 2.47237 2.28856 0
M  V30 108 O 10.3417 2.20808 3.35569 0
M  V30 109 N 8.5477 2.08461 2.02466 0
M  V30 110 H 8.0947 2.30155 1.157 0
M  V30 111 H 8.0527 1.57033 2.72375 0
M  V30 112 N 11.8248 0.280983 1.55075 0
M  V30 113 C 13.1018 -0.386207 1.91749 0
M  V30 114 C 13.4818 -1.73264 1.20594 0
M  V30 115 O 12.8298 -2.26034 0.334784 0
M  V30 116 C 13.0398 -0.520687 3.45094 0
M  V30 117 C 14.3878 -0.800865 4.16979 0
M  V30 118 O 15.4118 -0.605271 3.5102 0
M  V30 119 O 14.2708 -1.1753 5.33712 0
M  V30 120 H 11.3648 -0.212408 0.799257 0
M  V30 121 H 13.9108 0.327568 1.66509 0
M  V30 122 H 12.6828 0.426633 3.88967 0
M  V30 123 H 12.3058 -1.2837 3.76307 0
M  V30 124 N 13.3029 -1.57598 0.00835791 0
M  V30 125 C 14.5279 -1.95617 -0.689103 0
M  V30 126 C 14.9529 -0.883753 -1.66046 0
M  V30 127 O 14.3109 0.157352 -1.80616 0
M  V30 128 C 14.3589 -3.32736 -1.38994 0
M  V30 129 O 13.4629 -3.27631 -2.50463 0
M  V30 130 H 12.8039 -0.638379 -0.182668 0
M  V30 131 H 15.3339 -2.045 0.064036 0
M  V30 132 H 15.3439 -3.68494 -1.75147 0
M  V30 133 H 14.0189 -4.1034 -0.677778 0
M  V30 134 H 12.5959 -3.03561 -2.16576 0
M  V30 135 N 14.781 0.264519 -1.55364 0
M  V30 136 C 16.009 1.013 -1.80405 0
M  V30 137 C 16.424 1.79618 -0.581622 0
M  V30 138 O 15.781 1.76879 0.449468 0
M  V30 139 C 15.832 1.96487 -3.03439 0
M  V30 140 O 15.553 1.21341 -4.20961 0
M  V30 141 C 17.054 2.83079 -3.41147 0
M  V30 142 H 14.274 0.298875 -0.600762 0
M  V30 143 H 16.818 0.292736 -2.02394 0
M  V30 144 H 14.973 2.63965 -2.83551 0
M  V30 145 H 15.387 1.85573 -4.90574 0
M  V30 146 H 16.861 3.4565 -4.30384 0
M  V30 147 H 17.338 3.53286 -2.60932 0
M  V30 148 H 17.944 2.2108 -3.63323 0
M  V30 149 N 16.2591 1.48442 0.529413 0
M  V30 150 C 17.2221 1.62524 1.61612 0
M  V30 151 C 18.2221 0.498509 1.52877 0
M  V30 152 O 19.4121 0.76431 1.56537 0
M  V30 153 C 16.5441 1.59597 3.01233 0
M  V30 154 H 17.7371 2.59423 1.50465 0
M  V30 155 H 15.2901 1.37047 0.751514 0
M  V30 156 H 16.0251 0.641781 3.17886 0
M  V30 157 H 15.8101 2.41397 3.08982 0
M  V30 158 H 17.3001 1.72646 3.80241 0
M  V30 159 N 17.7372 -0.778329 1.37039 0
M  V30 160 C 18.9622 -1.57248 1.35233 0
M  V30 161 C 19.3872 -1.87999 -0.0615568 0
M  V30 162 O 18.7452 -1.48734 -1.03672 0
M  V30 163 C 18.7932 -2.86353 2.19167 0
M  V30 164 O 17.8972 -3.80442 1.59178 0
M  V30 165 H 17.2382 -0.476569 0.462362 0
M  V30 166 H 19.7682 -0.963853 1.80474 0
M  V30 167 H 19.7782 -3.35519 2.32145 0
M  V30 168 H 18.4532 -2.63299 3.21942 0
M  V30 169 H 17.0302 -3.39067 1.55203 0
M  V30 170 N 19.2153 -1.21501 -1.00376 0
M  V30 171 C 20.1473 -0.933174 -2.09343 0
M  V30 172 C 21.1603 0.0840896 -1.62583 0
M  V30 173 O 22.3493 -0.148563 -1.77881 0
M  V30 174 C 19.4493 -0.379869 -3.36764 0
M  V30 175 C 18.6223 -1.45176 -4.12605 0
M  V30 176 C 17.6813 -0.907476 -5.18316 0
M  V30 177 O 16.7073 -1.5912 -5.46507 0
M  V30 178 N 17.9093 0.276649 -5.7984 0
M  V30 179 H 20.6743 -1.87124 -2.34104 0
M  V30 180 H 18.2353 -1.12043 -1.16867 0
M  V30 181 H 20.2273 -0.00131488 -4.047 0
M  V30 182 H 18.7973 0.463048 -3.09151 0
M  V30 183 H 18.0173 -2.00411 -3.39454 0
M  V30 184 H 19.3053 -2.17328 -4.6005 0
M  V30 185 H 18.7033 0.849147 -5.59291 0
M  V30 186 H 17.2603 0.596702 -6.49063 0
M  V30 187 N 20.6934 1.19889 -1.02296 0
M  V30 188 C 21.9704 1.85148 -0.630832 0
M  V30 189 C 22.3504 1.91385 0.890782 0
M  V30 190 O 21.6984 1.42642 1.78509 0
M  V30 191 C 21.9084 3.24442 -1.28602 0
M  V30 192 C 23.2564 4.00663 -1.4055 0
M  V30 193 O 24.2804 3.33818 -1.24273 0
M  V30 194 O 23.1394 5.20387 -1.66913 0
M  V30 195 H 20.2334 0.797613 -0.218499 0
M  V30 196 H 22.7794 1.27427 -1.12074 0
M  V30 197 H 21.5514 3.14704 -2.32545 0
M  V30 198 H 21.1744 3.89802 -0.7836 0
M  V30 199 N 22.1715 0.800033 1.35784 0
M  V30 200 C 23.4175 0.377901 1.99248 0
M  V30 201 C 23.7505 -1.05052 1.63333 0
M  V30 202 O 23.0255 -1.72768 0.893385 0
M  V30 203 C 23.3085 0.553922 3.55814 0
M  V30 204 C 23.1615 2.0268 4.01548 0
M  V30 205 C 24.4805 -0.0244802 4.40093 0
M  V30 206 H 21.5995 0.138782 0.723815 0
M  V30 207 H 24.2415 1.00835 1.61035 0
M  V30 208 H 22.3915 0.0172398 3.88496 0
M  V30 209 H 24.0635 2.62536 3.79305 0
M  V30 210 H 22.3065 2.5256 3.52698 0
M  V30 211 H 22.9775 2.10087 5.10458 0
M  V30 212 H 25.4535 0.433775 4.13833 0
M  V30 213 H 24.3295 0.128637 5.48749 0
M  V30 214 H 24.5905 -1.11758 4.27741 0
M  V30 215 N 23.6496 -1.47581 0.552962 0
M  V30 216 C 24.6126 -2.28439 -0.186605 0
M  V30 217 C 25.6126 -1.36706 -0.84665 0
M  V30 218 O 26.8026 -1.59378 -0.703164 0
M  V30 219 C 23.9346 -3.16264 -1.2724 0
M  V30 220 H 25.1276 -2.95294 0.523609 0
M  V30 221 H 22.6806 -1.532 0.309745 0
M  V30 222 H 23.4156 -2.54091 -2.01514 0
M  V30 223 H 23.2006 -3.83769 -0.803968 0
M  V30 224 H 24.6906 -3.77198 -1.79196 0
M  V30 225 N 25.1277 -0.289203 -1.54924 0
M  V30 226 C 26.0757 0.607966 -2.24514 0
M  V30 227 C 27.0697 1.14655 -1.24702 0
M  V30 228 O 28.2757 1.09856 -1.4259 0
M  V30 229 H 24.6507 0.21464 -0.720718 0
M  V30 230 H 26.6217 -0.00164182 -2.984 0
M  V30 231 C 25.3707 1.77406 -2.99036 0
M  V30 232 H 24.6937 1.36884 -3.75637 0
M  V30 233 H 26.1337 2.37814 -3.51028 0
M  V30 234 C 24.5927 2.67107 -2.05318 0
M  V30 235 O 25.1227 3.6787 -1.61353 0
M  V30 236 N 23.3287 2.34582 -1.71521 0
M  V30 237 H 22.8757 1.52688 -2.07471 0
M  V30 238 H 22.8337 2.94867 -1.0909 0
M  V30 239 N 26.6058 1.57591 -0.0167156 0
M  V30 240 C 28.0218 1.55946 0.339557 0
M  V30 241 C 28.2218 1.02109 1.73713 0
M  V30 242 O 27.2778 0.662303 2.43659 0
M  V30 243 C 28.5908 3.00037 0.199499 0
M  V30 244 C 30.1388 3.11805 0.273193 0
M  V30 245 C 30.6138 4.57713 0.162068 0
M  V30 246 N 32.1048 4.6268 0.219444 0
M  V30 247 C 32.8398 5.73185 0.157054 0
M  V30 248 N 32.3358 6.92786 0.0442936 0
M  V30 249 N 34.1288 5.61707 0.21014 0
M  V30 250 H 26.2798 1.90921 -0.930758 0
M  V30 251 H 28.5428 0.877674 -0.358319 0
M  V30 252 H 28.2488 3.4333 -0.76273 0
M  V30 253 H 28.1228 3.64387 0.974786 0
M  V30 254 H 30.5098 2.68433 1.22587 0
M  V30 255 H 30.5908 2.50201 -0.532256 0
M  V30 256 H 30.2348 5.01763 -0.78714 0
M  V30 257 H 30.1648 5.17283 0.986222 0
M  V30 258 H 32.6558 3.76649 0.307246 0
M  V30 259 H 32.9688 7.728 0.00304069 0
M  V30 260 H 31.3138 6.94999 0.00968457 0
M  V30 261 H 34.5048 4.6716 0.296546 0
M  V30 262 H 34.6778 6.47807 0.158054 0
M  V30 263 N 28.0839 -0.256276 1.55502 0
M  V30 264 C 29.3309 -0.985619 1.76895 0
M  V30 265 C 29.6589 -1.85671 0.579355 0
M  V30 266 O 28.9139 -1.90744 -0.437651 0
M  V30 267 C 29.2129 -1.88432 3.03691 0
M  V30 268 C 28.8789 -1.16936 4.35473 0
M  V30 269 C 27.5409 -0.97173 4.71286 0
M  V30 270 C 29.8929 -0.661889 5.1698 0
M  V30 271 C 27.2209 -0.254179 5.86149 0
M  V30 272 C 29.5729 0.042149 6.32586 0
M  V30 273 C 28.2369 0.25134 6.67027 0
M  V30 274 H 27.5069 -0.360663 0.647304 0
M  V30 275 H 30.1539 -0.256483 1.89775 0
M  V30 276 H 28.4589 -2.68021 2.85783 0
M  V30 277 H 30.1559 -2.45015 3.1744 0
M  V30 278 H 26.7459 -1.33332 4.07333 0
M  V30 279 H 30.9299 -0.802145 4.89775 0
M  V30 280 H 26.1859 -0.0815408 6.11346 0
M  V30 281 H 30.3599 0.443049 6.94989 0
M  V30 282 H 27.9869 0.809314 7.5588 0
M  V30 283 N 29.562 -1.4872 -0.521534 0
M  V30 284 C 30.525 -1.63379 -1.60748 0
M  V30 285 C 31.525 -0.50661 -1.52611 0
M  V30 286 O 32.715 -0.772601 -1.5613 0
M  V30 287 C 29.847 -1.61192 -3.00383 0
M  V30 288 H 31.04 -2.60217 -1.49087 0
M  V30 289 H 28.593 -1.37444 -0.744235 0
M  V30 290 H 29.328 -0.65863 -3.17541 0
M  V30 291 H 29.113 -2.43032 -3.07698 0
M  V30 292 H 30.603 -1.7466 -3.7932 0
M  V30 293 N 31.0401 0.771051 -1.3745 0
M  V30 294 C 32.4561 1.07171 -1.18265 0
M  V30 295 C 32.6561 2.01491 -0.019287 0
M  V30 296 O 31.7121 2.44244 0.640408 0
M  V30 297 C 33.0251 1.66854 -2.50161 0
M  V30 298 C 34.5731 1.79109 -2.56689 0
M  V30 299 C 35.0481 2.42205 -3.88717 0
M  V30 300 N 36.5391 2.49655 -3.90162 0
M  V30 301 C 37.2741 2.9933 -4.8907 0
M  V30 302 N 36.7701 3.49172 -5.98374 0
M  V30 303 N 38.5631 2.9821 -4.76474 0
M  V30 304 H 30.7141 0.144796 -2.11906 0
M  V30 305 H 32.9771 0.126863 -0.939473 0
M  V30 306 H 32.6831 1.05017 -3.35655 0
M  V30 307 H 32.5571 2.6614 -2.673 0
M  V30 308 H 34.9441 2.40077 -1.71601 0
M  V30 309 H 35.0251 0.785757 -2.43433 0
M  V30 310 H 34.6691 1.81875 -4.74219 0
M  V30 311 H 34.5991 3.43345 -3.99276 0
M  V30 312 H 37.0901 2.14383 -3.11205 0
M  V30 313 H 37.4031 3.8548 -6.69795 0
M  V30 314 H 35.7481 3.47275 -6.02018 0
M  V30 315 H 38.9391 2.58572 -3.90203 0
M  V30 316 H 39.1121 3.36613 -5.53711 0
M  V30 317 N 32.5182 1.22032 0.997298 0
M  V30 318 C 33.4652 0.986467 2.08656 0
M  V30 319 C 34.4352 -0.0902671 1.65855 0
M  V30 320 O 35.6202 0.0584294 1.90711 0
M  V30 321 C 32.7602 0.565569 3.40434 0
M  V30 322 C 31.8732 1.71259 3.96604 0
M  V30 323 C 31.0082 1.24011 5.16522 0
M  V30 324 C 30.0472 2.35896 5.64818 0
M  V30 325 N 29.1842 1.89726 6.7598 0
M  V30 326 H 34.0242 1.91892 2.27994 0
M  V30 327 H 31.5612 0.956199 1.11782 0
M  V30 328 H 33.5192 0.302738 4.161 0
M  V30 329 H 32.1492 -0.329879 3.2111 0
M  V30 330 H 31.2012 2.08986 3.17851 0
M  V30 331 H 32.5132 2.55436 4.28432 0
M  V30 332 H 31.6672 0.934395 5.99461 0
M  V30 333 H 30.4062 0.368487 4.86306 0
M  V30 334 H 29.4112 2.67261 4.8047 0
M  V30 335 H 30.6362 3.23567 5.97061 0
M  V30 336 H 28.5822 1.0492 6.47555 0
M  V30 337 H 28.4992 2.67471 7.07103 0
M  V30 338 H 29.7672 1.62211 7.62435 0
M  V30 339 N 33.9963 -1.19345 1.0293 0
M  V30 340 C 35.2443 -1.88665 0.724574 0
M  V30 341 C 35.5653 -1.80036 -0.749144 0
M  V30 342 O 34.8353 -1.2111 -1.53978 0
M  V30 343 H 33.4153 -0.698406 0.265025 0
M  V30 344 H 36.0773 -1.44885 1.30362 0
M  V30 345 H 35.1733 -2.94987 1.01926 0
M  V30 346 N 35.4744 -0.807222 -1.35358 0
M  V30 347 C 36.4374 -0.223665 -2.28106 0
M  V30 348 C 37.4374 0.589354 -1.4961 0
M  V30 349 O 38.6274 0.407745 -1.69361 0
M  V30 350 C 35.7594 0.688149 -3.33882 0
M  V30 351 H 36.9524 -1.04169 -2.81227 0
M  V30 352 H 34.5054 -0.577921 -1.45223 0
M  V30 353 H 35.2404 1.52984 -2.85948 0
M  V30 354 H 35.0254 0.10687 -3.91954 0
M  V30 355 H 36.5154 1.09075 -4.03104 0
M  V30 356 N 36.9525 1.47285 -0.560781 0
M  V30 357 C 37.8825 2.32857 0.173105 0
M  V30 358 C 38.8635 1.44009 0.905281 0
M  V30 359 O 40.0485 1.7286 0.885046 0
M  V30 360 C 37.1785 3.25861 1.20133 0
M  V30 361 C 36.1325 4.23978 0.585388 0
M  V30 362 C 35.4585 5.06332 1.7185 0
M  V30 363 C 36.7585 5.20242 -0.463178 0
M  V30 364 H 38.4525 2.94466 -0.541307 0
M  V30 365 H 35.9985 1.41601 -0.261764 0
M  V30 366 H 37.9515 3.84569 1.72293 0
M  V30 367 H 36.6755 2.62315 1.94573 0
M  V30 368 H 35.3345 3.66501 0.085054 0
M  V30 369 H 34.9825 4.39186 2.45203 0
M  V30 370 H 34.6825 5.72762 1.31213 0
M  V30 371 H 36.2065 5.67899 2.24329 0
M  V30 372 H 37.6205 5.73293 -0.027502 0
M  V30 373 H 36.0175 5.94896 -0.788627 0
M  V30 374 H 37.0875 4.65504 -1.35773 0
M  V30 375 N 38.4306 0.297415 1.54768 0
M  V30 376 C 39.8466 -0.0560823 1.59501 0
M  V30 377 C 40.0466 -1.52725 1.31444 0
M  V30 378 O 39.1026 -2.27947 1.08611 0
M  V30 379 C 40.4156 0.338631 2.98787 0
M  V30 380 C 41.9636 0.287097 3.11681 0
M  V30 381 C 42.4386 0.656579 4.53269 0
M  V30 382 N 43.9296 0.608977 4.59179 0
M  V30 383 C 44.6646 0.867385 5.66802 0
M  V30 384 N 44.1606 1.19157 6.82476 0
M  V30 385 N 45.9536 0.794687 5.56454 0
M  V30 386 H 38.1046 1.25624 1.71267 0
M  V30 387 H 40.3676 0.509057 0.799728 0
M  V30 388 H 40.0736 1.36263 3.2423 0
M  V30 389 H 39.9476 -0.309508 3.75928 0
M  V30 390 H 42.3346 -0.727649 2.85988 0
M  V30 391 H 42.4156 0.969809 2.36703 0
M  V30 392 H 42.0596 1.66912 4.7969 0
M  V30 393 H 41.9896 -0.0481649 5.26578 0
M  V30 394 H 44.4806 0.369198 3.76092 0
M  V30 395 H 44.7936 1.37482 7.60473 0
M  V30 396 H 43.1386 1.22958 6.84037 0
M  V30 397 H 46.3296 0.541098 4.64962 0
M  V30 398 H 46.5026 0.999445 6.40246 0
M  V30 399 N 39.9087 -1.5758 0.0250728 0
M  V30 400 C 40.8407 -2.06869 -0.986796 0
M  V30 401 C 41.8537 -0.991332 -1.29137 0
M  V30 402 O 43.0427 -1.26761 -1.25674 0
M  V30 403 C 40.1427 -2.47486 -2.31525 0
M  V30 404 C 39.3157 -3.78253 -2.19643 0
M  V30 405 C 38.3747 -4.05464 -3.35388 0
M  V30 406 O 37.4007 -4.75774 -3.12454 0
M  V30 407 N 38.6027 -3.55321 -4.59051 0
M  V30 408 H 41.3677 -2.94302 -0.566276 0
M  V30 409 H 38.9287 -1.6109 -0.161776 0
M  V30 410 H 40.9207 -2.62785 -3.07776 0
M  V30 411 H 39.4907 -1.65441 -2.65232 0
M  V30 412 H 38.7107 -3.7279 -1.28144 0
M  V30 413 H 39.9987 -4.63936 -2.08903 0
M  V30 414 H 39.3967 -2.98431 -4.80578 0
M  V30 415 H 37.9537 -3.75905 -5.32483 0
M  V30 416 N 41.3868 0.248026 -1.55636 0
M  V30 417 C 42.3338 1.30707 -1.90222 0
M  V30 418 C 43.3038 1.47881 -0.756332 0
M  V30 419 O 44.4888 1.61883 -1.00988 0
M  V30 420 C 41.6288 2.65769 -2.20138 0
M  V30 421 C 40.7418 2.56612 -3.47526 0
M  V30 422 C 39.8768 3.8402 -3.67017 0
M  V30 423 C 38.9158 3.69476 -4.8801 0
M  V30 424 N 38.0528 4.88774 -5.04029 0
M  V30 425 H 42.8928 1.00512 -2.80538 0
M  V30 426 H 40.4298 0.485055 -1.38873 0
M  V30 427 H 42.3878 3.44386 -2.35487 0
M  V30 428 H 41.0178 2.94115 -1.33027 0
M  V30 429 H 40.0698 1.69571 -3.40514 0
M  V30 430 H 41.3818 2.41774 -4.36287 0
M  V30 431 H 40.5358 4.7108 -3.8232 0
M  V30 432 H 39.2748 4.01754 -2.76487 0
M  V30 433 H 38.2798 2.80799 -4.72686 0
M  V30 434 H 39.5048 3.53238 -5.8 0
M  V30 435 H 37.4508 5.0687 -4.16435 0
M  V30 436 H 37.3678 4.76562 -5.86877 0
M  V30 437 H 38.6358 5.77335 -5.23741 0
M  V30 438 N 42.8649 1.48995 0.513639 0
M  V30 439 C 43.8129 1.65199 1.63744 0
M  V30 440 C 44.8069 0.51809 1.61283 0
M  V30 441 O 46.0129 0.697335 1.65943 0
M  V30 442 H 42.3879 0.52069 0.542574 0
M  V30 443 H 44.3589 2.59552 1.47226 0
M  V30 444 C 43.1079 1.72409 3.01945 0
M  V30 445 H 42.4309 2.59029 3.04539 0
M  V30 446 H 43.8709 1.87785 3.80148 0
M  V30 447 C 42.3299 0.46618 3.33659 0
M  V30 448 O 42.8599 -0.413744 3.99564 0
M  V30 449 N 41.0659 0.332931 2.88687 0
M  V30 450 H 40.6129 1.04996 2.35231 0
M  V30 451 H 40.5709 -0.507665 3.10274 0
M  V30 452 N 44.343 -0.763751 1.37857 0
M  V30 453 C 45.589 -1.52483 1.33704 0
M  V30 454 C 45.922 -1.94051 -0.0759612 0
M  V30 455 O 45.197 -1.64675 -1.03501 0
M  V30 456 C 45.48 -2.78441 2.28348 0
M  V30 457 C 45.333 -2.43075 3.78463 0
M  V30 458 C 46.652 -3.80415 2.21298 0
M  V30 459 H 43.771 -0.553169 0.487005 0
M  V30 460 H 46.413 -0.875562 1.68624 0
M  V30 461 H 44.563 -3.33842 1.987 0
M  V30 462 H 46.235 -1.93527 4.18742 0
M  V30 463 H 44.478 -1.75666 3.96641 0
M  V30 464 H 45.149 -3.33149 4.40132 0
M  V30 465 H 47.625 -3.34527 2.47449 0
M  V30 466 H 46.501 -4.66257 2.89647 0
M  V30 467 H 46.762 -4.25262 1.20849 0
M  V30 468 N 45.8211 -1.22559 -0.990812 0
M  V30 469 C 46.7711 -0.964807 -2.0658 0
M  V30 470 C 47.7551 0.0853472 -1.60673 0
M  V30 471 O 48.9471 -0.125443 -1.76555 0
M  V30 472 C 46.0761 -0.546707 -3.38919 0
M  V30 473 C 45.1621 -1.6317 -3.91454 0
M  V30 474 N 45.5531 -2.85985 -4.17189 0
M  V30 475 C 43.8511 -1.50387 -4.19881 0
M  V30 476 C 44.5521 -3.56159 -4.59919 0
M  V30 477 N 43.5281 -2.83637 -4.63736 0
M  V30 478 H 47.3301 -1.89769 -2.24421 0
M  V30 479 H 44.8441 -1.12343 -1.17273 0
M  V30 480 H 46.8411 -0.34119 -4.15502 0
M  V30 481 H 45.5011 0.379254 -3.22478 0
M  V30 482 H 46.5121 -3.22392 -4.05319 0
M  V30 483 H 43.1891 -0.644254 -4.12499 0
M  V30 484 H 44.5791 -4.6139 -4.88435 0
M  V30 485 N 47.2992 1.18797 -1.03562 0
M  V30 486 C 48.2092 2.25913 -0.632505 0
M  V30 487 C 49.2252 1.70668 0.338882 0
M  V30 488 O 50.4012 2.00453 0.195076 0
M  V30 489 C 47.4662 3.467 0.00350942 0
M  V30 490 C 46.5272 4.17098 -1.01624 0
M  V30 491 C 45.7602 5.32119 -0.410478 0
M  V30 492 O 45.9832 5.64976 0.784725 0
M  V30 493 O 44.9172 5.9107 -1.13667 0
M  V30 494 H 48.7432 2.62648 -1.52478 0
M  V30 495 H 46.3282 1.25781 -0.806195 0
M  V30 496 H 48.2102 4.19878 0.35781 0
M  V30 497 H 46.8852 3.11798 0.869686 0
M  V30 498 H 45.7922 3.4601 -1.42224 0
M  V30 499 H 47.1252 4.55987 -1.85301 0
M  V30 500 N 48.7773 0.814389 1.34928 0
M  V30 501 C 50.0233 0.399013 1.98836 0
M  V30 502 C 50.3563 -1.03314 1.64438 0
M  V30 503 O 49.6313 -1.71811 0.911659 0
M  V30 504 C 49.9143 0.591629 3.55207 0
M  V30 505 C 49.7673 2.06928 3.99376 0
M  V30 506 C 51.0863 0.022199 4.40094 0
M  V30 507 H 48.2053 0.146451 0.722303 0
M  V30 508 H 50.8473 1.02537 1.59957 0
M  V30 509 H 48.9973 0.0584441 3.88456 0
M  V30 510 H 50.6693 2.66544 3.76499 0
M  V30 511 H 48.9123 2.56287 3.49999 0
M  V30 512 H 49.5833 2.1549 5.08201 0
M  V30 513 H 52.0593 0.477643 4.13349 0
M  V30 514 H 50.9353 0.186832 5.48582 0
M  V30 515 H 51.1963 -1.07215 4.28902 0
M  V30 516 N 50.2554 -1.46986 0.568584 0
M  V30 517 C 51.2024 -2.30153 -0.172707 0
M  V30 518 C 52.1724 -1.39759 -0.897586 0
M  V30 519 O 53.3574 -1.68716 -0.891044 0
M  V30 520 C 50.4974 -3.23952 -1.1895 0
M  V30 521 C 49.6104 -4.29441 -0.469517 0
M  V30 522 C 48.7454 -5.1038 -1.47259 0
M  V30 523 C 47.7844 -6.07632 -0.738225 0
M  V30 524 N 46.9214 -6.8149 -1.68868 0
M  V30 525 H 51.7614 -2.93019 0.542596 0
M  V30 526 H 49.2984 -1.44422 0.279401 0
M  V30 527 H 51.2564 -3.76767 -1.79173 0
M  V30 528 H 49.8864 -2.62926 -1.87269 0
M  V30 529 H 48.9384 -3.79594 0.247467 0
M  V30 530 H 50.2504 -4.98689 0.105241 0
M  V30 531 H 49.4044 -5.67402 -2.14803 0
M  V30 532 H 48.1434 -4.4106 -2.08128 0
M  V30 533 H 47.1484 -5.49778 -0.0489293 0
M  V30 534 H 48.3734 -6.78966 -0.135129 0
M  V30 535 H 46.3194 -6.14891 -2.28573 0
M  V30 536 H 46.2364 -7.46948 -1.16636 0
M  V30 537 H 47.5044 -7.43078 -2.3549 0
M  V30 538 N 51.7335 -0.305618 -1.54608 0
M  V30 539 C 53.0105 0.355652 -1.92339 0
M  V30 540 C 53.3905 1.71324 -1.23335 0
M  V30 541 O 52.7385 2.25473 -0.370702 0
M  V30 542 C 52.9485 0.46572 -3.45879 0
M  V30 543 C 54.2965 0.734426 -4.182 0
M  V30 544 O 55.3205 0.54935 -3.51938 0
M  V30 545 O 54.1795 1.09024 -5.35515 0
M  V30 546 H 51.2735 0.199666 -0.802535 0
M  V30 547 H 53.8195 -0.354017 -1.65966 0
M  V30 548 H 52.5915 -0.488461 -3.88239 0
M  V30 549 H 52.2145 1.22367 -3.78301 0
M  V30 550 N 53.2116 1.57565 -0.0334293 0
M  V30 551 C 54.1616 2.06978 0.956237 0
M  V30 552 C 55.1456 0.971193 1.28283 0
M  V30 553 O 56.3376 1.23471 1.26822 0
M  V30 554 C 53.4666 2.60393 2.23719 0
M  V30 555 C 52.5526 3.7719 1.93877 0
M  V30 556 N 52.9436 4.87639 1.34321 0
M  V30 557 C 51.2416 3.85758 2.23845 0
M  V30 558 C 51.9426 5.68825 1.21709 0
M  V30 559 N 50.9186 5.1587 1.71404 0
M  V30 560 H 54.7206 2.89773 0.490815 0
M  V30 561 H 52.2346 1.61492 0.171478 0
M  V30 562 H 54.2316 2.94088 2.95496 0
M  V30 563 H 52.8916 1.79031 2.70884 0
M  V30 564 H 53.9026 5.07803 1.01767 0
M  V30 565 H 50.5796 3.1531 2.73653 0
M  V30 566 H 51.9696 6.67631 0.75621 0
M  V30 567 N 54.6897 -0.239769 1.55765 0
M  V30 568 C 55.6367 -1.29696 1.90913 0
M  V30 569 C 56.6067 -1.47478 0.764164 0
M  V30 570 O 57.7917 -1.61345 1.01845 0
M  V30 571 C 54.9317 -2.64598 2.21544 0
M  V30 572 C 54.0447 -2.54765 3.48882 0
M  V30 573 C 53.1797 -3.82069 3.69049 0
M  V30 574 C 52.2187 -3.66883 4.89963 0
M  V30 575 N 51.3557 -4.86094 5.06614 0
M  V30 576 H 56.1957 -0.990224 2.81067 0
M  V30 577 H 53.7327 -0.477684 1.39128 0
M  V30 578 H 55.6907 -3.43132 2.3731 0
M  V30 579 H 54.3207 -2.93405 1.34585 0
M  V30 580 H 53.3727 -1.67763 3.41409 0
M  V30 581 H 54.6847 -2.39457 4.37563 0
M  V30 582 H 53.8387 -4.69046 3.84812 0
M  V30 583 H 52.5777 -4.00282 2.78614 0
M  V30 584 H 51.5827 -2.78289 4.74168 0
M  V30 585 H 52.8077 -3.50157 5.81865 0
M  V30 586 H 50.7537 -5.04655 4.19117 0
M  V30 587 H 50.6707 -4.73443 5.89396 0
M  V30 588 H 51.9387 -5.74549 5.26795 0
M  V30 589 N 56.1678 -1.49265 -0.50573 0
M  V30 590 C 57.4148 -1.58513 -1.26015 0
M  V30 591 C 57.7428 -0.26972 -1.92621 0
M  V30 592 O 56.9978 0.741997 -1.81088 0
M  V30 593 C 57.2968 -2.69008 -2.35308 0
M  V30 594 C 56.9628 -4.10662 -1.86192 0
M  V30 595 C 55.6248 -4.49212 -1.72516 0
M  V30 596 C 57.9768 -4.99336 -1.49375 0
M  V30 597 C 55.3048 -5.74214 -1.20394 0
M  V30 598 C 57.6568 -6.24852 -0.987072 0
M  V30 599 C 56.3208 -6.62236 -0.836669 0
M  V30 600 H 55.5908 -0.580041 -0.461122 0
M  V30 601 H 58.2378 -1.83078 -0.561665 0
M  V30 602 H 56.5428 -2.38396 -3.10926 0
M  V30 603 H 58.2398 -2.73373 -2.93374 0
M  V30 604 H 54.8298 -3.8023 -1.97795 0
M  V30 605 H 59.0138 -4.70212 -1.5879 0
M  V30 606 H 54.2698 -6.01883 -1.07458 0
M  V30 607 H 58.4438 -6.92944 -0.692983 0
M  V30 608 H 56.0708 -7.58979 -0.430607 0
M  V30 609 N 57.6459 0.756429 -1.3826 0
M  V30 610 C 58.8949 1.51082 -1.3363 0
M  V30 611 C 59.2079 1.95467 0.0720068 0
M  V30 612 O 60.4139 2.7043 0.240834 0
M  V30 613 C 58.8699 2.72893 -2.34644 0
M  V30 614 C 58.4779 2.35544 -3.81081 0
M  V30 615 C 60.2219 3.50791 -2.39052 0
M  V30 616 C 58.1289 3.53948 -4.73787 0
M  V30 617 H 57.0589 0.56727 -0.49671 0
M  V30 618 H 59.7099 0.827147 -1.638 0
M  V30 619 H 58.0919 3.43227 -1.97513 0
M  V30 620 H 59.2659 1.72894 -4.27135 0
M  V30 621 H 57.5809 1.70786 -3.79764 0
M  V30 622 H 60.1779 4.38823 -3.05513 0
M  V30 623 H 60.5209 3.91745 -1.40861 0
M  V30 624 H 61.0539 2.87467 -2.74968 0
M  V30 625 H 57.7929 3.18064 -5.73163 0
M  V30 626 H 57.3129 4.15651 -4.32428 0
M  V30 627 H 58.9919 4.20566 -4.91663 0
M  V30 628 N 59.124 1.23083 0.984299 0
M  V30 629 C 60.087 1.00979 2.05757 0
M  V30 630 C 61.087 -0.0269573 1.60777 0
M  V30 631 O 62.277 0.212403 1.729 0
M  V30 632 C 59.409 0.527072 3.36801 0
M  V30 633 H 60.602 1.9622 2.26799 0
M  V30 634 H 58.155 1.05072 1.15714 0
M  V30 635 H 58.89 -0.429294 3.21446 0
M  V30 636 H 58.675 1.27515 3.70786 0
M  V30 637 H 60.165 0.392942 4.15747 0
M  V30 638 N 60.6021 -1.18246 1.0419 0
M  V30 639 C 62.0181 -1.40269 0.761366 0
M  V30 640 C 62.2181 -1.90777 -0.648578 0
M  V30 641 O 61.2741 -2.0929 -1.41258 0
M  V30 642 C 62.5871 -2.40237 1.8085 0
M  V30 643 C 64.1351 -2.53961 1.82955 0
M  V30 644 C 64.6101 -3.57194 2.86664 0
M  V30 645 N 66.1011 -3.64702 2.85563 0
M  V30 646 C 66.8361 -4.44309 3.6246 0
M  V30 647 N 66.3321 -5.27514 4.49111 0
M  V30 648 N 68.1251 -4.39084 3.50944 0
M  V30 649 H 60.2761 -0.837882 1.95175 0
M  V30 650 H 62.5391 -0.430608 0.84456 0
M  V30 651 H 62.2451 -2.10176 2.81991 0
M  V30 652 H 62.1191 -3.39601 1.64168 0
M  V30 653 H 64.5061 -2.83338 0.824855 0
M  V30 654 H 64.5871 -1.54706 2.03715 0
M  V30 655 H 64.2311 -3.28558 3.87314 0
M  V30 656 H 64.1611 -4.5613 2.6316 0
M  V30 657 H 66.6521 -3.05289 2.22727 0
M  V30 658 H 66.9651 -5.85411 5.04493 0
M  V30 659 H 65.3101 -5.2693 4.53178 0
M  V30 660 H 68.5011 -3.7313 2.82651 0
M  V30 661 H 68.6741 -5.00883 4.11121 0
M  V30 662 N 62.0802 -0.821533 -1.34494 0
M  V30 663 C 63.3272 -0.408946 -1.98328 0
M  V30 664 C 63.6552 1.02764 -1.65136 0
M  V30 665 O 62.9102 1.73026 -0.914349 0
M  V30 666 C 63.2092 -0.556512 -3.53041 0
M  V30 667 C 62.8752 -1.95861 -4.0614 0
M  V30 668 C 61.5372 -2.34217 -4.20352 0
M  V30 669 C 63.8892 -2.87523 -4.34718 0
M  V30 670 C 61.2172 -3.63572 -4.6047 0
M  V30 671 C 63.5692 -4.1634 -4.76281 0
M  V30 672 C 62.2332 -4.54675 -4.88699 0
M  V30 673 H 61.5032 -0.149644 -0.725732 0
M  V30 674 H 64.1502 -1.04521 -1.6046 0
M  V30 675 H 62.4552 0.163148 -3.9146 0
M  V30 676 H 64.1522 -0.217826 -4.00408 0
M  V30 677 H 60.7422 -1.65066 -3.95539 0
M  V30 678 H 64.9262 -2.59133 -4.23277 0
M  V30 679 H 60.1822 -3.93101 -4.68275 0
M  V30 680 H 64.3562 -4.87455 -4.97354 0
M  V30 681 H 61.9832 -5.54959 -5.19542 0
M  V30 682 N 63.5583 1.46682 -0.576371 0
M  V30 683 C 64.8053 2.02412 -0.0595339 0
M  V30 684 C 65.1333 1.44859 1.29793 0
M  V30 685 O 64.3883 0.601099 1.8624 0
M  V30 686 C 64.6873 3.57345 0.062886 0
M  V30 687 C 64.3533 4.33908 -1.22616 0
M  V30 688 C 63.0153 4.54544 -1.57933 0
M  V30 689 C 65.3673 4.77919 -2.07948 0
M  V30 690 C 62.6953 5.16444 -2.78393 0
M  V30 691 C 65.0473 5.41149 -3.27629 0
M  V30 692 C 63.7113 5.60014 -3.63236 0
M  V30 693 H 62.9813 0.74068 -0.021785 0
M  V30 694 H 65.6283 1.76128 -0.751735 0
M  V30 695 H 63.9333 3.82729 0.838178 0
M  V30 696 H 65.6303 3.98136 0.478439 0
M  V30 697 H 62.2203 4.18138 -0.941202 0
M  V30 698 H 66.4043 4.61738 -1.81967 0
M  V30 699 H 61.6603 5.29242 -3.06126 0
M  V30 700 H 65.8343 5.74211 -3.94023 0
M  V30 701 H 63.4613 6.07748 -4.56669 0
M  V30 702 N 65.0364 0.313813 1.54444 0
M  V30 703 C 65.9834 -0.55655 2.23989 0
M  V30 704 C 66.9534 -1.11943 1.22711 0
M  V30 705 O 68.1384 -1.16158 1.51367 0
M  V30 706 C 65.2784 -1.71635 2.99392 0
M  V30 707 C 64.3914 -1.18364 4.15468 0
M  V30 708 C 63.5264 -2.30834 4.78424 0
M  V30 709 C 62.5654 -1.74762 5.86622 0
M  V30 710 N 61.7024 -2.80855 6.43479 0
M  V30 711 H 66.5424 0.0430893 2.97969 0
M  V30 712 H 64.0794 0.0330359 1.47063 0
M  V30 713 H 66.0374 -2.39868 3.41349 0
M  V30 714 H 64.6674 -2.28742 2.27765 0
M  V30 715 H 63.7194 -0.393163 3.78363 0
M  V30 716 H 65.0314 -0.733262 4.93381 0
M  V30 717 H 64.1854 -3.0699 5.23299 0
M  V30 718 H 62.9244 -2.79204 3.99871 0
M  V30 719 H 61.9294 -0.970995 5.41158 0
M  V30 720 H 63.1544 -1.2728 6.67066 0
M  V30 721 H 61.1004 -3.28535 5.67804 0
M  V30 722 H 61.0174 -2.40351 7.16776 0
M  V30 723 H 62.2854 -3.5687 6.93011 0
M  V30 724 N 66.5145 -1.57545 0.0417849 0
M  V30 725 C 67.4465 -2.07904 -0.964799 0
M  V30 726 C 68.4595 -1.00497 -1.28079 0
M  V30 727 O 69.6485 -1.28087 -1.24322 0
M  V30 728 C 66.7485 -2.49928 -2.28887 0
M  V30 729 C 65.9215 -3.80562 -2.15619 0
M  V30 730 C 64.9805 -4.08999 -3.31069 0
M  V30 731 O 64.0065 -4.79061 -3.0739 0
M  V30 732 N 65.2085 -3.6017 -4.55256 0
M  V30 733 H 67.9735 -2.94886 -0.535029 0
M  V30 734 H 65.5345 -1.61252 -0.144681 0
M  V30 735 H 67.5265 -2.66034 -3.04972 0
M  V30 736 H 66.0965 -1.68245 -2.63463 0
M  V30 737 H 65.3165 -3.74129 -1.24183 0
M  V30 738 H 66.6045 -4.66126 -2.03971 0
M  V30 739 H 66.0025 -3.03512 -4.77386 0
M  V30 740 H 64.5595 -3.81532 -5.28466 0
M  V30 741 N 67.9926 0.231505 -1.5589 0
M  V30 742 C 69.4036 0.799327 -1.68724 0
M  V30 743 C 69.7546 1.85398 -0.642022 0
M  V30 744 O 68.8796 2.1539 0.208784 0
M  V30 745 C 69.4746 1.45664 -3.05888 0
M  V30 746 C 68.0336 1.97197 -3.20609 0
M  V30 747 C 67.1806 0.828552 -2.64632 0
M  V30 748 H 70.1316 0.00702616 -1.58698 0
M  V30 749 H 70.1526 2.32517 -3.01191 0
M  V30 750 H 69.6646 0.688808 -3.81939 0
M  V30 751 H 67.7656 2.76813 -2.4941 0
M  V30 752 H 67.8786 2.15878 -4.27707 0
M  V30 753 H 66.2426 1.23321 -2.22854 0
M  V30 754 H 67.0256 0.0735544 -3.43221 0
M  V30 755 N 69.4707 1.49531 0.497807 0
M  V30 756 C 70.6987 1.62893 1.27567 0
M  V30 757 C 71.1137 0.301585 1.86376 0
M  V30 758 O 70.4707 -0.713335 1.67982 0
M  V30 759 C 70.5217 2.70013 2.40364 0
M  V30 760 O 70.2427 3.976 1.83972 0
M  V30 761 C 71.7437 2.94109 3.31685 0
M  V30 762 H 68.9637 0.548298 0.386794 0
M  V30 763 H 71.5077 1.95584 0.597245 0
M  V30 764 H 69.6627 2.40092 3.04031 0
M  V30 765 H 70.0767 4.56631 2.58047 0
M  V30 766 H 71.5507 3.72788 4.07104 0
M  V30 767 H 72.0277 2.04147 3.88871 0
M  V30 768 H 72.6337 3.2546 2.73781 0
M  V30 769 N 70.9488 -0.749086 1.3866 0
M  V30 770 C 72.1958 -1.50833 1.35114 0
M  V30 771 C 72.5238 -1.94415 -0.0574049 0
M  V30 772 O 71.7788 -1.66065 -1.03541 0
M  V30 773 C 72.0778 -2.7712 2.25697 0
M  V30 774 C 71.7438 -2.52477 3.73585 0
M  V30 775 C 70.4058 -2.45466 4.13884 0
M  V30 776 C 72.7578 -2.31066 4.67181 0
M  V30 777 C 70.0858 -2.15064 5.45861 0
M  V30 778 C 72.4378 -2.02183 5.9942 0
M  V30 779 C 71.1018 -1.93631 6.38798 0
M  V30 780 H 70.3718 -0.551936 0.494416 0
M  V30 781 H 73.0188 -0.860979 1.71054 0
M  V30 782 H 71.3238 -3.46528 1.82827 0
M  V30 783 H 73.0208 -3.35096 2.20254 0
M  V30 784 H 69.6108 -2.58807 3.41638 0
M  V30 785 H 73.7948 -2.35459 4.3689 0
M  V30 786 H 69.0508 -2.06954 5.75308 0
M  V30 787 H 73.2248 -1.8462 6.71482 0
M  V30 788 H 70.8518 -1.69839 7.40985 0
M  V30 789 N 72.4269 -1.23603 -0.977757 0
M  V30 790 C 73.6669 -1.08148 -1.73446 0
M  V30 791 C 74.0309 0.374785 -1.88307 0
M  V30 792 O 75.2319 0.650588 -2.60808 0
M  V30 793 C 73.5029 -1.78991 -3.0935 0
M  V30 794 S 75.0619 -1.79141 -4.00567 0
M  V30 795 H 71.8799 -0.386987 -0.596458 0
M  V30 796 H 74.4819 -1.5678 -1.16792 0
M  V30 797 H 73.1859 -2.8408 -2.96187 0
M  V30 798 H 72.7169 -1.30651 -3.71071 0
M  V30 799 H 74.7319 -0.851892 -4.88833 0
M  V30 800 N 73.905 1.17692 -1.04816 0
M  V30 801 C 75.13 1.92327 -0.776207 0
M  V30 802 C 75.555 1.76082 0.661581 0
M  V30 803 O 74.913 1.076 1.45917 0
M  V30 804 C 74.961 3.41539 -1.15687 0
M  V30 805 O 74.065 4.11402 -0.286775 0
M  V30 806 H 73.406 0.599735 -0.284981 0
M  V30 807 H 75.936 1.49201 -1.4 0
M  V30 808 H 75.946 3.92269 -1.12202 0
M  V30 809 H 74.621 3.52684 -2.20425 0
M  V30 810 H 73.198 3.70939 -0.381903 0
M  V30 811 N 75.3831 0.828654 1.34056 0
M  V30 812 C 76.3331 0.226828 2.26869 0
M  V30 813 C 77.3171 -0.612243 1.48796 0
M  V30 814 O 78.5091 -0.465884 1.70759 0
M  V30 815 C 75.6381 -0.605654 3.37915 0
M  V30 816 C 74.7241 0.244361 4.23395 0
M  V30 817 N 75.1151 1.31815 4.88322 0
M  V30 818 C 73.4131 0.0296616 4.4599 0
M  V30 819 C 74.1141 1.83895 5.51867 0
M  V30 820 N 73.0901 1.14196 5.3147 0
M  V30 821 H 76.8921 1.04811 2.74576 0
M  V30 822 H 74.4061 0.67205 1.47842 0
M  V30 823 H 76.4031 -1.05302 4.03382 0
M  V30 824 H 75.0631 -1.42504 2.91758 0
M  V30 825 H 76.0741 1.70099 4.8917 0
M  V30 826 H 72.7511 -0.757097 4.10578 0
M  V30 827 H 74.1411 2.7376 6.136 0
M  V30 828 N 76.8612 -1.46375 0.584142 0
M  V30 829 C 78.1012 -2.0427 0.0729695 0
M  V30 830 C 78.4652 -1.44563 -1.26355 0
M  V30 831 O 79.6662 -1.93667 -1.86405 0
M  V30 832 C 77.9372 -3.57399 0.00967464 0
M  V30 833 S 79.4962 -4.36551 -0.443714 0
M  V30 834 H 76.3142 -0.709975 0.0381673 0
M  V30 835 H 78.9162 -1.79398 0.776962 0
M  V30 836 H 77.6202 -3.98372 0.986319 0
M  V30 837 H 77.1512 -3.8681 -0.717044 0
M  V30 838 H 79.1662 -4.66237 -1.69816 0
M  V30 839 N 78.3393 -0.321999 -1.54275 0
M  V30 840 C 79.5673 0.283052 -2.04955 0
M  V30 841 C 79.9823 1.45904 -1.19823 0
M  V30 842 O 79.3393 1.81063 -0.228545 0
M  V30 843 C 79.3903 0.719028 -3.54277 0
M  V30 844 O 79.1113 -0.410175 -4.36176 0
M  V30 845 C 80.6123 1.38705 -4.21041 0
M  V30 846 H 77.8323 0.0584616 -0.668448 0
M  V30 847 H 80.3763 -0.467734 -1.99079 0
M  V30 848 H 78.5313 1.41979 -3.60445 0
M  V30 849 H 78.9453 -0.0669416 -5.24457 0
M  V30 850 H 80.4193 1.64306 -5.2698 0
M  V30 851 H 80.8963 2.33385 -3.72059 0
M  V30 852 H 81.5023 0.728906 -4.19007 0
M  V30 853 N 79.8174 1.5752 -0.0501392 0
M  V30 854 C 81.0944 1.83996 0.663685 0
M  V30 855 C 81.4744 0.938339 1.89099 0
M  V30 856 O 80.8224 -0.00087759 2.285 0
M  V30 857 C 81.0324 3.33702 1.02196 0
M  V30 858 C 82.3804 4.00691 1.40469 0
M  V30 859 O 83.4044 3.38321 1.11433 0
M  V30 860 O 82.2634 5.10658 1.94654 0
M  V30 861 H 79.3574 0.759385 0.32751 0
M  V30 862 H 81.9034 1.69514 -0.0794238 0
M  V30 863 H 80.6754 3.91015 0.149364 0
M  V30 864 H 80.2984 3.53368 1.82255 0
M  V30 865 N 81.2955 -0.223234 1.56011 0
M  V30 866 C 82.5425 -0.947875 1.78946 0
M  V30 867 C 82.8705 -1.844 0.618608 0
M  V30 868 O 82.1255 -1.91629 -0.397093 0
M  V30 869 C 82.4245 -1.81948 3.0762 0
M  V30 870 C 82.0905 -1.07672 4.37856 0
M  V30 871 C 80.7525 -0.871544 4.73242 0
M  V30 872 C 83.1045 -0.552081 5.18268 0
M  V30 873 C 80.4325 -0.129791 5.86556 0
M  V30 874 C 82.7845 0.17632 6.32354 0
M  V30 875 C 81.4485 0.39277 6.66343 0
M  V30 876 H 80.7185 -0.346852 0.654809 0
M  V30 877 H 83.3655 -0.216171 1.90276 0
M  V30 878 H 81.6705 -2.61899 2.91404 0
M  V30 879 H 83.3675 -2.38227 3.22566 0
M  V30 880 H 79.9575 -1.24662 4.1007 0
M  V30 881 H 84.1415 -0.698076 4.91366 0
M  V30 882 H 79.3975 0.048153 6.11381 0
M  V30 883 H 83.5715 0.590367 6.93893 0
M  V30 884 H 81.1985 0.969466 7.53993 0
M  V30 885 N 82.7736 -1.49793 -0.48987 0
M  V30 886 C 84.0226 -1.59085 -1.23995 0
M  V30 887 C 84.3356 -0.287907 -1.9347 0
M  V30 888 O 85.5416 -0.259506 -2.70257 0
M  V30 889 C 83.9976 -2.80736 -2.252 0
M  V30 890 C 83.6056 -4.17833 -1.61614 0
M  V30 891 C 85.3496 -2.99364 -3.00967 0
M  V30 892 C 83.2566 -5.30693 -2.60996 0
M  V30 893 H 82.1866 -0.592372 -0.466488 0
M  V30 894 H 84.8376 -1.76197 -0.51252 0
M  V30 895 H 83.2196 -2.57142 -3.01154 0
M  V30 896 H 84.3936 -4.51608 -0.915774 0
M  V30 897 H 82.7086 -4.04656 -0.981977 0
M  V30 898 H 85.3056 -3.80851 -3.75308 0
M  V30 899 H 85.6486 -2.10356 -3.59244 0
M  V30 900 H 86.1816 -3.2305 -2.32128 0
M  V30 901 H 82.9206 -6.21796 -2.07485 0
M  V30 902 H 82.4406 -5.01359 -3.2924 0
M  V30 903 H 84.1196 -5.6049 -3.23202 0
M  V30 904 N 84.2517 0.741722 -1.39055 0
M  V30 905 C 85.4977 1.50234 -1.37118 0
M  V30 906 C 85.8527 1.92368 0.0350439 0
M  V30 907 O 85.1457 1.63422 1.00019 0
M  V30 908 C 85.3397 2.7592 -2.27163 0
M  V30 909 C 85.1687 2.46074 -3.76401 0
M  V30 910 C 83.9387 2.38704 -4.45364 0
M  V30 911 C 86.1367 2.12062 -4.68545 0
M  V30 912 N 84.1187 2.01258 -5.79973 0
M  V30 913 C 85.4897 1.85005 -5.91754 0
M  V30 914 C 87.5447 1.98473 -4.56632 0
M  V30 915 C 86.2477 1.4573 -7.04383 0
M  V30 916 C 88.2737 1.60599 -5.69176 0
M  V30 917 C 87.6357 1.34423 -6.91455 0
M  V30 918 H 83.7347 0.548858 -0.557027 0
M  V30 919 H 86.3187 0.862642 -1.74547 0
M  V30 920 H 84.4897 3.3768 -1.91904 0
M  V30 921 H 86.2217 3.42068 -2.16267 0
M  V30 922 H 82.9767 2.55574 -3.98721 0
M  V30 923 H 83.4007 1.85147 -6.51191 0
M  V30 924 H 88.0427 2.17381 -3.62637 0
M  V30 925 H 85.7607 1.25562 -7.98286 0
M  V30 926 H 89.3467 1.507 -5.61944 0
M  V30 927 H 88.2267 1.05555 -7.77064 0
M  V30 928 N 85.7298 1.2412 0.971189 0
M  V30 929 C 86.9778 1.07668 1.71032 0
M  V30 930 C 87.2988 -0.385797 1.91146 0
M  V30 931 O 86.5688 -1.27569 1.4867 0
M  V30 932 H 85.1488 0.395429 0.633755 0
M  V30 933 H 87.8108 1.55984 1.16855 0
M  V30 934 H 86.9068 1.57195 2.69622 0
M  V30 935 N 87.2079 -1.17134 1.05439 0
M  V30 936 C 88.4549 -1.87456 0.765942 0
M  V30 937 C 88.7829 -1.81189 -0.707153 0
M  V30 938 O 88.0379 -1.21633 -1.5331 0
M  V30 939 C 88.3369 -3.36833 1.19491 0
M  V30 940 C 88.0029 -3.63301 2.67063 0
M  V30 941 C 86.6649 -3.70234 3.07376 0
M  V30 942 C 89.0169 -3.74575 3.62413 0
M  V30 943 C 86.3449 -3.85933 4.41896 0
M  V30 944 C 88.6969 -3.91793 4.9667 0
M  V30 945 C 87.3609 -3.96966 5.36633 0
M  V30 946 H 86.6309 -0.685948 0.280278 0
M  V30 947 H 89.2779 -1.38556 1.32192 0
M  V30 948 H 87.5829 -3.87807 0.557969 0
M  V30 949 H 89.2799 -3.89611 0.948893 0
M  V30 950 H 85.8699 -3.58532 2.34846 0
M  V30 951 H 90.0539 -3.68537 3.32406 0
M  V30 952 H 85.3099 -3.88187 4.72357 0
M  V30 953 H 89.4839 -3.99458 5.70444 0
M  V30 954 H 87.1109 -4.08883 6.40874 0
M  V30 955 N 88.686 -0.835752 -1.33615 0
M  V30 956 C 89.934 -0.429109 -1.97492 0
M  V30 957 C 90.255 1.01433 -1.66543 0
M  V30 958 O 89.525 1.70611 -0.962744 0
M  V30 959 H 88.105 -0.155686 -0.730596 0
M  V30 960 H 90.767 -1.06802 -1.63031 0
M  V30 961 H 89.863 -0.55861 -3.0706 0
M  V30 962 N 90.1641 1.46063 -0.591896 0
M  V30 963 C 91.1111 2.30399 0.136069 0
M  V30 964 C 92.0811 1.41169 0.875238 0
M  V30 965 O 93.2661 1.70112 0.86409 0
M  V30 966 C 90.4061 3.25804 1.13781 0
M  V30 967 C 89.5191 4.30134 0.401137 0
M  V30 968 C 88.6541 5.12659 1.39121 0
M  V30 969 C 87.6931 6.0873 0.641462 0
M  V30 970 N 86.8301 6.8409 1.58004 0
M  V30 971 H 91.6701 2.92118 -0.589144 0
M  V30 972 H 89.2071 1.43959 -0.302342 0
M  V30 973 H 91.1651 3.79569 1.73156 0
M  V30 974 H 89.7951 2.65872 1.83062 0
M  V30 975 H 88.8471 3.79152 -0.307826 0
M  V30 976 H 90.1591 4.98458 -0.184565 0
M  V30 977 H 89.3131 5.70747 2.05749 0
M  V30 978 H 88.0521 4.44316 2.01084 0
M  V30 979 H 87.0571 5.49786 -0.0385419 0
M  V30 980 H 88.2821 6.79095 0.0270945 0
M  V30 981 H 86.2281 6.18449 2.18761 0
M  V30 982 H 86.1451 7.48709 1.04738 0
M  V30 983 H 87.4131 7.4673 2.23639 0
M  V30 984 N 91.6422 0.330177 1.54103 0
M  V30 985 C 92.5742 -0.566902 2.22079 0
M  V30 986 C 93.5872 -1.07462 1.22294 0
M  V30 987 O 94.7762 -0.987065 1.48726 0
M  V30 988 C 91.8762 -1.79138 2.87685 0
M  V30 989 C 91.0492 -1.42123 4.13666 0
M  V30 990 C 90.1082 -2.50394 4.62806 0
M  V30 991 O 89.1342 -2.14261 5.27334 0
M  V30 992 N 90.3362 -3.81433 4.37595 0
M  V30 993 H 93.1012 0.0151844 2.99696 0
M  V30 994 H 90.6622 0.153681 1.61169 0
M  V30 995 H 92.6542 -2.50975 3.1748 0
M  V30 996 H 91.2242 -2.28115 2.13734 0
M  V30 997 H 90.4442 -0.534201 3.90564 0
M  V30 998 H 91.7322 -1.14971 4.9564 0
M  V30 999 H 91.1302 -4.13584 3.8596 0
M  V30 1000 H 89.6872 -4.4948 4.72029 0
M  V30 1001 N 93.1203 -1.57491 0.0584922 0
M  V30 1002 C 94.3683 -1.92597 -0.612436 0
M  V30 1003 C 94.6893 -0.938162 -1.70949 0
M  V30 1004 O 93.9593 0.0158301 -1.95894 0
M  V30 1005 H 92.5393 -0.710964 -0.229214 0
M  V30 1006 H 95.2013 -1.94571 0.113218 0
M  V30 1007 H 94.2973 -2.94038 -1.04633 0
M  V30 1008 N 94.5984 0.214957 -1.56127 0
M  V30 1009 C 95.8454 0.938372 -1.79446 0
M  V30 1010 C 96.1734 1.8407 -0.628378 0
M  V30 1011 O 95.4284 1.91837 0.386925 0
M  V30 1012 C 95.7274 1.80314 -3.0858 0
M  V30 1013 C 95.3934 1.05349 -4.3842 0
M  V30 1014 C 94.0554 0.846435 -4.73697 0
M  V30 1015 C 96.4074 0.524588 -5.18553 0
M  V30 1016 C 93.7354 0.098683 -5.86617 0
M  V30 1017 C 96.0874 -0.209853 -6.32252 0
M  V30 1018 C 94.7514 -0.428102 -6.66126 0
M  V30 1019 H 94.0214 0.343375 -0.656639 0
M  V30 1020 H 96.6684 0.206077 -1.90388 0
M  V30 1021 H 94.9734 2.6035 -2.92789 0
M  V30 1022 H 96.6704 2.36513 -3.23825 0
M  V30 1023 H 93.2604 1.22486 -4.10725 0
M  V30 1024 H 97.4444 0.672008 -4.91729 0
M  V30 1025 H 92.7004 -0.0805753 -6.11347 0
M  V30 1026 H 96.8744 -0.627157 -6.9357 0
M  V30 1027 H 94.5014 -1.00944 -7.53468 0
M  V30 1028 N 96.0765 1.50051 0.48192 0
M  V30 1029 C 97.0085 1.64263 1.59844 0
M  V30 1030 C 98.0215 0.52451 1.54119 0
M  V30 1031 O 99.2105 0.797293 1.59704 0
M  V30 1032 C 96.3105 1.60102 2.98698 0
M  V30 1033 C 95.4835 2.87767 3.29407 0
M  V30 1034 C 94.5425 2.76397 4.47762 0
M  V30 1035 O 93.5685 3.50348 4.48603 0
M  V30 1036 N 94.7705 1.89222 5.48794 0
M  V30 1037 H 97.5355 2.60566 1.48073 0
M  V30 1038 H 95.0965 1.47379 0.670149 0
M  V30 1039 H 97.0885 1.50123 3.75826 0
M  V30 1040 H 95.6585 0.715798 3.04294 0
M  V30 1041 H 94.8785 3.11954 2.40994 0
M  V30 1042 H 96.1665 3.72365 3.4673 0
M  V30 1043 H 95.5645 1.28434 5.50928 0
M  V30 1044 H 94.1215 1.85154 6.24949 0
M  V30 1045 N 97.5546 -0.734337 1.39446 0
M  V30 1046 C 98.7946 -1.50655 1.38139 0
M  V30 1047 C 99.1586 -1.91986 -0.0228701 0
M  V30 1048 O 100.36 -2.68318 -0.160947 0
M  V30 1049 C 98.6306 -2.71251 2.32718 0
M  V30 1050 S 100.19 -3.60892 2.49605 0
M  V30 1051 H 97.0076 -0.515315 0.489869 0
M  V30 1052 H 99.6096 -0.860392 1.75549 0
M  V30 1053 H 98.3136 -2.39027 3.33608 0
M  V30 1054 H 97.8446 -3.40795 1.96526 0
M  V30 1055 H 99.8596 -4.64899 1.73446 0
M  V30 1056 N 99.0327 -1.24633 -0.964593 0
M  V30 1057 C 99.9647 -0.999302 -2.06268 0
M  V30 1058 C 100.978 0.0323226 -1.62768 0
M  V30 1059 O 102.167 -0.205079 -1.77318 0
M  V30 1060 C 99.2667 -0.486816 -3.35385 0
M  V30 1061 C 98.4397 -1.5823 -4.07777 0
M  V30 1062 C 97.4987 -1.07191 -5.15166 0
M  V30 1063 O 96.5247 -1.76426 -5.41168 0
M  V30 1064 N 97.7267 0.0920373 -5.80427 0
M  V30 1065 H 100.492 -1.94477 -2.28033 0
M  V30 1066 H 98.0527 -1.15704 -1.13244 0
M  V30 1067 H 100.045 -0.130066 -4.04491 0
M  V30 1068 H 98.6147 0.364459 -3.10468 0
M  V30 1069 H 97.8347 -2.11109 -3.32906 0
M  V30 1070 H 99.1227 -2.31854 -4.52903 0
M  V30 1071 H 98.5207 0.670784 -5.61709 0
M  V30 1072 H 97.0777 0.389905 -6.50633 0
M  V30 1073 N 100.511 1.16574 -1.06058 0
M  V30 1074 C 101.757 1.87324 -0.777022 0
M  V30 1075 C 102.09 1.81351 0.694645 0
M  V30 1076 O 101.365 1.22753 1.50871 0
M  V30 1077 C 101.648 3.36991 -1.26922 0
M  V30 1078 C 101.501 3.51667 -2.80447 0
M  V30 1079 C 102.82 4.3131 -0.87521 0
M  V30 1080 H 99.9388 0.680191 -0.28374 0
M  V30 1081 H 102.581 1.37036 -1.3161 0
M  V30 1082 H 100.731 3.79949 -0.81063 0
M  V30 1083 H 102.403 3.17664 -3.34495 0
M  V30 1084 H 100.646 2.93656 -3.19294 0
M  V30 1085 H 101.317 4.56766 -3.0995 0
M  V30 1086 H 103.793 3.9624 -1.27014 0
M  V30 1087 H 102.669 5.34545 -1.2471 0
M  V30 1088 H 102.93 4.41552 0.220071 0
M  V30 1089 N 101.989 0.842826 1.3317 0
M  V30 1090 C 103.229 0.446574 1.99462 0
M  V30 1091 C 103.593 -0.976818 1.65295 0
M  V30 1092 O 104.794 -1.477 2.24584 0
M  V30 1093 C 103.065 0.665353 3.51152 0
M  V30 1094 S 104.624 0.364911 4.3728 0
M  V30 1095 H 101.442 0.167803 0.690915 0
M  V30 1096 H 104.044 1.09297 1.62094 0
M  V30 1097 H 102.748 1.7006 3.73507 0
M  V30 1098 H 102.279 0.00494568 3.934 0
M  V30 1099 H 104.294 -0.813761 4.89482 0
M  V30 1100 N 103.467 -1.45747 0.599634 0
M  V30 1101 C 104.707 -2.04181 0.0946309 0
M  V30 1102 C 105.071 -1.45895 -1.24815 0
M  V30 1103 O 106.272 -1.95633 -1.8434 0
M  V30 1104 C 104.543 -3.57368 0.047581 0
M  V30 1105 S 106.102 -4.36997 -0.397387 0
M  V30 1106 H 102.92 -0.70953 0.0456954 0
M  V30 1107 H 105.522 -1.78564 0.795946 0
M  V30 1108 H 104.226 -3.97303 1.02852 0
M  V30 1109 H 103.757 -3.87549 -0.675977 0
M  V30 1110 H 105.772 -4.68012 -1.64862 0
M  V30 1111 N 104.945 -0.338344 -1.53925 0
M  V30 1112 C 106.192 0.259758 -2.00827 0
M  V30 1113 C 106.52 1.50973 -1.22628 0
M  V30 1114 O 105.775 1.93379 -0.300509 0
M  V30 1115 C 106.074 0.62448 -3.51902 0
M  V30 1116 C 105.74 -0.528006 -4.47798 0
M  V30 1117 C 104.402 -0.844298 -4.73735 0
M  V30 1118 C 106.754 -1.30143 -5.0469 0
M  V30 1119 C 104.082 -1.93648 -5.53821 0
M  V30 1120 C 106.434 -2.38382 -5.85967 0
M  V30 1121 C 105.098 -2.70576 -6.10201 0
M  V30 1122 H 104.368 0.0950523 -0.734878 0
M  V30 1123 H 107.015 -0.465182 -1.85764 0
M  V30 1124 H 105.32 1.43006 -3.64769 0
M  V30 1125 H 107.017 1.09905 -3.85645 0
M  V30 1126 H 103.607 -0.271421 -4.2774 0
M  V30 1127 H 107.791 -1.07033 -4.84621 0
M  V30 1128 H 103.047 -2.19021 -5.70824 0
M  V30 1129 H 107.221 -2.98746 -6.29066 0
M  V30 1130 H 104.848 -3.55333 -6.72044 0
M  V30 1131 N 106.423 1.57458 -0.0668435 0
M  V30 1132 C 107.669 1.93587 0.6043 0
M  V30 1133 C 108.002 0.946722 1.69561 0
M  V30 1134 O 107.277 -0.0248516 1.94484 0
M  V30 1135 C 107.56 3.40014 1.18585 0
M  V30 1136 C 107.413 4.49685 0.101529 0
M  V30 1137 C 108.732 3.87154 2.09284 0
M  V30 1138 H 105.851 0.703958 0.218202 0
M  V30 1139 H 108.493 1.89542 -0.131804 0
M  V30 1140 H 106.643 3.43592 1.81319 0
M  V30 1141 H 108.315 4.5823 -0.531279 0
M  V30 1142 H 106.558 4.30059 -0.568487 0
M  V30 1143 H 107.229 5.49266 0.54874 0
M  V30 1144 H 109.705 3.85551 1.56491 0
M  V30 1145 H 108.581 4.90231 2.46911 0
M  V30 1146 H 108.842 3.2481 2.99918 0
M  V30 1147 N 107.901 -0.206675 1.56239 0
M  V30 1148 C 109.147 -0.930218 1.80208 0
M  V30 1149 C 109.48 -1.83387 0.638981 0
M  V30 1150 O 108.755 -1.91119 -0.361066 0
M  V30 1151 C 109.038 -1.75641 3.1436 0
M  V30 1152 C 108.891 -0.878257 4.41142 0
M  V30 1153 C 110.21 -2.73129 3.45092 0
M  V30 1154 H 107.329 -0.336742 0.655571 0
M  V30 1155 H 109.971 -0.198222 1.88963 0
M  V30 1156 H 108.121 -2.38048 3.07027 0
M  V30 1157 H 109.793 -0.269787 4.6051 0
M  V30 1158 H 108.036 -0.184385 4.33408 0
M  V30 1159 H 108.707 -1.49106 5.3148 0
M  V30 1160 H 111.183 -2.20856 3.52649 0
M  V30 1161 H 110.059 -3.28028 4.40101 0
M  V30 1162 H 110.32 -3.51606 2.68003 0
M  V30 1163 N 109.379 -1.50304 -0.473955 0
M  V30 1164 C 110.329 -1.65347 -1.56985 0
M  V30 1165 C 111.313 -0.508176 -1.52664 0
M  V30 1166 O 112.505 -0.762446 -1.59737 0
M  V30 1167 C 109.634 -1.74832 -2.95447 0
M  V30 1168 C 108.72 -2.95028 -3.04662 0
M  V30 1169 N 109.111 -4.18747 -2.83698 0
M  V30 1170 C 107.409 -2.93527 -3.35795 0
M  V30 1171 C 108.11 -4.99687 -2.97805 0
M  V30 1172 N 107.086 -4.33585 -3.2788 0
M  V30 1173 H 110.888 -2.58698 -1.39472 0
M  V30 1174 H 108.402 -1.47449 -0.680629 0
M  V30 1175 H 110.399 -1.83712 -3.7424 0
M  V30 1176 H 109.059 -0.826376 -3.14008 0
M  V30 1177 H 110.07 -4.48291 -2.59337 0
M  V30 1178 H 106.747 -2.10821 -3.60362 0
M  V30 1179 H 108.137 -6.08057 -2.85861 0
M  V30 1180 N 110.857 0.726932 -1.39834 0
M  V30 1181 C 111.804 1.841 -1.39197 0
M  V30 1182 C 112.774 1.642 -0.250502 0
M  V30 1183 O 113.959 1.85494 -0.446846 0
M  V30 1184 C 111.099 3.21697 -1.24919 0
M  V30 1185 C 110.212 3.53247 -2.48678 0
M  V30 1186 C 109.347 4.80289 -2.26928 0
M  V30 1187 C 108.386 5.04707 -3.4632 0
M  V30 1188 N 107.523 6.22956 -3.23836 0
M  V30 1189 H 112.363 1.83979 -2.34427 0
M  V30 1190 H 109.9 0.898876 -1.16442 0
M  V30 1191 H 111.858 4.01137 -1.1465 0
M  V30 1192 H 110.488 3.21076 -0.333153 0
M  V30 1193 H 109.54 2.68447 -2.69519 0
M  V30 1194 H 110.852 3.67205 -3.37582 0
M  V30 1195 H 110.006 5.67725 -2.13947 0
M  V30 1196 H 108.745 4.68519 -1.35431 0
M  V30 1197 H 107.75 4.1573 -3.5979 0
M  V30 1198 H 108.975 5.18357 -4.38729 0
M  V30 1199 H 106.921 6.12459 -2.35011 0
M  V30 1200 H 106.838 6.37539 -4.063 0
M  V30 1201 H 108.106 7.1321 -3.14566 0
M  V30 1202 N 112.336 1.25143 0.95797 0
M  V30 1203 C 113.752 1.01892 1.22842 0
M  V30 1204 C 113.952 -0.266311 1.99732 0
M  V30 1205 O 113.008 -0.979913 2.3271 0
M  V30 1206 C 114.321 2.24004 2.00606 0
M  V30 1207 C 115.869 2.28731 2.13662 0
M  V30 1208 C 116.344 3.5049 2.94823 0
M  V30 1209 N 117.835 3.50866 3.02403 0
M  V30 1210 C 118.57 4.4174 3.65586 0
M  V30 1211 N 118.066 5.42882 4.30408 0
M  V30 1212 N 119.859 4.29429 3.62694 0
M  V30 1213 H 112.01 2.07718 0.443493 0
M  V30 1214 H 114.273 0.912031 0.258657 0
M  V30 1215 H 113.979 3.17395 1.51503 0
M  V30 1216 H 113.853 2.26907 3.01319 0
M  V30 1217 H 116.24 1.35865 2.61963 0
M  V30 1218 H 116.321 2.29848 1.12265 0
M  V30 1219 H 115.965 4.43676 2.47213 0
M  V30 1220 H 115.895 3.46617 3.96439 0
M  V30 1221 H 118.386 2.777 2.56302 0
M  V30 1222 H 118.699 6.0844 4.76467 0
M  V30 1223 H 117.044 5.46758 4.29047 0
M  V30 1224 H 120.235 3.49643 3.11236 0
M  V30 1225 H 120.408 5.00448 4.1165 0
M  V30 1226 N 113.814 -1.1601 1.06675 0
M  V30 1227 C 115.054 -1.88304 0.795037 0
M  V30 1228 C 115.418 -1.80062 -0.666466 0
M  V30 1229 O 116.619 -2.47319 -1.05293 0
M  V30 1230 C 114.89 -3.33664 1.28076 0
M  V30 1231 S 116.449 -4.23768 1.13868 0
M  V30 1232 H 113.267 -0.649928 0.288296 0
M  V30 1233 H 115.869 -1.4001 1.36445 0
M  V30 1234 H 114.573 -3.37203 2.33927 0
M  V30 1235 H 114.104 -3.87009 0.706253 0
M  V30 1236 H 116.119 -4.96148 0.0719668 0
M  V30 1237 N 115.292 -0.849877 -1.32721 0
M  V30 1238 C 116.242 -0.262892 -2.26479 0
M  V30 1239 C 117.226 0.588493 -1.49752 0
M  V30 1240 O 118.418 0.438659 -1.71478 0
M  V30 1241 C 115.547 0.551818 -3.38836 0
M  V30 1242 C 114.633 -0.311689 -4.22953 0
M  V30 1243 N 115.024 -1.39567 -4.86163 0
M  V30 1244 C 113.322 -0.100611 -4.45887 0
M  V30 1245 C 114.023 -1.92651 -5.48872 0
M  V30 1246 N 112.999 -1.22637 -5.29586 0
M  V30 1247 H 116.801 -1.09166 -2.72873 0
M  V30 1248 H 114.315 -0.695486 -1.46754 0
M  V30 1249 H 116.312 0.988713 -4.05006 0
M  V30 1250 H 114.972 1.37844 -2.93988 0
M  V30 1251 H 115.983 -1.77859 -4.86402 0
M  V30 1252 H 112.66 0.691681 -4.11731 0
M  V30 1253 H 114.05 -2.83487 -6.09167 0
M  V30 1254 N 116.77 1.45427 -0.607355 0
M  V30 1255 C 117.68 2.34325 0.113463 0
M  V30 1256 C 118.696 1.51226 0.860617 0
M  V30 1257 O 119.872 1.84029 0.818255 0
M  V30 1258 C 116.937 3.28839 1.09844 0
M  V30 1259 C 115.998 4.27844 0.353271 0
M  V30 1260 C 115.231 5.17842 1.29133 0
M  V30 1261 O 115.454 5.11264 2.52913 0
M  V30 1262 O 114.388 5.96713 0.788523 0
M  V30 1263 H 118.214 2.97364 -0.617094 0
M  V30 1264 H 115.799 1.44807 -0.367619 0
M  V30 1265 H 117.681 3.8708 1.66575 0
M  V30 1266 H 116.356 2.68365 1.81003 0
M  V30 1267 H 115.263 3.7322 -0.256494 0
M  V30 1268 H 116.596 4.91173 -0.317822 0
M  V30 1269 N 118.248 0.346503 1.53744 0
M  V30 1270 C 119.495 -0.249104 2.00962 0
M  V30 1271 C 119.823 -1.5032 1.23426 0
M  V30 1272 O 119.078 -1.93217 0.310761 0
M  V30 1273 C 119.377 -0.605809 3.52228 0
M  V30 1274 C 119.043 0.551747 4.47512 0
M  V30 1275 C 117.705 0.86941 4.73281 0
M  V30 1276 C 120.057 1.32818 5.03993 0
M  V30 1277 C 117.385 1.96582 5.52786 0
M  V30 1278 C 119.737 2.41486 5.84694 0
M  V30 1279 C 118.401 2.73808 6.08757 0
M  V30 1280 H 117.671 -0.0911538 0.735372 0
M  V30 1281 H 120.318 0.475027 1.85515 0
M  V30 1282 H 118.623 -1.4107 3.65522 0
M  V30 1283 H 120.32 -1.07858 3.86222 0
M  V30 1284 H 116.91 0.294102 4.2759 0
M  V30 1285 H 121.094 1.09602 4.84047 0
M  V30 1286 H 116.35 2.22045 5.69654 0
M  V30 1287 H 120.524 3.02078 6.27473 0
M  V30 1288 H 118.151 3.58892 6.7015 0
M  V30 1289 N 119.726 -1.57421 0.075193 0
M  V30 1290 C 120.972 -1.93905 -0.594025 0
M  V30 1291 C 121.305 -0.955701 -1.69056 0
M  V30 1292 O 120.58 0.0145373 -1.94495 0
M  V30 1293 C 120.863 -3.40638 -1.1678 0
M  V30 1294 C 120.716 -4.49733 -0.0776792 0
M  V30 1295 C 122.035 -3.88259 -2.07228 0
M  V30 1296 H 119.154 -0.705105 -0.214466 0
M  V30 1297 H 121.796 -1.8947 0.141854 0
M  V30 1298 H 119.946 -3.44549 -1.79494 0
M  V30 1299 H 121.618 -4.57942 0.555573 0
M  V30 1300 H 119.861 -4.29751 0.591286 0
M  V30 1301 H 120.532 -5.49549 -0.519603 0
M  V30 1302 H 123.008 -3.86376 -1.54445 0
M  V30 1303 H 121.884 -4.91533 -2.44308 0
M  V30 1304 H 122.145 -3.26396 -2.98191 0
M  V30 1305 N 121.204 0.198386 -1.56346 0
M  V30 1306 C 122.432 0.935572 -1.84539 0
M  V30 1307 C 122.847 1.76989 -0.657281 0
M  V30 1308 O 122.204 1.78626 0.374043 0
M  V30 1309 C 122.255 1.8344 -3.11499 0
M  V30 1310 O 121.976 1.03377 -4.25728 0
M  V30 1311 C 123.477 2.68355 -3.52846 0
M  V30 1312 H 120.697 0.273126 -0.612897 0
M  V30 1313 H 123.241 0.20663 -2.03453 0
M  V30 1314 H 121.396 2.51701 -2.94492 0
M  V30 1315 H 121.81 1.64599 -4.98003 0
M  V30 1316 H 123.284 3.27085 -4.44657 0
M  V30 1317 H 123.761 3.41901 -2.75681 0
M  V30 1318 H 124.367 2.05471 -3.72373 0
M  V30 1319 N 122.682 1.50554 0.465978 0
M  V30 1320 C 123.929 1.61798 1.21768 0
M  V30 1321 C 124.257 0.320696 1.91838 0
M  V30 1322 O 123.512 -0.693724 1.82992 0
M  V30 1323 C 123.811 2.75152 2.28093 0
M  V30 1324 C 123.477 4.15454 1.75239 0
M  V30 1325 C 122.139 4.53628 1.60546 0
M  V30 1326 C 124.491 5.03121 1.36083 0
M  V30 1327 C 121.819 5.77204 1.05128 0
M  V30 1328 C 124.171 6.27249 0.821056 0
M  V30 1329 C 122.835 6.64221 0.660795 0
M  V30 1330 H 122.105 0.592063 0.445582 0
M  V30 1331 H 124.752 1.84503 0.512927 0
M  V30 1332 H 123.057 2.46556 3.04496 0
M  V30 1333 H 124.754 2.81055 2.86023 0
M  V30 1334 H 121.344 3.85341 1.87644 0
M  V30 1335 H 125.528 4.74257 1.46267 0
M  V30 1336 H 120.784 6.0452 0.91462 0
M  V30 1337 H 124.958 6.94537 0.509018 0
M  V30 1338 H 122.585 7.59854 0.229226 0
M  V30 1339 N 124.16 -0.719506 1.40217 0
M  V30 1340 C 125.385 -1.51371 1.4178 0
M  V30 1341 C 125.81 -1.88091 0.0182355 0
M  V30 1342 O 125.168 -1.52997 -0.972707 0
M  V30 1343 C 125.216 -2.768 2.31115 0
M  V30 1344 O 124.32 -3.73349 1.7517 0
M  V30 1345 H 123.661 -0.456529 0.482159 0
M  V30 1346 H 126.191 -0.88644 1.844 0
M  V30 1347 H 126.201 -3.25371 2.46167 0
M  V30 1348 H 124.876 -2.49407 3.3282 0
M  V30 1349 H 123.453 -3.32179 1.69444 0
M  V30 1350 N 125.638 -1.25649 -0.95132 0
M  V30 1351 C 126.878 -1.11802 -1.71113 0
M  V30 1352 C 127.242 0.334758 -1.89059 0
M  V30 1353 O 128.443 0.595121 -2.62129 0
M  V30 1354 C 126.714 -1.85512 -3.05483 0
M  V30 1355 S 128.273 -1.87597 -3.96677 0
M  V30 1356 H 125.091 -0.399552 -0.588115 0
M  V30 1357 H 127.693 -1.59222 -1.1344 0
M  V30 1358 H 126.397 -2.90299 -2.90094 0
M  V30 1359 H 125.928 -1.38493 -3.68216 0
M  V30 1360 H 127.943 -0.955389 -4.86916 0
M  V30 1361 N 127.117 1.15442 -1.07289 0
M  V30 1362 C 128.528 1.67803 -0.818475 0
M  V30 1363 C 128.879 1.8489 0.656507 0
M  V30 1364 O 128.004 1.55176 1.50829 0
M  V30 1365 C 128.599 3.04805 -1.47917 0
M  V30 1366 C 127.158 3.54245 -1.27229 0
M  V30 1367 C 126.305 2.29986 -1.54925 0
M  V30 1368 H 129.256 0.996646 -1.23502 0
M  V30 1369 H 129.277 3.69702 -0.90005 0
M  V30 1370 H 128.789 2.92336 -2.55267 0
M  V30 1371 H 126.89 3.71956 -0.21899 0
M  V30 1372 H 127.003 4.35723 -1.99203 0
M  V30 1373 H 125.367 2.35496 -0.970242 0
M  V30 1374 H 126.15 2.20105 -2.63455 0
M  V30 1375 N 128.595 0.856903 1.32268 0
M  V30 1376 C 129.843 0.460474 1.96784 0
M  V30 1377 C 130.164 -0.987701 1.68135 0
M  V30 1378 O 129.434 -1.69058 0.989765 0
M  V30 1379 H 128.014 0.167289 0.728027 0
M  V30 1380 H 130.676 1.09383 1.61312 0
M  V30 1381 H 129.772 0.60739 3.06133 0
M  V30 1382 N 130.073 -1.45103 0.615059 0
M  V30 1383 C 131.036 -2.29025 -0.0895485 0
M  V30 1384 C 132.036 -1.40174 -0.787906 0
M  V30 1385 O 133.226 -1.62217 -0.634933 0
M  V30 1386 C 130.358 -3.21376 -1.13711 0
M  V30 1387 H 131.551 -2.92807 0.648382 0
M  V30 1388 H 129.104 -1.51749 0.374444 0
M  V30 1389 H 129.839 -2.6241 -1.90556 0
M  V30 1390 H 129.624 -3.86834 -0.640475 0
M  V30 1391 H 131.114 -3.84459 -1.63036 0
M  V30 1392 N 131.551 -0.354651 -1.53558 0
M  V30 1393 C 132.828 0.294281 -1.93374 0
M  V30 1394 C 133.208 1.67313 -1.28723 0
M  V30 1395 O 132.556 2.24179 -0.442247 0
M  V30 1396 C 132.766 0.355445 -3.47185 0
M  V30 1397 C 134.114 0.601007 -4.20325 0
M  V30 1398 O 135.138 0.437106 -3.53508 0
M  V30 1399 O 133.997 0.919322 -5.38712 0
M  V30 1400 H 131.091 0.174033 -0.808481 0
M  V30 1401 H 133.637 -0.406638 -1.64756 0
M  V30 1402 H 132.409 -0.611729 -3.86489 0
M  V30 1403 H 132.032 1.1027 -3.82003 0
M  V30 1404 N 133.029 1.57378 -0.0835403 0
M  V30 1405 C 133.976 2.13384 0.879539 0
M  V30 1406 C 134.946 1.04936 1.28754 0
M  V30 1407 O 136.131 1.32662 1.37133 0
M  V30 1408 C 133.271 2.70932 2.13752 0
M  V30 1409 C 132.384 3.93575 1.7811 0
M  V30 1410 C 131.519 4.39326 2.98607 0
M  V30 1411 C 130.558 5.54587 2.59037 0
M  V30 1412 N 129.695 5.95243 3.72331 0
M  V30 1413 H 134.535 2.9537 0.395076 0
M  V30 1414 H 132.072 1.45953 0.183349 0
M  V30 1415 H 134.03 3.02411 2.87408 0
M  V30 1416 H 132.66 1.91693 2.59718 0
M  V30 1417 H 131.712 3.68483 0.94469 0
M  V30 1418 H 133.024 4.77258 1.45005 0
M  V30 1419 H 132.178 4.72528 3.80529 0
M  V30 1420 H 130.917 3.5452 3.34913 0
M  V30 1421 H 129.922 5.21024 1.75539 0
M  V30 1422 H 131.147 6.41133 2.23887 0
M  V30 1423 H 129.093 5.13385 4.08378 0
M  V30 1424 H 129.01 6.73694 3.43034 0
M  V30 1425 H 130.278 6.33072 4.54797 0
M  V30 1426 N 134.507 -0.190092 1.56449 0
M  V30 1427 C 135.755 -0.907908 1.80559 0
M  V30 1428 C 136.076 -1.83583 0.657438 0
M  V30 1429 O 135.346 -1.93203 -0.323924 0
M  V30 1430 H 133.926 -0.338247 0.666032 0
M  V30 1431 H 136.588 -0.194403 1.93928 0
M  V30 1432 H 135.684 -1.49604 2.73907 0
M  V30 1433 N 135.985 -1.50799 -0.457987 0
M  V30 1434 C 137.396 -1.55152 -1.0385 0
M  V30 1435 C 137.747 -0.362719 -1.92818 0
M  V30 1436 O 136.872 0.522915 -2.09987 0
M  V30 1437 C 137.467 -2.81173 -1.89017 0
M  V30 1438 C 136.026 -2.88164 -2.42154 0
M  V30 1439 C 135.173 -2.49591 -1.20829 0
M  V30 1440 H 138.124 -1.56874 -0.240068 0
M  V30 1441 H 138.145 -2.63769 -2.74238 0
M  V30 1442 H 137.657 -3.67677 -1.24238 0
M  V30 1443 H 135.758 -2.06042 -3.10447 0
M  V30 1444 H 135.871 -3.91356 -2.76364 0
M  V30 1445 H 134.235 -2.02322 -1.54719 0
M  V30 1446 H 135.018 -3.38418 -0.576927 0
M  V30 1447 N 137.463 0.71206 -1.40597 0
M  V30 1448 C 138.74 1.46536 -1.29563 0
M  V30 1449 C 139.12 2.10931 0.0844217 0
M  V30 1450 O 138.468 2.00418 1.0975 0
M  V30 1451 C 138.678 2.49821 -2.43701 0
M  V30 1452 C 140.026 3.15551 -2.841 0
M  V30 1453 O 141.05 2.60142 -2.4332 0
M  V30 1454 O 139.909 4.15867 -3.54566 0
M  V30 1455 H 137.003 0.651801 -0.509004 0
M  V30 1456 H 139.549 0.743935 -1.52524 0
M  V30 1457 H 138.321 2.00778 -3.35863 0
M  V30 1458 H 137.944 3.29495 -2.22528 0
M  V30 1459 N 138.941 1.26152 0.944643 0
M  V30 1460 C 140.169 1.14259 1.72489 0
M  V30 1461 C 140.584 -0.302555 1.8636 0
M  V30 1462 O 139.941 -1.20741 1.36849 0
M  V30 1463 C 139.992 1.80266 3.13347 0
M  V30 1464 O 139.713 3.19133 3.00143 0
M  V30 1465 C 141.214 1.74283 4.07603 0
M  V30 1466 H 138.434 0.398051 0.540181 0
M  V30 1467 H 140.978 1.66706 1.18446 0
M  V30 1468 H 139.133 1.31766 3.64303 0
M  V30 1469 H 139.547 3.51744 3.89071 0
M  V30 1470 H 141.021 2.25111 5.04013 0
M  V30 1471 H 141.498 0.708631 4.33446 0
M  V30 1472 H 142.104 2.22319 3.62567 0
M  V30 1473 N 140.419 -1.14872 1.07899 0
M  V30 1474 C 141.696 -1.81928 0.71845 0
M  V30 1475 C 142.076 -1.95417 -0.798455 0
M  V30 1476 O 141.424 -1.50997 -1.715 0
M  V30 1477 C 141.634 -3.17937 1.43935 0
M  V30 1478 C 142.982 -3.93501 1.59506 0
M  V30 1479 O 144.006 -3.27509 1.40058 0
M  V30 1480 O 142.865 -5.1183 1.91551 0
M  V30 1481 H 139.959 -0.78628 0.256305 0
M  V30 1482 H 142.505 -1.21934 1.18026 0
M  V30 1483 H 141.277 -3.0325 2.47295 0
M  V30 1484 H 140.9 -3.85619 0.968687 0
M  V30 1485 N 141.898 -0.863906 -1.31812 0
M  V30 1486 C 143.175 -0.39275 -1.91616 0
M  V30 1487 C 143.555 1.12461 -1.7865 0
M  V30 1488 O 142.903 1.95045 -1.19037 0
M  V30 1489 C 143.113 -0.867385 -3.38049 0
M  V30 1490 C 144.461 -0.889966 -4.15168 0
M  V30 1491 O 145.485 -0.812635 -3.46806 0
M  V30 1492 O 144.344 -1.00079 -5.37258 0
M  V30 1493 H 141.438 -0.116358 -0.818773 0
M  V30 1494 H 143.984 -0.951418 -1.40521 0
M  V30 1495 H 142.756 -1.91081 -3.41473 0
M  V30 1496 H 142.379 -0.286687 -3.96565 0
M  V30 1497 N 143.376 1.44774 -0.622745 0
M  V30 1498 C 144.787 1.85546 -0.207226 0
M  V30 1499 C 145.138 1.52093 1.23944 0
M  V30 1500 O 144.263 0.95492 1.94191 0
M  V30 1501 C 144.858 3.36781 -0.369313 0
M  V30 1502 C 143.417 3.76399 -0.00836847 0
M  V30 1503 C 142.564 2.68664 -0.686651 0
M  V30 1504 H 145.515 1.3536 -0.828454 0
M  V30 1505 H 145.536 3.78453 0.394162 0
M  V30 1506 H 145.048 3.61098 -1.42231 0
M  V30 1507 H 143.149 3.57698 1.04322 0
M  V30 1508 H 143.262 4.7732 -0.412584 0
M  V30 1509 H 141.626 2.54404 -0.122777 0
M  V30 1510 H 142.409 2.95815 -1.74208 0
M  V30 1511 N 144.854 0.36279 1.53368 0
M  V30 1512 C 146.27 0.0116182 1.59596 0
M  V30 1513 C 146.47 -1.47012 1.37803 0
M  V30 1514 O 145.526 -2.23136 1.18181 0
M  V30 1515 C 146.839 0.465052 2.97082 0
M  V30 1516 C 148.387 0.419033 3.10182 0
M  V30 1517 C 148.862 0.848235 4.50077 0
M  V30 1518 N 150.353 0.803183 4.56183 0
M  V30 1519 C 151.088 1.107 5.62613 0
M  V30 1520 N 150.584 1.47996 6.76808 0
M  V30 1521 N 152.377 1.02998 5.52583 0
M  V30 1522 H 144.528 1.32775 1.65785 0
M  V30 1523 H 146.791 0.542518 0.777417 0
M  V30 1524 H 146.497 1.49892 3.18159 0
M  V30 1525 H 146.371 -0.149786 3.76902 0
M  V30 1526 H 148.758 -0.605696 2.88817 0
M  V30 1527 H 148.839 1.06933 2.32377 0
M  V30 1528 H 148.483 1.87107 4.7218 0
M  V30 1529 H 148.413 0.175218 5.26308 0
M  V30 1530 H 150.904 0.52838 3.74188 0
M  V30 1531 H 151.217 1.69613 7.53957 0
M  V30 1532 H 149.562 1.51859 6.78206 0
M  V30 1533 H 152.753 0.737817 4.62249 0
M  V30 1534 H 152.926 1.2701 6.35431 0
M  V30 1535 N 146.332 -1.57332 0.0918853 0
M  V30 1536 C 147.557 -1.98995 -0.584442 0
M  V30 1537 C 147.982 -0.970528 -1.61128 0
M  V30 1538 O 147.34 0.0613904 -1.81196 0
M  V30 1539 C 147.388 -3.39636 -1.21161 0
M  V30 1540 O 146.492 -3.40447 -2.32744 0
M  V30 1541 H 145.833 -0.647165 -0.148572 0
M  V30 1542 H 148.363 -2.03873 0.172347 0
M  V30 1543 H 148.373 -3.7726 -1.55367 0
M  V30 1544 H 147.048 -4.13356 -0.459313 0
M  V30 1545 H 145.625 -3.14614 -2.0018 0
M  V30 1546 N 147.81 0.181792 -1.56548 0
M  V30 1547 C 148.757 1.22521 -1.95595 0
M  V30 1548 C 149.727 1.4454 -0.818373 0
M  V30 1549 O 150.912 1.57454 -1.07763 0
M  V30 1550 C 148.052 2.56193 -2.31212 0
M  V30 1551 C 147.165 2.41641 -3.58097 0
M  V30 1552 C 146.3 3.68108 -3.82975 0
M  V30 1553 C 145.339 3.48445 -5.03242 0
M  V30 1554 N 144.476 4.66956 -5.24306 0
M  V30 1555 H 149.316 0.885226 -2.84548 0
M  V30 1556 H 146.853 0.425718 -1.40805 0
M  V30 1557 H 148.811 3.34088 -2.49882 0
M  V30 1558 H 147.441 2.88208 -1.45382 0
M  V30 1559 H 146.493 1.54976 -3.474 0
M  V30 1560 H 147.805 2.23052 -4.46149 0
M  V30 1561 H 146.959 4.54441 -4.01956 0
M  V30 1562 H 145.698 3.89666 -2.93278 0
M  V30 1563 H 144.703 2.60499 -4.8417 0
M  V30 1564 H 145.928 3.2832 -5.9446 0
M  V30 1565 H 143.874 4.88752 -4.37559 0
M  V30 1566 H 143.791 4.51242 -6.06561 0
M  V30 1567 H 145.059 5.54602 -5.47756 0
M  V30 1568 N 149.288 1.51039 0.449983 0
M  V30 1569 C 150.238 1.67824 1.54335 0
M  V30 1570 C 151.222 0.5324 1.51836 0
M  V30 1571 O 152.414 0.787762 1.58503 0
M  V30 1572 C 149.543 1.7951 2.92628 0
M  V30 1573 C 148.629 2.99838 2.9993 0
M  V30 1574 N 149.02 4.23207 2.77001 0
M  V30 1575 C 147.318 2.98832 3.31082 0
M  V30 1576 C 148.019 5.04361 2.89818 0
M  V30 1577 N 146.995 4.38746 3.2094 0
M  V30 1578 H 150.797 2.60884 1.35339 0
M  V30 1579 H 148.311 1.48513 0.657085 0
M  V30 1580 H 150.308 1.89642 3.7127 0
M  V30 1581 H 148.968 0.876227 3.12654 0
M  V30 1582 H 149.979 4.5236 2.52172 0
M  V30 1583 H 146.656 2.16527 3.56963 0
M  V30 1584 H 148.046 6.12528 2.76151 0
M  V30 1585 N 150.766 -0.704594 1.40972 0
M  V30 1586 C 151.713 -1.81862 1.42109 0
M  V30 1587 C 152.683 -1.63781 0.276593 0
M  V30 1588 O 153.868 -1.84759 0.4763 0
M  V30 1589 C 151.008 -3.19669 1.30022 0
M  V30 1590 C 150.121 -3.49246 2.54267 0
M  V30 1591 C 149.256 -4.76618 2.3454 0
M  V30 1592 C 148.295 -4.99133 3.54306 0
M  V30 1593 N 147.432 -6.17726 3.33706 0
M  V30 1594 H 152.272 -1.80226 2.37324 0
M  V30 1595 H 149.809 -0.880238 1.17857 0
M  V30 1596 H 151.767 -3.99263 1.21018 0
M  V30 1597 H 150.397 -3.20506 0.384192 0
M  V30 1598 H 149.449 -2.64125 2.73756 0
M  V30 1599 H 150.761 -3.61788 3.43381 0
M  V30 1600 H 149.915 -5.64249 2.22952 0
M  V30 1601 H 148.654 -4.66305 1.42867 0
M  V30 1602 H 147.659 -4.09953 3.66359 0
M  V30 1603 H 148.884 -5.11311 4.4692 0
M  V30 1604 H 146.83 -6.08642 2.44725 0
M  V30 1605 H 146.747 -6.30995 4.16391 0
M  V30 1606 H 148.015 -7.08115 3.25873 0
M  V30 1607 N 152.244 -1.26651 -0.937939 0
M  V30 1608 C 153.491 -1.12387 -1.6845 0
M  V30 1609 C 153.819 0.332208 -1.91642 0
M  V30 1610 O 153.074 1.2602 -1.49725 0
M  V30 1611 C 153.373 -1.84168 -3.06295 0
M  V30 1612 C 153.039 -3.34056 -3.02849 0
M  V30 1613 C 151.701 -3.74942 -3.01616 0
M  V30 1614 C 154.053 -4.29741 -2.9491 0
M  V30 1615 C 151.381 -5.09894 -2.90215 0
M  V30 1616 C 153.733 -5.64738 -2.8505 0
M  V30 1617 C 152.397 -6.0493 -2.82162 0
M  V30 1618 H 151.667 -0.411252 -0.616403 0
M  V30 1619 H 154.314 -1.57134 -1.09459 0
M  V30 1620 H 152.619 -1.319 -3.6893 0
M  V30 1621 H 154.316 -1.70569 -3.62915 0
M  V30 1622 H 150.906 -3.01534 -3.0459 0
M  V30 1623 H 155.09 -3.99133 -2.94969 0
M  V30 1624 H 150.346 -5.40194 -2.86358 0
M  V30 1625 H 154.52 -6.38561 -2.77872 0
M  V30 1626 H 152.147 -7.09457 -2.73084 0
M  V30 1627 N 153.722 1.14298 -1.08507 0
M  V30 1628 C 154.669 2.19414 -0.715965 0
M  V30 1629 C 155.639 1.63399 0.298326 0
M  V30 1630 O 156.824 1.89929 0.182101 0
M  V30 1631 C 153.964 3.44845 -0.132534 0
M  V30 1632 C 153.077 4.15007 -1.19973 0
M  V30 1633 C 152.212 5.28024 -0.580048 0
M  V30 1634 C 151.251 5.9002 -1.62921 0
M  V30 1635 N 150.388 6.94485 -1.03125 0
M  V30 1636 H 155.228 2.50336 -1.61666 0
M  V30 1637 H 152.765 1.2293 -0.807882 0
M  V30 1638 H 154.723 4.16601 0.223454 0
M  V30 1639 H 153.353 3.14403 0.731467 0
M  V30 1640 H 152.405 3.41629 -1.67313 0
M  V30 1641 H 153.717 4.57178 -1.99473 0
M  V30 1642 H 152.871 6.06455 -0.172364 0
M  V30 1643 H 151.61 4.87076 0.246603 0
M  V30 1644 H 150.615 5.10291 -2.04654 0
M  V30 1645 H 151.84 6.33042 -2.45835 0
M  V30 1646 H 149.786 6.55612 -0.225711 0
M  V30 1647 H 149.703 7.35148 -1.76334 0
M  V30 1648 H 150.971 7.7679 -0.649458 0
M  V30 1649 N 155.201 0.870884 1.31352 0
M  V30 1650 C 156.45 0.478408 1.95944 0
M  V30 1651 C 156.763 -0.974493 1.69597 0
M  V30 1652 O 157.969 -1.47316 2.28058 0
M  V30 1653 C 156.425 0.804609 3.50791 0
M  V30 1654 C 156.033 2.27433 3.85977 0
M  V30 1655 C 157.777 0.480648 4.2177 0
M  V30 1656 C 155.684 2.5429 5.33939 0
M  V30 1657 H 154.614 0.175175 0.733369 0
M  V30 1658 H 157.265 1.06391 1.4951 0
M  V30 1659 H 155.647 0.148347 3.95722 0
M  V30 1660 H 156.821 2.97373 3.52002 0
M  V30 1661 H 155.136 2.56442 3.28065 0
M  V30 1662 H 157.733 0.658519 5.30629 0
M  V30 1663 H 158.076 -0.578979 4.12254 0
M  V30 1664 H 158.609 1.09349 3.82476 0
M  V30 1665 H 155.348 3.58939 5.48491 0
M  V30 1666 H 154.868 1.88945 5.69263 0
M  V30 1667 H 156.547 2.39066 6.01212 0
M  V30 1668 N 156.679 -1.44442 0.630414 0
M  V30 1669 C 157.629 -2.27794 -0.0968103 0
M  V30 1670 C 158.613 -1.38624 -0.816834 0
M  V30 1671 O 159.805 -1.62438 -0.70306 0
M  V30 1672 C 156.934 -3.25929 -1.07819 0
M  V30 1673 C 156.02 -4.22588 -0.357826 0
M  V30 1674 N 156.411 -5.0207 0.613169 0
M  V30 1675 C 154.709 -4.41914 -0.602365 0
M  V30 1676 C 155.41 -5.72351 1.03871 0
M  V30 1677 N 154.386 -5.42287 0.377642 0
M  V30 1678 H 158.188 -2.86653 0.648621 0
M  V30 1679 H 155.702 -1.55871 0.455862 0
M  V30 1680 H 157.699 -3.84399 -1.61378 0
M  V30 1681 H 156.359 -2.68631 -1.82393 0
M  V30 1682 H 157.37 -5.08331 0.990947 0
M  V30 1683 H 154.047 -3.95714 -1.33103 0
M  V30 1684 H 155.437 -6.4619 1.84086 0
M  V30 1685 N 158.157 -0.370918 -1.53173 0
M  V30 1686 C 159.385 0.217704 -2.05751 0
M  V30 1687 C 159.8 1.42018 -1.24404 0
M  V30 1688 O 159.157 1.80245 -0.286033 0
M  V30 1689 C 159.208 0.605954 -3.56385 0
M  V30 1690 O 158.929 -0.548734 -4.3465 0
M  V30 1691 C 160.43 1.2524 -4.25241 0
M  V30 1692 H 157.65 0.0371659 -0.66997 0
M  V30 1693 H 160.194 -0.530832 -1.9749 0
M  V30 1694 H 158.349 1.3044 -3.6478 0
M  V30 1695 H 158.763 -0.23376 -5.23979 0
M  V30 1696 H 160.237 1.47458 -5.3194 0
M  V30 1697 H 160.714 2.2143 -3.79296 0
M  V30 1698 H 161.32 0.595233 -4.21114 0
M  V30 1699 N 159.635 1.57281 -0.100228 0
M  V30 1700 C 160.865 1.98591 0.569681 0
M  V30 1701 C 161.273 0.978315 1.61943 0
M  V30 1702 O 160.616 -0.0396108 1.83657 0
M  V30 1703 C 160.678 3.36282 1.271 0
M  V30 1704 C 160.342 4.55488 0.371409 0
M  V30 1705 C 161.339 5.18491 -0.382504 0
M  V30 1706 C 159.024 5.01474 0.287965 0
M  V30 1707 C 161.018 6.25852 -1.20779 0
M  V30 1708 C 158.705 6.08701 -0.540965 0
M  V30 1709 C 159.703 6.70755 -1.28749 0
M  V30 1710 O 159.391 7.75914 -2.10269 0
M  V30 1711 H 159.123 0.65752 0.156982 0
M  V30 1712 H 161.677 2.0463 -0.177734 0
M  V30 1713 H 159.907 3.26941 2.0651 0
M  V30 1714 H 161.596 3.62005 1.83595 0
M  V30 1715 H 162.362 4.83891 -0.3278 0
M  V30 1716 H 158.241 4.52932 0.858689 0
M  V30 1717 H 161.785 6.74218 -1.79096 0
M  V30 1718 H 157.682 6.42732 -0.597131 0
M  V30 1719 H 158.45 7.92925 -2.03007 0
M  V30 1720 N 161.113 -0.173488 1.56642 0
M  V30 1721 C 162.361 -0.888706 1.81512 0
M  V30 1722 C 162.682 -1.82875 0.676872 0
M  V30 1723 O 161.952 -1.93536 -0.303414 0
M  V30 1724 H 160.532 -0.331164 0.669582 0
M  V30 1725 H 163.194 -0.173823 1.94123 0
M  V30 1726 H 162.29 -1.46691 2.75478 0
M  V30 1727 N 162.591 -1.51276 -0.441967 0
M  V30 1728 C 163.816 -1.67799 -1.21895 0
M  V30 1729 C 164.241 -0.372864 -1.84367 0
M  V30 1730 O 163.599 0.666501 -1.68604 0
M  V30 1731 C 163.647 -2.79199 -2.28211 0
M  V30 1732 O 162.751 -2.42479 -3.33583 0
M  V30 1733 H 162.092 -0.559649 -0.357336 0
M  V30 1734 H 164.622 -1.97815 -0.522522 0
M  V30 1735 H 164.632 -3.03146 -2.73069 0
M  V30 1736 H 163.307 -3.73906 -1.82118 0
M  V30 1737 H 161.884 -2.29087 -2.94234 0
M  V30 1738 N 164.069 0.697108 -1.41344 0
M  V30 1739 C 165.48 1.27697 -1.36199 0
M  V30 1740 C 165.831 1.9615 -0.0443463 0
M  V30 1741 O 164.956 1.98689 0.857419 0
M  V30 1742 C 165.551 2.32223 -2.46694 0
M  V30 1743 C 164.11 2.8579 -2.44952 0
M  V30 1744 C 163.257 1.59807 -2.26621 0
M  V30 1745 H 166.208 0.491968 -1.50882 0
M  V30 1746 H 166.229 3.1348 -2.15664 0
M  V30 1747 H 165.741 1.82373 -3.42581 0
M  V30 1748 H 163.842 3.3982 -1.52817 0
M  V30 1749 H 163.955 3.36325 -3.41207 0
M  V30 1750 H 162.319 1.8556 -1.7447 0
M  V30 1751 H 163.102 1.11956 -3.24532 0
M  V30 1752 N 165.547 1.27147 0.931209 0
M  V30 1753 C 166.775 1.16082 1.71267 0
M  V30 1754 C 167.19 -0.282772 1.8667 0
M  V30 1755 O 166.547 -1.19283 1.38122 0
M  V30 1756 C 166.598 1.8358 3.11417 0
M  V30 1757 O 166.319 3.22299 2.96741 0
M  V30 1758 C 167.82 1.78597 4.05732 0
M  V30 1759 H 165.04 0.403758 0.535929 0
M  V30 1760 H 167.584 1.67953 1.16671 0
M  V30 1761 H 165.739 1.35623 3.62885 0
M  V30 1762 H 166.153 3.55851 3.85319 0
M  V30 1763 H 167.627 2.30444 5.01597 0
M  V30 1764 H 168.104 0.754564 4.3267 0
M  V30 1765 H 168.71 2.26152 3.60188 0
M  V30 1766 N 167.025 -1.13721 1.09112 0
M  V30 1767 C 168.272 -1.84924 0.825192 0
M  V30 1768 C 168.6 -1.83347 -0.649151 0
M  V30 1769 O 167.855 -1.26449 -1.49362 0
M  V30 1770 C 168.154 -3.32861 1.30146 0
M  V30 1771 C 167.82 -3.54621 2.78486 0
M  V30 1772 C 166.482 -3.60268 3.18999 0
M  V30 1773 C 168.834 -3.62855 3.74146 0
M  V30 1774 C 166.162 -3.71679 4.53951 0
M  V30 1775 C 168.514 -3.75793 5.08883 0
M  V30 1776 C 167.178 -3.79692 5.4899 0
M  V30 1777 H 166.448 -0.676684 0.301959 0
M  V30 1778 H 169.095 -1.3428 1.36533 0
M  V30 1779 H 167.4 -3.85835 0.681064 0
M  V30 1780 H 169.097 -3.86395 1.07236 0
M  V30 1781 H 165.687 -3.50879 2.46134 0
M  V30 1782 H 169.871 -3.57775 3.43963 0
M  V30 1783 H 165.127 -3.72963 4.84467 0
M  V30 1784 H 169.301 -3.81107 5.82864 0
M  V30 1785 H 166.928 -3.88287 6.53558 0
M  V30 1786 N 168.503 -0.877838 -1.30888 0
M  V30 1787 C 169.743 -0.499301 -1.98208 0
M  V30 1788 C 170.107 0.932649 -1.67826 0
M  V30 1789 O 171.308 1.41694 -2.28421 0
M  V30 1790 C 169.579 -0.758221 -3.49265 0
M  V30 1791 S 171.138 -0.480719 -4.36159 0
M  V30 1792 H 167.956 -0.186062 -0.686223 0
M  V30 1793 H 170.558 -1.13556 -1.59139 0
M  V30 1794 H 169.262 -1.79903 -3.68867 0
M  V30 1795 H 168.793 -0.109247 -3.93248 0
M  V30 1796 H 170.808 0.683698 -4.91467 0
M  V30 1797 N 169.982 1.44106 -0.638065 0
M  V30 1798 C 171.259 1.95453 -0.0759321 0
M  V30 1799 C 171.639 1.57984 1.40015 0
M  V30 1800 O 170.987 0.857361 2.11806 0
M  V30 1801 C 171.197 3.47655 -0.306132 0
M  V30 1802 C 172.545 4.24114 -0.203008 0
M  V30 1803 O 173.569 3.55405 -0.237871 0
M  V30 1804 O 172.428 5.46381 -0.113827 0
M  V30 1805 H 169.522 0.826797 0.0183332 0
M  V30 1806 H 172.068 1.54122 -0.710251 0
M  V30 1807 H 170.84 3.68 -1.3301 0
M  V30 1808 H 170.463 3.95949 0.361991 0
M  V30 1809 N 171.46 0.379036 1.52974 0
M  V30 1810 C 172.41 -0.477772 2.22938 0
M  V30 1811 C 173.394 -1.03792 1.22948 0
M  V30 1812 O 174.586 -0.965725 1.48333 0
M  V30 1813 C 171.715 -1.60994 3.03209 0
M  V30 1814 C 170.801 -1.06203 4.10587 0
M  V30 1815 N 171.192 -0.238214 5.05239 0
M  V30 1816 C 169.49 -1.33554 4.25534 0
M  V30 1817 C 170.191 0.0633235 5.81666 0
M  V30 1818 N 169.167 -0.537901 5.40932 0
M  V30 1819 H 172.969 0.158295 2.93473 0
M  V30 1820 H 170.483 0.187778 1.61311 0
M  V30 1821 H 172.48 -2.23607 3.5186 0
M  V30 1822 H 171.14 -2.24893 2.34207 0
M  V30 1823 H 172.151 0.123695 5.17752 0
M  V30 1824 H 168.828 -1.97632 3.6776 0
M  V30 1825 H 170.218 0.730161 6.67921 0
M  V30 1826 N 172.938 -1.57226 0.108567 0
M  V30 1827 C 174.178 -1.96717 -0.555155 0
M  V30 1828 C 174.542 -0.990003 -1.64508 0
M  V30 1829 O 175.743 -1.2739 -2.36696 0
M  V30 1830 C 174.014 -3.40575 -1.08367 0
M  V30 1831 S 175.573 -4.02072 -1.75737 0
M  V30 1832 H 172.391 -0.687638 -0.180762 0
M  V30 1833 H 174.993 -1.94563 0.191172 0
M  V30 1834 H 173.697 -4.0945 -0.279092 0
M  V30 1835 H 173.228 -3.46356 -1.86551 0
M  V30 1836 H 175.243 -3.91977 -3.04251 0
M  V30 1837 N 174.416 0.165178 -1.56732 0
M  V30 1838 C 175.664 0.879068 -1.8198 0
M  V30 1839 C 175.985 1.82514 -0.686561 0
M  V30 1840 O 175.255 1.93694 0.293146 0
M  V30 1841 H 173.835 0.327608 -0.671329 0
M  V30 1842 H 176.497 0.163526 -1.94213 0
M  V30 1843 H 175.593 1.45228 -2.76252 0
M  V30 1844 N 175.894 1.51508 0.433938 0
M  V30 1845 C 177.119 1.68443 1.21003 0
M  V30 1846 C 177.544 0.382636 1.84167 0
M  V30 1847 O 176.902 -0.65755 1.68956 0
M  V30 1848 C 176.95 2.80405 2.26727 0
M  V30 1849 O 176.054 2.44245 3.32292 0
M  V30 1850 H 175.395 0.561536 0.354363 0
M  V30 1851 H 177.925 1.9809 0.512024 0
M  V30 1852 H 177.935 3.0459 2.71457 0
M  V30 1853 H 176.61 3.74867 1.80132 0
M  V30 1854 H 175.187 2.30644 2.93015 0
M  V30 1855 N 177.372 -0.689602 1.41712 0
M  V30 1856 C 178.302 -1.81577 1.46806 0
M  V30 1857 C 179.283 -1.66945 0.326105 0
M  V30 1858 O 180.468 -1.86588 0.538377 0
M  V30 1859 C 177.598 -3.19762 1.35535 0
M  V30 1860 C 176.552 -3.49107 2.47605 0
M  V30 1861 C 175.878 -4.86711 2.21397 0
M  V30 1862 C 177.178 -3.47483 3.89939 0
M  V30 1863 H 178.872 -1.7757 2.41058 0
M  V30 1864 H 176.418 -0.852887 1.16025 0
M  V30 1865 H 178.371 -3.98263 1.3771 0
M  V30 1866 H 177.095 -3.24409 0.377708 0
M  V30 1867 H 175.754 -2.72959 2.44722 0
M  V30 1868 H 175.402 -4.8799 1.21961 0
M  V30 1869 H 175.102 -5.0731 2.96497 0
M  V30 1870 H 176.626 -5.67515 2.25297 0
M  V30 1871 H 178.04 -4.1598 3.94505 0
M  V30 1872 H 176.437 -3.79615 4.64771 0
M  V30 1873 H 177.507 -2.46341 4.17665 0
M  V30 1874 N 178.85 -1.27639 -0.924453 0
M  V30 1875 C 179.78 -1.13166 -2.04244 0
M  V30 1876 C 180.761 -0.032256 -1.70069 0
M  V30 1877 O 181.946 -0.207328 -1.9309 0
M  V30 1878 C 179.076 -0.781496 -3.38393 0
M  V30 1879 C 178.03 -1.83449 -3.86692 0
M  V30 1880 C 177.356 -1.33822 -5.17683 0
M  V30 1881 C 178.656 -3.23917 -4.09726 0
M  V30 1882 H 180.35 -2.06689 -2.1661 0
M  V30 1883 H 177.896 -0.995136 -1.04082 0
M  V30 1884 H 179.849 -0.667057 -4.16087 0
M  V30 1885 H 178.573 0.189439 -3.2605 0
M  V30 1886 H 177.232 -1.93789 -3.11193 0
M  V30 1887 H 176.88 -0.35665 -5.01734 0
M  V30 1888 H 176.58 -2.04224 -5.50968 0
M  V30 1889 H 178.104 -1.23679 -5.97943 0
M  V30 1890 H 179.518 -3.16559 -4.77978 0
M  V30 1891 H 177.915 -3.92059 -4.54324 0
M  V30 1892 H 178.985 -3.68729 -3.14908 0
M  V30 1893 N 180.328 1.1314 -1.09713 0
M  V30 1894 C 181.558 1.88048 -0.855656 0
M  V30 1895 C 181.966 1.79537 0.596919 0
M  V30 1896 O 181.309 1.16196 1.42282 0
M  V30 1897 C 181.371 3.38314 -1.21589 0
M  V30 1898 C 181.035 3.70605 -2.67397 0
M  V30 1899 C 182.032 3.69596 -3.65643 0
M  V30 1900 C 179.717 4.0017 -3.03593 0
M  V30 1901 C 181.711 3.977 -4.9811 0
M  V30 1902 C 179.398 4.27935 -4.36251 0
M  V30 1903 C 180.396 4.26685 -5.33318 0
M  V30 1904 O 180.084 4.53767 -6.63589 0
M  V30 1905 H 179.816 0.60208 -0.307368 0
M  V30 1906 H 182.37 1.44128 -1.46343 0
M  V30 1907 H 180.6 3.82752 -0.551177 0
M  V30 1908 H 182.289 3.94552 -0.953083 0
M  V30 1909 H 183.055 3.46826 -3.39023 0
M  V30 1910 H 178.934 4.00289 -2.2867 0
M  V30 1911 H 182.478 3.9664 -5.73866 0
M  V30 1912 H 178.375 4.50178 -4.62613 0
M  V30 1913 H 179.143 4.71422 -6.69107 0
M  V30 1914 N 181.806 0.884767 1.30421 0
M  V30 1915 C 183.054 0.502112 1.95763 0
M  V30 1916 C 183.375 -0.951815 1.70192 0
M  V30 1917 O 182.645 -1.6692 1.0254 0
M  V30 1918 H 181.225 0.182694 0.724315 0
M  V30 1919 H 183.887 1.1278 1.58955 0
M  V30 1920 H 182.983 0.672188 3.04775 0
M  V30 1921 N 183.284 -1.43765 0.645699 0
M  V30 1922 C 184.214 -2.33471 -0.0370477 0
M  V30 1923 C 185.195 -1.49042 -0.819779 0
M  V30 1924 O 186.38 -1.77726 -0.782758 0
M  V30 1925 C 183.51 -3.32311 -1.0093 0
M  V30 1926 C 182.464 -4.2667 -0.337201 0
M  V30 1927 C 181.79 -5.1549 -1.42037 0
M  V30 1928 C 183.09 -5.16657 0.765706 0
M  V30 1929 H 184.784 -2.90809 0.712069 0
M  V30 1930 H 182.33 -1.39834 0.343876 0
M  V30 1931 H 184.283 -3.9396 -1.49578 0
M  V30 1932 H 183.007 -2.73213 -1.78948 0
M  V30 1933 H 181.666 -3.66374 0.128771 0
M  V30 1934 H 181.314 -4.52735 -2.1918 0
M  V30 1935 H 181.014 -5.79438 -0.975966 0
M  V30 1936 H 182.538 -5.80012 -1.90838 0
M  V30 1937 H 183.952 -5.72158 0.361702 0
M  V30 1938 H 182.349 -5.89286 1.13413 0
M  V30 1939 H 183.419 -4.56796 1.62683 0
M  V30 1940 N 184.763 -0.387143 -1.52771 0
M  V30 1941 C 186.012 0.19697 -2.00736 0
M  V30 1942 C 186.325 1.48082 -1.27793 0
M  V30 1943 O 187.531 2.14485 -1.66458 0
M  V30 1944 C 185.987 0.401568 -3.57653 0
M  V30 1945 C 185.595 -0.868907 -4.39493 0
M  V30 1946 C 187.339 0.942164 -4.13912 0
M  V30 1947 C 185.246 -0.632705 -5.88006 0
M  V30 1948 H 184.176 0.0773827 -0.750019 0
M  V30 1949 H 186.827 -0.50921 -1.76293 0
M  V30 1950 H 185.209 1.16954 -3.78335 0
M  V30 1951 H 186.383 -1.64133 -4.30577 0
M  V30 1952 H 184.698 -1.33429 -3.94443 0
M  V30 1953 H 187.295 1.13455 -5.22525 0
M  V30 1954 H 187.638 1.9106 -3.69867 0
M  V30 1955 H 188.171 0.233814 -3.97112 0
M  V30 1956 H 184.91 -1.57208 -6.36369 0
M  V30 1957 H 184.43 0.100825 -5.99715 0
M  V30 1958 H 186.109 -0.26642 -6.46451 0
M  V30 1959 N 186.241 1.57166 -0.116904 0
M  V30 1960 C 187.191 2.11756 0.845178 0
M  V30 1961 C 188.175 1.03783 1.22955 0
M  V30 1962 O 189.367 1.3002 1.20099 0
M  V30 1963 C 186.496 2.71886 2.09602 0
M  V30 1964 C 185.582 3.86937 1.7361 0
M  V30 1965 N 185.973 4.94073 1.08284 0
M  V30 1966 C 184.271 3.97082 2.03082 0
M  V30 1967 C 184.972 5.74477 0.913855 0
M  V30 1968 N 183.948 5.2423 1.43818 0
M  V30 1969 H 187.75 2.91967 0.336523 0
M  V30 1970 H 185.264 1.62174 0.0856332 0
M  V30 1971 H 187.261 3.09338 2.79492 0
M  V30 1972 H 185.921 1.93138 2.61013 0
M  V30 1973 H 186.932 5.12483 0.747067 0
M  V30 1974 H 183.609 3.29372 2.56554 0
M  V30 1975 H 184.999 6.70701 0.40125 0
M  V30 1976 N 187.719 -0.156864 1.56817 0
M  V30 1977 C 188.651 -1.21883 1.94106 0
M  V30 1978 C 189.664 -1.3971 0.835754 0
M  V30 1979 O 190.853 -1.39457 1.11418 0
M  V30 1980 C 187.953 -2.58527 2.19127 0
M  V30 1981 C 187.126 -2.61809 3.50393 0
M  V30 1982 C 186.185 -3.7992 3.64071 0
M  V30 1983 O 185.211 -3.65249 4.36557 0
M  V30 1984 N 186.413 -4.96973 2.99997 0
M  V30 1985 H 189.178 -0.901974 2.85805 0
M  V30 1986 H 186.739 -0.346513 1.58148 0
M  V30 1987 H 188.731 -3.36034 2.25529 0
M  V30 1988 H 187.301 -2.82545 1.33742 0
M  V30 1989 H 186.521 -1.7029 3.5552 0
M  V30 1990 H 187.809 -2.61024 4.36742 0
M  V30 1991 H 187.207 -5.11794 2.41004 0
M  V30 1992 H 185.764 -5.7229 3.11974 0
M  V30 1993 N 189.197 -1.51736 -0.425897 0
M  V30 1994 C 190.445 -1.64644 -1.17204 0
M  V30 1995 C 190.766 -0.370486 -1.91448 0
M  V30 1996 O 190.036 0.614088 -1.86026 0
M  V30 1997 H 188.616 -0.606819 -0.435638 0
M  V30 1998 H 191.278 -1.88713 -0.487177 0
M  V30 1999 H 190.374 -2.47958 -1.89534 0
M  V30 2000 N 190.675 0.682077 -1.42076 0
M  V30 2001 C 191.608 1.80666 -1.3941 0
M  V30 2002 C 192.586 1.60518 -0.25939 0
M  V30 2003 O 193.77 1.83088 -0.448456 0
M  V30 2004 C 190.897 3.17556 -1.17796 0
M  V30 2005 C 189.943 3.56468 -2.34164 0
M  V30 2006 S 190.776 3.59729 -3.96681 0
M  V30 2007 C 191.932 4.99323 -3.77395 0
M  V30 2008 H 192.165 1.82652 -2.34575 0
M  V30 2009 H 189.698 0.852062 -1.2876 0
M  V30 2010 H 191.656 3.96575 -1.06012 0
M  V30 2011 H 190.317 3.13164 -0.242279 0
M  V30 2012 H 189.51 4.5595 -2.1477 0
M  V30 2013 H 189.112 2.84792 -2.42425 0
M  V30 2014 H 191.404 5.87202 -3.37935 0
M  V30 2015 H 192.347 5.23763 -4.76527 0
M  V30 2016 H 192.755 4.71498 -3.10403 0
M  V30 2017 N 192.153 1.28127 0.917671 0
M  V30 2018 C 193.1 1.11717 2.0196 0
M  V30 2019 C 194.07 0.0153929 1.66093 0
M  V30 2020 O 195.255 0.179596 1.89953 0
M  V30 2021 C 192.395 0.780927 3.36148 0
M  V30 2022 C 191.508 1.96135 3.84909 0
M  V30 2023 C 190.643 1.56609 5.0759 0
M  V30 2024 C 189.682 2.71339 5.48673 0
M  V30 2025 N 188.819 2.32332 6.62545 0
M  V30 2026 H 193.659 2.06003 2.15329 0
M  V30 2027 H 191.196 1.02535 1.05475 0
M  V30 2028 H 193.154 0.56675 4.13333 0
M  V30 2029 H 191.784 -0.124998 3.22558 0
M  V30 2030 H 190.836 2.28777 3.03916 0
M  V30 2031 H 192.148 2.82165 4.1132 0
M  V30 2032 H 191.302 1.31374 5.92305 0
M  V30 2033 H 190.041 0.677014 4.82978 0
M  V30 2034 H 189.046 2.97276 4.62501 0
M  V30 2035 H 190.271 3.60882 5.75274 0
M  V30 2036 H 188.217 1.45889 6.39572 0
M  V30 2037 H 188.134 3.11899 6.88662 0
M  V30 2038 H 189.402 2.10371 7.50576 0
M  V30 2039 N 193.631 -1.12557 1.10312 0
M  V30 2040 C 194.871 -1.8568 0.854543 0
M  V30 2041 C 195.235 -1.82091 -0.608843 0
M  V30 2042 O 196.436 -2.50544 -0.973717 0
M  V30 2043 C 194.707 -3.2942 1.38626 0
M  V30 2044 S 196.266 -4.19931 1.27293 0
M  V30 2045 H 193.084 -0.640427 0.308827 0
M  V30 2046 H 195.686 -1.35599 1.40831 0
M  V30 2047 H 194.39 -3.2959 2.44537 0
M  V30 2048 H 193.921 -3.84566 0.82902 0
M  V30 2049 H 195.936 -4.95668 0.229776 0
M  V30 2050 N 195.109 -0.891671 -1.2995 0
M  V30 2051 C 196.386 -0.433307 -1.9074 0
M  V30 2052 C 196.766 1.08646 -1.80995 0
M  V30 2053 O 196.114 1.92476 -1.23147 0
M  V30 2054 C 196.324 -0.938895 -3.36134 0
M  V30 2055 C 197.672 -0.977829 -4.13187 0
M  V30 2056 O 198.696 -0.886015 -3.45005 0
M  V30 2057 O 197.555 -1.11453 -5.35015 0
M  V30 2058 H 194.649 -0.133699 -0.816121 0
M  V30 2059 H 197.195 -0.981011 -1.38471 0
M  V30 2060 H 195.967 -1.98281 -3.37343 0
M  V30 2061 H 195.59 -0.37074 -3.95868 0
M  V30 2062 N 196.587 1.43421 -0.653314 0
M  V30 2063 C 197.815 2.06163 -0.174491 0
M  V30 2064 C 198.23 1.48969 1.1599 0
M  V30 2065 O 197.587 0.621042 1.71608 0
M  V30 2066 C 197.638 3.61417 -0.0774865 0
M  V30 2067 O 197.359 4.16485 -1.35912 0
M  V30 2068 C 198.86 4.41235 0.427402 0
M  V30 2069 H 196.08 0.664946 -0.0899353 0
M  V30 2070 H 198.624 1.83924 -0.893988 0
M  V30 2071 H 196.779 3.82841 0.59257 0
M  V30 2072 H 197.193 5.10153 -1.21839 0
M  V30 2073 H 198.667 5.5021 0.44423 0
M  V30 2074 H 199.144 4.14268 1.45873 0
M  V30 2075 H 199.75 4.2478 -0.210167 0
M  V30 2076 N 198.065 0.39524 1.52563 0
M  V30 2077 C 199.305 -0.184744 2.03563 0
M  V30 2078 C 199.669 -1.43548 1.27507 0
M  V30 2079 O 200.87 -2.093 1.68662 0
M  V30 2080 C 199.141 -0.440294 3.54678 0
M  V30 2081 S 200.7 -0.989712 4.27493 0
M  V30 2082 H 197.518 -0.0515075 0.709132 0
M  V30 2083 H 200.12 0.544957 1.87751 0
M  V30 2084 H 198.824 0.477005 4.07618 0
M  V30 2085 H 198.355 -1.19825 3.74707 0
M  V30 2086 H 200.37 -2.27155 4.41152 0
M  V30 2087 N 199.544 -1.57102 0.125237 0
M  V30 2088 C 200.821 -1.86953 -0.575142 0
M  V30 2089 C 201.201 -1.02749 -1.84407 0
M  V30 2090 O 200.549 -0.108144 -2.28244 0
M  V30 2091 C 200.759 -3.38198 -0.861583 0
M  V30 2092 C 202.107 -4.06937 -1.21192 0
M  V30 2093 O 203.131 -3.43252 -0.951645 0
M  V30 2094 O 201.99 -5.19364 -1.70068 0
M  V30 2095 H 199.084 -0.774147 -0.290906 0
M  V30 2096 H 201.63 -1.68942 0.160211 0
M  V30 2097 H 200.402 -3.91282 0.0373647 0
M  V30 2098 H 200.025 -3.61661 -1.65188 0
M  V30 2099 N 201.022 0.148545 -1.56898 0
M  V30 2100 C 201.955 1.21293 -1.93296 0
M  V30 2101 C 202.933 1.41637 -0.798599 0
M  V30 2102 O 204.117 1.56275 -1.05406 0
M  V30 2103 C 201.244 2.5721 -2.20365 0
M  V30 2104 C 200.29 2.53469 -3.4301 0
M  V30 2105 S 201.123 2.00315 -4.96623 0
M  V30 2106 C 202.279 3.37964 -5.26812 0
M  V30 2107 H 202.512 0.902393 -2.83274 0
M  V30 2108 H 200.045 0.354094 -1.50285 0
M  V30 2109 H 202.003 3.35427 -2.36641 0
M  V30 2110 H 200.664 2.85454 -1.31054 0
M  V30 2111 H 199.857 3.53518 -3.59223 0
M  V30 2112 H 199.459 1.83359 -3.25968 0
M  V30 2113 H 201.751 4.34066 -5.20185 0
M  V30 2114 H 202.694 3.26606 -6.28279 0
M  V30 2115 H 203.102 3.35028 -4.54331 0
M  V30 2116 N 202.5 1.5196 0.417844 0
M  V30 2117 C 203.448 1.75278 1.52907 0
M  V30 2118 C 204.442 0.619611 1.57662 0
M  V30 2119 O 205.648 0.801457 1.61173 0
M  V30 2120 H 202.023 0.554141 0.508362 0
M  V30 2121 H 203.994 2.68389 1.30422 0
M  V30 2122 C 202.743 1.91262 2.90369 0
M  V30 2123 H 202.066 2.77872 2.8745 0
M  V30 2124 H 203.506 2.11581 3.67436 0
M  V30 2125 C 201.965 0.677431 3.30019 0
M  V30 2126 O 202.495 -0.158799 4.01386 0
M  V30 2127 N 200.701 0.515851 2.85985 0
M  V30 2128 H 200.248 1.19744 2.28077 0
M  V30 2129 H 200.206 -0.309315 3.12875 0
M  V30 2130 N 203.978 -0.674533 1.42435 0
M  V30 2131 C 205.224 -1.43671 1.43131 0
M  V30 2132 C 205.557 -1.94142 0.0476021 0
M  V30 2133 O 204.832 -1.70924 -0.928188 0
M  V30 2134 C 205.115 -2.63355 2.45594 0
M  V30 2135 C 204.968 -2.18514 3.93156 0
M  V30 2136 C 206.287 -3.65571 2.45043 0
M  V30 2137 H 203.406 -0.521077 0.521198 0
M  V30 2138 H 206.048 -0.766551 1.7385 0
M  V30 2139 H 204.198 -3.2053 2.19528 0
M  V30 2140 H 205.87 -1.66504 4.30202 0
M  V30 2141 H 204.113 -1.50086 4.07009 0
M  V30 2142 H 204.784 -3.04484 4.60428 0
M  V30 2143 H 207.26 -3.18113 2.68223 0
M  V30 2144 H 206.136 -4.46893 3.18713 0
M  V30 2145 H 206.397 -4.16716 1.47649 0
M  V30 2146 N 205.456 -1.28612 -0.910864 0
M  V30 2147 C 206.406 -1.09423 -2.00026 0
M  V30 2148 C 207.39 -0.0170079 -1.60891 0
M  V30 2149 O 208.582 -0.237472 -1.754 0
M  V30 2150 C 205.711 -0.76114 -3.34756 0
M  V30 2151 C 204.797 -1.87735 -3.80285 0
M  V30 2152 N 205.188 -3.11938 -3.98156 0
M  V30 2153 C 203.486 -1.76786 -4.09467 0
M  V30 2154 C 204.187 -3.84687 -4.36338 0
M  V30 2155 N 203.163 -3.12555 -4.44759 0
M  V30 2156 H 206.965 -2.03658 -2.11898 0
M  V30 2157 H 204.479 -1.19573 -1.09891 0
M  V30 2158 H 206.476 -0.604743 -4.12491 0
M  V30 2159 H 205.136 0.173403 -3.24237 0
M  V30 2160 H 206.147 -3.47516 -3.83996 0
M  V30 2161 H 202.824 -0.905284 -4.07567 0
M  V30 2162 H 204.214 -4.91518 -4.58104 0
M  V30 2163 N 206.934 1.1197 -1.10907 0
M  V30 2164 C 207.881 2.17846 -0.762345 0
M  V30 2165 C 208.851 1.63995 0.263599 0
M  V30 2166 O 210.036 1.90273 0.141773 0
M  V30 2167 C 207.176 3.44487 -0.205651 0
M  V30 2168 C 206.289 4.12369 -1.28748 0
M  V30 2169 C 205.424 5.26674 -0.691919 0
M  V30 2170 C 204.463 5.86431 -1.75399 0
M  V30 2171 N 203.6 6.92142 -1.17833 0
M  V30 2172 H 208.44 2.46851 -1.6694 0
M  V30 2173 H 205.977 1.21188 -0.833776 0
M  V30 2174 H 207.935 4.16981 0.135037 0
M  V30 2175 H 206.565 3.15884 0.664613 0
M  V30 2176 H 205.617 3.38003 -1.74522 0
M  V30 2177 H 206.929 4.52844 -2.09125 0
M  V30 2178 H 206.083 6.05953 -0.300963 0
M  V30 2179 H 204.822 4.8749 0.143232 0
M  V30 2180 H 203.827 5.05835 -2.15432 0
M  V30 2181 H 205.052 6.27685 -2.59208 0
M  V30 2182 H 202.998 6.54985 -0.364725 0
M  V30 2183 H 202.915 7.31242 -1.91887 0
M  V30 2184 H 204.183 7.75237 -0.81408 0
M  V30 2185 N 208.412 0.89855 1.29475 0
M  V30 2186 C 209.344 0.332726 2.26772 0
M  V30 2187 C 210.357 -0.520323 1.54261 0
M  V30 2188 O 211.546 -0.337668 1.75277 0
M  V30 2189 C 208.646 -0.544334 3.345 0
M  V30 2190 C 207.819 0.282728 4.36485 0
M  V30 2191 C 206.878 -0.526982 5.23555 0
M  V30 2192 O 205.904 0.0551165 5.69173 0
M  V30 2193 N 207.106 -1.83331 5.5079 0
M  V30 2194 H 209.871 1.16897 2.75962 0
M  V30 2195 H 207.432 0.762919 1.42798 0
M  V30 2196 H 209.424 -1.09239 3.89678 0
M  V30 2197 H 207.994 -1.28127 2.85136 0
M  V30 2198 H 207.214 1.01221 3.80983 0
M  V30 2199 H 208.502 0.84918 5.01664 0
M  V30 2200 H 207.9 -2.32898 5.15534 0
M  V30 2201 H 206.457 -2.32852 6.08788 0
M  V30 2202 N 209.89 -1.43072 0.660911 0
M  V30 2203 C 211.13 -2.03596 0.181146 0
M  V30 2204 C 211.494 -1.51057 -1.18515 0
M  V30 2205 O 212.695 -2.03275 -1.75877 0
M  V30 2206 C 210.966 -3.56845 0.19911 0
M  V30 2207 S 212.525 -4.38289 -0.211684 0
M  V30 2208 H 209.343 -0.706954 0.0757479 0
M  V30 2209 H 211.945 -1.75027 0.870965 0
M  V30 2210 H 210.649 -3.92583 1.1961 0
M  V30 2211 H 210.18 -3.90067 -0.510996 0
M  V30 2212 H 212.195 -4.74583 -1.44863 0
M  V30 2213 N 211.368 -0.403325 -1.52352 0
M  V30 2214 C 212.614 0.174605 -2.02047 0
M  V30 2215 C 212.947 1.45282 -1.28867 0
M  V30 2216 O 212.222 1.90483 -0.393257 0
M  V30 2217 C 212.505 0.428238 -3.57545 0
M  V30 2218 C 212.358 -0.866248 -4.4138 0
M  V30 2219 C 213.677 1.21287 -4.23057 0
M  V30 2220 H 210.796 0.0619851 -0.734389 0
M  V30 2221 H 213.438 -0.53565 -1.82293 0
M  V30 2222 H 211.588 1.03327 -3.74507 0
M  V30 2223 H 213.26 -1.50265 -4.3614 0
M  V30 2224 H 211.503 -1.47851 -4.07827 0
M  V30 2225 H 212.174 -0.643249 -5.48239 0
M  V30 2226 H 214.65 0.700703 -4.10158 0
M  V30 2227 H 213.526 1.35909 -5.31808 0
M  V30 2228 H 213.787 2.23193 -3.81625 0
M  V30 2229 N 212.846 1.57033 -0.133567 0
M  V30 2230 C 214.095 1.94861 0.520768 0
M  V30 2231 C 214.408 1.02012 1.66892 0
M  V30 2232 O 215.614 1.29365 2.38699 0
M  V30 2233 C 214.07 3.46362 0.977809 0
M  V30 2234 C 213.678 4.47773 -0.142674 0
M  V30 2235 C 215.422 3.93083 1.60269 0
M  V30 2236 C 213.329 5.90468 0.331883 0
M  V30 2237 H 212.259 0.727453 0.198315 0
M  V30 2238 H 214.91 1.82227 -0.215759 0
M  V30 2239 H 213.292 3.54282 1.7692 0
M  V30 2240 H 214.466 4.51536 -0.919317 0
M  V30 2241 H 212.781 4.10891 -0.675124 0
M  V30 2242 H 215.378 4.97121 1.96914 0
M  V30 2243 H 215.721 3.33876 2.48662 0
M  V30 2244 H 216.254 3.88025 0.876453 0
M  V30 2245 H 212.993 6.53463 -0.516341 0
M  V30 2246 H 212.513 5.90094 1.07469 0
M  V30 2247 H 214.192 6.42179 0.788332 0
M  V30 2248 N 214.325 -0.140222 1.56975 0
M  V30 2249 C 215.273 -1.19207 1.99731 0
M  V30 2250 C 216.267 -1.44089 0.890777 0
M  V30 2251 O 217.473 -1.44301 1.07597 0
M  V30 2252 H 213.848 -0.40142 0.635898 0
M  V30 2253 H 215.819 -0.804813 2.87342 0
M  V30 2254 C 214.568 -2.51617 2.39967 0
M  V30 2255 H 213.891 -2.33303 3.24669 0
M  V30 2256 H 215.331 -3.23827 2.73701 0
M  V30 2257 C 213.79 -3.12654 1.25496 0
M  V30 2258 O 214.32 -3.97786 0.559371 0
M  V30 2259 N 212.526 -2.72206 1.01746 0
M  V30 2260 H 212.073 -2.03074 1.58489 0
M  V30 2261 H 212.031 -3.13377 0.253461 0
M  V30 2262 N 215.803 -1.52179 -0.40978 0
M  V30 2263 C 217.049 -1.66453 -1.15851 0
M  V30 2264 C 217.382 -0.392972 -1.90182 0
M  V30 2265 O 216.657 0.608579 -1.84734 0
M  V30 2266 C 216.94 -2.88612 -2.15349 0
M  V30 2267 C 216.793 -4.25815 -1.44918 0
M  V30 2268 C 218.112 -3.06294 -3.16026 0
M  V30 2269 H 215.231 -0.60575 -0.419805 0
M  V30 2270 H 217.873 -1.84732 -0.444314 0
M  V30 2271 H 216.023 -2.73158 -2.76255 0
M  V30 2272 H 217.695 -4.52995 -0.871365 0
M  V30 2273 H 215.938 -4.27247 -0.751159 0
M  V30 2274 H 216.609 -5.07337 -2.17516 0
M  V30 2275 H 219.085 -3.20641 -2.65195 0
M  V30 2276 H 217.961 -3.93283 -3.8291 0
M  V30 2277 H 218.222 -2.19579 -3.83715 0
M  V30 2278 N 217.281 0.66697 -1.42791 0
M  V30 2279 C 218.692 1.2478 -1.38877 0
M  V30 2280 C 219.043 1.96012 -0.0859426 0
M  V30 2281 O 218.168 2.00463 0.815081 0
M  V30 2282 C 218.763 2.26938 -2.51564 0
M  V30 2283 C 217.322 2.80529 -2.50959 0
M  V30 2284 C 216.469 1.54965 -2.29959 0
M  V30 2285 H 219.42 0.459853 -1.51892 0
M  V30 2286 H 219.441 3.08834 -2.22265 0
M  V30 2287 H 218.953 1.75065 -3.46372 0
M  V30 2288 H 217.054 3.36502 -1.59991 0
M  V30 2289 H 217.167 3.29012 -3.48265 0
M  V30 2290 H 215.531 1.81817 -1.78366 0
M  V30 2291 H 216.314 1.05047 -3.26833 0
M  V30 2292 N 218.759 1.29093 0.90403 0
M  V30 2293 C 219.984 1.19809 1.69294 0
M  V30 2294 C 220.409 -0.238481 1.86582 0
M  V30 2295 O 219.767 -1.1723 1.383 0
M  V30 2296 C 219.815 1.91202 3.05736 0
M  V30 2297 O 218.919 1.22611 3.93752 0
M  V30 2298 H 218.26 0.415385 0.518027 0
M  V30 2299 H 220.79 1.70586 1.12967 0
M  V30 2300 H 220.8 1.99487 3.55906 0
M  V30 2301 H 219.475 2.95692 2.92471 0
M  V30 2302 H 218.052 1.22554 3.52186 0
M  V30 2303 N 220.237 -1.11381 1.11499 0
M  V30 2304 C 221.167 -2.19509 0.796125 0
M  V30 2305 C 222.148 -1.68458 -0.235796 0
M  V30 2306 O 223.333 -1.93947 -0.0991344 0
M  V30 2307 C 220.463 -3.46475 0.239205 0
M  V30 2308 C 219.417 -4.10744 1.20307 0
M  V30 2309 C 218.743 -5.32293 0.50683 0
M  V30 2310 C 220.043 -4.55597 2.55399 0
M  V30 2311 H 221.737 -2.46439 1.70024 0
M  V30 2312 H 219.283 -1.18446 0.818935 0
M  V30 2313 H 221.236 -4.214 0.00392006 0
M  V30 2314 H 219.96 -3.19006 -0.700206 0
M  V30 2315 H 218.619 -3.37813 1.42399 0
M  V30 2316 H 218.267 -5.01095 -0.437408 0
M  V30 2317 H 217.967 -5.76243 1.1497 0
M  V30 2318 H 219.491 -6.09956 0.280351 0
M  V30 2319 H 220.905 -5.21841 2.37391 0
M  V30 2320 H 219.302 -5.10363 3.15673 0
M  V30 2321 H 220.372 -3.69013 3.14575 0
M  V30 2322 N 221.715 -0.905404 -1.28997 0
M  V30 2323 C 222.955 -0.541232 -1.97104 0
M  V30 2324 C 223.319 0.896841 -1.69767 0
M  V30 2325 O 224.52 1.36817 -2.31375 0
M  V30 2326 C 222.791 -0.832134 -3.47578 0
M  V30 2327 S 224.35 -0.573127 -4.35041 0
M  V30 2328 H 221.168 -0.200576 -0.682122 0
M  V30 2329 H 223.77 -1.16906 -1.56694 0
M  V30 2330 H 222.474 -1.87687 -3.64968 0
M  V30 2331 H 222.005 -0.192636 -3.92928 0
M  V30 2332 H 224.02 0.579297 -4.92807 0
M  V30 2333 N 223.193 1.4272 -0.668489 0
M  V30 2334 C 224.441 2.01226 -0.187769 0
M  V30 2335 C 224.762 1.53092 1.2078 0
M  V30 2336 O 224.032 0.74993 1.80977 0
M  V30 2337 H 222.612 0.744041 -0.0664272 0
M  V30 2338 H 225.274 1.74723 -0.863583 0
M  V30 2339 H 224.37 3.11556 -0.184166 0
M  V30 2340 N 224.671 0.411399 1.52136 0
M  V30 2341 C 225.604 -0.457614 2.23565 0
M  V30 2342 C 226.582 -1.04613 1.24478 0
M  V30 2343 O 227.766 -1.09356 1.53536 0
M  V30 2344 C 224.893 -1.6354 2.96602 0
M  V30 2345 C 223.939 -1.17005 4.10137 0
M  V30 2346 S 224.772 -0.13333 5.35334 0
M  V30 2347 C 225.928 -1.31638 6.119 0
M  V30 2348 H 226.161 0.148883 2.96927 0
M  V30 2349 H 223.694 0.195713 1.53155 0
M  V30 2350 H 225.652 -2.31074 3.39286 0
M  V30 2351 H 224.313 -2.21324 2.22878 0
M  V30 2352 H 223.506 -2.05005 4.60422 0
M  V30 2353 H 223.108 -0.573319 3.6958 0
M  V30 2354 H 225.4 -2.23957 6.39413 0
M  V30 2355 H 226.343 -0.854014 7.02931 0
M  V30 2356 H 226.751 -1.54321 5.42997 0
M  V30 2357 N 226.149 -1.5696 0.141893 0
M  V30 2358 C 227.426 -1.87553 -0.555281 0
M  V30 2359 C 227.806 -1.04699 -1.83306 0
M  V30 2360 O 227.154 -0.132346 -2.28116 0
M  V30 2361 C 227.364 -3.39093 -0.825664 0
M  V30 2362 C 228.712 -4.08199 -1.16869 0
M  V30 2363 O 229.736 -3.44242 -0.915185 0
M  V30 2364 O 228.595 -5.21139 -1.6455 0
M  V30 2365 H 225.689 -0.777188 -0.282679 0
M  V30 2366 H 228.235 -1.68763 0.17812 0
M  V30 2367 H 227.007 -3.91221 0.0788633 0
M  V30 2368 H 226.63 -3.63393 -1.61343 0
M  V30 2369 N 227.627 0.131896 -1.57047 0
M  V30 2370 C 228.577 1.1679 -1.95816 0
M  V30 2371 C 229.561 1.37756 -0.831393 0
M  V30 2372 O 230.753 1.39065 -1.09499 0
M  V30 2373 C 227.882 2.49778 -2.35512 0
M  V30 2374 C 226.968 2.32342 -3.54793 0
M  V30 2375 N 227.359 1.8469 -4.70875 0
M  V30 2376 C 225.657 2.63043 -3.60173 0
M  V30 2377 C 226.358 1.80656 -5.52936 0
M  V30 2378 N 225.334 2.24528 -4.95064 0
M  V30 2379 H 229.136 0.791818 -2.83033 0
M  V30 2380 H 226.65 0.339791 -1.58805 0
M  V30 2381 H 228.647 3.24692 -2.61498 0
M  V30 2382 H 227.307 2.88156 -1.49654 0
M  V30 2383 H 228.318 1.54429 -4.9434 0
M  V30 2384 H 224.995 3.05193 -2.84892 0
M  V30 2385 H 226.385 1.45178 -6.56028 0
M  V30 2386 N 229.106 1.52395 0.401703 0
M  V30 2387 C 230.334 1.70676 1.16949 0
M  V30 2388 C 230.749 0.419503 1.8408 0
M  V30 2389 O 230.106 -0.605061 1.72178 0
M  V30 2390 C 230.157 2.84753 2.22706 0
M  V30 2391 O 229.878 4.08495 1.58314 0
M  V30 2392 C 231.379 3.14608 3.12309 0
M  V30 2393 H 228.599 0.571787 0.351142 0
M  V30 2394 H 231.143 1.98987 0.471652 0
M  V30 2395 H 229.298 2.58941 2.88147 0
M  V30 2396 H 229.712 4.72117 2.28485 0
M  V30 2397 H 231.186 3.97923 3.82572 0
M  V30 2398 H 231.663 2.28464 3.75101 0
M  V30 2399 H 232.269 3.42212 2.52529 0
M  V30 2400 N 230.584 -0.659388 1.43143 0
M  V30 2401 C 231.494 -1.80167 1.50256 0
M  V30 2402 C 232.51 -1.69571 0.390106 0
M  V30 2403 O 233.686 -1.90849 0.643319 0
M  V30 2404 C 230.751 -3.16409 1.41725 0
M  V30 2405 C 229.812 -3.38848 2.63591 0
M  V30 2406 C 229.045 -4.68591 2.55458 0
M  V30 2407 O 229.268 -5.47532 1.59891 0
M  V30 2408 O 228.202 -4.92614 3.45854 0
M  V30 2409 H 232.028 -1.77121 2.46702 0
M  V30 2410 H 229.613 -0.817092 1.25076 0
M  V30 2411 H 231.495 -3.9768 1.39387 0
M  V30 2412 H 230.17 -3.20059 0.484118 0
M  V30 2413 H 229.077 -2.57366 2.71502 0
M  V30 2414 H 230.41 -3.4004 3.55856 0
M  V30 2415 N 232.062 -1.29571 -0.897171 0
M  V30 2416 C 233.009 -1.14916 -2.00158 0
M  V30 2417 C 233.979 -0.0418149 -1.66047 0
M  V30 2418 O 235.164 -0.209793 -1.89643 0
M  V30 2419 C 232.304 -0.834307 -3.34863 0
M  V30 2420 C 231.417 -2.02234 -3.8174 0
M  V30 2421 C 230.552 -1.64664 -5.05034 0
M  V30 2422 C 229.591 -2.80033 -5.44286 0
M  V30 2423 N 228.728 -2.42843 -6.58765 0
M  V30 2424 H 233.568 -2.09403 -2.12025 0
M  V30 2425 H 231.105 -1.042 -1.0383 0
M  V30 2426 H 233.063 -0.632436 -4.12379 0
M  V30 2427 H 231.693 0.0736656 -3.22716 0
M  V30 2428 H 230.745 -2.33583 -3.00238 0
M  V30 2429 H 232.057 -2.88673 -4.06779 0
M  V30 2430 H 231.211 -1.4078 -5.9014 0
M  V30 2431 H 229.95 -0.753766 -4.8184 0
M  V30 2432 H 228.955 -3.04596 -4.57713 0
M  V30 2433 H 230.18 -3.69989 -5.6946 0
M  V30 2434 H 228.126 -1.56046 -6.3717 0
M  V30 2435 H 228.043 -3.22815 -6.83613 0
M  V30 2436 H 229.311 -2.22285 -7.47134 0
M  V30 2437 N 233.54 1.10788 -1.12088 0
M  V30 2438 C 234.956 1.34691 -0.856186 0
M  V30 2439 C 235.156 1.94791 0.515615 0
M  V30 2440 O 234.212 2.18524 1.26505 0
M  V30 2441 C 235.525 2.27208 -1.9697 0
M  V30 2442 C 237.073 2.40755 -2.00016 0
M  V30 2443 C 237.548 3.36598 -3.1059 0
M  V30 2444 N 239.039 3.44164 -3.10008 0
M  V30 2445 C 239.774 4.18284 -3.92206 0
M  V30 2446 N 239.27 4.95322 -4.84384 0
M  V30 2447 N 241.063 4.13865 -3.80357 0
M  V30 2448 H 233.214 0.70144 -2.00483 0
M  V30 2449 H 235.477 0.371405 -0.872217 0
M  V30 2450 H 235.183 1.90251 -2.958 0
M  V30 2451 H 235.057 3.27485 -1.87172 0
M  V30 2452 H 237.444 2.76982 -1.01808 0
M  V30 2453 H 237.525 1.40305 -2.13888 0
M  V30 2454 H 237.169 3.01096 -4.09028 0
M  V30 2455 H 237.099 4.36918 -2.93956 0
M  V30 2456 H 239.59 2.8922 -2.43228 0
M  V30 2457 H 239.903 5.49267 -5.43623 0
M  V30 2458 H 238.248 4.94459 -4.884 0
M  V30 2459 H 241.439 3.52773 -3.07683 0
M  V30 2460 H 241.612 4.71372 -4.44649 0
M  V30 2461 N 235.018 0.912232 1.28515 0
M  V30 2462 C 236.266 0.543523 1.94654 0
M  V30 2463 C 236.587 -0.9155 1.72173 0
M  V30 2464 O 235.857 -1.64708 1.06058 0
M  V30 2465 H 234.437 0.198017 0.720277 0
M  V30 2466 H 237.099 1.16126 1.56527 0
M  V30 2467 H 236.195 0.736684 3.03281 0
M  V30 2468 N 236.496 -1.42363 0.676048 0
M  V30 2469 C 237.912 -1.55811 0.345718 0
M  V30 2470 C 238.112 -1.65544 -1.14879 0
M  V30 2471 O 237.168 -1.62306 -1.93424 0
M  V30 2472 C 238.481 -2.80746 1.07713 0
M  V30 2473 C 240.029 -2.9452 1.05958 0
M  V30 2474 C 240.504 -4.22318 1.77233 0
M  V30 2475 N 241.995 -4.29233 1.74108 0
M  V30 2476 C 242.73 -5.26935 2.26113 0
M  V30 2477 N 242.226 -6.30783 2.86505 0
M  V30 2478 N 244.019 -5.18741 2.1648 0
M  V30 2479 H 236.17 -1.34289 1.6456 0
M  V30 2480 H 238.433 -0.646506 0.69335 0
M  V30 2481 H 238.139 -2.79696 2.13221 0
M  V30 2482 H 238.013 -3.71676 0.64316 0
M  V30 2483 H 240.4 -2.95097 0.0128255 0
M  V30 2484 H 240.481 -2.04817 1.53244 0
M  V30 2485 H 240.125 -4.22502 2.81877 0
M  V30 2486 H 240.055 -5.10958 1.27396 0
M  V30 2487 H 242.546 -3.54814 1.30059 0
M  V30 2488 H 242.859 -7.01691 3.23805 0
M  V30 2489 H 241.204 -6.31341 2.90575 0
M  V30 2490 H 244.395 -4.36533 1.68987 0
M  V30 2491 H 244.568 -5.94721 2.57316 0
M  V30 2492 N 237.974 -0.419461 -1.51915 0
M  V30 2493 C 239.223 0.154346 -2.01109 0
M  V30 2494 C 239.536 1.45338 -1.30905 0
M  V30 2495 O 240.742 2.10906 -1.7097 0
M  V30 2496 C 239.198 0.325615 -3.58424 0
M  V30 2497 C 238.806 -0.961934 -4.37551 0
M  V30 2498 C 240.55 0.854155 -4.15818 0
M  V30 2499 C 238.457 -0.757287 -5.86531 0
M  V30 2500 H 237.387 0.0614563 -0.751491 0
M  V30 2501 H 240.038 -0.54649 -1.75173 0
M  V30 2502 H 238.42 1.08903 -3.80731 0
M  V30 2503 H 239.594 -1.7323 -4.26999 0
M  V30 2504 H 237.909 -1.41766 -3.91524 0
M  V30 2505 H 240.506 1.02346 -5.24814 0
M  V30 2506 H 240.849 1.83172 -3.73837 0
M  V30 2507 H 241.382 0.149528 -3.97519 0
M  V30 2508 H 238.121 -1.70671 -6.32892 0
M  V30 2509 H 237.641 -0.0264061 -5.99794 0
M  V30 2510 H 239.32 -0.403482 -6.45741 0
M  V30 2511 N 239.452 1.56882 -0.150215 0
M  V30 2512 C 240.682 2.00302 0.506213 0
M  V30 2513 C 241.09 1.02934 1.58749 0
M  V30 2514 O 240.433 0.0188384 1.8369 0
M  V30 2515 C 240.495 3.40156 1.16337 0
M  V30 2516 C 240.159 4.56439 0.226311 0
M  V30 2517 C 241.156 5.17012 -0.547265 0
M  V30 2518 C 238.841 5.02136 0.128279 0
M  V30 2519 C 240.835 6.21693 -1.40629 0
M  V30 2520 C 238.522 6.06672 -0.734345 0
M  V30 2521 C 239.52 6.6632 -1.50023 0
M  V30 2522 O 239.208 7.68831 -2.34848 0
M  V30 2523 H 238.94 0.662182 0.135984 0
M  V30 2524 H 241.494 2.03961 -0.242746 0
M  V30 2525 H 239.724 3.33346 1.96004 0
M  V30 2526 H 241.413 3.67663 1.71985 0
M  V30 2527 H 242.179 4.82603 -0.48158 0
M  V30 2528 H 238.058 4.55435 0.714157 0
M  V30 2529 H 241.602 6.68179 -2.00455 0
M  V30 2530 H 237.499 6.40507 -0.801309 0
M  V30 2531 H 238.267 7.86065 -2.28131 0
M  V30 2532 N 240.93 -0.123565 1.57115 0
M  V30 2533 C 241.86 -1.15309 2.03042 0
M  V30 2534 C 242.841 -1.43454 0.914061 0
M  V30 2535 O 244.026 -1.53973 1.18347 0
M  V30 2536 C 241.156 -2.48043 2.43089 0
M  V30 2537 C 240.11 -2.3437 3.58127 0
M  V30 2538 C 239.436 -3.72026 3.84059 0
M  V30 2539 C 240.736 -1.80804 4.90007 0
M  V30 2540 H 242.43 -0.771102 2.893 0
M  V30 2541 H 239.976 -0.369479 1.39179 0
M  V30 2542 H 241.929 -3.20311 2.73823 0
M  V30 2543 H 240.653 -2.88122 1.53796 0
M  V30 2544 H 239.312 -1.64551 3.27595 0
M  V30 2545 H 238.96 -4.09582 2.91979 0
M  V30 2546 H 238.66 -3.63732 4.6149 0
M  V30 2547 H 240.184 -4.45806 4.1724 0
M  V30 2548 H 241.598 -2.42886 5.19307 0
M  V30 2549 H 239.995 -1.83343 5.71407 0
M  V30 2550 H 241.065 -0.76528 4.78823 0
M  V30 2551 N 242.408 -1.52605 -0.393616 0
M  V30 2552 C 243.355 -1.77055 -1.48054 0
M  V30 2553 C 244.325 -0.61358 -1.54352 0
M  V30 2554 O 245.51 -0.852806 -1.70681 0
M  V30 2555 C 242.65 -1.94108 -2.85335 0
M  V30 2556 C 241.763 -3.21792 -2.88226 0
M  V30 2557 C 240.898 -3.29188 -4.16904 0
M  V30 2558 C 239.937 -4.51013 -4.13828 0
M  V30 2559 N 239.074 -4.55716 -5.34105 0
M  V30 2560 H 243.914 -2.69815 -1.26506 0
M  V30 2561 H 241.451 -1.33683 -0.61379 0
M  V30 2562 H 243.409 -2.01979 -3.65049 0
M  V30 2563 H 242.039 -1.04713 -3.05344 0
M  V30 2564 H 241.091 -3.23015 -2.00911 0
M  V30 2565 H 242.403 -4.11557 -2.8182 0
M  V30 2566 H 241.557 -3.36216 -5.05018 0
M  V30 2567 H 240.296 -2.37389 -4.26026 0
M  V30 2568 H 239.301 -4.44115 -3.24102 0
M  V30 2569 H 240.526 -5.44123 -4.06333 0
M  V30 2570 H 238.472 -3.66807 -5.43865 0
M  V30 2571 H 238.389 -5.39346 -5.29756 0
M  V30 2572 H 239.657 -4.66993 -6.2413 0
M  V30 2573 N 243.887 0.651787 -1.4349 0
M  V30 2574 C 244.85 1.74647 -1.48429 0
M  V30 2575 C 245.85 1.56513 -0.368817 0
M  V30 2576 O 247.04 1.62385 -0.630623 0
M  V30 2577 C 244.172 3.13533 -1.33827 0
M  V30 2578 H 245.365 1.71649 -2.4592 0
M  V30 2579 H 242.918 0.863573 -1.30277 0
M  V30 2580 H 243.653 3.22142 -0.37349 0
M  V30 2581 H 243.438 3.28101 -2.14691 0
M  V30 2582 H 244.928 3.93356 -1.40218 0
M  V30 2583 N 245.365 1.30045 0.890287 0
M  V30 2584 C 246.275 1.17885 2.02831 0
M  V30 2585 C 247.291 0.0999609 1.73713 0
M  V30 2586 O 248.467 0.313867 1.98939 0
M  V30 2587 C 245.532 0.866079 3.35708 0
M  V30 2588 C 244.593 2.02979 3.78283 0
M  V30 2589 C 243.826 1.73184 5.0482 0
M  V30 2590 O 244.049 0.657237 5.66601 0
M  V30 2591 O 242.983 2.58267 5.43674 0
M  V30 2592 H 246.809 2.13474 2.16015 0
M  V30 2593 H 244.394 1.09587 1.01543 0
M  V30 2594 H 246.276 0.706623 4.15433 0
M  V30 2595 H 244.951 -0.0599443 3.23644 0
M  V30 2596 H 243.858 2.24454 2.99285 0
M  V30 2597 H 245.191 2.93734 3.94944 0
M  V30 2598 N 246.843 -1.10192 1.12674 0
M  V30 2599 C 248.089 -1.82475 0.884915 0
M  V30 2600 C 248.422 -1.85093 -0.58773 0
M  V30 2601 O 247.697 -1.3134 -1.43457 0
M  V30 2602 C 247.98 -3.29018 1.46353 0
M  V30 2603 C 247.833 -3.34718 3.00473 0
M  V30 2604 C 249.152 -4.25473 1.12519 0
M  V30 2605 H 246.271 -0.662492 0.322915 0
M  V30 2606 H 248.913 -1.2913 1.39375 0
M  V30 2607 H 247.063 -3.74576 1.03077 0
M  V30 2608 H 248.735 -2.97622 3.52447 0
M  V30 2609 H 246.978 -2.74541 3.35872 0
M  V30 2610 H 247.649 -4.37918 3.36053 0
M  V30 2611 H 250.125 -3.88161 1.499 0
M  V30 2612 H 249.001 -5.26365 1.55663 0
M  V30 2613 H 249.262 -4.42084 0.0377407 0
M  V30 2614 N 248.321 -0.919034 -1.28029 0
M  V30 2615 C 249.284 -0.416182 -2.2539 0
M  V30 2616 C 250.284 0.460438 -1.54067 0
M  V30 2617 O 251.474 0.262744 -1.72207 0
M  V30 2618 C 248.606 0.402707 -3.38513 0
M  V30 2619 H 249.799 -1.27629 -2.71387 0
M  V30 2620 H 247.352 -0.698919 -1.39803 0
M  V30 2621 H 248.087 1.282 -2.97885 0
M  V30 2622 H 247.872 -0.225698 -3.9145 0
M  V30 2623 H 249.362 0.745191 -4.10897 0
M  V30 2624 N 249.799 1.42003 -0.683588 0
M  V30 2625 C 251.076 1.95112 -0.138075 0
M  V30 2626 C 251.456 1.62359 1.34918 0
M  V30 2627 O 250.804 0.924311 2.08971 0
M  V30 2628 C 251.014 3.46505 -0.416581 0
M  V30 2629 C 252.362 4.23254 -0.337834 0
M  V30 2630 O 253.386 3.54468 -0.35082 0
M  V30 2631 O 252.245 5.45743 -0.287596 0
M  V30 2632 H 249.339 0.826961 -0.00797996 0
M  V30 2633 H 251.885 1.51784 -0.758924 0
M  V30 2634 H 250.657 3.63582 -1.4465 0
M  V30 2635 H 250.28 3.969 0.235839 0
M  V30 2636 N 251.277 0.427512 1.51691 0
M  V30 2637 C 252.187 -0.39527 2.31246 0
M  V30 2638 C 253.203 -1.03674 1.39742 0
M  V30 2639 O 254.379 -1.03425 1.72816 0
M  V30 2640 C 251.444 -1.48706 3.13189 0
M  V30 2641 C 250.505 -0.866743 4.20459 0
M  V30 2642 C 249.738 -1.90651 4.98486 0
M  V30 2643 O 249.961 -3.12733 4.77026 0
M  V30 2644 O 248.895 -1.5025 5.82845 0
M  V30 2645 H 252.721 0.253918 3.02637 0
M  V30 2646 H 250.306 0.190274 1.48183 0
M  V30 2647 H 252.188 -2.12047 3.64162 0
M  V30 2648 H 250.863 -2.12051 2.44573 0
M  V30 2649 H 249.77 -0.195544 3.73589 0
M  V30 2650 H 251.103 -0.276934 4.9142 0
M  V30 2651 N 252.755 -1.56801 0.158532 0
M  V30 2652 C 253.702 -2.17337 -0.776729 0
M  V30 2653 C 254.672 -1.1096 -1.23601 0
M  V30 2654 O 255.857 -1.39054 -1.30647 0
M  V30 2655 C 252.997 -2.80822 -2.00582 0
M  V30 2656 C 252.11 -4.01624 -1.59129 0
M  V30 2657 C 251.245 -4.53072 -2.77306 0
M  V30 2658 C 250.284 -5.66314 -2.32282 0
M  V30 2659 N 249.421 -6.12329 -3.43508 0
M  V30 2660 H 254.261 -2.96918 -0.253701 0
M  V30 2661 H 251.798 -1.46661 -0.113504 0
M  V30 2662 H 253.756 -3.15779 -2.72652 0
M  V30 2663 H 252.386 -2.03866 -2.50277 0
M  V30 2664 H 251.438 -3.72571 -0.767806 0
M  V30 2665 H 252.75 -4.83633 -1.2207 0
M  V30 2666 H 251.904 -4.90145 -3.57551 0
M  V30 2667 H 250.643 -3.70095 -3.17617 0
M  V30 2668 H 249.648 -5.28806 -1.5048 0
M  V30 2669 H 250.873 -6.51085 -1.93043 0
M  V30 2670 H 248.819 -5.32284 -3.83418 0
M  V30 2671 H 248.736 -6.89293 -3.105 0
M  V30 2672 H 250.004 -6.5405 -4.24075 0
M  V30 2673 N 254.233 0.115231 -1.57178 0
M  V30 2674 C 255.163 1.1423 -2.03651 0
M  V30 2675 C 256.144 1.42967 -0.921655 0
M  V30 2676 O 257.329 1.53343 -1.19162 0
M  V30 2677 C 254.459 2.4675 -2.44401 0
M  V30 2678 C 253.413 2.32467 -3.59365 0
M  V30 2679 C 252.739 3.69984 -3.86026 0
M  V30 2680 C 254.039 1.78203 -4.90959 0
M  V30 2681 H 255.733 0.755749 -2.89705 0
M  V30 2682 H 253.279 0.362093 -1.39373 0
M  V30 2683 H 255.232 3.18854 -2.75517 0
M  V30 2684 H 253.956 2.87302 -1.55322 0
M  V30 2685 H 252.615 1.62811 -3.28463 0
M  V30 2686 H 252.263 4.08028 -2.94147 0
M  V30 2687 H 251.963 3.61279 -4.63412 0
M  V30 2688 H 253.487 4.43587 -4.19599 0
M  V30 2689 H 254.901 2.40128 -5.20587 0
M  V30 2690 H 253.298 1.8031 -5.72371 0
M  V30 2691 H 254.368 0.739876 -4.79222 0
M  V30 2692 N 255.711 1.52812 0.385517 0
M  V30 2693 C 256.661 1.74219 1.47078 0
M  V30 2694 C 257.645 0.59632 1.49442 0
M  V30 2695 O 258.837 0.85428 1.5502 0
M  V30 2696 C 255.966 1.9176 2.84751 0
M  V30 2697 C 255.052 3.12289 2.86943 0
M  V30 2698 N 255.443 4.34575 2.58802 0
M  V30 2699 C 253.741 3.12605 3.1811 0
M  V30 2700 C 254.442 5.162 2.68166 0
M  V30 2701 N 253.418 4.51964 3.02043 0
M  V30 2702 H 257.22 2.6639 1.24152 0
M  V30 2703 H 254.734 1.51166 0.593504 0
M  V30 2704 H 256.731 2.05218 3.62893 0
M  V30 2705 H 255.391 1.00805 3.08656 0
M  V30 2706 H 256.402 4.62649 2.32759 0
M  V30 2707 H 253.079 2.31472 3.47458 0
M  V30 2708 H 254.469 6.23689 2.49923 0
M  V30 2709 N 257.189 -0.644168 1.43834 0
M  V30 2710 C 258.435 -1.40603 1.46146 0
M  V30 2711 C 258.768 -1.93997 0.0887717 0
M  V30 2712 O 258.043 -1.72854 -0.891724 0
M  V30 2713 C 258.326 -2.58086 2.51124 0
M  V30 2714 C 258.179 -2.10126 3.97702 0
M  V30 2715 C 259.498 -3.60291 2.52742 0
M  V30 2716 H 256.617 -0.509905 0.532134 0
M  V30 2717 H 259.259 -0.729502 1.75437 0
M  V30 2718 H 257.409 -3.15801 2.26278 0
M  V30 2719 H 259.081 -1.57342 4.33637 0
M  V30 2720 H 257.324 -1.41419 4.10101 0
M  V30 2721 H 257.995 -2.94649 4.66783 0
M  V30 2722 H 260.471 -3.12352 2.7491 0
M  V30 2723 H 259.347 -4.40032 3.28121 0
M  V30 2724 H 259.608 -4.1349 1.56455 0
M  V30 2725 N 258.668 -1.30515 -0.883378 0
M  V30 2726 C 259.896 -1.22359 -1.66841 0
M  V30 2727 C 260.311 0.213296 -1.87591 0
M  V30 2728 O 259.668 1.14075 -1.42454 0
M  V30 2729 C 259.719 -1.95011 -3.04389 0
M  V30 2730 O 259.44 -3.3309 -2.84575 0
M  V30 2731 C 260.941 -1.93532 -3.98824 0
M  V30 2732 H 258.161 -0.423371 -0.520575 0
M  V30 2733 H 260.705 -1.72167 -1.10357 0
M  V30 2734 H 258.86 -1.48997 -3.57601 0
M  V30 2735 H 259.274 -3.69907 -3.71846 0
M  V30 2736 H 260.748 -2.48902 -4.92699 0
M  V30 2737 H 261.225 -0.914627 -4.29571 0
M  V30 2738 H 261.831 -2.39364 -3.51547 0
M  V30 2739 N 260.146 1.09593 -1.13257 0
M  V30 2740 C 261.392 1.82003 -0.89458 0
M  V30 2741 C 261.725 1.85402 0.577906 0
M  V30 2742 O 261 1.32099 1.42759 0
M  V30 2743 C 261.283 3.28237 -1.48096 0
M  V30 2744 C 261.136 3.3312 -3.02244 0
M  V30 2745 C 262.455 4.24871 -1.14774 0
M  V30 2746 H 259.574 0.66077 -0.326424 0
M  V30 2747 H 262.216 1.28389 -1.40058 0
M  V30 2748 H 260.366 3.74024 -1.05062 0
M  V30 2749 H 262.038 2.95748 -3.54021 0
M  V30 2750 H 260.281 2.72756 -3.37323 0
M  V30 2751 H 260.952 4.3613 -3.38371 0
M  V30 2752 H 263.428 3.87361 -1.51957 0
M  V30 2753 H 262.304 5.25532 -1.58452 0
M  V30 2754 H 262.565 4.42058 -0.0611849 0
M  V30 2755 N 261.624 0.925811 1.2754 0
M  V30 2756 C 263.04 0.625767 1.46821 0
M  V30 2757 C 263.24 -0.825506 1.83814 0
M  V30 2758 O 262.296 -1.60356 1.95044 0
M  V30 2759 C 263.609 1.57402 2.56213 0
M  V30 2760 C 265.157 1.58204 2.70075 0
M  V30 2761 C 265.632 2.51721 3.82623 0
M  V30 2762 N 267.123 2.49917 3.89994 0
M  V30 2763 C 267.858 3.18968 4.76494 0
M  V30 2764 N 267.354 3.97391 5.67496 0
M  V30 2765 N 269.147 3.07996 4.70208 0
M  V30 2766 H 261.298 1.86409 1.01811 0
M  V30 2767 H 263.561 0.800213 0.508295 0
M  V30 2768 H 263.267 2.60925 2.35819 0
M  V30 2769 H 263.141 1.31428 3.53563 0
M  V30 2770 H 265.528 0.554124 2.89851 0
M  V30 2771 H 265.609 1.88226 1.73218 0
M  V30 2772 H 265.253 3.54622 3.63601 0
M  V30 2773 H 265.183 2.18996 4.78903 0
M  V30 2774 H 267.674 1.9296 3.24923 0
M  V30 2775 H 267.987 4.4707 6.30356 0
M  V30 2776 H 266.332 4.01495 5.67298 0
M  V30 2777 H 269.523 2.46223 3.9811 0
M  V30 2778 H 269.696 3.6208 5.37403 0
M  V30 2779 N 263.102 -1.41638 0.69111 0
M  V30 2780 C 264.379 -1.95036 0.148421 0
M  V30 2781 C 264.759 -1.63072 -1.34055 0
M  V30 2782 O 264.107 -0.93538 -2.08478 0
M  V30 2783 C 264.317 -3.46279 0.434951 0
M  V30 2784 C 265.665 -4.23069 0.360275 0
M  V30 2785 O 266.689 -3.54277 0.369613 0
M  V30 2786 O 265.548 -5.45583 0.316534 0
M  V30 2787 H 262.642 -0.826908 0.0123654 0
M  V30 2788 H 265.188 -1.5138 0.766963 0
M  V30 2789 H 263.96 -3.6281 1.46576 0
M  V30 2790 H 263.583 -3.97019 -0.214787 0
M  V30 2791 N 264.58 -0.43555 -1.51462 0
M  V30 2792 C 265.543 0.365137 -2.26273 0
M  V30 2793 C 266.543 0.951227 -1.29647 0
M  V30 2794 O 267.733 0.825958 -1.53374 0
M  V30 2795 C 264.865 1.51645 -3.05314 0
M  V30 2796 H 266.058 -0.290474 -2.9849 0
M  V30 2797 H 263.611 -0.188676 -1.55157 0
M  V30 2798 H 264.346 2.20816 -2.3751 0
M  V30 2799 H 264.131 1.10238 -3.76284 0
M  V30 2800 H 265.621 2.08218 -3.61987 0
M  V30 2801 N 266.058 1.56714 -0.166846 0
M  V30 2802 C 267.005 2.17746 0.765193 0
M  V30 2803 C 267.975 1.11614 1.23011 0
M  V30 2804 O 269.16 1.39745 1.29908 0
M  V30 2805 C 266.3 2.81882 1.9909 0
M  V30 2806 C 265.413 4.02462 1.56997 0
M  V30 2807 C 264.548 4.54537 2.749 0
M  V30 2808 C 263.587 5.67538 2.29275 0
M  V30 2809 N 262.724 6.14142 3.40255 0
M  V30 2810 H 267.564 2.97048 0.237952 0
M  V30 2811 H 265.101 1.4672 0.105725 0
M  V30 2812 H 267.059 3.17221 2.70974 0
M  V30 2813 H 265.689 2.05191 2.49192 0
M  V30 2814 H 264.741 3.72973 0.748037 0
M  V30 2815 H 266.053 4.84273 1.19503 0
M  V30 2816 H 265.207 4.92035 3.54946 0
M  V30 2817 H 263.946 3.71774 3.1565 0
M  V30 2818 H 262.951 5.29597 1.47674 0
M  V30 2819 H 264.176 6.52099 1.89588 0
M  V30 2820 H 262.122 5.3431 3.8059 0
M  V30 2821 H 262.039 6.9093 3.06841 0
M  V30 2822 H 263.307 6.56289 4.206 0
M  V30 2823 N 267.536 -0.106894 1.57237 0
M  V30 2824 C 268.484 -1.14944 2.02215 0
M  V30 2825 C 269.478 -1.42167 0.92114 0
M  V30 2826 O 270.684 -1.41987 1.10634 0
M  V30 2827 H 267.059 -0.387841 0.64427 0
M  V30 2828 H 269.03 -0.743683 2.88984 0
M  V30 2829 C 267.779 -2.4647 2.4525 0
M  V30 2830 H 267.102 -2.26363 3.29545 0
M  V30 2831 H 268.542 -3.17948 2.80508 0
M  V30 2832 C 267.001 -3.09921 1.321 0
M  V30 2833 O 267.531 -3.9651 0.643622 0
M  V30 2834 N 265.737 -2.69986 1.07497 0
M  V30 2835 H 265.284 -1.99667 1.62761 0
M  V30 2836 H 265.242 -3.12769 0.319876 0
M  V30 2837 N 269.014 -1.53014 -0.377408 0
M  V30 2838 C 269.944 -1.81589 -1.46791 0
M  V30 2839 C 270.925 -0.668622 -1.56408 0
M  V30 2840 O 272.11 -0.917337 -1.71168 0
M  V30 2841 C 269.24 -1.99519 -2.8427 0
M  V30 2842 C 268.194 -3.15249 -2.89486 0
M  V30 2843 C 267.52 -3.18451 -4.29527 0
M  V30 2844 C 268.82 -4.54084 -2.58079 0
M  V30 2845 H 270.514 -2.7291 -1.23127 0
M  V30 2846 H 268.06 -1.31319 -0.590883 0
M  V30 2847 H 270.013 -2.18092 -3.60575 0
M  V30 2848 H 268.737 -1.04897 -3.09296 0
M  V30 2849 H 267.396 -2.96477 -2.15631 0
M  V30 2850 H 267.044 -2.2149 -4.5161 0
M  V30 2851 H 266.744 -3.962 -4.33934 0
M  V30 2852 H 268.268 -3.39193 -5.07721 0
M  V30 2853 H 269.682 -4.72899 -3.24098 0
M  V30 2854 H 268.079 -5.33987 -2.7382 0
M  V30 2855 H 269.149 -4.60006 -1.53372 0
M  V30 2856 N 270.492 0.636531 -1.44174 0
M  V30 2857 C 271.741 1.39213 -1.45954 0
M  V30 2858 C 272.054 1.95374 -0.0939119 0
M  V30 2859 O 273.26 2.71498 0.0107767 0
M  V30 2860 C 271.716 2.52025 -2.56927 0
M  V30 2861 C 271.324 2.024 -3.99673 0
M  V30 2862 C 273.068 3.29269 -2.67922 0
M  V30 2863 C 270.975 3.12521 -5.0208 0
M  V30 2864 H 269.905 0.523132 -0.542999 0
M  V30 2865 H 272.556 0.685349 -1.70221 0
M  V30 2866 H 270.938 3.25253 -2.25891 0
M  V30 2867 H 272.112 1.36073 -4.40251 0
M  V30 2868 H 270.427 1.37987 -3.92872 0
M  V30 2869 H 273.024 4.11352 -3.41605 0
M  V30 2870 H 273.367 3.78397 -1.73555 0
M  V30 2871 H 273.9 2.63129 -2.98342 0
M  V30 2872 H 270.639 2.68343 -5.98057 0
M  V30 2873 H 270.159 3.77507 -4.66099 0
M  V30 2874 H 271.838 3.77385 -5.25538 0
M  V30 2875 N 271.97 1.30982 0.876444 0
M  V30 2876 C 273.381 1.18277 1.44456 0
M  V30 2877 C 273.732 -0.213265 1.95037 0
M  V30 2878 O 272.857 -1.11057 1.85729 0
M  V30 2879 C 273.452 2.1411 2.62569 0
M  V30 2880 C 272.011 2.05358 3.15444 0
M  V30 2881 C 271.158 2.03706 1.88146 0
M  V30 2882 H 274.109 1.43127 0.685584 0
M  V30 2883 H 274.13 1.72692 3.39054 0
M  V30 2884 H 273.642 3.15706 2.25724 0
M  V30 2885 H 271.743 1.06934 3.56926 0
M  V30 2886 H 271.856 2.94156 3.78166 0
M  V30 2887 H 270.22 1.48629 2.06837 0
M  V30 2888 H 271.003 3.07047 1.53547 0
M  V30 2889 N 273.449 -1.08991 1.13837 0
M  V30 2890 C 274.382 -2.15049 0.763477 0
M  V30 2891 C 275.36 -1.60629 -0.252398 0
M  V30 2892 O 276.544 -1.87958 -0.142853 0
M  V30 2893 C 273.671 -3.38441 0.132545 0
M  V30 2894 C 272.717 -4.11596 1.11763 0
M  V30 2895 S 273.55 -4.6521 2.65216 0
M  V30 2896 C 274.706 -5.91896 2.03495 0
M  V30 2897 H 274.939 -2.46518 1.66182 0
M  V30 2898 H 272.472 -1.21008 0.958976 0
M  V30 2899 H 274.43 -4.09883 -0.225074 0
M  V30 2900 H 273.091 -3.05182 -0.743135 0
M  V30 2901 H 272.284 -5.00121 0.624076 0
M  V30 2902 H 271.886 -3.46038 1.41894 0
M  V30 2903 H 274.178 -6.63156 1.38675 0
M  V30 2904 H 275.121 -6.45938 2.9012 0
M  V30 2905 H 275.529 -5.44625 1.48471 0
M  V30 2906 N 274.927 -0.932562 -1.27047 0
M  V30 2907 C 276.204 -0.49377 -1.89265 0
M  V30 2908 C 276.584 1.02833 -1.8436 0
M  V30 2909 O 275.932 1.88461 -1.29209 0
M  V30 2910 C 276.142 -1.04536 -3.32976 0
M  V30 2911 C 277.49 -1.10879 -4.09867 0
M  V30 2912 O 278.514 -0.995327 -3.42011 0
M  V30 2913 O 277.373 -1.28417 -5.31198 0
M  V30 2914 H 274.467 -0.159596 -0.811454 0
M  V30 2915 H 277.013 -1.02457 -1.3528 0
M  V30 2916 H 275.785 -2.08913 -3.30864 0
M  V30 2917 H 275.408 -0.496494 -3.94488 0
M  V30 2918 N 276.405 1.4127 -0.698611 0
M  V30 2919 C 277.816 1.84187 -0.305289 0
M  V30 2920 C 278.167 1.58449 1.15708 0
M  V30 2921 O 277.292 1.05651 1.88856 0
M  V30 2922 C 277.887 3.3435 -0.547314 0
M  V30 2923 C 276.446 3.75826 -0.207878 0
M  V30 2924 C 275.593 2.64647 -0.828099 0
M  V30 2925 H 278.544 1.30778 -0.89904 0
M  V30 2926 H 278.565 3.8001 0.192998 0
M  V30 2927 H 278.077 3.53051 -1.61172 0
M  V30 2928 H 276.178 3.62725 0.852143 0
M  V30 2929 H 276.291 4.74462 -0.665021 0
M  V30 2930 H 274.655 2.53395 -0.257458 0
M  V30 2931 H 275.438 2.86165 -1.89643 0
M  V30 2932 N 277.883 0.443576 1.51229 0
M  V30 2933 C 278.831 -0.37904 2.29491 0
M  V30 2934 C 279.825 -1.0153 1.35603 0
M  V30 2935 O 281.031 -0.94955 1.52917 0
M  V30 2936 H 277.406 -0.141053 0.738653 0
M  V30 2937 H 279.377 0.301799 2.9687 0
M  V30 2938 C 278.126 -1.46426 3.15364 0
M  V30 2939 H 277.449 -0.984037 3.87501 0
M  V30 2940 H 278.889 -2.01297 3.7317 0
M  V30 2941 C 277.348 -2.45099 2.31146 0
M  V30 2942 O 277.878 -3.49773 1.9754 0
M  V30 2943 N 276.084 -2.16139 1.94249 0
M  V30 2944 H 275.631 -1.31044 2.21777 0
M  V30 2945 H 275.589 -2.82398 1.38198 0
M  V30 2946 N 279.361 -1.56624 0.175154 0
M  V30 2947 C 280.609 -1.96609 -0.467885 0
M  V30 2948 C 280.93 -1.06238 -1.63519 0
M  V30 2949 O 280.2 -0.129523 -1.95471 0
M  V30 2950 H 278.78 -0.726008 -0.175845 0
M  V30 2951 H 281.442 -1.93195 0.257234 0
M  V30 2952 H 280.538 -3.00989 -0.825342 0
M  V30 2953 N 280.839 0.0985539 -1.57292 0
M  V30 2954 C 281.769 1.12064 -2.04851 0
M  V30 2955 C 282.75 1.41981 -0.936767 0
M  V30 2956 O 283.935 1.52071 -1.20781 0
M  V30 2957 C 281.065 2.44144 -2.47004 0
M  V30 2958 C 280.019 2.28643 -3.6181 0
M  V30 2959 C 279.345 3.65869 -3.89929 0
M  V30 2960 C 280.645 1.72986 -4.92822 0
M  V30 2961 H 282.339 0.724979 -2.9049 0
M  V30 2962 H 279.885 0.34729 -1.39749 0
M  V30 2963 H 281.838 3.15914 -2.78884 0
M  V30 2964 H 280.562 2.85639 -1.5836 0
M  V30 2965 H 279.221 1.59318 -3.30172 0
M  V30 2966 H 278.869 4.04885 -2.98458 0
M  V30 2967 H 278.569 3.56344 -4.67218 0
M  V30 2968 H 280.093 4.39112 -4.2428 0
M  V30 2969 H 281.507 2.34593 -5.23105 0
M  V30 2970 H 279.904 1.74229 -5.74251 0
M  V30 2971 H 280.974 0.689007 -4.7998 0
M  V30 2972 N 282.317 1.53212 0.369288 0
M  V30 2973 C 283.542 1.73423 1.1375 0
M  V30 2974 C 283.967 0.460404 1.82378 0
M  V30 2975 O 283.325 -0.585298 1.71592 0
M  V30 2976 C 283.373 2.89769 2.1463 0
M  V30 2977 O 282.477 2.58119 3.21634 0
M  V30 2978 H 281.818 0.576061 0.330227 0
M  V30 2979 H 284.348 2.00083 0.427547 0
M  V30 2980 H 284.358 3.15829 2.58294 0
M  V30 2981 H 283.033 3.8217 1.64071 0
M  V30 2982 H 281.61 2.42864 2.82969 0
M  V30 2983 N 283.795 -0.628877 1.44509 0
M  V30 2984 C 285.072 -1.38733 1.37886 0
M  V30 2985 C 285.452 -2.11065 0.0387008 0
M  V30 2986 O 284.8 -2.06476 -0.97878 0
M  V30 2987 C 285.01 -2.35188 2.57852 0
M  V30 2988 C 286.358 -2.9845 3.02014 0
M  V30 2989 O 287.382 -2.45513 2.58073 0
M  V30 2990 O 286.241 -3.94487 3.78209 0
M  V30 2991 H 283.335 -0.621015 0.54614 0
M  V30 2992 H 285.881 -0.653744 1.56602 0
M  V30 2993 H 284.653 -1.80855 3.46998 0
M  V30 2994 H 284.276 -3.1596 2.4136 0
M  V30 2995 N 285.273 -1.31445 -0.869486 0
M  V30 2996 C 286.684 -1.19042 -1.43826 0
M  V30 2997 C 287.035 0.202919 -1.95148 0
M  V30 2998 O 286.16 1.10071 -1.86315 0
M  V30 2999 C 286.755 -2.15499 -2.6143 0
M  V30 3000 C 285.314 -2.07028 -3.14351 0
M  V30 3001 C 284.461 -2.04701 -1.87063 0
M  V30 3002 H 287.412 -1.43489 -0.677984 0
M  V30 3003 H 287.433 -1.74488 -3.38134 0
M  V30 3004 H 286.945 -3.16899 -2.24046 0
M  V30 3005 H 285.046 -1.08825 -3.56354 0
M  V30 3006 H 285.159 -2.96157 -3.766 0
M  V30 3007 H 283.523 -1.49724 -2.06046 0
M  V30 3008 H 284.306 -3.07857 -1.51917 0
M  V30 3009 N 286.751 1.08385 -1.14413 0
M  V30 3010 C 287.981 1.8425 -0.934644 0
M  V30 3011 C 288.389 1.81907 0.520234 0
M  V30 3012 O 287.732 1.22126 1.37226 0
M  V30 3013 C 287.794 3.32853 -1.35828 0
M  V30 3014 C 287.458 3.5893 -2.82875 0
M  V30 3015 C 288.455 3.53756 -3.80989 0
M  V30 3016 C 286.14 3.86934 -3.20293 0
M  V30 3017 C 288.134 3.76216 -5.14529 0
M  V30 3018 C 285.821 4.09047 -4.54008 0
M  V30 3019 C 286.819 4.03682 -5.50936 0
M  V30 3020 O 286.507 4.25214 -6.82238 0
M  V30 3021 H 286.239 0.588502 -0.332628 0
M  V30 3022 H 288.793 1.37792 -1.52324 0
M  V30 3023 H 287.023 3.8007 -0.713019 0
M  V30 3024 H 288.712 3.90154 -1.11957 0
M  V30 3025 H 289.478 3.32135 -3.53428 0
M  V30 3026 H 285.357 3.9023 -2.45442 0
M  V30 3027 H 288.901 3.71943 -5.90173 0
M  V30 3028 H 284.798 4.30151 -4.8129 0
M  V30 3029 H 285.566 4.42619 -6.88499 0
M  V30 3030 N 288.23 0.939286 1.26551 0
M  V30 3031 C 289.476 0.586715 1.94128 0
M  V30 3032 C 289.809 -0.8717 1.73537 0
M  V30 3033 O 289.084 -1.62339 1.07127 0
M  V30 3034 C 289.367 0.927497 3.4795 0
M  V30 3035 C 289.22 2.44052 3.77834 0
M  V30 3036 C 290.539 0.441569 4.37879 0
M  V30 3037 H 287.658 0.21463 0.705055 0
M  V30 3038 H 290.3 1.17316 1.49455 0
M  V30 3039 H 288.45 0.428431 3.8613 0
M  V30 3040 H 290.122 3.01216 3.4938 0
M  V30 3041 H 288.365 2.8848 3.23978 0
M  V30 3042 H 289.036 2.62947 4.85348 0
M  V30 3043 H 291.512 0.869448 4.06915 0
M  V30 3044 H 290.388 0.708856 5.44304 0
M  V30 3045 H 290.649 -0.658467 4.37169 0
M  V30 3046 N 289.708 -1.40897 0.706093 0
M  V30 3047 C 290.655 -2.30751 0.0474474 0
M  V30 3048 C 291.625 -1.47678 -0.76029 0
M  V30 3049 O 292.81 -1.76441 -0.726177 0
M  V30 3050 C 289.95 -3.33815 -0.875309 0
M  V30 3051 C 289.063 -4.31961 -0.0580623 0
M  V30 3052 C 288.198 -5.22093 -0.979425 0
M  V30 3053 C 287.237 -6.11902 -0.155706 0
M  V30 3054 N 286.374 -6.94482 -1.03144 0
M  V30 3055 H 291.214 -2.86513 0.819413 0
M  V30 3056 H 288.751 -1.41102 0.415783 0
M  V30 3057 H 290.709 -3.92129 -1.42446 0
M  V30 3058 H 289.339 -2.79579 -1.61356 0
M  V30 3059 H 288.391 -3.75507 0.608147 0
M  V30 3060 H 289.703 -4.95415 0.580082 0
M  V30 3061 H 288.857 -5.85292 -1.59744 0
M  V30 3062 H 287.596 -4.5889 -1.65141 0
M  V30 3063 H 286.601 -5.47742 0.475309 0
M  V30 3064 H 287.826 -6.77162 0.512635 0
M  V30 3065 H 285.772 -6.33877 -1.68924 0
M  V30 3066 H 285.689 -7.54665 -0.449108 0
M  V30 3067 H 286.957 -7.6214 -1.63593 0
M  V30 3068 N 291.186 -0.45159 -1.50991 0
M  V30 3069 C 292.116 0.342898 -2.30969 0
M  V30 3070 C 293.097 1.00815 -1.37005 0
M  V30 3071 O 294.282 1.00907 -1.65926 0
M  V30 3072 C 291.412 1.43637 -3.16205 0
M  V30 3073 C 290.366 0.893818 -4.18563 0
M  V30 3074 C 289.692 2.08411 -4.92411 0
M  V30 3075 C 290.992 -0.0815568 -5.22236 0
M  V30 3076 H 292.686 -0.324556 -2.97636 0
M  V30 3077 H 290.232 -0.157531 -1.43136 0
M  V30 3078 H 292.185 1.9995 -3.70942 0
M  V30 3079 H 290.909 2.13232 -2.47386 0
M  V30 3080 H 289.568 0.352798 -3.64898 0
M  V30 3081 H 289.216 2.76658 -4.20082 0
M  V30 3082 H 288.916 1.72741 -5.61636 0
M  V30 3083 H 290.44 2.65251 -5.49976 0
M  V30 3084 H 291.854 0.391742 -5.7196 0
M  V30 3085 H 290.251 -0.351551 -5.99069 0
M  V30 3086 H 291.321 -1.01374 -4.74185 0
M  V30 3087 N 292.664 1.56529 -0.183458 0
M  V30 3088 C 293.611 2.18546 0.742055 0
M  V30 3089 C 294.581 1.12912 1.2182 0
M  V30 3090 O 295.766 1.41115 1.28418 0
M  V30 3091 C 292.906 2.83977 1.96089 0
M  V30 3092 C 292.019 4.04105 1.52719 0
M  V30 3093 C 291.154 4.57427 2.70063 0
M  V30 3094 C 290.193 5.69938 2.23243 0
M  V30 3095 N 289.33 6.17717 3.33722 0
M  V30 3096 H 294.17 2.97284 0.206432 0
M  V30 3097 H 291.707 1.46823 0.0901571 0
M  V30 3098 H 293.665 3.20077 2.67594 0
M  V30 3099 H 292.295 2.07822 2.47002 0
M  V30 3100 H 291.347 3.73745 0.708436 0
M  V30 3101 H 292.659 4.85513 1.1436 0
M  V30 3102 H 291.813 4.95772 3.49708 0
M  V30 3103 H 290.552 3.75101 3.11689 0
M  V30 3104 H 289.557 5.31133 1.42048 0
M  V30 3105 H 290.782 6.54073 1.82661 0
M  V30 3106 H 288.728 5.38317 3.74902 0
M  V30 3107 H 288.645 6.94146 2.99495 0
M  V30 3108 H 289.913 6.60713 4.13616 0
M  V30 3109 N 294.142 -0.090211 1.57342 0
M  V30 3110 C 295.072 -1.10976 2.05443 0
M  V30 3111 C 296.053 -1.41482 0.944284 0
M  V30 3112 O 297.238 -1.51428 1.21586 0
M  V30 3113 C 294.368 -2.42831 2.48295 0
M  V30 3114 C 293.322 -2.26721 3.63018 0
M  V30 3115 C 292.648 -3.63796 3.91863 0
M  V30 3116 C 293.948 -1.7037 4.93732 0
M  V30 3117 H 295.642 -0.709564 2.9087 0
M  V30 3118 H 293.188 -0.339874 1.39932 0
M  V30 3119 H 295.141 -3.14431 2.80555 0
M  V30 3120 H 293.865 -2.84795 1.59873 0
M  V30 3121 H 292.524 -1.57565 3.31012 0
M  V30 3122 H 292.172 -4.03297 3.00601 0
M  V30 3123 H 291.872 -3.53861 4.69101 0
M  V30 3124 H 293.396 -4.36855 4.26603 0
M  V30 3125 H 294.81 -2.31816 5.24342 0
M  V30 3126 H 293.207 -1.71181 5.75167 0
M  V30 3127 H 294.277 -0.663542 4.80339 0
M  V30 3128 N 295.62 -1.53406 -0.361157 0
M  V30 3129 C 296.869 -1.69022 -1.10066 0
M  V30 3130 C 297.182 -0.450838 -1.90333 0
M  V30 3131 O 298.388 -0.487617 -2.67085 0
M  V30 3132 C 296.844 -2.98812 -2.00598 0
M  V30 3133 C 296.452 -4.30027 -1.25621 0
M  V30 3134 C 298.196 -3.23795 -2.74513 0
M  V30 3135 C 296.103 -5.50903 -2.1508 0
M  V30 3136 H 295.033 -0.629776 -0.414606 0
M  V30 3137 H 297.684 -1.79907 -0.361348 0
M  V30 3138 H 296.066 -2.8174 -2.78278 0
M  V30 3139 H 297.24 -4.57745 -0.529739 0
M  V30 3140 H 295.555 -4.11522 -0.635496 0
M  V30 3141 H 298.152 -4.11289 -3.41681 0
M  V30 3142 H 298.495 -2.40045 -3.40123 0
M  V30 3143 H 299.028 -3.41561 -2.03914 0
M  V30 3144 H 295.767 -6.37143 -1.54041 0
M  V30 3145 H 295.287 -5.27459 -2.85565 0
M  V30 3146 H 296.966 -5.85865 -2.74538 0
M  V30 3147 N 297.098 0.621204 -1.44841 0
M  V30 3148 C 298.509 1.20298 -1.42777 0
M  V30 3149 C 298.86 1.95639 -0.148259 0
M  V30 3150 O 297.985 2.02955 0.750892 0
M  V30 3151 C 298.58 2.1882 -2.58657 0
M  V30 3152 C 297.139 2.72403 -2.59756 0
M  V30 3153 C 296.286 1.4757 -2.34773 0
M  V30 3154 H 299.237 0.411297 -1.53278 0
M  V30 3155 H 299.258 3.01607 -2.31977 0
M  V30 3156 H 298.77 1.63957 -3.51766 0
M  V30 3157 H 296.871 3.31242 -1.70615 0
M  V30 3158 H 296.984 3.17765 -3.58556 0
M  V30 3159 H 295.348 1.76051 -1.8406 0
M  V30 3160 H 296.131 0.945954 -3.3001 0
M  V30 3161 N 298.576 1.31904 0.862503 0
M  V30 3162 C 299.853 1.12644 1.59908 0
M  V30 3163 C 300.233 -0.316104 2.0872 0
M  V30 3164 O 299.581 -1.31145 1.87118 0
M  V30 3165 C 299.791 2.1472 2.7513 0
M  V30 3166 C 301.139 2.47637 3.44907 0
M  V30 3167 O 302.163 2.13205 2.85346 0
M  V30 3168 O 301.022 3.06632 4.52371 0
M  V30 3169 H 298.116 0.43416 0.703871 0
M  V30 3170 H 300.662 1.43408 0.907314 0
M  V30 3171 H 299.434 3.1172 2.3653 0
M  V30 3172 H 299.057 1.84905 3.51989 0
M  V30 3173 N 300.054 -1.07777 1.14986 0
M  V30 3174 C 301.465 -1.61766 0.932127 0
M  V30 3175 C 301.816 -1.88974 -0.527581 0
M  V30 3176 O 300.941 -1.65198 -1.39781 0
M  V30 3177 C 301.536 -2.93891 1.68563 0
M  V30 3178 C 300.095 -3.44639 1.5133 0
M  V30 3179 C 299.242 -2.18767 1.704 0
M  V30 3180 H 302.193 -0.909201 1.30074 0
M  V30 3181 H 302.214 -3.62623 1.15259 0
M  V30 3182 H 301.726 -2.74057 2.74799 0
M  V30 3183 H 299.827 -3.69564 0.474702 0
M  V30 3184 H 299.94 -4.20966 2.28746 0
M  V30 3185 H 298.304 -2.28253 1.13016 0
M  V30 3186 H 299.087 -2.01433 2.77992 0
M  V30 3187 N 301.532 -0.945985 -1.26051 0
M  V30 3188 C 302.479 -0.45809 -2.26208 0
M  V30 3189 C 303.449 0.484816 -1.58867 0
M  V30 3190 O 304.634 0.399969 -1.86561 0
M  V30 3191 C 301.774 0.266131 -3.44072 0
M  V30 3192 C 300.887 -0.713005 -4.26075 0
M  V30 3193 C 300.022 0.0329013 -5.3119 0
M  V30 3194 C 299.061 -0.93774 -6.04874 0
M  V30 3195 N 298.198 -0.223274 -7.01745 0
M  V30 3196 H 303.038 -1.3171 -2.67313 0
M  V30 3197 H 300.575 -0.66069 -1.31428 0
M  V30 3198 H 302.533 0.702514 -4.11243 0
M  V30 3199 H 301.163 1.08925 -3.03867 0
M  V30 3200 H 300.215 -1.26789 -3.58648 0
M  V30 3201 H 301.527 -1.45406 -4.77136 0
M  V30 3202 H 300.681 0.528335 -6.04395 0
M  V30 3203 H 299.42 0.806801 -4.8098 0
M  V30 3204 H 298.425 -1.44425 -5.30492 0
M  V30 3205 H 299.65 -1.71172 -6.57173 0
M  V30 3206 H 297.596 0.532046 -6.53839 0
M  V30 3207 H 297.513 -0.90357 -7.50581 0
M  V30 3208 H 298.781 0.250907 -7.79096 0
M  V30 3209 N 303.011 1.40521 -0.713556 0
M  V30 3210 C 303.959 2.32549 -0.0485227 0
M  V30 3211 C 304.953 1.51931 0.74922 0
M  V30 3212 O 306.159 1.67745 0.652816 0
M  V30 3213 H 302.534 0.751994 0.00311138 0
M  V30 3214 H 304.505 2.86291 -0.841443 0
M  V30 3215 C 303.254 3.36879 0.860687 0
M  V30 3216 H 302.577 3.98978 0.256246 0
M  V30 3217 H 304.017 4.03772 1.294 0
M  V30 3218 C 302.476 2.72197 1.9852 0
M  V30 3219 O 303.006 2.5837 3.07584 0
M  V30 3220 N 301.212 2.30612 1.76823 0
M  V30 3221 H 300.759 2.42059 0.881217 0
M  V30 3222 H 300.717 1.87672 2.52243 0
M  V30 3223 N 304.489 0.459591 1.5075 0
M  V30 3224 C 305.399 -0.34613 2.32033 0
M  V30 3225 C 306.415 -1.00686 1.41909 0
M  V30 3226 O 307.591 -0.997361 1.7497 0
M  V30 3227 C 304.656 -1.42029 3.16273 0
M  V30 3228 C 303.717 -0.777362 4.22203 0
M  V30 3229 C 302.95 -1.80034 5.02418 0
M  V30 3230 O 303.173 -3.02544 4.83553 0
M  V30 3231 O 302.107 -1.37853 5.85901 0
M  V30 3232 H 305.933 0.318054 3.0203 0
M  V30 3233 H 303.518 0.221663 1.47746 0
M  V30 3234 H 305.4 -2.04275 3.68578 0
M  V30 3235 H 304.075 -2.06815 2.49016 0
M  V30 3236 H 302.982 -0.116256 3.73919 0
M  V30 3237 H 304.315 -0.172634 4.91897 0
M  V30 3238 N 305.967 -1.56429 0.191757 0
M  V30 3239 C 307.192 -2.02309 -0.456706 0
M  V30 3240 C 307.617 -1.07103 -1.5463 0
M  V30 3241 O 306.975 -0.0539677 -1.8122 0
M  V30 3242 C 307.023 -3.46654 -0.993159 0
M  V30 3243 O 306.127 -3.54559 -2.10622 0
M  V30 3244 H 305.468 -0.655303 -0.107114 0
M  V30 3245 H 307.998 -2.02364 0.301653 0
M  V30 3246 H 308.008 -3.86377 -1.31061 0
M  V30 3247 H 306.683 -4.1544 -0.195504 0
M  V30 3248 H 305.26 -3.26708 -1.79767 0
M  V30 3249 N 307.445 0.0818655 -1.57387 0
M  V30 3250 C 308.392 1.09834 -2.0299 0
M  V30 3251 C 309.362 1.39043 -0.908639 0
M  V30 3252 O 310.547 1.50282 -1.17559 0
M  V30 3253 C 307.687 2.40971 -2.47037 0
M  V30 3254 C 306.8 2.18379 -3.7274 0
M  V30 3255 C 305.935 3.43008 -4.0561 0
M  V30 3256 C 304.974 3.15736 -5.24383 0
M  V30 3257 N 304.111 4.32667 -5.52941 0
M  V30 3258 H 308.951 0.702472 -2.89602 0
M  V30 3259 H 306.488 0.33531 -1.43227 0
M  V30 3260 H 308.446 3.1752 -2.70623 0
M  V30 3261 H 307.076 2.78379 -1.63417 0
M  V30 3262 H 306.128 1.32569 -3.56552 0
M  V30 3263 H 307.44 1.94227 -4.59431 0
M  V30 3264 H 306.594 4.27958 -4.30043 0
M  V30 3265 H 305.333 3.70225 -3.17466 0
M  V30 3266 H 304.338 2.2918 -4.99757 0
M  V30 3267 H 305.563 2.8985 -6.14136 0
M  V30 3268 H 303.509 4.59935 -4.67756 0
M  V30 3269 H 303.426 4.11753 -6.34031 0
M  V30 3270 H 304.694 5.18644 -5.81918 0
M  V30 3271 N 308.923 1.53595 0.353017 0
M  V30 3272 C 309.855 1.77219 1.45348 0
M  V30 3273 C 310.868 0.65324 1.49119 0
M  V30 3274 O 312.057 0.929775 1.52373 0
M  V30 3275 C 309.157 1.84841 2.84055 0
M  V30 3276 C 308.33 3.14649 3.03833 0
M  V30 3277 C 307.389 3.13351 4.22727 0
M  V30 3278 O 306.415 3.87107 4.17297 0
M  V30 3279 N 307.617 2.35052 5.30783 0
M  V30 3280 H 310.382 2.72178 1.25457 0
M  V30 3281 H 307.943 1.52528 0.542833 0
M  V30 3282 H 309.935 1.81435 3.61751 0
M  V30 3283 H 308.505 0.971114 2.97133 0
M  V30 3284 H 307.725 3.31256 2.13689 0
M  V30 3285 H 309.013 4.00411 3.13925 0
M  V30 3286 H 308.411 1.74663 5.38061 0
M  V30 3287 H 306.968 2.37453 6.07009 0
M  V30 3288 N 310.401 -0.613514 1.45168 0
M  V30 3289 C 311.348 -1.72456 1.53387 0
M  V30 3290 C 312.318 -1.6169 0.380191 0
M  V30 3291 O 313.503 -1.81356 0.592836 0
M  V30 3292 C 310.643 -3.10753 1.50088 0
M  V30 3293 C 309.756 -3.32368 2.75963 0
M  V30 3294 C 308.891 -4.60737 2.64376 0
M  V30 3295 C 307.93 -4.7559 3.85332 0
M  V30 3296 N 307.067 -5.95253 3.72315 0
M  V30 3297 H 311.907 -1.64768 2.48305 0
M  V30 3298 H 309.444 -0.803503 1.23216 0
M  V30 3299 H 311.402 -3.90758 1.46164 0
M  V30 3300 H 310.032 -3.17413 0.587243 0
M  V30 3301 H 309.084 -2.4618 2.89999 0
M  V30 3302 H 310.396 -3.39218 3.65695 0
M  V30 3303 H 309.55 -5.48928 2.58385 0
M  V30 3304 H 308.289 -4.56275 1.72233 0
M  V30 3305 H 307.294 -3.85824 3.91688 0
M  V30 3306 H 308.519 -4.81854 4.78533 0
M  V30 3307 H 306.465 -5.91847 2.82937 0
M  V30 3308 H 306.382 -6.03236 4.55677 0
M  V30 3309 H 307.65 -6.85958 3.70246 0
M  V30 3310 N 311.879 -1.3236 -0.855495 0
M  V30 3311 C 313.107 -1.2587 -1.64208 0
M  V30 3312 C 313.522 0.173457 -1.88002 0
M  V30 3313 O 312.879 1.11027 -1.44842 0
M  V30 3314 C 312.93 -2.01424 -3.00184 0
M  V30 3315 O 312.651 -3.39051 -2.77445 0
M  V30 3316 C 314.152 -2.01948 -3.94629 0
M  V30 3317 H 311.372 -0.434318 -0.511477 0
M  V30 3318 H 313.916 -1.74469 -1.0668 0
M  V30 3319 H 312.071 -1.56549 -3.5436 0
M  V30 3320 H 312.485 -3.77711 -3.63916 0
M  V30 3321 H 313.959 -2.59297 -4.87308 0
M  V30 3322 H 314.436 -1.00554 -4.27534 0
M  V30 3323 H 315.042 -2.46767 -3.4639 0
M  V30 3324 N 313.357 1.07166 -1.15556 0
M  V30 3325 C 314.304 2.14417 -0.854055 0
M  V30 3326 C 315.274 1.64965 0.193806 0
M  V30 3327 O 316.459 1.90703 0.0609443 0
M  V30 3328 C 313.599 3.43304 -0.351574 0
M  V30 3329 C 312.712 4.06537 -1.46123 0
M  V30 3330 C 311.847 5.23266 -0.914677 0
M  V30 3331 C 310.886 5.78464 -2.00114 0
M  V30 3332 N 310.023 6.86521 -1.47083 0
M  V30 3333 H 314.863 2.39548 -1.77259 0
M  V30 3334 H 312.4 1.17543 -0.884425 0
M  V30 3335 H 314.358 4.17179 -0.0419409 0
M  V30 3336 H 312.988 3.18419 0.530037 0
M  V30 3337 H 312.04 3.30297 -1.88701 0
M  V30 3338 H 313.352 4.43567 -2.28144 0
M  V30 3339 H 312.506 6.04131 -0.557698 0
M  V30 3340 H 311.245 4.87658 -0.0636583 0
M  V30 3341 H 310.25 4.96243 -2.36692 0
M  V30 3342 H 311.475 6.16126 -2.85597 0
M  V30 3343 H 309.421 6.52849 -0.642198 0
M  V30 3344 H 309.338 7.22446 -2.22729 0
M  V30 3345 H 310.606 7.71087 -1.14215 0
M  V30 3346 N 314.835 0.952656 1.25548 0
M  V30 3347 C 316.063 0.623496 1.97282 0
M  V30 3348 C 316.478 -0.803987 1.70826 0
M  V30 3349 O 315.835 -1.53755 0.983147 0
M  V30 3350 C 315.886 0.870209 3.5087 0
M  V30 3351 O 315.607 2.24156 3.76412 0
M  V30 3352 C 317.108 0.553164 4.39835 0
M  V30 3353 H 314.328 0.233931 0.628902 0
M  V30 3354 H 316.872 1.27649 1.59768 0
M  V30 3355 H 315.027 0.263652 3.86502 0
M  V30 3356 H 315.441 2.31021 4.70882 0
M  V30 3357 H 316.915 0.776342 5.46513 0
M  V30 3358 H 317.392 -0.512215 4.36203 0
M  V30 3359 H 317.998 1.13896 4.09766 0
M  V30 3360 N 316.313 -1.40141 0.720998 0
M  V30 3361 C 317.562 -2.0002 0.259804 0
M  V30 3362 C 317.875 -1.57839 -1.15526 0
M  V30 3363 O 319.081 -2.10455 -1.71525 0
M  V30 3364 C 317.537 -3.57516 0.413566 0
M  V30 3365 C 317.145 -4.08667 1.83562 0
M  V30 3366 C 318.889 -4.24498 0.0134387 0
M  V30 3367 C 316.796 -5.58686 1.93968 0
M  V30 3368 H 315.726 -0.748195 0.0933806 0
M  V30 3369 H 318.377 -1.60313 0.892866 0
M  V30 3370 H 316.759 -3.9495 -0.288169 0
M  V30 3371 H 317.933 -3.82598 2.56817 0
M  V30 3372 H 316.248 -3.543 2.1877 0
M  V30 3373 H 318.845 -5.34654 0.0703954 0
M  V30 3374 H 319.188 -4.03375 -1.02927 0
M  V30 3375 H 319.721 -3.92188 0.665815 0
M  V30 3376 H 316.46 -5.8467 2.96379 0
M  V30 3377 H 315.98 -5.86602 1.25131 0
M  V30 3378 H 317.659 -6.23875 1.71431 0
M  V30 3379 N 317.792 -0.46758 -1.50504 0
M  V30 3380 C 319.208 -0.121533 -1.59137 0
M  V30 3381 C 319.408 1.3717 -1.47603 0
M  V30 3382 O 318.464 2.14464 -1.33272 0
M  V30 3383 C 319.777 -0.6686 -2.93173 0
M  V30 3384 C 321.325 -0.631716 -3.06559 0
M  V30 3385 C 321.8 -1.15627 -4.43164 0
M  V30 3386 N 323.291 -1.11553 -4.49567 0
M  V30 3387 C 324.026 -1.49195 -5.5365 0
M  V30 3388 N 323.522 -1.94269 -6.65005 0
M  V30 3389 N 325.315 -1.4082 -5.44175 0
M  V30 3390 H 317.466 -1.4388 -1.56245 0
M  V30 3391 H 319.729 -0.594784 -0.738198 0
M  V30 3392 H 319.435 -1.71453 -3.07078 0
M  V30 3393 H 319.309 -0.11021 -3.77039 0
M  V30 3394 H 321.696 0.405297 -2.92304 0
M  V30 3395 H 321.777 -1.22687 -2.24458 0
M  V30 3396 H 321.421 -2.1919 -4.58168 0
M  V30 3397 H 321.351 -0.537365 -5.23851 0
M  V30 3398 H 323.842 -0.784895 -3.69659 0
M  V30 3399 H 324.155 -2.21148 -7.40482 0
M  V30 3400 H 322.5 -1.98219 -6.66134 0
M  V30 3401 H 325.691 -1.0545 -4.56068 0
M  V30 3402 H 325.864 -1.70481 -6.25172 0
M  V30 3403 N 319.27 1.56325 -0.20005 0
M  V30 3404 C 320.495 2.02548 0.44597 0
M  V30 3405 C 320.92 1.07922 1.5406 0
M  V30 3406 O 320.278 0.0635775 1.81188 0
M  V30 3407 C 320.326 3.47175 0.974761 0
M  V30 3408 O 319.43 3.55671 2.08739 0
M  V30 3409 H 318.771 0.655862 0.103638 0
M  V30 3410 H 321.301 2.02201 -0.312381 0
M  V30 3411 H 321.311 3.87067 1.2901 0
M  V30 3412 H 319.986 4.15538 0.17347 0
M  V30 3413 H 318.563 3.27657 1.78032 0
M  V30 3414 N 320.748 -0.0735177 1.57428 0
M  V30 3415 C 321.976 -0.785969 1.9139 0
M  V30 3416 C 322.391 -1.71207 0.795847 0
M  V30 3417 O 321.748 -1.81033 -0.230915 0
M  V30 3418 C 321.799 -1.58107 3.25091 0
M  V30 3419 O 321.52 -0.6922 4.32597 0
M  V30 3420 C 323.021 -2.39467 3.73055 0
M  V30 3421 H 320.241 -0.223558 0.632663 0
M  V30 3422 H 322.785 -0.044302 2.04452 0
M  V30 3423 H 320.94 -2.27503 3.13562 0
M  V30 3424 H 321.354 -1.24504 5.09508 0
M  V30 3425 H 322.828 -2.90716 4.69242 0
M  V30 3426 H 323.305 -3.18913 3.01979 0
M  V30 3427 H 323.911 -1.7523 3.87523 0
M  V30 3428 N 322.226 -1.5378 -0.344866 0
M  V30 3429 C 323.156 -1.84662 -1.42906 0
M  V30 3430 C 324.137 -0.701648 -1.54955 0
M  V30 3431 O 325.322 -0.953438 -1.69184 0
M  V30 3432 C 322.452 -2.05503 -2.79974 0
M  V30 3433 C 321.406 -3.21318 -2.82734 0
M  V30 3434 C 320.732 -3.2749 -4.22675 0
M  V30 3435 C 322.032 -4.59456 -2.48389 0
M  V30 3436 H 323.726 -2.75461 -1.17311 0
M  V30 3437 H 321.272 -1.32542 -0.562896 0
M  V30 3438 H 323.225 -2.25691 -3.55867 0
M  V30 3439 H 321.949 -1.11434 -3.07002 0
M  V30 3440 H 320.608 -3.00984 -2.09294 0
M  V30 3441 H 320.256 -2.31019 -4.4681 0
M  V30 3442 H 319.956 -4.05316 -4.25433 0
M  V30 3443 H 321.48 -3.49887 -5.00412 0
M  V30 3444 H 322.894 -4.79667 -3.13995 0
M  V30 3445 H 321.291 -5.39675 -2.62432 0
M  V30 3446 H 322.361 -4.63155 -1.4358 0
M  V30 3447 N 323.704 0.605807 -1.45491 0
M  V30 3448 C 324.652 1.73754 -1.54636 0
M  V30 3449 C 325.646 1.64207 -0.416219 0
M  V30 3450 O 326.852 1.69979 -0.592199 0
M  V30 3451 H 323.227 0.574073 -0.485741 0
M  V30 3452 H 325.198 1.63169 -2.49837 0
M  V30 3453 C 323.947 3.12135 -1.53189 0
M  V30 3454 H 323.27 3.20141 -2.39478 0
M  V30 3455 H 324.71 3.91147 -1.63645 0
M  V30 3456 C 323.169 3.35921 -0.256616 0
M  V30 3457 O 323.699 3.96194 0.662798 0
M  V30 3458 N 321.905 2.90204 -0.151751 0
M  V30 3459 H 321.452 2.41336 -0.90081 0
M  V30 3460 H 321.41 3.06492 0.700699 0
M  V30 3461 N 325.182 1.32811 0.848464 0
M  V30 3462 C 326.593 1.21315 1.41914 0
M  V30 3463 C 326.944 -0.171847 1.95446 0
M  V30 3464 O 326.069 -1.07093 1.88043 0
M  V30 3465 C 326.664 2.19631 2.57968 0
M  V30 3466 C 325.223 2.12003 3.11017 0
M  V30 3467 C 324.37 2.07651 1.83783 0
M  V30 3468 H 327.321 1.44549 0.655071 0
M  V30 3469 H 327.342 1.79845 3.35315 0
M  V30 3470 H 326.854 3.20423 2.18976 0
M  V30 3471 H 324.955 1.14481 3.54577 0
M  V30 3472 H 325.068 3.02111 3.71841 0
M  V30 3473 H 323.432 1.52983 2.03638 0
M  V30 3474 H 324.215 3.10235 1.47 0
M  V30 3475 N 326.66 -1.06551 1.16123 0
M  V30 3476 C 327.592 -2.13908 0.823171 0
M  V30 3477 C 328.605 -1.61926 -0.16843 0
M  V30 3478 O 329.794 -1.78412 0.055962 0
M  V30 3479 C 326.894 -3.38283 0.204424 0
M  V30 3480 C 326.067 -4.19589 1.23548 0
M  V30 3481 C 325.126 -5.2233 0.637011 0
M  V30 3482 O 324.152 -5.54034 1.30516 0
M  V30 3483 N 325.354 -5.77621 -0.577474 0
M  V30 3484 H 328.119 -2.43508 1.74711 0
M  V30 3485 H 325.68 -1.2253 1.05821 0
M  V30 3486 H 327.672 -4.0416 -0.208909 0
M  V30 3487 H 326.242 -3.06329 -0.623012 0
M  V30 3488 H 325.462 -3.49406 1.82507 0
M  V30 3489 H 326.75 -4.70718 1.93137 0
M  V30 3490 H 326.148 -5.54125 -1.13853 0
M  V30 3491 H 324.705 -6.45087 -0.933053 0
M  V30 3492 N 328.138 -0.959301 -1.25041 0
M  V30 3493 C 329.384 -0.627096 -1.93492 0
M  V30 3494 C 329.739 0.827484 -1.73696 0
M  V30 3495 O 329.032 1.58651 -1.07427 0
M  V30 3496 C 329.226 -0.927136 -3.45165 0
M  V30 3497 C 329.055 -2.40933 -3.79712 0
M  V30 3498 C 327.825 -3.0677 -4.01522 0
M  V30 3499 C 330.023 -3.38894 -3.86853 0
M  V30 3500 N 328.005 -4.44815 -4.231 0
M  V30 3501 C 329.376 -4.62263 -4.13174 0
M  V30 3502 C 331.431 -3.33668 -3.69554 0
M  V30 3503 C 330.134 -5.81052 -4.23995 0
M  V30 3504 C 332.16 -4.518 -3.81616 0
M  V30 3505 C 331.522 -5.73957 -4.08354 0
M  V30 3506 H 327.621 -0.280166 -0.73009 0
M  V30 3507 H 330.205 -1.23244 -1.50729 0
M  V30 3508 H 328.376 -0.350685 -3.86814 0
M  V30 3509 H 330.108 -0.554361 -4.00885 0
M  V30 3510 H 326.863 -2.57327 -3.97593 0
M  V30 3511 H 327.287 -5.16319 -4.37885 0
M  V30 3512 H 331.929 -2.40268 -3.47895 0
M  V30 3513 H 329.647 -6.74888 -4.44468 0
M  V30 3514 H 333.233 -4.49309 -3.69612 0
M  V30 3515 H 332.113 -6.6384 -4.17475 0
M  V30 3516 N 329.616 1.39756 -0.72842 0
M  V30 3517 C 330.564 2.32485 -0.0731849 0
M  V30 3518 C 331.558 1.52717 0.733063 0
M  V30 3519 O 332.764 1.68428 0.634988 0
M  V30 3520 H 329.139 0.751984 -0.00486469 0
M  V30 3521 H 331.11 2.85382 -0.871761 0
M  V30 3522 C 329.859 3.37773 0.824908 0
M  V30 3523 H 329.182 3.99227 0.213915 0
M  V30 3524 H 330.622 4.05121 1.25111 0
M  V30 3525 C 329.081 2.74287 1.95622 0
M  V30 3526 O 329.611 2.61618 3.04826 0
M  V30 3527 N 327.817 2.32475 1.74367 0
M  V30 3528 H 327.364 2.4298 0.855494 0
M  V30 3529 H 327.322 1.90337 2.50238 0
M  V30 3530 N 331.094 0.475555 1.50254 0
M  V30 3531 C 332.004 -0.321501 2.32387 0
M  V30 3532 C 333.02 -0.991755 1.42969 0
M  V30 3533 O 334.196 -0.978747 1.76018 0
M  V30 3534 C 331.261 -1.38667 3.17762 0
M  V30 3535 C 330.322 -0.732538 4.23004 0
M  V30 3536 C 329.555 -1.74695 5.04299 0
M  V30 3537 O 329.778 -2.97399 4.86734 0
M  V30 3538 O 328.712 -1.31631 5.8733 0
M  V30 3539 H 332.538 0.350071 3.01676 0
M  V30 3540 H 330.123 0.237321 1.47503 0
M  V30 3541 H 332.005 -2.00354 3.70724 0
M  V30 3542 H 330.68 -2.04163 2.51196 0
M  V30 3543 H 329.587 -0.0765902 3.74022 0
M  V30 3544 H 330.92 -0.120452 4.92053 0
M  V30 3545 N 332.573 -1.56217 0.208337 0
M  V30 3546 C 333.798 -2.02782 -0.435222 0
M  V30 3547 C 334.223 -1.08738 -1.53485 0
M  V30 3548 O 333.581 -0.0731855 -1.81152 0
M  V30 3549 C 333.629 -3.47687 -0.956335 0
M  V30 3550 O 332.733 -3.56773 -2.06849 0
M  V30 3551 H 332.074 -0.656403 -0.100158 0
M  V30 3552 H 334.604 -2.02033 0.3231 0
M  V30 3553 H 334.614 -3.87745 -1.26955 0
M  V30 3554 H 333.289 -4.15624 -0.15143 0
M  V30 3555 H 331.866 -3.28597 -1.76292 0
M  V30 3556 N 334.051 0.0651679 -1.57465 0
M  V30 3557 C 335.298 0.763063 -1.87573 0
M  V30 3558 C 335.626 1.77242 -0.800961 0
M  V30 3559 O 334.881 1.94651 0.202316 0
M  V30 3560 C 335.18 1.50081 -3.24362 0
M  V30 3561 C 334.846 0.630816 -4.46466 0
M  V30 3562 C 333.508 0.391082 -4.79608 0
M  V30 3563 C 335.86 0.0279465 -5.21193 0
M  V30 3564 C 333.188 -0.460894 -5.84887 0
M  V30 3565 C 335.54 -0.811522 -6.27373 0
M  V30 3566 C 334.204 -1.06106 -6.59013 0
M  V30 3567 H 333.474 0.279224 -0.686378 0
M  V30 3568 H 336.121 0.0236726 -1.91485 0
M  V30 3569 H 334.426 2.31258 -3.16271 0
M  V30 3570 H 336.123 2.04571 -3.44894 0
M  V30 3571 H 332.713 0.8278 -4.2053 0
M  V30 3572 H 336.897 0.200262 -4.95896 0
M  V30 3573 H 332.153 -0.662907 -6.07796 0
M  V30 3574 H 336.327 -1.28537 -6.84435 0
M  V30 3575 H 333.954 -1.723 -7.40417 0
M  V30 3576 N 335.529 1.53961 0.336706 0
M  V30 3577 C 336.757 1.75483 1.09605 0
M  V30 3578 C 337.172 0.4972 1.82136 0
M  V30 3579 O 336.529 -0.53149 1.74589 0
M  V30 3580 C 336.58 2.93943 2.10428 0
M  V30 3581 O 336.301 4.14842 1.40846 0
M  V30 3582 C 337.802 3.27571 2.98684 0
M  V30 3583 H 335.022 0.586166 0.326574 0
M  V30 3584 H 337.566 2.00808 0.38683 0
M  V30 3585 H 335.721 2.70929 2.76905 0
M  V30 3586 H 336.135 4.81383 2.08255 0
M  V30 3587 H 337.609 4.13791 3.6535 0
M  V30 3588 H 338.086 2.44168 3.65074 0
M  V30 3589 H 338.692 3.52615 2.37787 0
M  V30 3590 N 337.007 -0.598083 1.45811 0
M  V30 3591 C 338.254 -1.35681 1.50323 0
M  V30 3592 C 338.582 -1.9393 0.148739 0
M  V30 3593 O 337.837 -1.76094 -0.853787 0
M  V30 3594 C 338.136 -2.51669 2.53766 0
M  V30 3595 C 337.802 -2.11508 3.98215 0
M  V30 3596 C 336.464 -2.0027 4.37545 0
M  V30 3597 C 338.816 -1.80308 4.89018 0
M  V30 3598 C 336.144 -1.56067 5.65562 0
M  V30 3599 C 338.496 -1.37589 6.17456 0
M  V30 3600 C 337.16 -1.24916 6.55708 0
M  V30 3601 H 336.43 -0.496492 0.550069 0
M  V30 3602 H 339.077 -0.675052 1.79207 0
M  V30 3603 H 337.382 -3.25225 2.18486 0
M  V30 3604 H 339.079 -3.09895 2.54492 0
M  V30 3605 H 335.669 -2.21185 3.67117 0
M  V30 3606 H 339.853 -1.87884 4.59362 0
M  V30 3607 H 335.109 -1.44886 5.93985 0
M  V30 3608 H 339.283 -1.12495 6.87254 0
M  V30 3609 H 336.91 -0.904386 7.54801 0
M  V30 3610 N 338.485 -1.33259 -0.841409 0
M  V30 3611 C 339.432 -1.23302 -1.95103 0
M  V30 3612 C 340.402 -0.112204 -1.65721 0
M  V30 3613 O 341.587 -0.290038 -1.88583 0
M  V30 3614 C 338.727 -0.975583 -3.31023 0
M  V30 3615 C 337.84 -2.18243 -3.72819 0
M  V30 3616 C 336.975 -1.85936 -4.97595 0
M  V30 3617 C 336.014 -3.02866 -5.3192 0
M  V30 3618 N 335.151 -2.70565 -6.47873 0
M  V30 3619 H 339.991 -2.18207 -2.02952 0
M  V30 3620 H 337.528 -1.0851 -0.993173 0
M  V30 3621 H 339.486 -0.80677 -4.09325 0
M  V30 3622 H 338.116 -0.0632755 -3.22738 0
M  V30 3623 H 337.168 -2.46107 -2.90061 0
M  V30 3624 H 338.48 -3.05666 -3.94169 0
M  V30 3625 H 337.634 -1.65684 -5.83638 0
M  V30 3626 H 336.373 -0.957452 -4.78209 0
M  V30 3627 H 335.378 -3.23736 -4.44382 0
M  V30 3628 H 336.603 -3.93809 -5.53255 0
M  V30 3629 H 334.549 -1.8293 -6.29978 0
M  V30 3630 H 334.466 -3.51519 -6.69306 0
M  V30 3631 H 335.734 -2.53774 -7.37034 0
M  V30 3632 N 339.963 1.05934 -1.16686 0
M  V30 3633 C 340.893 2.1546 -0.899949 0
M  V30 3634 C 341.874 1.69391 0.155154 0
M  V30 3635 O 343.059 1.94199 0.00648693 0
M  V30 3636 C 340.189 3.44939 -0.404241 0
M  V30 3637 C 339.143 4.04536 -1.39767 0
M  V30 3638 C 338.469 5.29268 -0.760216 0
M  V30 3639 C 339.769 4.42893 -2.76845 0
M  V30 3640 H 341.463 2.38046 -1.81588 0
M  V30 3641 H 339.009 1.14404 -0.874514 0
M  V30 3642 H 340.962 4.20901 -0.204971 0
M  V30 3643 H 339.686 3.21983 0.547206 0
M  V30 3644 H 338.345 3.30635 -1.58355 0
M  V30 3645 H 337.993 5.02611 0.197831 0
M  V30 3646 H 337.693 5.70101 -1.42332 0
M  V30 3647 H 339.217 6.07924 -0.57105 0
M  V30 3648 H 340.631 5.09921 -2.62019 0
M  V30 3649 H 339.028 4.94721 -3.39663 0
M  V30 3650 H 340.098 3.53584 -3.31823 0
M  V30 3651 N 341.441 0.965919 1.2453 0
M  V30 3652 C 342.388 0.49402 2.25451 0
M  V30 3653 C 343.358 -0.45948 1.59618 0
M  V30 3654 O 344.543 -0.370238 1.87173 0
M  V30 3655 C 341.683 -0.211359 3.44452 0
M  V30 3656 C 340.796 0.7807 4.24887 0
M  V30 3657 C 339.931 0.0516105 5.31175 0
M  V30 3658 C 338.97 1.03385 6.03306 0
M  V30 3659 N 338.107 0.334887 7.01301 0
M  V30 3660 H 342.947 1.35946 2.65184 0
M  V30 3661 H 340.484 0.681515 1.3036 0
M  V30 3662 H 342.442 -0.637 4.12308 0
M  V30 3663 H 341.072 -1.04077 3.05562 0
M  V30 3664 H 340.124 1.32479 3.56586 0
M  V30 3665 H 341.436 1.52978 4.74762 0
M  V30 3666 H 340.59 -0.432114 6.05159 0
M  V30 3667 H 339.329 -0.730179 4.82203 0
M  V30 3668 H 338.334 1.52847 5.28127 0
M  V30 3669 H 339.559 1.81606 6.54367 0
M  V30 3670 H 337.505 -0.427959 6.54603 0
M  V30 3671 H 337.422 1.02287 7.49048 0
M  V30 3672 H 338.69 -0.126928 7.79397 0
M  V30 3673 N 342.919 -1.39368 0.735821 0
M  V30 3674 C 344.33 -1.83313 0.354015 0
M  V30 3675 C 344.681 -1.61461 -1.11466 0
M  V30 3676 O 343.806 -1.10621 -1.85989 0
M  V30 3677 C 344.401 -3.32781 0.635769 0
M  V30 3678 C 342.96 -3.75142 0.307448 0
M  V30 3679 C 342.107 -2.62358 0.897974 0
M  V30 3680 H 345.058 -1.28349 0.933398 0
M  V30 3681 H 345.079 -3.80388 -0.0921773 0
M  V30 3682 H 344.591 -3.48654 1.70476 0
M  V30 3683 H 342.692 -3.64857 -0.755674 0
M  V30 3684 H 342.805 -4.72532 0.790583 0
M  V30 3685 H 341.169 -2.52624 0.324551 0
M  V30 3686 H 341.952 -2.81036 1.97164 0
M  V30 3687 N 344.397 -0.483516 -1.5 0
M  V30 3688 C 345.622 0.0667119 -2.07293 0
M  V30 3689 C 346.047 1.3164 -1.3436 0
M  V30 3690 O 345.405 1.76945 -0.394987 0
M  V30 3691 C 345.453 0.321126 -3.59167 0
M  V30 3692 O 344.557 1.39927 -3.87936 0
M  V30 3693 H 343.898 -0.0184758 -0.663743 0
M  V30 3694 H 346.428 -0.678125 -1.93035 0
M  V30 3695 H 346.438 0.557906 -4.04168 0
M  V30 3696 H 345.113 -0.592007 -4.11665 0
M  V30 3697 H 343.69 1.14882 -3.54763 0
M  V30 3698 N 345.875 1.56104 -0.216619 0
M  V30 3699 C 347.152 1.89988 0.465165 0
M  V30 3700 C 347.532 1.13326 1.78102 0
M  V30 3701 O 346.88 0.241033 2.27225 0
M  V30 3702 C 347.09 3.42646 0.662939 0
M  V30 3703 C 348.438 4.13311 0.972602 0
M  V30 3704 O 349.462 3.48217 0.749901 0
M  V30 3705 O 348.321 5.28396 1.39499 0
M  V30 3706 H 345.415 0.78979 0.245276 0
M  V30 3707 H 347.961 1.67721 -0.258436 0
M  V30 3708 H 346.733 3.90399 -0.26543 0
M  V30 3709 H 346.356 3.70677 1.43821 0
M  V30 3710 N 347.353 -0.0568162 1.57498 0
M  V30 3711 C 348.3 -1.06591 2.04712 0
M  V30 3712 C 349.27 -1.3758 0.930644 0
M  V30 3713 O 350.455 -1.48392 1.19935 0
M  V30 3714 C 347.595 -2.3701 2.50839 0
M  V30 3715 C 346.708 -2.12421 3.76167 0
M  V30 3716 C 345.843 -3.36511 4.11015 0
M  V30 3717 C 344.882 -3.07353 5.2934 0
M  V30 3718 N 344.019 -4.23816 5.59754 0
M  V30 3719 H 348.859 -0.65631 2.90683 0
M  V30 3720 H 346.396 -0.312481 1.43743 0
M  V30 3721 H 348.354 -3.13175 2.7564 0
M  V30 3722 H 346.984 -2.75744 1.67825 0
M  V30 3723 H 346.036 -1.2688 3.58616 0
M  V30 3724 H 347.348 -1.86894 4.62463 0
M  V30 3725 H 346.502 -4.21062 4.36797 0
M  V30 3726 H 345.241 -3.65128 3.23315 0
M  V30 3727 H 344.246 -2.212 5.03339 0
M  V30 3728 H 345.471 -2.80043 6.1867 0
M  V30 3729 H 343.417 -4.52436 4.75014 0
M  V30 3730 H 343.334 -4.01614 6.40501 0
M  V30 3731 H 344.602 -5.0932 5.90096 0
M  V30 3732 N 348.832 -1.54138 -0.328536 0
M  V30 3733 C 350.109 -1.62749 -1.08499 0
M  V30 3734 C 350.489 -0.458198 -2.06067 0
M  V30 3735 O 349.837 0.548046 -2.2183 0
M  V30 3736 C 350.047 -2.99519 -1.79135 0
M  V30 3737 C 351.395 -3.55394 -2.32337 0
M  V30 3738 O 352.419 -3.01792 -1.89209 0
M  V30 3739 O 351.278 -4.49186 -3.11279 0
M  V30 3740 H 348.372 -0.65886 -0.499832 0
M  V30 3741 H 350.918 -1.66484 -0.328826 0
M  V30 3742 H 349.69 -3.76061 -1.08139 0
M  V30 3743 H 349.313 -2.99441 -2.61574 0
M  V30 3744 N 350.31 0.590341 -1.46126 0
M  V30 3745 C 351.726 0.912917 -1.30912 0
M  V30 3746 C 351.926 1.99616 -0.274893 0
M  V30 3747 O 350.982 2.50397 0.325197 0
M  V30 3748 C 352.295 1.3375 -2.69317 0
M  V30 3749 C 353.843 1.45077 -2.77348 0
M  V30 3750 C 354.318 1.90904 -4.16317 0
M  V30 3751 N 355.809 1.9811 -4.18696 0
M  V30 3752 C 356.544 2.34828 -5.23109 0
M  V30 3753 N 356.04 2.70393 -6.37856 0
M  V30 3754 N 357.833 2.35317 -5.10473 0
M  V30 3755 H 349.984 -0.125358 -2.1203 0
M  V30 3756 H 352.247 0.00658481 -0.947977 0
M  V30 3757 H 351.953 0.615614 -3.4627 0
M  V30 3758 H 351.827 2.30058 -2.9892 0
M  V30 3759 H 354.214 2.16353 -2.00687 0
M  V30 3760 H 354.295 0.4704 -2.51438 0
M  V30 3761 H 353.939 1.20209 -4.9347 0
M  V30 3762 H 353.869 2.89886 -4.39629 0
M  V30 3763 H 356.36 1.73146 -3.359 0
M  V30 3764 H 356.673 2.97341 -7.13308 0
M  V30 3765 H 355.018 2.68048 -6.41229 0
M  V30 3766 H 358.209 2.0695 -4.19868 0
M  V30 3767 H 358.382 2.63605 -5.9196 0
M  V30 3768 N 351.788 1.33704 0.83433 0
M  V30 3769 C 353.204 1.13137 1.12571 0
M  V30 3770 C 353.404 -0.0747261 2.01361 0
M  V30 3771 O 352.46 -0.753647 2.4099 0
M  V30 3772 C 353.773 2.42105 1.78342 0
M  V30 3773 C 355.321 2.48054 1.90888 0
M  V30 3774 C 355.796 3.76995 2.60075 0
M  V30 3775 N 357.287 3.78092 2.67584 0
M  V30 3776 C 358.022 4.74574 3.21818 0
M  V30 3777 N 357.518 5.81434 3.76705 0
M  V30 3778 N 359.311 4.62044 3.20112 0
M  V30 3779 H 351.462 2.11 0.243489 0
M  V30 3780 H 353.725 0.932532 0.17055 0
M  V30 3781 H 353.431 3.30391 1.20561 0
M  V30 3782 H 353.305 2.54594 2.7832 0
M  V30 3783 H 355.692 1.60215 2.47821 0
M  V30 3784 H 355.773 2.39502 0.898459 0
M  V30 3785 H 355.417 4.65219 2.03799 0
M  V30 3786 H 355.347 3.82825 3.61597 0
M  V30 3787 H 357.838 3.00865 2.28667 0
M  V30 3788 H 358.151 6.51084 4.16305 0
M  V30 3789 H 356.496 5.85163 3.7498 0
M  V30 3790 H 359.687 3.77716 2.76493 0
M  V30 3791 H 359.86 5.37406 3.62076 0
M  V30 3792 N 353.266 -1.05314 1.17247 0
M  V30 3793 C 354.196 -2.1498 0.911362 0
M  V30 3794 C 355.177 -1.69471 -0.146169 0
M  V30 3795 O 356.362 -1.942 0.003812 0
M  V30 3796 C 353.492 -3.4472 0.422528 0
M  V30 3797 C 352.446 -4.03789 1.4191 0
M  V30 3798 C 351.772 -5.28858 0.788274 0
M  V30 3799 C 353.072 -4.41418 2.7919 0
M  V30 3800 H 354.766 -2.3708 1.82848 0
M  V30 3801 H 352.312 -1.13938 0.880569 0
M  V30 3802 H 354.265 -4.20787 0.227289 0
M  V30 3803 H 352.989 -3.22269 -0.530123 0
M  V30 3804 H 351.648 -3.2979 1.60106 0
M  V30 3805 H 351.296 -5.02709 -0.171173 0
M  V30 3806 H 350.996 -5.69338 1.45353 0
M  V30 3807 H 352.52 -6.07612 0.603282 0
M  V30 3808 H 353.934 -5.08524 2.64719 0
M  V30 3809 H 352.331 -4.92913 3.42282 0
M  V30 3810 H 353.401 -3.51819 3.33693 0
M  V30 3811 N 354.744 -0.972509 -1.24016 0
M  V30 3812 C 355.969 -0.654417 -1.96805 0
M  V30 3813 C 356.394 0.770398 -1.716 0
M  V30 3814 O 355.752 1.52361 -0.982647 0
M  V30 3815 C 355.8 -0.941031 -3.48105 0
M  V30 3816 O 354.904 -0.0289472 -4.1239 0
M  V30 3817 H 354.245 -0.24692 -0.616382 0
M  V30 3818 H 356.775 -1.30396 -1.57664 0
M  V30 3819 H 356.785 -0.87452 -3.98517 0
M  V30 3820 H 355.46 -1.97939 -3.65777 0
M  V30 3821 H 354.037 -0.149192 -3.72601 0
M  V30 3822 N 356.222 1.38976 -0.743202 0
M  V30 3823 C 357.468 2.0064 -0.295189 0
M  V30 3824 C 357.801 1.5885 1.11716 0
M  V30 3825 O 357.076 0.821181 1.76315 0
M  V30 3826 C 357.359 3.578 -0.406318 0
M  V30 3827 C 357.212 4.09586 -1.85903 0
M  V30 3828 C 358.531 4.39616 0.206439 0
M  V30 3829 H 355.65 0.728935 -0.108733 0
M  V30 3830 H 358.292 1.65067 -0.940897 0
M  V30 3831 H 356.442 3.88235 0.143419 0
M  V30 3832 H 358.114 3.89837 -2.46627 0
M  V30 3833 H 356.357 3.6284 -2.3776 0
M  V30 3834 H 357.028 5.18708 -1.888 0
M  V30 3835 H 359.504 4.15273 -0.262283 0
M  V30 3836 H 358.38 5.48812 0.0983819 0
M  V30 3837 H 358.641 4.22754 1.2935 0
M  V30 3838 N 357.7 0.491464 1.49741 0
M  V30 3839 C 358.61 -0.296835 2.32715 0
M  V30 3840 C 359.626 -0.976536 1.44013 0
M  V30 3841 O 360.802 -0.960023 1.77047 0
M  V30 3842 C 357.867 -1.35288 3.19215 0
M  V30 3843 C 356.928 -0.687632 4.23757 0
M  V30 3844 C 356.161 -1.69336 5.06123 0
M  V30 3845 O 356.384 -2.92219 4.89861 0
M  V30 3846 O 355.318 -1.25394 5.88693 0
M  V30 3847 H 359.144 0.382048 3.01287 0
M  V30 3848 H 356.729 0.252953 1.47243 0
M  V30 3849 H 358.611 -1.96411 3.72828 0
M  V30 3850 H 357.286 -2.01487 2.53347 0
M  V30 3851 H 356.193 -0.0369159 3.74082 0
M  V30 3852 H 357.526 -0.0682566 4.92153 0
M  V30 3853 N 359.178 -1.55987 0.224894 0
M  V30 3854 C 360.427 -1.97566 -0.406273 0
M  V30 3855 C 360.74 -1.11569 -1.6066 0
M  V30 3856 O 361.946 -1.43062 -2.3075 0
M  V30 3857 C 360.402 -3.51474 -0.774207 0
M  V30 3858 C 360.01 -4.46179 0.403496 0
M  V30 3859 C 361.754 -4.01758 -1.37079 0
M  V30 3860 C 359.661 -5.91399 0.0129412 0
M  V30 3861 H 358.591 -0.737777 -0.155565 0
M  V30 3862 H 361.242 -1.80659 0.321635 0
M  V30 3863 H 359.624 -3.63994 -1.55963 0
M  V30 3864 H 360.798 -4.45409 1.18101 0
M  V30 3865 H 359.113 -4.06255 0.913536 0
M  V30 3866 H 361.71 -5.07756 -1.67596 0
M  V30 3867 H 362.053 -3.47805 -2.28773 0
M  V30 3868 H 362.586 -3.92475 -0.648733 0
M  V30 3869 H 359.325 -6.49341 0.896451 0
M  V30 3870 H 358.845 -5.95356 -0.728821 0
M  V30 3871 H 360.524 -6.45683 -0.412582 0
M  V30 3872 N 360.656 0.0484629 -1.57525 0
M  V30 3873 C 361.902 0.738854 -1.89506 0
M  V30 3874 C 362.257 1.73989 -0.821319 0
M  V30 3875 O 361.55 1.90825 0.172129 0
M  V30 3876 C 361.744 1.46632 -3.25935 0
M  V30 3877 C 361.573 0.537254 -4.46479 0
M  V30 3878 C 360.343 0.165484 -5.05029 0
M  V30 3879 C 362.541 -0.176085 -5.13998 0
M  V30 3880 N 360.523 -0.766868 -6.09091 0
M  V30 3881 C 361.894 -0.96478 -6.12448 0
M  V30 3882 C 363.949 -0.24509 -4.97296 0
M  V30 3883 C 362.652 -1.8161 -6.95996 0
M  V30 3884 C 364.678 -1.08347 -5.81391 0
M  V30 3885 C 364.04 -1.86014 -6.79395 0
M  V30 3886 H 360.139 0.245067 -0.742608 0
M  V30 3887 H 362.723 -0.000476161 -1.947 0
M  V30 3888 H 360.894 2.17623 -3.21706 0
M  V30 3889 H 362.626 2.10757 -3.45491 0
M  V30 3890 H 359.381 0.523466 -4.70698 0
M  V30 3891 H 359.805 -1.22698 -6.65788 0
M  V30 3892 H 364.447 0.341063 -4.21422 0
M  V30 3893 H 362.165 -2.41313 -7.71229 0
M  V30 3894 H 365.751 -1.14014 -5.70519 0
M  V30 3895 H 364.631 -2.4984 -7.43337 0
M  V30 3896 N 362.134 1.5431 0.320358 0
M  V30 3897 C 363.411 1.63322 1.07635 0
M  V30 3898 C 363.791 0.46912 2.05821 0
M  V30 3899 O 363.139 -0.536274 2.22118 0
M  V30 3900 C 363.349 3.00465 1.77544 0
M  V30 3901 C 364.697 3.56621 2.30449 0
M  V30 3902 O 365.721 3.02791 1.87606 0
M  V30 3903 O 364.58 4.5083 3.08892 0
M  V30 3904 H 361.674 0.661502 0.496331 0
M  V30 3905 H 364.22 1.66656 0.319992 0
M  V30 3906 H 362.992 3.76629 1.06143 0
M  V30 3907 H 362.615 3.00824 2.59982 0
M  V30 3908 N 363.613 -0.582584 1.46437 0
M  V30 3909 C 364.859 -1.34064 1.52965 0
M  V30 3910 C 365.214 -1.91566 0.178968 0
M  V30 3911 O 364.507 -1.73526 -0.812365 0
M  V30 3912 C 364.701 -2.48964 2.56421 0
M  V30 3913 C 364.53 -2.02717 4.01417 0
M  V30 3914 C 363.3 -1.87728 4.69134 0
M  V30 3915 C 365.498 -1.58675 4.8921 0
M  V30 3916 N 363.48 -1.35554 5.98747 0
M  V30 3917 C 364.851 -1.18093 6.08649 0
M  V30 3918 C 366.906 -1.46494 4.75861 0
M  V30 3919 C 365.609 -0.665427 7.16215 0
M  V30 3920 C 367.635 -0.96347 5.83499 0
M  V30 3921 C 366.997 -0.567432 7.02111 0
M  V30 3922 H 363.096 -0.483551 0.614575 0
M  V30 3923 H 365.68 -0.663309 1.83053 0
M  V30 3924 H 363.851 -3.1426 2.28244 0
M  V30 3925 H 365.583 -3.15913 2.52944 0
M  V30 3926 H 362.338 -2.09678 4.24655 0
M  V30 3927 H 362.762 -1.11628 6.67734 0
M  V30 3928 H 367.404 -1.75731 3.8455 0
M  V30 3929 H 365.122 -0.360639 8.07295 0
M  V30 3930 H 368.708 -0.873129 5.75211 0
M  V30 3931 H 367.588 -0.185389 7.83981 0
M  V30 3932 N 365.091 -1.34144 -0.827227 0
M  V30 3933 C 366.368 -1.16844 -1.56865 0
M  V30 3934 C 366.748 0.260654 -2.09485 0
M  V30 3935 O 366.096 1.26138 -1.9053 0
M  V30 3936 C 366.306 -2.21939 -2.6934 0
M  V30 3937 C 367.654 -2.56695 -3.3822 0
M  V30 3938 O 368.678 -2.20695 -2.79593 0
M  V30 3939 O 367.537 -3.18518 -4.44082 0
M  V30 3940 H 364.631 -0.452669 -0.692112 0
M  V30 3941 H 367.177 -1.45763 -0.868973 0
M  V30 3942 H 365.949 -3.17882 -2.28182 0
M  V30 3943 H 365.572 -1.94172 -3.46962 0
M  V30 3944 N 366.569 1.04691 -1.17803 0
M  V30 3945 C 367.985 1.29963 -0.926379 0
M  V30 3946 C 368.185 1.97251 0.411635 0
M  V30 3947 O 367.241 2.24922 1.14744 0
M  V30 3948 C 368.554 2.16447 -2.08737 0
M  V30 3949 C 370.102 2.29814 -2.12496 0
M  V30 3950 C 370.577 3.19661 -3.27995 0
M  V30 3951 N 372.068 3.27247 -3.27816 0
M  V30 3952 C 372.803 3.96906 -4.13827 0
M  V30 3953 N 372.299 4.6895 -5.09959 0
M  V30 3954 N 374.092 3.93122 -4.01761 0
M  V30 3955 H 366.243 0.594182 -2.0392 0
M  V30 3956 H 368.506 0.324649 -0.890678 0
M  V30 3957 H 368.212 1.74304 -3.05469 0
M  V30 3958 H 368.086 3.17103 -2.04268 0
M  V30 3959 H 370.473 2.71196 -1.16347 0
M  V30 3960 H 370.554 1.2877 -2.21025 0
M  V30 3961 H 370.198 2.78991 -4.24413 0
M  V30 3962 H 370.128 4.20722 -3.16703 0
M  V30 3963 H 372.619 2.75921 -2.58217 0
M  V30 3964 H 372.932 5.19679 -5.71974 0
M  V30 3965 H 371.277 4.67875 -5.13924 0
M  V30 3966 H 374.468 3.35967 -3.2595 0
M  V30 3967 H 374.641 4.47139 -4.6901 0
M  V30 3968 N 368.047 0.979072 1.23499 0
M  V30 3969 C 369.275 0.665202 1.95915 0
M  V30 3970 C 369.69 -0.767571 1.72493 0
M  V30 3971 O 369.047 -1.51635 1.01554 0
M  V30 3972 C 369.098 0.944438 3.48945 0
M  V30 3973 O 368.819 2.3209 3.71572 0
M  V30 3974 C 370.32 0.646336 4.38563 0
M  V30 3975 H 367.54 0.247218 0.623798 0
M  V30 3976 H 370.084 1.31009 1.57025 0
M  V30 3977 H 368.239 0.345575 3.85856 0
M  V30 3978 H 368.653 2.40957 4.65876 0
M  V30 3979 H 370.127 0.892091 5.44744 0
M  V30 3980 H 370.604 -0.419575 4.37191 0
M  V30 3981 H 371.21 1.22562 4.07258 0
M  V30 3982 N 369.525 -1.3858 0.750561 0
M  V30 3983 C 370.753 -2.04471 0.316098 0
M  V30 3984 C 371.168 -1.56606 -1.05452 0
M  V30 3985 O 370.525 -0.737784 -1.66922 0
M  V30 3986 C 370.576 -3.60025 0.326275 0
M  V30 3987 O 370.297 -4.06133 1.6428 0
M  V30 3988 C 371.798 -4.43131 -0.122429 0
M  V30 3989 H 369.018 -0.65717 0.135528 0
M  V30 3990 H 371.562 -1.77329 1.01857 0
M  V30 3991 H 369.717 -3.86014 -0.327431 0
M  V30 3992 H 370.131 -5.00547 1.56693 0
M  V30 3993 H 371.605 -5.51963 -0.0641473 0
M  V30 3994 H 372.082 -4.23333 -1.16988 0
M  V30 3995 H 372.688 -4.22323 0.50229 0
M  V30 3996 N 371.003 -0.499398 -1.49478 0
M  V30 3997 C 372.419 -0.155261 -1.58843 0
M  V30 3998 C 372.619 1.34008 -1.50479 0
M  V30 3999 O 371.675 2.11589 -1.37791 0
M  V30 4000 C 372.988 -0.730636 -2.91689 0
M  V30 4001 C 374.536 -0.696599 -3.0515 0
M  V30 4002 C 375.011 -1.25001 -4.40612 0
M  V30 4003 N 376.502 -1.21064 -4.47099 0
M  V30 4004 C 377.237 -1.60905 -5.50361 0
M  V30 4005 N 376.733 -2.08331 -6.60735 0
M  V30 4006 N 378.526 -1.52331 -5.41065 0
M  V30 4007 H 370.677 -1.47162 -1.53158 0
M  V30 4008 H 372.94 -0.610309 -0.725415 0
M  V30 4009 H 372.646 -1.77928 -3.03372 0
M  V30 4010 H 372.52 -0.190161 -3.7672 0
M  V30 4011 H 374.907 0.343204 -2.93097 0
M  V30 4012 H 374.988 -1.2742 -2.21806 0
M  V30 4013 H 374.632 -2.28859 -4.53416 0
M  V30 4014 H 374.562 -0.64836 -5.22593 0
M  V30 4015 H 377.053 -0.863128 -3.67911 0
M  V30 4016 H 377.366 -2.36805 -7.35624 0
M  V30 4017 H 375.711 -2.12304 -6.6178 0
M  V30 4018 H 378.902 -1.151 -4.53729 0
M  V30 4019 H 379.075 -1.83704 -6.21415 0
M  V30 4020 N 372.481 1.55866 -0.233164 0
M  V30 4021 C 373.429 2.22176 0.68851 0
M  V30 4022 C 374.423 1.20487 1.19076 0
M  V30 4023 O 375.629 1.38536 1.14925 0
M  V30 4024 H 372.004 0.712511 0.240483 0
M  V30 4025 H 373.975 2.98212 0.105935 0
M  V30 4026 C 372.724 2.92446 1.88071 0
M  V30 4027 H 372.047 3.70458 1.50337 0
M  V30 4028 H 373.487 3.42226 2.50314 0
M  V30 4029 C 371.946 1.95555 2.74335 0
M  V30 4030 O 372.476 1.47986 3.73447 0
M  V30 4031 N 370.682 1.62953 2.40613 0
M  V30 4032 H 370.229 2.01831 1.60069 0
M  V30 4033 H 370.187 0.983886 2.98609 0
M  V30 4034 N 373.959 -0.0401083 1.57549 0
M  V30 4035 C 375.236 -0.767917 1.79896 0
M  V30 4036 C 375.616 -1.9416 0.82856 0
M  V30 4037 O 374.964 -2.2812 -0.131671 0
M  V30 4038 C 375.174 -1.2113 3.27305 0
M  V30 4039 C 376.522 -1.63175 3.91994 0
M  V30 4040 O 377.546 -1.30616 3.31388 0
M  V30 4041 O 376.405 -2.23565 4.98679 0
M  V30 4042 H 373.499 -0.370441 0.739393 0
M  V30 4043 H 376.045 -0.017737 1.69691 0
M  V30 4044 H 374.817 -0.372937 3.89519 0
M  V30 4045 H 374.44 -2.02183 3.42356 0
M  V30 4046 N 375.437 -1.54477 -0.31217 0
M  V30 4047 C 376.684 -1.73227 -1.04875 0
M  V30 4048 C 377.012 -0.512042 -1.87639 0
M  V30 4049 O 376.267 0.506131 -1.89042 0
M  V30 4050 C 376.566 -2.967 -1.99258 0
M  V30 4051 C 376.232 -4.30974 -1.32559 0
M  V30 4052 C 374.894 -4.67477 -1.141 0
M  V30 4053 C 377.246 -5.14258 -0.847835 0
M  V30 4054 C 374.574 -5.84852 -0.465326 0
M  V30 4055 C 376.926 -6.32327 -0.185931 0
M  V30 4056 C 375.59 -6.67499 0.0107077 0
M  V30 4057 H 374.86 -0.633881 -0.383765 0
M  V30 4058 H 377.507 -1.88727 -0.324731 0
M  V30 4059 H 375.812 -2.75935 -2.7815 0
M  V30 4060 H 377.509 -3.08401 -2.563 0
M  V30 4061 H 374.099 -4.02262 -1.4793 0
M  V30 4062 H 378.283 -4.86565 -0.978192 0
M  V30 4063 H 373.539 -6.10654 -0.301883 0
M  V30 4064 H 377.713 -6.96135 0.192211 0
M  V30 4065 H 375.34 -7.58306 0.536287 0
M  V30 4066 N 376.915 0.57481 -1.46744 0
M  V30 4067 C 377.848 1.69827 -1.52427 0
M  V30 4068 C 378.826 1.58151 -0.377744 0
M  V30 4069 O 380.01 1.79257 -0.58303 0
M  V30 4070 C 377.137 3.07943 -1.41027 0
M  V30 4071 C 376.183 3.38116 -2.59961 0
M  V30 4072 S 377.016 3.29313 -4.22272 0
M  V30 4073 C 378.172 4.69953 -4.13394 0
M  V30 4074 H 378.405 1.64748 -2.47478 0
M  V30 4075 H 375.938 0.754203 -1.34726 0
M  V30 4076 H 377.896 3.87619 -1.35137 0
M  V30 4077 H 376.557 3.10504 -0.473909 0
M  V30 4078 H 375.75 4.38762 -2.47999 0
M  V30 4079 H 375.352 2.66024 -2.62882 0
M  V30 4080 H 377.644 5.60517 -3.80562 0
M  V30 4081 H 378.587 4.86972 -5.14066 0
M  V30 4082 H 378.995 4.47174 -3.44522 0
M  V30 4083 N 378.394 1.34581 0.820102 0
M  V30 4084 C 379.642 1.26845 1.57336 0
M  V30 4085 C 379.963 -0.160667 1.94337 0
M  V30 4086 O 379.233 -1.09396 1.6251 0
M  V30 4087 H 377.813 0.466514 0.583415 0
M  V30 4088 H 380.475 1.68526 0.979027 0
M  V30 4089 H 379.571 1.87513 2.4949 0
M  V30 4090 N 379.872 -1.04064 1.18357 0
M  V30 4091 C 381.097 -1.81454 1.00445 0
M  V30 4092 C 381.522 -1.82823 -0.442423 0
M  V30 4093 O 380.88 -1.24555 -1.31741 0
M  V30 4094 C 380.928 -3.24925 1.56384 0
M  V30 4095 O 380.032 -4.04856 0.785209 0
M  V30 4096 H 379.373 -0.560604 0.355835 0
M  V30 4097 H 381.903 -1.31059 1.57114 0
M  V30 4098 H 381.913 -3.75702 1.59097 0
M  V30 4099 H 380.588 -3.23244 2.61699 0
M  V30 4100 H 379.165 -3.63537 0.830399 0
M  V30 4101 N 381.35 -0.985608 -1.22978 0
M  V30 4102 C 382.28 -0.549649 -2.26939 0
M  V30 4103 C 383.261 0.419803 -1.64838 0
M  V30 4104 O 384.446 0.31203 -1.91677 0
M  V30 4105 C 381.576 0.143652 -3.47003 0
M  V30 4106 C 380.53 -0.743606 -4.21491 0
M  V30 4107 C 379.856 0.0822027 -5.34637 0
M  V30 4108 C 381.156 -2.03694 -4.80943 0
M  V30 4109 H 382.85 -1.41862 -2.63658 0
M  V30 4110 H 380.396 -0.683571 -1.26741 0
M  V30 4111 H 382.349 0.459985 -4.18882 0
M  V30 4112 H 381.073 1.04711 -3.09359 0
M  V30 4113 H 379.732 -1.04347 -3.51436 0
M  V30 4114 H 379.38 0.986359 -4.93234 0
M  V30 4115 H 379.08 -0.508377 -5.85397 0
M  V30 4116 H 380.604 0.392797 -6.09335 0
M  V30 4117 H 382.018 -1.78504 -5.44802 0
M  V30 4118 H 380.415 -2.57573 -5.42011 0
M  V30 4119 H 381.485 -2.72042 -4.01399 0
M  V30 4120 N 382.828 1.3818 -0.7579 0
M  V30 4121 C 384.053 2.04827 -0.325679 0
M  V30 4122 C 384.478 1.56788 1.03919 0
M  V30 4123 O 383.836 0.721811 1.66312 0
M  V30 4124 C 383.884 3.58774 -0.362447 0
M  V30 4125 O 382.988 4.07372 0.642033 0
M  V30 4126 H 382.329 0.64833 -0.143402 0
M  V30 4127 H 384.859 1.7677 -1.03023 0
M  V30 4128 H 384.869 4.07434 -0.214844 0
M  V30 4129 H 383.544 3.93096 -1.35824 0
M  V30 4130 H 382.121 3.70068 0.458688 0
M  V30 4131 N 384.306 0.507319 1.49211 0
M  V30 4132 C 385.553 -0.0349529 2.0247 0
M  V30 4133 C 385.881 -1.36409 1.38647 0
M  V30 4134 O 385.136 -1.88841 0.513566 0
M  V30 4135 C 385.435 -0.229513 3.56662 0
M  V30 4136 C 385.101 1.02241 4.39156 0
M  V30 4137 C 383.763 1.36557 4.61417 0
M  V30 4138 C 386.115 1.85428 4.871 0
M  V30 4139 C 383.443 2.53999 5.28868 0
M  V30 4140 C 385.795 3.02028 5.55843 0
M  V30 4141 C 384.459 3.36717 5.76349 0
M  V30 4142 H 383.729 -0.0127902 0.74089 0
M  V30 4143 H 386.376 0.668756 1.79443 0
M  V30 4144 H 384.681 -1.0158 3.78403 0
M  V30 4145 H 386.378 -0.663641 3.9547 0
M  V30 4146 H 382.968 0.745124 4.22073 0
M  V30 4147 H 387.152 1.6023 4.69723 0
M  V30 4148 H 382.408 2.81105 5.42946 0
M  V30 4149 H 386.582 3.66808 5.91967 0
M  V30 4150 H 384.209 4.27821 6.28389 0
M  V30 4151 N 385.784 -1.5574 0.241426 0
M  V30 4152 C 387.032 -1.98417 -0.384075 0
M  V30 4153 C 387.353 -1.13078 -1.58866 0
M  V30 4154 O 386.623 -0.212312 -1.94746 0
M  V30 4155 H 385.203 -0.732813 -0.144894 0
M  V30 4156 H 387.865 -1.9193 0.338943 0
M  V30 4157 H 386.961 -3.04219 -0.696939 0
M  V30 4158 N 387.262 0.0317525 -1.57568 0
M  V30 4159 C 388.508 0.724175 -1.8943 0
M  V30 4160 C 388.841 1.75149 -0.838836 0
M  V30 4161 O 388.116 1.93948 0.146422 0
M  V30 4162 C 388.399 1.39615 -3.31933 0
M  V30 4163 C 388.252 0.382537 -4.4817 0
M  V30 4164 C 389.571 2.33084 -3.73309 0
M  V30 4165 H 386.69 0.261797 -0.688935 0
M  V30 4166 H 389.332 -0.013017 -1.89996 0
M  V30 4167 H 387.482 2.02451 -3.31581 0
M  V30 4168 H 389.154 -0.243689 -4.60656 0
M  V30 4169 H 387.397 -0.29844 -4.32772 0
M  V30 4170 H 388.068 0.891145 -5.44759 0
M  V30 4171 H 390.544 1.80295 -3.7501 0
M  V30 4172 H 389.42 2.77084 -4.73831 0
M  V30 4173 H 389.681 3.19643 -3.05419 0
M  V30 4174 N 388.74 1.54641 0.303973 0
M  V30 4175 C 389.965 1.78092 1.06292 0
M  V30 4176 C 390.39 0.537342 1.80262 0
M  V30 4177 O 389.748 -0.511993 1.7392 0
M  V30 4178 C 389.796 2.98612 2.02147 0
M  V30 4179 O 388.9 2.71528 3.10397 0
M  V30 4180 H 388.241 0.589548 0.305497 0
M  V30 4181 H 390.771 2.01716 0.3423 0
M  V30 4182 H 390.781 3.265 2.44667 0
M  V30 4183 H 389.456 3.88785 1.47714 0
M  V30 4184 H 388.033 2.54648 2.72413 0
M  V30 4185 N 390.218 -0.567019 1.47046 0
M  V30 4186 C 391.128 -1.70247 1.6141 0
M  V30 4187 C 392.144 -1.66746 0.497157 0
M  V30 4188 O 393.32 -1.86371 0.763389 0
M  V30 4189 C 390.385 -3.06756 1.61561 0
M  V30 4190 C 389.446 -3.21399 2.84607 0
M  V30 4191 C 388.679 -4.51396 2.84741 0
M  V30 4192 O 388.902 -5.36255 1.94388 0
M  V30 4193 O 387.836 -4.69621 3.76483 0
M  V30 4194 H 391.662 -1.61073 2.57467 0
M  V30 4195 H 389.247 -0.735894 1.30019 0
M  V30 4196 H 391.129 -3.8801 1.64396 0
M  V30 4197 H 389.804 -3.16333 0.686684 0
M  V30 4198 H 388.711 -2.39579 2.8732 0
M  V30 4199 H 390.044 -3.16721 3.76761 0
M  V30 4200 N 391.696 -1.35014 -0.812953 0
M  V30 4201 C 392.626 -1.30069 -1.93919 0
M  V30 4202 C 393.607 -0.176275 -1.69184 0
M  V30 4203 O 394.792 -0.370227 -1.90638 0
M  V30 4204 C 391.922 -1.06547 -3.30552 0
M  V30 4205 C 390.876 -2.15561 -3.69753 0
M  V30 4206 C 390.202 -1.77214 -5.04479 0
M  V30 4207 C 391.502 -3.57476 -3.808 0
M  V30 4208 H 393.196 -2.24303 -1.98314 0
M  V30 4209 H 390.742 -1.07977 -0.952736 0
M  V30 4210 H 392.695 -1.01729 -4.08937 0
M  V30 4211 H 391.419 -0.0875719 -3.26483 0
M  V30 4212 H 390.078 -2.19466 -2.9365 0
M  V30 4213 H 389.726 -0.780589 -4.96906 0
M  V30 4214 H 389.426 -2.50184 -5.31678 0
M  V30 4215 H 390.95 -1.7391 -5.8531 0
M  V30 4216 H 392.364 -3.55929 -4.4943 0
M  V30 4217 H 390.761 -4.29152 -4.19462 0
M  V30 4218 H 391.831 -3.94091 -2.82525 0
M  V30 4219 N 393.175 1.03435 -1.18907 0
M  V30 4220 C 394.108 2.11162 -0.86521 0
M  V30 4221 C 395.086 1.6165 0.175473 0
M  V30 4222 O 396.27 1.88425 0.0530129 0
M  V30 4223 C 393.397 3.37423 -0.293868 0
M  V30 4224 C 392.443 4.05795 -1.31274 0
M  V30 4225 S 393.276 4.52027 -2.8711 0
M  V30 4226 C 394.432 5.81513 -2.31504 0
M  V30 4227 H 394.665 2.38308 -1.77754 0
M  V30 4228 H 392.198 1.16295 -1.01562 0
M  V30 4229 H 394.156 4.1049 0.0292572 0
M  V30 4230 H 392.817 3.0838 0.596682 0
M  V30 4231 H 392.01 4.96574 -0.86198 0
M  V30 4232 H 391.612 3.38874 -1.58242 0
M  V30 4233 H 393.904 6.55784 -1.70157 0
M  V30 4234 H 394.847 6.3136 -3.20608 0
M  V30 4235 H 395.255 5.36921 -1.74286 0
M  V30 4236 N 394.653 0.992116 1.22453 0
M  V30 4237 C 395.6 0.541731 2.24352 0
M  V30 4238 C 396.57 -0.425519 1.60557 0
M  V30 4239 O 397.755 -0.330453 1.87917 0
M  V30 4240 C 394.895 -0.138248 3.44823 0
M  V30 4241 C 394.008 0.870649 4.23136 0
M  V30 4242 C 393.143 0.164269 5.30946 0
M  V30 4243 C 392.182 1.16159 6.00977 0
M  V30 4244 N 391.319 0.483568 7.00433 0
M  V30 4245 H 396.159 1.41541 2.62241 0
M  V30 4246 H 393.696 0.709013 1.28885 0
M  V30 4247 H 395.654 -0.5494 4.13567 0
M  V30 4248 H 394.284 -0.975721 3.077 0
M  V30 4249 H 393.336 1.40013 3.53696 0
M  V30 4250 H 394.648 1.63014 4.7141 0
M  V30 4251 H 393.802 -0.303653 6.0594 0
M  V30 4252 H 392.541 -0.627733 4.83643 0
M  V30 4253 H 391.546 1.64015 5.24766 0
M  V30 4254 H 392.771 1.95445 6.50368 0
M  V30 4255 H 390.717 -0.289012 6.55363 0
M  V30 4256 H 390.634 1.18152 7.4671 0
M  V30 4257 H 391.902 0.0384219 7.79491 0
M  V30 4258 N 396.131 -1.37776 0.765217 0
M  V30 4259 C 397.064 -2.28008 0.0935025 0
M  V30 4260 C 398.042 -1.45985 -0.716047 0
M  V30 4261 O 399.226 -1.75331 -0.692203 0
M  V30 4262 C 396.353 -3.27228 -0.874052 0
M  V30 4263 C 395.399 -4.26239 -0.149307 0
M  V30 4264 S 396.232 -5.22827 1.15809 0
M  V30 4265 C 397.388 -6.256 0.193906 0
M  V30 4266 H 397.621 -2.84631 0.858637 0
M  V30 4267 H 395.154 -1.43952 0.558313 0
M  V30 4268 H 397.112 -3.84902 -1.42691 0
M  V30 4269 H 395.773 -2.69565 -1.61225 0
M  V30 4270 H 394.966 -4.96213 -0.88254 0
M  V30 4271 H 394.568 -3.7252 0.332366 0
M  V30 4272 H 396.86 -6.74508 -0.636011 0
M  V30 4273 H 397.803 -7.02838 0.861638 0
M  V30 4274 H 398.211 -5.64173 -0.191975 0
M  V30 4275 N 397.609 -0.515225 -1.4894 0
M  V30 4276 C 399.02 -0.0710067 -1.86565 0
M  V30 4277 C 399.371 1.34733 -1.42623 0
M  V30 4278 O 398.496 2.00653 -0.810379 0
M  V30 4279 C 399.091 -0.122083 -3.3858 0
M  V30 4280 C 397.65 0.266863 -3.75453 0
M  V30 4281 C 396.797 -0.488376 -2.72966 0
M  V30 4282 H 399.748 -0.727266 -1.41055 0
M  V30 4283 H 399.769 0.669818 -3.74558 0
M  V30 4284 H 399.281 -1.15448 -3.70531 0
M  V30 4285 H 397.382 1.30196 -3.49113 0
M  V30 4286 H 397.495 -0.0624811 -4.79059 0
M  V30 4287 H 395.859 0.0635622 -2.54621 0
M  V30 4288 H 396.642 -1.52113 -3.07761 0
M  V30 4289 N 399.087 1.5561 -0.249682 0
M  V30 4290 C 400.05 2.20217 0.635394 0
M  V30 4291 C 401.05 1.17227 1.10066 0
M  V30 4292 O 402.24 1.42292 1.00492 0
M  V30 4293 C 399.372 2.84794 1.87363 0
M  V30 4294 H 400.565 2.99814 0.0716752 0
M  V30 4295 H 398.118 1.563 -0.000153234 0
M  V30 4296 H 398.853 2.09142 2.47851 0
M  V30 4297 H 398.638 3.60241 1.5482 0
M  V30 4298 H 400.128 3.3423 2.5036 0
M  V30 4299 N 400.565 -0.0233959 1.57583 0
M  V30 4300 C 401.79 -0.728376 1.94189 0
M  V30 4301 C 402.215 -1.67793 0.850119 0
M  V30 4302 O 401.573 -1.80262 -0.19371 0
M  V30 4303 C 401.621 -1.45669 3.29868 0
M  V30 4304 O 400.725 -2.57013 3.22518 0
M  V30 4305 H 400.066 -0.195493 0.63457 0
M  V30 4306 H 402.596 0.0228214 2.04587 0
M  V30 4307 H 402.606 -1.82535 3.6489 0
M  V30 4308 H 401.281 -0.760314 4.08891 0
M  V30 4309 H 399.858 -2.22648 2.99136 0
M  V30 4310 N 402.043 -1.548 -0.295768 0
M  V30 4311 C 403.291 -1.73985 -1.02828 0
M  V30 4312 C 403.612 -0.531406 -1.87619 0
M  V30 4313 O 402.882 0.454221 -1.90561 0
M  V30 4314 H 401.462 -0.641556 -0.382642 0
M  V30 4315 H 404.124 -1.92163 -0.325489 0
M  V30 4316 H 403.22 -2.63129 -1.67838 0
M  V30 4317 N 403.521 0.559213 -1.47345 0
M  V30 4318 C 404.767 1.31614 -1.55079 0
M  V30 4319 C 405.122 1.91257 -0.209422 0
M  V30 4320 O 404.415 1.74796 0.784656 0
M  V30 4321 C 404.609 2.44853 -2.6035 0
M  V30 4322 C 404.438 1.96305 -4.04591 0
M  V30 4323 C 403.208 1.8024 -4.72061 0
M  V30 4324 C 405.406 1.50872 -4.91673 0
M  V30 4325 N 403.388 1.26011 -6.00828 0
M  V30 4326 C 404.759 1.08395 -6.10451 0
M  V30 4327 C 406.814 1.38905 -4.78132 0
M  V30 4328 C 405.517 0.551399 -7.17183 0
M  V30 4329 C 407.543 0.870518 -5.84958 0
M  V30 4330 C 406.905 0.455661 -7.02925 0
M  V30 4331 H 403.004 0.473712 -0.62219 0
M  V30 4332 H 405.588 0.634103 -1.84085 0
M  V30 4333 H 403.759 3.10589 -2.33215 0
M  V30 4334 H 405.491 3.11849 -2.57938 0
M  V30 4335 H 402.246 2.02895 -4.27937 0
M  V30 4336 H 402.67 1.00991 -6.69425 0
M  V30 4337 H 407.312 1.69591 -3.87297 0
M  V30 4338 H 405.03 0.232159 -8.07766 0
M  V30 4339 H 408.616 0.781507 -5.76527 0
M  V30 4340 H 407.496 0.0606414 -7.84177 0
M  V30 4341 N 404.999 1.35443 0.805782 0
M  V30 4342 C 406.229 1.31687 1.59192 0
M  V30 4343 C 406.637 -0.10756 1.88894 0
M  V30 4344 O 405.98 -1.07017 1.49309 0
M  V30 4345 C 406.042 2.05686 2.94845 0
M  V30 4346 C 405.706 3.54868 2.87954 0
M  V30 4347 C 406.703 4.49444 2.61335 0
M  V30 4348 C 404.388 3.97528 3.07046 0
M  V30 4349 C 406.382 5.84655 2.53885 0
M  V30 4350 C 404.069 5.32833 2.99219 0
M  V30 4351 C 405.067 6.26209 2.72674 0
M  V30 4352 O 404.755 7.59032 2.64811 0
M  V30 4353 H 404.487 0.453878 0.50097 0
M  V30 4354 H 407.041 1.78892 1.0093 0
M  V30 4355 H 405.271 1.5312 3.55093 0
M  V30 4356 H 406.96 1.94998 3.55993 0
M  V30 4357 H 407.726 4.17804 2.46303 0
M  V30 4358 H 403.605 3.25233 3.26718 0
M  V30 4359 H 407.149 6.57508 2.33086 0
M  V30 4360 H 403.046 5.64087 3.13809 0
M  V30 4361 H 403.814 7.68967 2.80413 0
M  V30 4362 N 406.477 -1.02803 1.19454 0
M  V30 4363 C 407.424 -2.11099 0.933046 0
M  V30 4364 C 408.394 -1.65571 -0.132447 0
M  V30 4365 O 409.579 -1.90797 0.00987576 0
M  V30 4366 C 406.719 -3.41763 0.478747 0
M  V30 4367 C 405.832 -4.00833 1.6111 0
M  V30 4368 C 404.967 -5.19511 1.10825 0
M  V30 4369 C 404.006 -5.70639 2.21445 0
M  V30 4370 N 403.143 -6.80589 1.72461 0
M  V30 4371 H 407.983 -2.32804 1.86028 0
M  V30 4372 H 405.52 -1.14179 0.927441 0
M  V30 4373 H 407.478 -4.16736 0.196745 0
M  V30 4374 H 406.108 -3.20166 -0.411493 0
M  V30 4375 H 405.16 -3.23066 2.00829 0
M  V30 4376 H 406.472 -4.34794 2.4445 0
M  V30 4377 H 405.626 -6.01645 0.781533 0
M  V30 4378 H 404.365 -4.87086 0.244606 0
M  V30 4379 H 403.37 -4.87116 2.54947 0
M  V30 4380 H 404.595 -6.05102 3.08267 0
M  V30 4381 H 402.541 -6.50016 0.884056 0
M  V30 4382 H 402.458 -7.13681 2.49389 0
M  V30 4383 H 403.726 -7.66317 1.42755 0
M  V30 4384 N 407.956 -0.998596 -1.21925 0
M  V30 4385 C 408.886 -0.573688 -2.26343 0
M  V30 4386 C 409.867 0.402296 -1.65274 0
M  V30 4387 O 411.052 0.291683 -1.91997 0
M  V30 4388 C 408.182 0.106839 -3.47136 0
M  V30 4389 C 407.136 -0.788269 -4.20678 0
M  V30 4390 C 406.462 0.0254927 -5.34694 0
M  V30 4391 C 407.762 -2.08784 -4.78755 0
M  V30 4392 H 409.456 -1.44651 -2.62138 0
M  V30 4393 H 407.002 -0.696975 -1.26009 0
M  V30 4394 H 408.955 0.415531 -4.19346 0
M  V30 4395 H 407.679 1.01424 -3.10452 0
M  V30 4396 H 406.338 -1.08069 -3.50309 0
M  V30 4397 H 405.986 0.933989 -4.94253 0
M  V30 4398 H 405.686 -0.570437 -5.84825 0
M  V30 4399 H 407.21 0.328147 -6.09718 0
M  V30 4400 H 408.624 -1.84272 -5.42878 0
M  V30 4401 H 407.021 -2.63307 -5.39249 0
M  V30 4402 H 408.091 -2.76284 -3.98491 0
M  V30 4403 N 409.434 1.37368 -0.772513 0
M  V30 4404 C 410.364 2.32856 -0.173304 0
M  V30 4405 C 411.345 1.55818 0.682262 0
M  V30 4406 O 412.53 1.84052 0.619566 0
M  V30 4407 C 409.66 3.40048 0.706007 0
M  V30 4408 C 408.614 4.27973 -0.0483144 0
M  V30 4409 C 407.94 5.26184 0.950491 0
M  V30 4410 C 409.24 5.07665 -1.22776 0
M  V30 4411 H 410.934 2.83217 -0.971002 0
M  V30 4412 H 408.48 1.3617 -0.468377 0
M  V30 4413 H 410.433 4.05827 1.13501 0
M  V30 4414 H 409.157 2.88214 1.53623 0
M  V30 4415 H 407.816 3.63726 -0.458107 0
M  V30 4416 H 407.464 4.7063 1.77529 0
M  V30 4417 H 407.164 5.85872 0.450314 0
M  V30 4418 H 408.688 5.94838 1.37842 0
M  V30 4419 H 410.102 5.66578 -0.875366 0
M  V30 4420 H 408.499 5.76681 -1.66007 0
M  V30 4421 H 409.569 4.40294 -2.03149 0
M  V30 4422 N 410.912 0.523116 1.48665 0
M  V30 4423 C 411.86 -0.256859 2.31177 0
M  V30 4424 C 412.854 -0.94199 1.40794 0
M  V30 4425 O 414.06 -0.867157 1.57735 0
M  V30 4426 H 410.435 -0.1017 0.745091 0
M  V30 4427 H 412.406 0.458739 2.94853 0
M  V30 4428 C 411.155 -1.29503 3.22683 0
M  V30 4429 H 410.478 -0.777248 3.92172 0
M  V30 4430 H 411.918 -1.81233 3.83315 0
M  V30 4431 C 410.377 -2.32501 2.43813 0
M  V30 4432 O 410.907 -3.3881 2.15803 0
M  V30 4433 N 409.113 -2.05538 2.05432 0
M  V30 4434 H 408.66 -1.19104 2.28412 0
M  V30 4435 H 408.618 -2.74676 1.52973 0
M  V30 4436 N 412.39 -1.55475 0.257931 0
M  V30 4437 C 413.322 -2.19192 -0.669881 0
M  V30 4438 C 414.335 -1.17148 -1.1305 0
M  V30 4439 O 415.524 -1.43959 -1.05537 0
M  V30 4440 C 412.624 -2.79016 -1.92363 0
M  V30 4441 C 411.797 -4.06586 -1.61265 0
M  V30 4442 C 410.856 -4.50622 -2.7171 0
M  V30 4443 O 409.882 -5.16765 -2.38627 0
M  V30 4444 N 411.084 -4.19325 -4.01431 0
M  V30 4445 H 413.849 -2.99441 -0.124635 0
M  V30 4446 H 411.41 -1.6171 0.0783311 0
M  V30 4447 H 413.402 -3.05427 -2.65511 0
M  V30 4448 H 411.972 -2.0286 -2.37837 0
M  V30 4449 H 411.192 -3.87646 -0.715811 0
M  V30 4450 H 412.48 -4.89737 -1.37967 0
M  V30 4451 H 411.878 -3.66247 -4.31138 0
M  V30 4452 H 410.435 -4.50547 -4.7101 0
M  V30 4453 N 413.868 0.0150385 -1.57593 0
M  V30 4454 C 414.778 1.02791 -2.10882 0
M  V30 4455 C 415.794 1.38702 -1.0506 0
M  V30 4456 O 416.97 1.47739 -1.36877 0
M  V30 4457 C 414.035 2.30568 -2.58919 0
M  V30 4458 C 413.096 2.01108 -3.79281 0
M  V30 4459 C 412.329 3.22794 -4.25018 0
M  V30 4460 O 412.552 4.33959 -3.70183 0
M  V30 4461 O 411.486 3.07672 -5.17322 0
M  V30 4462 H 415.312 0.604973 -2.97613 0
M  V30 4463 H 412.897 0.23292 -1.47573 0
M  V30 4464 H 414.779 3.05662 -2.90084 0
M  V30 4465 H 413.454 2.72129 -1.75293 0
M  V30 4466 H 412.361 1.23537 -3.53114 0
M  V30 4467 H 413.694 1.64394 -4.63935 0
M  V30 4468 N 415.346 1.54954 0.287554 0
M  V30 4469 C 416.256 1.8991 1.37736 0
M  V30 4470 C 417.272 0.794701 1.54792 0
M  V30 4471 O 418.448 1.09243 1.69198 0
M  V30 4472 C 415.513 2.15108 2.71899 0
M  V30 4473 C 414.574 3.38752 2.63715 0
M  V30 4474 C 413.807 3.62739 3.91479 0
M  V30 4475 O 414.03 2.89492 4.91478 0
M  V30 4476 O 412.964 4.56267 3.92561 0
M  V30 4477 H 416.79 2.82652 1.11092 0
M  V30 4478 H 414.375 1.41315 0.484807 0
M  V30 4479 H 416.257 2.32806 3.51254 0
M  V30 4480 H 414.932 1.25551 2.9836 0
M  V30 4481 H 413.839 3.26405 1.82786 0
M  V30 4482 H 415.172 4.28483 2.42205 0
M  V30 4483 N 416.824 -0.551391 1.4764 0
M  V30 4484 C 418.072 -1.30572 1.54258 0
M  V30 4485 C 418.393 -1.93877 0.208963 0
M  V30 4486 O 417.663 -1.80234 -0.767619 0
M  V30 4487 H 416.243 -0.484894 0.568231 0
M  V30 4488 H 418.905 -0.643402 1.83974 0
M  V30 4489 H 418.001 -2.09621 2.31226 0
M  V30 4490 N 418.302 -1.35869 -0.798587 0
M  V30 4491 C 419.212 -1.31578 -1.94228 0
M  V30 4492 C 420.228 -0.21939 -1.72611 0
M  V30 4493 O 421.404 -0.450167 -1.96305 0
M  V30 4494 C 418.469 -1.09528 -3.28944 0
M  V30 4495 C 417.53 -2.28556 -3.63402 0
M  V30 4496 C 416.763 -2.07549 -4.9169 0
M  V30 4497 O 416.986 -1.046 -5.60727 0
M  V30 4498 O 415.92 -2.95106 -5.24591 0
M  V30 4499 H 419.746 -2.27847 -2.00796 0
M  V30 4500 H 417.331 -1.16322 -0.937526 0
M  V30 4501 H 419.213 -0.991127 -4.09579 0
M  V30 4502 H 417.888 -0.16315 -3.23289 0
M  V30 4503 H 416.795 -2.44538 -2.83112 0
M  V30 4504 H 418.128 -3.20244 -3.73771 0
M  V30 4505 N 419.78 1.02168 -1.19998 0
M  V30 4506 C 421.01 1.79036 -1.031 0
M  V30 4507 C 421.418 1.84409 0.423078 0
M  V30 4508 O 420.761 1.29228 1.30559 0
M  V30 4509 C 420.823 3.25185 -1.53281 0
M  V30 4510 C 420.487 3.43431 -3.01503 0
M  V30 4511 C 421.484 3.33063 -3.99206 0
M  V30 4512 C 419.169 3.69412 -3.40353 0
M  V30 4513 C 421.163 3.48413 -5.33748 0
M  V30 4514 C 418.85 3.84406 -4.75053 0
M  V30 4515 C 419.848 3.7391 -5.71559 0
M  V30 4516 O 419.536 3.88452 -7.03818 0
M  V30 4517 H 419.268 0.570043 -0.363355 0
M  V30 4518 H 421.822 1.29524 -1.59414 0
M  V30 4519 H 420.052 3.75756 -0.913483 0
M  V30 4520 H 421.741 3.83671 -1.32481 0
M  V30 4521 H 422.507 3.12934 -3.70537 0
M  V30 4522 H 418.386 3.76671 -2.65782 0
M  V30 4523 H 421.93 3.40137 -6.09059 0
M  V30 4524 H 417.827 4.04035 -5.03415 0
M  V30 4525 H 418.595 4.055 -7.10993 0
M  V30 4526 N 421.258 1.00505 1.21394 0
M  V30 4527 C 422.488 0.705584 1.94178 0
M  V30 4528 C 422.896 -0.735846 1.74304 0
M  V30 4529 O 422.239 -1.50954 1.04683 0
M  V30 4530 C 422.301 0.94689 3.46806 0
M  V30 4531 C 421.965 2.37517 3.90429 0
M  V30 4532 C 422.962 3.35539 3.97127 0
M  V30 4533 C 420.647 2.71284 4.22742 0
M  V30 4534 C 422.641 4.65395 4.3553 0
M  V30 4535 C 420.328 4.01356 4.60822 0
M  V30 4536 C 421.326 4.98223 4.67186 0
M  V30 4537 O 421.014 6.25969 5.04399 0
M  V30 4538 H 420.746 0.259216 0.624326 0
M  V30 4539 H 423.3 1.34592 1.55159 0
M  V30 4540 H 421.53 0.249386 3.85895 0
M  V30 4541 H 423.219 0.640804 4.0081 0
M  V30 4542 H 423.985 3.10786 3.7234 0
M  V30 4543 H 419.864 1.96581 4.16985 0
M  V30 4544 H 423.408 5.41002 4.40412 0
M  V30 4545 H 419.305 4.25893 4.85063 0
M  V30 4546 H 420.073 6.30085 5.22431 0
M  V30 4547 N 422.737 -1.36956 0.779787 0
M  V30 4548 C 423.685 -2.32053 0.15942 0
M  V30 4549 C 424.679 -1.55333 -0.675878 0
M  V30 4550 O 425.885 -1.70668 -0.57204 0
M  V30 4551 H 422.26 -0.751286 0.0327707 0
M  V30 4552 H 424.231 -2.8195 0.977078 0
M  V30 4553 C 422.98 -3.40602 -0.698977 0
M  V30 4554 H 422.303 -3.99746 -0.0655966 0
M  V30 4555 H 423.743 -4.09486 -1.09989 0
M  V30 4556 C 422.202 -2.81359 -1.85307 0
M  V30 4557 O 422.732 -2.72751 -2.94906 0
M  V30 4558 N 420.938 -2.38786 -1.65619 0
M  V30 4559 H 420.485 -2.45987 -0.764725 0
M  V30 4560 H 420.443 -1.99493 -2.43002 0
M  V30 4561 N 424.215 -0.530993 -1.48385 0
M  V30 4562 C 425.461 0.00274135 -2.028 0
M  V30 4563 C 425.794 1.33838 -1.40716 0
M  V30 4564 O 425.069 1.86465 -0.553277 0
M  V30 4565 C 425.352 0.123676 -3.59888 0
M  V30 4566 C 425.205 -1.2372 -4.3245 0
M  V30 4567 C 426.524 0.849967 -4.31814 0
M  V30 4568 H 423.643 -0.000477758 -0.737 0
M  V30 4569 H 426.285 -0.688217 -1.77098 0
M  V30 4570 H 424.435 0.712157 -3.81917 0
M  V30 4571 H 426.107 -1.86687 -4.21836 0
M  V30 4572 H 424.35 -1.81882 -3.93829 0
M  V30 4573 H 425.021 -1.10557 -5.40815 0
M  V30 4574 H 427.497 0.350572 -4.14621 0
M  V30 4575 H 426.373 0.903486 -5.41413 0
M  V30 4576 H 426.634 1.90047 -3.99167 0
M  V30 4577 N 425.693 1.55336 -0.266172 0
M  V30 4578 C 427.104 1.85236 0.233315 0
M  V30 4579 C 427.455 1.18816 1.56132 0
M  V30 4580 O 426.58 0.473307 2.11161 0
M  V30 4581 C 427.175 3.36059 0.430113 0
M  V30 4582 C 425.734 3.66116 0.873842 0
M  V30 4583 C 424.881 2.77274 -0.0380016 0
M  V30 4584 H 427.832 1.51004 -0.488214 0
M  V30 4585 H 427.853 3.58681 1.26998 0
M  V30 4586 H 427.365 3.84373 -0.536588 0
M  V30 4587 H 425.466 3.23295 1.85233 0
M  V30 4588 H 425.579 4.73699 0.717358 0
M  V30 4589 H 423.943 2.50198 0.476759 0
M  V30 4590 H 424.726 3.284 -1.00042 0
M  V30 4591 N 427.171 -0.0066808 1.57599 0
M  V30 4592 C 428.42 -0.692078 1.89455 0
M  V30 4593 C 428.733 -1.75306 0.867586 0
M  V30 4594 O 429.939 -2.49262 1.07614 0
M  V30 4595 C 428.395 -1.2821 3.36289 0
M  V30 4596 C 428.003 -0.256291 4.47266 0
M  V30 4597 C 429.747 -1.94608 3.77264 0
M  V30 4598 C 427.654 -0.855927 5.85173 0
M  V30 4599 H 426.584 -0.262252 0.706923 0
M  V30 4600 H 429.235 0.052769 1.83424 0
M  V30 4601 H 427.617 -2.0774 3.37135 0
M  V30 4602 H 428.791 0.513923 4.57925 0
M  V30 4603 H 427.106 0.306862 4.15268 0
M  V30 4604 H 429.703 -2.40364 4.77629 0
M  V30 4605 H 430.046 -2.77382 3.10427 0
M  V30 4606 H 430.579 -1.21822 3.78688 0
M  V30 4607 H 427.318 -0.0671161 6.55466 0
M  V30 4608 H 426.838 -1.59546 5.78191 0
M  V30 4609 H 428.517 -1.35658 6.32618 0
M  V30 4610 N 428.649 -1.55105 -0.279332 0
M  V30 4611 C 430.06 -1.66186 -0.850832 0
M  V30 4612 C 430.411 -0.584707 -1.87285 0
M  V30 4613 O 429.536 0.274919 -2.14647 0
M  V30 4614 C 430.131 -3.01264 -1.55001 0
M  V30 4615 C 428.69 -3.14394 -2.06963 0
M  V30 4616 C 427.837 -2.61959 -0.909536 0
M  V30 4617 H 430.788 -1.58602 -0.0558235 0
M  V30 4618 H 430.809 -2.93899 -2.41669 0
M  V30 4619 H 430.321 -3.7964 -0.805931 0
M  V30 4620 H 428.422 -2.4078 -2.84352 0
M  V30 4621 H 428.535 -4.20867 -2.28928 0
M  V30 4622 H 426.899 -2.18957 -1.30116 0
M  V30 4623 H 427.682 -3.42833 -0.179062 0
M  V30 4624 N 430.127 0.543554 -1.4793 0
M  V30 4625 C 431.037 1.67657 -1.64098 0
M  V30 4626 C 432.053 1.65934 -0.523622 0
M  V30 4627 O 433.229 1.85133 -0.792943 0
M  V30 4628 C 430.294 3.04146 -1.66421 0
M  V30 4629 C 429.355 3.16831 -2.89684 0
M  V30 4630 C 428.588 4.46809 -2.91886 0
M  V30 4631 O 428.811 5.33095 -2.02895 0
M  V30 4632 O 427.745 4.63573 -3.83906 0
M  V30 4633 H 431.571 1.56957 -2.59997 0
M  V30 4634 H 429.156 0.715116 -1.31173 0
M  V30 4635 H 431.038 3.85346 -1.70548 0
M  V30 4636 H 429.713 3.152 -0.736923 0
M  V30 4637 H 428.62 2.34977 -2.91095 0
M  V30 4638 H 429.953 3.10687 -3.81752 0
M  V30 4639 N 431.605 1.3629 0.791371 0
M  V30 4640 C 432.853 1.30154 1.5461 0
M  V30 4641 C 433.174 -0.119409 1.94634 0
M  V30 4642 O 432.444 -1.05924 1.64794 0
M  V30 4643 H 431.024 0.478784 0.573389 0
M  V30 4644 H 433.686 1.70565 0.94306 0
M  V30 4645 H 432.782 1.92762 2.45457 0
M  V30 4646 N 433.083 -1.0153 1.20538 0
M  V30 4647 C 434.36 -1.72327 0.925343 0
M  V30 4648 C 434.74 -2.03383 -0.565547 0
M  V30 4649 O 434.088 -1.69934 -1.52757 0
M  V30 4650 C 434.298 -2.9902 1.79967 0
M  V30 4651 C 435.646 -3.72258 2.04228 0
M  V30 4652 O 436.67 -3.08979 1.77231 0
M  V30 4653 O 435.529 -4.86053 2.4983 0
M  V30 4654 H 432.623 -0.751099 0.346092 0
M  V30 4655 H 435.169 -1.07366 1.31417 0
M  V30 4656 H 433.941 -2.72402 2.80915 0
M  V30 4657 H 433.564 -3.71721 1.41099 0
M  V30 4658 N 434.561 -1.01147 -1.20859 0
M  V30 4659 C 435.471 -0.58686 -2.27141 0
M  V30 4660 C 436.487 0.373198 -1.69951 0
M  V30 4661 O 437.663 0.235423 -2.00019 0
M  V30 4662 C 434.728 0.0733602 -3.46622 0
M  V30 4663 C 433.789 -0.931995 -4.19061 0
M  V30 4664 C 433.022 -0.303186 -5.32838 0
M  V30 4665 O 433.245 0.898395 -5.63281 0
M  V30 4666 O 432.179 -1.01735 -5.9324 0
M  V30 4667 H 436.005 -1.47155 -2.65667 0
M  V30 4668 H 433.59 -0.780689 -1.2738 0
M  V30 4669 H 435.472 0.442333 -4.19072 0
M  V30 4670 H 434.147 0.932329 -3.09983 0
M  V30 4671 H 433.054 -1.35224 -3.48805 0
M  V30 4672 H 434.387 -1.76076 -4.59628 0
M  V30 4673 N 436.039 1.36541 -0.78704 0
M  V30 4674 C 436.949 2.3387 -0.184896 0
M  V30 4675 C 437.965 1.60927 0.661697 0
M  V30 4676 O 439.141 1.92927 0.57804 0
M  V30 4677 C 436.206 3.40122 0.672145 0
M  V30 4678 C 435.267 4.28867 -0.19267 0
M  V30 4679 C 434.5 5.30045 0.623561 0
M  V30 4680 O 434.723 5.39232 1.8597 0
M  V30 4681 O 433.657 6.01895 0.0247068 0
M  V30 4682 H 437.483 2.87126 -0.989562 0
M  V30 4683 H 435.068 1.38969 -0.548455 0
M  V30 4684 H 436.95 4.05093 1.16094 0
M  V30 4685 H 435.625 2.89169 1.45474 0
M  V30 4686 H 434.532 3.66945 -0.728166 0
M  V30 4687 H 435.865 4.83165 -0.938722 0
M  V30 4688 N 437.518 0.538854 1.48102 0
M  V30 4689 C 438.766 0.00798599 2.02098 0
M  V30 4690 C 439.087 -1.33922 1.41739 0
M  V30 4691 O 438.357 -1.86932 0.585934 0
M  V30 4692 H 436.937 -3.62179e-05 0.747 0
M  V30 4693 H 439.599 0.7047 1.81714 0
M  V30 4694 H 438.695 -0.0937672 3.11959 0
M  V30 4695 N 438.996 -1.55193 0.274407 0
M  V30 4696 C 439.944 -2.23924 -0.629362 0
M  V30 4697 C 440.938 -1.23602 -1.1584 0
M  V30 4698 O 442.144 -1.41535 -1.11211 0
M  V30 4699 H 438.519 -0.718637 -0.221507 0
M  V30 4700 H 440.49 -2.98388 -0.0268322 0
M  V30 4701 C 439.239 -2.97329 -1.80252 0
M  V30 4702 H 438.562 -3.74313 -1.40462 0
M  V30 4703 H 440.002 -3.48743 -2.41152 0
M  V30 4704 C 438.461 -2.0276 -2.69054 0
M  V30 4705 O 438.991 -1.57836 -3.69392 0
M  V30 4706 N 437.197 -1.69275 -2.36208 0
M  V30 4707 H 436.744 -2.06004 -1.54661 0
M  V30 4708 H 436.702 -1.06271 -2.95895 0
M  V30 4709 N 440.474 -0.00167713 -1.576 0
M  V30 4710 C 441.407 1.02317 -2.03977 0
M  V30 4711 C 442.385 1.33381 -0.929963 0
M  V30 4712 O 443.569 1.45517 -1.19822 0
M  V30 4713 C 440.696 2.35035 -2.43878 0
M  V30 4714 C 439.742 2.19621 -3.65607 0
M  V30 4715 S 440.575 1.52068 -5.13455 0
M  V30 4716 C 441.731 2.86212 -5.56627 0
M  V30 4717 H 441.964 0.628285 -2.90585 0
M  V30 4718 H 439.497 0.209239 -1.52976 0
M  V30 4719 H 441.455 3.11345 -2.67534 0
M  V30 4720 H 440.116 2.71663 -1.57665 0
M  V30 4721 H 439.309 3.1767 -3.91282 0
M  V30 4722 H 438.911 1.51455 -3.41961 0
M  V30 4723 H 441.203 3.82509 -5.59189 0
M  V30 4724 H 442.146 2.65235 -6.56549 0
M  V30 4725 H 442.554 2.90199 -4.84195 0
M  V30 4726 N 441.952 1.55251 0.271103 0
M  V30 4727 C 442.862 1.9136 1.35714 0
M  V30 4728 C 443.878 0.811075 1.5394 0
M  V30 4729 O 445.054 1.11031 1.6803 0
M  V30 4730 C 442.119 2.1798 2.69603 0
M  V30 4731 C 441.18 3.4153 2.60107 0
M  V30 4732 C 440.413 3.66871 3.8761 0
M  V30 4733 O 440.636 2.94689 4.8838 0
M  V30 4734 O 439.57 4.60405 3.87699 0
M  V30 4735 H 443.396 2.83815 1.08088 0
M  V30 4736 H 440.981 1.41821 0.469792 0
M  V30 4737 H 442.863 2.36518 3.48765 0
M  V30 4738 H 441.538 1.28708 2.97012 0
M  V30 4739 H 440.445 3.28325 1.79314 0
M  V30 4740 H 441.778 4.31027 2.37647 0
M  V30 4741 N 443.43 -0.535701 1.48216 0
M  V30 4742 C 444.36 -1.65014 1.65204 0
M  V30 4743 C 445.341 -1.62554 0.501011 0
M  V30 4744 O 446.526 -1.7984 0.732886 0
M  V30 4745 C 443.656 -3.03616 1.68626 0
M  V30 4746 C 442.61 -3.20932 2.83172 0
M  V30 4747 C 441.936 -4.60537 2.71679 0
M  V30 4748 C 443.236 -3.04249 4.24535 0
M  V30 4749 H 444.93 -1.51053 2.58502 0
M  V30 4750 H 442.476 -0.725262 1.24402 0
M  V30 4751 H 444.429 -3.81446 1.79099 0
M  V30 4752 H 443.153 -3.18587 0.719026 0
M  V30 4753 H 441.812 -2.45517 2.72244 0
M  V30 4754 H 441.46 -4.72336 1.72937 0
M  V30 4755 H 441.16 -4.73069 3.48538 0
M  V30 4756 H 442.684 -5.40475 2.84112 0
M  V30 4757 H 444.098 -3.71877 4.36326 0
M  V30 4758 H 442.495 -3.28278 5.02348 0
M  V30 4759 H 443.565 -2.00739 4.41397 0
M  V30 4760 N 444.908 -1.36708 -0.784132 0
M  V30 4761 C 446.324 -1.17237 -1.08294 0
M  V30 4762 C 446.524 -5.93947e-05 -2.015 0
M  V30 4763 O 445.58 0.663686 -2.43622 0
M  V30 4764 C 446.893 -2.48557 -1.69233 0
M  V30 4765 C 448.441 -2.54968 -1.8155 0
M  V30 4766 C 448.916 -3.86388 -2.45904 0
M  V30 4767 N 450.407 -3.87762 -2.53367 0
M  V30 4768 C 451.142 -4.86191 -3.03983 0
M  V30 4769 N 450.638 -5.95015 -3.54866 0
M  V30 4770 N 452.431 -4.73606 -3.02743 0
M  V30 4771 H 444.582 -2.11758 -0.16501 0
M  V30 4772 H 446.845 -0.93822 -0.135822 0
M  V30 4773 H 446.551 -3.34638 -1.08215 0
M  V30 4774 H 446.425 -2.64748 -2.68679 0
M  V30 4775 H 448.812 -1.69302 -2.41704 0
M  V30 4776 H 448.893 -2.42672 -0.80895 0
M  V30 4777 H 448.537 -4.72462 -1.86392 0
M  V30 4778 H 448.467 -3.95982 -3.4714 0
M  V30 4779 H 450.958 -3.09145 -2.17343 0
M  V30 4780 H 451.271 -6.66086 -3.91854 0
M  V30 4781 H 449.616 -5.98676 -3.53003 0
M  V30 4782 H 452.807 -3.87717 -2.62284 0
M  V30 4783 H 452.98 -5.50473 -3.41881 0
M  V30 4784 N 446.386 1.0089 -1.21074 0
M  V30 4785 C 447.318 2.09737 -0.924291 0
M  V30 4786 C 448.331 1.62546 0.0909809 0
M  V30 4787 O 449.52 1.77942 -0.141021 0
M  V30 4788 C 446.62 3.36922 -0.36559 0
M  V30 4789 C 445.793 4.13216 -1.43426 0
M  V30 4790 C 444.852 5.18696 -0.885496 0
M  V30 4791 O 443.878 5.47176 -1.56801 0
M  V30 4792 N 445.08 5.79718 0.301227 0
M  V30 4793 H 447.845 2.34895 -1.8613 0
M  V30 4794 H 445.406 1.17341 -1.11546 0
M  V30 4795 H 447.398 4.04697 0.0158407 0
M  V30 4796 H 445.968 3.08952 0.476149 0
M  V30 4797 H 445.188 3.40301 -1.9897 0
M  V30 4798 H 446.476 4.60967 -2.15376 0
M  V30 4799 H 445.874 5.58926 0.872849 0
M  V30 4800 H 444.431 6.48804 0.624211 0
M  V30 4801 N 447.864 1.01787 1.20321 0
M  V30 4802 C 448.811 0.589197 2.23153 0
M  V30 4803 C 449.781 -0.391367 1.61423 0
M  V30 4804 O 450.966 -0.290518 1.88575 0
M  V30 4805 C 448.106 -0.0650747 3.45039 0
M  V30 4806 C 447.219 0.960207 4.21194 0
M  V30 4807 C 446.354 0.276854 5.30478 0
M  V30 4808 C 445.393 1.2888 5.98378 0
M  V30 4809 N 444.53 0.632031 6.99249 0
M  V30 4810 H 449.37 1.47071 2.59179 0
M  V30 4811 H 446.907 0.736192 1.27352 0
M  V30 4812 H 448.865 -0.461552 4.14639 0
M  V30 4813 H 447.495 -0.910233 3.09701 0
M  V30 4814 H 446.547 1.47484 3.50646 0
M  V30 4815 H 447.859 1.72977 4.67847 0
M  V30 4816 H 447.013 -0.175056 6.06447 0
M  V30 4817 H 445.752 -0.525004 4.84866 0
M  V30 4818 H 444.757 1.75109 5.21169 0
M  V30 4819 H 445.982 2.09196 6.46076 0
M  V30 4820 H 443.928 -0.149935 6.55829 0
M  V30 4821 H 443.845 1.33964 7.44036 0
M  V30 4822 H 445.113 0.203755 7.79234 0
M  V30 4823 N 449.342 -1.36122 0.79427 0
M  V30 4824 C 450.589 -1.99111 0.368905 0
M  V30 4825 C 450.917 -1.63032 -1.0607 0
M  V30 4826 O 450.172 -0.879303 -1.74833 0
M  V30 4827 C 450.471 -3.5409 0.48527 0
M  V30 4828 C 450.137 -4.10003 1.87638 0
M  V30 4829 C 448.799 -4.24986 2.257 0
M  V30 4830 C 451.151 -4.40423 2.78706 0
M  V30 4831 C 448.479 -4.67701 3.54221 0
M  V30 4832 C 450.831 -4.84573 4.0666 0
M  V30 4833 C 449.495 -4.97761 4.44737 0
M  V30 4834 H 448.765 -0.7286 0.134992 0
M  V30 4835 H 451.412 -1.62534 1.01267 0
M  V30 4836 H 449.717 -3.91052 -0.241984 0
M  V30 4837 H 451.414 -4.00766 0.137109 0
M  V30 4838 H 448.004 -3.98784 1.57064 0
M  V30 4839 H 452.188 -4.28412 2.50553 0
M  V30 4840 H 447.444 -4.761 3.83587 0
M  V30 4841 H 451.618 -5.07074 4.77336 0
M  V30 4842 H 449.245 -5.30618 5.44379 0
M  V30 4843 N 450.82 -0.546701 -1.47814 0
M  V30 4844 C 451.73 0.21026 -2.33656 0
M  V30 4845 C 452.746 0.922413 -1.47538 0
M  V30 4846 O 453.922 0.893652 -1.80488 0
M  V30 4847 C 450.987 1.23348 -3.24016 0
M  V30 4848 C 450.048 0.529883 -4.26017 0
M  V30 4849 C 449.281 1.50435 -5.12059 0
M  V30 4850 O 449.504 2.73837 -5.00369 0
M  V30 4851 O 448.438 1.03459 -5.92942 0
M  V30 4852 H 452.264 -0.493605 -2.99662 0
M  V30 4853 H 449.849 -0.307427 -1.46203 0
M  V30 4854 H 451.731 1.82438 -3.79861 0
M  V30 4855 H 450.406 1.91945 -2.60651 0
M  V30 4856 H 449.313 -0.101948 -3.73961 0
M  V30 4857 H 450.646 -0.11445 -4.92067 0
M  V30 4858 N 452.299 1.55045 -0.282633 0
M  V30 4859 C 453.246 2.22822 0.601566 0
M  V30 4860 C 454.216 1.20431 1.14392 0
M  V30 4861 O 455.401 1.48996 1.19184 0
M  V30 4862 C 452.541 2.95873 1.77632 0
M  V30 4863 C 451.654 4.12999 1.26711 0
M  V30 4864 C 450.789 4.73676 2.40426 0
M  V30 4865 C 449.828 5.82981 1.86545 0
M  V30 4866 N 448.965 6.3769 2.93762 0
M  V30 4867 H 453.805 2.97995 0.0169528 0
M  V30 4868 H 451.342 1.471 -0.00339964 0
M  V30 4869 H 453.3 3.36447 2.46697 0
M  V30 4870 H 451.93 2.2311 2.33285 0
M  V30 4871 H 450.982 3.77494 0.469314 0
M  V30 4872 H 452.294 4.91803 0.832518 0
M  V30 4873 H 451.448 5.17008 3.17471 0
M  V30 4874 H 450.187 3.94164 2.87203 0
M  V30 4875 H 449.192 5.39092 1.07983 0
M  V30 4876 H 450.417 6.64366 1.40694 0
M  V30 4877 H 448.363 5.61069 3.39908 0
M  V30 4878 H 448.28 7.11788 2.54744 0
M  V30 4879 H 449.548 6.8568 3.7076 0
M  V30 4880 N 453.777 0.010035 1.57597 0
M  V30 4881 C 454.74 -0.963029 2.07986 0
M  V30 4882 C 455.74 -1.26619 0.991173 0
M  V30 4883 O 456.93 -1.2097 1.25347 0
M  V30 4884 C 454.062 -2.2851 2.52974 0
M  V30 4885 H 455.255 -0.526971 2.95234 0
M  V30 4886 H 452.808 -0.237639 1.54483 0
M  V30 4887 H 453.543 -2.76784 1.69 0
M  V30 4888 H 453.328 -2.07824 3.32493 0
M  V30 4889 H 454.818 -2.98294 2.9225 0
M  V30 4890 N 455.255 -1.55392 -0.262866 0
M  V30 4891 C 456.202 -1.88966 -1.32516 0
M  V30 4892 C 457.172 -0.742187 -1.48596 0
M  V30 4893 O 458.357 -0.99439 -1.62839 0
M  V30 4894 C 455.497 -2.17592 -2.67858 0
M  V30 4895 C 454.61 -3.45061 -2.59917 0
M  V30 4896 C 453.745 -3.63336 -3.87505 0
M  V30 4897 C 452.784 -4.84462 -3.74116 0
M  V30 4898 N 451.921 -4.99342 -4.93561 0
M  V30 4899 H 456.761 -2.79566 -1.03184 0
M  V30 4900 H 454.298 -1.38404 -0.498285 0
M  V30 4901 H 456.256 -2.3219 -3.46617 0
M  V30 4902 H 454.886 -1.30215 -2.95371 0
M  V30 4903 H 453.938 -3.38881 -1.72812 0
M  V30 4904 H 455.25 -4.3396 -2.45926 0
M  V30 4905 H 454.404 -3.77807 -4.74707 0
M  V30 4906 H 453.143 -2.72641 -4.04374 0
M  V30 4907 H 452.148 -4.69985 -2.85297 0
M  V30 4908 H 453.373 -5.76603 -3.58757 0
M  V30 4909 H 451.319 -4.1158 -5.10821 0
M  V30 4910 H 451.236 -5.82303 -4.82141 0
M  V30 4911 H 452.504 -5.18208 -5.82306 0
M  V30 4912 N 456.733 0.527833 -1.48498 0
M  V30 4913 C 457.663 1.64136 -1.66077 0
M  V30 4914 C 458.644 1.62286 -0.509625 0
M  V30 4915 O 459.829 1.79449 -0.742413 0
M  V30 4916 C 456.959 3.02717 -1.70234 0
M  V30 4917 C 455.913 3.19426 -2.8487 0
M  V30 4918 C 455.239 4.5909 -2.74118 0
M  V30 4919 C 456.539 3.01993 -4.26142 0
M  V30 4920 H 458.233 1.4968 -2.593 0
M  V30 4921 H 455.779 0.718654 -1.24785 0
M  V30 4922 H 457.732 3.80491 -1.8112 0
M  V30 4923 H 456.456 3.18201 -0.735911 0
M  V30 4924 H 455.115 2.4407 -2.73542 0
M  V30 4925 H 454.763 4.71413 -1.7544 0
M  V30 4926 H 454.463 4.71214 -3.51042 0
M  V30 4927 H 455.987 5.3896 -2.86974 0
M  V30 4928 H 457.401 3.69558 -4.38292 0
M  V30 4929 H 455.798 3.2561 -5.04082 0
M  V30 4930 H 456.868 1.98396 -4.42456 0
M  V30 4931 N 458.211 1.37122 0.776871 0
M  V30 4932 C 459.459 1.31787 1.53221 0
M  V30 4933 C 459.78 -0.0987589 1.9475 0
M  V30 4934 O 459.05 -1.0417 1.65908 0
M  V30 4935 H 457.63 0.484839 0.568278 0
M  V30 4936 H 460.292 1.71556 0.924917 0
M  V30 4937 H 459.388 1.95355 2.43398 0
M  V30 4938 N 459.689 -1.00246 1.21608 0
M  V30 4939 C 461.1 -1.55511 1.03312 0
M  V30 4940 C 461.451 -1.91946 -0.406332 0
M  V30 4941 O 460.576 -1.73753 -1.28992 0
M  V30 4942 C 461.171 -2.82576 1.86913 0
M  V30 4943 C 459.73 -3.34318 1.72941 0
M  V30 4944 C 458.877 -2.07487 1.83968 0
M  V30 4945 H 461.828 -0.824638 1.35593 0
M  V30 4946 H 461.849 -3.54559 1.38087 0
M  V30 4947 H 461.361 -2.56026 2.91672 0
M  V30 4948 H 459.462 -3.65797 0.70877 0
M  V30 4949 H 459.575 -4.05566 2.55055 0
M  V30 4950 H 457.939 -2.20603 1.27304 0
M  V30 4951 H 458.722 -1.83346 2.9024 0
M  V30 4952 N 461.167 -1.02423 -1.1978 0
M  V30 4953 C 462.13 -0.605703 -2.21052 0
M  V30 4954 C 463.13 0.328209 -1.57415 0
M  V30 4955 O 464.32 0.115853 -1.73814 0
M  V30 4956 C 461.452 0.114366 -3.40708 0
M  V30 4957 H 462.645 -1.5017 -2.59594 0
M  V30 4958 H 460.198 -0.814888 -1.33376 0
M  V30 4959 H 460.933 1.02492 -3.07678 0
M  V30 4960 H 460.718 -0.556641 -3.88129 0
M  V30 4961 H 462.208 0.394272 -4.15735 0
M  V30 4962 N 462.645 1.35699 -0.801477 0
M  V30 4963 C 463.893 1.9852 -0.37871 0
M  V30 4964 C 464.214 1.63907 1.05638 0
M  V30 4965 O 463.484 0.919013 1.73006 0
M  V30 4966 H 462.064 0.734322 -0.137042 0
M  V30 4967 H 464.726 1.65697 -1.02619 0
M  V30 4968 H 463.822 3.08382 -0.480284 0
M  V30 4969 N 464.123 0.554532 1.47522 0
M  V30 4970 C 465.071 -0.207765 2.3167 0
M  V30 4971 C 466.065 -0.911914 1.4276 0
M  V30 4972 O 467.271 -0.833504 1.59539 0
M  V30 4973 H 463.646 -0.0858726 0.747081 0
M  V30 4974 H 465.617 0.521178 2.93813 0
M  V30 4975 C 464.366 -1.2263 3.25357 0
M  V30 4976 H 463.689 -0.693887 3.93732 0
M  V30 4977 H 465.129 -1.73062 3.87073 0
M  V30 4978 C 463.588 -2.27278 2.4869 0
M  V30 4979 O 464.118 -3.34156 2.22941 0
M  V30 4980 N 462.324 -2.01134 2.09746 0
M  V30 4981 H 461.871 -1.14232 2.30887 0
M  V30 4982 H 461.829 -2.71369 1.58765 0
M  V30 4983 N 465.601 -1.54893 0.290851 0
M  V30 4984 C 466.548 -2.23138 -0.58974 0
M  V30 4985 C 467.518 -1.21036 -1.13752 0
M  V30 4986 O 468.703 -1.49626 -1.18392 0
M  V30 4987 C 465.843 -2.96811 -1.76061 0
M  V30 4988 C 464.956 -4.13665 -1.24519 0
M  V30 4989 C 464.091 -4.74944 -2.3791 0
M  V30 4990 C 463.13 -5.83963 -1.83451 0
M  V30 4991 N 462.267 -6.39239 -2.90376 0
M  V30 4992 H 467.107 -2.98 -0.00114915 0
M  V30 4993 H 464.644 -1.47096 0.0112006 0
M  V30 4994 H 466.602 -3.37751 -2.44909 0
M  V30 4995 H 465.232 -2.24344 -2.32098 0
M  V30 4996 H 464.284 -3.77737 -0.449288 0
M  V30 4997 H 465.596 -4.92238 -0.806424 0
M  V30 4998 H 464.75 -5.18684 -3.14724 0
M  V30 4999 H 463.489 -3.95682 -2.85109 0
M  V30 5000 H 462.494 -5.39657 -1.05122 0
M  V30 5001 H 463.719 -6.65103 -1.37169 0
M  V30 5002 H 461.665 -5.62864 -3.36927 0
M  V30 5003 H 461.582 -7.13129 -2.50965 0
M  V30 5004 H 462.85 -6.87637 -3.67118 0
M  V30 5005 N 467.08 -0.0183926 -1.57589 0
M  V30 5006 C 468.326 0.663543 -1.91638 0
M  V30 5007 C 468.659 1.72392 -0.894134 0
M  V30 5008 O 467.934 1.94316 0.0846449 0
M  V30 5009 C 468.217 1.28984 -3.36207 0
M  V30 5010 C 468.07 0.239761 -4.49161 0
M  V30 5011 C 469.389 2.2109 -3.80536 0
M  V30 5012 H 466.508 0.239746 -0.696915 0
M  V30 5013 H 469.15 -0.073456 -1.89858 0
M  V30 5014 H 467.3 1.91799 -3.37854 0
M  V30 5015 H 468.972 -0.390119 -4.59647 0
M  V30 5016 H 467.215 -0.435972 -4.31604 0
M  V30 5017 H 467.886 0.717383 -5.47319 0
M  V30 5018 H 470.362 1.68273 -3.80557 0
M  V30 5019 H 469.238 2.61869 -4.82406 0
M  V30 5020 H 469.499 3.09764 -3.15434 0
M  V30 5021 N 468.558 1.5553 0.254621 0
M  V30 5022 C 469.807 1.76202 0.981612 0
M  V30 5023 C 470.12 0.580883 1.86776 0
M  V30 5024 O 471.326 0.670448 2.63092 0
M  V30 5025 C 469.782 3.11921 1.79537 0
M  V30 5026 C 469.39 4.37659 0.956991 0
M  V30 5027 C 471.134 3.41936 2.51555 0
M  V30 5028 C 469.041 5.64411 1.76619 0
M  V30 5029 H 467.971 0.656841 0.370237 0
M  V30 5030 H 470.622 1.81969 0.236556 0
M  V30 5031 H 469.004 3.00241 2.58208 0
M  V30 5032 H 470.178 4.60307 0.21315 0
M  V30 5033 H 468.493 4.14922 0.350497 0
M  V30 5034 H 471.09 4.33849 3.12536 0
M  V30 5035 H 471.433 2.62905 3.22779 0
M  V30 5036 H 471.966 3.54797 1.799 0
M  V30 5037 H 468.705 6.46241 1.09783 0
M  V30 5038 H 468.225 5.45877 2.48551 0
M  V30 5039 H 469.904 6.03386 2.33527 0
M  V30 5040 N 470.036 -0.519951 1.48776 0
M  V30 5041 C 471.261 -1.30447 1.6124 0
M  V30 5042 C 471.686 -1.86055 0.276591 0
M  V30 5043 O 471.044 -1.64915 -0.753183 0
M  V30 5044 C 471.092 -2.42406 2.66967 0
M  V30 5045 O 470.196 -3.45728 2.24824 0
M  V30 5046 H 469.537 -0.385924 0.540332 0
M  V30 5047 H 472.067 -0.624572 1.94834 0
M  V30 5048 H 472.077 -2.88447 2.88552 0
M  V30 5049 H 470.752 -2.01294 3.63941 0
M  V30 5050 H 469.329 -3.05737 2.13494 0
M  V30 5051 N 471.514 -1.37532 -0.769588 0
M  V30 5052 C 472.925 -1.29382 -1.346 0
M  V30 5053 C 473.276 0.0576039 -1.96115 0
M  V30 5054 O 472.401 0.95947 -1.93967 0
M  V30 5055 C 472.996 -2.34298 -2.44724 0
M  V30 5056 C 471.555 -2.29776 -2.98128 0
M  V30 5057 C 470.702 -2.18013 -1.71364 0
M  V30 5058 H 473.653 -1.48123 -0.56968 0
M  V30 5059 H 473.674 -1.99089 -3.24259 0
M  V30 5060 H 473.186 -3.32645 -1.99922 0
M  V30 5061 H 471.287 -1.34959 -3.47299 0
M  V30 5062 H 471.4 -3.23276 -3.53595 0
M  V30 5063 H 469.764 -1.64595 -1.94372 0
M  V30 5064 H 470.547 -3.18278 -1.28662 0
M  V30 5065 N 472.992 0.995999 -1.22138 0
M  V30 5066 C 474.217 1.77601 -1.0711 0
M  V30 5067 C 474.642 1.84339 0.374264 0
M  V30 5068 O 474 1.29359 1.27028 0
M  V30 5069 C 474.048 3.18897 -1.68336 0
M  V30 5070 O 473.152 4.01663 -0.934928 0
M  V30 5071 H 472.493 0.547011 -0.376397 0
M  V30 5072 H 475.023 1.25137 -1.6187 0
M  V30 5073 H 475.033 3.69539 -1.72931 0
M  V30 5074 H 473.708 3.13308 -2.73516 0
M  V30 5075 H 472.285 3.60204 -0.964751 0
M  V30 5076 N 474.47 1.03057 1.19235 0
M  V30 5077 C 475.38 0.622922 2.26179 0
M  V30 5078 C 476.396 -0.346113 1.70523 0
M  V30 5079 O 477.572 -0.203572 2.00369 0
M  V30 5080 C 474.637 -0.0182063 3.46695 0
M  V30 5081 C 473.698 0.998546 4.17526 0
M  V30 5082 C 472.931 0.387917 5.32288 0
M  V30 5083 O 473.154 -0.808668 5.64639 0
M  V30 5084 O 472.088 1.1116 5.91546 0
M  V30 5085 H 475.914 1.51363 2.63292 0
M  V30 5086 H 473.499 0.800856 1.26122 0
M  V30 5087 H 475.381 -0.375606 4.19723 0
M  V30 5088 H 474.056 -0.882895 3.11427 0
M  V30 5089 H 472.963 1.40756 3.4661 0
M  V30 5090 H 474.296 1.83366 4.56769 0
M  V30 5091 N 475.948 -1.35272 0.808662 0
M  V30 5092 C 477.225 -1.93077 0.313181 0
M  V30 5093 C 477.605 -1.73847 -1.19752 0
M  V30 5094 O 476.953 -1.1087 -1.998 0
M  V30 5095 C 477.163 -3.41347 0.726859 0
M  V30 5096 C 478.511 -4.18493 0.717532 0
M  V30 5097 O 479.535 -3.4987 0.668535 0
M  V30 5098 O 478.394 -5.40937 0.777779 0
M  V30 5099 H 475.488 -0.822885 0.0824018 0
M  V30 5100 H 478.034 -1.44335 0.892499 0
M  V30 5101 H 476.806 -3.49082 1.76797 0
M  V30 5102 H 476.429 -3.97411 0.122461 0
M  V30 5103 N 477.426 -0.562348 -1.47226 0
M  V30 5104 C 478.842 -0.222492 -1.58042 0
M  V30 5105 C 479.042 1.27505 -1.56028 0
M  V30 5106 O 478.098 2.05555 -1.46641 0
M  V30 5107 C 479.411 -0.853694 -2.88327 0
M  V30 5108 C 480.959 -0.825397 -3.01921 0
M  V30 5109 C 481.434 -1.43576 -4.34914 0
M  V30 5110 N 482.925 -1.39918 -4.41562 0
M  V30 5111 C 483.66 -1.84103 -5.43041 0
M  V30 5112 N 483.156 -2.36167 -6.51304 0
M  V30 5113 N 484.949 -1.75142 -5.34118 0
M  V30 5114 H 477.1 -1.53525 -1.46778 0
M  V30 5115 H 479.363 -0.640527 -0.698877 0
M  V30 5116 H 479.069 -1.90635 -2.95552 0
M  V30 5117 H 478.943 -0.34977 -3.75575 0
M  V30 5118 H 481.33 0.218583 -2.94289 0
M  V30 5119 H 481.411 -1.36713 -2.16202 0
M  V30 5120 H 481.055 -2.47884 -4.43301 0
M  V30 5121 H 480.985 -0.869427 -5.19373 0
M  V30 5122 H 483.476 -1.0184 -3.63919 0
M  V30 5123 H 483.789 -2.67793 -7.24919 0
M  V30 5124 H 482.134 -2.40181 -6.52179 0
M  V30 5125 H 485.325 -1.34241 -4.48439 0
M  V30 5126 H 485.498 -2.09895 -6.13065 0
M  V30 5127 N 478.904 1.54736 -0.299062 0
M  V30 5128 C 479.851 2.23448 0.577899 0
M  V30 5129 C 480.821 1.21637 1.13109 0
M  V30 5130 O 482.006 1.50252 1.17597 0
M  V30 5131 C 479.146 2.9774 1.74484 0
M  V30 5132 C 478.259 4.1432 1.22323 0
M  V30 5133 C 477.394 4.76199 2.35388 0
M  V30 5134 C 476.433 5.84927 1.80351 0
M  V30 5135 N 475.57 6.4077 2.86982 0
M  V30 5136 H 480.41 2.97996 -0.0146545 0
M  V30 5137 H 477.947 1.47088 -0.0190013 0
M  V30 5138 H 479.905 3.39045 2.43114 0
M  V30 5139 H 478.535 2.25572 2.30905 0
M  V30 5140 H 477.587 3.7797 0.429249 0
M  V30 5141 H 478.899 4.92659 0.780309 0
M  V30 5142 H 478.053 5.20346 3.11969 0
M  V30 5143 H 476.792 3.97188 2.83006 0
M  V30 5144 H 475.797 5.40207 1.02259 0
M  V30 5145 H 477.022 6.65821 1.3364 0
M  V30 5146 H 474.968 5.64643 3.33938 0
M  V30 5147 H 474.885 7.1445 2.4718 0
M  V30 5148 H 476.153 6.89574 3.63466 0
M  V30 5149 N 480.382 0.0267497 1.57577 0
M  V30 5150 C 481.314 -0.984594 2.06974 0
M  V30 5151 C 482.327 -1.29032 0.992705 0
M  V30 5152 O 483.516 -1.25539 1.26895 0
M  V30 5153 C 480.616 -2.31262 2.47732 0
M  V30 5154 C 479.789 -2.1924 3.78487 0
M  V30 5155 C 478.848 -3.34956 4.05821 0
M  V30 5156 O 477.874 -3.11948 4.76106 0
M  V30 5157 N 479.076 -4.58672 3.55809 0
M  V30 5158 H 481.841 -0.563143 2.94362 0
M  V30 5159 H 479.402 -0.160061 1.61107 0
M  V30 5160 H 481.394 -3.07496 2.63112 0
M  V30 5161 H 479.964 -2.65056 1.65723 0
M  V30 5162 H 479.184 -1.27747 3.72927 0
M  V30 5163 H 480.472 -2.08409 4.64158 0
M  V30 5164 H 479.87 -4.8026 2.98942 0
M  V30 5165 H 478.427 -5.32083 3.76472 0
M  V30 5166 N 481.861 -1.55662 -0.24637 0
M  V30 5167 C 483.272 -1.67953 -0.81539 0
M  V30 5168 C 483.623 -0.624302 -1.86002 0
M  V30 5169 O 482.748 0.229328 -2.15181 0
M  V30 5170 C 483.343 -3.04484 -1.48576 0
M  V30 5171 C 481.902 -3.18713 -2.00248 0
M  V30 5172 C 481.049 -2.6383 -0.853766 0
M  V30 5173 H 484 -1.58685 -0.0221692 0
M  V30 5174 H 484.021 -2.98959 -2.3538 0
M  V30 5175 H 483.533 -3.81264 -0.725222 0
M  V30 5176 H 481.634 -2.46757 -2.79181 0
M  V30 5177 H 481.747 -4.25628 -2.1995 0
M  V30 5178 H 480.111 -2.21667 -1.25442 0
M  V30 5179 H 480.894 -3.43135 -0.106302 0
M  V30 5180 N 483.339 0.512053 -1.4905 0
M  V30 5181 C 484.564 1.2959 -1.6193 0
M  V30 5182 C 484.989 1.85906 -0.286454 0
M  V30 5183 O 484.347 1.65312 0.744426 0
M  V30 5184 C 484.395 2.40987 -2.68249 0
M  V30 5185 O 483.499 3.44531 -2.26654 0
M  V30 5186 H 482.84 0.383053 -0.542371 0
M  V30 5187 H 485.37 0.614231 -1.95162 0
M  V30 5188 H 485.38 2.86913 -2.90078 0
M  V30 5189 H 484.055 1.99361 -3.65004 0
M  V30 5190 H 482.632 3.046 -2.15112 0
M  V30 5191 N 484.817 1.37938 0.762283 0
M  V30 5192 C 485.765 1.34569 1.89721 0
M  V30 5193 C 486.759 0.232929 1.67791 0
M  V30 5194 O 487.965 0.401485 1.75465 0
M  V30 5195 H 484.34 0.419594 0.624055 0
M  V30 5196 H 486.311 2.30357 1.8968 0
M  V30 5197 C 485.06 1.17898 3.27101 0
M  V30 5198 H 484.383 2.02781 3.44558 0
M  V30 5199 H 485.823 1.19593 4.06784 0
M  V30 5200 C 484.282 -0.114728 3.36705 0
M  V30 5201 O 484.812 -1.0949 3.8649 0
M  V30 5202 N 483.018 -0.16863 2.9011 0
M  V30 5203 H 482.565 0.62967 2.49786 0
M  V30 5204 H 482.523 -1.03383 2.96916 0
M  V30 5205 N 486.295 -0.989507 1.22664 0
M  V30 5206 C 487.243 -2.10148 0.997035 0
M  V30 5207 C 488.237 -1.6929 -0.0609783 0
M  V30 5208 O 489.443 -1.79766 0.0917523 0
M  V30 5209 H 485.818 -0.687256 0.305259 0
M  V30 5210 H 487.789 -2.26685 1.94053 0
M  V30 5211 C 486.538 -3.4257 0.595085 0
M  V30 5212 H 485.861 -3.74453 1.40089 0
M  V30 5213 H 487.301 -4.21344 0.473869 0
M  V30 5214 C 485.76 -3.29638 -0.695725 0
M  V30 5215 O 486.29 -3.61709 -1.74727 0
M  V30 5216 N 484.496 -2.82814 -0.668173 0
M  V30 5217 H 484.043 -2.56914 0.18787 0
M  V30 5218 H 484.001 -2.74544 -1.5321 0
M  V30 5219 N 487.773 -1.03688 -1.18687 0
M  V30 5220 C 488.703 -0.645407 -2.24403 0
M  V30 5221 C 489.684 0.349511 -1.66471 0
M  V30 5222 O 490.869 0.230453 -1.92828 0
M  V30 5223 C 487.999 -0.00365337 -3.473 0
M  V30 5224 C 486.953 -0.921705 -4.17958 0
M  V30 5225 C 486.279 -0.144629 -5.34504 0
M  V30 5226 C 487.579 -2.23909 -4.71871 0
M  V30 5227 H 489.273 -1.52917 -2.57404 0
M  V30 5228 H 486.819 -0.736711 -1.23728 0
M  V30 5229 H 488.772 0.281908 -4.20456 0
M  V30 5230 H 487.496 0.914963 -3.13522 0
M  V30 5231 H 486.155 -1.19159 -3.46694 0
M  V30 5232 H 485.803 0.776274 -4.96974 0
M  V30 5233 H 485.503 -0.756206 -5.82714 0
M  V30 5234 H 487.027 0.134004 -6.10453 0
M  V30 5235 H 488.441 -2.0145 -5.36741 0
M  V30 5236 H 486.838 -2.8033 -5.30599 0
M  V30 5237 H 487.908 -2.88822 -3.895 0
M  V30 5238 N 489.251 1.34841 -0.815825 0
M  V30 5239 C 490.528 1.92908 -0.323416 0
M  V30 5240 C 490.908 1.74479 1.18828 0
M  V30 5241 O 490.256 1.11928 1.99209 0
M  V30 5242 C 490.466 3.40957 -0.744952 0
M  V30 5243 C 491.814 4.18107 -0.739716 0
M  V30 5244 O 492.838 3.49511 -0.68708 0
M  V30 5245 O 491.697 5.40517 -0.806456 0
M  V30 5246 H 488.791 0.822436 -0.0867646 0
M  V30 5247 H 491.337 1.4386 -0.90014 0
M  V30 5248 H 490.109 3.4814 -1.78646 0
M  V30 5249 H 489.732 3.97341 -0.143535 0
M  V30 5250 N 490.729 0.570148 1.46925 0
M  V30 5251 C 492.145 0.23087 1.57921 0
M  V30 5252 C 492.345 -1.26676 1.56702 0
M  V30 5253 O 491.401 -2.04774 1.47729 0
M  V30 5254 C 492.714 0.868973 2.8787 0
M  V30 5255 C 494.262 0.841397 3.01479 0
M  V30 5256 C 494.737 1.45881 4.34146 0
M  V30 5257 N 496.228 1.42258 4.40814 0
M  V30 5258 C 496.963 1.8698 5.42057 0
M  V30 5259 N 496.459 2.39618 6.50042 0
M  V30 5260 N 498.252 1.77972 5.33181 0
M  V30 5261 H 490.403 1.54301 1.45962 0
M  V30 5262 H 492.666 0.644224 0.69547 0
M  V30 5263 H 492.372 1.922 2.94537 0
M  V30 5264 H 492.246 0.369682 3.75384 0
M  V30 5265 H 494.633 -0.202973 2.94401 0
M  V30 5266 H 494.714 1.37858 2.15474 0
M  V30 5267 H 494.358 2.50231 4.4198 0
M  V30 5268 H 494.288 0.896958 5.18905 0
M  V30 5269 H 496.779 1.03768 3.63374 0
M  V30 5270 H 497.092 2.71633 7.23488 0
M  V30 5271 H 495.437 2.43636 6.50897 0
M  V30 5272 H 498.628 1.36617 4.4772 0
M  V30 5273 H 498.801 2.13143 6.11943 0
M  V30 5274 N 492.207 -1.54576 0.307264 0
M  V30 5275 C 493.453 -2.0056 -0.300612 0
M  V30 5276 C 493.786 -1.1953 -1.53057 0
M  V30 5277 O 493.061 -0.27337 -1.92569 0
M  V30 5278 C 493.344 -3.54167 -0.650987 0
M  V30 5279 C 493.197 -4.45933 0.588539 0
M  V30 5280 C 494.516 -4.14645 -1.47506 0
M  V30 5281 H 491.635 -0.729075 -0.107788 0
M  V30 5282 H 494.277 -1.85286 0.420606 0
M  V30 5283 H 492.427 -3.67313 -1.26544 0
M  V30 5284 H 494.099 -4.44683 1.22697 0
M  V30 5285 H 492.342 -4.16274 1.22058 0
M  V30 5286 H 493.013 -5.51189 0.299153 0
M  V30 5287 H 495.489 -4.04973 -0.955821 0
M  V30 5288 H 494.365 -5.22269 -1.68899 0
M  V30 5289 H 494.626 -3.66921 -2.4662 0
M  V30 5290 N 493.685 -0.035106 -1.57561 0
M  V30 5291 C 494.632 0.94474 -2.10578 0
M  V30 5292 C 495.602 1.3192 -1.00927 0
M  V30 5293 O 496.787 1.41147 -1.28382 0
M  V30 5294 C 493.927 2.21982 -2.64231 0
M  V30 5295 C 493.04 1.90128 -3.87911 0
M  V30 5296 C 492.175 3.11975 -4.29936 0
M  V30 5297 C 491.214 2.75968 -5.46359 0
M  V30 5298 N 490.351 3.90459 -5.83512 0
M  V30 5299 H 495.191 0.485717 -2.94015 0
M  V30 5300 H 492.728 0.228143 -1.4532 0
M  V30 5301 H 494.686 2.96572 -2.9343 0
M  V30 5302 H 493.316 2.6549 -1.83616 0
M  V30 5303 H 492.368 1.05755 -3.65404 0
M  V30 5304 H 493.68 1.59613 -4.72573 0
M  V30 5305 H 492.834 3.9488 -4.60603 0
M  V30 5306 H 491.573 3.45657 -3.44053 0
M  V30 5307 H 490.578 1.91478 -5.1538 0
M  V30 5308 H 491.803 2.43497 -6.33945 0
M  V30 5309 H 489.749 4.23971 -5.00584 0
M  V30 5310 H 489.666 3.63588 -6.62827 0
M  V30 5311 H 490.934 4.7405 -6.18787 0
M  V30 5312 N 495.163 1.55791 0.238111 0
M  V30 5313 C 496.093 1.94068 1.29846 0
M  V30 5314 C 497.074 0.806726 1.49753 0
M  V30 5315 O 498.259 1.06772 1.62214 0
M  V30 5316 C 495.389 2.24302 2.65153 0
M  V30 5317 C 494.343 3.40032 2.59927 0
M  V30 5318 C 493.669 3.55829 3.99111 0
M  V30 5319 C 494.969 4.75476 2.16148 0
M  V30 5320 H 496.663 2.82887 0.980563 0
M  V30 5321 H 494.209 1.36105 0.470253 0
M  V30 5322 H 496.162 2.4967 3.39475 0
M  V30 5323 H 494.886 1.32318 2.98596 0
M  V30 5324 H 493.545 3.14687 1.88063 0
M  V30 5325 H 493.193 2.6125 4.29834 0
M  V30 5326 H 492.893 4.3366 3.96501 0
M  V30 5327 H 494.417 3.83528 4.7512 0
M  V30 5328 H 495.831 5.00158 2.80205 0
M  V30 5329 H 494.228 5.56472 2.24631 0
M  V30 5330 H 495.298 4.71946 1.11333 0
M  V30 5331 N 496.642 -0.504142 1.49319 0
M  V30 5332 C 497.87 -1.28256 1.62351 0
M  V30 5333 C 498.285 -1.86502 0.293682 0
M  V30 5334 O 497.642 -1.67678 -0.720449 0
M  V30 5335 C 497.693 -2.41507 2.68992 0
M  V30 5336 O 497.414 -1.85656 3.96817 0
M  V30 5337 C 498.915 -3.32929 2.927 0
M  V30 5338 H 496.135 -0.389115 0.546654 0
M  V30 5339 H 498.679 -0.605531 1.95329 0
M  V30 5340 H 496.834 -3.05046 2.38801 0
M  V30 5341 H 497.248 -2.59981 4.55533 0
M  V30 5342 H 498.722 -4.0868 3.71058 0
M  V30 5343 H 499.199 -3.89733 2.02496 0
M  V30 5344 H 499.805 -2.75158 3.24296 0
M  V30 5345 N 498.12 -1.38341 -0.754957 0
M  V30 5346 C 499.397 -1.24995 -1.50451 0
M  V30 5347 C 499.777 0.149244 -2.10572 0
M  V30 5348 O 499.125 1.15861 -1.96948 0
M  V30 5349 C 499.335 -2.35904 -2.57197 0
M  V30 5350 C 500.683 -2.74262 -3.24138 0
M  V30 5351 O 501.707 -2.35205 -2.67501 0
M  V30 5352 O 500.566 -3.4161 -4.26574 0
M  V30 5353 H 497.66 -0.48872 -0.667144 0
M  V30 5354 H 500.206 -1.50165 -0.790486 0
M  V30 5355 H 498.978 -3.2953 -2.11011 0
M  V30 5356 H 498.601 -2.12291 -3.36182 0
M  V30 5357 N 499.598 0.982988 -1.23187 0
M  V30 5358 C 500.845 1.72392 -1.06241 0
M  V30 5359 C 501.173 1.9032 0.40108 0
M  V30 5360 O 500.428 1.45084 1.31336 0
M  V30 5361 C 500.727 3.12736 -1.73006 0
M  V30 5362 C 500.393 3.14695 -3.22921 0
M  V30 5363 C 499.055 3.14937 -3.63824 0
M  V30 5364 C 501.407 3.10211 -4.1883 0
M  V30 5365 C 498.735 3.08408 -4.99101 0
M  V30 5366 C 501.087 3.05224 -5.54095 0
M  V30 5367 C 499.751 3.03787 -5.94365 0
M  V30 5368 H 499.021 0.630829 -0.388762 0
M  V30 5369 H 501.668 1.15053 -1.53085 0
M  V30 5370 H 499.973 3.73446 -1.18514 0
M  V30 5371 H 501.67 3.68828 -1.57374 0
M  V30 5372 H 498.26 3.15262 -2.90358 0
M  V30 5373 H 502.444 3.09166 -3.8824 0
M  V30 5374 H 497.7 3.05646 -5.29519 0
M  V30 5375 H 501.874 3.00712 -6.28128 0
M  V30 5376 H 499.501 2.98483 -6.99151 0
M  V30 5377 N 501.076 1.04316 1.18135 0
M  V30 5378 C 502.024 0.630175 2.23901 0
M  V30 5379 C 503.018 -0.344254 1.65865 0
M  V30 5380 O 504.224 -0.211273 1.78756 0
M  V30 5381 H 500.599 0.185578 0.728742 0
M  V30 5382 H 502.57 1.53253 2.56039 0
M  V30 5383 C 501.319 0.011666 3.47698 0
M  V30 5384 H 500.642 0.752526 3.92654 0
M  V30 5385 H 502.082 -0.240046 4.2332 0
M  V30 5386 C 500.541 -1.23913 3.13285 0
M  V30 5387 O 501.071 -2.32959 3.27251 0
M  V30 5388 N 499.277 -1.13338 2.67587 0
M  V30 5389 H 498.824 -0.246006 2.56423 0
M  V30 5390 H 498.782 -1.97116 2.44934 0
M  V30 5391 N 502.554 -1.34406 0.822964 0
M  V30 5392 C 503.801 -1.98284 0.411057 0
M  V30 5393 C 504.129 -1.65245 -1.02588 0
M  V30 5394 O 503.384 -0.91619 -1.72929 0
M  V30 5395 C 503.683 -3.52981 0.560268 0
M  V30 5396 C 503.349 -4.05931 1.96293 0
M  V30 5397 C 502.011 -4.20103 2.34664 0
M  V30 5398 C 504.363 -4.34412 2.87985 0
M  V30 5399 C 501.691 -4.60082 3.64062 0
M  V30 5400 C 504.043 -4.75838 4.16847 0
M  V30 5401 C 502.707 -4.88215 4.55195 0
M  V30 5402 H 501.977 -0.725573 0.150416 0
M  V30 5403 H 504.624 -1.60349 1.04692 0
M  V30 5404 H 502.929 -3.91477 -0.158982 0
M  V30 5405 H 504.626 -4.00385 0.222087 0
M  V30 5406 H 501.216 -3.95363 1.65487 0
M  V30 5407 H 505.4 -4.23001 2.59584 0
M  V30 5408 H 500.656 -4.67856 3.93599 0
M  V30 5409 H 504.83 -4.96834 4.87984 0
M  V30 5410 H 502.457 -5.18952 5.55512 0
M  V30 5411 N 504.032 -0.577932 -1.46621 0
M  V30 5412 C 504.962 0.145917 -2.33044 0
M  V30 5413 C 505.943 0.888412 -1.45056 0
M  V30 5414 O 507.128 0.864812 -1.73881 0
M  V30 5415 C 504.258 1.16322 -3.27241 0
M  V30 5416 C 503.212 0.535868 -4.24632 0
M  V30 5417 C 502.538 1.65929 -5.08303 0
M  V30 5418 C 503.838 -0.523861 -5.19666 0
M  V30 5419 H 505.532 -0.575636 -2.93814 0
M  V30 5420 H 503.078 -0.278272 -1.41286 0
M  V30 5421 H 505.031 1.67793 -3.86553 0
M  V30 5422 H 503.755 1.91498 -2.64567 0
M  V30 5423 H 502.414 0.0422759 -3.66576 0
M  V30 5424 H 502.062 2.40061 -4.42018 0
M  V30 5425 H 501.762 1.2452 -5.74255 0
M  V30 5426 H 503.286 2.17686 -5.70478 0
M  V30 5427 H 504.7 -0.0944059 -5.73222 0
M  V30 5428 H 503.097 -0.858 -5.93935 0
M  V30 5429 H 504.167 -1.41197 -4.63887 0
M  V30 5430 N 505.51 1.54411 -0.315457 0
M  V30 5431 C 506.443 2.20265 0.596522 0
M  V30 5432 C 507.421 1.17693 1.12192 0
M  V30 5433 O 508.605 1.46397 1.18744 0
M  V30 5434 C 505.732 2.85794 1.81767 0
M  V30 5435 C 504.778 4.02017 1.42424 0
M  V30 5436 S 505.611 5.33452 0.467836 0
M  V30 5437 C 506.767 6.02471 1.69645 0
M  V30 5438 H 507 2.97277 0.0370896 0
M  V30 5439 H 504.533 1.54079 -0.0995562 0
M  V30 5440 H 506.491 3.24172 2.51839 0
M  V30 5441 H 505.152 2.08601 2.34828 0
M  V30 5442 H 504.345 4.46701 2.33396 0
M  V30 5443 H 503.947 3.65271 0.803311 0
M  V30 5444 H 506.239 6.24157 2.63504 0
M  V30 5445 H 507.182 6.96215 1.29192 0
M  V30 5446 H 507.59 5.32284 1.87974 0
M  V30 5447 N 506.988 0.0434614 1.5754 0
M  V30 5448 C 508.234 -0.632971 1.92669 0
M  V30 5449 C 508.567 -1.70947 0.921446 0
M  V30 5450 O 507.842 -1.94426 -0.0537202 0
M  V30 5451 C 508.125 -1.23619 3.38216 0
M  V30 5452 C 507.978 -0.168274 4.49485 0
M  V30 5453 C 509.297 -2.15008 3.84005 0
M  V30 5454 H 506.416 -0.228629 0.700641 0
M  V30 5455 H 509.058 0.103651 1.89717 0
M  V30 5456 H 507.208 -1.864 3.40863 0
M  V30 5457 H 508.88 0.463196 4.58969 0
M  V30 5458 H 507.123 0.504581 4.30855 0
M  V30 5459 H 507.794 -0.630218 5.48391 0
M  V30 5460 H 510.27 -1.62198 3.83185 0
M  V30 5461 H 509.146 -2.54161 4.86511 0
M  V30 5462 H 509.407 -3.04707 3.20322 0
M  V30 5463 N 508.466 -1.55915 -0.229846 0
M  V30 5464 C 509.396 -1.94754 -1.28815 0
M  V30 5465 C 510.377 -0.814657 -1.49323 0
M  V30 5466 O 511.562 -1.07631 -1.61645 0
M  V30 5467 C 508.692 -2.25705 -2.63959 0
M  V30 5468 C 507.646 -3.41406 -2.5812 0
M  V30 5469 C 506.972 -3.57941 -3.97218 0
M  V30 5470 C 508.272 -4.76616 -2.13623 0
M  V30 5471 H 509.966 -2.83404 -0.965547 0
M  V30 5472 H 507.512 -1.36353 -0.463028 0
M  V30 5473 H 509.465 -2.51467 -3.38146 0
M  V30 5474 H 508.189 -1.339 -2.9789 0
M  V30 5475 H 506.848 -3.1568 -1.86391 0
M  V30 5476 H 506.496 -2.63526 -4.28443 0
M  V30 5477 H 506.196 -4.35757 -3.94195 0
M  V30 5478 H 507.72 -3.86042 -4.73079 0
M  V30 5479 H 509.134 -5.01637 -2.77549 0
M  V30 5480 H 507.531 -5.57655 -2.21677 0
M  V30 5481 H 508.601 -4.7253 -1.08829 0
M  V30 5482 N 509.944 0.496216 -1.49584 0
M  V30 5483 C 511.192 1.24756 -1.58998 0
M  V30 5484 C 511.513 1.92968 -0.280775 0
M  V30 5485 O 510.783 1.82959 0.700198 0
M  V30 5486 H 509.363 0.463471 -0.585836 0
M  V30 5487 H 512.025 0.574678 -1.86235 0
M  V30 5488 H 511.121 2.00895 -2.38847 0
M  V30 5489 N 511.423 1.38739 0.74761 0
M  V30 5490 C 512.37 1.36449 1.86146 0
M  V30 5491 C 513.34 0.226098 1.64554 0
M  V30 5492 O 514.525 0.41926 1.86137 0
M  V30 5493 C 511.665 1.2013 3.23516 0
M  V30 5494 C 510.778 2.43407 3.56899 0
M  V30 5495 C 509.913 2.19773 4.83605 0
M  V30 5496 C 508.952 3.3879 5.09792 0
M  V30 5497 N 508.089 3.14553 6.27695 0
M  V30 5498 H 512.929 2.3167 1.87438 0
M  V30 5499 H 510.466 1.15094 0.916063 0
M  V30 5500 H 512.424 1.08683 4.02795 0
M  V30 5501 H 511.054 0.285453 3.21535 0
M  V30 5502 H 510.106 2.65504 2.72418 0
M  V30 5503 H 511.418 3.32094 3.72176 0
M  V30 5504 H 510.572 2.05496 5.70838 0
M  V30 5505 H 509.311 1.28461 4.70478 0
M  V30 5506 H 508.316 3.53579 4.21025 0
M  V30 5507 H 509.541 4.30986 5.24812 0
M  V30 5508 H 507.487 2.25893 6.1588 0
M  V30 5509 H 507.404 3.96791 6.435 0
M  V30 5510 H 508.672 3.03943 7.17801 0
M  V30 5511 N 512.901 -0.976442 1.23707 0
M  V30 5512 C 514.149 -1.71487 1.06942 0
M  V30 5513 C 514.47 -1.9098 -0.393897 0
M  V30 5514 O 513.74 -1.48128 -1.28198 0
M  V30 5515 H 512.32 -0.635425 0.392739 0
M  V30 5516 H 514.982 -1.17515 1.55487 0
M  V30 5517 H 514.078 -2.70286 1.56051 0
M  V30 5518 N 514.379 -1.04941 -1.1758 0
M  V30 5519 C 515.604 -0.778253 -1.92245 0
M  V30 5520 C 516.029 0.659707 -1.76152 0
M  V30 5521 O 515.387 1.45803 -1.07755 0
M  V30 5522 C 515.435 -1.16051 -3.41416 0
M  V30 5523 O 514.539 -0.291153 -4.11371 0
M  V30 5524 H 513.88 -0.285619 -0.599431 0
M  V30 5525 H 516.41 -1.40159 -1.49052 0
M  V30 5526 H 516.42 -1.12619 -3.92149 0
M  V30 5527 H 515.095 -2.208 -3.52449 0
M  V30 5528 H 513.672 -0.385851 -3.70898 0
M  V30 5529 N 515.857 1.33968 -0.830081 0
M  V30 5530 C 517.104 1.98063 -0.421566 0
M  V30 5531 C 517.432 1.65787 1.0171 0
M  V30 5532 O 516.687 0.925348 1.72441 0
M  V30 5533 C 516.986 3.52679 -0.57898 0
M  V30 5534 C 516.652 4.04884 -1.98443 0
M  V30 5535 C 515.314 4.18852 -2.36888 0
M  V30 5536 C 517.666 4.32879 -2.90285 0
M  V30 5537 C 514.994 4.58145 -3.66497 0
M  V30 5538 C 517.346 4.7362 -4.19364 0
M  V30 5539 C 516.01 4.85794 -4.57778 0
M  V30 5540 H 515.28 0.724765 -0.154262 0
M  V30 5541 H 517.927 1.59792 -1.05541 0
M  V30 5542 H 516.232 3.91556 0.138219 0
M  V30 5543 H 517.929 4.00261 -0.243317 0
M  V30 5544 H 514.519 3.9448 -1.67581 0
M  V30 5545 H 518.703 4.21619 -2.61823 0
M  V30 5546 H 513.959 4.65762 -3.96075 0
M  V30 5547 H 518.133 4.9424 -4.90612 0
M  V30 5548 H 515.76 5.15998 -5.58256 0
M  V30 5549 N 517.335 0.585699 1.46312 0
M  V30 5550 C 518.583 0.072278 2.01971 0
M  V30 5551 C 518.904 -1.29345 1.45928 0
M  V30 5552 O 518.174 -1.84973 0.645109 0
M  V30 5553 H 516.754 0.023729 0.746623 0
M  V30 5554 H 519.416 0.762155 1.7938 0
M  V30 5555 H 518.512 0.00552767 3.121 0
M  V30 5556 N 518.813 -1.54241 0.323641 0
M  V30 5557 C 519.76 -2.24339 -0.542277 0
M  V30 5558 C 520.73 -1.23421 -1.11159 0
M  V30 5559 O 521.915 -1.52104 -1.15192 0
M  V30 5560 C 519.055 -3.00479 -1.69725 0
M  V30 5561 C 518.168 -4.16214 -1.15716 0
M  V30 5562 C 517.303 -4.79884 -2.27783 0
M  V30 5563 C 516.342 -5.87722 -1.71023 0
M  V30 5564 N 515.479 -6.45254 -2.76752 0
M  V30 5565 H 520.319 -2.97935 0.0620613 0
M  V30 5566 H 517.856 -1.47039 0.0423993 0
M  V30 5567 H 519.814 -3.42869 -2.3769 0
M  V30 5568 H 518.444 -2.29217 -2.27288 0
M  V30 5569 H 517.496 -3.78605 -0.369063 0
M  V30 5570 H 518.808 -4.93838 -0.701832 0
M  V30 5571 H 517.962 -5.25243 -3.03651 0
M  V30 5572 H 516.701 -4.01641 -2.76652 0
M  V30 5573 H 515.706 -5.41765 -0.936518 0
M  V30 5574 H 516.931 -6.67863 -1.2303 0
M  V30 5575 H 514.877 -5.69884 -3.24912 0
M  V30 5576 H 514.794 -7.18292 -2.35782 0
M  V30 5577 H 516.062 -6.95269 -3.5245 0
M  V30 5578 N 520.291 -0.0518155 -1.57515 0
M  V30 5579 C 521.537 0.622745 -1.93002 0
M  V30 5580 C 521.87 1.70456 -0.930499 0
M  V30 5581 O 521.145 1.94452 0.0434086 0
M  V30 5582 C 521.428 1.21824 -3.38867 0
M  V30 5583 C 521.281 0.144434 -4.49568 0
M  V30 5584 C 522.6 2.12968 -3.8514 0
M  V30 5585 H 519.719 0.22491 -0.701844 0
M  V30 5586 H 522.361 -0.113711 -1.89659 0
M  V30 5587 H 520.511 1.8459 -3.41846 0
M  V30 5588 H 522.183 -0.48753 -4.58717 0
M  V30 5589 H 520.426 -0.527424 -4.30582 0
M  V30 5590 H 521.097 0.601127 -5.48717 0
M  V30 5591 H 523.573 1.60163 -3.8404 0
M  V30 5592 H 522.449 2.51578 -4.87852 0
M  V30 5593 H 522.71 3.03004 -3.21934 0
M  V30 5594 N 521.769 1.56035 0.221574 0
M  V30 5595 C 522.702 1.87427 1.30178 0
M  V30 5596 C 523.68 0.731658 1.45209 0
M  V30 5597 O 524.864 0.980016 1.61022 0
M  V30 5598 C 521.991 2.08127 2.67209 0
M  V30 5599 C 521.037 3.30813 2.69194 0
M  V30 5600 S 521.87 4.86738 2.23263 0
M  V30 5601 C 523.026 5.10474 3.62171 0
M  V30 5602 H 523.259 2.78756 1.03355 0
M  V30 5603 H 520.792 1.48469 0.423813 0
M  V30 5604 H 522.75 2.20736 3.46101 0
M  V30 5605 H 521.411 1.17595 2.91256 0
M  V30 5606 H 520.604 3.42341 3.6989 0
M  V30 5607 H 520.206 3.1706 1.98366 0
M  V30 5608 H 522.498 4.9937 4.5786 0
M  V30 5609 H 523.441 6.12359 3.55558 0
M  V30 5610 H 523.849 4.38208 3.55857 0
M  V30 5611 N 523.247 -0.488276 1.49845 0
M  V30 5612 C 524.177 -1.59675 1.70371 0
M  V30 5613 C 525.158 -1.60878 0.552473 0
M  V30 5614 O 526.343 -1.77417 0.78973 0
M  V30 5615 C 523.473 -2.98098 1.782 0
M  V30 5616 C 522.427 -3.11761 2.93239 0
M  V30 5617 C 521.753 -4.51661 2.86193 0
M  V30 5618 C 523.053 -2.90589 4.33999 0
M  V30 5619 H 524.747 -1.42752 2.63177 0
M  V30 5620 H 522.293 -0.685317 1.26647 0
M  V30 5621 H 524.246 -3.75555 1.91144 0
M  V30 5622 H 522.97 -3.16138 0.820018 0
M  V30 5623 H 521.629 -2.36732 2.79917 0
M  V30 5624 H 521.277 -4.66595 1.87877 0
M  V30 5625 H 520.977 -4.61742 3.63412 0
M  V30 5626 H 522.501 -5.31162 3.01163 0
M  V30 5627 H 523.915 -3.57807 4.47936 0
M  V30 5628 H 522.312 -3.1213 5.12538 0
M  V30 5629 H 523.382 -1.86595 4.4756 0
M  V30 5630 N 524.725 -1.39134 -0.740242 0
M  V30 5631 C 525.688 -1.37217 -1.83587 0
M  V30 5632 C 526.688 -0.270221 -1.58513 0
M  V30 5633 O 527.878 -0.527843 -1.6601 0
M  V30 5634 C 525.01 -1.13959 -3.21288 0
M  V30 5635 H 526.203 -2.34705 -1.86691 0
M  V30 5636 H 523.756 -1.24622 -0.94335 0
M  V30 5637 H 524.491 -0.17131 -3.23847 0
M  V30 5638 H 524.276 -1.93754 -3.40884 0
M  V30 5639 H 525.766 -1.15346 -4.01354 0
M  V30 5640 N 526.204 0.969867 -1.24223 0
M  V30 5641 C 527.481 1.68774 -0.988664 0
M  V30 5642 C 527.861 2.05342 0.489673 0
M  V30 5643 O 527.209 1.75486 1.46345 0
M  V30 5644 C 527.419 2.92135 -1.90941 0
M  V30 5645 C 528.767 3.64422 -2.17903 0
M  V30 5646 O 529.791 3.02188 -1.88576 0
M  V30 5647 O 528.65 4.76446 -2.67697 0
M  V30 5648 H 525.744 0.737736 -0.37373 0
M  V30 5649 H 528.29 1.02415 -1.35312 0
M  V30 5650 H 527.062 2.61788 -2.90831 0
M  V30 5651 H 526.685 3.66228 -1.54798 0
M  V30 5652 N 527.682 1.05563 1.17022 0
M  V30 5653 C 529.098 0.777684 1.39371 0
M  V30 5654 C 529.298 -0.626269 1.91521 0
M  V30 5655 O 528.354 -1.38806 2.10924 0
M  V30 5656 C 529.667 1.83642 2.3811 0
M  V30 5657 C 531.215 1.85907 2.51809 0
M  V30 5658 C 531.69 2.90813 3.53824 0
M  V30 5659 N 533.181 2.898 3.61345 0
M  V30 5660 C 533.916 3.6762 4.40049 0
M  V30 5661 N 533.412 4.55237 5.22237 0
M  V30 5662 N 535.205 3.56044 4.34959 0
M  V30 5663 H 527.356 1.9614 0.815047 0
M  V30 5664 H 529.619 0.849527 0.420722 0
M  V30 5665 H 529.325 2.84425 2.06871 0
M  V30 5666 H 529.199 1.6812 3.37662 0
M  V30 5667 H 531.586 0.857865 2.82356 0
M  V30 5668 H 531.667 2.05506 1.52318 0
M  V30 5669 H 531.311 3.91122 3.24015 0
M  V30 5670 H 531.241 2.68465 4.53028 0
M  V30 5671 H 533.732 2.26274 3.02669 0
M  V30 5672 H 534.045 5.11291 5.79484 0
M  V30 5673 H 532.39 4.59296 5.21605 0
M  V30 5674 H 535.581 2.86986 3.69806 0
M  V30 5675 H 535.754 4.16938 4.96051 0
M  V30 5676 N 529.16 -1.33526 0.837174 0
M  V30 5677 C 530.107 -2.29248 0.267169 0
M  V30 5678 C 531.077 -1.54252 -0.616071 0
M  V30 5679 O 532.262 -1.82559 -0.554699 0
M  V30 5680 C 529.402 -3.40638 -0.553152 0
M  V30 5681 C 528.515 -4.30548 0.353921 0
M  V30 5682 C 527.65 -5.29051 -0.477339 0
M  V30 5683 C 526.689 -6.106 0.42823 0
M  V30 5684 N 525.826 -7.01152 -0.364801 0
M  V30 5685 H 530.666 -2.77398 1.08877 0
M  V30 5686 H 528.203 -1.36496 0.54838 0
M  V30 5687 H 530.161 -4.03921 -1.04422 0
M  V30 5688 H 528.791 -2.93685 -1.33973 0
M  V30 5689 H 527.843 -3.68001 0.963289 0
M  V30 5690 H 529.155 -4.87631 1.04964 0
M  V30 5691 H 528.309 -5.97853 -1.0323 0
M  V30 5692 H 527.048 -4.72541 -1.2065 0
M  V30 5693 H 526.053 -5.40718 0.995219 0
M  V30 5694 H 527.278 -6.69193 1.15573 0
M  V30 5695 H 525.224 -6.47092 -1.07738 0
M  V30 5696 H 525.141 -7.5551 0.272238 0
M  V30 5697 H 526.409 -7.74263 -0.902054 0
M  V30 5698 N 530.638 -0.59345 -1.46 0
M  V30 5699 C 531.886 -0.082988 -2.0193 0
M  V30 5700 C 532.207 1.28569 -1.46612 0
M  V30 5701 O 531.477 1.84629 -0.654909 0
M  V30 5702 H 530.057 -0.0276882 -0.746487 0
M  V30 5703 H 532.719 -0.771657 -1.78973 0
M  V30 5704 H 531.815 -0.022079 -3.12092 0
M  V30 5705 N 532.116 1.54067 -0.331816 0
M  V30 5706 C 533.344 2.05131 0.269996 0
M  V30 5707 C 533.759 1.20749 1.45138 0
M  V30 5708 O 533.116 0.240069 1.80914 0
M  V30 5709 C 533.167 3.54728 0.696456 0
M  V30 5710 O 532.888 4.35906 -0.43794 0
M  V30 5711 C 534.389 4.21916 1.36021 0
M  V30 5712 H 531.609 0.668807 0.0542042 0
M  V30 5713 H 534.153 1.98777 -0.4804 0
M  V30 5714 H 532.308 3.61342 1.39681 0
M  V30 5715 H 532.722 5.24404 -0.100334 0
M  V30 5716 H 534.196 5.28015 1.60947 0
M  V30 5717 H 534.673 3.73538 2.31011 0
M  V30 5718 H 535.279 4.19463 0.702212 0
M  V30 5719 N 533.594 0.0601682 1.57485 0
M  V30 5720 C 534.504 -0.926121 2.15546 0
M  V30 5721 C 535.52 -1.33532 1.11558 0
M  V30 5722 O 536.696 -1.4104 1.4377 0
M  V30 5723 C 533.761 -2.17952 2.69625 0
M  V30 5724 C 532.822 -1.82783 3.88444 0
M  V30 5725 C 532.055 -3.02148 4.39935 0
M  V30 5726 O 532.278 -4.15803 3.90466 0
M  V30 5727 O 531.212 -2.82639 5.31412 0
M  V30 5728 H 535.038 -0.462289 3.00161 0
M  V30 5729 H 532.623 -0.162246 1.48516 0
M  V30 5730 H 534.505 -2.91474 3.04337 0
M  V30 5731 H 533.18 -2.63456 1.88077 0
M  V30 5732 H 532.087 -1.06549 3.58606 0
M  V30 5733 H 533.42 -1.42072 4.7125 0
M  V30 5734 N 535.072 -1.5615 -0.213296 0
M  V30 5735 C 535.982 -1.96265 -1.28519 0
M  V30 5736 C 536.998 -0.86765 -1.50824 0
M  V30 5737 O 538.174 -1.17191 -1.63793 0
M  V30 5738 C 535.239 -2.27836 -2.61327 0
M  V30 5739 C 534.3 -3.50949 -2.47252 0
M  V30 5740 C 533.533 -3.81004 -3.73727 0
M  V30 5741 O 533.756 -3.12612 -4.77106 0
M  V30 5742 O 532.69 -4.74477 -3.70344 0
M  V30 5743 H 536.516 -2.87631 -0.974795 0
M  V30 5744 H 534.101 -1.43467 -0.416832 0
M  V30 5745 H 535.983 -2.49299 -3.39747 0
M  V30 5746 H 534.658 -1.39643 -2.9203 0
M  V30 5747 H 533.565 -3.34754 -1.67004 0
M  V30 5748 H 534.898 -4.39551 -2.21486 0
M  V30 5749 N 536.55 0.480323 -1.50102 0
M  V30 5750 C 537.48 1.58769 -1.71215 0
M  V30 5751 C 538.461 1.60583 -0.560997 0
M  V30 5752 O 539.646 1.76996 -0.799127 0
M  V30 5753 C 536.776 2.97148 -1.79778 0
M  V30 5754 C 535.73 3.10201 -2.94888 0
M  V30 5755 C 535.056 4.50137 -2.88584 0
M  V30 5756 C 536.356 2.88283 -4.35534 0
M  V30 5757 H 538.05 1.41354 -2.6393 0
M  V30 5758 H 535.596 0.678591 -1.27008 0
M  V30 5759 H 537.549 3.74536 -1.93133 0
M  V30 5760 H 536.273 3.15699 -0.836772 0
M  V30 5761 H 534.932 2.35244 -2.81169 0
M  V30 5762 H 534.58 4.65593 -1.90349 0
M  V30 5763 H 534.28 4.59808 -3.65856 0
M  V30 5764 H 535.804 5.29558 -3.03976 0
M  V30 5765 H 537.218 3.55427 -4.49827 0
M  V30 5766 H 535.615 3.09408 -5.14186 0
M  V30 5767 H 536.685 1.84219 -4.48544 0
M  V30 5768 N 538.028 1.39524 0.732853 0
M  V30 5769 C 539.258 1.3994 1.51988 0
M  V30 5770 C 539.666 -0.00727973 1.89199 0
M  V30 5771 O 539.009 -0.989521 1.54771 0
M  V30 5772 C 539.071 2.21026 2.83527 0
M  V30 5773 C 538.735 3.69633 2.68738 0
M  V30 5774 C 539.732 4.62665 2.37143 0
M  V30 5775 C 537.417 4.13244 2.85542 0
M  V30 5776 C 539.411 5.97291 2.22536 0
M  V30 5777 C 537.098 5.47945 2.70554 0
M  V30 5778 C 538.096 6.39783 2.39097 0
M  V30 5779 O 537.784 7.72002 2.24204 0
M  V30 5780 H 537.516 0.479795 0.476206 0
M  V30 5781 H 540.07 1.8399 0.913054 0
M  V30 5782 H 538.3 1.71728 3.46477 0
M  V30 5783 H 539.989 2.13594 3.45156 0
M  V30 5784 H 540.755 4.30272 2.2381 0
M  V30 5785 H 536.634 3.42094 3.09019 0
M  V30 5786 H 540.178 6.68939 1.97905 0
M  V30 5787 H 536.075 5.79928 2.83466 0
M  V30 5788 H 536.843 7.8275 2.39258 0
M  V30 5789 N 539.506 -0.963266 1.24736 0
M  V30 5790 C 540.469 -2.04013 1.04457 0
M  V30 5791 C 541.469 -1.608 0.000335555 0
M  V30 5792 O 542.659 -1.72515 0.241719 0
M  V30 5793 C 539.791 -3.35858 0.584162 0
M  V30 5794 H 540.984 -2.23436 2.00041 0
M  V30 5795 H 538.537 -1.13914 1.07021 0
M  V30 5796 H 539.272 -3.22128 -0.374673 0
M  V30 5797 H 539.057 -3.68568 1.3379 0
M  V30 5798 H 540.547 -4.1502 0.463451 0
M  V30 5799 N 540.985 -1.06182 -1.16461 0
M  V30 5800 C 542.234 -0.772927 -1.86303 0
M  V30 5801 C 542.547 0.703187 -1.82523 0
M  V30 5802 O 543.753 1.10641 -2.47933 0
M  V30 5803 C 542.209 -1.33249 -3.34324 0
M  V30 5804 C 541.817 -2.83876 -3.46581 0
M  V30 5805 C 543.561 -1.12108 -4.09429 0
M  V30 5806 C 541.468 -3.33082 -4.88682 0
M  V30 5807 H 540.398 -0.285452 -0.697878 0
M  V30 5808 H 543.049 -1.28039 -1.31447 0
M  V30 5809 H 541.431 -0.7528 -3.88779 0
M  V30 5810 H 542.605 -3.47786 -3.02293 0
M  V30 5811 H 540.92 -3.03671 -2.84909 0
M  V30 5812 H 543.517 -1.46361 -5.14279 0
M  V30 5813 H 543.86 -0.0593832 -4.16258 0
M  V30 5814 H 544.393 -1.6665 -3.6121 0
M  V30 5815 H 541.132 -4.38726 -4.87032 0
M  V30 5816 H 540.652 -2.73919 -5.33599 0
M  V30 5817 H 542.331 -3.28344 -5.57494 0
M  V30 5818 N 542.463 1.3308 -0.844243 0
M  V30 5819 C 543.41 2.29104 -0.279323 0
M  V30 5820 C 544.38 1.54577 0.607882 0
M  V30 5821 O 545.565 1.8285 0.545009 0
M  V30 5822 C 542.705 3.40927 0.53508 0
M  V30 5823 C 541.818 4.30354 -0.376749 0
M  V30 5824 C 540.953 5.29297 0.449276 0
M  V30 5825 C 539.992 6.10365 -0.460606 0
M  V30 5826 N 539.129 7.01335 0.327612 0
M  V30 5827 H 543.969 2.76817 -1.10346 0
M  V30 5828 H 541.506 1.36203 -0.555611 0
M  V30 5829 H 543.464 4.04469 1.02278 0
M  V30 5830 H 542.094 2.94391 1.32414 0
M  V30 5831 H 541.146 3.67485 -0.982791 0
M  V30 5832 H 542.458 4.87067 -1.07549 0
M  V30 5833 H 541.612 5.98392 1.00058 0
M  V30 5834 H 540.351 4.73174 1.18143 0
M  V30 5835 H 539.356 5.40182 -1.02388 0
M  V30 5836 H 540.581 6.68571 -1.1912 0
M  V30 5837 H 538.527 6.47655 1.04305 0
M  V30 5838 H 538.444 7.55355 -0.3123 0
M  V30 5839 H 539.712 7.74731 0.86098 0
M  V30 5840 N 543.941 0.601185 1.45683 0
M  V30 5841 C 545.19 0.0914953 2.01492 0
M  V30 5842 C 545.503 -1.28331 1.47616 0
M  V30 5843 O 546.709 -1.88537 1.95362 0
M  V30 5844 C 545.165 0.11291 3.59723 0
M  V30 5845 C 544.773 1.48717 4.22596 0
M  V30 5846 C 546.517 -0.341871 4.23121 0
M  V30 5847 C 544.424 1.46531 5.7296 0
M  V30 5848 H 543.354 0.0304365 0.753385 0
M  V30 5849 H 546.005 0.755568 1.67223 0
M  V30 5850 H 544.387 -0.617692 3.91153 0
M  V30 5851 H 545.561 2.23897 4.02749 0
M  V30 5852 H 543.876 1.88351 3.71366 0
M  V30 5853 H 546.473 -0.377304 5.33367 0
M  V30 5854 H 546.816 -1.36325 3.93346 0
M  V30 5855 H 547.349 0.335256 3.96385 0
M  V30 5856 H 544.088 2.46408 6.07423 0
M  V30 5857 H 543.608 0.755997 5.95017 0
M  V30 5858 H 545.287 1.18618 6.36034 0
M  V30 5859 N 545.419 -1.53889 0.339982 0
M  V30 5860 C 546.349 -2.27843 -0.510856 0
M  V30 5861 C 547.33 -1.29267 -1.10563 0
M  V30 5862 O 548.515 -1.58104 -1.12768 0
M  V30 5863 C 545.645 -3.04857 -1.66372 0
M  V30 5864 C 544.599 -4.10907 -1.19746 0
M  V30 5865 C 543.925 -4.75855 -2.43857 0
M  V30 5866 C 545.225 -5.21435 -0.300501 0
M  V30 5867 H 546.919 -2.99212 0.106067 0
M  V30 5868 H 544.465 -1.43904 0.0524533 0
M  V30 5869 H 546.418 -3.5533 -2.26537 0
M  V30 5870 H 545.142 -2.31133 -2.30749 0
M  V30 5871 H 543.801 -3.61342 -0.618654 0
M  V30 5872 H 543.449 -3.9873 -3.06633 0
M  V30 5873 H 543.149 -5.47502 -2.13343 0
M  V30 5874 H 544.673 -5.2911 -3.04754 0
M  V30 5875 H 546.087 -5.67565 -0.80889 0
M  V30 5876 H 544.484 -6.00036 -0.0874076 0
M  V30 5877 H 545.554 -4.80328 0.664321 0
M  V30 5878 N 546.897 -0.0685191 -1.57451 0
M  V30 5879 C 547.844 0.899861 -2.12535 0
M  V30 5880 C 548.814 1.29749 -1.03703 0
M  V30 5881 O 549.999 1.38392 -1.31348 0
M  V30 5882 C 547.139 2.16328 -2.6888 0
M  V30 5883 C 546.252 1.81857 -3.91857 0
M  V30 5884 C 545.387 3.02786 -4.36457 0
M  V30 5885 C 544.426 2.64317 -5.5209 0
M  V30 5886 N 543.563 3.77994 -5.91663 0
M  V30 5887 H 548.403 0.423243 -2.94979 0
M  V30 5888 H 545.94 0.197268 -1.45771 0
M  V30 5889 H 547.898 2.90281 -2.99655 0
M  V30 5890 H 546.528 2.61536 -1.89206 0
M  V30 5891 H 545.58 0.979808 -3.67565 0
M  V30 5892 H 546.892 1.49553 -4.75852 0
M  V30 5893 H 546.046 3.85021 -4.68875 0
M  V30 5894 H 544.785 3.38281 -3.51308 0
M  V30 5895 H 543.79 1.80503 -5.19325 0
M  V30 5896 H 545.015 2.29995 -6.38967 0
M  V30 5897 H 542.961 4.13258 -5.09464 0
M  V30 5898 H 542.878 3.49447 -6.7039 0
M  V30 5899 H 544.146 4.60818 -6.28703 0
M  V30 5900 N 548.375 1.56261 0.205012 0
M  V30 5901 C 549.322 1.93754 1.25411 0
M  V30 5902 C 550.292 0.796826 1.45739 0
M  V30 5903 O 551.477 1.05414 1.59036 0
M  V30 5904 C 548.617 2.27383 2.59598 0
M  V30 5905 C 547.73 3.5447 2.46931 0
M  V30 5906 C 546.865 3.77468 3.73753 0
M  V30 5907 C 545.904 4.98014 3.55877 0
M  V30 5908 N 545.041 5.17316 4.74688 0
M  V30 5909 H 549.881 2.83203 0.92737 0
M  V30 5910 H 547.418 1.40158 0.446574 0
M  V30 5911 H 549.376 2.44895 3.37761 0
M  V30 5912 H 548.006 1.41088 2.90335 0
M  V30 5913 H 547.058 3.45061 1.60116 0
M  V30 5914 H 548.37 4.42789 2.29651 0
M  V30 5915 H 547.524 3.95165 4.60358 0
M  V30 5916 H 546.263 2.87461 3.93976 0
M  V30 5917 H 545.268 4.80249 2.67657 0
M  V30 5918 H 546.493 5.8952 3.37109 0
M  V30 5919 H 544.439 4.30255 4.95194 0
M  V30 5920 H 544.356 5.99796 4.60197 0
M  V30 5921 H 545.624 5.39463 5.62672 0
M  V30 5922 N 549.853 -0.472356 1.50355 0
M  V30 5923 C 551.13 -1.23356 1.51798 0
M  V30 5924 C 551.51 -2.09469 0.26193 0
M  V30 5925 O 550.858 -2.15677 -0.754691 0
M  V30 5926 C 551.068 -2.06568 2.81302 0
M  V30 5927 C 552.416 -2.648 3.31913 0
M  V30 5928 O 553.44 -2.16812 2.82614 0
M  V30 5929 O 552.299 -3.52231 4.17846 0
M  V30 5930 H 549.393 -0.559707 0.608816 0
M  V30 5931 H 551.939 -0.48428 1.62643 0
M  V30 5932 H 550.711 -1.43103 3.64194 0
M  V30 5933 H 550.334 -2.88633 2.73454 0
M  V30 5934 N 551.331 -1.39911 -0.725443 0
M  V30 5935 C 552.577 -1.37858 -1.48738 0
M  V30 5936 C 552.91 0.0224187 -1.94187 0
M  V30 5937 O 552.185 0.989204 -1.67466 0
M  V30 5938 C 552.468 -2.3594 -2.72038 0
M  V30 5939 C 552.321 -3.85023 -2.32546 0
M  V30 5940 C 553.64 -2.31704 -3.74167 0
M  V30 5941 H 550.759 -0.502074 -0.539528 0
M  V30 5942 H 553.401 -1.70974 -0.828728 0
M  V30 5943 H 551.551 -2.0783 -3.28236 0
M  V30 5944 H 553.223 -4.2392 -1.81905 0
M  V30 5945 H 551.466 -4.01334 -1.64661 0
M  V30 5946 H 552.137 -4.49152 -3.20884 0
M  V30 5947 H 554.613 -2.5658 -3.27576 0
M  V30 5948 H 553.489 -3.02395 -4.58092 0
M  V30 5949 H 553.75 -1.3253 -4.21768 0
M  V30 5950 N 552.809 0.956637 -1.25245 0
M  V30 5951 C 554.055 1.70352 -1.10036 0
M  V30 5952 C 554.388 1.90869 0.358156 0
M  V30 5953 O 553.663 1.47819 1.26411 0
M  V30 5954 C 553.946 3.08766 -1.85298 0
M  V30 5955 C 553.799 2.95672 -3.38966 0
M  V30 5956 C 555.118 4.08622 -1.63451 0
M  V30 5957 H 552.237 0.618279 -0.401123 0
M  V30 5958 H 554.879 1.11212 -1.54051 0
M  V30 5959 H 553.029 3.59252 -1.47887 0
M  V30 5960 H 554.701 2.52527 -3.86041 0
M  V30 5961 H 552.944 2.31634 -3.6678 0
M  V30 5962 H 553.615 3.93776 -3.86839 0
M  V30 5963 H 556.091 3.67038 -1.96015 0
M  V30 5964 H 554.967 5.03514 -2.18551 0
M  V30 5965 H 555.228 4.3834 -0.575357 0
M  V30 5966 N 554.287 1.06798 1.15896 0
M  V30 5967 C 555.536 0.782796 1.8589 0
M  V30 5968 C 555.849 -0.693498 1.82893 0
M  V30 5969 O 557.055 -1.09325 2.48516 0
M  V30 5970 C 555.511 1.3502 3.33613 0
M  V30 5971 C 555.119 2.8571 3.45071 0
M  V30 5972 C 556.863 1.14278 4.08829 0
M  V30 5973 C 554.77 3.35669 4.86909 0
M  V30 5974 H 553.7 0.289149 0.696354 0
M  V30 5975 H 556.351 1.28734 1.30766 0
M  V30 5976 H 554.733 0.773407 3.88374 0
M  V30 5977 H 555.907 3.49385 3.00445 0
M  V30 5978 H 554.222 3.05178 2.83294 0
M  V30 5979 H 556.819 1.49087 5.13495 0
M  V30 5980 H 557.162 0.0814575 4.1622 0
M  V30 5981 H 557.695 1.68563 3.60321 0
M  V30 5982 H 554.434 4.41302 4.84698 0
M  V30 5983 H 553.954 2.76745 5.32139 0
M  V30 5984 H 555.633 3.31296 5.55745 0
M  V30 5985 N 555.766 -1.3263 0.851289 0
M  V30 5986 C 556.698 -2.27824 0.250757 0
M  V30 5987 C 557.711 -1.52285 -0.575598 0
M  V30 5988 O 558.9 -1.73946 -0.400638 0
M  V30 5989 C 556 -3.3232 -0.664571 0
M  V30 5990 C 555.173 -4.37221 0.125187 0
M  V30 5991 C 554.232 -5.21314 -0.715385 0
M  V30 5992 O 553.258 -5.69002 -0.150111 0
M  V30 5993 N 554.46 -5.43823 -2.03069 0
M  V30 5994 H 557.225 -2.79997 1.06873 0
M  V30 5995 H 554.786 -1.45455 0.710943 0
M  V30 5996 H 556.778 -3.85486 -1.23216 0
M  V30 5997 H 555.348 -2.80331 -1.38323 0
M  V30 5998 H 554.568 -3.84384 0.874199 0
M  V30 5999 H 555.856 -5.04399 0.667774 0
M  V30 6000 H 555.254 -5.06803 -2.51332 0
M  V30 6001 H 553.811 -5.99998 -2.54648 0
M  V30 6002 N 557.244 -0.608902 -1.45362 0
M  V30 6003 C 558.521 -0.0365378 -1.95566 0
M  V30 6004 C 558.901 1.43169 -1.55131 0
M  V30 6005 O 558.249 2.1349 -0.814513 0
M  V30 6006 C 558.459 -0.236026 -3.48201 0
M  V30 6007 C 559.807 -0.117518 -4.24437 0
M  V30 6008 O 560.831 -0.166217 -3.55812 0
M  V30 6009 O 559.69 -0.00372127 -5.465 0
M  V30 6010 H 556.784 0.0349874 -0.82626 0
M  V30 6011 H 559.33 -0.679055 -1.55521 0
M  V30 6012 H 558.102 -1.25569 -3.70605 0
M  V30 6013 H 557.725 0.441691 -3.95139 0
M  V30 6014 N 558.722 1.53707 -0.348139 0
M  V30 6015 C 559.999 1.93247 0.302475 0
M  V30 6016 C 560.379 1.28012 1.67857 0
M  V30 6017 O 559.727 0.43274 2.24365 0
M  V30 6018 C 559.937 3.47031 0.370159 0
M  V30 6019 C 561.285 4.20066 0.61882 0
M  V30 6020 O 562.309 3.53319 0.452087 0
M  V30 6021 O 561.168 5.38318 0.94215 0
M  V30 6022 H 558.262 0.807736 0.177458 0
M  V30 6023 H 560.808 1.64927 -0.399651 0
M  V30 6024 H 559.58 3.86745 -0.59534 0
M  V30 6025 H 559.203 3.81532 1.11888 0
M  V30 6026 N 560.2 0.0768682 1.57412 0
M  V30 6027 C 561.477 -0.632359 1.85096 0
M  V30 6028 C 561.857 -1.87479 0.9703 0
M  V30 6029 O 561.205 -2.28469 0.0379062 0
M  V30 6030 C 561.415 -0.965174 3.35388 0
M  V30 6031 C 562.763 -1.33648 4.03018 0
M  V30 6032 O 563.787 -1.05675 3.40164 0
M  V30 6033 O 562.646 -1.85959 5.13889 0
M  V30 6034 H 559.74 -0.314574 0.764835 0
M  V30 6035 H 562.286 0.108184 1.69355 0
M  V30 6036 H 561.058 -0.0829745 3.91212 0
M  V30 6037 H 560.681 -1.76231 3.5641 0
M  V30 6038 N 561.678 -1.56367 -0.196722 0
M  V30 6039 C 562.924 -1.80796 -0.918725 0
M  V30 6040 C 563.257 -0.650645 -1.82976 0
M  V30 6041 O 562.532 0.348889 -1.91345 0
M  V30 6042 C 562.815 -3.15472 -1.73636 0
M  V30 6043 C 562.668 -4.41693 -0.85015 0
M  V30 6044 C 563.987 -3.46824 -2.70927 0
M  V30 6045 H 561.106 -0.657702 -0.332561 0
M  V30 6046 H 563.748 -1.89086 -0.186186 0
M  V30 6047 H 561.898 -3.08536 -2.36088 0
M  V30 6048 H 563.57 -4.60673 -0.240459 0
M  V30 6049 H 561.813 -4.33517 -0.156785 0
M  V30 6050 H 562.484 -5.32419 -1.45719 0
M  V30 6051 H 564.96 -3.54049 -2.18607 0
M  V30 6052 H 563.836 -4.4218 -3.25219 0
M  V30 6053 H 564.097 -2.70236 -3.49893 0
M  V30 6054 N 563.156 0.464375 -1.50603 0
M  V30 6055 C 564.066 1.58723 -1.72754 0
M  V30 6056 C 565.082 1.62925 -0.610844 0
M  V30 6057 O 566.258 1.8067 -0.889963 0
M  V30 6058 C 563.323 2.94897 -1.82309 0
M  V30 6059 C 562.384 3.0103 -3.06071 0
M  V30 6060 C 561.617 4.30708 -3.1516 0
M  V30 6061 O 561.84 5.2159 -2.30868 0
M  V30 6062 O 560.774 4.42571 -4.0794 0
M  V30 6063 H 564.6 1.42954 -2.67951 0
M  V30 6064 H 562.185 0.644579 -1.3478 0
M  V30 6065 H 564.067 3.75764 -1.90735 0
M  V30 6066 H 562.742 3.10851 -0.902967 0
M  V30 6067 H 561.649 2.19217 -3.03142 0
M  V30 6068 H 562.982 2.90014 -3.97684 0
M  V30 6069 N 564.634 1.40294 0.718013 0
M  V30 6070 C 565.874 1.39888 1.49032 0
M  V30 6071 C 566.238 -0.000462935 1.92 0
M  V30 6072 O 567.439 -0.129622 2.68487 0
M  V30 6073 C 565.71 2.35868 2.68516 0
M  V30 6074 S 567.269 2.53799 3.57954 0
M  V30 6075 H 564.087 0.495849 0.509563 0
M  V30 6076 H 566.689 1.76541 0.839846 0
M  V30 6077 H 565.393 3.36375 2.35117 0
M  V30 6078 H 564.924 2.0049 3.38478 0
M  V30 6079 H 566.939 1.78859 4.62843 0
M  V30 6080 N 566.112 -0.949982 1.2575 0
M  V30 6081 C 567.34 -1.72972 1.13527 0
M  V30 6082 C 567.755 -1.8623 -0.310453 0
M  V30 6083 O 567.112 -1.36336 -1.2132 0
M  V30 6084 C 567.163 -3.14108 1.78936 0
M  V30 6085 O 566.884 -3.01493 3.17858 0
M  V30 6086 C 568.385 -4.08338 1.72554 0
M  V30 6087 H 565.605 -0.541864 0.395758 0
M  V30 6088 H 568.149 -1.19151 1.66202 0
M  V30 6089 H 566.304 -3.64858 1.30221 0
M  V30 6090 H 566.718 -3.90559 3.50092 0
M  V30 6091 H 568.192 -5.04963 2.22973 0
M  V30 6092 H 568.669 -4.33742 0.690251 0
M  V30 6093 H 569.275 -3.63506 2.2078 0
M  V30 6094 N 567.59 -1.07411 -1.15328 0
M  V30 6095 C 568.523 -0.63913 -2.19067 0
M  V30 6096 C 569.501 0.343929 -1.58921 0
M  V30 6097 O 570.685 0.250207 -1.86832 0
M  V30 6098 C 567.812 0.0613977 -3.38644 0
M  V30 6099 C 566.858 -0.880201 -4.17318 0
M  V30 6100 S 567.691 -2.38152 -4.79629 0
M  V30 6101 C 568.847 -1.69281 -6.02573 0
M  V30 6102 H 569.08 -1.51799 -2.55626 0
M  V30 6103 H 566.613 -0.888138 -1.26299 0
M  V30 6104 H 568.571 0.459323 -4.07922 0
M  V30 6105 H 567.232 0.916605 -3.00428 0
M  V30 6106 H 566.425 -0.336781 -5.02874 0
M  V30 6107 H 566.027 -1.21854 -3.53592 0
M  V30 6108 H 568.319 -1.00488 -6.70006 0
M  V30 6109 H 569.262 -2.52671 -6.61485 0
M  V30 6110 H 569.67 -1.17053 -5.52231 0
M  V30 6111 N 569.068 1.32177 -0.85831 0
M  V30 6112 C 570.314 1.97417 -0.46417 0
M  V30 6113 C 570.647 1.67746 0.978514 0
M  V30 6114 O 569.922 0.967654 1.68721 0
M  V30 6115 C 570.205 3.53069 -0.708094 0
M  V30 6116 C 570.058 3.92357 -2.19946 0
M  V30 6117 C 571.377 4.39783 -0.166881 0
M  V30 6118 H 568.496 0.717097 -0.17012 0
M  V30 6119 H 571.138 1.56499 -1.07741 0
M  V30 6120 H 569.288 3.88054 -0.186128 0
M  V30 6121 H 570.96 3.67533 -2.78779 0
M  V30 6122 H 569.203 3.41384 -2.67656 0
M  V30 6123 H 569.874 5.00841 -2.32082 0
M  V30 6124 H 572.35 4.11556 -0.613285 0
M  V30 6125 H 571.226 5.47671 -0.367093 0
M  V30 6126 H 571.487 4.32196 0.930559 0
M  V30 6127 N 570.547 0.616602 1.45037 0
M  V30 6128 C 571.457 -0.0985401 2.34393 0
M  V30 6129 C 572.473 -0.850971 1.51771 0
M  V30 6130 O 573.649 -0.806521 1.84546 0
M  V30 6131 C 570.714 -1.07748 3.29532 0
M  V30 6132 C 569.775 -0.326022 4.2806 0
M  V30 6133 C 569.008 -1.25833 5.18654 0
M  V30 6134 O 569.231 -2.49652 5.12864 0
M  V30 6135 O 568.165 -0.750512 5.97203 0
M  V30 6136 H 571.991 0.636016 2.96966 0
M  V30 6137 H 569.576 0.376832 1.44569 0
M  V30 6138 H 571.458 -1.64107 3.88133 0
M  V30 6139 H 570.133 -1.79291 2.69512 0
M  V30 6140 H 569.04 0.280253 3.73049 0
M  V30 6141 H 570.373 0.349091 4.9096 0
M  V30 6142 N 572.025 -1.5352 0.356285 0
M  V30 6143 C 572.972 -2.25439 -0.494569 0
M  V30 6144 C 573.942 -1.25752 -1.08516 0
M  V30 6145 O 575.127 -1.54513 -1.1194 0
M  V30 6146 C 572.267 -3.04011 -1.63313 0
M  V30 6147 C 571.38 -4.18574 -1.06862 0
M  V30 6148 C 570.515 -4.84607 -2.17552 0
M  V30 6149 C 569.554 -5.91218 -1.58518 0
M  V30 6150 N 568.691 -6.50979 -2.63003 0
M  V30 6151 H 573.531 -2.97737 0.125244 0
M  V30 6152 H 571.068 -1.46916 0.0735789 0
M  V30 6153 H 573.026 -3.47834 -2.30363 0
M  V30 6154 H 571.656 -2.33986 -2.22374 0
M  V30 6155 H 570.708 -3.79303 -0.288672 0
M  V30 6156 H 572.02 -4.95215 -0.596924 0
M  V30 6157 H 571.174 -5.31566 -2.92442 0
M  V30 6158 H 569.913 -4.07418 -2.6807 0
M  V30 6159 H 568.918 -5.4363 -0.821391 0
M  V30 6160 H 570.143 -6.70322 -1.08836 0
M  V30 6161 H 568.089 -5.76648 -3.12751 0
M  V30 6162 H 568.006 -7.23131 -2.20493 0
M  V30 6163 H 569.274 -7.02589 -3.37623 0
M  V30 6164 N 573.503 -0.0852151 -1.57369 0
M  V30 6165 C 574.919 0.271436 -1.57275 0
M  V30 6166 C 575.119 1.69109 -1.09565 0
M  V30 6167 O 574.175 2.40549 -0.767611 0
M  V30 6168 C 575.488 0.0688638 -3.00621 0
M  V30 6169 C 577.036 0.137373 -3.12698 0
M  V30 6170 C 577.511 -0.0370832 -4.57985 0
M  V30 6171 N 579.002 0.0180794 -4.63196 0
M  V30 6172 C 579.737 -0.0922953 -5.73326 0
M  V30 6173 N 579.233 -0.256948 -6.92323 0
M  V30 6174 N 581.026 -0.0342702 -5.6209 0
M  V30 6175 H 573.177 -1.01288 -1.86693 0
M  V30 6176 H 575.44 -0.396138 -0.861266 0
M  V30 6177 H 575.146 -0.911277 -3.39689 0
M  V30 6178 H 575.02 0.815442 -3.6828 0
M  V30 6179 H 577.407 1.10801 -2.73509 0
M  V30 6180 H 577.488 -0.640532 -2.47651 0
M  V30 6181 H 577.132 -1.00455 -4.97867 0
M  V30 6182 H 577.062 0.760392 -5.21081 0
M  V30 6183 H 579.553 0.143202 -3.77629 0
M  V30 6184 H 579.866 -0.332949 -7.72082 0
M  V30 6185 H 578.211 -0.292487 -6.94384 0
M  V30 6186 H 581.402 0.0931605 -4.68007 0
M  V30 6187 H 581.575 -0.12374 -6.47882 0
M  V30 6188 N 574.981 1.5647 0.188427 0
M  V30 6189 C 576.227 1.81281 0.909124 0
M  V30 6190 C 576.56 0.66034 1.82628 0
M  V30 6191 O 575.835 -0.338737 1.91528 0
M  V30 6192 C 576.118 3.16388 1.7196 0
M  V30 6193 C 575.971 4.42137 0.826714 0
M  V30 6194 C 577.29 3.48256 2.69083 0
M  V30 6195 H 574.409 0.659457 0.329068 0
M  V30 6196 H 577.051 1.89182 0.176156 0
M  V30 6197 H 575.201 3.09784 2.34448 0
M  V30 6198 H 576.873 4.60794 0.216025 0
M  V30 6199 H 575.116 4.33594 0.133792 0
M  V30 6200 H 575.787 5.33184 1.42893 0
M  V30 6201 H 578.263 3.55203 2.16726 0
M  V30 6202 H 577.139 4.43899 3.2287 0
M  V30 6203 H 577.4 2.72088 3.48455 0
M  V30 6204 N 576.459 -0.456382 1.50847 0
M  V30 6205 C 577.389 -1.56025 1.73719 0
M  V30 6206 C 578.37 -1.5967 0.586473 0
M  V30 6207 O 579.555 -1.75702 0.827185 0
M  V30 6208 C 576.685 -2.94251 1.84483 0
M  V30 6209 C 575.639 -3.05471 2.99786 0
M  V30 6210 C 574.965 -4.45489 2.95709 0
M  V30 6211 C 576.265 -2.81318 4.40065 0
M  V30 6212 H 577.959 -1.37138 2.66146 0
M  V30 6213 H 575.505 -0.658299 1.28072 0
M  V30 6214 H 577.458 -3.71417 1.99067 0
M  V30 6215 H 576.182 -3.14328 0.886891 0
M  V30 6216 H 574.841 -2.30741 2.84876 0
M  V30 6217 H 574.489 -4.62505 1.97732 0
M  V30 6218 H 574.189 -4.53929 3.73125 0
M  V30 6219 H 575.713 -5.24655 3.12362 0
M  V30 6220 H 577.127 -3.48226 4.55425 0
M  V30 6221 H 575.524 -3.01188 5.19043 0
M  V30 6222 H 576.594 -1.7706 4.51418 0
M  V30 6223 N 577.937 -1.40673 -0.710563 0
M  V30 6224 C 578.9 -1.4108 -1.80635 0
M  V30 6225 C 579.9 -0.303783 -1.57904 0
M  V30 6226 O 581.09 -0.562937 -1.64853 0
M  V30 6227 C 578.222 -1.20748 -3.18799 0
M  V30 6228 H 579.415 -2.38612 -1.81671 0
M  V30 6229 H 576.968 -1.26595 -0.916704 0
M  V30 6230 H 577.703 -0.239964 -3.23411 0
M  V30 6231 H 577.488 -2.00941 -3.36698 0
M  V30 6232 H 578.978 -1.23833 -3.98817 0
M  V30 6233 N 579.415 0.9433 -1.26252 0
M  V30 6234 C 580.345 2.05902 -1.10122 0
M  V30 6235 C 581.326 1.70099 -0.00700552 0
M  V30 6236 O 582.511 1.93377 -0.178641 0
M  V30 6237 C 579.641 3.39516 -0.731175 0
M  V30 6238 C 578.595 3.89372 -1.77688 0
M  V30 6239 C 577.921 5.19613 -1.26122 0
M  V30 6240 C 579.221 4.14489 -3.17799 0
M  V30 6241 H 580.915 2.19655 -2.03451 0
M  V30 6242 H 578.461 1.05548 -0.979576 0
M  V30 6243 H 580.414 4.17031 -0.605215 0
M  V30 6244 H 579.138 3.25733 0.23782 0
M  V30 6245 H 577.797 3.14036 -1.89148 0
M  V30 6246 H 577.445 5.02208 -0.282128 0
M  V30 6247 H 577.145 5.53939 -1.96023 0
M  V30 6248 H 578.669 5.99713 -1.14789 0
M  V30 6249 H 580.083 4.82625 -3.09428 0
M  V30 6250 H 578.48 4.60094 -3.85271 0
M  V30 6251 H 579.55 3.20347 -3.64014 0
M  V30 6252 N 580.893 1.08022 1.14757 0
M  V30 6253 C 581.823 0.728248 2.21853 0
M  V30 6254 C 582.804 -0.287486 1.67653 0
M  V30 6255 O 583.989 -0.158727 1.9355 0
M  V30 6256 C 581.119 0.132549 3.47047 0
M  V30 6257 C 580.073 1.07619 4.14249 0
M  V30 6258 C 579.399 0.342907 5.33599 0
M  V30 6259 C 580.699 2.41268 4.63235 0
M  V30 6260 H 582.393 1.62365 2.51551 0
M  V30 6261 H 579.939 0.782125 1.20908 0
M  V30 6262 H 581.892 -0.125665 4.21213 0
M  V30 6263 H 580.616 -0.797971 3.16702 0
M  V30 6264 H 579.275 1.31944 3.42033 0
M  V30 6265 H 578.923 -0.59129 4.99513 0
M  V30 6266 H 578.623 0.971955 5.79506 0
M  V30 6267 H 580.147 0.0926538 6.1053 0
M  V30 6268 H 581.561 2.21232 5.28894 0
M  V30 6269 H 579.958 2.9983 5.19829 0
M  V30 6270 H 581.028 3.03079 3.78512 0
M  V30 6271 N 582.371 -1.3172 0.865308 0
M  V30 6272 C 583.648 -1.91574 0.394789 0
M  V30 6273 C 584.028 -1.78769 -1.12271 0
M  V30 6274 O 583.376 -1.19245 -1.94918 0
M  V30 6275 C 583.586 -3.37957 0.870982 0
M  V30 6276 C 584.934 -4.15073 0.894384 0
M  V30 6277 O 585.958 -3.4672 0.816325 0
M  V30 6278 O 584.817 -5.37151 1.00651 0
M  V30 6279 H 581.911 -0.818649 0.117229 0
M  V30 6280 H 584.457 -1.4042 0.952913 0
M  V30 6281 H 583.229 -3.41269 1.91444 0
M  V30 6282 H 582.852 -3.96534 0.290907 0
M  V30 6283 N 583.85 -0.624285 -1.44708 0
M  V30 6284 C 584.797 0.0847135 -2.30644 0
M  V30 6285 C 585.767 0.843575 -1.43084 0
M  V30 6286 O 586.952 0.825982 -1.71995 0
M  V30 6287 C 584.091 1.06495 -3.28257 0
M  V30 6288 C 583.205 0.305224 -4.3092 0
M  V30 6289 C 582.34 1.27667 -5.1563 0
M  V30 6290 C 581.379 0.505706 -6.10007 0
M  V30 6291 N 580.516 1.42727 -6.8744 0
M  V30 6292 H 585.356 -0.654068 -2.90733 0
M  V30 6293 H 582.893 -0.334334 -1.4325 0
M  V30 6294 H 584.851 1.64658 -3.83332 0
M  V30 6295 H 583.481 1.77094 -2.69884 0
M  V30 6296 H 582.533 -0.392207 -3.78373 0
M  V30 6297 H 583.845 -0.295553 -4.97924 0
M  V30 6298 H 582.999 1.92984 -5.75189 0
M  V30 6299 H 581.738 1.91137 -4.48685 0
M  V30 6300 H 580.743 -0.160999 -5.49564 0
M  V30 6301 H 581.968 -0.124183 -6.78986 0
M  V30 6302 H 579.913 2.04931 -6.23169 0
M  V30 6303 H 579.831 0.880345 -7.50857 0
M  V30 6304 H 581.099 2.0695 -7.51526 0
M  V30 6305 N 585.328 1.53329 -0.364422 0
M  V30 6306 C 586.739 1.86345 0.115039 0
M  V30 6307 C 587.09 1.28505 1.4826 0
M  V30 6308 O 586.215 0.606639 2.07723 0
M  V30 6309 C 586.81 3.38114 0.215522 0
M  V30 6310 C 585.369 3.70932 0.639237 0
M  V30 6311 C 584.516 2.76471 -0.214261 0
M  V30 6312 H 587.467 1.47593 -0.583258 0
M  V30 6313 H 587.488 3.66031 1.0393 0
M  V30 6314 H 587 3.80182 -0.779948 0
M  V30 6315 H 585.101 3.3442 1.64298 0
M  V30 6316 H 585.214 4.77302 0.41465 0
M  V30 6317 H 583.578 2.52724 0.316678 0
M  V30 6318 H 584.361 3.21373 -1.20725 0
M  V30 6319 N 586.806 0.0935595 1.57322 0
M  V30 6320 C 588.217 -0.435807 1.81542 0
M  V30 6321 C 588.568 -1.68263 1.00907 0
M  V30 6322 O 587.693 -2.15087 0.237983 0
M  V30 6323 C 588.288 -0.797436 3.29282 0
M  V30 6324 C 586.847 -1.27155 3.54272 0
M  V30 6325 C 585.994 -0.267455 2.76007 0
M  V30 6326 H 588.945 0.31902 1.5546 0
M  V30 6327 H 588.966 -1.6571 3.42521 0
M  V30 6328 H 588.478 0.110206 3.87943 0
M  V30 6329 H 586.579 -2.19696 3.00939 0
M  V30 6330 H 586.692 -1.23445 4.62923 0
M  V30 6331 H 585.056 -0.749282 2.43429 0
M  V30 6332 H 585.839 0.632839 3.37417 0
M  V30 6333 N 588.284 -1.56567 -0.180126 0
M  V30 6334 C 589.531 -1.81492 -0.898167 0
M  V30 6335 C 589.859 -0.669225 -1.82624 0
M  V30 6336 O 589.114 0.344096 -1.92651 0
M  V30 6337 C 589.413 -3.1252 -1.73395 0
M  V30 6338 C 589.079 -4.40658 -0.955567 0
M  V30 6339 C 587.741 -4.75465 -0.740707 0
M  V30 6340 C 590.093 -5.19593 -0.408948 0
M  V30 6341 C 587.421 -5.86691 0.0320128 0
M  V30 6342 C 589.773 -6.31627 0.350638 0
M  V30 6343 C 588.437 -6.65007 0.576378 0
M  V30 6344 H 587.707 -0.664125 -0.328662 0
M  V30 6345 H 590.354 -1.908 -0.163616 0
M  V30 6346 H 588.659 -2.98515 -2.53763 0
M  V30 6347 H 590.356 -3.29013 -2.29241 0
M  V30 6348 H 586.946 -4.13352 -1.13306 0
M  V30 6349 H 591.13 -4.93104 -0.562307 0
M  V30 6350 H 586.386 -6.11016 0.216735 0
M  V30 6351 H 590.56 -6.92001 0.781497 0
M  V30 6352 H 588.187 -7.51033 1.17703 0
M  V30 6353 N 589.762 0.448376 -1.51087 0
M  V30 6354 C 590.692 1.55102 -1.74544 0
M  V30 6355 C 591.673 1.59357 -0.594932 0
M  V30 6356 O 592.858 1.75261 -0.836491 0
M  V30 6357 C 589.988 2.93268 -1.86041 0
M  V30 6358 C 588.942 3.03877 -3.01402 0
M  V30 6359 C 588.268 4.43914 -2.98068 0
M  V30 6360 C 589.568 2.7898 -4.41551 0
M  V30 6361 H 591.262 1.35724 -2.66869 0
M  V30 6362 H 588.808 0.651498 -1.28419 0
M  V30 6363 H 590.761 3.70356 -2.01034 0
M  V30 6364 H 589.485 3.13853 -0.903548 0
M  V30 6365 H 588.144 2.29227 -2.86096 0
M  V30 6366 H 587.792 4.6145 -2.00182 0
M  V30 6367 H 587.492 4.51944 -3.75527 0
M  V30 6368 H 589.016 5.22991 -3.1514 0
M  V30 6369 H 590.43 3.45805 -4.57265 0
M  V30 6370 H 588.827 2.98431 -5.20633 0
M  V30 6371 H 589.897 1.74663 -4.5235 0
M  V30 6372 N 591.24 1.41047 0.703093 0
M  V30 6373 C 592.468 1.4334 1.49202 0
M  V30 6374 C 592.883 0.0365596 1.88765 0
M  V30 6375 O 592.24 -0.942419 1.56284 0
M  V30 6376 C 592.291 2.33538 2.75939 0
M  V30 6377 O 592.012 3.67786 2.38045 0
M  V30 6378 C 593.513 2.44555 3.6974 0
M  V30 6379 H 590.733 0.488472 0.460039 0
M  V30 6380 H 593.277 1.85245 0.86629 0
M  V30 6381 H 591.432 1.94962 3.34766 0
M  V30 6382 H 591.846 4.15816 3.19683 0
M  V30 6383 H 593.32 3.11849 4.55471 0
M  V30 6384 H 593.797 1.47447 4.1371 0
M  V30 6385 H 594.403 2.83735 3.16819 0
M  V30 6386 N 592.718 -0.936591 1.26751 0
M  V30 6387 C 593.65 -2.03991 1.045 0
M  V30 6388 C 594.663 -1.628 0.00394261 0
M  V30 6389 O 595.852 -1.76817 0.244526 0
M  V30 6390 C 592.952 -3.34218 0.561403 0
M  V30 6391 C 592.125 -4.04151 1.67274 0
M  V30 6392 C 591.184 -5.12651 1.1864 0
M  V30 6393 O 590.21 -5.37104 1.88437 0
M  V30 6394 N 591.412 -5.80488 0.037278 0
M  V30 6395 H 594.177 -2.23644 1.99508 0
M  V30 6396 H 591.738 -1.10638 1.18198 0
M  V30 6397 H 593.73 -4.04101 0.220136 0
M  V30 6398 H 592.3 -3.11203 -0.295211 0
M  V30 6399 H 591.52 -3.28121 2.18472 0
M  V30 6400 H 592.808 -4.47626 2.41885 0
M  V30 6401 H 592.206 -5.63064 -0.545494 0
M  V30 6402 H 590.763 -6.5134 -0.244877 0
M  V30 6403 N 594.196 -1.08629 -1.14182 0
M  V30 6404 C 595.126 -0.740003 -2.21464 0
M  V30 6405 C 596.107 0.278591 -1.67803 0
M  V30 6406 O 597.292 0.148461 -1.93632 0
M  V30 6407 C 594.422 -0.150952 -3.46972 0
M  V30 6408 C 593.376 -1.09815 -4.13672 0
M  V30 6409 C 592.702 -0.3712 -5.3341 0
M  V30 6410 C 594.002 -2.43722 -4.61949 0
M  V30 6411 H 595.696 -1.63697 -2.50686 0
M  V30 6412 H 593.242 -0.788526 -1.20492 0
M  V30 6413 H 595.195 0.103325 -4.21273 0
M  V30 6414 H 593.919 0.781164 -3.1712 0
M  V30 6415 H 592.578 -1.33756 -3.41328 0
M  V30 6416 H 592.226 0.564792 -4.99819 0
M  V30 6417 H 591.926 -1.00267 -5.78982 0
M  V30 6418 H 593.45 -0.12503 -6.10472 0
M  V30 6419 H 594.864 -2.24034 -5.27714 0
M  V30 6420 H 593.261 -3.02582 -5.18232 0
M  V30 6421 H 594.331 -3.05082 -3.76899 0
M  V30 6422 N 595.674 1.31259 -0.872281 0
M  V30 6423 C 596.624 2.26 -0.301295 0
M  V30 6424 C 597.608 1.50729 0.562991 0
M  V30 6425 O 598.8 1.72198 0.40949 0
M  V30 6426 C 595.929 3.39724 0.494227 0
M  V30 6427 C 595.015 4.22363 -0.383432 0
M  V30 6428 N 595.406 4.83724 -1.47799 0
M  V30 6429 C 593.704 4.45652 -0.176278 0
M  V30 6430 C 594.405 5.45523 -2.01939 0
M  V30 6431 N 593.381 5.27428 -1.31608 0
M  V30 6432 H 597.183 2.70981 -1.13782 0
M  V30 6433 H 594.697 1.45552 -0.720294 0
M  V30 6434 H 596.694 4.06626 0.919828 0
M  V30 6435 H 595.354 2.96286 1.32834 0
M  V30 6436 H 596.365 4.83313 -1.8609 0
M  V30 6437 H 593.042 4.12845 0.621698 0
M  V30 6438 H 594.432 6.04268 -2.93786 0
M  V30 6439 N 597.152 0.631951 1.44375 0
M  V30 6440 C 598.377 0.142146 2.06912 0
M  V30 6441 C 598.802 -1.17456 1.4692 0
M  V30 6442 O 598.16 -1.72074 0.570975 0
M  V30 6443 C 598.208 0.0417952 3.60576 0
M  V30 6444 O 597.312 -1.00194 4.00044 0
M  V30 6445 H 596.653 0.0851491 0.658518 0
M  V30 6446 H 599.183 0.868863 1.85235 0
M  V30 6447 H 599.193 -0.148517 4.0773 0
M  V30 6448 H 597.868 1.0031 4.03622 0
M  V30 6449 H 596.445 -0.786131 3.64519 0
M  V30 6450 N 598.631 -1.53133 0.372548 0
M  V30 6451 C 599.871 -2.03267 -0.214943 0
M  V30 6452 C 600.235 -1.25362 -1.45425 0
M  V30 6453 O 601.436 -1.65536 -2.11781 0
M  V30 6454 C 599.707 -3.53985 -0.492897 0
M  V30 6455 S 601.266 -4.25977 -1.05307 0
M  V30 6456 H 598.084 -0.708289 -0.062029 0
M  V30 6457 H 600.686 -1.88539 0.517025 0
M  V30 6458 H 599.39 -4.08282 0.416442 0
M  V30 6459 H 598.921 -3.72887 -1.25375 0
M  V30 6460 H 600.936 -4.37731 -2.33679 0
M  V30 6461 N 600.109 -0.101901 -1.5727 0
M  V30 6462 C 601.356 0.560197 -1.94597 0
M  V30 6463 C 601.684 1.67767 -0.984101 0
M  V30 6464 O 600.939 1.95699 -0.00489193 0
M  V30 6465 C 601.238 1.14898 -3.38427 0
M  V30 6466 C 600.904 0.154613 -4.50635 0
M  V30 6467 C 599.566 -0.118861 -4.81053 0
M  V30 6468 C 601.918 -0.523979 -5.18559 0
M  V30 6469 C 599.246 -1.0775 -5.76721 0
M  V30 6470 C 601.598 -1.47114 -6.15256 0
M  V30 6471 C 600.262 -1.75278 -6.44076 0
M  V30 6472 H 599.532 0.204991 -0.712081 0
M  V30 6473 H 602.179 -0.17918 -1.9066 0
M  V30 6474 H 600.484 1.96476 -3.38976 0
M  V30 6475 H 602.181 1.66909 -3.64613 0
M  V30 6476 H 598.771 0.377948 -4.2693 0
M  V30 6477 H 602.955 -0.325851 -4.95229 0
M  V30 6478 H 598.211 -1.30263 -5.97362 0
M  V30 6479 H 602.385 -2.00274 -6.66981 0
M  V30 6480 H 600.012 -2.49717 -7.18015 0
M  V30 6481 N 601.587 1.56661 0.17182 0
M  V30 6482 C 602.519 1.92934 1.2373 0
M  V30 6483 C 603.532 0.822385 1.40502 0
M  V30 6484 O 604.721 1.10083 1.40514 0
M  V30 6485 C 601.821 2.16651 2.60607 0
M  V30 6486 C 600.994 3.47878 2.6514 0
M  V30 6487 C 600.053 3.60429 3.83377 0
M  V30 6488 O 599.079 4.33051 3.69398 0
M  V30 6489 N 600.281 2.95241 4.99813 0
M  V30 6490 H 603.046 2.84931 0.929205 0
M  V30 6491 H 600.607 1.5781 0.361588 0
M  V30 6492 H 602.599 2.22312 3.38171 0
M  V30 6493 H 601.169 1.3104 2.83809 0
M  V30 6494 H 600.389 3.53879 1.73675 0
M  V30 6495 H 601.677 4.34232 2.6518 0
M  V30 6496 H 601.075 2.3611 5.14071 0
M  V30 6497 H 599.632 3.06499 5.75241 0
M  V30 6498 N 603.065 -0.440357 1.51323 0
M  V30 6499 C 604.293 -1.21255 1.67645 0
M  V30 6500 C 604.708 -1.85088 0.37252 0
M  V30 6501 O 604.065 -1.70582 -0.648683 0
M  V30 6502 C 604.116 -2.29881 2.78993 0
M  V30 6503 O 603.837 -1.68659 4.04334 0
M  V30 6504 C 605.338 -3.20214 3.06558 0
M  V30 6505 H 602.558 -0.36558 0.562666 0
M  V30 6506 H 605.102 -0.52214 1.97722 0
M  V30 6507 H 603.257 -2.94643 2.51524 0
M  V30 6508 H 603.671 -2.40426 4.6615 0
M  V30 6509 H 605.145 -3.92575 3.88058 0
M  V30 6510 H 605.622 -3.80794 2.18844 0
M  V30 6511 H 606.228 -2.61156 3.35675 0
M  V30 6512 N 604.543 -1.41418 -0.695603 0
M  V30 6513 C 605.789 -1.40982 -1.4578 0
M  V30 6514 C 606.122 -0.0187763 -1.94191 0
M  V30 6515 O 605.397 0.95346 -1.69527 0
M  V30 6516 C 605.68 -2.41657 -2.66972 0
M  V30 6517 C 605.533 -3.89869 -2.24327 0
M  V30 6518 C 606.852 -2.39589 -3.69168 0
M  V30 6519 H 603.971 -0.513405 -0.528757 0
M  V30 6520 H 606.613 -1.72693 -0.792275 0
M  V30 6521 H 604.763 -2.14746 -3.23754 0
M  V30 6522 H 606.435 -4.27683 -1.72872 0
M  V30 6523 H 604.678 -4.04737 -1.56111 0
M  V30 6524 H 605.349 -4.55857 -3.11285 0
M  V30 6525 H 607.825 -2.63471 -3.2206 0
M  V30 6526 H 606.701 -3.12044 -4.51575 0
M  V30 6527 H 606.962 -1.41447 -4.18862 0
M  V30 6528 N 606.021 0.929856 -1.27246 0
M  V30 6529 C 607.298 1.65544 -1.04186 0
M  V30 6530 C 607.678 2.06796 0.424097 0
M  V30 6531 O 607.026 1.80053 1.40688 0
M  V30 6532 C 607.236 2.85912 -2.00138 0
M  V30 6533 C 608.584 3.57305 -2.29387 0
M  V30 6534 O 609.608 2.96036 -1.98094 0
M  V30 6535 O 608.467 4.67688 -2.82719 0
M  V30 6536 H 605.561 0.725473 -0.397011 0
M  V30 6537 H 608.107 0.980583 -1.38501 0
M  V30 6538 H 606.879 2.52403 -2.99013 0
M  V30 6539 H 606.502 3.61118 -1.66371 0
M  V30 6540 N 607.499 1.09233 1.13605 0
M  V30 6541 C 608.915 0.82163 1.36826 0
M  V30 6542 C 609.115 -0.565021 1.93416 0
M  V30 6543 O 608.171 -1.32026 2.15234 0
M  V30 6544 C 609.484 1.91124 2.32147 0
M  V30 6545 C 611.032 1.93824 2.45767 0
M  V30 6546 C 611.507 3.01923 3.44393 0
M  V30 6547 N 612.998 3.01149 3.51942 0
M  V30 6548 C 613.733 3.81434 4.2813 0
M  V30 6549 N 613.229 4.71621 5.07489 0
M  V30 6550 N 615.022 3.69702 4.23411 0
M  V30 6551 H 607.173 1.98633 0.752234 0
M  V30 6552 H 609.436 0.862482 0.393482 0
M  V30 6553 H 609.142 2.90862 1.97717 0
M  V30 6554 H 609.016 1.78777 3.32142 0
M  V30 6555 H 611.403 0.94726 2.79483 0
M  V30 6556 H 611.484 2.10248 1.45703 0
M  V30 6557 H 611.128 4.01232 3.11408 0
M  V30 6558 H 611.058 2.82742 4.44257 0
M  V30 6559 H 613.549 2.35789 2.95317 0
M  V30 6560 H 613.862 5.29468 5.62924 0
M  V30 6561 H 612.207 4.75658 5.06729 0
M  V30 6562 H 615.398 2.98606 3.60489 0
M  V30 6563 H 615.571 4.32509 4.82535 0
M  V30 6564 N 608.977 -1.30795 0.87923 0
M  V30 6565 C 609.907 -2.30742 0.357796 0
M  V30 6566 C 610.888 -1.60747 -0.556283 0
M  V30 6567 O 612.073 -1.88393 -0.47135 0
M  V30 6568 C 609.203 -3.44583 -0.433555 0
M  V30 6569 C 608.157 -4.26235 0.388251 0
M  V30 6570 C 607.483 -5.32073 -0.529352 0
M  V30 6571 C 608.783 -4.96303 1.62729 0
M  V30 6572 H 610.477 -2.74605 1.19299 0
M  V30 6573 H 608.023 -1.32017 0.575104 0
M  V30 6574 H 609.976 -4.13563 -0.808934 0
M  V30 6575 H 608.7 -2.99511 -1.30234 0
M  V30 6576 H 607.359 -3.58936 0.745695 0
M  V30 6577 H 607.007 -4.83249 -1.39569 0
M  V30 6578 H 606.707 -5.87598 0.0166741 0
M  V30 6579 H 608.231 -6.0391 -0.901373 0
M  V30 6580 H 609.645 -5.5783 1.32283 0
M  V30 6581 H 608.042 -5.61666 2.11309 0
M  V30 6582 H 609.112 -4.22758 2.37494 0
M  V30 6583 N 610.455 -0.639598 -1.44038 0
M  V30 6584 C 611.685 -0.154586 -2.06021 0
M  V30 6585 C 612.093 1.17951 -1.47933 0
M  V30 6586 O 611.436 1.73627 -0.59994 0
M  V30 6587 C 611.498 0.0255459 -3.59491 0
M  V30 6588 C 611.162 -1.2317 -4.40089 0
M  V30 6589 C 612.159 -2.15735 -4.73027 0
M  V30 6590 C 609.844 -1.46949 -4.80324 0
M  V30 6591 C 611.838 -3.30382 -5.45093 0
M  V30 6592 C 609.525 -2.61891 -5.52138 0
M  V30 6593 C 610.523 -3.53433 -5.84443 0
M  V30 6594 O 610.211 -4.6637 -6.54793 0
M  V30 6595 H 609.943 -0.0808543 -0.671147 0
M  V30 6596 H 612.497 -0.876541 -1.85758 0
M  V30 6597 H 610.727 0.802733 -3.78276 0
M  V30 6598 H 612.416 0.466184 -4.03214 0
M  V30 6599 H 613.182 -1.98602 -4.42473 0
M  V30 6600 H 609.061 -0.765815 -4.54595 0
M  V30 6601 H 612.605 -4.01856 -5.70226 0
M  V30 6602 H 608.502 -2.78964 -5.82108 0
M  V30 6603 H 609.27 -4.6546 -6.73267 0
M  V30 6604 N 611.933 1.52934 -0.380664 0
M  V30 6605 C 613.18 2.01467 0.204278 0
M  V30 6606 C 613.508 1.26744 1.47533 0
M  V30 6607 O 612.763 0.353723 1.92477 0
M  V30 6608 C 613.062 3.5349 0.527199 0
M  V30 6609 C 612.728 4.46171 -0.651295 0
M  V30 6610 C 611.39 4.71227 -0.974619 0
M  V30 6611 C 613.742 5.00909 -1.44012 0
M  V30 6612 C 611.07 5.4827 -2.08847 0
M  V30 6613 C 613.422 5.7917 -2.5445 0
M  V30 6614 C 612.086 6.02507 -2.87301 0
M  V30 6615 H 611.356 0.73722 0.0747504 0
M  V30 6616 H 614.003 1.84411 -0.516234 0
M  V30 6617 H 612.308 3.68574 1.32892 0
M  V30 6618 H 614.005 3.88529 0.992283 0
M  V30 6619 H 610.595 4.26829 -0.389276 0
M  V30 6620 H 614.779 4.81485 -1.20357 0
M  V30 6621 H 610.035 5.64567 -2.34679 0
M  V30 6622 H 614.209 6.20588 -3.1598 0
M  V30 6623 H 611.836 6.61989 -3.7373 0
M  V30 6624 N 613.412 0.11024 1.57214 0
M  V30 6625 C 614.658 -0.550684 1.9518 0
M  V30 6626 C 614.991 -1.66885 0.993122 0
M  V30 6627 O 614.266 -1.94479 0.0287907 0
M  V30 6628 C 614.549 -1.09163 3.43155 0
M  V30 6629 C 614.402 0.0225198 4.49794 0
M  V30 6630 C 615.721 -1.98527 3.92778 0
M  V30 6631 H 612.84 -0.198706 0.709708 0
M  V30 6632 H 615.482 0.184024 1.89107 0
M  V30 6633 H 613.632 -1.71775 3.48462 0
M  V30 6634 H 615.304 0.657443 4.56591 0
M  V30 6635 H 613.547 0.686868 4.28328 0
M  V30 6636 H 614.218 -0.39706 5.5057 0
M  V30 6637 H 616.694 -1.458 3.8972 0
M  V30 6638 H 615.57 -2.33298 4.96853 0
M  V30 6639 H 615.831 -2.90846 3.32958 0
M  V30 6640 N 614.89 -1.56749 -0.16351 0
M  V30 6641 C 615.823 -1.9213 -1.23132 0
M  V30 6642 C 616.801 -0.785047 -1.42393 0
M  V30 6643 O 617.985 -1.0391 -1.57273 0
M  V30 6644 C 615.112 -2.17901 -2.59301 0
M  V30 6645 C 614.158 -3.40576 -2.5673 0
M  V30 6646 S 614.991 -4.94689 -2.05045 0
M  V30 6647 C 616.147 -5.23564 -3.42975 0
M  V30 6648 H 616.38 -2.824 -0.929383 0
M  V30 6649 H 613.913 -1.4994 -0.368418 0
M  V30 6650 H 615.871 -2.33429 -3.3767 0
M  V30 6651 H 614.532 -1.28324 -2.86691 0
M  V30 6652 H 613.725 -3.55833 -3.5693 0
M  V30 6653 H 613.327 -3.24204 -1.86462 0
M  V30 6654 H 615.619 -5.16019 -4.3901 0
M  V30 6655 H 616.562 -6.25134 -3.32586 0
M  V30 6656 H 616.97 -4.51113 -3.39348 0
M  V30 6657 N 616.368 0.432326 -1.51554 0
M  V30 6658 C 617.278 1.55023 -1.76082 0
M  V30 6659 C 618.294 1.61593 -0.645265 0
M  V30 6660 O 619.47 1.78742 -0.928086 0
M  V30 6661 C 616.535 2.90964 -1.88523 0
M  V30 6662 C 615.596 2.9447 -3.12388 0
M  V30 6663 C 614.829 4.23926 -3.24225 0
M  V30 6664 O 615.052 5.16576 -2.4188 0
M  V30 6665 O 613.986 4.33818 -4.17235 0
M  V30 6666 H 617.812 1.37238 -2.70923 0
M  V30 6667 H 615.397 0.615845 -1.36117 0
M  V30 6668 H 617.279 3.71633 -1.98662 0
M  V30 6669 H 615.954 3.08865 -0.9687 0
M  V30 6670 H 614.861 2.12737 -3.07723 0
M  V30 6671 H 616.194 2.81514 -4.03746 0
M  V30 6672 N 617.846 1.41785 0.688094 0
M  V30 6673 C 619.076 1.44705 1.47459 0
M  V30 6674 C 619.484 0.052916 1.89126 0
M  V30 6675 O 618.827 -0.939781 1.57841 0
M  V30 6676 C 618.889 2.29935 2.76352 0
M  V30 6677 C 618.553 3.77996 2.56843 0
M  V30 6678 C 619.55 4.69976 2.22304 0
M  V30 6679 C 617.235 4.2212 2.7225 0
M  V30 6680 C 619.229 6.04068 2.03421 0
M  V30 6681 C 616.916 5.56275 2.52985 0
M  V30 6682 C 617.914 6.47065 2.18621 0
M  V30 6683 O 617.602 7.78744 1.9953 0
M  V30 6684 H 617.334 0.494703 0.460701 0
M  V30 6685 H 619.888 1.86802 0.854057 0
M  V30 6686 H 618.118 1.82664 3.40839 0
M  V30 6687 H 619.807 2.24467 3.38186 0
M  V30 6688 H 620.573 4.37175 2.10008 0
M  V30 6689 H 616.452 3.51752 2.97979 0
M  V30 6690 H 619.996 6.74897 1.76523 0
M  V30 6691 H 615.893 5.88653 2.64873 0
M  V30 6692 H 616.661 7.89966 2.14234 0
M  V30 6693 N 619.324 -0.923095 1.27737 0
M  V30 6694 C 620.57 -1.67375 1.14514 0
M  V30 6695 C 620.903 -1.91751 -0.307424 0
M  V30 6696 O 620.178 -1.51119 -1.22447 0
M  V30 6697 C 620.461 -3.03745 1.9342 0
M  V30 6698 C 620.314 -2.86581 3.46686 0
M  V30 6699 C 621.633 -4.04144 1.74228 0
M  V30 6700 H 618.752 -0.607427 0.417374 0
M  V30 6701 H 621.394 -1.07089 1.56946 0
M  V30 6702 H 619.544 -3.55204 1.5736 0
M  V30 6703 H 621.216 -2.42203 3.92601 0
M  V30 6704 H 619.459 -2.21829 3.72793 0
M  V30 6705 H 620.13 -3.83381 3.97143 0
M  V30 6706 H 622.606 -3.61712 2.05678 0
M  V30 6707 H 621.482 -4.97543 2.31824 0
M  V30 6708 H 621.743 -4.36661 0.691373 0
M  V30 6709 N 620.802 -1.09834 -1.13024 0
M  V30 6710 C 621.75 -0.736283 -2.20639 0
M  V30 6711 C 622.744 0.264725 -1.67319 0
M  V30 6712 O 623.95 0.125745 -1.7956 0
M  V30 6713 H 620.325 -0.220136 -0.719058 0
M  V30 6714 H 622.296 -1.65295 -2.48436 0
M  V30 6715 C 621.045 -0.177544 -3.47246 0
M  V30 6716 H 620.368 -0.939009 -3.88616 0
M  V30 6717 H 621.808 0.0378007 -4.23983 0
M  V30 6718 C 620.267 1.08824 -3.1884 0
M  V30 6719 O 620.797 2.1708 -3.37993 0
M  V30 6720 N 619.003 1.00442 -2.7269 0
M  V30 6721 H 618.55 0.123383 -2.57304 0
M  V30 6722 H 618.508 1.85206 -2.5406 0
M  V30 6723 N 622.28 1.30327 -0.886154 0
M  V30 6724 C 623.528 1.9571 -0.504195 0
M  V30 6725 C 623.849 1.70294 0.950003 0
M  V30 6726 O 623.119 1.02718 1.66811 0
M  V30 6727 H 621.699 0.72412 -0.183465 0
M  V30 6728 H 624.361 1.58835 -1.12949 0
M  V30 6729 H 623.457 3.04704 -0.675431 0
M  V30 6730 N 623.758 0.647228 1.43697 0
M  V30 6731 C 625.006 0.157876 2.01482 0
M  V30 6732 C 625.327 -1.23039 1.51282 0
M  V30 6733 O 624.597 -1.82071 0.722982 0
M  V30 6734 H 623.177 0.0553745 0.744945 0
M  V30 6735 H 625.839 0.83755 1.75986 0
M  V30 6736 H 624.935 0.137895 3.11795 0
M  V30 6737 N 625.236 -1.5273 0.388769 0
M  V30 6738 C 626.513 -1.93981 -0.251133 0
M  V30 6739 C 626.893 -1.32418 -1.64404 0
M  V30 6740 O 626.241 -0.492074 -2.23139 0
M  V30 6741 C 626.451 -3.47891 -0.27802 0
M  V30 6742 C 627.799 -4.21559 -0.507229 0
M  V30 6743 O 628.823 -3.54394 -0.358252 0
M  V30 6744 O 627.682 -5.40626 -0.799094 0
M  V30 6745 H 624.776 -0.812157 -0.15598 0
M  V30 6746 H 627.322 -1.63809 0.443237 0
M  V30 6747 H 626.094 -3.8503 0.697669 0
M  V30 6748 H 625.717 -3.84364 -1.01733 0
M  V30 6749 N 626.714 -0.118576 -1.57153 0
M  V30 6750 C 627.644 0.828436 -2.1831 0
M  V30 6751 C 628.625 1.27758 -1.12303 0
M  V30 6752 O 629.81 1.34026 -1.40537 0
M  V30 6753 C 626.94 2.07876 -2.78217 0
M  V30 6754 C 625.894 1.76742 -3.89803 0
M  V30 6755 C 625.22 3.08801 -4.36516 0
M  V30 6756 C 626.52 1.03606 -5.11921 0
M  V30 6757 H 628.214 0.318824 -2.97698 0
M  V30 6758 H 625.76 0.151911 -1.43196 0
M  V30 6759 H 627.713 2.74584 -3.19659 0
M  V30 6760 H 626.437 2.61161 -1.96118 0
M  V30 6761 H 625.096 1.12424 -3.48936 0
M  V30 6762 H 624.744 3.6002 -3.51276 0
M  V30 6763 H 624.444 2.88743 -5.11763 0
M  V30 6764 H 625.968 3.76627 -4.80608 0
M  V30 6765 H 627.382 1.60467 -5.50385 0
M  V30 6766 H 625.779 0.936454 -5.92748 0
M  V30 6767 H 626.849 0.0227421 -4.84895 0
M  V30 6768 N 628.193 1.56834 0.155195 0
M  V30 6769 C 629.126 1.9278 1.22111 0
M  V30 6770 C 630.104 0.792588 1.41975 0
M  V30 6771 O 631.288 1.04743 1.5672 0
M  V30 6772 C 628.415 2.19273 2.58142 0
M  V30 6773 C 627.461 3.41932 2.54921 0
M  V30 6774 S 628.294 4.95769 2.02418 0
M  V30 6775 C 629.45 5.25375 3.40194 0
M  V30 6776 H 629.683 2.82889 0.914393 0
M  V30 6777 H 627.216 1.50133 0.360461 0
M  V30 6778 H 629.174 2.35217 3.36427 0
M  V30 6779 H 627.835 1.29843 2.86007 0
M  V30 6780 H 627.028 3.57721 3.55038 0
M  V30 6781 H 626.63 3.25188 1.8474 0
M  V30 6782 H 628.922 5.1834 4.36268 0
M  V30 6783 H 629.865 6.26889 3.29266 0
M  V30 6784 H 630.273 4.52906 3.36951 0
M  V30 6785 N 629.671 -0.424282 1.51781 0
M  V30 6786 C 630.901 -1.19297 1.68677 0
M  V30 6787 C 631.309 -1.85152 0.389258 0
M  V30 6788 O 630.652 -1.72067 -0.643311 0
M  V30 6789 C 630.714 -2.30929 2.75521 0
M  V30 6790 C 630.378 -1.85335 4.17732 0
M  V30 6791 C 631.375 -1.34951 5.0208 0
M  V30 6792 C 629.06 -1.92629 4.63896 0
M  V30 6793 C 631.054 -0.924636 6.30658 0
M  V30 6794 C 628.741 -1.49754 5.92467 0
M  V30 6795 C 629.739 -0.997543 6.75676 0
M  V30 6796 O 629.427 -0.57492 8.01842 0
M  V30 6797 H 629.159 -0.36512 0.568914 0
M  V30 6798 H 631.713 -0.507327 1.99036 0
M  V30 6799 H 629.943 -3.02811 2.40505 0
M  V30 6800 H 631.632 -2.92748 2.81165 0
M  V30 6801 H 632.398 -1.287 4.67612 0
M  V30 6802 H 628.277 -2.30491 3.99243 0
M  V30 6803 H 631.821 -0.533682 6.95556 0
M  V30 6804 H 627.718 -1.55679 6.26446 0
M  V30 6805 H 628.486 -0.699597 8.15505 0
M  V30 6806 N 631.149 -1.42148 -0.680565 0
M  V30 6807 C 632.099 -1.41634 -1.78672 0
M  V30 6808 C 633.083 -0.288494 -1.58293 0
M  V30 6809 O 634.275 -0.530295 -1.68869 0
M  V30 6810 C 631.404 -1.31558 -3.17092 0
M  V30 6811 C 630.49 -2.49265 -3.43115 0
M  V30 6812 N 630.881 -3.74702 -3.39753 0
M  V30 6813 C 629.179 -2.43401 -3.73727 0
M  V30 6814 C 629.88 -4.52854 -3.651 0
M  V30 6815 N 628.856 -3.83181 -3.85582 0
M  V30 6816 H 632.658 -2.3652 -1.74458 0
M  V30 6817 H 630.172 -1.36415 -0.881171 0
M  V30 6818 H 632.169 -1.29272 -3.96351 0
M  V30 6819 H 630.829 -0.376696 -3.22508 0
M  V30 6820 H 631.84 -4.07378 -3.19787 0
M  V30 6821 H 628.517 -1.58062 -3.86423 0
M  V30 6822 H 629.907 -5.61827 -3.6851 0
M  V30 6823 N 632.627 0.916307 -1.28225 0
M  V30 6824 C 633.876 1.65975 -1.14608 0
M  V30 6825 C 634.189 1.93204 0.305191 0
M  V30 6826 O 635.395 2.65611 0.562432 0
M  V30 6827 C 633.851 2.98989 -2.00333 0
M  V30 6828 C 633.459 2.79417 -3.50186 0
M  V30 6829 C 635.203 3.76856 -1.95397 0
M  V30 6830 C 633.11 4.08056 -4.28071 0
M  V30 6831 H 632.04 0.622587 -0.425324 0
M  V30 6832 H 634.691 1.01705 -1.52736 0
M  V30 6833 H 633.073 3.6438 -1.5506 0
M  V30 6834 H 634.247 2.22723 -4.034 0
M  V30 6835 H 632.562 2.14966 -3.56621 0
M  V30 6836 H 635.159 4.72203 -2.50856 0
M  V30 6837 H 635.502 4.05776 -0.930137 0
M  V30 6838 H 636.035 3.1828 -2.38626 0
M  V30 6839 H 632.774 3.8431 -5.31024 0
M  V30 6840 H 632.294 4.64371 -3.79631 0
M  V30 6841 H 633.973 4.76333 -4.37854 0
M  V30 6842 N 634.105 1.10431 1.1244 0
M  V30 6843 C 635.037 0.710945 2.17895 0
M  V30 6844 C 636.05 -0.252315 1.60833 0
M  V30 6845 O 637.239 -0.03679 1.78462 0
M  V30 6846 C 634.339 0.0284262 3.38888 0
M  V30 6847 C 633.512 1.01585 4.2544 0
M  V30 6848 C 632.571 0.364826 5.24934 0
M  V30 6849 O 631.597 1.01561 5.60066 0
M  V30 6850 N 632.799 -0.87674 5.73841 0
M  V30 6851 H 635.564 1.61826 2.52255 0
M  V30 6852 H 633.125 0.993132 1.27861 0
M  V30 6853 H 635.117 -0.418568 4.0253 0
M  V30 6854 H 633.687 -0.781294 3.02679 0
M  V30 6855 H 632.907 1.64111 3.58415 0
M  V30 6856 H 634.195 1.68425 4.80115 0
M  V30 6857 H 633.593 -1.42483 5.47462 0
M  V30 6858 H 632.15 -1.26688 6.39369 0
M  V30 6859 N 635.583 -1.29855 0.893053 0
M  V30 6860 C 636.515 -2.26911 0.32311 0
M  V30 6861 C 637.528 -1.54039 -0.526858 0
M  V30 6862 O 638.717 -1.75132 -0.345095 0
M  V30 6863 C 635.817 -3.34266 -0.558509 0
M  V30 6864 C 634.99 -4.36601 0.264222 0
M  V30 6865 C 634.049 -5.23326 -0.549171 0
M  V30 6866 O 633.075 -5.69192 0.0309883 0
M  V30 6867 N 634.277 -5.50008 -1.85664 0
M  V30 6868 H 637.042 -2.76455 1.15726 0
M  V30 6869 H 634.603 -1.4312 0.756859 0
M  V30 6870 H 636.595 -3.89211 -1.1089 0
M  V30 6871 H 635.165 -2.8459 -1.29334 0
M  V30 6872 H 634.385 -3.81409 0.996046 0
M  V30 6873 H 635.673 -5.02019 0.827906 0
M  V30 6874 H 635.071 -5.14542 -2.35081 0
M  V30 6875 H 633.628 -6.07796 -2.35431 0
M  V30 6876 N 637.061 -0.65484 -1.43351 0
M  V30 6877 C 638.307 -0.169142 -2.02093 0
M  V30 6878 C 638.64 1.21431 -1.51553 0
M  V30 6879 O 637.915 1.81105 -0.709317 0
M  V30 6880 C 638.198 -0.181775 -3.59641 0
M  V30 6881 C 638.051 -1.59926 -4.20409 0
M  V30 6882 C 639.37 0.480945 -4.37464 0
M  V30 6883 H 636.489 -0.0629371 -0.734308 0
M  V30 6884 H 639.131 -0.835833 -1.70628 0
M  V30 6885 H 637.281 0.385918 -3.86578 0
M  V30 6886 H 638.953 -2.21766 -4.04497 0
M  V30 6887 H 637.196 -2.14605 -3.76998 0
M  V30 6888 H 637.867 -1.55994 -5.295 0
M  V30 6889 H 640.343 -0.00208273 -4.161 0
M  V30 6890 H 639.219 0.441384 -5.47122 0
M  V30 6891 H 639.48 1.55533 -4.13838 0
M  V30 6892 N 638.539 1.52521 -0.396863 0
M  V30 6893 C 639.787 2.01274 0.182536 0
M  V30 6894 C 640.108 1.28485 1.46685 0
M  V30 6895 O 639.378 0.407134 1.91623 0
M  V30 6896 H 637.958 0.743671 0.0704442 0
M  V30 6897 H 640.62 1.87547 -0.530289 0
M  V30 6898 H 639.716 3.09687 0.387385 0
M  V30 6899 N 640.017 0.126909 1.57088 0
M  V30 6900 C 640.964 -0.82036 2.15728 0
M  V30 6901 C 641.934 -1.25811 1.08447 0
M  V30 6902 O 643.119 -1.33422 1.36393 0
M  V30 6903 C 640.259 -2.06199 2.76724 0
M  V30 6904 C 639.372 -1.67188 3.98337 0
M  V30 6905 C 638.507 -2.86378 4.47393 0
M  V30 6906 C 637.546 -2.43644 5.61519 0
M  V30 6907 N 636.683 -3.55775 6.05284 0
M  V30 6908 H 641.523 -0.313472 2.96347 0
M  V30 6909 H 639.06 -0.14303 1.46403 0
M  V30 6910 H 641.018 -2.78959 3.10222 0
M  V30 6911 H 639.648 -2.54333 1.98782 0
M  V30 6912 H 638.7 -0.842714 3.70948 0
M  V30 6913 H 640.012 -1.31789 4.81075 0
M  V30 6914 H 639.166 -3.67353 4.82842 0
M  V30 6915 H 637.905 -3.25009 3.63621 0
M  V30 6916 H 636.91 -1.61104 5.25667 0
M  V30 6917 H 638.135 -2.06122 6.47063 0
M  V30 6918 H 636.081 -3.94065 5.24451 0
M  V30 6919 H 635.998 -3.24325 6.82898 0
M  V30 6920 H 637.266 -4.37166 6.45373 0
M  V30 6921 N 641.495 -1.56914 -0.146875 0
M  V30 6922 C 642.742 -1.83356 -0.859467 0
M  V30 6923 C 643.07 -0.707811 -1.81164 0
M  V30 6924 O 642.325 0.303155 -1.93338 0
M  V30 6925 C 642.624 -3.16128 -1.66727 0
M  V30 6926 C 642.29 -4.42586 -0.861881 0
M  V30 6927 C 640.952 -4.76929 -0.639687 0
M  V30 6928 C 643.304 -5.20344 -0.298643 0
M  V30 6929 C 640.632 -5.86491 0.156451 0
M  V30 6930 C 642.984 -6.30742 0.484536 0
M  V30 6931 C 641.648 -6.63635 0.717306 0
M  V30 6932 H 640.918 -0.670947 -0.314501 0
M  V30 6933 H 643.565 -1.91104 -0.123108 0
M  V30 6934 H 641.87 -3.03831 -2.47374 0
M  V30 6935 H 643.567 -3.33802 -2.2221 0
M  V30 6936 H 640.157 -4.15662 -1.04513 0
M  V30 6937 H 644.341 -4.94186 -0.457585 0
M  V30 6938 H 639.597 -6.10419 0.346292 0
M  V30 6939 H 643.771 -6.90188 0.928105 0
M  V30 6940 H 641.398 -7.48367 1.33607 0
M  V30 6941 N 642.974 0.416227 -1.52004 0
M  V30 6942 C 643.921 1.50666 -1.74838 0
M  V30 6943 C 644.891 1.55245 -0.590599 0
M  V30 6944 O 646.076 1.71928 -0.827374 0
M  V30 6945 C 643.216 2.88185 -1.89851 0
M  V30 6946 C 642.329 2.92971 -3.17478 0
M  V30 6947 C 641.464 4.21745 -3.22962 0
M  V30 6948 C 640.503 4.20478 -4.4482 0
M  V30 6949 N 639.64 5.40811 -4.47736 0
M  V30 6950 H 644.48 1.30498 -2.67907 0
M  V30 6951 H 642.017 0.633568 -1.32757 0
M  V30 6952 H 643.975 3.68007 -1.96537 0
M  V30 6953 H 642.605 3.06865 -1.00169 0
M  V30 6954 H 641.657 2.05684 -3.19997 0
M  V30 6955 H 642.969 2.87899 -4.07328 0
M  V30 6956 H 642.123 5.09954 -3.28682 0
M  V30 6957 H 640.862 4.29503 -2.31038 0
M  V30 6958 H 639.867 3.30659 -4.39254 0
M  V30 6959 H 641.092 4.14366 -5.38031 0
M  V30 6960 H 639.038 5.4925 -3.58692 0
M  V30 6961 H 638.955 5.37705 -5.31422 0
M  V30 6962 H 640.223 6.30993 -4.57676 0
M  V30 6963 N 644.452 1.42507 0.673017 0
M  V30 6964 C 645.362 1.4853 1.81593 0
M  V30 6965 C 646.378 0.373907 1.69935 0
M  V30 6966 O 647.554 0.625078 1.91454 0
M  V30 6967 C 644.619 1.387 3.17747 0
M  V30 6968 C 643.68 2.60346 3.41348 0
M  V30 6969 C 642.913 2.50975 4.71007 0
M  V30 6970 O 643.136 1.54659 5.49033 0
M  V30 6971 O 642.07 3.41138 4.95892 0
M  V30 6972 H 645.896 2.45001 1.79467 0
M  V30 6973 H 643.481 1.2429 0.82899 0
M  V30 6974 H 645.363 1.35586 3.98992 0
M  V30 6975 H 644.038 0.453555 3.20507 0
M  V30 6976 H 642.945 2.69034 2.59945 0
M  V30 6977 H 644.278 3.52595 3.43421 0
M  V30 6978 N 645.93 -0.909495 1.28709 0
M  V30 6979 C 647.341 -1.47419 1.14563 0
M  V30 6980 C 647.692 -1.94432 -0.262832 0
M  V30 6981 O 646.817 -1.82842 -1.15748 0
M  V30 6982 C 647.412 -2.67933 2.07358 0
M  V30 6983 C 645.971 -3.20568 1.97264 0
M  V30 6984 C 645.118 -1.93269 1.98852 0
M  V30 6985 H 648.069 -0.721787 1.41336 0
M  V30 6986 H 648.09 -3.43339 1.64007 0
M  V30 6987 H 647.602 -2.33685 3.09859 0
M  V30 6988 H 645.703 -3.59531 0.978157 0
M  V30 6989 H 645.816 -3.85529 2.84436 0
M  V30 6990 H 644.18 -2.10553 1.43317 0
M  V30 6991 H 644.963 -1.61312 3.0304 0
M  V30 6992 N 647.408 -1.11026 -1.11852 0
M  V30 6993 C 648.34 -0.72249 -2.17515 0
M  V30 6994 C 649.353 0.243782 -1.60964 0
M  V30 6995 O 650.542 0.0273252 -1.78479 0
M  V30 6996 C 647.642 -0.0463979 -3.38868 0
M  V30 6997 C 646.815 -1.0384 -4.24895 0
M  V30 6998 C 645.874 -0.392659 -5.24733 0
M  V30 6999 O 644.9 -1.0453 -5.5952 0
M  V30 7000 N 646.102 0.846296 -5.74298 0
M  V30 7001 H 648.867 -1.63161 -2.51393 0
M  V30 7002 H 646.428 -0.999899 -1.27333 0
M  V30 7003 H 648.42 0.397215 -4.02746 0
M  V30 7004 H 646.99 0.765231 -3.03089 0
M  V30 7005 H 646.21 -1.6601 -3.57539 0
M  V30 7006 H 647.498 -1.70968 -4.79215 0
M  V30 7007 H 646.896 1.39578 -5.4821 0
M  V30 7008 H 645.453 1.23296 -6.40032 0
M  V30 7009 N 648.886 1.2938 -0.899927 0
M  V30 7010 C 649.849 2.25983 -0.382677 0
M  V30 7011 C 650.849 1.53366 0.483259 0
M  V30 7012 O 652.039 1.71798 0.28828 0
M  V30 7013 C 649.171 3.37878 0.452915 0
M  V30 7014 H 650.364 2.73252 -1.23586 0
M  V30 7015 H 647.917 1.40825 -0.678088 0
M  V30 7016 H 648.652 2.95949 1.32608 0
M  V30 7017 H 648.437 3.91742 -0.167562 0
M  V30 7018 H 649.927 4.09746 0.806107 0
M  V30 7019 N 650.364 0.662433 1.43002 0
M  V30 7020 C 651.61 0.179857 2.02001 0
M  V30 7021 C 651.943 -1.20625 1.52195 0
M  V30 7022 O 651.218 -1.80726 0.718911 0
M  V30 7023 C 651.501 0.200845 3.59539 0
M  V30 7024 C 651.354 1.62153 4.19555 0
M  V30 7025 C 652.673 -0.457738 4.37713 0
M  V30 7026 H 649.792 0.0668305 0.733964 0
M  V30 7027 H 652.434 0.84487 1.70182 0
M  V30 7028 H 650.584 -0.365411 3.86778 0
M  V30 7029 H 652.256 2.23908 4.03315 0
M  V30 7030 H 650.499 2.16601 3.75854 0
M  V30 7031 H 651.17 1.58799 5.28665 0
M  V30 7032 H 653.646 0.0241495 4.16093 0
M  V30 7033 H 652.522 -0.412363 5.47349 0
M  V30 7034 H 652.783 -1.53336 4.14657 0
M  V30 7035 N 651.842 -1.52309 0.404946 0
M  V30 7036 C 653.089 -2.01767 -0.1722 0
M  V30 7037 C 653.417 -1.29075 -1.45498 0
M  V30 7038 O 652.672 -0.3843 -1.9189 0
M  V30 7039 C 652.971 -3.54284 -0.470895 0
M  V30 7040 C 652.637 -4.45079 0.722194 0
M  V30 7041 C 651.299 -4.69617 1.04946 0
M  V30 7042 C 653.651 -4.98555 1.51962 0
M  V30 7043 C 650.979 -5.44878 2.17543 0
M  V30 7044 C 653.331 -5.75049 2.63632 0
M  V30 7045 C 651.995 -5.9786 2.9685 0
M  V30 7046 H 651.265 -0.738316 -0.0630125 0
M  V30 7047 H 653.912 -1.83566 0.545506 0
M  V30 7048 H 652.217 -3.70642 -1.27012 0
M  V30 7049 H 653.914 -3.90058 -0.930346 0
M  V30 7050 H 650.504 -4.26155 0.457131 0
M  V30 7051 H 654.688 -4.79509 1.28002 0
M  V30 7052 H 649.944 -5.60762 2.43631 0
M  V30 7053 H 654.118 -6.15483 3.25813 0
M  V30 7054 H 651.745 -6.5596 3.84215 0
M  V30 7055 N 653.32 -0.135238 -1.57019 0
M  V30 7056 C 654.55 0.525303 -1.9981 0
M  V30 7057 C 654.958 1.59724 -1.01415 0
M  V30 7058 O 654.301 1.837 -0.00130938 0
M  V30 7059 C 654.363 1.19578 -3.3903 0
M  V30 7060 C 654.027 0.269855 -4.56203 0
M  V30 7061 C 655.024 -0.497905 -5.1751 0
M  V30 7062 C 652.709 0.176188 -5.01991 0
M  V30 7063 C 654.703 -1.3469 -6.23007 0
M  V30 7064 C 652.39 -0.676422 -6.07345 0
M  V30 7065 C 653.388 -1.43658 -6.67721 0
M  V30 7066 O 653.076 -2.27501 -7.71037 0
M  V30 7067 H 652.808 0.142296 -0.660854 0
M  V30 7068 H 655.362 -0.223272 -2.04183 0
M  V30 7069 H 653.592 1.99176 -3.3146 0
M  V30 7070 H 655.281 1.75486 -3.66005 0
M  V30 7071 H 656.047 -0.435507 -4.83041 0
M  V30 7072 H 651.926 0.757583 -4.54733 0
M  V30 7073 H 655.47 -1.9407 -6.70062 0
M  V30 7074 H 651.367 -0.740154 -6.41243 0
M  V30 7075 H 652.135 -2.20619 -7.88206 0
M  V30 7076 N 654.798 1.5699 0.138552 0
M  V30 7077 C 655.761 1.97984 1.15478 0
M  V30 7078 C 656.761 0.867416 1.35398 0
M  V30 7079 O 657.951 1.13387 1.32246 0
M  V30 7080 C 655.083 2.3031 2.51337 0
M  V30 7081 H 656.276 2.88953 0.802896 0
M  V30 7082 H 653.829 1.51555 0.382189 0
M  V30 7083 H 654.564 1.42159 2.91481 0
M  V30 7084 H 654.349 3.11425 2.38237 0
M  V30 7085 H 655.839 2.62834 3.24512 0
M  V30 7086 N 656.276 -0.40816 1.52223 0
M  V30 7087 C 657.239 -1.48 1.7501 0
M  V30 7088 C 658.239 -1.48367 0.619996 0
M  V30 7089 O 659.429 -1.49874 0.887881 0
M  V30 7090 C 656.561 -2.87403 1.83336 0
M  V30 7091 H 657.754 -1.29086 2.70697 0
M  V30 7092 H 655.307 -0.638715 1.42654 0
M  V30 7093 H 656.042 -3.11686 0.895677 0
M  V30 7094 H 655.827 -2.8854 2.65494 0
M  V30 7095 H 657.317 -3.65103 2.02705 0
M  V30 7096 N 657.755 -1.42862 -0.66545 0
M  V30 7097 C 658.665 -1.49491 -1.80803 0
M  V30 7098 C 659.681 -0.382914 -1.69734 0
M  V30 7099 O 660.857 -0.635223 -1.9112 0
M  V30 7100 C 657.922 -1.40383 -3.17007 0
M  V30 7101 C 656.983 -2.62152 -3.39963 0
M  V30 7102 C 656.216 -2.53469 -4.69669 0
M  V30 7103 O 656.439 -1.57568 -5.48205 0
M  V30 7104 O 655.373 -3.43763 -4.94075 0
M  V30 7105 H 659.199 -2.45949 -1.78165 0
M  V30 7106 H 656.784 -1.24728 -0.822387 0
M  V30 7107 H 658.666 -1.377 -3.98267 0
M  V30 7108 H 657.341 -0.470546 -3.20262 0
M  V30 7109 H 656.248 -2.70409 -2.58515 0
M  V30 7110 H 657.581 -3.54411 -3.41546 0
M  V30 7111 N 659.233 0.902656 -1.29189 0
M  V30 7112 C 660.482 1.6475 -1.16362 0
M  V30 7113 C 660.795 1.93517 0.284682 0
M  V30 7114 O 662.001 2.66192 0.534229 0
M  V30 7115 C 660.457 2.96848 -2.03493 0
M  V30 7116 C 660.065 2.75687 -3.5313 0
M  V30 7117 C 661.809 3.74762 -1.99383 0
M  V30 7118 C 659.716 4.03492 -4.32375 0
M  V30 7119 H 658.646 0.618041 -0.431904 0
M  V30 7120 H 661.297 1.0008 -1.53806 0
M  V30 7121 H 659.679 3.62715 -1.58916 0
M  V30 7122 H 660.853 2.18431 -4.05739 0
M  V30 7123 H 659.168 2.11171 -3.58881 0
M  V30 7124 H 661.765 4.69515 -2.5585 0
M  V30 7125 H 662.108 4.04767 -0.973123 0
M  V30 7126 H 662.641 3.15732 -2.41988 0
M  V30 7127 H 659.38 3.78656 -5.3507 0
M  V30 7128 H 658.9 4.60318 -3.84535 0
M  V30 7129 H 660.579 4.71662 -4.42881 0
M  V30 7130 N 660.711 1.11618 1.11262 0
M  V30 7131 C 661.936 0.889013 1.8738 0
M  V30 7132 C 662.361 -0.555884 1.79698 0
M  V30 7133 O 661.719 -1.39272 1.16073 0
M  V30 7134 C 661.767 1.35759 3.34069 0
M  V30 7135 O 660.871 0.530499 4.08974 0
M  V30 7136 H 660.212 0.320082 0.581759 0
M  V30 7137 H 662.742 1.48611 1.40627 0
M  V30 7138 H 662.752 1.35291 3.84916 0
M  V30 7139 H 661.427 2.40973 3.38976 0
M  V30 7140 H 660.004 0.601439 3.68018 0
M  V30 7141 N 662.189 -1.289 0.906776 0
M  V30 7142 C 663.438 -1.9455 0.532262 0
M  V30 7143 C 663.751 -1.72219 -0.927353 0
M  V30 7144 O 664.957 -2.32033 -1.40971 0
M  V30 7145 C 663.413 -3.48438 0.901041 0
M  V30 7146 C 663.021 -3.79558 2.37991 0
M  V30 7147 C 664.765 -4.20284 0.596777 0
M  V30 7148 C 662.672 -5.26723 2.68918 0
M  V30 7149 H 661.602 -0.728259 0.195333 0
M  V30 7150 H 664.253 -1.46519 1.10474 0
M  V30 7151 H 662.635 -3.95162 0.257419 0
M  V30 7152 H 663.809 -3.43668 3.06967 0
M  V30 7153 H 662.124 -3.20868 2.65391 0
M  V30 7154 H 664.721 -5.28612 0.8046 0
M  V30 7155 H 665.064 -4.13694 -0.465072 0
M  V30 7156 H 665.597 -3.79315 1.19855 0
M  V30 7157 H 662.336 -5.38384 3.73928 0
M  V30 7158 H 661.856 -5.63836 2.04571 0
M  V30 7159 H 663.535 -5.94391 2.55555 0
M  V30 7160 N 663.667 -0.670007 -1.42649 0
M  V30 7161 C 664.915 -0.18991 -2.01206 0
M  V30 7162 C 665.236 1.20617 -1.53221 0
M  V30 7163 O 664.506 1.80898 -0.751856 0
M  V30 7164 H 663.086 -0.0672189 -0.743969 0
M  V30 7165 H 665.748 -0.865442 -1.74631 0
M  V30 7166 H 664.844 -0.187481 -3.11536 0
M  V30 7167 N 665.145 1.52092 -0.413018 0
M  V30 7168 C 666.075 2.30021 0.401567 0
M  V30 7169 C 667.056 1.34395 1.04269 0
M  V30 7170 O 668.241 1.63304 1.05097 0
M  V30 7171 C 665.371 3.12447 1.51638 0
M  V30 7172 C 664.325 4.16153 1.00005 0
M  V30 7173 C 663.651 4.86948 2.20875 0
M  V30 7174 C 664.951 5.22275 0.0513757 0
M  V30 7175 H 666.645 2.98365 -0.248704 0
M  V30 7176 H 664.191 1.4349 -0.121052 0
M  V30 7177 H 666.144 3.65733 2.09326 0
M  V30 7178 H 664.868 2.41879 2.19458 0
M  V30 7179 H 663.527 3.63882 0.445549 0
M  V30 7180 H 663.175 4.12905 2.8726 0
M  V30 7181 H 662.875 5.57057 1.86978 0
M  V30 7182 H 664.399 5.43048 2.79162 0
M  V30 7183 H 665.813 5.70778 0.537176 0
M  V30 7184 H 664.21 5.9977 -0.198977 0
M  V30 7185 H 665.28 4.76611 -0.892736 0
M  V30 7186 N 666.623 0.143563 1.56945 0
M  V30 7187 C 667.87 -0.508407 1.96014 0
M  V30 7188 C 668.198 -1.65099 1.02824 0
M  V30 7189 O 667.453 -1.95618 0.0567764 0
M  V30 7190 C 667.752 -1.05885 3.41355 0
M  V30 7191 C 667.418 -0.0350809 4.50886 0
M  V30 7192 C 666.08 0.246362 4.80569 0
M  V30 7193 C 668.432 0.661282 5.16988 0
M  V30 7194 C 665.76 1.23003 5.73661 0
M  V30 7195 C 668.112 1.63375 6.11139 0
M  V30 7196 C 666.776 1.92292 6.39203 0
M  V30 7197 H 666.046 -0.186039 0.717266 0
M  V30 7198 H 668.693 0.229667 1.90118 0
M  V30 7199 H 666.998 -1.87419 3.44066 0
M  V30 7200 H 668.695 -1.57183 3.6891 0
M  V30 7201 H 665.285 -0.264622 4.27782 0
M  V30 7202 H 669.469 0.457038 4.94191 0
M  V30 7203 H 664.725 1.46056 5.93698 0
M  V30 7204 H 668.899 2.17887 6.61436 0
M  V30 7205 H 666.526 2.68666 7.11142 0
M  V30 7206 N 668.101 -1.57061 -0.130224 0
M  V30 7207 C 669.348 -1.84257 -0.839972 0
M  V30 7208 C 669.676 -0.726986 -1.80403 0
M  V30 7209 O 668.931 0.282632 -1.93648 0
M  V30 7210 C 669.23 -3.17878 -1.63365 0
M  V30 7211 C 668.896 -4.43475 -0.814891 0
M  V30 7212 C 667.558 -4.77581 -0.589066 0
M  V30 7213 C 669.91 -5.20631 -0.243437 0
M  V30 7214 C 667.238 -5.86292 0.218648 0
M  V30 7215 C 669.59 -6.30192 0.551408 0
M  V30 7216 C 668.254 -6.62837 0.787653 0
M  V30 7217 H 667.524 -0.674245 -0.307367 0
M  V30 7218 H 670.171 -1.91224 -0.102832 0
M  V30 7219 H 668.476 -3.06437 -2.44138 0
M  V30 7220 H 670.173 -3.3614 -2.18658 0
M  V30 7221 H 666.763 -4.16747 -1.00098 0
M  V30 7222 H 670.947 -4.94644 -0.405145 0
M  V30 7223 H 666.203 -6.10017 0.411016 0
M  V30 7224 H 670.377 -6.89165 1.00126 0
M  V30 7225 H 668.004 -7.46908 1.41537 0
M  V30 7226 N 669.579 0.400081 -1.52437 0
M  V30 7227 C 670.509 1.4947 -1.7939 0
M  V30 7228 C 671.49 1.57383 -0.645329 0
M  V30 7229 O 672.675 1.72511 -0.891826 0
M  V30 7230 C 669.805 2.87201 -1.95276 0
M  V30 7231 C 668.759 2.94134 -3.10917 0
M  V30 7232 C 668.085 4.34207 -3.1204 0
M  V30 7233 C 669.385 2.64791 -4.50203 0
M  V30 7234 H 671.079 1.27165 -2.71052 0
M  V30 7235 H 668.625 0.610312 -1.30427 0
M  V30 7236 H 670.578 3.63772 -2.12715 0
M  V30 7237 H 669.302 3.10819 -1.00294 0
M  V30 7238 H 667.961 2.20009 -2.93243 0
M  V30 7239 H 667.609 4.54848 -2.14761 0
M  V30 7240 H 667.309 4.39768 -3.89715 0
M  V30 7241 H 668.833 5.127 -3.31619 0
M  V30 7242 H 670.247 3.31083 -4.68035 0
M  V30 7243 H 668.644 2.81717 -5.29864 0
M  V30 7244 H 669.714 1.60184 -4.57678 0
M  V30 7245 N 671.057 1.43213 0.657864 0
M  V30 7246 C 672.007 1.44459 1.76396 0
M  V30 7247 C 672.991 0.313641 1.57814 0
M  V30 7248 O 674.183 0.557094 1.68004 0
M  V30 7249 C 671.312 1.36586 3.14959 0
M  V30 7250 C 670.398 2.54692 3.39106 0
M  V30 7251 N 670.789 3.80059 3.33749 0
M  V30 7252 C 669.087 2.49316 3.69807 0
M  V30 7253 C 669.788 4.58606 3.57849 0
M  V30 7254 N 668.764 3.89267 3.79437 0
M  V30 7255 H 672.566 2.39265 1.70673 0
M  V30 7256 H 670.08 1.378 0.859357 0
M  V30 7257 H 672.077 1.35561 3.94245 0
M  V30 7258 H 670.737 0.427956 3.21867 0
M  V30 7259 H 671.748 4.12414 3.13266 0
M  V30 7260 H 668.425 1.6419 3.83859 0
M  V30 7261 H 669.815 5.67619 3.59525 0
M  V30 7262 N 672.536 -0.895792 1.29666 0
M  V30 7263 C 673.483 -2.00035 1.15129 0
M  V30 7264 C 674.453 -1.66043 0.0435819 0
M  V30 7265 O 675.638 -1.89621 0.211811 0
M  V30 7266 C 672.778 -3.34774 0.83787 0
M  V30 7267 C 671.891 -3.81525 2.0264 0
M  V30 7268 C 671.026 -5.04858 1.65201 0
M  V30 7269 C 670.065 -5.43988 2.80612 0
M  V30 7270 N 669.202 -6.58507 2.43544 0
M  V30 7271 H 674.042 -2.11802 2.09628 0
M  V30 7272 H 671.579 -1.03719 1.04311 0
M  V30 7273 H 673.537 -4.12311 0.636824 0
M  V30 7274 H 672.167 -3.22724 -0.0702314 0
M  V30 7275 H 671.219 -2.9999 2.33903 0
M  V30 7276 H 672.531 -4.06472 2.89106 0
M  V30 7277 H 671.685 -5.8999 1.41408 0
M  V30 7278 H 670.424 -4.81759 0.758893 0
M  V30 7279 H 669.429 -4.57388 3.05083 0
M  V30 7280 H 670.654 -5.69066 3.70595 0
M  V30 7281 H 668.6 -6.37004 1.56724 0
M  V30 7282 H 668.517 -6.83269 3.23542 0
M  V30 7283 H 669.785 -7.46897 2.2308 0
M  V30 7284 N 674.014 -1.12206 -1.10668 0
M  V30 7285 C 675.43 -0.857619 -1.346 0
M  V30 7286 C 675.63 0.513542 -1.94846 0
M  V30 7287 O 674.686 1.26273 -2.18658 0
M  V30 7288 C 675.999 -1.97212 -2.26998 0
M  V30 7289 C 677.547 -2.00272 -2.40542 0
M  V30 7290 C 678.022 -3.10948 -3.36267 0
M  V30 7291 N 679.513 -3.10375 -3.43834 0
M  V30 7292 C 680.248 -3.92651 -4.17867 0
M  V30 7293 N 679.744 -4.84911 -4.94807 0
M  V30 7294 N 681.537 -3.80798 -4.1346 0
M  V30 7295 H 673.688 -2.00558 -0.699306 0
M  V30 7296 H 675.951 -0.872612 -0.370477 0
M  V30 7297 H 675.657 -2.96002 -1.89936 0
M  V30 7298 H 675.531 -1.87521 -3.27286 0
M  V30 7299 H 677.918 -1.02103 -2.76874 0
M  V30 7300 H 677.999 -2.14037 -1.40077 0
M  V30 7301 H 677.643 -4.09348 -3.00661 0
M  V30 7302 H 677.573 -2.94421 -4.36605 0
M  V30 7303 H 680.064 -2.43536 -2.88961 0
M  V30 7304 H 680.377 -5.44207 -5.48688 0
M  V30 7305 H 678.722 -4.88926 -4.93939 0
M  V30 7306 H 681.913 -3.08058 -3.52445 0
M  V30 7307 H 682.086 -4.4515 -4.70898 0
M  V30 7308 N 675.492 1.28418 -0.913599 0
M  V30 7309 C 676.74 1.94596 -0.545594 0
M  V30 7310 C 677.061 1.7227 0.913668 0
M  V30 7311 O 676.331 1.06233 1.64595 0
M  V30 7312 H 674.911 0.720065 -0.198783 0
M  V30 7313 H 677.573 1.56404 -1.16292 0
M  V30 7314 H 676.669 3.03202 -0.739911 0
M  V30 7315 N 676.97 0.677563 1.42291 0
M  V30 7316 C 678.219 0.198173 2.00724 0
M  V30 7317 C 678.532 -1.20325 1.54211 0
M  V30 7318 O 679.738 -1.77916 2.05081 0
M  V30 7319 C 678.194 0.303432 3.58619 0
M  V30 7320 C 677.802 1.70909 4.14119 0
M  V30 7321 C 679.546 -0.117103 4.24338 0
M  V30 7322 C 677.453 1.76696 5.64387 0
M  V30 7323 H 676.383 0.070329 0.750713 0
M  V30 7324 H 679.034 0.843147 1.62982 0
M  V30 7325 H 677.416 -0.409482 3.93877 0
M  V30 7326 H 678.59 2.44931 3.90315 0
M  V30 7327 H 676.905 2.07771 3.6086 0
M  V30 7328 H 679.502 -0.0940471 5.34617 0
M  V30 7329 H 679.845 -1.15283 4.00019 0
M  V30 7330 H 680.378 0.5449 3.9405 0
M  V30 7331 H 677.117 2.7826 5.93508 0
M  V30 7332 H 676.637 1.07034 5.90173 0
M  V30 7333 H 678.316 1.52166 6.28852 0
M  V30 7334 N 678.448 -1.51871 0.421078 0
M  V30 7335 C 679.697 -2.01125 -0.152206 0
M  V30 7336 C 680.01 -1.3106 -1.45199 0
M  V30 7337 O 681.216 -1.71195 -2.10724 0
M  V30 7338 C 679.672 -3.58458 -0.3218 0
M  V30 7339 C 679.28 -4.37448 0.96659 0
M  V30 7340 C 681.024 -4.15908 -0.84973 0
M  V30 7341 C 678.931 -5.86451 0.763529 0
M  V30 7342 H 677.861 -0.751556 -0.0606565 0
M  V30 7343 H 680.512 -1.75115 0.548354 0
M  V30 7344 H 678.894 -3.80847 -1.08498 0
M  V30 7345 H 680.068 -4.26814 1.73684 0
M  V30 7346 H 678.383 -3.91373 1.42183 0
M  V30 7347 H 680.98 -5.24922 -1.01788 0
M  V30 7348 H 681.323 -3.74031 -1.82774 0
M  V30 7349 H 681.856 -3.97535 -0.145297 0
M  V30 7350 H 678.595 -6.3271 1.71344 0
M  V30 7351 H 678.115 -5.99791 0.0327889 0
M  V30 7352 H 679.794 -6.45697 0.410354 0
M  V30 7353 N 679.926 -0.151884 -1.56866 0
M  V30 7354 C 681.156 0.504081 -2.00356 0
M  V30 7355 C 681.564 1.58639 -1.03103 0
M  V30 7356 O 680.907 1.83688 -0.0207931 0
M  V30 7357 C 680.969 1.15975 -3.40279 0
M  V30 7358 C 680.633 0.221453 -4.56463 0
M  V30 7359 C 681.63 -0.552766 -5.16953 0
M  V30 7360 C 679.315 0.122936 -5.0215 0
M  V30 7361 C 681.309 -1.4129 -6.21543 0
M  V30 7362 C 678.996 -0.740801 -6.06593 0
M  V30 7363 C 679.994 -1.50732 -6.6616 0
M  V30 7364 O 679.682 -2.35666 -7.68581 0
M  V30 7365 H 679.414 0.135279 -0.662326 0
M  V30 7366 H 681.968 -0.244916 -2.03935 0
M  V30 7367 H 680.198 1.95649 -3.33554 0
M  V30 7368 H 681.887 1.71594 -3.67846 0
M  V30 7369 H 682.653 -0.486716 -4.82552 0
M  V30 7370 H 678.532 0.70931 -4.5551 0
M  V30 7371 H 682.076 -2.01166 -6.67966 0
M  V30 7372 H 677.973 -0.808125 -6.40421 0
M  V30 7373 H 678.741 -2.28967 -7.85822 0
M  V30 7374 N 681.404 1.57128 0.121893 0
M  V30 7375 C 682.82 1.52357 0.47534 0
M  V30 7376 C 683.02 0.864417 1.82017 0
M  V30 7377 O 682.076 0.445529 2.48538 0
M  V30 7378 C 683.389 2.97122 0.4625 0
M  V30 7379 C 684.937 3.08196 0.546255 0
M  V30 7380 C 685.412 4.54516 0.563833 0
M  V30 7381 N 686.903 4.58959 0.625353 0
M  V30 7382 C 687.638 5.69585 0.660354 0
M  V30 7383 N 687.134 6.89714 0.653175 0
M  V30 7384 N 688.927 5.57685 0.703143 0
M  V30 7385 H 681.078 1.98364 -0.75931 0
M  V30 7386 H 683.341 0.905777 -0.279772 0
M  V30 7387 H 683.047 3.48706 -0.457943 0
M  V30 7388 H 682.921 3.54406 1.29136 0
M  V30 7389 H 685.308 2.56617 1.45712 0
M  V30 7390 H 685.389 2.53912 -0.310234 0
M  V30 7391 H 685.033 5.06741 -0.342974 0
M  V30 7392 H 684.963 5.06609 1.43716 0
M  V30 7393 H 687.454 3.72489 0.637182 0
M  V30 7394 H 687.767 7.69781 0.682425 0
M  V30 7395 H 686.112 6.92223 0.620646 0
M  V30 7396 H 689.303 4.62744 0.706095 0
M  V30 7397 H 689.476 6.43909 0.726952 0
M  V30 7398 N 682.882 -0.391992 1.52647 0
M  V30 7399 C 684.159 -1.15136 1.58123 0
M  V30 7400 C 684.539 -2.07786 0.372597 0
M  V30 7401 O 683.887 -2.19374 -0.639304 0
M  V30 7402 C 684.097 -1.91367 2.91856 0
M  V30 7403 C 685.445 -2.46833 3.45483 0
M  V30 7404 O 686.469 -2.01527 2.9371 0
M  V30 7405 O 685.328 -3.29587 4.3593 0
M  V30 7406 H 682.422 -0.526649 0.637629 0
M  V30 7407 H 684.968 -0.397386 1.64982 0
M  V30 7408 H 683.74 -1.23597 3.71268 0
M  V30 7409 H 683.363 -2.73732 2.88369 0
M  V30 7410 N 684.36 -1.4356 -0.65026 0
M  V30 7411 C 685.29 -1.51758 -1.77459 0
M  V30 7412 C 686.271 -0.372019 -1.65982 0
M  V30 7413 O 687.456 -0.589627 -1.85033 0
M  V30 7414 C 684.586 -1.44302 -3.15902 0
M  V30 7415 C 683.54 -2.57138 -3.42146 0
M  V30 7416 C 682.866 -2.34735 -4.8042 0
M  V30 7417 C 684.166 -3.99373 -3.36598 0
M  V30 7418 H 685.86 -2.45863 -1.70855 0
M  V30 7419 H 683.406 -1.18333 -0.820566 0
M  V30 7420 H 685.359 -1.48641 -3.94314 0
M  V30 7421 H 684.083 -0.467026 -3.23244 0
M  V30 7422 H 682.742 -2.52157 -2.66106 0
M  V30 7423 H 682.39 -1.35372 -4.84441 0
M  V30 7424 H 682.09 -3.10375 -4.9894 0
M  V30 7425 H 683.614 -2.40862 -5.61086 0
M  V30 7426 H 685.028 -4.05826 -4.04942 0
M  V30 7427 H 683.425 -4.75063 -3.66654 0
M  V30 7428 H 684.495 -4.243 -2.34729 0
M  V30 7429 N 685.838 0.888903 -1.30139 0
M  V30 7430 C 686.785 1.99422 -1.16188 0
M  V30 7431 C 687.755 1.66017 -0.0523869 0
M  V30 7432 O 688.94 1.89506 -0.221864 0
M  V30 7433 C 686.08 3.34325 -0.855612 0
M  V30 7434 C 685.193 3.80445 -2.0466 0
M  V30 7435 C 684.328 5.03975 -1.67876 0
M  V30 7436 C 683.367 5.42492 -2.83493 0
M  V30 7437 N 682.504 6.57206 -2.47032 0
M  V30 7438 H 687.344 2.10687 -2.10749 0
M  V30 7439 H 684.881 1.03165 -1.04859 0
M  V30 7440 H 686.839 4.11968 -0.658681 0
M  V30 7441 H 685.469 3.22756 0.0531155 0
M  V30 7442 H 684.521 2.98745 -2.3549 0
M  V30 7443 H 685.833 4.04933 -2.91257 0
M  V30 7444 H 684.987 5.89232 -1.44535 0
M  V30 7445 H 683.726 4.8135 -0.784431 0
M  V30 7446 H 682.731 4.55764 -3.07505 0
M  V30 7447 H 683.956 5.67093 -3.73607 0
M  V30 7448 H 681.902 6.36164 -1.601 0
M  V30 7449 H 681.819 6.81543 -3.27161 0
M  V30 7450 H 683.087 7.45704 -2.27038 0
M  V30 7451 N 687.317 1.12792 1.10072 0
M  V30 7452 C 688.247 0.821688 2.18565 0
M  V30 7453 C 689.228 -0.21612 1.68721 0
M  V30 7454 O 690.413 -0.0764932 1.94049 0
M  V30 7455 C 687.543 0.279624 3.46172 0
M  V30 7456 C 686.497 1.25092 4.09312 0
M  V30 7457 C 685.823 0.568916 5.31665 0
M  V30 7458 C 687.123 2.60699 4.52585 0
M  V30 7459 H 688.817 1.72888 2.44438 0
M  V30 7460 H 686.363 0.832702 1.17482 0
M  V30 7461 H 688.316 0.053099 4.21367 0
M  V30 7462 H 687.04 -0.662929 3.19801 0
M  V30 7463 H 685.699 1.46332 3.36129 0
M  V30 7464 H 685.347 -0.378898 5.01571 0
M  V30 7465 H 685.047 1.21687 5.74862 0
M  V30 7466 H 686.571 0.351517 6.09587 0
M  V30 7467 H 687.985 2.43465 5.19035 0
M  V30 7468 H 686.382 3.21608 5.06644 0
M  V30 7469 H 687.452 3.1886 3.65317 0
M  V30 7470 N 688.795 -1.27931 0.920396 0
M  V30 7471 C 690.072 -1.89728 0.475687 0
M  V30 7472 C 690.452 -1.8337 -1.04588 0
M  V30 7473 O 689.8 -1.27404 -1.89685 0
M  V30 7474 C 690.01 -3.33959 1.01354 0
M  V30 7475 C 691.358 -4.10907 1.06963 0
M  V30 7476 O 692.382 -3.42945 0.962646 0
M  V30 7477 O 691.241 -5.32399 1.23343 0
M  V30 7478 H 688.335 -0.81294 0.151845 0
M  V30 7479 H 690.881 -1.36252 1.01161 0
M  V30 7480 H 689.653 -3.32843 2.05746 0
M  V30 7481 H 689.276 -3.94944 0.458829 0
M  V30 7482 N 690.273 -0.685099 -1.4193 0
M  V30 7483 C 691.221 -0.00165985 -2.326 0
M  V30 7484 C 692.215 0.779678 -1.50391 0
M  V30 7485 O 693.421 0.68648 -1.66395 0
M  V30 7486 H 689.796 0.0182616 -0.751778 0
M  V30 7487 H 691.767 -0.783592 -2.87928 0
M  V30 7488 C 690.516 0.928385 -3.35077 0
M  V30 7489 H 689.839 0.336578 -3.98381 0
M  V30 7490 H 691.279 1.37509 -4.01083 0
M  V30 7491 C 689.738 2.03964 -2.68142 0
M  V30 7492 O 690.268 3.12727 -2.5212 0
M  V30 7493 N 688.474 1.81433 -2.27003 0
M  V30 7494 H 688.021 0.929807 -2.40234 0
M  V30 7495 H 687.979 2.55973 -1.82552 0
M  V30 7496 N 691.751 1.51645 -0.429126 0
M  V30 7497 C 692.997 2.02314 0.140286 0
M  V30 7498 C 693.33 1.31314 1.43074 0
M  V30 7499 O 692.605 0.425531 1.89788 0
M  V30 7500 C 692.888 3.5822 0.36749 0
M  V30 7501 C 692.741 4.39846 -0.941039 0
M  V30 7502 C 694.06 4.25055 1.14089 0
M  V30 7503 H 691.179 0.735335 0.0495112 0
M  V30 7504 H 693.821 1.81358 -0.566514 0
M  V30 7505 H 691.971 3.76207 0.969556 0
M  V30 7506 H 693.643 4.33527 -1.57646 0
M  V30 7507 H 691.886 4.05259 -1.54751 0
M  V30 7508 H 692.557 5.47069 -0.73621 0
M  V30 7509 H 695.033 4.11288 0.630986 0
M  V30 7510 H 693.909 5.34038 1.26863 0
M  V30 7511 H 694.17 3.85358 2.16683 0
M  V30 7512 N 693.229 0.160201 1.56784 0
M  V30 7513 C 694.162 -0.812797 2.13234 0
M  V30 7514 C 695.14 -1.2335 1.05942 0
M  V30 7515 O 696.324 -1.32725 1.33852 0
M  V30 7516 C 693.451 -2.09311 2.66283 0
M  V30 7517 C 692.497 -1.8173 3.85845 0
M  V30 7518 S 693.33 -0.996473 5.26147 0
M  V30 7519 C 694.486 -2.28769 5.82594 0
M  V30 7520 H 694.719 -0.332794 2.95432 0
M  V30 7521 H 692.252 -0.0542971 1.54304 0
M  V30 7522 H 694.21 -2.82854 2.97496 0
M  V30 7523 H 692.871 -2.54425 1.84192 0
M  V30 7524 H 692.064 -2.76699 4.21253 0
M  V30 7525 H 691.666 -1.16289 3.55462 0
M  V30 7526 H 693.958 -3.24319 5.9483 0
M  V30 7527 H 694.901 -1.97846 6.79899 0
M  V30 7528 H 695.309 -2.40021 5.10931 0
M  V30 7529 N 694.707 -1.5719 -0.113559 0
M  V30 7530 C 695.637 -2.03772 -1.14013 0
M  V30 7531 C 696.618 -0.923176 -1.42869 0
M  V30 7532 O 697.803 -1.19325 -1.53216 0
M  V30 7533 C 694.933 -2.44663 -2.4649 0
M  V30 7534 C 693.887 -3.59612 -2.32085 0
M  V30 7535 C 693.213 -3.8642 -3.69573 0
M  V30 7536 C 694.513 -4.91149 -1.7768 0
M  V30 7537 H 696.207 -2.89785 -0.752665 0
M  V30 7538 H 693.753 -1.39412 -0.360609 0
M  V30 7539 H 695.706 -2.75857 -3.18561 0
M  V30 7540 H 694.43 -1.55628 -2.87137 0
M  V30 7541 H 693.089 -3.28636 -1.62461 0
M  V30 7542 H 692.737 -2.94581 -4.07715 0
M  V30 7543 H 692.437 -4.63797 -3.60786 0
M  V30 7544 H 693.961 -4.2007 -4.4314 0
M  V30 7545 H 695.375 -5.20843 -2.39574 0
M  V30 7546 H 693.772 -5.72562 -1.79701 0
M  V30 7547 H 694.842 -4.79301 -0.734776 0
M  V30 7548 N 696.185 0.383891 -1.52853 0
M  V30 7549 C 697.462 1.14296 -1.58732 0
M  V30 7550 C 697.842 2.07585 -0.383611 0
M  V30 7551 O 697.19 2.1971 0.627661 0
M  V30 7552 C 697.4 1.89816 -2.92867 0
M  V30 7553 C 698.748 2.44998 -3.46787 0
M  V30 7554 O 699.772 1.99966 -2.94774 0
M  V30 7555 O 698.631 3.2727 -4.37672 0
M  V30 7556 H 695.725 0.52326 -0.640413 0
M  V30 7557 H 698.271 0.388631 -1.6519 0
M  V30 7558 H 697.043 1.21626 -3.71918 0
M  V30 7559 H 696.666 2.72199 -2.89816 0
M  V30 7560 N 697.663 1.43903 0.642637 0
M  V30 7561 C 698.888 1.49758 1.43483 0
M  V30 7562 C 699.313 0.119911 1.87717 0
M  V30 7563 O 698.671 -0.888558 1.58033 0
M  V30 7564 C 698.719 2.45744 2.63898 0
M  V30 7565 O 697.823 1.95101 3.63331 0
M  V30 7566 H 697.164 0.506138 0.429791 0
M  V30 7567 H 699.694 1.88923 0.785438 0
M  V30 7568 H 699.704 2.63399 3.11584 0
M  V30 7569 H 698.379 3.45818 2.31046 0
M  V30 7570 H 696.956 1.87158 3.22531 0
M  V30 7571 N 699.141 -0.881989 1.30609 0
M  V30 7572 C 700.051 -2.02076 1.19174 0
M  V30 7573 C 701.067 -1.73645 0.11102 0
M  V30 7574 O 702.243 -1.98735 0.326528 0
M  V30 7575 C 699.308 -3.3515 0.887438 0
M  V30 7576 C 698.369 -3.76983 2.05383 0
M  V30 7577 C 697.602 -5.03707 1.76395 0
M  V30 7578 O 697.825 -5.66171 0.693302 0
M  V30 7579 O 696.759 -5.42019 2.61723 0
M  V30 7580 H 700.585 -2.14652 2.14845 0
M  V30 7581 H 698.17 -1.00843 1.10232 0
M  V30 7582 H 700.052 -4.14975 0.73306 0
M  V30 7583 H 698.727 -3.23676 -0.0393354 0
M  V30 7584 H 697.634 -2.97849 2.26355 0
M  V30 7585 H 698.967 -3.93066 2.96243 0
M  V30 7586 N 700.619 -1.13374 -1.09472 0
M  V30 7587 C 701.867 -0.893422 -1.8128 0
M  V30 7588 C 702.188 0.582029 -1.86111 0
M  V30 7589 O 701.458 1.42305 -1.34633 0
M  V30 7590 H 700.038 -0.327543 -0.67136 0
M  V30 7591 H 702.7 -1.43018 -1.32408 0
M  V30 7592 H 701.796 -1.28374 -2.84476 0
M  V30 7593 N 702.098 1.27442 -0.927168 0
M  V30 7594 C 703.048 2.24519 -0.396878 0
M  V30 7595 C 704.032 1.52981 0.498555 0
M  V30 7596 O 705.224 1.7378 0.336087 0
M  V30 7597 C 702.353 3.41514 0.349694 0
M  V30 7598 C 701.439 4.20357 -0.562226 0
M  V30 7599 N 701.83 4.7702 -1.68182 0
M  V30 7600 C 700.128 4.44503 -0.365135 0
M  V30 7601 C 700.829 5.36467 -2.24895 0
M  V30 7602 N 699.805 5.21371 -1.5386 0
M  V30 7603 H 703.607 2.65911 -1.25173 0
M  V30 7604 H 701.121 1.42366 -0.78138 0
M  V30 7605 H 703.118 4.10161 0.746536 0
M  V30 7606 H 701.778 3.01653 1.20148 0
M  V30 7607 H 702.789 4.74985 -2.06421 0
M  V30 7608 H 699.466 4.15111 0.446037 0
M  V30 7609 H 700.856 5.91264 -3.1915 0
M  V30 7610 N 703.576 0.692616 1.41565 0
M  V30 7611 C 704.825 0.219452 2.00503 0
M  V30 7612 C 705.138 -1.18683 1.55479 0
M  V30 7613 O 706.344 -1.75731 2.06956 0
M  V30 7614 C 704.8 0.341451 3.58277 0
M  V30 7615 C 704.408 1.75291 4.12283 0
M  V30 7616 C 706.152 -0.0720899 4.24439 0
M  V30 7617 C 704.059 1.82673 5.62481 0
M  V30 7618 H 702.989 0.0782874 0.749925 0
M  V30 7619 H 705.64 0.860386 1.62079 0
M  V30 7620 H 704.022 -0.367683 3.94289 0
M  V30 7621 H 705.196 2.49057 3.87695 0
M  V30 7622 H 703.511 2.11587 3.58636 0
M  V30 7623 H 706.108 -0.0373385 5.34687 0
M  V30 7624 H 706.451 -1.11034 4.0122 0
M  V30 7625 H 706.984 0.586663 3.9345 0
M  V30 7626 H 703.723 2.84539 5.90523 0
M  V30 7627 H 703.243 1.13288 5.89004 0
M  V30 7628 H 704.922 1.58827 6.27203 0
M  V30 7629 N 705.054 -1.51416 0.437162 0
M  V30 7630 C 706.001 -2.27743 -0.374374 0
M  V30 7631 C 706.971 -1.31327 -1.01698 0
M  V30 7632 O 708.156 -1.60229 -1.03592 0
M  V30 7633 C 705.296 -3.12241 -1.46969 0
M  V30 7634 C 704.409 -4.23651 -0.845236 0
M  V30 7635 C 703.544 -4.95458 -1.91559 0
M  V30 7636 C 702.583 -5.98789 -1.26956 0
M  V30 7637 N 701.72 -6.64005 -2.28126 0
M  V30 7638 H 706.56 -2.96654 0.282892 0
M  V30 7639 H 704.097 -1.46319 0.151352 0
M  V30 7640 H 706.055 -3.59556 -2.11602 0
M  V30 7641 H 704.685 -2.45445 -2.09659 0
M  V30 7642 H 703.737 -3.803 -0.0872059 0
M  V30 7643 H 705.049 -4.97683 -0.333582 0
M  V30 7644 H 704.203 -5.46321 -2.63854 0
M  V30 7645 H 702.942 -4.21055 -2.46097 0
M  V30 7646 H 701.947 -5.47219 -0.53207 0
M  V30 7647 H 703.172 -6.75149 -0.731509 0
M  V30 7648 H 701.118 -5.92415 -2.81745 0
M  V30 7649 H 701.035 -7.33802 -1.81852 0
M  V30 7650 H 702.303 -7.19498 -2.99905 0
M  V30 7651 N 706.532 -0.168513 -1.56696 0
M  V30 7652 C 707.781 0.477233 -1.95973 0
M  V30 7653 C 708.094 1.64578 -1.05704 0
M  V30 7654 O 709.3 2.35758 -1.3465 0
M  V30 7655 C 707.756 0.900413 -3.48455 0
M  V30 7656 C 707.364 -0.242382 -4.47344 0
M  V30 7657 C 709.108 1.51474 -3.96555 0
M  V30 7658 C 707.015 0.200272 -5.91061 0
M  V30 7659 H 705.945 0.182061 -0.73169 0
M  V30 7660 H 708.596 -0.256297 -1.81701 0
M  V30 7661 H 706.978 1.68984 -3.58135 0
M  V30 7662 H 708.152 -1.01967 -4.49377 0
M  V30 7663 H 706.467 -0.766484 -4.09285 0
M  V30 7664 H 709.064 1.85792 -5.01384 0
M  V30 7665 H 709.407 2.41163 -3.39332 0
M  V30 7666 H 709.94 0.789802 -3.89881 0
M  V30 7667 H 706.679 -0.661775 -6.52151 0
M  V30 7668 H 706.199 0.942979 -5.92341 0
M  V30 7669 H 707.878 0.645088 -6.43776 0
M  V30 7670 N 708.01 1.57248 0.105221 0
M  V30 7671 C 708.973 2.00388 1.11252 0
M  V30 7672 C 709.973 0.89594 1.33527 0
M  V30 7673 O 711.163 1.16166 1.29811 0
M  V30 7674 C 708.295 2.35589 2.46395 0
M  V30 7675 H 709.488 2.90591 0.741424 0
M  V30 7676 H 707.041 1.52332 0.349956 0
M  V30 7677 H 707.776 1.4831 2.884 0
M  V30 7678 H 707.561 3.16408 2.31578 0
M  V30 7679 H 709.051 2.69658 3.18864 0
M  V30 7680 N 709.488 -0.375779 1.53054 0
M  V30 7681 C 710.765 -1.13453 1.59336 0
M  V30 7682 C 711.145 -2.07379 0.394614 0
M  V30 7683 O 710.493 -2.2004 -0.616 0
M  V30 7684 C 710.703 -1.8826 2.93869 0
M  V30 7685 C 712.051 -2.43155 3.48081 0
M  V30 7686 O 713.075 -1.984 2.95831 0
M  V30 7687 O 711.934 -3.24944 4.39401 0
M  V30 7688 H 709.028 -0.519856 0.643179 0
M  V30 7689 H 711.574 -0.379865 1.65394 0
M  V30 7690 H 710.346 -1.19652 3.72558 0
M  V30 7691 H 709.969 -2.70658 2.91256 0
M  V30 7692 N 710.966 -1.44241 -0.634997 0
M  V30 7693 C 712.213 -1.46821 -1.39463 0
M  V30 7694 C 712.541 -0.0993362 -1.94246 0
M  V30 7695 O 711.796 0.898325 -1.73864 0
M  V30 7696 C 712.095 -2.47279 -2.58046 0
M  V30 7697 C 711.761 -3.92703 -2.21574 0
M  V30 7698 C 710.423 -4.32306 -2.1134 0
M  V30 7699 C 712.775 -4.84271 -1.92695 0
M  V30 7700 C 710.103 -5.61407 -1.70409 0
M  V30 7701 C 712.455 -6.13755 -1.53258 0
M  V30 7702 C 711.119 -6.52316 -1.41562 0
M  V30 7703 H 710.389 -0.537256 -0.51033 0
M  V30 7704 H 713.036 -1.77431 -0.720441 0
M  V30 7705 H 711.341 -2.10138 -3.3068 0
M  V30 7706 H 713.038 -2.46523 -3.16271 0
M  V30 7707 H 709.628 -3.61369 -2.30456 0
M  V30 7708 H 713.812 -4.54432 -1.99513 0
M  V30 7709 H 709.068 -5.90105 -1.59955 0
M  V30 7710 H 713.242 -6.84168 -1.29949 0
M  V30 7711 H 710.869 -7.52255 -1.09619 0
M  V30 7712 N 712.444 0.87505 -1.31075 0
M  V30 7713 C 713.692 1.62447 -1.20231 0
M  V30 7714 C 714.013 1.93506 0.240888 0
M  V30 7715 O 713.283 1.57847 1.16022 0
M  V30 7716 H 711.863 0.602207 -0.441991 0
M  V30 7717 H 714.525 1.04788 -1.64334 0
M  V30 7718 H 713.621 2.57031 -1.77036 0
M  V30 7719 N 713.922 1.13953 1.08869 0
M  V30 7720 C 714.855 0.765765 2.14968 0
M  V30 7721 C 715.833 -0.250689 1.60656 0
M  V30 7722 O 717.017 -0.140852 1.87973 0
M  V30 7723 C 714.144 0.136146 3.38426 0
M  V30 7724 C 713.19 1.12201 4.11477 0
M  V30 7725 S 714.023 2.65711 4.64928 0
M  V30 7726 C 715.179 2.04125 5.91679 0
M  V30 7727 H 715.412 1.66444 2.46341 0
M  V30 7728 H 712.945 0.960263 1.20906 0
M  V30 7729 H 714.903 -0.220712 4.09906 0
M  V30 7730 H 713.564 -0.739887 3.05261 0
M  V30 7731 H 712.757 0.629398 5.00055 0
M  V30 7732 H 712.359 1.42262 3.45886 0
M  V30 7733 H 714.651 1.39381 6.63008 0
M  V30 7734 H 715.594 2.90808 6.45629 0
M  V30 7735 H 716.002 1.4905 5.44467 0
M  V30 7736 N 715.4 -1.26948 0.933913 0
M  V30 7737 C 716.64 -1.9585 0.585003 0
M  V30 7738 C 717.004 -1.71722 -0.858802 0
M  V30 7739 O 718.205 -2.34366 -1.31629 0
M  V30 7740 C 716.476 -3.45638 0.909352 0
M  V30 7741 S 718.035 -4.33656 0.669892 0
M  V30 7742 H 714.853 -0.677485 0.215721 0
M  V30 7743 H 717.455 -1.54051 1.20368 0
M  V30 7744 H 716.159 -3.60697 1.9577 0
M  V30 7745 H 715.69 -3.92401 0.280115 0
M  V30 7746 H 717.705 -4.93975 -0.469378 0
M  V30 7747 N 716.879 -0.700114 -1.41195 0
M  V30 7748 C 717.826 -0.0376652 -2.30769 0
M  V30 7749 C 718.796 0.766544 -1.47354 0
M  V30 7750 O 719.981 0.73365 -1.76131 0
M  V30 7751 C 717.121 0.889452 -3.33441 0
M  V30 7752 C 716.234 0.076373 -4.31932 0
M  V30 7753 C 715.369 1.00155 -5.21673 0
M  V30 7754 C 714.408 0.181644 -6.1183 0
M  V30 7755 N 713.545 1.06087 -6.94039 0
M  V30 7756 H 718.385 -0.80726 -2.86858 0
M  V30 7757 H 715.922 -0.409798 -1.41277 0
M  V30 7758 H 717.88 1.44107 -3.91522 0
M  V30 7759 H 716.51 1.6254 -2.78892 0
M  V30 7760 H 715.562 -0.592223 -3.75762 0
M  V30 7761 H 716.874 -0.559076 -4.95657 0
M  V30 7762 H 716.028 1.62223 -5.8461 0
M  V30 7763 H 714.767 1.67085 -4.58186 0
M  V30 7764 H 713.772 -0.452085 -5.47938 0
M  V30 7765 H 714.997 -0.483925 -6.77374 0
M  V30 7766 H 712.943 1.7161 -6.33156 0
M  V30 7767 H 712.86 0.481094 -7.54468 0
M  V30 7768 H 714.128 1.66822 -7.6144 0
M  V30 7769 N 718.357 1.51182 -0.445186 0
M  V30 7770 C 719.267 2.31692 0.368255 0
M  V30 7771 C 720.283 1.40942 1.02036 0
M  V30 7772 O 721.459 1.74011 1.01401 0
M  V30 7773 C 718.524 3.14903 1.45041 0
M  V30 7774 C 717.585 4.21442 0.817615 0
M  V30 7775 C 716.818 5.00677 1.8482 0
M  V30 7776 O 717.041 4.80644 3.07145 0
M  V30 7777 O 715.975 5.84559 1.43438 0
M  V30 7778 H 719.801 3.0232 -0.289219 0
M  V30 7779 H 717.386 1.47951 -0.207555 0
M  V30 7780 H 719.268 3.66612 2.07783 0
M  V30 7781 H 717.943 2.47031 2.09182 0
M  V30 7782 H 716.85 3.73791 0.151931 0
M  V30 7783 H 718.183 4.9171 0.219564 0
M  V30 7784 N 719.835 0.176821 1.56605 0
M  V30 7785 C 720.785 -0.763718 2.14829 0
M  V30 7786 C 721.769 -1.18903 1.08401 0
M  V30 7787 O 722.961 -1.15048 1.3451 0
M  V30 7788 C 720.09 -1.99069 2.7969 0
M  V30 7789 C 719.176 -1.58711 3.93283 0
M  V30 7790 N 719.567 -0.893423 4.97847 0
M  V30 7791 C 717.865 -1.87774 4.04545 0
M  V30 7792 C 718.566 -0.693866 5.77547 0
M  V30 7793 N 717.542 -1.23699 5.29339 0
M  V30 7794 H 721.344 -0.224811 2.93039 0
M  V30 7795 H 718.858 -0.0236563 1.62383 0
M  V30 7796 H 720.855 -2.67478 3.19783 0
M  V30 7797 H 719.515 -2.53449 2.02962 0
M  V30 7798 H 720.526 -0.550868 5.14962 0
M  V30 7799 H 717.203 -2.43793 3.38927 0
M  V30 7800 H 718.593 -0.144899 6.71744 0
M  V30 7801 N 721.313 -1.57302 -0.09688 0
M  V30 7802 C 722.246 -1.97179 -1.14872 0
M  V30 7803 C 723.224 -0.844734 -1.38935 0
M  V30 7804 O 724.408 -1.10487 -1.52725 0
M  V30 7805 C 721.535 -2.28703 -2.49826 0
M  V30 7806 C 720.581 -3.51158 -2.42054 0
M  V30 7807 S 721.414 -5.0294 -1.83879 0
M  V30 7808 C 722.57 -5.37639 -3.2046 0
M  V30 7809 H 722.803 -2.86088 -0.808771 0
M  V30 7810 H 720.336 -1.51368 -0.304492 0
M  V30 7811 H 722.294 -2.47541 -3.27466 0
M  V30 7812 H 720.955 -1.40368 -2.8099 0
M  V30 7813 H 720.148 -3.70651 -3.41517 0
M  V30 7814 H 719.75 -3.31821 -1.72543 0
M  V30 7815 H 722.042 -5.34175 -4.16729 0
M  V30 7816 H 722.985 -6.38677 -3.05773 0
M  V30 7817 H 723.393 -4.651 -3.19909 0
M  V30 7818 N 722.791 0.367657 -1.53252 0
M  V30 7819 C 723.724 1.47264 -1.74323 0
M  V30 7820 C 724.702 1.51458 -0.591535 0
M  V30 7821 O 725.886 1.69542 -0.823883 0
M  V30 7822 C 723.013 2.85637 -1.82015 0
M  V30 7823 C 722.059 2.99176 -3.03967 0
M  V30 7824 S 722.892 2.68147 -4.63527 0
M  V30 7825 C 724.048 4.08673 -4.74065 0
M  V30 7826 H 724.281 1.29169 -2.67773 0
M  V30 7827 H 721.814 0.561866 -1.43814 0
M  V30 7828 H 723.772 3.65365 -1.87132 0
M  V30 7829 H 722.433 3.01043 -0.896195 0
M  V30 7830 H 721.626 4.00511 -3.05953 0
M  V30 7831 H 721.228 2.27367 -2.96952 0
M  V30 7832 H 723.52 5.02889 -4.53992 0
M  V30 7833 H 724.463 4.11693 -5.7612 0
M  V30 7834 H 724.871 3.95576 -4.02716 0
M  V30 7835 N 724.269 1.44576 0.627338 0
M  V30 7836 C 725.546 1.38033 1.38586 0
M  V30 7837 C 725.926 0.0409468 2.1106 0
M  V30 7838 O 725.274 -0.976582 2.0658 0
M  V30 7839 C 725.484 2.58102 2.34913 0
M  V30 7840 C 726.832 3.02332 2.98129 0
M  V30 7841 O 727.856 2.58334 2.45238 0
M  V30 7842 O 726.715 3.78628 3.94085 0
M  V30 7843 H 723.809 0.546801 0.620434 0
M  V30 7844 H 726.355 1.56672 0.652077 0
M  V30 7845 H 725.127 3.4719 1.80485 0
M  V30 7846 H 724.75 2.41696 3.15703 0
M  V30 7847 N 725.747 -0.868086 1.31537 0
M  V30 7848 C 726.995 -1.61807 1.21091 0
M  V30 7849 C 727.316 -1.93631 -0.230623 0
M  V30 7850 O 726.586 -1.5846 -1.15183 0
M  V30 7851 H 725.166 -0.599854 0.445178 0
M  V30 7852 H 727.828 -1.03915 1.64887 0
M  V30 7853 H 726.924 -2.56088 1.78396 0
M  V30 7854 N 727.225 -1.14528 -1.08264 0
M  V30 7855 C 728.471 -0.91576 -1.80947 0
M  V30 7856 C 728.804 0.55623 -1.86064 0
M  V30 7857 O 728.079 1.41207 -1.33756 0
M  V30 7858 C 728.362 -1.51917 -3.26486 0
M  V30 7859 C 728.215 -3.06111 -3.2957 0
M  V30 7860 C 729.534 -1.19724 -4.23502 0
M  V30 7861 H 726.653 -0.334113 -0.656915 0
M  V30 7862 H 729.295 -1.41547 -1.26746 0
M  V30 7863 H 727.445 -1.0942 -3.72773 0
M  V30 7864 H 729.117 -3.57448 -2.91597 0
M  V30 7865 H 727.36 -3.40483 -2.688 0
M  V30 7866 H 728.031 -3.43438 -4.32151 0
M  V30 7867 H 730.507 -1.56467 -3.85561 0
M  V30 7868 H 729.383 -1.64575 -5.23647 0
M  V30 7869 H 729.644 -0.112771 -4.41956 0
M  V30 7870 N 728.703 1.26451 -0.940633 0
M  V30 7871 C 729.931 1.97868 -0.604642 0
M  V30 7872 C 730.346 1.70051 0.820251 0
M  V30 7873 O 729.703 0.96843 1.54686 0
M  V30 7874 C 729.754 3.51684 -0.836689 0
M  V30 7875 O 729.475 3.78533 -2.20554 0
M  V30 7876 C 730.976 4.40343 -0.511169 0
M  V30 7877 H 728.196 0.631105 -0.227919 0
M  V30 7878 H 730.74 1.60979 -1.26119 0
M  V30 7879 H 728.895 3.86736 -0.226759 0
M  V30 7880 H 729.309 4.73065 -2.26517 0
M  V30 7881 H 730.783 5.47229 -0.724157 0
M  V30 7882 H 731.26 4.35694 0.553815 0
M  V30 7883 H 731.866 4.10834 -1.0998 0
M  V30 7884 N 730.181 0.707592 1.40822 0
M  V30 7885 C 731.409 0.253073 2.05346 0
M  V30 7886 C 731.824 -1.10218 1.53289 0
M  V30 7887 O 731.181 -1.69112 0.686105 0
M  V30 7888 C 731.232 0.215411 3.60858 0
M  V30 7889 O 730.953 1.51714 4.10992 0
M  V30 7890 C 732.454 -0.258636 4.42545 0
M  V30 7891 H 729.674 0.115256 0.661027 0
M  V30 7892 H 732.218 0.963555 1.80377 0
M  V30 7893 H 730.373 -0.445978 3.84824 0
M  V30 7894 H 730.787 1.41226 5.05129 0
M  V30 7895 H 732.261 -0.233849 5.51504 0
M  V30 7896 H 732.738 -1.2995 4.19535 0
M  V30 7897 H 733.344 0.372186 4.23668 0
M  V30 7898 N 731.66 -1.50943 0.453197 0
M  V30 7899 C 733.076 -1.59245 0.106342 0
M  V30 7900 C 733.276 -1.46287 -1.38572 0
M  V30 7901 O 732.332 -1.31219 -2.15726 0
M  V30 7902 C 733.645 -2.93797 0.640595 0
M  V30 7903 C 735.193 -3.07148 0.602435 0
M  V30 7904 C 735.668 -4.44247 1.11393 0
M  V30 7905 N 737.159 -4.50611 1.07258 0
M  V30 7906 C 737.894 -5.55049 1.43905 0
M  V30 7907 N 737.39 -6.66828 1.87914 0
M  V30 7908 N 739.183 -5.45494 1.35621 0
M  V30 7909 H 731.334 -1.5761 1.42382 0
M  V30 7910 H 733.597 -0.74384 0.587713 0
M  V30 7911 H 733.303 -3.087 1.68515 0
M  V30 7912 H 733.177 -3.77127 0.0742272 0
M  V30 7913 H 735.564 -2.91903 -0.433171 0
M  V30 7914 H 735.645 -2.25619 1.20539 0
M  V30 7915 H 735.289 -4.60239 2.14808 0
M  V30 7916 H 735.219 -5.2434 0.487353 0
M  V30 7917 H 737.71 -3.70391 0.749585 0
M  V30 7918 H 738.023 -7.42558 2.14072 0
M  V30 7919 H 736.368 -6.67995 1.91853 0
M  V30 7920 H 739.559 -4.57053 1.01093 0
M  V30 7921 H 739.732 -6.2677 1.64508 0
M  V30 7922 N 733.138 -0.185124 -1.56509 0
M  V30 7923 C 734.366 0.462139 -2.01673 0
M  V30 7924 C 734.781 1.55873 -1.06532 0
M  V30 7925 O 734.138 1.82371 -0.0684805 0
M  V30 7926 C 734.189 1.0277 -3.46584 0
M  V30 7927 O 733.91 -0.0251296 -4.38093 0
M  V30 7928 C 735.411 1.75183 -4.07217 0
M  V30 7929 H 732.631 0.117001 -0.660721 0
M  V30 7930 H 735.175 -0.290905 -2.0242 0
M  V30 7931 H 733.33 1.73118 -3.46568 0
M  V30 7932 H 733.744 0.394387 -5.23015 0
M  V30 7933 H 735.218 2.09999 -5.10494 0
M  V30 7934 H 735.695 2.6519 -3.50101 0
M  V30 7935 H 736.301 1.09445 -4.10977 0
M  V30 7936 N 734.616 1.57351 0.0885366 0
M  V30 7937 C 735.863 1.86419 0.790824 0
M  V30 7938 C 736.191 0.774561 1.78412 0
M  V30 7939 O 735.446 -0.23119 1.9433 0
M  V30 7940 C 735.745 3.22098 1.5488 0
M  V30 7941 C 735.411 4.4548 0.697025 0
M  V30 7942 C 734.073 4.78975 0.462237 0
M  V30 7943 C 736.425 5.21094 0.105315 0
M  V30 7944 C 733.753 5.85507 -0.374016 0
M  V30 7945 C 736.105 6.28509 -0.718298 0
M  V30 7946 C 734.769 6.60515 -0.963116 0
M  V30 7947 H 734.039 0.682157 0.289383 0
M  V30 7948 H 736.686 1.91429 0.0520961 0
M  V30 7949 H 734.991 3.12803 2.35927 0
M  V30 7950 H 736.688 3.41819 2.09669 0
M  V30 7951 H 733.278 4.19255 0.890137 0
M  V30 7952 H 737.462 4.95544 0.273856 0
M  V30 7953 H 732.718 6.08713 -0.572606 0
M  V30 7954 H 736.892 6.86268 -1.18362 0
M  V30 7955 H 734.519 7.42893 -1.6129 0
M  V30 7956 N 736.094 -0.359525 1.53444 0
M  V30 7957 C 737.334 -1.11014 1.71625 0
M  V30 7958 C 737.698 -1.86376 0.46132 0
M  V30 7959 O 738.899 -2.63724 0.519908 0
M  V30 7960 C 737.17 -2.03907 2.93524 0
M  V30 7961 S 738.729 -2.86408 3.3244 0
M  V30 7962 H 735.547 -0.375352 0.603847 0
M  V30 7963 H 738.149 -0.390604 1.91558 0
M  V30 7964 H 736.853 -1.47316 3.83048 0
M  V30 7965 H 736.384 -2.80324 2.76011 0
M  V30 7966 H 738.399 -4.06241 2.84926 0
M  V30 7967 N 737.572 -1.44907 -0.619662 0
M  V30 7968 C 738.82 -1.47999 -1.37625 0
M  V30 7969 C 739.141 -0.118295 -1.94641 0
M  V30 7970 O 738.411 0.85086 -1.76457 0
M  V30 7971 H 736.991 -0.544993 -0.510873 0
M  V30 7972 H 739.653 -1.80772 -0.728522 0
M  V30 7973 H 738.749 -2.21196 -2.20179 0
M  V30 7974 N 739.05 0.861098 -1.31996 0
M  V30 7975 C 740.278 1.6474 -1.25173 0
M  V30 7976 C 740.693 1.87926 0.181425 0
M  V30 7977 O 740.05 1.4437 1.1164 0
M  V30 7978 C 740.101 3.01036 -2.0015 0
M  V30 7979 O 739.822 2.7888 -3.37872 0
M  V30 7980 C 741.323 3.95481 -2.00273 0
M  V30 7981 H 738.543 0.513314 -0.432146 0
M  V30 7982 H 741.087 1.07419 -1.74016 0
M  V30 7983 H 739.242 3.55021 -1.55046 0
M  V30 7984 H 739.656 3.65514 -3.76165 0
M  V30 7985 H 741.13 4.88403 -2.57229 0
M  V30 7986 H 741.607 4.27957 -0.987407 0
M  V30 7987 H 742.213 3.47433 -2.45296 0
M  V30 7988 N 740.528 1.15101 1.07655 0
M  V30 7989 C 741.939 0.933848 1.61667 0
M  V30 7990 C 742.29 -0.525569 1.8903 0
M  V30 7991 O 741.415 -1.39605 1.65346 0
M  V30 7992 C 742.01 1.68876 2.93711 0
M  V30 7993 C 740.569 1.51697 3.44478 0
M  V30 7994 C 739.716 1.70633 2.18586 0
M  V30 7995 H 742.667 1.30171 0.907816 0
M  V30 7996 H 742.688 1.15645 3.625 0
M  V30 7997 H 742.2 2.7509 2.73764 0
M  V30 7998 H 740.301 0.478635 3.69513 0
M  V30 7999 H 740.414 2.29194 4.20722 0
M  V30 8000 H 738.778 1.13259 2.28132 0
M  V30 8001 H 739.561 2.78206 2.01137 0
M  V30 8002 N 742.006 -1.2595 0.947325 0
M  V30 8003 C 743.283 -1.88676 0.515824 0
M  V30 8004 C 743.663 -1.85547 -1.00675 0
M  V30 8005 O 743.011 -1.31399 -1.8694 0
M  V30 8006 C 743.221 -3.31734 1.08415 0
M  V30 8007 C 744.569 -4.08545 1.15654 0
M  V30 8008 O 745.593 -3.40826 1.03517 0
M  V30 8009 O 744.452 -5.29663 1.34608 0
M  V30 8010 H 741.546 -0.809537 0.169055 0
M  V30 8011 H 744.092 -1.34075 1.04029 0
M  V30 8012 H 742.864 -3.28404 2.1276 0
M  V30 8013 H 742.487 -3.93882 0.542499 0
M  V30 8014 N 743.484 -0.715051 -1.40445 0
M  V30 8015 C 744.714 -0.263576 -2.04912 0
M  V30 8016 C 745.122 1.09943 -1.53978 0
M  V30 8017 O 744.465 1.70203 -0.691133 0
M  V30 8018 C 744.527 -0.165048 -3.59121 0
M  V30 8019 C 744.191 -1.46325 -4.32941 0
M  V30 8020 C 745.188 -2.40506 -4.60926 0
M  V30 8021 C 742.873 -1.72203 -4.7186 0
M  V30 8022 C 744.867 -3.58812 -5.26814 0
M  V30 8023 C 742.554 -2.9079 -5.3748 0
M  V30 8024 C 743.552 -3.83917 -5.64887 0
M  V30 8025 O 743.24 -5.00424 -6.29151 0
M  V30 8026 H 742.972 -0.116317 -0.665918 0
M  V30 8027 H 745.526 -0.973774 -1.8085 0
M  V30 8028 H 743.756 0.601088 -3.82 0
M  V30 8029 H 745.445 0.251794 -4.05118 0
M  V30 8030 H 746.211 -2.21778 -4.31323 0
M  V30 8031 H 742.09 -1.00571 -4.49896 0
M  V30 8032 H 745.634 -4.31517 -5.48123 0
M  V30 8033 H 741.531 -3.09428 -5.66502 0
M  V30 8034 H 742.299 -5.00494 -6.47648 0
M  V30 8035 N 744.962 1.50701 -0.461195 0
M  V30 8036 C 746.211 2.01458 0.0988277 0
M  V30 8037 C 746.524 1.34863 1.41673 0
M  V30 8038 O 747.73 1.76721 2.06111 0
M  V30 8039 C 746.186 3.59186 0.226648 0
M  V30 8040 C 745.794 4.34732 -1.08223 0
M  V30 8041 C 747.538 4.18015 0.73916 0
M  V30 8042 C 745.445 5.8422 -0.918747 0
M  V30 8043 H 744.375 0.7529 0.040709 0
M  V30 8044 H 747.026 1.736 -0.594589 0
M  V30 8045 H 745.408 3.83589 0.983621 0
M  V30 8046 H 746.582 4.22059 -1.84939 0
M  V30 8047 H 744.897 3.87466 -1.52509 0
M  V30 8048 H 747.494 5.27436 0.878347 0
M  V30 8049 H 747.837 3.78746 1.72793 0
M  V30 8050 H 748.37 3.9778 0.0398469 0
M  V30 8051 H 745.109 6.27944 -1.88059 0
M  V30 8052 H 744.629 5.99493 -0.191801 0
M  V30 8053 H 746.308 6.44382 -0.581405 0
M  V30 8054 N 746.441 0.193421 1.56409 0
M  V30 8055 C 747.404 -0.714371 2.17783 0
M  V30 8056 C 748.404 -1.1422 1.13183 0
M  V30 8057 O 749.594 -1.05557 1.38576 0
M  V30 8058 C 746.726 -1.97509 2.77855 0
M  V30 8059 H 747.919 -0.179714 2.99361 0
M  V30 8060 H 745.472 -0.0561944 1.56199 0
M  V30 8061 H 746.207 -2.5523 2.0007 0
M  V30 8062 H 745.992 -1.67706 3.54425 0
M  V30 8063 H 747.482 -2.62246 3.24987 0
M  V30 8064 N 747.919 -1.57396 -0.0801906 0
M  V30 8065 C 749.33 -1.75642 -0.633002 0
M  V30 8066 C 749.681 -0.817708 -1.78348 0
M  V30 8067 O 748.806 0.000233743 -2.164 0
M  V30 8068 C 749.401 -3.18502 -1.15507 0
M  V30 8069 C 747.96 -3.38121 -1.65381 0
M  V30 8070 C 747.107 -2.71386 -0.569661 0
M  V30 8071 H 750.058 -1.58027 0.145949 0
M  V30 8072 H 750.079 -3.22198 -2.02408 0
M  V30 8073 H 749.591 -3.86799 -0.317515 0
M  V30 8074 H 747.692 -2.74926 -2.51488 0
M  V30 8075 H 747.805 -4.46521 -1.73654 0
M  V30 8076 H 746.169 -2.33702 -1.0127 0
M  V30 8077 H 746.952 -3.42332 0.257561 0
M  V30 8078 N 749.397 0.351382 -1.53633 0
M  V30 8079 C 750.307 1.45471 -1.84052 0
M  V30 8080 C 751.323 1.57945 -0.730015 0
M  V30 8081 O 752.499 1.73571 -1.02153 0
M  V30 8082 C 749.564 2.80562 -2.03681 0
M  V30 8083 C 748.625 2.77497 -3.27558 0
M  V30 8084 C 747.858 4.06144 -3.46241 0
M  V30 8085 O 748.081 5.03028 -2.68922 0
M  V30 8086 O 747.015 4.11092 -4.39645 0
M  V30 8087 H 750.841 1.22684 -2.77817 0
M  V30 8088 H 748.426 0.542827 -1.3919 0
M  V30 8089 H 750.308 3.6058 -2.18082 0
M  V30 8090 H 748.983 3.03296 -1.13106 0
M  V30 8091 H 747.89 1.96126 -3.18568 0
M  V30 8092 H 749.223 2.59716 -4.18101 0
M  V30 8093 N 750.875 1.45233 0.611969 0
M  V30 8094 C 752.124 1.48296 1.36716 0
M  V30 8095 C 752.437 0.12706 1.95187 0
M  V30 8096 O 753.643 0.0353066 2.71477 0
M  V30 8097 C 752.099 2.61168 2.47627 0
M  V30 8098 C 751.707 4.03051 1.95587 0
M  V30 8099 C 753.451 2.73472 3.24674 0
M  V30 8100 C 751.358 5.07312 3.03954 0
M  V30 8101 H 750.288 0.5518 0.513841 0
M  V30 8102 H 752.939 1.7136 0.656359 0
M  V30 8103 H 751.321 2.31379 3.21372 0
M  V30 8104 H 752.495 4.42497 1.2858 0
M  V30 8105 H 750.81 3.95158 1.31298 0
M  V30 8106 H 753.407 3.48537 4.05494 0
M  V30 8107 H 753.75 1.79953 3.75397 0
M  V30 8108 H 754.283 3.02765 2.58028 0
M  V30 8109 H 751.022 6.02525 2.58154 0
M  V30 8110 H 750.542 4.7244 3.69541 0
M  V30 8111 H 752.221 5.31867 3.6841 0
M  V30 8112 N 752.353 -0.854086 1.3245 0
M  V30 8113 C 753.602 -1.60318 1.22397 0
M  V30 8114 C 753.915 -1.9444 -0.212664 0
M  V30 8115 O 755.121 -2.67991 -0.435066 0
M  V30 8116 C 753.577 -2.8909 2.1437 0
M  V30 8117 C 753.185 -2.62391 3.63119 0
M  V30 8118 C 754.929 -3.67104 2.13155 0
M  V30 8119 C 752.836 -3.87167 4.47052 0
M  V30 8120 H 751.766 -0.601586 0.454544 0
M  V30 8121 H 754.417 -0.943023 1.57415 0
M  V30 8122 H 752.799 -3.56567 1.72268 0
M  V30 8123 H 753.973 -2.03222 4.13567 0
M  V30 8124 H 752.288 -1.97706 3.66471 0
M  V30 8125 H 754.885 -4.59696 2.731 0
M  V30 8126 H 755.228 -4.00876 1.12268 0
M  V30 8127 H 755.761 -3.06533 2.5354 0
M  V30 8128 H 752.5 -3.58536 5.48755 0
M  V30 8129 H 752.02 -4.45729 4.01355 0
M  V30 8130 H 753.699 -4.549 4.60081 0
M  V30 8131 N 753.831 -1.1567 -1.07043 0
M  V30 8132 C 754.794 -0.858906 -2.12498 0
M  V30 8133 C 755.794 0.142735 -1.60165 0
M  V30 8134 O 756.984 -0.0872678 -1.73981 0
M  V30 8135 C 754.116 -0.283021 -3.39723 0
M  V30 8136 H 755.309 -1.79368 -2.40348 0
M  V30 8137 H 752.862 -0.964608 -1.22984 0
M  V30 8138 H 753.597 0.659796 -3.17517 0
M  V30 8139 H 753.382 -1.00467 -3.7901 0
M  V30 8140 H 754.872 -0.0923543 -4.17498 0
M  V30 8141 N 755.309 1.25446 -0.953992 0
M  V30 8142 C 756.539 1.96929 -0.624688 0
M  V30 8143 C 756.947 1.71112 0.807292 0
M  V30 8144 O 756.29 0.983512 1.55154 0
M  V30 8145 C 756.352 3.50425 -0.802676 0
M  V30 8146 C 756.016 3.99916 -2.21169 0
M  V30 8147 C 757.013 4.10662 -3.18831 0
M  V30 8148 C 754.698 4.33598 -2.53571 0
M  V30 8149 C 756.692 4.54401 -4.46988 0
M  V30 8150 C 754.379 4.77024 -3.81958 0
M  V30 8151 C 755.377 4.87388 -4.78478 0
M  V30 8152 O 755.065 5.29851 -6.04577 0
M  V30 8153 H 754.797 0.634511 -0.233179 0
M  V30 8154 H 757.351 1.60591 -1.28061 0
M  V30 8155 H 755.581 3.86596 -0.0896044 0
M  V30 8156 H 757.27 4.03117 -0.47452 0
M  V30 8157 H 758.036 3.84872 -2.95124 0
M  V30 8158 H 753.915 4.24757 -1.79171 0
M  V30 8159 H 757.459 4.62406 -5.22328 0
M  V30 8160 H 753.356 5.02258 -4.05471 0
M  V30 8161 H 754.124 5.48039 -6.07944 0
M  V30 8162 N 756.787 0.722489 1.40064 0
M  V30 8163 C 757.719 0.0349057 2.29173 0
M  V30 8164 C 758.732 -0.716571 1.46182 0
M  V30 8165 O 759.921 -0.562806 1.69395 0
M  V30 8166 C 757.021 -0.974839 3.24577 0
M  V30 8167 C 756.194 -0.287471 4.36454 0
M  V30 8168 C 755.253 -1.20356 5.12251 0
M  V30 8169 O 754.279 -0.685753 5.65054 0
M  V30 8170 N 755.481 -2.53422 5.22262 0
M  V30 8171 H 758.246 0.800058 2.88824 0
M  V30 8172 H 755.807 0.57068 1.51509 0
M  V30 8173 H 757.799 -1.59002 3.72157 0
M  V30 8174 H 756.369 -1.6413 2.66046 0
M  V30 8175 H 755.589 0.508008 3.90913 0
M  V30 8176 H 756.877 0.189382 5.08447 0
M  V30 8177 H 756.275 -2.97981 4.80857 0
M  V30 8178 H 754.832 -3.10067 5.73325 0
M  V30 8179 N 758.265 -1.50454 0.469181 0
M  V30 8180 C 759.676 -1.86695 0.0136034 0
M  V30 8181 C 760.027 -1.38413 -1.39055 0
M  V30 8182 O 759.152 -0.748294 -2.03051 0
M  V30 8183 C 759.747 -3.38795 0.0179098 0
M  V30 8184 C 758.306 -3.74455 -0.382191 0
M  V30 8185 C 757.453 -2.74338 0.404207 0
M  V30 8186 H 760.404 -1.43225 0.683547 0
M  V30 8187 H 760.425 -3.72321 -0.78468 0
M  V30 8188 H 759.937 -3.73906 1.04 0
M  V30 8189 H 758.038 -3.44944 -1.4087 0
M  V30 8190 H 758.151 -4.79025 -0.084862 0
M  V30 8191 H 756.515 -2.54305 -0.141829 0
M  V30 8192 H 757.298 -3.12293 1.42577 0
M  V30 8193 N 759.743 -0.201713 -1.56304 0
M  V30 8194 C 760.973 0.440084 -2.01858 0
M  V30 8195 C 761.381 1.55279 -1.08098 0
M  V30 8196 O 760.724 1.83529 -0.0792216 0
M  V30 8197 C 760.786 1.05091 -3.43797 0
M  V30 8198 C 760.45 0.0761208 -4.56937 0
M  V30 8199 C 761.447 -0.716951 -5.14933 0
M  V30 8200 C 759.132 -0.0368815 -5.02286 0
M  V30 8201 C 761.126 -1.60993 -6.16733 0
M  V30 8202 C 758.813 -0.933409 -6.03929 0
M  V30 8203 C 759.811 -1.71849 -6.61027 0
M  V30 8204 O 759.499 -2.59998 -7.60695 0
M  V30 8205 H 759.231 0.114139 -0.666294 0
M  V30 8206 H 761.785 -0.309672 -2.03052 0
M  V30 8207 H 760.015 1.84938 -3.3961 0
M  V30 8208 H 761.704 1.59804 -3.73118 0
M  V30 8209 H 762.47 -0.63999 -4.80759 0
M  V30 8210 H 758.349 0.564034 -4.57537 0
M  V30 8211 H 761.893 -2.22315 -6.61227 0
M  V30 8212 H 757.79 -1.01146 -6.37526 0
M  V30 8213 H 758.558 -2.53851 -7.7814 0
M  V30 8214 N 761.222 1.57436 0.0718424 0
M  V30 8215 C 762.47 1.86878 0.769484 0
M  V30 8216 C 762.791 0.7937 1.78116 0
M  V30 8217 O 762.061 -0.177642 1.95093 0
M  V30 8218 H 760.641 0.689593 0.287177 0
M  V30 8219 H 763.303 1.94841 0.0479427 0
M  V30 8220 H 762.399 2.84387 1.28572 0
M  V30 8221 N 762.7 -0.34323 1.53817 0
M  V30 8222 C 763.647 -1.42153 1.81827 0
M  V30 8223 C 764.617 -1.52251 0.663996 0
M  V30 8224 O 765.802 -1.67784 0.908461 0
M  V30 8225 C 762.942 -2.78799 2.03384 0
M  V30 8226 C 762.055 -2.7749 3.31094 0
M  V30 8227 C 761.19 -4.05856 3.42717 0
M  V30 8228 C 760.229 -3.98776 4.64375 0
M  V30 8229 N 759.366 -5.18833 4.73029 0
M  V30 8230 H 764.206 -1.17567 2.73829 0
M  V30 8231 H 761.743 -0.569506 1.35628 0
M  V30 8232 H 763.701 -3.58211 2.13872 0
M  V30 8233 H 762.331 -3.01736 1.14696 0
M  V30 8234 H 761.383 -1.90182 3.29446 0
M  V30 8235 H 762.695 -2.68137 4.206 0
M  V30 8236 H 761.849 -4.93691 3.52638 0
M  V30 8237 H 760.588 -4.1799 2.51267 0
M  V30 8238 H 759.593 -3.09325 4.5453 0
M  V30 8239 H 760.818 -3.88224 5.57189 0
M  V30 8240 H 758.764 -5.31511 3.84489 0
M  V30 8241 H 758.681 -5.11737 5.56472 0
M  V30 8242 H 759.949 -6.08439 4.87261 0
M  V30 8243 N 764.178 -1.45556 -0.604258 0
M  V30 8244 C 765.403 -1.53509 -1.39462 0
M  V30 8245 C 765.828 -0.169638 -1.87333 0
M  V30 8246 O 765.186 0.846346 -1.60333 0
M  V30 8247 C 765.234 -2.52654 -2.5729 0
M  V30 8248 O 764.338 -2.04666 -3.5803 0
M  V30 8249 H 763.679 -0.517355 -0.416221 0
M  V30 8250 H 766.209 -1.90939 -0.735072 0
M  V30 8251 H 766.219 -2.71568 -3.04491 0
M  V30 8252 H 764.894 -3.51823 -2.21797 0
M  V30 8253 H 763.471 -1.95643 -3.17456 0
M  V30 8254 N 765.656 0.84705 -1.32902 0
M  V30 8255 C 766.902 1.60414 -1.24078 0
M  V30 8256 C 767.235 1.93217 0.195105 0
M  V30 8257 O 766.51 1.58001 1.13428 0
M  V30 8258 C 766.793 2.91951 -2.108 0
M  V30 8259 C 766.646 2.6588 -3.62805 0
M  V30 8260 C 767.965 3.93299 -1.97494 0
M  V30 8261 H 765.084 0.58206 -0.452079 0
M  V30 8262 H 767.726 0.977562 -1.62922 0
M  V30 8263 H 765.876 3.45425 -1.77802 0
M  V30 8264 H 767.548 2.18902 -4.06054 0
M  V30 8265 H 765.791 1.99716 -3.85092 0
M  V30 8266 H 766.462 3.59574 -4.1882 0
M  V30 8267 H 768.938 3.49105 -2.26417 0
M  V30 8268 H 767.814 4.8318 -2.60438 0
M  V30 8269 H 768.075 4.31887 -0.944782 0
M  V30 8270 N 767.134 1.16236 1.06428 0
M  V30 8271 C 768.411 0.853294 1.76006 0
M  V30 8272 C 768.791 -0.649162 2.00871 0
M  V30 8273 O 768.139 -1.59653 1.63472 0
M  V30 8274 C 768.349 1.67448 3.06206 0
M  V30 8275 C 769.697 1.8866 3.80385 0
M  V30 8276 O 770.721 1.64303 3.16043 0
M  V30 8277 O 769.58 2.29518 4.95968 0
M  V30 8278 H 766.674 0.314737 0.764767 0
M  V30 8279 H 769.22 1.26865 1.12709 0
M  V30 8280 H 767.992 2.69411 2.83784 0
M  V30 8281 H 767.615 1.25608 3.77238 0
M  V30 8282 N 768.612 -1.24939 0.960631 0
M  V30 8283 C 769.858 -1.93425 0.629155 0
M  V30 8284 C 770.213 -1.73784 -0.825635 0
M  V30 8285 O 769.506 -1.07595 -1.58536 0
M  V30 8286 C 769.7 -3.45066 0.930809 0
M  V30 8287 C 769.529 -3.79455 2.41337 0
M  V30 8288 C 768.299 -4.01195 3.07197 0
M  V30 8289 C 770.497 -3.86492 3.39306 0
M  V30 8290 N 768.479 -4.22626 4.45265 0
M  V30 8291 C 769.85 -4.12682 4.62702 0
M  V30 8292 C 771.905 -3.69198 3.34061 0
M  V30 8293 C 770.608 -4.23376 5.81502 0
M  V30 8294 C 772.634 -3.81135 4.52206 0
M  V30 8295 C 771.996 -4.07743 5.74391 0
M  V30 8296 H 768.095 -0.729791 0.280943 0
M  V30 8297 H 770.679 -1.50597 1.23404 0
M  V30 8298 H 768.85 -3.86776 0.354801 0
M  V30 8299 H 770.582 -4.00826 0.558627 0
M  V30 8300 H 767.337 -3.97319 2.5775 0
M  V30 8301 H 767.761 -4.37335 5.16785 0
M  V30 8302 H 772.403 -3.47639 2.40638 0
M  V30 8303 H 770.121 -4.4375 6.75361 0
M  V30 8304 H 773.707 -3.69133 4.49702 0
M  V30 8305 H 772.587 -4.16768 6.64284 0
M  V30 8306 N 770.09 -0.729906 -1.39679 0
M  V30 8307 C 771.336 -0.284905 -2.01395 0
M  V30 8308 C 771.691 1.11394 -1.56873 0
M  V30 8309 O 770.984 1.74765 -0.785342 0
M  V30 8310 C 771.178 -0.319564 -3.55968 0
M  V30 8311 C 771.007 -1.72024 -4.15497 0
M  V30 8312 C 769.777 -2.33128 -4.48307 0
M  V30 8313 C 771.975 -2.67296 -4.39383 0
M  V30 8314 N 769.957 -3.65403 -4.93309 0
M  V30 8315 C 771.328 -3.84298 -4.86534 0
M  V30 8316 C 773.383 -2.65124 -4.21442 0
M  V30 8317 C 772.086 -4.99455 -5.17627 0
M  V30 8318 C 774.112 -3.7942 -4.53646 0
M  V30 8319 C 773.474 -4.95156 -5.00999 0
M  V30 8320 H 769.573 -0.1504 -0.767401 0
M  V30 8321 H 772.157 -0.954783 -1.69682 0
M  V30 8322 H 770.328 0.319938 -3.8708 0
M  V30 8323 H 772.06 0.143504 -4.04445 0
M  V30 8324 H 768.815 -1.85097 -4.35931 0
M  V30 8325 H 769.239 -4.33298 -5.20175 0
M  V30 8326 H 773.881 -1.76842 -3.8404 0
M  V30 8327 H 771.599 -5.88371 -5.53937 0
M  V30 8328 H 775.185 -3.79031 -4.41392 0
M  V30 8329 H 774.065 -5.82131 -5.25446 0
M  V30 8330 N 771.568 1.50203 -0.477153 0
M  V30 8331 C 772.531 2.27194 0.302599 0
M  V30 8332 C 773.531 1.32221 0.915112 0
M  V30 8333 O 774.721 1.55593 0.783348 0
M  V30 8334 C 771.853 3.0938 1.43167 0
M  V30 8335 H 773.046 2.97575 -0.372678 0
M  V30 8336 H 770.599 1.54578 -0.231392 0
M  V30 8337 H 771.334 2.43509 2.14182 0
M  V30 8338 H 771.119 3.79181 0.998197 0
M  V30 8339 H 772.609 3.67592 1.98157 0
M  V30 8340 N 773.046 0.209999 1.56195 0
M  V30 8341 C 774.276 -0.429373 2.02089 0
M  V30 8342 C 774.684 -1.54703 1.0892 0
M  V30 8343 O 774.027 -1.83485 0.0889535 0
M  V30 8344 C 774.089 -1.03266 3.44349 0
M  V30 8345 C 773.753 -0.0518873 4.56971 0
M  V30 8346 C 774.75 0.744249 5.14545 0
M  V30 8347 C 772.435 0.0635185 5.0226 0
M  V30 8348 C 774.429 1.64261 6.15871 0
M  V30 8349 C 772.116 0.965423 6.03426 0
M  V30 8350 C 773.114 1.75352 6.60106 0
M  V30 8351 O 772.802 2.64029 7.59305 0
M  V30 8352 H 772.534 -0.110604 0.66689 0
M  V30 8353 H 775.088 0.320436 2.02885 0
M  V30 8354 H 773.318 -1.83134 3.40586 0
M  V30 8355 H 775.007 -1.57823 3.73961 0
M  V30 8356 H 775.773 0.665476 4.80413 0
M  V30 8357 H 771.652 -0.539762 4.57829 0
M  V30 8358 H 775.196 2.25819 6.60039 0
M  V30 8359 H 771.093 1.04526 6.36981 0
M  V30 8360 H 771.861 2.57974 7.76783 0
M  V30 8361 N 774.524 -1.57472 -0.0634922 0
M  V30 8362 C 775.772 -1.87283 -0.759563 0
M  V30 8363 C 776.093 -0.803135 -1.77693 0
M  V30 8364 O 775.363 0.167293 -1.95184 0
M  V30 8365 H 773.943 -0.691106 -0.283516 0
M  V30 8366 H 776.605 -1.94864 -0.0376091 0
M  V30 8367 H 775.701 -2.85064 -1.27062 0
M  V30 8368 N 776.003 0.335068 -1.53997 0
M  V30 8369 C 777.249 1.07594 -1.71905 0
M  V30 8370 C 777.582 1.88039 -0.485264 0
M  V30 8371 O 776.857 1.87482 0.517752 0
M  V30 8372 C 777.14 2.01016 -2.98772 0
M  V30 8373 C 776.993 1.23977 -4.32377 0
M  V30 8374 C 778.312 3.0071 -3.21343 0
M  V30 8375 H 775.431 0.38976 -0.625505 0
M  V30 8376 H 778.073 0.353684 -1.86679 0
M  V30 8377 H 776.223 2.62603 -2.86307 0
M  V30 8378 H 777.895 0.649383 -4.56706 0
M  V30 8379 H 776.138 0.541878 -4.30402 0
M  V30 8380 H 776.809 1.92512 -5.17342 0
M  V30 8381 H 779.285 2.4924 -3.33194 0
M  V30 8382 H 778.161 3.63272 -4.11491 0
M  V30 8383 H 778.422 3.72549 -2.38033 0
M  V30 8384 N 777.481 1.45874 0.596531 0
M  V30 8385 C 778.411 1.5824 1.71705 0
M  V30 8386 C 779.392 0.433366 1.64487 0
M  V30 8387 O 780.577 0.657895 1.82717 0
M  V30 8388 C 777.707 1.55927 3.10329 0
M  V30 8389 C 776.661 2.69659 3.32367 0
M  V30 8390 C 775.987 2.52403 4.71377 0
M  V30 8391 C 777.287 4.11591 3.21544 0
M  V30 8392 H 778.981 2.52035 1.61613 0
M  V30 8393 H 776.527 1.21297 0.776082 0
M  V30 8394 H 778.48 1.63173 3.88526 0
M  V30 8395 H 777.204 0.586674 3.21288 0
M  V30 8396 H 775.863 2.61859 2.56564 0
M  V30 8397 H 775.511 1.53258 4.79083 0
M  V30 8398 H 775.211 3.28679 4.87077 0
M  V30 8399 H 776.735 2.6152 5.5176 0
M  V30 8400 H 778.149 4.20576 3.89601 0
M  V30 8401 H 776.546 4.88344 3.4877 0
M  V30 8402 H 777.616 4.32719 2.1882 0
M  V30 8403 N 778.959 -0.83999 1.33349 0
M  V30 8404 C 779.889 -1.965 1.26135 0
M  V30 8405 C 780.87 -1.69505 0.142152 0
M  V30 8406 O 782.055 -1.91346 0.331743 0
M  V30 8407 C 779.185 -3.32632 0.99866 0
M  V30 8408 C 778.139 -3.74021 2.08068 0
M  V30 8409 C 777.465 -5.07947 1.67014 0
M  V30 8410 C 778.765 -3.87925 3.49731 0
M  V30 8411 H 780.459 -2.02793 2.20262 0
M  V30 8412 H 778.005 -0.974297 1.06035 0
M  V30 8413 H 779.958 -4.10903 0.934696 0
M  V30 8414 H 778.682 -3.26593 0.0217759 0
M  V30 8415 H 777.341 -2.98012 2.13505 0
M  V30 8416 H 776.989 -4.98378 0.680316 0
M  V30 8417 H 776.689 -5.36611 2.39422 0
M  V30 8418 H 778.213 -5.88695 1.62082 0
M  V30 8419 H 779.627 -4.5651 3.46802 0
M  V30 8420 H 778.024 -4.28023 4.20614 0
M  V30 8421 H 779.094 -2.90407 3.88319 0
M  V30 8422 N 780.437 -1.16799 -1.0581 0
M  V30 8423 C 781.667 -0.975454 -1.82122 0
M  V30 8424 C 782.075 0.479584 -1.83021 0
M  V30 8425 O 781.418 1.34471 -1.25153 0
M  V30 8426 C 781.48 -1.43209 -3.29744 0
M  V30 8427 C 781.144 -2.908 -3.5254 0
M  V30 8428 C 782.141 -3.88775 -3.45181 0
M  V30 8429 C 779.826 -3.28832 -3.79703 0
M  V30 8430 C 781.82 -5.22782 -3.64661 0
M  V30 8431 C 779.507 -4.63007 -3.98832 0
M  V30 8432 C 780.505 -5.59791 -3.91309 0
M  V30 8433 O 780.193 -6.9154 -4.09911 0
M  V30 8434 H 779.925 -0.345655 -0.580947 0
M  V30 8435 H 782.479 -1.55355 -1.34365 0
M  V30 8436 H 780.709 -0.797504 -3.78387 0
M  V30 8437 H 782.398 -1.2062 -3.87564 0
M  V30 8438 H 783.164 -3.60738 -3.2418 0
M  V30 8439 H 779.043 -2.54073 -3.84666 0
M  V30 8440 H 782.587 -5.98312 -3.58705 0
M  V30 8441 H 778.484 -4.90752 -4.19324 0
M  V30 8442 H 779.252 -6.98188 -4.27172 0
M  V30 8443 N 781.915 1.24427 -0.967243 0
M  V30 8444 C 782.825 2.29109 -0.504592 0
M  V30 8445 C 783.841 1.68495 0.434224 0
M  V30 8446 O 785.017 1.99041 0.307379 0
M  V30 8447 C 782.082 3.46133 0.198273 0
M  V30 8448 C 781.143 4.22149 -0.780313 0
M  V30 8449 C 780.376 5.33585 -0.110896 0
M  V30 8450 O 780.599 5.59676 1.10088 0
M  V30 8451 O 779.533 5.96522 -0.802823 0
M  V30 8452 H 783.359 2.708 -1.37482 0
M  V30 8453 H 780.944 1.30111 -0.73426 0
M  V30 8454 H 782.826 4.17205 0.593124 0
M  V30 8455 H 781.501 3.0642 1.04347 0
M  V30 8456 H 780.408 3.53454 -1.22561 0
M  V30 8457 H 781.741 4.65677 -1.59392 0
M  V30 8458 N 783.393 0.737304 1.3929 0
M  V30 8459 C 784.326 0.0475454 2.2815 0
M  V30 8460 C 785.304 -0.745314 1.44512 0
M  V30 8461 O 786.488 -0.727387 1.739 0
M  V30 8462 C 783.615 -0.939803 3.254 0
M  V30 8463 C 782.661 -0.235153 4.25851 0
M  V30 8464 S 783.494 1.05252 5.25055 0
M  V30 8465 C 784.65 0.0678242 6.25863 0
M  V30 8466 H 784.883 0.801117 2.86303 0
M  V30 8467 H 782.416 0.529197 1.45048 0
M  V30 8468 H 784.374 -1.50417 3.81949 0
M  V30 8469 H 783.035 -1.66623 2.66262 0
M  V30 8470 H 782.228 -0.982336 4.94334 0
M  V30 8471 H 781.83 0.257245 3.73114 0
M  V30 8472 H 784.122 -0.771779 6.7309 0
M  V30 8473 H 785.065 0.719858 7.04431 0
M  V30 8474 H 785.473 -0.305604 5.63672 0
M  V30 8475 N 784.871 -1.49948 0.485112 0
M  V30 8476 C 785.801 -2.31675 -0.291364 0
M  V30 8477 C 786.782 -1.39216 -0.977383 0
M  V30 8478 O 787.967 -1.68133 -0.971855 0
M  V30 8479 C 785.097 -3.19326 -1.36558 0
M  V30 8480 C 784.051 -4.2045 -0.800359 0
M  V30 8481 C 783.377 -4.96931 -1.97391 0
M  V30 8482 C 784.677 -5.21925 0.197867 0
M  V30 8483 H 786.371 -2.96839 0.390775 0
M  V30 8484 H 783.917 -1.42749 0.189375 0
M  V30 8485 H 785.87 -3.75304 -1.91638 0
M  V30 8486 H 784.594 -2.52074 -2.07668 0
M  V30 8487 H 783.253 -3.65594 -0.271428 0
M  V30 8488 H 782.901 -4.26141 -2.67232 0
M  V30 8489 H 782.601 -5.65344 -1.60187 0
M  V30 8490 H 784.125 -5.55749 -2.52935 0
M  V30 8491 H 785.539 -5.72691 -0.264239 0
M  V30 8492 H 783.936 -5.98138 0.484908 0
M  V30 8493 H 785.006 -4.71809 1.11912 0
M  V30 8494 N 786.349 -0.21828 -1.56081 0
M  V30 8495 C 787.312 0.679633 -2.18892 0
M  V30 8496 C 788.312 1.12405 -1.14986 0
M  V30 8497 O 789.502 1.03339 -1.40238 0
M  V30 8498 C 786.634 1.93063 -2.80962 0
M  V30 8499 H 787.827 0.132066 -2.99609 0
M  V30 8500 H 785.38 0.0313374 -1.56269 0
M  V30 8501 H 786.115 2.52015 -2.04106 0
M  V30 8502 H 785.9 1.62046 -3.57048 0
M  V30 8503 H 787.39 2.57043 -3.29118 0
M  V30 8504 N 787.827 1.57504 0.0551401 0
M  V30 8505 C 789.075 1.87684 0.74962 0
M  V30 8506 C 789.396 0.812547 1.77264 0
M  V30 8507 O 788.666 -0.15694 1.9527 0
M  V30 8508 H 787.246 0.6926 0.279846 0
M  V30 8509 H 789.908 1.94881 0.0272745 0
M  V30 8510 H 789.004 2.85734 1.25548 0
M  V30 8511 N 789.305 -0.326896 1.54172 0
M  V30 8512 C 790.237 -1.42319 1.79661 0
M  V30 8513 C 791.25 -1.47989 0.678456 0
M  V30 8514 O 792.439 -1.50773 0.955503 0
M  V30 8515 C 789.539 -2.80876 1.89636 0
M  V30 8516 C 788.712 -2.98449 3.19761 0
M  V30 8517 C 787.771 -4.17347 3.2048 0
M  V30 8518 O 786.797 -4.10667 3.94134 0
M  V30 8519 N 787.999 -5.26717 2.44027 0
M  V30 8520 H 790.764 -1.20819 2.74268 0
M  V30 8521 H 788.325 -0.516866 1.53428 0
M  V30 8522 H 790.317 -3.58619 1.87549 0
M  V30 8523 H 788.887 -2.95442 1.02141 0
M  V30 8524 H 788.107 -2.08035 3.34836 0
M  V30 8525 H 789.395 -3.07083 4.05681 0
M  V30 8526 H 788.793 -5.35019 1.8377 0
M  V30 8527 H 787.35 -6.02891 2.47721 0
M  V30 8528 N 790.784 -1.46188 -0.588786 0
M  V30 8529 C 792.195 -1.45421 -1.17088 0
M  V30 8530 C 792.546 -0.191801 -1.9526 0
M  V30 8531 O 791.671 0.705497 -2.04577 0
M  V30 8532 C 792.266 -2.63467 -2.13004 0
M  V30 8533 C 790.825 -2.6576 -2.6655 0
M  V30 8534 C 789.972 -2.38002 -1.42304 0
M  V30 8535 H 792.923 -1.54156 -0.377052 0
M  V30 8536 H 792.944 -2.38638 -2.96365 0
M  V30 8537 H 792.456 -3.55331 -1.56081 0
M  V30 8538 H 790.557 -1.77952 -3.27359 0
M  V30 8539 H 790.67 -3.65545 -3.09699 0
M  V30 8540 H 789.034 -1.87936 -1.71907 0
M  V30 8541 H 789.817 -3.32035 -0.872209 0
M  V30 8542 N 792.262 0.832906 -1.33792 0
M  V30 8543 C 793.673 1.40489 -1.22963 0
M  V30 8544 C 794.024 1.95633 0.149026 0
M  V30 8545 O 793.149 1.8928 1.04891 0
M  V30 8546 C 793.744 2.55387 -2.22627 0
M  V30 8547 C 792.303 3.08522 -2.15618 0
M  V30 8548 C 791.45 1.81347 -2.09782 0
M  V30 8549 H 794.401 0.638156 -1.45304 0
M  V30 8550 H 794.422 3.33193 -1.83746 0
M  V30 8551 H 793.934 2.15222 -3.22957 0
M  V30 8552 H 792.035 3.53217 -1.18611 0
M  V30 8553 H 792.148 3.6829 -3.0643 0
M  V30 8554 H 790.512 2.01839 -1.55349 0
M  V30 8555 H 791.295 1.43369 -3.1193 0
M  V30 8556 N 793.74 1.17359 1.05189 0
M  V30 8557 C 794.987 0.961987 1.78191 0
M  V30 8558 C 795.315 -0.509363 1.87712 0
M  V30 8559 O 794.57 -1.39425 1.37329 0
M  V30 8560 C 794.869 1.54821 3.22126 0
M  V30 8561 C 794.535 3.04378 3.32663 0
M  V30 8562 C 793.197 3.45201 3.35246 0
M  V30 8563 C 795.549 4.00387 3.33677 0
M  V30 8564 C 792.877 4.80629 3.36471 0
M  V30 8565 C 795.229 5.35715 3.36441 0
M  V30 8566 C 793.893 5.76002 3.37311 0
M  V30 8567 H 793.163 0.352016 0.652047 0
M  V30 8568 H 795.81 1.46249 1.23627 0
M  V30 8569 H 794.115 0.969432 3.79617 0
M  V30 8570 H 795.812 1.36004 3.77232 0
M  V30 8571 H 792.402 2.71836 3.31366 0
M  V30 8572 H 796.586 3.69906 3.30882 0
M  V30 8573 H 791.842 5.11155 3.35455 0
M  V30 8574 H 796.016 6.09886 3.36173 0
M  V30 8575 H 793.643 6.80919 3.38013 0
M  V30 8576 N 795.218 -1.23913 0.973828 0
M  V30 8577 C 796.495 -1.87539 0.555729 0
M  V30 8578 C 796.875 -1.87641 -0.967162 0
M  V30 8579 O 796.223 -1.35335 -1.84111 0
M  V30 8580 C 796.433 -3.29359 1.15427 0
M  V30 8581 C 797.781 -4.06 1.24294 0
M  V30 8582 O 798.805 -3.38554 1.10723 0
M  V30 8583 O 797.664 -5.26689 1.45813 0
M  V30 8584 H 794.758 -0.805769 0.186188 0
M  V30 8585 H 797.304 -1.31838 1.06849 0
M  V30 8586 H 796.076 -3.23817 2.19678 0
M  V30 8587 H 795.699 -3.92642 0.625925 0
M  V30 8588 N 796.696 -0.74468 -1.38897 0
M  V30 8589 C 797.944 -0.296298 -1.99916 0
M  V30 8590 C 798.265 1.12325 -1.59399 0
M  V30 8591 O 797.535 1.76658 -0.846689 0
M  V30 8592 H 796.115 -0.106561 -0.73936 0
M  V30 8593 H 798.777 -0.956793 -1.69798 0
M  V30 8594 H 797.873 -0.352356 -3.10105 0
M  V30 8595 N 798.174 1.49689 -0.493057 0
M  V30 8596 C 799.084 2.32746 0.294358 0
M  V30 8597 C 800.1 1.44117 0.975003 0
M  V30 8598 O 801.276 1.77149 0.958138 0
M  V30 8599 C 798.341 3.19358 1.34949 0
M  V30 8600 C 797.402 4.2383 0.683122 0
M  V30 8601 C 796.635 5.06303 1.68798 0
M  V30 8602 O 796.858 4.90172 2.91698 0
M  V30 8603 O 795.792 5.88826 1.24768 0
M  V30 8604 H 799.618 3.01247 -0.385254 0
M  V30 8605 H 797.203 1.47216 -0.254519 0
M  V30 8606 H 799.085 3.73037 1.96014 0
M  V30 8607 H 797.76 2.53561 2.01217 0
M  V30 8608 H 796.667 3.74086 0.0329351 0
M  V30 8609 H 798 4.9216 0.0630192 0
M  V30 8610 N 799.652 0.226554 1.55963 0
M  V30 8611 C 800.929 -0.453058 1.90281 0
M  V30 8612 C 801.309 -1.77377 1.14458 0
M  V30 8613 O 800.657 -2.27067 0.255496 0
M  V30 8614 C 800.867 -0.641108 3.43061 0
M  V30 8615 C 802.215 -0.946265 4.13921 0
M  V30 8616 O 803.239 -0.727713 3.48687 0
M  V30 8617 O 802.098 -1.36131 5.29274 0
M  V30 8618 H 799.192 -0.240242 0.791336 0
M  V30 8619 H 801.738 0.26911 1.67553 0
M  V30 8620 H 800.51 0.290283 3.90222 0
M  V30 8621 H 800.133 -1.41458 3.71585 0
M  V30 8622 N 801.13 -1.57531 -0.0467866 0
M  V30 8623 C 802.04 -2.08768 -1.07018 0
M  V30 8624 C 803.056 -1.02245 -1.40791 0
M  V30 8625 O 804.232 -1.33873 -1.50466 0
M  V30 8626 C 801.297 -2.54221 -2.35738 0
M  V30 8627 C 800.358 -3.75152 -2.08709 0
M  V30 8628 C 799.591 -4.18428 -3.31291 0
M  V30 8629 O 799.814 -3.61365 -4.4133 0
M  V30 8630 O 798.748 -5.11018 -3.18032 0
M  V30 8631 H 802.574 -2.96334 -0.664812 0
M  V30 8632 H 800.159 -1.47074 -0.262605 0
M  V30 8633 H 802.041 -2.83866 -3.11445 0
M  V30 8634 H 800.716 -1.69774 -2.75605 0
M  V30 8635 H 799.623 -3.50553 -1.30627 0
M  V30 8636 H 800.956 -4.60528 -1.73708 0
M  V30 8637 N 802.608 0.318715 -1.54344 0
M  V30 8638 C 803.885 1.07461 -1.63437 0
M  V30 8639 C 804.265 2.05771 -0.47131 0
M  V30 8640 O 803.613 2.22175 0.53391 0
M  V30 8641 C 803.823 1.77224 -3.00654 0
M  V30 8642 C 805.171 2.30069 -3.56866 0
M  V30 8643 O 806.195 1.87284 -3.0299 0
M  V30 8644 O 805.054 3.08412 -4.51159 0
M  V30 8645 H 802.148 0.495627 -0.66203 0
M  V30 8646 H 804.694 0.318218 -1.6669 0
M  V30 8647 H 803.466 1.05742 -3.76742 0
M  V30 8648 H 803.089 2.59662 -3.01101 0
M  V30 8649 N 804.086 1.46499 0.581025 0
M  V30 8650 C 804.996 1.59778 1.71779 0
M  V30 8651 C 806.012 0.481223 1.67213 0
M  V30 8652 O 807.188 0.74557 1.87091 0
M  V30 8653 C 804.253 1.58626 3.08283 0
M  V30 8654 C 803.314 2.81527 3.241 0
M  V30 8655 C 802.547 2.80421 4.54092 0
M  V30 8656 O 802.77 1.89262 5.38085 0
M  V30 8657 O 801.704 3.71984 4.73193 0
M  V30 8658 H 805.53 2.55918 1.63523 0
M  V30 8659 H 803.115 1.29311 0.748267 0
M  V30 8660 H 804.997 1.60686 3.89561 0
M  V30 8661 H 803.672 0.656467 3.16973 0
M  V30 8662 H 802.579 2.85021 2.42309 0
M  V30 8663 H 803.912 3.73721 3.20302 0
M  V30 8664 N 805.565 -0.825799 1.34232 0
M  V30 8665 C 806.495 -1.95151 1.28212 0
M  V30 8666 C 807.476 -1.69345 0.160123 0
M  V30 8667 O 808.661 -1.90983 0.352019 0
M  V30 8668 C 805.791 -3.31554 1.03388 0
M  V30 8669 C 804.745 -3.71793 2.12023 0
M  V30 8670 C 804.071 -5.06147 1.72392 0
M  V30 8671 C 805.371 -3.84193 3.53826 0
M  V30 8672 H 807.065 -2.00445 2.22401 0
M  V30 8673 H 804.611 -0.962996 1.07063 0
M  V30 8674 H 806.564 -4.09889 0.978225 0
M  V30 8675 H 805.288 -3.26551 0.0564142 0
M  V30 8676 H 803.947 -2.95731 2.16654 0
M  V30 8677 H 803.595 -4.97628 0.733137 0
M  V30 8678 H 803.295 -5.34041 2.451 0
M  V30 8679 H 804.819 -5.86943 1.68317 0
M  V30 8680 H 806.233 -4.52806 3.51624 0
M  V30 8681 H 804.63 -4.23538 4.2513 0
M  V30 8682 H 805.7 -2.86272 3.91377 0
M  V30 8683 N 807.043 -1.17915 -1.04565 0
M  V30 8684 C 808.29 -0.971424 -1.77678 0
M  V30 8685 C 808.618 0.499401 -1.87979 0
M  V30 8686 O 807.873 1.38695 -1.38066 0
M  V30 8687 C 808.172 -1.56528 -3.213 0
M  V30 8688 C 807.838 -3.06138 -3.31044 0
M  V30 8689 C 806.5 -3.46974 -3.33411 0
M  V30 8690 C 808.852 -4.02151 -3.31548 0
M  V30 8691 C 806.18 -4.82406 -3.33918 0
M  V30 8692 C 808.532 -5.37492 -3.33595 0
M  V30 8693 C 807.196 -5.77782 -3.34251 0
M  V30 8694 H 806.466 -0.355469 -0.650171 0
M  V30 8695 H 809.113 -1.46902 -1.22849 0
M  V30 8696 H 807.418 -0.98955 -3.79098 0
M  V30 8697 H 809.115 -1.38003 -3.76505 0
M  V30 8698 H 805.705 -2.73589 -3.29919 0
M  V30 8699 H 809.889 -3.71656 -3.28916 0
M  V30 8700 H 805.145 -5.12927 -3.3274 0
M  V30 8701 H 809.319 -6.1166 -3.32934 0
M  V30 8702 H 806.946 -6.82702 -3.34397 0
M  V30 8703 N 808.521 1.23394 -0.980386 0
M  V30 8704 C 809.453 2.24146 -0.478657 0
M  V30 8705 C 810.466 1.57303 0.419492 0
M  V30 8706 O 811.655 1.77094 0.223631 0
M  V30 8707 C 808.755 3.3732 0.326913 0
M  V30 8708 C 807.928 4.33744 -0.56436 0
M  V30 8709 C 806.987 5.25866 0.187358 0
M  V30 8710 O 806.013 5.67626 -0.423019 0
M  V30 8711 N 807.215 5.61492 1.47335 0
M  V30 8712 H 809.98 2.67826 -1.34496 0
M  V30 8713 H 807.541 1.37566 -0.853653 0
M  V30 8714 H 809.533 3.95926 0.838148 0
M  V30 8715 H 808.103 2.92823 1.09422 0
M  V30 8716 H 807.323 3.73641 -1.25642 0
M  V30 8717 H 808.611 4.95123 -1.17177 0
M  V30 8718 H 808.009 5.29514 1.99077 0
M  V30 8719 H 806.566 6.2257 1.93002 0
M  V30 8720 N 809.999 0.752036 1.385 0
M  V30 8721 C 811.224 0.316993 2.04963 0
M  V30 8722 C 811.649 -1.04582 1.56346 0
M  V30 8723 O 811.007 -1.66616 0.714755 0
M  V30 8724 C 811.055 0.347235 3.58924 0
M  V30 8725 O 810.159 -0.659296 4.07096 0
M  V30 8726 H 809.5 0.140652 0.648932 0
M  V30 8727 H 812.03 1.02272 1.77205 0
M  V30 8728 H 812.04 0.19757 4.07521 0
M  V30 8729 H 810.715 1.34157 3.93668 0
M  V30 8730 H 809.292 -0.474371 3.6987 0
M  V30 8731 N 811.477 -1.49425 0.500989 0
M  V30 8732 C 812.726 -2.01649 -0.04538 0
M  V30 8733 C 813.039 -1.38572 -1.38047 0
M  V30 8734 O 814.245 -1.82124 -2.01353 0
M  V30 8735 C 812.701 -3.5966 -0.131337 0
M  V30 8736 C 812.309 -4.3171 1.19711 0
M  V30 8737 C 814.053 -4.19828 -0.628071 0
M  V30 8738 C 811.96 -5.81579 1.07332 0
M  V30 8739 H 810.89 -0.753715 -0.0207329 0
M  V30 8740 H 813.541 -1.71962 0.640407 0
M  V30 8741 H 811.923 -3.86063 -0.881574 0
M  V30 8742 H 813.097 -4.17008 1.96064 0
M  V30 8743 H 811.412 -3.83286 1.62729 0
M  V30 8744 H 814.009 -5.2958 -0.738198 0
M  V30 8745 H 814.352 -3.83194 -1.6269 0
M  V30 8746 H 814.885 -3.97746 0.0656314 0
M  V30 8747 H 811.624 -6.22738 2.04642 0
M  V30 8748 H 811.144 -5.98774 0.350679 0
M  V30 8749 H 812.823 -6.42614 0.752047 0
M  V30 8750 N 812.955 -0.234822 -1.55841 0
M  V30 8751 C 813.888 0.710134 -2.16869 0
M  V30 8752 C 814.866 1.18155 -1.11706 0
M  V30 8753 O 816.05 1.26188 -1.40032 0
M  V30 8754 C 813.177 1.96368 -2.75966 0
M  V30 8755 C 812.223 1.63114 -3.94076 0
M  V30 8756 S 813.056 0.744307 -5.30302 0
M  V30 8757 C 814.212 2.00712 -5.92845 0
M  V30 8758 H 814.445 0.19146 -2.96683 0
M  V30 8759 H 811.978 -0.0193854 -1.54388 0
M  V30 8760 H 813.936 2.68338 -3.10653 0
M  V30 8761 H 812.597 2.45347 -1.96121 0
M  V30 8762 H 811.79 2.56285 -4.33975 0
M  V30 8763 H 811.392 0.991967 -3.60605 0
M  V30 8764 H 813.684 2.9557 -6.09627 0
M  V30 8765 H 814.627 1.65182 -6.88564 0
M  V30 8766 H 815.035 2.1537 -5.21801 0
M  V30 8767 N 814.433 1.57553 0.0384317 0
M  V30 8768 C 815.343 2.09333 1.0591 0
M  V30 8769 C 816.359 1.0299 1.40247 0
M  V30 8770 O 817.535 1.34669 1.49754 0
M  V30 8771 C 814.6 2.55468 2.34386 0
M  V30 8772 C 813.661 3.76254 2.06716 0
M  V30 8773 C 812.894 4.20179 3.29067 0
M  V30 8774 O 813.117 3.637 4.39407 0
M  V30 8775 O 812.051 5.12697 3.15317 0
M  V30 8776 H 815.877 2.96683 0.649087 0
M  V30 8777 H 813.462 1.47211 0.254802 0
M  V30 8778 H 815.344 2.85514 3.09935 0
M  V30 8779 H 814.019 1.71234 2.74701 0
M  V30 8780 H 812.926 3.51241 1.28766 0
M  V30 8781 H 814.259 4.61443 1.71263 0
M  V30 8782 N 815.911 -0.310526 1.54511 0
M  V30 8783 C 816.861 -1.38405 1.81185 0
M  V30 8784 C 817.845 -1.46355 0.668499 0
M  V30 8785 O 819.037 -1.50668 0.928873 0
M  V30 8786 C 816.166 -2.75059 2.0542 0
M  V30 8787 C 815.252 -2.7137 3.25913 0
M  V30 8788 N 815.643 -2.37298 4.4668 0
M  V30 8789 C 813.941 -3.02484 3.27749 0
M  V30 8790 C 814.642 -2.42669 5.28665 0
M  V30 8791 N 813.618 -2.79639 4.66158 0
M  V30 8792 H 817.42 -1.11012 2.72128 0
M  V30 8793 H 814.934 -0.519068 1.53881 0
M  V30 8794 H 816.931 -3.52451 2.22674 0
M  V30 8795 H 815.591 -3.03372 1.15739 0
M  V30 8796 H 816.602 -2.09917 4.73451 0
M  V30 8797 H 813.279 -3.35754 2.48144 0
M  V30 8798 H 814.669 -2.19206 6.35136 0
M  V30 8799 N 817.389 -1.46805 -0.573248 0
M  V30 8800 C 818.337 -1.58468 -1.70267 0
M  V30 8801 C 819.331 -0.452694 -1.63239 0
M  V30 8802 O 820.537 -0.629915 -1.68618 0
M  V30 8803 H 816.912 -0.498408 -0.56311 0
M  V30 8804 H 818.883 -2.5341 -1.57563 0
M  V30 8805 C 817.632 -1.60104 -3.08645 0
M  V30 8806 H 816.955 -2.4655 -3.14727 0
M  V30 8807 H 818.395 -1.72318 -3.87405 0
M  V30 8808 C 816.854 -0.33138 -3.35266 0
M  V30 8809 O 817.384 0.57438 -3.97572 0
M  V30 8810 N 815.59 -0.216358 -2.89793 0
M  V30 8811 H 815.137 -0.954345 -2.3927 0
M  V30 8812 H 815.095 0.632253 -3.07977 0
M  V30 8813 N 818.867 0.818669 -1.34668 0
M  V30 8814 C 820.113 1.57746 -1.27453 0
M  V30 8815 C 820.446 1.93588 0.154077 0
M  V30 8816 O 819.721 1.60371 1.10051 0
M  V30 8817 C 820.004 2.87414 -2.16945 0
M  V30 8818 C 819.857 2.58125 -3.68363 0
M  V30 8819 C 821.176 3.89021 -2.05792 0
M  V30 8820 H 818.295 0.572339 -0.464324 0
M  V30 8821 H 820.937 0.942784 -1.64959 0
M  V30 8822 H 819.087 3.41576 -1.85089 0
M  V30 8823 H 820.759 2.10239 -4.10606 0
M  V30 8824 H 819.002 1.91503 -3.89242 0
M  V30 8825 H 819.673 3.5061 -4.26353 0
M  V30 8826 H 822.149 3.44224 -2.33771 0
M  V30 8827 H 821.025 4.77548 -2.70628 0
M  V30 8828 H 821.286 4.29786 -1.03618 0
M  V30 8829 N 820.346 1.18468 1.03938 0
M  V30 8830 C 821.571 1.00638 1.81347 0
M  V30 8831 C 821.996 -0.440477 1.8287 0
M  V30 8832 O 821.354 -1.31609 1.24695 0
M  V30 8833 C 821.402 1.5673 3.24759 0
M  V30 8834 O 820.506 0.789517 4.04772 0
M  V30 8835 H 819.847 0.356432 0.560225 0
M  V30 8836 H 822.377 1.57253 1.30891 0
M  V30 8837 H 822.387 1.59496 3.75533 0
M  V30 8838 H 821.062 2.62043 3.22965 0
M  V30 8839 H 819.639 0.834267 3.63448 0
M  V30 8840 N 821.824 -1.22873 0.986916 0
M  V30 8841 C 823.054 -1.95204 0.67668 0
M  V30 8842 C 823.462 -1.73193 -0.761641 0
M  V30 8843 O 822.805 -1.0243 -1.52492 0
M  V30 8844 C 822.867 -3.48173 0.895302 0
M  V30 8845 C 822.531 -3.93912 2.31695 0
M  V30 8846 C 823.528 -4.02064 3.29607 0
M  V30 8847 C 821.213 -4.26722 2.64978 0
M  V30 8848 C 823.207 -4.42391 4.58878 0
M  V30 8849 C 820.894 -4.66729 3.94471 0
M  V30 8850 C 821.892 -4.74531 4.91232 0
M  V30 8851 O 821.58 -5.13636 6.18412 0
M  V30 8852 H 821.312 -0.628105 0.24992 0
M  V30 8853 H 823.866 -1.5714 1.32274 0
M  V30 8854 H 822.096 -3.86223 0.192072 0
M  V30 8855 H 823.785 -4.01717 0.581233 0
M  V30 8856 H 824.551 -3.76912 3.05225 0
M  V30 8857 H 820.43 -4.19858 1.9037 0
M  V30 8858 H 823.974 -4.48395 5.34404 0
M  V30 8859 H 819.871 -4.91332 4.18645 0
M  V30 8860 H 820.639 -5.31728 6.2226 0
M  V30 8861 N 823.302 -0.75937 -1.38099 0
M  V30 8862 C 824.713 -0.385078 -1.82686 0
M  V30 8863 C 825.064 1.0871 -1.6333 0
M  V30 8864 O 824.189 1.84084 -1.13762 0
M  V30 8865 C 824.784 -0.692161 -3.31654 0
M  V30 8866 C 823.343 -0.371077 -3.74566 0
M  V30 8867 C 822.49 -0.942375 -2.60796 0
M  V30 8868 H 825.441 -0.955048 -1.26746 0
M  V30 8869 H 825.462 0.0276001 -3.8049 0
M  V30 8870 H 824.974 -1.76369 -3.4571 0
M  V30 8871 H 823.075 0.693637 -3.66087 0
M  V30 8872 H 823.188 -0.870672 -4.71122 0
M  V30 8873 H 821.552 -0.367383 -2.52036 0
M  V30 8874 H 822.335 -2.01905 -2.77649 0
M  V30 8875 N 824.78 1.49157 -0.508906 0
M  V30 8876 C 825.727 2.2927 0.265288 0
M  V30 8877 C 826.697 1.3603 0.953162 0
M  V30 8878 O 827.882 1.64989 0.958291 0
M  V30 8879 C 825.022 3.18897 1.31904 0
M  V30 8880 C 824.135 4.27201 0.642144 0
M  V30 8881 C 823.27 5.04033 1.67701 0
M  V30 8882 C 822.309 6.04165 0.982422 0
M  V30 8883 N 821.446 6.74133 1.96186 0
M  V30 8884 H 826.286 2.94967 -0.424107 0
M  V30 8885 H 823.823 1.45431 -0.220991 0
M  V30 8886 H 825.781 3.69242 1.94206 0
M  V30 8887 H 824.411 2.55168 1.97709 0
M  V30 8888 H 823.463 3.80283 -0.0943395 0
M  V30 8889 H 824.775 4.98708 0.0957507 0
M  V30 8890 H 823.929 5.58287 2.37487 0
M  V30 8891 H 822.668 4.32317 2.25728 0
M  V30 8892 H 821.673 5.49135 0.270378 0
M  V30 8893 H 822.898 6.7787 0.408554 0
M  V30 8894 H 820.844 6.05183 2.53159 0
M  V30 8895 H 820.761 7.41643 1.46634 0
M  V30 8896 H 822.029 7.32987 2.65236 0
M  V30 8897 N 826.258 0.243083 1.55714 0
M  V30 8898 C 827.483 -0.389944 2.03701 0
M  V30 8899 C 827.908 -1.51025 1.12129 0
M  V30 8900 O 827.266 -1.80944 0.11352 0
M  V30 8901 C 827.314 -0.878649 3.49731 0
M  V30 8902 O 826.418 -1.98851 3.61292 0
M  V30 8903 H 825.759 -0.0855115 0.658471 0
M  V30 8904 H 828.289 0.368023 2.01263 0
M  V30 8905 H 828.299 -1.18287 3.90477 0
M  V30 8906 H 826.974 -0.0588107 4.15858 0
M  V30 8907 H 825.551 -1.68928 3.32442 0
M  V30 8908 N 827.736 -1.57571 -0.0300757 0
M  V30 8909 C 828.666 -2.0953 -1.03051 0
M  V30 8910 C 829.647 -0.99761 -1.37774 0
M  V30 8911 O 830.832 -1.27279 -1.46676 0
M  V30 8912 C 827.962 -2.57385 -2.33174 0
M  V30 8913 C 826.916 -3.71409 -2.12696 0
M  V30 8914 C 826.242 -4.05467 -3.4857 0
M  V30 8915 C 827.542 -4.99877 -1.51396 0
M  V30 8916 H 829.236 -2.93367 -0.597999 0
M  V30 8917 H 826.782 -1.41127 -0.286203 0
M  V30 8918 H 828.735 -2.92355 -3.03491 0
M  V30 8919 H 827.459 -1.70629 -2.78484 0
M  V30 8920 H 826.118 -3.36786 -1.44813 0
M  V30 8921 H 825.766 -3.15779 -3.91526 0
M  V30 8922 H 825.466 -4.82269 -3.35694 0
M  V30 8923 H 826.99 -4.4297 -4.2025 0
M  V30 8924 H 828.404 -5.3281 -2.11629 0
M  V30 8925 H 826.801 -5.81283 -1.49098 0
M  V30 8926 H 827.871 -4.82522 -0.479676 0
M  V30 8927 N 829.214 0.302327 -1.54673 0
M  V30 8928 C 830.439 1.06103 -1.78205 0
M  V30 8929 C 830.864 1.80204 -0.53926 0
M  V30 8930 O 830.222 1.73975 0.510142 0
M  V30 8931 C 830.27 2.01829 -2.98827 0
M  V30 8932 O 829.374 3.10108 -2.71858 0
M  V30 8933 H 828.715 0.30487 -0.589873 0
M  V30 8934 H 831.245 0.340153 -2.01753 0
M  V30 8935 H 831.255 2.44319 -3.2676 0
M  V30 8936 H 829.93 1.473 -3.88942 0
M  V30 8937 H 828.507 2.72142 -2.54937 0
M  V30 8938 N 830.692 1.47107 0.565454 0
M  V30 8939 C 831.639 1.58974 1.6732 0
M  V30 8940 C 832.609 0.433146 1.60353 0
M  V30 8941 O 833.794 0.652141 1.79309 0
M  V30 8942 C 830.934 1.60224 3.05651 0
M  V30 8943 C 830.047 2.86741 3.23116 0
M  V30 8944 C 829.182 2.79381 4.51796 0
M  V30 8945 C 828.221 4.0076 4.62664 0
M  V30 8946 N 827.358 3.91685 5.8269 0
M  V30 8947 H 832.198 2.53588 1.56515 0
M  V30 8948 H 829.735 1.25791 0.762558 0
M  V30 8949 H 831.693 1.58933 3.85741 0
M  V30 8950 H 830.323 0.691285 3.15311 0
M  V30 8951 H 829.375 2.97936 2.36513 0
M  V30 8952 H 830.687 3.7665 3.27011 0
M  V30 8953 H 829.841 2.76293 5.40136 0
M  V30 8954 H 828.58 1.87142 4.50366 0
M  V30 8955 H 827.585 4.04162 3.72738 0
M  V30 8956 H 828.81 4.94117 4.6586 0
M  V30 8957 H 826.756 3.02243 5.82224 0
M  V30 8958 H 826.673 4.75264 5.87929 0
M  V30 8959 H 827.941 3.92599 6.73414 0
M  V30 8960 N 832.17 -0.811516 1.35101 0
M  V30 8961 C 833.08 -1.95475 1.29718 0
M  V30 8962 C 834.096 -1.72813 0.202909 0
M  V30 8963 O 835.272 -1.96725 0.431414 0
M  V30 8964 C 832.337 -3.29975 1.06385 0
M  V30 8965 C 831.398 -3.65566 2.25077 0
M  V30 8966 C 830.631 -4.93648 2.02848 0
M  V30 8967 O 830.854 -5.617 0.992442 0
M  V30 8968 O 829.788 -5.27384 2.90087 0
M  V30 8969 H 833.614 -2.02961 2.25921 0
M  V30 8970 H 831.199 -0.948583 1.15422 0
M  V30 8971 H 833.081 -4.10506 0.951999 0
M  V30 8972 H 831.756 -3.2343 0.132294 0
M  V30 8973 H 830.663 -2.85432 2.41825 0
M  V30 8974 H 831.996 -3.7681 3.16662 0
M  V30 8975 N 833.648 -1.19017 -1.03309 0
M  V30 8976 C 834.611 -0.926076 -2.09658 0
M  V30 8977 C 835.611 0.0917077 -1.60538 0
M  V30 8978 O 836.801 -0.142574 -1.73616 0
M  V30 8979 C 833.933 -0.390958 -3.38651 0
M  V30 8980 H 835.126 -1.86923 -2.3452 0
M  V30 8981 H 832.679 -1.00325 -1.19853 0
M  V30 8982 H 833.414 0.558446 -3.19456 0
M  V30 8983 H 833.199 -1.12474 -3.75622 0
M  V30 8984 H 834.689 -0.225131 -4.16993 0
M  V30 8985 N 835.127 1.22348 -0.993418 0
M  V30 8986 C 836.373 1.91393 -0.67056 0
M  V30 8987 C 836.706 1.77163 0.795428 0
M  V30 8988 O 835.981 1.14084 1.57528 0
M  V30 8989 C 836.264 3.43589 -1.0779 0
M  V30 8990 C 836.117 3.66867 -2.60248 0
M  V30 8991 C 837.436 4.35545 -0.631527 0
M  V30 8992 H 834.555 0.695057 -0.24508 0
M  V30 8993 H 837.197 1.44213 -1.23703 0
M  V30 8994 H 835.347 3.83903 -0.595902 0
M  V30 8995 H 837.019 3.35954 -3.16121 0
M  V30 8996 H 835.262 3.1113 -3.02293 0
M  V30 8997 H 835.933 4.73457 -2.838 0
M  V30 8998 H 838.409 4.0275 -1.04554 0
M  V30 8999 H 837.285 5.40707 -0.944831 0
M  V30 9000 H 837.546 4.39618 0.467779 0
M  V30 9001 N 836.605 0.766683 1.37694 0
M  V30 9002 C 837.83 0.338715 2.04615 0
M  V30 9003 C 838.255 -1.02918 1.57447 0
M  V30 9004 O 837.613 -1.65849 0.732386 0
M  V30 9005 C 837.661 0.385284 3.58536 0
M  V30 9006 O 836.765 -0.616081 4.07772 0
M  V30 9007 H 836.106 0.147527 0.647404 0
M  V30 9008 H 838.636 1.04146 1.7611 0
M  V30 9009 H 838.646 0.240782 4.07289 0
M  V30 9010 H 837.321 1.38325 3.92223 0
M  V30 9011 H 835.898 -0.435115 3.70353 0
M  V30 9012 N 838.083 -1.48885 0.516809 0
M  V30 9013 C 839.329 -2.02788 -0.0220928 0
M  V30 9014 C 839.662 -1.39433 -1.35175 0
M  V30 9015 O 838.937 -0.535459 -1.86984 0
M  V30 9016 C 839.22 -3.59753 -0.158012 0
M  V30 9017 C 839.073 -4.33611 1.19588 0
M  V30 9018 C 840.392 -4.30984 -0.891133 0
M  V30 9019 H 837.511 -0.736971 -0.00655488 0
M  V30 9020 H 840.153 -1.77746 0.671287 0
M  V30 9021 H 838.303 -3.8122 -0.748568 0
M  V30 9022 H 839.975 -4.23598 1.82653 0
M  V30 9023 H 838.218 -3.95547 1.78116 0
M  V30 9024 H 838.889 -5.41846 1.05391 0
M  V30 9025 H 841.365 -4.14267 -0.39012 0
M  V30 9026 H 840.241 -5.40527 -0.955107 0
M  V30 9027 H 840.502 -3.97336 -1.93847 0
M  V30 9028 N 839.561 -0.251338 -1.55583 0
M  V30 9029 C 840.801 0.373651 -2.00956 0
M  V30 9030 C 841.165 1.54806 -1.13574 0
M  V30 9031 O 842.366 2.24108 -1.48422 0
M  V30 9032 C 840.637 0.768919 -3.49031 0
M  V30 9033 S 842.196 1.38381 -4.16409 0
M  V30 9034 H 839.014 0.117371 -0.701245 0
M  V30 9035 H 841.616 -0.367611 -1.92013 0
M  V30 9036 H 840.32 -0.0950492 -4.1029 0
M  V30 9037 H 839.851 1.54225 -3.61909 0
M  V30 9038 H 841.866 2.6728 -4.18062 0
M  V30 9039 N 841.039 1.57585 0.0217189 0
M  V30 9040 C 841.986 2.07036 1.02004 0
M  V30 9041 C 842.956 0.96106 1.35473 0
M  V30 9042 O 844.141 1.23211 1.45684 0
M  V30 9043 C 841.281 2.56056 2.31364 0
M  V30 9044 C 840.394 3.80805 2.03989 0
M  V30 9045 C 839.529 4.18409 3.27272 0
M  V30 9046 C 838.568 5.36055 2.95486 0
M  V30 9047 N 837.705 5.69056 4.11242 0
M  V30 9048 H 842.545 2.92073 0.591396 0
M  V30 9049 H 840.082 1.44403 0.280384 0
M  V30 9050 H 842.04 2.82548 3.06957 0
M  V30 9051 H 840.67 1.73925 2.71937 0
M  V30 9052 H 839.722 3.61354 1.1886 0
M  V30 9053 H 841.034 4.66512 1.76546 0
M  V30 9054 H 840.188 4.46068 4.11228 0
M  V30 9055 H 838.927 3.31369 3.57835 0
M  V30 9056 H 837.932 5.08142 2.09933 0
M  V30 9057 H 839.157 6.24755 2.66193 0
M  V30 9058 H 837.103 4.84974 4.41742 0
M  V30 9059 H 837.02 6.49288 3.87247 0
M  V30 9060 H 838.288 6.01295 4.96049 0
M  V30 9061 N 842.517 -0.29412 1.54831 0
M  V30 9062 C 843.765 -1.02643 1.74094 0
M  V30 9063 C 844.086 -1.87563 0.533402 0
M  V30 9064 O 843.356 -1.9061 -0.452192 0
M  V30 9065 H 841.936 -0.381959 0.641963 0
M  V30 9066 H 844.598 -0.323444 1.92197 0
M  V30 9067 H 843.694 -1.67558 2.63307 0
M  V30 9068 N 843.995 -1.47404 -0.557645 0
M  V30 9069 C 844.925 -1.62736 -1.67449 0
M  V30 9070 C 845.906 -0.476824 -1.6328 0
M  V30 9071 O 847.091 -0.706108 -1.80908 0
M  V30 9072 C 844.221 -1.641 -3.06086 0
M  V30 9073 C 843.175 -2.78377 -3.25101 0
M  V30 9074 C 842.501 -2.64812 -4.6452 0
M  V30 9075 C 843.801 -4.19971 -3.10518 0
M  V30 9076 H 845.495 -2.56232 -1.54873 0
M  V30 9077 H 843.041 -1.23312 -0.743649 0
M  V30 9078 H 844.994 -1.73417 -3.84063 0
M  V30 9079 H 843.718 -0.671652 -3.19619 0
M  V30 9080 H 842.377 -2.6857 -2.49531 0
M  V30 9081 H 842.025 -1.65906 -4.74852 0
M  V30 9082 H 841.725 -3.41477 -4.78191 0
M  V30 9083 H 843.249 -2.76057 -5.44633 0
M  V30 9084 H 844.663 -4.30757 -3.78313 0
M  V30 9085 H 843.06 -4.97419 -3.35699 0
M  V30 9086 H 844.13 -4.38369 -2.0727 0
M  V30 9087 N 845.473 0.80434 -1.35529 0
M  V30 9088 C 846.406 1.92222 -1.22987 0
M  V30 9089 C 847.384 1.62177 -0.117269 0
M  V30 9090 O 848.568 1.86321 -0.285761 0
M  V30 9091 C 845.695 3.26682 -0.894223 0
M  V30 9092 C 844.741 3.75674 -2.01919 0
M  V30 9093 S 845.574 3.93209 -3.6352 0
M  V30 9094 C 846.73 5.30568 -3.32037 0
M  V30 9095 H 846.963 2.02567 -2.1761 0
M  V30 9096 H 844.496 0.961961 -1.20771 0
M  V30 9097 H 846.454 4.04359 -0.707371 0
M  V30 9098 H 845.115 3.14082 0.0339729 0
M  V30 9099 H 844.308 4.73065 -1.73854 0
M  V30 9100 H 843.91 3.05001 -2.16449 0
M  V30 9101 H 846.202 6.14637 -2.85004 0
M  V30 9102 H 847.145 5.63628 -4.28636 0
M  V30 9103 H 847.553 4.96961 -2.6775 0
M  V30 9104 N 846.951 1.19563 1.02676 0
M  V30 9105 C 848.179 1.02488 1.79732 0
M  V30 9106 C 848.594 -0.426302 1.83924 0
M  V30 9107 O 847.951 -1.29609 1.28483 0
M  V30 9108 C 848.002 1.58944 3.24683 0
M  V30 9109 O 847.723 2.98382 3.2078 0
M  V30 9110 C 849.224 1.46681 4.1833 0
M  V30 9111 H 846.444 0.361098 0.565552 0
M  V30 9112 H 848.988 1.58426 1.29311 0
M  V30 9113 H 847.143 1.0715 3.72287 0
M  V30 9114 H 847.557 3.24983 4.11687 0
M  V30 9115 H 849.031 1.90959 5.17918 0
M  V30 9116 H 849.508 0.417663 4.3721 0
M  V30 9117 H 850.114 1.97616 3.76601 0
M  V30 9118 N 848.429 -1.21819 0.999893 0
M  V30 9119 C 849.376 -2.24003 0.556005 0
M  V30 9120 C 850.346 -1.60825 -0.415287 0
M  V30 9121 O 851.531 -1.88123 -0.318481 0
M  V30 9122 C 848.671 -3.44904 -0.116289 0
M  V30 9123 C 847.784 -4.22573 0.897574 0
M  V30 9124 C 846.919 -5.30831 0.198073 0
M  V30 9125 C 845.958 -6.00225 1.19983 0
M  V30 9126 N 845.095 -7.00111 0.528157 0
M  V30 9127 H 849.935 -2.61334 1.43208 0
M  V30 9128 H 847.472 -1.28431 0.717205 0
M  V30 9129 H 849.43 -4.13908 -0.523055 0
M  V30 9130 H 848.06 -3.08315 -0.956108 0
M  V30 9131 H 847.112 -3.52797 1.42262 0
M  V30 9132 H 848.424 -4.70363 1.66013 0
M  V30 9133 H 847.578 -6.06121 -0.265065 0
M  V30 9134 H 846.317 -4.84033 -0.596924 0
M  V30 9135 H 845.322 -5.23711 1.67353 0
M  V30 9136 H 846.547 -6.4911 1.99582 0
M  V30 9137 H 844.493 -6.55534 -0.247276 0
M  V30 9138 H 844.41 -7.45943 1.22904 0
M  V30 9139 H 845.678 -7.7945 0.0880543 0
M  V30 9140 N 849.908 -0.773975 -1.37286 0
M  V30 9141 C 850.858 -0.135245 -2.27599 0
M  V30 9142 C 851.842 0.671691 -1.46209 0
M  V30 9143 O 853.034 0.534299 -1.68743 0
M  V30 9144 C 850.163 0.741298 -3.35201 0
M  V30 9145 C 849.249 -0.0735896 -4.24036 0
M  V30 9146 N 849.64 -1.12035 -4.93236 0
M  V30 9147 C 847.938 0.150038 -4.45748 0
M  V30 9148 C 848.639 -1.61512 -5.58828 0
M  V30 9149 N 847.615 -0.926922 -5.35639 0
M  V30 9150 H 851.417 -0.936646 -2.78575 0
M  V30 9151 H 848.931 -0.611944 -1.50429 0
M  V30 9152 H 850.928 1.21468 -3.98812 0
M  V30 9153 H 849.588 1.54142 -2.8578 0
M  V30 9154 H 850.599 -1.50253 -4.95625 0
M  V30 9155 H 847.276 0.921891 -4.07195 0
M  V30 9156 H 848.666 -2.48818 -6.24131 0
M  V30 9157 N 851.386 1.48609 -0.524698 0
M  V30 9158 C 852.797 1.86516 -0.0828846 0
M  V30 9159 C 853.148 1.43478 1.33822 0
M  V30 9160 O 852.273 0.823139 2.00133 0
M  V30 9161 C 852.868 3.38495 -0.143639 0
M  V30 9162 C 851.427 3.75615 0.242951 0
M  V30 9163 C 850.574 2.72649 -0.505747 0
M  V30 9164 H 853.525 1.40589 -0.736233 0
M  V30 9165 H 853.546 3.74977 0.645955 0
M  V30 9166 H 853.058 3.69789 -1.17805 0
M  V30 9167 H 851.159 3.49935 1.27971 0
M  V30 9168 H 851.272 4.7901 -0.0929834 0
M  V30 9169 H 849.636 2.54656 0.0473482 0
M  V30 9170 H 850.419 3.06786 -1.54069 0
M  V30 9171 N 852.864 0.259585 1.55447 0
M  V30 9172 C 853.827 -0.621359 2.20617 0
M  V30 9173 C 854.827 -1.09317 1.17925 0
M  V30 9174 O 856.017 -0.995842 1.42929 0
M  V30 9175 C 853.149 -1.85546 2.85982 0
M  V30 9176 H 854.342 -0.0525833 2.99854 0
M  V30 9177 H 851.895 0.0101055 1.56297 0
M  V30 9178 H 852.63 -2.46515 2.10715 0
M  V30 9179 H 852.415 -1.52523 3.61219 0
M  V30 9180 H 853.905 -2.48227 3.35817 0
M  V30 9181 N 854.342 -1.57594 -0.0133615 0
M  V30 9182 C 855.289 -2.07574 -1.00905 0
M  V30 9183 C 856.259 -0.968231 -1.34961 0
M  V30 9184 O 857.444 -1.23981 -1.45028 0
M  V30 9185 C 854.584 -2.5728 -2.30002 0
M  V30 9186 C 853.697 -3.81881 -2.01967 0
M  V30 9187 C 852.832 -4.20139 -3.25049 0
M  V30 9188 C 851.871 -5.37614 -2.92639 0
M  V30 9189 N 851.008 -5.71229 -4.08218 0
M  V30 9190 H 855.848 -2.92382 -0.575899 0
M  V30 9191 H 853.385 -1.4455 -0.272722 0
M  V30 9192 H 855.343 -2.84171 -3.05454 0
M  V30 9193 H 853.973 -1.75365 -2.71011 0
M  V30 9194 H 853.025 -3.61979 -1.16942 0
M  V30 9195 H 854.337 -4.67441 -1.74069 0
M  V30 9196 H 853.491 -4.48242 -4.08857 0
M  V30 9197 H 852.23 -3.33262 -3.56073 0
M  V30 9198 H 851.235 -5.09248 -2.07235 0
M  V30 9199 H 852.46 -6.26157 -2.62876 0
M  V30 9200 H 850.406 -4.8731 -4.39164 0
M  V30 9201 H 850.323 -6.51333 -3.83799 0
M  V30 9202 H 851.591 -6.03917 -4.92854 0
M  V30 9203 N 855.82 0.285905 -1.54985 0
M  V30 9204 C 857.236 0.632405 -1.46536 0
M  V30 9205 C 857.436 1.90074 -0.668888 0
M  V30 9206 O 856.492 2.51839 -0.182586 0
M  V30 9207 C 857.805 0.771361 -2.90638 0
M  V30 9208 C 859.353 0.866262 -3.00774 0
M  V30 9209 C 859.828 1.0371 -4.46103 0
M  V30 9210 N 861.319 1.10294 -4.49877 0
M  V30 9211 C 862.054 1.25369 -5.59527 0
M  V30 9212 N 861.55 1.37246 -6.7907 0
M  V30 9213 N 863.343 1.28377 -5.47244 0
M  V30 9214 H 855.494 -0.547226 -2.0523 0
M  V30 9215 H 857.757 -0.183298 -0.930111 0
M  V30 9216 H 857.463 -0.0899485 -3.51585 0
M  V30 9217 H 857.337 1.65569 -3.3892 0
M  V30 9218 H 859.724 1.71805 -2.39931 0
M  V30 9219 H 859.805 -0.0424049 -2.55765 0
M  V30 9220 H 859.449 0.190021 -5.07544 0
M  V30 9221 H 859.379 1.96022 -4.88757 0
M  V30 9222 H 861.87 1.02407 -3.6376 0
M  V30 9223 H 862.183 1.48546 -7.58389 0
M  V30 9224 H 860.528 1.34274 -6.81906 0
M  V30 9225 H 863.719 1.1872 -4.52795 0
M  V30 9226 H 863.892 1.39782 -6.32744 0
M  V30 9227 N 857.298 1.47698 0.54982 0
M  V30 9228 C 858.228 1.63622 1.66583 0
M  V30 9229 C 859.209 0.485477 1.63025 0
M  V30 9230 O 860.394 0.715692 1.80531 0
M  V30 9231 C 857.524 1.65721 3.05211 0
M  V30 9232 C 856.478 2.80097 3.2362 0
M  V30 9233 C 855.804 2.67272 4.63109 0
M  V30 9234 C 857.104 4.21612 3.08286 0
M  V30 9235 H 858.798 2.57049 1.53512 0
M  V30 9236 H 856.344 1.23705 0.737099 0
M  V30 9237 H 858.297 1.75451 3.83138 0
M  V30 9238 H 857.021 0.688593 3.19258 0
M  V30 9239 H 855.68 2.69889 2.48104 0
M  V30 9240 H 855.328 1.68422 4.73965 0
M  V30 9241 H 855.028 3.44008 4.76374 0
M  V30 9242 H 856.552 2.78942 5.43161 0
M  V30 9243 H 857.966 4.32758 3.76024 0
M  V30 9244 H 856.363 4.99193 3.33057 0
M  V30 9245 H 857.433 4.39462 2.04942 0
M  V30 9246 N 858.776 -0.797141 1.35954 0
M  V30 9247 C 860.024 -1.55161 1.29497 0
M  V30 9248 C 860.345 -1.94582 -0.127659 0
M  V30 9249 O 859.615 -1.64343 -1.06622 0
M  V30 9250 H 858.195 -0.575413 0.47635 0
M  V30 9251 H 860.857 -0.950282 1.70164 0
M  V30 9252 H 859.953 -2.46272 1.9172 0
M  V30 9253 N 860.254 -1.20106 -1.0204 0
M  V30 9254 C 861.494 -1.02013 -1.77123 0
M  V30 9255 C 861.858 0.440439 -1.8688 0
M  V30 9256 O 863.059 0.74144 -2.58372 0
M  V30 9257 C 861.33 -1.68058 -3.15423 0
M  V30 9258 S 862.889 -1.65016 -4.0659 0
M  V30 9259 H 859.707 -0.365882 -0.609632 0
M  V30 9260 H 862.309 -1.52597 -1.22206 0
M  V30 9261 H 861.013 -2.73544 -3.05944 0
M  V30 9262 H 860.544 -1.17589 -3.75415 0
M  V30 9263 H 862.559 -0.680341 -4.91514 0
M  V30 9264 N 861.732 1.21287 -1.00634 0
M  V30 9265 C 862.98 1.90013 -0.688438 0
M  V30 9266 C 863.301 1.78573 0.783365 0
M  V30 9267 O 862.571 1.1815 1.56261 0
M  V30 9268 H 861.151 0.703336 -0.251648 0
M  V30 9269 H 863.813 1.47346 -1.27574 0
M  V30 9270 H 862.909 2.96879 -0.962781 0
M  V30 9271 N 863.21 0.781244 1.36873 0
M  V30 9272 C 864.621 0.414093 1.8205 0
M  V30 9273 C 864.972 -1.06098 1.65039 0
M  V30 9274 O 864.097 -1.82251 1.16677 0
M  V30 9275 C 864.692 0.744837 3.30511 0
M  V30 9276 C 863.251 0.430621 3.73929 0
M  V30 9277 C 862.398 0.983746 2.59264 0
M  V30 9278 H 865.349 0.975091 1.2521 0
M  V30 9279 H 865.37 0.032936 3.80486 0
M  V30 9280 H 864.882 1.81847 3.42861 0
M  V30 9281 H 862.983 -0.635308 3.67144 0
M  V30 9282 H 863.096 0.945514 4.69677 0
M  V30 9283 H 861.46 0.407433 2.5142 0
M  V30 9284 H 862.243 2.06297 2.74402 0
M  V30 9285 N 864.689 -1.48329 0.532571 0
M  V30 9286 C 865.599 -2.33445 -0.232546 0
M  V30 9287 C 866.615 -1.46651 -0.93645 0
M  V30 9288 O 867.791 -1.79627 -0.910834 0
M  V30 9289 C 864.856 -3.22824 -1.26434 0
M  V30 9290 C 863.917 -4.25492 -0.570511 0
M  V30 9291 C 863.15 -5.10601 -1.55315 0
M  V30 9292 O 863.373 -4.97733 -2.78599 0
M  V30 9293 O 862.307 -5.91927 -1.09112 0
M  V30 9294 H 866.133 -3.00119 0.464988 0
M  V30 9295 H 863.718 -1.46489 0.293462 0
M  V30 9296 H 865.6 -3.78103 -1.86055 0
M  V30 9297 H 864.275 -2.58807 -1.94424 0
M  V30 9298 H 863.182 -3.74041 0.0662587 0
M  V30 9299 H 864.515 -4.92154 0.0674904 0
M  V30 9300 N 866.167 -0.267825 -1.55308 0
M  V30 9301 C 867.415 0.350343 -1.9904 0
M  V30 9302 C 867.736 1.56924 -1.15758 0
M  V30 9303 O 867.006 1.94358 -0.245336 0
M  V30 9304 H 865.586 0.132435 -0.735167 0
M  V30 9305 H 868.248 -0.371471 -1.91327 0
M  V30 9306 H 867.344 0.645203 -3.05358 0
M  V30 9307 N 867.645 1.57599 0.00500368 0
M  V30 9308 C 868.555 2.11532 1.01446 0
M  V30 9309 C 869.571 1.05941 1.3803 0
M  V30 9310 O 870.747 1.37815 1.46864 0
M  V30 9311 C 867.812 2.60382 2.28915 0
M  V30 9312 C 866.873 3.80554 1.98689 0
M  V30 9313 C 866.106 4.27064 3.20081 0
M  V30 9314 O 866.329 3.72939 4.31593 0
M  V30 9315 O 865.263 5.1927 3.04371 0
M  V30 9316 H 869.089 2.97993 0.586011 0
M  V30 9317 H 866.674 1.47718 0.223519 0
M  V30 9318 H 868.556 2.92024 3.03809 0
M  V30 9319 H 867.231 1.77022 2.71007 0
M  V30 9320 H 866.138 3.53893 1.21286 0
M  V30 9321 H 867.471 4.64972 1.61437 0
M  V30 9322 N 869.123 -0.277682 1.55134 0
M  V30 9323 C 870.539 -0.624625 1.46869 0
M  V30 9324 C 870.739 -1.89717 0.678958 0
M  V30 9325 O 869.795 -2.51739 0.195939 0
M  V30 9326 C 871.108 -0.755937 2.91043 0
M  V30 9327 C 872.656 -0.850299 3.01229 0
M  V30 9328 C 873.131 -1.01343 4.46647 0
M  V30 9329 N 874.622 -1.07906 4.50456 0
M  V30 9330 C 875.357 -1.224 5.60184 0
M  V30 9331 N 874.853 -1.33642 6.79788 0
M  V30 9332 N 876.646 -1.25473 5.47917 0
M  V30 9333 H 868.797 0.558102 2.04937 0
M  V30 9334 H 871.06 0.188228 0.929125 0
M  V30 9335 H 870.766 0.108593 3.51532 0
M  V30 9336 H 870.64 -1.6377 3.39793 0
M  V30 9337 H 873.027 -1.7053 2.40839 0
M  V30 9338 H 873.108 0.0559681 2.55739 0
M  V30 9339 H 872.752 -0.163102 5.07638 0
M  V30 9340 H 872.682 -1.93427 4.89789 0
M  V30 9341 H 875.173 -1.00477 3.64298 0
M  V30 9342 H 875.486 -1.44522 7.59166 0
M  V30 9343 H 873.831 -1.30655 6.82608 0
M  V30 9344 H 877.022 -1.16317 4.53418 0
M  V30 9345 H 877.195 -1.36424 6.33476 0
M  V30 9346 N 870.601 -1.47988 -0.541979 0
M  V30 9347 C 871.878 -1.45878 -1.30303 0
M  V30 9348 C 872.258 -0.163931 -2.10463 0
M  V30 9349 O 871.606 0.854479 -2.11922 0
M  V30 9350 C 871.816 -2.71359 -2.19466 0
M  V30 9351 C 873.164 -3.19199 -2.79995 0
M  V30 9352 O 874.188 -2.72193 -2.2976 0
M  V30 9353 O 873.047 -4.00961 -3.71339 0
M  V30 9354 H 870.141 -0.582043 -0.587498 0
M  V30 9355 H 872.687 -1.60207 -0.559623 0
M  V30 9356 H 871.459 -3.57122 -1.59936 0
M  V30 9357 H 871.082 -2.59692 -3.01075 0
M  V30 9358 N 872.079 0.78992 -1.36375 0
M  V30 9359 C 873.325 1.55007 -1.3077 0
M  V30 9360 C 873.658 1.93871 0.112979 0
M  V30 9361 O 872.933 1.6267 1.06625 0
M  V30 9362 C 873.216 2.82748 -2.22993 0
M  V30 9363 C 873.069 2.50253 -3.73756 0
M  V30 9364 C 874.388 3.84569 -2.13998 0
M  V30 9365 H 871.507 0.562362 -0.476359 0
M  V30 9366 H 874.149 0.907582 -1.66922 0
M  V30 9367 H 872.299 3.37573 -1.92292 0
M  V30 9368 H 873.971 2.01482 -4.14973 0
M  V30 9369 H 872.214 1.83203 -3.93216 0
M  V30 9370 H 872.885 3.41487 -4.33694 0
M  V30 9371 H 875.361 3.39188 -2.4102 0
M  V30 9372 H 874.237 4.717 -2.80697 0
M  V30 9373 H 874.498 4.27491 -1.12711 0
M  V30 9374 N 873.557 1.20646 1.01402 0
M  V30 9375 C 874.973 0.961866 1.27359 0
M  V30 9376 C 875.173 -0.357083 1.98311 0
M  V30 9377 O 874.229 -1.08498 2.28001 0
M  V30 9378 C 875.542 2.14627 2.10609 0
M  V30 9379 C 877.09 2.18753 2.23866 0
M  V30 9380 C 877.565 3.36686 3.10494 0
M  V30 9381 N 879.056 3.36716 3.18083 0
M  V30 9382 C 879.791 4.24615 3.85343 0
M  V30 9383 N 879.287 5.22697 4.54708 0
M  V30 9384 N 881.08 4.12449 3.81893 0
M  V30 9385 H 873.231 2.05481 0.537721 0
M  V30 9386 H 875.494 0.899292 0.299963 0
M  V30 9387 H 875.2 3.10159 1.65814 0
M  V30 9388 H 875.074 2.12935 3.11349 0
M  V30 9389 H 877.461 1.23782 2.67885 0
M  V30 9390 H 877.542 2.24492 1.22626 0
M  V30 9391 H 877.186 4.31945 2.67181 0
M  V30 9392 H 877.116 3.28185 4.11828 0
M  V30 9393 H 879.607 2.65728 2.68695 0
M  V30 9394 H 879.92 5.86087 5.03708 0
M  V30 9395 H 878.265 5.26631 4.53525 0
M  V30 9396 H 881.456 3.35091 3.26851 0
M  V30 9397 H 881.629 4.81162 4.34035 0
M  V30 9398 N 875.035 -1.20752 1.01276 0
M  V30 9399 C 875.945 -2.27079 0.589277 0
M  V30 9400 C 876.961 -1.6999 -0.371389 0
M  V30 9401 O 878.137 -2.00044 -0.233294 0
M  V30 9402 C 875.202 -3.4663 -0.0696715 0
M  V30 9403 C 874.263 -4.18962 0.936454 0
M  V30 9404 C 873.496 -5.32806 0.308856 0
M  V30 9405 O 873.719 -5.63376 -0.8924 0
M  V30 9406 O 872.653 -5.93131 1.02367 0
M  V30 9407 H 876.479 -2.6551 1.47438 0
M  V30 9408 H 874.064 -1.27297 0.782045 0
M  V30 9409 H 875.946 -4.19119 -0.437873 0
M  V30 9410 H 874.621 -3.10082 -0.929029 0
M  V30 9411 H 873.528 -3.48661 1.35595 0
M  V30 9412 H 874.861 -4.59441 1.76565 0
M  V30 9413 N 876.513 -0.788492 -1.36457 0
M  V30 9414 C 877.463 -0.159377 -2.27442 0
M  V30 9415 C 878.447 0.656146 -1.46913 0
M  V30 9416 O 879.639 0.516372 -1.693 0
M  V30 9417 C 876.768 0.705703 -3.35968 0
M  V30 9418 C 875.854 -0.11856 -4.23934 0
M  V30 9419 N 876.245 -1.1726 -4.9202 0
M  V30 9420 C 874.543 0.102752 -4.45882 0
M  V30 9421 C 875.244 -1.6743 -5.57083 0
M  V30 9422 N 874.22 -0.983682 -5.34626 0
M  V30 9423 H 878.022 -0.96614 -2.77566 0
M  V30 9424 H 875.536 -0.627864 -1.49772 0
M  V30 9425 H 877.533 1.17231 -4.00078 0
M  V30 9426 H 876.193 1.51102 -2.87399 0
M  V30 9427 H 877.204 -1.55502 -4.94004 0
M  V30 9428 H 873.881 0.878651 -4.08149 0
M  V30 9429 H 875.271 -2.55423 -6.21457 0
M  V30 9430 N 877.991 1.48044 -0.54043 0
M  V30 9431 C 878.954 2.28273 0.205966 0
M  V30 9432 C 879.954 1.35983 0.858209 0
M  V30 9433 O 881.144 1.58776 0.716651 0
M  V30 9434 C 878.276 3.15174 1.29917 0
M  V30 9435 H 879.469 2.95727 -0.498555 0
M  V30 9436 H 877.022 1.53457 -0.296745 0
M  V30 9437 H 877.757 2.52374 2.03661 0
M  V30 9438 H 877.542 3.83074 0.836475 0
M  V30 9439 H 879.032 3.75666 1.82387 0
M  V30 9440 N 879.47 0.276058 1.55163 0
M  V30 9441 C 880.717 -0.340455 1.99618 0
M  V30 9442 C 881.045 -1.5579 1.16446 0
M  V30 9443 O 880.3 -1.94433 0.222359 0
M  V30 9444 C 880.599 -0.765744 3.491 0
M  V30 9445 C 880.265 0.347174 4.49561 0
M  V30 9446 C 878.927 0.65276 4.76752 0
M  V30 9447 C 881.279 1.09705 5.09523 0
M  V30 9448 C 878.607 1.71179 5.61173 0
M  V30 9449 C 880.959 2.14581 5.95095 0
M  V30 9450 C 879.623 2.45773 6.20606 0
M  V30 9451 H 878.893 -0.124581 0.730452 0
M  V30 9452 H 881.54 0.389966 1.87487 0
M  V30 9453 H 879.845 -1.57585 3.58712 0
M  V30 9454 H 881.542 -1.25352 3.80904 0
M  V30 9455 H 878.132 0.0988779 4.28486 0
M  V30 9456 H 882.316 0.874223 4.8854 0
M  V30 9457 H 877.572 1.95846 5.79184 0
M  V30 9458 H 881.746 2.7316 6.40591 0
M  V30 9459 H 879.373 3.27969 6.85813 0
M  V30 9460 N 880.948 -1.576 0.00335426 0
M  V30 9461 C 882.195 -1.90713 -0.680791 0
M  V30 9462 C 882.523 -0.877263 -1.73592 0
M  V30 9463 O 881.778 0.117497 -1.95347 0
M  V30 9464 C 882.077 -3.3058 -1.35837 0
M  V30 9465 C 881.743 -4.48786 -0.436111 0
M  V30 9466 C 880.405 -4.80855 -0.182195 0
M  V30 9467 C 882.757 -5.20821 0.198677 0
M  V30 9468 C 880.085 -5.8233 0.714747 0
M  V30 9469 C 882.437 -6.23252 1.08351 0
M  V30 9470 C 881.101 -6.53776 1.34658 0
M  V30 9471 H 880.371 -0.697869 -0.249119 0
M  V30 9472 H 883.018 -1.91407 0.0596011 0
M  V30 9473 H 881.323 -3.26026 -2.17289 0
M  V30 9474 H 883.02 -3.53462 -1.89383 0
M  V30 9475 H 879.61 -4.23731 -0.644186 0
M  V30 9476 H 883.794 -4.96298 0.0155259 0
M  V30 9477 H 879.05 -6.04339 0.926529 0
M  V30 9478 H 883.224 -6.78199 1.58172 0
M  V30 9479 H 880.851 -7.32225 2.04328 0
M  V30 9480 N 882.426 0.269451 -1.5528 0
M  V30 9481 C 883.842 0.616827 -1.47199 0
M  V30 9482 C 884.042 1.89354 -0.68901 0
M  V30 9483 O 883.098 2.51631 -0.209287 0
M  V30 9484 C 884.411 0.740492 -2.9144 0
M  V30 9485 C 885.959 0.834312 -3.01676 0
M  V30 9486 C 886.434 0.989725 -4.47178 0
M  V30 9487 N 887.925 1.05516 -4.51022 0
M  V30 9488 C 888.66 1.19427 -5.60825 0
M  V30 9489 N 888.156 1.30035 -6.80487 0
M  V30 9490 N 889.949 1.22566 -5.48575 0
M  V30 9491 H 882.1 -0.568962 -2.04638 0
M  V30 9492 H 884.363 -0.193153 -0.928114 0
M  V30 9493 H 884.069 -0.127234 -3.5147 0
M  V30 9494 H 883.943 1.61965 -3.40657 0
M  V30 9495 H 886.33 1.6925 -2.4174 0
M  V30 9496 H 886.411 -0.0695298 -2.55705 0
M  V30 9497 H 886.055 0.136179 -5.07717 0
M  V30 9498 H 885.985 1.90827 -4.90808 0
M  V30 9499 H 888.476 0.985434 -3.64825 0
M  V30 9500 H 888.789 1.40494 -7.59922 0
M  V30 9501 H 887.134 1.27033 -6.83292 0
M  V30 9502 H 890.325 1.13911 -4.54029 0
M  V30 9503 H 890.498 1.33063 -6.34191 0
M  V30 9504 N 883.904 1.48273 0.534124 0
M  V30 9505 C 885.32 1.34302 0.862272 0
M  V30 9506 C 885.52 0.350902 1.98421 0
M  V30 9507 O 884.576 -0.229364 2.51456 0
M  V30 9508 C 885.889 2.74227 1.23371 0
M  V30 9509 C 887.437 2.82684 1.34383 0
M  V30 9510 C 887.912 4.23301 1.74871 0
M  V30 9511 N 889.403 4.25954 1.81981 0
M  V30 9512 C 890.138 5.31693 2.14686 0
M  V30 9513 N 889.634 6.47714 2.45844 0
M  V30 9514 N 891.427 5.19084 2.15657 0
M  V30 9515 H 883.578 2.11397 -0.206215 0
M  V30 9516 H 885.841 0.947537 -0.0296116 0
M  V30 9517 H 885.547 3.48368 0.482967 0
M  V30 9518 H 885.421 3.07485 2.18478 0
M  V30 9519 H 887.808 2.08801 2.08534 0
M  V30 9520 H 887.889 2.5305 0.374063 0
M  V30 9521 H 887.533 4.97699 1.01282 0
M  V30 9522 H 887.463 4.50376 2.7289 0
M  V30 9523 H 889.954 3.42266 1.60196 0
M  V30 9524 H 890.267 7.2414 2.69892 0
M  V30 9525 H 888.612 6.50995 2.43372 0
M  V30 9526 H 891.803 4.27463 1.9077 0
M  V30 9527 H 891.976 6.01592 2.40813 0
M  V30 9528 N 885.382 -0.782676 1.36792 0
M  V30 9529 C 886.631 -1.53605 1.30723 0
M  V30 9530 C 886.944 -1.95294 -0.109296 0
M  V30 9531 O 888.15 -2.69921 -0.292398 0
M  V30 9532 C 886.606 -2.77321 2.29393 0
M  V30 9533 C 886.214 -2.42774 3.76517 0
M  V30 9534 C 887.958 -3.55289 2.32314 0
M  V30 9535 C 885.865 -3.62926 4.66947 0
M  V30 9536 H 884.795 -0.576646 0.485794 0
M  V30 9537 H 887.446 -0.858255 1.62192 0
M  V30 9538 H 885.828 -3.46934 1.90927 0
M  V30 9539 H 887.002 -1.81014 4.23758 0
M  V30 9540 H 885.317 -1.78002 3.76436 0
M  V30 9541 H 887.914 -4.44573 2.97083 0
M  V30 9542 H 888.257 -3.94361 1.3336 0
M  V30 9543 H 888.79 -2.92662 2.69432 0
M  V30 9544 H 885.529 -3.28944 5.66989 0
M  V30 9545 H 885.049 -4.23828 4.24418 0
M  V30 9546 H 886.728 -4.29873 4.83548 0
M  V30 9547 N 886.86 -1.21182 -1.00761 0
M  V30 9548 C 888.137 -0.936297 -1.71735 0
M  V30 9549 C 888.517 0.552585 -2.03739 0
M  V30 9550 O 887.865 1.51672 -1.70903 0
M  V30 9551 C 888.075 -1.81867 -2.97868 0
M  V30 9552 C 889.423 -2.06594 -3.7095 0
M  V30 9553 O 890.447 -1.79194 -3.07844 0
M  V30 9554 O 889.306 -2.5292 -4.84452 0
M  V30 9555 H 886.4 -0.350867 -0.74888 0
M  V30 9556 H 888.946 -1.32098 -1.06527 0
M  V30 9557 H 887.718 -2.82643 -2.70607 0
M  V30 9558 H 887.341 -1.43463 -3.70815 0
M  V30 9559 N 888.338 1.20213 -1.01915 0
M  V30 9560 C 889.584 1.90203 -0.720724 0
M  V30 9561 C 889.939 1.77526 0.74178 0
M  V30 9562 O 889.232 1.15037 1.53222 0
M  V30 9563 C 889.426 3.40232 -1.09438 0
M  V30 9564 C 889.255 3.67509 -2.59167 0
M  V30 9565 C 888.025 3.86082 -3.25989 0
M  V30 9566 C 890.223 3.69863 -3.5736 0
M  V30 9567 N 888.205 4.009 -4.64922 0
M  V30 9568 C 889.576 3.90136 -4.81865 0
M  V30 9569 C 891.631 3.52839 -3.51296 0
M  V30 9570 C 890.334 3.9515 -6.0104 0
M  V30 9571 C 892.36 3.59125 -4.69875 0
M  V30 9572 C 891.722 3.79874 -5.93191 0
M  V30 9573 H 887.821 0.715556 -0.315442 0
M  V30 9574 H 890.405 1.44538 -1.30449 0
M  V30 9575 H 888.576 3.84643 -0.538933 0
M  V30 9576 H 890.308 3.97704 -0.74923 0
M  V30 9577 H 887.063 3.84569 -2.76413 0
M  V30 9578 H 887.487 4.12181 -5.37062 0
M  V30 9579 H 892.129 3.35762 -2.56951 0
M  V30 9580 H 889.847 4.11022 -6.95763 0
M  V30 9581 H 893.433 3.47257 -4.66802 0
M  V30 9582 H 892.313 3.846 -6.83412 0
M  V30 9583 N 889.816 0.795718 1.36037 0
M  V30 9584 C 890.726 0.199784 2.33748 0
M  V30 9585 C 891.742 -0.651436 1.61345 0
M  V30 9586 O 892.918 -0.565743 1.93291 0
M  V30 9587 C 889.983 -0.650475 3.40543 0
M  V30 9588 C 889.044 0.219974 4.28736 0
M  V30 9589 C 888.277 -0.589798 5.30431 0
M  V30 9590 O 888.5 -1.82532 5.40406 0
M  V30 9591 O 887.434 0.0136187 6.01898 0
M  V30 9592 H 891.26 1.00782 2.8649 0
M  V30 9593 H 888.845 0.557293 1.38617 0
M  V30 9594 H 890.727 -1.13512 4.05824 0
M  V30 9595 H 889.402 -1.4363 2.9009 0
M  V30 9596 H 888.309 0.751516 3.66474 0
M  V30 9597 H 889.642 0.969468 4.82558 0
M  V30 9598 N 891.294 -1.47756 0.548274 0
M  V30 9599 C 892.241 -2.29893 -0.204408 0
M  V30 9600 C 893.211 -1.38509 -0.916761 0
M  V30 9601 O 894.396 -1.67472 -0.91421 0
M  V30 9602 C 891.536 -3.22282 -1.23403 0
M  V30 9603 C 890.649 -4.28753 -0.528654 0
M  V30 9604 C 889.784 -5.08303 -1.54279 0
M  V30 9605 C 888.823 -6.06557 -0.821893 0
M  V30 9606 N 887.96 -6.79098 -1.78243 0
M  V30 9607 H 892.8 -2.93739 0.502163 0
M  V30 9608 H 890.337 -1.44793 0.259471 0
M  V30 9609 H 892.295 -3.74262 -1.84348 0
M  V30 9610 H 890.925 -2.6032 -1.90875 0
M  V30 9611 H 889.977 -3.79899 0.195132 0
M  V30 9612 H 891.289 -4.98787 0.0365066 0
M  V30 9613 H 890.443 -5.64388 -2.22602 0
M  V30 9614 H 889.182 -4.3815 -2.14186 0
M  V30 9615 H 888.187 -5.49659 -0.12469 0
M  V30 9616 H 889.412 -6.78715 -0.228685 0
M  V30 9617 H 887.358 -6.11682 -2.37025 0
M  V30 9618 H 887.275 -7.4527 -1.26919 0
M  V30 9619 H 888.543 -7.39762 -2.45709 0
M  V30 9620 N 892.772 -0.284283 -1.55015 0
M  V30 9621 C 893.702 0.592663 -2.25853 0
M  V30 9622 C 894.683 1.15151 -1.25197 0
M  V30 9623 O 895.868 1.18395 -1.53936 0
M  V30 9624 C 892.998 1.77254 -2.98661 0
M  V30 9625 C 891.952 1.34482 -4.06323 0
M  V30 9626 C 891.278 2.60853 -4.66754 0
M  V30 9627 C 892.578 0.488288 -5.20013 0
M  V30 9628 H 894.272 0.00187041 -2.994 0
M  V30 9629 H 891.818 -0.000540402 -1.44 0
M  V30 9630 H 893.771 2.39199 -3.46932 0
M  V30 9631 H 892.495 2.38931 -2.22664 0
M  V30 9632 H 891.154 0.748519 -3.58877 0
M  V30 9633 H 890.802 3.20808 -3.87416 0
M  V30 9634 H 890.502 2.32942 -5.39455 0
M  V30 9635 H 892.026 3.23631 -5.1778 0
M  V30 9636 H 893.44 1.01298 -5.6428 0
M  V30 9637 H 891.837 0.303669 -5.99331 0
M  V30 9638 H 892.907 -0.490727 -4.8241 0
M  V30 9639 N 894.251 1.57596 -0.0117121 0
M  V30 9640 C 895.161 2.12596 0.991964 0
M  V30 9641 C 896.177 1.07399 1.36899 0
M  V30 9642 O 897.353 1.39365 1.45394 0
M  V30 9643 C 894.418 2.62796 2.2614 0
M  V30 9644 C 893.479 3.8264 1.94642 0
M  V30 9645 C 892.712 4.30435 3.15533 0
M  V30 9646 O 892.935 3.77495 4.27614 0
M  V30 9647 O 891.869 5.22469 2.98847 0
M  V30 9648 H 895.695 2.98597 0.554371 0
M  V30 9649 H 893.28 1.47947 0.207839 0
M  V30 9650 H 895.162 2.9523 3.00695 0
M  V30 9651 H 893.837 1.79886 2.69114 0
M  V30 9652 H 892.744 3.5516 1.17526 0
M  V30 9653 H 894.077 4.66658 1.56496 0
M  V30 9654 N 895.729 -0.261212 1.5542 0
M  V30 9655 C 896.677 -1.34298 1.89913 0
M  V30 9656 C 897.671 -1.50547 0.776665 0
M  V30 9657 O 898.877 -1.52191 0.961139 0
M  V30 9658 H 895.252 -0.4494 0.602946 0
M  V30 9659 H 897.223 -1.02464 2.80256 0
M  V30 9660 C 895.972 -2.69423 2.19788 0
M  V30 9661 H 895.295 -2.57715 3.05652 0
M  V30 9662 H 896.735 -3.44026 2.47835 0
M  V30 9663 C 895.194 -3.21423 1.00939 0
M  V30 9664 O 895.724 -4.00921 0.250034 0
M  V30 9665 N 893.93 -2.7926 0.803883 0
M  V30 9666 H 893.477 -2.14724 1.42308 0
M  V30 9667 H 893.435 -3.14398 0.0103257 0
M  V30 9668 N 897.207 -1.48554 -0.526253 0
M  V30 9669 C 898.623 -1.34757 -0.855138 0
M  V30 9670 C 898.823 -0.36142 -1.98232 0
M  V30 9671 O 897.879 0.216026 -2.51574 0
M  V30 9672 C 899.192 -2.74877 -1.21915 0
M  V30 9673 C 900.74 -2.83393 -1.32882 0
M  V30 9674 C 901.215 -4.24223 -1.72624 0
M  V30 9675 N 902.706 -4.26913 -1.7972 0
M  V30 9676 C 903.441 -5.32824 -2.11863 0
M  V30 9677 N 902.937 -6.49008 -2.42405 0
M  V30 9678 N 904.73 -5.20221 -2.12901 0
M  V30 9679 H 896.881 -2.11284 0.217422 0
M  V30 9680 H 899.144 -0.947367 0.0346362 0
M  V30 9681 H 898.85 -3.48619 -0.464486 0
M  V30 9682 H 898.724 -3.0864 -2.16844 0
M  V30 9683 H 901.111 -2.09904 -2.07424 0
M  V30 9684 H 901.192 -2.53245 -0.360638 0
M  V30 9685 H 900.836 -4.98229 -0.986411 0
M  V30 9686 H 900.766 -4.51817 -2.70498 0
M  V30 9687 H 903.257 -3.4311 -1.58379 0
M  V30 9688 H 903.57 -7.25561 -2.66048 0
M  V30 9689 H 901.915 -6.52277 -2.39917 0
M  V30 9690 H 905.106 -4.28469 -1.885 0
M  V30 9691 H 905.279 -6.02861 -2.37619 0
M  V30 9692 N 898.685 0.775411 -1.37205 0
M  V30 9693 C 899.595 1.91967 -1.34855 0
M  V30 9694 C 900.611 1.72214 -0.248656 0
M  V30 9695 O 901.787 1.95512 -0.483421 0
M  V30 9696 C 898.852 3.27038 -1.15096 0
M  V30 9697 C 897.913 3.5947 -2.34691 0
M  V30 9698 C 897.146 4.88097 -2.15865 0
M  V30 9699 O 897.369 5.58871 -1.14102 0
M  V30 9700 O 896.303 5.19507 -3.03967 0
M  V30 9701 H 900.129 1.969 -2.31223 0
M  V30 9702 H 897.714 0.917647 -1.17897 0
M  V30 9703 H 899.596 4.07837 -1.0605 0
M  V30 9704 H 898.271 3.22965 -0.217999 0
M  V30 9705 H 897.178 2.7892 -2.49308 0
M  V30 9706 H 898.511 3.68282 -3.26541 0
M  V30 9707 N 900.163 1.21714 1.00117 0
M  V30 9708 C 901.412 1.03087 1.73367 0
M  V30 9709 C 901.725 -0.435532 1.90689 0
M  V30 9710 O 902.931 -0.741291 2.61184 0
M  V30 9711 C 901.387 1.79593 3.11888 0
M  V30 9712 C 900.995 3.30428 3.02525 0
M  V30 9713 C 902.739 1.69386 3.89241 0
M  V30 9714 C 900.646 3.99408 4.3615 0
M  V30 9715 H 899.576 0.382117 0.650002 0
M  V30 9716 H 902.227 1.45486 1.11831 0
M  V30 9717 H 900.609 1.29988 3.74058 0
M  V30 9718 H 901.783 3.87364 2.49571 0
M  V30 9719 H 900.098 3.4122 2.38659 0
M  V30 9720 H 902.695 2.18251 4.8813 0
M  V30 9721 H 903.038 0.652773 4.1115 0
M  V30 9722 H 903.571 2.16489 3.33733 0
M  V30 9723 H 900.31 5.03735 4.19442 0
M  V30 9724 H 899.83 3.47261 4.8905 0
M  V30 9725 H 901.509 4.04537 5.04934 0
M  V30 9726 N 901.641 -1.19671 1.02551 0
M  V30 9727 C 902.573 -2.22215 0.561517 0
M  V30 9728 C 903.586 -1.58751 -0.360821 0
M  V30 9729 O 904.775 -1.77802 -0.157749 0
M  V30 9730 C 901.875 -3.383 -0.201494 0
M  V30 9731 C 901.048 -4.3135 0.724952 0
M  V30 9732 C 900.107 -5.26199 0.00794334 0
M  V30 9733 O 899.133 -5.65665 0.633398 0
M  V30 9734 N 900.335 -5.66573 -1.26394 0
M  V30 9735 H 903.1 -2.6265 1.44343 0
M  V30 9736 H 900.661 -1.34303 0.904122 0
M  V30 9737 H 902.653 -3.98764 -0.690625 0
M  V30 9738 H 901.223 -2.96683 -0.98479 0
M  V30 9739 H 900.443 -3.6872 1.39423 0
M  V30 9740 H 901.731 -4.90433 1.35472 0
M  V30 9741 H 901.129 -5.36538 -1.79287 0
M  V30 9742 H 899.686 -6.29304 -1.69763 0
M  V30 9743 N 903.119 -0.802921 -1.35613 0
M  V30 9744 C 904.53 -0.443004 -1.81368 0
M  V30 9745 C 904.881 1.03459 -1.66706 0
M  V30 9746 O 904.006 1.80372 -1.19561 0
M  V30 9747 C 904.601 -0.797324 -3.29284 0
M  V30 9748 C 903.16 -0.490055 -3.73196 0
M  V30 9749 C 902.307 -1.02487 -2.57666 0
M  V30 9750 H 905.258 -0.994888 -1.23643 0
M  V30 9751 H 905.279 -0.0934638 -3.80385 0
M  V30 9752 H 904.791 -1.87278 -3.39924 0
M  V30 9753 H 902.892 0.576818 -3.68108 0
M  V30 9754 H 903.005 -1.02012 -4.68114 0
M  V30 9755 H 901.369 -0.44738 -2.5074 0
M  V30 9756 H 902.152 -2.10636 -2.71085 0
M  V30 9757 N 904.597 1.47463 -0.556102 0
M  V30 9758 C 906.008 1.86298 -0.122429 0
M  V30 9759 C 906.359 1.46285 1.30749 0
M  V30 9760 O 905.484 0.865405 1.98342 0
M  V30 9761 C 906.079 3.38115 -0.215407 0
M  V30 9762 C 904.638 3.76046 0.163223 0
M  V30 9763 C 903.785 2.71515 -0.563466 0
M  V30 9764 H 906.736 1.38996 -0.765888 0
M  V30 9765 H 906.757 3.76263 0.566271 0
M  V30 9766 H 906.269 3.67207 -1.25622 0
M  V30 9767 H 904.37 3.5257 1.20519 0
M  V30 9768 H 904.483 4.78705 -0.194568 0
M  V30 9769 H 902.847 2.54699 -0.00667879 0
M  V30 9770 H 903.63 3.03449 -1.60542 0
M  V30 9771 N 906.075 0.2925 1.54862 0
M  V30 9772 C 907.322 -0.319263 1.99967 0
M  V30 9773 C 907.65 -1.54547 1.18092 0
M  V30 9774 O 906.905 -1.94186 0.242969 0
M  V30 9775 C 907.204 -0.728674 3.49893 0
M  V30 9776 C 906.87 0.394836 4.49168 0
M  V30 9777 C 905.532 0.703289 4.76033 0
M  V30 9778 C 907.884 1.15103 5.08331 0
M  V30 9779 C 905.212 1.77121 5.59325 0
M  V30 9780 C 907.564 2.20881 5.92785 0
M  V30 9781 C 906.228 2.52342 6.17964 0
M  V30 9782 H 905.498 -0.116827 0.731733 0
M  V30 9783 H 908.145 0.40983 1.87063 0
M  V30 9784 H 906.45 -1.53772 3.60363 0
M  V30 9785 H 908.147 -1.21305 3.82212 0
M  V30 9786 H 904.737 0.144319 4.28357 0
M  V30 9787 H 908.921 0.92599 4.87585 0
M  V30 9788 H 904.177 2.01978 5.77074 0
M  V30 9789 H 908.351 2.79939 6.37657 0
M  V30 9790 H 905.978 3.35225 6.82296 0
M  V30 9791 N 907.553 -1.57587 0.0200696 0
M  V30 9792 C 908.5 -2.09667 -0.964791 0
M  V30 9793 C 909.47 -0.99664 -1.32877 0
M  V30 9794 O 910.655 -1.2703 -1.42366 0
M  V30 9795 C 907.795 -2.62101 -2.24493 0
M  V30 9796 C 906.908 -3.8608 -1.93821 0
M  V30 9797 C 906.043 -4.26939 -3.16064 0
M  V30 9798 C 905.082 -5.43701 -2.81169 0
M  V30 9799 N 904.219 -5.79759 -3.9601 0
M  V30 9800 H 909.059 -2.93538 -0.513751 0
M  V30 9801 H 906.596 -1.45096 -0.242 0
M  V30 9802 H 908.554 -2.90587 -2.99358 0
M  V30 9803 H 907.184 -1.81074 -2.6723 0
M  V30 9804 H 906.236 -3.64378 -1.09237 0
M  V30 9805 H 907.548 -4.71028 -1.64115 0
M  V30 9806 H 906.702 -4.56814 -3.99257 0
M  V30 9807 H 905.441 -3.40739 -3.48924 0
M  V30 9808 H 904.446 -5.13529 -1.96387 0
M  V30 9809 H 905.671 -6.31593 -2.49535 0
M  V30 9810 H 903.617 -4.96516 -4.28729 0
M  V30 9811 H 903.534 -6.59327 -3.69896 0
M  V30 9812 H 904.802 -6.14235 -4.79933 0
M  V30 9813 N 909.032 0.252966 -1.55557 0
M  V30 9814 C 910.443 0.822503 -1.67606 0
M  V30 9815 C 910.794 1.86265 -0.616411 0
M  V30 9816 O 909.919 2.15082 0.238447 0
M  V30 9817 C 910.514 1.49866 -3.03852 0
M  V30 9818 C 909.073 2.01597 -3.17861 0
M  V30 9819 C 908.22 0.864943 -2.63465 0
M  V30 9820 H 911.171 0.0288958 -1.58674 0
M  V30 9821 H 911.192 2.36646 -2.97958 0
M  V30 9822 H 910.704 0.741378 -3.80953 0
M  V30 9823 H 908.805 2.80224 -2.45571 0
M  V30 9824 H 908.918 2.21752 -4.24692 0
M  V30 9825 H 907.282 1.2638 -2.21134 0
M  V30 9826 H 908.065 0.120847 -3.43087 0
M  V30 9827 N 910.51 1.48831 0.518367 0
M  V30 9828 C 911.457 1.64216 1.62178 0
M  V30 9829 C 912.427 0.483942 1.58894 0
M  V30 9830 O 913.612 0.708857 1.77144 0
M  V30 9831 C 910.752 1.69867 3.00399 0
M  V30 9832 C 909.865 2.96875 3.1383 0
M  V30 9833 C 909 2.93613 4.42679 0
M  V30 9834 C 908.039 4.15276 4.4968 0
M  V30 9835 N 907.176 4.10024 5.69934 0
M  V30 9836 H 912.016 2.58439 1.48368 0
M  V30 9837 H 909.553 1.28154 0.722152 0
M  V30 9838 H 911.511 1.71124 3.8049 0
M  V30 9839 H 910.141 0.791249 3.12952 0
M  V30 9840 H 909.193 3.0531 2.26914 0
M  V30 9841 H 910.505 3.86863 3.14863 0
M  V30 9842 H 909.659 2.93337 5.31073 0
M  V30 9843 H 908.398 2.01375 4.44184 0
M  V30 9844 H 907.403 4.15816 3.59691 0
M  V30 9845 H 908.628 5.08687 4.49904 0
M  V30 9846 H 906.574 3.20613 5.72314 0
M  V30 9847 H 906.491 4.93728 5.72511 0
M  V30 9848 H 907.759 4.13824 6.60583 0
M  V30 9849 N 911.988 -0.768124 1.37614 0
M  V30 9850 C 913.234 -1.52907 1.33219 0
M  V30 9851 C 913.567 -1.94026 -0.0821218 0
M  V30 9852 O 912.842 -1.64345 -1.04023 0
M  V30 9853 C 913.125 -2.79164 2.27463 0
M  V30 9854 C 912.978 -2.44276 3.7769 0
M  V30 9855 C 914.297 -3.81115 2.20089 0
M  V30 9856 H 911.416 -0.554712 0.485246 0
M  V30 9857 H 914.058 -0.880911 1.68345 0
M  V30 9858 H 912.208 -3.34472 1.97639 0
M  V30 9859 H 913.88 -1.94855 4.18126 0
M  V30 9860 H 912.123 -1.76925 3.96081 0
M  V30 9861 H 912.794 -3.34544 4.39072 0
M  V30 9862 H 915.27 -3.35311 2.46386 0
M  V30 9863 H 914.146 -4.67174 2.88166 0
M  V30 9864 H 914.407 -4.25644 1.19498 0
M  V30 9865 N 913.466 -1.22244 -0.994698 0
M  V30 9866 C 914.706 -1.05747 -1.7492 0
M  V30 9867 C 915.07 0.4007 -1.87772 0
M  V30 9868 O 916.271 0.686469 -2.59887 0
M  V30 9869 C 914.542 -1.7471 -3.11787 0
M  V30 9870 S 916.101 -1.73604 -4.02998 0
M  V30 9871 H 912.919 -0.378731 -0.601734 0
M  V30 9872 H 915.521 -1.55155 -1.18942 0
M  V30 9873 H 914.225 -2.79972 -3.00073 0
M  V30 9874 H 913.756 -1.25525 -3.72836 0
M  V30 9875 H 915.771 -0.784445 -4.8996 0
M  V30 9876 N 914.944 1.19125 -1.03184 0
M  V30 9877 C 916.192 1.8851 -0.728587 0
M  V30 9878 C 916.513 1.80195 0.74531 0
M  V30 9879 O 915.783 1.21437 1.5372 0
M  V30 9880 H 914.363 0.69784 -0.266511 0
M  V30 9881 H 917.025 1.44607 -1.3067 0
M  V30 9882 H 916.121 2.9477 -1.02554 0
M  V30 9883 N 916.422 0.810101 1.35185 0
M  V30 9884 C 917.369 0.220927 2.2974 0
M  V30 9885 C 918.339 -0.647024 1.5298 0
M  V30 9886 O 919.524 -0.591367 1.81404 0
M  V30 9887 C 916.664 -0.62167 3.39454 0
M  V30 9888 C 915.777 0.267104 4.31173 0
M  V30 9889 C 914.912 -0.583833 5.27982 0
M  V30 9890 C 913.951 0.305123 6.11339 0
M  V30 9891 N 913.088 -0.505992 7.00274 0
M  V30 9892 H 917.928 1.03266 2.79536 0
M  V30 9893 H 915.465 0.520768 1.37573 0
M  V30 9894 H 917.423 -1.12539 4.01735 0
M  V30 9895 H 916.053 -1.39863 2.90926 0
M  V30 9896 H 915.105 0.88895 3.69867 0
M  V30 9897 H 916.417 0.951182 4.89647 0
M  V30 9898 H 915.571 -1.15254 5.95652 0
M  V30 9899 H 914.31 -1.30146 4.70014 0
M  V30 9900 H 913.315 0.886075 5.42613 0
M  V30 9901 H 914.54 1.02067 6.71386 0
M  V30 9902 H 912.486 -1.20753 6.4479 0
M  V30 9903 H 912.403 0.119966 7.55905 0
M  V30 9904 H 913.671 -1.05787 7.72288 0
M  V30 9905 N 917.9 -1.47166 0.563914 0
M  V30 9906 C 919.148 -2.02056 0.0422873 0
M  V30 9907 C 919.469 -1.43992 -1.31497 0
M  V30 9908 O 918.739 -0.617578 -1.85911 0
M  V30 9909 H 917.319 -0.746893 0.0126427 0
M  V30 9910 H 919.981 -1.80492 0.735441 0
M  V30 9911 H 919.077 -3.12073 -0.0408044 0
M  V30 9912 N 919.378 -0.300708 -1.54705 0
M  V30 9913 C 920.341 0.562648 -2.22187 0
M  V30 9914 C 921.341 1.06152 -1.20782 0
M  V30 9915 O 922.531 0.957596 -1.45519 0
M  V30 9916 C 919.663 1.77899 -2.908 0
M  V30 9917 H 920.856 -0.0269361 -2.99888 0
M  V30 9918 H 918.409 -0.0515412 -1.56215 0
M  V30 9919 H 919.144 2.40841 -2.17177 0
M  V30 9920 H 918.929 1.42892 -3.65136 0
M  V30 9921 H 920.419 2.39236 -3.42281 0
M  V30 9922 N 920.856 1.57574 -0.0284266 0
M  V30 9923 C 921.766 2.13637 0.96936 0
M  V30 9924 C 922.782 1.08845 1.35752 0
M  V30 9925 O 923.958 1.40899 1.43908 0
M  V30 9926 C 921.023 2.65179 2.2334 0
M  V30 9927 C 920.084 3.84683 1.90572 0
M  V30 9928 C 919.317 4.33758 3.1095 0
M  V30 9929 O 919.54 3.82009 4.23586 0
M  V30 9930 O 918.474 5.2561 2.93288 0
M  V30 9931 H 922.3 2.99169 0.52267 0
M  V30 9932 H 919.885 1.48159 0.192135 0
M  V30 9933 H 921.767 2.98402 2.97547 0
M  V30 9934 H 920.442 1.82731 2.67191 0
M  V30 9935 H 919.349 3.56386 1.13753 0
M  V30 9936 H 920.682 4.68292 1.51538 0
M  V30 9937 N 922.334 -0.244713 1.55689 0
M  V30 9938 C 923.282 -1.32276 1.91326 0
M  V30 9939 C 924.276 -1.49714 0.792589 0
M  V30 9940 O 925.482 -1.51163 0.977227 0
M  V30 9941 H 921.857 -0.442979 0.607679 0
M  V30 9942 H 923.828 -0.99486 2.81327 0
M  V30 9943 C 922.577 -2.67077 2.22633 0
M  V30 9944 H 921.9 -2.54458 3.08368 0
M  V30 9945 H 923.34 -3.41378 2.5147 0
M  V30 9946 C 921.799 -3.20335 1.04342 0
M  V30 9947 O 922.329 -4.00633 0.292543 0
M  V30 9948 N 920.535 -2.78392 0.833457 0
M  V30 9949 H 920.082 -2.13202 1.44577 0
M  V30 9950 H 920.04 -3.1437 0.0436713 0
M  V30 9951 N 923.813 -1.49104 -0.510467 0
M  V30 9952 C 925.06 -1.58112 -1.26518 0
M  V30 9953 C 925.388 -0.263603 -1.92705 0
M  V30 9954 O 924.643 0.747743 -1.80852 0
M  V30 9955 C 924.942 -2.68259 -2.36161 0
M  V30 9956 C 924.608 -4.10069 -1.87495 0
M  V30 9957 C 923.27 -4.48662 -1.73942 0
M  V30 9958 C 925.622 -4.98859 -1.5096 0
M  V30 9959 C 922.95 -5.73829 -1.22217 0
M  V30 9960 C 925.302 -6.24535 -1.00691 0
M  V30 9961 C 923.966 -6.61967 -0.857691 0
M  V30 9962 H 923.236 -0.578574 -0.462962 0
M  V30 9963 H 925.883 -1.82899 -0.567475 0
M  V30 9964 H 924.188 -2.37407 -3.11681 0
M  V30 9965 H 925.885 -2.7244 -2.9424 0
M  V30 9966 H 922.475 -3.79601 -1.99001 0
M  V30 9967 H 926.659 -4.69706 -1.60282 0
M  V30 9968 H 921.915 -6.01539 -1.09368 0
M  V30 9969 H 926.089 -6.9272 -0.71498 0
M  V30 9970 H 923.716 -7.58839 -0.454702 0
M  V30 9971 N 925.291 0.760815 -1.38019 0
M  V30 9972 C 926.568 1.5098 -1.24356 0
M  V30 9973 C 926.948 2.10507 0.158169 0
M  V30 9974 O 926.296 1.96455 1.16695 0
M  V30 9975 C 926.506 2.58195 -2.34811 0
M  V30 9976 C 927.854 3.25297 -2.72886 0
M  V30 9977 O 928.878 2.68496 -2.34069 0
M  V30 9978 O 927.737 4.28018 -3.39799 0
M  V30 9979 H 924.831 0.66921 -0.485888 0
M  V30 9980 H 927.377 0.796844 -1.49828 0
M  V30 9981 H 926.149 2.12406 -3.28633 0
M  V30 9982 H 925.772 3.37079 -2.10864 0
M  V30 9983 N 926.769 1.22769 0.988202 0
M  V30 9984 C 927.716 1.00195 2.07917 0
M  V30 9985 C 928.686 -0.0779391 1.65917 0
M  V30 9986 O 929.871 0.0726005 1.90662 0
M  V30 9987 C 927.011 0.590853 3.40004 0
M  V30 9988 C 926.124 1.74202 3.9532 0
M  V30 9989 C 925.259 1.27846 5.15586 0
M  V30 9990 C 924.298 2.40087 5.63049 0
M  V30 9991 N 923.435 1.94744 6.74551 0
M  V30 9992 H 928.275 1.93581 2.26562 0
M  V30 9993 H 925.812 0.96448 1.11068 0
M  V30 9994 H 927.77 0.333653 4.15864 0
M  V30 9995 H 926.4 -0.306007 3.21346 0
M  V30 9996 H 925.452 2.11342 3.16289 0
M  V30 9997 H 926.764 2.58612 4.26522 0
M  V30 9998 H 925.918 0.978919 5.9875 0
M  V30 9999 H 924.657 0.404617 4.86019 0
M  V30 10000 H 923.662 2.70824 4.78471 0
M  V30 10001 H 924.887 3.27995 5.9464 0
M  V30 10002 H 922.833 1.09729 6.46758 0
M  V30 10003 H 922.75 2.72718 7.05096 0
M  V30 10004 H 924.018 1.67873 7.61209 0
M  V30 10005 N 928.247 -1.18576 1.03814 0
M  V30 10006 C 929.494 -1.88493 0.740036 0
M  V30 10007 C 929.822 -1.80198 -0.732056 0
M  V30 10008 O 929.077 -1.19509 -1.54971 0
M  V30 10009 C 929.376 -3.38448 1.14837 0
M  V30 10010 C 929.042 -3.66947 2.62031 0
M  V30 10011 C 927.704 -3.74435 3.02244 0
M  V30 10012 C 930.056 -3.79534 3.57217 0
M  V30 10013 C 927.384 -3.91986 4.36536 0
M  V30 10014 C 929.736 -3.986 4.91223 0
M  V30 10015 C 928.4 -4.04323 5.31111 0
M  V30 10016 H 927.67 -0.689746 0.270798 0
M  V30 10017 H 930.317 -1.40364 1.3027 0
M  V30 10018 H 928.622 -3.88539 0.504472 0
M  V30 10019 H 930.319 -3.90882 0.89511 0
M  V30 10020 H 926.909 -3.61734 2.29883 0
M  V30 10021 H 931.093 -3.73083 3.27296 0
M  V30 10022 H 926.349 -3.9466 4.66962 0
M  V30 10023 H 930.523 -4.07281 5.64885 0
M  V30 10024 H 928.15 -4.17676 6.35178 0
M  V30 10025 N 929.725 -0.817259 -1.34754 0
M  V30 10026 C 930.972 -0.402648 -1.98457 0
M  V30 10027 C 931.3 1.03287 -1.64809 0
M  V30 10028 O 930.555 1.73316 -0.908851 0
M  V30 10029 C 930.854 -0.5453 -3.53216 0
M  V30 10030 C 930.52 -1.9457 -4.06759 0
M  V30 10031 C 929.182 -2.32881 -4.21094 0
M  V30 10032 C 931.534 -2.86141 -4.35629 0
M  V30 10033 C 928.862 -3.62108 -4.61622 0
M  V30 10034 C 931.214 -4.14826 -4.776 0
M  V30 10035 C 929.878 -4.53121 -4.9014 0
M  V30 10036 H 929.148 -0.147339 -0.726204 0
M  V30 10037 H 931.795 -1.04011 -1.60791 0
M  V30 10038 H 930.1 0.175576 -3.91406 0
M  V30 10039 H 931.797 -0.205112 -4.00475 0
M  V30 10040 H 928.387 -1.6381 -3.96061 0
M  V30 10041 H 932.571 -2.57788 -4.24098 0
M  V30 10042 H 927.827 -3.91613 -4.69521 0
M  V30 10043 H 932.001 -4.85874 -4.98899 0
M  V30 10044 H 929.628 -5.53307 -5.21302 0
M  V30 10045 N 931.203 1.46865 -0.571711 0
M  V30 10046 C 932.431 2.06818 -0.0583975 0
M  V30 10047 C 932.846 1.42218 1.24175 0
M  V30 10048 O 932.203 0.523655 1.74826 0
M  V30 10049 C 932.254 3.61281 0.125673 0
M  V30 10050 O 931.975 4.23462 -1.123 0
M  V30 10051 C 933.476 4.38137 0.674604 0
M  V30 10052 H 930.696 0.668948 -0.052438 0
M  V30 10053 H 933.24 1.88656 -0.789251 0
M  V30 10054 H 931.395 3.78908 0.806707 0
M  V30 10055 H 931.809 5.16192 -0.929869 0
M  V30 10056 H 933.283 5.46845 0.752626 0
M  V30 10057 H 933.76 4.05419 1.68915 0
M  V30 10058 H 934.366 4.2529 0.0287979 0
M  V30 10059 N 932.681 0.308908 1.54543 0
M  V30 10060 C 934.097 -0.0442273 1.59539 0
M  V30 10061 C 934.297 -1.51743 1.32575 0
M  V30 10062 O 933.353 -2.27134 1.10302 0
M  V30 10063 C 934.666 0.360826 2.98527 0
M  V30 10064 C 936.214 0.310252 3.11459 0
M  V30 10065 C 936.689 0.690246 4.52769 0
M  V30 10066 N 938.18 0.643084 4.58714 0
M  V30 10067 C 938.915 0.909483 5.66141 0
M  V30 10068 N 938.411 1.24226 6.81572 0
M  V30 10069 N 940.204 0.836018 5.55848 0
M  V30 10070 H 932.355 1.26893 1.70329 0
M  V30 10071 H 934.618 0.514986 0.795923 0
M  V30 10072 H 934.324 1.38669 3.23209 0
M  V30 10073 H 934.198 -0.281563 3.76148 0
M  V30 10074 H 936.585 -0.706375 2.86521 0
M  V30 10075 H 936.666 0.987373 2.35976 0
M  V30 10076 H 936.31 1.70472 4.78437 0
M  V30 10077 H 936.24 -0.00903075 5.26599 0
M  V30 10078 H 938.731 0.397138 3.75807 0
M  V30 10079 H 939.044 1.4313 7.5943 0
M  V30 10080 H 937.389 1.28038 6.83104 0
M  V30 10081 H 940.58 0.575637 4.64547 0
M  V30 10082 H 940.753 1.047 6.39486 0
M  V30 10083 N 934.159 -1.57557 0.0367827 0
M  V30 10084 C 935.407 -1.91735 -0.63892 0
M  V30 10085 C 935.728 -0.914515 -1.72226 0
M  V30 10086 O 934.998 0.0428248 -1.95853 0
M  V30 10087 H 933.578 -0.707738 -0.23899 0
M  V30 10088 H 936.24 -1.94708 0.0863931 0
M  V30 10089 H 935.336 -2.92568 -1.08676 0
M  V30 10090 N 935.637 0.236453 -1.55816 0
M  V30 10091 C 936.569 1.31602 -1.87653 0
M  V30 10092 C 937.582 1.43782 -0.763584 0
M  V30 10093 O 938.771 1.44945 -1.04178 0
M  V30 10094 C 935.871 2.69342 -2.05689 0
M  V30 10095 C 935.044 2.79298 -3.36617 0
M  V30 10096 C 934.103 3.97952 -3.44268 0
M  V30 10097 O 933.129 3.86989 -4.17406 0
M  V30 10098 N 934.331 5.11594 -2.74321 0
M  V30 10099 H 937.096 1.04623 -2.80845 0
M  V30 10100 H 934.657 0.426534 -1.5618 0
M  V30 10101 H 936.649 3.47074 -2.08138 0
M  V30 10102 H 935.219 2.88984 -1.19192 0
M  V30 10103 H 934.439 1.8816 -3.46395 0
M  V30 10104 H 935.727 2.82908 -4.22895 0
M  V30 10105 H 935.125 5.23394 -2.14651 0
M  V30 10106 H 933.682 5.87422 -2.8245 0
M  V30 10107 N 937.115 1.49373 0.502552 0
M  V30 10108 C 938.526 1.52 1.0841 0
M  V30 10109 C 938.877 0.305317 1.9381 0
M  V30 10110 O 938.002 -0.585023 2.08342 0
M  V30 10111 C 938.597 2.75437 1.97281 0
M  V30 10112 C 937.156 2.80848 2.50602 0
M  V30 10113 C 936.303 2.45894 1.28186 0
M  V30 10114 H 939.254 1.56092 0.286533 0
M  V30 10115 H 939.275 2.55511 2.81947 0
M  V30 10116 H 938.787 3.63827 1.35098 0
M  V30 10117 H 936.888 1.96735 3.16427 0
M  V30 10118 H 937.001 3.82979 2.8786 0
M  V30 10119 H 935.365 1.97639 1.60657 0
M  V30 10120 H 936.148 3.36556 0.677139 0
M  V30 10121 N 938.594 -0.753485 1.38421 0
M  V30 10122 C 939.84 -1.51485 1.34834 0
M  V30 10123 C 940.173 -1.94102 -0.0615381 0
M  V30 10124 O 939.448 -1.65439 -1.02274 0
M  V30 10125 C 939.731 -2.76736 2.30411 0
M  V30 10126 C 939.584 -2.40256 3.80259 0
M  V30 10127 C 940.903 -3.7876 2.24119 0
M  V30 10128 H 938.022 -0.549534 0.491102 0
M  V30 10129 H 940.664 -0.863006 1.6927 0
M  V30 10130 H 938.814 -3.32357 2.01175 0
M  V30 10131 H 940.486 -1.90409 4.20169 0
M  V30 10132 H 938.729 -1.72714 3.97935 0
M  V30 10133 H 939.4 -3.29869 4.42595 0
M  V30 10134 H 941.876 -3.32679 2.49928 0
M  V30 10135 H 940.752 -4.64092 2.93104 0
M  V30 10136 H 941.013 -4.24352 1.24006 0
M  V30 10137 N 940.072 -1.23292 -0.981677 0
M  V30 10138 C 941.002 -1.03738 -2.09191 0
M  V30 10139 C 941.983 0.0453041 -1.7004 0
M  V30 10140 O 943.168 -0.119092 -1.93834 0
M  V30 10141 C 940.298 -0.626426 -3.41604 0
M  V30 10142 C 939.252 -1.65631 -3.94652 0
M  V30 10143 C 938.578 -1.10084 -5.23245 0
M  V30 10144 C 939.878 -3.04903 -4.24066 0
M  V30 10145 H 941.572 -1.966 -2.25807 0
M  V30 10146 H 939.118 -0.946656 -1.0851 0
M  V30 10147 H 941.071 -0.476689 -4.18695 0
M  V30 10148 H 939.795 0.337873 -3.24848 0
M  V30 10149 H 938.454 -1.79402 -3.19704 0
M  V30 10150 H 938.102 -0.127562 -5.02838 0
M  V30 10151 H 937.802 -1.78896 -5.59705 0
M  V30 10152 H 939.326 -0.962928 -6.02959 0
M  V30 10153 H 940.74 -2.94441 -4.91912 0
M  V30 10154 H 939.137 -3.70941 -4.71724 0
M  V30 10155 H 940.207 -3.53991 -3.31389 0
M  V30 10156 N 941.55 1.18024 -1.04442 0
M  V30 10157 C 942.778 1.92032 -0.770161 0
M  V30 10158 C 943.193 1.76391 0.673181 0
M  V30 10159 O 942.55 1.09604 1.45922 0
M  V30 10160 C 942.601 3.43328 -1.13173 0
M  V30 10161 O 942.322 3.5848 -2.51841 0
M  V30 10162 C 943.823 4.34427 -0.882523 0
M  V30 10163 H 941.043 0.609518 -0.280586 0
M  V30 10164 H 943.587 1.49711 -1.39308 0
M  V30 10165 H 941.742 3.83423 -0.553704 0
M  V30 10166 H 942.156 4.52166 -2.65794 0
M  V30 10167 H 943.63 5.39123 -1.18533 0
M  V30 10168 H 944.107 4.3882 0.18257 0
M  V30 10169 H 944.713 4.00035 -1.44403 0
M  V30 10170 N 943.028 0.824394 1.34319 0
M  V30 10171 C 944.439 0.471802 1.8064 0
M  V30 10172 C 944.79 -1.00793 1.6833 0
M  V30 10173 O 943.915 -1.78447 1.22416 0
M  V30 10174 C 944.51 0.849609 3.27974 0
M  V30 10175 C 943.069 0.549365 3.72369 0
M  V30 10176 C 942.216 1.06573 2.56003 0
M  V30 10177 H 945.167 1.01443 1.22045 0
M  V30 10178 H 945.188 0.153968 3.80188 0
M  V30 10179 H 944.7 1.92663 3.36902 0
M  V30 10180 H 942.801 -0.518182 3.68979 0
M  V30 10181 H 942.914 1.09446 4.66432 0
M  V30 10182 H 941.278 0.487214 2.49997 0
M  V30 10183 H 942.061 2.14923 2.677 0
M  V30 10184 N 944.506 -1.46559 0.579492 0
M  V30 10185 C 945.917 -1.8608 0.152052 0
M  V30 10186 C 946.268 -1.48346 -1.28405 0
M  V30 10187 O 945.393 -0.89685 -1.9694 0
M  V30 10188 C 945.988 -3.37729 0.269171 0
M  V30 10189 C 944.547 -3.76258 -0.103376 0
M  V30 10190 C 943.694 -2.70584 0.60659 0
M  V30 10191 H 946.645 -1.3776 0.787904 0
M  V30 10192 H 946.666 -3.77116 -0.506339 0
M  V30 10193 H 946.178 -3.65162 1.31448 0
M  V30 10194 H 944.279 -3.54443 -1.14895 0
M  V30 10195 H 944.392 -4.78335 0.270701 0
M  V30 10196 H 942.756 -2.54656 0.0471984 0
M  V30 10197 H 943.539 -3.00856 1.65349 0
M  V30 10198 N 945.984 -0.3171 -1.54377 0
M  V30 10199 C 947.261 0.341348 -1.92598 0
M  V30 10200 C 947.641 1.70402 -1.24605 0
M  V30 10201 O 946.989 2.25191 -0.387448 0
M  V30 10202 C 947.199 0.440003 -3.46215 0
M  V30 10203 C 948.547 0.703327 -4.18734 0
M  V30 10204 O 949.571 0.523181 -3.52337 0
M  V30 10205 O 948.43 1.05042 -5.3631 0
M  V30 10206 H 945.524 0.193696 -0.803997 0
M  V30 10207 H 948.07 -0.366341 -1.65699 0
M  V30 10208 H 946.842 -0.517299 -3.87866 0
M  V30 10209 H 946.465 1.19553 -3.792 0
M  V30 10210 N 947.462 1.57535 -0.0451378 0
M  V30 10211 C 948.394 2.08109 0.960372 0
M  V30 10212 C 949.407 1.0077 1.27864 0
M  V30 10213 O 950.596 1.28351 1.24049 0
M  V30 10214 C 947.696 2.50414 2.28355 0
M  V30 10215 C 946.869 3.8102 2.14808 0
M  V30 10216 C 945.928 4.09702 3.30198 0
M  V30 10217 O 944.954 4.79715 3.0637 0
M  V30 10218 N 946.156 3.61138 4.54489 0
M  V30 10219 H 948.921 2.94999 0.528752 0
M  V30 10220 H 946.482 1.61283 0.141248 0
M  V30 10221 H 948.474 2.66683 3.04405 0
M  V30 10222 H 947.044 1.68805 2.63104 0
M  V30 10223 H 946.264 3.74392 1.23387 0
M  V30 10224 H 947.552 4.66559 2.02978 0
M  V30 10225 H 946.95 3.04527 4.76739 0
M  V30 10226 H 945.507 3.82656 5.27653 0
M  V30 10227 N 948.94 -0.228186 1.55939 0
M  V30 10228 C 949.87 -1.28607 1.94891 0
M  V30 10229 C 950.851 -1.49236 0.816245 0
M  V30 10230 O 952.036 -1.61531 1.07803 0
M  V30 10231 C 949.166 -2.63719 2.25986 0
M  V30 10232 C 948.12 -2.57757 3.4168 0
M  V30 10233 C 947.446 -3.96837 3.58364 0
M  V30 10234 C 948.746 -2.13116 4.76843 0
M  V30 10235 H 950.44 -0.962531 2.83506 0
M  V30 10236 H 947.986 -0.461577 1.36402 0
M  V30 10237 H 949.939 -3.37878 2.51826 0
M  V30 10238 H 948.663 -2.97747 1.34217 0
M  V30 10239 H 947.322 -1.86055 3.15878 0
M  V30 10240 H 946.97 -4.28162 2.63982 0
M  V30 10241 H 946.67 -3.93731 4.36176 0
M  V30 10242 H 948.194 -4.72668 3.86545 0
M  V30 10243 H 949.608 -2.77015 5.01932 0
M  V30 10244 H 948.005 -2.21083 5.57891 0
M  V30 10245 H 949.075 -1.08326 4.72645 0
M  V30 10246 N 950.418 -1.49637 -0.494624 0
M  V30 10247 C 951.664 -1.59681 -1.25019 0
M  V30 10248 C 951.997 -0.285511 -1.9209 0
M  V30 10249 O 951.272 0.711398 -1.81023 0
M  V30 10250 C 951.555 -2.76058 -2.31222 0
M  V30 10251 C 951.408 -4.17002 -1.68611 0
M  V30 10252 C 952.727 -2.88056 -3.32734 0
M  V30 10253 H 949.846 -0.581209 -0.453172 0
M  V30 10254 H 952.488 -1.81944 -0.547391 0
M  V30 10255 H 950.638 -2.57207 -2.91164 0
M  V30 10256 H 952.31 -4.47385 -1.12447 0
M  V30 10257 H 950.553 -4.22352 -0.989991 0
M  V30 10258 H 951.224 -4.94316 -2.45674 0
M  V30 10259 H 953.7 -3.05237 -2.82789 0
M  V30 10260 H 952.576 -3.71151 -4.04399 0
M  V30 10261 H 952.837 -1.97676 -3.95445 0
M  V30 10262 N 951.896 0.746133 -1.38819 0
M  V30 10263 C 953.145 1.50085 -1.34749 0
M  V30 10264 C 953.458 1.95516 0.0574786 0
M  V30 10265 O 954.664 2.70601 0.22073 0
M  V30 10266 C 953.12 2.71141 -2.36665 0
M  V30 10267 C 952.728 2.32706 -3.82821 0
M  V30 10268 C 954.472 3.49005 -2.41652 0
M  V30 10269 C 952.379 3.50418 -4.76405 0
M  V30 10270 H 951.309 0.563563 -0.500912 0
M  V30 10271 H 953.96 0.814951 -1.6441 0
M  V30 10272 H 952.342 3.4175 -2.00058 0
M  V30 10273 H 953.516 1.69715 -4.28408 0
M  V30 10274 H 951.831 1.67959 -3.81023 0
M  V30 10275 H 954.428 4.36541 -3.08766 0
M  V30 10276 H 954.771 3.90687 -1.43769 0
M  V30 10277 H 955.304 2.85416 -2.77097 0
M  V30 10278 H 952.043 3.13795 -5.75511 0
M  V30 10279 H 951.563 4.12426 -4.35505 0
M  V30 10280 H 953.242 4.16901 -4.94775 0
M  V30 10281 N 953.375 1.23811 0.975125 0
M  V30 10282 C 954.338 1.02505 2.05001 0
M  V30 10283 C 955.338 -0.0150084 1.60793 0
M  V30 10284 O 956.528 0.225246 1.72738 0
M  V30 10285 C 953.66 0.552087 3.364 0
M  V30 10286 H 954.853 1.979 2.25335 0
M  V30 10287 H 952.406 1.05929 1.1493 0
M  V30 10288 H 953.141 -0.405394 3.21756 0
M  V30 10289 H 952.926 1.30267 3.69828 0
M  V30 10290 H 954.416 0.423828 4.15444 0
M  V30 10291 N 954.853 -1.17469 1.05066 0
M  V30 10292 C 955.801 -2.23495 0.644418 0
M  V30 10293 C 956.795 -1.66081 -0.333685 0
M  V30 10294 O 958.001 -1.78887 -0.199886 0
M  V30 10295 H 954.376 -0.727546 0.190214 0
M  V30 10296 H 956.347 -2.55058 1.5488 0
M  V30 10297 C 955.096 -3.47684 0.0338051 0
M  V30 10298 H 954.419 -3.92167 0.777513 0
M  V30 10299 H 955.859 -4.23464 -0.213086 0
M  V30 10300 C 954.318 -3.14067 -1.21915 0
M  V30 10301 O 954.848 -3.28728 -2.3087 0
M  V30 10302 N 953.054 -2.68304 -1.11631 0
M  V30 10303 H 952.601 -2.56574 -0.229673 0
M  V30 10304 H 952.559 -2.46184 -1.95553 0
M  V30 10305 N 956.331 -0.831506 -1.3388 0
M  V30 10306 C 957.58 -0.420028 -1.97278 0
M  V30 10307 C 957.893 1.02441 -1.66629 0
M  V30 10308 O 959.099 1.54021 -2.23584 0
M  V30 10309 C 957.555 -0.700116 -3.53025 0
M  V30 10310 C 957.163 -2.15874 -3.92559 0
M  V30 10311 C 958.907 -0.355226 -4.23011 0
M  V30 10312 C 956.814 -2.38327 -5.41252 0
M  V30 10313 H 955.744 -0.153326 -0.738246 0
M  V30 10314 H 958.395 -1.01906 -1.52602 0
M  V30 10315 H 956.777 -0.0308044 -3.95988 0
M  V30 10316 H 957.951 -2.86792 -3.60675 0
M  V30 10317 H 956.266 -2.4659 -3.35533 0
M  V30 10318 H 958.863 -0.500701 -5.32351 0
M  V30 10319 H 959.206 0.70111 -4.10354 0
M  V30 10320 H 959.739 -0.979466 -3.85553 0
M  V30 10321 H 956.478 -3.42498 -5.58906 0
M  V30 10322 H 955.998 -1.71962 -5.74621 0
M  V30 10323 H 957.677 -2.21113 -6.08045 0
M  V30 10324 N 957.809 1.4625 -0.587256 0
M  V30 10325 C 959.086 1.95599 -0.00750181 0
M  V30 10326 C 959.466 1.52989 1.45457 0
M  V30 10327 O 958.814 0.782731 2.14676 0
M  V30 10328 C 959.024 3.48513 -0.184309 0
M  V30 10329 C 960.372 4.24565 -0.0544972 0
M  V30 10330 O 961.396 3.5602 -0.113378 0
M  V30 10331 O 960.255 5.46445 0.0774075 0
M  V30 10332 H 957.349 0.825649 0.0472495 0
M  V30 10333 H 959.895 1.56512 -0.655893 0
M  V30 10334 H 958.667 3.72428 -1.20053 0
M  V30 10335 H 958.29 3.9444 0.500301 0
M  V30 10336 N 959.287 0.325282 1.54207 0
M  V30 10337 C 960.219 -0.57395 2.21897 0
M  V30 10338 C 961.232 -1.0785 1.21952 0
M  V30 10339 O 962.421 -0.991782 1.48411 0
M  V30 10340 C 959.521 -1.8005 2.87115 0
M  V30 10341 C 958.694 -1.43435 4.13213 0
M  V30 10342 C 957.753 -2.51862 4.62009 0
M  V30 10343 O 956.779 -2.15934 5.26651 0
M  V30 10344 N 957.981 -3.8282 4.36382 0
M  V30 10345 H 960.746 0.00566918 2.99699 0
M  V30 10346 H 958.307 0.148563 1.61217 0
M  V30 10347 H 960.299 -2.51981 3.16682 0
M  V30 10348 H 958.869 -2.28792 2.13009 0
M  V30 10349 H 958.089 -0.546598 3.90392 0
M  V30 10350 H 959.377 -1.16544 4.95273 0
M  V30 10351 H 958.775 -4.14807 3.84645 0
M  V30 10352 H 957.332 -4.50976 4.70599 0
M  V30 10353 N 960.765 -1.57509 0.0534917 0
M  V30 10354 C 961.99 -1.97511 -0.632794 0
M  V30 10355 C 962.415 -0.930947 -1.63447 0
M  V30 10356 O 961.773 0.105558 -1.80992 0
M  V30 10357 C 961.821 -3.3658 -1.29407 0
M  V30 10358 O 960.925 -3.3467 -2.40977 0
M  V30 10359 H 960.266 -0.643349 -0.16431 0
M  V30 10360 H 962.796 -2.04232 0.12258 0
M  V30 10361 H 962.806 -3.73359 -1.64521 0
M  V30 10362 H 961.481 -4.12113 -0.559976 0
M  V30 10363 H 960.058 -3.09639 -2.07793 0
M  V30 10364 N 962.243 0.219913 -1.56058 0
M  V30 10365 C 963.52 0.968493 -1.6994 0
M  V30 10366 C 963.9 2.02358 -0.601219 0
M  V30 10367 O 963.248 2.25121 0.391534 0
M  V30 10368 C 963.458 1.57745 -3.11316 0
M  V30 10369 C 964.806 2.06908 -3.70775 0
M  V30 10370 O 965.83 1.67636 -3.14288 0
M  V30 10371 O 964.689 2.79096 -4.69859 0
M  V30 10372 H 961.783 0.452521 -0.692209 0
M  V30 10373 H 964.329 0.211566 -1.68376 0
M  V30 10374 H 963.101 0.815687 -3.82704 0
M  V30 10375 H 962.724 2.39987 -3.17005 0
M  V30 10376 N 963.721 1.49897 0.486681 0
M  V30 10377 C 964.968 1.60105 1.23986 0
M  V30 10378 C 965.296 0.294228 1.92262 0
M  V30 10379 O 964.551 -0.718876 1.82018 0
M  V30 10380 C 964.85 2.71982 2.31863 0
M  V30 10381 C 964.516 4.13 1.80948 0
M  V30 10382 C 963.178 4.51373 1.66782 0
M  V30 10383 C 965.53 5.01198 1.43004 0
M  V30 10384 C 962.858 5.75701 1.13072 0
M  V30 10385 C 965.21 6.26058 0.90742 0
M  V30 10386 C 963.874 6.63247 0.752269 0
M  V30 10387 H 963.144 0.585866 0.453698 0
M  V30 10388 H 965.791 1.83778 0.538305 0
M  V30 10389 H 964.096 2.42336 3.07865 0
M  V30 10390 H 965.793 2.77087 2.89869 0
M  V30 10391 H 962.383 3.82718 1.92937 0
M  V30 10392 H 966.567 4.72196 1.52789 0
M  V30 10393 H 961.823 6.03202 0.997842 0
M  V30 10394 H 965.997 6.9377 0.604684 0
M  V30 10395 H 963.624 7.59466 0.33392 0
M  V30 10396 N 965.199 -0.738761 1.39212 0
M  V30 10397 C 966.109 -1.88324 1.39897 0
M  V30 10398 C 967.125 -1.71494 0.294229 0
M  V30 10399 O 968.301 -1.94162 0.535087 0
M  V30 10400 C 965.366 -3.23871 1.23726 0
M  V30 10401 C 964.427 -3.53121 2.44139 0
M  V30 10402 C 963.66 -4.82202 2.2873 0
M  V30 10403 O 963.883 -5.55649 1.28879 0
M  V30 10404 O 962.817 -5.11265 3.17634 0
M  V30 10405 H 966.643 -1.90701 2.36362 0
M  V30 10406 H 964.228 -0.886067 1.20288 0
M  V30 10407 H 966.11 -4.04882 1.16826 0
M  V30 10408 H 964.785 -3.22274 0.303551 0
M  V30 10409 H 963.692 -2.72212 2.56615 0
M  V30 10410 H 965.025 -3.59495 3.36191 0
M  V30 10411 N 966.677 -1.24326 -0.968545 0
M  V30 10412 C 967.925 -1.08032 -1.70803 0
M  V30 10413 C 968.246 0.381728 -1.91227 0
M  V30 10414 O 967.516 1.27253 -1.48942 0
M  V30 10415 H 966.096 -0.396777 -0.632912 0
M  V30 10416 H 968.758 -1.56232 -1.16523 0
M  V30 10417 H 967.854 -1.57769 -2.69287 0
M  V30 10418 N 968.156 1.1691 -1.05688 0
M  V30 10419 C 969.403 1.87292 -0.76993 0
M  V30 10420 C 969.731 1.81339 0.703295 0
M  V30 10421 O 968.986 1.21959 1.5305 0
M  V30 10422 C 969.285 3.36578 -1.20207 0
M  V30 10423 C 968.951 3.62732 -2.67836 0
M  V30 10424 C 967.613 3.69579 -3.08163 0
M  V30 10425 C 969.965 3.73803 -3.63209 0
M  V30 10426 C 967.293 3.84992 -4.42717 0
M  V30 10427 C 969.645 3.90735 -4.97503 0
M  V30 10428 C 968.309 3.95823 -5.37476 0
M  V30 10429 H 967.579 0.68535 -0.281737 0
M  V30 10430 H 970.226 1.38274 -1.32486 0
M  V30 10431 H 968.531 3.87687 -0.566222 0
M  V30 10432 H 970.228 3.89409 -0.957183 0
M  V30 10433 H 966.818 3.58031 -2.35609 0
M  V30 10434 H 971.002 3.67829 -3.3319 0
M  V30 10435 H 966.258 3.87181 -4.73182 0
M  V30 10436 H 970.432 3.98243 -5.71293 0
M  V30 10437 H 968.059 4.07518 -6.41742 0
M  V30 10438 N 969.634 0.838594 1.33437 0
M  V30 10439 C 970.859 0.446701 2.02532 0
M  V30 10440 C 971.284 -0.944275 1.62681 0
M  V30 10441 O 970.642 -1.61733 0.81927 0
M  V30 10442 C 970.69 0.574794 3.55989 0
M  V30 10443 O 969.794 -0.399063 4.10465 0
M  V30 10444 H 969.135 0.181637 0.638674 0
M  V30 10445 H 971.665 1.13335 1.70342 0
M  V30 10446 H 971.675 0.456339 4.0544 0
M  V30 10447 H 970.35 1.58921 3.8434 0
M  V30 10448 H 968.927 -0.238187 3.72139 0
M  V30 10449 N 971.112 -1.45937 0.595003 0
M  V30 10450 C 972.342 -2.06399 0.0911607 0
M  V30 10451 C 972.75 -1.44236 -1.22444 0
M  V30 10452 O 972.093 -0.546265 -1.7539 0
M  V30 10453 C 972.155 -3.59242 -0.136079 0
M  V30 10454 C 971.819 -4.43668 1.09579 0
M  V30 10455 C 972.816 -4.79437 2.01088 0
M  V30 10456 C 970.501 -4.84616 1.32109 0
M  V30 10457 C 972.495 -5.54995 3.13464 0
M  V30 10458 C 970.182 -5.5993 2.44788 0
M  V30 10459 C 971.18 -5.95035 3.35294 0
M  V30 10460 O 970.868 -6.68825 4.46014 0
M  V30 10461 H 970.6 -0.673316 0.0601779 0
M  V30 10462 H 973.154 -1.88365 0.819005 0
M  V30 10463 H 971.384 -3.75629 -0.918676 0
M  V30 10464 H 973.073 -4.0159 -0.589954 0
M  V30 10465 H 973.839 -4.48371 1.84902 0
M  V30 10466 H 969.718 -4.56735 0.625662 0
M  V30 10467 H 973.262 -5.82314 3.84131 0
M  V30 10468 H 969.159 -5.90411 2.60931 0
M  V30 10469 H 969.927 -6.87262 4.44537 0
M  V30 10470 N 972.59 -0.333456 -1.54032 0
M  V30 10471 C 973.836 0.266527 -2.01041 0
M  V30 10472 C 974.169 1.51006 -1.2211 0
M  V30 10473 O 973.444 1.92078 -0.306016 0
M  V30 10474 C 973.727 0.59078 -3.55221 0
M  V30 10475 C 973.58 -0.664143 -4.4487 0
M  V30 10476 C 974.899 1.40447 -4.17088 0
M  V30 10477 H 972.018 0.0953979 -0.7308 0
M  V30 10478 H 974.66 -0.451995 -1.84545 0
M  V30 10479 H 972.81 1.20292 -3.69408 0
M  V30 10480 H 974.482 -1.30227 -4.42537 0
M  V30 10481 H 972.725 -1.29106 -4.14143 0
M  V30 10482 H 973.396 -0.392664 -5.50602 0
M  V30 10483 H 975.872 0.886946 -4.06537 0
M  V30 10484 H 974.748 1.6001 -5.2506 0
M  V30 10485 H 975.009 2.40357 -3.71054 0
M  V30 10486 N 974.068 1.57479 -0.061844 0
M  V30 10487 C 975.016 2.13346 0.926629 0
M  V30 10488 C 976.01 1.06787 1.31502 0
M  V30 10489 O 977.216 1.25181 1.29343 0
M  V30 10490 H 973.591 0.682046 0.316729 0
M  V30 10491 H 975.562 2.95279 0.430424 0
M  V30 10492 C 974.311 2.70198 2.18834 0
M  V30 10493 H 973.634 3.51859 1.89829 0
M  V30 10494 H 975.074 3.12897 2.86132 0
M  V30 10495 C 973.533 1.64481 2.9402 0
M  V30 10496 O 974.063 1.0639 3.87355 0
M  V30 10497 N 972.269 1.35749 2.56944 0
M  V30 10498 H 971.816 1.83177 1.81119 0
M  V30 10499 H 971.774 0.652469 3.07555 0
M  V30 10500 N 975.546 -0.211634 1.56173 0
M  V30 10501 C 976.957 -0.777776 1.69728 0
M  V30 10502 C 977.308 -1.84566 0.66558 0
M  V30 10503 O 976.433 -2.15639 -0.181338 0
M  V30 10504 C 977.028 -1.41757 3.07718 0
M  V30 10505 C 975.587 -1.93098 3.23094 0
M  V30 10506 C 974.734 -0.794785 2.65666 0
M  V30 10507 H 977.685 0.0131839 1.58695 0
M  V30 10508 H 977.706 -2.28662 3.04128 0
M  V30 10509 H 977.218 -0.640114 3.82785 0
M  V30 10510 H 975.319 -2.73615 2.52914 0
M  V30 10511 H 975.432 -2.10414 4.30422 0
M  V30 10512 H 973.796 -1.20473 2.24407 0
M  V30 10513 H 974.579 -0.0298408 3.43287 0
M  V30 10514 N 977.024 -1.50153 -0.478725 0
M  V30 10515 C 977.956 -1.64603 -1.59494 0
M  V30 10516 C 978.969 -0.527789 -1.54007 0
M  V30 10517 O 980.158 -0.80069 -1.59534 0
M  V30 10518 C 977.258 -1.60738 -2.98356 0
M  V30 10519 C 976.431 -2.88468 -3.28794 0
M  V30 10520 C 975.49 -2.77349 -4.47173 0
M  V30 10521 O 974.516 -3.51302 -4.47857 0
M  V30 10522 N 975.718 -1.9039 -5.4839 0
M  V30 10523 H 978.483 -2.6088 -1.47518 0
M  V30 10524 H 976.044 -1.47521 -0.667011 0
M  V30 10525 H 978.036 -1.50923 -3.75505 0
M  V30 10526 H 976.606 -0.722273 -3.04141 0
M  V30 10527 H 975.826 -3.12467 -2.40329 0
M  V30 10528 H 977.114 -3.73102 -3.45937 0
M  V30 10529 H 976.512 -1.29606 -5.50653 0
M  V30 10530 H 975.069 -1.86484 -6.24553 0
M  V30 10531 N 978.502 0.731368 -1.39602 0
M  V30 10532 C 979.749 1.491 -1.37024 0
M  V30 10533 C 980.077 1.94473 0.0326423 0
M  V30 10534 O 979.332 1.6737 1.01418 0
M  V30 10535 C 979.631 2.74224 -2.29208 0
M  V30 10536 C 979.297 2.477 -3.7677 0
M  V30 10537 C 977.959 2.40175 -4.16976 0
M  V30 10538 C 980.311 2.25098 -4.70086 0
M  V30 10539 C 977.639 2.08095 -5.48556 0
M  V30 10540 C 979.991 1.94534 -6.01946 0
M  V30 10541 C 978.655 1.85481 -6.41212 0
M  V30 10542 H 977.925 0.545595 -0.501405 0
M  V30 10543 H 980.572 0.839127 -1.72136 0
M  V30 10544 H 978.877 3.44171 -1.87225 0
M  V30 10545 H 980.574 3.32264 -2.24504 0
M  V30 10546 H 977.164 2.54436 -3.44906 0
M  V30 10547 H 981.348 2.29876 -4.39853 0
M  V30 10548 H 976.604 1.99611 -5.77897 0
M  V30 10549 H 980.778 1.76054 -6.73779 0
M  V30 10550 H 978.405 1.60389 -7.43088 0
M  V30 10551 N 979.98 1.24838 0.961938 0
M  V30 10552 C 981.226 1.09313 1.70817 0
M  V30 10553 C 981.559 -0.366244 1.90715 0
M  V30 10554 O 980.834 -1.27036 1.47282 0
M  V30 10555 C 981.117 1.83988 3.09549 0
M  V30 10556 C 980.97 3.3771 2.97106 0
M  V30 10557 C 982.289 1.61718 4.09311 0
M  V30 10558 H 979.408 0.398498 0.619974 0
M  V30 10559 H 982.05 1.53579 1.11864 0
M  V30 10560 H 980.2 1.46363 3.59875 0
M  V30 10561 H 981.872 3.84967 2.54161 0
M  V30 10562 H 980.115 3.65795 2.33187 0
M  V30 10563 H 980.786 3.85166 3.95412 0
M  V30 10564 H 983.262 1.94458 3.67866 0
M  V30 10565 H 982.138 2.16415 5.04436 0
M  V30 10566 H 982.399 0.55677 4.3858 0
M  V30 10567 N 981.458 -1.16348 1.06306 0
M  V30 10568 C 982.408 -2.18717 0.643947 0
M  V30 10569 C 983.392 -1.57574 -0.325445 0
M  V30 10570 O 984.584 -1.76439 -0.140868 0
M  V30 10571 C 981.713 -3.43285 0.0320266 0
M  V30 10572 C 980.799 -4.11504 1.02592 0
M  V30 10573 N 981.19 -4.55374 2.20155 0
M  V30 10574 C 979.488 -4.37691 0.856887 0
M  V30 10575 C 980.189 -5.08149 2.83124 0
M  V30 10576 N 979.165 -5.01042 2.10851 0
M  V30 10577 H 982.967 -2.50353 1.53951 0
M  V30 10578 H 980.481 -1.328 0.934763 0
M  V30 10579 H 982.478 -4.15917 -0.286064 0
M  V30 10580 H 981.138 -3.13137 -0.858786 0
M  V30 10581 H 982.149 -4.49101 2.57931 0
M  V30 10582 H 978.826 -4.17496 0.0180742 0
M  V30 10583 H 980.216 -5.52131 3.82885 0
M  V30 10584 N 982.937 -0.845659 -1.3299 0
M  V30 10585 C 984.348 -0.50048 -1.79867 0
M  V30 10586 C 984.699 0.981027 -1.69913 0
M  V30 10587 O 983.824 1.76477 -1.25239 0
M  V30 10588 C 984.419 -0.901679 -3.26581 0
M  V30 10589 C 982.978 -0.608536 -3.71448 0
M  V30 10590 C 982.125 -1.10632 -2.54275 0
M  V30 10591 H 985.076 -1.03372 -1.20416 0
M  V30 10592 H 985.097 -0.214433 -3.79895 0
M  V30 10593 H 984.609 -1.97998 -3.33794 0
M  V30 10594 H 982.71 0.459416 -3.69757 0
M  V30 10595 H 982.823 -1.16853 -4.64631 0
M  V30 10596 H 981.187 -0.526925 -2.4919 0
M  V30 10597 H 981.97 -2.19154 -2.64247 0
M  V30 10598 N 984.415 1.45619 -0.602734 0
M  V30 10599 C 985.664 2.01483 -0.0936395 0
M  V30 10600 C 985.977 1.47753 1.28173 0
M  V30 10601 O 987.183 1.95562 1.88329 0
M  V30 10602 C 985.639 3.59711 -0.116738 0
M  V30 10603 C 985.247 4.22437 -1.49166 0
M  V30 10604 C 986.991 4.23157 0.337368 0
M  V30 10605 C 984.898 5.72803 -1.47141 0
M  V30 10606 H 983.828 0.753353 -0.0312382 0
M  V30 10607 H 986.479 1.67142 -0.757347 0
M  V30 10608 H 984.861 3.91218 0.613529 0
M  V30 10609 H 986.035 4.02511 -2.24325 0
M  V30 10610 H 984.35 3.71166 -1.88746 0
M  V30 10611 H 986.947 5.33407 0.371628 0
M  V30 10612 H 987.29 3.93491 1.35906 0
M  V30 10613 H 987.823 3.96349 -0.339474 0
M  V30 10614 H 984.562 6.07161 -2.47055 0
M  V30 10615 H 984.082 5.94936 -0.762329 0
M  V30 10616 H 985.761 6.35907 -1.19294 0
M  V30 10617 N 985.893 0.34162 1.53853 0
M  V30 10618 C 986.823 -0.508431 2.27897 0
M  V30 10619 C 987.804 -1.10425 1.29384 0
M  V30 10620 O 988.989 -1.126 1.58224 0
M  V30 10621 C 986.119 -1.66048 3.05034 0
M  V30 10622 C 985.073 -1.19309 4.11035 0
M  V30 10623 C 984.399 -2.4335 4.76114 0
M  V30 10624 C 985.699 -0.294952 5.21467 0
M  V30 10625 H 987.393 0.109251 2.99201 0
M  V30 10626 H 984.939 0.0539847 1.43899 0
M  V30 10627 H 986.892 -2.26158 3.5557 0
M  V30 10628 H 985.616 -2.30503 2.31379 0
M  V30 10629 H 984.275 -0.614809 3.61408 0
M  V30 10630 H 983.923 -3.06208 3.99056 0
M  V30 10631 H 983.623 -2.1276 5.47729 0
M  V30 10632 H 985.147 -3.0419 5.29434 0
M  V30 10633 H 986.561 -0.80285 5.67651 0
M  V30 10634 H 984.958 -0.0810221 6.00045 0
M  V30 10635 H 986.028 0.669433 4.80257 0
M  V30 10636 N 987.371 -1.57444 0.0701946 0
M  V30 10637 C 988.303 -2.09611 -0.927142 0
M  V30 10638 C 989.316 -1.02791 -1.26245 0
M  V30 10639 O 990.505 -1.30309 -1.21992 0
M  V30 10640 C 987.605 -2.54015 -2.24342 0
M  V30 10641 C 986.778 -3.84389 -2.08719 0
M  V30 10642 C 985.837 -4.14904 -3.23638 0
M  V30 10643 O 984.863 -4.84528 -2.98699 0
M  V30 10644 N 986.065 -3.68322 -4.48686 0
M  V30 10645 H 988.83 -2.95803 -0.481753 0
M  V30 10646 H 986.391 -1.61487 -0.115572 0
M  V30 10647 H 988.383 -2.71492 -3.00124 0
M  V30 10648 H 986.953 -1.72969 -2.60385 0
M  V30 10649 H 986.173 -3.76308 -1.17415 0
M  V30 10650 H 987.461 -4.69729 -1.9553 0
M  V30 10651 H 986.859 -3.12073 -4.71834 0
M  V30 10652 H 985.416 -3.91002 -5.21499 0
M  V30 10653 N 988.849 0.203349 -1.56283 0
M  V30 10654 C 990.074 0.945548 -1.84592 0
M  V30 10655 C 990.499 1.7641 -0.652772 0
M  V30 10656 O 989.857 1.76867 0.398468 0
M  V30 10657 C 989.905 1.82416 -3.11057 0
M  V30 10658 O 989.009 2.92191 -2.9103 0
M  V30 10659 H 988.35 0.266739 -0.608068 0
M  V30 10660 H 990.88 0.211158 -2.03507 0
M  V30 10661 H 990.89 2.23044 -3.41636 0
M  V30 10662 H 989.565 1.22267 -3.97522 0
M  V30 10663 H 988.142 2.55378 -2.71728 0
M  V30 10664 N 990.327 1.50405 0.470755 0
M  V30 10665 C 991.29 1.68741 1.5511 0
M  V30 10666 C 992.29 0.558116 1.50804 0
M  V30 10667 O 993.48 0.825149 1.53418 0
M  V30 10668 C 990.612 1.71295 2.94739 0
M  V30 10669 H 991.805 2.65127 1.40169 0
M  V30 10670 H 989.358 1.39891 0.697156 0
M  V30 10671 H 990.093 0.766029 3.15123 0
M  V30 10672 H 989.878 2.53336 2.99271 0
M  V30 10673 H 991.368 1.87434 3.73173 0
M  V30 10674 N 991.805 -0.723954 1.39988 0
M  V30 10675 C 993.051 -1.48591 1.38017 0
M  V30 10676 C 993.384 -1.94189 -0.0203522 0
M  V30 10677 O 992.659 -1.67572 -0.987422 0
M  V30 10678 C 992.942 -2.71786 2.36229 0
M  V30 10679 C 992.795 -2.32136 3.8527 0
M  V30 10680 C 994.114 -3.73921 2.32102 0
M  V30 10681 H 991.233 -0.538993 0.502648 0
M  V30 10682 H 993.875 -0.826908 1.71062 0
M  V30 10683 H 992.025 -3.28015 2.0818 0
M  V30 10684 H 993.697 -1.81454 4.24113 0
M  V30 10685 H 991.94 -1.64234 4.01509 0
M  V30 10686 H 992.611 -3.20406 4.49493 0
M  V30 10687 H 995.087 -3.27303 2.56928 0
M  V30 10688 H 993.963 -4.5777 3.02882 0
M  V30 10689 H 994.224 -4.21627 1.32979 0
M  V30 10690 O 993.322 -1.3636 -0.865351 0
M  V30 10691 H 994.013 -1.21995 -1.50455 0
M  V30 END ATOM
M  V30 BEGIN BOND
M  V30 END BOND
M  V30 END CTAB
M  END
$$$$
