drugbank_target|Q9NPH2 Inositol-3-phosphate synthase 1 (DB01840; DB04516; DB09462)
 OpenBabel12092120543D

  0  0  0     0  0            999 V3000
M  V30 BEGIN CTAB
M  V30 COUNTS 8572 8669 0 0 0
M  V30 BEGIN ATOM
M  V30 1 H -0.908 1.98254 -0.117106 0
M  V30 2 N 0 1.576 0 0
M  V30 3 C 0.933 2.03868 1.02534 0
M  V30 4 C 1.911 0.928543 1.3348 0
M  V30 5 O 3.095 1.19667 1.45644 0
M  V30 6 C 0.222 2.43627 2.35294 0
M  V30 7 C -0.732 3.65373 2.2001 0
M  V30 8 S 0.101 5.13292 1.52614 0
M  V30 9 C 1.257 5.56322 2.86805 0
M  V30 10 H 1.49 2.90518 0.631377 0
M  V30 11 H -0.977 1.52953 0.210867 0
M  V30 12 H 0.981 2.67203 3.11629 0
M  V30 13 H -0.358 1.57376 2.7183 0
M  V30 14 H -1.165 3.90944 3.18086 0
M  V30 15 H -1.563 3.418 1.51819 0
M  V30 16 H 0.729 5.58782 3.83104 0
M  V30 17 H 1.672 6.56266 2.65933 0
M  V30 18 H 2.08 4.83886 2.90714 0
M  V30 19 N 1.4781 -0.272755 1.55222 0
M  V30 20 C 2.3881 -1.35918 1.91216 0
M  V30 21 C 3.4041 -1.54026 0.809436 0
M  V30 22 O 4.5801 -1.68148 1.10852 0
M  V30 23 C 1.6451 -2.69834 2.17693 0
M  V30 24 C 0.7061 -2.6047 3.41253 0
M  V30 25 C -0.0609 -3.88 3.66458 0
M  V30 26 O 0.1621 -4.88693 2.94169 0
M  V30 27 O -0.9039 -3.88189 4.59992 0
M  V30 28 H 2.9221 -1.0839 2.83699 0
M  V30 29 H 0.5071 -0.471301 1.41771 0
M  V30 30 H 2.3891 -3.49017 2.36147 0
M  V30 31 H 1.0641 -2.97148 1.28392 0
M  V30 32 H -0.0289 -1.79663 3.28134 0
M  V30 33 H 1.3041 -2.38106 4.30774 0
M  V30 34 N 2.9562 -1.48159 -0.537278 0
M  V30 35 C 3.9192 -1.61665 -1.62472 0
M  V30 36 C 4.9192 -0.490395 -1.5314 0
M  V30 37 O 6.1092 -0.755998 -1.5694 0
M  V30 38 C 3.2412 -1.57997 -3.02076 0
M  V30 39 H 4.4342 -2.58621 -1.51839 0
M  V30 40 H 1.9872 -1.36647 -0.758771 0
M  V30 41 H 2.7222 -0.624913 -3.18222 0
M  V30 42 H 2.5072 -2.39755 -3.10258 0
M  V30 43 H 3.9972 -1.70627 -3.81151 0
M  V30 44 N 4.4343 0.785586 -1.36625 0
M  V30 45 C 5.3973 1.87999 -1.31107 0
M  V30 46 C 6.3973 1.59316 -0.217959 0
M  V30 47 O 7.5873 1.67656 -0.472977 0
M  V30 48 C 4.7193 3.24861 -1.03334 0
M  V30 49 H 5.9123 1.94307 -2.2844 0
M  V30 50 H 3.4653 0.983813 -1.21453 0
M  V30 51 H 4.2003 3.24235 -0.0647432 0
M  V30 52 H 3.9853 3.4707 -1.82441 0
M  V30 53 H 5.4753 4.04929 -1.02088 0
M  V30 54 N 5.9124 1.20967 1.01018 0
M  V30 55 C 6.8754 0.965918 2.07853 0
M  V30 56 C 7.8754 -0.0610545 1.60684 0
M  V30 57 O 9.0654 0.175681 1.73312 0
M  V30 58 C 6.1974 0.455513 3.37843 0
M  V30 59 H 7.3904 1.91365 2.3091 0
M  V30 60 H 4.9434 1.02594 1.17916 0
M  V30 61 H 5.6784 -0.497381 3.20463 0
M  V30 62 H 5.4634 1.19622 3.73407 0
M  V30 63 H 6.9534 0.304667 4.16487 0
M  V30 64 N 7.3905 -1.2043 1.01659 0
M  V30 65 C 8.3225 -2.22626 0.544988 0
M  V30 66 C 9.3355 -1.58479 -0.372609 0
M  V30 67 O 10.5245 -1.77679 -0.170958 0
M  V30 68 C 7.6245 -3.38141 -0.22663 0
M  V30 69 C 6.7975 -4.31877 0.692876 0
M  V30 70 C 5.8565 -5.26191 -0.0311616 0
M  V30 71 O 4.8825 -5.6612 0.591343 0
M  V30 72 N 6.0845 -5.65618 -1.30601 0
M  V30 73 H 8.8495 -2.63716 1.42388 0
M  V30 74 H 6.4105 -1.34971 0.894116 0
M  V30 75 H 8.4025 -3.98239 -0.72024 0
M  V30 76 H 6.9725 -2.95943 -1.00681 0
M  V30 77 H 6.1925 -3.69746 1.36679 0
M  V30 78 H 7.4805 -4.91426 1.31824 0
M  V30 79 H 6.8785 -5.3519 -1.83269 0
M  V30 80 H 5.4355 -6.28025 -1.74435 0
M  V30 81 N 8.8686 -0.792821 -1.36206 0
M  V30 82 C 10.1156 -0.366786 -1.99151 0
M  V30 83 C 10.4436 1.06243 -1.62919 0
M  V30 84 O 9.6986 1.74927 -0.877442 0
M  V30 85 C 9.9976 -0.481501 -3.54142 0
M  V30 86 C 9.6636 -1.87202 -4.10203 0
M  V30 87 C 8.3256 -2.25248 -4.25226 0
M  V30 88 C 10.6776 -2.78237 -4.40719 0
M  V30 89 C 8.0056 -3.53723 -4.68078 0
M  V30 90 C 10.3576 -4.06144 -4.85005 0
M  V30 91 C 9.0216 -4.44207 -4.98234 0
M  V30 92 H 8.2916 -0.134217 -0.728743 0
M  V30 93 H 10.9386 -1.01094 -1.62641 0
M  V30 94 H 9.2436 0.246146 -3.91026 0
M  V30 95 H 10.9406 -0.132844 -4.0078 0
M  V30 96 H 7.5306 -1.56639 -3.98951 0
M  V30 97 H 11.7146 -2.50097 -4.28679 0
M  V30 98 H 6.9706 -3.8308 -4.76508 0
M  V30 99 H 11.1446 -4.76796 -5.07581 0
M  V30 100 H 8.7716 -5.43814 -5.31197 0
M  V30 101 N 10.3467 1.47872 -0.545128 0
M  V30 102 C 11.5937 2.02493 -0.0165858 0
M  V30 103 C 11.9217 1.42073 1.32836 0
M  V30 104 O 11.1767 0.561459 1.87473 0
M  V30 105 C 11.4757 3.57131 0.13867 0
M  V30 106 C 11.1417 4.36411 -1.13384 0
M  V30 107 C 9.8037 4.57792 -1.48256 0
M  V30 108 C 12.1557 4.82223 -1.97764 0
M  V30 109 C 9.4837 5.22233 -2.67376 0
M  V30 110 C 11.8357 5.47977 -3.16076 0
M  V30 111 C 10.4997 5.67593 -3.51275 0
M  V30 112 H 9.7697 0.740975 -0.00606918 0
M  V30 113 H 12.4167 1.77683 -0.714207 0
M  V30 114 H 10.7217 3.80865 0.919172 0
M  V30 115 H 12.4187 3.97031 0.562782 0
M  V30 116 H 9.0087 4.2004 -0.852297 0
M  V30 117 H 13.1927 4.65493 -1.72132 0
M  V30 118 H 8.4487 5.35616 -2.94831 0
M  V30 119 H 12.6227 5.8244 -3.81755 0
M  V30 120 H 10.2497 6.17298 -4.43675 0
M  V30 121 N 11.8248 0.280983 1.55075 0
M  V30 122 C 13.0708 -0.33461 2.00021 0
M  V30 123 C 13.4038 -1.55063 1.16915 0
M  V30 124 O 12.6788 -1.93006 0.240646 0
M  V30 125 C 12.9618 -0.711007 3.53011 0
M  V30 126 C 12.8148 0.512766 4.46868 0
M  V30 127 C 14.1338 -1.54522 4.12081 0
M  V30 128 H 11.2528 -0.120147 0.727141 0
M  V30 129 H 13.8948 0.389097 1.85973 0
M  V30 130 H 12.0448 -1.32761 3.65112 0
M  V30 131 H 13.7168 1.15131 4.46702 0
M  V30 132 H 11.9598 1.14975 4.18286 0
M  V30 133 H 12.6308 0.205556 5.51617 0
M  V30 134 H 15.1068 -1.02442 4.03293 0
M  V30 135 H 13.9828 -1.77739 5.19327 0
M  V30 136 H 14.2438 -2.52813 3.62682 0
M  V30 137 N 13.3029 -1.57598 0.00835791 0
M  V30 138 C 14.2129 -2.12385 -0.996487 0
M  V30 139 C 15.2289 -1.07108 -1.37127 0
M  V30 140 O 16.4049 -1.39055 -1.4569 0
M  V30 141 C 13.4699 -2.62314 -2.26699 0
M  V30 142 C 12.5309 -3.82225 -1.95456 0
M  V30 143 C 11.7639 -4.29763 -3.16449 0
M  V30 144 O 11.9869 -3.76584 -4.28416 0
M  V30 145 O 10.9209 -5.21832 -2.99958 0
M  V30 146 H 14.7469 -2.98479 -0.560725 0
M  V30 147 H 12.3319 -1.47903 -0.210987 0
M  V30 148 H 14.2139 -2.94589 -3.01322 0
M  V30 149 H 12.8889 -1.79313 -2.69497 0
M  V30 150 H 11.7959 -3.54909 -1.18282 0
M  V30 151 H 13.1289 -4.66324 -1.57489 0
M  V30 152 N 14.781 0.264519 -1.55364 0
M  V30 153 C 16.006 1.01726 -1.80739 0
M  V30 154 C 16.431 1.78836 -0.583044 0
M  V30 155 O 15.789 1.75167 0.467566 0
M  V30 156 C 15.837 1.94482 -3.03659 0
M  V30 157 O 14.941 3.03386 -2.7934 0
M  V30 158 H 14.282 0.290395 -0.597132 0
M  V30 159 H 16.812 0.290854 -2.02522 0
M  V30 160 H 16.822 2.36278 -3.32621 0
M  V30 161 H 15.497 1.37772 -3.92418 0
M  V30 162 H 14.074 2.65844 -2.61498 0
M  V30 163 N 16.2591 1.48442 0.529413 0
M  V30 164 C 17.6701 1.5002 1.11134 0
M  V30 165 C 18.0211 0.27031 1.94329 0
M  V30 166 O 17.1461 -0.622507 2.07253 0
M  V30 167 C 17.7411 2.71834 2.02217 0
M  V30 168 C 16.3001 2.76283 2.55627 0
M  V30 169 C 15.4471 2.43542 1.326 0
M  V30 170 H 18.3981 1.5555 0.314641 0
M  V30 171 H 18.4191 2.50384 2.8651 0
M  V30 172 H 17.9311 3.61331 1.41639 0
M  V30 173 H 16.0321 1.90995 3.19924 0
M  V30 174 H 16.1451 3.77725 2.94721 0
M  V30 175 H 14.5091 1.94709 1.64196 0
M  V30 176 H 15.2921 3.3528 0.737734 0
M  V30 177 N 17.7372 -0.778329 1.37039 0
M  V30 178 C 19.0142 -1.52551 1.22424 0
M  V30 179 C 19.3942 -2.10288 -0.184964 0
M  V30 180 O 18.7422 -1.94953 -1.19187 0
M  V30 181 C 18.9522 -2.61164 2.31504 0
M  V30 182 C 20.3002 -3.28746 2.68721 0
M  V30 183 O 21.3242 -2.71455 2.30631 0
M  V30 184 O 20.1832 -4.3231 3.3432 0
M  V30 185 H 17.2772 -0.675343 0.477326 0
M  V30 186 H 19.8232 -0.815859 1.48801 0
M  V30 187 H 18.5952 -2.16574 3.25901 0
M  V30 188 H 18.2182 -3.39737 2.06554 0
M  V30 189 N 19.2153 -1.21501 -1.00376 0
M  V30 190 C 20.4613 -1.03452 -1.74429 0
M  V30 191 C 20.7943 0.430764 -1.89362 0
M  V30 192 O 20.0693 1.31962 -1.42886 0
M  V30 193 C 20.3523 -1.73375 -3.15615 0
M  V30 194 C 20.2053 -3.27431 -3.08397 0
M  V30 195 C 21.5243 -1.47732 -4.14564 0
M  V30 196 H 18.6433 -0.377226 -0.633143 0
M  V30 197 H 21.2853 -1.49693 -1.17013 0
M  V30 198 H 19.4353 -1.34064 -3.64636 0
M  V30 199 H 21.1073 -3.76119 -2.67081 0
M  V30 200 H 19.3503 -3.5767 -2.45468 0
M  V30 201 H 20.0213 -3.71524 -4.08258 0
M  V30 202 H 22.4973 -1.8186 -3.74254 0
M  V30 203 H 21.3733 -1.99169 -5.11491 0
M  V30 204 H 21.6343 -0.407589 -4.40217 0
M  V30 205 N 20.6934 1.19889 -1.02296 0
M  V30 206 C 21.9394 1.89701 -0.717033 0
M  V30 207 C 22.2724 1.7905 0.751989 0
M  V30 208 O 21.5474 1.17891 1.547 0
M  V30 209 C 21.8304 3.40858 -1.16136 0
M  V30 210 C 21.6834 3.60411 -2.69117 0
M  V30 211 C 23.0024 4.33876 -0.737549 0
M  V30 212 H 20.1214 0.688874 -0.261957 0
M  V30 213 H 22.7634 1.41154 -1.27183 0
M  V30 214 H 20.9134 3.82335 -0.689342 0
M  V30 215 H 22.5854 3.28145 -3.2422 0
M  V30 216 H 20.8284 3.03665 -3.0979 0
M  V30 217 H 21.4994 4.66396 -2.95261 0
M  V30 218 H 23.9754 4.00081 -1.14344 0
M  V30 219 H 22.8514 5.38242 -1.0764 0
M  V30 220 H 23.1124 4.40628 0.360436 0
M  V30 221 N 22.1715 0.800033 1.35784 0
M  V30 222 C 23.4015 0.389041 2.02904 0
M  V30 223 C 23.8095 -1.0027 1.60445 0
M  V30 224 O 23.1525 -1.65633 0.794453 0
M  V30 225 C 23.2145 0.385495 3.57427 0
M  V30 226 C 22.8785 1.72662 4.23127 0
M  V30 227 C 23.8755 2.68385 4.4527 0
M  V30 228 C 21.5605 2.00883 4.60381 0
M  V30 229 C 23.5545 3.90517 5.03761 0
M  V30 230 C 21.2415 3.2328 5.18588 0
M  V30 231 C 22.2395 4.17915 5.40218 0
M  V30 232 O 21.9275 5.38153 5.97199 0
M  V30 233 H 21.6595 0.157032 0.657508 0
M  V30 234 H 24.2135 1.08311 1.74522 0
M  V30 235 H 22.4435 -0.365128 3.84972 0
M  V30 236 H 24.1325 -0.00228296 4.059 0
M  V30 237 H 24.8985 2.47872 4.16874 0
M  V30 238 H 20.7775 1.28037 4.42863 0
M  V30 239 H 24.3215 4.64395 5.2056 0
M  V30 240 H 20.2185 3.43667 5.4641 0
M  V30 241 H 20.9865 5.3936 6.15656 0
M  V30 242 N 23.6496 -1.47581 0.552962 0
M  V30 243 C 24.8976 -2.02082 0.0272703 0
M  V30 244 C 25.2186 -1.4301 -1.32563 0
M  V30 245 O 24.4886 -0.603745 -1.86365 0
M  V30 246 H 23.0686 -0.746966 0.00709182 0
M  V30 247 H 25.7306 -1.81033 0.722008 0
M  V30 248 H 24.8266 -3.12034 -0.0639951 0
M  V30 249 N 25.1277 -0.289203 -1.54924 0
M  V30 250 C 26.5387 0.205791 -1.85562 0
M  V30 251 C 26.8897 1.54351 -1.2112 0
M  V30 252 O 26.0147 2.10435 -0.504601 0
M  V30 253 C 26.6097 0.380177 -3.3666 0
M  V30 254 C 25.1687 0.819395 -3.67373 0
M  V30 255 C 24.3157 -0.079159 -2.77187 0
M  V30 256 H 27.2667 -0.510577 -1.50262 0
M  V30 257 H 27.2877 1.21659 -3.60526 0
M  V30 258 H 26.7997 -0.593589 -3.83534 0
M  V30 259 H 24.9007 1.80413 -3.26009 0
M  V30 260 H 25.0137 0.646957 -4.74712 0
M  V30 261 H 23.3777 0.439565 -2.50878 0
M  V30 262 H 24.1607 -1.04906 -3.26878 0
M  V30 263 N 26.6058 1.57591 -0.0167156 0
M  V30 264 C 27.5158 2.1291 0.98521 0
M  V30 265 C 28.5318 1.07834 1.36557 0
M  V30 266 O 29.7078 1.39826 1.44951 0
M  V30 267 C 26.7728 2.63512 2.25305 0
M  V30 268 C 25.8338 3.83256 1.93426 0
M  V30 269 C 25.0668 4.31435 3.14165 0
M  V30 270 O 25.2898 3.78851 4.26413 0
M  V30 271 O 24.2238 5.23416 2.97186 0
M  V30 272 H 28.0498 2.98772 0.544888 0
M  V30 273 H 25.6348 1.48012 0.203141 0
M  V30 274 H 27.5168 2.96183 2.99756 0
M  V30 275 H 26.1918 1.8074 2.68542 0
M  V30 276 H 25.0988 3.55531 1.16398 0
M  V30 277 H 26.4318 4.67153 1.55013 0
M  V30 278 N 28.0839 -0.256276 1.55502 0
M  V30 279 C 29.0469 -1.30047 1.88734 0
M  V30 280 C 30.0469 -1.4154 0.763086 0
M  V30 281 O 31.2369 -1.40403 1.03115 0
M  V30 282 C 28.3689 -2.67953 2.10747 0
M  V30 283 H 29.5619 -1.01802 2.82093 0
M  V30 284 H 27.1149 -0.495134 1.4825 0
M  V30 285 H 27.8499 -3.01351 1.19825 0
M  V30 286 H 27.6349 -2.60993 2.92617 0
M  V30 287 H 29.1249 -3.43368 2.37673 0
M  V30 288 N 29.562 -1.4872 -0.521534 0
M  V30 289 C 30.811 -1.56419 -1.27341 0
M  V30 290 C 31.124 -0.246805 -1.94037 0
M  V30 291 O 32.33 -0.202122 -2.70747 0
M  V30 292 C 30.786 -2.75896 -2.31105 0
M  V30 293 C 30.394 -4.14311 -1.70441 0
M  V30 294 C 32.138 -2.92913 -3.07249 0
M  V30 295 C 30.045 -5.25038 -2.72194 0
M  V30 296 H 28.975 -0.582344 -0.478949 0
M  V30 297 H 31.626 -1.75071 -0.549779 0
M  V30 298 H 30.008 -2.50697 -3.06541 0
M  V30 299 H 31.182 -4.49564 -1.01136 0
M  V30 300 H 29.497 -4.02482 -1.06759 0
M  V30 301 H 32.094 -3.72805 -3.83302 0
M  V30 302 H 32.437 -2.02689 -3.63625 0
M  V30 303 H 32.97 -3.18054 -2.38928 0
M  V30 304 H 29.709 -6.17255 -2.20627 0
M  V30 305 H 29.229 -4.94263 -3.39801 0
M  V30 306 H 30.908 -5.53508 -3.35019 0
M  V30 307 N 31.0401 0.771051 -1.3745 0
M  V30 308 C 31.9501 1.91538 -1.35464 0
M  V30 309 C 32.9661 1.72134 -0.254123 0
M  V30 310 O 34.1421 1.95358 -0.489626 0
M  V30 311 C 31.2071 3.26671 -1.16134 0
M  V30 312 C 30.2681 3.58723 -2.35831 0
M  V30 313 C 29.5011 4.87409 -2.17413 0
M  V30 314 O 29.7241 5.58506 -1.15876 0
M  V30 315 O 28.6581 5.18539 -3.05615 0
M  V30 316 H 32.4841 1.96165 -2.31847 0
M  V30 317 H 30.0691 0.9139 -1.18187 0
M  V30 318 H 31.9511 4.07499 -1.07345 0
M  V30 319 H 30.6261 3.22894 -0.228251 0
M  V30 320 H 29.5331 2.78127 -2.50192 0
M  V30 321 H 30.8661 3.67243 -3.27709 0
M  V30 322 N 32.5182 1.22032 0.997298 0
M  V30 323 C 33.4812 0.987909 2.06816 0
M  V30 324 C 34.4812 -0.0440084 1.6074 0
M  V30 325 O 35.6712 0.194053 1.73116 0
M  V30 326 C 32.8032 0.49132 3.37341 0
M  V30 327 H 33.9962 1.93803 2.28868 0
M  V30 328 H 31.5492 1.03838 1.16822 0
M  V30 329 H 32.2842 -0.463364 3.20973 0
M  V30 330 H 32.0692 1.23575 3.72118 0
M  V30 331 H 33.5592 0.348824 4.16141 0
M  V30 332 N 33.9963 -1.19345 1.0293 0
M  V30 333 C 34.9283 -2.22036 0.56857 0
M  V30 334 C 35.9413 -1.58865 -0.355779 0
M  V30 335 O 37.1303 -1.77851 -0.152103 0
M  V30 336 C 34.2303 -3.38363 -0.190752 0
M  V30 337 C 33.4033 -4.31118 0.738643 0
M  V30 338 C 32.4623 -5.26194 0.0246497 0
M  V30 339 O 31.4883 -5.65461 0.651354 0
M  V30 340 N 32.6903 -5.66971 -1.24594 0
M  V30 341 H 35.4553 -2.6219 1.45177 0
M  V30 342 H 33.0163 -1.34015 0.908381 0
M  V30 343 H 35.0083 -3.98981 -0.677961 0
M  V30 344 H 33.5783 -2.96994 -0.975366 0
M  V30 345 H 32.7983 -3.68276 1.40593 0
M  V30 346 H 34.0863 -4.90001 1.37029 0
M  V30 347 H 33.4843 -5.37104 -1.77583 0
M  V30 348 H 32.0413 -6.2984 -1.67764 0
M  V30 349 N 35.4744 -0.807222 -1.35358 0
M  V30 350 C 36.7044 -0.399796 -2.02695 0
M  V30 351 C 37.1124 0.994176 -1.60974 0
M  V30 352 O 36.4554 1.65209 -0.803226 0
M  V30 353 C 36.5174 -0.404445 -3.57218 0
M  V30 354 C 36.1814 -1.74904 -4.22206 0
M  V30 355 C 37.1784 -2.70743 -4.4384 0
M  V30 356 C 34.8634 -2.03322 -4.5931 0
M  V30 357 C 36.8574 -3.93183 -5.01683 0
M  V30 358 C 34.5444 -3.26026 -5.16866 0
M  V30 359 C 35.5424 -4.20774 -5.37994 0
M  V30 360 O 35.2304 -5.41312 -5.94337 0
M  V30 361 H 34.9624 -0.160517 -0.656666 0
M  V30 362 H 37.5164 -1.09235 -1.73945 0
M  V30 363 H 35.7464 0.344707 -3.85161 0
M  V30 364 H 37.4354 -0.0192429 -4.05895 0
M  V30 365 H 38.2014 -2.5008 -4.15554 0
M  V30 366 H 34.0804 -1.30384 -4.42178 0
M  V30 367 H 37.6244 -4.6715 -5.1809 0
M  V30 368 H 33.5214 -3.46559 -5.44579 0
M  V30 369 H 34.2894 -5.42618 -6.12787 0
M  V30 370 N 36.9525 1.47285 -0.560781 0
M  V30 371 C 37.8625 2.33846 0.187954 0
M  V30 372 C 38.8785 1.48412 0.908293 0
M  V30 373 O 40.0545 1.81332 0.876388 0
M  V30 374 C 37.1195 3.25178 1.2025 0
M  V30 375 C 36.1805 4.26504 0.489208 0
M  V30 376 C 35.4135 5.13472 1.45542 0
M  V30 377 O 35.6365 5.02959 2.6905 0
M  V30 378 O 34.5705 5.93902 0.977963 0
M  V30 379 H 38.3965 2.99177 -0.522177 0
M  V30 380 H 35.9815 1.45903 -0.321364 0
M  V30 381 H 37.8635 3.81584 1.78805 0
M  V30 382 H 36.5385 2.6247 1.89449 0
M  V30 383 H 35.4455 3.73847 -0.137627 0
M  V30 384 H 36.7785 4.91935 -0.161399 0
M  V30 385 N 38.4306 0.297415 1.54768 0
M  V30 386 C 39.6606 -0.315165 2.04182 0
M  V30 387 C 40.0686 -1.4834 1.17439 0
M  V30 388 O 39.4116 -1.82695 0.191891 0
M  V30 389 C 39.4736 -0.837583 3.49607 0
M  V30 390 C 39.1376 0.204912 4.5654 0
M  V30 391 C 40.1346 1.03214 5.09552 0
M  V30 392 C 37.8196 0.345578 5.0111 0
M  V30 393 C 39.8136 1.986 6.05671 0
M  V30 394 C 37.5006 1.30289 5.97049 0
M  V30 395 C 38.4986 2.12159 6.49213 0
M  V30 396 O 38.1866 3.06268 7.43273 0
M  V30 397 H 37.9186 -0.0729646 0.672051 0
M  V30 398 H 40.4726 0.433907 2.00765 0
M  V30 399 H 38.7026 -1.63712 3.50336 0
M  V30 400 H 40.3916 -1.36566 3.82236 0
M  V30 401 H 41.1576 0.934312 4.75916 0
M  V30 402 H 37.0366 -0.28171 4.60138 0
M  V30 403 H 40.5806 2.62542 6.46311 0
M  V30 404 H 36.4776 1.40145 6.30103 0
M  V30 405 H 37.2456 3.01205 7.61064 0
M  V30 406 N 39.9087 -1.5758 0.0250728 0
M  V30 407 C 41.3247 -1.56124 -0.331282 0
M  V30 408 C 41.5247 -1.03029 -1.73169 0
M  V30 409 O 40.5807 -0.675215 -2.43305 0
M  V30 410 C 41.8937 -3.00139 -0.183584 0
M  V30 411 C 43.4417 -3.11946 -0.256654 0
M  V30 412 C 43.9167 -4.57793 -0.137792 0
M  V30 413 N 45.4077 -4.6279 -0.194904 0
M  V30 414 C 46.1427 -5.7326 -0.126655 0
M  V30 415 N 45.6387 -6.928 -0.00755288 0
M  V30 416 N 47.4317 -5.61811 -0.180348 0
M  V30 417 H 39.5827 -1.90424 0.94087 0
M  V30 418 H 41.8457 -0.875761 0.362968 0
M  V30 419 H 41.5517 -3.4292 0.780927 0
M  V30 420 H 41.4257 -3.64899 -0.955448 0
M  V30 421 H 43.8127 -2.69079 -1.21162 0
M  V30 422 H 43.8937 -2.49915 0.545517 0
M  V30 423 H 43.5377 -5.01339 0.813739 0
M  V30 424 H 43.4677 -5.17798 -0.958775 0
M  V30 425 H 45.9587 -3.76807 -0.287267 0
M  V30 426 H 46.2717 -7.72791 0.0379428 0
M  V30 427 H 44.6167 -6.94995 0.0271731 0
M  V30 428 H 47.8077 -4.6731 -0.271767 0
M  V30 429 H 47.9807 -6.47882 -0.123697 0
M  V30 430 N 41.3868 0.248026 -1.55636 0
M  V30 431 C 42.6148 0.993808 -1.81469 0
M  V30 432 C 43.0298 1.78991 -0.60064 0
M  V30 433 O 42.3868 1.77345 0.430682 0
M  V30 434 C 42.4378 1.93258 -3.05506 0
M  V30 435 O 42.1588 1.16869 -4.22224 0
M  V30 436 C 43.6598 2.79444 -3.4413 0
M  V30 437 H 40.8798 0.292486 -0.603898 0
M  V30 438 H 43.4238 0.271253 -2.02693 0
M  V30 439 H 41.5788 2.60943 -2.86335 0
M  V30 440 H 41.9928 1.80359 -4.92515 0
M  V30 441 H 43.4668 3.41066 -4.34026 0
M  V30 442 H 43.9438 3.50499 -2.64665 0
M  V30 443 H 44.5498 2.17214 -3.65648 0
M  V30 444 N 42.8649 1.48995 0.513639 0
M  V30 445 C 44.0929 1.61531 1.29288 0
M  V30 446 C 44.5079 0.281801 1.86685 0
M  V30 447 O 43.8649 -0.731111 1.67215 0
M  V30 448 C 43.9159 2.67449 2.43215 0
M  V30 449 O 43.6369 3.95626 1.88179 0
M  V30 450 C 45.1379 2.90575 3.34785 0
M  V30 451 H 42.3579 0.544165 0.392588 0
M  V30 452 H 44.9019 1.9494 0.617956 0
M  V30 453 H 43.0569 2.36853 3.0656 0
M  V30 454 H 43.4709 4.53868 2.62876 0
M  V30 455 H 44.9449 3.68449 4.11035 0
M  V30 456 H 45.4219 2.00011 3.91015 0
M  V30 457 H 46.0279 3.22538 2.77218 0
M  V30 458 N 44.343 -0.763751 1.37857 0
M  V30 459 C 45.759 -1.06542 1.18832 0
M  V30 460 C 45.959 -2.01478 0.0299722 0
M  V30 461 O 45.015 -2.4458 -0.627447 0
M  V30 462 C 46.328 -1.65525 2.51042 0
M  V30 463 C 47.876 -1.77745 2.57635 0
M  V30 464 C 48.351 -2.4014 3.89996 0
M  V30 465 N 49.842 -2.47582 3.91481 0
M  V30 466 C 50.577 -2.96732 4.9065 0
M  V30 467 N 50.073 -3.45993 6.00217 0
M  V30 468 N 51.866 -2.95679 4.78048 0
M  V30 469 H 44.017 -0.133556 2.1198 0
M  V30 470 H 46.28 -0.121879 0.940133 0
M  V30 471 H 45.986 -1.03236 3.36207 0
M  V30 472 H 45.86 -2.64719 2.68707 0
M  V30 473 H 48.247 -2.39164 1.72872 0
M  V30 474 H 48.328 -0.772836 2.43846 0
M  V30 475 H 47.972 -1.79358 4.75177 0
M  V30 476 H 47.902 -3.41223 4.01092 0
M  V30 477 H 50.393 -2.1273 3.12337 0
M  V30 478 H 50.706 -3.81922 6.7183 0
M  V30 479 H 49.051 -3.44077 6.03851 0
M  V30 480 H 52.242 -2.56499 3.91568 0
M  V30 481 H 52.415 -3.33672 5.55488 0
M  V30 482 N 45.8211 -1.22559 -0.990812 0
M  V30 483 C 47.0671 -1.05297 -1.73322 0
M  V30 484 C 47.4001 0.410655 -1.89808 0
M  V30 485 O 46.6751 1.30439 -1.44277 0
M  V30 486 C 46.9581 -1.76713 -3.13759 0
M  V30 487 C 46.8111 -3.30684 -3.04907 0
M  V30 488 C 48.1301 -1.52121 -4.12974 0
M  V30 489 H 45.2491 -0.38392 -0.629106 0
M  V30 490 H 47.8911 -1.50926 -1.15418 0
M  V30 491 H 46.0411 -1.37924 -3.63193 0
M  V30 492 H 47.7131 -3.7893 -2.63077 0
M  V30 493 H 45.9561 -3.60253 -2.41661 0
M  V30 494 H 46.6271 -3.75833 -4.04294 0
M  V30 495 H 49.1031 -1.85819 -3.72304 0
M  V30 496 H 47.9791 -2.04582 -5.0935 0
M  V30 497 H 48.2401 -0.454257 -4.3976 0
M  V30 498 N 47.2992 1.18797 -1.03562 0
M  V30 499 C 48.5242 1.9314 -0.755764 0
M  V30 500 C 48.9492 1.7537 0.68022 0
M  V30 501 O 48.3072 1.06046 1.47051 0
M  V30 502 C 48.3552 3.42747 -1.12058 0
M  V30 503 O 47.4592 4.11683 -0.243124 0
M  V30 504 H 46.8002 0.602724 -0.278604 0
M  V30 505 H 49.3302 1.50678 -1.3841 0
M  V30 506 H 49.3402 3.93437 -1.08035 0
M  V30 507 H 48.0152 3.55002 -2.16672 0
M  V30 508 H 46.5922 3.71323 -0.342539 0
M  V30 509 N 48.7773 0.814389 1.34928 0
M  V30 510 C 50.1933 0.499084 1.51596 0
M  V30 511 C 50.3933 -0.978319 1.76157 0
M  V30 512 O 49.4493 -1.76309 1.80752 0
M  V30 513 C 50.7623 1.35121 2.68631 0
M  V30 514 C 52.3103 1.34746 2.82511 0
M  V30 515 C 52.7853 2.18388 4.0258 0
M  V30 516 N 54.2763 2.15966 4.09772 0
M  V30 517 C 55.0113 2.77437 5.01813 0
M  V30 518 N 54.5073 3.47866 5.99134 0
M  V30 519 N 56.3003 2.67037 4.94619 0
M  V30 520 H 48.4513 1.7711 1.17243 0
M  V30 521 H 50.7143 0.754256 0.574284 0
M  V30 522 H 50.4203 2.40001 2.57085 0
M  V30 523 H 50.2943 1.00991 3.63429 0
M  V30 524 H 52.6813 0.30648 2.93504 0
M  V30 525 H 52.7623 1.72869 1.88547 0
M  V30 526 H 52.4063 3.2253 3.92347 0
M  V30 527 H 52.3363 1.77621 4.9574 0
M  V30 528 H 54.8273 1.64729 3.40107 0
M  V30 529 H 55.1403 3.92038 6.65977 0
M  V30 530 H 53.4853 3.51972 5.99284 0
M  V30 531 H 56.6763 2.11597 4.17546 0
M  V30 532 H 56.8493 3.15232 5.66156 0
M  V30 533 N 50.2554 -1.46986 0.568584 0
M  V30 534 C 51.1654 -2.33942 -0.17555 0
M  V30 535 C 52.1814 -1.48891 -0.90041 0
M  V30 536 O 53.3574 -1.81794 -0.86676 0
M  V30 537 C 50.4224 -3.25811 -1.18524 0
M  V30 538 C 49.4834 -4.26757 -0.466582 0
M  V30 539 C 48.7164 -5.14236 -1.42817 0
M  V30 540 O 48.9394 -5.04379 -2.66379 0
M  V30 541 O 47.8734 -5.94412 -0.946453 0
M  V30 542 H 51.6994 -2.98896 0.538036 0
M  V30 543 H 49.2844 -1.4573 0.329097 0
M  V30 544 H 51.1664 -3.82527 -1.76779 0
M  V30 545 H 49.8414 -2.63471 -1.88055 0
M  V30 546 H 48.7484 -3.73769 0.157451 0
M  V30 547 H 50.0814 -4.91843 0.187485 0
M  V30 548 N 51.7335 -0.305618 -1.54608 0
M  V30 549 C 52.9815 0.301701 -1.99835 0
M  V30 550 C 53.3025 1.54054 -1.19551 0
M  V30 551 O 52.5725 1.93702 -0.292658 0
M  V30 552 H 51.1525 0.114468 -0.738178 0
M  V30 553 H 53.8145 -0.418016 -1.90364 0
M  V30 554 H 52.9105 0.570548 -3.06841 0
M  V30 555 N 53.2116 1.57565 -0.0334293 0
M  V30 556 C 54.4596 1.91598 0.642999 0
M  V30 557 C 54.7806 0.910847 1.7242 0
M  V30 558 O 54.0506 -0.0469931 1.95844 0
M  V30 559 H 52.6306 0.707228 0.240496 0
M  V30 560 H 55.2926 1.94726 -0.0822488 0
M  V30 561 H 54.3886 2.92336 1.09298 0
M  V30 562 N 54.6897 -0.239769 1.55765 0
M  V30 563 C 55.9357 -0.968234 1.78194 0
M  V30 564 C 56.2687 -1.84701 0.599938 0
M  V30 565 O 55.5437 -1.9031 -0.401524 0
M  V30 566 C 55.8267 -1.8227 3.10564 0
M  V30 567 C 55.6797 -0.971633 4.3918 0
M  V30 568 C 56.9987 -2.80388 3.39221 0
M  V30 569 H 54.1177 -0.350572 0.648281 0
M  V30 570 H 56.7597 -0.238259 1.885 0
M  V30 571 H 54.9097 -2.44507 3.01908 0
M  V30 572 H 56.5817 -0.367408 4.59835 0
M  V30 573 H 54.8247 -0.276276 4.32919 0
M  V30 574 H 55.4957 -1.60346 5.28198 0
M  V30 575 H 57.9717 -2.28287 3.47885 0
M  V30 576 H 56.8477 -3.3729 4.33044 0
M  V30 577 H 57.1087 -3.57212 2.60484 0
M  V30 578 N 56.1678 -1.49265 -0.50573 0
M  V30 579 C 57.0978 -1.68495 -1.61653 0
M  V30 580 C 58.0788 -0.53366 -1.61512 0
M  V30 581 O 59.2638 -0.76897 -1.78327 0
M  V30 582 C 56.3938 -1.74709 -3.00157 0
M  V30 583 C 55.3478 -2.89581 -3.15162 0
M  V30 584 C 54.6738 -2.80903 -4.5497 0
M  V30 585 C 55.9738 -4.30578 -2.95634 0
M  V30 586 H 57.6678 -2.61493 -1.45814 0
M  V30 587 H 55.2138 -1.25838 -0.70005 0
M  V30 588 H 57.1668 -1.86748 -3.77761 0
M  V30 589 H 55.8908 -0.783067 -3.17074 0
M  V30 590 H 54.5498 -2.77136 -2.39982 0
M  V30 591 H 54.1978 -1.82419 -4.68756 0
M  V30 592 H 53.8978 -3.57999 -4.65951 0
M  V30 593 H 55.4218 -2.94944 -5.34641 0
M  V30 594 H 56.8358 -4.4373 -3.63011 0
M  V30 595 H 55.2328 -5.0886 -3.18091 0
M  V30 596 H 56.3028 -4.45352 -1.91806 0
M  V30 597 N 57.6459 0.756429 -1.3826 0
M  V30 598 C 58.5929 1.87011 -1.35261 0
M  V30 599 C 59.5629 1.64695 -0.215616 0
M  V30 600 O 60.7479 1.864 -0.407399 0
M  V30 601 C 57.8879 3.24275 -1.18068 0
M  V30 602 C 57.0009 3.58442 -2.41129 0
M  V30 603 C 56.1359 4.84994 -2.16689 0
M  V30 604 C 55.1749 5.11939 -3.35537 0
M  V30 605 N 54.3119 6.29685 -3.10549 0
M  V30 606 H 59.1519 1.8891 -2.30472 0
M  V30 607 H 56.6889 0.923373 -1.14509 0
M  V30 608 H 58.6469 4.03479 -1.06116 0
M  V30 609 H 57.2769 3.21711 -0.264973 0
M  V30 610 H 56.3289 2.74103 -2.63764 0
M  V30 611 H 57.6409 3.74283 -3.29717 0
M  V30 612 H 56.7949 5.72135 -2.01857 0
M  V30 613 H 55.5339 4.71286 -1.25462 0
M  V30 614 H 54.5389 4.23268 -3.50891 0
M  V30 615 H 55.7639 5.27546 -4.27635 0
M  V30 616 H 53.7099 6.17306 -2.21967 0
M  V30 617 H 53.6269 6.46014 -3.92686 0
M  V30 618 H 54.8949 7.19722 -2.99367 0
M  V30 619 N 59.124 1.23083 0.984299 0
M  V30 620 C 60.37 1.06214 1.72761 0
M  V30 621 C 60.703 -0.400584 1.90024 0
M  V30 622 O 59.978 -1.29672 1.44967 0
M  V30 623 C 60.261 1.78375 3.12817 0
M  V30 624 C 60.114 3.32296 3.03149 0
M  V30 625 C 61.433 1.54309 4.12161 0
M  V30 626 H 58.552 0.387251 0.627061 0
M  V30 627 H 61.194 1.51536 1.14616 0
M  V30 628 H 59.344 1.39848 3.62457 0
M  V30 629 H 61.016 3.8032 2.61064 0
M  V30 630 H 59.259 3.6153 2.39747 0
M  V30 631 H 59.93 3.77972 4.02295 0
M  V30 632 H 62.406 1.87791 3.71314 0
M  V30 633 H 61.282 2.07281 5.08258 0
M  V30 634 H 61.543 0.477572 4.39513 0
M  V30 635 N 60.6021 -1.18246 1.0419 0
M  V30 636 C 61.5521 -2.19843 0.604392 0
M  V30 637 C 62.5361 -1.56962 -0.353814 0
M  V30 638 O 63.7281 -1.76156 -0.17267 0
M  V30 639 C 60.8571 -3.43287 -0.0298975 0
M  V30 640 C 59.9431 -4.13288 0.951531 0
M  V30 641 N 60.3341 -4.59271 2.11906 0
M  V30 642 C 58.6321 -4.39165 0.7778 0
M  V30 643 C 59.3331 -5.13173 2.73912 0
M  V30 644 N 58.3091 -5.04763 2.01779 0
M  V30 645 H 62.1111 -2.53089 1.4941 0
M  V30 646 H 59.6251 -1.34465 0.910658 0
M  V30 647 H 61.6221 -4.15334 -0.361037 0
M  V30 648 H 60.2821 -3.11537 -0.915127 0
M  V30 649 H 61.2931 -4.5368 2.49789 0
M  V30 650 H 57.9701 -4.17461 -0.0572331 0
M  V30 651 H 59.3601 -5.58947 3.72864 0
M  V30 652 N 62.0802 -0.821533 -1.34494 0
M  V30 653 C 63.4912 -0.467956 -1.8074 0
M  V30 654 C 63.8422 1.01151 -1.68116 0
M  V30 655 O 62.9672 1.78707 -1.22036 0
M  V30 656 C 63.5622 -0.842627 -3.28154 0
M  V30 657 C 62.1212 -0.541439 -3.72485 0
M  V30 658 C 61.2682 -1.06028 -2.56229 0
M  V30 659 H 64.2192 -1.01183 -1.22261 0
M  V30 660 H 64.2402 -0.145876 -3.8022 0
M  V30 661 H 63.7522 -1.91945 -3.37311 0
M  V30 662 H 61.8532 0.526034 -3.68868 0
M  V30 663 H 61.9662 -1.08453 -4.66663 0
M  V30 664 H 60.3302 -0.481892 -2.501 0
M  V30 665 H 61.1132 -2.14352 -2.68157 0
M  V30 666 N 63.5583 1.46682 -0.576371 0
M  V30 667 C 64.7863 2.06798 -0.0649635 0
M  V30 668 C 65.2013 1.42612 1.23723 0
M  V30 669 O 64.5583 0.529203 1.74659 0
M  V30 670 C 64.6093 3.6132 0.114202 0
M  V30 671 O 64.3303 4.23104 -1.13644 0
M  V30 672 C 65.8313 4.38349 0.66069 0
M  V30 673 H 63.0513 0.668778 -0.0545616 0
M  V30 674 H 65.5953 1.88404 -0.795237 0
M  V30 675 H 63.7503 3.79162 0.794673 0
M  V30 676 H 64.1643 5.15894 -0.946253 0
M  V30 677 H 65.6383 5.47081 0.73526 0
M  V30 678 H 66.1153 4.05953 1.67627 0
M  V30 679 H 66.7213 4.25297 0.0152951 0
M  V30 680 N 65.0364 0.313813 1.54444 0
M  V30 681 C 66.2614 -0.296681 2.05267 0
M  V30 682 C 66.6864 -1.45757 1.18897 0
M  V30 683 O 66.0444 -1.80239 0.195886 0
M  V30 684 C 66.0924 -0.71831 3.53373 0
M  V30 685 O 65.1964 -1.82175 3.69981 0
M  V30 686 H 64.5374 -0.0554061 0.661684 0
M  V30 687 H 67.0674 0.459387 1.99376 0
M  V30 688 H 67.0774 -1.00364 3.95463 0
M  V30 689 H 65.7524 0.130821 4.15694 0
M  V30 690 H 64.3294 -1.53598 3.39797 0
M  V30 691 N 66.5145 -1.57545 0.0417849 0
M  V30 692 C 67.7425 -1.96624 -0.643928 0
M  V30 693 C 68.1575 -0.918897 -1.64929 0
M  V30 694 O 67.5145 0.0979323 -1.82237 0
M  V30 695 C 67.5655 -3.35781 -1.33914 0
M  V30 696 O 67.2865 -4.365 -0.374048 0
M  V30 697 C 68.7875 -3.89566 -2.1155 0
M  V30 698 H 66.0075 -0.647316 -0.176702 0
M  V30 699 H 68.5515 -2.04229 0.105304 0
M  V30 700 H 66.7065 -3.29357 -2.03968 0
M  V30 701 H 67.1205 -5.17248 -0.869179 0
M  V30 702 H 68.5945 -4.89242 -2.55628 0
M  V30 703 H 69.0715 -3.24488 -2.9598 0
M  V30 704 H 69.6775 -3.99298 -1.46427 0
M  V30 705 N 67.9926 0.231505 -1.5589 0
M  V30 706 C 69.4086 0.580748 -1.48659 0
M  V30 707 C 69.6086 1.87617 -0.73498 0
M  V30 708 O 68.6646 2.51046 -0.270586 0
M  V30 709 C 69.9776 0.669202 -2.93159 0
M  V30 710 C 71.5256 0.760499 -3.03621 0
M  V30 711 C 72.0006 0.880383 -4.49459 0
M  V30 712 N 73.4916 0.944861 -4.53461 0
M  V30 713 C 74.2266 1.05716 -5.63571 0
M  V30 714 N 73.7226 1.13403 -6.83456 0
M  V30 715 N 75.5156 1.09152 -5.514 0
M  V30 716 H 67.6666 -0.618695 -2.03189 0
M  V30 717 H 69.9296 -0.215728 -0.923128 0
M  V30 718 H 69.6356 -0.212904 -3.51055 0
M  V30 719 H 69.5096 1.5361 -3.44505 0
M  V30 720 H 71.8966 1.63305 -2.45796 0
M  V30 721 H 71.9776 -0.131864 -2.5546 0
M  V30 722 H 71.6216 0.0123284 -5.07899 0
M  V30 723 H 71.5516 1.78802 -4.95316 0
M  V30 724 H 74.0426 0.896176 -3.6712 0
M  V30 725 H 74.3556 1.21921 -7.63122 0
M  V30 726 H 72.7006 1.10333 -6.86186 0
M  V30 727 H 75.8916 1.02805 -4.56671 0
M  V30 728 H 76.0646 1.17558 -6.37247 0
M  V30 729 N 69.4707 1.49531 0.497807 0
M  V30 730 C 70.7177 1.59179 1.25173 0
M  V30 731 C 71.0457 0.279932 1.92475 0
M  V30 732 O 70.3007 -0.732383 1.81479 0
M  V30 733 C 70.5997 2.70252 2.33878 0
M  V30 734 C 70.2657 4.11644 1.84012 0
M  V30 735 C 68.9277 4.50121 1.70132 0
M  V30 736 C 71.2797 5.00121 1.46725 0
M  V30 737 C 68.6077 5.74845 1.17348 0
M  V30 738 C 70.9597 6.25366 0.95392 0
M  V30 739 C 69.6237 6.6267 0.801538 0
M  V30 740 H 68.8937 0.582478 0.45804 0
M  V30 741 H 71.5407 1.83373 0.551948 0
M  V30 742 H 69.8457 2.40041 3.09657 0
M  V30 743 H 71.5427 2.74925 2.9192 0
M  V30 744 H 68.1327 3.81274 1.95775 0
M  V30 745 H 72.3167 4.71048 1.56294 0
M  V30 746 H 67.5727 6.02444 1.04264 0
M  V30 747 H 71.7467 6.93301 0.656225 0
M  V30 748 H 69.3737 7.59197 0.390351 0
M  V30 749 N 70.9488 -0.749086 1.3866 0
M  V30 750 C 72.1768 -1.53834 1.38358 0
M  V30 751 C 72.5918 -1.88783 -0.0255219 0
M  V30 752 O 71.9488 -1.53101 -0.993292 0
M  V30 753 C 71.9998 -2.83468 2.2434 0
M  V30 754 O 71.7208 -2.50008 3.5976 0
M  V30 755 C 73.2218 -3.7758 2.32267 0
M  V30 756 H 70.4418 -0.47585 0.473083 0
M  V30 757 H 72.9858 -0.926726 1.82297 0
M  V30 758 H 71.1408 -3.40995 1.83851 0
M  V30 759 H 71.5548 -3.33182 4.05081 0
M  V30 760 H 73.0288 -4.65478 2.96706 0
M  V30 761 H 73.5058 -4.18334 1.33765 0
M  V30 762 H 74.1118 -3.25976 2.73166 0
M  V30 763 N 72.4269 -1.23603 -0.977757 0
M  V30 764 C 73.6739 -1.06971 -1.71941 0
M  V30 765 C 74.0019 0.393009 -1.90488 0
M  V30 766 O 73.2569 1.30719 -1.4564 0
M  V30 767 C 73.5559 -1.7433 -3.11999 0
M  V30 768 C 73.2219 -3.24252 -3.13323 0
M  V30 769 C 71.8839 -3.65156 -3.13392 0
M  V30 770 C 74.2359 -4.20141 -3.08433 0
M  V30 771 C 71.5639 -5.00403 -3.0629 0
M  V30 772 C 73.9159 -5.55384 -3.02873 0
M  V30 773 C 72.5799 -5.95647 -3.01265 0
M  V30 774 H 71.8499 -0.391433 -0.629175 0
M  V30 775 H 74.4969 -1.53572 -1.14403 0
M  V30 776 H 72.8019 -1.20096 -3.7294 0
M  V30 777 H 74.4989 -1.58936 -3.68158 0
M  V30 778 H 71.0889 -2.91692 -3.14029 0
M  V30 779 H 75.2729 -3.89547 -3.07517 0
M  V30 780 H 70.5289 -5.3081 -3.03399 0
M  V30 781 H 74.7029 -6.29398 -2.98046 0
M  V30 782 H 72.3299 -7.0041 -2.95516 0
M  V30 783 N 73.905 1.17692 -1.04816 0
M  V30 784 C 75.321 1.39863 -0.768794 0
M  V30 785 C 75.521 1.91118 0.638451 0
M  V30 786 O 74.577 2.10036 1.40146 0
M  V30 787 C 75.89 2.39274 -1.82122 0
M  V30 788 C 77.438 2.52987 -1.843 0
M  V30 789 C 77.913 3.55669 -2.88555 0
M  V30 790 N 79.404 3.63183 -2.87493 0
M  V30 791 C 80.139 4.42381 -3.64811 0
M  V30 792 N 79.635 5.25125 -4.51903 0
M  V30 793 N 81.428 4.37217 -3.53267 0
M  V30 794 H 73.579 0.82752 -1.95617 0
M  V30 795 H 75.842 0.426123 -0.846831 0
M  V30 796 H 75.548 2.08678 -2.83102 0
M  V30 797 H 75.422 3.38725 -1.65967 0
M  V30 798 H 77.809 2.82896 -0.839869 0
M  V30 799 H 77.89 1.53623 -2.04532 0
M  V30 800 H 77.534 3.26499 -3.89051 0
M  V30 801 H 77.464 4.54728 -2.65575 0
M  V30 802 H 79.955 3.04103 -2.24343 0
M  V30 803 H 80.268 5.82728 -5.07591 0
M  V30 804 H 78.613 5.24519 -4.55966 0
M  V30 805 H 81.804 3.71626 -2.84625 0
M  V30 806 H 81.977 4.98696 -4.13771 0
M  V30 807 N 75.3831 0.828654 1.34056 0
M  V30 808 C 76.6111 0.43262 2.02326 0
M  V30 809 C 77.0261 -0.963147 1.62385 0
M  V30 810 O 76.3831 -1.62425 0.832121 0
M  V30 811 C 76.4341 0.53182 3.57567 0
M  V30 812 O 76.1551 1.87258 3.96063 0
M  V30 813 C 77.6561 0.131422 4.43105 0
M  V30 814 H 74.8761 0.172923 0.648335 0
M  V30 815 H 77.4201 1.1184 1.71208 0
M  V30 816 H 75.5751 -0.105938 3.87255 0
M  V30 817 H 75.9891 1.85087 4.90758 0
M  V30 818 H 77.4631 0.251904 5.51425 0
M  V30 819 H 77.9401 -0.925645 4.29335 0
M  V30 820 H 78.5461 0.743207 4.18756 0
M  V30 821 N 76.8612 -1.46375 0.584142 0
M  V30 822 C 77.8242 -2.28784 -0.138108 0
M  V30 823 C 78.8242 -1.38471 -0.817462 0
M  V30 824 O 80.0142 -1.60833 -0.669199 0
M  V30 825 C 77.1462 -3.18892 -1.20503 0
M  V30 826 H 78.3392 -2.94117 0.586127 0
M  V30 827 H 75.8922 -1.52509 0.342171 0
M  V30 828 H 76.6272 -2.58309 -1.96079 0
M  V30 829 H 76.4122 -3.85388 -0.722384 0
M  V30 830 H 77.9022 -3.80914 -1.71155 0
M  V30 831 N 78.3393 -0.321999 -1.54275 0
M  V30 832 C 79.7553 0.0306999 -1.5957 0
M  V30 833 C 79.9553 1.50614 -1.33857 0
M  V30 834 O 79.0113 2.2619 -1.12223 0
M  V30 835 C 80.3243 -0.386122 -2.98211 0
M  V30 836 C 81.8723 -0.336647 -3.11184 0
M  V30 837 C 82.3473 -0.728607 -4.52167 0
M  V30 838 N 83.8383 -0.681952 -4.58152 0
M  V30 839 C 84.5733 -0.957449 -5.6535 0
M  V30 840 N 84.0693 -1.3 -6.80494 0
M  V30 841 N 85.8623 -0.883113 -5.55119 0
M  V30 842 H 78.0133 -1.28332 -1.69247 0
M  V30 843 H 80.2763 -0.521716 -0.791528 0
M  V30 844 H 79.9823 -1.41404 -3.22022 0
M  V30 845 H 79.8563 0.249662 -3.76373 0
M  V30 846 H 82.2433 0.682058 -2.8711 0
M  V30 847 H 82.3243 -1.00734 -2.3513 0
M  V30 848 H 81.9683 -1.74522 -4.76974 0
M  V30 849 H 81.8983 -0.0356152 -5.26588 0
M  V30 850 H 84.3893 -0.428985 -3.75457 0
M  V30 851 H 84.7023 -1.49563 -7.58189 0
M  V30 852 H 83.0473 -1.33824 -6.81994 0
M  V30 853 H 86.2383 -0.615001 -4.64042 0
M  V30 854 H 86.4113 -1.10118 -6.38575 0
M  V30 855 N 79.8174 1.5752 -0.0501392 0
M  V30 856 C 80.7494 2.08413 0.95376 0
M  V30 857 C 81.7624 1.01175 1.27544 0
M  V30 858 O 82.9514 1.28744 1.23641 0
M  V30 859 C 80.0514 2.51138 2.27559 0
M  V30 860 C 79.2244 3.817 2.13598 0
M  V30 861 C 78.2834 4.10749 3.28895 0
M  V30 862 O 77.3094 4.80685 3.04845 0
M  V30 863 N 78.5114 3.62579 4.5334 0
M  V30 864 H 81.2764 2.95165 0.519383 0
M  V30 865 H 78.8374 1.61327 0.136127 0
M  V30 866 H 80.8294 2.67648 3.03557 0
M  V30 867 H 79.3994 1.6964 2.62567 0
M  V30 868 H 78.6194 3.74782 1.22197 0
M  V30 869 H 79.9074 4.67201 2.01496 0
M  V30 870 H 79.3054 3.06039 4.75769 0
M  V30 871 H 77.8624 3.84329 5.26436 0
M  V30 872 N 81.2955 -0.223234 1.56011 0
M  V30 873 C 82.5415 -0.949279 1.79211 0
M  V30 874 C 82.8745 -1.84054 0.619494 0
M  V30 875 O 82.1495 -1.90726 -0.381317 0
M  V30 876 C 82.4325 -1.78965 3.12479 0
M  V30 877 C 82.2855 -0.924997 4.40186 0
M  V30 878 C 83.6045 -2.76774 3.42175 0
M  V30 879 H 80.7235 -0.343676 0.651963 0
M  V30 880 H 83.3655 -0.218253 1.88742 0
M  V30 881 H 81.5155 -2.41291 3.04485 0
M  V30 882 H 83.1875 -0.318615 4.60198 0
M  V30 883 H 81.4305 -0.230344 4.33188 0
M  V30 884 H 82.1015 -1.54735 5.29869 0
M  V30 885 H 84.5775 -2.24584 3.50287 0
M  V30 886 H 83.4535 -3.32678 4.36597 0
M  V30 887 H 83.7145 -3.54429 2.64258 0
M  V30 888 N 82.7736 -1.49793 -0.48987 0
M  V30 889 C 84.1846 -1.52914 -1.07118 0
M  V30 890 C 84.5356 -0.321738 -1.93544 0
M  V30 891 O 83.6606 0.567338 -2.08831 0
M  V30 892 C 84.2556 -2.771 -1.94938 0
M  V30 893 C 82.8146 -2.82963 -2.48212 0
M  V30 894 C 81.9616 -2.46972 -1.26096 0
M  V30 895 H 84.9126 -1.56329 -0.273289 0
M  V30 896 H 84.9336 -2.57892 -2.79771 0
M  V30 897 H 84.4456 -3.64959 -1.32009 0
M  V30 898 H 82.5466 -1.99411 -3.14748 0
M  V30 899 H 82.6596 -3.85406 -2.84603 0
M  V30 900 H 81.0236 -1.98994 -1.58976 0
M  V30 901 H 81.8066 -3.37118 -0.648581 0
M  V30 902 N 84.2517 0.741722 -1.39055 0
M  V30 903 C 85.6677 1.04638 -1.20512 0
M  V30 904 C 85.8677 2.01405 -0.0620218 0
M  V30 905 O 84.9237 2.45547 0.588457 0
M  V30 906 C 86.2367 1.6151 -2.53643 0
M  V30 907 C 87.7847 1.73623 -2.6043 0
M  V30 908 C 88.2597 2.33906 -3.93767 0
M  V30 909 N 89.7507 2.41323 -3.9537 0
M  V30 910 C 90.4857 2.88888 -4.95309 0
M  V30 911 N 89.9817 3.36401 -6.05645 0
M  V30 912 N 91.7747 2.88037 -4.82692 0
M  V30 913 H 83.9257 0.0998155 -2.12165 0
M  V30 914 H 86.1887 0.106907 -0.941953 0
M  V30 915 H 85.8947 0.978739 -3.37807 0
M  V30 916 H 85.7687 2.60411 -2.72885 0
M  V30 917 H 88.1557 2.36384 -1.76655 0
M  V30 918 H 88.2367 0.733945 -2.45045 0
M  V30 919 H 87.8807 1.71776 -4.7797 0
M  V30 920 H 87.8107 3.34799 -4.06469 0
M  V30 921 H 90.3017 2.07734 -3.15682 0
M  V30 922 H 90.6147 3.71186 -6.77821 0
M  V30 923 H 88.9597 3.34427 -6.09248 0
M  V30 924 H 92.1507 2.50237 -3.95599 0
M  V30 925 H 92.3237 3.24792 -5.60726 0
M  V30 926 N 85.7298 1.2412 0.971189 0
M  V30 927 C 86.6598 1.05508 2.08304 0
M  V30 928 C 87.6408 -0.0308864 1.70072 0
M  V30 929 O 88.8258 0.135521 1.93727 0
M  V30 930 C 85.9558 0.655365 3.4106 0
M  V30 931 C 84.9098 1.68971 3.93234 0
M  V30 932 C 84.2358 1.14516 5.22293 0
M  V30 933 C 85.5358 3.08487 4.21465 0
M  V30 934 H 87.2298 1.98507 2.24132 0
M  V30 935 H 84.7758 0.955821 1.07704 0
M  V30 936 H 86.7288 0.51217 4.18276 0
M  V30 937 H 85.4528 -0.31032 3.25122 0
M  V30 938 H 84.1118 1.82106 3.18171 0
M  V30 939 H 83.7598 0.170189 5.02712 0
M  V30 940 H 83.4598 1.83635 5.58168 0
M  V30 941 H 84.9838 1.01401 6.02121 0
M  V30 942 H 86.3978 2.98601 4.89398 0
M  V30 943 H 84.7948 3.74926 4.68562 0
M  V30 944 H 85.8648 3.56787 3.28376 0
M  V30 945 N 87.2079 -1.17134 1.05439 0
M  V30 946 C 88.4559 -1.87085 0.764429 0
M  V30 947 C 88.7769 -1.81584 -0.710787 0
M  V30 948 O 88.0469 -1.24349 -1.51374 0
M  V30 949 H 86.6269 -0.692627 0.279779 0
M  V30 950 H 89.2889 -1.42087 1.33406 0
M  V30 951 H 88.3849 -2.92759 1.0816 0
M  V30 952 N 88.686 -0.835752 -1.33615 0
M  V30 953 C 89.932 -0.430596 -1.98176 0
M  V30 954 C 90.265 1.00684 -1.66061 0
M  V30 955 O 89.54 1.70339 -0.938877 0
M  V30 956 C 89.823 -0.648065 -3.5422 0
M  V30 957 C 89.676 -2.13255 -3.96033 0
M  V30 958 C 90.995 -0.0922113 -4.40003 0
M  V30 959 H 88.114 -0.157924 -0.719881 0
M  V30 960 H 90.756 -1.05069 -1.58305 0
M  V30 961 H 88.906 -0.120237 -3.88314 0
M  V30 962 H 90.578 -2.725 -3.72211 0
M  V30 963 H 88.821 -2.61823 -3.45878 0
M  V30 964 H 89.492 -2.23547 -5.04708 0
M  V30 965 H 91.968 -0.543343 -4.12537 0
M  V30 966 H 90.844 -0.274083 -5.48215 0
M  V30 967 H 91.105 1.00378 -4.30554 0
M  V30 968 N 90.1641 1.46063 -0.591896 0
M  V30 969 C 91.0971 2.27452 0.184617 0
M  V30 970 C 92.0751 1.36188 0.888351 0
M  V30 971 O 93.2591 1.65606 0.90039 0
M  V30 972 C 90.3861 3.14162 1.26571 0
M  V30 973 C 89.4321 4.21255 0.666814 0
M  V30 974 S 90.2651 5.33034 -0.513345 0
M  V30 975 C 91.4211 6.23311 0.56872 0
M  V30 976 H 91.6541 2.92963 -0.505939 0
M  V30 977 H 89.1871 1.49676 -0.379014 0
M  V30 978 H 91.1451 3.6468 1.88463 0
M  V30 979 H 89.8061 2.47946 1.92826 0
M  V30 980 H 88.9991 4.81788 1.47974 0
M  V30 981 H 88.6011 3.73797 0.123359 0
M  V30 982 H 90.8931 6.61758 1.45198 0
M  V30 983 H 91.8361 7.081 -7.23824e-05 0
M  V30 984 H 92.2441 5.57646 0.876996 0
M  V30 985 N 91.6422 0.330177 1.54103 0
M  V30 986 C 92.5722 -0.525353 2.27513 0
M  V30 987 C 93.5532 -1.11383 1.2856 0
M  V30 988 O 94.7382 -1.13773 1.57383 0
M  V30 989 C 91.8682 -1.6831 3.03791 0
M  V30 990 C 90.8222 -1.2236 4.10137 0
M  V30 991 C 90.1482 -2.46882 4.74293 0
M  V30 992 C 91.4482 -0.333697 5.21233 0
M  V30 993 H 93.1422 0.087013 2.99274 0
M  V30 994 H 90.6882 0.0432893 1.43935 0
M  V30 995 H 92.6412 -2.28795 3.5388 0
M  V30 996 H 91.3652 -2.32216 2.29659 0
M  V30 997 H 90.0242 -0.64165 3.60941 0
M  V30 998 H 89.6722 -3.09165 3.96769 0
M  V30 999 H 89.3722 -2.16825 5.46133 0
M  V30 1000 H 90.8962 -3.08117 5.27159 0
M  V30 1001 H 92.3102 -0.845013 5.67038 0
M  V30 1002 H 90.7072 -0.125612 5.99969 0
M  V30 1003 H 91.7772 0.633724 4.80741 0
M  V30 1004 N 93.1203 -1.57491 0.0584922 0
M  V30 1005 C 94.3663 -1.93264 -0.614558 0
M  V30 1006 C 94.6993 -0.937717 -1.7006 0
M  V30 1007 O 93.9743 0.0351652 -1.94468 0
M  V30 1008 C 94.2573 -3.3938 -1.20386 0
M  V30 1009 C 94.1103 -4.49625 -0.125375 0
M  V30 1010 C 95.4293 -3.86039 -2.11334 0
M  V30 1011 H 92.5483 -0.702791 -0.221933 0
M  V30 1012 H 95.1903 -1.8961 0.12175 0
M  V30 1013 H 93.3403 -3.42626 -1.83139 0
M  V30 1014 H 95.0123 -4.58506 0.506971 0
M  V30 1015 H 93.2553 -4.30354 0.545672 0
M  V30 1016 H 93.9263 -5.48967 -0.577861 0
M  V30 1017 H 96.4023 -3.84716 -1.58534 0
M  V30 1018 H 95.2783 -4.88914 -2.49507 0
M  V30 1019 H 95.5393 -3.23215 -3.01636 0
M  V30 1020 N 94.5984 0.214957 -1.56127 0
M  V30 1021 C 95.8464 0.936518 -1.79091 0
M  V30 1022 C 96.1674 1.84606 -0.628148 0
M  V30 1023 O 95.4374 1.92664 0.35462 0
M  V30 1024 H 94.0174 0.3488 -0.660566 0
M  V30 1025 H 96.6794 0.22523 -1.93594 0
M  V30 1026 H 95.7754 1.53943 -2.71492 0
M  V30 1027 N 96.0765 1.50051 0.48192 0
M  V30 1028 C 97.3225 1.61706 1.2338 0
M  V30 1029 C 97.6775 0.308488 1.89911 0
M  V30 1030 O 96.9705 -0.692798 1.78636 0
M  V30 1031 C 97.1645 2.72717 2.30998 0
M  V30 1032 C 96.9935 4.14242 1.75024 0
M  V30 1033 C 95.7635 4.80786 1.55476 0
M  V30 1034 C 97.9615 4.98846 1.25128 0
M  V30 1035 N 95.9435 6.06563 0.946311 0
M  V30 1036 C 97.3145 6.15258 0.765382 0
M  V30 1037 C 99.3695 4.84702 1.13881 0
M  V30 1038 C 98.0725 7.19079 0.178113 0
M  V30 1039 C 100.098 5.8869 0.565486 0
M  V30 1040 C 99.4605 7.04343 0.0899105 0
M  V30 1041 H 95.5595 0.645958 0.440753 0
M  V30 1042 H 98.1435 1.8713 0.537624 0
M  V30 1043 H 96.3145 2.49033 2.98055 0
M  V30 1044 H 98.0465 2.73789 2.9803 0
M  V30 1045 H 94.8015 4.37899 1.80392 0
M  V30 1046 H 95.2255 6.73767 0.660812 0
M  V30 1047 H 99.8675 3.95583 1.49244 0
M  V30 1048 H 97.5855 8.07882 -0.187749 0
M  V30 1049 H 101.171 5.79808 0.480974 0
M  V30 1050 H 100.051 7.83433 -0.346782 0
M  V30 1051 N 97.5546 -0.734337 1.39446 0
M  V30 1052 C 98.8026 -1.49096 1.36436 0
M  V30 1053 C 99.1236 -1.94961 -0.0388255 0
M  V30 1054 O 98.3936 -1.69033 -0.990191 0
M  V30 1055 H 96.9736 -0.5531 0.502085 0
M  V30 1056 H 99.6356 -0.871725 1.74319 0
M  V30 1057 H 98.7316 -2.37276 2.02747 0
M  V30 1058 N 99.0327 -1.24633 -0.964593 0
M  V30 1059 C 100.281 -1.08573 -1.70459 0
M  V30 1060 C 100.602 0.375655 -1.91347 0
M  V30 1061 O 99.8717 1.26779 -1.49345 0
M  V30 1062 H 98.4517 -0.398784 -0.631649 0
M  V30 1063 H 101.114 -1.56601 -1.16026 0
M  V30 1064 H 100.21 -1.58623 -2.68785 0
M  V30 1065 N 100.511 1.16574 -1.06058 0
M  V30 1066 C 101.459 2.22941 -0.663343 0
M  V30 1067 C 102.453 1.66358 0.319593 0
M  V30 1068 O 103.659 1.7905 0.184713 0
M  V30 1069 H 100.034 0.725907 -0.196376 0
M  V30 1070 H 102.005 2.53736 -1.57037 0
M  V30 1071 C 100.754 3.47642 -0.0632808 0
M  V30 1072 H 100.077 3.91493 -0.810733 0
M  V30 1073 H 101.517 4.2363 0.177177 0
M  V30 1074 C 99.9758 3.1509 1.19248 0
M  V30 1075 O 100.506 3.30673 2.28075 0
M  V30 1076 N 98.7118 2.6924 1.09353 0
M  V30 1077 H 98.2588 2.5676 0.207912 0
M  V30 1078 H 98.2168 2.47833 1.93458 0
M  V30 1079 N 101.989 0.842826 1.3317 0
M  V30 1080 C 102.937 0.267495 2.31057 0
M  V30 1081 C 103.931 -0.602682 1.58316 0
M  V30 1082 O 105.137 -0.491803 1.73151 0
M  V30 1083 H 101.512 0.0677813 0.748939 0
M  V30 1084 H 103.483 1.10754 2.77085 0
M  V30 1085 C 102.232 -0.539331 3.43492 0
M  V30 1086 H 101.555 0.12095 3.99617 0
M  V30 1087 H 102.995 -0.90767 4.14171 0
M  V30 1088 C 101.454 -1.71981 2.89697 0
M  V30 1089 O 101.984 -2.81862 2.86211 0
M  V30 1090 N 100.19 -1.54299 2.46252 0
M  V30 1091 H 99.7369 -0.649143 2.49287 0
M  V30 1092 H 99.6949 -2.33431 2.10612 0
M  V30 1093 N 103.467 -1.45747 0.599634 0
M  V30 1094 C 104.715 -2.01893 0.0915472 0
M  V30 1095 C 105.036 -1.47155 -1.27946 0
M  V30 1096 O 104.306 -0.66273 -1.84349 0
M  V30 1097 H 102.886 -0.746363 0.0308524 0
M  V30 1098 H 105.548 -1.78645 0.779237 0
M  V30 1099 H 104.644 -3.1208 0.0353086 0
M  V30 1100 N 104.945 -0.338344 -1.53925 0
M  V30 1101 C 106.17 0.263987 -2.05713 0
M  V30 1102 C 106.595 1.43847 -1.21201 0
M  V30 1103 O 105.953 1.79904 -0.224535 0
M  V30 1104 C 106.001 0.662 -3.54471 0
M  V30 1105 O 105.105 1.76265 -3.72833 0
M  V30 1106 H 104.446 0.0448722 -0.662482 0
M  V30 1107 H 106.976 -0.491048 -1.9862 0
M  V30 1108 H 106.986 0.940594 -3.9701 0
M  V30 1109 H 105.661 -0.196937 -4.15433 0
M  V30 1110 H 104.238 1.48173 -3.42198 0
M  V30 1111 N 106.423 1.57458 -0.0668435 0
M  V30 1112 C 107.651 1.97624 0.612565 0
M  V30 1113 C 108.066 0.94502 1.63447 0
M  V30 1114 O 107.423 -0.0689276 1.8237 0
M  V30 1115 C 107.474 3.37869 1.28555 0
M  V30 1116 O 107.195 4.3704 0.304557 0
M  V30 1117 C 108.696 3.92882 2.05325 0
M  V30 1118 H 105.916 0.650045 0.166381 0
M  V30 1119 H 108.46 2.04035 -0.137782 0
M  V30 1120 H 106.615 3.3256 1.98702 0
M  V30 1121 H 107.029 5.18565 0.786779 0
M  V30 1122 H 108.503 4.93247 2.47812 0
M  V30 1123 H 108.98 3.29156 2.9078 0
M  V30 1124 H 109.586 4.01577 1.40056 0
M  V30 1125 N 107.901 -0.206675 1.56239 0
M  V30 1126 C 108.831 -1.25909 1.96645 0
M  V30 1127 C 109.812 -1.48097 0.836734 0
M  V30 1128 O 110.997 -1.6003 1.10019 0
M  V30 1129 C 108.127 -2.6058 2.29599 0
M  V30 1130 C 107.081 -2.53024 3.452 0
M  V30 1131 C 106.407 -3.91861 3.63798 0
M  V30 1132 C 107.707 -2.06524 4.79734 0
M  V30 1133 H 109.401 -0.923369 2.84806 0
M  V30 1134 H 106.947 -0.442735 1.37025 0
M  V30 1135 H 108.9 -3.34375 2.56459 0
M  V30 1136 H 107.624 -2.95869 1.38307 0
M  V30 1137 H 106.283 -1.81684 3.18412 0
M  V30 1138 H 105.931 -4.24483 2.69857 0
M  V30 1139 H 105.631 -3.87683 4.4156 0
M  V30 1140 H 107.155 -4.67296 3.93022 0
M  V30 1141 H 108.569 -2.70072 5.05702 0
M  V30 1142 H 106.966 -2.13374 5.60885 0
M  V30 1143 H 108.036 -1.01802 4.74093 0
M  V30 1144 N 109.379 -1.50304 -0.473955 0
M  V30 1145 C 110.607 -1.64902 -1.24959 0
M  V30 1146 C 111.022 -0.331198 -1.85872 0
M  V30 1147 O 110.379 0.68652 -1.69095 0
M  V30 1148 C 110.43 -2.73803 -2.36038 0
M  V30 1149 O 110.151 -4.00477 -1.77624 0
M  V30 1150 C 111.652 -2.99349 -3.26964 0
M  V30 1151 H 108.872 -0.554383 -0.378022 0
M  V30 1152 H 111.416 -1.9651 -0.566054 0
M  V30 1153 H 109.571 -2.44898 -3.00173 0
M  V30 1154 H 109.985 -4.60678 -2.5075 0
M  V30 1155 H 111.459 -3.79217 -4.01121 0
M  V30 1156 H 111.936 -2.10307 -3.85574 0
M  V30 1157 H 112.542 -3.29774 -2.68569 0
M  V30 1158 N 110.857 0.726932 -1.39834 0
M  V30 1159 C 111.82 1.82269 -1.38962 0
M  V30 1160 C 112.82 1.58248 -0.285334 0
M  V30 1161 O 114.01 1.65499 -0.54366 0
M  V30 1162 C 111.142 3.20186 -1.17019 0
M  V30 1163 H 112.335 1.84443 -2.36476 0
M  V30 1164 H 109.888 0.931416 -1.25516 0
M  V30 1165 H 110.623 3.23669 -0.202204 0
M  V30 1166 H 110.408 3.3902 -1.96998 0
M  V30 1167 H 111.898 4.00235 -1.1917 0
M  V30 1168 N 112.336 1.25143 0.95797 0
M  V30 1169 C 113.299 1.05321 2.03569 0
M  V30 1170 C 114.299 0.007152 1.60798 0
M  V30 1171 O 115.489 0.24903 1.72411 0
M  V30 1172 C 112.621 0.598394 3.35607 0
M  V30 1173 H 113.814 2.00986 2.22586 0
M  V30 1174 H 111.367 1.07502 1.13459 0
M  V30 1175 H 112.102 -0.361014 3.22284 0
M  V30 1176 H 111.887 1.35351 3.67998 0
M  V30 1177 H 113.377 0.48104 4.1482 0
M  V30 1178 N 113.814 -1.1601 1.06675 0
M  V30 1179 C 115.06 -1.86909 0.786945 0
M  V30 1180 C 115.393 -1.81717 -0.685018 0
M  V30 1181 O 114.668 -1.23551 -1.50218 0
M  V30 1182 C 114.951 -3.36313 1.28707 0
M  V30 1183 C 114.804 -3.50175 2.82308 0
M  V30 1184 C 116.123 -4.3084 0.898071 0
M  V30 1185 H 113.242 -0.678677 0.287343 0
M  V30 1186 H 115.884 -1.36336 1.32334 0
M  V30 1187 H 114.034 -3.79513 0.830768 0
M  V30 1188 H 115.706 -3.15886 3.36175 0
M  V30 1189 H 113.949 -2.91959 3.20847 0
M  V30 1190 H 114.62 -4.55116 3.12368 0
M  V30 1191 H 117.096 -3.95561 1.29114 0
M  V30 1192 H 115.972 -5.33876 1.27543 0
M  V30 1193 H 116.233 -4.41662 -0.196651 0
M  V30 1194 N 115.292 -0.849877 -1.32721 0
M  V30 1195 C 116.222 -0.306308 -2.31482 0
M  V30 1196 C 117.203 0.591952 -1.59468 0
M  V30 1197 O 118.388 0.513199 -1.87296 0
M  V30 1198 C 115.518 0.510204 -3.43532 0
M  V30 1199 C 114.472 -0.293209 -4.26994 0
M  V30 1200 C 113.798 0.647743 -5.30762 0
M  V30 1201 C 115.098 -1.51634 -4.99804 0
M  V30 1202 H 116.792 -1.13153 -2.77195 0
M  V30 1203 H 114.338 -0.545553 -1.33266 0
M  V30 1204 H 116.291 0.900856 -4.11658 0
M  V30 1205 H 115.015 1.36874 -2.96535 0
M  V30 1206 H 113.674 -0.665555 -3.60508 0
M  V30 1207 H 113.322 1.50299 -4.8002 0
M  V30 1208 H 113.022 0.11422 -5.87489 0
M  V30 1209 H 114.546 1.03567 -6.01753 0
M  V30 1210 H 115.96 -1.19824 -5.60638 0
M  V30 1211 H 114.357 -1.98745 -5.66234 0
M  V30 1212 H 115.427 -2.28018 -4.27943 0
M  V30 1213 N 116.77 1.45427 -0.607355 0
M  V30 1214 C 117.733 2.28974 0.101693 0
M  V30 1215 C 118.733 1.39754 0.795329 0
M  V30 1216 O 119.923 1.61878 0.643527 0
M  V30 1217 C 117.055 3.20768 1.15414 0
M  V30 1218 H 118.248 2.93147 -0.632844 0
M  V30 1219 H 115.801 1.51945 -0.366391 0
M  V30 1220 H 116.536 2.61395 1.91945 0
M  V30 1221 H 116.321 3.86489 0.66098 0
M  V30 1222 H 117.811 3.83589 1.65073 0
M  V30 1223 N 118.248 0.346503 1.53744 0
M  V30 1224 C 119.196 -0.52422 2.26616 0
M  V30 1225 C 120.19 -1.09948 1.28871 0
M  V30 1226 O 121.396 -1.04488 1.46568 0
M  V30 1227 H 117.771 -0.187743 0.728187 0
M  V30 1228 H 119.742 0.11239 2.98188 0
M  V30 1229 C 118.491 -1.66186 3.05414 0
M  V30 1230 H 117.814 -1.22848 3.80458 0
M  V30 1231 H 119.254 -2.24622 3.59612 0
M  V30 1232 C 117.713 -2.59302 2.1509 0
M  V30 1233 O 118.243 -3.61628 1.74895 0
M  V30 1234 N 116.449 -2.28055 1.8011 0
M  V30 1235 H 115.996 -1.44883 2.12994 0
M  V30 1236 H 115.954 -2.90615 1.19958 0
M  V30 1237 N 119.726 -1.57421 0.075193 0
M  V30 1238 C 121.142 -1.57099 -0.281444 0
M  V30 1239 C 121.342 -1.08486 -1.69803 0
M  V30 1240 O 120.398 -0.752279 -2.41033 0
M  V30 1241 C 121.711 -3.00571 -0.0880041 0
M  V30 1242 C 123.259 -3.12605 -0.157281 0
M  V30 1243 C 123.734 -4.57999 0.0079207 0
M  V30 1244 N 125.225 -4.63176 -0.0475725 0
M  V30 1245 C 125.96 -5.73373 0.0557876 0
M  V30 1246 N 125.456 -6.92473 0.21286 0
M  V30 1247 N 127.249 -5.621 -0.00152098 0
M  V30 1248 H 119.4 -1.87335 1.00098 0
M  V30 1249 H 121.663 -0.86377 0.390646 0
M  V30 1250 H 121.369 -3.40262 0.889629 0
M  V30 1251 H 121.243 -3.67754 -0.838875 0
M  V30 1252 H 123.63 -2.72798 -1.1254 0
M  V30 1253 H 123.711 -2.48053 0.62475 0
M  V30 1254 H 123.355 -4.98496 0.972824 0
M  V30 1255 H 123.285 -5.20586 -0.793556 0
M  V30 1256 H 125.776 -3.7753 -0.167244 0
M  V30 1257 H 126.089 -7.72279 0.283781 0
M  V30 1258 H 124.434 -6.94556 0.248267 0
M  V30 1259 H 127.625 -4.67938 -0.122958 0
M  V30 1260 H 127.798 -6.47948 0.0824844 0
M  V30 1261 N 121.204 0.198386 -1.56346 0
M  V30 1262 C 122.134 1.24865 -1.9731 0
M  V30 1263 C 123.115 1.47651 -0.844576 0
M  V30 1264 O 124.3 1.59444 -1.10866 0
M  V30 1265 C 121.43 2.59358 -2.30977 0
M  V30 1266 C 120.384 2.5119 -3.46537 0
M  V30 1267 C 119.71 3.89926 -3.65871 0
M  V30 1268 C 121.01 2.03977 -4.80823 0
M  V30 1269 H 122.704 0.908252 -2.85291 0
M  V30 1270 H 120.25 0.435462 -1.37258 0
M  V30 1271 H 122.203 3.33011 -2.58228 0
M  V30 1272 H 120.927 2.95132 -1.39874 0
M  V30 1273 H 119.586 1.79993 -3.19371 0
M  V30 1274 H 119.234 4.23046 -2.72105 0
M  V30 1275 H 118.934 3.85336 -4.4361 0
M  V30 1276 H 120.458 4.65205 -3.95495 0
M  V30 1277 H 121.872 2.67386 -5.07127 0
M  V30 1278 H 120.269 2.10397 -5.62008 0
M  V30 1279 H 121.339 0.992861 -4.74626 0
M  V30 1280 N 122.682 1.50554 0.465978 0
M  V30 1281 C 124.098 1.38093 0.800154 0
M  V30 1282 C 124.298 0.440988 1.96615 0
M  V30 1283 O 123.354 -0.114499 2.5224 0
M  V30 1284 C 124.667 2.79565 1.10742 0
M  V30 1285 C 126.215 2.88516 1.21357 0
M  V30 1286 C 126.69 4.30833 1.55393 0
M  V30 1287 N 128.181 4.33807 1.62375 0
M  V30 1288 C 128.916 5.40927 1.90225 0
M  V30 1289 N 128.412 6.58247 2.16062 0
M  V30 1290 N 130.205 5.28376 1.9177 0
M  V30 1291 H 122.356 2.10237 -0.302366 0
M  V30 1292 H 124.619 0.945203 -0.0727746 0
M  V30 1293 H 124.325 3.50208 0.323661 0
M  V30 1294 H 124.199 3.17125 2.04234 0
M  V30 1295 H 126.586 2.1809 1.98799 0
M  V30 1296 H 126.667 2.54492 0.258321 0
M  V30 1297 H 126.311 5.01799 0.784889 0
M  V30 1298 H 126.241 4.62347 2.52076 0
M  V30 1299 H 128.732 3.49212 1.44427 0
M  V30 1300 H 129.045 7.3569 2.36601 0
M  V30 1301 H 127.39 6.61413 2.13444 0
M  V30 1302 H 130.581 4.35715 1.71085 0
M  V30 1303 H 130.754 6.11944 2.13139 0
M  V30 1304 N 124.16 -0.719506 1.40217 0
M  V30 1305 C 125.09 -1.8465 1.42922 0
M  V30 1306 C 126.071 -1.67599 0.29062 0
M  V30 1307 O 127.256 -1.87688 0.498677 0
M  V30 1308 C 124.386 -3.22565 1.28722 0
M  V30 1309 C 123.34 -3.54281 2.40144 0
M  V30 1310 C 122.666 -4.91298 2.11023 0
M  V30 1311 C 123.966 -3.55676 3.82481 0
M  V30 1312 H 125.66 -1.82644 2.37237 0
M  V30 1313 H 123.206 -0.877305 1.1419 0
M  V30 1314 H 125.159 -4.01095 1.29232 0
M  V30 1315 H 123.883 -3.25137 0.308811 0
M  V30 1316 H 122.542 -2.78088 2.38877 0
M  V30 1317 H 122.19 -4.90468 1.11582 0
M  V30 1318 H 121.89 -5.13485 2.8567 0
M  V30 1319 H 123.414 -5.72166 2.13209 0
M  V30 1320 H 124.828 -4.24254 3.85592 0
M  V30 1321 H 123.225 -3.89388 4.56614 0
M  V30 1322 H 124.295 -2.55144 4.12346 0
M  V30 1323 N 125.638 -1.25649 -0.95132 0
M  V30 1324 C 126.863 -1.13443 -1.73624 0
M  V30 1325 C 127.288 0.307565 -1.85568 0
M  V30 1326 O 126.646 1.22282 -1.33854 0
M  V30 1327 C 126.694 -1.79723 -3.12621 0
M  V30 1328 O 125.798 -1.07912 -3.98031 0
M  V30 1329 H 125.139 -0.395872 -0.533086 0
M  V30 1330 H 127.669 -1.66276 -1.1922 0
M  V30 1331 H 127.679 -1.86141 -3.63064 0
M  V30 1332 H 126.354 -2.84633 -3.03244 0
M  V30 1333 H 124.931 -1.09398 -3.56492 0
M  V30 1334 N 127.117 1.15442 -1.07289 0
M  V30 1335 C 128.363 1.8672 -0.806679 0
M  V30 1336 C 128.718 1.80723 0.660084 0
M  V30 1337 O 128.011 1.21902 1.47819 0
M  V30 1338 C 128.205 3.3489 -1.24834 0
M  V30 1339 C 128.034 3.55313 -2.7565 0
M  V30 1340 C 126.804 3.7082 -3.4325 0
M  V30 1341 C 129.002 3.53188 -3.73848 0
M  V30 1342 N 126.984 3.7929 -4.82713 0
M  V30 1343 C 128.355 3.67765 -4.99149 0
M  V30 1344 C 130.41 3.36459 -3.67015 0
M  V30 1345 C 129.113 3.6734 -6.18428 0
M  V30 1346 C 131.139 3.37333 -4.85758 0
M  V30 1347 C 130.501 3.52438 -6.09891 0
M  V30 1348 H 126.6 0.700433 -0.347733 0
M  V30 1349 H 129.184 1.38441 -1.36902 0
M  V30 1350 H 127.355 3.81786 -0.713713 0
M  V30 1351 H 129.087 3.93875 -0.929745 0
M  V30 1352 H 125.842 3.71568 -2.93656 0
M  V30 1353 H 126.266 3.8727 -5.55294 0
M  V30 1354 H 130.908 3.237 -2.71989 0
M  V30 1355 H 128.626 3.78878 -7.13777 0
M  V30 1356 H 132.212 3.25617 -4.82146 0
M  V30 1357 H 131.092 3.53047 -7.00234 0
M  V30 1358 N 128.595 0.856903 1.32268 0
M  V30 1359 C 130.006 0.515711 1.79436 0
M  V30 1360 C 130.357 -0.966586 1.70738 0
M  V30 1361 O 129.482 -1.75409 1.26731 0
M  V30 1362 C 130.077 0.929335 3.25805 0
M  V30 1363 C 128.636 0.640006 3.70919 0
M  V30 1364 C 127.783 1.12784 2.53328 0
M  V30 1365 H 130.734 1.04389 1.19535 0
M  V30 1366 H 130.755 0.246633 3.797 0
M  V30 1367 H 130.267 2.00821 3.32103 0
M  V30 1368 H 128.368 -0.428051 3.70133 0
M  V30 1369 H 128.481 1.20788 4.63624 0
M  V30 1370 H 126.845 0.548033 2.48734 0
M  V30 1371 H 127.628 2.21387 2.62379 0
M  V30 1372 N 130.073 -1.45103 0.615059 0
M  V30 1373 C 131.301 -2.06553 0.11977 0
M  V30 1374 C 131.716 -1.45842 -1.19898 0
M  V30 1375 O 131.073 -0.575325 -1.73194 0
M  V30 1376 C 131.124 -3.61495 -0.018364 0
M  V30 1377 O 130.845 -4.19942 1.24822 0
M  V30 1378 C 132.346 -4.39947 -0.544237 0
M  V30 1379 H 129.566 -0.667096 0.0722739 0
M  V30 1380 H 132.11 -1.8623 0.84491 0
M  V30 1381 H 130.265 -3.81135 -0.693865 0
M  V30 1382 H 130.679 -5.13204 1.0827 0
M  V30 1383 H 132.153 -5.48838 -0.589953 0
M  V30 1384 H 132.63 -4.10255 -1.56805 0
M  V30 1385 H 133.236 -4.25188 0.0974703 0
M  V30 1386 N 131.551 -0.354651 -1.53558 0
M  V30 1387 C 132.967 -0.00315426 -1.596 0
M  V30 1388 C 133.167 1.47741 -1.37021 0
M  V30 1389 O 132.223 2.23759 -1.16996 0
M  V30 1390 C 133.536 -0.44929 -2.97325 0
M  V30 1391 C 135.084 -0.402578 -3.104 0
M  V30 1392 C 135.559 -0.824355 -4.5052 0
M  V30 1393 N 137.05 -0.778979 -4.56603 0
M  V30 1394 C 137.785 -1.07715 -5.63192 0
M  V30 1395 N 137.281 -1.44405 -6.77583 0
M  V30 1396 N 139.074 -1.00066 -5.53121 0
M  V30 1397 H 131.225 -1.31893 -1.66487 0
M  V30 1398 H 133.488 -0.538388 -0.780284 0
M  V30 1399 H 133.194 -1.48202 -3.1895 0
M  V30 1400 H 133.068 0.169772 -3.76818 0
M  V30 1401 H 135.455 0.621004 -2.88492 0
M  V30 1402 H 135.536 -1.05699 -2.32941 0
M  V30 1403 H 135.18 -1.846 -4.73165 0
M  V30 1404 H 135.11 -0.147304 -5.26394 0
M  V30 1405 H 137.601 -0.508528 -3.74463 0
M  V30 1406 H 137.914 -1.65612 -7.54846 0
M  V30 1407 H 136.259 -1.4826 -6.79002 0
M  V30 1408 H 139.45 -0.713293 -4.62633 0
M  V30 1409 H 139.623 -1.23638 -6.36096 0
M  V30 1410 N 133.029 1.57378 -0.0835403 0
M  V30 1411 C 134.254 1.98682 0.594987 0
M  V30 1412 C 134.679 0.961969 1.61641 0
M  V30 1413 O 134.037 -0.0709989 1.81161 0
M  V30 1414 C 134.085 3.38988 1.2296 0
M  V30 1415 O 133.189 3.39208 2.34546 0
M  V30 1416 H 132.53 0.646368 0.152002 0
M  V30 1417 H 135.06 2.03961 -0.161533 0
M  V30 1418 H 135.07 3.76431 1.57366 0
M  V30 1419 H 133.745 4.13107 0.481228 0
M  V30 1420 H 132.322 3.13548 2.01846 0
M  V30 1421 N 134.507 -0.190092 1.56449 0
M  V30 1422 C 135.755 -0.907908 1.80559 0
M  V30 1423 C 136.076 -1.83583 0.657438 0
M  V30 1424 O 135.346 -1.93203 -0.323924 0
M  V30 1425 H 133.926 -0.338247 0.666032 0
M  V30 1426 H 136.588 -0.194403 1.93928 0
M  V30 1427 H 135.684 -1.49604 2.73907 0
M  V30 1428 N 135.985 -1.50799 -0.457987 0
M  V30 1429 C 137.401 -1.38515 -0.792819 0
M  V30 1430 C 137.601 -0.451409 -1.96379 0
M  V30 1431 O 136.657 0.10112 -2.52297 0
M  V30 1432 C 137.97 -2.80149 -1.09258 0
M  V30 1433 C 139.518 -2.89156 -1.19825 0
M  V30 1434 C 139.993 -4.31651 -1.53106 0
M  V30 1435 N 141.484 -4.34662 -1.60072 0
M  V30 1436 C 142.219 -5.41928 -1.87354 0
M  V30 1437 N 141.715 -6.59384 -2.12568 0
M  V30 1438 N 143.508 -5.29385 -1.88965 0
M  V30 1439 H 135.659 -2.10073 0.313511 0
M  V30 1440 H 137.922 -0.944803 0.0777862 0
M  V30 1441 H 137.628 -3.50374 -0.305084 0
M  V30 1442 H 137.502 -3.18204 -2.02549 0
M  V30 1443 H 139.889 -2.19141 -1.97639 0
M  V30 1444 H 139.97 -2.54626 -0.244821 0
M  V30 1445 H 139.614 -5.02208 -0.758266 0
M  V30 1446 H 139.544 -4.63678 -2.49621 0
M  V30 1447 H 142.035 -3.49973 -1.42573 0
M  V30 1448 H 142.348 -7.36934 -2.32696 0
M  V30 1449 H 140.693 -6.62535 -2.09933 0
M  V30 1450 H 143.884 -4.36616 -1.68772 0
M  V30 1451 H 144.057 -6.13066 -2.09891 0
M  V30 1452 N 137.463 0.71206 -1.40597 0
M  V30 1453 C 138.41 1.82613 -1.41142 0
M  V30 1454 C 139.38 1.63925 -0.267903 0
M  V30 1455 O 140.565 1.85009 -0.466495 0
M  V30 1456 C 137.705 3.20354 -1.28324 0
M  V30 1457 C 136.818 3.50589 -2.52411 0
M  V30 1458 C 135.953 4.77855 -2.32009 0
M  V30 1459 C 134.992 5.01005 -3.51654 0
M  V30 1460 N 134.129 6.19487 -3.30425 0
M  V30 1461 H 138.969 1.81482 -2.36365 0
M  V30 1462 H 136.506 0.886475 -1.17388 0
M  V30 1463 H 138.464 3.99899 -1.18899 0
M  V30 1464 H 137.094 3.20705 -0.367189 0
M  V30 1465 H 136.146 2.65573 -2.72351 0
M  V30 1466 H 137.458 3.63604 -3.41458 0
M  V30 1467 H 136.612 5.65424 -2.19956 0
M  V30 1468 H 135.351 4.67056 -1.40392 0
M  V30 1469 H 134.356 4.1189 -3.64179 0
M  V30 1470 H 135.581 5.13674 -4.44202 0
M  V30 1471 H 133.527 6.09932 -2.41494 0
M  V30 1472 H 133.444 6.33194 -4.13039 0
M  V30 1473 H 134.712 7.09834 -3.22113 0
M  V30 1474 N 138.941 1.26152 0.944643 0
M  V30 1475 C 139.851 1.09176 2.07648 0
M  V30 1476 C 140.867 0.0261935 1.7398 0
M  V30 1477 O 142.043 0.229208 2.00091 0
M  V30 1478 C 139.108 0.722915 3.39079 0
M  V30 1479 C 138.169 1.86752 3.86552 0
M  V30 1480 C 137.402 1.51617 5.11711 0
M  V30 1481 O 137.625 0.416331 5.68879 0
M  V30 1482 O 136.559 2.34975 5.54139 0
M  V30 1483 H 140.385 2.0412 2.24875 0
M  V30 1484 H 137.97 1.05182 1.061 0
M  V30 1485 H 139.852 0.529787 4.18056 0
M  V30 1486 H 138.527 -0.197159 3.23099 0
M  V30 1487 H 137.434 2.11558 3.08535 0
M  V30 1488 H 138.767 2.76719 4.07047 0
M  V30 1489 N 140.419 -1.14872 1.07899 0
M  V30 1490 C 141.382 -2.17986 0.708161 0
M  V30 1491 C 142.382 -1.58775 -0.25442 0
M  V30 1492 O 143.572 -1.74166 -0.034645 0
M  V30 1493 C 140.704 -3.40871 0.0446929 0
M  V30 1494 H 141.897 -2.52306 1.62116 0
M  V30 1495 H 139.45 -1.2943 0.876218 0
M  V30 1496 H 140.185 -3.12124 -0.880281 0
M  V30 1497 H 139.97 -3.8511 0.737091 0
M  V30 1498 H 141.46 -4.17121 -0.19991 0
M  V30 1499 N 141.898 -0.863906 -1.31812 0
M  V30 1500 C 142.846 -0.30422 -2.30602 0
M  V30 1501 C 143.84 0.577419 -1.59255 0
M  V30 1502 O 145.046 0.464194 -1.73912 0
M  V30 1503 H 141.421 -0.0796877 -0.747766 0
M  V30 1504 H 143.392 -1.15148 -2.75288 0
M  V30 1505 C 142.141 0.484617 -3.44306 0
M  V30 1506 H 141.464 -0.18451 -3.99374 0
M  V30 1507 H 142.904 0.841664 -4.15562 0
M  V30 1508 C 141.363 1.6735 -2.92396 0
M  V30 1509 O 141.893 2.77273 -2.90659 0
M  V30 1510 N 140.099 1.50362 -2.48676 0
M  V30 1511 H 139.646 0.609402 -2.50288 0
M  V30 1512 H 139.604 2.30051 -2.14299 0
M  V30 1513 N 143.376 1.44774 -0.622745 0
M  V30 1514 C 144.606 2.06187 -0.130532 0
M  V30 1515 C 145.014 1.46547 1.19669 0
M  V30 1516 O 144.357 0.579636 1.74316 0
M  V30 1517 C 144.419 3.59437 0.0674983 0
M  V30 1518 C 144.083 4.41496 -1.18026 0
M  V30 1519 C 145.08 4.75512 -2.102 0
M  V30 1520 C 142.765 4.82007 -1.41333 0
M  V30 1521 C 144.759 5.48912 -3.23998 0
M  V30 1522 C 142.446 5.55157 -2.55429 0
M  V30 1523 C 143.444 5.88528 -3.46589 0
M  V30 1524 O 143.132 6.60191 -4.58697 0
M  V30 1525 H 142.864 0.672045 -0.0730162 0
M  V30 1526 H 145.418 1.86768 -0.854802 0
M  V30 1527 H 143.648 3.77314 0.846825 0
M  V30 1528 H 145.337 4.02642 0.513209 0
M  V30 1529 H 146.103 4.4476 -1.93425 0
M  V30 1530 H 141.982 4.55457 -0.712709 0
M  V30 1531 H 145.526 5.74877 -3.95174 0
M  V30 1532 H 141.423 5.85324 -2.72151 0
M  V30 1533 H 142.191 6.78654 -4.57571 0
M  V30 1534 N 144.854 0.36279 1.53368 0
M  V30 1535 C 146.084 -0.228281 2.05335 0
M  V30 1536 C 146.492 -1.43226 1.23625 0
M  V30 1537 O 145.835 -1.81717 0.269206 0
M  V30 1538 C 145.897 -0.688549 3.52845 0
M  V30 1539 C 145.561 0.398362 4.5526 0
M  V30 1540 C 146.558 1.24732 5.04716 0
M  V30 1541 C 144.243 0.557805 4.99193 0
M  V30 1542 C 146.237 2.2411 5.96702 0
M  V30 1543 C 143.924 1.55495 5.90986 0
M  V30 1544 C 144.922 2.39503 6.39631 0
M  V30 1545 O 144.61 3.37517 7.29615 0
M  V30 1546 H 144.342 -0.044395 0.674541 0
M  V30 1547 H 146.896 0.518668 1.98744 0
M  V30 1548 H 145.126 -1.48706 3.56964 0
M  V30 1549 H 146.815 -1.20231 3.87685 0
M  V30 1550 H 147.581 1.13532 4.71525 0
M  V30 1551 H 143.46 -0.0862959 4.60919 0
M  V30 1552 H 147.004 2.89718 6.34594 0
M  V30 1553 H 142.901 1.66744 6.23592 0
M  V30 1554 H 143.669 3.33213 7.47604 0
M  V30 1555 N 146.332 -1.57332 0.0918853 0
M  V30 1556 C 147.58 -1.93853 -0.571446 0
M  V30 1557 C 147.901 -0.974212 -1.6892 0
M  V30 1558 O 147.171 -0.0257254 -1.95883 0
M  V30 1559 H 145.751 -0.715666 -0.214082 0
M  V30 1560 H 148.413 -1.94287 0.154464 0
M  V30 1561 H 147.509 -2.96191 -0.983729 0
M  V30 1562 N 147.81 0.181792 -1.56548 0
M  V30 1563 C 149.035 0.920019 -1.85877 0
M  V30 1564 C 149.46 1.75494 -0.677021 0
M  V30 1565 O 148.818 1.77399 0.374056 0
M  V30 1566 C 148.866 1.78112 -3.13542 0
M  V30 1567 O 147.97 2.88152 -2.95029 0
M  V30 1568 H 147.311 0.258334 -0.611686 0
M  V30 1569 H 149.841 0.183092 -2.03779 0
M  V30 1570 H 149.851 2.18314 -3.44678 0
M  V30 1571 H 148.526 1.16777 -3.99169 0
M  V30 1572 H 147.103 2.51609 -2.75222 0
M  V30 1573 N 149.288 1.51039 0.449983 0
M  V30 1574 C 150.218 1.74379 1.55288 0
M  V30 1575 C 151.199 0.593236 1.5942 0
M  V30 1576 O 152.384 0.834625 1.7535 0
M  V30 1577 C 149.514 1.85728 2.93466 0
M  V30 1578 C 148.468 3.01078 3.04197 0
M  V30 1579 C 147.794 2.97595 4.44231 0
M  V30 1580 C 149.094 4.41254 2.7945 0
M  V30 1581 H 150.788 2.66725 1.36008 0
M  V30 1582 H 148.334 1.2835 0.652864 0
M  V30 1583 H 150.287 2.0064 3.70569 0
M  V30 1584 H 149.011 0.900207 3.13949 0
M  V30 1585 H 147.67 2.85851 2.29531 0
M  V30 1586 H 147.318 1.99691 4.61663 0
M  V30 1587 H 147.018 3.75046 4.52343 0
M  V30 1588 H 148.542 3.14583 5.23326 0
M  V30 1589 H 149.956 4.56897 3.46292 0
M  V30 1590 H 148.353 5.20315 2.98985 0
M  V30 1591 H 149.423 4.52164 1.75144 0
M  V30 1592 N 150.766 -0.704594 1.40972 0
M  V30 1593 C 151.994 -1.49354 1.43182 0
M  V30 1594 C 152.409 -1.88768 0.0345508 0
M  V30 1595 O 151.766 -1.56184 -0.944081 0
M  V30 1596 C 151.817 -2.76187 2.33244 0
M  V30 1597 O 151.538 -2.38436 3.67532 0
M  V30 1598 C 153.039 -3.7 2.44162 0
M  V30 1599 H 150.259 -0.460559 0.487982 0
M  V30 1600 H 152.803 -0.868261 1.85153 0
M  V30 1601 H 150.958 -3.34974 1.94606 0
M  V30 1602 H 151.372 -3.20126 4.15475 0
M  V30 1603 H 152.846 -4.55803 3.11364 0
M  V30 1604 H 153.323 -4.13867 1.47006 0
M  V30 1605 H 153.929 -3.17121 2.83398 0
M  V30 1606 N 152.244 -1.26651 -0.937939 0
M  V30 1607 C 153.176 -1.04283 -2.04102 0
M  V30 1608 C 154.189 -0.00221014 -1.628 0
M  V30 1609 O 155.378 -0.242645 -1.76843 0
M  V30 1610 C 152.478 -0.557846 -3.34277 0
M  V30 1611 C 151.651 -1.66843 -4.04329 0
M  V30 1612 C 150.71 -1.18095 -5.12777 0
M  V30 1613 O 149.736 -1.87865 -5.37304 0
M  V30 1614 N 150.938 -0.0311006 -5.80492 0
M  V30 1615 H 153.703 -1.9927 -2.23856 0
M  V30 1616 H 151.264 -1.1808 -1.10764 0
M  V30 1617 H 153.256 -0.215836 -4.04124 0
M  V30 1618 H 151.826 0.298523 -3.11171 0
M  V30 1619 H 151.046 -2.18123 -3.28353 0
M  V30 1620 H 152.334 -2.41408 -4.47883 0
M  V30 1621 H 151.732 0.551486 -5.63005 0
M  V30 1622 H 150.289 0.251809 -6.51313 0
M  V30 1623 N 153.722 1.14298 -1.08507 0
M  V30 1624 C 154.685 2.17607 -0.719711 0
M  V30 1625 C 155.685 1.58907 0.245997 0
M  V30 1626 O 156.875 1.74181 0.0254081 0
M  V30 1627 C 154.007 3.40842 -0.0627695 0
M  V30 1628 H 155.2 2.51443 -1.63452 0
M  V30 1629 H 152.753 1.28963 -0.88307 0
M  V30 1630 H 153.488 3.12587 0.863716 0
M  V30 1631 H 153.273 3.84713 -0.757504 0
M  V30 1632 H 154.763 4.17221 0.177786 0
M  V30 1633 N 155.201 0.870884 1.31352 0
M  V30 1634 C 156.449 0.48132 1.96285 0
M  V30 1635 C 156.77 -0.969813 1.69173 0
M  V30 1636 O 156.04 -1.67998 1.00764 0
M  V30 1637 H 154.62 0.175002 0.726212 0
M  V30 1638 H 157.282 1.11087 1.60143 0
M  V30 1639 H 156.378 0.639825 3.05471 0
M  V30 1640 N 156.679 -1.44442 0.630414 0
M  V30 1641 C 157.907 -2.06414 0.141671 0
M  V30 1642 C 158.322 -1.47105 -1.18345 0
M  V30 1643 O 157.679 -0.593662 -1.72574 0
M  V30 1644 C 157.73 -3.61494 0.0199784 0
M  V30 1645 O 157.451 -4.18594 1.29269 0
M  V30 1646 C 158.952 -4.40499 -0.497544 0
M  V30 1647 H 156.172 -0.666292 0.0793452 0
M  V30 1648 H 158.716 -1.85323 0.864614 0
M  V30 1649 H 156.871 -3.8185 -0.653402 0
M  V30 1650 H 157.285 -5.12026 1.13707 0
M  V30 1651 H 158.759 -5.49433 -0.531708 0
M  V30 1652 H 159.236 -4.11895 -1.52445 0
M  V30 1653 H 159.842 -4.25061 0.142562 0
M  V30 1654 N 158.157 -0.370918 -1.53173 0
M  V30 1655 C 159.403 0.217423 -2.01631 0
M  V30 1656 C 159.736 1.47983 -1.25756 0
M  V30 1657 O 159.011 1.91274 -0.352764 0
M  V30 1658 C 159.294 0.503982 -3.56556 0
M  V30 1659 C 159.147 -0.77243 -4.43118 0
M  V30 1660 C 160.466 1.30234 -4.20389 0
M  V30 1661 H 157.585 0.0775486 -0.732909 0
M  V30 1662 H 160.227 -0.496863 -1.83388 0
M  V30 1663 H 158.377 1.11248 -3.72231 0
M  V30 1664 H 160.049 -1.4098 -4.39229 0
M  V30 1665 H 158.292 -1.39167 -4.10871 0
M  V30 1666 H 158.963 -0.526815 -5.4948 0
M  V30 1667 H 161.439 0.787546 -4.08579 0
M  V30 1668 H 160.315 1.47158 -5.28806 0
M  V30 1669 H 160.576 2.31237 -3.76805 0
M  V30 1670 N 159.635 1.57281 -0.100228 0
M  V30 1671 C 160.86 1.99302 0.573881 0
M  V30 1672 C 161.285 0.979059 1.60611 0
M  V30 1673 O 160.643 -0.0517803 1.81226 0
M  V30 1674 C 160.691 3.40274 1.19358 0
M  V30 1675 O 159.795 3.41676 2.30935 0
M  V30 1676 H 159.136 0.647944 0.145138 0
M  V30 1677 H 161.666 2.03779 -0.183156 0
M  V30 1678 H 161.676 3.78078 1.53365 0
M  V30 1679 H 160.351 4.13594 0.437385 0
M  V30 1680 H 158.928 3.15672 1.98509 0
M  V30 1681 N 161.113 -0.173488 1.56642 0
M  V30 1682 C 162.043 -1.2171 1.99271 0
M  V30 1683 C 163.024 -1.46289 0.867959 0
M  V30 1684 O 164.209 -1.5766 1.13388 0
M  V30 1685 C 161.339 -2.55651 2.35074 0
M  V30 1686 C 160.293 -2.45645 3.50489 0
M  V30 1687 C 159.619 -3.84056 3.72028 0
M  V30 1688 C 160.919 -1.96302 4.84007 0
M  V30 1689 H 162.613 -0.86275 2.867 0
M  V30 1690 H 160.159 -0.413571 1.37933 0
M  V30 1691 H 162.112 -3.2886 2.63494 0
M  V30 1692 H 160.836 -2.92869 1.44552 0
M  V30 1693 H 159.495 -1.7489 3.22194 0
M  V30 1694 H 159.143 -4.18664 2.788 0
M  V30 1695 H 158.843 -3.7823 4.49684 0
M  V30 1696 H 160.367 -4.58854 4.02846 0
M  V30 1697 H 161.781 -2.59284 5.11317 0
M  V30 1698 H 160.178 -2.01429 5.65284 0
M  V30 1699 H 161.248 -0.917226 4.76146 0
M  V30 1700 N 162.591 -1.51276 -0.441967 0
M  V30 1701 C 163.839 -1.63392 -1.18943 0
M  V30 1702 C 164.16 -0.350159 -1.9183 0
M  V30 1703 O 163.43 0.633784 -1.85364 0
M  V30 1704 H 162.01 -0.602164 -0.442049 0
M  V30 1705 H 164.672 -1.88186 -0.507165 0
M  V30 1706 H 163.768 -2.45934 -1.92154 0
M  V30 1707 N 164.069 0.697108 -1.41344 0
M  V30 1708 C 164.999 1.82353 -1.45841 0
M  V30 1709 C 165.98 1.67115 -0.317247 0
M  V30 1710 O 167.165 1.86871 -0.528474 0
M  V30 1711 C 164.295 3.20476 -1.33838 0
M  V30 1712 C 163.249 3.50415 -2.4575 0
M  V30 1713 C 162.575 4.87878 -2.18813 0
M  V30 1714 C 163.875 3.49546 -3.88091 0
M  V30 1715 H 165.569 1.78846 -2.40113 0
M  V30 1716 H 163.115 0.859028 -1.15571 0
M  V30 1717 H 165.068 3.98988 -1.35596 0
M  V30 1718 H 163.792 3.24604 -0.360498 0
M  V30 1719 H 162.451 2.74253 -2.43271 0
M  V30 1720 H 162.099 4.8863 -1.19371 0
M  V30 1721 H 161.799 5.08875 -2.93803 0
M  V30 1722 H 163.323 5.68702 -2.22284 0
M  V30 1723 H 164.737 4.18066 -3.92293 0
M  V30 1724 H 163.134 3.82075 -4.62751 0
M  V30 1725 H 164.204 2.48552 -4.16353 0
M  V30 1726 N 165.547 1.27147 0.931209 0
M  V30 1727 C 166.824 1.0401 1.65654 0
M  V30 1728 C 167.204 -0.426297 2.06751 0
M  V30 1729 O 166.552 -1.40879 1.79904 0
M  V30 1730 C 166.762 1.99834 2.86125 0
M  V30 1731 C 168.11 2.29007 3.57549 0
M  V30 1732 O 169.134 1.97779 2.96246 0
M  V30 1733 O 167.993 2.82222 4.67989 0
M  V30 1734 H 165.087 0.396239 0.725895 0
M  V30 1735 H 167.633 1.38397 0.982056 0
M  V30 1736 H 166.405 2.98744 2.52721 0
M  V30 1737 H 166.028 1.65987 3.61295 0
M  V30 1738 N 167.025 -1.13721 1.09112 0
M  V30 1739 C 167.988 -2.17222 0.731241 0
M  V30 1740 C 168.988 -1.59035 -0.237566 0
M  V30 1741 O 170.178 -1.74192 -0.0161704 0
M  V30 1742 C 167.31 -3.40804 0.0808443 0
M  V30 1743 H 168.503 -2.50573 1.64783 0
M  V30 1744 H 166.056 -1.28493 0.889897 0
M  V30 1745 H 166.791 -3.1304 -0.847127 0
M  V30 1746 H 166.576 -3.84306 0.777896 0
M  V30 1747 H 168.066 -4.1731 -0.155657 0
M  V30 1748 N 168.503 -0.877838 -1.30888 0
M  V30 1749 C 169.413 -0.343096 -2.32078 0
M  V30 1750 C 170.429 0.551022 -1.65045 0
M  V30 1751 O 171.605 0.445854 -1.96403 0
M  V30 1752 C 168.67 0.439905 -3.43898 0
M  V30 1753 C 167.731 -0.483111 -4.26573 0
M  V30 1754 C 166.964 0.262616 -5.33053 0
M  V30 1755 O 167.187 1.48967 -5.50604 0
M  V30 1756 O 166.121 -0.383593 -6.00676 0
M  V30 1757 H 169.947 -1.18203 -2.79753 0
M  V30 1758 H 167.532 -0.64145 -1.34929 0
M  V30 1759 H 169.414 0.883504 -4.12034 0
M  V30 1760 H 168.089 1.25526 -2.98371 0
M  V30 1761 H 166.996 -0.975374 -3.61161 0
M  V30 1762 H 168.329 -1.26427 -4.75686 0
M  V30 1763 N 169.982 1.44106 -0.638065 0
M  V30 1764 C 171.23 2.01579 -0.145043 0
M  V30 1765 C 171.551 1.50496 1.24 0
M  V30 1766 O 170.821 0.711374 1.82527 0
M  V30 1767 H 169.401 0.745282 -0.05063 0
M  V30 1768 H 172.063 1.76516 -0.826327 0
M  V30 1769 H 171.159 3.11877 -0.118039 0
M  V30 1770 N 171.46 0.379036 1.52974 0
M  V30 1771 C 172.392 -0.495963 2.2377 0
M  V30 1772 C 173.405 -1.03517 1.25651 0
M  V30 1773 O 174.594 -0.939249 1.51791 0
M  V30 1774 C 171.694 -1.69894 2.93239 0
M  V30 1775 C 170.867 -1.2889 4.17979 0
M  V30 1776 C 169.926 -2.35543 4.70538 0
M  V30 1777 O 168.952 -1.97375 5.33883 0
M  V30 1778 N 170.154 -3.67318 4.49508 0
M  V30 1779 H 172.919 0.110523 2.99496 0
M  V30 1780 H 170.48 0.204878 1.60598 0
M  V30 1781 H 172.472 -2.40747 3.25304 0
M  V30 1782 H 171.042 -2.212 2.20883 0
M  V30 1783 H 170.262 -0.409676 3.92065 0
M  V30 1784 H 171.55 -0.991443 4.99047 0
M  V30 1785 H 170.948 -4.01095 3.98923 0
M  V30 1786 H 169.505 -4.34235 4.8609 0
M  V30 1787 N 172.938 -1.57226 0.108567 0
M  V30 1788 C 173.848 -2.18292 -0.859401 0
M  V30 1789 C 174.864 -1.15612 -1.30038 0
M  V30 1790 O 176.04 -1.48039 -1.36552 0
M  V30 1791 C 173.105 -2.762 -2.09558 0
M  V30 1792 C 172.166 -3.93881 -1.70752 0
M  V30 1793 C 171.399 -4.49018 -2.88477 0
M  V30 1794 O 171.622 -4.03068 -4.036 0
M  V30 1795 O 170.556 -5.39852 -2.66164 0
M  V30 1796 H 174.382 -3.01441 -0.369769 0
M  V30 1797 H 171.967 -1.48945 -0.1165 0
M  V30 1798 H 173.849 -3.13156 -2.81978 0
M  V30 1799 H 172.524 -1.96089 -2.57548 0
M  V30 1800 H 171.431 -3.61713 -0.954714 0
M  V30 1801 H 172.764 -4.75396 -1.27513 0
M  V30 1802 N 174.416 0.165178 -1.56732 0
M  V30 1803 C 175.662 0.882112 -1.82611 0
M  V30 1804 C 175.995 1.81628 -0.687378 0
M  V30 1805 O 175.27 1.92009 0.310267 0
M  V30 1806 C 175.553 1.67245 -3.18906 0
M  V30 1807 C 175.406 0.760987 -4.43316 0
M  V30 1808 C 176.725 2.63884 -3.52212 0
M  V30 1809 H 173.844 0.319242 -0.664269 0
M  V30 1810 H 176.486 0.148052 -1.89422 0
M  V30 1811 H 174.636 2.29824 -3.1323 0
M  V30 1812 H 176.308 0.147596 -4.61064 0
M  V30 1813 H 174.551 0.0694102 -4.33744 0
M  V30 1814 H 175.222 1.34962 -5.35247 0
M  V30 1815 H 177.698 2.11429 -3.58381 0
M  V30 1816 H 176.574 3.16245 -4.48643 0
M  V30 1817 H 176.835 3.44377 -2.77231 0
M  V30 1818 N 175.894 1.51508 0.433938 0
M  V30 1819 C 177.141 1.64345 1.18309 0
M  V30 1820 C 177.469 0.361315 1.91115 0
M  V30 1821 O 176.724 -0.654753 1.84422 0
M  V30 1822 C 177.023 2.79928 2.22205 0
M  V30 1823 C 176.689 4.19078 1.66387 0
M  V30 1824 C 175.351 4.56932 1.50887 0
M  V30 1825 C 177.703 5.05894 1.25381 0
M  V30 1826 C 175.031 5.79305 0.928608 0
M  V30 1827 C 177.383 6.2885 0.687823 0
M  V30 1828 C 176.047 6.65473 0.519755 0
M  V30 1829 H 175.317 0.601381 0.432923 0
M  V30 1830 H 177.964 1.85549 0.473676 0
M  V30 1831 H 176.269 2.52959 2.99197 0
M  V30 1832 H 177.966 2.87059 2.79997 0
M  V30 1833 H 174.556 3.89234 1.79428 0
M  V30 1834 H 178.74 4.77253 1.36175 0
M  V30 1835 H 173.996 6.06324 0.786186 0
M  V30 1836 H 178.17 6.95461 0.361581 0
M  V30 1837 H 175.797 7.6017 0.0679979 0
M  V30 1838 N 177.372 -0.689602 1.41712 0
M  V30 1839 C 178.618 -1.45181 1.41599 0
M  V30 1840 C 178.951 -1.94181 0.0270081 0
M  V30 1841 O 178.226 -1.6993 -0.946265 0
M  V30 1842 C 178.509 -2.65945 2.42787 0
M  V30 1843 C 178.362 -2.22672 3.90816 0
M  V30 1844 C 179.681 -3.68149 2.41151 0
M  V30 1845 H 176.8 -0.526576 0.515642 0
M  V30 1846 H 179.442 -0.784947 1.73028 0
M  V30 1847 H 177.592 -3.2284 2.16116 0
M  V30 1848 H 179.264 -1.71058 4.28412 0
M  V30 1849 H 177.507 -1.54394 4.05395 0
M  V30 1850 H 178.178 -3.0935 4.57172 0
M  V30 1851 H 180.654 -3.2094 2.64834 0
M  V30 1852 H 179.53 -4.50248 3.13955 0
M  V30 1853 H 179.791 -4.18259 1.43221 0
M  V30 1854 N 178.85 -1.27639 -0.924453 0
M  V30 1855 C 180.261 -1.12834 -1.48746 0
M  V30 1856 C 180.612 0.285505 -1.94112 0
M  V30 1857 O 179.737 1.17874 -1.81479 0
M  V30 1858 C 180.332 -2.04217 -2.70334 0
M  V30 1859 C 178.891 -1.93509 -3.22848 0
M  V30 1860 C 178.038 -1.96583 -1.95577 0
M  V30 1861 H 180.989 -1.40484 -0.738233 0
M  V30 1862 H 181.01 -1.59989 -3.4523 0
M  V30 1863 H 180.522 -3.07111 -2.37285 0
M  V30 1864 H 178.623 -0.936131 -3.60649 0
M  V30 1865 H 178.736 -2.79917 -3.88823 0
M  V30 1866 H 177.1 -1.4085 -2.12211 0
M  V30 1867 H 177.883 -3.01137 -1.64837 0
M  V30 1868 N 180.328 1.1314 -1.09713 0
M  V30 1869 C 181.575 1.84484 -0.834987 0
M  V30 1870 C 181.903 1.83689 0.639418 0
M  V30 1871 O 181.158 1.2724 1.4869 0
M  V30 1872 C 181.457 3.32167 -1.3191 0
M  V30 1873 C 181.123 3.53139 -2.80363 0
M  V30 1874 C 179.785 3.58571 -3.20905 0
M  V30 1875 C 182.137 3.60866 -3.76065 0
M  V30 1876 C 179.465 3.69267 -4.55916 0
M  V30 1877 C 181.817 3.73089 -5.10869 0
M  V30 1878 C 180.481 3.76775 -5.50996 0
M  V30 1879 H 179.751 0.675073 -0.305544 0
M  V30 1880 H 182.398 1.33554 -1.37243 0
M  V30 1881 H 180.703 3.85469 -0.701517 0
M  V30 1882 H 182.4 3.85821 -1.09284 0
M  V30 1883 H 178.99 3.49569 -2.47991 0
M  V30 1884 H 183.174 3.55946 -3.45855 0
M  V30 1885 H 178.43 3.70388 -4.86438 0
M  V30 1886 H 182.604 3.78011 -5.84877 0
M  V30 1887 H 180.231 3.84815 -6.55608 0
M  V30 1888 N 181.806 0.884767 1.30421 0
M  V30 1889 C 183.031 0.517288 2.00845 0
M  V30 1890 C 183.456 -0.886779 1.65885 0
M  V30 1891 O 182.814 -1.58768 0.875354 0
M  V30 1892 C 182.862 0.698994 3.5376 0
M  V30 1893 O 181.966 -0.255208 4.1161 0
M  V30 1894 H 181.307 0.203872 0.631927 0
M  V30 1895 H 183.837 1.19225 1.66272 0
M  V30 1896 H 183.847 0.597912 4.03595 0
M  V30 1897 H 182.522 1.72271 3.78544 0
M  V30 1898 H 181.099 -0.10784 3.72744 0
M  V30 1899 N 183.284 -1.43765 0.645699 0
M  V30 1900 C 184.247 -2.29163 -0.0409488 0
M  V30 1901 C 185.247 -1.41813 -0.757996 0
M  V30 1902 O 186.437 -1.63527 -0.600382 0
M  V30 1903 C 183.569 -3.23716 -1.06869 0
M  V30 1904 H 184.762 -2.91366 0.710345 0
M  V30 1905 H 182.315 -1.5092 0.406547 0
M  V30 1906 H 183.05 -2.66393 -1.84947 0
M  V30 1907 H 182.835 -3.88105 -0.558277 0
M  V30 1908 H 184.325 -3.87831 -1.54845 0
M  V30 1909 N 184.763 -0.387143 -1.52771 0
M  V30 1910 C 186.009 0.196025 -2.0185 0
M  V30 1911 C 186.342 1.46641 -1.27319 0
M  V30 1912 O 185.617 1.90889 -0.373032 0
M  V30 1913 C 185.9 0.466136 -3.5707 0
M  V30 1914 C 185.753 -0.819385 -4.42274 0
M  V30 1915 C 187.072 1.25768 -4.21747 0
M  V30 1916 H 184.191 0.0697708 -0.73369 0
M  V30 1917 H 186.833 -0.516286 -1.82851 0
M  V30 1918 H 184.983 1.07293 -3.7339 0
M  V30 1919 H 186.655 -1.4563 -4.37709 0
M  V30 1920 H 184.898 -1.43517 -4.09372 0
M  V30 1921 H 185.569 -0.585065 -5.48891 0
M  V30 1922 H 188.045 0.744167 -4.09391 0
M  V30 1923 H 186.921 1.41541 -5.30337 0
M  V30 1924 H 187.182 2.27228 -3.79236 0
M  V30 1925 N 186.241 1.57166 -0.116904 0
M  V30 1926 C 187.171 2.18222 0.830759 0
M  V30 1927 C 188.152 1.12167 1.27877 0
M  V30 1928 O 189.337 1.40394 1.34176 0
M  V30 1929 C 186.467 2.77996 2.08172 0
M  V30 1930 C 185.421 3.89614 1.77157 0
M  V30 1931 C 184.747 4.36187 3.09265 0
M  V30 1932 C 186.047 5.1181 1.04151 0
M  V30 1933 H 187.741 2.97664 0.321992 0
M  V30 1934 H 185.287 1.4318 0.153434 0
M  V30 1935 H 187.24 3.19366 2.74924 0
M  V30 1936 H 185.964 1.9584 2.6137 0
M  V30 1937 H 184.623 3.48816 1.12796 0
M  V30 1938 H 184.271 3.50893 3.60393 0
M  V30 1939 H 183.971 5.11455 2.89288 0
M  V30 1940 H 185.495 4.80207 3.77139 0
M  V30 1941 H 186.909 5.50214 1.61052 0
M  V30 1942 H 185.306 5.92648 0.942762 0
M  V30 1943 H 186.376 4.84892 0.0279022 0
M  V30 1944 N 187.719 -0.156864 1.56817 0
M  V30 1945 C 189.13 -0.717916 1.72345 0
M  V30 1946 C 189.481 -1.82124 0.729747 0
M  V30 1947 O 188.606 -2.16141 -0.105781 0
M  V30 1948 C 189.201 -1.30904 3.12489 0
M  V30 1949 C 187.76 -1.81676 3.29653 0
M  V30 1950 C 186.907 -0.701349 2.68284 0
M  V30 1951 H 189.858 0.0686989 1.58551 0
M  V30 1952 H 189.879 -2.17882 3.11942 0
M  V30 1953 H 189.391 -0.505796 3.8479 0
M  V30 1954 H 187.492 -2.64598 2.62333 0
M  V30 1955 H 187.605 -1.95226 4.3752 0
M  V30 1956 H 185.969 -1.12548 2.28484 0
M  V30 1957 H 186.752 0.0902846 3.43181 0
M  V30 1958 N 189.197 -1.51736 -0.425897 0
M  V30 1959 C 190.13 -1.68574 -1.53812 0
M  V30 1960 C 191.108 -0.53328 -1.53606 0
M  V30 1961 O 192.292 -0.758555 -1.72564 0
M  V30 1962 C 189.419 -1.70977 -2.92377 0
M  V30 1963 C 188.465 -2.92324 -3.10563 0
M  V30 1964 S 189.298 -4.52952 -2.85648 0
M  V30 1965 C 190.454 -4.58117 -4.26474 0
M  V30 1966 H 190.687 -2.62647 -1.39298 0
M  V30 1967 H 188.22 -1.41564 -0.616361 0
M  V30 1968 H 190.178 -1.73047 -3.72243 0
M  V30 1969 H 188.839 -0.78061 -3.04245 0
M  V30 1970 H 188.032 -2.90439 -4.11899 0
M  V30 1971 H 187.634 -2.88055 -2.38538 0
M  V30 1972 H 189.926 -4.34462 -5.19855 0
M  V30 1973 H 190.869 -5.59983 -4.33388 0
M  V30 1974 H 191.277 -3.8732 -4.10662 0
M  V30 1975 N 190.675 0.682077 -1.42076 0
M  V30 1976 C 191.921 1.44428 -1.42367 0
M  V30 1977 C 192.254 1.94164 -0.0373056 0
M  V30 1978 O 191.529 1.70429 0.937239 0
M  V30 1979 C 191.812 2.64654 -2.44194 0
M  V30 1980 C 191.665 2.20596 -3.91991 0
M  V30 1981 C 192.984 3.66865 -2.431 0
M  V30 1982 H 190.103 0.523834 -0.518428 0
M  V30 1983 H 192.745 0.77576 -1.73442 0
M  V30 1984 H 190.895 3.2169 -2.17826 0
M  V30 1985 H 192.567 1.68783 -4.29313 0
M  V30 1986 H 190.81 1.52242 -4.06208 0
M  V30 1987 H 191.481 3.06921 -4.58807 0
M  V30 1988 H 193.957 3.19531 -2.66532 0
M  V30 1989 H 192.833 4.48577 -3.16339 0
M  V30 1990 H 193.094 4.17493 -1.45437 0
M  V30 1991 N 192.153 1.28127 0.917671 0
M  V30 1992 C 193.116 1.11744 2.00115 0
M  V30 1993 C 194.116 0.0583052 1.60694 0
M  V30 1994 O 195.306 0.303755 1.71531 0
M  V30 1995 C 192.438 0.704862 3.33533 0
M  V30 1996 H 193.631 2.07966 2.16079 0
M  V30 1997 H 191.184 1.11058 1.09981 0
M  V30 1998 H 191.919 -0.258299 3.2327 0
M  V30 1999 H 191.704 1.4699 3.63505 0
M  V30 2000 H 193.194 0.612768 4.1308 0
M  V30 2001 N 193.631 -1.12557 1.10312 0
M  V30 2002 C 195.042 -1.65574 0.862678 0
M  V30 2003 C 195.393 -1.86566 -0.607256 0
M  V30 2004 O 194.518 -1.59121 -1.46662 0
M  V30 2005 C 195.113 -3.00776 1.55947 0
M  V30 2006 C 193.672 -3.50748 1.36576 0
M  V30 2007 C 192.819 -2.25797 1.60968 0
M  V30 2008 H 195.77 -0.963552 1.26101 0
M  V30 2009 H 195.791 -3.67185 0.997753 0
M  V30 2010 H 195.303 -2.85465 2.62928 0
M  V30 2011 H 193.404 -3.71245 0.317531 0
M  V30 2012 H 193.517 -4.30289 2.10686 0
M  V30 2013 H 191.881 -2.32841 1.03234 0
M  V30 2014 H 192.664 -2.13043 2.69198 0
M  V30 2015 N 195.109 -0.891671 -1.2995 0
M  V30 2016 C 196.057 -0.353066 -2.29905 0
M  V30 2017 C 197.051 0.543509 -1.60444 0
M  V30 2018 O 198.257 0.4272 -1.74857 0
M  V30 2019 H 194.632 -0.095531 -0.745907 0
M  V30 2020 H 196.603 -1.20961 -2.72784 0
M  V30 2021 C 195.352 0.411475 -3.45257 0
M  V30 2022 H 194.675 -0.269182 -3.98893 0
M  V30 2023 H 196.115 0.753328 -4.17254 0
M  V30 2024 C 194.574 1.6111 -2.9588 0
M  V30 2025 O 195.104 2.71045 -2.96475 0
M  V30 2026 N 193.31 1.45054 -2.51809 0
M  V30 2027 H 192.857 0.556175 -2.51524 0
M  V30 2028 H 192.815 2.25453 -2.1913 0
M  V30 2029 N 196.587 1.43421 -0.653314 0
M  V30 2030 C 197.864 1.95361 -0.0966581 0
M  V30 2031 C 198.244 1.59461 1.38331 0
M  V30 2032 O 197.592 0.879777 2.10884 0
M  V30 2033 C 197.802 3.47311 -0.342988 0
M  V30 2034 C 199.15 4.23875 -0.24798 0
M  V30 2035 O 200.174 3.55133 -0.275553 0
M  V30 2036 O 199.033 5.4623 -0.171771 0
M  V30 2037 H 196.127 0.826945 0.00956291 0
M  V30 2038 H 198.673 1.5336 -0.726558 0
M  V30 2039 H 197.445 3.66569 -1.36906 0
M  V30 2040 H 197.068 3.9631 0.319975 0
M  V30 2041 N 198.065 0.39524 1.52563 0
M  V30 2042 C 198.995 -0.428384 2.29537 0
M  V30 2043 C 199.976 -1.05831 1.33169 0
M  V30 2044 O 201.161 -1.06995 1.62067 0
M  V30 2045 C 198.291 -1.55274 3.10656 0
M  V30 2046 C 197.245 -1.04855 4.14957 0
M  V30 2047 C 196.571 -2.26543 4.84337 0
M  V30 2048 C 197.871 -0.112324 5.22179 0
M  V30 2049 H 199.565 0.213867 2.98635 0
M  V30 2050 H 197.111 0.104298 1.43622 0
M  V30 2051 H 199.064 -2.1358 3.63265 0
M  V30 2052 H 197.788 -2.22266 2.39302 0
M  V30 2053 H 196.447 -0.487985 3.63338 0
M  V30 2054 H 196.095 -2.92059 4.09525 0
M  V30 2055 H 195.795 -1.93466 5.54837 0
M  V30 2056 H 197.319 -2.85481 5.39753 0
M  V30 2057 H 198.733 -0.603752 5.70112 0
M  V30 2058 H 197.13 0.128968 5.99961 0
M  V30 2059 H 198.2 0.837052 4.77621 0
M  V30 2060 N 199.544 -1.57102 0.125237 0
M  V30 2061 C 200.79 -1.95697 -0.532035 0
M  V30 2062 C 201.123 -1.009 -1.6593 0
M  V30 2063 O 200.398 -0.047347 -1.94442 0
M  V30 2064 C 200.681 -3.44181 -1.05884 0
M  V30 2065 C 200.534 -4.49752 0.0654392 0
M  V30 2066 C 201.853 -3.94655 -1.9477 0
M  V30 2067 H 198.972 -0.711571 -0.191925 0
M  V30 2068 H 201.614 -1.88923 0.20206 0
M  V30 2069 H 199.764 -3.50085 -1.68442 0
M  V30 2070 H 201.436 -4.55943 0.700982 0
M  V30 2071 H 199.679 -4.27653 0.727709 0
M  V30 2072 H 200.35 -5.50924 -0.344505 0
M  V30 2073 H 202.826 -3.91094 -1.42074 0
M  V30 2074 H 201.702 -4.99057 -2.28546 0
M  V30 2075 H 201.963 -3.35718 -2.87656 0
M  V30 2076 N 201.022 0.148545 -1.56898 0
M  V30 2077 C 202.269 0.861418 -1.83264 0
M  V30 2078 C 202.597 1.81239 -0.705883 0
M  V30 2079 O 201.852 1.93305 0.305212 0
M  V30 2080 C 202.151 1.67064 -3.1595 0
M  V30 2081 C 201.817 0.866591 -4.42494 0
M  V30 2082 C 200.479 0.644762 -4.76861 0
M  V30 2083 C 202.831 0.30418 -5.20312 0
M  V30 2084 C 200.159 -0.15021 -5.86508 0
M  V30 2085 C 202.511 -0.477824 -6.30793 0
M  V30 2086 C 201.175 -0.710244 -6.63711 0
M  V30 2087 H 200.445 0.315215 -0.670612 0
M  V30 2088 H 203.092 0.125142 -1.91091 0
M  V30 2089 H 201.397 2.47698 -3.03567 0
M  V30 2090 H 203.094 2.22566 -3.33565 0
M  V30 2091 H 199.684 1.04955 -4.15551 0
M  V30 2092 H 203.868 0.462844 -4.94137 0
M  V30 2093 H 199.124 -0.339796 -6.10455 0
M  V30 2094 H 203.298 -0.92076 -6.90286 0
M  V30 2095 H 200.925 -1.3281 -7.48509 0
M  V30 2096 N 202.5 1.5196 0.417844 0
M  V30 2097 C 203.777 1.56146 1.17803 0
M  V30 2098 C 204.157 0.337275 2.08388 0
M  V30 2099 O 203.505 -0.676447 2.18258 0
M  V30 2100 C 203.715 2.88566 1.96293 0
M  V30 2101 C 205.063 3.41244 2.52662 0
M  V30 2102 O 206.087 2.90247 2.06483 0
M  V30 2103 O 204.946 4.30273 3.36938 0
M  V30 2104 H 202.04 0.628598 0.537395 0
M  V30 2105 H 204.586 1.64283 0.425331 0
M  V30 2106 H 203.358 3.69116 1.2988 0
M  V30 2107 H 202.981 2.83681 2.78587 0
M  V30 2108 N 203.978 -0.674533 1.42435 0
M  V30 2109 C 205.226 -1.43175 1.42637 0
M  V30 2110 C 205.547 -1.94951 0.0438992 0
M  V30 2111 O 204.817 -1.7308 -0.917607 0
M  V30 2112 H 203.397 -0.531307 0.525092 0
M  V30 2113 H 206.059 -0.797006 1.77859 0
M  V30 2114 H 205.155 -2.28463 2.12629 0
M  V30 2115 N 205.456 -1.28612 -0.910864 0
M  V30 2116 C 206.702 -1.17116 -1.66299 0
M  V30 2117 C 207.057 0.276917 -1.90397 0
M  V30 2118 O 206.35 1.19795 -1.49532 0
M  V30 2119 C 206.544 -1.90624 -3.0232 0
M  V30 2120 C 206.373 -3.42431 -2.91498 0
M  V30 2121 C 205.143 -4.11773 -2.92867 0
M  V30 2122 C 207.341 -4.38124 -2.69355 0
M  V30 2123 N 205.323 -5.50025 -2.72664 0
M  V30 2124 C 206.694 -5.63759 -2.58023 0
M  V30 2125 C 208.749 -4.28016 -2.54375 0
M  V30 2126 C 207.452 -6.80436 -2.33238 0
M  V30 2127 C 209.478 -5.44433 -2.30969 0
M  V30 2128 C 208.84 -6.69034 -2.20394 0
M  V30 2129 H 204.939 -0.483506 -0.61461 0
M  V30 2130 H 207.523 -1.62299 -1.0755 0
M  V30 2131 H 205.694 -1.4787 -3.5915 0
M  V30 2132 H 207.426 -1.71488 -3.66571 0
M  V30 2133 H 204.181 -3.63378 -3.03732 0
M  V30 2134 H 204.605 -6.22705 -2.65646 0
M  V30 2135 H 209.247 -3.32388 -2.613 0
M  V30 2136 H 206.965 -7.7613 -2.25051 0
M  V30 2137 H 210.551 -5.38504 -2.20238 0
M  V30 2138 H 209.431 -7.57595 -2.02531 0
M  V30 2139 N 206.934 1.1197 -1.10907 0
M  V30 2140 C 208.211 1.79959 -0.766432 0
M  V30 2141 C 208.591 1.97466 0.746363 0
M  V30 2142 O 207.939 1.55491 1.67436 0
M  V30 2143 C 208.149 3.14009 -1.52314 0
M  V30 2144 C 209.497 3.89134 -1.69883 0
M  V30 2145 O 210.521 3.2368 -1.48692 0
M  V30 2146 O 209.38 5.06572 -2.05054 0
M  V30 2147 H 206.474 0.779208 -0.277062 0
M  V30 2148 H 209.02 1.18762 -1.21217 0
M  V30 2149 H 207.792 2.96587 -2.55249 0
M  V30 2150 H 207.415 3.82915 -1.07059 0
M  V30 2151 N 208.412 0.89855 1.29475 0
M  V30 2152 C 209.661 0.519863 1.94885 0
M  V30 2153 C 209.974 -0.9383 1.71625 0
M  V30 2154 O 211.18 -1.42445 2.31131 0
M  V30 2155 C 209.636 0.878836 3.49005 0
M  V30 2156 C 209.244 2.35569 3.81066 0
M  V30 2157 C 210.988 0.570004 4.20656 0
M  V30 2158 C 208.895 2.65558 5.28425 0
M  V30 2159 H 207.825 0.190692 0.729488 0
M  V30 2160 H 210.476 1.09539 1.47219 0
M  V30 2161 H 208.858 0.232253 3.95318 0
M  V30 2162 H 210.032 3.04773 3.45616 0
M  V30 2163 H 208.347 2.63343 3.22552 0
M  V30 2164 H 210.944 0.770925 5.29113 0
M  V30 2165 H 211.287 -0.491404 4.1339 0
M  V30 2166 H 211.82 1.17438 3.8007 0
M  V30 2167 H 208.559 3.70493 5.40754 0
M  V30 2168 H 208.079 2.00977 5.65127 0
M  V30 2169 H 209.758 2.51765 5.96006 0
M  V30 2170 N 209.89 -1.43072 0.660911 0
M  V30 2171 C 211.115 -2.06584 0.183805 0
M  V30 2172 C 211.54 -1.49257 -1.14472 0
M  V30 2173 O 210.898 -0.605528 -1.70889 0
M  V30 2174 C 210.946 -3.60418 0.114434 0
M  V30 2175 O 210.05 -4.01981 -0.921137 0
M  V30 2176 H 209.391 -0.656669 0.0983994 0
M  V30 2177 H 211.921 -1.83447 0.906006 0
M  V30 2178 H 211.931 -4.07946 -0.0663394 0
M  V30 2179 H 210.606 -4.01519 1.08422 0
M  V30 2180 H 209.183 -3.66029 -0.71253 0
M  V30 2181 N 211.368 -0.403325 -1.52352 0
M  V30 2182 C 212.593 0.176499 -2.06648 0
M  V30 2183 C 213.018 1.38577 -1.27193 0
M  V30 2184 O 212.376 1.7879 -0.300637 0
M  V30 2185 C 212.424 0.511061 -3.5696 0
M  V30 2186 O 211.528 1.60294 -3.79973 0
M  V30 2187 H 210.869 0.0167337 -0.663789 0
M  V30 2188 H 213.399 -0.574848 -1.96359 0
M  V30 2189 H 213.409 0.771362 -4.00642 0
M  V30 2190 H 212.084 -0.37296 -4.14224 0
M  V30 2191 H 210.661 1.33526 -3.48174 0
M  V30 2192 N 212.846 1.57033 -0.133567 0
M  V30 2193 C 213.776 2.1909 0.807567 0
M  V30 2194 C 214.757 1.13517 1.26681 0
M  V30 2195 O 215.942 1.41809 1.32679 0
M  V30 2196 C 213.072 2.80188 2.05212 0
M  V30 2197 C 212.026 3.91471 1.73015 0
M  V30 2198 C 211.352 4.39443 3.04622 0
M  V30 2199 C 212.652 5.12886 0.987168 0
M  V30 2200 H 214.346 2.97988 0.290403 0
M  V30 2201 H 211.892 1.43335 0.138239 0
M  V30 2202 H 213.845 3.22264 2.71521 0
M  V30 2203 H 212.569 1.98601 2.59278 0
M  V30 2204 H 211.228 3.49993 1.0909 0
M  V30 2205 H 210.876 3.54695 3.56651 0
M  V30 2206 H 210.576 5.14495 2.83847 0
M  V30 2207 H 212.1 4.8418 3.72024 0
M  V30 2208 H 213.514 5.51891 1.55208 0
M  V30 2209 H 211.911 5.93615 0.87985 0
M  V30 2210 H 212.981 4.84894 -0.0235286 0
M  V30 2211 N 214.325 -0.140222 1.56975 0
M  V30 2212 C 215.273 -1.19207 1.99731 0
M  V30 2213 C 216.267 -1.44089 0.890777 0
M  V30 2214 O 217.473 -1.44301 1.07597 0
M  V30 2215 H 213.848 -0.40142 0.635898 0
M  V30 2216 H 215.819 -0.804813 2.87342 0
M  V30 2217 C 214.568 -2.51617 2.39967 0
M  V30 2218 H 213.891 -2.33303 3.24669 0
M  V30 2219 H 215.331 -3.23827 2.73701 0
M  V30 2220 C 213.79 -3.12654 1.25496 0
M  V30 2221 O 214.32 -3.97786 0.559371 0
M  V30 2222 N 212.526 -2.72206 1.01746 0
M  V30 2223 H 212.073 -2.03074 1.58489 0
M  V30 2224 H 212.031 -3.13377 0.253461 0
M  V30 2225 N 215.803 -1.52179 -0.40978 0
M  V30 2226 C 216.733 -1.78435 -1.5061 0
M  V30 2227 C 217.714 -0.635295 -1.57791 0
M  V30 2228 O 218.899 -0.880823 -1.73076 0
M  V30 2229 C 216.029 -1.93444 -2.88439 0
M  V30 2230 C 214.983 -3.09038 -2.96108 0
M  V30 2231 C 214.309 -3.09268 -4.36185 0
M  V30 2232 C 215.609 -4.48508 -2.67652 0
M  V30 2233 H 217.303 -2.70237 -1.28889 0
M  V30 2234 H 214.849 -1.30036 -0.618605 0
M  V30 2235 H 216.802 -2.10394 -3.65119 0
M  V30 2236 H 215.526 -0.983129 -3.11452 0
M  V30 2237 H 214.185 -2.91837 -2.21872 0
M  V30 2238 H 213.833 -2.11861 -4.56206 0
M  V30 2239 H 213.533 -3.86907 -4.42241 0
M  V30 2240 H 215.057 -3.28348 -5.14801 0
M  V30 2241 H 216.471 -4.65918 -3.34056 0
M  V30 2242 H 214.868 -5.28059 -2.85085 0
M  V30 2243 H 215.938 -4.56649 -1.63095 0
M  V30 2244 N 217.281 0.66697 -1.42791 0
M  V30 2245 C 218.244 1.76211 -1.46568 0
M  V30 2246 C 219.244 1.56896 -0.352196 0
M  V30 2247 O 220.434 1.63044 -0.613364 0
M  V30 2248 C 217.566 3.14935 -1.30494 0
M  V30 2249 H 218.759 1.74247 -2.44086 0
M  V30 2250 H 216.312 0.877342 -1.29354 0
M  V30 2251 H 217.047 3.2252 -0.339301 0
M  V30 2252 H 216.832 3.30359 -2.11199 0
M  V30 2253 H 218.322 3.94821 -1.36038 0
M  V30 2254 N 218.759 1.29093 0.90403 0
M  V30 2255 C 219.669 1.15727 2.0407 0
M  V30 2256 C 220.685 0.0815308 1.73809 0
M  V30 2257 O 221.861 0.292749 1.99261 0
M  V30 2258 C 218.926 0.830424 3.36608 0
M  V30 2259 C 217.987 1.98955 3.80415 0
M  V30 2260 C 217.22 1.6782 5.06628 0
M  V30 2261 O 217.443 0.597105 5.67266 0
M  V30 2262 O 216.377 2.52486 5.46383 0
M  V30 2263 H 220.203 2.11171 2.18267 0
M  V30 2264 H 217.788 1.08504 1.027 0
M  V30 2265 H 219.67 0.662521 4.16159 0
M  V30 2266 H 218.345 -0.0942678 3.23563 0
M  V30 2267 H 217.252 2.21267 3.01648 0
M  V30 2268 H 218.585 2.89529 3.98037 0
M  V30 2269 N 220.237 -1.11381 1.11499 0
M  V30 2270 C 221.2 -2.15622 0.777153 0
M  V30 2271 C 222.2 -1.59504 -0.203779 0
M  V30 2272 O 223.39 -1.74188 0.020782 0
M  V30 2273 C 220.522 -3.40556 0.153116 0
M  V30 2274 H 221.715 -2.47021 1.70061 0
M  V30 2275 H 219.268 -1.26577 0.916952 0
M  V30 2276 H 220.003 -3.14767 -0.780536 0
M  V30 2277 H 219.788 -3.8257 0.859238 0
M  V30 2278 H 221.278 -4.17546 -0.0671044 0
M  V30 2279 N 221.715 -0.905404 -1.28997 0
M  V30 2280 C 222.648 -0.331959 -2.25773 0
M  V30 2281 C 223.626 0.559099 -1.52685 0
M  V30 2282 O 224.81 0.50463 -1.8162 0
M  V30 2283 C 221.937 0.526276 -3.34586 0
M  V30 2284 C 220.983 -0.298249 -4.25456 0
M  V30 2285 S 221.816 -1.69968 -5.0781 0
M  V30 2286 C 222.972 -0.848519 -6.20122 0
M  V30 2287 H 223.205 -1.15222 -2.74064 0
M  V30 2288 H 220.738 -0.706112 -1.37308 0
M  V30 2289 H 222.696 1.01565 -3.97737 0
M  V30 2290 H 221.357 1.32084 -2.84978 0
M  V30 2291 H 220.55 0.357607 -5.0273 0
M  V30 2292 H 220.152 -0.720968 -3.66985 0
M  V30 2293 H 222.444 -0.0744325 -6.77459 0
M  V30 2294 H 223.387 -1.59353 -6.89937 0
M  V30 2295 H 223.795 -0.400383 -5.63078 0
M  V30 2296 N 223.193 1.4272 -0.668489 0
M  V30 2297 C 224.609 1.55992 -0.33745 0
M  V30 2298 C 224.809 1.64933 1.15756 0
M  V30 2299 O 223.865 1.61278 1.94282 0
M  V30 2300 C 225.178 2.81314 -1.06222 0
M  V30 2301 C 226.726 2.95078 -1.04394 0
M  V30 2302 C 227.201 4.23252 -1.74991 0
M  V30 2303 N 228.692 4.3015 -1.71829 0
M  V30 2304 C 229.427 5.28127 -2.23315 0
M  V30 2305 N 228.923 6.32293 -2.83156 0
M  V30 2306 N 230.716 5.19882 -2.13726 0
M  V30 2307 H 222.867 1.3516 -1.63846 0
M  V30 2308 H 225.13 0.650174 -0.689912 0
M  V30 2309 H 224.836 2.80823 -2.11734 0
M  V30 2310 H 224.71 3.72012 -0.62344 0
M  V30 2311 H 227.097 2.951 0.0028244 0
M  V30 2312 H 227.178 2.05627 -1.52155 0
M  V30 2313 H 226.822 4.2399 -2.79633 0
M  V30 2314 H 226.752 5.11626 -1.24685 0
M  V30 2315 H 229.243 3.55499 -1.28175 0
M  V30 2316 H 229.556 7.03398 -3.20079 0
M  V30 2317 H 227.901 6.32873 -2.87223 0
M  V30 2318 H 231.092 4.37423 -1.66669 0
M  V30 2319 H 231.265 5.96077 -2.54158 0
M  V30 2320 N 224.671 0.411399 1.52136 0
M  V30 2321 C 226.087 0.0623865 1.59478 0
M  V30 2322 C 226.287 -1.42554 1.4241 0
M  V30 2323 O 225.343 -2.19263 1.2522 0
M  V30 2324 C 226.656 0.559331 2.95452 0
M  V30 2325 C 228.204 0.517503 3.08692 0
M  V30 2326 C 228.679 0.990994 4.4715 0
M  V30 2327 N 230.17 0.947908 4.53397 0
M  V30 2328 C 230.905 1.28544 5.58806 0
M  V30 2329 N 230.401 1.69454 6.71757 0
M  V30 2330 N 232.194 1.20526 5.49026 0
M  V30 2331 H 224.345 1.37982 1.61477 0
M  V30 2332 H 226.608 0.566977 0.759764 0
M  V30 2333 H 226.314 1.59938 3.1323 0
M  V30 2334 H 226.188 -0.0298014 3.77188 0
M  V30 2335 H 228.575 -0.513505 2.90598 0
M  V30 2336 H 228.656 1.14272 2.28857 0
M  V30 2337 H 228.3 2.02034 4.65988 0
M  V30 2338 H 228.23 0.34257 5.25485 0
M  V30 2339 H 230.721 0.647157 3.72317 0
M  V30 2340 H 231.034 1.93513 7.48179 0
M  V30 2341 H 229.379 1.73359 6.73032 0
M  V30 2342 H 232.57 0.884505 4.59667 0
M  V30 2343 H 232.743 1.47161 6.31069 0
M  V30 2344 N 226.149 -1.5696 0.141893 0
M  V30 2345 C 227.112 -2.15316 -0.785587 0
M  V30 2346 C 228.112 -1.09366 -1.1788 0
M  V30 2347 O 229.302 -1.35031 -1.10056 0
M  V30 2348 C 226.434 -2.71211 -2.06537 0
M  V30 2349 H 227.627 -2.98608 -0.278041 0
M  V30 2350 H 225.18 -1.5593 -0.107519 0
M  V30 2351 H 225.915 -1.91571 -2.6167 0
M  V30 2352 H 225.7 -3.4872 -1.79268 0
M  V30 2353 H 227.19 -3.16189 -2.72789 0
M  V30 2354 N 227.627 0.131896 -1.57047 0
M  V30 2355 C 228.574 1.16236 -1.99393 0
M  V30 2356 C 229.544 1.41863 -0.863943 0
M  V30 2357 O 230.729 1.53946 -1.12718 0
M  V30 2358 C 227.869 2.48708 -2.39245 0
M  V30 2359 C 226.982 2.30127 -3.65603 0
M  V30 2360 C 226.117 3.55738 -3.94492 0
M  V30 2361 C 225.156 3.32259 -5.14073 0
M  V30 2362 N 224.293 4.50039 -5.38896 0
M  V30 2363 H 229.133 0.794251 -2.87221 0
M  V30 2364 H 226.67 0.380707 -1.42088 0
M  V30 2365 H 228.628 3.25969 -2.60384 0
M  V30 2366 H 227.258 2.83437 -1.54478 0
M  V30 2367 H 226.31 1.43845 -3.52154 0
M  V30 2368 H 227.622 2.08746 -4.5302 0
M  V30 2369 H 226.776 4.41423 -4.1621 0
M  V30 2370 H 225.515 3.80138 -3.05526 0
M  V30 2371 H 224.52 2.44963 -4.92212 0
M  V30 2372 H 225.745 3.09242 -6.04604 0
M  V30 2373 H 223.691 4.74584 -4.52886 0
M  V30 2374 H 223.608 4.31716 -6.2061 0
M  V30 2375 H 224.876 5.36895 -5.65123 0
M  V30 2376 N 229.106 1.52395 0.401703 0
M  V30 2377 C 230.352 1.67065 1.14966 0
M  V30 2378 C 230.685 0.403052 1.89971 0
M  V30 2379 O 229.96 -0.598774 1.85054 0
M  V30 2380 C 230.243 2.8975 2.13815 0
M  V30 2381 C 230.096 4.26578 1.42658 0
M  V30 2382 C 231.415 3.07965 3.14397 0
M  V30 2383 H 228.534 0.607968 0.416587 0
M  V30 2384 H 231.176 1.84965 0.434511 0
M  V30 2385 H 229.326 2.74619 2.74803 0
M  V30 2386 H 230.998 4.53451 0.847329 0
M  V30 2387 H 229.241 4.27639 0.72849 0
M  V30 2388 H 229.912 5.08483 2.14823 0
M  V30 2389 H 232.388 3.22043 2.63491 0
M  V30 2390 H 231.264 3.95308 3.80819 0
M  V30 2391 H 231.525 2.21611 3.82545 0
M  V30 2392 N 230.584 -0.659388 1.43143 0
M  V30 2393 C 231.514 -1.78422 1.50625 0
M  V30 2394 C 232.495 -1.66216 0.361443 0
M  V30 2395 O 233.68 -1.85404 0.577834 0
M  V30 2396 C 230.81 -3.16815 1.42287 0
M  V30 2397 C 229.764 -3.43777 2.54954 0
M  V30 2398 C 229.09 -4.81905 2.31671 0
M  V30 2399 C 230.39 -3.39134 3.97222 0
M  V30 2400 H 232.084 -1.72417 2.44771 0
M  V30 2401 H 229.63 -0.828084 1.17808 0
M  V30 2402 H 231.583 -3.95253 1.46127 0
M  V30 2403 H 230.307 -3.23534 0.446435 0
M  V30 2404 H 228.966 -2.67707 2.50457 0
M  V30 2405 H 228.614 -4.85294 1.32284 0
M  V30 2406 H 228.314 -5.00906 3.07192 0
M  V30 2407 H 229.838 -5.62609 2.37284 0
M  V30 2408 H 231.252 -4.07518 4.03239 0
M  V30 2409 H 229.649 -3.69671 4.72719 0
M  V30 2410 H 230.719 -2.37426 4.22797 0
M  V30 2411 N 232.062 -1.29571 -0.897171 0
M  V30 2412 C 233.339 -1.08365 -1.62839 0
M  V30 2413 C 233.719 0.371331 -2.07808 0
M  V30 2414 O 233.067 1.3606 -1.83576 0
M  V30 2415 C 233.277 -2.0735 -2.80726 0
M  V30 2416 C 234.625 -2.38406 -3.51351 0
M  V30 2417 O 235.649 -2.05564 -2.90898 0
M  V30 2418 O 234.508 -2.9453 -4.60341 0
M  V30 2419 H 231.602 -0.415345 -0.715134 0
M  V30 2420 H 234.148 -1.40952 -0.945018 0
M  V30 2421 H 232.92 -3.05339 -2.44711 0
M  V30 2422 H 232.543 -1.75507 -3.56767 0
M  V30 2423 N 233.54 1.10788 -1.12088 0
M  V30 2424 C 234.786 1.8313 -0.885148 0
M  V30 2425 C 235.141 1.8336 0.582839 0
M  V30 2426 O 234.434 1.28062 1.42516 0
M  V30 2427 C 234.628 3.29294 -1.38926 0
M  V30 2428 C 234.457 3.43302 -2.90472 0
M  V30 2429 C 233.227 3.55928 -3.58669 0
M  V30 2430 C 235.425 3.37014 -3.88492 0
M  V30 2431 N 233.407 3.58475 -4.98366 0
M  V30 2432 C 234.778 3.46263 -5.14298 0
M  V30 2433 C 236.833 3.20589 -3.80955 0
M  V30 2434 C 235.536 3.4078 -6.33452 0
M  V30 2435 C 237.562 3.16427 -4.99628 0
M  V30 2436 C 236.924 3.26253 -6.2429 0
M  V30 2437 H 233.023 0.685054 -0.377128 0
M  V30 2438 H 235.607 1.3251 -1.4265 0
M  V30 2439 H 233.778 3.78416 -0.874999 0
M  V30 2440 H 235.51 3.89578 -1.09596 0
M  V30 2441 H 232.265 3.58779 -3.09151 0
M  V30 2442 H 232.689 3.6337 -5.71219 0
M  V30 2443 H 237.331 3.11873 -2.85474 0
M  V30 2444 H 235.049 3.48263 -7.29204 0
M  V30 2445 H 238.635 3.04874 -4.95523 0
M  V30 2446 H 237.515 3.2303 -7.14578 0
M  V30 2447 N 235.018 0.912232 1.28515 0
M  V30 2448 C 236.266 0.543523 1.94654 0
M  V30 2449 C 236.587 -0.9155 1.72173 0
M  V30 2450 O 235.857 -1.64708 1.06058 0
M  V30 2451 H 234.437 0.198017 0.720277 0
M  V30 2452 H 237.099 1.16126 1.56527 0
M  V30 2453 H 236.195 0.736684 3.03281 0
M  V30 2454 N 236.496 -1.42363 0.676048 0
M  V30 2455 C 237.426 -2.33497 0.0124832 0
M  V30 2456 C 238.407 -1.50748 -0.787981 0
M  V30 2457 O 239.592 -1.79346 -0.744884 0
M  V30 2458 C 236.722 -3.34377 -0.938582 0
M  V30 2459 C 235.676 -4.27289 -0.246622 0
M  V30 2460 C 235.002 -5.18386 -1.31071 0
M  V30 2461 C 236.302 -5.14916 0.875125 0
M  V30 2462 H 237.996 -2.89233 0.773593 0
M  V30 2463 H 235.542 -1.39073 0.37346 0
M  V30 2464 H 237.495 -3.97044 -1.41188 0
M  V30 2465 H 236.219 -2.76947 -1.73113 0
M  V30 2466 H 234.878 -3.66018 0.206456 0
M  V30 2467 H 234.526 -4.57282 -2.09528 0
M  V30 2468 H 234.226 -5.81378 -0.852839 0
M  V30 2469 H 235.75 -5.83929 -1.78492 0
M  V30 2470 H 237.164 -5.71262 0.482983 0
M  V30 2471 H 235.561 -5.86747 1.25887 0
M  V30 2472 H 236.631 -4.53242 1.72335 0
M  V30 2473 N 237.974 -0.419461 -1.51915 0
M  V30 2474 C 238.906 0.43646 -2.25006 0
M  V30 2475 C 239.919 1.00149 -1.28351 0
M  V30 2476 O 241.108 0.898674 -1.54227 0
M  V30 2477 C 238.208 1.6206 -2.9764 0
M  V30 2478 C 237.381 1.17763 -4.21249 0
M  V30 2479 C 236.44 2.22985 -4.76617 0
M  V30 2480 O 235.466 1.83151 -5.38929 0
M  V30 2481 N 236.668 3.55271 -4.59089 0
M  V30 2482 H 239.433 -0.18989 -2.99098 0
M  V30 2483 H 236.994 -0.247386 -1.59999 0
M  V30 2484 H 238.986 2.32038 -3.31573 0
M  V30 2485 H 237.556 2.15266 -2.2667 0
M  V30 2486 H 236.776 0.305582 -3.93014 0
M  V30 2487 H 238.064 0.858781 -5.015 0
M  V30 2488 H 237.462 3.90377 -4.09417 0
M  V30 2489 H 236.019 4.21195 -4.97432 0
M  V30 2490 N 239.452 1.56882 -0.150215 0
M  V30 2491 C 240.362 2.20494 0.801222 0
M  V30 2492 C 241.378 1.19019 1.26927 0
M  V30 2493 O 242.554 1.51607 1.32579 0
M  V30 2494 C 239.619 2.81659 2.02161 0
M  V30 2495 C 238.68 3.9827 1.60249 0
M  V30 2496 C 237.913 4.56508 2.7647 0
M  V30 2497 O 238.136 4.13627 3.92771 0
M  V30 2498 O 237.07 5.46719 2.51757 0
M  V30 2499 H 240.896 3.02315 0.289717 0
M  V30 2500 H 238.481 1.49202 0.0769684 0
M  V30 2501 H 240.363 3.20522 2.73576 0
M  V30 2502 H 239.038 2.02849 2.52258 0
M  V30 2503 H 237.945 3.64117 0.858477 0
M  V30 2504 H 239.278 4.78609 1.14864 0
M  V30 2505 N 240.93 -0.123565 1.57115 0
M  V30 2506 C 241.862 -1.17739 1.96648 0
M  V30 2507 C 242.875 -1.37906 0.865201 0
M  V30 2508 O 244.064 -1.37062 1.14351 0
M  V30 2509 C 241.164 -2.53821 2.24562 0
M  V30 2510 C 240.337 -2.54317 3.55867 0
M  V30 2511 C 239.396 -3.72112 3.72047 0
M  V30 2512 O 238.422 -3.55907 4.44206 0
M  V30 2513 N 239.624 -4.90498 3.10471 0
M  V30 2514 H 242.389 -0.841147 2.87654 0
M  V30 2515 H 239.95 -0.31289 1.58848 0
M  V30 2516 H 241.942 -3.31175 2.32606 0
M  V30 2517 H 240.512 -2.79645 1.39705 0
M  V30 2518 H 239.732 -1.62711 3.59053 0
M  V30 2519 H 241.02 -2.51701 4.42181 0
M  V30 2520 H 240.418 -5.06567 2.51806 0
M  V30 2521 H 238.975 -5.65544 3.24043 0
M  V30 2522 N 242.408 -1.52605 -0.393616 0
M  V30 2523 C 243.338 -1.80022 -1.48709 0
M  V30 2524 C 244.319 -0.651995 -1.57108 0
M  V30 2525 O 245.504 -0.89913 -1.72132 0
M  V30 2526 C 242.634 -1.96492 -2.86371 0
M  V30 2527 C 241.588 -3.12161 -2.92813 0
M  V30 2528 C 240.914 -3.13877 -4.3288 0
M  V30 2529 C 242.214 -4.51322 -2.6288 0
M  V30 2530 H 243.908 -2.71589 -1.26015 0
M  V30 2531 H 241.454 -1.30684 -0.604778 0
M  V30 2532 H 243.407 -2.14255 -3.62867 0
M  V30 2533 H 242.131 -1.01611 -3.10391 0
M  V30 2534 H 240.79 -2.94173 -2.18764 0
M  V30 2535 H 240.438 -2.16687 -4.53933 0
M  V30 2536 H 240.138 -3.91576 -4.38112 0
M  V30 2537 H 241.662 -3.33789 -5.1129 0
M  V30 2538 H 243.076 -4.69435 -3.29096 0
M  V30 2539 H 241.473 -5.31053 -2.79468 0
M  V30 2540 H 242.543 -4.58353 -1.58242 0
M  V30 2541 N 243.887 0.651787 -1.4349 0
M  V30 2542 C 245.133 1.4121 -1.46395 0
M  V30 2543 C 245.488 1.92202 -0.087366 0
M  V30 2544 O 244.781 1.69452 0.894231 0
M  V30 2545 C 244.975 2.60914 -2.44251 0
M  V30 2546 C 244.804 2.21639 -3.91288 0
M  V30 2547 C 243.574 2.09897 -4.59643 0
M  V30 2548 C 245.772 1.81835 -4.81083 0
M  V30 2549 N 243.754 1.63967 -5.91598 0
M  V30 2550 C 245.125 1.46998 -6.02322 0
M  V30 2551 C 247.18 1.69031 -4.6833 0
M  V30 2552 C 245.883 1.00638 -7.12225 0
M  V30 2553 C 247.909 1.24077 -5.78238 0
M  V30 2554 C 247.271 0.901772 -6.98604 0
M  V30 2555 H 243.37 0.512322 -0.590805 0
M  V30 2556 H 245.954 0.74989 -1.7968 0
M  V30 2557 H 244.125 3.24792 -2.1299 0
M  V30 2558 H 245.857 3.27622 -2.37584 0
M  V30 2559 H 242.612 2.297 -4.14168 0
M  V30 2560 H 243.036 1.43359 -6.61647 0
M  V30 2561 H 247.678 1.93878 -3.75727 0
M  V30 2562 H 245.396 0.745399 -8.04655 0
M  V30 2563 H 248.982 1.14657 -5.7039 0
M  V30 2564 H 247.862 0.559226 -7.82203 0
M  V30 2565 N 245.365 1.30045 0.890287 0
M  V30 2566 C 246.776 1.16738 1.45702 0
M  V30 2567 C 247.127 -0.233939 1.948 0
M  V30 2568 O 246.252 -1.13021 1.84541 0
M  V30 2569 C 246.847 2.11313 2.64825 0
M  V30 2570 C 245.406 2.02001 3.17604 0
M  V30 2571 C 244.553 2.01699 1.90296 0
M  V30 2572 H 247.504 1.42392 0.700726 0
M  V30 2573 H 247.525 1.69086 3.40867 0
M  V30 2574 H 247.037 3.13294 2.2906 0
M  V30 2575 H 245.138 1.03142 3.5804 0
M  V30 2576 H 245.251 2.90128 3.81264 0
M  V30 2577 H 243.615 1.46427 2.08402 0
M  V30 2578 H 244.398 3.05402 1.56795 0
M  V30 2579 N 246.843 -1.10192 1.12674 0
M  V30 2580 C 247.793 -2.14754 0.765801 0
M  V30 2581 C 248.777 -1.59154 -0.236409 0
M  V30 2582 O 249.969 -1.76951 -0.0415261 0
M  V30 2583 C 247.098 -3.42563 0.224827 0
M  V30 2584 C 246.184 -4.05091 1.25548 0
M  V30 2585 N 246.575 -4.42287 2.4539 0
M  V30 2586 C 244.873 -4.32186 1.10142 0
M  V30 2587 C 245.574 -4.91441 3.11224 0
M  V30 2588 N 244.55 -4.88405 2.38666 0
M  V30 2589 H 248.352 -2.41309 1.67772 0
M  V30 2590 H 245.866 -1.27339 1.00789 0
M  V30 2591 H 247.863 -4.16868 -0.0519578 0
M  V30 2592 H 246.523 -3.17467 -0.681515 0
M  V30 2593 H 247.534 -4.33902 2.82754 0
M  V30 2594 H 244.211 -4.16735 0.252587 0
M  V30 2595 H 245.601 -5.29749 4.13298 0
M  V30 2596 N 248.321 -0.919034 -1.28029 0
M  V30 2597 C 249.254 -0.355887 -2.25408 0
M  V30 2598 C 250.232 0.542874 -1.5327 0
M  V30 2599 O 251.416 0.485338 -1.82145 0
M  V30 2600 C 248.543 0.490759 -3.35126 0
M  V30 2601 C 247.589 -0.343358 -4.25116 0
M  V30 2602 S 248.422 -1.75344 -5.05979 0
M  V30 2603 C 249.578 -0.914244 -6.19187 0
M  V30 2604 H 249.811 -1.18123 -2.72826 0
M  V30 2605 H 247.344 -0.720636 -1.36551 0
M  V30 2606 H 249.302 0.973404 -3.98792 0
M  V30 2607 H 247.963 1.29054 -2.86363 0
M  V30 2608 H 247.156 0.304266 -5.03081 0
M  V30 2609 H 246.758 -0.759851 -3.662 0
M  V30 2610 H 249.05 -0.146282 -6.77342 0
M  V30 2611 H 249.993 -1.66661 -6.88208 0
M  V30 2612 H 250.401 -0.460082 -5.62622 0
M  V30 2613 N 249.799 1.42003 -0.683588 0
M  V30 2614 C 250.709 2.34597 -0.0109075 0
M  V30 2615 C 251.725 1.55576 0.779245 0
M  V30 2616 O 252.901 1.88107 0.719555 0
M  V30 2617 C 249.966 3.34199 0.922588 0
M  V30 2618 C 249.027 4.29115 0.125984 0
M  V30 2619 C 248.26 5.23959 1.01502 0
M  V30 2620 O 248.483 5.23952 2.25456 0
M  V30 2621 O 247.417 6.00053 0.47111 0
M  V30 2622 H 251.243 2.93675 -0.773853 0
M  V30 2623 H 248.828 1.42654 -0.443861 0
M  V30 2624 H 250.71 3.95365 1.45823 0
M  V30 2625 H 249.385 2.77582 1.66523 0
M  V30 2626 H 248.292 3.71335 -0.453969 0
M  V30 2627 H 249.625 4.88798 -0.577736 0
M  V30 2628 N 251.277 0.427512 1.51691 0
M  V30 2629 C 252.24 -0.377132 2.26076 0
M  V30 2630 C 253.24 -0.958089 1.29141 0
M  V30 2631 O 254.43 -0.83408 1.52934 0
M  V30 2632 C 251.562 -1.53262 3.04506 0
M  V30 2633 H 252.755 0.27464 2.9864 0
M  V30 2634 H 250.308 0.180445 1.55255 0
M  V30 2635 H 251.043 -2.22072 2.36335 0
M  V30 2636 H 250.828 -1.12232 3.75694 0
M  V30 2637 H 252.318 -2.10135 3.60878 0
M  V30 2638 N 252.755 -1.56801 0.158532 0
M  V30 2639 C 253.685 -2.20347 -0.772609 0
M  V30 2640 C 254.666 -1.15518 -1.24859 0
M  V30 2641 O 255.851 -1.43902 -1.30406 0
M  V30 2642 C 252.981 -2.83417 -2.00729 0
M  V30 2643 C 251.935 -3.94174 -1.66765 0
M  V30 2644 C 251.261 -4.44233 -2.97592 0
M  V30 2645 C 252.561 -5.14392 -0.905447 0
M  V30 2646 H 254.255 -2.98413 -0.242959 0
M  V30 2647 H 251.801 -1.43537 -0.115419 0
M  V30 2648 H 253.754 -3.26543 -2.6636 0
M  V30 2649 H 252.478 -2.02701 -2.56086 0
M  V30 2650 H 251.137 -3.51684 -1.03508 0
M  V30 2651 H 250.785 -3.60325 -3.50963 0
M  V30 2652 H 250.485 -5.18945 -2.75626 0
M  V30 2653 H 252.009 -4.90037 -3.64274 0
M  V30 2654 H 253.423 -5.5429 -1.46408 0
M  V30 2655 H 251.82 -5.9494 -0.7853 0
M  V30 2656 H 252.89 -4.84795 0.100668 0
M  V30 2657 N 254.233 0.115231 -1.57178 0
M  V30 2658 C 255.649 0.468877 -1.52557 0
M  V30 2659 C 255.849 1.81649 -0.872125 0
M  V30 2660 O 254.905 2.48347 -0.45606 0
M  V30 2661 C 256.218 0.4499 -2.97315 0
M  V30 2662 C 257.766 0.533185 -3.08425 0
M  V30 2663 C 258.241 0.54456 -4.54751 0
M  V30 2664 N 259.732 0.605892 -4.5922 0
M  V30 2665 C 260.467 0.636203 -5.6986 0
M  V30 2666 N 259.963 0.623931 -6.89985 0
M  V30 2667 N 261.756 0.679496 -5.57978 0
M  V30 2668 H 253.907 -0.767712 -1.9804 0
M  V30 2669 H 256.17 -0.283609 -0.904583 0
M  V30 2670 H 255.876 -0.472721 -3.48509 0
M  V30 2671 H 255.75 1.27632 -3.5495 0
M  V30 2672 H 258.137 1.44623 -2.57232 0
M  V30 2673 H 258.218 -0.320995 -2.53778 0
M  V30 2674 H 257.862 -0.364452 -5.06591 0
M  V30 2675 H 257.792 1.41568 -5.07214 0
M  V30 2676 H 260.283 0.621386 -3.72756 0
M  V30 2677 H 260.596 0.649787 -7.70063 0
M  V30 2678 H 258.941 0.591296 -6.9248 0
M  V30 2679 H 262.132 0.686472 -4.63039 0
M  V30 2680 H 262.305 0.69965 -6.44212 0
M  V30 2681 N 255.711 1.52812 0.385517 0
M  V30 2682 C 257.122 1.5993 0.963293 0
M  V30 2683 C 257.473 0.454302 1.90868 0
M  V30 2684 O 256.598 -0.422132 2.12243 0
M  V30 2685 C 257.193 2.89871 1.75387 0
M  V30 2686 C 255.752 2.99389 2.28129 0
M  V30 2687 C 254.899 2.55071 1.08783 0
M  V30 2688 H 257.85 1.5784 0.164948 0
M  V30 2689 H 257.871 2.76553 2.61341 0
M  V30 2690 H 257.383 3.73186 1.06554 0
M  V30 2691 H 255.484 2.20619 3.00263 0
M  V30 2692 H 255.597 4.04096 2.57377 0
M  V30 2693 H 253.961 2.09473 1.4489 0
M  V30 2694 H 254.744 3.40785 0.414807 0
M  V30 2695 N 257.189 -0.644168 1.43834 0
M  V30 2696 C 258.605 -0.960875 1.27434 0
M  V30 2697 C 258.805 -2.00499 0.200618 0
M  V30 2698 O 257.861 -2.49018 -0.417906 0
M  V30 2699 C 259.174 -1.43653 2.64167 0
M  V30 2700 C 260.722 -1.55271 2.71772 0
M  V30 2701 C 261.197 -2.06224 4.08944 0
M  V30 2702 N 262.688 -2.13513 4.11055 0
M  V30 2703 C 263.423 -2.54081 5.14033 0
M  V30 2704 N 262.919 -2.9388 6.27381 0
M  V30 2705 N 264.712 -2.54101 5.01387 0
M  V30 2706 H 256.863 0.0465779 2.12349 0
M  V30 2707 H 259.126 -0.0417638 0.94708 0
M  V30 2708 H 258.832 -0.743706 3.43747 0
M  V30 2709 H 258.706 -2.40993 2.90176 0
M  V30 2710 H 261.093 -2.23653 1.92519 0
M  V30 2711 H 261.174 -0.563395 2.49519 0
M  V30 2712 H 260.818 -1.38441 4.88668 0
M  V30 2713 H 260.748 -3.06003 4.28567 0
M  V30 2714 H 263.239 -1.85493 3.29242 0
M  V30 2715 H 263.552 -3.2361 7.01781 0
M  V30 2716 H 261.897 -2.91663 6.30839 0
M  V30 2717 H 265.088 -2.22391 4.11898 0
M  V30 2718 H 265.261 -2.85394 5.81768 0
M  V30 2719 N 258.668 -1.30515 -0.883378 0
M  V30 2720 C 260.079 -1.17509 -1.45081 0
M  V30 2721 C 260.43 0.223605 -1.94922 0
M  V30 2722 O 259.555 1.12041 -1.85137 0
M  V30 2723 C 260.15 -2.12715 -2.63701 0
M  V30 2724 C 258.709 -2.03682 -3.16529 0
M  V30 2725 C 257.856 -2.02706 -1.89224 0
M  V30 2726 H 260.807 -1.42762 -0.693165 0
M  V30 2727 H 260.828 -1.70891 -3.39965 0
M  V30 2728 H 260.34 -3.14505 -2.27395 0
M  V30 2729 H 258.441 -1.05039 -3.57488 0
M  V30 2730 H 258.554 -2.92146 -3.7972 0
M  V30 2731 H 256.918 -1.4753 -2.07622 0
M  V30 2732 H 257.701 -3.06229 -1.55174 0
M  V30 2733 N 260.146 1.09593 -1.13257 0
M  V30 2734 C 261.371 1.8604 -0.916732 0
M  V30 2735 C 261.796 1.80504 0.529146 0
M  V30 2736 O 261.154 1.18127 1.37534 0
M  V30 2737 C 261.202 3.32017 -1.40703 0
M  V30 2738 O 260.306 4.08141 -0.591153 0
M  V30 2739 H 259.647 0.576943 -0.328683 0
M  V30 2740 H 262.177 1.38405 -1.50682 0
M  V30 2741 H 262.187 3.82865 -1.4099 0
M  V30 2742 H 260.862 3.35361 -2.45979 0
M  V30 2743 H 259.439 3.67084 -0.656005 0
M  V30 2744 N 261.624 0.925811 1.2754 0
M  V30 2745 C 262.87 0.566092 1.94739 0
M  V30 2746 C 263.203 -0.890057 1.72603 0
M  V30 2747 O 262.478 -1.63467 1.05399 0
M  V30 2748 C 262.761 0.89054 3.48915 0
M  V30 2749 C 262.614 2.4003 3.80402 0
M  V30 2750 C 263.933 0.395101 4.38323 0
M  V30 2751 H 261.052 0.20714 0.707292 0
M  V30 2752 H 263.694 1.15725 1.50691 0
M  V30 2753 H 261.844 0.387452 3.86563 0
M  V30 2754 H 263.516 2.97494 3.52555 0
M  V30 2755 H 261.759 2.85028 3.2702 0
M  V30 2756 H 262.43 2.57785 4.8811 0
M  V30 2757 H 264.906 0.826241 4.07814 0
M  V30 2758 H 263.782 0.651086 5.45025 0
M  V30 2759 H 264.043 -0.704798 4.36446 0
M  V30 2760 N 263.102 -1.41638 0.69111 0
M  V30 2761 C 264.332 -2.0533 0.228758 0
M  V30 2762 C 264.74 -1.52089 -1.12541 0
M  V30 2763 O 264.083 -0.662145 -1.71351 0
M  V30 2764 C 264.145 -3.59349 0.10407 0
M  V30 2765 C 263.809 -4.35362 1.38956 0
M  V30 2766 C 264.806 -4.64942 2.32648 0
M  V30 2767 C 262.491 -4.74714 1.64169 0
M  V30 2768 C 264.485 -5.32828 3.49818 0
M  V30 2769 C 262.172 -5.42338 2.81625 0
M  V30 2770 C 263.17 -5.71322 3.74273 0
M  V30 2771 O 262.858 -6.37554 4.89673 0
M  V30 2772 H 262.59 -0.667796 0.104997 0
M  V30 2773 H 265.144 -1.82477 0.942938 0
M  V30 2774 H 263.374 -3.80924 -0.665839 0
M  V30 2775 H 265.063 -4.04633 -0.320519 0
M  V30 2776 H 265.829 -4.35025 2.14425 0
M  V30 2777 H 261.708 -4.51538 0.929202 0
M  V30 2778 H 265.252 -5.55368 4.22152 0
M  V30 2779 H 261.149 -5.71673 2.99768 0
M  V30 2780 H 261.917 -6.56049 4.8943 0
M  V30 2781 N 264.58 -0.43555 -1.51462 0
M  V30 2782 C 265.829 0.133007 -2.01261 0
M  V30 2783 C 266.142 1.43942 -1.32439 0
M  V30 2784 O 267.348 2.09081 -1.73198 0
M  V30 2785 C 265.804 0.287581 -3.58749 0
M  V30 2786 C 265.412 -1.00829 -4.36506 0
M  V30 2787 C 267.156 0.810004 -4.167 0
M  V30 2788 C 265.063 -0.819454 -5.85695 0
M  V30 2789 H 263.993 0.0534822 -0.752101 0
M  V30 2790 H 266.644 -0.565038 -1.74584 0
M  V30 2791 H 265.026 1.04859 -3.81865 0
M  V30 2792 H 266.2 -1.77749 -4.25138 0
M  V30 2793 H 264.515 -1.45911 -3.89999 0
M  V30 2794 H 267.112 0.967743 -5.2587 0
M  V30 2795 H 267.455 1.79196 -3.75758 0
M  V30 2796 H 267.988 0.107357 -3.97655 0
M  V30 2797 H 264.727 -1.77374 -6.31046 0
M  V30 2798 H 264.247 -0.0900208 -5.99732 0
M  V30 2799 H 265.926 -0.471949 -6.45276 0
M  V30 2800 N 266.058 1.56714 -0.166846 0
M  V30 2801 C 267.469 1.83378 0.350646 0
M  V30 2802 C 267.82 1.08646 1.63372 0
M  V30 2803 O 266.945 0.338058 2.13743 0
M  V30 2804 C 267.54 3.32643 0.642963 0
M  V30 2805 C 266.099 3.59818 1.10491 0
M  V30 2806 C 265.246 2.76954 0.138411 0
M  V30 2807 H 268.197 1.53803 -0.391193 0
M  V30 2808 H 268.218 3.49878 1.49551 0
M  V30 2809 H 267.73 3.87007 -0.291055 0
M  V30 2810 H 265.831 3.1086 2.05418 0
M  V30 2811 H 265.944 4.68178 1.01716 0
M  V30 2812 H 264.308 2.4666 0.634911 0
M  V30 2813 H 265.091 3.34097 -0.789549 0
M  V30 2814 N 267.536 -0.106894 1.57237 0
M  V30 2815 C 268.446 -1.14911 2.0453 0
M  V30 2816 C 269.462 -1.44592 0.96795 0
M  V30 2817 O 270.638 -1.55468 1.2803 0
M  V30 2818 C 267.703 -2.45272 2.45036 0
M  V30 2819 C 266.764 -2.22879 3.66911 0
M  V30 2820 C 265.997 -3.47024 4.05475 0
M  V30 2821 O 266.22 -4.54804 3.44252 0
M  V30 2822 O 265.154 -3.3731 4.98504 0
M  V30 2823 H 268.98 -0.777461 2.9358 0
M  V30 2824 H 266.565 -0.318563 1.45964 0
M  V30 2825 H 268.447 -3.22055 2.71769 0
M  V30 2826 H 267.122 -2.81886 1.59129 0
M  V30 2827 H 266.029 -1.43915 3.45311 0
M  V30 2828 H 267.362 -1.91163 4.53561 0
M  V30 2829 N 269.014 -1.53014 -0.377408 0
M  V30 2830 C 270.261 -1.68623 -1.12128 0
M  V30 2831 C 270.589 -0.431997 -1.89642 0
M  V30 2832 O 269.844 0.585855 -1.86725 0
M  V30 2833 C 270.143 -2.87982 -2.11663 0
M  V30 2834 C 269.809 -4.24964 -1.50719 0
M  V30 2835 C 268.471 -4.62217 -1.33825 0
M  V30 2836 C 270.823 -5.10199 -1.06519 0
M  V30 2837 C 268.151 -5.82352 -0.712963 0
M  V30 2838 C 270.503 -6.30969 -0.453955 0
M  V30 2839 C 269.167 -6.66944 -0.272411 0
M  V30 2840 H 268.437 -0.617034 -0.410305 0
M  V30 2841 H 271.084 -1.8718 -0.404484 0
M  V30 2842 H 269.389 -2.63889 -2.89603 0
M  V30 2843 H 271.086 -2.97253 -2.6915 0
M  V30 2844 H 267.676 -3.95626 -1.64858 0
M  V30 2845 H 271.86 -4.81978 -1.18368 0
M  V30 2846 H 267.116 -6.08824 -0.560611 0
M  V30 2847 H 271.29 -6.96324 -0.103217 0
M  V30 2848 H 268.917 -7.59898 0.214181 0
M  V30 2849 N 270.492 0.636531 -1.44174 0
M  V30 2850 C 271.741 1.39213 -1.45954 0
M  V30 2851 C 272.054 1.95374 -0.0939119 0
M  V30 2852 O 273.26 2.71498 0.0107767 0
M  V30 2853 C 271.716 2.52025 -2.56927 0
M  V30 2854 C 271.324 2.024 -3.99673 0
M  V30 2855 C 273.068 3.29269 -2.67922 0
M  V30 2856 C 270.975 3.12521 -5.0208 0
M  V30 2857 H 269.905 0.523132 -0.542999 0
M  V30 2858 H 272.556 0.685349 -1.70221 0
M  V30 2859 H 270.938 3.25253 -2.25891 0
M  V30 2860 H 272.112 1.36073 -4.40251 0
M  V30 2861 H 270.427 1.37987 -3.92872 0
M  V30 2862 H 273.024 4.11352 -3.41605 0
M  V30 2863 H 273.367 3.78397 -1.73555 0
M  V30 2864 H 273.9 2.63129 -2.98342 0
M  V30 2865 H 270.639 2.68343 -5.98057 0
M  V30 2866 H 270.159 3.77507 -4.66099 0
M  V30 2867 H 271.838 3.77385 -5.25538 0
M  V30 2868 N 271.97 1.30982 0.876444 0
M  V30 2869 C 272.933 1.18054 1.96459 0
M  V30 2870 C 273.933 0.109399 1.60427 0
M  V30 2871 O 275.123 0.358173 1.70478 0
M  V30 2872 C 272.255 0.810616 3.31122 0
M  V30 2873 H 273.448 2.14735 2.09354 0
M  V30 2874 H 271.001 1.145 1.06392 0
M  V30 2875 H 271.736 -0.155322 3.23928 0
M  V30 2876 H 271.521 1.58481 3.58645 0
M  V30 2877 H 273.011 0.743876 4.10921 0
M  V30 2878 N 273.449 -1.08991 1.13837 0
M  V30 2879 C 274.412 -2.13925 0.822715 0
M  V30 2880 C 275.412 -1.599 -0.1699 0
M  V30 2881 O 276.602 -1.74104 0.0577251 0
M  V30 2882 C 273.734 -3.40155 0.225318 0
M  V30 2883 H 274.927 -2.43358 1.75262 0
M  V30 2884 H 272.48 -1.24603 0.943594 0
M  V30 2885 H 273.215 -3.16352 -0.713594 0
M  V30 2886 H 273 -3.80661 0.940193 0
M  V30 2887 H 274.49 -4.17594 0.0214784 0
M  V30 2888 N 274.927 -0.932562 -1.27047 0
M  V30 2889 C 275.875 -0.42603 -2.28665 0
M  V30 2890 C 276.869 0.49219 -1.62092 0
M  V30 2891 O 278.075 0.371355 -1.76128 0
M  V30 2892 H 274.45 -0.119213 -0.742491 0
M  V30 2893 H 276.421 -1.29579 -2.68797 0
M  V30 2894 C 275.17 0.301426 -3.46391 0
M  V30 2895 H 274.493 -0.39595 -3.97834 0
M  V30 2896 H 275.933 0.6202 -4.1944 0
M  V30 2897 C 274.392 1.51616 -3.00856 0
M  V30 2898 O 274.922 2.61476 -3.04948 0
M  V30 2899 N 273.128 1.36969 -2.56296 0
M  V30 2900 H 272.675 0.475873 -2.53166 0
M  V30 2901 H 272.633 2.18368 -2.26192 0
M  V30 2902 N 276.405 1.4127 -0.698611 0
M  V30 2903 C 277.337 2.292 0.00399731 0
M  V30 2904 C 278.35 1.44944 0.741279 0
M  V30 2905 O 279.539 1.68416 0.591477 0
M  V30 2906 C 276.639 3.22875 1.02979 0
M  V30 2907 C 275.812 4.35904 0.36151 0
M  V30 2908 C 274.871 5.10134 1.29033 0
M  V30 2909 O 273.897 5.63809 0.781562 0
M  V30 2910 N 275.099 5.17885 2.6225 0
M  V30 2911 H 277.864 2.9014 -0.750921 0
M  V30 2912 H 275.425 1.52455 -0.544882 0
M  V30 2913 H 277.417 3.69404 1.65296 0
M  V30 2914 H 275.987 2.63221 1.68622 0
M  V30 2915 H 275.207 3.91719 -0.441584 0
M  V30 2916 H 276.495 5.08696 -0.103055 0
M  V30 2917 H 275.893 4.7573 3.061 0
M  V30 2918 H 274.45 5.6798 3.19754 0
M  V30 2919 N 277.883 0.443576 1.51229 0
M  V30 2920 C 279.108 -0.121648 2.07043 0
M  V30 2921 C 279.533 -1.35156 1.30823 0
M  V30 2922 O 278.891 -1.7793 0.347934 0
M  V30 2923 C 278.939 -0.41624 3.5819 0
M  V30 2924 O 278.043 -1.50163 3.8409 0
M  V30 2925 H 277.384 0.000871367 0.663999 0
M  V30 2926 H 279.914 0.626706 1.94765 0
M  V30 2927 H 279.924 -0.664867 4.02546 0
M  V30 2928 H 278.599 0.482653 4.1309 0
M  V30 2929 H 277.176 -1.24248 3.51592 0
M  V30 2930 N 279.361 -1.56624 0.175154 0
M  V30 2931 C 280.324 -2.16934 -0.739738 0
M  V30 2932 C 281.324 -1.11842 -1.15533 0
M  V30 2933 O 282.514 -1.37335 -1.07167 0
M  V30 2934 C 279.646 -2.75531 -2.00738 0
M  V30 2935 H 280.839 -2.99131 -0.214639 0
M  V30 2936 H 278.392 -1.56123 -0.0744197 0
M  V30 2937 H 279.127 -1.97078 -2.57548 0
M  V30 2938 H 278.912 -3.52444 -1.71831 0
M  V30 2939 H 280.402 -3.21904 -2.66021 0
M  V30 2940 N 280.839 0.0985539 -1.57292 0
M  V30 2941 C 282.255 0.45267 -1.53046 0
M  V30 2942 C 282.455 1.80713 -0.891342 0
M  V30 2943 O 281.511 2.4785 -0.482375 0
M  V30 2944 C 282.824 0.418341 -2.97776 0
M  V30 2945 C 284.372 0.500443 -3.08973 0
M  V30 2946 C 284.847 0.496297 -4.55303 0
M  V30 2947 N 286.338 0.557151 -4.59837 0
M  V30 2948 C 287.073 0.575726 -5.70502 0
M  V30 2949 N 286.569 0.550714 -6.90608 0
M  V30 2950 N 288.362 0.620277 -5.58667 0
M  V30 2951 H 280.513 -0.788673 -1.97215 0
M  V30 2952 H 282.776 -0.293188 -0.901524 0
M  V30 2953 H 282.482 -0.509659 -3.47988 0
M  V30 2954 H 282.356 1.2386 -3.56284 0
M  V30 2955 H 284.743 1.41886 -2.58751 0
M  V30 2956 H 284.824 -0.347894 -2.53423 0
M  V30 2957 H 284.468 -0.418162 -5.06176 0
M  V30 2958 H 284.398 1.3618 -5.08687 0
M  V30 2959 H 286.889 0.581816 -3.73394 0
M  V30 2960 H 287.202 0.568075 -7.70709 0
M  V30 2961 H 285.547 0.517816 -6.93068 0
M  V30 2962 H 288.738 0.637322 -4.63741 0
M  V30 2963 H 288.911 0.631283 -6.44918 0
M  V30 2964 N 282.317 1.53212 0.369288 0
M  V30 2965 C 283.28 1.7872 1.43498 0
M  V30 2966 C 284.28 0.657554 1.46741 0
M  V30 2967 O 285.47 0.925736 1.47566 0
M  V30 2968 C 282.602 1.90591 2.82645 0
M  V30 2969 H 283.795 2.73894 1.22156 0
M  V30 2970 H 281.348 1.44233 0.602203 0
M  V30 2971 H 282.083 0.974709 3.09306 0
M  V30 2972 H 281.868 2.72751 2.8169 0
M  V30 2973 H 283.358 2.11931 3.59826 0
M  V30 2974 N 283.795 -0.628877 1.44509 0
M  V30 2975 C 285.072 -1.38733 1.37886 0
M  V30 2976 C 285.452 -2.11065 0.0387008 0
M  V30 2977 O 284.8 -2.06476 -0.97878 0
M  V30 2978 C 285.01 -2.35188 2.57852 0
M  V30 2979 C 286.358 -2.9845 3.02014 0
M  V30 2980 O 287.382 -2.45513 2.58073 0
M  V30 2981 O 286.241 -3.94487 3.78209 0
M  V30 2982 H 283.335 -0.621015 0.54614 0
M  V30 2983 H 285.881 -0.653744 1.56602 0
M  V30 2984 H 284.653 -1.80855 3.46998 0
M  V30 2985 H 284.276 -3.1596 2.4136 0
M  V30 2986 N 285.273 -1.31445 -0.869486 0
M  V30 2987 C 286.221 -1.19067 -1.99814 0
M  V30 2988 C 287.215 -0.0988569 -1.69111 0
M  V30 2989 O 288.421 -0.260781 -1.78101 0
M  V30 2990 H 284.796 -0.368677 -0.655425 0
M  V30 2991 H 286.767 -2.14555 -2.07385 0
M  V30 2992 C 285.516 -0.915323 -3.35436 0
M  V30 2993 H 284.839 -1.74759 -3.59582 0
M  V30 2994 H 286.279 -0.868895 -4.15001 0
M  V30 2995 C 284.738 0.381928 -3.34728 0
M  V30 2996 O 285.268 1.39857 -3.76567 0
M  V30 2997 N 283.474 0.398633 -2.87853 0
M  V30 2998 H 283.021 -0.429186 -2.54 0
M  V30 2999 H 282.979 1.26651 -2.87762 0
M  V30 3000 N 286.751 1.08385 -1.14413 0
M  V30 3001 C 287.681 2.17321 -0.854044 0
M  V30 3002 C 288.662 1.69024 0.191049 0
M  V30 3003 O 289.847 1.94141 0.0476779 0
M  V30 3004 C 286.977 3.45719 -0.330983 0
M  V30 3005 C 285.931 4.07409 -1.31155 0
M  V30 3006 C 285.257 5.30762 -0.64778 0
M  V30 3007 C 286.557 4.48665 -2.67388 0
M  V30 3008 H 288.251 2.41845 -1.76498 0
M  V30 3009 H 285.797 1.16233 -0.850051 0
M  V30 3010 H 287.75 4.21241 -0.115645 0
M  V30 3011 H 286.474 3.2075 0.615381 0
M  V30 3012 H 285.133 3.33919 -1.51306 0
M  V30 3013 H 284.781 5.02078 0.304398 0
M  V30 3014 H 284.481 5.72992 -1.30207 0
M  V30 3015 H 286.005 6.08998 -0.441972 0
M  V30 3016 H 287.419 5.15364 -2.51143 0
M  V30 3017 H 285.816 5.01814 -3.29093 0
M  V30 3018 H 286.886 3.60543 -3.24248 0
M  V30 3019 N 288.23 0.939286 1.26551 0
M  V30 3020 C 289.479 0.581601 1.93133 0
M  V30 3021 C 289.792 -0.883224 1.74524 0
M  V30 3022 O 290.998 -1.3502 2.35546 0
M  V30 3023 C 289.454 0.989425 3.46032 0
M  V30 3024 C 289.062 2.47573 3.73379 0
M  V30 3025 C 290.806 0.703544 4.18629 0
M  V30 3026 C 288.713 2.82235 5.19709 0
M  V30 3027 H 287.643 0.213803 0.723052 0
M  V30 3028 H 290.294 1.14167 1.4366 0
M  V30 3029 H 288.676 0.357902 3.94379 0
M  V30 3030 H 289.85 3.15614 3.35744 0
M  V30 3031 H 288.165 2.73471 3.1401 0
M  V30 3032 H 290.762 0.938869 5.26393 0
M  V30 3033 H 291.105 -0.359639 4.14744 0
M  V30 3034 H 291.638 1.2947 3.76141 0
M  V30 3035 H 288.377 3.87509 5.28694 0
M  V30 3036 H 287.897 2.18854 5.58447 0
M  V30 3037 H 289.576 2.70599 5.87695 0
M  V30 3038 N 289.708 -1.40897 0.706093 0
M  V30 3039 C 291.119 -1.84023 0.315052 0
M  V30 3040 C 291.47 -1.5906 -1.14866 0
M  V30 3041 O 290.595 -1.06651 -1.88293 0
M  V30 3042 C 291.19 -3.34055 0.565038 0
M  V30 3043 C 289.749 -3.7571 0.227806 0
M  V30 3044 C 288.896 -2.64204 0.842122 0
M  V30 3045 H 291.847 -1.303 0.905963 0
M  V30 3046 H 291.868 -3.80107 -0.172843 0
M  V30 3047 H 291.38 -3.52192 1.63042 0
M  V30 3048 H 289.481 -3.63172 -0.832895 0
M  V30 3049 H 289.594 -4.74103 0.690174 0
M  V30 3050 H 287.958 -2.53255 0.270893 0
M  V30 3051 H 288.741 -2.85155 1.91158 0
M  V30 3052 N 291.186 -0.45159 -1.50991 0
M  V30 3053 C 292.434 0.109857 -2.01801 0
M  V30 3054 C 292.755 1.41958 -1.3369 0
M  V30 3055 O 292.025 1.9003 -0.475951 0
M  V30 3056 H 290.605 0.0435884 -0.745727 0
M  V30 3057 H 293.267 -0.597557 -1.85514 0
M  V30 3058 H 292.363 0.275489 -3.10882 0
M  V30 3059 N 292.664 1.56529 -0.183458 0
M  V30 3060 C 293.889 2.02064 0.467428 0
M  V30 3061 C 294.314 1.06282 1.55196 0
M  V30 3062 O 293.672 0.0443565 1.81246 0
M  V30 3063 C 293.72 3.46122 1.01153 0
M  V30 3064 O 292.824 3.53437 2.12499 0
M  V30 3065 H 292.165 0.654726 0.110588 0
M  V30 3066 H 294.695 2.02521 -0.290917 0
M  V30 3067 H 294.705 3.85676 1.33108 0
M  V30 3068 H 293.38 4.15331 0.217533 0
M  V30 3069 H 291.957 3.2575 1.81497 0
M  V30 3070 N 294.142 -0.090211 1.57342 0
M  V30 3071 C 295.558 -0.444547 1.53284 0
M  V30 3072 C 295.758 -1.80238 0.900914 0
M  V30 3073 O 294.814 -2.4759 0.495513 0
M  V30 3074 C 296.127 -0.402543 2.97993 0
M  V30 3075 C 297.675 -0.48405 3.09234 0
M  V30 3076 C 298.15 -0.472144 4.5556 0
M  V30 3077 N 299.641 -0.532757 4.60126 0
M  V30 3078 C 300.376 -0.545462 5.708 0
M  V30 3079 N 299.872 -0.514082 6.9089 0
M  V30 3080 N 301.665 -0.59064 5.58988 0
M  V30 3081 H 293.816 0.799121 1.96794 0
M  V30 3082 H 296.079 0.297965 0.899956 0
M  V30 3083 H 295.785 0.528106 3.47712 0
M  V30 3084 H 295.659 -1.21969 3.56936 0
M  V30 3085 H 298.046 -1.40512 2.595 0
M  V30 3086 H 298.127 0.361328 2.53235 0
M  V30 3087 H 297.771 0.445 5.05947 0
M  V30 3088 H 297.701 -1.3348 5.09402 0
M  V30 3089 H 300.192 -0.562006 3.73698 0
M  V30 3090 H 300.505 -0.527195 7.71 0
M  V30 3091 H 298.85 -0.481054 6.93333 0
M  V30 3092 H 302.041 -0.61272 4.64073 0
M  V30 3093 H 302.214 -0.597073 6.45243 0
M  V30 3094 N 295.62 -1.53406 -0.361157 0
M  V30 3095 C 296.583 -1.79479 -1.42548 0
M  V30 3096 C 297.583 -0.665327 -1.4639 0
M  V30 3097 O 298.773 -0.933549 -1.47073 0
M  V30 3098 C 295.905 -1.92087 -2.8163 0
M  V30 3099 H 297.098 -2.74538 -1.20701 0
M  V30 3100 H 294.651 -1.4455 -0.594546 0
M  V30 3101 H 295.386 -0.991099 -3.08784 0
M  V30 3102 H 295.171 -2.74241 -2.80239 0
M  V30 3103 H 296.661 -2.13836 -3.58697 0
M  V30 3104 N 297.098 0.621204 -1.44841 0
M  V30 3105 C 298.03 1.74615 -1.48466 0
M  V30 3106 C 299.043 1.58377 -0.37691 0
M  V30 3107 O 300.232 1.66508 -0.643215 0
M  V30 3108 C 297.332 3.12459 -1.31236 0
M  V30 3109 C 296.505 3.55064 -2.55438 0
M  V30 3110 C 295.564 4.71821 -2.32963 0
M  V30 3111 O 294.59 4.79628 -3.06505 0
M  V30 3112 N 295.792 5.64186 -1.36654 0
M  V30 3113 H 298.557 1.71973 -2.45449 0
M  V30 3114 H 296.118 0.806077 -1.40407 0
M  V30 3115 H 298.11 3.88302 -1.14032 0
M  V30 3116 H 296.68 3.09686 -0.4258 0
M  V30 3117 H 295.9 2.69324 -2.87851 0
M  V30 3118 H 297.188 3.80284 -3.38026 0
M  V30 3119 H 296.586 5.6058 -0.759344 0
M  V30 3120 H 295.143 6.39618 -1.25425 0
M  V30 3121 N 298.576 1.31904 0.862503 0
M  V30 3122 C 299.508 1.16005 1.97675 0
M  V30 3123 C 300.521 0.0971234 1.6251 0
M  V30 3124 O 301.71 0.345337 1.75128 0
M  V30 3125 C 298.81 0.751791 3.30456 0
M  V30 3126 C 297.983 1.90133 3.93914 0
M  V30 3127 C 297.042 1.4779 5.05019 0
M  V30 3128 O 296.068 2.18872 5.25437 0
M  V30 3129 N 297.27 0.369491 5.79323 0
M  V30 3130 H 300.035 2.11982 2.11857 0
M  V30 3131 H 297.596 1.24337 1.03691 0
M  V30 3132 H 299.588 0.451084 4.02178 0
M  V30 3133 H 298.158 -0.116593 3.12382 0
M  V30 3134 H 297.378 2.36896 3.15078 0
M  V30 3135 H 298.666 2.67111 4.33047 0
M  V30 3136 H 298.064 -0.222299 5.65263 0
M  V30 3137 H 296.621 0.128354 6.51674 0
M  V30 3138 N 300.054 -1.07777 1.14986 0
M  V30 3139 C 300.984 -2.16865 0.865557 0
M  V30 3140 C 301.965 -1.69123 -0.182083 0
M  V30 3141 O 303.15 -1.94164 -0.0373815 0
M  V30 3142 C 300.28 -3.45539 0.349313 0
M  V30 3143 C 299.234 -4.06708 1.33313 0
M  V30 3144 C 298.56 -5.30411 0.675918 0
M  V30 3145 C 299.86 -4.47241 2.69764 0
M  V30 3146 H 301.554 -2.40905 1.77778 0
M  V30 3147 H 299.1 -1.15781 0.856203 0
M  V30 3148 H 301.053 -4.21174 0.137983 0
M  V30 3149 H 299.777 -3.21072 -0.598362 0
M  V30 3150 H 298.436 -3.33112 1.53075 0
M  V30 3151 H 298.084 -5.02232 -0.277767 0
M  V30 3152 H 297.784 -5.72293 1.33244 0
M  V30 3153 H 299.308 -6.08755 0.474262 0
M  V30 3154 H 300.722 -5.14025 2.53873 0
M  V30 3155 H 299.119 -5.00062 3.3175 0
M  V30 3156 H 300.189 -3.58818 3.26156 0
M  V30 3157 N 301.532 -0.945985 -1.26051 0
M  V30 3158 C 302.442 -0.465633 -2.29933 0
M  V30 3159 C 303.458 0.462761 -1.67733 0
M  V30 3160 O 304.634 0.341118 -1.9849 0
M  V30 3161 C 301.699 0.256994 -3.45746 0
M  V30 3162 C 300.76 -0.708549 -4.23412 0
M  V30 3163 C 299.993 -0.0203135 -5.33696 0
M  V30 3164 O 300.216 1.19571 -5.57726 0
M  V30 3165 O 299.15 -0.701459 -5.97799 0
M  V30 3166 H 302.976 -1.32866 -2.73094 0
M  V30 3167 H 300.561 -0.712071 -1.31339 0
M  V30 3168 H 302.443 0.663852 -4.16138 0
M  V30 3169 H 301.118 1.09533 -3.04605 0
M  V30 3170 H 300.025 -1.16545 -3.55483 0
M  V30 3171 H 301.358 -1.51465 -4.68315 0
M  V30 3172 N 303.011 1.40521 -0.713556 0
M  V30 3173 C 303.943 2.29191 -0.0203126 0
M  V30 3174 C 304.956 1.45723 0.725864 0
M  V30 3175 O 306.145 1.69033 0.573581 0
M  V30 3176 C 303.245 3.2395 0.995486 0
M  V30 3177 C 302.418 4.36262 0.315256 0
M  V30 3178 C 301.477 5.11474 1.23616 0
M  V30 3179 O 300.503 5.64606 0.721719 0
M  V30 3180 N 301.705 5.20638 2.56743 0
M  V30 3181 H 304.47 2.89327 -0.781652 0
M  V30 3182 H 302.031 1.51869 -0.561022 0
M  V30 3183 H 304.023 3.71137 1.61368 0
M  V30 3184 H 302.593 2.64995 1.6582 0
M  V30 3185 H 301.813 3.91228 -0.483106 0
M  V30 3186 H 303.101 5.08558 -0.157004 0
M  V30 3187 H 302.499 4.7895 3.01037 0
M  V30 3188 H 301.056 5.71339 3.13712 0
M  V30 3189 N 304.489 0.459591 1.5075 0
M  V30 3190 C 305.738 -0.100971 2.01447 0
M  V30 3191 C 306.051 -1.41816 1.34713 0
M  V30 3192 O 307.257 -2.06299 1.76502 0
M  V30 3193 C 305.713 -0.23047 3.59161 0
M  V30 3194 C 305.321 1.0776 4.34847 0
M  V30 3195 C 307.065 -0.743608 4.17936 0
M  V30 3196 C 304.972 0.91253 5.84317 0
M  V30 3197 H 303.902 -0.0415102 0.752856 0
M  V30 3198 H 306.553 0.592742 1.73663 0
M  V30 3199 H 304.935 -0.987703 3.83485 0
M  V30 3200 H 306.109 1.8449 4.22256 0
M  V30 3201 H 304.424 1.52097 3.87628 0
M  V30 3202 H 307.021 -0.883959 5.27343 0
M  V30 3203 H 307.364 -1.73196 3.78562 0
M  V30 3204 H 307.897 -0.04408 3.97776 0
M  V30 3205 H 304.636 1.87391 6.28144 0
M  V30 3206 H 304.156 0.185422 5.99513 0
M  V30 3207 H 305.835 0.574547 6.44444 0
M  V30 3208 N 305.967 -1.56429 0.191757 0
M  V30 3209 C 307.383 -1.58754 -0.164137 0
M  V30 3210 C 307.583 -1.20782 -1.61288 0
M  V30 3211 O 306.639 -0.928999 -2.34789 0
M  V30 3212 C 307.952 -3.00396 0.135195 0
M  V30 3213 C 309.5 -3.1291 0.0750351 0
M  V30 3214 C 309.975 -4.56679 0.347632 0
M  V30 3215 N 311.466 -4.62252 0.296131 0
M  V30 3216 C 312.201 -5.71379 0.480948 0
M  V30 3217 N 311.697 -6.88986 0.725933 0
M  V30 3218 N 313.49 -5.60563 0.415435 0
M  V30 3219 H 305.641 -1.79393 1.13718 0
M  V30 3220 H 307.904 -0.832414 0.453643 0
M  V30 3221 H 307.61 -3.32726 1.13958 0
M  V30 3222 H 307.484 -3.72963 -0.563773 0
M  V30 3223 H 309.871 -2.80394 -0.919948 0
M  V30 3224 H 309.952 -2.42736 0.807029 0
M  V30 3225 H 309.596 -4.89907 1.33992 0
M  V30 3226 H 309.526 -5.25039 -0.405212 0
M  V30 3227 H 312.017 -3.7773 0.113259 0
M  V30 3228 H 312.33 -7.68046 0.855857 0
M  V30 3229 H 310.675 -6.90801 0.762788 0
M  V30 3230 H 313.866 -4.67561 0.224486 0
M  V30 3231 H 314.039 -6.45551 0.562889 0
M  V30 3232 N 307.445 0.0818655 -1.57387 0
M  V30 3233 C 308.861 0.436412 -1.53517 0
M  V30 3234 C 309.061 1.79758 -0.910459 0
M  V30 3235 O 308.117 2.47324 -0.508636 0
M  V30 3236 C 309.43 0.386734 -2.98203 0
M  V30 3237 C 310.978 0.467644 -3.09487 0
M  V30 3238 C 311.453 0.447978 -4.55804 0
M  V30 3239 N 312.944 0.508348 -4.60402 0
M  V30 3240 C 313.679 0.515184 -5.71081 0
M  V30 3241 N 313.175 0.477435 -6.91153 0
M  V30 3242 N 314.968 0.560988 -5.59294 0
M  V30 3243 H 307.119 -0.809546 -1.96367 0
M  V30 3244 H 309.382 -0.302733 -0.898363 0
M  V30 3245 H 309.088 -0.546539 -3.47427 0
M  V30 3246 H 308.962 1.20075 -3.57578 0
M  V30 3247 H 311.349 1.39134 -2.60242 0
M  V30 3248 H 311.43 -0.374753 -2.5304 0
M  V30 3249 H 311.074 -0.471826 -5.05704 0
M  V30 3250 H 311.004 1.30777 -5.10103 0
M  V30 3251 H 313.495 0.54218 -3.7399 0
M  V30 3252 H 313.808 0.486299 -7.71268 0
M  V30 3253 H 312.153 0.444278 -6.93579 0
M  V30 3254 H 315.344 0.5881 -4.64391 0
M  V30 3255 H 315.517 0.562846 -6.45551 0
M  V30 3256 N 308.923 1.53595 0.353017 0
M  V30 3257 C 310.2 1.61002 1.11075 0
M  V30 3258 C 310.58 0.425356 2.0677 0
M  V30 3259 O 309.928 -0.583267 2.2093 0
M  V30 3260 C 310.138 2.96631 1.83877 0
M  V30 3261 C 311.486 3.51653 2.37961 0
M  V30 3262 O 312.51 2.98743 1.93987 0
M  V30 3263 O 311.369 4.44177 3.18386 0
M  V30 3264 H 308.463 0.650825 0.510251 0
M  V30 3265 H 311.009 1.6594 0.35527 0
M  V30 3266 H 309.781 3.74293 1.14108 0
M  V30 3267 H 309.404 2.95242 2.66304 0
M  V30 3268 N 310.401 -0.613514 1.45168 0
M  V30 3269 C 311.65 -1.36874 1.4815 0
M  V30 3270 C 311.963 -1.952 0.124982 0
M  V30 3271 O 313.169 -2.71481 0.0324176 0
M  V30 3272 C 311.625 -2.47905 2.60904 0
M  V30 3273 C 311.233 -1.96016 4.02842 0
M  V30 3274 C 312.977 -3.24965 2.73126 0
M  V30 3275 C 310.884 -3.04494 5.06988 0
M  V30 3276 H 309.814 -0.514428 0.551253 0
M  V30 3277 H 312.465 -0.658182 1.7129 0
M  V30 3278 H 310.847 -3.21618 2.31037 0
M  V30 3279 H 312.021 -1.29051 4.4236 0
M  V30 3280 H 310.336 -1.31719 3.95018 0
M  V30 3281 H 312.933 -4.05865 3.48106 0
M  V30 3282 H 313.276 -3.75588 1.79553 0
M  V30 3283 H 313.809 -2.5835 3.0249 0
M  V30 3284 H 310.548 -2.58795 6.0225 0
M  V30 3285 H 310.068 -3.70044 4.72046 0
M  V30 3286 H 311.747 -3.68976 5.31475 0
M  V30 3287 N 311.879 -1.3236 -0.855495 0
M  V30 3288 C 313.295 -1.11332 -1.14356 0
M  V30 3289 C 313.495 0.106751 -2.01217 0
M  V30 3290 O 312.551 0.791891 -2.39761 0
M  V30 3291 C 313.864 -2.39237 -1.82171 0
M  V30 3292 C 315.412 -2.44986 -1.9481 0
M  V30 3293 C 315.887 -3.7281 -2.66039 0
M  V30 3294 N 317.378 -3.73787 -2.73565 0
M  V30 3295 C 318.113 -4.69394 -3.29327 0
M  V30 3296 N 317.609 -5.75367 -3.85907 0
M  V30 3297 N 319.402 -4.56893 -3.27423 0
M  V30 3298 H 311.553 -2.10586 -0.277027 0
M  V30 3299 H 313.816 -0.929701 -0.185364 0
M  V30 3300 H 313.522 -3.28431 -1.25802 0
M  V30 3301 H 313.396 -2.50134 -2.82335 0
M  V30 3302 H 315.783 -1.56252 -2.50338 0
M  V30 3303 H 315.864 -2.38043 -0.936448 0
M  V30 3304 H 315.508 -4.61918 -2.11174 0
M  V30 3305 H 315.438 -3.77024 -3.67642 0
M  V30 3306 H 317.929 -2.97189 -2.33424 0
M  V30 3307 H 318.242 -6.44378 -4.26611 0
M  V30 3308 H 316.587 -5.79123 -3.84242 0
M  V30 3309 H 319.778 -3.73269 -2.82467 0
M  V30 3310 H 319.951 -5.31577 -3.7058 0
M  V30 3311 N 313.357 1.07166 -1.15556 0
M  V30 3312 C 314.634 1.76546 -0.842069 0
M  V30 3313 C 315.014 2.00453 0.661939 0
M  V30 3314 O 314.362 1.62452 1.60691 0
M  V30 3315 C 314.572 3.07266 -1.65495 0
M  V30 3316 C 315.92 3.81578 -1.86234 0
M  V30 3317 O 316.944 3.17083 -1.62287 0
M  V30 3318 O 315.803 4.97419 -2.26355 0
M  V30 3319 H 312.897 0.766756 -0.309862 0
M  V30 3320 H 315.443 1.13514 -1.26145 0
M  V30 3321 H 314.215 2.85494 -2.67598 0
M  V30 3322 H 313.838 3.7803 -1.23203 0
M  V30 3323 N 314.835 0.952656 1.25548 0
M  V30 3324 C 316.082 0.606373 1.93208 0
M  V30 3325 C 316.41 -0.85631 1.74636 0
M  V30 3326 O 315.665 -1.62951 1.08376 0
M  V30 3327 C 315.964 0.908818 3.45652 0
M  V30 3328 C 315.63 2.35722 3.84378 0
M  V30 3329 C 314.292 2.75312 3.9466 0
M  V30 3330 C 316.644 3.29793 4.03591 0
M  V30 3331 C 313.972 4.08047 4.21562 0
M  V30 3332 C 316.324 4.62138 4.31985 0
M  V30 3333 C 314.988 5.01528 4.40484 0
M  V30 3334 H 314.258 0.221888 0.706998 0
M  V30 3335 H 316.905 1.20132 1.49133 0
M  V30 3336 H 315.21 0.231456 3.91116 0
M  V30 3337 H 316.907 0.619498 3.96186 0
M  V30 3338 H 313.497 2.04017 3.76928 0
M  V30 3339 H 317.681 3.00397 3.95064 0
M  V30 3340 H 312.937 4.38212 4.26357 0
M  V30 3341 H 317.111 5.35012 4.45797 0
M  V30 3342 H 314.738 6.04406 4.61083 0
M  V30 3343 N 316.313 -1.40141 0.720998 0
M  V30 3344 C 317.729 -1.54632 0.395113 0
M  V30 3345 C 317.929 -1.69115 -1.09555 0
M  V30 3346 O 316.985 -1.68377 -1.88163 0
M  V30 3347 C 318.298 -2.77177 1.1659 0
M  V30 3348 C 319.846 -2.91 1.15274 0
M  V30 3349 C 320.321 -4.16465 1.90579 0
M  V30 3350 N 321.812 -4.23476 1.87675 0
M  V30 3351 C 322.547 -5.19475 2.42762 0
M  V30 3352 N 322.043 -6.21348 3.06428 0
M  V30 3353 N 323.836 -5.11592 2.32874 0
M  V30 3354 H 315.987 -1.28986 1.68749 0
M  V30 3355 H 318.25 -0.62412 0.713567 0
M  V30 3356 H 317.956 -2.72771 2.22011 0
M  V30 3357 H 317.83 -3.69442 0.76108 0
M  V30 3358 H 320.217 -2.94907 0.106702 0
M  V30 3359 H 320.298 -1.99838 1.59682 0
M  V30 3360 H 319.942 -4.1332 2.95176 0
M  V30 3361 H 319.872 -5.06646 1.43587 0
M  V30 3362 H 322.363 -3.50497 1.41281 0
M  V30 3363 H 322.676 -6.91034 3.45965 0
M  V30 3364 H 321.021 -6.21777 3.10514 0
M  V30 3365 H 324.212 -4.30936 1.82789 0
M  V30 3366 H 324.385 -5.86233 2.76106 0
M  V30 3367 N 317.792 -0.46758 -1.50504 0
M  V30 3368 C 319.017 0.0886943 -2.0721 0
M  V30 3369 C 319.442 1.33057 -1.32956 0
M  V30 3370 O 318.8 1.77354 -0.376197 0
M  V30 3371 C 318.848 0.359202 -3.58806 0
M  V30 3372 O 317.952 1.44034 -3.8643 0
M  V30 3373 H 317.293 -0.0114349 -0.663902 0
M  V30 3374 H 319.823 -0.657613 -1.93744 0
M  V30 3375 H 319.833 0.600742 -4.03553 0
M  V30 3376 H 318.508 -0.548311 -4.1227 0
M  V30 3377 H 317.085 1.18638 -3.53524 0
M  V30 3378 N 319.27 1.56325 -0.20005 0
M  V30 3379 C 320.495 2.02548 0.44597 0
M  V30 3380 C 320.92 1.07922 1.5406 0
M  V30 3381 O 320.278 0.0635775 1.81188 0
M  V30 3382 C 320.326 3.47175 0.974761 0
M  V30 3383 O 319.43 3.55671 2.08739 0
M  V30 3384 H 318.771 0.655862 0.103638 0
M  V30 3385 H 321.301 2.02201 -0.312381 0
M  V30 3386 H 321.311 3.87067 1.2901 0
M  V30 3387 H 319.986 4.15538 0.17347 0
M  V30 3388 H 318.563 3.27657 1.78032 0
M  V30 3389 N 320.748 -0.0735177 1.57428 0
M  V30 3390 C 321.711 -1.07192 2.02589 0
M  V30 3391 C 322.711 -1.31695 0.922661 0
M  V30 3392 O 323.901 -1.27445 1.18758 0
M  V30 3393 C 321.033 -2.41599 2.40506 0
M  V30 3394 H 322.226 -0.682727 2.92025 0
M  V30 3395 H 319.779 -0.319193 1.53006 0
M  V30 3396 H 320.514 -2.85354 1.5409 0
M  V30 3397 H 320.299 -2.25156 3.21009 0
M  V30 3398 H 321.789 -3.13367 2.76027 0
M  V30 3399 N 322.226 -1.5378 -0.344866 0
M  V30 3400 C 323.474 -1.70625 -1.08311 0
M  V30 3401 C 323.795 -0.471447 -1.89215 0
M  V30 3402 O 323.065 0.514616 -1.8902 0
M  V30 3403 H 321.645 -0.629058 -0.402859 0
M  V30 3404 H 324.307 -1.9103 -0.386459 0
M  V30 3405 H 323.403 -2.57656 -1.76124 0
M  V30 3406 N 323.704 0.605807 -1.45491 0
M  V30 3407 C 324.634 1.72709 -1.57143 0
M  V30 3408 C 325.615 1.6476 -0.422884 0
M  V30 3409 O 326.8 1.83132 -0.646247 0
M  V30 3410 C 323.93 3.11316 -1.53948 0
M  V30 3411 C 322.884 3.34077 -2.67537 0
M  V30 3412 C 322.21 4.72975 -2.49397 0
M  V30 3413 C 323.51 3.24158 -4.09535 0
M  V30 3414 H 325.204 1.63214 -2.51001 0
M  V30 3415 H 322.75 0.78379 -1.208 0
M  V30 3416 H 324.703 3.89557 -1.60696 0
M  V30 3417 H 323.427 3.21655 -0.566205 0
M  V30 3418 H 322.086 2.58227 -2.6022 0
M  V30 3419 H 321.734 4.8005 -1.50205 0
M  V30 3420 H 321.434 4.8916 -3.25571 0
M  V30 3421 H 322.958 5.53414 -2.58002 0
M  V30 3422 H 324.372 3.92271 -4.18086 0
M  V30 3423 H 322.769 3.51872 -4.86113 0
M  V30 3424 H 323.839 2.2157 -4.31317 0
M  V30 3425 N 325.182 1.32811 0.848464 0
M  V30 3426 C 326.459 1.14334 1.58704 0
M  V30 3427 C 326.839 -0.293948 2.09043 0
M  V30 3428 O 326.187 -1.29153 1.88499 0
M  V30 3429 C 326.397 2.17626 2.72837 0
M  V30 3430 C 327.745 2.51282 3.42261 0
M  V30 3431 O 328.769 2.16219 2.83068 0
M  V30 3432 O 327.628 3.11413 4.49093 0
M  V30 3433 H 324.722 0.441601 0.699226 0
M  V30 3434 H 327.268 1.44362 0.892053 0
M  V30 3435 H 326.04 3.14211 2.3321 0
M  V30 3436 H 325.663 1.88628 3.50008 0
M  V30 3437 N 326.66 -1.06551 1.16123 0
M  V30 3438 C 327.607 -2.13961 0.865414 0
M  V30 3439 C 328.577 -1.65066 -0.185055 0
M  V30 3440 O 329.762 -1.90732 -0.05083 0
M  V30 3441 C 326.902 -3.43113 0.369776 0
M  V30 3442 C 326.015 -4.05756 1.48276 0
M  V30 3443 C 325.15 -5.22773 0.942414 0
M  V30 3444 C 324.189 -5.77395 2.03179 0
M  V30 3445 N 323.326 -6.85731 1.50721 0
M  V30 3446 H 328.166 -2.38605 1.78527 0
M  V30 3447 H 325.703 -1.17072 0.890646 0
M  V30 3448 H 327.661 -4.17151 0.0640643 0
M  V30 3449 H 326.291 -3.18695 -0.513143 0
M  V30 3450 H 325.343 -3.29292 1.9045 0
M  V30 3451 H 326.655 -4.42351 2.30493 0
M  V30 3452 H 325.809 -6.03827 0.589729 0
M  V30 3453 H 324.548 -4.87618 0.0895191 0
M  V30 3454 H 323.553 -4.94981 2.3932 0
M  V30 3455 H 324.778 -6.14603 2.8886 0
M  V30 3456 H 322.724 -6.52499 0.676811 0
M  V30 3457 H 322.641 -7.21254 2.26557 0
M  V30 3458 H 323.909 -7.7047 1.18303 0
M  V30 3459 N 328.138 -0.959301 -1.25041 0
M  V30 3460 C 329.384 -0.617525 -1.9317 0
M  V30 3461 C 329.717 0.843981 -1.74902 0
M  V30 3462 O 328.992 1.60615 -1.09696 0
M  V30 3463 C 329.275 -0.982736 -3.46431 0
M  V30 3464 C 329.128 -2.50032 -3.73904 0
M  V30 3465 C 330.447 -0.511176 -4.37121 0
M  V30 3466 H 327.566 -0.22582 -0.701552 0
M  V30 3467 H 330.208 -1.19679 -1.4757 0
M  V30 3468 H 328.358 -0.489806 -3.854 0
M  V30 3469 H 330.03 -3.06737 -3.44544 0
M  V30 3470 H 328.273 -2.93598 -3.19348 0
M  V30 3471 H 328.944 -2.70635 -4.81103 0
M  V30 3472 H 331.42 -0.934075 -4.0548 0
M  V30 3473 H 330.296 -0.795361 -5.43107 0
M  V30 3474 H 330.557 0.588834 -4.38161 0
M  V30 3475 N 329.616 1.39756 -0.72842 0
M  V30 3476 C 330.865 1.99879 -0.270407 0
M  V30 3477 C 331.178 1.58449 1.14688 0
M  V30 3478 O 332.384 2.11362 1.70407 0
M  V30 3479 C 330.84 3.57292 -0.43252 0
M  V30 3480 C 330.448 4.07688 -1.85727 0
M  V30 3481 C 332.192 4.24485 -0.0359507 0
M  V30 3482 C 330.099 5.5765 -1.96928 0
M  V30 3483 H 329.029 0.747689 -0.0973472 0
M  V30 3484 H 331.68 1.59837 -0.901355 0
M  V30 3485 H 330.062 3.95097 0.267219 0
M  V30 3486 H 331.236 3.81231 -2.58843 0
M  V30 3487 H 329.551 3.53135 -2.20646 0
M  V30 3488 H 332.148 5.34609 -0.0987484 0
M  V30 3489 H 332.491 4.03915 1.00787 0
M  V30 3490 H 333.024 3.9183 -0.686604 0
M  V30 3491 H 329.763 5.8309 -2.99476 0
M  V30 3492 H 329.283 5.8593 -1.28241 0
M  V30 3493 H 330.962 6.22957 -1.74737 0
M  V30 3494 N 331.094 0.475555 1.50254 0
M  V30 3495 C 332.34 -0.0780073 2.0265 0
M  V30 3496 C 332.673 -1.38968 1.35652 0
M  V30 3497 O 331.948 -1.8839 0.483691 0
M  V30 3498 C 332.231 -0.257161 3.59181 0
M  V30 3499 C 332.084 1.07585 4.36744 0
M  V30 3500 C 333.403 -1.00965 4.28362 0
M  V30 3501 H 330.522 -0.0268758 0.73651 0
M  V30 3502 H 333.164 0.622015 1.7953 0
M  V30 3503 H 331.314 -0.853412 3.79011 0
M  V30 3504 H 332.986 1.70902 4.28474 0
M  V30 3505 H 331.229 1.6714 4.00308 0
M  V30 3506 H 331.9 0.904088 5.44546 0
M  V30 3507 H 334.376 -0.504214 4.13034 0
M  V30 3508 H 333.252 -1.10381 5.37687 0
M  V30 3509 H 333.513 -2.04731 3.91839 0
M  V30 3510 N 332.573 -1.56217 0.208337 0
M  V30 3511 C 333.503 -2.22694 -0.702116 0
M  V30 3512 C 334.484 -1.19432 -1.2112 0
M  V30 3513 O 335.669 -1.47978 -1.25762 0
M  V30 3514 C 332.799 -2.8966 -1.9161 0
M  V30 3515 C 331.753 -3.9928 -1.5414 0
M  V30 3516 C 331.079 -4.53476 -2.83308 0
M  V30 3517 C 332.379 -5.17012 -0.741339 0
M  V30 3518 H 334.073 -2.99034 -0.147898 0
M  V30 3519 H 331.619 -1.43831 -0.0696951 0
M  V30 3520 H 333.572 -3.34852 -2.55836 0
M  V30 3521 H 332.296 -2.10746 -2.49507 0
M  V30 3522 H 330.955 -3.54799 -0.922668 0
M  V30 3523 H 330.603 -3.71308 -3.39322 0
M  V30 3524 H 330.303 -5.27451 -2.58976 0
M  V30 3525 H 331.827 -5.01378 -3.485 0
M  V30 3526 H 333.241 -5.58667 -1.28699 0
M  V30 3527 H 331.638 -5.97137 -0.595627 0
M  V30 3528 H 332.708 -4.8423 0.254851 0
M  V30 3529 N 334.051 0.0651679 -1.57465 0
M  V30 3530 C 335.297 0.758912 -1.88712 0
M  V30 3531 C 335.652 1.7485 -0.802819 0
M  V30 3532 O 334.945 1.90632 0.192359 0
M  V30 3533 C 335.139 1.50081 -3.24362 0
M  V30 3534 C 334.968 0.584579 -4.45884 0
M  V30 3535 C 333.738 0.219039 -5.04825 0
M  V30 3536 C 335.936 -0.121559 -5.14156 0
M  V30 3537 N 333.918 -0.702222 -6.09871 0
M  V30 3538 C 335.289 -0.899767 -6.13436 0
M  V30 3539 C 337.344 -0.192331 -4.97528 0
M  V30 3540 C 336.047 -1.74218 -6.97883 0
M  V30 3541 C 338.073 -1.02174 -5.82507 0
M  V30 3542 C 337.435 -1.78798 -6.8133 0
M  V30 3543 H 333.534 0.25293 -0.739967 0
M  V30 3544 H 336.118 0.0201744 -1.9469 0
M  V30 3545 H 334.289 2.21023 -3.1938 0
M  V30 3546 H 336.021 2.14409 -3.43236 0
M  V30 3547 H 332.776 0.57336 -4.70117 0
M  V30 3548 H 333.2 -1.15629 -6.67052 0
M  V30 3549 H 337.842 0.385741 -4.21037 0
M  V30 3550 H 335.56 -2.3312 -7.73745 0
M  V30 3551 H 339.146 -1.07957 -5.71696 0
M  V30 3552 H 338.026 -2.41942 -7.45945 0
M  V30 3553 N 335.529 1.53961 0.336706 0
M  V30 3554 C 336.757 1.75483 1.09605 0
M  V30 3555 C 337.172 0.4972 1.82136 0
M  V30 3556 O 336.529 -0.53149 1.74589 0
M  V30 3557 C 336.58 2.93943 2.10428 0
M  V30 3558 O 336.301 4.14842 1.40846 0
M  V30 3559 C 337.802 3.27571 2.98684 0
M  V30 3560 H 335.022 0.586166 0.326574 0
M  V30 3561 H 337.566 2.00808 0.38683 0
M  V30 3562 H 335.721 2.70929 2.76905 0
M  V30 3563 H 336.135 4.81383 2.08255 0
M  V30 3564 H 337.609 4.13791 3.6535 0
M  V30 3565 H 338.086 2.44168 3.65074 0
M  V30 3566 H 338.692 3.52615 2.37787 0
M  V30 3567 N 337.007 -0.598083 1.45811 0
M  V30 3568 C 337.97 -1.69018 1.54808 0
M  V30 3569 C 338.97 -1.55037 0.426652 0
M  V30 3570 O 340.16 -1.59932 0.690456 0
M  V30 3571 C 337.292 -3.0835 1.45371 0
M  V30 3572 H 338.485 -1.62403 2.52121 0
M  V30 3573 H 336.038 -0.814626 1.33392 0
M  V30 3574 H 336.773 -3.20534 0.492793 0
M  V30 3575 H 336.558 -3.19907 2.26721 0
M  V30 3576 H 338.048 -3.8788 1.54721 0
M  V30 3577 N 338.485 -1.33259 -0.841409 0
M  V30 3578 C 339.433 -1.23279 -1.97244 0
M  V30 3579 C 340.427 -0.134706 -1.68864 0
M  V30 3580 O 341.633 -0.298501 -1.77508 0
M  V30 3581 H 338.008 -0.382497 -0.647457 0
M  V30 3582 H 339.979 -2.18906 -2.02787 0
M  V30 3583 C 338.728 -0.986268 -3.33419 0
M  V30 3584 H 338.051 -1.82347 -3.55794 0
M  V30 3585 H 339.491 -0.956728 -4.13065 0
M  V30 3586 C 337.95 0.310842 -3.35463 0
M  V30 3587 O 338.48 1.31838 -3.79449 0
M  V30 3588 N 336.686 0.337485 -2.88634 0
M  V30 3589 H 336.233 -0.482967 -2.53032 0
M  V30 3590 H 336.191 1.20518 -2.90384 0
M  V30 3591 N 339.963 1.05934 -1.16686 0
M  V30 3592 C 341.191 1.8249 -0.974929 0
M  V30 3593 C 341.606 1.82679 0.476861 0
M  V30 3594 O 340.963 1.2486 1.33103 0
M  V30 3595 C 341.014 3.28943 -1.49929 0
M  V30 3596 O 340.735 3.28886 -2.89423 0
M  V30 3597 C 342.236 4.22215 -1.35089 0
M  V30 3598 H 339.456 0.575295 -0.345365 0
M  V30 3599 H 342 1.33631 -1.548 0
M  V30 3600 H 340.155 3.751 -0.968423 0
M  V30 3601 H 340.569 4.20493 -3.13506 0
M  V30 3602 H 342.043 5.22987 -1.76603 0
M  V30 3603 H 342.52 4.38195 -0.296935 0
M  V30 3604 H 343.126 3.81907 -1.87155 0
M  V30 3605 N 341.441 0.965919 1.2453 0
M  V30 3606 C 342.351 0.502154 2.29163 0
M  V30 3607 C 343.367 -0.436017 1.68448 0
M  V30 3608 O 344.543 -0.309497 1.99008 0
M  V30 3609 C 341.608 -0.201956 3.46111 0
M  V30 3610 C 340.669 0.775821 4.22232 0
M  V30 3611 C 339.902 0.105217 5.33596 0
M  V30 3612 O 340.125 -1.10683 5.59558 0
M  V30 3613 O 339.059 0.796475 5.96607 0
M  V30 3614 H 342.885 1.37194 2.70946 0
M  V30 3615 H 340.47 0.732875 1.30189 0
M  V30 3616 H 342.352 -0.597564 4.17142 0
M  V30 3617 H 341.027 -1.04673 3.06309 0
M  V30 3618 H 339.934 1.22185 3.53584 0
M  V30 3619 H 341.267 1.58896 4.65846 0
M  V30 3620 N 342.919 -1.39368 0.735821 0
M  V30 3621 C 344.335 -1.54204 0.411492 0
M  V30 3622 C 344.535 -1.70268 -1.07755 0
M  V30 3623 O 343.591 -1.70364 -1.86366 0
M  V30 3624 C 344.904 -2.75925 1.19523 0
M  V30 3625 C 346.452 -2.89761 1.18354 0
M  V30 3626 C 346.927 -4.14421 1.94986 0
M  V30 3627 N 348.418 -4.21462 1.92156 0
M  V30 3628 C 349.153 -5.16871 2.48258 0
M  V30 3629 N 348.649 -6.18063 3.13001 0
M  V30 3630 N 350.442 -5.09093 2.38287 0
M  V30 3631 H 342.593 -1.27189 1.70108 0
M  V30 3632 H 344.856 -0.616517 0.720147 0
M  V30 3633 H 344.562 -2.70401 2.24892 0
M  V30 3634 H 344.436 -3.68614 0.800222 0
M  V30 3635 H 346.823 -2.94777 0.137975 0
M  V30 3636 H 346.904 -1.98133 1.61793 0
M  V30 3637 H 346.548 -4.10166 2.99543 0
M  V30 3638 H 346.478 -5.05095 1.48953 0
M  V30 3639 H 348.969 -3.48979 1.44991 0
M  V30 3640 H 349.282 -6.87326 3.53275 0
M  V30 3641 H 347.627 -6.18448 3.17091 0
M  V30 3642 H 350.818 -4.28973 1.8735 0
M  V30 3643 H 350.991 -5.83272 2.82308 0
M  V30 3644 N 344.397 -0.483516 -1.5 0
M  V30 3645 C 345.644 0.0671597 -2.02389 0
M  V30 3646 C 345.972 1.38597 -1.36459 0
M  V30 3647 O 345.227 1.89634 -0.483458 0
M  V30 3648 C 345.526 0.286226 -3.56252 0
M  V30 3649 C 345.192 -0.952416 -4.40726 0
M  V30 3650 C 343.854 -1.29199 -4.63531 0
M  V30 3651 C 346.206 -1.77655 -4.89988 0
M  V30 3652 C 343.534 -2.45553 -5.32842 0
M  V30 3653 C 345.886 -2.93147 -5.60578 0
M  V30 3654 C 344.55 -3.27505 -5.81633 0
M  V30 3655 H 343.82 0.0245755 -0.740592 0
M  V30 3656 H 346.467 -0.640124 -1.80485 0
M  V30 3657 H 344.772 1.07587 -3.76739 0
M  V30 3658 H 346.469 0.726473 -3.94365 0
M  V30 3659 H 343.059 -0.677881 -4.23205 0
M  V30 3660 H 347.243 -1.52737 -4.72213 0
M  V30 3661 H 342.499 -2.72431 -5.47349 0
M  V30 3662 H 346.673 -3.57344 -5.97727 0
M  V30 3663 H 344.3 -4.1777 -6.35116 0
M  V30 3664 N 345.875 1.56104 -0.216619 0
M  V30 3665 C 347.115 2.00074 0.418322 0
M  V30 3666 C 347.479 1.10098 1.57297 0
M  V30 3667 O 348.68 1.43393 2.27359 0
M  V30 3668 C 346.951 3.47231 0.846477 0
M  V30 3669 S 348.51 4.13223 1.47622 0
M  V30 3670 H 345.328 0.698457 0.132962 0
M  V30 3671 H 347.93 1.92784 -0.324748 0
M  V30 3672 H 346.634 4.104 -0.0036319 0
M  V30 3673 H 346.165 3.58384 1.62248 0
M  V30 3674 H 348.18 4.12005 2.76526 0
M  V30 3675 N 347.353 -0.0568162 1.57498 0
M  V30 3676 C 348.263 -1.08346 2.08083 0
M  V30 3677 C 349.279 -1.41439 1.01346 0
M  V30 3678 O 350.455 -1.51316 1.32912 0
M  V30 3679 C 347.52 -2.37352 2.52715 0
M  V30 3680 C 346.581 -2.11093 3.73816 0
M  V30 3681 C 345.814 -3.33949 4.1631 0
M  V30 3682 O 346.037 -4.43622 3.58547 0
M  V30 3683 O 344.971 -3.21279 5.08983 0
M  V30 3684 H 348.797 -0.683667 2.95905 0
M  V30 3685 H 346.382 -0.271965 1.46904 0
M  V30 3686 H 348.264 -3.13246 2.81877 0
M  V30 3687 H 346.939 -2.76681 1.68016 0
M  V30 3688 H 345.846 -1.32856 3.49714 0
M  V30 3689 H 347.179 -1.76637 4.59413 0
M  V30 3690 N 348.832 -1.54138 -0.328536 0
M  V30 3691 C 350.078 -1.7236 -1.06865 0
M  V30 3692 C 350.411 -0.493231 -1.87832 0
M  V30 3693 O 349.686 0.5098 -1.877 0
M  V30 3694 C 349.969 -2.99621 -1.99747 0
M  V30 3695 C 349.822 -4.32899 -1.22143 0
M  V30 3696 C 351.141 -3.22615 -2.99345 0
M  V30 3697 H 348.26 -0.627151 -0.387105 0
M  V30 3698 H 350.902 -1.86827 -0.345767 0
M  V30 3699 H 349.052 -2.87418 -2.61387 0
M  V30 3700 H 350.724 -4.56978 -0.630017 0
M  V30 3701 H 348.967 -4.30628 -0.523628 0
M  V30 3702 H 349.638 -5.18154 -1.90318 0
M  V30 3703 H 352.114 -3.34248 -2.47826 0
M  V30 3704 H 350.99 -4.13027 -3.61524 0
M  V30 3705 H 351.251 -2.3961 -3.71536 0
M  V30 3706 N 350.31 0.590341 -1.46126 0
M  V30 3707 C 351.559 1.34499 -1.50309 0
M  V30 3708 C 351.872 1.94977 -0.156021 0
M  V30 3709 O 353.078 2.71395 -0.0756037 0
M  V30 3710 C 351.534 2.43723 -2.64815 0
M  V30 3711 C 351.142 1.89582 -4.0591 0
M  V30 3712 C 352.886 3.20579 -2.78262 0
M  V30 3713 C 350.793 2.9639 -5.11769 0
M  V30 3714 H 349.723 0.505593 -0.559368 0
M  V30 3715 H 352.374 0.630848 -1.72315 0
M  V30 3716 H 350.756 3.17902 -2.36124 0
M  V30 3717 H 351.93 1.21997 -4.44357 0
M  V30 3718 H 350.245 1.25418 -3.97063 0
M  V30 3719 H 352.842 4.00276 -3.54519 0
M  V30 3720 H 353.185 3.72684 -1.85505 0
M  V30 3721 H 353.718 2.53505 -3.06562 0
M  V30 3722 H 350.457 2.49181 -6.06291 0
M  V30 3723 H 349.977 3.62487 -4.77873 0
M  V30 3724 H 351.656 3.60474 -5.37278 0
M  V30 3725 N 351.788 1.33704 0.83433 0
M  V30 3726 C 353.199 1.22813 1.4062 0
M  V30 3727 C 353.55 -0.151107 1.95617 0
M  V30 3728 O 352.675 -1.05092 1.89168 0
M  V30 3729 C 353.27 2.22355 2.55624 0
M  V30 3730 C 351.829 2.1529 3.08751 0
M  V30 3731 C 350.976 2.09589 1.8157 0
M  V30 3732 H 353.927 1.45236 0.639702 0
M  V30 3733 H 353.948 1.83391 3.33389 0
M  V30 3734 H 353.46 3.22728 2.15566 0
M  V30 3735 H 351.561 1.18235 3.53343 0
M  V30 3736 H 351.674 3.06038 3.68616 0
M  V30 3737 H 350.038 1.55134 2.02004 0
M  V30 3738 H 350.821 3.11777 1.43701 0
M  V30 3739 N 353.266 -1.05314 1.17247 0
M  V30 3740 C 354.514 -1.77941 0.958194 0
M  V30 3741 C 354.835 -1.88089 -0.514556 0
M  V30 3742 O 354.105 -1.39676 -1.37359 0
M  V30 3743 H 352.685 -0.659116 0.351533 0
M  V30 3744 H 355.347 -1.27166 1.47699 0
M  V30 3745 H 354.443 -2.79663 1.38546 0
M  V30 3746 N 354.744 -0.972509 -1.24016 0
M  V30 3747 C 355.674 -0.525548 -2.27509 0
M  V30 3748 C 356.655 0.437262 -1.64384 0
M  V30 3749 O 357.84 0.332343 -1.91335 0
M  V30 3750 C 354.97 0.180448 -3.46831 0
M  V30 3751 C 353.924 -0.698859 -4.22256 0
M  V30 3752 C 353.25 0.138903 -5.3452 0
M  V30 3753 C 354.55 -1.98582 -4.83076 0
M  V30 3754 H 356.244 -1.39058 -2.65148 0
M  V30 3755 H 353.79 -0.67009 -1.27459 0
M  V30 3756 H 355.743 0.504387 -4.18371 0
M  V30 3757 H 354.467 1.07987 -3.08231 0
M  V30 3758 H 353.126 -1.00614 -3.52523 0
M  V30 3759 H 352.774 1.03862 -4.9216 0
M  V30 3760 H 352.474 -0.446259 -5.85903 0
M  V30 3761 H 353.998 0.457404 -6.08884 0
M  V30 3762 H 355.412 -1.72715 -5.46665 0
M  V30 3763 H 353.809 -2.5181 -5.44713 0
M  V30 3764 H 354.879 -2.67769 -4.04262 0
M  V30 3765 N 356.222 1.38976 -0.743202 0
M  V30 3766 C 357.17 2.32394 -0.0978389 0
M  V30 3767 C 358.164 1.53486 0.716824 0
M  V30 3768 O 359.37 1.69092 0.617088 0
M  V30 3769 H 355.745 0.75189 -0.0128402 0
M  V30 3770 H 357.716 2.84441 -0.901981 0
M  V30 3771 C 356.465 3.38629 0.789036 0
M  V30 3772 H 355.788 3.99432 0.171559 0
M  V30 3773 H 357.228 4.06426 1.20807 0
M  V30 3774 C 355.687 2.76347 1.92702 0
M  V30 3775 O 356.217 2.64836 3.02034 0
M  V30 3776 N 354.423 2.34311 1.71891 0
M  V30 3777 H 353.97 2.43873 0.829675 0
M  V30 3778 H 353.928 1.9298 2.48205 0
M  V30 3779 N 357.7 0.491464 1.49741 0
M  V30 3780 C 358.977 -0.118984 1.95238 0
M  V30 3781 C 359.357 -1.55044 1.43264 0
M  V30 3782 O 358.705 -2.19287 0.642287 0
M  V30 3783 C 358.915 -0.0414187 3.48975 0
M  V30 3784 C 360.263 -0.220133 4.24029 0
M  V30 3785 O 361.287 -0.117055 3.56008 0
M  V30 3786 O 360.146 -0.430567 5.44801 0
M  V30 3787 H 357.24 -0.100536 0.820866 0
M  V30 3788 H 359.786 0.553322 1.60426 0
M  V30 3789 H 358.558 0.957214 3.79412 0
M  V30 3790 H 358.181 -0.754292 3.9038 0
M  V30 3791 N 359.178 -1.55987 0.224894 0
M  V30 3792 C 360.406 -2.02784 -0.410665 0
M  V30 3793 C 360.821 -1.10464 -1.53112 0
M  V30 3794 O 360.178 -0.114871 -1.82138 0
M  V30 3795 C 360.229 -3.49087 -0.939165 0
M  V30 3796 O 359.95 -4.37887 0.136614 0
M  V30 3797 C 361.451 -4.11543 -1.64763 0
M  V30 3798 H 358.671 -0.663484 -0.100148 0
M  V30 3799 H 361.215 -2.01614 0.342326 0
M  V30 3800 H 359.37 -3.50861 -1.64242 0
M  V30 3801 H 359.784 -5.23849 -0.261155 0
M  V30 3802 H 361.258 -5.15673 -1.96939 0
M  V30 3803 H 361.735 -3.56736 -2.56195 0
M  V30 3804 H 362.341 -4.13629 -0.989503 0
M  V30 3805 N 360.656 0.0484629 -1.57525 0
M  V30 3806 C 361.619 1.03956 -2.04269 0
M  V30 3807 C 362.619 1.30211 -0.943496 0
M  V30 3808 O 363.809 1.25539 -1.20771 0
M  V30 3809 C 360.941 2.37742 -2.44319 0
M  V30 3810 H 362.134 0.636182 -2.93075 0
M  V30 3811 H 359.687 0.294811 -1.53494 0
M  V30 3812 H 360.422 2.82866 -1.5861 0
M  V30 3813 H 360.207 2.20021 -3.24551 0
M  V30 3814 H 361.697 3.08936 -2.80978 0
M  V30 3815 N 362.134 1.5431 0.320358 0
M  V30 3816 C 363.044 1.86946 1.41734 0
M  V30 3817 C 364.06 0.761689 1.56443 0
M  V30 3818 O 365.236 1.05629 1.71477 0
M  V30 3819 C 362.301 2.09293 2.76401 0
M  V30 3820 C 361.362 3.33082 2.70841 0
M  V30 3821 C 360.595 3.54353 3.99086 0
M  V30 3822 O 360.818 2.79002 4.97508 0
M  V30 3823 O 359.752 4.47838 4.0215 0
M  V30 3824 H 363.578 2.80232 1.17062 0
M  V30 3825 H 361.163 1.40255 0.514673 0
M  V30 3826 H 363.045 2.25303 3.56113 0
M  V30 3827 H 361.72 1.19194 3.00956 0
M  V30 3828 H 360.627 3.22454 1.89668 0
M  V30 3829 H 361.96 4.23249 2.5124 0
M  V30 3830 N 363.613 -0.582584 1.46437 0
M  V30 3831 C 364.561 -1.71272 1.5738 0
M  V30 3832 C 365.555 -1.63524 0.44229 0
M  V30 3833 O 366.761 -1.69016 0.619166 0
M  V30 3834 H 363.136 -0.566273 0.494813 0
M  V30 3835 H 365.107 -1.59174 2.52401 0
M  V30 3836 C 363.856 -3.09658 1.58136 0
M  V30 3837 H 363.179 -3.16291 2.44541 0
M  V30 3838 H 364.619 -3.88494 1.69847 0
M  V30 3839 C 363.078 -3.3547 0.310026 0
M  V30 3840 O 363.608 -3.97199 -0.599683 0
M  V30 3841 N 361.814 -2.89925 0.197901 0
M  V30 3842 H 361.361 -2.39873 0.93909 0
M  V30 3843 H 361.319 -3.07568 -0.65185 0
M  V30 3844 N 365.091 -1.34144 -0.827227 0
M  V30 3845 C 366.021 -1.28005 -1.95287 0
M  V30 3846 C 367.002 -0.158321 -1.69362 0
M  V30 3847 O 368.187 -0.349987 -1.9102 0
M  V30 3848 C 365.317 -1.03036 -3.31664 0
M  V30 3849 C 364.271 -2.11628 -3.72019 0
M  V30 3850 C 363.597 -1.71854 -5.0633 0
M  V30 3851 C 364.897 -3.53417 -3.8457 0
M  V30 3852 H 366.591 -2.22187 -2.00682 0
M  V30 3853 H 364.137 -1.0696 -0.964135 0
M  V30 3854 H 366.09 -0.973863 -4.09993 0
M  V30 3855 H 364.814 -0.0529391 -3.26557 0
M  V30 3856 H 363.473 -2.16339 -2.95961 0
M  V30 3857 H 363.121 -0.727841 -4.97706 0
M  V30 3858 H 362.821 -2.44531 -5.34302 0
M  V30 3859 H 364.345 -1.67692 -5.87122 0
M  V30 3860 H 365.759 -3.51142 -4.5318 0
M  V30 3861 H 364.156 -4.24679 -4.2399 0
M  V30 3862 H 365.226 -3.91072 -2.86689 0
M  V30 3863 N 366.569 1.04691 -1.17803 0
M  V30 3864 C 367.499 2.14494 -0.92275 0
M  V30 3865 C 368.48 1.69546 0.137179 0
M  V30 3866 O 369.665 1.94195 -0.0141108 0
M  V30 3867 C 366.795 3.44491 -0.440803 0
M  V30 3868 C 365.749 4.03031 -1.4405 0
M  V30 3869 C 365.075 5.28432 -0.81631 0
M  V30 3870 C 366.375 4.39932 -2.81527 0
M  V30 3871 H 368.069 2.36107 -1.84103 0
M  V30 3872 H 365.615 1.1347 -0.886599 0
M  V30 3873 H 367.568 4.2066 -0.249602 0
M  V30 3874 H 366.292 3.22546 0.513025 0
M  V30 3875 H 364.951 3.28937 -1.61853 0
M  V30 3876 H 364.599 5.02792 0.144511 0
M  V30 3877 H 364.299 5.68559 -1.48371 0
M  V30 3878 H 365.823 6.07284 -0.635496 0
M  V30 3879 H 367.237 5.07113 -2.67412 0
M  V30 3880 H 365.634 4.9109 -3.44892 0
M  V30 3881 H 366.704 3.50045 -3.35554 0
M  V30 3882 N 368.047 0.979072 1.23499 0
M  V30 3883 C 369.463 0.687475 1.44034 0
M  V30 3884 C 369.663 -0.746801 1.8715 0
M  V30 3885 O 368.719 -1.51939 2.0167 0
M  V30 3886 C 370.032 1.68127 2.49307 0
M  V30 3887 C 371.58 1.69516 2.63122 0
M  V30 3888 C 372.055 2.67723 3.71603 0
M  V30 3889 N 373.546 2.66233 3.79044 0
M  V30 3890 C 374.281 3.38891 4.62537 0
M  V30 3891 N 373.777 4.21103 5.50131 0
M  V30 3892 N 375.57 3.27661 4.56721 0
M  V30 3893 H 367.721 1.90559 0.938135 0
M  V30 3894 H 369.984 0.821051 0.473897 0
M  V30 3895 H 369.69 2.70693 2.2454 0
M  V30 3896 H 369.564 1.46306 3.4767 0
M  V30 3897 H 371.951 0.676561 2.8724 0
M  V30 3898 H 372.032 1.95404 1.65079 0
M  V30 3899 H 371.676 3.69724 3.48233 0
M  V30 3900 H 371.606 2.39111 4.69184 0
M  V30 3901 H 374.097 2.06568 3.16446 0
M  V30 3902 H 374.41 4.73403 6.10827 0
M  V30 3903 H 372.755 4.25195 5.49759 0
M  V30 3904 H 375.946 2.62887 3.87309 0
M  V30 3905 H 376.119 3.84547 5.21562 0
M  V30 3906 N 369.525 -1.3858 0.750561 0
M  V30 3907 C 370.753 -2.04471 0.316098 0
M  V30 3908 C 371.168 -1.56606 -1.05452 0
M  V30 3909 O 370.525 -0.737784 -1.66922 0
M  V30 3910 C 370.576 -3.60025 0.326275 0
M  V30 3911 O 370.297 -4.06133 1.6428 0
M  V30 3912 C 371.798 -4.43131 -0.122429 0
M  V30 3913 H 369.018 -0.65717 0.135528 0
M  V30 3914 H 371.562 -1.77329 1.01857 0
M  V30 3915 H 369.717 -3.86014 -0.327431 0
M  V30 3916 H 370.131 -5.00547 1.56693 0
M  V30 3917 H 371.605 -5.51963 -0.0641473 0
M  V30 3918 H 372.082 -4.23333 -1.16988 0
M  V30 3919 H 372.688 -4.22323 0.50229 0
M  V30 3920 N 371.003 -0.499398 -1.49478 0
M  V30 3921 C 372.252 0.0475259 -2.01644 0
M  V30 3922 C 372.565 1.38195 -1.38425 0
M  V30 3923 O 373.771 2.01547 -1.8191 0
M  V30 3924 C 372.227 0.135164 -3.59646 0
M  V30 3925 C 371.835 -1.19252 -4.31837 0
M  V30 3926 C 373.579 0.632538 -4.19761 0
M  V30 3927 C 371.486 -1.06713 -5.81693 0
M  V30 3928 H 370.416 0.0215349 -0.753692 0
M  V30 3929 H 373.067 -0.638577 -1.7203 0
M  V30 3930 H 371.449 0.885681 -3.85969 0
M  V30 3931 H 372.623 -1.9562 -4.17216 0
M  V30 3932 H 370.938 -1.62321 -3.83459 0
M  V30 3933 H 373.535 0.743833 -5.29501 0
M  V30 3934 H 373.878 1.63098 -3.83021 0
M  V30 3935 H 374.411 -0.0613987 -3.97753 0
M  V30 3936 H 371.15 -2.03979 -6.22955 0
M  V30 3937 H 370.67 -0.344307 -5.98811 0
M  V30 3938 H 372.349 -0.745208 -6.42694 0
M  V30 3939 N 372.481 1.55866 -0.233164 0
M  V30 3940 C 373.391 2.24431 0.683217 0
M  V30 3941 C 374.407 1.2558 1.2044 0
M  V30 3942 O 375.583 1.58422 1.24356 0
M  V30 3943 C 372.648 2.91979 1.86947 0
M  V30 3944 C 371.709 4.06204 1.38912 0
M  V30 3945 C 370.942 4.70522 2.51883 0
M  V30 3946 O 371.165 4.33865 3.70293 0
M  V30 3947 O 370.099 5.59296 2.22423 0
M  V30 3948 H 373.925 3.03426 0.129059 0
M  V30 3949 H 371.51 1.494 -0.0022283 0
M  V30 3950 H 373.392 3.34573 2.56201 0
M  V30 3951 H 372.067 2.15935 2.41151 0
M  V30 3952 H 370.974 3.68155 0.664259 0
M  V30 3953 H 372.307 4.84025 0.893328 0
M  V30 3954 N 373.959 -0.0401083 1.57549 0
M  V30 3955 C 374.889 -1.04384 2.08869 0
M  V30 3956 C 375.87 -1.38407 0.988817 0
M  V30 3957 O 377.055 -1.47483 1.26342 0
M  V30 3958 C 374.185 -2.34808 2.55895 0
M  V30 3959 C 373.139 -2.15057 3.70047 0
M  V30 3960 C 372.465 -3.51145 4.03239 0
M  V30 3961 C 373.765 -1.54576 4.98902 0
M  V30 3962 H 375.459 -0.616666 2.92981 0
M  V30 3963 H 373.005 -0.295184 1.40942 0
M  V30 3964 H 374.958 -3.05346 2.90417 0
M  V30 3965 H 373.682 -2.79565 1.68853 0
M  V30 3966 H 372.341 -1.46954 3.35857 0
M  V30 3967 H 371.989 -3.93529 3.13279 0
M  V30 3968 H 371.689 -3.38758 4.80122 0
M  V30 3969 H 373.213 -4.23062 4.40285 0
M  V30 3970 H 374.627 -2.15017 5.31451 0
M  V30 3971 H 373.024 -1.52796 5.80322 0
M  V30 3972 H 374.094 -0.51039 4.82206 0
M  V30 3973 N 375.437 -1.54477 -0.31217 0
M  V30 3974 C 376.685 -1.72884 -1.04668 0
M  V30 3975 C 377.006 -0.511477 -1.88173 0
M  V30 3976 O 376.276 0.474407 -1.90069 0
M  V30 3977 H 374.856 -0.637461 -0.389425 0
M  V30 3978 H 377.518 -1.91807 -0.345852 0
M  V30 3979 H 376.614 -2.61334 -1.70619 0
M  V30 3980 N 376.915 0.57481 -1.46744 0
M  V30 3981 C 377.845 1.69337 -1.60771 0
M  V30 3982 C 378.826 1.63825 -0.457736 0
M  V30 3983 O 380.011 1.8172 -0.684947 0
M  V30 3984 C 377.141 3.0798 -1.60517 0
M  V30 3985 C 376.095 3.28327 -2.74564 0
M  V30 3986 C 375.421 4.67578 -2.59373 0
M  V30 3987 C 376.721 3.15398 -4.16319 0
M  V30 3988 H 378.415 1.57853 -2.54407 0
M  V30 3989 H 375.961 0.75799 -1.22436 0
M  V30 3990 H 377.914 3.86061 -1.68923 0
M  V30 3991 H 376.638 3.20381 -0.634305 0
M  V30 3992 H 375.297 2.52649 -2.65639 0
M  V30 3993 H 374.945 4.76755 -1.60353 0
M  V30 3994 H 374.645 4.82144 -3.35873 0
M  V30 3995 H 376.169 5.47817 -2.69682 0
M  V30 3996 H 377.583 3.83315 -4.26313 0
M  V30 3997 H 375.98 3.41482 -4.93468 0
M  V30 3998 H 377.05 2.12372 -4.3592 0
M  V30 3999 N 378.394 1.34581 0.820102 0
M  V30 4000 C 379.304 1.28471 1.96297 0
M  V30 4001 C 380.32 0.191902 1.72939 0
M  V30 4002 O 381.496 0.418879 1.96996 0
M  V30 4003 C 378.561 1.04281 3.30645 0
M  V30 4004 C 377.622 2.22745 3.66992 0
M  V30 4005 C 376.855 1.997 4.9493 0
M  V30 4006 O 377.078 0.956656 5.6232 0
M  V30 4007 O 376.012 2.86723 5.2922 0
M  V30 4008 H 379.838 2.24624 2.04396 0
M  V30 4009 H 377.423 1.14816 0.955913 0
M  V30 4010 H 379.305 0.925841 4.11104 0
M  V30 4011 H 377.98 0.111697 3.23507 0
M  V30 4012 H 376.887 2.40003 2.86966 0
M  V30 4013 H 378.22 3.14257 3.78819 0
M  V30 4014 N 379.872 -1.04064 1.18357 0
M  V30 4015 C 381.118 -1.77528 0.980397 0
M  V30 4016 C 381.451 -1.87948 -0.48879 0
M  V30 4017 O 380.726 -1.3876 -1.36293 0
M  V30 4018 C 381.009 -3.20797 1.63588 0
M  V30 4019 C 380.862 -3.1832 3.17793 0
M  V30 4020 C 382.181 -4.18911 1.34914 0
M  V30 4021 H 379.3 -0.644443 0.357578 0
M  V30 4022 H 381.942 -1.2156 1.46024 0
M  V30 4023 H 380.092 -3.68586 1.22788 0
M  V30 4024 H 381.764 -2.78521 3.67728 0
M  V30 4025 H 380.007 -2.56351 3.49952 0
M  V30 4026 H 380.678 -4.19489 3.58794 0
M  V30 4027 H 383.154 -3.7967 1.70265 0
M  V30 4028 H 382.03 -5.17374 1.83346 0
M  V30 4029 H 382.291 -4.41262 0.272027 0
M  V30 4030 N 381.35 -0.985608 -1.22978 0
M  V30 4031 C 382.575 -0.675254 -1.961 0
M  V30 4032 C 383 0.752154 -1.72407 0
M  V30 4033 O 382.358 1.5131 -0.998751 0
M  V30 4034 C 382.406 -0.977899 -3.47087 0
M  V30 4035 O 381.51 -0.072685 -4.12336 0
M  V30 4036 H 380.851 -0.253443 -0.613728 0
M  V30 4037 H 383.381 -1.32061 -1.56272 0
M  V30 4038 H 383.391 -0.916739 -3.97567 0
M  V30 4039 H 382.066 -2.01807 -3.63657 0
M  V30 4040 H 380.643 -0.188703 -3.72422 0
M  V30 4041 N 382.828 1.3818 -0.7579 0
M  V30 4042 C 384.239 1.82726 -0.383134 0
M  V30 4043 C 384.59 1.63214 1.08884 0
M  V30 4044 O 383.715 1.13566 1.84205 0
M  V30 4045 C 384.31 3.31728 -0.688631 0
M  V30 4046 C 382.869 3.74606 -0.367091 0
M  V30 4047 C 382.016 2.60896 -0.939599 0
M  V30 4048 H 384.967 1.26847 -0.953699 0
M  V30 4049 H 384.988 3.80487 0.0316492 0
M  V30 4050 H 384.5 3.45898 -1.76001 0
M  V30 4051 H 382.601 3.66013 0.697532 0
M  V30 4052 H 382.714 4.71215 -0.865658 0
M  V30 4053 H 381.078 2.52075 -0.3647 0
M  V30 4054 H 381.861 2.77864 -2.0161 0
M  V30 4055 N 384.306 0.507319 1.49211 0
M  V30 4056 C 385.531 -0.033725 2.07373 0
M  V30 4057 C 385.956 -1.29485 1.36437 0
M  V30 4058 O 385.314 -1.76294 0.423087 0
M  V30 4059 C 385.362 -0.263945 3.59633 0
M  V30 4060 O 384.466 -1.33737 3.90113 0
M  V30 4061 H 383.807 0.0290331 0.663365 0
M  V30 4062 H 386.337 0.708749 1.91932 0
M  V30 4063 H 386.347 -0.493536 4.05004 0
M  V30 4064 H 385.022 0.657424 4.10671 0
M  V30 4065 H 383.599 -1.09224 3.56545 0
M  V30 4066 N 385.784 -1.5574 0.241426 0
M  V30 4067 C 387.012 -2.03208 -0.389134 0
M  V30 4068 C 387.427 -1.12082 -1.51931 0
M  V30 4069 O 386.784 -0.134183 -1.82006 0
M  V30 4070 C 386.835 -3.50064 -0.902087 0
M  V30 4071 O 386.556 -4.37717 0.18305 0
M  V30 4072 C 388.057 -4.13268 -1.60389 0
M  V30 4073 H 385.277 -0.664509 -0.0931053 0
M  V30 4074 H 387.821 -2.0124 0.36369 0
M  V30 4075 H 385.976 -3.52583 -1.60511 0
M  V30 4076 H 386.39 -5.24097 -0.205579 0
M  V30 4077 H 387.864 -5.17733 -1.91458 0
M  V30 4078 H 388.341 -3.59434 -2.52397 0
M  V30 4079 H 388.947 -4.14655 -0.945576 0
M  V30 4080 N 387.262 0.0317525 -1.57568 0
M  V30 4081 C 388.192 1.03274 -2.0942 0
M  V30 4082 C 389.173 1.3788 -0.996143 0
M  V30 4083 O 390.358 1.46811 -1.27122 0
M  V30 4084 C 387.488 2.33448 -2.57137 0
M  V30 4085 C 386.442 2.13091 -3.71182 0
M  V30 4086 C 385.768 3.49001 -4.05095 0
M  V30 4087 C 387.068 1.51928 -4.99715 0
M  V30 4088 H 388.762 0.60112 -2.93303 0
M  V30 4089 H 386.308 0.287705 -1.41097 0
M  V30 4090 H 388.261 3.03802 -2.92032 0
M  V30 4091 H 386.985 2.78665 -1.70333 0
M  V30 4092 H 385.644 1.45171 -3.36632 0
M  V30 4093 H 385.292 3.91862 -3.15362 0
M  V30 4094 H 384.992 3.36207 -4.81911 0
M  V30 4095 H 386.516 4.20721 -4.42522 0
M  V30 4096 H 387.93 2.12196 -5.32584 0
M  V30 4097 H 386.327 1.49716 -5.81124 0
M  V30 4098 H 387.397 0.484811 -4.8247 0
M  V30 4099 N 388.74 1.54641 0.303973 0
M  V30 4100 C 389.987 1.7378 1.03955 0
M  V30 4101 C 390.315 0.521986 1.87365 0
M  V30 4102 O 389.57 -0.496099 1.89308 0
M  V30 4103 C 389.869 2.97753 1.97681 0
M  V30 4104 C 389.535 4.31671 1.30271 0
M  V30 4105 C 388.197 4.68075 1.11619 0
M  V30 4106 C 390.549 5.147 0.82055 0
M  V30 4107 C 387.877 5.8509 0.434304 0
M  V30 4108 C 390.229 6.32416 0.152395 0
M  V30 4109 C 388.893 6.67484 -0.0461067 0
M  V30 4110 H 388.163 0.635908 0.380398 0
M  V30 4111 H 390.81 1.88896 0.314718 0
M  V30 4112 H 389.115 2.77406 2.76682 0
M  V30 4113 H 390.812 3.09756 2.54661 0
M  V30 4114 H 387.402 4.03041 1.45795 0
M  V30 4115 H 391.586 4.87077 0.952374 0
M  V30 4116 H 386.842 6.10806 0.269495 0
M  V30 4117 H 391.016 6.96023 -0.229126 0
M  V30 4118 H 388.643 7.58011 -0.576494 0
M  V30 4119 N 390.218 -0.567019 1.47046 0
M  V30 4120 C 391.181 -1.65696 1.58359 0
M  V30 4121 C 392.181 -1.54097 0.459441 0
M  V30 4122 O 393.371 -1.58432 0.724225 0
M  V30 4123 C 390.503 -3.05197 1.51879 0
M  V30 4124 H 391.696 -1.57019 2.5551 0
M  V30 4125 H 389.249 -0.786148 1.3509 0
M  V30 4126 H 389.984 -3.19417 0.560673 0
M  V30 4127 H 389.769 -3.15025 2.33455 0
M  V30 4128 H 391.259 -3.84511 1.62913 0
M  V30 4129 N 391.696 -1.35014 -0.812953 0
M  V30 4130 C 392.942 -1.2812 -1.57204 0
M  V30 4131 C 393.275 0.145869 -1.93651 0
M  V30 4132 O 392.55 1.0937 -1.60836 0
M  V30 4133 C 392.833 -2.18162 -2.86492 0
M  V30 4134 C 392.686 -3.69454 -2.56561 0
M  V30 4135 C 394.005 -2.07439 -3.88145 0
M  V30 4136 H 391.124 -0.466746 -0.570366 0
M  V30 4137 H 393.766 -1.65357 -0.935783 0
M  V30 4138 H 391.916 -1.86535 -3.40789 0
M  V30 4139 H 393.588 -4.11493 -2.08497 0
M  V30 4140 H 391.831 -3.9005 -1.89851 0
M  V30 4141 H 392.502 -4.27835 -3.48799 0
M  V30 4142 H 394.978 -2.35228 -3.4323 0
M  V30 4143 H 393.854 -2.7265 -4.76396 0
M  V30 4144 H 394.115 -1.05439 -4.29343 0
M  V30 4145 N 393.175 1.03435 -1.18907 0
M  V30 4146 C 394.138 2.09756 -0.923844 0
M  V30 4147 C 395.138 1.60528 0.093416 0
M  V30 4148 O 396.328 1.73631 -0.140727 0
M  V30 4149 C 393.46 3.38692 -0.387354 0
M  V30 4150 H 394.653 2.34719 -1.86674 0
M  V30 4151 H 392.206 1.19959 -1.00197 0
M  V30 4152 H 392.941 3.19396 0.561845 0
M  V30 4153 H 392.726 3.75742 -1.12074 0
M  V30 4154 H 394.216 4.17016 -0.220694 0
M  V30 4155 N 394.653 0.992116 1.22453 0
M  V30 4156 C 395.878 0.685644 1.95739 0
M  V30 4157 C 396.303 -0.743 1.72804 0
M  V30 4158 O 395.661 -1.50778 1.00676 0
M  V30 4159 C 395.709 0.996293 3.46564 0
M  V30 4160 O 394.813 0.0945512 4.12292 0
M  V30 4161 H 394.154 0.256694 0.612376 0
M  V30 4162 H 396.684 1.32888 1.5557 0
M  V30 4163 H 396.694 0.93781 3.97076 0
M  V30 4164 H 395.369 2.03733 3.62582 0
M  V30 4165 H 393.946 0.208451 3.72317 0
M  V30 4166 N 396.131 -1.37776 0.765217 0
M  V30 4167 C 397.38 -1.99092 0.323307 0
M  V30 4168 C 397.693 -1.61434 -1.10446 0
M  V30 4169 O 398.899 -2.15805 -1.64743 0
M  V30 4170 C 397.355 -3.56019 0.527098 0
M  V30 4171 C 396.963 -4.0262 1.96471 0
M  V30 4172 C 398.707 -4.2424 0.148483 0
M  V30 4173 C 396.614 -5.52233 2.11644 0
M  V30 4174 H 395.544 -0.744846 0.117137 0
M  V30 4175 H 398.195 -1.57391 0.943417 0
M  V30 4176 H 396.577 -3.95667 -0.162372 0
M  V30 4177 H 397.751 -3.74234 2.68859 0
M  V30 4178 H 396.066 -3.47161 2.29931 0
M  V30 4179 H 398.663 -5.34159 0.240456 0
M  V30 4180 H 399.006 -4.06446 -0.900422 0
M  V30 4181 H 399.539 -3.89872 0.79025 0
M  V30 4182 H 396.278 -5.74945 3.1483 0
M  V30 4183 H 395.798 -5.82324 1.4373 0
M  V30 4184 H 397.477 -6.18106 1.91193 0
M  V30 4185 N 397.609 -0.515225 -1.4894 0
M  V30 4186 C 398.539 0.244628 -2.32215 0
M  V30 4187 C 399.52 0.949136 -1.41157 0
M  V30 4188 O 400.705 0.937783 -1.70057 0
M  V30 4189 C 397.835 1.30096 -3.22013 0
M  V30 4190 C 396.789 0.715486 -4.21977 0
M  V30 4191 C 396.115 1.87339 -5.00808 0
M  V30 4192 C 397.415 -0.302982 -5.2142 0
M  V30 4193 H 399.109 -0.450501 -2.95991 0
M  V30 4194 H 396.655 -0.218098 -1.42339 0
M  V30 4195 H 398.608 1.84037 -3.79089 0
M  V30 4196 H 397.332 2.02547 -2.56207 0
M  V30 4197 H 395.991 0.197715 -3.66066 0
M  V30 4198 H 395.639 2.58592 -4.31438 0
M  V30 4199 H 395.339 1.48764 -5.68457 0
M  V30 4200 H 396.863 2.41686 -5.60732 0
M  V30 4201 H 398.277 0.148802 -5.73107 0
M  V30 4202 H 396.674 -0.60532 -5.97039 0
M  V30 4203 H 397.744 -1.21395 -4.69459 0
M  V30 4204 N 399.087 1.5561 -0.249682 0
M  V30 4205 C 399.997 2.25143 0.659375 0
M  V30 4206 C 401.013 1.2685 1.19101 0
M  V30 4207 O 402.189 1.59732 1.22669 0
M  V30 4208 C 399.254 2.93945 1.8384 0
M  V30 4209 C 398.315 4.07655 1.34596 0
M  V30 4210 C 397.548 4.73167 2.46878 0
M  V30 4211 O 397.771 4.37768 3.65671 0
M  V30 4212 O 396.705 5.61623 2.16478 0
M  V30 4213 H 400.531 3.03545 0.0968698 0
M  V30 4214 H 398.116 1.49389 -0.018074 0
M  V30 4215 H 399.998 3.37271 2.52638 0
M  V30 4216 H 398.673 2.18481 2.38847 0
M  V30 4217 H 397.58 3.68839 0.625174 0
M  V30 4218 H 398.913 4.84946 0.841941 0
M  V30 4219 N 400.565 -0.0233959 1.57583 0
M  V30 4220 C 401.813 -0.711654 1.89156 0
M  V30 4221 C 402.134 -1.75591 0.848096 0
M  V30 4222 O 401.404 -1.95547 -0.117566 0
M  V30 4223 H 399.984 -0.265835 0.698098 0
M  V30 4224 H 402.646 0.0119948 1.94896 0
M  V30 4225 H 401.742 -1.19766 2.88206 0
M  V30 4226 N 402.043 -1.548 -0.295768 0
M  V30 4227 C 403.283 -1.76069 -1.03823 0
M  V30 4228 C 403.647 -0.537992 -1.84309 0
M  V30 4229 O 404.848 -0.628514 -2.61349 0
M  V30 4230 C 403.119 -3.01705 -1.91596 0
M  V30 4231 S 404.678 -3.43998 -2.72416 0
M  V30 4232 H 401.496 -0.618852 -0.350062 0
M  V30 4233 H 404.098 -1.93009 -0.31106 0
M  V30 4234 H 402.802 -3.88812 -1.31351 0
M  V30 4235 H 402.333 -2.87366 -2.68671 0
M  V30 4236 H 404.348 -3.0148 -3.94112 0
M  V30 4237 N 403.521 0.559213 -1.47345 0
M  V30 4238 C 404.484 1.64854 -1.59235 0
M  V30 4239 C 405.484 1.53851 -0.467607 0
M  V30 4240 O 406.674 1.58045 -0.732617 0
M  V30 4241 C 403.806 3.04388 -1.53496 0
M  V30 4242 H 404.999 1.55662 -2.56339 0
M  V30 4243 H 402.552 0.778973 -1.35505 0
M  V30 4244 H 403.287 3.19115 -0.577604 0
M  V30 4245 H 403.072 3.13783 -2.35123 0
M  V30 4246 H 404.562 3.83642 -1.6495 0
M  V30 4247 N 404.999 1.35443 0.805782 0
M  V30 4248 C 406.246 1.28761 1.56291 0
M  V30 4249 C 406.574 -0.137747 1.94012 0
M  V30 4250 O 405.829 -1.1032 1.61642 0
M  V30 4251 C 406.128 2.14045 2.86216 0
M  V30 4252 C 405.794 3.62826 2.67709 0
M  V30 4253 C 404.456 4.0338 2.6237 0
M  V30 4254 C 406.808 4.57227 2.50186 0
M  V30 4255 C 404.136 5.36501 2.37451 0
M  V30 4256 C 406.488 5.90547 2.26797 0
M  V30 4257 C 405.152 6.30245 2.1988 0
M  V30 4258 H 404.422 0.471171 0.571908 0
M  V30 4259 H 407.069 1.67347 0.930974 0
M  V30 4260 H 405.374 1.68342 3.53791 0
M  V30 4261 H 407.071 2.0621 3.43917 0
M  V30 4262 H 403.661 3.30644 2.72713 0
M  V30 4263 H 407.845 4.2678 2.53323 0
M  V30 4264 H 403.101 5.66259 2.30567 0
M  V30 4265 H 407.275 6.63274 2.12228 0
M  V30 4266 H 404.902 7.33328 2.00333 0
M  V30 4267 N 406.477 -1.02803 1.19454 0
M  V30 4268 C 407.407 -2.12999 0.956758 0
M  V30 4269 C 408.388 -1.69743 -0.110188 0
M  V30 4270 O 409.573 -1.94148 0.0450038 0
M  V30 4271 C 406.703 -3.43746 0.495553 0
M  V30 4272 C 405.657 -4.00688 1.50443 0
M  V30 4273 C 404.983 -5.27067 0.900275 0
M  V30 4274 C 406.283 -4.35397 2.8849 0
M  V30 4275 H 407.977 -2.33148 1.87836 0
M  V30 4276 H 405.523 -1.12045 0.904539 0
M  V30 4277 H 407.476 -4.2021 0.316493 0
M  V30 4278 H 406.2 -3.23321 -0.461646 0
M  V30 4279 H 404.859 -3.2632 1.67065 0
M  V30 4280 H 404.507 -5.02959 -0.064503 0
M  V30 4281 H 404.207 -5.66127 1.57397 0
M  V30 4282 H 405.731 -6.06196 0.73203 0
M  V30 4283 H 407.145 -5.02795 2.75446 0
M  V30 4284 H 405.542 -4.85541 3.52661 0
M  V30 4285 H 406.612 -3.44662 3.41081 0
M  V30 4286 N 407.956 -0.998596 -1.21925 0
M  V30 4287 C 408.904 -0.546641 -2.26085 0
M  V30 4288 C 409.898 0.405576 -1.64473 0
M  V30 4289 O 411.104 0.277471 -1.77849 0
M  V30 4290 H 407.479 -0.158403 -0.735127 0
M  V30 4291 H 409.45 -1.43645 -2.61551 0
M  V30 4292 C 408.199 0.117388 -3.47502 0
M  V30 4293 H 407.522 -0.606277 -3.95176 0
M  V30 4294 H 408.962 0.396993 -4.22137 0
M  V30 4295 C 407.421 1.35455 -3.0847 0
M  V30 4296 O 407.951 2.44944 -3.18379 0
M  V30 4297 N 406.157 1.23191 -2.63196 0
M  V30 4298 H 405.704 0.341006 -2.55333 0
M  V30 4299 H 405.662 2.06071 -2.37449 0
M  V30 4300 N 409.434 1.37368 -0.772513 0
M  V30 4301 C 410.682 1.99279 -0.336516 0
M  V30 4302 C 411.003 1.6163 1.09091 0
M  V30 4303 O 410.273 0.882109 1.74916 0
M  V30 4304 H 408.853 0.737063 -0.121435 0
M  V30 4305 H 411.515 1.67836 -0.990809 0
M  V30 4306 H 410.611 3.09332 -0.414763 0
M  V30 4307 N 410.912 0.523116 1.48665 0
M  V30 4308 C 412.137 -0.0117284 2.07397 0
M  V30 4309 C 412.562 -1.28031 1.37803 0
M  V30 4310 O 411.92 -1.75836 0.441762 0
M  V30 4311 C 411.968 -0.225786 3.59892 0
M  V30 4312 O 411.072 -1.29592 3.91509 0
M  V30 4313 H 410.413 0.0360673 0.66302 0
M  V30 4314 H 412.943 0.729066 1.9117 0
M  V30 4315 H 412.953 -0.450552 4.05505 0
M  V30 4316 H 411.628 0.700944 4.09951 0
M  V30 4317 H 410.205 -1.05436 3.57684 0
M  V30 4318 N 412.39 -1.55475 0.257931 0
M  V30 4319 C 413.801 -1.8511 -0.243135 0
M  V30 4320 C 414.152 -1.17986 -1.5676 0
M  V30 4321 O 413.277 -0.462102 -2.11409 0
M  V30 4322 C 413.872 -3.35826 -0.447929 0
M  V30 4323 C 412.431 -3.65647 -0.893245 0
M  V30 4324 C 411.578 -2.7729 0.0232965 0
M  V30 4325 H 414.529 -1.51261 0.480199 0
M  V30 4326 H 414.55 -3.58002 -1.28898 0
M  V30 4327 H 414.062 -3.84652 0.516196 0
M  V30 4328 H 412.163 -3.22308 -1.86945 0
M  V30 4329 H 412.276 -4.73312 -0.742469 0
M  V30 4330 H 410.64 -2.49942 -0.490021 0
M  V30 4331 H 411.423 -3.28926 0.982994 0
M  V30 4332 N 413.868 0.0150385 -1.57593 0
M  V30 4333 C 414.8 1.03912 -2.04291 0
M  V30 4334 C 415.813 1.31618 -0.958146 0
M  V30 4335 O 417.002 1.28859 -1.23522 0
M  V30 4336 C 414.102 2.37749 -2.41514 0
M  V30 4337 C 413.275 2.29198 -3.72541 0
M  V30 4338 C 412.334 3.45598 -3.96797 0
M  V30 4339 O 411.36 3.24461 -4.67668 0
M  V30 4340 N 412.562 4.67945 -3.43523 0
M  V30 4341 H 415.327 0.64099 -2.92765 0
M  V30 4342 H 412.888 0.20272 -1.60626 0
M  V30 4343 H 414.88 3.14364 -2.54867 0
M  V30 4344 H 413.45 2.69357 -1.58637 0
M  V30 4345 H 412.67 1.3759 -3.69408 0
M  V30 4346 H 413.958 2.20642 -4.5847 0
M  V30 4347 H 413.356 4.88017 -2.86104 0
M  V30 4348 H 411.913 5.41878 -3.62232 0
M  V30 4349 N 415.346 1.54954 0.287554 0
M  V30 4350 C 416.294 1.87606 1.37502 0
M  V30 4351 C 417.288 0.751001 1.51843 0
M  V30 4352 O 418.494 0.935169 1.53801 0
M  V30 4353 H 414.869 0.595231 0.459569 0
M  V30 4354 H 416.84 2.78477 1.07206 0
M  V30 4355 C 415.589 2.15183 2.73115 0
M  V30 4356 H 414.912 3.01234 2.62866 0
M  V30 4357 H 416.352 2.4196 3.48183 0
M  V30 4358 C 414.811 0.954686 3.2309 0
M  V30 4359 O 415.341 0.181949 4.01288 0
M  V30 4360 N 413.547 0.756368 2.80584 0
M  V30 4361 H 413.094 1.38643 2.17108 0
M  V30 4362 H 413.052 -0.0430391 3.14371 0
M  V30 4363 N 416.824 -0.551391 1.4764 0
M  V30 4364 C 418.052 -1.33357 1.58189 0
M  V30 4365 C 418.467 -1.87342 0.234199 0
M  V30 4366 O 417.824 -1.65301 -0.77343 0
M  V30 4367 C 417.875 -2.49942 2.61173 0
M  V30 4368 O 417.596 -1.98187 3.90709 0
M  V30 4369 C 419.097 -3.42072 2.8196 0
M  V30 4370 H 416.317 -0.40631 0.533998 0
M  V30 4371 H 418.861 -0.667367 1.93304 0
M  V30 4372 H 417.016 -3.12489 2.28975 0
M  V30 4373 H 417.43 -2.74342 4.47031 0
M  V30 4374 H 418.904 -4.20278 3.57869 0
M  V30 4375 H 419.381 -3.95978 1.89995 0
M  V30 4376 H 419.987 -2.85336 3.15378 0
M  V30 4377 N 418.302 -1.35869 -0.798587 0
M  V30 4378 C 419.232 -1.32118 -1.92528 0
M  V30 4379 C 420.213 -0.194209 -1.68988 0
M  V30 4380 O 421.398 -0.390426 -1.90235 0
M  V30 4381 C 418.528 -1.10047 -3.29404 0
M  V30 4382 C 417.482 -2.19471 -3.67446 0
M  V30 4383 C 416.808 -1.82555 -5.02571 0
M  V30 4384 C 418.108 -3.61495 -3.76987 0
M  V30 4385 H 419.802 -2.26394 -1.95924 0
M  V30 4386 H 417.348 -1.08981 -0.94123 0
M  V30 4387 H 419.301 -1.06061 -4.07835 0
M  V30 4388 H 418.025 -0.122195 -3.26371 0
M  V30 4389 H 416.684 -2.22568 -2.91306 0
M  V30 4390 H 416.332 -0.833249 -4.9605 0
M  V30 4391 H 416.032 -2.5581 -5.28995 0
M  V30 4392 H 417.556 -1.80108 -5.83432 0
M  V30 4393 H 418.97 -3.60676 -4.4563 0
M  V30 4394 H 417.367 -4.33577 -4.14887 0
M  V30 4395 H 418.437 -3.97065 -2.78329 0
M  V30 4396 N 419.78 1.02168 -1.19998 0
M  V30 4397 C 421.026 1.75945 -1.00852 0
M  V30 4398 C 421.359 1.88702 0.458828 0
M  V30 4399 O 420.634 1.40911 1.34069 0
M  V30 4400 C 420.917 3.18154 -1.68671 0
M  V30 4401 C 420.77 3.13224 -3.22817 0
M  V30 4402 C 422.089 4.16711 -1.41561 0
M  V30 4403 H 419.208 0.638673 -0.367785 0
M  V30 4404 H 421.85 1.19222 -1.4794 0
M  V30 4405 H 420 3.66586 -1.28636 0
M  V30 4406 H 421.672 2.72635 -3.72112 0
M  V30 4407 H 419.915 2.50751 -3.53986 0
M  V30 4408 H 420.586 4.13728 -3.65422 0
M  V30 4409 H 423.062 3.76913 -1.76284 0
M  V30 4410 H 421.938 5.14391 -1.91553 0
M  V30 4411 H 422.199 4.40774 -0.342193 0
M  V30 4412 N 421.258 1.00505 1.21394 0
M  V30 4413 C 422.669 0.721082 1.72213 0
M  V30 4414 C 423.02 -0.761263 1.80829 0
M  V30 4415 O 422.145 -1.59464 1.46288 0
M  V30 4416 C 422.74 1.30228 3.12772 0
M  V30 4417 C 421.299 1.06743 3.60947 0
M  V30 4418 C 420.446 1.41507 2.38477 0
M  V30 4419 H 423.397 1.17594 1.06571 0
M  V30 4420 H 423.418 0.686955 3.74247 0
M  V30 4421 H 422.93 2.38115 3.06468 0
M  V30 4422 H 421.031 0.00572162 3.726 0
M  V30 4423 H 421.144 1.73936 4.46411 0
M  V30 4424 H 419.508 0.833852 2.40664 0
M  V30 4425 H 420.291 2.50424 2.34824 0
M  V30 4426 N 422.737 -1.36956 0.779787 0
M  V30 4427 C 423.985 -1.99097 0.347079 0
M  V30 4428 C 424.306 -1.62206 -1.08232 0
M  V30 4429 O 423.576 -0.891373 -1.74446 0
M  V30 4430 H 422.156 -0.736409 0.125342 0
M  V30 4431 H 424.818 -1.67308 0.999696 0
M  V30 4432 H 423.914 -3.09107 0.431162 0
M  V30 4433 N 424.215 -0.530993 -1.48385 0
M  V30 4434 C 425.178 0.220497 -2.28137 0
M  V30 4435 C 426.178 0.866851 -1.35434 0
M  V30 4436 O 427.368 0.726746 -1.58316 0
M  V30 4437 C 424.5 1.31921 -3.1434 0
M  V30 4438 H 425.693 -0.479714 -2.96038 0
M  V30 4439 H 423.246 -0.286968 -1.53643 0
M  V30 4440 H 423.981 2.05264 -2.51072 0
M  V30 4441 H 423.766 0.86085 -3.82533 0
M  V30 4442 H 425.256 1.84776 -3.74497 0
M  V30 4443 N 425.693 1.55336 -0.266172 0
M  V30 4444 C 426.623 2.25146 0.618981 0
M  V30 4445 C 427.604 1.23845 1.16604 0
M  V30 4446 O 428.789 1.52544 1.20183 0
M  V30 4447 C 425.919 2.96572 1.80728 0
M  V30 4448 C 424.873 4.04726 1.39215 0
M  V30 4449 C 424.199 4.63678 2.66283 0
M  V30 4450 C 425.499 5.19407 0.548942 0
M  V30 4451 H 427.193 2.99377 0.0368116 0
M  V30 4452 H 424.739 1.43991 0.0162651 0
M  V30 4453 H 426.692 3.44116 2.43232 0
M  V30 4454 H 425.416 2.19861 2.41514 0
M  V30 4455 H 424.075 3.57979 0.790351 0
M  V30 4456 H 423.723 3.83646 3.25308 0
M  V30 4457 H 423.423 5.367 2.39222 0
M  V30 4458 H 424.947 5.13967 3.29651 0
M  V30 4459 H 426.361 5.63059 1.07876 0
M  V30 4460 H 424.758 5.98936 0.373593 0
M  V30 4461 H 425.828 4.8295 -0.434394 0
M  V30 4462 N 427.171 -0.0066808 1.57599 0
M  V30 4463 C 428.081 -1.01671 2.11424 0
M  V30 4464 C 429.097 -1.38143 1.05795 0
M  V30 4465 O 430.273 -1.47011 1.37658 0
M  V30 4466 C 427.338 -2.29192 2.60139 0
M  V30 4467 C 426.399 -1.99094 3.80342 0
M  V30 4468 C 425.632 -3.20535 4.26724 0
M  V30 4469 O 425.855 -4.3199 3.72479 0
M  V30 4470 O 424.789 -3.04924 5.18946 0
M  V30 4471 H 428.615 -0.589181 2.9793 0
M  V30 4472 H 426.2 -0.225091 1.47695 0
M  V30 4473 H 428.082 -3.0412 2.917 0
M  V30 4474 H 426.757 -2.71195 1.76733 0
M  V30 4475 H 425.664 -1.21663 3.53764 0
M  V30 4476 H 426.997 -1.61931 4.648 0
M  V30 4477 N 428.649 -1.55105 -0.279332 0
M  V30 4478 C 429.579 -1.90557 -1.34945 0
M  V30 4479 C 430.56 -0.766738 -1.51839 0
M  V30 4480 O 431.745 -1.02434 -1.64988 0
M  V30 4481 C 428.875 -2.17193 -2.71006 0
M  V30 4482 C 427.829 -3.33021 -2.68851 0
M  V30 4483 C 427.155 -3.45123 -4.08405 0
M  V30 4484 C 428.455 -4.69578 -2.28678 0
M  V30 4485 H 430.149 -2.80188 -1.05522 0
M  V30 4486 H 427.695 -1.34811 -0.506173 0
M  V30 4487 H 429.648 -2.40581 -3.45975 0
M  V30 4488 H 428.372 -1.24355 -3.01999 0
M  V30 4489 H 427.031 -3.0959 -1.9634 0
M  V30 4490 H 426.679 -2.49762 -4.3661 0
M  V30 4491 H 426.379 -4.22995 -4.07859 0
M  V30 4492 H 427.903 -3.70796 -4.85121 0
M  V30 4493 H 429.317 -4.92553 -2.93368 0
M  V30 4494 H 427.714 -5.5032 -2.39306 0
M  V30 4495 H 428.784 -4.68828 -1.23807 0
M  V30 4496 N 430.127 0.543554 -1.4793 0
M  V30 4497 C 431.09 1.63156 -1.60975 0
M  V30 4498 C 432.09 1.53346 -0.483899 0
M  V30 4499 O 433.28 1.5726 -0.749339 0
M  V30 4500 C 430.412 3.02743 -1.56716 0
M  V30 4501 H 431.605 1.52934 -2.57975 0
M  V30 4502 H 429.158 0.764557 -1.36324 0
M  V30 4503 H 429.893 3.18484 -0.611418 0
M  V30 4504 H 429.678 3.11272 -2.38438 0
M  V30 4505 H 431.168 3.81871 -1.6901 0
M  V30 4506 N 431.605 1.3629 0.791371 0
M  V30 4507 C 432.851 1.31613 1.5508 0
M  V30 4508 C 433.206 -0.104372 1.92117 0
M  V30 4509 O 432.499 -1.05845 1.5971 0
M  V30 4510 C 432.693 2.17068 2.8393 0
M  V30 4511 C 432.522 3.67285 2.59484 0
M  V30 4512 C 431.292 4.36469 2.54604 0
M  V30 4513 C 433.49 4.60595 2.28816 0
M  V30 4514 N 431.472 5.7234 2.22036 0
M  V30 4515 C 432.843 5.847 2.06218 0
M  V30 4516 C 434.898 4.4918 2.14806 0
M  V30 4517 C 433.601 6.98671 1.71028 0
M  V30 4518 C 435.627 5.63017 1.81014 0
M  V30 4519 C 434.989 6.86159 1.59263 0
M  V30 4520 H 431.088 0.536878 0.568582 0
M  V30 4521 H 433.672 1.71323 0.925007 0
M  V30 4522 H 431.843 1.79605 3.44378 0
M  V30 4523 H 433.575 2.03795 3.49642 0
M  V30 4524 H 430.33 3.89249 2.69782 0
M  V30 4525 H 430.754 6.44093 2.08503 0
M  V30 4526 H 435.396 3.54564 2.30313 0
M  V30 4527 H 433.114 7.9324 1.54259 0
M  V30 4528 H 436.7 5.56146 1.70861 0
M  V30 4529 H 435.58 7.72753 1.335 0
M  V30 4530 N 433.083 -1.0153 1.20538 0
M  V30 4531 C 434.015 -2.10224 0.913155 0
M  V30 4532 C 435.028 -1.62495 -0.0995998 0
M  V30 4533 O 436.217 -1.78014 0.131582 0
M  V30 4534 C 433.317 -3.37111 0.347717 0
M  V30 4535 C 432.49 -4.13971 1.41233 0
M  V30 4536 C 431.549 -5.19158 0.857976 0
M  V30 4537 O 430.575 -5.48 1.53897 0
M  V30 4538 N 431.777 -5.7955 -0.331966 0
M  V30 4539 H 434.542 -2.35879 1.84881 0
M  V30 4540 H 432.103 -1.17931 1.10923 0
M  V30 4541 H 434.095 -4.04683 -0.0373026 0
M  V30 4542 H 432.665 -3.08696 -0.492527 0
M  V30 4543 H 431.885 -3.41351 1.97163 0
M  V30 4544 H 433.173 -4.62103 2.12928 0
M  V30 4545 H 432.571 -5.58455 -0.902478 0
M  V30 4546 H 431.128 -6.48464 -0.65861 0
M  V30 4547 N 434.561 -1.01147 -1.20859 0
M  V30 4548 C 435.511 -0.548247 -2.2131 0
M  V30 4549 C 436.495 0.393646 -1.5601 0
M  V30 4550 O 437.687 0.217445 -1.75659 0
M  V30 4551 C 434.816 0.117252 -3.431 0
M  V30 4552 C 433.902 -0.846043 -4.15575 0
M  V30 4553 N 434.293 -2.00149 -4.64515 0
M  V30 4554 C 432.591 -0.665783 -4.41003 0
M  V30 4555 C 433.292 -2.60764 -5.19978 0
M  V30 4556 N 432.268 -1.88868 -5.09735 0
M  V30 4557 H 436.07 -1.42921 -2.56809 0
M  V30 4558 H 433.584 -0.876142 -1.36739 0
M  V30 4559 H 435.581 0.46662 -4.1428 0
M  V30 4560 H 434.241 0.994115 -3.09107 0
M  V30 4561 H 435.252 -2.38162 -4.5989 0
M  V30 4562 H 431.929 0.163456 -4.1718 0
M  V30 4563 H 433.319 -3.58519 -5.68255 0
M  V30 4564 N 436.039 1.36541 -0.78704 0
M  V30 4565 C 437.455 1.52571 -0.46844 0
M  V30 4566 C 437.655 1.7415 1.01361 0
M  V30 4567 O 436.711 1.77163 1.79915 0
M  V30 4568 C 438.024 2.71299 -1.29682 0
M  V30 4569 C 439.572 2.85169 -1.29027 0
M  V30 4570 C 440.047 4.06898 -2.10233 0
M  V30 4571 N 441.538 4.1404 -2.07666 0
M  V30 4572 C 442.273 5.07301 -2.67271 0
M  V30 4573 N 441.769 6.06021 -3.35724 0
M  V30 4574 N 443.562 4.99898 -2.57018 0
M  V30 4575 H 435.713 1.20788 -1.74711 0
M  V30 4576 H 437.976 0.589364 -0.742532 0
M  V30 4577 H 437.682 2.61868 -2.34773 0
M  V30 4578 H 437.556 3.6539 -0.936479 0
M  V30 4579 H 439.943 2.94062 -0.247284 0
M  V30 4580 H 440.024 1.91992 -1.69035 0
M  V30 4581 H 439.668 3.98766 -3.1456 0
M  V30 4582 H 439.598 4.99218 -1.67597 0
M  V30 4583 H 442.089 3.43357 -1.57843 0
M  V30 4584 H 442.402 6.73741 -3.78541 0
M  V30 4585 H 440.747 6.06253 -3.39826 0
M  V30 4586 H 443.938 4.21724 -2.03142 0
M  V30 4587 H 444.111 5.72392 -3.03761 0
M  V30 4588 N 437.518 0.538854 1.48102 0
M  V30 4589 C 438.764 0.00801365 2.02798 0
M  V30 4590 C 439.097 -1.3309 1.41424 0
M  V30 4591 O 438.372 -1.86169 0.563158 0
M  V30 4592 C 438.655 -0.104589 3.59948 0
M  V30 4593 C 438.508 1.26012 4.31788 0
M  V30 4594 C 439.827 -0.827055 4.32259 0
M  V30 4595 H 436.946 0.00438624 0.736987 0
M  V30 4596 H 439.588 0.6976 1.7673 0
M  V30 4597 H 437.738 -0.691893 3.82289 0
M  V30 4598 H 439.41 1.88922 4.2084 0
M  V30 4599 H 437.653 1.83968 3.92859 0
M  V30 4600 H 438.324 1.13424 5.40221 0
M  V30 4601 H 440.8 -0.328578 4.14801 0
M  V30 4602 H 439.676 -0.87476 5.41885 0
M  V30 4603 H 439.937 -1.87927 4.0017 0
M  V30 4604 N 438.996 -1.55193 0.274407 0
M  V30 4605 C 440.243 -1.99581 -0.342579 0
M  V30 4606 C 440.571 -1.1628 -1.55914 0
M  V30 4607 O 439.826 -0.22029 -1.94456 0
M  V30 4608 C 440.125 -3.49019 -0.769458 0
M  V30 4609 C 439.791 -4.49598 0.342389 0
M  V30 4610 C 438.453 -4.76821 0.647686 0
M  V30 4611 C 440.805 -5.0964 1.09163 0
M  V30 4612 C 438.133 -5.61354 1.70581 0
M  V30 4613 C 440.485 -5.95323 2.13948 0
M  V30 4614 C 439.149 -6.20867 2.45113 0
M  V30 4615 H 438.419 -0.730319 -0.125358 0
M  V30 4616 H 441.066 -1.87529 0.387971 0
M  V30 4617 H 439.371 -3.58544 -1.57967 0
M  V30 4618 H 441.068 -3.8077 -1.25757 0
M  V30 4619 H 437.658 -4.28496 0.094318 0
M  V30 4620 H 441.842 -4.88632 0.869024 0
M  V30 4621 H 437.098 -5.79392 1.9523 0
M  V30 4622 H 441.272 -6.40881 2.72478 0
M  V30 4623 H 438.899 -6.86162 3.27239 0
M  V30 4624 N 440.474 -0.00167713 -1.576 0
M  V30 4625 C 441.72 0.683832 -1.90923 0
M  V30 4626 C 442.053 1.7333 -0.875799 0
M  V30 4627 O 441.328 1.94215 0.10525 0
M  V30 4628 C 441.611 1.32543 -3.3482 0
M  V30 4629 C 441.464 0.287387 -4.48881 0
M  V30 4630 C 442.783 2.25114 -3.78169 0
M  V30 4631 H 439.902 0.247125 -0.694333 0
M  V30 4632 H 442.544 -0.0533149 -1.89925 0
M  V30 4633 H 440.694 1.95372 -3.35801 0
M  V30 4634 H 442.366 -0.341346 -4.60035 0
M  V30 4635 H 440.609 -0.39017 -4.32042 0
M  V30 4636 H 441.28 0.775393 -5.46527 0
M  V30 4637 H 443.756 1.723 -3.7875 0
M  V30 4638 H 442.632 2.66971 -4.79602 0
M  V30 4639 H 442.893 3.13092 -3.12131 0
M  V30 4640 N 441.952 1.55251 0.271103 0
M  V30 4641 C 443.2 1.75599 1.00047 0
M  V30 4642 C 443.521 0.561188 1.8675 0
M  V30 4643 O 442.791 -0.423846 1.9126 0
M  V30 4644 H 441.371 0.647562 0.372387 0
M  V30 4645 H 444.033 1.92656 0.294876 0
M  V30 4646 H 443.129 2.65766 1.6363 0
M  V30 4647 N 443.43 -0.535701 1.48216 0
M  V30 4648 C 444.678 -1.28928 1.55634 0
M  V30 4649 C 444.999 -1.93645 0.229514 0
M  V30 4650 O 444.269 -1.81038 -0.74846 0
M  V30 4651 H 442.849 -0.47884 0.573342 0
M  V30 4652 H 445.511 -0.623853 1.84646 0
M  V30 4653 H 444.607 -2.07157 2.33436 0
M  V30 4654 N 444.908 -1.36708 -0.784132 0
M  V30 4655 C 446.185 -1.21776 -1.53069 0
M  V30 4656 C 446.565 0.193876 -2.10208 0
M  V30 4657 O 445.913 1.20012 -1.94446 0
M  V30 4658 C 446.123 -2.30395 -2.62143 0
M  V30 4659 C 447.471 -2.67325 -3.29882 0
M  V30 4660 O 448.495 -2.29478 -2.7243 0
M  V30 4661 O 447.354 -3.32485 -4.33724 0
M  V30 4662 H 444.448 -0.474459 -0.677361 0
M  V30 4663 H 446.994 -1.48454 -0.82216 0
M  V30 4664 H 445.766 -3.2498 -2.17953 0
M  V30 4665 H 445.389 -2.05112 -3.40609 0
M  V30 4666 N 446.386 1.0089 -1.21074 0
M  V30 4667 C 447.663 1.71834 -0.934469 0
M  V30 4668 C 448.043 2.0368 0.554753 0
M  V30 4669 O 447.391 1.70742 1.51854 0
M  V30 4670 C 447.601 2.98061 -1.8155 0
M  V30 4671 C 448.949 3.7117 -2.06199 0
M  V30 4672 O 449.973 3.08034 -1.78867 0
M  V30 4673 O 448.832 4.84721 -2.52404 0
M  V30 4674 H 445.926 0.749253 -0.35007 0
M  V30 4675 H 448.472 1.06668 -1.31985 0
M  V30 4676 H 447.244 2.70908 -2.82355 0
M  V30 4677 H 446.867 3.70968 -1.43068 0
M  V30 4678 N 447.864 1.01787 1.20321 0
M  V30 4679 C 449.111 0.707936 1.89722 0
M  V30 4680 C 449.439 -0.762535 1.78929 0
M  V30 4681 O 448.694 -1.56977 1.16861 0
M  V30 4682 C 448.993 1.09076 3.40349 0
M  V30 4683 C 448.659 2.55765 3.71342 0
M  V30 4684 C 447.321 2.95845 3.79511 0
M  V30 4685 C 449.673 3.50723 3.85542 0
M  V30 4686 C 447.001 4.2982 3.99339 0
M  V30 4687 C 449.353 4.84387 4.06881 0
M  V30 4688 C 448.017 5.24172 4.1328 0
M  V30 4689 H 447.287 0.259052 0.694243 0
M  V30 4690 H 449.934 1.27868 1.42555 0
M  V30 4691 H 448.239 0.438453 3.89339 0
M  V30 4692 H 449.936 0.828636 3.92345 0
M  V30 4693 H 446.526 2.2371 3.65584 0
M  V30 4694 H 450.71 3.20916 3.78585 0
M  V30 4695 H 445.966 4.60196 4.02529 0
M  V30 4696 H 450.14 5.57891 4.1681 0
M  V30 4697 H 447.767 6.27997 4.28396 0
M  V30 4698 N 449.342 -1.36122 0.79427 0
M  V30 4699 C 450.289 -2.29982 0.194101 0
M  V30 4700 C 451.259 -1.52214 -0.664833 0
M  V30 4701 O 452.444 -1.80702 -0.612498 0
M  V30 4702 C 449.584 -3.38706 -0.661244 0
M  V30 4703 C 448.697 -4.31456 0.216766 0
M  V30 4704 C 447.832 -5.27265 -0.645411 0
M  V30 4705 C 446.871 -6.11653 0.233756 0
M  V30 4706 N 446.008 -6.99636 -0.587682 0
M  V30 4707 H 450.848 -2.80722 0.999965 0
M  V30 4708 H 448.385 -1.38172 0.504677 0
M  V30 4709 H 450.343 -4.00394 -1.17219 0
M  V30 4710 H 448.973 -2.89274 -1.43249 0
M  V30 4711 H 448.025 -3.7088 0.845724 0
M  V30 4712 H 449.337 -4.90724 0.893973 0
M  V30 4713 H 448.491 -5.94266 -1.22198 0
M  V30 4714 H 447.23 -4.68463 -1.35623 0
M  V30 4715 H 446.235 -5.4361 0.82269 0
M  V30 4716 H 447.46 -6.72531 0.942247 0
M  V30 4717 H 445.406 -6.43337 -1.2827 0
M  V30 4718 H 445.323 -7.55993 0.0317402 0
M  V30 4719 H 446.591 -7.71001 -1.14792 0
M  V30 4720 N 450.82 -0.546701 -1.47814 0
M  V30 4721 C 452.045 -0.021268 -2.07389 0
M  V30 4722 C 452.47 1.25822 -1.39822 0
M  V30 4723 O 451.828 1.75111 -0.46968 0
M  V30 4724 C 451.876 0.168502 -3.60206 0
M  V30 4725 O 450.98 1.23347 -3.93522 0
M  V30 4726 H 450.321 -0.0466108 -0.662362 0
M  V30 4727 H 452.851 -0.759387 -1.89985 0
M  V30 4728 H 452.861 0.385982 -4.0617 0
M  V30 4729 H 451.536 -0.766075 -4.08784 0
M  V30 4730 H 450.113 0.997319 -3.59316 0
M  V30 4731 N 452.299 1.55045 -0.282633 0
M  V30 4732 C 453.547 1.99365 0.331334 0
M  V30 4733 C 453.868 1.1725 1.55812 0
M  V30 4734 O 453.138 0.263871 1.94115 0
M  V30 4735 H 451.718 0.736397 0.125414 0
M  V30 4736 H 454.38 1.90964 -0.389711 0
M  V30 4737 H 453.476 3.0596 0.616036 0
M  V30 4738 N 453.777 0.010035 1.57597 0
M  V30 4739 C 454.709 -1.00649 2.05918 0
M  V30 4740 C 455.722 -1.30077 0.978964 0
M  V30 4741 O 456.911 -1.26878 1.25556 0
M  V30 4742 C 454.011 -2.33876 2.45265 0
M  V30 4743 C 453.184 -2.23242 3.7614 0
M  V30 4744 C 452.243 -3.39242 4.02245 0
M  V30 4745 O 451.269 -3.1698 4.72771 0
M  V30 4746 N 452.471 -4.6242 3.50924 0
M  V30 4747 H 455.236 -0.594333 2.93748 0
M  V30 4748 H 452.797 -0.17714 1.60928 0
M  V30 4749 H 454.789 -3.1027 2.59836 0
M  V30 4750 H 453.359 -2.66799 1.62902 0
M  V30 4751 H 452.579 -1.31696 3.71551 0
M  V30 4752 H 453.867 -2.13321 4.61922 0
M  V30 4753 H 453.265 -4.83404 2.93832 0
M  V30 4754 H 451.822 -5.36046 3.70807 0
M  V30 4755 N 455.255 -1.55392 -0.262866 0
M  V30 4756 C 456.483 -1.80513 -1.01108 0
M  V30 4757 C 456.898 -0.583533 -1.79556 0
M  V30 4758 O 456.255 0.447585 -1.76926 0
M  V30 4759 C 456.306 -3.03648 -1.96164 0
M  V30 4760 O 456.027 -4.2109 -1.20893 0
M  V30 4761 C 457.528 -3.41448 -2.82715 0
M  V30 4762 H 454.748 -0.601079 -0.298236 0
M  V30 4763 H 457.292 -2.02425 -0.290582 0
M  V30 4764 H 455.447 -2.83832 -2.63663 0
M  V30 4765 H 455.861 -4.90771 -1.85051 0
M  V30 4766 H 457.335 -4.30751 -3.45192 0
M  V30 4767 H 457.812 -2.61308 -3.53008 0
M  V30 4768 H 458.418 -3.63559 -2.20693 0
M  V30 4769 N 456.733 0.527833 -1.48498 0
M  V30 4770 C 457.68 1.6322 -1.6318 0
M  V30 4771 C 458.65 1.59199 -0.473815 0
M  V30 4772 O 459.835 1.77591 -0.697563 0
M  V30 4773 C 456.975 3.01474 -1.67951 0
M  V30 4774 C 456.088 3.15713 -2.94871 0
M  V30 4775 C 455.223 4.44539 -2.90789 0
M  V30 4776 C 454.262 4.52315 -4.12404 0
M  V30 4777 N 453.399 5.72533 -4.06387 0
M  V30 4778 H 458.239 1.50011 -2.57489 0
M  V30 4779 H 455.776 0.730298 -1.27691 0
M  V30 4780 H 457.734 3.81572 -1.68698 0
M  V30 4781 H 456.364 3.1345 -0.771306 0
M  V30 4782 H 455.416 2.28854 -3.03859 0
M  V30 4783 H 456.728 3.1732 -3.8485 0
M  V30 4784 H 455.882 5.3293 -2.89949 0
M  V30 4785 H 454.621 4.45457 -1.98542 0
M  V30 4786 H 453.626 3.62331 -4.13517 0
M  V30 4787 H 454.851 4.53134 -5.05812 0
M  V30 4788 H 452.797 5.74344 -3.16962 0
M  V30 4789 H 452.714 5.75643 -4.90073 0
M  V30 4790 H 453.982 6.63204 -4.0961 0
M  V30 4791 N 458.211 1.37122 0.776871 0
M  V30 4792 C 459.457 1.32243 1.53752 0
M  V30 4793 C 459.79 -0.0944745 1.9397 0
M  V30 4794 O 459.065 -1.05068 1.6368 0
M  V30 4795 C 459.348 2.25681 2.80607 0
M  V30 4796 C 459.201 3.76127 2.46676 0
M  V30 4797 C 460.52 2.17657 3.82509 0
M  V30 4798 H 457.639 0.481704 0.557791 0
M  V30 4799 H 460.281 1.6778 0.891612 0
M  V30 4800 H 458.431 1.95505 3.35723 0
M  V30 4801 H 460.103 4.16877 1.97513 0
M  V30 4802 H 458.346 3.94946 1.79443 0
M  V30 4803 H 459.017 4.36933 3.37333 0
M  V30 4804 H 461.493 2.44245 3.36873 0
M  V30 4805 H 460.369 2.85185 4.69 0
M  V30 4806 H 460.63 1.16785 4.26396 0
M  V30 4807 N 459.689 -1.00246 1.21608 0
M  V30 4808 C 460.636 -2.09073 0.977613 0
M  V30 4809 C 461.606 -1.65815 -0.097297 0
M  V30 4810 O 462.791 -1.90734 0.0503445 0
M  V30 4811 C 459.931 -3.40671 0.551133 0
M  V30 4812 C 459.044 -3.97326 1.69576 0
M  V30 4813 C 458.179 -5.17043 1.2182 0
M  V30 4814 C 457.218 -5.65813 2.335 0
M  V30 4815 N 456.355 -6.76778 1.86859 0
M  V30 4816 H 461.195 -2.28806 1.90924 0
M  V30 4817 H 458.732 -1.12186 0.951452 0
M  V30 4818 H 460.69 -4.16225 0.285097 0
M  V30 4819 H 459.32 -3.20967 -0.343489 0
M  V30 4820 H 458.372 -3.18734 2.07637 0
M  V30 4821 H 459.684 -4.29511 2.53617 0
M  V30 4822 H 458.838 -5.99852 0.908975 0
M  V30 4823 H 457.577 -4.86458 0.347869 0
M  V30 4824 H 456.582 -4.81599 2.65222 0
M  V30 4825 H 457.807 -5.98427 3.21033 0
M  V30 4826 H 455.753 -6.47994 1.02174 0
M  V30 4827 H 455.67 -7.08231 2.64471 0
M  V30 4828 H 456.938 -7.63116 1.58978 0
M  V30 4829 N 461.167 -1.02423 -1.1978 0
M  V30 4830 C 462.392 -0.7373 -1.93852 0
M  V30 4831 C 462.817 0.696923 -1.74713 0
M  V30 4832 O 462.175 1.48056 -1.04638 0
M  V30 4833 C 462.223 -1.08783 -3.438 0
M  V30 4834 O 461.327 -0.20383 -4.11896 0
M  V30 4835 H 460.668 -0.27284 -0.605355 0
M  V30 4836 H 463.198 -1.36966 -1.51992 0
M  V30 4837 H 463.208 -1.04276 -3.9445 0
M  V30 4838 H 461.883 -2.13274 -3.57053 0
M  V30 4839 H 460.46 -0.307091 -3.71633 0
M  V30 4840 N 462.645 1.35699 -0.801477 0
M  V30 4841 C 463.891 1.99208 -0.380022 0
M  V30 4842 C 464.224 1.63445 1.04878 0
M  V30 4843 O 463.499 0.895223 1.72673 0
M  V30 4844 C 463.782 3.55755 -0.557708 0
M  V30 4845 C 463.635 4.01332 -2.03107 0
M  V30 4846 C 464.954 4.40096 0.0197968 0
M  V30 4847 H 462.073 0.723667 -0.139552 0
M  V30 4848 H 464.715 1.60928 -1.01006 0
M  V30 4849 H 462.865 3.88494 -0.0213741 0
M  V30 4850 H 464.537 3.79026 -2.62939 0
M  V30 4851 H 462.78 3.52429 -2.52936 0
M  V30 4852 H 463.451 5.10234 -2.1063 0
M  V30 4853 H 465.927 4.13786 -0.438179 0
M  V30 4854 H 464.803 5.48735 -0.134477 0
M  V30 4855 H 465.064 4.2786 1.11303 0
M  V30 4856 N 464.123 0.554532 1.47522 0
M  V30 4857 C 465.053 -0.182974 2.32782 0
M  V30 4858 C 466.034 -0.911377 1.43624 0
M  V30 4859 O 467.219 -0.892366 1.72483 0
M  V30 4860 C 464.349 -1.21513 3.25349 0
M  V30 4861 C 463.303 -0.603355 4.23726 0
M  V30 4862 C 462.629 -1.73995 5.05598 0
M  V30 4863 C 463.929 0.441121 5.20434 0
M  V30 4864 H 465.623 0.52882 2.94693 0
M  V30 4865 H 463.169 0.255759 1.41711 0
M  V30 4866 H 465.122 -1.73922 3.83835 0
M  V30 4867 H 463.846 -1.95683 2.61487 0
M  V30 4868 H 462.505 -0.10059 3.66462 0
M  V30 4869 H 462.153 -2.47063 4.38143 0
M  V30 4870 H 461.853 -1.3364 5.72201 0
M  V30 4871 H 463.377 -2.26735 5.66942 0
M  V30 4872 H 464.791 0.00319931 5.733 0
M  V30 4873 H 463.188 0.763402 5.95224 0
M  V30 4874 H 464.258 1.33799 4.66075 0
M  V30 4875 N 465.601 -1.54893 0.290851 0
M  V30 4876 C 466.847 -2.0023 -0.321867 0
M  V30 4877 C 467.18 -1.179 -1.54316 0
M  V30 4878 O 466.455 -0.25293 -1.92848 0
M  V30 4879 C 466.738 -3.53456 -0.688515 0
M  V30 4880 C 466.591 -4.46532 0.541209 0
M  V30 4881 C 467.91 -4.13057 -1.51895 0
M  V30 4882 H 465.029 -0.727891 -0.115515 0
M  V30 4883 H 467.671 -1.85722 0.400931 0
M  V30 4884 H 465.821 -3.6595 -1.30433 0
M  V30 4885 H 467.493 -4.4596 1.17973 0
M  V30 4886 H 465.736 -4.17545 1.17636 0
M  V30 4887 H 466.407 -5.51475 0.240675 0
M  V30 4888 H 468.883 -4.03937 -0.99872 0
M  V30 4889 H 467.759 -5.20448 -1.74429 0
M  V30 4890 H 468.02 -3.64284 -2.50498 0
M  V30 4891 N 467.08 -0.0183926 -1.57589 0
M  V30 4892 C 468.357 0.700621 -1.82622 0
M  V30 4893 C 468.737 1.90951 -0.90005 0
M  V30 4894 O 468.085 2.28452 0.0469145 0
M  V30 4895 C 468.295 1.08899 -3.31575 0
M  V30 4896 C 469.643 1.48514 -3.9778 0
M  V30 4897 O 470.667 1.18227 -3.36007 0
M  V30 4898 O 469.526 2.04903 -5.06633 0
M  V30 4899 H 466.62 0.342743 -0.752633 0
M  V30 4900 H 469.166 -0.0452548 -1.6964 0
M  V30 4901 H 467.938 0.228113 -3.90635 0
M  V30 4902 H 467.561 1.89338 -3.49624 0
M  V30 4903 N 468.558 1.5553 0.254621 0
M  V30 4904 C 469.805 1.77 0.983736 0
M  V30 4905 C 470.133 0.58133 1.85609 0
M  V30 4906 O 469.388 -0.435621 1.9079 0
M  V30 4907 C 469.687 3.03891 1.88109 0
M  V30 4908 C 469.353 4.35597 1.16472 0
M  V30 4909 C 468.015 4.7139 0.966714 0
M  V30 4910 C 470.367 5.1705 0.656387 0
M  V30 4911 C 467.695 5.86176 0.247942 0
M  V30 4912 C 470.047 6.32581 -0.0488807 0
M  V30 4913 C 468.711 6.67 -0.258438 0
M  V30 4914 H 467.981 0.647688 0.359974 0
M  V30 4915 H 470.628 1.89802 0.254463 0
M  V30 4916 H 468.933 2.86068 2.67717 0
M  V30 4917 H 470.63 3.17701 2.44677 0
M  V30 4918 H 467.22 4.07475 1.32899 0
M  V30 4919 H 471.404 4.8986 0.796933 0
M  V30 4920 H 466.66 6.11354 0.075035 0
M  V30 4921 H 470.834 6.94942 -0.450444 0
M  V30 4922 H 468.461 7.55793 -0.817358 0
M  V30 4923 N 470.036 -0.519951 1.48776 0
M  V30 4924 C 470.966 -1.63253 1.66945 0
M  V30 4925 C 471.947 -1.62014 0.518224 0
M  V30 4926 O 473.132 -1.79053 0.751919 0
M  V30 4927 C 470.262 -3.0181 1.71836 0
M  V30 4928 C 469.216 -3.17911 2.8656 0
M  V30 4929 C 468.542 -4.5763 2.76548 0
M  V30 4930 C 469.842 -2.99729 4.27738 0
M  V30 4931 H 471.536 -1.48302 2.6009 0
M  V30 4932 H 469.082 -0.712026 1.25165 0
M  V30 4933 H 471.035 -3.79525 1.83135 0
M  V30 4934 H 469.759 -3.17806 0.752775 0
M  V30 4935 H 468.418 -2.42616 2.74833 0
M  V30 4936 H 468.066 -4.70476 1.77937 0
M  V30 4937 H 467.766 -4.69346 3.53536 0
M  V30 4938 H 469.29 -5.37431 2.89828 0
M  V30 4939 H 470.704 -3.67228 4.40246 0
M  V30 4940 H 469.101 -3.22932 5.05801 0
M  V30 4941 H 470.171 -1.96047 4.43502 0
M  V30 4942 N 471.514 -1.37532 -0.769588 0
M  V30 4943 C 472.763 -1.32183 -1.5235 0
M  V30 4944 C 473.076 0.0906555 -1.9539 0
M  V30 4945 O 474.282 0.266628 -2.70188 0
M  V30 4946 C 472.738 -2.32029 -2.75119 0
M  V30 4947 C 472.346 -3.78816 -2.3917 0
M  V30 4948 C 474.09 -2.35694 -3.53056 0
M  V30 4949 C 471.997 -4.70388 -3.58453 0
M  V30 4950 H 470.927 -0.491275 -0.571984 0
M  V30 4951 H 473.578 -1.63004 -0.842739 0
M  V30 4952 H 471.96 -1.94229 -3.45096 0
M  V30 4953 H 473.134 -4.25466 -1.76962 0
M  V30 4954 H 471.449 -3.78117 -1.74402 0
M  V30 4955 H 474.046 -3.01312 -4.41718 0
M  V30 4956 H 474.389 -1.37117 -3.93071 0
M  V30 4957 H 474.922 -2.72212 -2.90078 0
M  V30 4958 H 471.661 -5.70102 -3.23518 0
M  V30 4959 H 471.181 -4.28442 -4.19758 0
M  V30 4960 H 472.86 -4.87628 -4.25239 0
M  V30 4961 N 472.992 0.995999 -1.22138 0
M  V30 4962 C 474.24 1.73167 -1.042 0
M  V30 4963 C 474.561 1.90329 0.42423 0
M  V30 4964 O 473.831 1.4607 1.30539 0
M  V30 4965 H 472.411 0.641593 -0.38258 0
M  V30 4966 H 475.073 1.19974 -1.53598 0
M  V30 4967 H 474.169 2.72734 -1.51731 0
M  V30 4968 N 474.47 1.03057 1.19235 0
M  V30 4969 C 475.695 0.74757 1.93458 0
M  V30 4970 C 476.12 -0.687648 1.7508 0
M  V30 4971 O 475.478 -1.47499 1.05422 0
M  V30 4972 C 475.526 1.10604 3.43219 0
M  V30 4973 O 474.63 0.225671 4.11782 0
M  V30 4974 H 473.971 0.276047 0.603899 0
M  V30 4975 H 476.501 1.3777 1.51263 0
M  V30 4976 H 476.511 1.06366 3.93891 0
M  V30 4977 H 475.186 2.15165 3.55917 0
M  V30 4978 H 473.763 0.326795 3.71465 0
M  V30 4979 N 475.948 -1.35272 0.808662 0
M  V30 4980 C 477.196 -1.98316 0.389233 0
M  V30 4981 C 477.517 -1.64465 -1.04767 0
M  V30 4982 O 476.787 -0.928175 -1.72516 0
M  V30 4983 H 475.367 -0.733585 0.140935 0
M  V30 4984 H 478.029 -1.6515 1.03496 0
M  V30 4985 H 477.125 -3.08123 0.496631 0
M  V30 4986 N 477.426 -0.562348 -1.47226 0
M  V30 4987 C 478.356 0.170627 -2.32876 0
M  V30 4988 C 479.337 0.903748 -1.44106 0
M  V30 4989 O 480.522 0.883206 -1.72954 0
M  V30 4990 C 477.652 1.19786 -3.25989 0
M  V30 4991 C 476.606 0.580875 -4.2404 0
M  V30 4992 C 475.932 1.71311 -5.06514 0
M  V30 4993 C 477.232 -0.468714 -5.20193 0
M  V30 4994 H 478.926 -0.544441 -2.94408 0
M  V30 4995 H 476.472 -0.263271 -1.41573 0
M  V30 4996 H 478.425 1.71884 -3.84752 0
M  V30 4997 H 477.149 1.94294 -2.62521 0
M  V30 4998 H 475.808 0.0811538 -3.6651 0
M  V30 4999 H 475.456 2.44736 -4.39447 0
M  V30 5000 H 475.156 1.30604 -5.72902 0
M  V30 5001 H 476.68 2.23725 -5.68137 0
M  V30 5002 H 478.094 -0.0336028 -5.7329 0
M  V30 5003 H 476.491 -0.794957 -5.94811 0
M  V30 5004 H 477.561 -1.36269 -4.65359 0
M  V30 5005 N 478.904 1.54736 -0.299062 0
M  V30 5006 C 479.851 2.23448 0.577899 0
M  V30 5007 C 480.821 1.21637 1.13109 0
M  V30 5008 O 482.006 1.50252 1.17597 0
M  V30 5009 C 479.146 2.9774 1.74484 0
M  V30 5010 C 478.259 4.1432 1.22323 0
M  V30 5011 C 477.394 4.76199 2.35388 0
M  V30 5012 C 476.433 5.84927 1.80351 0
M  V30 5013 N 475.57 6.4077 2.86982 0
M  V30 5014 H 480.41 2.97996 -0.0146545 0
M  V30 5015 H 477.947 1.47088 -0.0190013 0
M  V30 5016 H 479.905 3.39045 2.43114 0
M  V30 5017 H 478.535 2.25572 2.30905 0
M  V30 5018 H 477.587 3.7797 0.429249 0
M  V30 5019 H 478.899 4.92659 0.780309 0
M  V30 5020 H 478.053 5.20346 3.11969 0
M  V30 5021 H 476.792 3.97188 2.83006 0
M  V30 5022 H 475.797 5.40207 1.02259 0
M  V30 5023 H 477.022 6.65821 1.3364 0
M  V30 5024 H 474.968 5.64643 3.33938 0
M  V30 5025 H 474.885 7.1445 2.4718 0
M  V30 5026 H 476.153 6.89574 3.63466 0
M  V30 5027 N 480.382 0.0267497 1.57577 0
M  V30 5028 C 481.61 -0.662661 1.96001 0
M  V30 5029 C 482.025 -1.65799 0.903117 0
M  V30 5030 O 481.382 -1.82135 -0.115317 0
M  V30 5031 C 481.433 -1.37112 3.34488 0
M  V30 5032 O 481.154 -0.415683 4.36123 0
M  V30 5033 C 482.655 -2.15257 3.8753 0
M  V30 5034 H 479.875 -0.18287 0.6456 0
M  V30 5035 H 482.419 0.0858116 2.0432 0
M  V30 5036 H 480.574 -2.07101 3.27395 0
M  V30 5037 H 480.988 -0.918496 5.16395 0
M  V30 5038 H 482.462 -2.60285 4.86781 0
M  V30 5039 H 482.939 -2.99063 3.21649 0
M  V30 5040 H 483.545 -1.50231 3.97883 0
M  V30 5041 N 481.861 -1.55662 -0.24637 0
M  V30 5042 C 482.794 -1.85332 -1.33143 0
M  V30 5043 C 483.772 -0.708464 -1.46354 0
M  V30 5044 O 484.956 -0.954274 -1.6256 0
M  V30 5045 C 482.083 -2.0385 -2.70487 0
M  V30 5046 C 481.129 -3.26488 -2.74423 0
M  V30 5047 S 481.962 -4.83124 -2.30979 0
M  V30 5048 C 483.118 -5.04647 -3.70246 0
M  V30 5049 H 483.351 -2.77077 -1.07777 0
M  V30 5050 H 480.884 -1.47776 -0.44738 0
M  V30 5051 H 482.842 -2.15202 -3.49569 0
M  V30 5052 H 481.503 -1.12947 -2.9309 0
M  V30 5053 H 480.696 -3.36413 -3.7529 0
M  V30 5054 H 480.298 -3.13864 -2.03385 0
M  V30 5055 H 482.59 -4.92023 -4.65746 0
M  V30 5056 H 483.533 -6.06625 -3.65255 0
M  V30 5057 H 483.941 -4.32491 -3.62784 0
M  V30 5058 N 483.339 0.512053 -1.4905 0
M  V30 5059 C 484.564 1.2959 -1.6193 0
M  V30 5060 C 484.989 1.85906 -0.286454 0
M  V30 5061 O 484.347 1.65312 0.744426 0
M  V30 5062 C 484.395 2.40987 -2.68249 0
M  V30 5063 O 483.499 3.44531 -2.26654 0
M  V30 5064 H 482.84 0.383053 -0.542371 0
M  V30 5065 H 485.37 0.614231 -1.95162 0
M  V30 5066 H 485.38 2.86913 -2.90078 0
M  V30 5067 H 484.055 1.99361 -3.65004 0
M  V30 5068 H 482.632 3.046 -2.15112 0
M  V30 5069 N 484.817 1.37938 0.762283 0
M  V30 5070 C 486.066 1.32989 1.51647 0
M  V30 5071 C 486.379 -0.0802922 1.95435 0
M  V30 5072 O 487.585 -0.252295 2.70325 0
M  V30 5073 C 486.041 2.33485 2.73885 0
M  V30 5074 C 485.649 3.80079 2.37157 0
M  V30 5075 C 487.393 2.37563 3.51801 0
M  V30 5076 C 485.3 4.72283 3.55954 0
M  V30 5077 H 484.23 0.494301 0.56937 0
M  V30 5078 H 486.881 1.63448 0.834083 0
M  V30 5079 H 485.263 1.96056 3.44061 0
M  V30 5080 H 486.437 4.26398 1.74704 0
M  V30 5081 H 484.752 3.79037 1.72395 0
M  V30 5082 H 487.349 3.0365 4.40114 0
M  V30 5083 H 487.692 1.39199 3.92338 0
M  V30 5084 H 488.225 2.73747 2.8863 0
M  V30 5085 H 484.964 5.7181 3.2049 0
M  V30 5086 H 484.484 4.30663 4.1748 0
M  V30 5087 H 486.163 4.89876 4.22647 0
M  V30 5088 N 486.295 -0.989507 1.22664 0
M  V30 5089 C 487.541 -1.7321 1.05481 0
M  V30 5090 C 487.874 -1.89852 -0.408635 0
M  V30 5091 O 487.149 -1.44416 -1.30285 0
M  V30 5092 C 487.432 -3.1357 1.77047 0
M  V30 5093 C 487.285 -3.04555 3.31008 0
M  V30 5094 C 488.604 -4.12812 1.5256 0
M  V30 5095 H 485.723 -0.628697 0.384589 0
M  V30 5096 H 488.365 -1.15258 1.51049 0
M  V30 5097 H 486.515 -3.63046 1.3831 0
M  V30 5098 H 488.187 -2.62674 3.7921 0
M  V30 5099 H 486.43 -2.41278 3.6051 0
M  V30 5100 H 487.101 -4.03894 3.76263 0
M  V30 5101 H 489.577 -3.72106 1.86215 0
M  V30 5102 H 488.453 -5.09132 2.05124 0
M  V30 5103 H 488.714 -4.39711 0.458936 0
M  V30 5104 N 487.773 -1.03688 -1.18687 0
M  V30 5105 C 488.998 -0.757819 -1.93059 0
M  V30 5106 C 489.423 0.678353 -1.75442 0
M  V30 5107 O 488.781 1.46938 -1.06203 0
M  V30 5108 C 488.829 -1.12423 -3.42627 0
M  V30 5109 O 487.933 -0.247505 -4.11657 0
M  V30 5110 H 487.274 -0.279245 -0.602427 0
M  V30 5111 H 489.804 -1.3857 -1.5053 0
M  V30 5112 H 489.814 -1.08454 -3.93322 0
M  V30 5113 H 488.489 -2.17049 -3.54771 0
M  V30 5114 H 487.066 -0.34649 -3.71287 0
M  V30 5115 N 489.251 1.34841 -0.815825 0
M  V30 5116 C 490.481 2.02436 -0.412695 0
M  V30 5117 C 490.889 1.61604 0.983906 0
M  V30 5118 O 490.232 0.813729 1.64694 0
M  V30 5119 C 490.294 3.56953 -0.427182 0
M  V30 5120 C 489.958 4.21083 -1.77589 0
M  V30 5121 C 490.955 4.42107 -2.73564 0
M  V30 5122 C 488.64 4.58006 -2.06243 0
M  V30 5123 C 490.634 4.99169 -3.9637 0
M  V30 5124 C 488.321 5.1478 -3.2931 0
M  V30 5125 C 489.319 5.35304 -4.24191 0
M  V30 5126 O 489.007 5.90878 -5.45086 0
M  V30 5127 H 488.739 0.655631 -0.164695 0
M  V30 5128 H 491.293 1.73246 -1.1034 0
M  V30 5129 H 489.523 3.85372 0.320175 0
M  V30 5130 H 491.212 4.05875 -0.0450875 0
M  V30 5131 H 491.978 4.13953 -2.52721 0
M  V30 5132 H 487.857 4.41339 -1.33196 0
M  V30 5133 H 491.401 5.15105 -4.70439 0
M  V30 5134 H 487.298 5.42362 -3.5002 0
M  V30 5135 H 488.066 6.0932 -5.46508 0
M  V30 5136 N 490.729 0.570148 1.46925 0
M  V30 5137 C 491.677 -0.183181 2.31878 0
M  V30 5138 C 492.671 -0.896721 1.43719 0
M  V30 5139 O 493.877 -0.816536 1.60414 0
M  V30 5140 H 490.252 -0.077944 0.74795 0
M  V30 5141 H 492.223 0.552312 2.93244 0
M  V30 5142 C 490.972 -1.19172 3.2664 0
M  V30 5143 H 490.295 -0.652088 3.94446 0
M  V30 5144 H 491.735 -1.68946 3.88887 0
M  V30 5145 C 490.194 -2.24627 2.51086 0
M  V30 5146 O 490.724 -3.31773 2.26472 0
M  V30 5147 N 488.93 -1.98898 2.11867 0
M  V30 5148 H 488.477 -1.11777 2.32086 0
M  V30 5149 H 488.435 -2.6967 1.61634 0
M  V30 5150 N 492.207 -1.54576 0.307264 0
M  V30 5151 C 493.157 -2.20467 -0.581249 0
M  V30 5152 C 494.141 -1.17972 -1.09414 0
M  V30 5153 O 495.333 -1.43667 -1.03387 0
M  V30 5154 C 492.462 -2.95369 -1.74963 0
M  V30 5155 C 491.548 -4.05186 -1.25241 0
M  V30 5156 N 491.939 -5.03577 -0.47364 0
M  V30 5157 C 490.237 -4.18841 -1.53259 0
M  V30 5158 C 490.938 -5.81328 -0.208083 0
M  V30 5159 N 489.914 -5.37834 -0.789651 0
M  V30 5160 H 493.716 -2.93892 0.0212221 0
M  V30 5161 H 491.23 -1.62011 0.112325 0
M  V30 5162 H 493.227 -3.41046 -2.39777 0
M  V30 5163 H 491.887 -2.23461 -2.35574 0
M  V30 5164 H 492.898 -5.17766 -0.117963 0
M  V30 5165 H 489.575 -3.58141 -2.14573 0
M  V30 5166 H 490.965 -6.706 0.417793 0
M  V30 5167 N 493.685 -0.035106 -1.57561 0
M  V30 5168 C 494.615 0.942993 -2.13612 0
M  V30 5169 C 495.596 1.33531 -1.05373 0
M  V30 5170 O 496.781 1.41287 -1.33235 0
M  V30 5171 C 493.911 2.22332 -2.66807 0
M  V30 5172 C 492.865 1.97156 -3.79886 0
M  V30 5173 C 492.191 3.31506 -4.19533 0
M  V30 5174 C 493.491 1.30596 -5.05709 0
M  V30 5175 H 495.185 0.476179 -2.95589 0
M  V30 5176 H 492.731 0.227602 -1.4219 0
M  V30 5177 H 494.684 2.91142 -3.04654 0
M  V30 5178 H 493.408 2.7119 -1.81999 0
M  V30 5179 H 492.067 1.30763 -3.42486 0
M  V30 5180 H 491.715 3.78134 -3.31698 0
M  V30 5181 H 491.415 3.15465 -4.95738 0
M  V30 5182 H 492.939 4.01574 -4.59968 0
M  V30 5183 H 494.353 1.89416 -5.41105 0
M  V30 5184 H 492.75 1.24934 -5.86951 0
M  V30 5185 H 493.82 0.279742 -4.84092 0
M  V30 5186 N 495.163 1.55791 0.238111 0
M  V30 5187 C 496.411 1.77681 0.963001 0
M  V30 5188 C 496.732 0.600674 1.85518 0
M  V30 5189 O 496.002 -0.383182 1.92116 0
M  V30 5190 H 494.582 0.655315 0.358568 0
M  V30 5191 H 497.244 1.93239 0.253945 0
M  V30 5192 H 496.34 2.69177 1.57956 0
M  V30 5193 N 496.642 -0.504142 1.49319 0
M  V30 5194 C 497.59 -1.62689 1.66238 0
M  V30 5195 C 498.584 -1.6095 0.528349 0
M  V30 5196 O 499.79 -1.65496 0.707887 0
M  V30 5197 H 496.165 -0.539247 0.524134 0
M  V30 5198 H 498.136 -1.45571 2.60484 0
M  V30 5199 C 496.885 -3.00841 1.74328 0
M  V30 5200 H 496.208 -3.02884 2.60963 0
M  V30 5201 H 497.648 -3.78945 1.90202 0
M  V30 5202 C 496.107 -3.33355 0.487416 0
M  V30 5203 O 496.637 -3.99819 -0.388294 0
M  V30 5204 N 494.843 -2.88469 0.351306 0
M  V30 5205 H 494.39 -2.34557 1.06492 0
M  V30 5206 H 494.348 -3.10591 -0.487899 0
M  V30 5207 N 498.12 -1.38341 -0.754957 0
M  V30 5208 C 499.068 -1.35573 -1.89005 0
M  V30 5209 C 500.062 -0.241824 -1.67665 0
M  V30 5210 O 501.268 -0.410785 -1.7525 0
M  V30 5211 H 497.643 -0.422898 -0.621821 0
M  V30 5212 H 499.614 -2.31359 -1.88455 0
M  V30 5213 C 498.363 -1.19631 -3.26471 0
M  V30 5214 H 497.686 -2.04605 -3.43477 0
M  V30 5215 H 499.126 -1.21748 -4.06144 0
M  V30 5216 C 497.585 0.0968705 -3.36761 0
M  V30 5217 O 498.115 1.07439 -3.87066 0
M  V30 5218 N 496.321 0.153242 -2.90196 0
M  V30 5219 H 495.868 -0.642908 -2.49448 0
M  V30 5220 H 495.826 1.01807 -2.9746 0
M  V30 5221 N 499.598 0.982988 -1.23187 0
M  V30 5222 C 500.875 1.69814 -0.970707 0
M  V30 5223 C 501.255 2.04811 0.511424 0
M  V30 5224 O 500.603 1.73924 1.48198 0
M  V30 5225 C 500.813 2.94143 -1.87831 0
M  V30 5226 C 502.161 3.66712 -2.14026 0
M  V30 5227 O 503.185 3.04171 -1.8536 0
M  V30 5228 O 502.044 4.79258 -2.62629 0
M  V30 5229 H 499.138 0.741659 -0.365884 0
M  V30 5230 H 501.684 1.03844 -1.34218 0
M  V30 5231 H 500.456 2.64858 -2.88038 0
M  V30 5232 H 500.079 3.6785 -1.50905 0
M  V30 5233 N 501.076 1.04316 1.18135 0
M  V30 5234 C 502.324 0.746542 1.87806 0
M  V30 5235 C 502.645 -0.728082 1.80898 0
M  V30 5236 O 501.915 -1.52554 1.22899 0
M  V30 5237 H 500.495 0.273157 0.695265 0
M  V30 5238 H 503.157 1.32044 1.43354 0
M  V30 5239 H 502.253 1.05362 2.93778 0
M  V30 5240 N 502.554 -1.34406 0.822964 0
M  V30 5241 C 503.464 -2.33298 0.246838 0
M  V30 5242 C 504.48 -1.62625 -0.618797 0
M  V30 5243 O 505.656 -1.94391 -0.526685 0
M  V30 5244 C 502.721 -3.41785 -0.581731 0
M  V30 5245 C 501.782 -4.28206 0.306309 0
M  V30 5246 C 501.015 -5.31512 -0.48281 0
M  V30 5247 O 501.238 -5.43973 -1.71607 0
M  V30 5248 O 500.172 -6.01749 0.134884 0
M  V30 5249 H 503.998 -2.84401 1.06534 0
M  V30 5250 H 501.583 -1.37466 0.585108 0
M  V30 5251 H 503.465 -4.08028 -1.05313 0
M  V30 5252 H 502.14 -2.92925 -1.37756 0
M  V30 5253 H 501.047 -3.64885 0.825199 0
M  V30 5254 H 502.38 -4.80507 1.06649 0
M  V30 5255 N 504.032 -0.577932 -1.46621 0
M  V30 5256 C 504.98 0.170882 -2.31971 0
M  V30 5257 C 505.974 0.889086 -1.44193 0
M  V30 5258 O 507.18 0.808017 -1.60845 0
M  V30 5259 H 503.555 0.0739763 -0.748353 0
M  V30 5260 H 505.526 -0.567856 -2.92947 0
M  V30 5261 C 504.275 1.17438 -3.27267 0
M  V30 5262 H 503.598 0.63116 -3.94787 0
M  V30 5263 H 505.038 1.66882 -3.89778 0
M  V30 5264 C 503.497 2.23292 -2.52274 0
M  V30 5265 O 504.027 3.30567 -2.28229 0
M  V30 5266 N 502.233 1.97772 -2.12919 0
M  V30 5267 H 501.78 1.10545 -2.32675 0
M  V30 5268 H 501.738 2.68809 -1.63062 0
M  V30 5269 N 505.51 1.54411 -0.315457 0
M  V30 5270 C 506.44 2.27002 0.547039 0
M  V30 5271 C 507.421 1.27492 1.12605 0
M  V30 5272 O 508.606 1.5629 1.15269 0
M  V30 5273 C 505.736 3.02171 1.71201 0
M  V30 5274 C 504.69 4.0895 1.26268 0
M  V30 5275 C 504.016 4.71915 2.51396 0
M  V30 5276 C 505.316 5.20891 0.383419 0
M  V30 5277 H 507.01 2.99343 -0.0584517 0
M  V30 5278 H 504.556 1.4397 -0.0295527 0
M  V30 5279 H 506.509 3.51681 2.32161 0
M  V30 5280 H 505.233 2.27433 2.34397 0
M  V30 5281 H 503.892 3.60312 0.676062 0
M  V30 5282 H 503.54 3.93801 3.12937 0
M  V30 5283 H 503.24 5.44039 2.22026 0
M  V30 5284 H 504.764 5.24195 3.13133 0
M  V30 5285 H 506.178 5.66206 0.899082 0
M  V30 5286 H 504.575 5.99821 0.182857 0
M  V30 5287 H 505.645 4.81324 -0.587821 0
M  V30 5288 N 506.988 0.0434614 1.5754 0
M  V30 5289 C 508.213 -0.645358 1.97104 0
M  V30 5290 C 508.638 -1.64037 0.920521 0
M  V30 5291 O 507.996 -1.80922 -0.11708 0
M  V30 5292 C 508.044 -1.31547 3.35749 0
M  V30 5293 O 507.148 -2.43103 3.33129 0
M  V30 5294 H 506.489 -0.168403 0.64229 0
M  V30 5295 H 509.019 0.109573 2.04306 0
M  V30 5296 H 509.029 -1.66895 3.72304 0
M  V30 5297 H 507.704 -0.586205 4.11748 0
M  V30 5298 H 506.281 -2.0976 3.0831 0
M  V30 5299 N 508.466 -1.55915 -0.229846 0
M  V30 5300 C 509.429 -1.90914 -1.26824 0
M  V30 5301 C 510.429 -0.786999 -1.40225 0
M  V30 5302 O 511.619 -1.05484 -1.38632 0
M  V30 5303 C 508.751 -2.15264 -2.64337 0
M  V30 5304 H 509.944 -2.8378 -0.969998 0
M  V30 5305 H 507.497 -1.49069 -0.4699 0
M  V30 5306 H 508.232 -1.24923 -2.99274 0
M  V30 5307 H 508.017 -2.97005 -2.55989 0
M  V30 5308 H 509.507 -2.43467 -3.39284 0
M  V30 5309 N 509.944 0.496216 -1.49584 0
M  V30 5310 C 511.355 1.07765 -1.52459 0
M  V30 5311 C 511.706 1.93679 -0.31353 0
M  V30 5312 O 510.831 2.08588 0.576186 0
M  V30 5313 C 511.426 1.96111 -2.76271 0
M  V30 5314 C 509.985 2.49409 -2.81908 0
M  V30 5315 C 509.132 1.27142 -2.46435 0
M  V30 5316 H 512.083 0.279914 -1.56212 0
M  V30 5317 H 512.104 2.80862 -2.56704 0
M  V30 5318 H 511.616 1.33555 -3.64396 0
M  V30 5319 H 509.717 3.1559 -1.98074 0
M  V30 5320 H 509.83 2.86234 -3.84196 0
M  V30 5321 H 508.194 1.59818 -1.98319 0
M  V30 5322 H 508.977 0.662866 -3.3684 0
M  V30 5323 N 511.423 1.38739 0.74761 0
M  V30 5324 C 512.353 1.39173 1.87492 0
M  V30 5325 C 513.334 0.256794 1.6815 0
M  V30 5326 O 514.519 0.460762 1.88655 0
M  V30 5327 C 511.649 1.22197 3.25093 0
M  V30 5328 C 510.603 2.32957 3.59047 0
M  V30 5329 C 509.929 2.01082 4.95449 0
M  V30 5330 C 511.229 3.75237 3.6331 0
M  V30 5331 H 512.923 2.3351 1.87386 0
M  V30 5332 H 510.469 1.12399 0.900134 0
M  V30 5333 H 512.422 1.21124 4.03617 0
M  V30 5334 H 511.146 0.243241 3.25693 0
M  V30 5335 H 509.805 2.33226 2.82845 0
M  V30 5336 H 509.453 1.01678 4.92616 0
M  V30 5337 H 509.153 2.75267 5.19136 0
M  V30 5338 H 510.677 2.01638 5.76346 0
M  V30 5339 H 512.091 3.76966 4.31937 0
M  V30 5340 H 510.488 4.48677 3.98509 0
M  V30 5341 H 511.558 4.07122 2.634 0
M  V30 5342 N 512.901 -0.976442 1.23707 0
M  V30 5343 C 513.833 -2.07212 0.979574 0
M  V30 5344 C 514.846 -1.6273 -0.0478528 0
M  V30 5345 O 516.035 -1.77506 0.18815 0
M  V30 5346 C 513.135 -3.35835 0.45479 0
M  V30 5347 C 512.308 -4.09268 1.54331 0
M  V30 5348 C 511.367 -5.16166 1.02271 0
M  V30 5349 O 510.393 -5.42827 1.71254 0
M  V30 5350 N 511.595 -5.80313 -0.147419 0
M  V30 5351 H 514.36 -2.29878 1.92292 0
M  V30 5352 H 511.921 -1.14343 1.14618 0
M  V30 5353 H 513.913 -4.04597 0.0914631 0
M  V30 5354 H 512.483 -3.10106 -0.394068 0
M  V30 5355 H 511.703 -3.34906 2.07923 0
M  V30 5356 H 512.991 -4.55095 2.27522 0
M  V30 5357 H 512.389 -5.61043 -0.724353 0
M  V30 5358 H 510.946 -6.50231 -0.451972 0
M  V30 5359 N 514.379 -1.04941 -1.1758 0
M  V30 5360 C 515.626 -0.757989 -1.87779 0
M  V30 5361 C 515.954 0.714827 -1.80888 0
M  V30 5362 O 515.209 1.53824 -1.20982 0
M  V30 5363 C 515.508 -1.18062 -3.37337 0
M  V30 5364 C 515.174 -2.65521 -3.6443 0
M  V30 5365 C 513.836 -3.05804 -3.71534 0
M  V30 5366 C 516.188 -3.60822 -3.76108 0
M  V30 5367 C 513.516 -4.40256 -3.87803 0
M  V30 5368 C 515.868 -4.95005 -3.93895 0
M  V30 5369 C 514.532 -5.34945 -3.99237 0
M  V30 5370 H 513.802 -0.277368 -0.68713 0
M  V30 5371 H 516.449 -1.31603 -1.39115 0
M  V30 5372 H 514.754 -0.541525 -3.8804 0
M  V30 5373 H 516.451 -0.932368 -3.9001 0
M  V30 5374 H 513.041 -2.33324 -3.59524 0
M  V30 5375 H 517.225 -3.30841 -3.69943 0
M  V30 5376 H 512.481 -4.70707 -3.90186 0
M  V30 5377 H 516.655 -5.68746 -4.01872 0
M  V30 5378 H 514.282 -6.39135 -4.11596 0
M  V30 5379 N 515.857 1.33968 -0.830081 0
M  V30 5380 C 517.273 1.51003 -0.516742 0
M  V30 5381 C 517.473 1.77286 0.957694 0
M  V30 5382 O 516.529 1.82797 1.74188 0
M  V30 5383 C 517.842 2.67036 -1.38247 0
M  V30 5384 C 519.39 2.80919 -1.38034 0
M  V30 5385 C 519.865 4.00004 -2.23071 0
M  V30 5386 N 521.356 4.07224 -2.20733 0
M  V30 5387 C 522.091 4.98541 -2.83275 0
M  V30 5388 N 521.587 5.95033 -3.54835 0
M  V30 5389 N 523.38 4.91469 -2.72791 0
M  V30 5390 H 515.531 1.15168 -1.78466 0
M  V30 5391 H 517.794 0.565443 -0.760906 0
M  V30 5392 H 517.5 2.54266 -2.42985 0
M  V30 5393 H 517.374 3.62226 -1.05225 0
M  V30 5394 H 519.761 2.93127 -0.340713 0
M  V30 5395 H 519.842 1.86517 -1.75057 0
M  V30 5396 H 519.486 3.88557 -3.27087 0
M  V30 5397 H 519.416 4.93634 -1.83394 0
M  V30 5398 H 521.907 3.38162 -1.68687 0
M  V30 5399 H 522.22 6.61357 -3.99784 0
M  V30 5400 H 520.565 5.95135 -3.58942 0
M  V30 5401 H 523.756 4.15048 -2.16456 0
M  V30 5402 H 523.929 5.62439 -3.21818 0
M  V30 5403 N 517.335 0.585699 1.46312 0
M  V30 5404 C 518.56 0.0762461 2.0726 0
M  V30 5405 C 518.985 -1.22071 1.43109 0
M  V30 5406 O 518.343 -1.73804 0.515942 0
M  V30 5407 C 518.391 -0.0729404 3.60526 0
M  V30 5408 O 517.495 -1.1287 3.96654 0
M  V30 5409 H 516.836 0.0641558 0.660893 0
M  V30 5410 H 519.366 0.809492 1.87905 0
M  V30 5411 H 519.376 -0.278158 4.07051 0
M  V30 5412 H 518.051 0.874188 4.06609 0
M  V30 5413 H 516.628 -0.901703 3.61834 0
M  V30 5414 N 518.813 -1.54241 0.323641 0
M  V30 5415 C 519.76 -2.24339 -0.542277 0
M  V30 5416 C 520.73 -1.23421 -1.11159 0
M  V30 5417 O 521.915 -1.52104 -1.15192 0
M  V30 5418 C 519.055 -3.00479 -1.69725 0
M  V30 5419 C 518.168 -4.16214 -1.15716 0
M  V30 5420 C 517.303 -4.79884 -2.27783 0
M  V30 5421 C 516.342 -5.87722 -1.71023 0
M  V30 5422 N 515.479 -6.45254 -2.76752 0
M  V30 5423 H 520.319 -2.97935 0.0620613 0
M  V30 5424 H 517.856 -1.47039 0.0423993 0
M  V30 5425 H 519.814 -3.42869 -2.3769 0
M  V30 5426 H 518.444 -2.29217 -2.27288 0
M  V30 5427 H 517.496 -3.78605 -0.369063 0
M  V30 5428 H 518.808 -4.93838 -0.701832 0
M  V30 5429 H 517.962 -5.25243 -3.03651 0
M  V30 5430 H 516.701 -4.01641 -2.76652 0
M  V30 5431 H 515.706 -5.41765 -0.936518 0
M  V30 5432 H 516.931 -6.67863 -1.2303 0
M  V30 5433 H 514.877 -5.69884 -3.24912 0
M  V30 5434 H 514.794 -7.18292 -2.35782 0
M  V30 5435 H 516.062 -6.95269 -3.5245 0
M  V30 5436 N 520.291 -0.0518155 -1.57515 0
M  V30 5437 C 521.201 0.937539 -2.15052 0
M  V30 5438 C 522.217 1.34121 -1.10849 0
M  V30 5439 O 523.393 1.418 -1.4302 0
M  V30 5440 C 520.458 2.19379 -2.68466 0
M  V30 5441 C 519.519 1.84841 -3.87469 0
M  V30 5442 C 518.752 3.04477 -4.38326 0
M  V30 5443 O 518.975 4.17868 -3.88256 0
M  V30 5444 O 517.909 2.85453 -5.29906 0
M  V30 5445 H 521.735 0.478201 -2.99912 0
M  V30 5446 H 519.32 0.17012 -1.48428 0
M  V30 5447 H 521.202 2.93084 -3.02787 0
M  V30 5448 H 519.877 2.64449 -1.86677 0
M  V30 5449 H 518.784 1.08449 -3.58036 0
M  V30 5450 H 520.117 1.44569 -4.7049 0
M  V30 5451 N 521.769 1.56035 0.221574 0
M  V30 5452 C 523.015 1.79312 0.947372 0
M  V30 5453 C 523.348 0.621453 1.83988 0
M  V30 5454 O 522.623 -0.379287 1.90766 0
M  V30 5455 C 522.906 3.1267 1.78633 0
M  V30 5456 C 522.759 4.40284 0.920312 0
M  V30 5457 C 524.078 3.4247 2.7641 0
M  V30 5458 H 521.197 0.652328 0.342982 0
M  V30 5459 H 523.839 1.88765 0.216244 0
M  V30 5460 H 521.989 3.04741 2.40967 0
M  V30 5461 H 523.661 4.60232 0.313718 0
M  V30 5462 H 521.904 4.33212 0.225734 0
M  V30 5463 H 522.575 5.30033 1.54171 0
M  V30 5464 H 525.051 3.50526 2.24211 0
M  V30 5465 H 523.927 4.3695 3.32213 0
M  V30 5466 H 524.188 2.64635 3.54148 0
M  V30 5467 N 523.247 -0.488276 1.49845 0
M  V30 5468 C 524.472 -1.26997 1.63971 0
M  V30 5469 C 524.897 -1.85427 0.315994 0
M  V30 5470 O 524.255 -1.66475 -0.718032 0
M  V30 5471 C 524.303 -2.36689 2.72049 0
M  V30 5472 O 523.407 -3.40882 2.32107 0
M  V30 5473 H 522.748 -0.374376 0.548396 0
M  V30 5474 H 525.278 -0.583104 1.96115 0
M  V30 5475 H 525.288 -2.82262 2.94605 0
M  V30 5476 H 523.963 -1.93529 3.68129 0
M  V30 5477 H 522.54 -3.01139 2.19931 0
M  V30 5478 N 524.725 -1.39134 -0.740242 0
M  V30 5479 C 525.672 -1.37434 -1.8542 0
M  V30 5480 C 526.642 -0.234822 -1.64432 0
M  V30 5481 O 527.827 -0.429125 -1.85912 0
M  V30 5482 C 524.967 -1.21844 -3.22875 0
M  V30 5483 C 524.08 -2.45296 -3.55603 0
M  V30 5484 C 523.215 -2.22334 -4.82432 0
M  V30 5485 C 522.254 -3.41488 -5.07988 0
M  V30 5486 N 521.391 -3.17877 -6.26018 0
M  V30 5487 H 526.231 -2.3266 -1.86207 0
M  V30 5488 H 523.768 -1.15578 -0.909946 0
M  V30 5489 H 525.726 -1.10818 -4.02213 0
M  V30 5490 H 524.356 -0.3025 -3.21379 0
M  V30 5491 H 523.408 -2.66945 -2.71006 0
M  V30 5492 H 524.72 -3.34063 -3.7041 0
M  V30 5493 H 523.874 -2.0852 -5.69741 0
M  V30 5494 H 522.613 -1.30954 -4.6979 0
M  V30 5495 H 521.618 -3.55807 -4.19144 0
M  V30 5496 H 522.843 -4.33763 -5.22519 0
M  V30 5497 H 520.789 -2.29156 -6.14673 0
M  V30 5498 H 520.706 -4.00198 -6.41387 0
M  V30 5499 H 521.974 -3.07746 -7.16179 0
M  V30 5500 N 526.204 0.969867 -1.24223 0
M  V30 5501 C 527.429 1.75289 -1.10853 0
M  V30 5502 C 527.854 1.85091 0.335079 0
M  V30 5503 O 527.212 1.32024 1.24255 0
M  V30 5504 C 527.26 3.15255 -1.75062 0
M  V30 5505 O 526.364 3.99589 -1.01992 0
M  V30 5506 H 525.705 0.538904 -0.387915 0
M  V30 5507 H 528.235 1.21675 -1.64488 0
M  V30 5508 H 528.245 3.65787 -1.80731 0
M  V30 5509 H 526.92 3.07436 -2.801 0
M  V30 5510 H 525.497 3.58077 -1.04094 0
M  V30 5511 N 527.682 1.05563 1.17022 0
M  V30 5512 C 528.63 0.653887 2.2322 0
M  V30 5513 C 529.624 -0.326642 1.66221 0
M  V30 5514 O 530.83 -0.192301 1.7897 0
M  V30 5515 H 527.205 0.193297 0.726733 0
M  V30 5516 H 529.176 1.5596 2.54399 0
M  V30 5517 C 527.925 0.0485434 3.47666 0
M  V30 5518 H 527.248 0.79413 3.91834 0
M  V30 5519 H 528.688 -0.195133 4.23551 0
M  V30 5520 C 527.147 -1.20583 3.14581 0
M  V30 5521 O 527.677 -2.29475 3.29703 0
M  V30 5522 N 525.883 -1.10493 2.68774 0
M  V30 5523 H 525.43 -0.218795 2.56669 0
M  V30 5524 H 525.388 -1.94507 2.47011 0
M  V30 5525 N 529.16 -1.33526 0.837174 0
M  V30 5526 C 530.406 -1.9813 0.432704 0
M  V30 5527 C 530.739 -1.66168 -1.00508 0
M  V30 5528 O 530.014 -0.94069 -1.70239 0
M  V30 5529 C 530.297 -3.54151 0.651834 0
M  V30 5530 C 530.15 -3.95806 2.13676 0
M  V30 5531 C 531.469 -4.39993 0.0968937 0
M  V30 5532 H 528.588 -0.719713 0.15869 0
M  V30 5533 H 531.23 -1.58193 1.05237 0
M  V30 5534 H 529.38 -3.88301 0.124369 0
M  V30 5535 H 531.052 -3.71921 2.72896 0
M  V30 5536 H 529.295 -3.45599 2.62191 0
M  V30 5537 H 529.966 -5.0447 2.24084 0
M  V30 5538 H 532.442 -4.12479 0.547733 0
M  V30 5539 H 531.318 -5.48186 0.279917 0
M  V30 5540 H 531.579 -4.3066 -0.9992 0
M  V30 5541 N 530.638 -0.59345 -1.46 0
M  V30 5542 C 531.884 -0.0832754 -2.02629 0
M  V30 5543 C 532.217 1.27749 -1.46266 0
M  V30 5544 O 531.492 1.8395 -0.631866 0
M  V30 5545 C 531.775 -0.0290756 -3.60088 0
M  V30 5546 C 531.628 -1.41951 -4.26814 0
M  V30 5547 C 532.947 0.666055 -4.35031 0
M  V30 5548 H 530.066 -0.031736 -0.736316 0
M  V30 5549 H 532.708 -0.762711 -1.74019 0
M  V30 5550 H 530.858 0.549532 -3.84594 0
M  V30 5551 H 532.53 -2.04411 -4.13538 0
M  V30 5552 H 530.773 -1.98422 -3.8576 0
M  V30 5553 H 531.444 -1.33395 -5.3564 0
M  V30 5554 H 533.92 0.174401 -4.15734 0
M  V30 5555 H 532.796 0.673041 -5.44758 0
M  V30 5556 H 533.057 1.72946 -4.06869 0
M  V30 5557 N 532.116 1.54067 -0.331816 0
M  V30 5558 C 533.393 1.92915 0.322955 0
M  V30 5559 C 533.773 1.26225 1.69205 0
M  V30 5560 O 533.121 0.408919 2.24811 0
M  V30 5561 C 533.331 3.46619 0.406946 0
M  V30 5562 C 534.679 4.19386 0.663339 0
M  V30 5563 O 535.703 3.5282 0.489536 0
M  V30 5564 O 534.562 5.37288 0.999193 0
M  V30 5565 H 531.656 0.805808 0.186016 0
M  V30 5566 H 534.202 1.65342 -0.382135 0
M  V30 5567 H 532.974 3.87354 -0.554287 0
M  V30 5568 H 532.597 3.80324 1.15929 0
M  V30 5569 N 533.594 0.0601682 1.57485 0
M  V30 5570 C 534.871 -0.651956 1.84415 0
M  V30 5571 C 535.251 -1.88498 0.950361 0
M  V30 5572 O 534.599 -2.28496 0.0136719 0
M  V30 5573 C 534.809 -1.00069 3.34346 0
M  V30 5574 C 536.157 -1.37915 4.01578 0
M  V30 5575 O 537.181 -1.09277 3.39024 0
M  V30 5576 O 536.04 -1.91399 5.11887 0
M  V30 5577 H 533.134 -0.322668 0.761455 0
M  V30 5578 H 535.68 0.0902159 1.6946 0
M  V30 5579 H 534.452 -0.124463 3.91102 0
M  V30 5580 H 534.075 -1.80001 3.54521 0
M  V30 5581 N 535.072 -1.5615 -0.213296 0
M  V30 5582 C 536.005 -1.88115 -1.29182 0
M  V30 5583 C 536.983 -0.739348 -1.44819 0
M  V30 5584 O 538.167 -0.988541 -1.605 0
M  V30 5585 C 535.294 -2.09541 -2.66102 0
M  V30 5586 C 534.34 -3.32236 -2.67436 0
M  V30 5587 S 535.173 -4.87915 -2.20679 0
M  V30 5588 C 536.329 -5.12387 -3.59458 0
M  V30 5589 H 536.562 -2.793 -1.01876 0
M  V30 5590 H 534.095 -1.48692 -0.415934 0
M  V30 5591 H 536.053 -2.22568 -3.44925 0
M  V30 5592 H 534.714 -1.19138 -2.90628 0
M  V30 5593 H 533.907 -3.44297 -3.6807 0
M  V30 5594 H 533.509 -3.18108 -1.96681 0
M  V30 5595 H 535.801 -5.01791 -4.55205 0
M  V30 5596 H 536.744 -6.14236 -3.52306 0
M  V30 5597 H 537.152 -4.40089 -3.53528 0
M  V30 5598 N 536.55 0.480323 -1.50102 0
M  V30 5599 C 537.796 1.23489 -1.60867 0
M  V30 5600 C 538.129 1.91809 -0.303827 0
M  V30 5601 O 537.404 1.81694 0.694092 0
M  V30 5602 C 537.687 2.28578 -2.78252 0
M  V30 5603 C 537.54 1.64624 -4.18592 0
M  V30 5604 C 538.859 3.2997 -2.91218 0
M  V30 5605 H 535.978 0.447605 -0.585507 0
M  V30 5606 H 538.62 0.530005 -1.82458 0
M  V30 5607 H 536.77 2.88697 -2.59974 0
M  V30 5608 H 538.442 1.08173 -4.48438 0
M  V30 5609 H 536.685 0.949645 -4.23278 0
M  V30 5610 H 537.356 2.40946 -4.96638 0
M  V30 5611 H 539.832 2.79864 -3.07921 0
M  V30 5612 H 538.708 4.00839 -3.74993 0
M  V30 5613 H 538.969 3.93541 -2.0144 0
M  V30 5614 N 538.028 1.39524 0.732853 0
M  V30 5615 C 538.96 1.34318 1.85718 0
M  V30 5616 C 539.973 0.251576 1.60844 0
M  V30 5617 O 541.162 0.510685 1.71039 0
M  V30 5618 C 538.262 1.06334 3.21786 0
M  V30 5619 C 537.435 2.26813 3.73998 0
M  V30 5620 C 536.494 1.95253 4.88634 0
M  V30 5621 O 535.52 2.67957 5.02183 0
M  V30 5622 N 536.722 0.919984 5.73164 0
M  V30 5623 H 539.487 2.3121 1.90688 0
M  V30 5624 H 537.048 1.33654 0.91368 0
M  V30 5625 H 539.04 0.832363 3.96048 0
M  V30 5626 H 537.61 0.181682 3.12072 0
M  V30 5627 H 536.83 2.65849 2.91064 0
M  V30 5628 H 538.118 3.0717 4.05616 0
M  V30 5629 H 537.516 0.317487 5.64808 0
M  V30 5630 H 536.073 0.748905 6.47483 0
M  V30 5631 N 539.506 -0.963266 1.24736 0
M  V30 5632 C 540.731 -1.74699 1.11781 0
M  V30 5633 C 541.156 -1.85267 -0.325258 0
M  V30 5634 O 540.514 -1.32681 -1.23553 0
M  V30 5635 C 540.562 -3.14322 1.76731 0
M  V30 5636 O 539.666 -3.99043 1.04109 0
M  V30 5637 H 539.007 -0.53684 0.390767 0
M  V30 5638 H 541.537 -1.20801 1.65131 0
M  V30 5639 H 541.547 -3.64824 1.82668 0
M  V30 5640 H 540.222 -3.05946 2.81726 0
M  V30 5641 H 538.799 -3.5752 1.05991 0
M  V30 5642 N 540.985 -1.06182 -1.16461 0
M  V30 5643 C 541.933 -0.665716 -2.2287 0
M  V30 5644 C 542.927 0.317822 -1.66392 0
M  V30 5645 O 544.133 0.182807 -1.79069 0
M  V30 5646 H 540.508 -0.197148 -0.725697 0
M  V30 5647 H 542.479 -1.57307 -2.53569 0
M  V30 5648 C 541.228 -0.0669803 -3.47635 0
M  V30 5649 H 540.551 -0.814899 -3.91407 0
M  V30 5650 H 541.991 0.172669 -4.23648 0
M  V30 5651 C 540.45 1.18913 -3.15216 0
M  V30 5652 O 540.98 2.27723 -3.30916 0
M  V30 5653 N 539.186 1.09066 -2.69357 0
M  V30 5654 H 538.733 0.20518 -2.56782 0
M  V30 5655 H 538.691 1.93195 -2.48039 0
M  V30 5656 N 542.463 1.3308 -0.844243 0
M  V30 5657 C 543.874 1.7992 -0.498566 0
M  V30 5658 C 544.225 1.69808 0.982834 0
M  V30 5659 O 543.35 1.25051 1.7661 0
M  V30 5660 C 543.945 3.26677 -0.898204 0
M  V30 5661 C 542.504 3.71513 -0.604583 0
M  V30 5662 C 541.651 2.54393 -1.10362 0
M  V30 5663 H 544.602 1.20526 -1.03244 0
M  V30 5664 H 544.623 3.79918 -0.21039 0
M  V30 5665 H 544.135 3.34004 -1.97643 0
M  V30 5666 H 542.236 3.69708 0.46335 0
M  V30 5667 H 542.349 4.64755 -1.16358 0
M  V30 5668 H 540.713 2.49246 -0.524273 0
M  V30 5669 H 541.496 2.6448 -2.18873 0
M  V30 5670 N 543.941 0.601185 1.45683 0
M  V30 5671 C 545.187 0.0940202 2.02582 0
M  V30 5672 C 545.52 -1.26972 1.46941 0
M  V30 5673 O 544.795 -1.83613 0.641612 0
M  V30 5674 C 545.078 0.0481715 3.60068 0
M  V30 5675 C 544.931 1.44212 4.26055 0
M  V30 5676 C 546.25 -0.642975 4.35378 0
M  V30 5677 H 543.369 0.0356404 0.736138 0
M  V30 5678 H 546.011 0.771929 1.73612 0
M  V30 5679 H 544.161 -0.529128 3.8488 0
M  V30 5680 H 545.833 2.06601 4.12449 0
M  V30 5681 H 544.076 2.00465 3.84703 0
M  V30 5682 H 544.747 1.36234 5.34925 0
M  V30 5683 H 547.223 -0.152351 4.15821 0
M  V30 5684 H 546.099 -0.644141 5.45107 0
M  V30 5685 H 546.36 -1.70785 4.0778 0
M  V30 5686 N 545.419 -1.53889 0.339982 0
M  V30 5687 C 546.349 -2.27843 -0.510856 0
M  V30 5688 C 547.33 -1.29267 -1.10563 0
M  V30 5689 O 548.515 -1.58104 -1.12768 0
M  V30 5690 C 545.645 -3.04857 -1.66372 0
M  V30 5691 C 544.599 -4.10907 -1.19746 0
M  V30 5692 C 543.925 -4.75855 -2.43857 0
M  V30 5693 C 545.225 -5.21435 -0.300501 0
M  V30 5694 H 546.919 -2.99212 0.106067 0
M  V30 5695 H 544.465 -1.43904 0.0524533 0
M  V30 5696 H 546.418 -3.5533 -2.26537 0
M  V30 5697 H 545.142 -2.31133 -2.30749 0
M  V30 5698 H 543.801 -3.61342 -0.618654 0
M  V30 5699 H 543.449 -3.9873 -3.06633 0
M  V30 5700 H 543.149 -5.47502 -2.13343 0
M  V30 5701 H 544.673 -5.2911 -3.04754 0
M  V30 5702 H 546.087 -5.67565 -0.80889 0
M  V30 5703 H 544.484 -6.00036 -0.0874076 0
M  V30 5704 H 545.554 -4.80328 0.664321 0
M  V30 5705 N 546.897 -0.0685191 -1.57451 0
M  V30 5706 C 548.127 0.609577 -1.97402 0
M  V30 5707 C 548.535 1.63882 -0.945489 0
M  V30 5708 O 547.878 1.8354 0.0766052 0
M  V30 5709 C 547.94 1.3385 -3.33653 0
M  V30 5710 C 547.604 0.463103 -4.54648 0
M  V30 5711 C 548.601 -0.277964 -5.19156 0
M  V30 5712 C 546.286 0.388941 -5.00792 0
M  V30 5713 C 548.28 -1.08145 -6.28159 0
M  V30 5714 C 545.967 -0.418217 -6.09667 0
M  V30 5715 C 546.965 -1.15208 -6.73213 0
M  V30 5716 O 546.653 -1.94594 -7.79993 0
M  V30 5717 H 546.385 0.170197 -0.654224 0
M  V30 5718 H 548.939 -0.13647 -2.04946 0
M  V30 5719 H 547.169 2.13055 -3.22714 0
M  V30 5720 H 548.858 1.90851 -3.58233 0
M  V30 5721 H 549.624 -0.230241 -4.84453 0
M  V30 5722 H 545.503 0.949769 -4.5111 0
M  V30 5723 H 549.047 -1.65476 -6.7769 0
M  V30 5724 H 544.944 -0.467515 -6.43805 0
M  V30 5725 H 545.712 -1.8699 -7.96854 0
M  V30 5726 N 548.375 1.56261 0.205012 0
M  V30 5727 C 549.603 1.84141 0.943386 0
M  V30 5728 C 550.018 0.649772 1.77266 0
M  V30 5729 O 549.375 -0.381612 1.78466 0
M  V30 5730 C 549.426 3.10719 1.84759 0
M  V30 5731 O 549.147 4.25286 1.05181 0
M  V30 5732 C 550.648 3.51706 2.69848 0
M  V30 5733 H 547.868 0.611734 0.275721 0
M  V30 5734 H 550.412 2.03364 0.215253 0
M  V30 5735 H 548.567 2.93422 2.52947 0
M  V30 5736 H 548.981 4.97301 1.66709 0
M  V30 5737 H 550.455 4.43266 3.28967 0
M  V30 5738 H 550.932 2.7423 3.43067 0
M  V30 5739 H 551.538 3.71499 2.07047 0
M  V30 5740 N 549.853 -0.472356 1.50355 0
M  V30 5741 C 551.264 -1.05326 1.54154 0
M  V30 5742 C 551.615 -1.93155 0.344303 0
M  V30 5743 O 550.74 -2.09479 -0.542928 0
M  V30 5744 C 551.335 -1.91691 2.79356 0
M  V30 5745 C 549.894 -2.44892 2.8584 0
M  V30 5746 C 549.041 -1.23205 2.48426 0
M  V30 5747 H 551.992 -0.255027 1.56637 0
M  V30 5748 H 552.013 -2.76742 2.6114 0
M  V30 5749 H 551.525 -1.27741 3.66475 0
M  V30 5750 H 549.626 -3.12399 2.0307 0
M  V30 5751 H 549.739 -2.80086 3.88701 0
M  V30 5752 H 548.103 -1.56643 2.00836 0
M  V30 5753 H 548.886 -0.609194 3.37852 0
M  V30 5754 N 551.331 -1.39911 -0.725443 0
M  V30 5755 C 552.579 -1.37382 -1.48224 0
M  V30 5756 C 552.9 0.0264107 -1.94982 0
M  V30 5757 O 552.17 0.979408 -1.6966 0
M  V30 5758 H 550.75 -0.505596 -0.549892 0
M  V30 5759 H 553.412 -1.7487 -0.860608 0
M  V30 5760 H 552.508 -2.04254 -2.3598 0
M  V30 5761 N 552.809 0.956637 -1.25245 0
M  V30 5762 C 553.719 2.0868 -1.0719 0
M  V30 5763 C 554.735 1.73997 -0.00959074 0
M  V30 5764 O 555.911 2.00301 -0.210104 0
M  V30 5765 C 552.976 3.39754 -0.690526 0
M  V30 5766 C 552.037 3.88316 -1.83055 0
M  V30 5767 C 551.27 5.13134 -1.46728 0
M  V30 5768 O 551.493 5.6925 -0.362029 0
M  V30 5769 O 550.427 5.56356 -2.29677 0
M  V30 5770 H 554.253 2.26813 -2.01965 0
M  V30 5771 H 551.838 1.07098 -1.04165 0
M  V30 5772 H 553.72 4.18543 -0.489871 0
M  V30 5773 H 552.395 3.22896 0.227981 0
M  V30 5774 H 551.302 3.1054 -2.08604 0
M  V30 5775 H 552.635 4.09669 -2.72822 0
M  V30 5776 N 554.287 1.06798 1.15896 0
M  V30 5777 C 555.197 0.694564 2.24083 0
M  V30 5778 C 556.213 -0.291687 1.71538 0
M  V30 5779 O 557.389 -0.139723 2.00915 0
M  V30 5780 C 554.454 0.0921014 3.46578 0
M  V30 5781 C 553.515 1.13087 4.14137 0
M  V30 5782 C 552.748 0.557064 5.30785 0
M  V30 5783 O 552.971 -0.628623 5.66925 0
M  V30 5784 O 551.905 1.29924 5.8771 0
M  V30 5785 H 555.731 1.59663 2.58344 0
M  V30 5786 H 553.316 0.840575 1.2351 0
M  V30 5787 H 555.198 -0.241884 4.20705 0
M  V30 5788 H 553.873 -0.78337 3.14078 0
M  V30 5789 H 552.78 1.51712 3.41957 0
M  V30 5790 H 554.113 1.97805 4.50704 0
M  V30 5791 N 555.766 -1.3263 0.851289 0
M  V30 5792 C 557.177 -1.79653 0.5081 0
M  V30 5793 C 557.528 -1.70327 -0.973815 0
M  V30 5794 O 556.653 -1.25986 -1.75944 0
M  V30 5795 C 557.248 -3.26196 0.915515 0
M  V30 5796 C 555.807 -3.71187 0.624277 0
M  V30 5797 C 554.954 -2.53804 1.11709 0
M  V30 5798 H 557.905 -1.19976 1.03882 0
M  V30 5799 H 557.926 -3.79801 0.230535 0
M  V30 5800 H 557.438 -3.32952 1.99411 0
M  V30 5801 H 555.539 -3.69948 -0.443737 0
M  V30 5802 H 555.652 -4.64132 1.18821 0
M  V30 5803 H 554.016 -2.48964 0.537484 0
M  V30 5804 H 554.799 -2.63315 2.20272 0
M  V30 5805 N 557.244 -0.608902 -1.45362 0
M  V30 5806 C 558.521 -0.0365378 -1.95566 0
M  V30 5807 C 558.901 1.43169 -1.55131 0
M  V30 5808 O 558.249 2.1349 -0.814513 0
M  V30 5809 C 558.459 -0.236026 -3.48201 0
M  V30 5810 C 559.807 -0.117518 -4.24437 0
M  V30 5811 O 560.831 -0.166217 -3.55812 0
M  V30 5812 O 559.69 -0.00372127 -5.465 0
M  V30 5813 H 556.784 0.0349874 -0.82626 0
M  V30 5814 H 559.33 -0.679055 -1.55521 0
M  V30 5815 H 558.102 -1.25569 -3.70605 0
M  V30 5816 H 557.725 0.441691 -3.95139 0
M  V30 5817 N 558.722 1.53707 -0.348139 0
M  V30 5818 C 559.672 2.2193 0.522592 0
M  V30 5819 C 560.656 1.20831 1.06248 0
M  V30 5820 O 561.848 1.46357 0.995415 0
M  V30 5821 C 558.977 2.99904 1.6707 0
M  V30 5822 C 558.063 4.08364 1.14454 0
M  V30 5823 N 558.454 5.04656 0.339958 0
M  V30 5824 C 556.752 4.22757 1.421 0
M  V30 5825 C 557.453 5.81675 0.0538806 0
M  V30 5826 N 556.429 5.39739 0.646776 0
M  V30 5827 H 560.231 2.93733 -0.099135 0
M  V30 5828 H 557.745 1.61656 -0.15524 0
M  V30 5829 H 559.742 3.47284 2.30651 0
M  V30 5830 H 558.402 2.29629 2.29566 0
M  V30 5831 H 559.413 5.17896 -0.0193552 0
M  V30 5832 H 556.09 3.63704 2.05002 0
M  V30 5833 H 557.48 6.69256 -0.595443 0
M  V30 5834 N 560.2 0.0768682 1.57412 0
M  V30 5835 C 561.44 -0.594676 1.95558 0
M  V30 5836 C 561.804 -1.66469 0.956658 0
M  V30 5837 O 563.005 -2.39215 1.22595 0
M  V30 5838 C 561.276 -1.15206 3.38323 0
M  V30 5839 S 562.835 -1.83803 3.9845 0
M  V30 5840 H 559.653 -0.194579 0.683857 0
M  V30 5841 H 562.255 0.151933 1.94909 0
M  V30 5842 H 560.959 -0.36153 4.08805 0
M  V30 5843 H 560.49 -1.93491 3.42527 0
M  V30 5844 H 562.505 -3.12087 3.85767 0
M  V30 5845 N 561.678 -1.56367 -0.196722 0
M  V30 5846 C 562.924 -1.80796 -0.918725 0
M  V30 5847 C 563.257 -0.650645 -1.82976 0
M  V30 5848 O 562.532 0.348889 -1.91345 0
M  V30 5849 C 562.815 -3.15472 -1.73636 0
M  V30 5850 C 562.668 -4.41693 -0.85015 0
M  V30 5851 C 563.987 -3.46824 -2.70927 0
M  V30 5852 H 561.106 -0.657702 -0.332561 0
M  V30 5853 H 563.748 -1.89086 -0.186186 0
M  V30 5854 H 561.898 -3.08536 -2.36088 0
M  V30 5855 H 563.57 -4.60673 -0.240459 0
M  V30 5856 H 561.813 -4.33517 -0.156785 0
M  V30 5857 H 562.484 -5.32419 -1.45719 0
M  V30 5858 H 564.96 -3.54049 -2.18607 0
M  V30 5859 H 563.836 -4.4218 -3.25219 0
M  V30 5860 H 564.097 -2.70236 -3.49893 0
M  V30 5861 N 563.156 0.464375 -1.50603 0
M  V30 5862 C 564.402 1.21776 -1.62168 0
M  V30 5863 C 564.735 1.91476 -0.324154 0
M  V30 5864 O 564.01 1.8242 0.674782 0
M  V30 5865 C 564.293 2.25614 -2.80661 0
M  V30 5866 C 564.146 1.60175 -4.20314 0
M  V30 5867 C 565.465 3.26862 -2.94702 0
M  V30 5868 H 562.584 0.44137 -0.590222 0
M  V30 5869 H 565.226 0.510623 -1.8301 0
M  V30 5870 H 563.376 2.85923 -2.63021 0
M  V30 5871 H 565.048 1.03411 -4.4956 0
M  V30 5872 H 563.291 0.904697 -4.24261 0
M  V30 5873 H 563.962 2.35665 -4.99165 0
M  V30 5874 H 566.438 2.76582 -3.10872 0
M  V30 5875 H 565.314 3.96839 -3.79223 0
M  V30 5876 H 565.575 3.91382 -2.05603 0
M  V30 5877 N 564.634 1.40294 0.718013 0
M  V30 5878 C 565.883 1.37746 1.4734 0
M  V30 5879 C 566.196 -0.0180754 1.95592 0
M  V30 5880 O 567.402 -0.166166 2.70991 0
M  V30 5881 C 565.858 2.4208 2.66318 0
M  V30 5882 C 565.466 3.87432 2.24945 0
M  V30 5883 C 567.21 2.48635 3.44065 0
M  V30 5884 C 565.117 4.83368 3.40748 0
M  V30 5885 H 564.047 0.512165 0.553356 0
M  V30 5886 H 566.698 1.66019 0.781661 0
M  V30 5887 H 565.08 2.06903 3.3765 0
M  V30 5888 H 566.254 4.3174 1.6105 0
M  V30 5889 H 564.569 3.8433 1.60249 0
M  V30 5890 H 567.166 3.17499 4.30231 0
M  V30 5891 H 567.509 1.51611 3.87711 0
M  V30 5892 H 568.042 2.82791 2.79775 0
M  V30 5893 H 564.781 5.81716 3.02136 0
M  V30 5894 H 564.301 4.43726 4.03568 0
M  V30 5895 H 565.98 5.03074 4.06848 0
M  V30 5896 N 566.112 -0.949982 1.2575 0
M  V30 5897 C 567.059 -2.04738 1.06541 0
M  V30 5898 C 568.029 -1.66078 -0.0268818 0
M  V30 5899 O 569.214 -1.90348 0.131196 0
M  V30 5900 C 566.354 -3.38027 0.695127 0
M  V30 5901 C 565.467 -3.89776 1.86276 0
M  V30 5902 C 564.602 -5.11411 1.4364 0
M  V30 5903 C 563.641 -5.554 2.57287 0
M  V30 5904 N 562.778 -6.68244 2.15395 0
M  V30 5905 H 567.618 -2.20502 2.00457 0
M  V30 5906 H 565.155 -1.0805 0.998178 0
M  V30 5907 H 567.113 -4.14641 0.461375 0
M  V30 5908 H 565.743 -3.22135 -0.207046 0
M  V30 5909 H 564.795 -3.0964 2.20969 0
M  V30 5910 H 566.107 -4.18368 2.71606 0
M  V30 5911 H 565.261 -5.95457 1.16257 0
M  V30 5912 H 564 -4.84545 0.553879 0
M  V30 5913 H 563.005 -4.69916 2.85409 0
M  V30 5914 H 564.23 -5.84272 3.46125 0
M  V30 5915 H 562.176 -6.43078 1.29565 0
M  V30 5916 H 562.093 -6.96377 2.94272 0
M  V30 5917 H 563.361 -7.55687 1.91201 0
M  V30 5918 N 567.59 -1.07411 -1.15328 0
M  V30 5919 C 568.82 -0.817595 -1.89734 0
M  V30 5920 C 569.228 0.63297 -1.78298 0
M  V30 5921 O 568.571 1.44594 -1.13306 0
M  V30 5922 C 568.633 -1.14748 -3.40695 0
M  V30 5923 C 568.297 -2.59876 -3.75917 0
M  V30 5924 C 569.294 -3.58122 -3.76888 0
M  V30 5925 C 566.979 -2.95469 -4.06206 0
M  V30 5926 C 568.973 -4.89996 -4.07655 0
M  V30 5927 C 566.66 -4.2754 -4.36638 0
M  V30 5928 C 567.658 -5.24614 -4.37344 0
M  V30 5929 O 567.346 -6.54312 -4.67045 0
M  V30 5930 H 567.078 -0.295175 -0.608151 0
M  V30 5931 H 569.632 -1.43409 -1.47048 0
M  V30 5932 H 567.862 -0.47395 -3.83785 0
M  V30 5933 H 569.551 -0.873397 -3.96392 0
M  V30 5934 H 570.317 -3.31966 -3.53587 0
M  V30 5935 H 566.196 -2.20558 -4.04815 0
M  V30 5936 H 569.74 -5.65759 -4.08121 0
M  V30 5937 H 565.637 -4.53449 -4.59407 0
M  V30 5938 H 566.405 -6.59473 -4.84807 0
M  V30 5939 N 569.068 1.32177 -0.85831 0
M  V30 5940 C 570.314 1.97417 -0.46417 0
M  V30 5941 C 570.647 1.67746 0.978514 0
M  V30 5942 O 569.922 0.967654 1.68721 0
M  V30 5943 C 570.205 3.53069 -0.708094 0
M  V30 5944 C 570.058 3.92357 -2.19946 0
M  V30 5945 C 571.377 4.39783 -0.166881 0
M  V30 5946 H 568.496 0.717097 -0.17012 0
M  V30 5947 H 571.138 1.56499 -1.07741 0
M  V30 5948 H 569.288 3.88054 -0.186128 0
M  V30 5949 H 570.96 3.67533 -2.78779 0
M  V30 5950 H 569.203 3.41384 -2.67656 0
M  V30 5951 H 569.874 5.00841 -2.32082 0
M  V30 5952 H 572.35 4.11556 -0.613285 0
M  V30 5953 H 571.226 5.47671 -0.367093 0
M  V30 5954 H 571.487 4.32196 0.930559 0
M  V30 5955 N 570.547 0.616602 1.45037 0
M  V30 5956 C 571.958 0.199359 1.85633 0
M  V30 5957 C 572.309 -1.24588 1.51566 0
M  V30 5958 O 571.434 -1.94594 0.94668 0
M  V30 5959 C 572.029 0.355033 3.36935 0
M  V30 5960 C 570.588 -0.00758748 3.76399 0
M  V30 5961 C 569.735 0.675256 2.68953 0
M  V30 5962 H 572.686 0.822708 1.3571 0
M  V30 5963 H 572.707 -0.410201 3.78282 0
M  V30 5964 H 572.219 1.40699 3.61698 0
M  V30 5965 H 570.32 -1.05837 3.57252 0
M  V30 5966 H 570.433 0.392346 4.77491 0
M  V30 5967 H 568.797 0.111992 2.54454 0
M  V30 5968 H 569.58 1.72952 2.96551 0
M  V30 5969 N 572.025 -1.5352 0.356285 0
M  V30 5970 C 573.255 -2.05236 -0.236983 0
M  V30 5971 C 573.663 -1.23016 -1.43749 0
M  V30 5972 O 573.006 -0.2615 -1.81829 0
M  V30 5973 C 573.068 -3.52549 -0.7035 0
M  V30 5974 C 572.732 -4.55425 0.379059 0
M  V30 5975 C 573.729 -5.0524 1.22592 0
M  V30 5976 C 571.414 -4.99425 0.536638 0
M  V30 5977 C 573.408 -5.97647 2.21578 0
M  V30 5978 C 571.095 -5.9164 1.52988 0
M  V30 5979 C 572.093 -6.4064 2.3679 0
M  V30 5980 O 571.781 -7.31039 3.34421 0
M  V30 5981 H 571.513 -0.674346 -0.047254 0
M  V30 5982 H 574.067 -1.98962 0.510238 0
M  V30 5983 H 572.297 -3.56331 -1.50217 0
M  V30 5984 H 573.986 -3.87171 -1.21873 0
M  V30 5985 H 574.752 -4.72002 1.11532 0
M  V30 5986 H 570.631 -4.60879 -0.105834 0
M  V30 5987 H 574.175 -6.35816 2.87025 0
M  V30 5988 H 570.072 -6.24293 1.64099 0
M  V30 5989 H 570.84 -7.49009 3.30041 0
M  V30 5990 N 573.503 -0.0852151 -1.57369 0
M  V30 5991 C 574.749 0.581666 -1.94279 0
M  V30 5992 C 575.082 1.68444 -0.966446 0
M  V30 5993 O 574.357 1.945 0.00215277 0
M  V30 5994 C 574.64 1.14609 -3.41375 0
M  V30 5995 C 574.493 0.0490414 -4.49773 0
M  V30 5996 C 575.812 2.04751 -3.8957 0
M  V30 5997 H 572.931 0.209972 -0.706456 0
M  V30 5998 H 575.573 -0.153915 -1.89376 0
M  V30 5999 H 573.723 1.77297 -3.45685 0
M  V30 6000 H 575.395 -0.584721 -4.57579 0
M  V30 6001 H 573.638 -0.618638 -4.29366 0
M  V30 6002 H 574.309 0.484601 -5.49869 0
M  V30 6003 H 576.785 1.51981 -3.87351 0
M  V30 6004 H 575.661 2.41173 -4.93079 0
M  V30 6005 H 575.922 2.96107 -3.28288 0
M  V30 6006 N 574.981 1.5647 0.188427 0
M  V30 6007 C 576.229 1.80655 0.905986 0
M  V30 6008 C 576.55 0.659391 1.83513 0
M  V30 6009 O 575.82 -0.321868 1.93238 0
M  V30 6010 H 574.4 0.666391 0.337538 0
M  V30 6011 H 577.062 1.93949 0.192339 0
M  V30 6012 H 576.158 2.74066 1.49313 0
M  V30 6013 N 576.459 -0.456382 1.50847 0
M  V30 6014 C 577.736 -1.21739 1.53098 0
M  V30 6015 C 578.116 -2.09179 0.284132 0
M  V30 6016 O 577.464 -2.16466 -0.731773 0
M  V30 6017 C 577.674 -2.03573 2.83477 0
M  V30 6018 C 579.022 -2.61264 3.34703 0
M  V30 6019 O 580.046 -2.13802 2.84898 0
M  V30 6020 O 578.905 -3.47779 4.21559 0
M  V30 6021 H 575.999 -0.553219 0.614718 0
M  V30 6022 H 578.545 -0.467003 1.63148 0
M  V30 6023 H 577.317 -1.39232 3.65691 0
M  V30 6024 H 576.94 -2.85716 2.76499 0
M  V30 6025 N 577.937 -1.40673 -0.710563 0
M  V30 6026 C 579.162 -1.42741 -1.50465 0
M  V30 6027 C 579.587 -0.0302116 -1.88076 0
M  V30 6028 O 578.945 0.962945 -1.53613 0
M  V30 6029 C 578.993 -2.32873 -2.75322 0
M  V30 6030 O 578.097 -1.77544 -3.72226 0
M  V30 6031 H 577.438 -0.485056 -0.45345 0
M  V30 6032 H 579.968 -1.84961 -0.874681 0
M  V30 6033 H 579.978 -2.48233 -3.23797 0
M  V30 6034 H 578.653 -3.34401 -2.47283 0
M  V30 6035 H 577.23 -1.71556 -3.31093 0
M  V30 6036 N 579.415 0.9433 -1.26252 0
M  V30 6037 C 580.362 2.0417 -1.07625 0
M  V30 6038 C 581.332 1.6609 0.0180738 0
M  V30 6039 O 582.517 1.90276 -0.141289 0
M  V30 6040 C 579.657 3.37653 -0.713043 0
M  V30 6041 C 578.77 3.88783 -1.8834 0
M  V30 6042 C 577.905 5.10642 -1.4635 0
M  V30 6043 C 576.944 5.54028 -2.60229 0
M  V30 6044 N 576.081 6.67092 -2.18936 0
M  V30 6045 H 580.921 2.19436 -2.01623 0
M  V30 6046 H 578.458 1.07519 -1.00389 0
M  V30 6047 H 580.416 4.14391 -0.483358 0
M  V30 6048 H 579.046 3.22241 0.18996 0
M  V30 6049 H 578.098 3.08464 -2.22608 0
M  V30 6050 H 579.41 4.16922 -2.73821 0
M  V30 6051 H 578.564 5.94832 -1.19414 0
M  V30 6052 H 577.303 4.84244 -0.579568 0
M  V30 6053 H 576.308 4.68396 -2.87898 0
M  V30 6054 H 577.533 5.82429 -3.49219 0
M  V30 6055 H 575.479 6.42381 -1.32974 0
M  V30 6056 H 575.396 6.94806 -2.97961 0
M  V30 6057 H 576.664 7.54662 -1.95206 0
M  V30 6058 N 580.893 1.08022 1.14757 0
M  V30 6059 C 582.309 0.807072 1.3769 0
M  V30 6060 C 582.509 -0.585504 1.92806 0
M  V30 6061 O 581.565 -1.34301 2.13821 0
M  V30 6062 C 582.878 1.88651 2.34161 0
M  V30 6063 C 584.426 1.91206 2.47809 0
M  V30 6064 C 584.901 2.98253 3.47576 0
M  V30 6065 N 586.392 2.974 3.55117 0
M  V30 6066 C 587.127 3.76872 4.32152 0
M  V30 6067 N 586.623 4.66212 5.12463 0
M  V30 6068 N 588.416 3.6519 4.27309 0
M  V30 6069 H 580.567 1.97824 0.77326 0
M  V30 6070 H 582.83 0.85826 0.402608 0
M  V30 6071 H 582.536 2.88749 2.00791 0
M  V30 6072 H 582.41 1.75244 3.3402 0
M  V30 6073 H 584.797 0.917564 2.80472 0
M  V30 6074 H 584.878 2.08691 1.47925 0
M  V30 6075 H 584.522 3.97907 3.15646 0
M  V30 6076 H 584.452 2.78014 4.47231 0
M  V30 6077 H 586.943 2.32643 2.97801 0
M  V30 6078 H 587.256 5.23468 5.68508 0
M  V30 6079 H 585.601 4.70257 5.11745 0
M  V30 6080 H 588.792 2.94765 3.63636 0
M  V30 6081 H 588.965 4.27366 4.87095 0
M  V30 6082 N 582.371 -1.3172 0.865308 0
M  V30 6083 C 583.334 -2.26918 0.322627 0
M  V30 6084 C 584.334 -1.52031 -0.523751 0
M  V30 6085 O 585.524 -1.70973 -0.333727 0
M  V30 6086 C 582.656 -3.36558 -0.542338 0
M  V30 6087 H 583.849 -2.76432 1.16298 0
M  V30 6088 H 581.402 -1.42573 0.640512 0
M  V30 6089 H 582.137 -2.92329 -1.40407 0
M  V30 6090 H 581.922 -3.92048 0.0636395 0
M  V30 6091 H 583.412 -4.07465 -0.91446 0
M  V30 6092 N 583.85 -0.624285 -1.44708 0
M  V30 6093 C 584.779 0.0717025 -2.3339 0
M  V30 6094 C 585.76 0.841814 -1.47809 0
M  V30 6095 O 586.946 0.809056 -1.76544 0
M  V30 6096 C 584.076 1.05852 -3.30776 0
M  V30 6097 C 583.029 0.400503 -4.26122 0
M  V30 6098 C 582.356 1.49674 -5.13324 0
M  V30 6099 C 583.656 -0.688924 -5.17737 0
M  V30 6100 H 585.35 -0.668819 -2.91834 0
M  V30 6101 H 582.896 -0.32308 -1.40329 0
M  V30 6102 H 584.849 1.5541 -3.91696 0
M  V30 6103 H 583.572 1.82984 -2.70526 0
M  V30 6104 H 582.231 -0.0743687 -3.66525 0
M  V30 6105 H 581.88 2.25877 -4.49431 0
M  V30 6106 H 581.58 1.06188 -5.77926 0
M  V30 6107 H 583.104 1.99427 -5.77115 0
M  V30 6108 H 584.518 -0.276724 -5.72632 0
M  V30 6109 H 582.915 -1.04652 -5.90904 0
M  V30 6110 H 583.985 -1.55884 -4.5916 0
M  V30 6111 N 585.328 1.53329 -0.364422 0
M  V30 6112 C 586.605 1.93557 0.281962 0
M  V30 6113 C 586.985 1.29786 1.6649 0
M  V30 6114 O 586.333 0.456512 2.23893 0
M  V30 6115 C 586.543 3.47405 0.333331 0
M  V30 6116 C 587.891 4.20699 0.574231 0
M  V30 6117 O 588.915 3.53779 0.414588 0
M  V30 6118 O 587.774 5.39287 0.885002 0
M  V30 6119 H 584.868 0.809573 0.168881 0
M  V30 6120 H 587.414 1.64494 -0.417121 0
M  V30 6121 H 586.186 3.86091 -0.636326 0
M  V30 6122 H 585.809 3.82697 1.07836 0
M  V30 6123 N 586.806 0.0935595 1.57322 0
M  V30 6124 C 587.716 -0.880192 2.17462 0
M  V30 6125 C 588.732 -1.31135 1.14366 0
M  V30 6126 O 589.908 -1.37958 1.46729 0
M  V30 6127 C 586.973 -2.12184 2.74188 0
M  V30 6128 C 586.034 -1.74503 3.92234 0
M  V30 6129 C 585.267 -2.92748 4.46245 0
M  V30 6130 O 585.49 -4.07427 3.99198 0
M  V30 6131 O 584.424 -2.71303 5.37288 0
M  V30 6132 H 588.25 -0.398516 3.01074 0
M  V30 6133 H 585.835 -0.130707 1.48827 0
M  V30 6134 H 587.717 -2.84953 3.10451 0
M  V30 6135 H 586.392 -2.59407 1.93623 0
M  V30 6136 H 585.299 -0.989186 3.60785 0
M  V30 6137 H 586.632 -1.32044 4.74157 0
M  V30 6138 N 588.284 -1.56567 -0.180126 0
M  V30 6139 C 589.514 -1.85349 -0.912647 0
M  V30 6140 C 589.922 -0.675795 -1.76719 0
M  V30 6141 O 589.265 0.3645 -1.80047 0
M  V30 6142 C 589.327 -3.08431 -1.84691 0
M  V30 6143 C 588.991 -4.41694 -1.17284 0
M  V30 6144 C 589.988 -5.17062 -0.542532 0
M  V30 6145 C 587.673 -4.8843 -1.17223 0
M  V30 6146 C 589.667 -6.37351 0.0793953 0
M  V30 6147 C 587.354 -6.08652 -0.54647 0
M  V30 6148 C 588.352 -6.82955 0.0782458 0
M  V30 6149 O 588.04 -8.00897 0.694158 0
M  V30 6150 H 587.772 -0.619286 -0.271036 0
M  V30 6151 H 590.326 -2.0454 -0.187768 0
M  V30 6152 H 588.556 -2.85163 -2.61188 0
M  V30 6153 H 590.245 -3.23733 -2.44851 0
M  V30 6154 H 591.011 -4.8204 -0.535045 0
M  V30 6155 H 586.89 -4.30542 -1.64788 0
M  V30 6156 H 590.434 -6.95287 0.567612 0
M  V30 6157 H 586.331 -6.4314 -0.55151 0
M  V30 6158 H 587.099 -8.16352 0.592537 0
M  V30 6159 N 589.762 0.448376 -1.51087 0
M  V30 6160 C 590.99 1.22143 -1.66999 0
M  V30 6161 C 591.405 1.85283 -0.362699 0
M  V30 6162 O 590.762 1.70236 0.65772 0
M  V30 6163 C 590.813 2.31357 -2.7777 0
M  V30 6164 O 590.534 1.70801 -4.03434 0
M  V30 6165 C 592.035 3.21836 -3.04855 0
M  V30 6166 H 589.255 0.368558 -0.560719 0
M  V30 6167 H 591.799 0.532618 -1.97442 0
M  V30 6168 H 589.954 2.95973 -2.49958 0
M  V30 6169 H 590.368 2.42895 -4.64868 0
M  V30 6170 H 591.842 3.94627 -3.85971 0
M  V30 6171 H 592.319 3.81949 -2.16821 0
M  V30 6172 H 592.925 2.62933 -3.34285 0
M  V30 6173 N 591.24 1.41047 0.703093 0
M  V30 6174 C 592.465 1.43537 1.49706 0
M  V30 6175 C 592.89 0.0401853 1.88057 0
M  V30 6176 O 592.248 -0.954785 1.54122 0
M  V30 6177 C 592.296 2.3433 2.74084 0
M  V30 6178 O 591.4 1.79515 3.71279 0
M  V30 6179 H 590.741 0.487454 0.450871 0
M  V30 6180 H 593.271 1.85422 0.86486 0
M  V30 6181 H 593.281 2.49947 3.22476 0
M  V30 6182 H 591.956 3.35708 2.45506 0
M  V30 6183 H 590.533 1.7331 3.30179 0
M  V30 6184 N 592.718 -0.936591 1.26751 0
M  V30 6185 C 593.628 -2.06949 1.10496 0
M  V30 6186 C 594.644 -1.7396 0.037271 0
M  V30 6187 O 595.82 -1.99941 0.241944 0
M  V30 6188 C 592.885 -3.38612 0.744491 0
M  V30 6189 C 591.946 -3.85355 1.89209 0
M  V30 6190 C 591.179 -5.10735 1.54873 0
M  V30 6191 O 591.402 -5.68602 0.452546 0
M  V30 6192 O 590.336 -5.52632 2.38499 0
M  V30 6193 H 594.162 -2.23571 2.05547 0
M  V30 6194 H 591.747 -1.05428 1.05855 0
M  V30 6195 H 593.629 -4.17711 0.556396 0
M  V30 6196 H 592.304 -3.23218 -0.176582 0
M  V30 6197 H 591.211 -3.07182 2.13518 0
M  V30 6198 H 592.544 -4.05277 2.79305 0
M  V30 6199 N 594.196 -1.08629 -1.14182 0
M  V30 6200 C 595.126 -0.740003 -2.21464 0
M  V30 6201 C 596.107 0.278591 -1.67803 0
M  V30 6202 O 597.292 0.148461 -1.93632 0
M  V30 6203 C 594.422 -0.150952 -3.46972 0
M  V30 6204 C 593.376 -1.09815 -4.13672 0
M  V30 6205 C 592.702 -0.3712 -5.3341 0
M  V30 6206 C 594.002 -2.43722 -4.61949 0
M  V30 6207 H 595.696 -1.63697 -2.50686 0
M  V30 6208 H 593.242 -0.788526 -1.20492 0
M  V30 6209 H 595.195 0.103325 -4.21273 0
M  V30 6210 H 593.919 0.781164 -3.1712 0
M  V30 6211 H 592.578 -1.33756 -3.41328 0
M  V30 6212 H 592.226 0.564792 -4.99819 0
M  V30 6213 H 591.926 -1.00267 -5.78982 0
M  V30 6214 H 593.45 -0.12503 -6.10472 0
M  V30 6215 H 594.864 -2.24034 -5.27714 0
M  V30 6216 H 593.261 -3.02582 -5.18232 0
M  V30 6217 H 594.331 -3.05082 -3.76899 0
M  V30 6218 N 595.674 1.31259 -0.872281 0
M  V30 6219 C 596.607 2.26544 -0.274394 0
M  V30 6220 C 597.585 1.51213 0.597776 0
M  V30 6221 O 598.769 1.80277 0.550687 0
M  V30 6222 C 595.896 3.33139 0.611256 0
M  V30 6223 C 594.942 4.26077 -0.189876 0
M  V30 6224 S 595.775 5.11971 -1.56989 0
M  V30 6225 C 596.931 6.2208 -0.690427 0
M  V30 6226 H 597.164 2.76908 -1.0821 0
M  V30 6227 H 594.697 1.3906 -0.670939 0
M  V30 6228 H 596.655 3.95024 1.11654 0
M  V30 6229 H 595.316 2.81525 1.39294 0
M  V30 6230 H 594.509 5.01657 0.485433 0
M  V30 6231 H 594.111 3.68701 -0.627339 0
M  V30 6232 H 596.403 6.77429 0.098001 0
M  V30 6233 H 597.346 6.93768 -1.41742 0
M  V30 6234 H 597.754 5.63915 -0.256953 0
M  V30 6235 N 597.152 0.631951 1.44375 0
M  V30 6236 C 598.082 -0.0593243 2.33425 0
M  V30 6237 C 599.063 -0.833964 1.48253 0
M  V30 6238 O 600.248 -0.799682 1.76971 0
M  V30 6239 C 597.378 -1.04096 3.31333 0
M  V30 6240 C 596.332 -0.377899 4.26328 0
M  V30 6241 C 595.658 -1.4695 5.14111 0
M  V30 6242 C 596.958 0.716371 5.17364 0
M  V30 6243 H 598.652 0.684287 2.91475 0
M  V30 6244 H 596.198 0.330518 1.40156 0
M  V30 6245 H 598.151 -1.53331 3.92514 0
M  V30 6246 H 596.875 -1.81547 2.71493 0
M  V30 6247 H 595.534 0.0938054 3.6648 0
M  V30 6248 H 595.182 -2.2349 4.50623 0
M  V30 6249 H 594.882 -1.03121 5.78481 0
M  V30 6250 H 596.406 -1.96363 5.78164 0
M  V30 6251 H 597.82 0.307089 5.72477 0
M  V30 6252 H 596.217 1.07784 5.90341 0
M  V30 6253 H 597.287 1.58316 4.58327 0
M  V30 6254 N 598.631 -1.53133 0.372548 0
M  V30 6255 C 599.879 -2.00958 -0.214534 0
M  V30 6256 C 600.2 -1.26135 -1.48711 0
M  V30 6257 O 599.47 -0.376597 -1.92246 0
M  V30 6258 H 598.05 -0.742456 -0.0822664 0
M  V30 6259 H 600.712 -1.88367 0.500385 0
M  V30 6260 H 599.808 -3.09031 -0.436605 0
M  V30 6261 N 600.109 -0.101901 -1.5727 0
M  V30 6262 C 601.357 0.559091 -1.94213 0
M  V30 6263 C 601.678 1.68297 -0.984948 0
M  V30 6264 O 600.948 1.95863 -0.0381975 0
M  V30 6265 H 599.528 0.20952 -0.717015 0
M  V30 6266 H 602.19 -0.166831 -1.94185 0
M  V30 6267 H 601.286 0.96485 -2.96811 0
M  V30 6268 N 601.587 1.56661 0.17182 0
M  V30 6269 C 602.815 1.861 0.904115 0
M  V30 6270 C 603.23 0.687227 1.75848 0
M  V30 6271 O 602.587 -0.343671 1.79235 0
M  V30 6272 C 602.638 3.14568 1.78127 0
M  V30 6273 O 602.359 4.27422 0.961366 0
M  V30 6274 C 603.86 3.5735 2.62327 0
M  V30 6275 H 601.08 0.617445 0.262684 0
M  V30 6276 H 603.624 2.03775 0.172068 0
M  V30 6277 H 601.779 2.98721 2.46666 0
M  V30 6278 H 602.193 5.00725 1.56123 0
M  V30 6279 H 603.667 4.50144 3.1949 0
M  V30 6280 H 604.144 2.81445 3.37173 0
M  V30 6281 H 604.75 3.75807 1.99121 0
M  V30 6282 N 603.065 -0.440357 1.51323 0
M  V30 6283 C 604.013 -1.55492 1.72988 0
M  V30 6284 C 605.007 -1.58564 0.596138 0
M  V30 6285 O 606.213 -1.62345 0.777443 0
M  V30 6286 H 602.588 -0.516532 0.546533 0
M  V30 6287 H 604.559 -1.34392 2.66423 0
M  V30 6288 C 603.308 -2.93176 1.86931 0
M  V30 6289 H 602.631 -2.91543 2.73574 0
M  V30 6290 H 604.071 -3.70537 2.06103 0
M  V30 6291 C 602.53 -3.30988 0.628365 0
M  V30 6292 O 603.06 -4.01106 -0.218367 0
M  V30 6293 N 601.266 -2.86719 0.473339 0
M  V30 6294 H 600.813 -2.2983 1.16345 0
M  V30 6295 H 600.771 -3.12381 -0.355727 0
M  V30 6296 N 604.543 -1.41418 -0.695603 0
M  V30 6297 C 605.771 -1.4413 -1.48439 0
M  V30 6298 C 606.186 -0.0465698 -1.88743 0
M  V30 6299 O 605.543 0.934117 -1.56782 0
M  V30 6300 C 605.594 -2.34998 -2.74696 0
M  V30 6301 O 605.315 -3.69043 -2.36091 0
M  V30 6302 C 606.816 -2.46513 -3.68438 0
M  V30 6303 H 604.036 -0.490905 -0.457442 0
M  V30 6304 H 606.58 -1.85702 -0.856454 0
M  V30 6305 H 604.735 -1.96735 -3.33728 0
M  V30 6306 H 605.149 -4.17505 -3.17474 0
M  V30 6307 H 606.623 -3.1426 -4.53811 0
M  V30 6308 H 607.1 -1.49638 -4.12922 0
M  V30 6309 H 607.706 -2.85412 -3.1531 0
M  V30 6310 N 606.021 0.929856 -1.27246 0
M  V30 6311 C 606.951 2.04722 -1.12299 0
M  V30 6312 C 607.932 1.70082 -0.0250464 0
M  V30 6313 O 609.117 1.93176 -0.199141 0
M  V30 6314 C 606.247 3.38721 -0.767145 0
M  V30 6315 C 605.201 3.87466 -1.81808 0
M  V30 6316 C 604.527 5.18246 -1.31626 0
M  V30 6317 C 605.827 4.11095 -3.22177 0
M  V30 6318 H 607.521 2.17485 -2.05769 0
M  V30 6319 H 605.067 1.04503 -0.990715 0
M  V30 6320 H 607.02 4.16366 -0.649413 0
M  V30 6321 H 605.744 3.25967 0.203259 0
M  V30 6322 H 604.403 3.12012 -1.92468 0
M  V30 6323 H 604.051 5.01881 -0.335378 0
M  V30 6324 H 603.751 5.51829 -2.01887 0
M  V30 6325 H 605.275 5.98462 -1.21143 0
M  V30 6326 H 606.689 4.79316 -3.1453 0
M  V30 6327 H 605.086 4.55982 -3.90129 0
M  V30 6328 H 606.156 3.16468 -3.67391 0
M  V30 6329 N 607.499 1.09233 1.13605 0
M  V30 6330 C 608.745 0.828385 1.8511 0
M  V30 6331 C 609.078 -0.64437 1.83198 0
M  V30 6332 O 608.353 -1.47428 1.26867 0
M  V30 6333 C 608.636 1.36167 3.33363 0
M  V30 6334 C 608.489 2.90038 3.438 0
M  V30 6335 C 609.808 0.993819 4.28732 0
M  V30 6336 H 606.927 0.30239 0.672108 0
M  V30 6337 H 609.569 1.35339 1.33355 0
M  V30 6338 H 607.719 0.9151 3.77569 0
M  V30 6339 H 609.391 3.43128 3.08319 0
M  V30 6340 H 607.634 3.27271 2.84739 0
M  V30 6341 H 608.305 3.22428 4.48045 0
M  V30 6342 H 610.781 1.37893 3.92587 0
M  V30 6343 H 609.657 1.39403 5.30903 0
M  V30 6344 H 609.918 -0.0982206 4.41991 0
M  V30 6345 N 608.977 -1.30795 0.87923 0
M  V30 6346 C 609.907 -2.30742 0.357796 0
M  V30 6347 C 610.888 -1.60747 -0.556283 0
M  V30 6348 O 612.073 -1.88393 -0.47135 0
M  V30 6349 C 609.203 -3.44583 -0.433555 0
M  V30 6350 C 608.157 -4.26235 0.388251 0
M  V30 6351 C 607.483 -5.32073 -0.529352 0
M  V30 6352 C 608.783 -4.96303 1.62729 0
M  V30 6353 H 610.477 -2.74605 1.19299 0
M  V30 6354 H 608.023 -1.32017 0.575104 0
M  V30 6355 H 609.976 -4.13563 -0.808934 0
M  V30 6356 H 608.7 -2.99511 -1.30234 0
M  V30 6357 H 607.359 -3.58936 0.745695 0
M  V30 6358 H 607.007 -4.83249 -1.39569 0
M  V30 6359 H 606.707 -5.87598 0.0166741 0
M  V30 6360 H 608.231 -6.0391 -0.901373 0
M  V30 6361 H 609.645 -5.5783 1.32283 0
M  V30 6362 H 608.042 -5.61666 2.11309 0
M  V30 6363 H 609.112 -4.22758 2.37494 0
M  V30 6364 N 610.455 -0.639598 -1.44038 0
M  V30 6365 C 611.405 0.0823038 -2.27851 0
M  V30 6366 C 612.389 0.807991 -1.39141 0
M  V30 6367 O 613.581 0.692702 -1.62882 0
M  V30 6368 C 610.71 1.05742 -3.26609 0
M  V30 6369 C 609.796 0.330911 -4.22807 0
M  V30 6370 N 610.187 -0.645126 -5.01669 0
M  V30 6371 C 608.485 0.574214 -4.42288 0
M  V30 6372 C 609.186 -1.07513 -5.71678 0
M  V30 6373 N 608.162 -0.412164 -5.42035 0
M  V30 6374 H 611.964 -0.666861 -2.86234 0
M  V30 6375 H 609.478 -0.465777 -1.55577 0
M  V30 6376 H 611.475 1.58927 -3.85419 0
M  V30 6377 H 610.135 1.80679 -2.69787 0
M  V30 6378 H 611.146 -1.02329 -5.0769 0
M  V30 6379 H 607.823 1.30581 -3.96554 0
M  V30 6380 H 609.213 -1.88196 -6.45005 0
M  V30 6381 N 611.933 1.52934 -0.380664 0
M  V30 6382 C 612.881 2.27727 0.47361 0
M  V30 6383 C 613.875 1.31288 1.0705 0
M  V30 6384 O 615.081 1.4886 1.01197 0
M  V30 6385 H 611.456 0.732189 0.171475 0
M  V30 6386 H 613.427 2.97864 -0.178785 0
M  V30 6387 C 612.176 3.0904 1.59341 0
M  V30 6388 H 611.499 3.831 1.14343 0
M  V30 6389 H 612.939 3.64527 2.16555 0
M  V30 6390 C 611.398 2.20813 2.54447 0
M  V30 6391 O 611.928 1.82907 3.57642 0
M  V30 6392 N 610.134 1.85145 2.23986 0
M  V30 6393 H 609.681 2.16169 1.40103 0
M  V30 6394 H 609.639 1.26402 2.87871 0
M  V30 6395 N 613.412 0.11024 1.57214 0
M  V30 6396 C 614.64 -0.557834 1.99238 0
M  V30 6397 C 615.055 -1.60778 0.989734 0
M  V30 6398 O 614.412 -1.82491 -0.0186092 0
M  V30 6399 C 614.463 -1.19189 3.41286 0
M  V30 6400 O 614.184 -0.183919 4.37714 0
M  V30 6401 C 615.685 -1.94413 3.98395 0
M  V30 6402 H 612.905 -0.148392 0.654386 0
M  V30 6403 H 615.449 0.193996 2.03578 0
M  V30 6404 H 613.604 -1.89456 3.37913 0
M  V30 6405 H 614.018 -0.643475 5.20538 0
M  V30 6406 H 615.492 -2.34116 4.99894 0
M  V30 6407 H 615.969 -2.81592 3.3705 0
M  V30 6408 H 616.575 -1.28928 4.05287 0
M  V30 6409 N 614.89 -1.56749 -0.16351 0
M  V30 6410 C 616.13 -1.84234 -0.885271 0
M  V30 6411 C 616.494 -0.692259 -1.79086 0
M  V30 6412 O 617.695 -0.847747 -2.55082 0
M  V30 6413 C 615.966 -3.16857 -1.65337 0
M  V30 6414 S 617.525 -3.65848 -2.42282 0
M  V30 6415 H 614.343 -0.646293 -0.296354 0
M  V30 6416 H 616.945 -1.94951 -0.146365 0
M  V30 6417 H 615.649 -3.98546 -0.979266 0
M  V30 6418 H 615.18 -3.09102 -2.4335 0
M  V30 6419 H 617.195 -3.33796 -3.67143 0
M  V30 6420 N 616.368 0.432326 -1.51554 0
M  V30 6421 C 617.278 1.55023 -1.76082 0
M  V30 6422 C 618.294 1.61593 -0.645265 0
M  V30 6423 O 619.47 1.78742 -0.928086 0
M  V30 6424 C 616.535 2.90964 -1.88523 0
M  V30 6425 C 615.596 2.9447 -3.12388 0
M  V30 6426 C 614.829 4.23926 -3.24225 0
M  V30 6427 O 615.052 5.16576 -2.4188 0
M  V30 6428 O 613.986 4.33818 -4.17235 0
M  V30 6429 H 617.812 1.37238 -2.70923 0
M  V30 6430 H 615.397 0.615845 -1.36117 0
M  V30 6431 H 617.279 3.71633 -1.98662 0
M  V30 6432 H 615.954 3.08865 -0.9687 0
M  V30 6433 H 614.861 2.12737 -3.07723 0
M  V30 6434 H 616.194 2.81514 -4.03746 0
M  V30 6435 N 617.846 1.41785 0.688094 0
M  V30 6436 C 619.123 1.32031 1.44316 0
M  V30 6437 C 619.503 -0.0486079 2.11044 0
M  V30 6438 O 618.851 -1.06332 2.02252 0
M  V30 6439 C 619.061 2.47906 2.45649 0
M  V30 6440 C 620.409 2.89415 3.10683 0
M  V30 6441 O 621.433 2.477 2.55975 0
M  V30 6442 O 620.292 3.61573 4.09789 0
M  V30 6443 H 617.386 0.519994 0.643067 0
M  V30 6444 H 619.932 1.53765 0.71794 0
M  V30 6445 H 618.704 3.39222 1.95048 0
M  V30 6446 H 618.327 2.28089 3.25671 0
M  V30 6447 N 619.324 -0.923095 1.27737 0
M  V30 6448 C 620.549 -1.71054 1.17283 0
M  V30 6449 C 620.974 -1.86208 -0.266153 0
M  V30 6450 O 620.332 -1.36545 -1.1927 0
M  V30 6451 C 620.38 -3.0854 1.86642 0
M  V30 6452 O 619.484 -3.95528 1.16752 0
M  V30 6453 H 618.825 -0.524136 0.407649 0
M  V30 6454 H 621.355 -1.15487 1.6889 0
M  V30 6455 H 621.365 -3.58828 1.94182 0
M  V30 6456 H 620.04 -2.96828 2.91317 0
M  V30 6457 H 618.617 -3.53967 1.17312 0
M  V30 6458 N 620.802 -1.09834 -1.13024 0
M  V30 6459 C 621.732 -0.763451 -2.20666 0
M  V30 6460 C 622.713 0.260778 -1.68089 0
M  V30 6461 O 623.898 0.127915 -1.93778 0
M  V30 6462 C 621.028 -0.187744 -3.46792 0
M  V30 6463 C 619.982 -1.14196 -4.12484 0
M  V30 6464 C 619.308 -0.427755 -5.32986 0
M  V30 6465 C 620.608 -2.48607 -4.59338 0
M  V30 6466 H 622.302 -1.66347 -2.48936 0
M  V30 6467 H 619.848 -0.801261 -1.19649 0
M  V30 6468 H 621.801 0.0586375 -4.21359 0
M  V30 6469 H 620.525 0.747485 -3.17931 0
M  V30 6470 H 619.184 -1.37369 -3.3989 0
M  V30 6471 H 618.832 0.511747 -5.0039 0
M  V30 6472 H 618.532 -1.06403 -5.77886 0
M  V30 6473 H 620.056 -0.189772 -6.10305 0
M  V30 6474 H 621.47 -2.29618 -5.25308 0
M  V30 6475 H 619.867 -3.08062 -5.14993 0
M  V30 6476 H 620.937 -3.09062 -3.73642 0
M  V30 6477 N 622.28 1.30327 -0.886154 0
M  V30 6478 C 623.21 2.30549 -0.370028 0
M  V30 6479 C 624.191 1.61039 0.547751 0
M  V30 6480 O 625.376 1.8864 0.461353 0
M  V30 6481 C 622.506 3.44808 0.415275 0
M  V30 6482 C 621.46 4.26024 -0.41085 0
M  V30 6483 C 620.786 5.32347 0.501128 0
M  V30 6484 C 622.086 4.95433 -1.65359 0
M  V30 6485 H 623.78 2.73969 -1.20754 0
M  V30 6486 H 621.326 1.3171 -0.582097 0
M  V30 6487 H 623.279 4.13986 0.78699 0
M  V30 6488 H 622.003 3.00197 1.28644 0
M  V30 6489 H 620.662 3.58535 -0.764719 0
M  V30 6490 H 620.31 4.83982 1.37004 0
M  V30 6491 H 620.01 5.87581 -0.0478356 0
M  V30 6492 H 621.534 6.0438 0.869333 0
M  V30 6493 H 622.948 5.5712 -1.35239 0
M  V30 6494 H 621.345 5.60537 -2.14284 0
M  V30 6495 H 622.415 4.21493 -2.39733 0
M  V30 6496 N 623.758 0.647228 1.43697 0
M  V30 6497 C 624.721 -0.0385101 2.29168 0
M  V30 6498 C 625.721 -0.756487 1.41894 0
M  V30 6499 O 626.911 -0.598641 1.63591 0
M  V30 6500 C 624.043 -1.06524 3.23829 0
M  V30 6501 H 625.236 0.713445 2.9129 0
M  V30 6502 H 622.789 0.408153 1.50877 0
M  V30 6503 H 623.524 -1.84664 2.66589 0
M  V30 6504 H 623.309 -0.554147 3.88164 0
M  V30 6505 H 624.799 -1.54432 3.87996 0
M  V30 6506 N 625.236 -1.5273 0.388769 0
M  V30 6507 C 626.199 -2.25043 -0.434544 0
M  V30 6508 C 627.199 -1.26661 -0.990644 0
M  V30 6509 O 628.389 -1.50762 -0.872731 0
M  V30 6510 C 625.521 -3.00507 -1.60961 0
M  V30 6511 H 626.714 -2.99242 0.198549 0
M  V30 6512 H 624.267 -1.55664 0.140875 0
M  V30 6513 H 625.002 -2.30607 -2.28015 0
M  V30 6514 H 624.787 -3.72716 -1.21757 0
M  V30 6515 H 626.277 -3.55413 -2.19251 0
M  V30 6516 N 626.714 -0.118576 -1.57153 0
M  V30 6517 C 628.125 0.40687 -1.82213 0
M  V30 6518 C 628.476 1.66636 -1.03571 0
M  V30 6519 O 627.601 2.14682 -0.272171 0
M  V30 6520 C 628.196 0.744949 -3.30509 0
M  V30 6521 C 626.755 1.21503 -3.5625 0
M  V30 6522 C 625.902 0.223511 -2.76398 0
M  V30 6523 H 628.853 -0.343712 -1.54933 0
M  V30 6524 H 628.874 1.6024 -3.45114 0
M  V30 6525 H 628.386 -0.171911 -3.87719 0
M  V30 6526 H 626.487 2.1488 -3.04396 0
M  V30 6527 H 626.6 1.16065 -4.64829 0
M  V30 6528 H 624.964 0.71046 -2.44591 0
M  V30 6529 H 625.747 -0.686439 -3.36367 0
M  V30 6530 N 628.193 1.56834 0.155195 0
M  V30 6531 C 629.442 1.82088 0.867567 0
M  V30 6532 C 629.755 0.69849 1.82703 0
M  V30 6533 O 630.961 0.836407 2.58295 0
M  V30 6534 C 629.417 3.22707 1.59336 0
M  V30 6535 C 629.025 4.42859 0.676719 0
M  V30 6536 C 630.769 3.57242 2.293 0
M  V30 6537 C 628.676 5.74501 1.40367 0
M  V30 6538 H 627.606 0.679057 0.327715 0
M  V30 6539 H 630.257 1.83105 0.120351 0
M  V30 6540 H 628.639 3.16054 2.38591 0
M  V30 6541 H 629.813 4.60731 -0.0800196 0
M  V30 6542 H 628.128 4.16311 0.0859129 0
M  V30 6543 H 630.725 4.52847 2.84312 0
M  V30 6544 H 631.068 2.82901 3.05406 0
M  V30 6545 H 631.601 3.6552 1.56972 0
M  V30 6546 H 628.34 6.51915 0.684623 0
M  V30 6547 H 627.86 5.60579 2.13332 0
M  V30 6548 H 629.539 6.17016 1.94681 0
M  V30 6549 N 629.671 -0.424282 1.51781 0
M  V30 6550 C 630.604 -1.53633 1.68737 0
M  V30 6551 C 631.582 -1.53549 0.534915 0
M  V30 6552 O 632.766 -1.72483 0.760391 0
M  V30 6553 C 629.893 -2.92195 1.71288 0
M  V30 6554 C 628.939 -3.10251 2.92654 0
M  V30 6555 S 629.772 -2.85166 4.53256 0
M  V30 6556 C 630.928 -4.25986 4.58571 0
M  V30 6557 H 631.161 -1.39018 2.62795 0
M  V30 6558 H 628.694 -0.614854 1.41629 0
M  V30 6559 H 630.652 -3.72059 1.73443 0
M  V30 6560 H 629.313 -3.04162 0.783847 0
M  V30 6561 H 628.506 -4.1159 2.90877 0
M  V30 6562 H 628.108 -2.38231 2.88308 0
M  V30 6563 H 630.4 -5.19392 4.35015 0
M  V30 6564 H 631.343 -4.32792 5.60444 0
M  V30 6565 H 631.751 -4.1025 3.87757 0
M  V30 6566 N 631.149 -1.42148 -0.680565 0
M  V30 6567 C 632.079 -1.4796 -1.80638 0
M  V30 6568 C 633.06 -0.336728 -1.66734 0
M  V30 6569 O 634.245 -0.550247 -1.86242 0
M  V30 6570 C 631.375 -1.37569 -3.18892 0
M  V30 6571 C 630.329 -2.49823 -3.47524 0
M  V30 6572 C 629.655 -2.24491 -4.85291 0
M  V30 6573 C 630.955 -3.92144 -3.44994 0
M  V30 6574 H 632.649 -2.42184 -1.76032 0
M  V30 6575 H 630.195 -1.16566 -0.845481 0
M  V30 6576 H 632.148 -1.40243 -3.97379 0
M  V30 6577 H 630.872 -0.398357 -3.24162 0
M  V30 6578 H 629.531 -2.46455 -2.71395 0
M  V30 6579 H 629.179 -1.25066 -4.87204 0
M  V30 6580 H 628.879 -2.99722 -5.05411 0
M  V30 6581 H 630.403 -2.28906 -5.66069 0
M  V30 6582 H 631.817 -3.97145 -4.13459 0
M  V30 6583 H 630.214 -4.67179 -3.76648 0
M  V30 6584 H 631.284 -4.19225 -2.43676 0
M  V30 6585 N 632.627 0.916307 -1.28225 0
M  V30 6586 C 633.904 1.64429 -1.05936 0
M  V30 6587 C 634.284 2.07234 0.402139 0
M  V30 6588 O 633.632 1.81535 1.3877 0
M  V30 6589 C 633.842 2.83773 -2.03159 0
M  V30 6590 C 635.19 3.54852 -2.33164 0
M  V30 6591 O 636.214 2.93918 -2.01223 0
M  V30 6592 O 635.073 4.64663 -2.87664 0
M  V30 6593 H 632.167 0.721221 -0.404683 0
M  V30 6594 H 634.713 0.965838 -1.39534 0
M  V30 6595 H 633.485 2.49217 -3.01673 0
M  V30 6596 H 633.108 3.59333 -1.70192 0
M  V30 6597 N 634.105 1.10431 1.1244 0
M  V30 6598 C 635.035 0.775143 2.20258 0
M  V30 6599 C 636.016 -0.25186 1.68225 0
M  V30 6600 O 637.201 -0.117637 1.93843 0
M  V30 6601 C 634.331 0.206133 3.46688 0
M  V30 6602 C 633.285 1.16382 4.11873 0
M  V30 6603 C 632.611 0.456014 5.32752 0
M  V30 6604 C 633.911 2.5104 4.58013 0
M  V30 6605 H 635.605 1.67665 2.4805 0
M  V30 6606 H 633.151 0.807595 1.19222 0
M  V30 6607 H 635.104 -0.036291 4.21384 0
M  V30 6608 H 633.828 -0.730614 3.18323 0
M  V30 6609 H 632.487 1.39169 3.39157 0
M  V30 6610 H 632.135 -0.485203 5.00654 0
M  V30 6611 H 631.835 1.09466 5.77314 0
M  V30 6612 H 633.359 0.222135 6.10196 0
M  V30 6613 H 634.773 2.32401 5.24083 0
M  V30 6614 H 633.17 3.10789 5.13352 0
M  V30 6615 H 634.24 3.11039 3.71998 0
M  V30 6616 N 635.583 -1.29855 0.893053 0
M  V30 6617 C 636.546 -2.26183 0.370687 0
M  V30 6618 C 637.546 -1.53108 -0.491385 0
M  V30 6619 O 638.736 -1.71643 -0.297386 0
M  V30 6620 C 635.868 -3.37633 -0.470827 0
M  V30 6621 H 637.061 -2.73903 1.22135 0
M  V30 6622 H 634.614 -1.41183 0.67061 0
M  V30 6623 H 635.349 -2.95241 -1.34175 0
M  V30 6624 H 635.134 -3.91825 0.146784 0
M  V30 6625 H 636.624 -4.09313 -0.827825 0
M  V30 6626 N 637.061 -0.65484 -1.43351 0
M  V30 6627 C 637.991 0.0221809 -2.33489 0
M  V30 6628 C 638.972 0.810272 -1.49561 0
M  V30 6629 O 640.157 0.771426 -1.78221 0
M  V30 6630 C 637.287 0.988117 -3.32947 0
M  V30 6631 C 636.241 0.310026 -4.26876 0
M  V30 6632 C 635.567 1.38752 -5.16384 0
M  V30 6633 C 636.867 -0.798589 -5.16159 0
M  V30 6634 H 638.561 -0.730571 -2.9035 0
M  V30 6635 H 636.107 -0.352773 -1.39612 0
M  V30 6636 H 638.06 1.47067 -3.94904 0
M  V30 6637 H 636.784 1.77205 -2.74346 0
M  V30 6638 H 635.443 -0.152097 -3.66284 0
M  V30 6639 H 635.091 2.16293 -4.54121 0
M  V30 6640 H 634.791 0.939051 -5.80048 0
M  V30 6641 H 636.315 1.87141 -5.81215 0
M  V30 6642 H 637.729 -0.398126 -5.71916 0
M  V30 6643 H 636.126 -1.17163 -5.88552 0
M  V30 6644 H 637.196 -1.65588 -4.55751 0
M  V30 6645 N 638.539 1.52521 -0.396863 0
M  V30 6646 C 639.469 2.29582 0.425941 0
M  V30 6647 C 640.45 1.33281 1.05689 0
M  V30 6648 O 641.635 1.62181 1.06823 0
M  V30 6649 C 638.765 3.10821 1.54943 0
M  V30 6650 C 637.719 4.15069 1.04413 0
M  V30 6651 C 637.045 4.84578 2.26028 0
M  V30 6652 C 638.345 5.22191 0.106767 0
M  V30 6653 H 640.039 2.98612 -0.217045 0
M  V30 6654 H 637.585 1.43611 -0.105826 0
M  V30 6655 H 639.538 3.63492 2.13193 0
M  V30 6656 H 638.262 2.39538 2.22011 0
M  V30 6657 H 636.921 3.63389 0.484118 0
M  V30 6658 H 636.569 4.09835 2.91623 0
M  V30 6659 H 636.269 5.55043 1.92876 0
M  V30 6660 H 637.793 5.40056 2.84906 0
M  V30 6661 H 639.207 5.70176 0.597685 0
M  V30 6662 H 637.604 5.99947 -0.135352 0
M  V30 6663 H 638.674 4.77531 -0.842134 0
M  V30 6664 N 640.017 0.126909 1.57088 0
M  V30 6665 C 641.245 -0.53667 1.99819 0
M  V30 6666 C 641.66 -1.5972 1.00673 0
M  V30 6667 O 641.017 -1.825 0.000747365 0
M  V30 6668 C 641.068 -1.15563 3.42531 0
M  V30 6669 O 640.789 -0.137483 4.37884 0
M  V30 6670 C 642.29 -1.90176 4.00435 0
M  V30 6671 H 639.51 -0.141443 0.655923 0
M  V30 6672 H 642.054 0.215578 2.03361 0
M  V30 6673 H 640.209 -1.85861 3.39904 0
M  V30 6674 H 640.623 -0.588229 5.21191 0
M  V30 6675 H 642.097 -2.28801 5.02349 0
M  V30 6676 H 642.574 -2.78002 3.40017 0
M  V30 6677 H 643.18 -1.24623 4.06632 0
M  V30 6678 N 641.495 -1.56914 -0.146875 0
M  V30 6679 C 642.405 -2.0154 -1.20079 0
M  V30 6680 C 643.421 -0.930838 -1.47008 0
M  V30 6681 O 644.597 -1.24032 -1.58676 0
M  V30 6682 C 641.662 -2.38715 -2.51428 0
M  V30 6683 C 640.723 -3.6112 -2.32145 0
M  V30 6684 C 639.956 -3.96512 -3.57231 0
M  V30 6685 O 640.179 -3.32566 -4.63418 0
M  V30 6686 O 639.113 -4.89758 -3.49887 0
M  V30 6687 H 642.939 -2.91506 -0.851924 0
M  V30 6688 H 640.524 -1.45106 -0.355607 0
M  V30 6689 H 642.406 -2.63485 -3.28867 0
M  V30 6690 H 641.081 -1.51903 -2.85845 0
M  V30 6691 H 639.988 -3.41536 -1.52656 0
M  V30 6692 H 641.321 -4.48549 -2.02644 0
M  V30 6693 N 642.974 0.416227 -1.52004 0
M  V30 6694 C 643.904 1.51365 -1.77795 0
M  V30 6695 C 644.885 1.58059 -0.628601 0
M  V30 6696 O 646.07 1.73447 -0.873478 0
M  V30 6697 C 643.2 2.89256 -1.92219 0
M  V30 6698 C 642.154 2.97415 -3.0778 0
M  V30 6699 C 641.48 4.37492 -3.07417 0
M  V30 6700 C 642.78 2.69551 -4.47369 0
M  V30 6701 H 644.474 1.30033 -2.69688 0
M  V30 6702 H 642.02 0.624112 -1.29772 0
M  V30 6703 H 643.973 3.66008 -2.08845 0
M  V30 6704 H 642.697 3.11866 -0.969917 0
M  V30 6705 H 641.356 2.23107 -2.90893 0
M  V30 6706 H 641.004 4.571 -2.09925 0
M  V30 6707 H 640.704 4.43877 -3.85029 0
M  V30 6708 H 642.228 5.16188 -3.26162 0
M  V30 6709 H 643.642 3.36028 -4.64497 0
M  V30 6710 H 642.039 2.87321 -5.26846 0
M  V30 6711 H 643.109 1.65029 -4.55953 0
M  V30 6712 N 644.452 1.42507 0.673017 0
M  V30 6713 C 645.692 1.44559 1.44507 0
M  V30 6714 C 646.056 0.0606206 1.91904 0
M  V30 6715 O 647.257 -0.044139 2.68764 0
M  V30 6716 C 645.528 2.44291 2.60877 0
M  V30 6717 S 647.087 2.65059 3.49699 0
M  V30 6718 H 643.905 0.51181 0.49353 0
M  V30 6719 H 646.507 1.79124 0.783256 0
M  V30 6720 H 645.211 3.43685 2.24297 0
M  V30 6721 H 644.742 2.11157 3.31928 0
M  V30 6722 H 646.757 1.93494 4.56919 0
M  V30 6723 N 645.93 -0.909495 1.28709 0
M  V30 6724 C 646.862 -2.01729 1.08804 0
M  V30 6725 C 647.875 -1.62755 0.0384739 0
M  V30 6726 O 649.064 -1.76259 0.281977 0
M  V30 6727 C 646.164 -3.32952 0.63217 0
M  V30 6728 C 645.337 -4.00512 1.75809 0
M  V30 6729 C 644.396 -5.10019 1.29488 0
M  V30 6730 O 643.422 -5.32986 1.99787 0
M  V30 6731 N 644.624 -5.80278 0.1604 0
M  V30 6732 H 647.389 -2.19362 2.04207 0
M  V30 6733 H 644.95 -1.08106 1.20518 0
M  V30 6734 H 646.942 -4.03543 0.305802 0
M  V30 6735 H 645.512 -3.11759 -0.229134 0
M  V30 6736 H 644.732 -3.23413 2.25383 0
M  V30 6737 H 646.02 -4.42395 2.51325 0
M  V30 6738 H 645.418 -5.64094 -0.425937 0
M  V30 6739 H 643.975 -6.51713 -0.106663 0
M  V30 6740 N 647.408 -1.11026 -1.11852 0
M  V30 6741 C 648.824 -0.843294 -1.35502 0
M  V30 6742 C 649.024 0.534179 -1.9429 0
M  V30 6743 O 648.08 1.28585 -2.17307 0
M  V30 6744 C 649.393 -1.94793 -2.29077 0
M  V30 6745 C 650.941 -1.97709 -2.42652 0
M  V30 6746 C 651.416 -3.07364 -3.39546 0
M  V30 6747 N 652.907 -3.0671 -3.47107 0
M  V30 6748 C 653.642 -3.88197 -4.22008 0
M  V30 6749 N 653.138 -4.79635 -4.99922 0
M  V30 6750 N 654.931 -3.76391 -4.17476 0
M  V30 6751 H 647.082 -1.99805 -0.720538 0
M  V30 6752 H 649.345 -0.868633 -0.379711 0
M  V30 6753 H 649.051 -2.93971 -1.93065 0
M  V30 6754 H 648.925 -1.84039 -3.29256 0
M  V30 6755 H 651.312 -0.991604 -2.77941 0
M  V30 6756 H 651.393 -2.1254 -1.4234 0
M  V30 6757 H 651.037 -4.06136 -3.04985 0
M  V30 6758 H 650.967 -2.89774 -4.39703 0
M  V30 6759 H 653.458 -2.40457 -2.91528 0
M  V30 6760 H 653.771 -5.38357 -5.54429 0
M  V30 6761 H 652.116 -4.8366 -4.99097 0
M  V30 6762 H 655.307 -3.04303 -3.55693 0
M  V30 6763 H 655.48 -4.40131 -4.75593 0
M  V30 6764 N 648.886 1.2938 -0.899927 0
M  V30 6765 C 650.132 1.9584 -0.526742 0
M  V30 6766 C 650.465 1.70774 0.924651 0
M  V30 6767 O 649.74 1.02084 1.65557 0
M  V30 6768 C 650.023 3.50638 -0.820062 0
M  V30 6769 C 649.876 3.85161 -2.32317 0
M  V30 6770 C 651.195 4.3903 -0.30671 0
M  V30 6771 H 648.314 0.711322 -0.192848 0
M  V30 6772 H 650.956 1.52992 -1.12665 0
M  V30 6773 H 649.106 3.87265 -0.309491 0
M  V30 6774 H 650.778 3.58477 -2.9033 0
M  V30 6775 H 649.021 3.32696 -2.78381 0
M  V30 6776 H 649.692 4.93204 -2.47898 0
M  V30 6777 H 652.168 4.09396 -0.743908 0
M  V30 6778 H 651.044 5.46226 -0.541144 0
M  V30 6779 H 651.305 4.34937 0.792588 0
M  V30 6780 N 650.364 0.662433 1.43002 0
M  V30 6781 C 651.589 0.186003 2.06564 0
M  V30 6782 C 652.014 -1.14314 1.49379 0
M  V30 6783 O 651.372 -1.70824 0.607346 0
M  V30 6784 C 651.42 0.118269 3.60406 0
M  V30 6785 O 650.524 -0.916859 4.02079 0
M  V30 6786 H 649.865 0.0990981 0.656563 0
M  V30 6787 H 652.395 0.907958 1.8335 0
M  V30 6788 H 652.405 -0.0619981 4.07953 0
M  V30 6789 H 651.08 1.08849 4.01403 0
M  V30 6790 H 649.657 -0.708635 3.66105 0
M  V30 6791 N 651.842 -1.52309 0.404946 0
M  V30 6792 C 653.089 -2.01767 -0.1722 0
M  V30 6793 C 653.417 -1.29075 -1.45498 0
M  V30 6794 O 652.672 -0.3843 -1.9189 0
M  V30 6795 C 652.971 -3.54284 -0.470895 0
M  V30 6796 C 652.637 -4.45079 0.722194 0
M  V30 6797 C 651.299 -4.69617 1.04946 0
M  V30 6798 C 653.651 -4.98555 1.51962 0
M  V30 6799 C 650.979 -5.44878 2.17543 0
M  V30 6800 C 653.331 -5.75049 2.63632 0
M  V30 6801 C 651.995 -5.9786 2.9685 0
M  V30 6802 H 651.265 -0.738316 -0.0630125 0
M  V30 6803 H 653.912 -1.83566 0.545506 0
M  V30 6804 H 652.217 -3.70642 -1.27012 0
M  V30 6805 H 653.914 -3.90058 -0.930346 0
M  V30 6806 H 650.504 -4.26155 0.457131 0
M  V30 6807 H 654.688 -4.79509 1.28002 0
M  V30 6808 H 649.944 -5.60762 2.43631 0
M  V30 6809 H 654.118 -6.15483 3.25813 0
M  V30 6810 H 651.745 -6.5596 3.84215 0
M  V30 6811 N 653.32 -0.135238 -1.57019 0
M  V30 6812 C 654.56 0.521686 -1.9763 0
M  V30 6813 C 654.924 1.62804 -1.01778 0
M  V30 6814 O 656.125 2.345 -1.31389 0
M  V30 6815 C 654.396 1.0257 -3.42365 0
M  V30 6816 S 655.955 1.68888 -4.04997 0
M  V30 6817 H 652.773 0.169064 -0.690607 0
M  V30 6818 H 655.375 -0.224168 -1.94211 0
M  V30 6819 H 654.079 0.209556 -4.09865 0
M  V30 6820 H 653.61 1.80645 -3.49472 0
M  V30 6821 H 655.625 2.97554 -3.97084 0
M  V30 6822 N 654.798 1.5699 0.138552 0
M  V30 6823 C 656.026 1.87976 0.864437 0
M  V30 6824 C 656.441 0.724372 1.74351 0
M  V30 6825 O 655.798 -0.305575 1.79924 0
M  V30 6826 C 655.849 3.18276 1.71414 0
M  V30 6827 O 655.57 4.29365 0.870487 0
M  V30 6828 C 657.071 3.62834 2.54688 0
M  V30 6829 H 654.291 0.622878 0.249528 0
M  V30 6830 H 656.835 2.04094 0.128805 0
M  V30 6831 H 654.99 3.03886 2.40274 0
M  V30 6832 H 655.404 5.03924 1.45466 0
M  V30 6833 H 656.878 4.5682 3.0987 0
M  V30 6834 H 657.355 2.88533 3.31127 0
M  V30 6835 H 657.961 3.79946 1.91105 0
M  V30 6836 N 656.276 -0.40816 1.52223 0
M  V30 6837 C 657.553 -1.16807 1.56893 0
M  V30 6838 C 657.933 -2.08169 0.350537 0
M  V30 6839 O 657.281 -2.18684 -0.662536 0
M  V30 6840 C 657.491 -1.94451 2.8981 0
M  V30 6841 C 658.839 -2.50484 3.42845 0
M  V30 6842 O 659.863 -2.0463 2.91556 0
M  V30 6843 O 658.722 -3.34192 4.3241 0
M  V30 6844 H 655.816 -0.533382 0.632007 0
M  V30 6845 H 658.362 -0.414862 1.64551 0
M  V30 6846 H 657.134 -1.27527 3.69936 0
M  V30 6847 H 656.757 -2.76775 2.85449 0
M  V30 6848 N 657.755 -1.42862 -0.66545 0
M  V30 6849 C 658.688 -1.41509 -1.79026 0
M  V30 6850 C 659.666 -0.278106 -1.60204 0
M  V30 6851 O 660.85 -0.469792 -1.82552 0
M  V30 6852 C 657.977 -1.21494 -3.1616 0
M  V30 6853 C 657.023 -2.38308 -3.53711 0
M  V30 6854 S 657.856 -4.00852 -3.55075 0
M  V30 6855 C 659.012 -3.83197 -4.94885 0
M  V30 6856 H 659.245 -2.36691 -1.79902 0
M  V30 6857 H 656.778 -1.29746 -0.836977 0
M  V30 6858 H 658.736 -1.10633 -3.95311 0
M  V30 6859 H 657.397 -0.27881 -3.1286 0
M  V30 6860 H 656.59 -2.20076 -4.53412 0
M  V30 6861 H 656.192 -2.45732 -2.81943 0
M  V30 6862 H 658.484 -3.44765 -5.83218 0
M  V30 6863 H 659.427 -4.82607 -5.18166 0
M  V30 6864 H 659.835 -3.15884 -4.67843 0
M  V30 6865 N 659.233 0.902656 -1.29189 0
M  V30 6866 C 660.51 1.63296 -1.07674 0
M  V30 6867 C 660.89 2.07649 0.380137 0
M  V30 6868 O 660.238 1.82997 1.36837 0
M  V30 6869 C 660.448 2.81603 -2.06158 0
M  V30 6870 C 661.796 3.52359 -2.36914 0
M  V30 6871 O 662.82 2.91767 -2.04329 0
M  V30 6872 O 661.679 4.61586 -2.92576 0
M  V30 6873 H 658.773 0.716889 -0.41231 0
M  V30 6874 H 661.319 0.950984 -1.4055 0
M  V30 6875 H 660.091 2.46004 -3.04299 0
M  V30 6876 H 659.714 3.57508 -1.73993 0
M  V30 6877 N 660.711 1.11618 1.11262 0
M  V30 6878 C 662.122 0.881942 1.64556 0
M  V30 6879 C 662.473 -0.585442 1.87262 0
M  V30 6880 O 661.598 -1.44795 1.60821 0
M  V30 6881 C 662.193 1.59446 2.98935 0
M  V30 6882 C 660.752 1.40661 3.4913 0
M  V30 6883 C 659.899 1.63593 2.23903 0
M  V30 6884 H 662.85 1.27217 0.94877 0
M  V30 6885 H 662.871 1.04054 3.65996 0
M  V30 6886 H 662.383 2.66241 2.82378 0
M  V30 6887 H 660.484 0.360835 3.70849 0
M  V30 6888 H 660.597 2.15693 4.27801 0
M  V30 6889 H 658.961 1.05944 2.3162 0
M  V30 6890 H 659.744 2.71666 2.09886 0
M  V30 6891 N 662.189 -1.289 0.906776 0
M  V30 6892 C 663.099 -2.31256 0.394707 0
M  V30 6893 C 664.115 -1.66231 -0.514121 0
M  V30 6894 O 665.291 -1.97347 -0.401994 0
M  V30 6895 C 662.356 -3.44792 -0.363191 0
M  V30 6896 C 661.417 -4.25391 0.578012 0
M  V30 6897 C 660.65 -5.33506 -0.143811 0
M  V30 6898 O 660.873 -5.53786 -1.36665 0
M  V30 6899 O 659.807 -5.99673 0.5173 0
M  V30 6900 H 663.633 -2.77051 1.24405 0
M  V30 6901 H 661.218 -1.33466 0.671346 0
M  V30 6902 H 663.1 -4.139 -0.791503 0
M  V30 6903 H 661.775 -3.01093 -1.18848 0
M  V30 6904 H 660.682 -3.58899 1.05558 0
M  V30 6905 H 662.015 -4.72752 1.36992 0
M  V30 6906 N 663.667 -0.670007 -1.42649 0
M  V30 6907 C 665.078 -0.268118 -1.84765 0
M  V30 6908 C 665.429 1.18877 -1.56086 0
M  V30 6909 O 664.554 1.90947 -1.01825 0
M  V30 6910 C 665.149 -0.47984 -3.35385 0
M  V30 6911 C 663.708 -0.132116 -3.76168 0
M  V30 6912 C 662.855 -0.774611 -2.66261 0
M  V30 6913 H 665.806 -0.872509 -1.32563 0
M  V30 6914 H 665.827 0.269522 -3.79544 0
M  V30 6915 H 665.339 -1.54026 -3.56227 0
M  V30 6916 H 663.44 0.92505 -3.60934 0
M  V30 6917 H 663.553 -0.569294 -4.75706 0
M  V30 6918 H 661.917 -0.206353 -2.53863 0
M  V30 6919 H 662.7 -1.83839 -2.89928 0
M  V30 6920 N 665.145 1.52092 -0.413018 0
M  V30 6921 C 666.077 2.24819 0.445994 0
M  V30 6922 C 667.09 1.27925 1.00692 0
M  V30 6923 O 668.279 1.53845 0.905204 0
M  V30 6924 C 665.379 2.96951 1.6332 0
M  V30 6925 C 664.552 4.20746 1.19548 0
M  V30 6926 C 663.611 4.75668 2.25003 0
M  V30 6927 O 662.637 5.38148 1.85434 0
M  V30 6928 N 663.839 4.57579 3.57214 0
M  V30 6929 H 666.604 2.99176 -0.177209 0
M  V30 6930 H 664.165 1.60102 -0.240601 0
M  V30 6931 H 666.157 3.30586 2.33441 0
M  V30 6932 H 664.727 2.25756 2.16225 0
M  V30 6933 H 663.947 3.92881 0.32224 0
M  V30 6934 H 665.235 5.01132 0.880033 0
M  V30 6935 H 664.633 4.07758 3.92109 0
M  V30 6936 H 663.19 4.95642 4.23299 0
M  V30 6937 N 666.623 0.143563 1.56945 0
M  V30 6938 C 667.851 -0.515447 2.00377 0
M  V30 6939 C 668.266 -1.58643 1.02361 0
M  V30 6940 O 667.623 -1.82489 0.0201039 0
M  V30 6941 C 667.674 -1.11923 3.43737 0
M  V30 6942 O 667.395 -0.0910318 4.38005 0
M  V30 6943 C 668.896 -1.85918 4.02429 0
M  V30 6944 H 666.116 -0.134478 0.657386 0
M  V30 6945 H 668.66 0.237135 2.0312 0
M  V30 6946 H 666.815 -1.82245 3.41856 0
M  V30 6947 H 667.229 -0.532916 5.21786 0
M  V30 6948 H 668.703 -2.2346 5.04747 0
M  V30 6949 H 669.18 -2.7438 3.42947 0
M  V30 6950 H 669.786 -1.20303 4.07931 0
M  V30 6951 N 668.101 -1.57061 -0.130224 0
M  V30 6952 C 669.348 -1.84257 -0.839972 0
M  V30 6953 C 669.676 -0.726986 -1.80403 0
M  V30 6954 O 668.931 0.282632 -1.93648 0
M  V30 6955 C 669.23 -3.17878 -1.63365 0
M  V30 6956 C 668.896 -4.43475 -0.814891 0
M  V30 6957 C 667.558 -4.77581 -0.589066 0
M  V30 6958 C 669.91 -5.20631 -0.243437 0
M  V30 6959 C 667.238 -5.86292 0.218648 0
M  V30 6960 C 669.59 -6.30192 0.551408 0
M  V30 6961 C 668.254 -6.62837 0.787653 0
M  V30 6962 H 667.524 -0.674245 -0.307367 0
M  V30 6963 H 670.171 -1.91224 -0.102832 0
M  V30 6964 H 668.476 -3.06437 -2.44138 0
M  V30 6965 H 670.173 -3.3614 -2.18658 0
M  V30 6966 H 666.763 -4.16747 -1.00098 0
M  V30 6967 H 670.947 -4.94644 -0.405145 0
M  V30 6968 H 666.203 -6.10017 0.411016 0
M  V30 6969 H 670.377 -6.89165 1.00126 0
M  V30 6970 H 668.004 -7.46908 1.41537 0
M  V30 6971 N 669.579 0.400081 -1.52437 0
M  V30 6972 C 670.529 1.48734 -1.72807 0
M  V30 6973 C 671.513 1.50004 -0.582032 0
M  V30 6974 O 672.705 1.55828 -0.839449 0
M  V30 6975 C 669.834 2.86568 -1.89034 0
M  V30 6976 C 668.92 2.8991 -3.09537 0
M  V30 6977 N 669.311 2.62937 -4.32086 0
M  V30 6978 C 667.609 3.21078 -3.09556 0
M  V30 6979 C 668.31 2.73079 -5.13617 0
M  V30 6980 N 667.286 3.06342 -4.49061 0
M  V30 6981 H 671.088 1.26689 -2.65193 0
M  V30 6982 H 668.602 0.607902 -1.50593 0
M  V30 6983 H 670.599 3.64834 -2.01746 0
M  V30 6984 H 669.259 3.09604 -0.978547 0
M  V30 6985 H 670.27 2.37163 -4.60406 0
M  V30 6986 H 666.947 3.49651 -2.28146 0
M  V30 6987 H 668.337 2.55863 -6.21276 0
M  V30 6988 N 671.057 1.43213 0.657864 0
M  V30 6989 C 672.468 1.39669 1.23893 0
M  V30 6990 C 672.819 0.0984217 1.95953 0
M  V30 6991 O 671.944 -0.8023 2.00978 0
M  V30 6992 C 672.539 2.53004 2.25332 0
M  V30 6993 C 671.098 2.5274 2.78926 0
M  V30 6994 C 670.245 2.30941 1.53497 0
M  V30 6995 H 673.196 1.52181 0.450172 0
M  V30 6996 H 673.217 2.24226 3.07413 0
M  V30 6997 H 672.729 3.4748 1.72856 0
M  V30 6998 H 670.83 1.6213 3.35477 0
M  V30 6999 H 670.943 3.50352 3.26787 0
M  V30 7000 H 669.307 1.7952 1.80678 0
M  V30 7001 H 670.09 3.27496 1.02963 0
M  V30 7002 N 672.536 -0.895792 1.29666 0
M  V30 7003 C 673.782 -1.64908 1.18039 0
M  V30 7004 C 674.115 -1.9236 -0.266682 0
M  V30 7005 O 673.39 -1.53682 -1.19214 0
M  V30 7006 C 673.673 -2.99574 1.99819 0
M  V30 7007 C 673.526 -2.79163 3.52687 0
M  V30 7008 C 674.845 -4.00358 1.82761 0
M  V30 7009 H 671.964 -0.598437 0.430165 0
M  V30 7010 H 674.606 -1.03736 1.59182 0
M  V30 7011 H 672.756 -3.51786 1.64859 0
M  V30 7012 H 674.428 -2.33821 3.9765 0
M  V30 7013 H 672.671 -2.13871 3.77414 0
M  V30 7014 H 673.342 -3.74871 4.05186 0
M  V30 7015 H 675.818 -3.57268 2.13304 0
M  V30 7016 H 674.694 -4.92514 2.42325 0
M  V30 7017 H 674.955 -4.35096 0.783839 0
M  V30 7018 N 674.014 -1.12206 -1.10668 0
M  V30 7019 C 674.944 -0.810086 -2.18997 0
M  V30 7020 C 675.925 0.225065 -1.68604 0
M  V30 7021 O 677.11 0.086783 -1.94006 0
M  V30 7022 C 674.24 -0.261262 -3.46316 0
M  V30 7023 C 673.194 -1.2292 -4.09969 0
M  V30 7024 C 672.52 -0.540713 -5.31959 0
M  V30 7025 C 673.82 -2.58295 -4.53962 0
M  V30 7026 H 675.514 -1.7159 -2.45352 0
M  V30 7027 H 673.06 -0.82646 -1.17922 0
M  V30 7028 H 675.013 -0.0307522 -4.21389 0
M  V30 7029 H 673.737 0.679879 -3.19445 0
M  V30 7030 H 672.396 -1.44548 -3.369 0
M  V30 7031 H 672.044 0.405492 -5.01363 0
M  V30 7032 H 671.744 -1.18637 -5.75499 0
M  V30 7033 H 673.268 -0.319184 -6.09765 0
M  V30 7034 H 674.682 -2.40709 -5.20319 0
M  V30 7035 H 673.079 -3.18916 -5.08343 0
M  V30 7036 H 674.149 -3.16918 -3.67002 0
M  V30 7037 N 675.492 1.28418 -0.913599 0
M  V30 7038 C 676.717 1.99643 -0.561899 0
M  V30 7039 C 677.142 1.67819 0.849608 0
M  V30 7040 O 676.5 0.910503 1.56779 0
M  V30 7041 C 676.548 3.52116 -0.777622 0
M  V30 7042 O 675.652 4.12076 0.163457 0
M  V30 7043 H 674.993 0.627229 -0.217898 0
M  V30 7044 H 677.523 1.63575 -1.229 0
M  V30 7045 H 677.533 4.02163 -0.687666 0
M  V30 7046 H 676.208 3.74613 -1.8066 0
M  V30 7047 H 674.785 3.72892 0.0247827 0
M  V30 7048 N 676.97 0.677563 1.42291 0
M  V30 7049 C 677.9 0.014968 2.33495 0
M  V30 7050 C 678.881 -0.786376 1.50831 0
M  V30 7051 O 680.066 -0.742975 1.79426 0
M  V30 7052 C 677.196 -0.935023 3.34477 0
M  V30 7053 C 676.15 -0.242074 4.27315 0
M  V30 7054 C 675.476 -1.30519 5.18526 0
M  V30 7055 C 676.776 0.880604 5.14823 0
M  V30 7056 H 678.47 0.776671 2.89151 0
M  V30 7057 H 676.016 0.37494 1.39033 0
M  V30 7058 H 677.969 -1.40766 3.97194 0
M  V30 7059 H 676.693 -1.72818 2.77131 0
M  V30 7060 H 675.352 0.210351 3.65996 0
M  V30 7061 H 675 -2.09041 4.57505 0
M  V30 7062 H 674.7 -0.846652 5.81468 0
M  V30 7063 H 676.224 -1.7787 5.84119 0
M  V30 7064 H 677.638 0.489062 5.7121 0
M  V30 7065 H 676.035 1.26511 5.86613 0
M  V30 7066 H 677.105 1.72818 4.53059 0
M  V30 7067 N 678.448 -1.51871 0.421078 0
M  V30 7068 C 679.378 -2.30231 -0.389363 0
M  V30 7069 C 680.359 -1.34946 -1.03555 0
M  V30 7070 O 681.544 -1.63859 -1.04229 0
M  V30 7071 C 678.674 -3.13247 -1.49979 0
M  V30 7072 C 677.628 -4.16677 -0.977966 0
M  V30 7073 C 676.954 -4.88112 -2.1829 0
M  V30 7074 C 678.254 -5.22295 -0.0236775 0
M  V30 7075 H 679.948 -2.98229 0.264524 0
M  V30 7076 H 677.494 -1.43424 0.12866 0
M  V30 7077 H 679.447 -3.66838 -2.07383 0
M  V30 7078 H 678.171 -2.4304 -2.18173 0
M  V30 7079 H 676.83 -3.64114 -0.426245 0
M  V30 7080 H 676.478 -4.14423 -2.85066 0
M  V30 7081 H 676.178 -5.58041 -1.84021 0
M  V30 7082 H 677.702 -5.44521 -2.76278 0
M  V30 7083 H 679.116 -5.71055 -0.506899 0
M  V30 7084 H 677.513 -5.99656 0.230782 0
M  V30 7085 H 678.583 -4.76131 0.917999 0
M  V30 7086 N 679.926 -0.151884 -1.56866 0
M  V30 7087 C 681.151 0.508044 -2.01081 0
M  V30 7088 C 681.576 1.57306 -1.03134 0
M  V30 7089 O 680.934 1.81298 -0.0078309 0
M  V30 7090 C 680.982 1.08106 -3.44014 0
M  V30 7091 O 680.086 2.19577 -3.49084 0
M  V30 7092 H 679.427 0.123757 -0.652365 0
M  V30 7093 H 681.957 -0.250055 -2.03066 0
M  V30 7094 H 681.967 1.40851 -3.82916 0
M  V30 7095 H 680.642 0.301168 -4.14808 0
M  V30 7096 H 679.219 1.88023 -3.22027 0
M  V30 7097 N 681.404 1.57128 0.121893 0
M  V30 7098 C 682.651 1.847 0.830188 0
M  V30 7099 C 682.979 0.736543 1.80015 0
M  V30 7100 O 682.234 -0.272358 1.93796 0
M  V30 7101 C 682.533 3.1874 1.61677 0
M  V30 7102 C 682.199 4.43901 0.791361 0
M  V30 7103 C 680.861 4.77887 0.563731 0
M  V30 7104 C 683.213 5.20753 0.215823 0
M  V30 7105 C 680.541 5.86168 -0.249737 0
M  V30 7106 C 682.893 6.29891 -0.584821 0
M  V30 7107 C 681.557 6.6241 -0.822794 0
M  V30 7108 H 680.827 0.675866 0.303787 0
M  V30 7109 H 683.474 1.91276 0.0926894 0
M  V30 7110 H 681.779 3.07728 2.42509 0
M  V30 7111 H 683.476 3.37295 2.16872 0
M  V30 7112 H 680.066 4.17272 0.978867 0
M  V30 7113 H 684.25 4.94851 0.378907 0
M  V30 7114 H 679.506 6.0979 -0.44336 0
M  V30 7115 H 683.68 6.88624 -1.03779 0
M  V30 7116 H 681.307 7.46147 -1.45496 0
M  V30 7117 N 682.882 -0.391992 1.52647 0
M  V30 7118 C 683.812 -1.48517 1.8018 0
M  V30 7119 C 684.793 -1.57039 0.653667 0
M  V30 7120 O 685.978 -1.72036 0.900962 0
M  V30 7121 C 683.108 -2.86161 1.96797 0
M  V30 7122 C 682.062 -2.92481 3.12472 0
M  V30 7123 C 681.388 -4.32546 3.14338 0
M  V30 7124 C 682.688 -2.624 4.51601 0
M  V30 7125 H 684.382 -1.25726 2.71723 0
M  V30 7126 H 681.928 -0.603387 1.30749 0
M  V30 7127 H 683.881 -3.62639 2.14641 0
M  V30 7128 H 682.605 -3.10283 1.01941 0
M  V30 7129 H 681.264 -2.18451 2.94406 0
M  V30 7130 H 680.912 -4.53703 2.1717 0
M  V30 7131 H 680.612 -4.37695 3.92042 0
M  V30 7132 H 682.136 -5.10934 3.34333 0
M  V30 7133 H 683.55 -3.28596 4.69785 0
M  V30 7134 H 681.947 -2.78903 5.3135 0
M  V30 7135 H 683.017 -1.57754 4.58521 0
M  V30 7136 N 684.36 -1.4356 -0.65026 0
M  V30 7137 C 685.607 -1.45333 -1.41012 0
M  V30 7138 C 685.935 -0.0787282 -1.94341 0
M  V30 7139 O 685.19 0.916715 -1.72901 0
M  V30 7140 C 685.489 -2.44528 -2.60654 0
M  V30 7141 C 685.155 -3.90331 -2.25727 0
M  V30 7142 C 683.817 -4.3004 -2.15914 0
M  V30 7143 C 686.169 -4.822 -1.97821 0
M  V30 7144 C 683.497 -5.59568 -1.76354 0
M  V30 7145 C 685.849 -6.12095 -1.59759 0
M  V30 7146 C 684.513 -6.50778 -1.48473 0
M  V30 7147 H 683.783 -0.531813 -0.516 0
M  V30 7148 H 686.43 -1.76657 -0.739219 0
M  V30 7149 H 684.735 -2.06619 -3.3289 0
M  V30 7150 H 686.432 -2.43155 -3.18868 0
M  V30 7151 H 683.022 -3.58905 -2.34276 0
M  V30 7152 H 687.206 -4.5229 -2.04322 0
M  V30 7153 H 682.462 -5.88376 -1.66205 0
M  V30 7154 H 686.636 -6.82751 -1.37198 0
M  V30 7155 H 684.263 -7.5105 -1.17591 0
M  V30 7156 N 685.838 0.888903 -1.30139 0
M  V30 7157 C 686.785 1.99422 -1.16188 0
M  V30 7158 C 687.755 1.66017 -0.0523869 0
M  V30 7159 O 688.94 1.89506 -0.221864 0
M  V30 7160 C 686.08 3.34325 -0.855612 0
M  V30 7161 C 685.193 3.80445 -2.0466 0
M  V30 7162 C 684.328 5.03975 -1.67876 0
M  V30 7163 C 683.367 5.42492 -2.83493 0
M  V30 7164 N 682.504 6.57206 -2.47032 0
M  V30 7165 H 687.344 2.10687 -2.10749 0
M  V30 7166 H 684.881 1.03165 -1.04859 0
M  V30 7167 H 686.839 4.11968 -0.658681 0
M  V30 7168 H 685.469 3.22756 0.0531155 0
M  V30 7169 H 684.521 2.98745 -2.3549 0
M  V30 7170 H 685.833 4.04933 -2.91257 0
M  V30 7171 H 684.987 5.89232 -1.44535 0
M  V30 7172 H 683.726 4.8135 -0.784431 0
M  V30 7173 H 682.731 4.55764 -3.07505 0
M  V30 7174 H 683.956 5.67093 -3.73607 0
M  V30 7175 H 681.902 6.36164 -1.601 0
M  V30 7176 H 681.819 6.81543 -3.27161 0
M  V30 7177 H 683.087 7.45704 -2.27038 0
M  V30 7178 N 687.317 1.12792 1.10072 0
M  V30 7179 C 688.28 0.802264 2.14701 0
M  V30 7180 C 689.28 -0.18515 1.59731 0
M  V30 7181 O 690.47 0.041109 1.74151 0
M  V30 7182 C 687.602 0.19285 3.40354 0
M  V30 7183 H 688.795 1.72932 2.45019 0
M  V30 7184 H 686.348 0.931662 1.25498 0
M  V30 7185 H 687.083 -0.743748 3.15656 0
M  V30 7186 H 686.868 0.903827 3.81541 0
M  V30 7187 H 688.358 -0.0183704 4.17596 0
M  V30 7188 N 688.795 -1.27931 0.920396 0
M  V30 7189 C 690.206 -1.76707 0.602616 0
M  V30 7190 C 690.557 -1.75249 -0.882159 0
M  V30 7191 O 689.682 -1.35135 -1.69019 0
M  V30 7192 C 690.277 -3.20884 1.08714 0
M  V30 7193 C 688.836 -3.67356 0.820157 0
M  V30 7194 C 687.983 -2.47525 1.25006 0
M  V30 7195 H 690.934 -1.14301 1.10095 0
M  V30 7196 H 690.955 -3.78045 0.431535 0
M  V30 7197 H 690.467 -3.21913 2.1678 0
M  V30 7198 H 688.568 -3.7178 -0.247012 0
M  V30 7199 H 688.681 -4.57181 1.43257 0
M  V30 7200 H 687.045 -2.45765 0.668698 0
M  V30 7201 H 687.828 -2.51269 2.3392 0
M  V30 7202 N 690.273 -0.685099 -1.4193 0
M  V30 7203 C 691.203 -0.0273506 -2.33484 0
M  V30 7204 C 692.184 0.778366 -1.51246 0
M  V30 7205 O 693.369 0.733449 -1.79817 0
M  V30 7206 C 690.499 0.917272 -3.34968 0
M  V30 7207 C 689.453 0.21941 -4.27437 0
M  V30 7208 C 688.779 1.27768 -5.1921 0
M  V30 7209 C 690.079 -0.907894 -5.14349 0
M  V30 7210 H 691.773 -0.791994 -2.88735 0
M  V30 7211 H 689.319 -0.382308 -1.38832 0
M  V30 7212 H 691.272 1.38657 -3.97935 0
M  V30 7213 H 689.996 1.71346 -2.78043 0
M  V30 7214 H 688.655 -0.229757 -3.65879 0
M  V30 7215 H 688.303 2.06612 -4.58607 0
M  V30 7216 H 688.003 0.815803 -5.81909 0
M  V30 7217 H 689.527 1.7477 -5.85054 0
M  V30 7218 H 690.941 -0.519348 -5.70943 0
M  V30 7219 H 689.338 -1.2962 -5.85934 0
M  V30 7220 H 690.408 -1.75218 -4.52136 0
M  V30 7221 N 691.751 1.51645 -0.429126 0
M  V30 7222 C 692.997 2.02314 0.140286 0
M  V30 7223 C 693.33 1.31314 1.43074 0
M  V30 7224 O 692.605 0.425531 1.89788 0
M  V30 7225 C 692.888 3.5822 0.36749 0
M  V30 7226 C 692.741 4.39846 -0.941039 0
M  V30 7227 C 694.06 4.25055 1.14089 0
M  V30 7228 H 691.179 0.735335 0.0495112 0
M  V30 7229 H 693.821 1.81358 -0.566514 0
M  V30 7230 H 691.971 3.76207 0.969556 0
M  V30 7231 H 693.643 4.33527 -1.57646 0
M  V30 7232 H 691.886 4.05259 -1.54751 0
M  V30 7233 H 692.557 5.47069 -0.73621 0
M  V30 7234 H 695.033 4.11288 0.630986 0
M  V30 7235 H 693.909 5.34038 1.26863 0
M  V30 7236 H 694.17 3.85358 2.16683 0
M  V30 7237 N 693.229 0.160201 1.56784 0
M  V30 7238 C 694.64 -0.358417 1.83227 0
M  V30 7239 C 694.991 -1.63831 1.07952 0
M  V30 7240 O 694.116 -2.13885 0.328995 0
M  V30 7241 C 694.711 -0.657058 3.32368 0
M  V30 7242 C 693.27 -1.12015 3.59346 0
M  V30 7243 C 692.417 -0.15015 2.76893 0
M  V30 7244 H 695.368 0.384669 1.53967 0
M  V30 7245 H 695.389 -1.51033 3.49241 0
M  V30 7246 H 694.901 0.274647 3.87127 0
M  V30 7247 H 693.002 -2.06734 3.09987 0
M  V30 7248 H 693.115 -1.037 4.67743 0
M  V30 7249 H 691.479 -0.645361 2.46388 0
M  V30 7250 H 692.262 0.775379 3.34429 0
M  V30 7251 N 694.707 -1.5719 -0.113559 0
M  V30 7252 C 696.118 -1.74259 -0.670116 0
M  V30 7253 C 696.469 -0.779694 -1.80042 0
M  V30 7254 O 695.594 0.0461353 -2.16351 0
M  V30 7255 C 696.189 -3.15981 -1.22236 0
M  V30 7256 C 694.748 -3.34537 -1.72516 0
M  V30 7257 C 693.895 -2.70116 -0.627098 0
M  V30 7258 H 696.846 -1.58301 0.112396 0
M  V30 7259 H 696.867 -3.17832 -2.09197 0
M  V30 7260 H 696.379 -3.86038 -0.39949 0
M  V30 7261 H 694.48 -2.6953 -2.57263 0
M  V30 7262 H 694.593 -4.42737 -1.83086 0
M  V30 7263 H 692.957 -2.31501 -1.06204 0
M  V30 7264 H 693.74 -3.42802 0.184889 0
M  V30 7265 N 696.185 0.383891 -1.52853 0
M  V30 7266 C 697.433 1.12619 -1.67814 0
M  V30 7267 C 697.754 1.90354 -0.423141 0
M  V30 7268 O 697.024 1.87649 0.562554 0
M  V30 7269 H 695.604 0.418738 -0.618601 0
M  V30 7270 H 698.266 0.43495 -1.89985 0
M  V30 7271 H 697.362 1.82624 -2.5309 0
M  V30 7272 N 697.663 1.43903 0.642637 0
M  V30 7273 C 698.888 1.49758 1.43483 0
M  V30 7274 C 699.313 0.119911 1.87717 0
M  V30 7275 O 698.671 -0.888558 1.58033 0
M  V30 7276 C 698.719 2.45744 2.63898 0
M  V30 7277 O 697.823 1.95101 3.63331 0
M  V30 7278 H 697.164 0.506138 0.429791 0
M  V30 7279 H 699.694 1.88923 0.785438 0
M  V30 7280 H 699.704 2.63399 3.11584 0
M  V30 7281 H 698.379 3.45818 2.31046 0
M  V30 7282 H 696.956 1.87158 3.22531 0
M  V30 7283 N 699.141 -0.881989 1.30609 0
M  V30 7284 C 700.552 -1.44956 1.17664 0
M  V30 7285 C 700.903 -1.94945 -0.221531 0
M  V30 7286 O 700.028 -1.85257 -1.11844 0
M  V30 7287 C 700.623 -2.63474 2.12995 0
M  V30 7288 C 699.182 -3.16312 2.04019 0
M  V30 7289 C 698.329 -1.89008 2.02907 0
M  V30 7290 H 701.28 -0.691645 1.42835 0
M  V30 7291 H 701.301 -3.39783 1.71253 0
M  V30 7292 H 700.813 -2.2706 3.14746 0
M  V30 7293 H 698.914 -3.57376 1.0542 0
M  V30 7294 H 699.027 -3.79409 2.9255 0
M  V30 7295 H 697.391 -2.07465 1.47751 0
M  V30 7296 H 698.174 -1.54848 3.06394 0
M  V30 7297 N 700.619 -1.13374 -1.09472 0
M  V30 7298 C 701.865 -0.896516 -1.81908 0
M  V30 7299 C 702.198 0.575933 -1.85463 0
M  V30 7300 O 701.473 1.42618 -1.32251 0
M  V30 7301 C 701.756 -1.48445 -3.28079 0
M  V30 7302 C 701.609 -3.02598 -3.32798 0
M  V30 7303 C 702.928 -1.15226 -4.24748 0
M  V30 7304 H 700.047 -0.327127 -0.660422 0
M  V30 7305 H 702.689 -1.40195 -1.2824 0
M  V30 7306 H 700.839 -1.0546 -3.73912 0
M  V30 7307 H 702.511 -3.54335 -2.95372 0
M  V30 7308 H 700.754 -3.37613 -2.72397 0
M  V30 7309 H 701.425 -3.38835 -4.3577 0
M  V30 7310 H 703.901 -1.52369 -3.87199 0
M  V30 7311 H 702.777 -1.59012 -5.25363 0
M  V30 7312 H 703.038 -0.0658891 -4.42051 0
M  V30 7313 N 702.098 1.27442 -0.927168 0
M  V30 7314 C 703.344 1.94679 -0.568164 0
M  V30 7315 C 703.677 1.72697 0.888219 0
M  V30 7316 O 702.952 1.05573 1.63354 0
M  V30 7317 C 703.235 3.4882 -0.894253 0
M  V30 7318 C 703.088 3.80146 -2.40435 0
M  V30 7319 C 704.407 4.38281 -0.399766 0
M  V30 7320 H 701.526 0.707071 -0.207892 0
M  V30 7321 H 704.168 1.50568 -1.15885 0
M  V30 7322 H 702.318 3.86522 -0.391566 0
M  V30 7323 H 703.99 3.52238 -2.97869 0
M  V30 7324 H 702.233 3.26716 -2.85375 0
M  V30 7325 H 702.904 4.87835 -2.58304 0
M  V30 7326 H 705.38 4.07726 -0.83058 0
M  V30 7327 H 704.256 5.44955 -0.656885 0
M  V30 7328 H 704.517 4.36521 0.700153 0
M  V30 7329 N 703.576 0.692616 1.41565 0
M  V30 7330 C 704.524 0.0139952 2.32596 0
M  V30 7331 C 705.518 -0.771691 1.50802 0
M  V30 7332 O 706.724 -0.677646 1.66757 0
M  V30 7333 H 703.099 -0.0142745 0.751865 0
M  V30 7334 H 705.07 0.798851 2.87508 0
M  V30 7335 C 703.819 -0.910602 3.35564 0
M  V30 7336 H 703.142 -0.315446 3.98554 0
M  V30 7337 H 704.582 -1.3538 4.01806 0
M  V30 7338 C 703.041 -2.02539 2.6922 0
M  V30 7339 O 703.571 -3.11386 2.53775 0
M  V30 7340 N 701.777 -1.80227 2.27962 0
M  V30 7341 H 701.324 -0.917054 2.40724 0
M  V30 7342 H 701.282 -2.55001 1.83907 0
M  V30 7343 N 705.054 -1.51416 0.437162 0
M  V30 7344 C 706.017 -2.26312 -0.362729 0
M  V30 7345 C 707.017 -1.29748 -0.949847 0
M  V30 7346 O 708.207 -1.53462 -0.824325 0
M  V30 7347 C 705.339 -3.05475 -1.5132 0
M  V30 7348 H 706.532 -2.98459 0.29365 0
M  V30 7349 H 704.085 -1.55137 0.190327 0
M  V30 7350 H 704.82 -2.37744 -2.20563 0
M  V30 7351 H 704.605 -3.76401 -1.09838 0
M  V30 7352 H 706.095 -3.62209 -2.07833 0
M  V30 7353 N 706.532 -0.168513 -1.56696 0
M  V30 7354 C 707.462 0.758563 -2.20835 0
M  V30 7355 C 708.443 1.24121 -1.1631 0
M  V30 7356 O 709.628 1.29487 -1.4473 0
M  V30 7357 C 706.758 1.9892 -2.8469 0
M  V30 7358 C 705.712 1.64252 -3.95228 0
M  V30 7359 C 705.038 2.94757 -4.46119 0
M  V30 7360 C 706.338 0.872675 -5.14958 0
M  V30 7361 H 708.032 0.223953 -2.98561 0
M  V30 7362 H 705.578 0.106277 -1.43607 0
M  V30 7363 H 707.531 2.64275 -3.28233 0
M  V30 7364 H 706.255 2.5479 -2.04327 0
M  V30 7365 H 704.914 1.01266 -3.52336 0
M  V30 7366 H 704.562 3.48662 -3.62552 0
M  V30 7367 H 704.262 2.72316 -5.2069 0
M  V30 7368 H 705.786 3.61147 -4.92347 0
M  V30 7369 H 707.2 1.42875 -5.55211 0
M  V30 7370 H 705.597 0.747402 -5.95428 0
M  V30 7371 H 706.667 -0.131535 -4.84722 0
M  V30 7372 N 708.01 1.57248 0.105221 0
M  V30 7373 C 709.257 1.8557 0.810552 0
M  V30 7374 C 709.585 0.755595 1.79223 0
M  V30 7375 O 708.84 -0.251788 1.94073 0
M  V30 7376 C 709.139 3.20437 1.58287 0
M  V30 7377 C 708.805 4.44716 0.744235 0
M  V30 7378 C 707.467 4.78458 0.513013 0
M  V30 7379 C 709.819 5.20953 0.160578 0
M  V30 7380 C 707.147 5.8587 -0.311894 0
M  V30 7381 C 709.499 6.29235 -0.651596 0
M  V30 7382 C 708.163 6.615 -0.893005 0
M  V30 7383 H 707.433 0.67905 0.296602 0
M  V30 7384 H 710.08 1.91363 0.0723968 0
M  V30 7385 H 708.385 3.10283 2.39232 0
M  V30 7386 H 710.082 3.39576 2.13282 0
M  V30 7387 H 706.672 4.18287 0.934555 0
M  V30 7388 H 710.856 4.95226 0.3264 0
M  V30 7389 H 706.112 6.09286 -0.508012 0
M  V30 7390 H 710.286 6.87484 -1.11077 0
M  V30 7391 H 707.913 7.44562 -1.53401 0
M  V30 7392 N 709.488 -0.375779 1.53054 0
M  V30 7393 C 710.904 -0.716764 1.426 0
M  V30 7394 C 711.104 -1.93651 0.556931 0
M  V30 7395 O 710.16 -2.52475 0.0354461 0
M  V30 7396 C 711.473 -0.939499 2.85646 0
M  V30 7397 C 713.021 -1.04015 2.95212 0
M  V30 7398 C 713.496 -1.29543 4.39298 0
M  V30 7399 N 714.987 -1.36335 4.42682 0
M  V30 7400 C 715.722 -1.57778 5.51266 0
M  V30 7401 N 715.218 -1.76604 6.69913 0
M  V30 7402 N 717.011 -1.60065 5.38828 0
M  V30 7403 H 709.162 0.42664 2.08071 0
M  V30 7404 H 711.425 0.128758 0.939215 0
M  V30 7405 H 711.131 -0.115189 3.51511 0
M  V30 7406 H 711.005 -1.85048 3.2869 0
M  V30 7407 H 713.392 -1.85501 2.29507 0
M  V30 7408 H 713.473 -0.106785 2.55577 0
M  V30 7409 H 713.117 -0.485611 5.05573 0
M  V30 7410 H 713.047 -2.24184 4.76497 0
M  V30 7411 H 715.538 -1.23441 3.5717 0
M  V30 7412 H 715.851 -1.9251 7.48438 0
M  V30 7413 H 714.196 -1.73802 6.72917 0
M  V30 7414 H 717.387 -1.44917 4.45103 0
M  V30 7415 H 717.56 -1.76435 6.23518 0
M  V30 7416 N 710.966 -1.44241 -0.634997 0
M  V30 7417 C 711.898 -1.46793 -1.76024 0
M  V30 7418 C 712.911 -0.361781 -1.58729 0
M  V30 7419 O 714.1 -0.627297 -1.67114 0
M  V30 7420 C 711.2 -1.28248 -3.13697 0
M  V30 7421 C 710.373 -2.52038 -3.57485 0
M  V30 7422 C 709.432 -2.2845 -4.74022 0
M  V30 7423 O 708.458 -3.01915 -4.82531 0
M  V30 7424 N 709.66 -1.31264 -5.65464 0
M  V30 7425 H 712.425 -2.43797 -1.74307 0
M  V30 7426 H 709.986 -1.39631 -0.819438 0
M  V30 7427 H 711.978 -1.10321 -3.89373 0
M  V30 7428 H 710.548 -0.39623 -3.10079 0
M  V30 7429 H 709.768 -2.85268 -2.72059 0
M  V30 7430 H 711.056 -3.34382 -3.83492 0
M  V30 7431 H 710.454 -0.705817 -5.6128 0
M  V30 7432 H 709.011 -1.19316 -6.40786 0
M  V30 7433 N 712.444 0.87505 -1.31075 0
M  V30 7434 C 713.86 1.15997 -1.09622 0
M  V30 7435 C 714.06 2.01036 0.136611 0
M  V30 7436 O 713.116 2.38559 0.827397 0
M  V30 7437 C 714.429 1.85702 -2.36506 0
M  V30 7438 C 715.977 1.98425 -2.42067 0
M  V30 7439 C 716.452 2.71544 -3.68819 0
M  V30 7440 N 717.943 2.79084 -3.69684 0
M  V30 7441 C 718.678 3.36259 -4.64454 0
M  V30 7442 N 718.174 3.94406 -5.69575 0
M  V30 7443 N 719.967 3.34169 -4.51982 0
M  V30 7444 H 712.118 0.308258 -2.10151 0
M  V30 7445 H 714.381 0.199145 -0.926847 0
M  V30 7446 H 714.087 1.30663 -3.26527 0
M  V30 7447 H 713.961 2.86017 -2.45915 0
M  V30 7448 H 716.348 2.5263 -1.52518 0
M  V30 7449 H 716.429 0.971682 -2.36626 0
M  V30 7450 H 716.073 2.18008 -4.58732 0
M  V30 7451 H 716.003 3.73198 -3.71525 0
M  V30 7452 H 718.494 2.3781 -2.93691 0
M  V30 7453 H 718.807 4.36129 -6.37974 0
M  V30 7454 H 717.152 3.92797 -5.73355 0
M  V30 7455 H 720.343 2.87977 -3.69035 0
M  V30 7456 H 720.516 3.78431 -5.26017 0
M  V30 7457 N 713.922 1.13953 1.08869 0
M  V30 7458 C 715.147 0.928559 1.85452 0
M  V30 7459 C 715.572 -0.517642 1.80837 0
M  V30 7460 O 714.93 -1.36779 1.19001 0
M  V30 7461 C 714.978 1.42814 3.31114 0
M  V30 7462 O 714.082 0.617129 4.07756 0
M  V30 7463 H 713.423 0.33235 0.574839 0
M  V30 7464 H 715.953 1.5156 1.37443 0
M  V30 7465 H 715.963 1.43425 3.8196 0
M  V30 7466 H 714.638 2.48109 3.33788 0
M  V30 7467 H 713.215 0.679365 3.66659 0
M  V30 7468 N 715.4 -1.26948 0.933913 0
M  V30 7469 C 716.64 -1.9585 0.585003 0
M  V30 7470 C 717.004 -1.71722 -0.858802 0
M  V30 7471 O 718.205 -2.34366 -1.31629 0
M  V30 7472 C 716.476 -3.45638 0.909352 0
M  V30 7473 S 718.035 -4.33656 0.669892 0
M  V30 7474 H 714.853 -0.677485 0.215721 0
M  V30 7475 H 717.455 -1.54051 1.20368 0
M  V30 7476 H 716.159 -3.60697 1.9577 0
M  V30 7477 H 715.69 -3.92401 0.280115 0
M  V30 7478 H 717.705 -4.93975 -0.469378 0
M  V30 7479 N 716.879 -0.700114 -1.41195 0
M  V30 7480 C 718.128 -0.230082 -2.00383 0
M  V30 7481 C 718.441 1.17857 -1.56106 0
M  V30 7482 O 719.647 1.74631 -2.07885 0
M  V30 7483 C 718.103 -0.360447 -3.5809 0
M  V30 7484 C 717.711 -1.77475 -4.11347 0
M  V30 7485 C 719.455 0.0495799 -4.24471 0
M  V30 7486 C 717.362 -1.85653 -5.61504 0
M  V30 7487 H 716.292 -0.0822633 -0.749499 0
M  V30 7488 H 718.943 -0.868969 -1.6162 0
M  V30 7489 H 717.325 0.346768 -3.94479 0
M  V30 7490 H 718.499 -2.51109 -3.86369 0
M  V30 7491 H 716.814 -2.13486 -3.57509 0
M  V30 7492 H 719.411 0.00898219 -5.34699 0
M  V30 7493 H 719.754 1.08904 -4.01803 0
M  V30 7494 H 720.287 -0.607521 -3.93134 0
M  V30 7495 H 717.026 -2.87667 -5.89006 0
M  V30 7496 H 716.546 -1.1641 -5.88395 0
M  V30 7497 H 718.225 -1.62151 -6.26351 0
M  V30 7498 N 718.357 1.51182 -0.445186 0
M  V30 7499 C 719.267 2.31692 0.368255 0
M  V30 7500 C 720.283 1.40942 1.02036 0
M  V30 7501 O 721.459 1.74011 1.01401 0
M  V30 7502 C 718.524 3.14903 1.45041 0
M  V30 7503 C 717.585 4.21442 0.817615 0
M  V30 7504 C 716.818 5.00677 1.8482 0
M  V30 7505 O 717.041 4.80644 3.07145 0
M  V30 7506 O 715.975 5.84559 1.43438 0
M  V30 7507 H 719.801 3.0232 -0.289219 0
M  V30 7508 H 717.386 1.47951 -0.207555 0
M  V30 7509 H 719.268 3.66612 2.07783 0
M  V30 7510 H 717.943 2.47031 2.09182 0
M  V30 7511 H 716.85 3.73791 0.151931 0
M  V30 7512 H 718.183 4.9171 0.219564 0
M  V30 7513 N 719.835 0.176821 1.56605 0
M  V30 7514 C 720.783 -0.768159 2.1955 0
M  V30 7515 C 721.777 -1.23343 1.16116 0
M  V30 7516 O 722.983 -1.19844 1.34303 0
M  V30 7517 H 719.358 -0.266013 0.703378 0
M  V30 7518 H 721.329 -0.213374 2.97636 0
M  V30 7519 C 720.078 -1.98492 2.85475 0
M  V30 7520 H 719.401 -1.63595 3.64797 0
M  V30 7521 H 720.841 -2.62489 3.3298 0
M  V30 7522 C 719.3 -2.81207 1.85538 0
M  V30 7523 O 719.83 -3.7854 1.34427 0
M  V30 7524 N 718.036 -2.46331 1.54173 0
M  V30 7525 H 717.583 -1.67241 1.95929 0
M  V30 7526 H 717.541 -3.01961 0.875595 0
M  V30 7527 N 721.313 -1.57302 -0.09688 0
M  V30 7528 C 722.562 -1.85183 -0.799388 0
M  V30 7529 C 722.875 -0.765818 -1.79985 0
M  V30 7530 O 724.081 -0.931696 -2.55013 0
M  V30 7531 C 722.537 -3.28399 -1.47249 0
M  V30 7532 C 722.145 -4.45066 -0.511888 0
M  V30 7533 C 723.889 -3.65506 -2.15883 0
M  V30 7534 C 721.796 -5.79315 -1.18948 0
M  V30 7535 H 720.726 -0.690752 -0.302287 0
M  V30 7536 H 723.377 -1.83425 -0.0523104 0
M  V30 7537 H 721.759 -3.24692 -2.26697 0
M  V30 7538 H 722.933 -4.60116 0.250962 0
M  V30 7539 H 721.248 -4.16343 0.0686576 0
M  V30 7540 H 723.845 -4.63087 -2.67309 0
M  V30 7541 H 724.188 -2.94041 -2.94696 0
M  V30 7542 H 724.721 -3.71094 -1.43298 0
M  V30 7543 H 721.46 -6.54007 -0.442198 0
M  V30 7544 H 720.98 -5.68111 -1.9238 0
M  V30 7545 H 722.659 -6.23816 -1.71646 0
M  V30 7546 N 722.791 0.367657 -1.53252 0
M  V30 7547 C 723.721 1.45632 -1.8252 0
M  V30 7548 C 724.702 1.55979 -0.678568 0
M  V30 7549 O 725.887 1.70581 -0.928217 0
M  V30 7550 C 723.017 2.82994 -2.01325 0
M  V30 7551 C 721.971 2.87473 -3.17086 0
M  V30 7552 C 721.297 4.2749 -3.21179 0
M  V30 7553 C 722.597 2.55182 -4.55719 0
M  V30 7554 H 724.291 1.21387 -2.73689 0
M  V30 7555 H 721.837 0.58251 -1.31692 0
M  V30 7556 H 723.79 3.59179 -2.20383 0
M  V30 7557 H 722.514 3.08622 -1.06864 0
M  V30 7558 H 721.173 2.13739 -2.97844 0
M  V30 7559 H 720.821 4.5019 -2.24361 0
M  V30 7560 H 720.521 4.31403 -3.98955 0
M  V30 7561 H 722.045 5.0555 -3.42419 0
M  V30 7562 H 723.459 3.21081 -4.74953 0
M  V30 7563 H 721.856 2.70414 -5.3572 0
M  V30 7564 H 722.926 1.5044 -4.60973 0
M  V30 7565 N 724.269 1.44576 0.627338 0
M  V30 7566 C 725.685 1.28546 0.945938 0
M  V30 7567 C 725.885 0.224003 2.00251 0
M  V30 7568 O 724.941 -0.388817 2.49488 0
M  V30 7569 C 726.254 2.65825 1.40561 0
M  V30 7570 C 727.802 2.73566 1.52088 0
M  V30 7571 C 728.277 4.11323 2.01438 0
M  V30 7572 N 729.768 4.13519 2.08702 0
M  V30 7573 C 730.503 5.16964 2.48065 0
M  V30 7574 N 729.999 6.30768 2.86538 0
M  V30 7575 N 731.792 5.04319 2.48232 0
M  V30 7576 H 723.943 2.1228 -0.0713567 0
M  V30 7577 H 726.206 0.947503 0.0307081 0
M  V30 7578 H 725.912 3.44591 0.703539 0
M  V30 7579 H 725.786 2.92969 2.37591 0
M  V30 7580 H 728.173 1.95116 2.21391 0
M  V30 7581 H 728.254 2.50159 0.534237 0
M  V30 7582 H 727.898 4.9025 1.32729 0
M  V30 7583 H 727.828 4.32109 3.0098 0
M  V30 7584 H 730.319 3.31385 1.81638 0
M  V30 7585 H 730.632 7.0551 3.15398 0
M  V30 7586 H 728.977 6.342 2.84281 0
M  V30 7587 H 732.168 4.14465 2.17569 0
M  V30 7588 H 732.341 5.85059 2.78585 0
M  V30 7589 N 725.747 -0.868086 1.31537 0
M  V30 7590 C 726.71 -1.95703 1.19302 0
M  V30 7591 C 727.71 -1.60355 0.119612 0
M  V30 7592 O 728.9 -1.70247 0.36902 0
M  V30 7593 C 726.032 -3.30599 0.831684 0
M  V30 7594 H 727.225 -2.07982 2.16064 0
M  V30 7595 H 724.778 -1.05661 1.15176 0
M  V30 7596 H 725.513 -3.2402 -0.134694 0
M  V30 7597 H 725.298 -3.57629 1.60761 0
M  V30 7598 H 726.788 -4.10439 0.770026 0
M  V30 7599 N 727.225 -1.14528 -1.08264 0
M  V30 7600 C 728.465 -0.924808 -1.82282 0
M  V30 7601 C 728.829 0.538881 -1.84283 0
M  V30 7602 O 730.03 0.877355 -2.54079 0
M  V30 7603 C 728.301 -1.51102 -3.23887 0
M  V30 7604 S 729.86 -1.43232 -4.14765 0
M  V30 7605 H 726.678 -0.333052 -0.62817 0
M  V30 7606 H 729.28 -1.45905 -1.30123 0
M  V30 7607 H 727.984 -2.56942 -3.20014 0
M  V30 7608 H 727.515 -0.975234 -3.8112 0
M  V30 7609 H 729.53 -0.418843 -4.94429 0
M  V30 7610 N 728.703 1.26451 -0.940633 0
M  V30 7611 C 729.949 1.94065 -0.58878 0
M  V30 7612 C 730.282 1.7363 0.869853 0
M  V30 7613 O 729.557 1.073 1.62225 0
M  V30 7614 C 729.84 3.47852 -0.931199 0
M  V30 7615 C 729.693 3.77575 -2.44453 0
M  V30 7616 C 731.012 4.37832 -0.446229 0
M  V30 7617 H 728.131 0.704827 -0.21538 0
M  V30 7618 H 730.773 1.4933 -1.17475 0
M  V30 7619 H 728.923 3.86085 -0.432539 0
M  V30 7620 H 730.595 3.49059 -3.01588 0
M  V30 7621 H 728.838 3.23671 -2.88825 0
M  V30 7622 H 729.509 4.85068 -2.63464 0
M  V30 7623 H 731.985 4.06822 -0.873778 0
M  V30 7624 H 730.861 5.44228 -0.714648 0
M  V30 7625 H 731.122 4.37239 0.653815 0
M  V30 7626 N 730.181 0.707592 1.40822 0
M  V30 7627 C 731.429 0.243189 2.00632 0
M  V30 7628 C 731.75 -1.16512 1.56365 0
M  V30 7629 O 731.02 -1.78841 0.799553 0
M  V30 7630 H 729.6 0.0869203 0.741926 0
M  V30 7631 H 732.262 0.911438 1.72275 0
M  V30 7632 H 731.358 0.270014 3.1093 0
M  V30 7633 N 731.66 -1.50943 0.453197 0
M  V30 7634 C 732.59 -2.31005 -0.34044 0
M  V30 7635 C 733.571 -1.37112 -1.00669 0
M  V30 7636 O 734.756 -1.66033 -1.0073 0
M  V30 7637 C 731.886 -3.16358 -1.433 0
M  V30 7638 C 730.84 -4.18658 -0.889363 0
M  V30 7639 C 730.166 -4.92633 -2.07887 0
M  V30 7640 C 731.466 -5.22227 0.0871142 0
M  V30 7641 H 733.16 -2.97601 0.327723 0
M  V30 7642 H 730.706 -1.43119 0.159054 0
M  V30 7643 H 732.659 -3.71155 -1.99555 0
M  V30 7644 H 731.383 -2.47613 -2.12968 0
M  V30 7645 H 730.042 -3.64936 -0.348915 0
M  V30 7646 H 729.69 -4.20376 -2.76211 0
M  V30 7647 H 729.39 -5.61819 -1.72143 0
M  V30 7648 H 730.914 -5.50258 -2.64666 0
M  V30 7649 H 732.328 -5.72001 -0.385656 0
M  V30 7650 H 730.725 -5.99032 0.357926 0
M  V30 7651 H 731.795 -4.74077 1.01879 0
M  V30 7652 N 733.138 -0.185124 -1.56509 0
M  V30 7653 C 734.549 0.329221 -1.83774 0
M  V30 7654 C 734.9 1.62093 -1.10545 0
M  V30 7655 O 734.025 2.13334 -0.36298 0
M  V30 7656 C 734.62 0.604099 -3.33371 0
M  V30 7657 C 733.179 1.06284 -3.61083 0
M  V30 7658 C 732.326 0.10608 -2.77097 0
M  V30 7659 H 735.277 -0.409116 -1.53336 0
M  V30 7660 H 735.298 1.45458 -3.51599 0
M  V30 7661 H 734.81 -0.336201 -3.86641 0
M  V30 7662 H 732.911 2.01777 -3.13236 0
M  V30 7663 H 733.024 0.962453 -4.69333 0
M  V30 7664 H 731.388 0.606082 -2.47384 0
M  V30 7665 H 732.171 -0.828486 -3.33153 0
M  V30 7666 N 734.616 1.57351 0.0885366 0
M  V30 7667 C 736.027 1.75303 0.642308 0
M  V30 7668 C 736.378 0.808238 1.78779 0
M  V30 7669 O 735.503 -0.01171 2.16397 0
M  V30 7670 C 736.098 3.17885 1.17194 0
M  V30 7671 C 734.657 3.37239 1.67172 0
M  V30 7672 C 733.804 2.7108 0.584045 0
M  V30 7673 H 736.755 1.58103 -0.137567 0
M  V30 7674 H 736.776 3.2112 2.04114 0
M  V30 7675 H 736.288 3.86625 0.338024 0
M  V30 7676 H 734.389 2.73588 2.52943 0
M  V30 7677 H 734.502 4.45594 1.76019 0
M  V30 7678 H 732.866 2.33161 1.02508 0
M  V30 7679 H 733.649 3.42464 -0.239403 0
M  V30 7680 N 736.094 -0.359525 1.53444 0
M  V30 7681 C 737.026 -1.46098 1.76602 0
M  V30 7682 C 738.039 -1.49395 0.646912 0
M  V30 7683 O 739.228 -1.52765 0.923307 0
M  V30 7684 C 736.328 -2.84836 1.83635 0
M  V30 7685 C 735.501 -3.05164 3.13358 0
M  V30 7686 C 734.56 -4.24051 3.11556 0
M  V30 7687 O 733.586 -4.18935 3.85334 0
M  V30 7688 N 734.788 -5.31775 2.328 0
M  V30 7689 H 737.553 -1.2661 2.71643 0
M  V30 7690 H 735.114 -0.549294 1.52297 0
M  V30 7691 H 737.106 -3.62516 1.799 0
M  V30 7692 H 735.676 -2.97542 0.958509 0
M  V30 7693 H 734.896 -2.15091 3.30348 0
M  V30 7694 H 736.184 -3.15619 3.99076 0
M  V30 7695 H 735.582 -5.38796 1.7238 0
M  V30 7696 H 734.139 -6.0801 2.34877 0
M  V30 7697 N 737.572 -1.44907 -0.619662 0
M  V30 7698 C 738.52 -1.52971 -1.75222 0
M  V30 7699 C 739.514 -0.400531 -1.64597 0
M  V30 7700 O 740.72 -0.575952 -1.70537 0
M  V30 7701 H 737.095 -0.480241 -0.578682 0
M  V30 7702 H 739.066 -2.48269 -1.65545 0
M  V30 7703 C 737.815 -1.50204 -3.13583 0
M  V30 7704 H 737.138 -2.36412 -3.22412 0
M  V30 7705 H 738.578 -1.59905 -3.92691 0
M  V30 7706 C 737.037 -0.22455 -3.36151 0
M  V30 7707 O 737.567 0.700574 -3.95544 0
M  V30 7708 N 735.773 -0.124052 -2.90335 0
M  V30 7709 H 735.32 -0.87774 -2.42185 0
M  V30 7710 H 735.278 0.729914 -3.0581 0
M  V30 7711 N 739.05 0.861098 -1.31996 0
M  V30 7712 C 740 1.95703 -1.1698 0
M  V30 7713 C 740.984 1.60709 -0.0784201 0
M  V30 7714 O 742.176 1.74365 -0.304262 0
M  V30 7715 C 739.305 3.31606 -0.888388 0
M  V30 7716 C 738.391 3.7284 -2.02117 0
M  V30 7717 N 738.782 3.85957 -3.26911 0
M  V30 7718 C 737.08 4.02419 -1.92289 0
M  V30 7719 C 737.781 4.21333 -4.01065 0
M  V30 7720 N 736.757 4.32502 -3.29307 0
M  V30 7721 H 740.559 2.03968 -2.11599 0
M  V30 7722 H 738.073 1.05245 -1.23682 0
M  V30 7723 H 740.07 4.09881 -0.761782 0
M  V30 7724 H 738.73 3.24662 0.0494898 0
M  V30 7725 H 739.741 3.70449 -3.61923 0
M  V30 7726 H 736.418 4.03814 -1.06022 0
M  V30 7727 H 737.808 4.39005 -5.08649 0
M  V30 7728 N 740.528 1.15101 1.07655 0
M  V30 7729 C 741.461 0.788522 2.14144 0
M  V30 7730 C 742.439 -0.233635 1.60913 0
M  V30 7731 O 743.623 -0.120908 1.88112 0
M  V30 7732 C 740.75 0.172033 3.38263 0
M  V30 7733 C 739.796 1.16559 4.10264 0
M  V30 7734 S 740.629 2.70627 4.62084 0
M  V30 7735 C 741.785 2.10389 5.8948 0
M  V30 7736 H 742.018 1.69047 2.44561 0
M  V30 7737 H 739.551 0.973033 1.19881 0
M  V30 7738 H 741.509 -0.177223 4.10117 0
M  V30 7739 H 740.17 -0.707468 3.06029 0
M  V30 7740 H 739.363 0.6824 4.99359 0
M  V30 7741 H 738.965 1.45923 3.44358 0
M  V30 7742 H 741.257 1.46405 6.61492 0
M  V30 7743 H 742.2 2.97639 6.42508 0
M  V30 7744 H 742.608 1.54816 5.42856 0
M  V30 7745 N 742.006 -1.2595 0.947325 0
M  V30 7746 C 742.936 -2.28521 0.479604 0
M  V30 7747 C 743.917 -1.63469 -0.470293 0
M  V30 7748 O 745.102 -1.90627 -0.370824 0
M  V30 7749 C 742.232 -3.46397 -0.250289 0
M  V30 7750 C 741.186 -4.23578 0.613643 0
M  V30 7751 C 740.512 -5.34131 -0.246568 0
M  V30 7752 C 741.812 -4.86979 1.88809 0
M  V30 7753 H 743.506 -2.67895 1.33688 0
M  V30 7754 H 741.052 -1.28783 0.644274 0
M  V30 7755 H 743.005 -4.17269 -0.588576 0
M  V30 7756 H 741.729 -3.05993 -1.14175 0
M  V30 7757 H 740.388 -3.54478 0.93491 0
M  V30 7758 H 740.036 -4.89968 -1.13756 0
M  V30 7759 H 739.736 -5.86683 0.328123 0
M  V30 7760 H 741.26 -6.07839 -0.579986 0
M  V30 7761 H 742.674 -5.50034 1.61666 0
M  V30 7762 H 741.071 -5.49675 2.40784 0
M  V30 7763 H 742.141 -4.09575 2.5957 0
M  V30 7764 N 743.484 -0.715051 -1.40445 0
M  V30 7765 C 744.414 -0.0768699 -2.33373 0
M  V30 7766 C 745.395 0.746109 -1.52863 0
M  V30 7767 O 746.58 0.695142 -1.81332 0
M  V30 7768 C 743.71 0.846014 -3.36838 0
M  V30 7769 C 742.664 0.128694 -4.27806 0
M  V30 7770 C 741.99 1.16726 -5.21804 0
M  V30 7771 C 743.29 -1.01679 -5.12307 0
M  V30 7772 H 744.984 -0.853061 -2.8699 0
M  V30 7773 H 742.53 -0.41167 -1.3799 0
M  V30 7774 H 744.483 1.30185 -4.00786 0
M  V30 7775 H 743.207 1.6541 -2.81615 0
M  V30 7776 H 741.866 -0.307314 -3.6531 0
M  V30 7777 H 741.514 1.96838 -4.62887 0
M  V30 7778 H 741.214 0.692188 -5.83509 0
M  V30 7779 H 742.738 1.62321 -5.88629 0
M  V30 7780 H 744.152 -0.640337 -5.69713 0
M  V30 7781 H 742.549 -1.4202 -5.83053 0
M  V30 7782 H 743.619 -1.84769 -4.48317 0
M  V30 7783 N 744.962 1.50701 -0.461195 0
M  V30 7784 C 745.872 2.32069 0.343661 0
M  V30 7785 C 746.888 1.42016 1.00535 0
M  V30 7786 O 748.064 1.75077 0.995498 0
M  V30 7787 C 745.129 3.16424 1.41692 0
M  V30 7788 C 744.19 4.22286 0.772869 0
M  V30 7789 C 743.423 5.02609 1.79499 0
M  V30 7790 O 743.646 4.83874 3.0203 0
M  V30 7791 O 742.58 5.86047 1.3723 0
M  V30 7792 H 746.406 3.01996 -0.321268 0
M  V30 7793 H 743.991 1.47723 -0.223235 0
M  V30 7794 H 745.873 3.68795 2.03883 0
M  V30 7795 H 744.548 2.49236 2.0655 0
M  V30 7796 H 743.455 3.73931 0.112277 0
M  V30 7797 H 744.788 4.91915 0.167399 0
M  V30 7798 N 746.441 0.193421 1.56409 0
M  V30 7799 C 747.391 -0.74089 2.15627 0
M  V30 7800 C 748.375 -1.17747 1.09656 0
M  V30 7801 O 749.567 -1.13615 1.35723 0
M  V30 7802 C 746.696 -1.96091 2.81786 0
M  V30 7803 C 745.782 -1.54531 3.94944 0
M  V30 7804 N 746.173 -0.840569 4.98767 0
M  V30 7805 C 744.471 -1.83473 4.06514 0
M  V30 7806 C 745.172 -0.632571 5.7825 0
M  V30 7807 N 744.148 -1.18078 5.30621 0
M  V30 7808 H 747.95 -0.193718 2.93261 0
M  V30 7809 H 745.464 -0.00643211 1.62399 0
M  V30 7810 H 747.461 -2.64071 3.22602 0
M  V30 7811 H 746.121 -2.51282 2.05639 0
M  V30 7812 H 747.132 -0.496218 5.15517 0
M  V30 7813 H 743.809 -2.40184 3.41493 0
M  V30 7814 H 745.199 -0.0736433 6.7186 0
M  V30 7815 N 747.919 -1.57396 -0.0801906 0
M  V30 7816 C 748.866 -2.03107 -1.09618 0
M  V30 7817 C 749.836 -0.910118 -1.38946 0
M  V30 7818 O 751.021 -1.17719 -1.50156 0
M  V30 7819 C 748.161 -2.47293 -2.40708 0
M  V30 7820 C 747.274 -3.72972 -2.17982 0
M  V30 7821 C 746.409 -4.05975 -3.42576 0
M  V30 7822 C 745.448 -5.24719 -3.15177 0
M  V30 7823 N 744.585 -5.53401 -4.32078 0
M  V30 7824 H 749.425 -2.89677 -0.69939 0
M  V30 7825 H 746.962 -1.43263 -0.333785 0
M  V30 7826 H 748.92 -2.7096 -3.17232 0
M  V30 7827 H 747.55 -1.63713 -2.78205 0
M  V30 7828 H 746.602 -3.56693 -1.32189 0
M  V30 7829 H 747.914 -4.59638 -1.93738 0
M  V30 7830 H 747.068 -4.30498 -4.275 0
M  V30 7831 H 745.807 -3.17859 -3.69887 0
M  V30 7832 H 744.812 -5 -2.28648 0
M  V30 7833 H 746.037 -6.14445 -2.89197 0
M  V30 7834 H 743.983 -4.68245 -4.59437 0
M  V30 7835 H 743.9 -6.34469 -4.11078 0
M  V30 7836 H 745.168 -5.8247 -5.18024 0
M  V30 7837 N 749.397 0.351382 -1.53633 0
M  V30 7838 C 750.33 1.45407 -1.75875 0
M  V30 7839 C 751.308 1.50822 -0.607566 0
M  V30 7840 O 752.492 1.68658 -0.841818 0
M  V30 7841 C 749.619 2.8369 -1.85034 0
M  V30 7842 C 748.665 2.95935 -3.07123 0
M  V30 7843 S 749.498 2.63215 -4.66345 0
M  V30 7844 C 750.654 4.03622 -4.78373 0
M  V30 7845 H 750.887 1.26322 -2.69128 0
M  V30 7846 H 748.42 0.546581 -1.44402 0
M  V30 7847 H 750.378 3.6336 -1.90996 0
M  V30 7848 H 749.039 3.00076 -0.928074 0
M  V30 7849 H 748.232 3.97243 -3.10183 0
M  V30 7850 H 747.834 2.24205 -2.99346 0
M  V30 7851 H 750.126 4.98046 -4.593 0
M  V30 7852 H 751.069 4.05559 -5.80454 0
M  V30 7853 H 751.477 3.91282 -4.06889 0
M  V30 7854 N 750.875 1.45233 0.611969 0
M  V30 7855 C 751.785 1.56098 1.7513 0
M  V30 7856 C 752.801 0.445646 1.68196 0
M  V30 7857 O 753.977 0.705718 1.88631 0
M  V30 7858 C 751.042 1.52052 3.11579 0
M  V30 7859 C 750.103 2.74589 3.29999 0
M  V30 7860 C 749.336 2.70726 4.59938 0
M  V30 7861 O 749.559 1.77806 5.41979 0
M  V30 7862 O 748.493 3.61864 4.80976 0
M  V30 7863 H 752.319 2.52392 1.68914 0
M  V30 7864 H 749.904 1.27695 0.775528 0
M  V30 7865 H 751.786 1.52387 3.92882 0
M  V30 7866 H 750.461 0.589085 3.18295 0
M  V30 7867 H 749.368 2.79817 2.48301 0
M  V30 7868 H 750.701 3.66843 3.28157 0
M  V30 7869 N 752.353 -0.854086 1.3245 0
M  V30 7870 C 753.769 -1.14238 1.11453 0
M  V30 7871 C 753.969 -2.01228 -0.10461 0
M  V30 7872 O 753.025 -2.39845 -0.789339 0
M  V30 7873 C 754.338 -1.81916 2.39431 0
M  V30 7874 C 755.886 -1.94549 2.45193 0
M  V30 7875 C 756.361 -2.65642 3.73093 0
M  V30 7876 N 757.852 -2.73167 3.74078 0
M  V30 7877 C 758.587 -3.28828 4.69744 0
M  V30 7878 N 758.083 -3.85295 5.75778 0
M  V30 7879 N 759.876 -3.26936 4.57241 0
M  V30 7880 H 752.027 -0.274786 2.10615 0
M  V30 7881 H 754.29 -0.184375 0.929898 0
M  V30 7882 H 753.996 -1.25452 3.28565 0
M  V30 7883 H 753.87 -2.82068 2.50434 0
M  V30 7884 H 756.257 -2.50172 1.56518 0
M  V30 7885 H 756.338 -0.933914 2.38142 0
M  V30 7886 H 755.982 -2.10683 4.62142 0
M  V30 7887 H 755.912 -3.6724 3.77415 0
M  V30 7888 H 758.403 -2.33108 2.97438 0
M  V30 7889 H 758.716 -4.25925 6.44832 0
M  V30 7890 H 757.061 -3.83625 5.79531 0
M  V30 7891 H 760.252 -2.8207 3.7357 0
M  V30 7892 H 760.425 -3.70014 5.31971 0
M  V30 7893 N 753.831 -1.1567 -1.07043 0
M  V30 7894 C 755.242 -0.942408 -1.61169 0
M  V30 7895 C 755.593 0.515537 -1.89306 0
M  V30 7896 O 754.718 1.38726 -1.66084 0
M  V30 7897 C 755.313 -1.70431 -2.92812 0
M  V30 7898 C 753.872 -1.53521 -3.43669 0
M  V30 7899 C 753.019 -1.7179 -2.17678 0
M  V30 7900 H 755.97 -1.3065 -0.9009 0
M  V30 7901 H 755.991 -1.17566 -3.61882 0
M  V30 7902 H 755.503 -2.76538 -2.72302 0
M  V30 7903 H 753.604 -0.498224 -3.69254 0
M  V30 7904 H 753.717 -2.31422 -4.19501 0
M  V30 7905 H 752.081 -1.14468 -2.27529 0
M  V30 7906 H 752.864 -2.79269 -1.99659 0
M  V30 7907 N 755.309 1.25446 -0.953992 0
M  V30 7908 C 756.557 1.92762 -0.607227 0
M  V30 7909 C 756.878 1.7509 0.858399 0
M  V30 7910 O 756.148 1.11416 1.61132 0
M  V30 7911 H 754.728 0.713377 -0.221591 0
M  V30 7912 H 757.39 1.52625 -1.21209 0
M  V30 7913 H 756.486 3.00695 -0.835998 0
M  V30 7914 N 756.787 0.722489 1.40064 0
M  V30 7915 C 758.198 0.336507 1.83642 0
M  V30 7916 C 758.549 -1.13002 1.6039 0
M  V30 7917 O 757.674 -1.87036 1.08842 0
M  V30 7918 C 758.269 0.603985 3.33373 0
M  V30 7919 C 756.828 0.271637 3.75419 0
M  V30 7920 C 755.975 0.872898 2.63203 0
M  V30 7921 H 758.926 0.921108 1.29233 0
M  V30 7922 H 758.947 -0.128471 3.80283 0
M  V30 7923 H 758.459 1.67141 3.50265 0
M  V30 7924 H 756.56 -0.790455 3.64119 0
M  V30 7925 H 756.673 0.745457 4.73265 0
M  V30 7926 H 755.037 0.300431 2.52922 0
M  V30 7927 H 755.82 1.94473 2.82905 0
M  V30 7928 N 758.265 -1.50454 0.469181 0
M  V30 7929 C 759.49 -2.0722 -0.0864892 0
M  V30 7930 C 759.915 -1.33098 -1.32916 0
M  V30 7931 O 759.273 -0.378084 -1.77314 0
M  V30 7932 C 759.321 -3.58845 -0.355384 0
M  V30 7933 O 758.425 -3.86583 -1.43622 0
M  V30 7934 H 757.766 -0.663889 0.0121414 0
M  V30 7935 H 760.296 -1.93674 0.659674 0
M  V30 7936 H 760.306 -4.03617 -0.596447 0
M  V30 7937 H 758.981 -4.12211 0.552698 0
M  V30 7938 H 757.558 -3.5365 -1.18262 0
M  V30 7939 N 759.743 -0.201713 -1.56304 0
M  V30 7940 C 760.673 0.71155 -2.22394 0
M  V30 7941 C 761.654 1.21625 -1.18917 0
M  V30 7942 O 762.839 1.26388 -1.47444 0
M  V30 7943 C 759.969 1.92837 -2.88845 0
M  V30 7944 C 758.923 1.55831 -3.98623 0
M  V30 7945 C 758.249 2.85228 -4.52271 0
M  V30 7946 C 759.549 0.763249 -5.16693 0
M  V30 7947 H 761.243 0.160573 -2.98969 0
M  V30 7948 H 758.789 0.0757916 -1.438 0
M  V30 7949 H 760.742 2.57253 -3.33764 0
M  V30 7950 H 759.466 2.50398 -2.09686 0
M  V30 7951 H 758.125 0.9377 -3.54405 0
M  V30 7952 H 757.773 3.40893 -3.69866 0
M  V30 7953 H 757.473 2.6121 -5.26349 0
M  V30 7954 H 758.997 3.50622 -4.99897 0
M  V30 7955 H 760.411 1.31066 -5.58117 0
M  V30 7956 H 758.808 0.620935 -5.96879 0
M  V30 7957 H 759.878 -0.234322 -4.84334 0
M  V30 7958 N 761.222 1.57436 0.0718424 0
M  V30 7959 C 762.169 2.03686 1.08539 0
M  V30 7960 C 763.139 0.917474 1.38462 0
M  V30 7961 O 764.324 1.18513 1.4953 0
M  V30 7962 C 761.464 2.48566 2.39393 0
M  V30 7963 C 760.577 3.74122 2.16001 0
M  V30 7964 C 759.712 4.07786 3.40418 0
M  V30 7965 C 758.751 5.26383 3.1239 0
M  V30 7966 N 757.888 5.55685 4.29138 0
M  V30 7967 H 762.728 2.90043 0.684018 0
M  V30 7968 H 760.265 1.43438 0.326183 0
M  V30 7969 H 762.223 2.72639 3.15791 0
M  V30 7970 H 760.853 1.65186 2.77333 0
M  V30 7971 H 759.905 3.57389 1.30296 0
M  V30 7972 H 761.217 4.60659 1.91298 0
M  V30 7973 H 760.371 4.32759 4.25211 0
M  V30 7974 H 759.11 3.19817 3.68197 0
M  V30 7975 H 758.115 5.01206 2.25993 0
M  V30 7976 H 759.34 6.1597 2.85934 0
M  V30 7977 H 757.286 4.70675 4.56948 0
M  V30 7978 H 757.203 6.3664 4.07708 0
M  V30 7979 H 758.471 5.85209 5.14928 0
M  V30 7980 N 762.7 -0.34323 1.53817 0
M  V30 7981 C 764.116 -0.686355 1.44088 0
M  V30 7982 C 764.316 -1.92426 0.597882 0
M  V30 7983 O 763.372 -2.52343 0.0889918 0
M  V30 7984 C 764.685 -0.878698 2.87575 0
M  V30 7985 C 766.233 -0.977296 2.97352 0
M  V30 7986 C 766.708 -1.20195 4.41947 0
M  V30 7987 N 768.199 -1.26915 4.45474 0
M  V30 7988 C 768.934 -1.46049 5.54488 0
M  V30 7989 N 768.43 -1.62354 6.73508 0
M  V30 7990 N 770.223 -1.48599 5.42102 0
M  V30 7991 H 762.374 0.470679 2.07119 0
M  V30 7992 H 764.637 0.148652 0.936273 0
M  V30 7993 H 764.343 -0.040602 3.51677 0
M  V30 7994 H 764.217 -1.78034 3.32541 0
M  V30 7995 H 766.604 -1.80591 2.3339 0
M  V30 7996 H 766.685 -0.0525498 2.55746 0
M  V30 7997 H 766.329 -0.378262 5.06489 0
M  V30 7998 H 766.259 -2.14027 4.81145 0
M  V30 7999 H 768.75 -1.15837 3.59708 0
M  V30 8000 H 769.063 -1.76591 7.52353 0
M  V30 8001 H 767.408 -1.5949 6.76453 0
M  V30 8002 H 770.599 -1.35443 4.48077 0
M  V30 8003 H 770.772 -1.6317 6.2712 0
M  V30 8004 N 764.178 -1.45556 -0.604258 0
M  V30 8005 C 765.424 -1.49968 -1.36519 0
M  V30 8006 C 765.757 -0.142236 -1.93678 0
M  V30 8007 O 765.032 0.843717 -1.75247 0
M  V30 8008 C 765.315 -2.58146 -2.51063 0
M  V30 8009 C 765.168 -4.03346 -1.99078 0
M  V30 8010 C 766.487 -2.62581 -3.53184 0
M  V30 8011 H 763.606 -0.545993 -0.495036 0
M  V30 8012 H 766.248 -1.77382 -0.680845 0
M  V30 8013 H 764.398 -2.34901 -3.09441 0
M  V30 8014 H 766.07 -4.37811 -1.45323 0
M  V30 8015 H 764.313 -4.13845 -1.30055 0
M  V30 8016 H 764.984 -4.74731 -2.81664 0
M  V30 8017 H 767.46 -2.83419 -3.04652 0
M  V30 8018 H 766.336 -3.40131 -4.30816 0
M  V30 8019 H 766.597 -1.67798 -4.09019 0
M  V30 8020 N 765.656 0.84705 -1.32902 0
M  V30 8021 C 766.904 1.5986 -1.2365 0
M  V30 8022 C 767.225 1.93974 0.199789 0
M  V30 8023 O 766.495 1.60273 1.12648 0
M  V30 8024 H 765.075 0.592696 -0.454665 0
M  V30 8025 H 767.737 1.01278 -1.66519 0
M  V30 8026 H 766.833 2.53218 -1.82448 0
M  V30 8027 N 767.134 1.16236 1.06428 0
M  V30 8028 C 768.545 0.950942 1.60667 0
M  V30 8029 C 768.896 -0.505491 1.89576 0
M  V30 8030 O 768.021 -1.37843 1.66818 0
M  V30 8031 C 768.616 1.71982 2.91904 0
M  V30 8032 C 767.175 1.55342 3.4285 0
M  V30 8033 C 766.322 1.72942 2.16763 0
M  V30 8034 H 769.273 1.31126 0.893959 0
M  V30 8035 H 769.294 1.19483 3.61253 0
M  V30 8036 H 768.806 2.77978 2.70831 0
M  V30 8037 H 766.907 0.5178 3.68985 0
M  V30 8038 H 767.02 2.33643 4.18267 0
M  V30 8039 H 765.384 1.15673 2.26918 0
M  V30 8040 H 766.167 2.80324 1.98175 0
M  V30 8041 N 768.612 -1.24939 0.960631 0
M  V30 8042 C 769.858 -1.93104 0.61958 0
M  V30 8043 C 770.191 -1.74991 -0.84212 0
M  V30 8044 O 769.466 -1.09867 -1.60498 0
M  V30 8045 C 769.749 -3.46326 0.986422 0
M  V30 8046 C 769.602 -3.73638 2.50429 0
M  V30 8047 C 770.921 -4.37067 0.515827 0
M  V30 8048 H 768.04 -0.701311 0.226566 0
M  V30 8049 H 770.682 -1.47442 1.19836 0
M  V30 8050 H 768.832 -3.85348 0.493907 0
M  V30 8051 H 770.504 -3.44217 3.07103 0
M  V30 8052 H 768.747 -3.19035 2.93937 0
M  V30 8053 H 769.418 -4.80815 2.71147 0
M  V30 8054 H 771.894 -4.05381 0.938389 0
M  V30 8055 H 770.77 -5.43022 0.80114 0
M  V30 8056 H 771.031 -4.38224 -0.584171 0
M  V30 8057 N 770.09 -0.729906 -1.39679 0
M  V30 8058 C 771.053 -0.0951668 -2.29002 0
M  V30 8059 C 772.053 0.672471 -1.46063 0
M  V30 8060 O 773.243 0.502245 -1.66803 0
M  V30 8061 C 770.375 0.874631 -3.29489 0
M  V30 8062 H 771.568 -0.882062 -2.86635 0
M  V30 8063 H 769.121 -0.495424 -1.4824 0
M  V30 8064 H 769.856 1.68807 -2.76902 0
M  V30 8065 H 769.641 0.326893 -3.90735 0
M  V30 8066 H 771.131 1.31548 -3.96339 0
M  V30 8067 N 771.568 1.50203 -0.477153 0
M  V30 8068 C 772.531 2.27194 0.302599 0
M  V30 8069 C 773.531 1.32221 0.915112 0
M  V30 8070 O 774.721 1.55593 0.783348 0
M  V30 8071 C 771.853 3.0938 1.43167 0
M  V30 8072 H 773.046 2.97575 -0.372678 0
M  V30 8073 H 770.599 1.54578 -0.231392 0
M  V30 8074 H 771.334 2.43509 2.14182 0
M  V30 8075 H 771.119 3.79181 0.998197 0
M  V30 8076 H 772.609 3.67592 1.98157 0
M  V30 8077 N 773.046 0.209999 1.56195 0
M  V30 8078 C 774.274 -0.429996 2.02382 0
M  V30 8079 C 774.689 -1.54159 1.08998 0
M  V30 8080 O 774.046 -1.82239 0.0974856 0
M  V30 8081 C 774.097 -0.972433 3.48175 0
M  V30 8082 O 773.818 0.0948231 4.37997 0
M  V30 8083 C 775.319 -1.68683 4.09952 0
M  V30 8084 H 772.539 -0.106475 0.662498 0
M  V30 8085 H 775.083 0.323072 2.01932 0
M  V30 8086 H 773.238 -1.67582 3.49278 0
M  V30 8087 H 773.652 -0.31113 5.23576 0
M  V30 8088 H 775.126 -2.01851 5.13771 0
M  V30 8089 H 775.603 -2.59587 3.54276 0
M  V30 8090 H 776.209 -1.02893 4.12666 0
M  V30 8091 N 774.524 -1.57472 -0.0634922 0
M  V30 8092 C 775.754 -1.91608 -0.772645 0
M  V30 8093 C 776.162 -0.805019 -1.71219 0
M  V30 8094 O 775.505 0.229941 -1.82255 0
M  V30 8095 C 775.567 -3.21281 -1.61304 0
M  V30 8096 C 775.231 -4.49177 -0.841973 0
M  V30 8097 C 776.228 -5.19661 -0.157494 0
M  V30 8098 C 773.913 -4.9578 -0.80669 0
M  V30 8099 C 775.907 -6.35006 0.551948 0
M  V30 8100 C 773.594 -6.11028 -0.0934812 0
M  V30 8101 C 774.592 -6.80493 0.58463 0
M  V30 8102 O 774.28 -7.93542 1.28633 0
M  V30 8103 H 774.012 -0.637685 -0.224352 0
M  V30 8104 H 776.566 -2.05369 -0.0355279 0
M  V30 8105 H 774.796 -3.03752 -2.39315 0
M  V30 8106 H 776.485 -3.41003 -2.20162 0
M  V30 8107 H 777.251 -4.84681 -0.176006 0
M  V30 8108 H 773.13 -4.41579 -1.32397 0
M  V30 8109 H 776.674 -6.89161 1.0818 0
M  V30 8110 H 772.571 -6.45459 -0.0729258 0
M  V30 8111 H 773.339 -8.09708 1.19646 0
M  V30 8112 N 776.003 0.335068 -1.53997 0
M  V30 8113 C 777.414 0.910191 -1.6301 0
M  V30 8114 C 777.765 1.89271 -0.516809 0
M  V30 8115 O 776.89 2.13516 0.352123 0
M  V30 8116 C 777.485 1.65761 -2.9548 0
M  V30 8117 C 776.044 2.18163 -3.06728 0
M  V30 8118 C 775.191 1.00338 -2.5851 0
M  V30 8119 H 778.142 0.112965 -1.58297 0
M  V30 8120 H 778.163 2.52107 -2.84995 0
M  V30 8121 H 777.675 0.94227 -3.76488 0
M  V30 8122 H 775.776 2.92847 -2.30372 0
M  V30 8123 H 775.889 2.43952 -4.1234 0
M  V30 8124 H 774.253 1.37925 -2.14124 0
M  V30 8125 H 775.036 0.30254 -3.41964 0
M  V30 8126 N 777.481 1.45874 0.596531 0
M  V30 8127 C 778.414 1.49889 1.72071 0
M  V30 8128 C 779.392 0.354224 1.58695 0
M  V30 8129 O 780.576 0.556355 1.80103 0
M  V30 8130 C 777.703 1.3644 3.10003 0
M  V30 8131 C 776.749 2.54913 3.41938 0
M  V30 8132 S 777.582 4.17336 3.35545 0
M  V30 8133 C 778.738 4.06372 4.76039 0
M  V30 8134 H 778.971 2.45005 1.68404 0
M  V30 8135 H 776.504 1.33592 0.77412 0
M  V30 8136 H 778.462 1.29368 3.89582 0
M  V30 8137 H 777.123 0.427762 3.11174 0
M  V30 8138 H 776.316 2.41458 4.42396 0
M  V30 8139 H 775.918 2.58904 2.69898 0
M  V30 8140 H 778.21 3.72199 5.66105 0
M  V30 8141 H 779.153 5.0678 4.9455 0
M  V30 8142 H 779.561 3.37846 4.52239 0
M  V30 8143 N 778.959 -0.83999 1.33349 0
M  V30 8144 C 779.889 -1.965 1.26135 0
M  V30 8145 C 780.87 -1.69505 0.142152 0
M  V30 8146 O 782.055 -1.91346 0.331743 0
M  V30 8147 C 779.185 -3.32632 0.99866 0
M  V30 8148 C 778.139 -3.74021 2.08068 0
M  V30 8149 C 777.465 -5.07947 1.67014 0
M  V30 8150 C 778.765 -3.87925 3.49731 0
M  V30 8151 H 780.459 -2.02793 2.20262 0
M  V30 8152 H 778.005 -0.974297 1.06035 0
M  V30 8153 H 779.958 -4.10903 0.934696 0
M  V30 8154 H 778.682 -3.26593 0.0217759 0
M  V30 8155 H 777.341 -2.98012 2.13505 0
M  V30 8156 H 776.989 -4.98378 0.680316 0
M  V30 8157 H 776.689 -5.36611 2.39422 0
M  V30 8158 H 778.213 -5.88695 1.62082 0
M  V30 8159 H 779.627 -4.5651 3.46802 0
M  V30 8160 H 778.024 -4.28023 4.20614 0
M  V30 8161 H 779.094 -2.90407 3.88319 0
M  V30 8162 N 780.437 -1.16799 -1.0581 0
M  V30 8163 C 781.385 -0.875111 -2.1551 0
M  V30 8164 C 782.379 0.157781 -1.68664 0
M  V30 8165 O 783.585 0.011297 -1.79996 0
M  V30 8166 H 779.96 -0.26542 -0.703602 0
M  V30 8167 H 781.931 -1.8076 -2.37421 0
M  V30 8168 C 780.68 -0.39802 -3.45414 0
M  V30 8169 H 780.003 -1.18425 -3.81858 0
M  V30 8170 H 781.443 -0.231913 -4.23365 0
M  V30 8171 C 779.902 0.88327 -3.25115 0
M  V30 8172 O 780.432 1.95145 -3.51114 0
M  V30 8173 N 778.638 0.828961 -2.78526 0
M  V30 8174 H 778.185 -0.0405029 -2.57568 0
M  V30 8175 H 778.143 1.68673 -2.65324 0
M  V30 8176 N 781.915 1.24427 -0.967243 0
M  V30 8177 C 782.862 2.25398 -0.496419 0
M  V30 8178 C 783.832 1.59667 0.457781 0
M  V30 8179 O 785.017 1.87213 0.368246 0
M  V30 8180 C 782.157 3.44474 0.207693 0
M  V30 8181 C 781.27 4.24804 -0.785221 0
M  V30 8182 C 780.405 5.31169 -0.0572631 0
M  V30 8183 C 779.444 6.03195 -1.04027 0
M  V30 8184 N 778.581 7.01265 -0.34235 0
M  V30 8185 H 783.421 2.65039 -1.36229 0
M  V30 8186 H 780.958 1.30288 -0.682902 0
M  V30 8187 H 782.916 4.12376 0.632612 0
M  V30 8188 H 781.546 3.05672 1.03752 0
M  V30 8189 H 780.598 3.56445 -1.32858 0
M  V30 8190 H 781.91 4.74599 -1.53483 0
M  V30 8191 H 781.064 6.05205 0.425674 0
M  V30 8192 H 779.803 4.8228 0.725047 0
M  V30 8193 H 778.808 5.27964 -1.53409 0
M  V30 8194 H 780.033 6.54173 -1.82302 0
M  V30 8195 H 777.979 6.54648 0.420993 0
M  V30 8196 H 777.896 7.48939 -1.03084 0
M  V30 8197 H 779.164 7.7941 0.118634 0
M  V30 8198 N 783.393 0.737304 1.3929 0
M  V30 8199 C 784.34 0.0988364 2.30588 0
M  V30 8200 C 785.31 -0.727206 1.49335 0
M  V30 8201 O 786.495 -0.686694 1.78014 0
M  V30 8202 C 783.635 -0.800734 3.35682 0
M  V30 8203 C 782.748 0.0381731 4.31983 0
M  V30 8204 C 781.883 -0.862884 5.24145 0
M  V30 8205 C 780.922 -0.0193639 6.12097 0
M  V30 8206 N 780.059 -0.87648 6.96608 0
M  V30 8207 H 784.899 0.883031 2.84617 0
M  V30 8208 H 782.436 0.447111 1.4014 0
M  V30 8209 H 784.394 -1.33676 3.95205 0
M  V30 8210 H 783.024 -1.55088 2.83103 0
M  V30 8211 H 782.076 0.691641 3.74059 0
M  V30 8212 H 783.388 0.690294 4.94 0
M  V30 8213 H 782.542 -1.46667 5.88705 0
M  V30 8214 H 781.281 -1.54878 4.62454 0
M  V30 8215 H 780.286 0.597202 5.46547 0
M  V30 8216 H 781.511 0.663348 6.75852 0
M  V30 8217 H 779.457 -1.54762 6.37483 0
M  V30 8218 H 779.374 -0.280892 7.55478 0
M  V30 8219 H 780.642 -1.46575 7.65595 0
M  V30 8220 N 784.871 -1.49948 0.485112 0
M  V30 8221 C 786.119 -2.01996 -0.0648775 0
M  V30 8222 C 786.44 -1.36819 -1.38945 0
M  V30 8223 O 785.71 -0.518163 -1.88923 0
M  V30 8224 H 784.29 -0.746513 -0.0269662 0
M  V30 8225 H 786.952 -1.84136 0.638733 0
M  V30 8226 H 786.048 -3.11418 -0.20617 0
M  V30 8227 N 786.349 -0.21828 -1.56081 0
M  V30 8228 C 787.76 0.290166 -1.84431 0
M  V30 8229 C 788.111 1.59712 -1.13958 0
M  V30 8230 O 787.236 2.12516 -0.40815 0
M  V30 8231 C 787.831 0.53325 -3.34577 0
M  V30 8232 C 786.39 0.986011 -3.63256 0
M  V30 8233 C 785.537 0.0472798 -2.7726 0
M  V30 8234 H 788.488 -0.441548 -1.52434 0
M  V30 8235 H 788.509 1.37967 -3.54606 0
M  V30 8236 H 788.021 -0.418137 -3.85841 0
M  V30 8237 H 786.122 1.95087 -3.17446 0
M  V30 8238 H 786.235 0.862684 -4.71269 0
M  V30 8239 H 784.599 0.553471 -2.48614 0
M  V30 8240 H 785.382 -0.898966 -3.31321 0
M  V30 8241 N 787.827 1.57504 0.0551401 0
M  V30 8242 C 789.073 1.88334 0.752216 0
M  V30 8243 C 789.406 0.812742 1.76375 0
M  V30 8244 O 788.681 -0.175198 1.93709 0
M  V30 8245 C 788.964 3.29824 1.44528 0
M  V30 8246 C 788.817 4.47553 0.449026 0
M  V30 8247 C 790.136 3.69808 2.38601 0
M  V30 8248 H 787.255 0.684973 0.271995 0
M  V30 8249 H 789.897 1.89994 0.0151895 0
M  V30 8250 H 788.047 3.28539 2.07351 0
M  V30 8251 H 789.719 4.60967 -0.175277 0
M  V30 8252 H 787.962 4.33168 -0.234162 0
M  V30 8253 H 788.633 5.43376 0.971917 0
M  V30 8254 H 791.109 3.72293 1.85842 0
M  V30 8255 H 789.985 4.69665 2.84088 0
M  V30 8256 H 790.246 3.00641 3.24141 0
M  V30 8257 N 789.305 -0.326896 1.54172 0
M  V30 8258 C 790.716 -0.901533 1.63491 0
M  V30 8259 C 791.067 -1.88994 0.52684 0
M  V30 8260 O 790.192 -2.137 -0.340794 0
M  V30 8261 C 790.787 -1.64192 2.96355 0
M  V30 8262 C 789.346 -2.16533 3.07881 0
M  V30 8263 C 788.493 -0.98966 2.59039 0
M  V30 8264 H 791.444 -0.104568 1.58355 0
M  V30 8265 H 791.465 -2.50592 2.86328 0
M  V30 8266 H 790.977 -0.922291 3.76982 0
M  V30 8267 H 789.078 -2.91622 2.31922 0
M  V30 8268 H 789.191 -2.41762 4.13628 0
M  V30 8269 H 787.555 -1.36787 2.14852 0
M  V30 8270 H 788.338 -0.284401 3.4212 0
M  V30 8271 N 790.784 -1.46188 -0.588786 0
M  V30 8272 C 791.747 -1.55882 -1.68029 0
M  V30 8273 C 792.747 -0.436515 -1.54762 0
M  V30 8274 O 793.937 -0.700626 -1.59489 0
M  V30 8275 C 791.069 -1.47332 -3.07418 0
M  V30 8276 H 792.262 -2.5315 -1.60795 0
M  V30 8277 H 789.815 -1.33908 -0.806116 0
M  V30 8278 H 790.55 -0.513193 -3.20214 0
M  V30 8279 H 790.335 -2.28753 -3.18456 0
M  V30 8280 H 791.825 -1.57187 -3.86887 0
M  V30 8281 N 792.262 0.832906 -1.33792 0
M  V30 8282 C 793.225 1.92471 -1.24449 0
M  V30 8283 C 794.225 1.59981 -0.162085 0
M  V30 8284 O 795.415 1.69208 -0.414029 0
M  V30 8285 C 792.547 3.28278 -0.919044 0
M  V30 8286 H 793.74 2.0218 -2.21502 0
M  V30 8287 H 791.293 1.0257 -1.17936 0
M  V30 8288 H 792.028 3.24263 0.048738 0
M  V30 8289 H 791.813 3.53241 -1.70187 0
M  V30 8290 H 793.303 4.08253 -0.878576 0
M  V30 8291 N 793.74 1.17359 1.05189 0
M  V30 8292 C 794.968 0.986529 1.81866 0
M  V30 8293 C 795.383 -0.46522 1.82979 0
M  V30 8294 O 794.74 -1.32305 1.25705 0
M  V30 8295 C 794.791 1.52021 3.27982 0
M  V30 8296 O 794.512 2.91511 3.27037 0
M  V30 8297 C 796.013 1.37774 4.21347 0
M  V30 8298 H 793.233 0.349021 0.573084 0
M  V30 8299 H 795.777 1.55648 1.32643 0
M  V30 8300 H 793.932 0.992287 3.74476 0
M  V30 8301 H 794.346 3.16178 4.18488 0
M  V30 8302 H 795.82 1.7993 5.21852 0
M  V30 8303 H 796.297 0.32483 4.37997 0
M  V30 8304 H 796.903 1.89583 3.80708 0
M  V30 8305 N 795.218 -1.23913 0.973828 0
M  V30 8306 C 796.166 -2.27141 0.50098 0
M  V30 8307 C 797.16 -1.63623 -0.438631 0
M  V30 8308 O 798.366 -1.77253 -0.313247 0
M  V30 8309 H 794.741 -0.73817 0.14356 0
M  V30 8310 H 796.712 -2.64392 1.38346 0
M  V30 8311 C 795.461 -3.47195 -0.187377 0
M  V30 8312 H 794.784 -3.96318 0.526535 0
M  V30 8313 H 796.224 -4.21252 -0.481962 0
M  V30 8314 C 794.683 -3.05678 -1.41642 0
M  V30 8315 O 795.213 -3.1338 -2.51309 0
M  V30 8316 N 793.419 -2.60661 -1.28469 0
M  V30 8317 H 792.966 -2.54594 -0.39238 0
M  V30 8318 H 792.924 -2.33249 -2.10813 0
M  V30 8319 N 796.696 -0.74468 -1.38897 0
M  V30 8320 C 797.944 -0.296298 -1.99916 0
M  V30 8321 C 798.265 1.12325 -1.59399 0
M  V30 8322 O 797.535 1.76658 -0.846689 0
M  V30 8323 H 796.115 -0.106561 -0.73936 0
M  V30 8324 H 798.777 -0.956793 -1.69798 0
M  V30 8325 H 797.873 -0.352356 -3.10105 0
M  V30 8326 N 798.174 1.49689 -0.493057 0
M  V30 8327 C 799.414 2.04332 0.0527374 0
M  V30 8328 C 799.778 1.36522 1.35003 0
M  V30 8329 O 800.979 1.81842 1.97957 0
M  V30 8330 C 799.25 3.56782 0.210044 0
M  V30 8331 S 800.809 4.32998 0.711232 0
M  V30 8332 H 797.627 0.710978 0.00554853 0
M  V30 8333 H 800.229 1.83835 -0.665213 0
M  V30 8334 H 798.933 4.03681 -0.739566 0
M  V30 8335 H 798.464 3.81671 0.953468 0
M  V30 8336 H 800.479 4.54916 1.98156 0
M  V30 8337 N 799.652 0.226554 1.55963 0
M  V30 8338 C 800.88 -0.408507 2.02827 0
M  V30 8339 C 801.295 -1.52994 1.10627 0
M  V30 8340 O 800.652 -1.82126 0.116809 0
M  V30 8341 C 800.703 -0.93545 3.49187 0
M  V30 8342 O 800.424 0.141273 4.37872 0
M  V30 8343 C 801.925 -1.64325 4.11719 0
M  V30 8344 H 799.145 -0.099442 0.66359 0
M  V30 8345 H 801.689 0.344471 2.01578 0
M  V30 8346 H 799.844 -1.63868 3.51036 0
M  V30 8347 H 800.258 -0.25558 5.23877 0
M  V30 8348 H 801.732 -1.9639 5.15883 0
M  V30 8349 H 802.209 -2.55815 3.57009 0
M  V30 8350 H 802.815 -0.9851 4.13734 0
M  V30 8351 N 801.13 -1.57531 -0.0467866 0
M  V30 8352 C 802.378 -1.88078 -0.739656 0
M  V30 8353 C 802.699 -0.821936 -1.76831 0
M  V30 8354 O 801.969 0.146582 -1.95351 0
M  V30 8355 H 800.549 -0.694075 -0.276169 0
M  V30 8356 H 803.211 -1.94893 -0.0169391 0
M  V30 8357 H 802.307 -2.86396 -1.24031 0
M  V30 8358 N 802.608 0.318715 -1.54344 0
M  V30 8359 C 803.885 1.07461 -1.63437 0
M  V30 8360 C 804.265 2.05771 -0.47131 0
M  V30 8361 O 803.613 2.22175 0.53391 0
M  V30 8362 C 803.823 1.77224 -3.00654 0
M  V30 8363 C 805.171 2.30069 -3.56866 0
M  V30 8364 O 806.195 1.87284 -3.0299 0
M  V30 8365 O 805.054 3.08412 -4.51159 0
M  V30 8366 H 802.148 0.495627 -0.66203 0
M  V30 8367 H 804.694 0.318218 -1.6669 0
M  V30 8368 H 803.466 1.05742 -3.76742 0
M  V30 8369 H 803.089 2.59662 -3.01101 0
M  V30 8370 N 804.086 1.46499 0.581025 0
M  V30 8371 C 805.049 1.5677 1.672 0
M  V30 8372 C 806.049 0.444716 1.54528 0
M  V30 8373 O 807.239 0.709074 1.59116 0
M  V30 8374 C 804.371 1.4896 3.06633 0
M  V30 8375 H 805.564 2.54 1.5945 0
M  V30 8376 H 803.117 1.34334 0.799003 0
M  V30 8377 H 803.852 0.530168 3.19937 0
M  V30 8378 H 803.637 2.30439 3.17239 0
M  V30 8379 H 805.127 1.59237 3.86048 0
M  V30 8380 N 805.565 -0.825799 1.34232 0
M  V30 8381 C 806.513 -1.95792 1.25572 0
M  V30 8382 C 807.507 -1.68695 0.154404 0
M  V30 8383 O 808.713 -1.77147 0.319196 0
M  V30 8384 H 805.088 -0.642949 0.390027 0
M  V30 8385 H 807.059 -2.00219 2.21258 0
M  V30 8386 C 805.808 -3.32245 1.02511 0
M  V30 8387 H 805.131 -3.53642 1.86487 0
M  V30 8388 H 806.571 -4.1192 1.00487 0
M  V30 8389 C 805.03 -3.35803 -0.27167 0
M  V30 8390 O 805.56 -3.80962 -1.274 0
M  V30 8391 N 803.766 -2.89008 -0.303778 0
M  V30 8392 H 803.313 -2.52451 0.512464 0
M  V30 8393 H 803.271 -2.9177 -1.17121 0
M  V30 8394 N 807.043 -1.17915 -1.04565 0
M  V30 8395 C 808.291 -0.969505 -1.77327 0
M  V30 8396 C 808.612 0.502569 -1.88412 0
M  V30 8397 O 807.882 1.36467 -1.40547 0
M  V30 8398 H 806.462 -0.355723 -0.656864 0
M  V30 8399 H 809.124 -1.48506 -1.26223 0
M  V30 8400 H 808.22 -1.40324 -2.78775 0
M  V30 8401 N 808.521 1.23394 -0.980386 0
M  V30 8402 C 809.471 2.22634 -0.491747 0
M  V30 8403 C 810.455 1.54958 0.433222 0
M  V30 8404 O 811.647 1.75049 0.262078 0
M  V30 8405 C 808.776 3.4269 0.204531 0
M  V30 8406 C 807.862 4.17594 -0.740007 0
M  V30 8407 N 808.253 4.69458 -1.88263 0
M  V30 8408 C 806.551 4.42554 -0.553335 0
M  V30 8409 C 807.252 5.26446 -2.47446 0
M  V30 8410 N 806.228 5.14377 -1.75834 0
M  V30 8411 H 810.03 2.60363 -1.36339 0
M  V30 8412 H 807.544 1.38924 -0.841059 0
M  V30 8413 H 809.541 4.12959 0.571901 0
M  V30 8414 H 808.201 3.06477 1.07246 0
M  V30 8415 H 809.212 4.65803 -2.26381 0
M  V30 8416 H 805.889 4.16629 0.269573 0
M  V30 8417 H 807.279 5.77195 -3.43941 0
M  V30 8418 N 809.999 0.752036 1.385 0
M  V30 8419 C 810.929 0.138718 2.33088 0
M  V30 8420 C 811.91 -0.705318 1.54788 0
M  V30 8421 O 813.095 -0.646821 1.83112 0
M  V30 8422 C 810.225 -0.75641 3.38963 0
M  V30 8423 C 809.179 -0.0152239 4.27997 0
M  V30 8424 C 808.505 -1.0285 5.24715 0
M  V30 8425 C 809.805 1.15226 5.09431 0
M  V30 8426 H 811.499 0.928852 2.84627 0
M  V30 8427 H 809.045 0.448111 1.3685 0
M  V30 8428 H 810.998 -1.19513 4.04097 0
M  V30 8429 H 809.722 -1.57885 2.85902 0
M  V30 8430 H 808.381 0.404061 3.64366 0
M  V30 8431 H 808.029 -1.84496 4.67943 0
M  V30 8432 H 807.729 -0.537238 5.85139 0
M  V30 8433 H 809.253 -1.46657 5.92726 0
M  V30 8434 H 810.667 0.791161 5.67815 0
M  V30 8435 H 809.064 1.57428 5.79082 0
M  V30 8436 H 810.134 1.9659 4.43261 0
M  V30 8437 N 811.477 -1.49425 0.500989 0
M  V30 8438 C 812.409 -2.27037 -0.314159 0
M  V30 8439 C 813.422 -1.33578 -0.930626 0
M  V30 8440 O 814.611 -1.58861 -0.813968 0
M  V30 8441 C 811.711 -3.05968 -1.45729 0
M  V30 8442 C 810.884 -4.27 -0.948135 0
M  V30 8443 C 809.943 -4.87977 -1.96888 0
M  V30 8444 O 808.969 -5.48044 -1.53743 0
M  V30 8445 N 810.171 -4.77627 -3.29928 0
M  V30 8446 H 812.936 -2.97634 0.351336 0
M  V30 8447 H 810.497 -1.58427 0.333536 0
M  V30 8448 H 812.489 -3.43634 -2.1377 0
M  V30 8449 H 811.059 -2.37978 -2.02695 0
M  V30 8450 H 810.279 -3.94091 -0.0926311 0
M  V30 8451 H 811.567 -5.0541 -0.586362 0
M  V30 8452 H 810.965 -4.29926 -3.67669 0
M  V30 8453 H 809.522 -5.19478 -3.93682 0
M  V30 8454 N 812.955 -0.234822 -1.55841 0
M  V30 8455 C 813.865 0.680828 -2.24504 0
M  V30 8456 C 814.881 1.20306 -1.25708 0
M  V30 8457 O 816.057 1.24188 -1.58554 0
M  V30 8458 C 813.122 1.86636 -2.92178 0
M  V30 8459 C 812.183 1.3848 -4.06352 0
M  V30 8460 C 811.416 2.51382 -4.70789 0
M  V30 8461 O 811.639 3.69831 -4.34259 0
M  V30 8462 O 810.573 2.21828 -5.59532 0
M  V30 8463 H 814.399 0.12583 -3.03439 0
M  V30 8464 H 811.984 -0.00381817 -1.494 0
M  V30 8465 H 813.866 2.55845 -3.34845 0
M  V30 8466 H 812.541 2.40921 -2.16192 0
M  V30 8467 H 811.448 0.660341 -3.68226 0
M  V30 8468 H 812.781 0.888177 -4.8412 0
M  V30 8469 N 814.433 1.57553 0.0384317 0
M  V30 8470 C 815.343 2.09333 1.0591 0
M  V30 8471 C 816.359 1.0299 1.40247 0
M  V30 8472 O 817.535 1.34669 1.49754 0
M  V30 8473 C 814.6 2.55468 2.34386 0
M  V30 8474 C 813.661 3.76254 2.06716 0
M  V30 8475 C 812.894 4.20179 3.29067 0
M  V30 8476 O 813.117 3.637 4.39407 0
M  V30 8477 O 812.051 5.12697 3.15317 0
M  V30 8478 H 815.877 2.96683 0.649087 0
M  V30 8479 H 813.462 1.47211 0.254802 0
M  V30 8480 H 815.344 2.85514 3.09935 0
M  V30 8481 H 814.019 1.71234 2.74701 0
M  V30 8482 H 812.926 3.51241 1.28766 0
M  V30 8483 H 814.259 4.61443 1.71263 0
M  V30 8484 N 815.911 -0.310526 1.54511 0
M  V30 8485 C 817.322 -0.884142 1.64438 0
M  V30 8486 C 817.673 -1.88425 0.546855 0
M  V30 8487 O 816.798 -2.14049 -0.31811 0
M  V30 8488 C 817.393 -1.6104 2.9808 0
M  V30 8489 C 815.952 -2.13255 3.1016 0
M  V30 8490 C 815.099 -0.96213 2.60074 0
M  V30 8491 H 818.05 -0.0877666 1.58457 0
M  V30 8492 H 818.071 -2.47541 2.8897 0
M  V30 8493 H 817.583 -0.882255 3.77939 0
M  V30 8494 H 815.684 -2.89145 2.35002 0
M  V30 8495 H 815.797 -2.37361 4.16169 0
M  V30 8496 H 814.161 -1.34501 2.16291 0
M  V30 8497 H 814.944 -0.248098 3.42402 0
M  V30 8498 N 817.389 -1.46805 -0.573248 0
M  V30 8499 C 818.8 -1.46655 -1.15539 0
M  V30 8500 C 819.151 -0.2125 -1.95046 0
M  V30 8501 O 818.276 0.683759 -2.05314 0
M  V30 8502 C 818.871 -2.65711 -2.10198 0
M  V30 8503 C 817.43 -2.68572 -2.63716 0
M  V30 8504 C 816.577 -2.39498 -1.39772 0
M  V30 8505 H 819.528 -1.54547 -0.36068 0
M  V30 8506 H 819.549 -2.41768 -2.93817 0
M  V30 8507 H 819.061 -3.56967 -1.52303 0
M  V30 8508 H 817.162 -1.81414 -3.25453 0
M  V30 8509 H 817.275 -3.68809 -3.05805 0
M  V30 8510 H 815.639 -1.89749 -1.69904 0
M  V30 8511 H 816.422 -3.32942 -0.836943 0
M  V30 8512 N 818.867 0.818669 -1.34668 0
M  V30 8513 C 819.8 1.93516 -1.20941 0
M  V30 8514 C 820.778 1.62292 -0.100061 0
M  V30 8515 O 821.962 1.86614 -0.265983 0
M  V30 8516 C 819.089 3.27612 -0.859524 0
M  V30 8517 C 818.135 3.77794 -1.97923 0
M  V30 8518 S 818.968 3.97043 -3.59329 0
M  V30 8519 C 820.124 5.3406 -3.2639 0
M  V30 8520 H 820.357 2.04864 -2.15449 0
M  V30 8521 H 817.89 0.974716 -1.19744 0
M  V30 8522 H 819.848 4.05087 -0.664444 0
M  V30 8523 H 818.509 3.14028 0.0672835 0
M  V30 8524 H 817.702 4.74883 -1.68827 0
M  V30 8525 H 817.304 3.0728 -2.13202 0
M  V30 8526 H 819.596 6.17626 -2.78469 0
M  V30 8527 H 820.539 5.68143 -4.22634 0
M  V30 8528 H 820.947 4.99773 -2.62464 0
M  V30 8529 N 820.346 1.18468 1.03938 0
M  V30 8530 C 821.757 0.984808 1.58614 0
M  V30 8531 C 822.108 -0.465165 1.90606 0
M  V30 8532 O 821.233 -1.34274 1.69704 0
M  V30 8533 C 821.828 1.78135 2.8819 0
M  V30 8534 C 820.387 1.62579 3.39478 0
M  V30 8535 C 819.534 1.77501 2.13046 0
M  V30 8536 H 822.485 1.32993 0.865944 0
M  V30 8537 H 822.506 1.27119 3.58638 0
M  V30 8538 H 822.018 2.83661 2.64874 0
M  V30 8539 H 820.119 0.59595 3.67803 0
M  V30 8540 H 820.232 2.42463 4.13217 0
M  V30 8541 H 818.596 1.2046 2.24414 0
M  V30 8542 H 819.379 2.84464 1.92185 0
M  V30 8543 N 821.824 -1.22873 0.986916 0
M  V30 8544 C 823.052 -1.95487 0.677663 0
M  V30 8545 C 823.467 -1.72978 -0.756572 0
M  V30 8546 O 822.824 -1.02517 -1.50985 0
M  V30 8547 C 822.875 -3.48337 0.966638 0
M  V30 8548 O 822.596 -3.70087 2.34451 0
M  V30 8549 C 824.097 -4.38142 0.674248 0
M  V30 8550 H 821.317 -0.622211 0.251185 0
M  V30 8551 H 823.861 -1.56187 1.32007 0
M  V30 8552 H 822.016 -3.85628 0.370137 0
M  V30 8553 H 822.43 -4.64332 2.43918 0
M  V30 8554 H 823.904 -5.44165 0.926759 0
M  V30 8555 H 824.381 -4.3745 -0.391728 0
M  V30 8556 H 824.987 -4.06469 1.25152 0
M  V30 8557 N 823.302 -0.75937 -1.38099 0
M  V30 8558 C 824.53 -0.329111 -2.04266 0
M  V30 8559 C 824.945 1.04453 -1.57274 0
M  V30 8560 O 824.302 1.66449 -0.748397 0
M  V30 8561 C 824.353 -0.349192 -3.5981 0
M  V30 8562 O 824.074 -1.66863 -4.05078 0
M  V30 8563 C 825.575 0.0942106 -4.432 0
M  V30 8564 H 822.795 -0.13971 -0.656294 0
M  V30 8565 H 825.339 -1.02984 -1.76677 0
M  V30 8566 H 823.494 0.302846 -3.86214 0
M  V30 8567 H 823.908 -1.59877 -4.9954 0
M  V30 8568 H 825.382 0.0290004 -5.51992 0
M  V30 8569 H 825.859 1.1429 -4.24069 0
M  V30 8570 H 826.465 -0.529171 -4.21995 0
M  V30 8571 O 824.819 1.47821 -0.650476 0
M  V30 8572 H 825.51 1.92907 -0.175142 0
M  V30 END ATOM
M  V30 BEGIN BOND
M  V30 END BOND
M  V30 END CTAB
M  END
$$$$
