drugbank_target|Q92753 Nuclear receptor ROR-beta (DB01065)
 OpenBabel12092120343D

  0  0  0     0  0            999 V3000
M  V30 BEGIN CTAB
M  V30 COUNTS 7434 7500 0 0 0
M  V30 BEGIN ATOM
M  V30 1 H -0.908 1.98254 -0.117106 0
M  V30 2 N 0 1.576 0 0
M  V30 3 C 0.933 2.03868 1.02534 0
M  V30 4 C 1.911 0.928543 1.3348 0
M  V30 5 O 3.095 1.19667 1.45644 0
M  V30 6 C 0.222 2.43627 2.35294 0
M  V30 7 C -0.732 3.65373 2.2001 0
M  V30 8 S 0.101 5.13292 1.52614 0
M  V30 9 C 1.257 5.56322 2.86805 0
M  V30 10 H 1.49 2.90518 0.631377 0
M  V30 11 H -0.977 1.52953 0.210867 0
M  V30 12 H 0.981 2.67203 3.11629 0
M  V30 13 H -0.358 1.57376 2.7183 0
M  V30 14 H -1.165 3.90944 3.18086 0
M  V30 15 H -1.563 3.418 1.51819 0
M  V30 16 H 0.729 5.58782 3.83104 0
M  V30 17 H 1.672 6.56266 2.65933 0
M  V30 18 H 2.08 4.83886 2.90714 0
M  V30 19 N 1.4781 -0.272755 1.55222 0
M  V30 20 C 2.7181 -1.01197 1.77591 0
M  V30 21 C 3.0821 -1.8349 0.565294 0
M  V30 22 O 4.2831 -2.60387 0.667242 0
M  V30 23 C 2.5541 -1.87096 3.04516 0
M  V30 24 S 4.1131 -2.67279 3.48004 0
M  V30 25 H 0.9311 -0.340836 0.62398 0
M  V30 26 H 3.5331 -0.282374 1.9345 0
M  V30 27 H 2.2371 -1.25565 3.90719 0
M  V30 28 H 1.7681 -2.64376 2.91323 0
M  V30 29 H 3.7831 -3.89593 3.07297 0
M  V30 30 N 2.9562 -1.48159 -0.537278 0
M  V30 31 C 3.8662 -1.64807 -1.6696 0
M  V30 32 C 4.8822 -0.530651 -1.65711 0
M  V30 33 O 6.0582 -0.800784 -1.84796 0
M  V30 34 C 3.1232 -1.67708 -3.03438 0
M  V30 35 C 2.1842 -2.91025 -3.156 0
M  V30 36 C 1.4172 -2.93778 -4.45567 0
M  V30 37 O 1.6402 -2.05153 -5.3223 0
M  V30 38 O 0.5742 -3.85868 -4.61941 0
M  V30 39 H 4.4002 -2.6066 -1.55853 0
M  V30 40 H 1.9852 -1.31475 -0.709549 0
M  V30 41 H 3.8672 -1.7218 -3.84619 0
M  V30 42 H 2.5422 -0.750278 -3.14885 0
M  V30 43 H 1.4492 -2.92089 -2.33741 0
M  V30 44 H 2.7822 -3.83065 -3.09066 0
M  V30 45 N 4.4343 0.785586 -1.36625 0
M  V30 46 C 5.3823 1.91978 -1.31329 0
M  V30 47 C 6.3763 1.68162 -0.204416 0
M  V30 48 O 7.5823 1.76122 -0.371645 0
M  V30 49 H 3.9573 0.631087 -0.408942 0
M  V30 50 H 5.9283 1.93562 -2.27104 0
M  V30 51 C 4.6773 3.29055 -1.12329 0
M  V30 52 H 4.0003 3.4795 -1.96903 0
M  V30 53 H 5.4403 4.08756 -1.12671 0
M  V30 54 C 3.8993 3.36461 0.171861 0
M  V30 55 O 4.4293 3.84576 1.16035 0
M  V30 56 N 2.6353 2.89782 0.217846 0
M  V30 57 H 2.1823 2.50819 -0.587183 0
M  V30 58 H 2.1403 2.95119 1.08408 0
M  V30 59 N 5.9124 1.20967 1.01018 0
M  V30 60 C 6.8444 0.922059 2.09835 0
M  V30 61 C 7.8574 -0.0927106 1.62536 0
M  V30 62 O 9.0464 0.139127 1.77957 0
M  V30 63 C 6.1464 0.362004 3.36961 0
M  V30 64 C 5.3194 1.42986 4.13369 0
M  V30 65 C 4.3784 0.879976 5.1879 0
M  V30 66 O 3.4044 1.56219 5.47343 0
M  V30 67 N 4.6064 -0.307396 5.79686 0
M  V30 68 H 7.3714 1.8588 2.35093 0
M  V30 69 H 4.9324 1.11422 1.1746 0
M  V30 70 H 6.9244 -0.0201474 4.04695 0
M  V30 71 H 5.4944 -0.479437 3.08902 0
M  V30 72 H 4.7144 1.98608 3.40512 0
M  V30 73 H 6.0024 2.14885 4.61196 0
M  V30 74 H 5.4004 -0.878796 5.58832 0
M  V30 75 H 3.9574 -0.631115 6.48737 0
M  V30 76 N 7.3905 -1.2043 1.01659 0
M  V30 77 C 8.3205 -2.25466 0.607226 0
M  V30 78 C 9.3015 -1.65853 -0.377716 0
M  V30 79 O 10.4865 -1.92409 -0.263149 0
M  V30 80 C 7.6165 -3.47256 -0.0552949 0
M  V30 81 C 6.5705 -4.19462 0.850632 0
M  V30 82 C 5.8965 -5.34673 0.0538859 0
M  V30 83 C 7.1965 -4.75603 2.15868 0
M  V30 84 H 8.8905 -2.59962 1.48526 0
M  V30 85 H 6.4365 -1.2496 0.715605 0
M  V30 86 H 8.3895 -4.19917 -0.353233 0
M  V30 87 H 7.1135 -3.11924 -0.968045 0
M  V30 88 H 5.7725 -3.48667 1.13257 0
M  V30 89 H 5.4205 -4.95585 -0.860514 0
M  V30 90 H 5.1205 -5.83913 0.657192 0
M  V30 91 H 6.6445 -6.10138 -0.237598 0
M  V30 92 H 8.0585 -5.40083 1.92311 0
M  V30 93 H 6.4555 -5.3528 2.71284 0
M  V30 94 H 7.5255 -3.94346 2.82169 0
M  V30 95 N 8.8686 -0.792821 -1.36206 0
M  V30 96 C 9.8156 -0.191653 -2.30003 0
M  V30 97 C 10.7856 0.666453 -1.52143 0
M  V30 98 O 11.9706 0.61442 -1.80636 0
M  V30 99 C 9.1106 0.664848 -3.38635 0
M  V30 100 C 8.2236 -0.212175 -4.31479 0
M  V30 101 C 7.3586 0.651022 -5.27196 0
M  V30 102 C 6.3976 -0.227247 -6.11678 0
M  V30 103 N 5.5346 0.595127 -6.99573 0
M  V30 104 H 10.3746 -0.996978 -2.80828 0
M  V30 105 H 7.9116 -0.503206 -1.38225 0
M  V30 106 H 9.8696 1.17645 -4.00269 0
M  V30 107 H 8.4996 1.43557 -2.89122 0
M  V30 108 H 7.5516 -0.841777 -3.70969 0
M  V30 109 H 8.8636 -0.888751 -4.90818 0
M  V30 110 H 8.0176 1.2283 -5.94136 0
M  V30 111 H 6.7566 1.36121 -4.68319 0
M  V30 112 H 5.7616 -0.816904 -5.43697 0
M  V30 113 H 6.9866 -0.93509 -6.72631 0
M  V30 114 H 4.9326 1.28955 -6.432 0
M  V30 115 H 4.8496 -0.0236952 -7.55996 0
M  V30 116 H 6.1176 1.15613 -7.70879 0
M  V30 117 N 10.3467 1.47872 -0.545128 0
M  V30 118 C 11.5747 2.06889 -0.021084 0
M  V30 119 C 11.9897 1.39955 1.2672 0
M  V30 120 O 11.3467 0.492036 1.75742 0
M  V30 121 C 11.3977 3.60996 0.190817 0
M  V30 122 O 11.1187 4.25419 -1.04644 0
M  V30 123 C 12.6197 4.36849 0.753521 0
M  V30 124 H 9.8397 0.669785 -0.0403635 0
M  V30 125 H 12.3837 1.90049 -0.755095 0
M  V30 126 H 10.5387 3.77391 0.87492 0
M  V30 127 H 10.9527 5.17785 -0.836611 0
M  V30 128 H 12.4267 5.45399 0.851139 0
M  V30 129 H 12.9037 4.02306 1.762 0
M  V30 130 H 13.5097 4.25169 0.105503 0
M  V30 131 N 11.8248 0.280983 1.55075 0
M  V30 132 C 12.7718 -0.603937 2.22758 0
M  V30 133 C 13.7418 -1.1452 1.20309 0
M  V30 134 O 14.9268 -1.19343 1.48869 0
M  V30 135 C 12.0668 -1.77947 2.95684 0
M  V30 136 C 11.1798 -1.2715 4.12864 0
M  V30 137 C 10.3148 -2.4093 4.7342 0
M  V30 138 C 9.3538 -1.87165 5.82783 0
M  V30 139 N 8.4908 -2.94441 6.37377 0
M  V30 140 H 13.3308 -0.020124 2.97993 0
M  V30 141 H 10.8678 0.00183425 1.471 0
M  V30 142 H 12.8258 -2.47055 3.36184 0
M  V30 143 H 11.4558 -2.33522 2.22861 0
M  V30 144 H 10.5078 -0.473331 3.77444 0
M  V30 145 H 11.8198 -0.837751 4.91715 0
M  V30 146 H 10.9738 -3.18021 5.1667 0
M  V30 147 H 9.7128 -2.87623 3.93859 0
M  V30 148 H 8.7178 -1.08556 5.38976 0
M  V30 149 H 9.9428 -1.41401 6.64216 0
M  V30 150 H 7.8888 -3.40505 5.60707 0
M  V30 151 H 7.8058 -2.55501 7.11516 0
M  V30 152 H 9.0738 -3.71489 6.85285 0
M  V30 153 N 13.3029 -1.57598 0.00835791 0
M  V30 154 C 14.2659 -2.07884 -0.965242 0
M  V30 155 C 15.2659 -0.989825 -1.26725 0
M  V30 156 O 16.4559 -1.25218 -1.21104 0
M  V30 157 C 13.5879 -2.52731 -2.28779 0
M  V30 158 H 14.7809 -2.95178 -0.530112 0
M  V30 159 H 12.3339 -1.54458 -0.239283 0
M  V30 160 H 13.0689 -1.68705 -2.76964 0
M  V30 161 H 12.8539 -3.32272 -2.08177 0
M  V30 162 H 14.3439 -2.91933 -2.98605 0
M  V30 163 N 14.781 0.264519 -1.55364 0
M  V30 164 C 16.058 1.01677 -1.67096 0
M  V30 165 C 16.438 2.03996 -0.543015 0
M  V30 166 O 15.786 2.23907 0.45585 0
M  V30 167 C 15.996 1.66596 -3.0667 0
M  V30 168 C 17.344 2.17442 -3.64697 0
M  V30 169 O 18.368 1.76568 -3.09358 0
M  V30 170 O 17.227 2.92439 -4.61673 0
M  V30 171 H 14.321 0.472161 -0.678965 0
M  V30 172 H 16.867 0.259703 -1.67701 0
M  V30 173 H 15.639 0.924962 -3.80211 0
M  V30 174 H 15.262 2.48968 -3.10001 0
M  V30 175 N 16.2591 1.48442 0.529413 0
M  V30 176 C 17.2221 1.62524 1.61612 0
M  V30 177 C 18.2221 0.498509 1.52877 0
M  V30 178 O 19.4121 0.76431 1.56537 0
M  V30 179 C 16.5441 1.59597 3.01233 0
M  V30 180 H 17.7371 2.59423 1.50465 0
M  V30 181 H 15.2901 1.37047 0.751514 0
M  V30 182 H 16.0251 0.641781 3.17886 0
M  V30 183 H 15.8101 2.41397 3.08982 0
M  V30 184 H 17.3001 1.72646 3.80241 0
M  V30 185 N 17.7372 -0.778329 1.37039 0
M  V30 186 C 18.9652 -1.56734 1.35063 0
M  V30 187 C 19.3802 -1.88686 -0.0655597 0
M  V30 188 O 18.7372 -1.5096 -1.02554 0
M  V30 189 C 18.7882 -2.88163 2.18276 0
M  V30 190 O 18.5092 -2.57583 3.54376 0
M  V30 191 C 20.0102 -3.82422 2.24206 0
M  V30 192 H 17.2302 -0.485778 0.462883 0
M  V30 193 H 19.7742 -0.965185 1.8029 0
M  V30 194 H 17.9292 -3.44818 1.76576 0
M  V30 195 H 18.3432 -3.41699 3.97922 0
M  V30 196 H 19.8172 -4.71667 2.86765 0
M  V30 197 H 20.2942 -4.21078 1.24861 0
M  V30 198 H 20.9002 -3.31697 2.6619 0
M  V30 199 N 19.2153 -1.21501 -1.00376 0
M  V30 200 C 20.1783 -0.976927 -2.07337 0
M  V30 201 C 21.1783 0.0525322 -1.60714 0
M  V30 202 O 22.3683 -0.184869 -1.73216 0
M  V30 203 C 19.5003 -0.473423 -3.37597 0
M  V30 204 H 20.6933 -1.92587 -2.29892 0
M  V30 205 H 18.2463 -1.03217 -1.17371 0
M  V30 206 H 18.9813 0.480379 -3.20722 0
M  V30 207 H 18.7663 -1.216 -3.72768 0
M  V30 208 H 20.2563 -0.32675 -4.1632 0
M  V30 209 N 20.6934 1.19889 -1.02296 0
M  V30 210 C 21.6254 2.22334 -0.556787 0
M  V30 211 C 22.6384 1.58674 0.364199 0
M  V30 212 O 23.8274 1.77768 0.161533 0
M  V30 213 C 20.9274 3.38257 0.208694 0
M  V30 214 C 20.1004 4.31504 -0.71577 0
M  V30 215 C 19.1594 5.262 0.00325597 0
M  V30 216 O 18.1854 5.65798 -0.621357 0
M  V30 217 N 19.3874 5.66303 1.27599 0
M  V30 218 H 22.1524 2.62957 -1.43784 0
M  V30 219 H 19.7134 1.34495 -0.901261 0
M  V30 220 H 21.7054 3.98616 0.699111 0
M  V30 221 H 20.2754 2.96472 0.991102 0
M  V30 222 H 19.4954 3.69016 -1.38638 0
M  V30 223 H 20.7834 4.9072 -1.34428 0
M  V30 224 H 20.1814 5.36155 1.80429 0
M  V30 225 H 18.7384 6.28942 1.71102 0
M  V30 226 N 22.1715 0.800033 1.35784 0
M  V30 227 C 23.4205 0.37387 1.98205 0
M  V30 228 C 23.7335 -1.06302 1.64193 0
M  V30 229 O 24.9395 -1.59198 2.19928 0
M  V30 230 C 23.3955 0.617532 3.54562 0
M  V30 231 C 23.0035 2.06654 3.9749 0
M  V30 232 C 24.7475 0.256401 4.23725 0
M  V30 233 C 22.6545 2.2563 5.46667 0
M  V30 234 H 21.5845 0.136055 0.741623 0
M  V30 235 H 24.2355 0.983166 1.54939 0
M  V30 236 H 22.6175 -0.0616248 3.95952 0
M  V30 237 H 23.7915 2.78296 3.67271 0
M  V30 238 H 22.1065 2.38691 3.41197 0
M  V30 239 H 24.7035 0.376318 5.33374 0
M  V30 240 H 25.0465 -0.796692 4.08606 0
M  V30 241 H 25.5795 0.889214 3.87734 0
M  V30 242 H 22.3185 3.2936 5.66747 0
M  V30 243 H 21.8385 1.58504 5.78478 0
M  V30 244 H 23.5175 2.06861 6.1304 0
M  V30 245 N 23.6496 -1.47581 0.552962 0
M  V30 246 C 24.5596 -2.33743 -0.200353 0
M  V30 247 C 25.5756 -1.47928 -0.916151 0
M  V30 248 O 26.7516 -1.80865 -0.885993 0
M  V30 249 C 23.8166 -3.24536 -1.21973 0
M  V30 250 C 22.8776 -4.26238 -0.511819 0
M  V30 251 C 22.1106 -5.12693 -1.48263 0
M  V30 252 O 22.3336 -5.01525 -2.71714 0
M  V30 253 O 21.2676 -5.93375 -1.00945 0
M  V30 254 H 25.0936 -2.9945 0.506304 0
M  V30 255 H 22.6786 -1.46071 0.313622 0
M  V30 256 H 24.5606 -3.80631 -1.80827 0
M  V30 257 H 23.2356 -2.61462 -1.90839 0
M  V30 258 H 22.1426 -3.73914 0.117799 0
M  V30 259 H 23.4756 -4.92014 0.135308 0
M  V30 260 N 25.1277 -0.289203 -1.54924 0
M  V30 261 C 26.3737 0.323998 -2.00195 0
M  V30 262 C 26.7067 1.54441 -1.17735 0
M  V30 263 O 25.9817 1.92875 -0.250878 0
M  V30 264 C 26.2647 0.692276 -3.53383 0
M  V30 265 C 26.1177 -0.536457 -4.46589 0
M  V30 266 C 27.4367 1.52335 -4.12895 0
M  V30 267 H 24.5557 0.116289 -0.727768 0
M  V30 268 H 27.1977 -0.398954 -1.85764 0
M  V30 269 H 25.3477 1.30822 -3.65811 0
M  V30 270 H 27.0197 -1.17499 -4.46085 0
M  V30 271 H 25.2627 -1.17192 -4.1767 0
M  V30 272 H 25.9337 -0.234806 -5.515 0
M  V30 273 H 28.4097 1.00302 -4.0383 0
M  V30 274 H 27.2857 1.74982 -5.20262 0
M  V30 275 H 27.5467 2.50886 -3.64018 0
M  V30 276 N 26.6058 1.57591 -0.0167156 0
M  V30 277 C 27.8548 1.90461 0.663877 0
M  V30 278 C 28.1678 0.893515 1.73999 0
M  V30 279 O 29.3738 1.11302 2.47637 0
M  V30 280 C 27.8298 3.38155 1.23204 0
M  V30 281 C 27.4378 4.47597 0.189866 0
M  V30 282 C 29.1818 3.80111 1.88986 0
M  V30 283 C 27.0888 5.86379 0.768964 0
M  V30 284 H 26.0188 0.710738 0.251729 0
M  V30 285 H 28.6698 1.83326 -0.0799926 0
M  V30 286 H 27.0518 3.40182 2.02712 0
M  V30 287 H 28.2258 4.57112 -0.581846 0
M  V30 288 H 26.5408 4.14766 -0.368475 0
M  V30 289 H 29.1378 4.81145 2.33247 0
M  V30 290 H 29.4808 3.14511 2.72743 0
M  V30 291 H 30.0138 3.80454 1.16187 0
M  V30 292 H 26.7528 6.55493 -0.0301957 0
M  V30 293 H 26.2728 5.80496 1.50945 0
M  V30 294 H 27.9518 6.34563 1.26251 0
M  V30 295 N 28.0839 -0.256276 1.55502 0
M  V30 296 C 29.4949 -0.826068 1.67431 0
M  V30 297 C 29.8459 -1.86396 0.612446 0
M  V30 298 O 28.9709 -2.15031 -0.243025 0
M  V30 299 C 29.5659 -1.50512 3.03532 0
M  V30 300 C 28.1249 -2.02273 3.17431 0
M  V30 301 C 27.2719 -0.870548 2.63281 0
M  V30 302 H 30.2229 -0.0322728 1.58667 0
M  V30 303 H 30.2439 -2.37279 2.97454 0
M  V30 304 H 29.7559 -0.749484 3.80794 0
M  V30 305 H 27.8569 -2.80746 2.44974 0
M  V30 306 H 27.9699 -2.22655 4.24219 0
M  V30 307 H 26.3339 -1.26851 2.20864 0
M  V30 308 H 27.1169 -0.128149 3.43061 0
M  V30 309 N 29.562 -1.4872 -0.521534 0
M  V30 310 C 30.802 -1.58771 -1.28729 0
M  V30 311 C 31.166 -0.259394 -1.9024 0
M  V30 312 O 32.367 -0.234942 -2.67771 0
M  V30 313 C 30.638 -2.70039 -2.34124 0
M  V30 314 S 32.197 -2.9991 -3.20312 0
M  V30 315 H 29.015 -0.560251 -0.437767 0
M  V30 316 H 31.617 -1.86283 -0.593188 0
M  V30 317 H 30.321 -3.65101 -1.87429 0
M  V30 318 H 29.852 -2.44455 -3.08229 0
M  V30 319 H 31.867 -2.39855 -4.34378 0
M  V30 320 N 31.0401 0.771051 -1.3745 0
M  V30 321 C 31.9871 1.88435 -1.3327 0
M  V30 322 C 32.9571 1.64914 -0.198136 0
M  V30 323 O 34.1421 1.86821 -0.387606 0
M  V30 324 C 31.2821 3.25509 -1.14622 0
M  V30 325 C 30.3951 3.60979 -2.37314 0
M  V30 326 C 29.5301 4.87265 -2.11533 0
M  V30 327 C 28.5691 5.15469 -3.30088 0
M  V30 328 N 27.7061 6.32944 -3.03853 0
M  V30 329 H 32.5461 1.91344 -2.28455 0
M  V30 330 H 30.0831 0.935466 -1.13523 0
M  V30 331 H 32.0411 4.04582 -1.01831 0
M  V30 332 H 30.6711 3.21974 -0.230837 0
M  V30 333 H 29.7231 2.76885 -2.60842 0
M  V30 334 H 31.0351 3.77759 -3.25729 0
M  V30 335 H 30.1891 5.74244 -1.95777 0
M  V30 336 H 28.9281 4.7259 -1.20457 0
M  V30 337 H 27.9331 4.26966 -3.46382 0
M  V30 338 H 29.1581 5.32052 -4.22016 0
M  V30 339 H 27.1041 6.19625 -2.15407 0
M  V30 340 H 27.0211 6.50143 -3.85812 0
M  V30 341 H 28.2891 7.22857 -2.91716 0
M  V30 342 N 32.5182 1.22032 0.997298 0
M  V30 343 C 33.7672 1.03637 1.73038 0
M  V30 344 C 34.0802 -0.429475 1.90827 0
M  V30 345 O 35.2862 -0.732995 2.61418 0
M  V30 346 C 33.7422 1.80582 3.11317 0
M  V30 347 C 33.3502 3.31387 3.01474 0
M  V30 348 C 35.0942 1.70621 3.88701 0
M  V30 349 C 33.0012 4.00791 4.3488 0
M  V30 350 H 31.9312 0.384179 0.648785 0
M  V30 351 H 34.5822 1.4584 1.11368 0
M  V30 352 H 32.9642 1.31175 3.73643 0
M  V30 353 H 34.1382 3.88155 2.4834 0
M  V30 354 H 32.4532 3.41976 2.37575 0
M  V30 355 H 35.0502 2.19799 4.87434 0
M  V30 356 H 35.3932 0.665823 4.10941 0
M  V30 357 H 35.9262 2.17547 3.33044 0
M  V30 358 H 32.6652 5.05064 4.1784 0
M  V30 359 H 32.1852 3.48811 4.87945 0
M  V30 360 H 33.8642 4.06139 5.03647 0
M  V30 361 N 33.9963 -1.19345 1.0293 0
M  V30 362 C 35.2363 -1.90738 0.734727 0
M  V30 363 C 35.6003 -1.7785 -0.723414 0
M  V30 364 O 36.8013 -2.43844 -1.13108 0
M  V30 365 C 35.0723 -3.37569 1.17396 0
M  V30 366 S 36.6313 -4.27176 1.00329 0
M  V30 367 H 33.4493 -0.658771 0.267474 0
M  V30 368 H 36.0513 -1.4428 1.31922 0
M  V30 369 H 34.7553 -3.44475 2.23081 0
M  V30 370 H 34.2863 -3.8906 0.582772 0
M  V30 371 H 36.3013 -4.96126 -0.0859152 0
M  V30 372 N 35.4744 -0.807222 -1.35358 0
M  V30 373 C 36.7224 -0.387122 -1.98358 0
M  V30 374 C 37.0434 1.04942 -1.64354 0
M  V30 375 O 36.3134 1.72615 -0.926339 0
M  V30 376 H 34.8934 -0.140154 -0.733734 0
M  V30 377 H 37.5554 -1.0332 -1.6526 0
M  V30 378 H 36.6514 -0.493352 -3.08176 0
M  V30 379 N 36.9525 1.47285 -0.560781 0
M  V30 380 C 38.2295 1.9558 0.0277798 0
M  V30 381 C 38.6095 1.5034 1.48192 0
M  V30 382 O 37.9575 0.743882 2.16052 0
M  V30 383 C 38.1675 3.48789 -0.121418 0
M  V30 384 C 39.5155 4.24594 0.0220912 0
M  V30 385 O 40.5395 3.56166 -0.0491439 0
M  V30 386 O 39.3985 5.46217 0.175958 0
M  V30 387 H 36.4925 0.824663 0.0621342 0
M  V30 388 H 39.0385 1.5767 -0.627556 0
M  V30 389 H 37.8105 3.74533 -1.13316 0
M  V30 390 H 37.4335 3.93473 0.571366 0
M  V30 391 N 38.4306 0.297415 1.54768 0
M  V30 392 C 39.3776 -0.580276 2.23386 0
M  V30 393 C 40.3476 -1.13238 1.21517 0
M  V30 394 O 41.5326 -1.17757 1.50126 0
M  V30 395 C 38.6726 -1.74801 2.97555 0
M  V30 396 C 37.7856 -1.22764 4.1419 0
M  V30 397 C 36.9206 -2.35895 4.75949 0
M  V30 398 C 35.9596 -1.80974 5.84735 0
M  V30 399 N 35.0966 -2.87664 6.40464 0
M  V30 400 H 39.9366 0.0114833 2.97998 0
M  V30 401 H 37.4736 0.0174361 1.4709 0
M  V30 402 H 39.4316 -2.43475 3.38786 0
M  V30 403 H 38.0616 -2.31145 2.25326 0
M  V30 404 H 37.1136 -0.433271 3.77924 0
M  V30 405 H 38.4256 -0.785551 4.92575 0
M  V30 406 H 37.5796 -3.12523 5.20014 0
M  V30 407 H 36.3186 -2.83429 3.96887 0
M  V30 408 H 35.3236 -1.02834 5.40097 0
M  V30 409 H 36.5486 -1.34348 6.65678 0
M  V30 410 H 34.4946 -3.34538 5.64287 0
M  V30 411 H 34.4116 -2.4794 7.14186 0
M  V30 412 H 35.6796 -3.642 6.89187 0
M  V30 413 N 39.9087 -1.5758 0.0250728 0
M  V30 414 C 41.1337 -1.96337 -0.668317 0
M  V30 415 C 41.5587 -0.901314 -1.651 0
M  V30 416 O 40.9167 0.138187 -1.80773 0
M  V30 417 C 40.9647 -3.34191 -1.35457 0
M  V30 418 O 40.0687 -3.30269 -2.46974 0
M  V30 419 H 39.4097 -0.640281 -0.175887 0
M  V30 420 H 41.9397 -2.0442 0.0857224 0
M  V30 421 H 41.9497 -3.70331 -1.71228 0
M  V30 422 H 40.6247 -4.11036 -0.634218 0
M  V30 423 H 39.2017 -3.05841 -2.13344 0
M  V30 424 N 41.3868 0.248026 -1.55636 0
M  V30 425 C 42.6118 0.998028 -1.81808 0
M  V30 426 C 43.0368 1.78207 -0.601979 0
M  V30 427 O 42.3948 1.75653 0.448961 0
M  V30 428 C 42.4428 1.9125 -3.05705 0
M  V30 429 O 41.5468 3.00406 -2.82542 0
M  V30 430 H 40.8878 0.284045 -0.600179 0
M  V30 431 H 43.4178 0.269357 -2.02819 0
M  V30 432 H 43.4278 2.32737 -3.35108 0
M  V30 433 H 42.1028 1.33602 -3.93857 0
M  V30 434 H 40.6798 2.63056 -2.64303 0
M  V30 435 N 42.8649 1.48995 0.513639 0
M  V30 436 C 44.1129 1.57531 1.26604 0
M  V30 437 C 44.4339 0.258236 1.93283 0
M  V30 438 O 43.7039 -0.721502 1.8213 0
M  V30 439 H 42.2839 0.580387 0.470276 0
M  V30 440 H 44.9459 1.85552 0.596373 0
M  V30 441 H 44.0419 2.36486 2.03669 0
M  V30 442 N 44.343 -0.763751 1.37857 0
M  V30 443 C 45.592 -1.51789 1.32827 0
M  V30 444 C 45.905 -1.95426 -0.0823719 0
M  V30 445 O 47.111 -2.70298 -0.255172 0
M  V30 446 C 45.567 -2.74133 2.33193 0
M  V30 447 C 45.175 -2.37562 3.79827 0
M  V30 448 C 46.919 -3.52054 2.37188 0
M  V30 449 C 44.826 -3.56456 4.71904 0
M  V30 450 H 43.756 -0.569896 0.493695 0
M  V30 451 H 46.407 -0.835822 1.63359 0
M  V30 452 H 44.789 -3.4427 1.9569 0
M  V30 453 H 45.963 -1.75157 4.26212 0
M  V30 454 H 44.278 -1.72798 3.78853 0
M  V30 455 H 46.875 -4.40437 3.03182 0
M  V30 456 H 47.218 -3.92486 1.38782 0
M  V30 457 H 47.751 -2.88921 2.7344 0
M  V30 458 H 44.49 -3.21099 5.71468 0
M  V30 459 H 44.01 -4.17938 4.30218 0
M  V30 460 H 45.689 -4.23168 4.89426 0
M  V30 461 N 45.8211 -1.22559 -0.990812 0
M  V30 462 C 46.7711 -0.964807 -2.0658 0
M  V30 463 C 47.7551 0.0853472 -1.60673 0
M  V30 464 O 48.9471 -0.125443 -1.76555 0
M  V30 465 C 46.0761 -0.546707 -3.38919 0
M  V30 466 C 45.1621 -1.6317 -3.91454 0
M  V30 467 N 45.5531 -2.85985 -4.17189 0
M  V30 468 C 43.8511 -1.50387 -4.19881 0
M  V30 469 C 44.5521 -3.56159 -4.59919 0
M  V30 470 N 43.5281 -2.83637 -4.63736 0
M  V30 471 H 47.3301 -1.89769 -2.24421 0
M  V30 472 H 44.8441 -1.12343 -1.17273 0
M  V30 473 H 46.8411 -0.34119 -4.15502 0
M  V30 474 H 45.5011 0.379254 -3.22478 0
M  V30 475 H 46.5121 -3.22392 -4.05319 0
M  V30 476 H 43.1891 -0.644254 -4.12499 0
M  V30 477 H 44.5791 -4.6139 -4.88435 0
M  V30 478 N 47.2992 1.18797 -1.03562 0
M  V30 479 C 48.5292 1.92319 -0.754773 0
M  V30 480 C 48.9372 1.7612 0.691248 0
M  V30 481 O 48.2802 1.08491 1.48241 0
M  V30 482 C 48.3422 3.44284 -1.03484 0
M  V30 483 C 48.0062 3.84258 -2.47376 0
M  V30 484 C 49.0032 3.88459 -3.45537 0
M  V30 485 C 46.6882 4.15701 -2.81954 0
M  V30 486 C 48.6822 4.23545 -4.76328 0
M  V30 487 C 46.3692 4.50458 -4.12954 0
M  V30 488 C 47.3672 4.54356 -5.09951 0
M  V30 489 O 47.0552 4.88305 -6.38603 0
M  V30 490 H 46.7872 0.617527 -0.275021 0
M  V30 491 H 49.3412 1.51683 -1.38497 0
M  V30 492 H 47.5712 3.85135 -0.347513 0
M  V30 493 H 49.2602 3.99049 -0.7426 0
M  V30 494 H 50.0262 3.6431 -3.20162 0
M  V30 495 H 45.9052 4.11847 -2.0713 0
M  V30 496 H 49.4492 4.26502 -5.52035 0
M  V30 497 H 45.3462 4.74067 -4.38099 0
M  V30 498 H 46.1142 5.06227 -6.43177 0
M  V30 499 N 48.7773 0.814389 1.34928 0
M  V30 500 C 50.0253 0.397636 1.9815 0
M  V30 501 C 50.3463 -1.04069 1.64908 0
M  V30 502 O 49.6163 -1.72121 0.93548 0
M  V30 503 H 48.1963 0.144043 0.732981 0
M  V30 504 H 50.8583 1.04195 1.6471 0
M  V30 505 H 49.9543 0.509688 3.0791 0
M  V30 506 N 50.2554 -1.46986 0.568584 0
M  V30 507 C 51.5014 -2.02741 0.0488709 0
M  V30 508 C 51.8344 -1.44077 -1.30214 0
M  V30 509 O 51.1094 -0.600552 -1.84996 0
M  V30 510 C 51.3924 -3.60086 -0.032047 0
M  V30 511 C 51.2454 -4.29162 1.34686 0
M  V30 512 C 52.5644 -4.33838 -0.739798 0
M  V30 513 H 49.6834 -0.736749 0.0192338 0
M  V30 514 H 52.3254 -1.75289 0.733065 0
M  V30 515 H 50.4754 -3.83606 -0.61473 0
M  V30 516 H 52.1474 -4.16948 1.97362 0
M  V30 517 H 50.3904 -3.89073 1.91846 0
M  V30 518 H 51.0614 -5.37826 1.24285 0
M  V30 519 H 53.5374 -4.15378 -0.244939 0
M  V30 520 H 52.4134 -5.43537 -0.765406 0
M  V30 521 H 52.6744 -4.03875 -1.79827 0
M  V30 522 N 51.7335 -0.305618 -1.54608 0
M  V30 523 C 52.9825 0.303098 -1.9941 0
M  V30 524 C 53.2955 1.54648 -1.19764 0
M  V30 525 O 54.5015 2.23007 -1.54855 0
M  V30 526 C 52.9575 0.590588 -3.55021 0
M  V30 527 C 52.5655 -0.634719 -4.43481 0
M  V30 528 C 54.3095 1.16025 -4.08336 0
M  V30 529 C 52.2165 -0.320126 -5.90533 0
M  V30 530 H 51.1465 0.117031 -0.744862 0
M  V30 531 H 53.7975 -0.415045 -1.78745 0
M  V30 532 H 52.1795 1.36845 -3.71604 0
M  V30 533 H 53.3535 -1.41079 -4.38672 0
M  V30 534 H 51.6685 -1.12333 -4.00962 0
M  V30 535 H 54.2655 1.40994 -5.15776 0
M  V30 536 H 54.6085 2.10397 -3.5922 0
M  V30 537 H 55.1415 0.443985 -3.95315 0
M  V30 538 H 51.8805 -1.23254 -6.43808 0
M  V30 539 H 51.4005 0.418579 -5.98338 0
M  V30 540 H 53.0795 0.0766241 -6.46955 0
M  V30 541 N 53.2116 1.57565 -0.0334293 0
M  V30 542 C 54.4396 1.9628 0.654347 0
M  V30 543 C 54.8546 0.910138 1.65414 0
M  V30 544 O 54.2116 -0.107595 1.82183 0
M  V30 545 C 54.2626 3.35067 1.35693 0
M  V30 546 O 53.9836 4.36296 0.397191 0
M  V30 547 C 55.4846 3.88439 2.13613 0
M  V30 548 H 52.7046 0.646369 0.180132 0
M  V30 549 H 55.2486 2.04282 -0.0944721 0
M  V30 550 H 53.4036 3.2827 2.05712 0
M  V30 551 H 53.8176 5.1678 0.896597 0
M  V30 552 H 55.2916 4.8788 2.58219 0
M  V30 553 H 55.7686 3.22914 2.97696 0
M  V30 554 H 56.3746 3.98516 1.48543 0
M  V30 555 N 54.6897 -0.239769 1.55765 0
M  V30 556 C 55.9297 -0.974076 1.79697 0
M  V30 557 C 56.2937 -1.82249 0.604088 0
M  V30 558 O 57.4947 -2.58913 0.722324 0
M  V30 559 C 55.7657 -1.80595 3.08416 0
M  V30 560 S 57.3247 -2.59838 3.53596 0
M  V30 561 H 54.1427 -0.327524 0.63107 0
M  V30 562 H 56.7447 -0.241277 1.94005 0
M  V30 563 H 55.4487 -1.17249 3.93295 0
M  V30 564 H 54.9797 -2.58137 2.96865 0
M  V30 565 H 56.9947 -3.82987 3.15492 0
M  V30 566 N 56.1678 -1.49265 -0.50573 0
M  V30 567 C 57.0778 -1.68312 -1.63427 0
M  V30 568 C 58.0938 -0.565682 -1.64548 0
M  V30 569 O 59.2698 -0.839801 -1.83055 0
M  V30 570 C 56.3348 -1.74107 -2.99813 0
M  V30 571 C 55.3958 -2.97653 -3.09356 0
M  V30 572 C 54.6288 -3.03163 -4.39236 0
M  V30 573 O 54.8518 -2.16396 -5.27758 0
M  V30 574 O 53.7858 -3.9558 -4.53652 0
M  V30 575 H 57.6118 -2.63907 -1.50289 0
M  V30 576 H 55.1968 -1.32951 -0.681502 0
M  V30 577 H 57.0788 -1.803 -3.80881 0
M  V30 578 H 55.7538 -0.816901 -3.13223 0
M  V30 579 H 54.6608 -2.96981 -2.27493 0
M  V30 580 H 55.9938 -3.89535 -3.00871 0
M  V30 581 N 57.6459 0.756429 -1.3826 0
M  V30 582 C 58.8939 1.51248 -1.34047 0
M  V30 583 C 59.2149 1.94875 0.0698372 0
M  V30 584 O 58.4849 1.67436 1.01696 0
M  V30 585 H 57.0649 0.561018 -0.493222 0
M  V30 586 H 59.7269 0.899347 -1.7291 0
M  V30 587 H 58.8229 2.40472 -1.98947 0
M  V30 588 N 59.124 1.23083 0.984299 0
M  V30 589 C 60.364 1.07226 1.74017 0
M  V30 590 C 60.728 -0.384766 1.88105 0
M  V30 591 O 61.929 -0.664411 2.60459 0
M  V30 592 C 60.2 1.77348 3.10294 0
M  V30 593 S 61.759 1.77014 4.01512 0
M  V30 594 H 58.577 0.383819 0.598502 0
M  V30 595 H 61.179 1.56158 1.17622 0
M  V30 596 H 59.883 2.82506 2.97689 0
M  V30 597 H 59.414 1.28682 3.71759 0
M  V30 598 H 61.429 0.825956 4.89277 0
M  V30 599 N 60.6021 -1.18246 1.0419 0
M  V30 600 C 61.5491 -2.2192 0.634037 0
M  V30 601 C 62.5191 -1.62179 -0.358765 0
M  V30 602 O 63.7041 -1.89122 -0.252466 0
M  V30 603 C 60.8441 -3.451 0.00445535 0
M  V30 604 C 59.9571 -4.19174 1.04487 0
M  V30 605 C 59.0921 -5.29813 0.383676 0
M  V30 606 C 58.1311 -5.9566 1.4091 0
M  V30 607 N 57.2681 -6.97834 0.772784 0
M  V30 608 H 62.1081 -2.56164 1.52263 0
M  V30 609 H 59.6451 -1.25843 0.761701 0
M  V30 610 H 61.6031 -4.15485 -0.377919 0
M  V30 611 H 60.2331 -3.11472 -0.847652 0
M  V30 612 H 59.2851 -3.47604 1.54518 0
M  V30 613 H 60.5971 -4.64267 1.82368 0
M  V30 614 H 59.7511 -6.06677 -0.0528366 0
M  V30 615 H 58.4901 -4.85825 -0.427208 0
M  V30 616 H 57.4951 -5.17535 1.85574 0
M  V30 617 H 58.7201 -6.4173 2.22171 0
M  V30 618 H 56.6661 -6.55998 -0.0177708 0
M  V30 619 H 56.5831 -7.41186 1.48928 0
M  V30 620 H 57.8511 -7.78665 0.36071 0
M  V30 621 N 62.0802 -0.821533 -1.34494 0
M  V30 622 C 63.3282 -0.408139 -1.97936 0
M  V30 623 C 63.6492 1.03193 -1.65457 0
M  V30 624 O 62.9192 1.71622 -0.944595 0
M  V30 625 H 61.4992 -0.147928 -0.732206 0
M  V30 626 H 64.1612 -1.05067 -1.64155 0
M  V30 627 H 63.2572 -0.52601 -3.07635 0
M  V30 628 N 63.5583 1.46682 -0.576371 0
M  V30 629 C 64.8053 2.02412 -0.0595339 0
M  V30 630 C 65.1333 1.44859 1.29793 0
M  V30 631 O 64.3883 0.601099 1.8624 0
M  V30 632 C 64.6873 3.57345 0.062886 0
M  V30 633 C 64.3533 4.33908 -1.22616 0
M  V30 634 C 63.0153 4.54544 -1.57933 0
M  V30 635 C 65.3673 4.77919 -2.07948 0
M  V30 636 C 62.6953 5.16444 -2.78393 0
M  V30 637 C 65.0473 5.41149 -3.27629 0
M  V30 638 C 63.7113 5.60014 -3.63236 0
M  V30 639 H 62.9813 0.74068 -0.021785 0
M  V30 640 H 65.6283 1.76128 -0.751735 0
M  V30 641 H 63.9333 3.82729 0.838178 0
M  V30 642 H 65.6303 3.98136 0.478439 0
M  V30 643 H 62.2203 4.18138 -0.941202 0
M  V30 644 H 66.4043 4.61738 -1.81967 0
M  V30 645 H 61.6603 5.29242 -3.06126 0
M  V30 646 H 65.8343 5.74211 -3.94023 0
M  V30 647 H 63.4613 6.07748 -4.56669 0
M  V30 648 N 65.0364 0.313813 1.54444 0
M  V30 649 C 66.2834 -0.291675 2.00388 0
M  V30 650 C 66.6114 -1.52904 1.2021 0
M  V30 651 O 65.8664 -1.93833 0.269707 0
M  V30 652 C 66.1654 -0.680386 3.50864 0
M  V30 653 C 65.8314 0.456699 4.48581 0
M  V30 654 C 64.4934 0.768824 4.75018 0
M  V30 655 C 66.8454 1.22098 5.06697 0
M  V30 656 C 64.1734 1.84812 5.56831 0
M  V30 657 C 66.5254 2.29029 5.89685 0
M  V30 658 C 65.1894 2.60834 6.14428 0
M  V30 659 H 64.4594 -0.106732 0.733273 0
M  V30 660 H 67.1064 0.43557 1.86481 0
M  V30 661 H 65.4114 -1.48791 3.62448 0
M  V30 662 H 67.1084 -1.16026 3.83847 0
M  V30 663 H 63.6984 0.203337 4.28117 0
M  V30 664 H 67.8824 0.993096 4.86263 0
M  V30 665 H 63.1384 2.09912 5.74236 0
M  V30 666 H 67.3124 2.887 6.33739 0
M  V30 667 H 64.9394 3.44596 6.77612 0
M  V30 668 N 66.5145 -1.57545 0.0417849 0
M  V30 669 C 67.9305 -1.56467 -0.314704 0
M  V30 670 C 68.1305 -1.04859 -1.72066 0
M  V30 671 O 67.1865 -0.700983 -2.42575 0
M  V30 672 C 68.4995 -3.00317 -0.15174 0
M  V30 673 C 70.0475 -3.12201 -0.223553 0
M  V30 674 C 70.5225 -4.57913 -0.0892295 0
M  V30 675 N 72.0135 -4.6297 -0.145808 0
M  V30 676 C 72.7485 -5.73362 -0.0658459 0
M  V30 677 N 72.2445 -6.92769 0.0659282 0
M  V30 678 N 74.0375 -5.6197 -0.12075 0
M  V30 679 H 66.1885 -1.89416 0.961014 0
M  V30 680 H 68.4515 -0.871862 0.372237 0
M  V30 681 H 68.1575 -3.42073 0.817254 0
M  V30 682 H 68.0315 -3.65892 -0.916692 0
M  V30 683 H 70.4185 -2.70349 -1.18301 0
M  V30 684 H 70.4995 -2.49323 0.571994 0
M  V30 685 H 70.1435 -5.00448 0.866867 0
M  V30 686 H 70.0735 -5.18786 -0.903802 0
M  V30 687 H 72.5645 -3.7709 -0.247286 0
M  V30 688 H 72.8775 -7.72707 0.119905 0
M  V30 689 H 71.2225 -6.94927 0.100885 0
M  V30 690 H 74.4135 -4.67572 -0.222187 0
M  V30 691 H 74.5865 -6.47977 -0.0549735 0
M  V30 692 N 67.9926 0.231505 -1.5589 0
M  V30 693 C 69.4086 0.580748 -1.48659 0
M  V30 694 C 69.6086 1.87617 -0.73498 0
M  V30 695 O 68.6646 2.51046 -0.270586 0
M  V30 696 C 69.9776 0.669202 -2.93159 0
M  V30 697 C 71.5256 0.760499 -3.03621 0
M  V30 698 C 72.0006 0.880383 -4.49459 0
M  V30 699 N 73.4916 0.944861 -4.53461 0
M  V30 700 C 74.2266 1.05716 -5.63571 0
M  V30 701 N 73.7226 1.13403 -6.83456 0
M  V30 702 N 75.5156 1.09152 -5.514 0
M  V30 703 H 67.6666 -0.618695 -2.03189 0
M  V30 704 H 69.9296 -0.215728 -0.923128 0
M  V30 705 H 69.6356 -0.212904 -3.51055 0
M  V30 706 H 69.5096 1.5361 -3.44505 0
M  V30 707 H 71.8966 1.63305 -2.45796 0
M  V30 708 H 71.9776 -0.131864 -2.5546 0
M  V30 709 H 71.6216 0.0123284 -5.07899 0
M  V30 710 H 71.5516 1.78802 -4.95316 0
M  V30 711 H 74.0426 0.896176 -3.6712 0
M  V30 712 H 74.3556 1.21921 -7.63122 0
M  V30 713 H 72.7006 1.10333 -6.86186 0
M  V30 714 H 75.8916 1.02805 -4.56671 0
M  V30 715 H 76.0646 1.17558 -6.37247 0
M  V30 716 N 69.4707 1.49531 0.497807 0
M  V30 717 C 70.6957 1.63159 1.28039 0
M  V30 718 C 71.1207 0.30418 1.85624 0
M  V30 719 O 70.4787 -0.728618 1.66015 0
M  V30 720 C 70.5267 2.70537 2.38416 0
M  V30 721 O 69.6307 2.29931 3.42353 0
M  V30 722 H 68.9717 0.546001 0.377861 0
M  V30 723 H 71.5017 1.9574 0.59558 0
M  V30 724 H 71.5117 2.92802 2.84132 0
M  V30 725 H 70.1867 3.6689 1.95869 0
M  V30 726 H 68.7637 2.18009 3.02533 0
M  V30 727 N 70.9488 -0.749086 1.3866 0
M  V30 728 C 71.8808 -1.87273 1.32142 0
M  V30 729 C 72.8938 -1.61127 0.232787 0
M  V30 730 O 74.0828 -1.71623 0.49069 0
M  V30 731 C 71.1828 -3.23005 1.02571 0
M  V30 732 C 70.3558 -3.7662 2.22433 0
M  V30 733 C 69.4148 -4.90879 1.89537 0
M  V30 734 O 68.4408 -5.05276 2.62078 0
M  V30 735 N 69.6428 -5.74198 0.853031 0
M  V30 736 H 72.4078 -1.93373 2.28969 0
M  V30 737 H 69.9688 -0.929216 1.32579 0
M  V30 738 H 71.9608 -3.96992 0.786085 0
M  V30 739 H 70.5308 -3.12262 0.145249 0
M  V30 740 H 69.7508 -2.94147 2.62434 0
M  V30 741 H 71.0388 -4.09173 3.02415 0
M  V30 742 H 70.4368 -5.6514 0.25155 0
M  V30 743 H 68.9938 -6.48313 0.67329 0
M  V30 744 N 72.4269 -1.23603 -0.977757 0
M  V30 745 C 73.3589 -0.977369 -2.07317 0
M  V30 746 C 74.3719 0.0495845 -1.62724 0
M  V30 747 O 75.5609 -0.186261 -1.77526 0
M  V30 748 C 72.6609 -0.451216 -3.35883 0
M  V30 749 C 71.8339 -1.53896 -4.09432 0
M  V30 750 C 70.8929 -1.01721 -5.16274 0
M  V30 751 O 69.9189 -1.70676 -5.43009 0
M  V30 752 N 71.1209 0.153594 -5.80297 0
M  V30 753 H 73.8859 -1.92047 -2.30082 0
M  V30 754 H 71.4469 -1.14497 -1.14465 0
M  V30 755 H 73.4389 -0.0871574 -4.04606 0
M  V30 756 H 72.0089 0.397368 -3.10064 0
M  V30 757 H 71.2289 -2.07566 -3.35127 0
M  V30 758 H 72.5169 -2.27037 -4.55337 0
M  V30 759 H 71.9149 0.730323 -5.60966 0
M  V30 760 H 70.4719 0.458892 -6.50183 0
M  V30 761 N 73.905 1.17692 -1.04816 0
M  V30 762 C 74.853 2.23632 -0.63966 0
M  V30 763 C 75.847 1.6601 0.337219 0
M  V30 764 O 77.053 1.78844 0.203693 0
M  V30 765 H 73.428 0.727949 -0.188665 0
M  V30 766 H 75.399 2.55387 -1.54337 0
M  V30 767 C 74.148 3.4769 -0.0264051 0
M  V30 768 H 73.471 3.92331 -0.769164 0
M  V30 769 H 74.911 4.23418 0.222098 0
M  V30 770 C 73.37 3.13807 1.22584 0
M  V30 771 O 73.9 3.28236 2.31569 0
M  V30 772 N 72.106 2.68065 1.12202 0
M  V30 773 H 71.653 2.56525 0.235133 0
M  V30 774 H 71.611 2.45767 1.96076 0
M  V30 775 N 75.3831 0.828654 1.34056 0
M  V30 776 C 76.3311 0.242973 2.31327 0
M  V30 777 C 77.3251 -0.61944 1.57668 0
M  V30 778 O 78.5311 -0.51014 1.7262 0
M  V30 779 H 74.9061 0.059834 0.749616 0
M  V30 780 H 76.8771 1.07809 2.78244 0
M  V30 781 C 75.6261 -0.575733 3.429 0
M  V30 782 H 74.9491 0.0785582 3.99723 0
M  V30 783 H 76.3891 -0.951547 4.13185 0
M  V30 784 C 74.8481 -1.75044 2.87856 0
M  V30 785 O 75.3781 -2.84882 2.83205 0
M  V30 786 N 73.5841 -1.56903 2.44602 0
M  V30 787 H 73.1311 -0.675547 2.48584 0
M  V30 788 H 73.0891 -2.35652 2.08124 0
M  V30 789 N 76.8612 -1.46375 0.584142 0
M  V30 790 C 77.8242 -2.28784 -0.138108 0
M  V30 791 C 78.8242 -1.38471 -0.817462 0
M  V30 792 O 80.0142 -1.60833 -0.669199 0
M  V30 793 C 77.1462 -3.18892 -1.20503 0
M  V30 794 H 78.3392 -2.94117 0.586127 0
M  V30 795 H 75.8922 -1.52509 0.342171 0
M  V30 796 H 76.6272 -2.58309 -1.96079 0
M  V30 797 H 76.4122 -3.85388 -0.722384 0
M  V30 798 H 77.9022 -3.80914 -1.71155 0
M  V30 799 N 78.3393 -0.321999 -1.54275 0
M  V30 800 C 79.5643 0.285791 -2.05422 0
M  V30 801 C 79.9893 1.45124 -1.19669 0
M  V30 802 O 79.3473 1.80132 -0.205441 0
M  V30 803 C 79.3953 0.69956 -3.53749 0
M  V30 804 O 78.4993 1.8021 -3.70942 0
M  V30 805 H 77.8403 0.0518962 -0.661969 0
M  V30 806 H 80.3703 -0.469954 -1.9913 0
M  V30 807 H 80.3803 0.982649 -3.9599 0
M  V30 808 H 79.0553 -0.152864 -4.15619 0
M  V30 809 H 77.6323 1.51794 -3.40607 0
M  V30 810 N 79.8174 1.5752 -0.0501392 0
M  V30 811 C 81.0474 1.96678 0.632573 0
M  V30 812 C 81.4554 0.926298 1.64974 0
M  V30 813 O 80.7984 -0.09802 1.83438 0
M  V30 814 C 80.8604 3.32068 1.37735 0
M  V30 815 C 80.5244 4.54076 0.516131 0
M  V30 816 C 81.5214 5.19445 -0.217357 0
M  V30 817 C 79.2064 5.00304 0.44736 0
M  V30 818 C 81.2004 6.29378 -1.00807 0
M  V30 819 C 78.8874 6.10114 -0.347038 0
M  V30 820 C 79.8854 6.74512 -1.07344 0
M  V30 821 O 79.5734 7.82211 -1.85477 0
M  V30 822 H 79.3054 0.652193 0.177821 0
M  V30 823 H 81.8594 2.05091 -0.112543 0
M  V30 824 H 80.0894 3.20206 2.16807 0
M  V30 825 H 81.7784 3.55981 1.95019 0
M  V30 826 H 82.5444 4.84689 -0.173688 0
M  V30 827 H 78.4234 4.49971 1.00235 0
M  V30 828 H 81.9674 6.79575 -1.57556 0
M  V30 829 H 77.8644 6.44307 -0.392349 0
M  V30 830 H 78.6324 7.98982 -1.77678 0
M  V30 831 N 81.2955 -0.223234 1.56011 0
M  V30 832 C 82.5205 -0.968978 1.83373 0
M  V30 833 C 82.9455 -1.77227 0.630254 0
M  V30 834 O 82.3035 -1.76345 -0.420959 0
M  V30 835 C 82.3515 -1.86363 3.08709 0
M  V30 836 O 81.4555 -2.95873 2.87285 0
M  V30 837 H 80.7965 -0.274461 0.604622 0
M  V30 838 H 83.3265 -0.237056 2.03222 0
M  V30 839 H 83.3365 -2.27376 3.38768 0
M  V30 840 H 82.0115 -1.27319 3.95933 0
M  V30 841 H 80.5885 -2.58818 2.68454 0
M  V30 842 N 82.7736 -1.49793 -0.48987 0
M  V30 843 C 84.0136 -1.61466 -1.25332 0
M  V30 844 C 84.3776 -0.299688 -1.89647 0
M  V30 845 O 85.5786 -0.291687 -2.67213 0
M  V30 846 C 83.8496 -2.74944 -2.28343 0
M  V30 847 S 85.4086 -3.06637 -3.13878 0
M  V30 848 H 82.2266 -0.569411 -0.425784 0
M  V30 849 H 84.8286 -1.875 -0.553541 0
M  V30 850 H 83.5326 -3.68994 -1.79643 0
M  V30 851 H 83.0636 -2.50938 -3.02975 0
M  V30 852 H 85.0786 -2.49015 -4.29192 0
M  V30 853 N 84.2517 0.741722 -1.39055 0
M  V30 854 C 85.6627 1.31966 -1.32068 0
M  V30 855 C 86.0137 1.96192 0.0180797 0
M  V30 856 O 85.1387 1.95861 0.920196 0
M  V30 857 C 85.7337 2.39954 -2.39181 0
M  V30 858 C 84.2927 2.93438 -2.35735 0
M  V30 859 C 83.4397 1.66936 -2.21422 0
M  V30 860 H 86.3907 0.539721 -1.4924 0
M  V30 861 H 86.4117 3.20182 -2.05581 0
M  V30 862 H 85.9237 1.9318 -3.36605 0
M  V30 863 H 84.0247 3.4451 -1.41929 0
M  V30 864 H 84.1377 3.4701 -3.30335 0
M  V30 865 H 82.5017 1.91016 -1.68478 0
M  V30 866 H 83.2847 1.22224 -3.20806 0
M  V30 867 N 85.7298 1.2412 0.971189 0
M  V30 868 C 87.1458 1.00584 1.23916 0
M  V30 869 C 87.3458 -0.287481 1.99439 0
M  V30 870 O 86.4018 -1.00454 2.31658 0
M  V30 871 C 87.7148 2.21864 2.0297 0
M  V30 872 C 89.2628 2.26452 2.16076 0
M  V30 873 C 89.7378 3.47343 2.98524 0
M  V30 874 N 91.2288 3.47639 3.06107 0
M  V30 875 C 91.9638 4.37837 3.70251 0
M  V30 876 N 91.4598 5.38286 4.36142 0
M  V30 877 N 93.2528 4.25558 3.67228 0
M  V30 878 H 85.4038 2.07236 0.465499 0
M  V30 879 H 87.6668 0.909236 0.268315 0
M  V30 880 H 87.3728 3.15771 1.54861 0
M  V30 881 H 87.2468 2.23698 3.03709 0
M  V30 882 H 89.6338 1.33078 2.6339 0
M  V30 883 H 89.7148 2.28645 1.14696 0
M  V30 884 H 89.3588 4.41029 2.51905 0
M  V30 885 H 89.2888 3.42393 4.00093 0
M  V30 886 H 91.7798 2.74966 2.59233 0
M  V30 887 H 92.0928 6.03352 4.82894 0
M  V30 888 H 90.4378 5.42176 4.34822 0
M  V30 889 H 93.6288 3.46322 3.14927 0
M  V30 890 H 93.8018 4.96054 4.16935 0
M  V30 891 N 87.2079 -1.17134 1.05439 0
M  V30 892 C 88.1399 -2.2078 0.615539 0
M  V30 893 C 89.1529 -1.59584 -0.322001 0
M  V30 894 O 90.3419 -1.78133 -0.114344 0
M  V30 895 C 87.4419 -3.38691 -0.118938 0
M  V30 896 C 86.6149 -4.29454 0.829924 0
M  V30 897 C 85.6739 -5.26024 0.136258 0
M  V30 898 O 84.6999 -5.63952 0.77115 0
M  V30 899 N 85.9019 -5.69487 -1.1254 0
M  V30 900 H 88.6669 -2.59052 1.50705 0
M  V30 901 H 86.2279 -1.32058 0.936603 0
M  V30 902 H 88.2199 -4.00329 -0.593179 0
M  V30 903 H 86.7899 -2.98996 -0.91215 0
M  V30 904 H 86.0099 -3.65211 1.48373 0
M  V30 905 H 87.2979 -4.86984 1.47392 0
M  V30 906 H 86.6959 -5.4075 -1.6615 0
M  V30 907 H 85.2529 -6.33257 -1.54366 0
M  V30 908 N 88.686 -0.835752 -1.33615 0
M  V30 909 C 90.102 -0.523139 -1.50783 0
M  V30 910 C 90.302 0.950171 -1.77691 0
M  V30 911 O 89.358 1.73411 -1.83534 0
M  V30 912 C 90.671 -1.39378 -2.66448 0
M  V30 913 C 92.219 -1.39223 -2.80332 0
M  V30 914 C 92.694 -2.24765 -3.99055 0
M  V30 915 N 94.185 -2.22458 -4.06284 0
M  V30 916 C 94.92 -2.85386 -4.97336 0
M  V30 917 N 94.416 -3.57354 -5.93523 0
M  V30 918 N 96.209 -2.74872 -4.90308 0
M  V30 919 H 88.36 -1.78952 -1.14411 0
M  V30 920 H 90.623 -0.763297 -0.562212 0
M  V30 921 H 90.329 -2.44061 -2.53234 0
M  V30 922 H 90.203 -1.0676 -3.61776 0
M  V30 923 H 92.59 -0.353136 -2.92979 0
M  V30 924 H 92.671 -1.75846 -1.85773 0
M  V30 925 H 92.315 -3.28732 -3.87167 0
M  V30 926 H 92.245 -1.85485 -4.92852 0
M  V30 927 H 94.736 -1.70119 -3.37443 0
M  V30 928 H 95.049 -4.02584 -6.59656 0
M  V30 929 H 93.394 -3.61461 -5.93608 0
M  V30 930 H 96.585 -2.18213 -4.14126 0
M  V30 931 H 96.758 -3.24199 -5.61069 0
M  V30 932 N 90.1641 1.46063 -0.591896 0
M  V30 933 C 91.1121 2.32124 0.148739 0
M  V30 934 C 92.1061 1.45035 0.875286 0
M  V30 935 O 93.3121 1.61609 0.792632 0
M  V30 936 H 89.6871 0.749024 0.066832 0
M  V30 937 H 91.6581 2.92392 -0.595783 0
M  V30 938 C 90.4071 3.28373 1.1431 0
M  V30 939 H 89.7301 3.95371 0.59346 0
M  V30 940 H 91.1701 3.91352 1.63155 0
M  V30 941 C 89.6291 2.54393 2.20875 0
M  V30 942 O 90.1591 2.31373 3.28374 0
M  V30 943 N 88.3651 2.14797 1.95731 0
M  V30 944 H 87.9121 2.33719 1.08319 0
M  V30 945 H 87.8701 1.65619 2.67241 0
M  V30 946 N 91.6422 0.330177 1.54103 0
M  V30 947 C 92.8822 -0.270916 2.02597 0
M  V30 948 C 93.2462 -1.48826 1.21304 0
M  V30 949 O 94.4472 -2.16266 1.59633 0
M  V30 950 C 92.7182 -0.590328 3.52491 0
M  V30 951 S 94.2772 -1.17014 4.2291 0
M  V30 952 H 91.0952 -0.0815379 0.706309 0
M  V30 953 H 93.6972 0.464835 1.89893 0
M  V30 954 H 92.4012 0.303691 4.09275 0
M  V30 955 H 91.9322 -1.3561 3.69288 0
M  V30 956 H 93.9472 -2.45662 4.3112 0
M  V30 957 N 93.1203 -1.57491 0.0584922 0
M  V30 958 C 94.0503 -2.14988 -0.911178 0
M  V30 959 C 95.0313 -1.07343 -1.31952 0
M  V30 960 O 96.2163 -1.35318 -1.39294 0
M  V30 961 C 93.3463 -2.70078 -2.18347 0
M  V30 962 C 92.3003 -3.82771 -1.91495 0
M  V30 963 C 91.6263 -4.24408 -3.25241 0
M  V30 964 C 92.9263 -5.07592 -1.23075 0
M  V30 965 H 94.6203 -2.96263 -0.432246 0
M  V30 966 H 92.1663 -1.42512 -0.206469 0
M  V30 967 H 94.1193 -3.08943 -2.86587 0
M  V30 968 H 92.8433 -1.86005 -2.68458 0
M  V30 969 H 91.5023 -3.44389 -1.25664 0
M  V30 970 H 91.1503 -3.37275 -3.73168 0
M  V30 971 H 90.8503 -5.00366 -3.08071 0
M  V30 972 H 92.3743 -4.65879 -3.94701 0
M  V30 973 H 93.7883 -5.43857 -1.81362 0
M  V30 974 H 92.1853 -5.88741 -1.16207 0
M  V30 975 H 93.2553 -4.84454 -0.207847 0
M  V30 976 N 94.5984 0.214957 -1.56127 0
M  V30 977 C 95.8474 0.936451 -1.78643 0
M  V30 978 C 96.1604 1.85237 -0.628229 0
M  V30 979 O 97.3664 2.613 -0.737186 0
M  V30 980 C 95.8224 1.7154 -3.16389 0
M  V30 981 C 95.4304 0.845299 -4.39953 0
M  V30 982 C 97.1744 2.42772 -3.48227 0
M  V30 983 C 95.0814 1.62198 -5.68723 0
M  V30 984 H 94.0114 0.353401 -0.666051 0
M  V30 985 H 96.6624 0.190169 -1.82512 0
M  V30 986 H 95.0444 2.50484 -3.06715 0
M  V30 987 H 96.2184 0.0959353 -4.607 0
M  V30 988 H 94.5334 0.244789 -4.1568 0
M  V30 989 H 97.1304 3.01394 -4.41663 0
M  V30 990 H 97.4734 3.15984 -2.71035 0
M  V30 991 H 98.0064 1.70813 -3.5926 0
M  V30 992 H 94.7454 0.933011 -6.48826 0
M  V30 993 H 94.2654 2.34579 -5.52026 0
M  V30 994 H 95.9444 2.18095 -6.09133 0
M  V30 995 N 96.0765 1.50051 0.48192 0
M  V30 996 C 97.3535 1.51009 1.2432 0
M  V30 997 C 97.7335 0.248587 2.09631 0
M  V30 998 O 97.0815 -0.768409 2.15192 0
M  V30 999 C 97.2915 2.79981 2.08355 0
M  V30 1000 C 98.6395 3.3022 2.66908 0
M  V30 1001 O 99.6635 2.81228 2.18607 0
M  V30 1002 O 98.5225 4.15595 3.54884 0
M  V30 1003 H 95.6165 0.605239 0.563573 0
M  V30 1004 H 98.1625 1.62332 0.494627 0
M  V30 1005 H 96.9345 3.63275 1.45419 0
M  V30 1006 H 96.5575 2.7161 2.90368 0
M  V30 1007 N 97.5546 -0.734337 1.39446 0
M  V30 1008 C 98.9706 -1.03997 1.21065 0
M  V30 1009 C 99.1706 -2.01369 0.0727019 0
M  V30 1010 O 98.2266 -2.45856 -0.575426 0
M  V30 1011 C 99.5396 -1.60163 2.54496 0
M  V30 1012 C 101.088 -1.7224 2.61347 0
M  V30 1013 C 101.563 -2.31814 3.95002 0
M  V30 1014 N 103.054 -2.39223 3.96644 0
M  V30 1015 C 103.789 -2.86258 4.96834 0
M  V30 1016 N 103.285 -3.33184 6.07421 0
M  V30 1017 N 105.078 -2.85473 4.84213 0
M  V30 1018 H 97.2286 -0.0885624 2.12215 0
M  V30 1019 H 99.4916 -0.10191 0.942506 0
M  V30 1020 H 99.1976 -0.960811 3.38321 0
M  V30 1021 H 99.0716 -2.5896 2.74262 0
M  V30 1022 H 101.459 -2.35443 1.77906 0
M  V30 1023 H 101.54 -0.720939 2.4543 0
M  V30 1024 H 101.184 -1.69238 4.78875 0
M  V30 1025 H 101.114 -3.32638 4.08239 0
M  V30 1026 H 103.605 -2.06057 3.16779 0
M  V30 1027 H 103.918 -3.67586 6.7978 0
M  V30 1028 H 102.263 -3.31191 6.11013 0
M  V30 1029 H 105.454 -2.48136 3.96921 0
M  V30 1030 H 105.627 -3.21814 5.62441 0
M  V30 1031 N 99.0327 -1.24633 -0.964593 0
M  V30 1032 C 100.261 -1.11501 -1.74285 0
M  V30 1033 C 100.676 0.332165 -1.85855 0
M  V30 1034 O 100.033 1.22903 -1.34911 0
M  V30 1035 C 100.084 -1.75258 -3.16175 0
M  V30 1036 O 99.8047 -3.14318 -3.05182 0
M  V30 1037 C 101.306 -1.67776 -4.10324 0
M  V30 1038 H 98.5257 -0.389407 -0.546446 0
M  V30 1039 H 101.07 -1.64801 -1.21083 0
M  V30 1040 H 99.2247 -1.25954 -3.66353 0
M  V30 1041 H 99.6387 -3.4551 -3.94618 0
M  V30 1042 H 101.113 -2.17064 -5.0753 0
M  V30 1043 H 101.59 -0.639584 -4.34518 0
M  V30 1044 H 102.196 -2.16522 -3.66058 0
M  V30 1045 N 100.511 1.16574 -1.06058 0
M  V30 1046 C 101.459 2.22941 -0.663343 0
M  V30 1047 C 102.453 1.66358 0.319593 0
M  V30 1048 O 103.659 1.7905 0.184713 0
M  V30 1049 H 100.034 0.725907 -0.196376 0
M  V30 1050 H 102.005 2.53736 -1.57037 0
M  V30 1051 C 100.754 3.47642 -0.0632808 0
M  V30 1052 H 100.077 3.91493 -0.810733 0
M  V30 1053 H 101.517 4.2363 0.177177 0
M  V30 1054 C 99.9758 3.1509 1.19248 0
M  V30 1055 O 100.506 3.30673 2.28075 0
M  V30 1056 N 98.7118 2.6924 1.09353 0
M  V30 1057 H 98.2588 2.5676 0.207912 0
M  V30 1058 H 98.2168 2.47833 1.93458 0
M  V30 1059 N 101.989 0.842826 1.3317 0
M  V30 1060 C 103.405 0.531128 1.50503 0
M  V30 1061 C 103.605 -0.940734 1.78192 0
M  V30 1062 O 102.661 -1.72436 1.84451 0
M  V30 1063 C 103.974 1.40789 2.65705 0
M  V30 1064 C 105.522 1.40708 2.79589 0
M  V30 1065 C 105.997 2.26878 3.97857 0
M  V30 1066 N 107.488 2.24609 4.05099 0
M  V30 1067 C 108.223 2.88019 4.95815 0
M  V30 1068 N 107.719 3.60496 5.9162 0
M  V30 1069 N 109.512 2.77469 4.88843 0
M  V30 1070 H 101.663 1.79557 1.1346 0
M  V30 1071 H 103.926 0.766267 0.558156 0
M  V30 1072 H 103.632 2.454 2.51936 0
M  V30 1073 H 103.506 1.08677 3.61205 0
M  V30 1074 H 105.893 0.368668 2.92788 0
M  V30 1075 H 105.974 1.76829 1.84838 0
M  V30 1076 H 105.618 3.3078 3.85418 0
M  V30 1077 H 105.548 1.88096 4.91861 0
M  V30 1078 H 108.039 1.71906 3.36536 0
M  V30 1079 H 108.352 4.06076 6.57512 0
M  V30 1080 H 106.697 3.64604 5.91683 0
M  V30 1081 H 109.888 2.20406 4.12963 0
M  V30 1082 H 110.061 3.2717 5.59342 0
M  V30 1083 N 103.467 -1.45747 0.599634 0
M  V30 1084 C 104.415 -2.322 -0.136426 0
M  V30 1085 C 105.409 -1.45497 -0.867583 0
M  V30 1086 O 106.615 -1.62027 -0.78405 0
M  V30 1087 H 102.99 -0.749368 -0.0628588 0
M  V30 1088 H 104.961 -2.92072 0.611281 0
M  V30 1089 C 103.71 -3.28974 -1.12567 0
M  V30 1090 H 103.033 -3.9568 -0.572484 0
M  V30 1091 H 104.473 -3.92212 -1.61077 0
M  V30 1092 C 102.932 -2.55561 -2.19523 0
M  V30 1093 O 103.462 -2.33111 -3.27143 0
M  V30 1094 N 101.668 -2.15832 -1.94589 0
M  V30 1095 H 101.215 -2.3429 -1.07078 0
M  V30 1096 H 101.173 -1.67034 -2.66359 0
M  V30 1097 N 104.945 -0.338344 -1.53925 0
M  V30 1098 C 106.361 0.0137736 -1.59594 0
M  V30 1099 C 106.561 1.49186 -1.35447 0
M  V30 1100 O 105.617 2.24987 -1.14616 0
M  V30 1101 C 106.93 -0.41773 -2.97784 0
M  V30 1102 C 108.478 -0.369633 -3.1081 0
M  V30 1103 C 108.953 -0.776524 -4.51369 0
M  V30 1104 N 110.444 -0.730506 -4.57403 0
M  V30 1105 C 111.179 -1.01736 -5.64303 0
M  V30 1106 N 110.675 -1.3721 -6.79077 0
M  V30 1107 N 112.468 -0.941942 -5.54151 0
M  V30 1108 H 104.619 -1.3012 -1.67876 0
M  V30 1109 H 106.882 -0.530082 -0.78595 0
M  V30 1110 H 106.588 -1.44811 -3.20504 0
M  V30 1111 H 106.462 0.209729 -3.76616 0
M  V30 1112 H 108.849 0.651568 -2.87817 0
M  V30 1113 H 108.93 -1.03223 -2.34049 0
M  V30 1114 H 108.574 -1.79571 -4.75096 0
M  V30 1115 H 108.504 -0.0914649 -5.26521 0
M  V30 1116 H 110.995 -0.468783 -3.74981 0
M  V30 1117 H 111.308 -1.57597 -7.5656 0
M  V30 1118 H 109.653 -1.4105 -6.80536 0
M  V30 1119 H 112.844 -0.664184 -4.63364 0
M  V30 1120 H 113.017 -1.16884 -6.37371 0
M  V30 1121 N 106.423 1.57458 -0.0668435 0
M  V30 1122 C 107.663 1.95175 0.607116 0
M  V30 1123 C 108.027 0.946039 1.67075 0
M  V30 1124 O 109.228 1.2107 2.39991 0
M  V30 1125 C 107.499 3.37582 1.17358 0
M  V30 1126 S 109.058 3.97271 1.86336 0
M  V30 1127 H 105.876 0.682604 0.19893 0
M  V30 1128 H 108.478 1.95002 -0.139519 0
M  V30 1129 H 107.182 4.08566 0.387553 0
M  V30 1130 H 106.713 3.41288 1.95669 0
M  V30 1131 H 108.728 3.83772 3.14537 0
M  V30 1132 N 107.901 -0.206675 1.56239 0
M  V30 1133 C 108.833 -1.27997 1.9013 0
M  V30 1134 C 109.846 -1.42299 0.790883 0
M  V30 1135 O 111.035 -1.42931 1.06925 0
M  V30 1136 C 108.135 -2.65368 2.10792 0
M  V30 1137 C 107.308 -2.72824 3.41886 0
M  V30 1138 C 106.367 -3.9131 3.51799 0
M  V30 1139 O 105.393 -3.78953 4.24716 0
M  V30 1140 N 106.595 -5.06265 2.84035 0
M  V30 1141 H 109.36 -0.992444 2.82791 0
M  V30 1142 H 106.921 -0.396652 1.56966 0
M  V30 1143 H 108.913 -3.43039 2.14724 0
M  V30 1144 H 107.483 -2.86657 1.24685 0
M  V30 1145 H 106.703 -1.81515 3.49923 0
M  V30 1146 H 107.991 -2.74786 4.28217 0
M  V30 1147 H 107.389 -5.19203 2.246 0
M  V30 1148 H 105.946 -5.81925 2.93609 0
M  V30 1149 N 109.379 -1.50304 -0.473955 0
M  V30 1150 C 110.329 -1.65347 -1.56985 0
M  V30 1151 C 111.313 -0.508176 -1.52664 0
M  V30 1152 O 112.505 -0.762446 -1.59737 0
M  V30 1153 C 109.634 -1.74832 -2.95447 0
M  V30 1154 C 108.72 -2.95028 -3.04662 0
M  V30 1155 N 109.111 -4.18747 -2.83698 0
M  V30 1156 C 107.409 -2.93527 -3.35795 0
M  V30 1157 C 108.11 -4.99687 -2.97805 0
M  V30 1158 N 107.086 -4.33585 -3.2788 0
M  V30 1159 H 110.888 -2.58698 -1.39472 0
M  V30 1160 H 108.402 -1.47449 -0.680629 0
M  V30 1161 H 110.399 -1.83712 -3.7424 0
M  V30 1162 H 109.059 -0.826376 -3.14008 0
M  V30 1163 H 110.07 -4.48291 -2.59337 0
M  V30 1164 H 106.747 -2.10821 -3.60362 0
M  V30 1165 H 108.137 -6.08057 -2.85861 0
M  V30 1166 N 110.857 0.726932 -1.39834 0
M  V30 1167 C 112.097 1.4992 -1.38936 0
M  V30 1168 C 112.461 1.91996 0.0126883 0
M  V30 1169 O 113.662 2.68399 0.146715 0
M  V30 1170 C 111.933 2.70013 -2.34153 0
M  V30 1171 S 113.492 3.59563 -2.51515 0
M  V30 1172 H 110.31 0.51271 -0.492595 0
M  V30 1173 H 112.912 0.85107 -1.76003 0
M  V30 1174 H 111.616 2.37254 -3.34871 0
M  V30 1175 H 111.147 3.39748 -1.98331 0
M  V30 1176 H 113.162 4.63973 -1.75909 0
M  V30 1177 N 112.336 1.25143 0.95797 0
M  V30 1178 C 113.752 1.01892 1.22842 0
M  V30 1179 C 113.952 -0.266311 1.99732 0
M  V30 1180 O 113.008 -0.979913 2.3271 0
M  V30 1181 C 114.321 2.24004 2.00606 0
M  V30 1182 C 115.869 2.28731 2.13662 0
M  V30 1183 C 116.344 3.5049 2.94823 0
M  V30 1184 N 117.835 3.50866 3.02403 0
M  V30 1185 C 118.57 4.4174 3.65586 0
M  V30 1186 N 118.066 5.42882 4.30408 0
M  V30 1187 N 119.859 4.29429 3.62694 0
M  V30 1188 H 112.01 2.07718 0.443493 0
M  V30 1189 H 114.273 0.912031 0.258657 0
M  V30 1190 H 113.979 3.17395 1.51503 0
M  V30 1191 H 113.853 2.26907 3.01319 0
M  V30 1192 H 116.24 1.35865 2.61963 0
M  V30 1193 H 116.321 2.29848 1.12265 0
M  V30 1194 H 115.965 4.43676 2.47213 0
M  V30 1195 H 115.895 3.46617 3.96439 0
M  V30 1196 H 118.386 2.777 2.56302 0
M  V30 1197 H 118.699 6.0844 4.76467 0
M  V30 1198 H 117.044 5.46758 4.29047 0
M  V30 1199 H 120.235 3.49643 3.11236 0
M  V30 1200 H 120.408 5.00448 4.1165 0
M  V30 1201 N 113.814 -1.1601 1.06675 0
M  V30 1202 C 114.744 -2.22688 0.702307 0
M  V30 1203 C 115.725 -1.67306 -0.307032 0
M  V30 1204 O 116.91 -1.93352 -0.181305 0
M  V30 1205 C 114.04 -3.47178 0.092038 0
M  V30 1206 C 112.994 -4.15477 1.02777 0
M  V30 1207 C 112.32 -5.33963 0.28061 0
M  V30 1208 C 113.62 -4.66019 2.35846 0
M  V30 1209 H 115.314 -2.53429 1.59419 0
M  V30 1210 H 112.86 -1.21813 0.767961 0
M  V30 1211 H 114.813 -4.21037 -0.174814 0
M  V30 1212 H 113.537 -3.15749 -0.834877 0
M  V30 1213 H 112.196 -3.43549 1.27944 0
M  V30 1214 H 111.844 -4.98788 -0.649545 0
M  V30 1215 H 111.544 -5.806 0.904258 0
M  V30 1216 H 113.068 -6.10596 0.021396 0
M  V30 1217 H 114.482 -5.3144 2.15045 0
M  V30 1218 H 112.879 -5.23293 2.93743 0
M  V30 1219 H 113.949 -3.82023 2.98641 0
M  V30 1220 N 115.292 -0.849877 -1.32721 0
M  V30 1221 C 116.224 -0.248332 -2.27851 0
M  V30 1222 C 117.237 0.577218 -1.52224 0
M  V30 1223 O 118.426 0.402489 -1.73903 0
M  V30 1224 C 115.526 0.668107 -3.32249 0
M  V30 1225 C 114.699 -0.120534 -4.37234 0
M  V30 1226 C 113.758 0.720932 -5.21238 0
M  V30 1227 O 112.784 0.156166 -5.68986 0
M  V30 1228 N 113.986 2.03647 -5.43607 0
M  V30 1229 H 116.751 -1.06575 -2.80111 0
M  V30 1230 H 114.312 -0.709395 -1.45531 0
M  V30 1231 H 116.304 1.23627 -3.85355 0
M  V30 1232 H 114.874 1.38621 -2.80184 0
M  V30 1233 H 114.094 -0.870108 -3.84477 0
M  V30 1234 H 115.382 -0.662406 -5.0447 0
M  V30 1235 H 114.78 2.51871 -5.06535 0
M  V30 1236 H 113.337 2.55287 -5.99727 0
M  V30 1237 N 116.77 1.45427 -0.607355 0
M  V30 1238 C 117.717 2.3053 0.111625 0
M  V30 1239 C 118.687 1.4209 0.860216 0
M  V30 1240 O 119.872 1.71019 0.845998 0
M  V30 1241 C 117.012 3.26992 1.10319 0
M  V30 1242 C 116.125 4.30535 0.355493 0
M  V30 1243 C 115.26 5.14105 1.33676 0
M  V30 1244 C 114.299 6.09376 0.576862 0
M  V30 1245 N 113.436 6.85727 1.5074 0
M  V30 1246 H 118.276 2.91477 -0.620093 0
M  V30 1247 H 115.813 1.43631 -0.317594 0
M  V30 1248 H 117.771 3.81385 1.6912 0
M  V30 1249 H 116.401 2.67799 1.80232 0
M  V30 1250 H 115.453 3.78805 -0.348023 0
M  V30 1251 H 116.765 4.98235 -0.237423 0
M  V30 1252 H 115.919 5.72897 1.99684 0
M  V30 1253 H 114.658 4.46423 1.9636 0
M  V30 1254 H 113.663 5.49715 -0.0968519 0
M  V30 1255 H 114.888 6.79085 -0.0449341 0
M  V30 1256 H 112.834 6.20735 2.12189 0
M  V30 1257 H 112.751 7.49778 0.967913 0
M  V30 1258 H 114.019 7.4906 2.15706 0
M  V30 1259 N 118.248 0.346503 1.53744 0
M  V30 1260 C 119.488 -0.249413 2.02873 0
M  V30 1261 C 119.852 -1.47532 1.22876 0
M  V30 1262 O 121.053 -2.1456 1.61918 0
M  V30 1263 C 119.324 -0.552909 3.53097 0
M  V30 1264 S 120.883 -1.12521 4.24128 0
M  V30 1265 H 117.701 -0.074042 0.707134 0
M  V30 1266 H 120.303 0.48495 1.8939 0
M  V30 1267 H 119.007 0.347083 4.0893 0
M  V30 1268 H 118.538 -1.31686 3.70705 0
M  V30 1269 H 120.553 -2.41075 4.33702 0
M  V30 1270 N 119.726 -1.57421 0.075193 0
M  V30 1271 C 120.656 -2.15942 -0.888324 0
M  V30 1272 C 121.637 -1.08737 -1.30806 0
M  V30 1273 O 122.822 -1.36787 -1.37851 0
M  V30 1274 C 119.952 -2.72379 -2.1547 0
M  V30 1275 C 118.906 -3.8478 -1.87425 0
M  V30 1276 C 118.232 -4.27834 -3.20721 0
M  V30 1277 C 119.532 -5.08869 -1.17684 0
M  V30 1278 H 121.226 -2.96705 -0.400799 0
M  V30 1279 H 118.772 -1.42723 -0.191342 0
M  V30 1280 H 120.725 -3.11965 -2.83295 0
M  V30 1281 H 119.449 -1.88841 -2.6647 0
M  V30 1282 H 118.108 -3.45703 -1.22004 0
M  V30 1283 H 117.756 -3.41214 -3.6957 0
M  V30 1284 H 117.456 -5.03605 -3.02746 0
M  V30 1285 H 118.98 -4.70039 -3.89738 0
M  V30 1286 H 120.394 -5.4575 -1.75584 0
M  V30 1287 H 118.791 -5.8994 -1.09956 0
M  V30 1288 H 119.861 -4.84648 -0.156453 0
M  V30 1289 N 121.204 0.198386 -1.56346 0
M  V30 1290 C 122.167 1.22952 -1.93431 0
M  V30 1291 C 123.167 1.38611 -0.815092 0
M  V30 1292 O 124.357 1.36479 -1.08255 0
M  V30 1293 C 121.489 2.59946 -2.20546 0
M  V30 1294 H 122.682 0.912626 -2.85677 0
M  V30 1295 H 120.235 0.43977 -1.49986 0
M  V30 1296 H 120.97 2.96696 -1.30927 0
M  V30 1297 H 120.755 2.49953 -3.02102 0
M  V30 1298 H 122.245 3.3431 -2.50253 0
M  V30 1299 N 122.682 1.50554 0.465978 0
M  V30 1300 C 123.612 1.72722 1.57128 0
M  V30 1301 C 124.593 0.576294 1.6004 0
M  V30 1302 O 125.778 0.81598 1.76225 0
M  V30 1303 C 122.908 1.82605 2.95419 0
M  V30 1304 C 121.862 2.97835 3.07373 0
M  V30 1305 C 121.188 2.92867 4.47363 0
M  V30 1306 C 122.488 4.38265 2.84114 0
M  V30 1307 H 124.182 2.65267 1.38829 0
M  V30 1308 H 121.728 1.2765 0.666441 0
M  V30 1309 H 123.681 1.96698 3.72677 0
M  V30 1310 H 122.405 0.866858 3.14886 0
M  V30 1311 H 121.064 2.83401 2.3255 0
M  V30 1312 H 120.712 1.94783 4.63755 0
M  V30 1313 H 120.412 3.70227 4.56296 0
M  V30 1314 H 121.936 3.09015 5.26633 0
M  V30 1315 H 123.35 4.53198 3.51118 0
M  V30 1316 H 121.747 5.17115 3.04487 0
M  V30 1317 H 122.817 4.50281 1.7993 0
M  V30 1318 N 124.16 -0.719506 1.40217 0
M  V30 1319 C 125.408 -1.47641 1.3801 0
M  V30 1320 C 125.729 -1.94992 -0.018145 0
M  V30 1321 O 124.999 -1.70073 -0.972207 0
M  V30 1322 H 123.579 -0.547744 0.507923 0
M  V30 1323 H 126.241 -0.853187 1.75233 0
M  V30 1324 H 125.337 -2.35112 2.05253 0
M  V30 1325 N 125.638 -1.25649 -0.95132 0
M  V30 1326 C 126.571 -1.00644 -2.04807 0
M  V30 1327 C 127.549 0.0654271 -1.62468 0
M  V30 1328 O 128.733 -0.074911 -1.88351 0
M  V30 1329 C 125.86 -0.522052 -3.34653 0
M  V30 1330 C 124.906 -1.58495 -3.95957 0
M  V30 1331 S 125.739 -3.17108 -4.31512 0
M  V30 1332 C 126.895 -2.70412 -5.64471 0
M  V30 1333 H 127.128 -1.93508 -2.25703 0
M  V30 1334 H 124.661 -1.09216 -1.09139 0
M  V30 1335 H 126.619 -0.24923 -4.09743 0
M  V30 1336 H 125.28 0.386146 -3.11717 0
M  V30 1337 H 124.473 -1.1968 -4.89584 0
M  V30 1338 H 124.075 -1.80862 -3.2736 0
M  V30 1339 H 126.367 -2.14245 -6.42733 0
M  V30 1340 H 127.31 -3.62693 -6.08161 0
M  V30 1341 H 127.718 -2.10302 -5.23864 0
M  V30 1342 N 127.117 1.15442 -1.07289 0
M  V30 1343 C 128.342 1.90638 -0.816828 0
M  V30 1344 C 128.767 1.77445 0.624083 0
M  V30 1345 O 128.125 1.10671 1.43602 0
M  V30 1346 C 128.173 3.39008 -1.22906 0
M  V30 1347 O 127.277 4.10701 -0.373975 0
M  V30 1348 H 126.618 0.593555 -0.297638 0
M  V30 1349 H 129.148 1.46198 -1.43134 0
M  V30 1350 H 129.158 3.89801 -1.20497 0
M  V30 1351 H 127.833 3.47929 -2.27856 0
M  V30 1352 H 126.41 3.70046 -0.460499 0
M  V30 1353 N 128.595 0.856903 1.32268 0
M  V30 1354 C 130.011 0.547061 1.49931 0
M  V30 1355 C 130.211 -0.921781 1.7918 0
M  V30 1356 O 129.267 -1.70469 1.8627 0
M  V30 1357 C 130.58 1.43599 2.64196 0
M  V30 1358 C 132.128 1.43665 2.78081 0
M  V30 1359 C 132.603 2.31085 3.95428 0
M  V30 1360 N 134.094 2.28893 4.02694 0
M  V30 1361 C 134.829 2.93262 4.92732 0
M  V30 1362 N 134.325 3.66751 5.87763 0
M  V30 1363 N 136.118 2.82638 4.85873 0
M  V30 1364 H 128.269 1.8075 1.11549 0
M  V30 1365 H 130.532 0.772144 0.549997 0
M  V30 1366 H 130.238 2.48058 2.49319 0
M  V30 1367 H 130.112 1.12502 3.60032 0
M  V30 1368 H 132.499 0.399701 2.92381 0
M  V30 1369 H 132.58 1.7878 1.82952 0
M  V30 1370 H 132.224 3.34849 3.81888 0
M  V30 1371 H 132.154 1.93302 4.89839 0
M  V30 1372 H 134.645 1.75466 3.34694 0
M  V30 1373 H 134.958 4.13027 6.53168 0
M  V30 1374 H 133.303 3.70859 5.87783 0
M  V30 1375 H 136.494 2.24774 4.10602 0
M  V30 1376 H 136.667 3.33084 5.55841 0
M  V30 1377 N 130.073 -1.45103 0.615059 0
M  V30 1378 C 131.35 -1.95549 0.0448276 0
M  V30 1379 C 131.73 -1.55737 -1.4251 0
M  V30 1380 O 131.078 -0.823556 -2.13143 0
M  V30 1381 C 131.288 -3.48098 0.250785 0
M  V30 1382 C 132.636 -4.24384 0.135509 0
M  V30 1383 O 133.66 -3.55738 0.181299 0
M  V30 1384 O 132.519 -5.46493 0.0268878 0
M  V30 1385 H 129.613 -0.8264 -0.0314845 0
M  V30 1386 H 132.159 -1.55232 0.685642 0
M  V30 1387 H 130.931 -3.7007 1.27139 0
M  V30 1388 H 130.554 -3.95323 -0.424937 0
M  V30 1389 N 131.551 -0.354651 -1.53558 0
M  V30 1390 C 132.514 0.484566 -2.24019 0
M  V30 1391 C 133.514 1.01861 -1.24422 0
M  V30 1392 O 134.704 0.906097 -1.4878 0
M  V30 1393 C 131.836 1.67615 -2.96847 0
M  V30 1394 H 133.029 -0.131843 -2.9961 0
M  V30 1395 H 130.582 -0.106165 -1.55939 0
M  V30 1396 H 131.317 2.33095 -2.25471 0
M  V30 1397 H 131.102 1.30029 -3.69912 0
M  V30 1398 H 132.592 2.27114 -3.50441 0
M  V30 1399 N 133.029 1.57378 -0.0835403 0
M  V30 1400 C 134.275 1.94217 0.583733 0
M  V30 1401 C 134.608 0.964653 1.68547 0
M  V30 1402 O 133.883 -0.00422258 1.945 0
M  V30 1403 C 134.166 3.41253 1.14972 0
M  V30 1404 C 134.019 4.49768 0.0538277 0
M  V30 1405 C 135.338 3.89352 2.05166 0
M  V30 1406 H 132.457 0.706233 0.210724 0
M  V30 1407 H 135.099 1.89392 -0.1519 0
M  V30 1408 H 133.249 3.45496 1.77665 0
M  V30 1409 H 134.921 4.57641 -0.579851 0
M  V30 1410 H 133.164 4.29432 -0.614068 0
M  V30 1411 H 133.835 5.49817 0.490452 0
M  V30 1412 H 136.311 3.87189 1.52393 0
M  V30 1413 H 135.187 4.92822 2.41698 0
M  V30 1414 H 135.448 3.27973 2.96456 0
M  V30 1415 N 134.507 -0.190092 1.56449 0
M  V30 1416 C 135.454 -1.23557 1.94942 0
M  V30 1417 C 136.424 -1.44972 0.810696 0
M  V30 1418 O 137.609 -1.58023 1.06927 0
M  V30 1419 C 134.749 -2.57416 2.2985 0
M  V30 1420 C 133.862 -2.43537 3.5681 0
M  V30 1421 C 132.997 -3.70134 3.81017 0
M  V30 1422 C 132.036 -3.51109 5.01387 0
M  V30 1423 N 131.173 -4.6973 5.21822 0
M  V30 1424 H 136.013 -0.900304 2.84075 0
M  V30 1425 H 133.55 -0.43318 1.40577 0
M  V30 1426 H 135.508 -3.35409 2.48106 0
M  V30 1427 H 134.138 -2.88975 1.43852 0
M  V30 1428 H 133.19 -1.56816 3.46573 0
M  V30 1429 H 134.502 -2.25415 4.4496 0
M  V30 1430 H 133.656 -4.56566 3.9954 0
M  V30 1431 H 132.395 -3.91215 2.91207 0
M  V30 1432 H 131.4 -2.63063 4.82782 0
M  V30 1433 H 132.625 -3.31468 5.9271 0
M  V30 1434 H 130.571 -4.91065 4.34961 0
M  V30 1435 H 130.488 -4.54452 6.0416 0
M  V30 1436 H 131.756 -5.57499 5.44808 0
M  V30 1437 N 135.985 -1.50799 -0.457987 0
M  V30 1438 C 137.232 -1.62442 -1.20908 0
M  V30 1439 C 137.56 -0.330865 -1.91665 0
M  V30 1440 O 136.815 0.68401 -1.83357 0
M  V30 1441 C 137.114 -2.76358 -2.2663 0
M  V30 1442 C 136.78 -4.16378 -1.73033 0
M  V30 1443 C 135.442 -4.54473 -1.58138 0
M  V30 1444 C 137.794 -5.03836 -1.33413 0
M  V30 1445 C 135.122 -5.77754 -1.02065 0
M  V30 1446 C 137.474 -6.27676 -0.78778 0
M  V30 1447 C 136.138 -6.64562 -0.625561 0
M  V30 1448 H 135.408 -0.594417 -0.442435 0
M  V30 1449 H 138.055 -1.84772 -0.503136 0
M  V30 1450 H 136.36 -2.48167 -3.03184 0
M  V30 1451 H 138.057 -2.82568 -2.84528 0
M  V30 1452 H 134.647 -3.86331 -1.85598 0
M  V30 1453 H 138.831 -4.75026 -1.4375 0
M  V30 1454 H 134.087 -6.04997 -0.882547 0
M  V30 1455 H 138.261 -6.94797 -0.472177 0
M  V30 1456 H 135.888 -7.59965 -0.188926 0
M  V30 1457 N 137.463 0.71206 -1.40597 0
M  V30 1458 C 138.711 1.46907 -1.38791 0
M  V30 1459 C 139.032 1.94998 0.00780391 0
M  V30 1460 O 138.302 1.70587 0.963174 0
M  V30 1461 H 136.882 0.545043 -0.51082 0
M  V30 1462 H 139.544 0.843882 -1.75683 0
M  V30 1463 H 138.64 2.34021 -2.06496 0
M  V30 1464 N 138.941 1.26152 0.944643 0
M  V30 1465 C 140.357 1.03189 1.21754 0
M  V30 1466 C 140.557 -0.245112 2.00004 0
M  V30 1467 O 139.613 -0.955176 2.33736 0
M  V30 1468 C 140.926 2.26119 1.98219 0
M  V30 1469 C 142.474 2.30984 2.11224 0
M  V30 1470 C 142.949 3.53597 2.91089 0
M  V30 1471 N 144.44 3.54053 2.98664 0
M  V30 1472 C 145.175 4.45593 3.60881 0
M  V30 1473 N 144.671 5.47416 4.24626 0
M  V30 1474 N 146.464 4.33252 3.58119 0
M  V30 1475 H 138.615 2.08177 0.421437 0
M  V30 1476 H 140.878 0.914723 0.248969 0
M  V30 1477 H 140.584 3.18984 1.48128 0
M  V30 1478 H 140.458 2.3009 2.98895 0
M  V30 1479 H 142.845 1.38635 2.60508 0
M  V30 1480 H 142.926 2.31026 1.09821 0
M  V30 1481 H 142.57 4.46273 2.42493 0
M  V30 1482 H 142.5 3.50802 3.92741 0
M  V30 1483 H 144.991 2.80403 2.53343 0
M  V30 1484 H 145.304 6.13459 4.69987 0
M  V30 1485 H 143.649 5.51278 4.23223 0
M  V30 1486 H 146.84 3.52924 3.0751 0
M  V30 1487 H 147.013 5.04786 4.06319 0
M  V30 1488 N 140.419 -1.14872 1.07899 0
M  V30 1489 C 141.352 -2.18794 0.64841 0
M  V30 1490 C 142.33 -1.59065 -0.337189 0
M  V30 1491 O 143.514 -1.86936 -0.242284 0
M  V30 1492 C 140.641 -3.38667 -0.0470417 0
M  V30 1493 C 139.687 -4.16942 0.897884 0
M  V30 1494 S 140.52 -4.78615 2.40183 0
M  V30 1495 C 141.676 -6.0185 1.71834 0
M  V30 1496 H 141.909 -2.5498 1.52881 0
M  V30 1497 H 139.442 -1.25922 0.893484 0
M  V30 1498 H 141.4 -4.08113 -0.442027 0
M  V30 1499 H 140.061 -3.00814 -0.903861 0
M  V30 1500 H 139.254 -5.02726 0.358096 0
M  V30 1501 H 138.856 -3.53073 1.23352 0
M  V30 1502 H 141.148 -6.69574 1.03328 0
M  V30 1503 H 142.091 -6.60408 2.55473 0
M  V30 1504 H 142.499 -5.5173 1.19392 0
M  V30 1505 N 141.898 -0.863906 -1.31812 0
M  V30 1506 C 143.123 -0.48527 -2.01643 0
M  V30 1507 C 143.548 0.913058 -1.64453 0
M  V30 1508 O 142.906 1.6014 -0.849985 0
M  V30 1509 C 142.954 -0.642625 -3.54828 0
M  V30 1510 O 142.058 0.320659 -4.11151 0
M  V30 1511 H 141.399 -0.193793 -0.635091 0
M  V30 1512 H 143.929 -1.16565 -1.68148 0
M  V30 1513 H 143.939 -0.533628 -4.04495 0
M  V30 1514 H 142.614 -1.66227 -3.81237 0
M  V30 1515 H 141.191 0.167126 -3.72525 0
M  V30 1516 N 143.376 1.44774 -0.622745 0
M  V30 1517 C 144.323 2.30635 0.0871679 0
M  V30 1518 C 145.293 1.42994 0.845097 0
M  V30 1519 O 146.478 1.71907 0.827812 0
M  V30 1520 C 143.618 3.28144 1.06844 0
M  V30 1521 C 142.731 4.30888 0.309809 0
M  V30 1522 C 141.866 5.15494 1.28215 0
M  V30 1523 C 140.905 6.09953 0.512198 0
M  V30 1524 N 140.042 6.87287 1.43458 0
M  V30 1525 H 144.882 2.90803 -0.650974 0
M  V30 1526 H 142.419 1.43286 -0.33281 0
M  V30 1527 H 144.377 3.83157 1.65066 0
M  V30 1528 H 143.007 2.69695 1.77382 0
M  V30 1529 H 142.059 3.78414 -0.388181 0
M  V30 1530 H 143.371 4.97955 -0.290254 0
M  V30 1531 H 142.525 5.74983 1.93596 0
M  V30 1532 H 141.264 4.48481 1.91614 0
M  V30 1533 H 140.269 5.49581 -0.155151 0
M  V30 1534 H 141.494 6.78999 -0.116958 0
M  V30 1535 H 139.44 6.2295 2.05594 0
M  V30 1536 H 139.357 7.50763 0.888335 0
M  V30 1537 H 140.625 7.51306 2.07749 0
M  V30 1538 N 144.854 0.36279 1.53368 0
M  V30 1539 C 145.801 -0.485008 2.25646 0
M  V30 1540 C 146.771 -1.07982 1.2621 0
M  V30 1541 O 147.956 -1.11284 1.54986 0
M  V30 1542 C 145.096 -1.62023 3.04701 0
M  V30 1543 C 144.209 -1.05086 4.19024 0
M  V30 1544 C 143.344 -2.15496 4.85525 0
M  V30 1545 C 142.383 -1.5601 5.91884 0
M  V30 1546 N 141.52 -2.60241 6.52088 0
M  V30 1547 H 146.36 0.137864 2.97681 0
M  V30 1548 H 143.897 0.0798061 1.46883 0
M  V30 1549 H 145.855 -2.28887 3.48807 0
M  V30 1550 H 144.485 -2.2138 2.34927 0
M  V30 1551 H 143.537 -0.27259 3.79422 0
M  V30 1552 H 144.849 -0.575926 4.95464 0
M  V30 1553 H 144.003 -2.90186 5.32801 0
M  V30 1554 H 142.742 -2.66341 4.08551 0
M  V30 1555 H 141.747 -0.798338 5.43973 0
M  V30 1556 H 142.972 -1.05994 6.70777 0
M  V30 1557 H 140.918 -3.10304 5.77968 0
M  V30 1558 H 140.835 -2.17426 7.24059 0
M  V30 1559 H 142.103 -3.34641 7.04014 0
M  V30 1560 N 146.332 -1.57332 0.0918853 0
M  V30 1561 C 147.264 -2.10869 -0.898168 0
M  V30 1562 C 148.277 -1.04521 -1.24817 0
M  V30 1563 O 149.466 -1.31977 -1.20184 0
M  V30 1564 C 146.566 -2.57083 -2.2082 0
M  V30 1565 C 145.739 -3.87229 -2.03402 0
M  V30 1566 C 144.798 -4.19324 -3.17889 0
M  V30 1567 O 143.824 -4.88598 -2.91994 0
M  V30 1568 N 145.026 -3.74471 -4.43567 0
M  V30 1569 H 147.791 -2.96439 -0.440943 0
M  V30 1570 H 145.352 -1.61631 -0.0933064 0
M  V30 1571 H 147.344 -2.75602 -2.96354 0
M  V30 1572 H 145.914 -1.76541 -2.57977 0
M  V30 1573 H 145.134 -3.7789 -1.12218 0
M  V30 1574 H 146.422 -4.72379 -1.89038 0
M  V30 1575 H 145.82 -3.18546 -4.67488 0
M  V30 1576 H 144.377 -3.98151 -5.16061 0
M  V30 1577 N 147.81 0.181792 -1.56548 0
M  V30 1578 C 149.226 0.53316 -1.50431 0
M  V30 1579 C 149.426 1.85184 -0.794297 0
M  V30 1580 O 148.482 2.50058 -0.350318 0
M  V30 1581 C 149.795 0.575597 -2.9514 0
M  V30 1582 C 151.343 0.663519 -3.05886 0
M  V30 1583 C 151.818 0.736946 -4.52032 0
M  V30 1584 N 153.309 0.800118 -4.56237 0
M  V30 1585 C 154.044 0.877327 -5.66649 0
M  V30 1586 N 153.54 0.916016 -6.86718 0
M  V30 1587 N 155.333 0.915542 -5.54594 0
M  V30 1588 H 147.484 -0.683025 -2.01118 0
M  V30 1589 H 149.747 -0.244988 -0.915797 0
M  V30 1590 H 149.453 -0.324482 -3.502 0
M  V30 1591 H 149.327 1.42572 -3.49218 0
M  V30 1592 H 151.714 1.55403 -2.50867 0
M  V30 1593 H 151.795 -0.21307 -2.54911 0
M  V30 1594 H 151.439 -0.149262 -5.07681 0
M  V30 1595 H 151.369 1.62953 -5.00753 0
M  V30 1596 H 153.86 0.778926 -3.69785 0
M  V30 1597 H 154.173 0.975813 -7.66614 0
M  V30 1598 H 152.518 0.884469 -6.89349 0
M  V30 1599 H 155.709 0.882245 -4.59711 0
M  V30 1600 H 155.882 0.972253 -6.40665 0
M  V30 1601 N 149.288 1.51039 0.449983 0
M  V30 1602 C 150.565 1.53612 1.21089 0
M  V30 1603 C 150.945 0.292997 2.09057 0
M  V30 1604 O 150.293 -0.72259 2.16774 0
M  V30 1605 C 150.503 2.84337 2.0237 0
M  V30 1606 C 151.851 3.35807 2.59843 0
M  V30 1607 O 152.875 2.85802 2.12593 0
M  V30 1608 O 151.734 4.23029 3.45989 0
M  V30 1609 H 148.828 0.617057 0.550608 0
M  V30 1610 H 151.374 1.63344 0.460082 0
M  V30 1611 H 150.146 3.66278 1.37681 0
M  V30 1612 H 149.769 2.77708 2.84542 0
M  V30 1613 N 150.766 -0.704594 1.40972 0
M  V30 1614 C 151.991 -1.49858 1.43378 0
M  V30 1615 C 152.416 -1.88061 0.038184 0
M  V30 1616 O 151.774 -1.5402 -0.956425 0
M  V30 1617 C 151.822 -2.74333 2.34038 0
M  V30 1618 O 150.926 -3.7147 1.7912 0
M  V30 1619 H 150.267 -0.45139 0.486974 0
M  V30 1620 H 152.797 -0.866832 1.8533 0
M  V30 1621 H 152.807 -3.22741 2.49604 0
M  V30 1622 H 151.482 -2.45863 3.35446 0
M  V30 1623 H 150.059 -3.30363 1.72958 0
M  V30 1624 N 152.244 -1.26651 -0.937939 0
M  V30 1625 C 153.174 -1.10993 -2.05433 0
M  V30 1626 C 154.155 -0.0142161 -1.70094 0
M  V30 1627 O 155.34 -0.186837 -1.93299 0
M  V30 1628 C 152.47 -0.745561 -3.39203 0
M  V30 1629 C 151.424 -1.79337 -3.88616 0
M  V30 1630 C 150.75 -1.28324 -5.19073 0
M  V30 1631 C 152.05 -3.19553 -4.13138 0
M  V30 1632 H 153.744 -2.0438 -2.1879 0
M  V30 1633 H 151.29 -0.984041 -1.05131 0
M  V30 1634 H 153.243 -0.622888 -4.16771 0
M  V30 1635 H 151.967 0.22401 -3.25831 0
M  V30 1636 H 150.626 -1.90477 -3.13231 0
M  V30 1637 H 150.274 -0.303414 -5.02084 0
M  V30 1638 H 149.974 -1.98369 -5.53103 0
M  V30 1639 H 151.498 -1.1733 -5.99221 0
M  V30 1640 H 152.912 -3.11471 -4.81309 0
M  V30 1641 H 151.309 -3.87218 -4.58457 0
M  V30 1642 H 152.379 -3.65368 -3.18801 0
M  V30 1643 N 153.722 1.14298 -1.08507 0
M  V30 1644 C 154.952 1.88945 -0.835663 0
M  V30 1645 C 155.36 1.78894 0.615928 0
M  V30 1646 O 154.703 1.1468 1.43506 0
M  V30 1647 C 154.765 3.39585 -1.17994 0
M  V30 1648 C 154.429 3.7342 -2.63451 0
M  V30 1649 C 155.426 3.73454 -3.61702 0
M  V30 1650 C 153.111 4.03368 -2.99332 0
M  V30 1651 C 155.105 4.02961 -4.93864 0
M  V30 1652 C 152.792 4.32538 -4.31687 0
M  V30 1653 C 153.79 4.32318 -5.28763 0
M  V30 1654 O 153.478 4.6078 -6.58739 0
M  V30 1655 H 153.21 0.605307 -0.300965 0
M  V30 1656 H 155.764 1.45673 -1.44806 0
M  V30 1657 H 153.994 3.83315 -0.51055 0
M  V30 1658 H 155.683 3.9554 -0.911182 0
M  V30 1659 H 156.449 3.50403 -3.35325 0
M  V30 1660 H 152.328 4.02692 -2.24411 0
M  V30 1661 H 155.872 4.02704 -5.69627 0
M  V30 1662 H 151.769 4.55059 -4.57812 0
M  V30 1663 H 152.537 4.78492 -6.64069 0
M  V30 1664 N 155.201 0.870884 1.31352 0
M  V30 1665 C 156.164 0.332243 2.26779 0
M  V30 1666 C 157.164 -0.517302 1.52252 0
M  V30 1667 O 158.354 -0.326477 1.71113 0
M  V30 1668 C 155.486 -0.528066 3.36785 0
M  V30 1669 H 156.679 1.17469 2.75937 0
M  V30 1670 H 154.232 0.64655 1.423 0
M  V30 1671 H 154.967 -1.39167 2.92922 0
M  V30 1672 H 154.752 0.0802582 3.92018 0
M  V30 1673 H 156.242 -0.897179 4.07849 0
M  V30 1674 N 156.679 -1.44442 0.630414 0
M  V30 1675 C 157.589 -2.34476 -0.0761693 0
M  V30 1676 C 158.605 -1.52576 -0.836449 0
M  V30 1677 O 159.781 -1.85307 -0.788874 0
M  V30 1678 C 156.846 -3.30545 -1.04599 0
M  V30 1679 C 155.907 -4.28352 -0.28516 0
M  V30 1680 C 155.14 -5.19831 -1.20878 0
M  V30 1681 O 155.363 -5.15223 -2.44747 0
M  V30 1682 O 154.297 -5.97892 -0.693491 0
M  V30 1683 H 158.123 -2.96345 0.664324 0
M  V30 1684 H 155.708 -1.44203 0.39061 0
M  V30 1685 H 157.59 -3.89681 -1.60396 0
M  V30 1686 H 156.265 -2.7121 -1.76711 0
M  V30 1687 H 155.172 -3.72764 0.315837 0
M  V30 1688 H 156.505 -4.90605 0.395924 0
M  V30 1689 N 158.157 -0.370918 -1.53173 0
M  V30 1690 C 159.403 0.217423 -2.01631 0
M  V30 1691 C 159.736 1.47983 -1.25756 0
M  V30 1692 O 159.011 1.91274 -0.352764 0
M  V30 1693 C 159.294 0.503982 -3.56556 0
M  V30 1694 C 159.147 -0.77243 -4.43118 0
M  V30 1695 C 160.466 1.30234 -4.20389 0
M  V30 1696 H 157.585 0.0775486 -0.732909 0
M  V30 1697 H 160.227 -0.496863 -1.83388 0
M  V30 1698 H 158.377 1.11248 -3.72231 0
M  V30 1699 H 160.049 -1.4098 -4.39229 0
M  V30 1700 H 158.292 -1.39167 -4.10871 0
M  V30 1701 H 158.963 -0.526815 -5.4948 0
M  V30 1702 H 161.439 0.787546 -4.08579 0
M  V30 1703 H 160.315 1.47158 -5.28806 0
M  V30 1704 H 160.576 2.31237 -3.76805 0
M  V30 1705 N 159.635 1.57281 -0.100228 0
M  V30 1706 C 160.567 2.11342 0.886972 0
M  V30 1707 C 161.58 1.05182 1.24261 0
M  V30 1708 O 162.769 1.32613 1.19483 0
M  V30 1709 C 159.869 2.5825 2.19454 0
M  V30 1710 C 159.042 3.88302 2.01346 0
M  V30 1711 C 158.101 4.21004 3.15661 0
M  V30 1712 O 157.127 4.9014 2.89398 0
M  V30 1713 N 158.329 3.76818 4.41575 0
M  V30 1714 H 161.094 2.96668 0.425216 0
M  V30 1715 H 158.655 1.61678 0.0847334 0
M  V30 1716 H 160.647 2.7717 2.94888 0
M  V30 1717 H 159.217 1.77907 2.57037 0
M  V30 1718 H 158.437 3.7848 1.10212 0
M  V30 1719 H 159.725 4.73375 1.8653 0
M  V30 1720 H 159.123 3.2102 4.65792 0
M  V30 1721 H 157.68 4.00882 5.13942 0
M  V30 1722 N 161.113 -0.173488 1.56642 0
M  V30 1723 C 162.06 -1.21482 1.96242 0
M  V30 1724 C 163.03 -1.44104 0.826027 0
M  V30 1725 O 164.215 -1.5688 1.08597 0
M  V30 1726 C 161.355 -2.54964 2.32567 0
M  V30 1727 C 160.468 -2.39739 3.59373 0
M  V30 1728 C 159.603 -3.66072 3.84921 0
M  V30 1729 C 158.642 -3.45771 5.05083 0
M  V30 1730 N 157.779 -4.64169 5.26775 0
M  V30 1731 H 162.619 -0.870123 2.85014 0
M  V30 1732 H 160.156 -0.418245 1.41029 0
M  V30 1733 H 162.114 -3.32758 2.5165 0
M  V30 1734 H 160.744 -2.87433 1.46908 0
M  V30 1735 H 159.796 -1.53131 3.48217 0
M  V30 1736 H 161.108 -2.20683 4.47326 0
M  V30 1737 H 160.262 -4.52303 4.0436 0
M  V30 1738 H 159.001 -3.88105 2.9534 0
M  V30 1739 H 158.006 -2.57927 4.85545 0
M  V30 1740 H 159.231 -3.25163 5.96193 0
M  V30 1741 H 157.177 -4.86425 4.40144 0
M  V30 1742 H 157.094 -4.48019 6.08946 0
M  V30 1743 H 158.362 -5.51689 5.5069 0
M  V30 1744 N 162.591 -1.51276 -0.441967 0
M  V30 1745 C 163.541 -1.6864 -1.53442 0
M  V30 1746 C 164.525 -0.540444 -1.51552 0
M  V30 1747 O 165.717 -0.796157 -1.58083 0
M  V30 1748 C 162.846 -1.8106 -2.91672 0
M  V30 1749 C 161.932 -3.01424 -2.98336 0
M  V30 1750 N 162.323 -4.2467 -2.74752 0
M  V30 1751 C 160.621 -3.00584 -3.29493 0
M  V30 1752 C 161.322 -5.05891 -2.87139 0
M  V30 1753 N 160.298 -4.40442 -3.18609 0
M  V30 1754 H 164.1 -2.61598 -1.33954 0
M  V30 1755 H 161.614 -1.4886 -0.6492 0
M  V30 1756 H 163.611 -1.91609 -3.70259 0
M  V30 1757 H 162.271 -0.892795 -3.12185 0
M  V30 1758 H 163.282 -4.53691 -2.49769 0
M  V30 1759 H 159.959 -2.18417 -3.55809 0
M  V30 1760 H 161.349 -6.13983 -2.72899 0
M  V30 1761 N 164.069 0.697108 -1.41344 0
M  V30 1762 C 165.001 1.8224 -1.39001 0
M  V30 1763 C 166.014 1.60152 -0.292428 0
M  V30 1764 O 167.203 1.69684 -0.554048 0
M  V30 1765 C 164.303 3.18976 -1.14489 0
M  V30 1766 C 163.476 3.68105 -2.36258 0
M  V30 1767 C 162.535 4.83506 -2.07625 0
M  V30 1768 O 161.561 4.95201 -2.8065 0
M  V30 1769 N 162.763 5.70637 -1.06555 0
M  V30 1770 H 165.528 1.84742 -2.35988 0
M  V30 1771 H 163.089 0.87937 -1.35936 0
M  V30 1772 H 165.081 3.93801 -0.932885 0
M  V30 1773 H 163.651 3.11508 -0.261043 0
M  V30 1774 H 162.871 2.84204 -2.7317 0
M  V30 1775 H 164.159 3.97667 -3.17393 0
M  V30 1776 H 163.557 5.63817 -0.461125 0
M  V30 1777 H 162.114 6.45368 -0.913444 0
M  V30 1778 N 165.547 1.27147 0.931209 0
M  V30 1779 C 166.479 1.05364 2.03546 0
M  V30 1780 C 167.492 0.0108438 1.62796 0
M  V30 1781 O 168.681 0.25202 1.76712 0
M  V30 1782 C 165.781 0.575566 3.33977 0
M  V30 1783 C 164.954 1.68985 4.03439 0
M  V30 1784 C 164.013 1.20813 5.12143 0
M  V30 1785 O 163.039 1.90712 5.363 0
M  V30 1786 N 164.241 0.0618851 5.80467 0
M  V30 1787 H 167.006 2.00454 2.22796 0
M  V30 1788 H 164.567 1.18666 1.10136 0
M  V30 1789 H 166.559 0.237264 4.04004 0
M  V30 1790 H 165.129 -0.282016 3.11325 0
M  V30 1791 H 164.349 2.19861 3.27192 0
M  V30 1792 H 165.637 2.4378 4.46597 0
M  V30 1793 H 165.035 -0.521621 5.6329 0
M  V30 1794 H 163.592 -0.217264 6.51438 0
M  V30 1795 N 167.025 -1.13721 1.09112 0
M  V30 1796 C 168.441 -1.36914 0.820174 0
M  V30 1797 C 168.641 -1.93356 -0.567079 0
M  V30 1798 O 167.697 -2.15093 -1.32255 0
M  V30 1799 C 169.01 -2.3235 1.90877 0
M  V30 1800 C 170.558 -2.45973 1.93562 0
M  V30 1801 C 171.033 -3.44714 3.01556 0
M  V30 1802 N 172.524 -3.52263 3.00775 0
M  V30 1803 C 173.259 -4.28536 3.80978 0
M  V30 1804 N 172.755 -5.07991 4.71081 0
M  V30 1805 N 174.548 -4.23804 3.69251 0
M  V30 1806 H 166.699 -0.754348 1.98553 0
M  V30 1807 H 168.962 -0.3944 0.862063 0
M  V30 1808 H 168.668 -1.98027 2.90651 0
M  V30 1809 H 168.542 -3.32332 1.78424 0
M  V30 1810 H 170.929 -2.79584 0.944286 0
M  V30 1811 H 171.01 -1.45926 2.10093 0
M  V30 1812 H 170.654 -3.11835 4.00901 0
M  V30 1813 H 170.584 -4.44558 2.82269 0
M  V30 1814 H 173.075 -2.95567 2.35475 0
M  V30 1815 H 173.388 -5.63487 5.28869 0
M  V30 1816 H 171.733 -5.07235 4.75119 0
M  V30 1817 H 174.924 -3.60806 2.98222 0
M  V30 1818 H 175.097 -4.82995 4.31995 0
M  V30 1819 N 168.503 -0.877838 -1.30888 0
M  V30 1820 C 169.433 -0.35534 -2.3078 0
M  V30 1821 C 170.414 0.557994 -1.60687 0
M  V30 1822 O 171.599 0.473355 -1.88343 0
M  V30 1823 C 168.729 0.437221 -3.44537 0
M  V30 1824 C 167.683 -0.383715 -4.26276 0
M  V30 1825 C 167.009 0.535014 -5.32017 0
M  V30 1826 C 168.309 -1.62201 -4.96476 0
M  V30 1827 H 170.003 -1.19007 -2.74732 0
M  V30 1828 H 167.549 -0.573698 -1.32078 0
M  V30 1829 H 169.502 0.813334 -4.13477 0
M  V30 1830 H 168.226 1.30553 -2.99372 0
M  V30 1831 H 166.885 -0.741874 -3.59015 0
M  V30 1832 H 166.533 1.40083 -4.831 0
M  V30 1833 H 166.233 -0.0104211 -5.87599 0
M  V30 1834 H 167.757 0.907799 -6.03814 0
M  V30 1835 H 169.171 -1.31689 -5.5797 0
M  V30 1836 H 167.568 -2.10711 -5.61891 0
M  V30 1837 H 168.638 -2.37044 -4.23011 0
M  V30 1838 N 169.982 1.44106 -0.638065 0
M  V30 1839 C 170.914 2.28976 0.101205 0
M  V30 1840 C 171.927 1.4167 0.802088 0
M  V30 1841 O 173.116 1.65755 0.662375 0
M  V30 1842 C 170.216 3.18217 1.16581 0
M  V30 1843 C 169.389 4.33978 0.546066 0
M  V30 1844 C 168.448 5.04202 1.50554 0
M  V30 1845 O 167.474 5.59986 1.01999 0
M  V30 1846 N 168.676 5.06296 2.8398 0
M  V30 1847 H 171.441 2.93064 -0.627186 0
M  V30 1848 H 169.002 1.54629 -0.479731 0
M  V30 1849 H 170.994 3.62061 1.80815 0
M  V30 1850 H 169.564 2.55833 1.79634 0
M  V30 1851 H 168.784 3.93239 -0.275046 0
M  V30 1852 H 170.072 5.08675 0.112793 0
M  V30 1853 H 169.47 4.62319 3.26002 0
M  V30 1854 H 168.027 5.53907 3.43556 0
M  V30 1855 N 171.46 0.379036 1.52974 0
M  V30 1856 C 172.37 -0.468639 2.29872 0
M  V30 1857 C 173.386 -1.08067 1.36373 0
M  V30 1858 O 174.562 -1.08871 1.69438 0
M  V30 1859 C 171.627 -1.58594 3.083 0
M  V30 1860 C 170.688 -1.00007 4.17489 0
M  V30 1861 C 169.921 -2.06413 4.92168 0
M  V30 1862 O 170.144 -3.27751 4.66835 0
M  V30 1863 O 169.078 -1.68717 5.7777 0
M  V30 1864 H 172.904 0.157508 3.03291 0
M  V30 1865 H 170.489 0.143035 1.48714 0
M  V30 1866 H 172.371 -2.23525 3.57232 0
M  V30 1867 H 171.046 -2.19724 2.37703 0
M  V30 1868 H 169.953 -0.314299 3.72777 0
M  V30 1869 H 171.286 -0.433135 4.90291 0
M  V30 1870 N 172.938 -1.57226 0.108567 0
M  V30 1871 C 173.87 -2.11809 -0.875752 0
M  V30 1872 C 174.883 -1.05839 -1.23701 0
M  V30 1873 O 176.072 -1.33245 -1.18778 0
M  V30 1874 C 173.172 -2.59411 -2.18081 0
M  V30 1875 C 172.345 -3.89364 -1.99284 0
M  V30 1876 C 171.404 -4.22672 -3.13424 0
M  V30 1877 O 170.43 -4.91668 -2.86795 0
M  V30 1878 N 171.632 -3.79154 -4.3957 0
M  V30 1879 H 174.397 -2.9689 -0.409477 0
M  V30 1880 H 171.958 -1.61721 -0.076158 0
M  V30 1881 H 173.95 -2.7873 -2.93414 0
M  V30 1882 H 172.52 -1.79268 -2.5609 0
M  V30 1883 H 171.74 -3.79059 -1.08203 0
M  V30 1884 H 173.028 -4.74358 -1.84017 0
M  V30 1885 H 172.426 -3.23486 -4.64083 0
M  V30 1886 H 170.983 -4.03602 -5.11809 0
M  V30 1887 N 174.416 0.165178 -1.56732 0
M  V30 1888 C 175.832 0.517174 -1.50988 0
M  V30 1889 C 176.032 1.84331 -0.813894 0
M  V30 1890 O 175.088 2.49672 -0.37682 0
M  V30 1891 C 176.401 0.544261 -2.95733 0
M  V30 1892 C 177.949 0.631039 -3.06573 0
M  V30 1893 C 178.424 0.68896 -4.52788 0
M  V30 1894 N 179.915 0.751683 -4.5706 0
M  V30 1895 C 180.65 0.817177 -5.67547 0
M  V30 1896 N 180.146 0.843129 -6.8765 0
M  V30 1897 N 181.939 0.856668 -5.55534 0
M  V30 1898 H 174.09 -0.704318 -2.00382 0
M  V30 1899 H 176.353 -0.254687 -0.913148 0
M  V30 1900 H 176.059 -0.361607 -3.49836 0
M  V30 1901 H 175.933 1.3886 -3.5071 0
M  V30 1902 H 178.32 1.52733 -2.52501 0
M  V30 1903 H 178.401 -0.240095 -2.54671 0
M  V30 1904 H 178.045 -0.2031 -5.07494 0
M  V30 1905 H 177.975 1.57633 -5.02454 0
M  V30 1906 H 180.466 0.739661 -3.70591 0
M  V30 1907 H 180.779 0.894448 -7.67606 0
M  V30 1908 H 179.124 0.811304 -6.90248 0
M  V30 1909 H 182.315 0.833437 -4.60621 0
M  V30 1910 H 182.488 0.904247 -6.4166 0
M  V30 1911 N 175.894 1.51508 0.433938 0
M  V30 1912 C 176.826 1.69266 1.54537 0
M  V30 1913 C 177.839 0.573276 1.52373 0
M  V30 1914 O 179.028 0.847698 1.57087 0
M  V30 1915 C 176.128 1.69524 2.93453 0
M  V30 1916 C 175.301 2.98101 3.20085 0
M  V30 1917 C 174.36 2.90502 4.38742 0
M  V30 1918 O 173.386 3.64442 4.3723 0
M  V30 1919 N 174.588 2.06586 5.42496 0
M  V30 1920 H 177.353 2.65145 1.39708 0
M  V30 1921 H 174.914 1.49437 0.622922 0
M  V30 1922 H 176.906 1.62004 3.70859 0
M  V30 1923 H 175.476 0.812245 3.01863 0
M  V30 1924 H 174.696 3.19464 2.30947 0
M  V30 1925 H 175.984 3.83207 3.34708 0
M  V30 1926 H 175.382 1.45896 5.46563 0
M  V30 1927 H 173.939 2.04943 6.18742 0
M  V30 1928 N 177.372 -0.689602 1.41712 0
M  V30 1929 C 178.304 -1.815 1.39966 0
M  V30 1930 C 179.317 -1.59995 0.300917 0
M  V30 1931 O 180.506 -1.69387 0.563039 0
M  V30 1932 C 177.606 -3.18364 1.16179 0
M  V30 1933 C 176.779 -3.66847 2.38206 0
M  V30 1934 C 175.838 -4.82398 2.10186 0
M  V30 1935 O 174.864 -4.93706 2.83272 0
M  V30 1936 N 176.066 -5.70064 1.0958 0
M  V30 1937 H 178.831 -1.83488 2.36965 0
M  V30 1938 H 176.392 -0.872149 1.36401 0
M  V30 1939 H 178.384 -3.93301 0.953756 0
M  V30 1940 H 176.954 -3.11365 0.27756 0
M  V30 1941 H 176.174 -2.82751 2.74673 0
M  V30 1942 H 177.462 -3.95978 3.19498 0
M  V30 1943 H 176.86 -5.63565 0.491019 0
M  V30 1944 H 175.417 -6.44874 0.947656 0
M  V30 1945 N 178.85 -1.27639 -0.924453 0
M  V30 1946 C 179.782 -1.06442 -2.02985 0
M  V30 1947 C 180.795 -0.0194771 -1.62788 0
M  V30 1948 O 181.984 -0.261388 -1.76576 0
M  V30 1949 C 179.084 -0.59327 -3.33667 0
M  V30 1950 C 178.257 -1.71123 -4.02537 0
M  V30 1951 C 177.316 -1.23527 -5.11495 0
M  V30 1952 O 176.342 -1.93553 -5.35281 0
M  V30 1953 N 177.544 -0.0926678 -5.80426 0
M  V30 1954 H 180.309 -2.01633 -2.2173 0
M  V30 1955 H 177.87 -1.19248 -1.09505 0
M  V30 1956 H 179.862 -0.258686 -4.03872 0
M  V30 1957 H 178.432 0.265502 -3.1147 0
M  V30 1958 H 177.652 -2.21593 -3.26022 0
M  V30 1959 H 178.94 -2.46145 -4.45298 0
M  V30 1960 H 178.338 0.491741 -5.63559 0
M  V30 1961 H 176.895 0.182714 -6.51544 0
M  V30 1962 N 180.328 1.1314 -1.09713 0
M  V30 1963 C 181.553 1.88862 -0.857081 0
M  V30 1964 C 181.978 1.78729 0.586304 0
M  V30 1965 O 181.336 1.13692 1.41222 0
M  V30 1966 C 181.384 3.36325 -1.30069 0
M  V30 1967 O 180.488 4.09815 -0.461007 0
M  V30 1968 H 179.829 0.587108 -0.310162 0
M  V30 1969 H 182.359 1.43129 -1.46203 0
M  V30 1970 H 182.369 3.87157 -1.28738 0
M  V30 1971 H 181.044 3.43017 -2.35185 0
M  V30 1972 H 179.621 3.68986 -0.538888 0
M  V30 1973 N 181.806 0.884767 1.30421 0
M  V30 1974 C 183.054 0.502112 1.95763 0
M  V30 1975 C 183.375 -0.951815 1.70192 0
M  V30 1976 O 182.645 -1.6692 1.0254 0
M  V30 1977 H 181.225 0.182694 0.724315 0
M  V30 1978 H 183.887 1.1278 1.58955 0
M  V30 1979 H 182.983 0.672188 3.04775 0
M  V30 1980 N 183.284 -1.43765 0.645699 0
M  V30 1981 C 184.194 -2.34544 -0.0512957 0
M  V30 1982 C 185.21 -1.53455 -0.82022 0
M  V30 1983 O 186.386 -1.86133 -0.769176 0
M  V30 1984 C 183.451 -3.31636 -1.01087 0
M  V30 1985 C 182.512 -4.2863 -0.239712 0
M  V30 1986 C 181.745 -5.21084 -1.15358 0
M  V30 1987 O 181.968 -5.1779 -2.39269 0
M  V30 1988 O 180.902 -5.98593 -0.630038 0
M  V30 1989 H 184.728 -2.95624 0.695718 0
M  V30 1990 H 182.313 -1.43781 0.405882 0
M  V30 1991 H 184.195 -3.9136 -1.56254 0
M  V30 1992 H 182.87 -2.73069 -1.73824 0
M  V30 1993 H 181.777 -3.72408 0.355356 0
M  V30 1994 H 183.11 -4.90157 0.447936 0
M  V30 1995 N 184.763 -0.387143 -1.52771 0
M  V30 1996 C 185.726 0.436939 -2.24997 0
M  V30 1997 C 186.726 0.991991 -1.26555 0
M  V30 1998 O 187.916 0.874335 -1.50669 0
M  V30 1999 C 185.048 1.61281 -3.00335 0
M  V30 2000 H 186.241 -0.195365 -2.99263 0
M  V30 2001 H 183.794 -0.139218 -1.55679 0
M  V30 2002 H 184.529 2.2826 -2.30364 0
M  V30 2003 H 184.314 1.22154 -3.72587 0
M  V30 2004 H 185.804 2.19629 -3.5518 0
M  V30 2005 N 186.241 1.57166 -0.116904 0
M  V30 2006 C 187.151 2.18745 0.847812 0
M  V30 2007 C 188.167 1.163 1.29423 0
M  V30 2008 O 189.343 1.48761 1.35765 0
M  V30 2009 C 186.408 2.77307 2.0809 0
M  V30 2010 C 185.469 3.94781 1.68661 0
M  V30 2011 C 184.702 4.50541 2.86091 0
M  V30 2012 O 184.925 4.05202 4.01456 0
M  V30 2013 O 183.859 5.41256 2.63298 0
M  V30 2014 H 187.685 3.01632 0.353778 0
M  V30 2015 H 185.27 1.49005 0.108599 0
M  V30 2016 H 187.152 3.14647 2.80313 0
M  V30 2017 H 185.827 1.97452 2.56504 0
M  V30 2018 H 184.734 3.62214 0.935518 0
M  V30 2019 H 186.067 4.76065 1.24991 0
M  V30 2020 N 187.719 -0.156864 1.56817 0
M  V30 2021 C 188.682 -1.17781 1.96622 0
M  V30 2022 C 189.682 -1.36401 0.851555 0
M  V30 2023 O 190.872 -1.33561 1.11836 0
M  V30 2024 C 188.004 -2.54008 2.27361 0
M  V30 2025 H 189.197 -0.836564 2.87996 0
M  V30 2026 H 186.75 -0.39985 1.51099 0
M  V30 2027 H 187.485 -2.9312 1.38748 0
M  V30 2028 H 187.27 -2.41856 3.08623 0
M  V30 2029 H 188.76 -3.27558 2.59029 0
M  V30 2030 N 189.197 -1.51736 -0.425897 0
M  V30 2031 C 190.127 -1.76827 -1.52494 0
M  V30 2032 C 191.108 -0.618524 -1.58456 0
M  V30 2033 O 192.293 -0.862416 -1.74 0
M  V30 2034 C 189.423 -1.90374 -2.90474 0
M  V30 2035 C 188.377 -3.0588 -2.99369 0
M  V30 2036 C 187.703 -3.04625 -4.3944 0
M  V30 2037 C 189.003 -4.45644 -2.72394 0
M  V30 2038 H 190.697 -2.68855 -1.31748 0
M  V30 2039 H 188.243 -1.29372 -0.632362 0
M  V30 2040 H 190.196 -2.0651 -3.6733 0
M  V30 2041 H 188.92 -0.95004 -3.12477 0
M  V30 2042 H 187.579 -2.89467 -2.24954 0
M  V30 2043 H 187.227 -2.0701 -4.58428 0
M  V30 2044 H 186.927 -3.82195 -4.46319 0
M  V30 2045 H 188.451 -3.22869 -5.18255 0
M  V30 2046 H 189.865 -4.62348 -3.38979 0
M  V30 2047 H 188.262 -5.25006 -2.9067 0
M  V30 2048 H 189.332 -4.54893 -1.67929 0
M  V30 2049 N 190.675 0.682077 -1.42076 0
M  V30 2050 C 191.638 1.77756 -1.44691 0
M  V30 2051 C 192.638 1.5726 -0.335535 0
M  V30 2052 O 193.828 1.63686 -0.596037 0
M  V30 2053 C 190.96 3.16301 -1.27146 0
M  V30 2054 H 192.153 1.76826 -2.42224 0
M  V30 2055 H 189.706 0.891012 -1.28416 0
M  V30 2056 H 190.441 3.22862 -0.305075 0
M  V30 2057 H 190.226 3.32581 -2.07683 0
M  V30 2058 H 191.716 3.96241 -1.31843 0
M  V30 2059 N 192.153 1.28127 0.917671 0
M  V30 2060 C 193.569 1.05749 1.19538 0
M  V30 2061 C 193.769 -0.202633 2.00479 0
M  V30 2062 O 192.825 -0.905382 2.3571 0
M  V30 2063 C 194.138 2.30273 1.93378 0
M  V30 2064 C 195.686 2.35412 2.06277 0
M  V30 2065 C 196.161 3.59692 2.83524 0
M  V30 2066 N 197.652 3.60309 2.91087 0
M  V30 2067 C 198.387 4.53147 3.51348 0
M  V30 2068 N 197.883 5.563 4.12919 0
M  V30 2069 N 199.676 4.40751 3.48849 0
M  V30 2070 H 191.827 2.09024 0.377184 0
M  V30 2071 H 194.09 0.919798 0.22951 0
M  V30 2072 H 193.796 3.22055 1.41328 0
M  V30 2073 H 193.67 2.36378 2.93947 0
M  V30 2074 H 196.057 1.4413 2.57508 0
M  V30 2075 H 196.138 2.33304 1.04895 0
M  V30 2076 H 195.782 4.51316 2.32973 0
M  V30 2077 H 195.712 3.59054 3.85211 0
M  V30 2078 H 198.203 2.85714 2.47338 0
M  V30 2079 H 198.516 6.2329 4.56869 0
M  V30 2080 H 196.861 5.60131 4.11435 0
M  V30 2081 H 200.052 3.59367 2.99955 0
M  V30 2082 H 200.225 5.13291 3.9552 0
M  V30 2083 N 193.631 -1.12557 1.10312 0
M  V30 2084 C 194.877 -1.84311 0.846011 0
M  V30 2085 C 195.21 -1.83805 -0.626859 0
M  V30 2086 O 194.485 -1.28268 -1.46211 0
M  V30 2087 C 194.768 -3.32048 1.39341 0
M  V30 2088 C 194.621 -3.41016 2.93305 0
M  V30 2089 C 195.94 -4.27764 1.03468 0
M  V30 2090 H 193.059 -0.669192 0.30879 0
M  V30 2091 H 195.701 -1.32057 1.36605 0
M  V30 2092 H 193.851 -3.76678 0.951087 0
M  V30 2093 H 195.523 -3.05031 3.46055 0
M  V30 2094 H 193.766 -2.81603 3.29973 0
M  V30 2095 H 194.437 -4.44948 3.26689 0
M  V30 2096 H 196.913 -3.91253 1.41633 0
M  V30 2097 H 195.789 -5.29549 1.44463 0
M  V30 2098 H 196.05 -4.42064 -0.0560404 0
M  V30 2099 N 195.109 -0.891671 -1.2995 0
M  V30 2100 C 196.339 -0.527893 -1.99742 0
M  V30 2101 C 196.747 0.88979 -1.66971 0
M  V30 2102 O 196.09 1.59766 -0.906667 0
M  V30 2103 C 196.152 -0.630804 -3.53922 0
M  V30 2104 C 195.816 -2.01401 -4.10228 0
M  V30 2105 C 196.813 -2.98422 -4.25724 0
M  V30 2106 C 194.498 -2.32121 -4.45449 0
M  V30 2107 C 196.492 -4.24293 -4.75662 0
M  V30 2108 C 194.179 -3.58237 -4.95086 0
M  V30 2109 C 195.177 -4.54137 -5.10146 0
M  V30 2110 O 194.865 -5.78014 -5.58708 0
M  V30 2111 H 194.597 -0.201953 -0.645129 0
M  V30 2112 H 197.151 -1.20076 -1.66646 0
M  V30 2113 H 195.381 0.0990616 -3.86573 0
M  V30 2114 H 197.07 -0.277338 -4.04951 0
M  V30 2115 H 197.836 -2.76001 -3.98809 0
M  V30 2116 H 193.715 -1.5824 -4.32991 0
M  V30 2117 H 197.259 -4.99153 -4.87332 0
M  V30 2118 H 193.156 -3.80491 -5.21437 0
M  V30 2119 H 193.924 -5.8049 -5.77039 0
M  V30 2120 N 196.587 1.43421 -0.653314 0
M  V30 2121 C 197.812 2.06678 -0.172846 0
M  V30 2122 C 198.237 1.48648 1.15262 0
M  V30 2123 O 197.595 0.596457 1.71208 0
M  V30 2124 C 197.643 3.60474 -0.0953184 0
M  V30 2125 O 196.747 4.01487 0.942442 0
M  V30 2126 H 196.088 0.657181 -0.0949155 0
M  V30 2127 H 198.618 1.83925 -0.896265 0
M  V30 2128 H 198.628 4.07905 0.0879728 0
M  V30 2129 H 197.303 4.02088 -1.06291 0
M  V30 2130 H 195.88 3.65646 0.731932 0
M  V30 2131 N 198.065 0.39524 1.52563 0
M  V30 2132 C 199.29 -0.187456 2.06551 0
M  V30 2133 C 199.715 -1.39249 1.26457 0
M  V30 2134 O 199.073 -1.78947 0.291151 0
M  V30 2135 C 199.121 -0.529985 3.56684 0
M  V30 2136 O 198.225 -1.62307 3.79118 0
M  V30 2137 H 197.566 -0.0202537 0.663691 0
M  V30 2138 H 200.096 0.564426 1.96661 0
M  V30 2139 H 200.106 -0.792598 4.00227 0
M  V30 2140 H 198.781 0.350987 4.14416 0
M  V30 2141 H 197.358 -1.3537 3.47461 0
M  V30 2142 N 199.544 -1.57102 0.125237 0
M  V30 2143 C 200.769 -2.0019 -0.542101 0
M  V30 2144 C 201.194 -1.00449 -1.59034 0
M  V30 2145 O 200.552 0.0229423 -1.81285 0
M  V30 2146 C 200.6 -3.42129 -1.13929 0
M  V30 2147 O 199.704 -3.45307 -2.2547 0
M  V30 2148 H 199.045 -0.650171 -0.134812 0
M  V30 2149 H 201.575 -2.03461 0.215553 0
M  V30 2150 H 201.585 -3.80471 -1.4733 0
M  V30 2151 H 200.26 -4.14237 -0.371531 0
M  V30 2152 H 198.837 -3.1879 -1.93462 0
M  V30 2153 N 201.022 0.148545 -1.56898 0
M  V30 2154 C 202.271 0.85984 -1.82454 0
M  V30 2155 C 202.584 1.82406 -0.706229 0
M  V30 2156 O 203.79 2.57938 -0.847349 0
M  V30 2157 C 202.246 1.57967 -3.2338 0
M  V30 2158 C 201.854 0.65794 -4.43142 0
M  V30 2159 C 203.598 2.27784 -3.58211 0
M  V30 2160 C 201.505 1.3793 -5.75091 0
M  V30 2161 H 200.435 0.324834 -0.68044 0
M  V30 2162 H 203.086 0.112588 -1.83154 0
M  V30 2163 H 201.468 2.37249 -3.17063 0
M  V30 2164 H 202.642 -0.0995497 -4.60692 0
M  V30 2165 H 200.957 0.0682643 -4.16344 0
M  V30 2166 H 203.554 2.8239 -4.54048 0
M  V30 2167 H 203.897 3.04204 -2.84193 0
M  V30 2168 H 204.43 1.55421 -3.66182 0
M  V30 2169 H 201.169 0.656982 -6.52199 0
M  V30 2170 H 200.689 2.10954 -5.61479 0
M  V30 2171 H 202.368 1.92063 -6.17835 0
M  V30 2172 N 202.5 1.5196 0.417844 0
M  V30 2173 C 203.725 1.69717 1.1921 0
M  V30 2174 C 204.15 0.402148 1.83751 0
M  V30 2175 O 203.508 -0.639593 1.69643 0
M  V30 2176 C 203.556 2.82794 2.2374 0
M  V30 2177 O 202.66 2.47756 3.29683 0
M  V30 2178 H 202.001 0.565263 0.348387 0
M  V30 2179 H 204.531 1.98621 0.490985 0
M  V30 2180 H 204.541 3.07452 2.68212 0
M  V30 2181 H 203.216 3.76756 1.76146 0
M  V30 2182 H 201.793 2.33739 2.90552 0
M  V30 2183 N 203.978 -0.674533 1.42435 0
M  V30 2184 C 204.926 -1.80934 1.46169 0
M  V30 2185 C 205.92 -1.66006 0.3374 0
M  V30 2186 O 207.126 -1.72611 0.510425 0
M  V30 2187 H 203.501 -0.596594 0.457798 0
M  V30 2188 H 205.472 -1.74903 2.41767 0
M  V30 2189 C 204.221 -3.19088 1.38123 0
M  V30 2190 H 203.544 -3.31203 2.23931 0
M  V30 2191 H 204.984 -3.9851 1.44797 0
M  V30 2192 C 203.443 -3.36763 0.0960517 0
M  V30 2193 O 203.973 -3.92581 -0.851073 0
M  V30 2194 N 202.179 -2.90597 0.0131186 0
M  V30 2195 H 201.726 -2.45359 0.784639 0
M  V30 2196 H 201.684 -3.028 -0.846133 0
M  V30 2197 N 205.456 -1.28612 -0.910864 0
M  V30 2198 C 206.704 -1.15705 -1.65701 0
M  V30 2199 C 207.025 0.29416 -1.92769 0
M  V30 2200 O 206.295 1.20331 -1.54588 0
M  V30 2201 H 204.875 -0.425216 -0.614167 0
M  V30 2202 H 207.537 -1.61381 -1.0928 0
M  V30 2203 H 206.633 -1.6988 -2.61815 0
M  V30 2204 N 206.934 1.1197 -1.10907 0
M  V30 2205 C 207.864 2.19928 -0.784473 0
M  V30 2206 C 208.845 1.6833 0.244726 0
M  V30 2207 O 210.03 1.93892 0.109418 0
M  V30 2208 C 207.16 3.46597 -0.220827 0
M  V30 2209 C 206.114 4.11376 -1.18127 0
M  V30 2210 C 205.44 5.32554 -0.478594 0
M  V30 2211 C 206.74 4.56945 -2.52979 0
M  V30 2212 H 208.434 2.47337 -1.68715 0
M  V30 2213 H 205.98 1.18879 -0.812642 0
M  V30 2214 H 207.933 4.21396 0.0184278 0
M  V30 2215 H 206.657 3.1863 0.717113 0
M  V30 2216 H 205.316 3.38564 -1.40606 0
M  V30 2217 H 204.964 5.00856 0.463976 0
M  V30 2218 H 204.664 5.76844 -1.11912 0
M  V30 2219 H 206.188 6.10096 -0.248 0
M  V30 2220 H 207.602 5.23093 -2.3462 0
M  V30 2221 H 205.999 5.1203 -3.12962 0
M  V30 2222 H 207.069 3.70676 -3.12614 0
M  V30 2223 N 208.412 0.89855 1.29475 0
M  V30 2224 C 209.637 0.538561 2.00285 0
M  V30 2225 C 210.062 -0.869135 1.66816 0
M  V30 2226 O 209.42 -1.57831 0.892145 0
M  V30 2227 C 209.468 0.736475 3.52999 0
M  V30 2228 O 208.572 -0.211537 4.11857 0
M  V30 2229 H 207.913 0.210563 0.62973 0
M  V30 2230 H 210.443 1.20982 1.64998 0
M  V30 2231 H 210.453 0.640685 4.02938 0
M  V30 2232 H 209.128 1.76276 3.76696 0
M  V30 2233 H 207.705 -0.0682991 3.72837 0
M  V30 2234 N 209.89 -1.43072 0.660911 0
M  V30 2235 C 210.838 -2.32569 -0.0378199 0
M  V30 2236 C 211.832 -1.49046 -0.805092 0
M  V30 2237 O 213.038 -1.65206 -0.714624 0
M  V30 2238 H 209.413 -0.75136 -0.031019 0
M  V30 2239 H 211.384 -2.89216 0.734609 0
M  V30 2240 C 210.133 -3.33453 -0.985124 0
M  V30 2241 H 209.456 -3.97752 -0.404147 0
M  V30 2242 H 210.896 -3.98691 -1.44297 0
M  V30 2243 C 209.355 -2.64642 -2.08486 0
M  V30 2244 O 209.885 -2.46776 -3.16961 0
M  V30 2245 N 208.091 -2.23891 -1.8526 0
M  V30 2246 H 207.638 -2.38621 -0.970449 0
M  V30 2247 H 207.596 -1.78181 -2.59034 0
M  V30 2248 N 211.368 -0.403325 -1.52352 0
M  V30 2249 C 212.298 0.416205 -2.29761 0
M  V30 2250 C 213.279 1.05123 -1.33728 0
M  V30 2251 O 214.464 1.06134 -1.62632 0
M  V30 2252 C 211.594 1.53624 -3.11475 0
M  V30 2253 C 210.548 1.02653 -4.15507 0
M  V30 2254 C 209.874 2.23971 -4.85532 0
M  V30 2255 C 211.174 0.08463 -5.22231 0
M  V30 2256 H 212.868 -0.229701 -2.98518 0
M  V30 2257 H 210.414 -0.111913 -1.43564 0
M  V30 2258 H 212.367 2.1165 -3.64393 0
M  V30 2259 H 211.091 2.20994 -2.40477 0
M  V30 2260 H 209.75 0.46871 -3.63591 0
M  V30 2261 H 209.398 2.89883 -4.11068 0
M  V30 2262 H 209.098 1.90521 -5.55856 0
M  V30 2263 H 210.622 2.82614 -5.41259 0
M  V30 2264 H 212.036 0.573509 -5.70424 0
M  V30 2265 H 210.433 -0.160783 -5.99885 0
M  V30 2266 H 211.503 -0.86237 -4.7717 0
M  V30 2267 N 212.846 1.57033 -0.133567 0
M  V30 2268 C 213.794 2.17348 0.828412 0
M  V30 2269 C 214.788 1.12671 1.26498 0
M  V30 2270 O 215.994 1.30947 1.23502 0
M  V30 2271 H 212.369 0.695775 0.285309 0
M  V30 2272 H 214.34 2.96935 0.295372 0
M  V30 2273 C 213.089 2.79893 2.06289 0
M  V30 2274 H 212.412 3.60147 1.73592 0
M  V30 2275 H 213.852 3.25615 2.71572 0
M  V30 2276 C 212.311 1.77713 2.86216 0
M  V30 2277 O 212.841 1.23937 3.82103 0
M  V30 2278 N 211.047 1.47321 2.50489 0
M  V30 2279 H 210.594 1.91243 1.7258 0
M  V30 2280 H 210.552 0.79199 3.04261 0
M  V30 2281 N 214.325 -0.140222 1.56975 0
M  V30 2282 C 215.273 -1.19207 1.99731 0
M  V30 2283 C 216.267 -1.44089 0.890777 0
M  V30 2284 O 217.473 -1.44301 1.07597 0
M  V30 2285 H 213.848 -0.40142 0.635898 0
M  V30 2286 H 215.819 -0.804813 2.87342 0
M  V30 2287 C 214.568 -2.51617 2.39967 0
M  V30 2288 H 213.891 -2.33303 3.24669 0
M  V30 2289 H 215.331 -3.23827 2.73701 0
M  V30 2290 C 213.79 -3.12654 1.25496 0
M  V30 2291 O 214.32 -3.97786 0.559371 0
M  V30 2292 N 212.526 -2.72206 1.01746 0
M  V30 2293 H 212.073 -2.03074 1.58489 0
M  V30 2294 H 212.031 -3.13377 0.253461 0
M  V30 2295 N 215.803 -1.52179 -0.40978 0
M  V30 2296 C 216.713 -1.78364 -1.52392 0
M  V30 2297 C 217.729 -0.669183 -1.60617 0
M  V30 2298 O 218.905 -0.954518 -1.77344 0
M  V30 2299 C 215.97 -1.92822 -2.88133 0
M  V30 2300 C 215.031 -3.16725 -2.898 0
M  V30 2301 C 214.264 -3.30483 -4.19067 0
M  V30 2302 O 214.487 -2.49522 -5.12928 0
M  V30 2303 O 213.421 -4.2363 -4.27576 0
M  V30 2304 H 217.247 -2.72931 -1.33201 0
M  V30 2305 H 214.832 -1.37016 -0.59557 0
M  V30 2306 H 216.714 -2.04157 -3.68643 0
M  V30 2307 H 215.389 -1.01444 -3.07393 0
M  V30 2308 H 214.296 -3.10848 -2.08146 0
M  V30 2309 H 215.629 -4.07881 -2.75489 0
M  V30 2310 N 217.281 0.66697 -1.42791 0
M  V30 2311 C 218.509 1.45505 -1.47091 0
M  V30 2312 C 218.924 1.8861 -0.0845873 0
M  V30 2313 O 218.281 1.58632 0.90234 0
M  V30 2314 C 218.332 2.69906 -2.40485 0
M  V30 2315 O 218.053 2.28608 -3.73725 0
M  V30 2316 C 219.554 3.63396 -2.53886 0
M  V30 2317 H 216.774 0.447459 -0.500022 0
M  V30 2318 H 219.318 0.818866 -1.8739 0
M  V30 2319 H 217.473 3.29696 -2.03419 0
M  V30 2320 H 217.887 3.08997 -4.23817 0
M  V30 2321 H 219.361 4.47387 -3.2334 0
M  V30 2322 H 219.838 4.09824 -1.57927 0
M  V30 2323 H 220.444 3.09495 -2.91706 0
M  V30 2324 N 218.759 1.29093 0.90403 0
M  V30 2325 C 219.984 1.19809 1.69294 0
M  V30 2326 C 220.409 -0.238481 1.86582 0
M  V30 2327 O 219.767 -1.1723 1.383 0
M  V30 2328 C 219.815 1.91202 3.05736 0
M  V30 2329 O 218.919 1.22611 3.93752 0
M  V30 2330 H 218.26 0.415385 0.518027 0
M  V30 2331 H 220.79 1.70586 1.12967 0
M  V30 2332 H 220.8 1.99487 3.55906 0
M  V30 2333 H 219.475 2.95692 2.92471 0
M  V30 2334 H 218.052 1.22554 3.52186 0
M  V30 2335 N 220.237 -1.11381 1.11499 0
M  V30 2336 C 221.485 -1.8277 0.862524 0
M  V30 2337 C 221.806 -1.85097 -0.613534 0
M  V30 2338 O 221.076 -1.32198 -1.4457 0
M  V30 2339 H 219.656 -0.676823 0.316101 0
M  V30 2340 H 222.318 -1.34816 1.4075 0
M  V30 2341 H 221.414 -2.86614 1.23527 0
M  V30 2342 N 221.715 -0.905404 -1.28997 0
M  V30 2343 C 222.943 -0.549846 -1.9946 0
M  V30 2344 C 223.358 0.866834 -1.67724 0
M  V30 2345 O 222.715 1.57298 -0.925404 0
M  V30 2346 C 222.766 -0.739387 -3.53858 0
M  V30 2347 O 222.487 -2.10031 -3.84472 0
M  V30 2348 C 223.988 -0.389541 -4.41585 0
M  V30 2349 H 221.208 -0.210429 -0.637151 0
M  V30 2350 H 223.752 -1.21632 -1.64396 0
M  V30 2351 H 221.907 -0.120023 -3.87214 0
M  V30 2352 H 222.321 -2.13385 -4.79132 0
M  V30 2353 H 223.795 -0.572972 -5.49018 0
M  V30 2354 H 224.272 0.673756 -4.34001 0
M  V30 2355 H 224.878 -0.986089 -4.1371 0
M  V30 2356 N 223.193 1.4272 -0.668489 0
M  V30 2357 C 224.423 2.05668 -0.196063 0
M  V30 2358 C 224.831 1.5028 1.14946 0
M  V30 2359 O 224.174 0.6348 1.72383 0
M  V30 2360 C 224.236 3.59469 -0.0468879 0
M  V30 2361 C 223.9 4.37518 -1.32012 0
M  V30 2362 C 224.897 4.68584 -2.25222 0
M  V30 2363 C 222.582 4.77266 -1.56596 0
M  V30 2364 C 224.576 5.38326 -3.41297 0
M  V30 2365 C 222.263 5.4675 -2.72962 0
M  V30 2366 C 223.261 5.77204 -3.65137 0
M  V30 2367 O 222.949 6.45264 -4.79468 0
M  V30 2368 H 222.681 0.669382 -0.0943599 0
M  V30 2369 H 225.235 1.83954 -0.913788 0
M  V30 2370 H 223.465 3.79817 0.726357 0
M  V30 2371 H 225.154 4.04071 0.384852 0
M  V30 2372 H 225.92 4.38382 -2.07477 0
M  V30 2373 H 221.799 4.52959 -0.857249 0
M  V30 2374 H 225.343 5.62014 -4.13263 0
M  V30 2375 H 221.24 5.76369 -2.90635 0
M  V30 2376 H 222.008 6.63753 -4.78931 0
M  V30 2377 N 224.671 0.411399 1.52136 0
M  V30 2378 C 225.634 -0.401089 2.25663 0
M  V30 2379 C 226.634 -0.971732 1.28117 0
M  V30 2380 O 227.824 -0.850254 1.52041 0
M  V30 2381 C 224.956 -1.56483 3.02863 0
M  V30 2382 H 226.149 0.24295 2.98914 0
M  V30 2383 H 223.702 0.163968 1.55438 0
M  V30 2384 H 224.437 -2.24567 2.33967 0
M  V30 2385 H 224.222 -1.16211 3.74483 0
M  V30 2386 H 225.712 -2.13951 3.58629 0
M  V30 2387 N 226.149 -1.5696 0.141893 0
M  V30 2388 C 227.097 -2.17784 -0.816874 0
M  V30 2389 C 228.091 -1.1334 -1.25899 0
M  V30 2390 O 229.297 -1.316 -1.22806 0
M  V30 2391 H 225.672 -0.697278 -0.281615 0
M  V30 2392 H 227.643 -2.97087 -0.279621 0
M  V30 2393 C 226.392 -2.80983 -2.04802 0
M  V30 2394 H 225.715 -3.61062 -1.7168 0
M  V30 2395 H 227.155 -3.2705 -2.69841 0
M  V30 2396 C 225.614 -1.79228 -2.8527 0
M  V30 2397 O 226.144 -1.25962 -3.8144 0
M  V30 2398 N 224.35 -1.48647 -2.49704 0
M  V30 2399 H 223.897 -1.92155 -1.71564 0
M  V30 2400 H 223.855 -0.808115 -3.03837 0
M  V30 2401 N 227.627 0.131896 -1.57047 0
M  V30 2402 C 228.875 0.840269 -1.83804 0
M  V30 2403 C 229.196 1.81017 -0.72512 0
M  V30 2404 O 228.466 1.94272 0.251995 0
M  V30 2405 H 227.046 0.313294 -0.678127 0
M  V30 2406 H 229.708 0.122294 -1.94516 0
M  V30 2407 H 228.804 1.39335 -2.79271 0
M  V30 2408 N 229.106 1.52395 0.401703 0
M  V30 2409 C 230.056 1.72649 1.48917 0
M  V30 2410 C 231.04 0.580436 1.50066 0
M  V30 2411 O 232.232 0.83779 1.55917 0
M  V30 2412 C 229.361 1.88729 2.86769 0
M  V30 2413 C 228.447 3.09228 2.90239 0
M  V30 2414 N 228.838 4.31805 2.63396 0
M  V30 2415 C 227.136 3.09214 3.21408 0
M  V30 2416 C 227.837 5.13326 2.73625 0
M  V30 2417 N 226.813 4.48735 3.06819 0
M  V30 2418 H 230.615 2.65058 1.26971 0
M  V30 2419 H 228.129 1.50528 0.609504 0
M  V30 2420 H 230.126 2.01358 3.65049 0
M  V30 2421 H 228.786 0.975252 3.09708 0
M  V30 2422 H 229.797 4.60154 2.37653 0
M  V30 2423 H 226.474 2.27774 3.49893 0
M  V30 2424 H 227.864 6.21003 2.56524 0
M  V30 2425 N 230.584 -0.659388 1.43143 0
M  V30 2426 C 231.83 -1.42145 1.44647 0
M  V30 2427 C 232.163 -1.9408 0.0681907 0
M  V30 2428 O 231.438 -1.71899 -0.910007 0
M  V30 2429 C 231.721 -2.60735 2.48373 0
M  V30 2430 C 231.574 -2.14332 3.95451 0
M  V30 2431 C 232.893 -3.62951 2.48906 0
M  V30 2432 H 230.012 -0.51552 0.526696 0
M  V30 2433 H 232.654 -0.748069 1.74654 0
M  V30 2434 H 230.804 -3.18184 2.22916 0
M  V30 2435 H 232.476 -1.61932 4.31944 0
M  V30 2436 H 230.719 -1.4576 4.08578 0
M  V30 2437 H 231.39 -2.99583 4.63631 0
M  V30 2438 H 233.866 -3.1525 2.71582 0
M  V30 2439 H 232.742 -4.43487 3.23435 0
M  V30 2440 H 233.003 -4.15126 1.52061 0
M  V30 2441 N 232.062 -1.29571 -0.897171 0
M  V30 2442 C 233.311 -1.1706 -1.64256 0
M  V30 2443 C 233.624 0.276476 -1.93636 0
M  V30 2444 O 234.83 0.52294 -2.66416 0
M  V30 2445 C 233.286 -2.0475 -2.95982 0
M  V30 2446 C 232.894 -3.54295 -2.74187 0
M  V30 2447 C 234.638 -2.0097 -3.73914 0
M  V30 2448 C 232.545 -4.34081 -4.01656 0
M  V30 2449 H 231.475 -0.43452 -0.616205 0
M  V30 2450 H 234.126 -1.54229 -0.994268 0
M  V30 2451 H 232.508 -1.60452 -3.62038 0
M  V30 2452 H 233.682 -4.06662 -2.1671 0
M  V30 2453 H 231.997 -3.59773 -2.09648 0
M  V30 2454 H 234.594 -2.57838 -4.68427 0
M  V30 2455 H 234.937 -0.990273 -4.0435 0
M  V30 2456 H 235.47 -2.43325 -3.14703 0
M  V30 2457 H 232.209 -5.36671 -3.76384 0
M  V30 2458 H 231.729 -3.86483 -4.58684 0
M  V30 2459 H 233.408 -4.44877 -4.69781 0
M  V30 2460 N 233.54 1.10788 -1.12088 0
M  V30 2461 C 234.817 1.79136 -0.785476 0
M  V30 2462 C 235.197 1.98246 0.725377 0
M  V30 2463 O 234.545 1.57258 1.65778 0
M  V30 2464 C 234.755 3.12375 -1.55636 0
M  V30 2465 C 236.103 3.8731 -1.74001 0
M  V30 2466 O 237.127 3.22085 -1.52117 0
M  V30 2467 O 235.986 5.04369 -2.10415 0
M  V30 2468 H 233.08 0.776226 -0.285311 0
M  V30 2469 H 235.626 1.1747 -1.2247 0
M  V30 2470 H 234.398 2.93863 -2.5838 0
M  V30 2471 H 234.021 3.81758 -1.11114 0
M  V30 2472 N 235.018 0.912232 1.28515 0
M  V30 2473 C 235.948 0.416403 2.29757 0
M  V30 2474 C 236.929 -0.515194 1.6211 0
M  V30 2475 O 238.114 -0.423253 1.89532 0
M  V30 2476 C 235.244 -0.34572 3.45575 0
M  V30 2477 C 234.198 0.496599 4.25109 0
M  V30 2478 C 233.524 -0.393771 5.33248 0
M  V30 2479 C 234.824 1.75307 4.92001 0
M  V30 2480 H 236.518 1.26249 2.7148 0
M  V30 2481 H 234.064 0.608515 1.30511 0
M  V30 2482 H 236.017 -0.703422 4.15488 0
M  V30 2483 H 234.741 -1.2257 3.02728 0
M  V30 2484 H 233.4 0.8368 3.56922 0
M  V30 2485 H 233.048 -1.27225 4.86644 0
M  V30 2486 H 232.748 0.166209 5.87365 0
M  V30 2487 H 234.272 -0.747389 6.06009 0
M  V30 2488 H 235.686 1.46437 5.54283 0
M  V30 2489 H 234.083 2.25534 5.56106 0
M  V30 2490 H 235.153 2.48176 4.16577 0
M  V30 2491 N 236.496 -1.42363 0.676048 0
M  V30 2492 C 237.907 -1.84649 0.275948 0
M  V30 2493 C 238.258 -1.56588 -1.18214 0
M  V30 2494 O 237.383 -1.02634 -1.90513 0
M  V30 2495 C 237.978 -3.35178 0.494053 0
M  V30 2496 C 236.537 -3.76109 0.148061 0
M  V30 2497 C 235.684 -2.65931 0.785891 0
M  V30 2498 H 238.635 -1.32192 0.878121 0
M  V30 2499 H 238.656 -3.79655 -0.25343 0
M  V30 2500 H 238.168 -3.55571 1.55535 0
M  V30 2501 H 236.269 -3.61323 -0.909742 0
M  V30 2502 H 236.382 -4.7546 0.589454 0
M  V30 2503 H 234.746 -2.53773 0.217113 0
M  V30 2504 H 235.529 -2.89146 1.85067 0
M  V30 2505 N 237.974 -0.419461 -1.51915 0
M  V30 2506 C 238.921 0.400927 -2.27291 0
M  V30 2507 C 239.891 1.03224 -1.30131 0
M  V30 2508 O 241.076 1.05455 -1.59009 0
M  V30 2509 C 238.216 1.50603 -3.10504 0
M  V30 2510 C 237.329 0.89462 -4.22635 0
M  V30 2511 C 236.464 1.97328 -4.93189 0
M  V30 2512 C 235.503 1.33935 -5.97267 0
M  V30 2513 N 234.64 2.3586 -6.61298 0
M  V30 2514 H 239.48 -0.248251 -2.96964 0
M  V30 2515 H 237.017 -0.134266 -1.46486 0
M  V30 2516 H 238.975 2.15783 -3.57062 0
M  V30 2517 H 237.605 2.12509 -2.42981 0
M  V30 2518 H 236.657 0.131583 -3.80172 0
M  V30 2519 H 237.969 0.391641 -4.9726 0
M  V30 2520 H 237.123 2.70211 -5.43204 0
M  V30 2521 H 235.862 2.50994 -4.18155 0
M  V30 2522 H 234.867 0.595896 -5.46561 0
M  V30 2523 H 236.092 0.810252 -6.74249 0
M  V30 2524 H 234.038 2.88639 -5.89087 0
M  V30 2525 H 233.955 1.90403 -7.3163 0
M  V30 2526 H 235.223 3.08282 -7.15949 0
M  V30 2527 N 239.452 1.56882 -0.150215 0
M  V30 2528 C 240.677 2.01027 0.510184 0
M  V30 2529 C 241.102 1.02966 1.57415 0
M  V30 2530 O 240.46 0.00590158 1.81299 0
M  V30 2531 C 240.508 3.43899 1.08472 0
M  V30 2532 O 239.612 3.4885 2.19948 0
M  V30 2533 H 238.953 0.652233 0.124451 0
M  V30 2534 H 241.483 2.03093 -0.247894 0
M  V30 2535 H 241.493 3.82766 1.41259 0
M  V30 2536 H 240.168 4.14776 0.305582 0
M  V30 2537 H 238.745 3.21827 1.88366 0
M  V30 2538 N 240.93 -0.123565 1.57115 0
M  V30 2539 C 241.84 -1.17074 2.033 0
M  V30 2540 C 242.856 -1.4561 0.952559 0
M  V30 2541 O 244.032 -1.56817 1.26374 0
M  V30 2542 C 241.097 -2.47857 2.42421 0
M  V30 2543 C 240.158 -2.26758 3.64526 0
M  V30 2544 C 239.391 -3.51305 4.01771 0
M  V30 2545 O 239.614 -4.5843 3.39409 0
M  V30 2546 O 238.548 -3.42578 4.94898 0
M  V30 2547 H 242.374 -0.808555 2.92739 0
M  V30 2548 H 239.959 -0.334027 1.45618 0
M  V30 2549 H 241.841 -3.2492 2.68338 0
M  V30 2550 H 240.516 -2.83558 1.5613 0
M  V30 2551 H 239.423 -1.47569 3.43765 0
M  V30 2552 H 240.756 -1.95963 4.51508 0
M  V30 2553 N 242.408 -1.52605 -0.393616 0
M  V30 2554 C 243.656 -1.67093 -1.13685 0
M  V30 2555 C 243.977 -0.411011 -1.90619 0
M  V30 2556 O 243.247 0.574491 -1.87287 0
M  V30 2557 H 241.827 -0.615923 -0.422668 0
M  V30 2558 H 244.489 -1.89704 -0.447039 0
M  V30 2559 H 243.585 -2.51922 -1.84232 0
M  V30 2560 N 243.887 0.651787 -1.4349 0
M  V30 2561 C 245.117 1.43728 -1.48411 0
M  V30 2562 C 245.525 1.8893 -0.10103 0
M  V30 2563 O 244.868 1.60182 0.899307 0
M  V30 2564 C 244.93 2.70411 -2.36893 0
M  V30 2565 C 244.594 2.4714 -3.8441 0
M  V30 2566 C 245.591 2.10271 -4.75481 0
M  V30 2567 C 243.276 2.6142 -4.28912 0
M  V30 2568 C 245.27 1.87982 -6.0905 0
M  V30 2569 C 242.957 2.38746 -5.62533 0
M  V30 2570 C 243.955 2.02083 -6.5242 0
M  V30 2571 O 243.643 1.79647 -7.8357 0
M  V30 2572 H 243.375 0.447962 -0.506267 0
M  V30 2573 H 245.929 0.80624 -1.88915 0
M  V30 2574 H 244.159 3.36079 -1.91278 0
M  V30 2575 H 245.848 3.32364 -2.33 0
M  V30 2576 H 246.614 1.98814 -4.42378 0
M  V30 2577 H 242.493 2.88931 -3.59222 0
M  V30 2578 H 246.037 1.5929 -6.7917 0
M  V30 2579 H 241.934 2.49806 -5.95203 0
M  V30 2580 H 242.702 1.9406 -7.95162 0
M  V30 2581 N 245.365 1.30045 0.890287 0
M  V30 2582 C 246.595 1.21296 1.67245 0
M  V30 2583 C 247.003 -0.227471 1.87828 0
M  V30 2584 O 246.346 -1.16296 1.422 0
M  V30 2585 C 246.408 1.86519 3.07329 0
M  V30 2586 C 246.072 3.35837 3.09939 0
M  V30 2587 C 247.069 4.31915 2.89389 0
M  V30 2588 C 244.754 3.77196 3.31706 0
M  V30 2589 C 246.748 5.67325 2.90552 0
M  V30 2590 C 244.435 5.12725 3.32499 0
M  V30 2591 C 245.433 6.076 3.11947 0
M  V30 2592 O 245.121 7.40655 3.12547 0
M  V30 2593 H 244.853 0.4211 0.528821 0
M  V30 2594 H 247.407 1.72111 1.12103 0
M  V30 2595 H 245.637 1.30228 3.64112 0
M  V30 2596 H 247.326 1.71963 3.67673 0
M  V30 2597 H 248.092 4.01294 2.72375 0
M  V30 2598 H 243.971 3.03796 3.4674 0
M  V30 2599 H 247.515 6.41354 2.74429 0
M  V30 2600 H 243.412 5.42988 3.49047 0
M  V30 2601 H 244.18 7.49577 3.28749 0
M  V30 2602 N 246.843 -1.10192 1.12674 0
M  V30 2603 C 247.791 -2.18694 0.792196 0
M  V30 2604 C 248.785 -1.67938 -0.222058 0
M  V30 2605 O 249.991 -1.79822 -0.0800074 0
M  V30 2606 H 246.366 -0.713223 0.238364 0
M  V30 2607 H 248.337 -2.44149 1.71564 0
M  V30 2608 C 247.086 -3.46682 0.265859 0
M  V30 2609 H 246.409 -3.86101 1.03761 0
M  V30 2610 H 247.849 -4.23942 0.0701128 0
M  V30 2611 C 246.308 -3.21506 -1.00675 0
M  V30 2612 O 246.838 -3.43408 -2.08408 0
M  V30 2613 N 245.044 -2.75158 -0.934692 0
M  V30 2614 H 244.591 -2.57535 -0.0578604 0
M  V30 2615 H 244.549 -2.58691 -1.7868 0
M  V30 2616 N 248.321 -0.919034 -1.28029 0
M  V30 2617 C 249.567 -0.555757 -1.95036 0
M  V30 2618 C 249.9 0.899198 -1.72128 0
M  V30 2619 O 249.175 1.64023 -1.04531 0
M  V30 2620 C 249.458 -0.872024 -3.49382 0
M  V30 2621 C 249.311 -2.3801 -3.81669 0
M  V30 2622 C 250.63 -0.37185 -4.38526 0
M  V30 2623 H 247.749 -0.203386 -0.708381 0
M  V30 2624 H 250.391 -1.14924 -1.51303 0
M  V30 2625 H 248.541 -0.366946 -3.86763 0
M  V30 2626 H 250.213 -2.9562 -3.54128 0
M  V30 2627 H 248.456 -2.83289 -3.28526 0
M  V30 2628 H 249.127 -2.55192 -4.8947 0
M  V30 2629 H 251.603 -0.804602 -4.08247 0
M  V30 2630 H 250.479 -0.622173 -5.45362 0
M  V30 2631 H 250.74 0.727934 -4.36066 0
M  V30 2632 N 249.799 1.42003 -0.683588 0
M  V30 2633 C 251.076 1.95112 -0.138075 0
M  V30 2634 C 251.456 1.62359 1.34918 0
M  V30 2635 O 250.804 0.924311 2.08971 0
M  V30 2636 C 251.014 3.46505 -0.416581 0
M  V30 2637 C 252.362 4.23254 -0.337834 0
M  V30 2638 O 253.386 3.54468 -0.35082 0
M  V30 2639 O 252.245 5.45743 -0.287596 0
M  V30 2640 H 249.339 0.826961 -0.00797996 0
M  V30 2641 H 251.885 1.51784 -0.758924 0
M  V30 2642 H 250.657 3.63582 -1.4465 0
M  V30 2643 H 250.28 3.969 0.235839 0
M  V30 2644 N 251.277 0.427512 1.51691 0
M  V30 2645 C 252.502 -0.143601 2.06902 0
M  V30 2646 C 252.927 -1.36536 1.29382 0
M  V30 2647 O 252.285 -1.78289 0.329043 0
M  V30 2648 C 252.333 -0.454207 3.57728 0
M  V30 2649 O 251.437 -1.54228 3.82475 0
M  V30 2650 H 250.778 -0.00617128 0.663971 0
M  V30 2651 H 253.308 0.606014 1.95419 0
M  V30 2652 H 253.318 -0.707525 4.01818 0
M  V30 2653 H 251.993 0.438812 4.13579 0
M  V30 2654 H 250.57 -1.2797 3.50254 0
M  V30 2655 N 252.755 -1.56801 0.158532 0
M  V30 2656 C 254.003 -1.96102 -0.488712 0
M  V30 2657 C 254.324 -1.04498 -1.64636 0
M  V30 2658 O 253.594 -0.108783 -1.95598 0
M  V30 2659 H 252.174 -0.724102 -0.183535 0
M  V30 2660 H 254.836 -1.93457 0.236728 0
M  V30 2661 H 253.932 -3.00097 -0.857219 0
M  V30 2662 N 254.233 0.115231 -1.57178 0
M  V30 2663 C 255.165 1.16694 -1.97269 0
M  V30 2664 C 256.178 1.37445 -0.872502 0
M  V30 2665 O 257.367 1.36454 -1.15077 0
M  V30 2666 C 254.467 2.52627 -2.25905 0
M  V30 2667 C 253.64 2.52427 -3.57211 0
M  V30 2668 C 252.699 3.70134 -3.74016 0
M  V30 2669 O 251.725 3.53546 -4.46087 0
M  V30 2670 N 252.927 4.88844 -3.13068 0
M  V30 2671 H 255.692 0.82588 -2.88096 0
M  V30 2672 H 253.253 0.304461 -1.59011 0
M  V30 2673 H 255.245 3.29937 -2.34359 0
M  V30 2674 H 253.815 2.789 -1.41186 0
M  V30 2675 H 253.035 1.60805 -3.5991 0
M  V30 2676 H 254.323 2.49353 -4.43509 0
M  V30 2677 H 253.721 5.05225 -2.54489 0
M  V30 2678 H 252.278 5.63817 -3.27037 0
M  V30 2679 N 255.711 1.52812 0.385517 0
M  V30 2680 C 257.122 1.5993 0.963293 0
M  V30 2681 C 257.473 0.454302 1.90868 0
M  V30 2682 O 256.598 -0.422132 2.12243 0
M  V30 2683 C 257.193 2.89871 1.75387 0
M  V30 2684 C 255.752 2.99389 2.28129 0
M  V30 2685 C 254.899 2.55071 1.08783 0
M  V30 2686 H 257.85 1.5784 0.164948 0
M  V30 2687 H 257.871 2.76553 2.61341 0
M  V30 2688 H 257.383 3.73186 1.06554 0
M  V30 2689 H 255.484 2.20619 3.00263 0
M  V30 2690 H 255.597 4.04096 2.57377 0
M  V30 2691 H 253.961 2.09473 1.4489 0
M  V30 2692 H 254.744 3.40785 0.414807 0
M  V30 2693 N 257.189 -0.644168 1.43834 0
M  V30 2694 C 258.414 -1.43642 1.49605 0
M  V30 2695 C 258.839 -1.8773 0.117913 0
M  V30 2696 O 258.197 -1.57938 -0.890239 0
M  V30 2697 C 258.245 -2.6416 2.45463 0
M  V30 2698 O 257.349 -3.63538 1.94714 0
M  V30 2699 H 256.69 -0.430329 0.50568 0
M  V30 2700 H 259.22 -0.787448 1.8884 0
M  V30 2701 H 259.23 -3.11864 2.63068 0
M  V30 2702 H 257.905 -2.31414 3.45572 0
M  V30 2703 H 256.482 -3.2273 1.86814 0
M  V30 2704 N 258.668 -1.30515 -0.883378 0
M  V30 2705 C 260.079 -1.17509 -1.45081 0
M  V30 2706 C 260.43 0.223605 -1.94922 0
M  V30 2707 O 259.555 1.12041 -1.85137 0
M  V30 2708 C 260.15 -2.12715 -2.63701 0
M  V30 2709 C 258.709 -2.03682 -3.16529 0
M  V30 2710 C 257.856 -2.02706 -1.89224 0
M  V30 2711 H 260.807 -1.42762 -0.693165 0
M  V30 2712 H 260.828 -1.70891 -3.39965 0
M  V30 2713 H 260.34 -3.14505 -2.27395 0
M  V30 2714 H 258.441 -1.05039 -3.57488 0
M  V30 2715 H 258.554 -2.92146 -3.7972 0
M  V30 2716 H 256.918 -1.4753 -2.07622 0
M  V30 2717 H 257.701 -3.06229 -1.55174 0
M  V30 2718 N 260.146 1.09593 -1.13257 0
M  V30 2719 C 261.423 1.78293 -0.804432 0
M  V30 2720 C 261.803 1.99004 0.70431 0
M  V30 2721 O 261.151 1.59007 1.641 0
M  V30 2722 C 261.361 3.10707 -1.5894 0
M  V30 2723 C 262.709 3.85443 -1.78099 0
M  V30 2724 O 263.733 3.20454 -1.55525 0
M  V30 2725 O 262.592 5.02108 -2.15753 0
M  V30 2726 H 259.686 0.773156 -0.293528 0
M  V30 2727 H 262.232 1.16164 -1.23709 0
M  V30 2728 H 261.004 2.91106 -2.61482 0
M  V30 2729 H 260.627 3.80558 -1.15157 0
M  V30 2730 N 261.624 0.925811 1.2754 0
M  V30 2731 C 262.556 0.380753 2.26015 0
M  V30 2732 C 263.569 -0.487485 1.5533 0
M  V30 2733 O 264.758 -0.300413 1.75954 0
M  V30 2734 C 261.858 -0.473259 3.35579 0
M  V30 2735 C 261.031 0.375249 4.35787 0
M  V30 2736 C 260.09 -0.415809 5.24555 0
M  V30 2737 O 259.116 0.175834 5.68928 0
M  V30 2738 N 260.318 -1.71607 5.54555 0
M  V30 2739 H 263.083 1.22725 2.73421 0
M  V30 2740 H 260.644 0.793037 1.41147 0
M  V30 2741 H 262.636 -1.00949 3.91907 0
M  V30 2742 H 261.206 -1.2205 2.87789 0
M  V30 2743 H 260.426 1.09279 3.7875 0
M  V30 2744 H 261.714 0.955399 4.99749 0
M  V30 2745 H 261.112 -2.2191 5.20358 0
M  V30 2746 H 259.669 -2.19887 6.1359 0
M  V30 2747 N 263.102 -1.41638 0.69111 0
M  V30 2748 C 264.327 -2.06148 0.227583 0
M  V30 2749 C 264.752 -1.51652 -1.11281 0
M  V30 2750 O 264.11 -0.64164 -1.69566 0
M  V30 2751 C 264.158 -3.60095 0.190858 0
M  V30 2752 O 263.262 -4.03845 -0.835664 0
M  V30 2753 H 262.603 -0.654434 0.112306 0
M  V30 2754 H 265.133 -1.81484 0.944714 0
M  V30 2755 H 265.143 -4.07995 0.020207 0
M  V30 2756 H 263.818 -3.99129 1.16915 0
M  V30 2757 H 262.395 -3.67458 -0.63473 0
M  V30 2758 N 264.58 -0.43555 -1.51462 0
M  V30 2759 C 265.828 0.131254 -2.01673 0
M  V30 2760 C 266.149 1.43368 -1.32177 0
M  V30 2761 O 265.419 1.90524 -0.455769 0
M  V30 2762 H 263.999 0.0514954 -0.745223 0
M  V30 2763 H 266.661 -0.577847 -1.86137 0
M  V30 2764 H 265.757 0.308446 -3.10572 0
M  V30 2765 N 266.058 1.56714 -0.166846 0
M  V30 2766 C 266.988 2.20754 0.760913 0
M  V30 2767 C 267.969 1.16178 1.24244 0
M  V30 2768 O 269.154 1.44592 1.29641 0
M  V30 2769 C 266.284 2.84478 1.99223 0
M  V30 2770 C 265.238 3.95053 1.64672 0
M  V30 2771 C 264.564 4.45805 2.95232 0
M  V30 2772 C 265.864 5.14865 0.878155 0
M  V30 2773 H 267.558 2.98537 0.22713 0
M  V30 2774 H 265.104 1.43596 0.107805 0
M  V30 2775 H 267.057 3.27951 2.64624 0
M  V30 2776 H 265.781 2.04056 2.55007 0
M  V30 2777 H 264.44 3.52228 1.01641 0
M  V30 2778 H 264.088 3.62181 3.49047 0
M  V30 2779 H 263.788 5.204 2.7287 0
M  V30 2780 H 265.312 4.91962 3.6167 0
M  V30 2781 H 266.726 5.55059 1.43466 0
M  V30 2782 H 265.123 5.95348 0.753738 0
M  V30 2783 H 266.193 4.84735 -0.126377 0
M  V30 2784 N 267.536 -0.106894 1.57237 0
M  V30 2785 C 268.813 -0.843526 1.76477 0
M  V30 2786 C 269.193 -1.97499 0.745464 0
M  V30 2787 O 268.541 -2.27357 -0.228306 0
M  V30 2788 C 268.751 -1.34903 3.21873 0
M  V30 2789 C 270.099 -1.79654 3.8472 0
M  V30 2790 O 271.123 -1.44554 3.2555 0
M  V30 2791 O 269.982 -2.44515 4.88748 0
M  V30 2792 H 267.076 -0.401468 0.723016 0
M  V30 2793 H 269.622 -0.0896927 1.69463 0
M  V30 2794 H 268.394 -0.53781 3.87586 0
M  V30 2795 H 268.017 -2.16522 3.33473 0
M  V30 2796 N 269.014 -1.53014 -0.377408 0
M  V30 2797 C 269.947 -1.73382 -1.48371 0
M  V30 2798 C 270.925 -0.581879 -1.51832 0
M  V30 2799 O 272.109 -0.81307 -1.70063 0
M  V30 2800 C 269.236 -1.80192 -2.8679 0
M  V30 2801 C 268.282 -3.02056 -3.01105 0
M  V30 2802 S 269.115 -4.61811 -2.71093 0
M  V30 2803 C 270.271 -4.71453 -4.11683 0
M  V30 2804 H 270.504 -2.66946 -1.30872 0
M  V30 2805 H 268.037 -1.43453 -0.571012 0
M  V30 2806 H 269.995 -1.84802 -3.6655 0
M  V30 2807 H 268.656 -0.877008 -3.01608 0
M  V30 2808 H 267.849 -3.03396 -4.02451 0
M  V30 2809 H 267.451 -2.95498 -2.29253 0
M  V30 2810 H 269.743 -4.50781 -5.0577 0
M  V30 2811 H 270.686 -5.73487 -4.15353 0
M  V30 2812 H 271.094 -4.00189 -3.98132 0
M  V30 2813 N 270.492 0.636531 -1.44174 0
M  V30 2814 C 271.72 1.42353 -1.50144 0
M  V30 2815 C 272.135 1.88389 -0.124575 0
M  V30 2816 O 271.492 1.6051 0.868489 0
M  V30 2817 C 271.543 2.64744 -2.46156 0
M  V30 2818 O 271.264 2.20629 -3.7849 0
M  V30 2819 C 272.765 3.57929 -2.61537 0
M  V30 2820 H 269.985 0.436752 -0.5094 0
M  V30 2821 H 272.529 0.778933 -1.89084 0
M  V30 2822 H 270.684 3.25307 -2.10366 0
M  V30 2823 H 271.098 2.99938 -4.30276 0
M  V30 2824 H 272.572 4.40428 -3.32757 0
M  V30 2825 H 273.049 4.06382 -1.66585 0
M  V30 2826 H 273.655 3.03238 -2.98206 0
M  V30 2827 N 271.97 1.30982 0.876444 0
M  V30 2828 C 273.218 1.20058 1.62575 0
M  V30 2829 C 273.539 -0.242947 1.93481 0
M  V30 2830 O 272.809 -1.1619 1.57724 0
M  V30 2831 H 271.389 0.44135 0.602677 0
M  V30 2832 H 274.051 1.64222 1.04962 0
M  V30 2833 H 273.147 1.76762 2.57219 0
M  V30 2834 N 273.449 -1.08991 1.13837 0
M  V30 2835 C 274.698 -1.80631 0.897509 0
M  V30 2836 C 275.011 -1.86872 -0.57777 0
M  V30 2837 O 276.217 -2.54866 -0.935701 0
M  V30 2838 C 274.673 -3.24517 1.55618 0
M  V30 2839 C 274.281 -3.26529 3.0673 0
M  V30 2840 C 276.025 -4.00882 1.3962 0
M  V30 2841 C 273.932 -4.64965 3.65461 0
M  V30 2842 H 272.862 -0.67691 0.332129 0
M  V30 2843 H 275.513 -1.2246 1.3666 0
M  V30 2844 H 273.895 -3.82778 1.01476 0
M  V30 2845 H 275.069 -2.78008 3.67489 0
M  V30 2846 H 273.384 -2.63656 3.22296 0
M  V30 2847 H 275.981 -5.03167 1.80906 0
M  V30 2848 H 276.324 -4.14896 0.341578 0
M  V30 2849 H 276.857 -3.49075 1.90766 0
M  V30 2850 H 273.596 -4.56153 4.70749 0
M  V30 2851 H 273.116 -5.13792 3.09481 0
M  V30 2852 H 274.795 -5.3394 3.654 0
M  V30 2853 N 274.927 -0.932562 -1.27047 0
M  V30 2854 C 275.874 -0.434072 -2.26681 0
M  V30 2855 C 276.844 0.501639 -1.58344 0
M  V30 2856 O 278.029 0.419734 -1.86126 0
M  V30 2857 C 275.169 0.30261 -3.43771 0
M  V30 2858 C 274.282 -0.667774 -4.26808 0
M  V30 2859 C 273.417 0.0892393 -5.31125 0
M  V30 2860 C 272.456 -0.873532 -6.05835 0
M  V30 2861 N 271.593 -0.148832 -7.01942 0
M  V30 2862 H 276.433 -1.28868 -2.68695 0
M  V30 2863 H 273.97 -0.646713 -1.32121 0
M  V30 2864 H 275.928 0.746092 -4.10474 0
M  V30 2865 H 274.558 1.12142 -3.02695 0
M  V30 2866 H 273.61 -1.22978 -3.59973 0
M  V30 2867 H 274.922 -1.40337 -4.78651 0
M  V30 2868 H 274.076 0.592409 -6.03801 0
M  V30 2869 H 272.815 0.85777 -4.80097 0
M  V30 2870 H 271.82 -1.38791 -5.31994 0
M  V30 2871 H 273.045 -1.64193 -6.58952 0
M  V30 2872 H 270.991 0.601365 -6.53238 0
M  V30 2873 H 270.908 -0.82391 -7.51497 0
M  V30 2874 H 272.176 0.333527 -7.78786 0
M  V30 2875 N 276.405 1.4127 -0.698611 0
M  V30 2876 C 277.337 2.292 0.00399731 0
M  V30 2877 C 278.35 1.44944 0.741279 0
M  V30 2878 O 279.539 1.68416 0.591477 0
M  V30 2879 C 276.639 3.22875 1.02979 0
M  V30 2880 C 275.812 4.35904 0.36151 0
M  V30 2881 C 274.871 5.10134 1.29033 0
M  V30 2882 O 273.897 5.63809 0.781562 0
M  V30 2883 N 275.099 5.17885 2.6225 0
M  V30 2884 H 277.864 2.9014 -0.750921 0
M  V30 2885 H 275.425 1.52455 -0.544882 0
M  V30 2886 H 277.417 3.69404 1.65296 0
M  V30 2887 H 275.987 2.63221 1.68622 0
M  V30 2888 H 275.207 3.91719 -0.441584 0
M  V30 2889 H 276.495 5.08696 -0.103055 0
M  V30 2890 H 275.893 4.7573 3.061 0
M  V30 2891 H 274.45 5.6798 3.19754 0
M  V30 2892 N 277.883 0.443576 1.51229 0
M  V30 2893 C 279.132 -0.122332 2.01329 0
M  V30 2894 C 279.445 -1.43237 1.33201 0
M  V30 2895 O 280.651 -2.0816 1.74304 0
M  V30 2896 C 279.107 -0.268551 3.58897 0
M  V30 2897 C 278.715 1.03142 4.35965 0
M  V30 2898 C 280.459 -0.787894 4.17124 0
M  V30 2899 C 278.366 0.850504 5.85252 0
M  V30 2900 H 277.296 -0.0494929 0.752374 0
M  V30 2901 H 279.947 0.574289 1.74282 0
M  V30 2902 H 278.329 -1.02832 3.82415 0
M  V30 2903 H 279.503 1.80001 4.24189 0
M  V30 2904 H 277.818 1.47977 3.89219 0
M  V30 2905 H 280.415 -0.939841 5.26375 0
M  V30 2906 H 280.758 -1.77201 3.76703 0
M  V30 2907 H 281.291 -0.0862669 3.97706 0
M  V30 2908 H 278.03 1.80718 6.30096 0
M  V30 2909 H 277.55 0.121825 5.99676 0
M  V30 2910 H 279.229 0.506163 6.45017 0
M  V30 2911 N 279.361 -1.56624 0.175154 0
M  V30 2912 C 280.308 -2.18149 -0.753634 0
M  V30 2913 C 281.278 -1.12265 -1.22417 0
M  V30 2914 O 282.463 -1.40432 -1.29165 0
M  V30 2915 C 279.603 -2.82933 -1.97592 0
M  V30 2916 C 278.716 -4.03289 -1.5486 0
M  V30 2917 C 277.851 -4.55988 -2.72485 0
M  V30 2918 C 276.89 -5.68746 -2.26262 0
M  V30 2919 N 276.027 -6.15938 -3.36994 0
M  V30 2920 H 280.867 -2.9717 -0.222195 0
M  V30 2921 H 278.404 -1.46774 -0.0979422 0
M  V30 2922 H 280.362 -3.18653 -2.69288 0
M  V30 2923 H 278.992 -2.06509 -2.481 0
M  V30 2924 H 278.044 -3.73364 -0.728246 0
M  V30 2925 H 279.356 -4.849 -1.16933 0
M  V30 2926 H 278.51 -4.9391 -3.52332 0
M  V30 2927 H 277.249 -3.73443 -3.13674 0
M  V30 2928 H 276.254 -5.30372 -1.44863 0
M  V30 2929 H 277.479 -6.53095 -1.86127 0
M  V30 2930 H 275.425 -5.36321 -3.77751 0
M  V30 2931 H 275.342 -6.92548 -3.03172 0
M  V30 2932 H 276.61 -6.58511 -4.17114 0
M  V30 2933 N 280.839 0.0985539 -1.57292 0
M  V30 2934 C 281.771 1.14595 -1.98496 0
M  V30 2935 C 282.784 1.36512 -0.887031 0
M  V30 2936 O 283.973 1.35225 -1.16518 0
M  V30 2937 C 281.073 2.50216 -2.28572 0
M  V30 2938 C 280.246 2.48624 -3.59868 0
M  V30 2939 C 279.305 3.66146 -3.7792 0
M  V30 2940 O 278.331 3.48795 -4.49812 0
M  V30 2941 N 279.533 4.85496 -3.18235 0
M  V30 2942 H 282.298 0.795277 -2.88956 0
M  V30 2943 H 279.859 0.287579 -1.59325 0
M  V30 2944 H 281.851 3.27432 -2.37845 0
M  V30 2945 H 280.421 2.77387 -1.44136 0
M  V30 2946 H 279.641 1.56978 -3.61596 0
M  V30 2947 H 280.929 2.44635 -4.46129 0
M  V30 2948 H 280.327 5.02497 -2.59833 0
M  V30 2949 H 278.884 5.60317 -3.32999 0
M  V30 2950 N 282.317 1.53212 0.369288 0
M  V30 2951 C 283.227 1.82342 1.47609 0
M  V30 2952 C 284.243 0.711532 1.58787 0
M  V30 2953 O 285.419 1.0012 1.74751 0
M  V30 2954 C 282.484 2.00393 2.8292 0
M  V30 2955 C 281.545 3.24297 2.81301 0
M  V30 2956 C 280.778 3.41478 4.10157 0
M  V30 2957 O 281.001 2.63033 5.06132 0
M  V30 2958 O 279.935 4.34817 4.16194 0
M  V30 2959 H 283.761 2.76366 1.25918 0
M  V30 2960 H 281.346 1.38547 0.559034 0
M  V30 2961 H 283.228 2.13859 3.63101 0
M  V30 2962 H 281.903 1.09559 3.04596 0
M  V30 2963 H 280.81 3.16257 1.99831 0
M  V30 2964 H 282.143 4.15041 2.64578 0
M  V30 2965 N 283.795 -0.628877 1.44509 0
M  V30 2966 C 285.206 -1.21054 1.42137 0
M  V30 2967 C 285.557 -1.95715 0.137881 0
M  V30 2968 O 284.682 -2.02554 -0.761645 0
M  V30 2969 C 285.277 -2.20189 2.57493 0
M  V30 2970 C 283.836 -2.73777 2.58308 0
M  V30 2971 C 282.983 -1.48813 2.33987 0
M  V30 2972 H 285.934 -0.41942 1.53057 0
M  V30 2973 H 285.955 -3.02833 2.30375 0
M  V30 2974 H 285.467 -1.6582 3.50892 0
M  V30 2975 H 283.568 -3.32142 1.68856 0
M  V30 2976 H 283.681 -3.19662 3.56865 0
M  V30 2977 H 282.045 -1.77024 1.83124 0
M  V30 2978 H 282.828 -0.963442 3.29504 0
M  V30 2979 N 285.273 -1.31445 -0.869486 0
M  V30 2980 C 286.522 -1.20517 -1.61736 0
M  V30 2981 C 286.835 0.235341 -1.94179 0
M  V30 2982 O 288.041 0.466312 -2.67465 0
M  V30 2983 C 286.497 -2.10982 -2.91573 0
M  V30 2984 C 286.105 -3.60032 -2.66611 0
M  V30 2985 C 287.849 -2.08856 -3.69567 0
M  V30 2986 C 285.756 -4.42503 -3.92358 0
M  V30 2987 H 284.686 -0.447493 -0.606849 0
M  V30 2988 H 287.337 -1.56303 -0.96133 0
M  V30 2989 H 285.719 -1.68095 -3.58553 0
M  V30 2990 H 286.893 -4.11167 -2.08035 0
M  V30 2991 H 285.208 -3.64139 -2.0197 0
M  V30 2992 H 287.805 -2.67716 -4.62852 0
M  V30 2993 H 288.148 -1.07582 -4.02159 0
M  V30 2994 H 288.681 -2.49945 -3.09471 0
M  V30 2995 H 285.42 -5.44533 -3.64916 0
M  V30 2996 H 284.94 -3.96125 -4.50383 0
M  V30 2997 H 286.619 -4.54741 -4.60238 0
M  V30 2998 N 286.751 1.08385 -1.14413 0
M  V30 2999 C 287.981 1.8425 -0.934644 0
M  V30 3000 C 288.389 1.81907 0.520234 0
M  V30 3001 O 287.732 1.22126 1.37226 0
M  V30 3002 C 287.794 3.32853 -1.35828 0
M  V30 3003 C 287.458 3.5893 -2.82875 0
M  V30 3004 C 288.455 3.53756 -3.80989 0
M  V30 3005 C 286.14 3.86934 -3.20293 0
M  V30 3006 C 288.134 3.76216 -5.14529 0
M  V30 3007 C 285.821 4.09047 -4.54008 0
M  V30 3008 C 286.819 4.03682 -5.50936 0
M  V30 3009 O 286.507 4.25214 -6.82238 0
M  V30 3010 H 286.239 0.588502 -0.332628 0
M  V30 3011 H 288.793 1.37792 -1.52324 0
M  V30 3012 H 287.023 3.8007 -0.713019 0
M  V30 3013 H 288.712 3.90154 -1.11957 0
M  V30 3014 H 289.478 3.32135 -3.53428 0
M  V30 3015 H 285.357 3.9023 -2.45442 0
M  V30 3016 H 288.901 3.71943 -5.90173 0
M  V30 3017 H 284.798 4.30151 -4.8129 0
M  V30 3018 H 285.566 4.42619 -6.88499 0
M  V30 3019 N 288.23 0.939286 1.26551 0
M  V30 3020 C 289.507 0.5038 1.89001 0
M  V30 3021 C 289.887 -1.01854 1.84903 0
M  V30 3022 O 289.235 -1.87773 1.30206 0
M  V30 3023 C 289.445 1.063 3.32417 0
M  V30 3024 C 290.793 1.13051 4.09273 0
M  V30 3025 O 291.817 1.01345 3.41479 0
M  V30 3026 O 290.676 1.31233 5.30509 0
M  V30 3027 H 287.77 0.163897 0.810597 0
M  V30 3028 H 290.316 1.03173 1.34735 0
M  V30 3029 H 289.088 2.10665 3.29752 0
M  V30 3030 H 288.711 0.517408 3.94219 0
M  V30 3031 N 289.708 -1.40897 0.706093 0
M  V30 3032 C 290.638 -2.33418 0.0620085 0
M  V30 3033 C 291.619 -1.52385 -0.755827 0
M  V30 3034 O 292.804 -1.80886 -0.706674 0
M  V30 3035 C 289.934 -3.36293 -0.867445 0
M  V30 3036 C 288.888 -4.27716 -0.155932 0
M  V30 3037 C 288.214 -5.2105 -1.20046 0
M  V30 3038 C 289.514 -5.12944 0.984149 0
M  V30 3039 H 291.208 -2.87527 0.83477 0
M  V30 3040 H 288.754 -1.38249 0.402875 0
M  V30 3041 H 290.707 -3.99949 -1.32735 0
M  V30 3042 H 289.431 -2.80556 -1.67199 0
M  V30 3043 H 288.09 -3.65498 0.284047 0
M  V30 3044 H 287.738 -4.61624 -1.99781 0
M  V30 3045 H 287.438 -5.83056 -0.729328 0
M  V30 3046 H 288.962 -5.87584 -1.66066 0
M  V30 3047 H 290.376 -5.70109 0.604048 0
M  V30 3048 H 288.773 -5.83945 1.38304 0
M  V30 3049 H 289.843 -4.49485 1.81911 0
M  V30 3050 N 291.186 -0.45159 -1.50991 0
M  V30 3051 C 292.414 0.108334 -2.06616 0
M  V30 3052 C 292.829 1.35224 -1.31757 0
M  V30 3053 O 292.186 1.78475 -0.381174 0
M  V30 3054 C 292.237 0.41619 -3.59096 0
M  V30 3055 O 291.958 -0.778361 -4.3113 0
M  V30 3056 C 293.459 1.02523 -4.31282 0
M  V30 3057 H 290.679 0.00159995 -0.670998 0
M  V30 3058 H 293.223 -0.634771 -1.94399 0
M  V30 3059 H 291.378 1.10921 -3.71181 0
M  V30 3060 H 291.792 -0.511181 -5.22003 0
M  V30 3061 H 293.266 1.19053 -5.39009 0
M  V30 3062 H 293.743 2.01013 -3.905 0
M  V30 3063 H 294.349 0.371173 -4.23677 0
M  V30 3064 N 292.664 1.56529 -0.183458 0
M  V30 3065 C 293.889 2.02064 0.467428 0
M  V30 3066 C 294.314 1.06282 1.55196 0
M  V30 3067 O 293.672 0.0443565 1.81246 0
M  V30 3068 C 293.72 3.46122 1.01153 0
M  V30 3069 O 292.824 3.53437 2.12499 0
M  V30 3070 H 292.165 0.654726 0.110588 0
M  V30 3071 H 294.695 2.02521 -0.290917 0
M  V30 3072 H 294.705 3.85676 1.33108 0
M  V30 3073 H 293.38 4.15331 0.217533 0
M  V30 3074 H 291.957 3.2575 1.81497 0
M  V30 3075 N 294.142 -0.090211 1.57342 0
M  V30 3076 C 295.388 -0.793982 1.86611 0
M  V30 3077 C 295.721 -1.78142 0.773252 0
M  V30 3078 O 294.996 -1.93271 -0.218304 0
M  V30 3079 C 295.279 -1.51839 3.26523 0
M  V30 3080 C 295.132 -0.548609 4.46442 0
M  V30 3081 C 296.451 -2.46779 3.64401 0
M  V30 3082 H 293.57 -0.287186 0.678744 0
M  V30 3083 H 296.212 -0.0575076 1.89913 0
M  V30 3084 H 294.362 -2.14617 3.23839 0
M  V30 3085 H 296.034 0.0725513 4.61243 0
M  V30 3086 H 294.277 0.137614 4.33582 0
M  V30 3087 H 294.948 -1.09271 5.41076 0
M  V30 3088 H 297.424 -1.94089 3.68061 0
M  V30 3089 H 296.3 -2.94479 4.63221 0
M  V30 3090 H 296.561 -3.30758 2.93346 0
M  V30 3091 N 295.62 -1.53406 -0.361157 0
M  V30 3092 C 297.031 -1.61442 -0.937728 0
M  V30 3093 C 297.382 -0.48461 -1.90121 0
M  V30 3094 O 296.507 0.388312 -2.12888 0
M  V30 3095 C 297.102 -2.92624 -1.70753 0
M  V30 3096 C 295.661 -3.02981 -2.23337 0
M  V30 3097 C 294.808 -2.5677 -1.04712 0
M  V30 3098 H 297.759 -1.58083 -0.139816 0
M  V30 3099 H 297.78 -2.80675 -2.56908 0
M  V30 3100 H 297.292 -3.74834 -1.00604 0
M  V30 3101 H 295.393 -2.25368 -2.96715 0
M  V30 3102 H 295.506 -4.0814 -2.50916 0
M  V30 3103 H 293.87 -2.11752 -1.41539 0
M  V30 3104 H 294.653 -3.41402 -0.360539 0
M  V30 3105 N 297.098 0.621204 -1.44841 0
M  V30 3106 C 298.046 1.75385 -1.52784 0
M  V30 3107 C 299.04 1.64639 -0.398779 0
M  V30 3108 O 300.246 1.70598 -0.574137 0
M  V30 3109 H 296.621 0.579193 -0.479625 0
M  V30 3110 H 298.592 1.6581 -2.48092 0
M  V30 3111 C 297.341 3.13742 -1.4987 0
M  V30 3112 H 296.664 3.22663 -2.36069 0
M  V30 3113 H 298.104 3.92861 -1.59487 0
M  V30 3114 C 296.563 3.36175 -0.220973 0
M  V30 3115 O 297.093 3.95469 0.704782 0
M  V30 3116 N 295.299 2.90348 -0.120963 0
M  V30 3117 H 294.846 2.42278 -0.875162 0
M  V30 3118 H 294.804 3.05732 0.733168 0
M  V30 3119 N 298.576 1.31904 0.862503 0
M  V30 3120 C 299.506 1.22782 1.98612 0
M  V30 3121 C 300.487 0.113362 1.69722 0
M  V30 3122 O 301.672 0.299218 1.91881 0
M  V30 3123 C 298.802 0.942058 3.34279 0
M  V30 3124 C 297.756 2.0169 3.77499 0
M  V30 3125 C 297.082 1.58369 5.10709 0
M  V30 3126 C 298.382 3.43096 3.93805 0
M  V30 3127 H 300.076 2.16788 2.06502 0
M  V30 3128 H 297.622 1.04366 0.992154 0
M  V30 3129 H 299.575 0.864818 4.1243 0
M  V30 3130 H 298.299 -0.0336603 3.26583 0
M  V30 3131 H 296.958 2.08416 3.01593 0
M  V30 3132 H 296.606 0.595628 4.99461 0
M  V30 3133 H 296.306 2.30279 5.40597 0
M  V30 3134 H 297.83 1.52067 5.91361 0
M  V30 3135 H 299.244 3.39003 4.62331 0
M  V30 3136 H 297.641 4.13288 4.35101 0
M  V30 3137 H 298.711 3.83334 2.96957 0
M  V30 3138 N 300.054 -1.07777 1.14986 0
M  V30 3139 C 301.301 -1.8029 0.922056 0
M  V30 3140 C 301.629 -1.86531 -0.55105 0
M  V30 3141 O 300.884 -1.34189 -1.42449 0
M  V30 3142 C 301.183 -3.25495 1.47608 0
M  V30 3143 C 300.849 -3.39361 2.96893 0
M  V30 3144 C 299.511 -3.42852 3.37647 0
M  V30 3145 C 301.863 -3.42512 3.92854 0
M  V30 3146 C 299.191 -3.47094 4.73015 0
M  V30 3147 C 301.543 -3.4829 5.28088 0
M  V30 3148 C 300.207 -3.50058 5.68345 0
M  V30 3149 H 299.477 -0.659727 0.337404 0
M  V30 3150 H 302.124 -1.26854 1.43459 0
M  V30 3151 H 300.429 -3.81683 0.88463 0
M  V30 3152 H 302.126 -3.80168 1.27568 0
M  V30 3153 H 298.716 -3.37339 2.64387 0
M  V30 3154 H 302.9 -3.3904 3.62444 0
M  V30 3155 H 298.156 -3.46758 5.03556 0
M  V30 3156 H 302.33 -3.49675 6.02246 0
M  V30 3157 H 299.957 -3.53097 6.73221 0
M  V30 3158 N 301.532 -0.945985 -1.26051 0
M  V30 3159 C 302.76 -0.613025 -1.9761 0
M  V30 3160 C 303.175 0.813035 -1.70397 0
M  V30 3161 O 302.532 1.54274 -0.974979 0
M  V30 3162 C 302.583 -0.85159 -3.51326 0
M  V30 3163 O 302.304 -2.22157 -3.77595 0
M  V30 3164 C 303.805 -0.529831 -4.40122 0
M  V30 3165 H 301.025 -0.230593 -0.630133 0
M  V30 3166 H 303.569 -1.268 -1.60443 0
M  V30 3167 H 301.724 -0.243151 -3.86636 0
M  V30 3168 H 302.138 -2.2852 -4.721 0
M  V30 3169 H 303.612 -0.747348 -5.46917 0
M  V30 3170 H 304.089 0.535341 -4.35925 0
M  V30 3171 H 304.695 -1.11721 -4.10364 0
M  V30 3172 N 303.011 1.40521 -0.713556 0
M  V30 3173 C 304.241 2.0494 -0.261395 0
M  V30 3174 C 304.649 1.53861 1.10107 0
M  V30 3175 O 303.992 0.689321 1.70276 0
M  V30 3176 C 304.054 3.59138 -0.161227 0
M  V30 3177 C 303.718 4.33096 -1.45865 0
M  V30 3178 C 304.715 4.61182 -2.40016 0
M  V30 3179 C 302.4 4.72043 -1.71701 0
M  V30 3180 C 304.394 5.27196 -3.58251 0
M  V30 3181 C 302.081 5.37789 -2.90218 0
M  V30 3182 C 303.079 5.65295 -3.83315 0
M  V30 3183 O 302.767 6.29683 -4.99754 0
M  V30 3184 H 302.499 0.666041 -0.115608 0
M  V30 3185 H 305.053 1.80954 -0.971849 0
M  V30 3186 H 303.283 3.81936 0.605153 0
M  V30 3187 H 304.972 4.05091 0.256105 0
M  V30 3188 H 305.738 4.31559 -2.21318 0
M  V30 3189 H 301.617 4.50003 -1.00092 0
M  V30 3190 H 305.161 5.48582 -4.30934 0
M  V30 3191 H 301.058 5.66831 -3.08825 0
M  V30 3192 H 301.826 6.4818 -4.99805 0
M  V30 3193 N 304.489 0.459591 1.5075 0
M  V30 3194 C 305.714 -0.0996819 2.0716 0
M  V30 3195 C 306.139 -1.33761 1.32249 0
M  V30 3196 O 305.497 -1.77551 0.366786 0
M  V30 3197 C 305.545 -0.378226 3.58611 0
M  V30 3198 O 304.649 -1.46081 3.85661 0
M  V30 3199 H 303.99 0.00791392 0.663953 0
M  V30 3200 H 306.52 0.647329 1.9409 0
M  V30 3201 H 306.53 -0.622135 4.03229 0
M  V30 3202 H 305.205 0.526439 4.12555 0
M  V30 3203 H 303.782 -1.20511 3.5289 0
M  V30 3204 N 305.967 -1.56429 0.191757 0
M  V30 3205 C 307.192 -2.02309 -0.456706 0
M  V30 3206 C 307.617 -1.07103 -1.5463 0
M  V30 3207 O 306.975 -0.0539677 -1.8122 0
M  V30 3208 C 307.023 -3.46654 -0.993159 0
M  V30 3209 O 306.127 -3.54559 -2.10622 0
M  V30 3210 H 305.468 -0.655303 -0.107114 0
M  V30 3211 H 307.998 -2.02364 0.301653 0
M  V30 3212 H 308.008 -3.86377 -1.31061 0
M  V30 3213 H 306.683 -4.1544 -0.195504 0
M  V30 3214 H 305.26 -3.26708 -1.79767 0
M  V30 3215 N 307.445 0.0818655 -1.57387 0
M  V30 3216 C 308.692 0.782914 -1.86753 0
M  V30 3217 C 309.02 1.78082 -0.782118 0
M  V30 3218 O 308.275 1.94426 0.22295 0
M  V30 3219 C 308.574 1.53513 -3.22752 0
M  V30 3220 C 308.24 0.678134 -4.45771 0
M  V30 3221 C 306.902 0.441929 -4.79166 0
M  V30 3222 C 309.254 0.0832243 -5.21134 0
M  V30 3223 C 306.582 -0.398833 -5.85343 0
M  V30 3224 C 308.934 -0.744935 -6.28199 0
M  V30 3225 C 307.598 -0.991107 -6.60101 0
M  V30 3226 H 306.868 0.286489 -0.683378 0
M  V30 3227 H 309.515 0.0439808 -1.91449 0
M  V30 3228 H 307.82 2.34599 -3.138 0
M  V30 3229 H 309.517 2.08218 -3.42705 0
M  V30 3230 H 306.107 0.872357 -4.19628 0
M  V30 3231 H 310.291 0.252847 -4.95655 0
M  V30 3232 H 305.547 -0.598405 -6.08465 0
M  V30 3233 H 309.721 -1.21271 -6.8576 0
M  V30 3234 H 307.348 -1.64437 -7.42202 0
M  V30 3235 N 308.923 1.53595 0.353017 0
M  V30 3236 C 309.871 1.81605 1.45335 0
M  V30 3237 C 310.865 0.685923 1.54892 0
M  V30 3238 O 312.071 0.869095 1.57628 0
M  V30 3239 H 308.446 0.575204 0.484401 0
M  V30 3240 H 310.417 2.73679 1.18921 0
M  V30 3241 C 309.166 2.03406 2.81995 0
M  V30 3242 H 308.489 2.89814 2.75405 0
M  V30 3243 H 309.929 2.26975 3.58132 0
M  V30 3244 C 308.388 0.816794 3.26849 0
M  V30 3245 O 308.918 0.0115856 4.01698 0
M  V30 3246 N 307.124 0.636682 2.8354 0
M  V30 3247 H 306.671 1.2931 2.22793 0
M  V30 3248 H 306.629 -0.176336 3.13905 0
M  V30 3249 N 310.401 -0.613514 1.45168 0
M  V30 3250 C 311.349 -1.74572 1.53712 0
M  V30 3251 C 312.343 -1.64426 0.407505 0
M  V30 3252 O 313.549 -1.70291 0.583176 0
M  V30 3253 H 309.924 -0.576641 0.48269 0
M  V30 3254 H 311.895 -1.64492 2.48968 0
M  V30 3255 C 310.644 -3.12943 1.51532 0
M  V30 3256 H 309.967 -3.21407 2.37776 0
M  V30 3257 H 311.407 -3.9201 1.61569 0
M  V30 3258 C 309.866 -3.36053 0.238798 0
M  V30 3259 O 310.396 -3.95837 -0.6838 0
M  V30 3260 N 308.602 -2.9028 0.136359 0
M  V30 3261 H 308.149 -2.41811 0.887999 0
M  V30 3262 H 308.107 -3.06116 -0.716944 0
M  V30 3263 N 311.879 -1.3236 -0.855495 0
M  V30 3264 C 313.127 -1.22629 -1.60644 0
M  V30 3265 C 313.448 0.212136 -1.93843 0
M  V30 3266 O 312.718 1.13666 -1.59552 0
M  V30 3267 H 311.298 -0.450882 -0.595579 0
M  V30 3268 H 313.96 -1.65871 -1.02337 0
M  V30 3269 H 313.056 -1.80832 -2.54374 0
M  V30 3270 N 313.357 1.07166 -1.15556 0
M  V30 3271 C 314.289 2.14341 -0.811815 0
M  V30 3272 C 315.302 1.61835 0.177015 0
M  V30 3273 O 316.491 1.78439 -0.0464996 0
M  V30 3274 C 313.591 3.38387 -0.186481 0
M  V30 3275 C 312.764 4.20238 -1.21321 0
M  V30 3276 C 311.823 5.2266 -0.609302 0
M  V30 3277 O 310.849 5.54719 -1.27576 0
M  V30 3278 N 312.051 5.77306 0.608099 0
M  V30 3279 H 314.816 2.44431 -1.73417 0
M  V30 3280 H 312.377 1.23089 -1.0517 0
M  V30 3281 H 314.369 4.04044 0.230339 0
M  V30 3282 H 312.939 3.05994 0.639249 0
M  V30 3283 H 312.159 3.50369 -1.80652 0
M  V30 3284 H 313.447 4.71736 -1.90638 0
M  V30 3285 H 312.845 5.53513 1.1679 0
M  V30 3286 H 311.402 6.44583 0.96725 0
M  V30 3287 N 314.835 0.952656 1.25548 0
M  V30 3288 C 315.765 0.489287 2.28316 0
M  V30 3289 C 316.746 -0.463359 1.63667 0
M  V30 3290 O 317.931 -0.36274 1.90782 0
M  V30 3291 C 315.061 -0.235603 3.465 0
M  V30 3292 C 314.015 0.631593 4.23314 0
M  V30 3293 C 313.341 -0.223923 5.34231 0
M  V30 3294 C 314.641 1.90871 4.86174 0
M  V30 3295 H 316.335 1.34822 2.67326 0
M  V30 3296 H 313.881 0.649728 1.28509 0
M  V30 3297 H 315.834 -0.570882 4.17515 0
M  V30 3298 H 314.558 -1.12877 3.06474 0
M  V30 3299 H 313.217 0.949929 3.54079 0
M  V30 3300 H 312.865 -1.11678 4.90446 0
M  V30 3301 H 312.565 0.35299 5.86539 0
M  V30 3302 H 314.089 -0.554214 6.0808 0
M  V30 3303 H 315.503 1.63997 5.49343 0
M  V30 3304 H 313.9 2.43112 5.4865 0
M  V30 3305 H 314.97 2.61304 4.08471 0
M  V30 3306 N 316.313 -1.40141 0.720998 0
M  V30 3307 C 317.276 -2.29058 0.0805834 0
M  V30 3308 C 318.276 -1.45632 -0.681758 0
M  V30 3309 O 319.466 -1.6648 -0.512856 0
M  V30 3310 C 316.598 -3.28925 -0.895593 0
M  V30 3311 H 317.791 -2.87191 0.863793 0
M  V30 3312 H 315.344 -1.48553 0.485975 0
M  V30 3313 H 316.079 -2.75822 -1.70566 0
M  V30 3314 H 315.864 -3.90519 -0.351766 0
M  V30 3315 H 317.354 -3.95494 -1.34069 0
M  V30 3316 N 317.792 -0.46758 -1.50504 0
M  V30 3317 C 319.203 -0.0116166 -1.86696 0
M  V30 3318 C 319.554 1.39202 -1.38265 0
M  V30 3319 O 318.679 2.0313 -0.746132 0
M  V30 3320 C 319.274 -0.0143044 -3.38797 0
M  V30 3321 C 317.833 0.386175 -3.74414 0
M  V30 3322 C 316.98 -0.401287 -2.74381 0
M  V30 3323 H 319.931 -0.682022 -1.43297 0
M  V30 3324 H 319.952 0.788641 -3.72237 0
M  V30 3325 H 319.464 -1.03602 -3.74016 0
M  V30 3326 H 317.565 1.41237 -3.44794 0
M  V30 3327 H 317.678 0.0899596 -4.79016 0
M  V30 3328 H 316.042 0.144536 -2.5429 0
M  V30 3329 H 316.825 -1.42244 -3.12444 0
M  V30 3330 N 319.27 1.56325 -0.20005 0
M  V30 3331 C 320.518 1.97329 0.436547 0
M  V30 3332 C 320.839 1.08826 1.61808 0
M  V30 3333 O 320.109 0.160604 1.95241 0
M  V30 3334 H 318.689 0.728714 0.164272 0
M  V30 3335 H 321.351 1.92761 -0.287937 0
M  V30 3336 H 320.447 3.02264 0.777353 0
M  V30 3337 N 320.748 -0.0735177 1.57428 0
M  V30 3338 C 321.997 -0.771809 1.86349 0
M  V30 3339 C 322.31 -1.78828 0.792452 0
M  V30 3340 O 323.516 -2.53602 0.96945 0
M  V30 3341 C 321.972 -1.42358 3.30548 0
M  V30 3342 C 321.58 -0.445761 4.45777 0
M  V30 3343 C 323.324 -2.10434 3.6867 0
M  V30 3344 C 321.231 -1.10335 5.81016 0
M  V30 3345 H 320.161 -0.291999 0.695164 0
M  V30 3346 H 322.812 -0.0250749 1.83483 0
M  V30 3347 H 321.194 -2.21852 3.28021 0
M  V30 3348 H 322.368 0.319239 4.59693 0
M  V30 3349 H 320.683 0.130457 4.16196 0
M  V30 3350 H 323.28 -2.60405 4.67004 0
M  V30 3351 H 323.623 -2.90298 2.98383 0
M  V30 3352 H 324.156 -1.37773 3.7318 0
M  V30 3353 H 320.895 -0.345061 6.54591 0
M  V30 3354 H 320.415 -1.83925 5.70904 0
M  V30 3355 H 322.094 -1.62367 6.26295 0
M  V30 3356 N 322.226 -1.5378 -0.344866 0
M  V30 3357 C 323.454 -1.74899 -1.10534 0
M  V30 3358 C 323.869 -0.487534 -1.82397 0
M  V30 3359 O 323.226 0.540741 -1.74305 0
M  V30 3360 C 323.277 -2.92822 -2.11984 0
M  V30 3361 O 322.998 -4.14089 -1.43044 0
M  V30 3362 C 324.499 -3.25982 -3.00417 0
M  V30 3363 H 321.719 -0.584426 -0.329678 0
M  V30 3364 H 324.263 -2.006 -0.397474 0
M  V30 3365 H 322.418 -2.69457 -2.78338 0
M  V30 3366 H 322.832 -4.80272 -2.10805 0
M  V30 3367 H 324.306 -4.11848 -3.67539 0
M  V30 3368 H 324.783 -2.42228 -3.66363 0
M  V30 3369 H 325.389 -3.51349 -2.39654 0
M  V30 3370 N 323.704 0.605807 -1.45491 0
M  V30 3371 C 324.637 1.73022 -1.48791 0
M  V30 3372 C 325.615 1.58917 -0.344112 0
M  V30 3373 O 326.799 1.80453 -0.544876 0
M  V30 3374 C 323.926 3.10865 -1.34463 0
M  V30 3375 C 322.972 3.43554 -2.5273 0
M  V30 3376 S 323.805 3.38196 -4.15191 0
M  V30 3377 C 324.961 4.78616 -4.03333 0
M  V30 3378 H 325.194 1.69961 -2.43928 0
M  V30 3379 H 322.727 0.782611 -1.33096 0
M  V30 3380 H 324.685 3.90398 -1.26884 0
M  V30 3381 H 323.346 3.1144 -0.40794 0
M  V30 3382 H 322.539 4.43924 -2.38637 0
M  V30 3383 H 322.141 2.71541 -2.5718 0
M  V30 3384 H 324.433 5.68463 -3.68587 0
M  V30 3385 H 325.376 4.97767 -5.03621 0
M  V30 3386 H 325.784 4.54381 -3.34959 0
M  V30 3387 N 325.182 1.32811 0.848464 0
M  V30 3388 C 326.41 1.26739 1.63538 0
M  V30 3389 C 326.825 -0.163484 1.88091 0
M  V30 3390 O 326.182 -1.10258 1.45429 0
M  V30 3391 C 326.233 2.03013 2.99112 0
M  V30 3392 O 325.954 3.40518 2.75643 0
M  V30 3393 C 327.455 2.04038 3.93552 0
M  V30 3394 H 324.675 0.437024 0.509167 0
M  V30 3395 H 327.219 1.75033 1.05753 0
M  V30 3396 H 325.374 1.58426 3.53525 0
M  V30 3397 H 325.788 3.79635 3.61908 0
M  V30 3398 H 327.262 2.61877 4.85926 0
M  V30 3399 H 327.739 1.0282 4.26995 0
M  V30 3400 H 328.345 2.486 3.45077 0
M  V30 3401 N 326.66 -1.06551 1.16123 0
M  V30 3402 C 327.57 -2.17484 0.879662 0
M  V30 3403 C 328.586 -1.73377 -0.147104 0
M  V30 3404 O 329.762 -2.01379 0.0289128 0
M  V30 3405 C 326.827 -3.44591 0.381829 0
M  V30 3406 C 325.888 -4.0322 1.4735 0
M  V30 3407 C 325.121 -5.24261 0.999324 0
M  V30 3408 O 325.344 -5.70198 -0.151957 0
M  V30 3409 O 324.278 -5.74775 1.78653 0
M  V30 3410 H 328.104 -2.44075 1.80724 0
M  V30 3411 H 325.689 -1.16042 0.940992 0
M  V30 3412 H 327.571 -4.21254 0.111053 0
M  V30 3413 H 326.246 -3.19532 -0.51777 0
M  V30 3414 H 325.153 -3.2806 1.79798 0
M  V30 3415 H 326.486 -4.32568 2.34831 0
M  V30 3416 N 328.138 -0.959301 -1.25041 0
M  V30 3417 C 329.387 -0.612254 -1.92183 0
M  V30 3418 C 329.7 0.855347 -1.75907 0
M  V30 3419 O 330.906 1.31256 -2.37664 0
M  V30 3420 C 329.362 -1.04435 -3.44414 0
M  V30 3421 C 328.97 -2.53482 -3.69393 0
M  V30 3422 C 330.714 -0.770055 -4.17457 0
M  V30 3423 C 328.621 -2.90468 -5.15153 0
M  V30 3424 H 327.551 -0.225279 -0.719559 0
M  V30 3425 H 330.202 -1.16438 -1.41825 0
M  V30 3426 H 328.584 -0.4206 -3.9376 0
M  V30 3427 H 329.758 -3.20916 -3.30681 0
M  V30 3428 H 328.073 -2.78432 -3.0962 0
M  V30 3429 H 330.67 -1.02249 -5.24832 0
M  V30 3430 H 331.013 0.293611 -4.15263 0
M  V30 3431 H 331.546 -1.35437 -3.74034 0
M  V30 3432 H 328.285 -3.95871 -5.22462 0
M  V30 3433 H 327.805 -2.27711 -5.54894 0
M  V30 3434 H 329.484 -2.79914 -5.83315 0
M  V30 3435 N 329.616 1.39756 -0.72842 0
M  V30 3436 C 330.893 1.94574 -0.200079 0
M  V30 3437 C 331.273 1.66569 1.29684 0
M  V30 3438 O 330.621 0.990326 2.05924 0
M  V30 3439 C 330.831 3.45004 -0.526608 0
M  V30 3440 C 332.179 4.21965 -0.472318 0
M  V30 3441 O 333.203 3.53173 -0.463413 0
M  V30 3442 O 332.062 5.44552 -0.461075 0
M  V30 3443 H 329.156 0.826289 -0.0342851 0
M  V30 3444 H 331.702 1.49293 -0.806829 0
M  V30 3445 H 330.474 3.58796 -1.56144 0
M  V30 3446 H 330.097 3.97449 0.109449 0
M  V30 3447 N 331.094 0.475555 1.50254 0
M  V30 3448 C 332.51 0.12997 1.5907 0
M  V30 3449 C 332.71 -1.36385 1.48328 0
M  V30 3450 O 331.766 -2.13754 1.34407 0
M  V30 3451 C 333.079 0.684139 2.92814 0
M  V30 3452 C 334.627 0.647965 3.0622 0
M  V30 3453 C 335.102 1.17975 4.42545 0
M  V30 3454 N 336.593 1.13936 4.48969 0
M  V30 3455 C 337.328 1.52129 5.52851 0
M  V30 3456 N 336.824 1.97793 6.63965 0
M  V30 3457 N 338.617 1.43704 5.4342 0
M  V30 3458 H 330.768 1.44706 1.55479 0
M  V30 3459 H 333.031 0.598691 0.735033 0
M  V30 3460 H 332.737 1.73079 3.06164 0
M  V30 3461 H 332.611 0.130204 3.76975 0
M  V30 3462 H 334.998 -0.38979 2.92514 0
M  V30 3463 H 335.079 1.23876 2.23805 0
M  V30 3464 H 334.723 2.21616 4.57 0
M  V30 3465 H 334.653 0.565138 5.23559 0
M  V30 3466 H 337.144 0.804488 3.69238 0
M  V30 3467 H 337.457 2.25072 7.39299 0
M  V30 3468 H 335.802 2.01749 6.65073 0
M  V30 3469 H 338.993 1.07867 4.55502 0
M  V30 3470 H 339.166 1.73794 6.24259 0
M  V30 3471 N 332.573 -1.56217 0.208337 0
M  V30 3472 C 333.822 -1.97124 -0.427204 0
M  V30 3473 C 334.135 -1.09859 -1.61835 0
M  V30 3474 O 335.341 -1.40606 -2.32255 0
M  V30 3475 C 333.797 -3.50633 -0.811442 0
M  V30 3476 C 333.405 -4.46582 0.35615 0
M  V30 3477 C 335.149 -4.00282 -1.41332 0
M  V30 3478 C 333.056 -5.91379 -0.0497852 0
M  V30 3479 H 331.986 -0.736086 -0.163381 0
M  V30 3480 H 334.637 -1.8099 0.302456 0
M  V30 3481 H 333.019 -3.62319 -1.59815 0
M  V30 3482 H 334.193 -4.46636 1.1337 0
M  V30 3483 H 332.508 -4.07202 0.870396 0
M  V30 3484 H 335.105 -5.0595 -1.72972 0
M  V30 3485 H 335.448 -3.45359 -2.32449 0
M  V30 3486 H 335.981 -3.91764 -0.690323 0
M  V30 3487 H 332.72 -6.50255 0.827529 0
M  V30 3488 H 332.24 -5.94549 -0.791926 0
M  V30 3489 H 333.919 -6.45209 -0.481042 0
M  V30 3490 N 334.051 0.0651679 -1.57465 0
M  V30 3491 C 335.014 1.06117 -2.03155 0
M  V30 3492 C 336.014 1.31204 -0.929632 0
M  V30 3493 O 337.204 1.26813 -1.19432 0
M  V30 3494 C 334.336 2.4032 -2.41783 0
M  V30 3495 H 335.529 0.667231 -2.92383 0
M  V30 3496 H 333.082 0.311075 -1.53173 0
M  V30 3497 H 333.817 2.84532 -1.55601 0
M  V30 3498 H 333.602 2.23451 -3.22199 0
M  V30 3499 H 335.092 3.11898 -2.77685 0
M  V30 3500 N 335.529 1.53961 0.336706 0
M  V30 3501 C 336.461 1.78751 1.4346 0
M  V30 3502 C 337.474 0.669019 1.48418 0
M  V30 3503 O 338.663 0.945884 1.51378 0
M  V30 3504 C 335.763 1.87844 2.82078 0
M  V30 3505 C 334.936 3.17854 3.00479 0
M  V30 3506 C 333.995 3.17816 4.19379 0
M  V30 3507 O 333.021 3.91511 4.13168 0
M  V30 3508 N 334.223 2.40669 5.2826 0
M  V30 3509 H 336.988 2.73493 1.22563 0
M  V30 3510 H 334.549 1.53096 0.526625 0
M  V30 3511 H 336.541 1.85261 3.59806 0
M  V30 3512 H 335.111 1.00257 2.96086 0
M  V30 3513 H 334.331 3.33504 2.10163 0
M  V30 3514 H 335.619 4.03718 3.0966 0
M  V30 3515 H 335.017 1.8036 5.36178 0
M  V30 3516 H 333.574 2.43877 6.04456 0
M  V30 3517 N 337.007 -0.598083 1.45811 0
M  V30 3518 C 337.955 -1.72932 1.55555 0
M  V30 3519 C 338.949 -1.63984 0.424921 0
M  V30 3520 O 340.155 -1.69663 0.601205 0
M  V30 3521 H 336.53 -0.571489 0.488779 0
M  V30 3522 H 338.501 -1.61842 2.50699 0
M  V30 3523 C 337.25 -3.11318 1.54843 0
M  V30 3524 H 336.573 -3.18867 2.41172 0
M  V30 3525 H 338.013 -3.90274 1.65717 0
M  V30 3526 C 336.472 -3.3578 0.274427 0
M  V30 3527 O 337.002 -3.9654 -0.641778 0
M  V30 3528 N 335.208 -2.90119 0.167139 0
M  V30 3529 H 334.755 -2.40855 0.913596 0
M  V30 3530 H 334.713 -3.0686 -0.684435 0
M  V30 3531 N 338.485 -1.33259 -0.841409 0
M  V30 3532 C 339.734 -1.23921 -1.59143 0
M  V30 3533 C 340.047 0.1941 -1.94635 0
M  V30 3534 O 341.253 0.409474 -2.68394 0
M  V30 3535 C 339.709 -2.17119 -2.87032 0
M  V30 3536 C 339.317 -3.65606 -2.58914 0
M  V30 3537 C 341.061 -2.16648 -3.65053 0
M  V30 3538 C 338.968 -4.50726 -3.82884 0
M  V30 3539 H 337.898 -0.460264 -0.597221 0
M  V30 3540 H 340.549 -1.58307 -0.927959 0
M  V30 3541 H 338.931 -1.75663 -3.54906 0
M  V30 3542 H 340.105 -4.15487 -1.99267 0
M  V30 3543 H 338.42 -3.68341 -1.942 0
M  V30 3544 H 341.017 -2.77474 -4.57069 0
M  V30 3545 H 341.36 -1.16088 -3.99787 0
M  V30 3546 H 341.893 -2.56453 -3.041 0
M  V30 3547 H 338.632 -5.52151 -3.53283 0
M  V30 3548 H 338.152 -4.0559 -4.41879 0
M  V30 3549 H 339.831 -4.64401 -4.50489 0
M  V30 3550 N 339.963 1.05934 -1.16686 0
M  V30 3551 C 341.212 1.78188 -0.945085 0
M  V30 3552 C 341.525 1.88338 0.528021 0
M  V30 3553 O 342.731 2.57258 0.867799 0
M  V30 3554 C 341.187 3.20277 -1.64167 0
M  V30 3555 C 340.795 3.18281 -3.15279 0
M  V30 3556 C 342.539 3.97039 -1.502 0
M  V30 3557 C 340.446 4.55112 -3.7766 0
M  V30 3558 H 339.376 0.667866 -0.349959 0
M  V30 3559 H 342.027 1.18794 -1.39858 0
M  V30 3560 H 340.409 3.79952 -1.11589 0
M  V30 3561 H 341.583 2.68167 -3.74731 0
M  V30 3562 H 339.898 2.55018 -3.29173 0
M  V30 3563 H 342.495 4.98194 -1.94183 0
M  V30 3564 H 342.838 4.13845 -0.451461 0
M  V30 3565 H 343.371 3.43894 -1.99954 0
M  V30 3566 H 340.11 4.43512 -4.82677 0
M  V30 3567 H 339.63 5.05406 -3.22994 0
M  V30 3568 H 341.309 5.24064 -3.79428 0
M  V30 3569 N 341.441 0.965919 1.2453 0
M  V30 3570 C 342.388 0.49402 2.25451 0
M  V30 3571 C 343.358 -0.45948 1.59618 0
M  V30 3572 O 344.543 -0.370238 1.87173 0
M  V30 3573 C 341.683 -0.211359 3.44452 0
M  V30 3574 C 340.796 0.7807 4.24887 0
M  V30 3575 C 339.931 0.0516105 5.31175 0
M  V30 3576 C 338.97 1.03385 6.03306 0
M  V30 3577 N 338.107 0.334887 7.01301 0
M  V30 3578 H 342.947 1.35946 2.65184 0
M  V30 3579 H 340.484 0.681515 1.3036 0
M  V30 3580 H 342.442 -0.637 4.12308 0
M  V30 3581 H 341.072 -1.04077 3.05562 0
M  V30 3582 H 340.124 1.32479 3.56586 0
M  V30 3583 H 341.436 1.52978 4.74762 0
M  V30 3584 H 340.59 -0.432114 6.05159 0
M  V30 3585 H 339.329 -0.730179 4.82203 0
M  V30 3586 H 338.334 1.52847 5.28127 0
M  V30 3587 H 339.559 1.81606 6.54367 0
M  V30 3588 H 337.505 -0.427959 6.54603 0
M  V30 3589 H 337.422 1.02287 7.49048 0
M  V30 3590 H 338.69 -0.126928 7.79397 0
M  V30 3591 N 342.919 -1.39368 0.735821 0
M  V30 3592 C 344.144 -2.05319 0.293052 0
M  V30 3593 C 344.569 -1.55115 -1.064 0
M  V30 3594 O 343.927 -0.695261 -1.67439 0
M  V30 3595 C 343.975 -3.59305 0.305323 0
M  V30 3596 O 343.079 -4.06299 -0.706761 0
M  V30 3597 H 342.42 -0.650529 0.13307 0
M  V30 3598 H 344.95 -1.78386 1.00197 0
M  V30 3599 H 344.96 -4.07724 0.149997 0
M  V30 3600 H 343.635 -3.95207 1.29553 0
M  V30 3601 H 342.212 -3.69292 -0.517504 0
M  V30 3602 N 344.397 -0.483516 -1.5 0
M  V30 3603 C 345.347 0.32306 -2.257 0
M  V30 3604 C 346.331 0.950755 -1.29805 0
M  V30 3605 O 347.523 0.861247 -1.54634 0
M  V30 3606 C 344.652 1.39724 -3.13579 0
M  V30 3607 C 343.738 0.776663 -4.16928 0
M  V30 3608 N 344.129 -0.1104 -5.0568 0
M  V30 3609 C 342.427 1.03922 -4.33724 0
M  V30 3610 C 343.128 -0.46387 -5.79848 0
M  V30 3611 N 342.104 0.163987 -5.43353 0
M  V30 3612 H 345.906 -0.360086 -2.91686 0
M  V30 3613 H 343.42 -0.298456 -1.59634 0
M  V30 3614 H 345.417 1.98837 -3.66428 0
M  V30 3615 H 344.077 2.08225 -2.49143 0
M  V30 3616 H 345.088 -0.480069 -5.1567 0
M  V30 3617 H 341.765 1.71829 -3.80501 0
M  V30 3618 H 343.155 -1.18854 -6.61304 0
M  V30 3619 N 345.875 1.56104 -0.216619 0
M  V30 3620 C 346.805 2.23063 0.690296 0
M  V30 3621 C 347.786 1.20072 1.20485 0
M  V30 3622 O 348.971 1.48643 1.24976 0
M  V30 3623 C 346.101 2.90672 1.90072 0
M  V30 3624 C 345.055 4.00092 1.5202 0
M  V30 3625 C 344.381 4.54972 2.80899 0
M  V30 3626 C 345.681 5.17398 0.71391 0
M  V30 3627 H 347.375 2.99109 0.132038 0
M  V30 3628 H 344.921 1.43866 0.0620664 0
M  V30 3629 H 346.874 3.36204 2.54057 0
M  V30 3630 H 345.598 2.12066 2.48386 0
M  V30 3631 H 344.257 3.55283 0.903839 0
M  V30 3632 H 343.905 3.73102 3.37348 0
M  V30 3633 H 343.605 5.28817 2.56176 0
M  V30 3634 H 345.129 5.0322 3.45836 0
M  V30 3635 H 346.543 5.59342 1.25735 0
M  V30 3636 H 344.94 5.97444 0.563951 0
M  V30 3637 H 346.01 4.84088 -0.280527 0
M  V30 3638 N 347.353 -0.0568162 1.57498 0
M  V30 3639 C 348.263 -1.08346 2.08083 0
M  V30 3640 C 349.279 -1.41439 1.01346 0
M  V30 3641 O 350.455 -1.51316 1.32912 0
M  V30 3642 C 347.52 -2.37352 2.52715 0
M  V30 3643 C 346.581 -2.11093 3.73816 0
M  V30 3644 C 345.814 -3.33949 4.1631 0
M  V30 3645 O 346.037 -4.43622 3.58547 0
M  V30 3646 O 344.971 -3.21279 5.08983 0
M  V30 3647 H 348.797 -0.683667 2.95905 0
M  V30 3648 H 346.382 -0.271965 1.46904 0
M  V30 3649 H 348.264 -3.13246 2.81877 0
M  V30 3650 H 346.939 -2.76681 1.68016 0
M  V30 3651 H 345.846 -1.32856 3.49714 0
M  V30 3652 H 347.179 -1.76637 4.59413 0
M  V30 3653 N 348.832 -1.54138 -0.328536 0
M  V30 3654 C 350.06 -1.76062 -1.08673 0
M  V30 3655 C 350.475 -0.506852 -1.81869 0
M  V30 3656 O 349.832 0.522223 -1.74869 0
M  V30 3657 C 349.883 -2.95054 -2.08866 0
M  V30 3658 O 349.604 -4.15583 -1.38644 0
M  V30 3659 C 351.105 -3.2915 -2.96943 0
M  V30 3660 H 348.325 -0.587889 -0.323461 0
M  V30 3661 H 350.869 -2.0101 -0.376175 0
M  V30 3662 H 349.024 -2.72394 -2.75464 0
M  V30 3663 H 349.438 -4.82481 -2.05699 0
M  V30 3664 H 350.912 -4.15723 -3.63151 0
M  V30 3665 H 351.389 -2.461 -3.63774 0
M  V30 3666 H 351.995 -3.53871 -2.35914 0
M  V30 3667 N 350.31 0.590341 -1.46126 0
M  V30 3668 C 351.55 1.35995 -1.52593 0
M  V30 3669 C 351.914 1.91243 -0.170368 0
M  V30 3670 O 353.115 2.68576 -0.109775 0
M  V30 3671 C 351.386 2.46465 -2.58823 0
M  V30 3672 S 352.945 3.33953 -2.84641 0
M  V30 3673 H 349.763 0.463425 -0.53922 0
M  V30 3674 H 352.365 0.67944 -1.83314 0
M  V30 3675 H 351.069 2.04256 -3.5596 0
M  V30 3676 H 350.6 3.19297 -2.2981 0
M  V30 3677 H 352.615 4.45094 -2.19331 0
M  V30 3678 N 351.788 1.33704 0.83433 0
M  V30 3679 C 352.72 1.20172 1.9517 0
M  V30 3680 C 353.733 0.131572 1.62267 0
M  V30 3681 O 354.922 0.382406 1.74356 0
M  V30 3682 C 352.022 0.821716 3.28787 0
M  V30 3683 C 351.195 1.98446 3.89792 0
M  V30 3684 C 350.254 1.58469 5.01771 0
M  V30 3685 O 349.28 2.29968 5.20676 0
M  V30 3686 N 350.482 0.492291 5.78409 0
M  V30 3687 H 353.247 2.16429 2.07313 0
M  V30 3688 H 350.808 1.26509 1.0103 0
M  V30 3689 H 352.8 0.536291 4.01131 0
M  V30 3690 H 351.37 -0.0503058 3.1256 0
M  V30 3691 H 350.59 2.43526 3.09982 0
M  V30 3692 H 351.878 2.76236 4.27283 0
M  V30 3693 H 351.276 -0.102349 5.65607 0
M  V30 3694 H 349.833 0.266555 6.51255 0
M  V30 3695 N 353.266 -1.05314 1.17247 0
M  V30 3696 C 354.496 -1.81707 0.983166 0
M  V30 3697 C 354.904 -1.83222 -0.471822 0
M  V30 3698 O 354.247 -1.25721 -1.3394 0
M  V30 3699 C 354.309 -3.29134 1.44606 0
M  V30 3700 C 353.973 -3.51304 2.92292 0
M  V30 3701 C 354.97 -3.4353 3.90235 0
M  V30 3702 C 352.655 -3.78306 3.30439 0
M  V30 3703 C 354.649 -3.62442 5.24323 0
M  V30 3704 C 352.336 -3.96866 4.64694 0
M  V30 3705 C 353.334 -3.88933 5.61445 0
M  V30 3706 O 353.022 -4.06976 6.93272 0
M  V30 3707 H 352.754 -0.579476 0.348114 0
M  V30 3708 H 355.308 -1.33705 1.55924 0
M  V30 3709 H 353.538 -3.78046 0.813537 0
M  V30 3710 H 355.227 -3.87049 1.22262 0
M  V30 3711 H 355.993 -3.22648 3.62109 0
M  V30 3712 H 351.872 -3.83585 2.55702 0
M  V30 3713 H 355.416 -3.56165 5.99827 0
M  V30 3714 H 351.313 -4.1724 4.92525 0
M  V30 3715 H 352.081 -4.24209 6.99992 0
M  V30 3716 N 354.744 -0.972509 -1.24016 0
M  V30 3717 C 355.972 -0.654803 -1.96265 0
M  V30 3718 C 356.387 0.776708 -1.72083 0
M  V30 3719 O 355.744 1.52171 -1.00748 0
M  V30 3720 C 355.795 -0.92592 -3.49441 0
M  V30 3721 O 355.516 -2.30116 -3.72798 0
M  V30 3722 C 357.017 -0.623068 -4.38899 0
M  V30 3723 H 354.237 -0.243907 -0.6251 0
M  V30 3724 H 356.781 -1.30175 -1.57717 0
M  V30 3725 H 354.936 -0.325108 -3.86033 0
M  V30 3726 H 355.35 -2.38483 -4.67147 0
M  V30 3727 H 356.824 -0.863189 -5.45209 0
M  V30 3728 H 357.301 0.442754 -4.36963 0
M  V30 3729 H 357.907 -1.204 -4.07902 0
M  V30 3730 N 356.222 1.38976 -0.743202 0
M  V30 3731 C 357.155 2.28128 -0.0572165 0
M  V30 3732 C 358.133 1.44827 0.739182 0
M  V30 3733 O 359.317 1.74207 0.720009 0
M  V30 3734 C 356.444 3.25796 0.926001 0
M  V30 3735 C 355.49 4.25947 0.217099 0
M  V30 3736 S 356.323 5.24604 -1.07477 0
M  V30 3737 C 357.479 6.25829 -0.0943545 0
M  V30 3738 H 357.712 2.85961 -0.813246 0
M  V30 3739 H 355.245 1.44822 -0.535341 0
M  V30 3740 H 357.203 3.82583 1.48797 0
M  V30 3741 H 355.864 2.66966 1.65493 0
M  V30 3742 H 355.057 4.94746 0.961372 0
M  V30 3743 H 354.659 3.73002 -0.273059 0
M  V30 3744 H 356.951 6.73411 0.743239 0
M  V30 3745 H 357.894 7.0412 -0.749713 0
M  V30 3746 H 358.302 5.63797 0.281706 0
M  V30 3747 N 357.7 0.491464 1.49741 0
M  V30 3748 C 358.61 -0.296835 2.32715 0
M  V30 3749 C 359.626 -0.976536 1.44013 0
M  V30 3750 O 360.802 -0.960023 1.77047 0
M  V30 3751 C 357.867 -1.35288 3.19215 0
M  V30 3752 C 356.928 -0.687632 4.23757 0
M  V30 3753 C 356.161 -1.69336 5.06123 0
M  V30 3754 O 356.384 -2.92219 4.89861 0
M  V30 3755 O 355.318 -1.25394 5.88693 0
M  V30 3756 H 359.144 0.382048 3.01287 0
M  V30 3757 H 356.729 0.252953 1.47243 0
M  V30 3758 H 358.611 -1.96411 3.72828 0
M  V30 3759 H 357.286 -2.01487 2.53347 0
M  V30 3760 H 356.193 -0.0369159 3.74082 0
M  V30 3761 H 357.526 -0.0682566 4.92153 0
M  V30 3762 N 359.178 -1.55987 0.224894 0
M  V30 3763 C 360.088 -2.24066 -0.69511 0
M  V30 3764 C 361.104 -1.24939 -1.21104 0
M  V30 3765 O 362.28 -1.5776 -1.25195 0
M  V30 3766 C 359.345 -2.90983 -1.88493 0
M  V30 3767 C 358.406 -4.05462 -1.41064 0
M  V30 3768 C 357.639 -4.69179 -2.54375 0
M  V30 3769 O 357.862 -4.31895 -3.72589 0
M  V30 3770 O 356.796 -5.58108 -2.25386 0
M  V30 3771 H 360.622 -3.03353 -0.145149 0
M  V30 3772 H 358.207 -1.49399 -0.00569476 0
M  V30 3773 H 360.089 -3.33209 -2.57972 0
M  V30 3774 H 358.764 -2.14653 -2.42293 0
M  V30 3775 H 357.671 -3.67798 -0.683774 0
M  V30 3776 H 359.004 -4.83545 -0.918985 0
M  V30 3777 N 360.656 0.0484629 -1.57525 0
M  V30 3778 C 361.586 1.0549 -2.08313 0
M  V30 3779 C 362.567 1.38929 -0.981463 0
M  V30 3780 O 363.752 1.48151 -1.25558 0
M  V30 3781 C 360.882 2.36162 -2.54646 0
M  V30 3782 C 359.836 2.17016 -3.68901 0
M  V30 3783 C 359.162 3.53278 -4.01371 0
M  V30 3784 C 360.462 1.57219 -4.98076 0
M  V30 3785 H 362.156 0.632195 -2.92649 0
M  V30 3786 H 359.702 0.302654 -1.40784 0
M  V30 3787 H 361.655 3.06882 -2.88793 0
M  V30 3788 H 360.379 2.80456 -1.67368 0
M  V30 3789 H 359.038 1.48733 -3.35073 0
M  V30 3790 H 358.686 3.95185 -3.11188 0
M  V30 3791 H 358.386 3.41299 -4.78318 0
M  V30 3792 H 359.91 4.25391 -4.38035 0
M  V30 3793 H 361.324 2.17832 -5.30304 0
M  V30 3794 H 359.721 1.55871 -5.79503 0
M  V30 3795 H 360.791 0.535956 -4.81929 0
M  V30 3796 N 362.134 1.5431 0.320358 0
M  V30 3797 C 363.084 1.803 1.39556 0
M  V30 3798 C 364.068 0.659166 1.46778 0
M  V30 3799 O 365.26 0.91926 1.51257 0
M  V30 3800 C 362.389 2.03665 2.76361 0
M  V30 3801 C 361.475 3.24178 2.73439 0
M  V30 3802 N 361.866 4.4516 2.40137 0
M  V30 3803 C 360.164 3.25816 3.04565 0
M  V30 3804 C 360.865 5.27109 2.4603 0
M  V30 3805 N 359.841 4.64368 2.82601 0
M  V30 3806 H 363.643 2.71416 1.12742 0
M  V30 3807 H 361.157 1.53548 0.528856 0
M  V30 3808 H 363.154 2.20425 3.53862 0
M  V30 3809 H 361.814 1.13805 3.04103 0
M  V30 3810 H 362.825 4.72104 2.12927 0
M  V30 3811 H 359.502 2.46001 3.37328 0
M  V30 3812 H 360.892 6.33728 2.23246 0
M  V30 3813 N 363.613 -0.582584 1.46437 0
M  V30 3814 C 364.545 -1.70618 1.53043 0
M  V30 3815 C 365.558 -1.57322 0.418769 0
M  V30 3816 O 366.747 -1.64744 0.687136 0
M  V30 3817 C 363.847 -3.08869 1.39474 0
M  V30 3818 C 363.02 -3.48166 2.64762 0
M  V30 3819 C 362.079 -4.65478 2.4539 0
M  V30 3820 O 361.105 -4.71333 3.19114 0
M  V30 3821 N 362.307 -5.60365 1.51564 0
M  V30 3822 H 365.072 -1.65405 2.49923 0
M  V30 3823 H 362.633 -0.768567 1.42494 0
M  V30 3824 H 364.625 -3.85143 1.24287 0
M  V30 3825 H 363.195 -3.08449 0.507758 0
M  V30 3826 H 362.415 -2.61598 2.9489 0
M  V30 3827 H 363.703 -3.71188 3.4799 0
M  V30 3828 H 363.101 -5.5837 0.907705 0
M  V30 3829 H 361.658 -6.36068 1.4234 0
M  V30 3830 N 365.091 -1.34144 -0.827227 0
M  V30 3831 C 366.021 -1.28005 -1.95287 0
M  V30 3832 C 367.002 -0.158321 -1.69362 0
M  V30 3833 O 368.187 -0.349987 -1.9102 0
M  V30 3834 C 365.317 -1.03036 -3.31664 0
M  V30 3835 C 364.271 -2.11628 -3.72019 0
M  V30 3836 C 363.597 -1.71854 -5.0633 0
M  V30 3837 C 364.897 -3.53417 -3.8457 0
M  V30 3838 H 366.591 -2.22187 -2.00682 0
M  V30 3839 H 364.137 -1.0696 -0.964135 0
M  V30 3840 H 366.09 -0.973863 -4.09993 0
M  V30 3841 H 364.814 -0.0529391 -3.26557 0
M  V30 3842 H 363.473 -2.16339 -2.95961 0
M  V30 3843 H 363.121 -0.727841 -4.97706 0
M  V30 3844 H 362.821 -2.44531 -5.34302 0
M  V30 3845 H 364.345 -1.67692 -5.87122 0
M  V30 3846 H 365.759 -3.51142 -4.5318 0
M  V30 3847 H 364.156 -4.24679 -4.2399 0
M  V30 3848 H 365.226 -3.91072 -2.86689 0
M  V30 3849 N 366.569 1.04691 -1.17803 0
M  V30 3850 C 367.532 2.10724 -0.901545 0
M  V30 3851 C 368.532 1.6042 0.110437 0
M  V30 3852 O 369.722 1.7377 -0.122303 0
M  V30 3853 C 366.854 3.39084 -0.351409 0
M  V30 3854 H 368.047 2.36686 -1.84174 0
M  V30 3855 H 365.6 1.21015 -0.98919 0
M  V30 3856 H 366.335 3.18782 0.59569 0
M  V30 3857 H 366.12 3.76909 -1.08083 0
M  V30 3858 H 367.61 4.17227 -0.176451 0
M  V30 3859 N 368.047 0.979072 1.23499 0
M  V30 3860 C 369.293 0.6578 1.9247 0
M  V30 3861 C 369.648 -0.799746 1.74991 0
M  V30 3862 O 368.941 -1.56922 1.09937 0
M  V30 3863 C 369.135 0.981932 3.43646 0
M  V30 3864 C 368.964 2.46944 3.75831 0
M  V30 3865 C 367.734 3.13119 3.96591 0
M  V30 3866 C 369.932 3.45006 3.81412 0
M  V30 3867 N 367.914 4.51489 4.15969 0
M  V30 3868 C 369.285 4.68778 4.05768 0
M  V30 3869 C 371.34 3.39505 3.64198 0
M  V30 3870 C 370.043 5.87723 4.14697 0
M  V30 3871 C 372.069 4.57814 3.7438 0
M  V30 3872 C 371.431 5.80381 3.99171 0
M  V30 3873 H 367.53 0.291746 0.72554 0
M  V30 3874 H 370.114 1.25626 1.48749 0
M  V30 3875 H 368.285 0.412179 3.86207 0
M  V30 3876 H 370.017 0.618068 3.99953 0
M  V30 3877 H 366.772 2.63619 3.93449 0
M  V30 3878 H 367.196 5.23221 4.29615 0
M  V30 3879 H 371.838 2.45773 3.44029 0
M  V30 3880 H 369.556 6.81874 4.33675 0
M  V30 3881 H 373.142 4.55132 3.62417 0
M  V30 3882 H 372.022 6.70398 4.06861 0
M  V30 3883 N 369.525 -1.3858 0.750561 0
M  V30 3884 C 370.457 -2.29057 0.0810714 0
M  V30 3885 C 371.47 -1.47596 -0.686973 0
M  V30 3886 O 372.659 -1.70495 -0.528563 0
M  V30 3887 C 369.759 -3.26475 -0.909247 0
M  V30 3888 C 368.932 -4.36945 -0.199478 0
M  V30 3889 C 367.991 -5.14572 -1.10011 0
M  V30 3890 O 367.017 -5.66321 -0.57177 0
M  V30 3891 N 368.219 -5.27262 -2.42849 0
M  V30 3892 H 370.984 -2.87153 0.858087 0
M  V30 3893 H 368.545 -1.50328 0.60109 0
M  V30 3894 H 370.537 -3.75285 -1.51471 0
M  V30 3895 H 369.107 -2.69298 -1.58736 0
M  V30 3896 H 368.327 -3.8981 0.586664 0
M  V30 3897 H 369.615 -5.07963 0.291783 0
M  V30 3898 H 369.013 -4.86763 -2.88233 0
M  V30 3899 H 367.57 -5.79456 -2.98453 0
M  V30 3900 N 371.003 -0.499398 -1.49478 0
M  V30 3901 C 372.231 0.0425456 -2.06856 0
M  V30 3902 C 372.646 1.30964 -1.35992 0
M  V30 3903 O 372.003 1.77172 -0.437762 0
M  V30 3904 C 372.054 0.301735 -3.60239 0
M  V30 3905 O 371.775 -0.915127 -4.28436 0
M  V30 3906 C 373.276 0.887499 -4.34325 0
M  V30 3907 H 370.496 -0.0197482 -0.670709 0
M  V30 3908 H 373.04 -0.696297 -1.92281 0
M  V30 3909 H 371.195 0.990556 -3.74522 0
M  V30 3910 H 371.609 -0.676993 -5.20113 0
M  V30 3911 H 373.083 1.01845 -5.42523 0
M  V30 3912 H 373.56 1.88488 -3.96698 0
M  V30 3913 H 374.166 0.236196 -4.24644 0
M  V30 3914 N 372.481 1.55866 -0.233164 0
M  V30 3915 C 373.431 2.17442 0.685774 0
M  V30 3916 C 374.415 1.12617 1.14918 0
M  V30 3917 O 375.607 1.3857 1.10124 0
M  V30 3918 C 372.736 2.86685 1.88856 0
M  V30 3919 C 371.822 3.98749 1.4443 0
M  V30 3920 N 372.213 5.00744 0.713364 0
M  V30 3921 C 370.511 4.11052 1.73068 0
M  V30 3922 C 371.212 5.79673 0.485205 0
M  V30 3923 N 370.188 5.33454 1.04536 0
M  V30 3924 H 373.99 2.93659 0.119022 0
M  V30 3925 H 371.504 1.62362 -0.0348995 0
M  V30 3926 H 373.501 3.29218 2.55776 0
M  V30 3927 H 372.161 2.11967 2.45967 0
M  V30 3928 H 373.172 5.16613 0.364861 0
M  V30 3929 H 369.849 3.47495 2.31416 0
M  V30 3930 H 371.239 6.71829 -0.097365 0
M  V30 3931 N 373.959 -0.0401083 1.57549 0
M  V30 3932 C 375.187 -0.745196 1.93014 0
M  V30 3933 C 375.602 -1.6948 0.831984 0
M  V30 3934 O 374.959 -1.81482 -0.192463 0
M  V30 3935 C 375.01 -1.51176 3.28372 0
M  V30 3936 O 374.731 -0.600284 4.33968 0
M  V30 3937 C 376.232 -2.315 3.78051 0
M  V30 3938 H 373.452 -0.210088 0.637263 0
M  V30 3939 H 375.996 -0.000924689 2.045 0
M  V30 3940 H 374.151 -2.20801 3.18317 0
M  V30 3941 H 374.565 -1.13669 5.12035 0
M  V30 3942 H 376.039 -2.80697 4.75303 0
M  V30 3943 H 376.516 -3.12436 3.08675 0
M  V30 3944 H 377.122 -1.66971 3.91153 0
M  V30 3945 N 375.437 -1.54477 -0.31217 0
M  V30 3946 C 376.667 -1.76948 -1.06645 0
M  V30 3947 C 377.075 -0.523593 -1.81811 0
M  V30 3948 O 376.418 0.51578 -1.76311 0
M  V30 3949 C 376.48 -2.91668 -2.10166 0
M  V30 3950 C 376.144 -4.30165 -1.54296 0
M  V30 3951 C 377.141 -5.10603 -0.978793 0
M  V30 3952 C 374.826 -4.76738 -1.58196 0
M  V30 3953 C 376.82 -6.3573 -0.461048 0
M  V30 3954 C 374.507 -6.01831 -1.06034 0
M  V30 3955 C 375.505 -6.81161 -0.500844 0
M  V30 3956 O 375.193 -8.03899 0.0128958 0
M  V30 3957 H 374.925 -0.594088 -0.322546 0
M  V30 3958 H 377.479 -2.02213 -0.360441 0
M  V30 3959 H 375.709 -2.62001 -2.84416 0
M  V30 3960 H 377.398 -3.01817 -2.71406 0
M  V30 3961 H 378.164 -4.75771 -0.941651 0
M  V30 3962 H 374.043 -4.15027 -2.00683 0
M  V30 3963 H 377.587 -6.97596 -0.0236894 0
M  V30 3964 H 373.484 -6.36152 -1.09459 0
M  V30 3965 H 374.252 -8.18437 -0.101457 0
M  V30 3966 N 376.915 0.57481 -1.46744 0
M  V30 3967 C 377.825 1.711 -1.60505 0
M  V30 3968 C 378.841 1.67008 -0.488307 0
M  V30 3969 O 380.017 1.86774 -0.753495 0
M  V30 3970 C 377.082 3.07608 -1.59932 0
M  V30 3971 C 376.143 3.22904 -2.82898 0
M  V30 3972 C 375.376 4.529 -2.82343 0
M  V30 3973 O 375.599 5.37278 -1.91542 0
M  V30 3974 O 374.533 4.71611 -3.73987 0
M  V30 3975 H 378.359 1.62436 -2.56609 0
M  V30 3976 H 375.944 0.742779 -1.29627 0
M  V30 3977 H 377.826 3.88877 -1.62336 0
M  V30 3978 H 376.501 3.16692 -0.669898 0
M  V30 3979 H 375.408 2.41099 -2.86046 0
M  V30 3980 H 376.741 3.18715 -3.75076 0
M  V30 3981 N 378.394 1.34581 0.820102 0
M  V30 3982 C 379.304 1.28471 1.96297 0
M  V30 3983 C 380.32 0.191902 1.72939 0
M  V30 3984 O 381.496 0.418879 1.96996 0
M  V30 3985 C 378.561 1.04281 3.30645 0
M  V30 3986 C 377.622 2.22745 3.66992 0
M  V30 3987 C 376.855 1.997 4.9493 0
M  V30 3988 O 377.078 0.956656 5.6232 0
M  V30 3989 O 376.012 2.86723 5.2922 0
M  V30 3990 H 379.838 2.24624 2.04396 0
M  V30 3991 H 377.423 1.14816 0.955913 0
M  V30 3992 H 379.305 0.925841 4.11104 0
M  V30 3993 H 377.98 0.111697 3.23507 0
M  V30 3994 H 376.887 2.40003 2.86966 0
M  V30 3995 H 378.22 3.14257 3.78819 0
M  V30 3996 N 379.872 -1.04064 1.18357 0
M  V30 3997 C 381.121 -1.76662 0.973313 0
M  V30 3998 C 381.434 -1.89154 -0.497991 0
M  V30 3999 O 382.64 -2.58606 -0.826762 0
M  V30 4000 C 381.096 -3.17624 1.69242 0
M  V30 4001 C 380.704 -3.13225 3.20303 0
M  V30 4002 C 382.448 -3.946 1.56497 0
M  V30 4003 C 380.355 -4.49046 3.84853 0
M  V30 4004 H 379.285 -0.662214 0.36054 0
M  V30 4005 H 381.936 -1.16553 1.41731 0
M  V30 4006 H 380.318 -3.78129 1.1762 0
M  V30 4007 H 381.492 -2.62172 3.78949 0
M  V30 4008 H 379.807 -2.49749 3.33189 0
M  V30 4009 H 382.404 -4.95042 2.02084 0
M  V30 4010 H 382.747 -4.13074 0.517243 0
M  V30 4011 H 383.28 -3.4067 2.05399 0
M  V30 4012 H 380.019 -4.35777 4.89672 0
M  V30 4013 H 379.539 -5.00203 3.30994 0
M  V30 4014 H 381.218 -5.17961 3.87718 0
M  V30 4015 N 381.35 -0.985608 -1.22978 0
M  V30 4016 C 382.297 -0.529825 -2.24636 0
M  V30 4017 C 383.267 0.434028 -1.60329 0
M  V30 4018 O 384.452 0.340414 -1.87739 0
M  V30 4019 C 381.592 0.156533 -3.44745 0
M  V30 4020 C 380.705 -0.848197 -4.23591 0
M  V30 4021 C 379.84 -0.136109 -5.31026 0
M  V30 4022 C 378.879 -1.1297 -6.01585 0
M  V30 4023 N 378.016 -0.446415 -7.00679 0
M  V30 4024 H 382.856 -1.40148 -2.62988 0
M  V30 4025 H 380.393 -0.702168 -1.29259 0
M  V30 4026 H 382.351 0.571324 -4.1327 0
M  V30 4027 H 380.981 0.992025 -3.07179 0
M  V30 4028 H 380.033 -1.38135 -3.54433 0
M  V30 4029 H 381.345 -1.60512 -4.72268 0
M  V30 4030 H 380.499 0.335784 -6.0577 0
M  V30 4031 H 379.238 0.653373 -4.83304 0
M  V30 4032 H 378.243 -1.6123 -5.25628 0
M  V30 4033 H 379.468 -1.91993 -6.51395 0
M  V30 4034 H 377.414 0.323763 -6.55201 0
M  V30 4035 H 377.331 -1.1419 -7.47326 0
M  V30 4036 H 378.599 0.00291697 -7.795 0
M  V30 4037 N 382.828 1.3818 -0.7579 0
M  V30 4038 C 383.791 2.28764 -0.141286 0
M  V30 4039 C 384.791 1.47388 0.642907 0
M  V30 4040 O 385.981 1.67781 0.468536 0
M  V30 4041 C 383.113 3.31184 0.808069 0
M  V30 4042 H 384.306 2.848 -0.939633 0
M  V30 4043 H 381.859 1.47212 -0.525191 0
M  V30 4044 H 382.594 2.80247 1.63193 0
M  V30 4045 H 382.379 3.91314 0.248104 0
M  V30 4046 H 383.869 3.98909 1.23536 0
M  V30 4047 N 384.306 0.507319 1.49211 0
M  V30 4048 C 385.536 -0.0315292 2.06576 0
M  V30 4049 C 385.944 -1.30791 1.36713 0
M  V30 4050 O 385.287 -1.78324 0.441181 0
M  V30 4051 C 385.349 -0.349104 3.57801 0
M  V30 4052 C 385.013 0.830475 4.49391 0
M  V30 4053 C 386.01 1.72271 4.90529 0
M  V30 4054 C 383.695 1.03107 4.91604 0
M  V30 4055 C 385.689 2.79964 5.72625 0
M  V30 4056 C 383.376 2.11116 5.73475 0
M  V30 4057 C 384.374 2.99379 6.1389 0
M  V30 4058 O 384.062 4.05523 6.94123 0
M  V30 4059 H 383.794 0.0201002 0.675701 0
M  V30 4060 H 386.348 0.705737 1.92895 0
M  V30 4061 H 384.578 -1.14005 3.69513 0
M  V30 4062 H 386.267 -0.827319 3.97379 0
M  V30 4063 H 387.033 1.57958 4.58557 0
M  V30 4064 H 382.912 0.353417 4.59643 0
M  V30 4065 H 386.456 3.48884 6.04091 0
M  V30 4066 H 382.353 2.25421 6.0486 0
M  V30 4067 H 383.121 4.02953 7.1244 0
M  V30 4068 N 385.784 -1.5574 0.241426 0
M  V30 4069 C 386.716 -2.18469 -0.693091 0
M  V30 4070 C 387.729 -1.15942 -1.14286 0
M  V30 4071 O 388.918 -1.42832 -1.07058 0
M  V30 4072 C 386.018 -2.7696 -1.95311 0
M  V30 4073 C 385.191 -4.04853 -1.65568 0
M  V30 4074 C 384.25 -4.47715 -2.76474 0
M  V30 4075 O 383.276 -5.14205 -2.44094 0
M  V30 4076 N 384.478 -4.15044 -4.05855 0
M  V30 4077 H 387.243 -2.99292 -0.156388 0
M  V30 4078 H 384.804 -1.61784 0.0611752 0
M  V30 4079 H 386.796 -3.02594 -2.68736 0
M  V30 4080 H 385.366 -2.00326 -2.39975 0
M  V30 4081 H 384.586 -3.86865 -0.756886 0
M  V30 4082 H 385.874 -4.88246 -1.43153 0
M  V30 4083 H 385.272 -3.61654 -4.34998 0
M  V30 4084 H 383.829 -4.45526 -4.75762 0
M  V30 4085 N 387.262 0.0317525 -1.57568 0
M  V30 4086 C 388.487 0.738664 -1.938 0
M  V30 4087 C 388.912 1.68242 -0.841208 0
M  V30 4088 O 388.27 1.80157 0.203267 0
M  V30 4089 C 388.318 1.47417 -3.29091 0
M  V30 4090 O 387.422 2.5872 -3.2115 0
M  V30 4091 H 386.763 0.198856 -0.633524 0
M  V30 4092 H 389.293 -0.0119713 -2.04596 0
M  V30 4093 H 389.303 1.84468 -3.63917 0
M  V30 4094 H 387.978 0.781988 -4.08482 0
M  V30 4095 H 386.555 2.24231 -2.97951 0
M  V30 4096 N 388.74 1.54641 0.303973 0
M  V30 4097 C 389.687 1.85386 1.37479 0
M  V30 4098 C 390.657 0.702528 1.50512 0
M  V30 4099 O 391.842 0.950867 1.65418 0
M  V30 4100 C 388.982 2.10413 2.73533 0
M  V30 4101 C 388.095 3.38049 2.68974 0
M  V30 4102 C 387.23 3.52934 3.97002 0
M  V30 4103 C 386.269 4.74373 3.86829 0
M  V30 4104 N 385.406 4.8608 5.06627 0
M  V30 4105 H 390.246 2.76732 1.1056 0
M  V30 4106 H 387.783 1.37034 0.534805 0
M  V30 4107 H 389.741 2.22919 3.52652 0
M  V30 4108 H 388.371 1.22338 2.98719 0
M  V30 4109 H 387.423 3.3418 1.81736 0
M  V30 4110 H 388.735 4.27288 2.57346 0
M  V30 4111 H 387.889 3.65088 4.84557 0
M  V30 4112 H 386.628 2.61824 4.1146 0
M  V30 4113 H 385.633 4.62255 2.97658 0
M  V30 4114 H 386.858 5.66888 3.73918 0
M  V30 4115 H 384.804 3.97891 5.21554 0
M  V30 4116 H 384.721 5.69315 4.9741 0
M  V30 4117 H 385.989 5.02587 5.95841 0
M  V30 4118 N 390.218 -0.567019 1.47046 0
M  V30 4119 C 391.443 -1.3551 1.57009 0
M  V30 4120 C 391.868 -1.86841 0.217259 0
M  V30 4121 O 391.226 -1.62435 -0.805268 0
M  V30 4122 C 391.274 -2.50777 2.5912 0
M  V30 4123 O 390.378 -3.52706 2.13711 0
M  V30 4124 H 389.719 -0.402919 0.52778 0
M  V30 4125 H 392.249 -0.686241 1.92748 0
M  V30 4126 H 392.259 -2.97481 2.79229 0
M  V30 4127 H 390.934 -2.12771 3.57353 0
M  V30 4128 H 389.511 -3.12374 2.03659 0
M  V30 4129 N 391.696 -1.35014 -0.812953 0
M  V30 4130 C 393.112 -1.14914 -1.10757 0
M  V30 4131 C 393.312 0.0426818 -2.01455 0
M  V30 4132 O 392.368 0.715212 -2.42159 0
M  V30 4133 C 393.681 -2.44911 -1.74468 0
M  V30 4134 C 395.229 -2.5106 -1.86917 0
M  V30 4135 C 395.704 -3.81085 -2.54044 0
M  V30 4136 N 397.195 -3.82301 -2.61535 0
M  V30 4137 C 397.93 -4.79634 -3.14227 0
M  V30 4138 N 397.426 -5.87353 -3.67407 0
M  V30 4139 N 399.219 -4.67078 -3.12721 0
M  V30 4140 H 391.37 -2.1136 -0.20989 0
M  V30 4141 H 393.633 -0.935128 -0.155692 0
M  V30 4142 H 393.339 -3.32267 -1.15289 0
M  V30 4143 H 393.213 -2.58989 -2.74234 0
M  V30 4144 H 395.6 -1.64137 -2.45241 0
M  V30 4145 H 395.681 -2.40901 -0.860242 0
M  V30 4146 H 395.325 -4.68402 -1.96372 0
M  V30 4147 H 395.255 -3.88529 -3.55461 0
M  V30 4148 H 397.746 -3.04465 -2.23851 0
M  V30 4149 H 398.059 -6.57624 -4.05894 0
M  V30 4150 H 396.404 -5.91054 -3.65623 0
M  V30 4151 H 399.595 -3.82067 -2.70449 0
M  V30 4152 H 399.768 -5.43098 -3.53481 0
M  V30 4153 N 393.175 1.03435 -1.18907 0
M  V30 4154 C 394.085 2.15075 -0.937015 0
M  V30 4155 C 395.101 1.73706 0.101085 0
M  V30 4156 O 396.277 2.01232 -0.0822948 0
M  V30 4157 C 393.342 3.43458 -0.473057 0
M  V30 4158 C 392.403 3.99172 -1.57989 0
M  V30 4159 C 391.636 5.21427 -1.13797 0
M  V30 4160 O 391.859 5.704 0.000725941 0
M  V30 4161 O 390.793 5.69837 -1.9383 0
M  V30 4162 H 394.619 2.39198 -1.87131 0
M  V30 4163 H 392.204 1.13506 -0.971427 0
M  V30 4164 H 394.086 4.20811 -0.222702 0
M  V30 4165 H 392.761 3.20793 0.432869 0
M  V30 4166 H 391.668 3.23178 -1.88433 0
M  V30 4167 H 393.001 4.2619 -2.46217 0
M  V30 4168 N 394.653 0.992116 1.22453 0
M  V30 4169 C 395.616 0.546883 2.2258 0
M  V30 4170 C 396.616 -0.369829 1.56489 0
M  V30 4171 O 397.806 -0.161896 1.73446 0
M  V30 4172 C 394.938 -0.204659 3.40285 0
M  V30 4173 H 396.131 1.43234 2.63484 0
M  V30 4174 H 393.684 0.779239 1.3549 0
M  V30 4175 H 394.419 -1.10614 3.04853 0
M  V30 4176 H 394.204 0.45354 3.89468 0
M  V30 4177 H 395.694 -0.504358 4.14543 0
M  V30 4178 N 396.131 -1.37776 0.765217 0
M  V30 4179 C 397.061 -2.32945 0.160953 0
M  V30 4180 C 398.042 -1.55454 -0.690516 0
M  V30 4181 O 399.227 -1.83721 -0.629318 0
M  V30 4182 C 396.357 -3.39669 -0.724031 0
M  V30 4183 C 395.311 -4.27992 0.0256173 0
M  V30 4184 C 394.637 -5.25673 -0.978383 0
M  V30 4185 C 395.937 -5.08309 1.20082 0
M  V30 4186 H 397.631 -2.83728 0.955969 0
M  V30 4187 H 395.177 -1.36416 0.461149 0
M  V30 4188 H 397.13 -4.05219 -1.15652 0
M  V30 4189 H 395.854 -2.87396 -1.5515 0
M  V30 4190 H 394.513 -3.63964 0.438812 0
M  V30 4191 H 394.161 -4.69682 -1.80022 0
M  V30 4192 H 393.861 -5.85625 -0.481378 0
M  V30 4193 H 395.385 -5.94098 -1.40995 0
M  V30 4194 H 396.799 -5.67034 0.845307 0
M  V30 4195 H 395.196 -5.77554 1.62947 0
M  V30 4196 H 396.266 -4.41365 2.00811 0
M  V30 4197 N 397.609 -0.515225 -1.4894 0
M  V30 4198 C 398.855 0.016187 -2.03394 0
M  V30 4199 C 399.21 1.33377 -1.38666 0
M  V30 4200 O 398.503 1.84461 -0.518141 0
M  V30 4201 C 398.697 0.210595 -3.56779 0
M  V30 4202 C 398.526 -1.08659 -4.36375 0
M  V30 4203 C 397.296 -1.64237 -4.77864 0
M  V30 4204 C 399.494 -1.9935 -4.74093 0
M  V30 4205 N 397.476 -2.88398 -5.41941 0
M  V30 4206 C 398.847 -3.08088 -5.38035 0
M  V30 4207 C 400.902 -1.99856 -4.56029 0
M  V30 4208 C 399.605 -4.17377 -5.85823 0
M  V30 4209 C 401.631 -3.08129 -5.04787 0
M  V30 4210 C 400.993 -4.15586 -5.68742 0
M  V30 4211 H 397.092 -0.0352107 -0.781207 0
M  V30 4212 H 399.676 -0.693237 -1.8194 0
M  V30 4213 H 397.847 0.889088 -3.78087 0
M  V30 4214 H 399.579 0.740287 -3.97872 0
M  V30 4215 H 396.334 -1.18566 -4.58518 0
M  V30 4216 H 396.758 -3.51572 -5.78555 0
M  V30 4217 H 401.4 -1.18079 -4.05977 0
M  V30 4218 H 399.118 -4.99943 -6.34888 0
M  V30 4219 H 402.704 -3.09557 -4.92611 0
M  V30 4220 H 401.584 -4.97987 -6.05787 0
M  V30 4221 N 399.087 1.5561 -0.249682 0
M  V30 4222 C 400.019 2.18834 0.681496 0
M  V30 4223 C 401.032 1.16546 1.1367 0
M  V30 4224 O 402.221 1.43397 1.06299 0
M  V30 4225 C 399.321 2.77992 1.9384 0
M  V30 4226 C 398.494 4.05725 1.63419 0
M  V30 4227 C 397.553 4.49174 2.74096 0
M  V30 4228 O 396.579 5.15492 2.41364 0
M  V30 4229 N 397.781 4.17191 4.03649 0
M  V30 4230 H 400.546 2.9937 0.140514 0
M  V30 4231 H 398.107 1.6175 -0.0697541 0
M  V30 4232 H 400.099 3.04015 2.67127 0
M  V30 4233 H 398.669 2.01596 2.38909 0
M  V30 4234 H 397.889 3.87261 0.736358 0
M  V30 4235 H 399.177 4.88999 1.40562 0
M  V30 4236 H 398.575 3.63955 4.33074 0
M  V30 4237 H 397.132 4.48043 4.73393 0
M  V30 4238 N 400.565 -0.0233959 1.57583 0
M  V30 4239 C 401.497 -1.04994 2.03737 0
M  V30 4240 C 402.51 -1.32125 0.951152 0
M  V30 4241 O 403.699 -1.29512 1.22837 0
M  V30 4242 C 400.799 -2.39026 2.40249 0
M  V30 4243 C 399.972 -2.31171 3.7132 0
M  V30 4244 C 399.031 -3.47698 3.94959 0
M  V30 4245 O 398.057 -3.26937 4.65941 0
M  V30 4246 N 399.259 -4.6976 3.41037 0
M  V30 4247 H 402.024 -0.656507 2.92421 0
M  V30 4248 H 399.585 -0.211235 1.60516 0
M  V30 4249 H 401.577 -3.15712 2.53196 0
M  V30 4250 H 400.147 -2.70194 1.57207 0
M  V30 4251 H 399.367 -1.39547 3.68674 0
M  V30 4252 H 400.655 -2.23071 4.57293 0
M  V30 4253 H 400.053 -4.89528 2.83512 0
M  V30 4254 H 398.61 -5.43791 3.59353 0
M  V30 4255 N 402.043 -1.548 -0.295768 0
M  V30 4256 C 403.283 -1.76069 -1.03823 0
M  V30 4257 C 403.647 -0.537992 -1.84309 0
M  V30 4258 O 404.848 -0.628514 -2.61349 0
M  V30 4259 C 403.119 -3.01705 -1.91596 0
M  V30 4260 S 404.678 -3.43998 -2.72416 0
M  V30 4261 H 401.496 -0.618852 -0.350062 0
M  V30 4262 H 404.098 -1.93009 -0.31106 0
M  V30 4263 H 402.802 -3.88812 -1.31351 0
M  V30 4264 H 402.333 -2.87366 -2.68671 0
M  V30 4265 H 404.348 -3.0148 -3.94112 0
M  V30 4266 N 403.521 0.559213 -1.47345 0
M  V30 4267 C 404.484 1.64854 -1.59235 0
M  V30 4268 C 405.484 1.53851 -0.467607 0
M  V30 4269 O 406.674 1.58045 -0.732617 0
M  V30 4270 C 403.806 3.04388 -1.53496 0
M  V30 4271 H 404.999 1.55662 -2.56339 0
M  V30 4272 H 402.552 0.778973 -1.35505 0
M  V30 4273 H 403.287 3.19115 -0.577604 0
M  V30 4274 H 403.072 3.13783 -2.35123 0
M  V30 4275 H 404.562 3.83642 -1.6495 0
M  V30 4276 N 404.999 1.35443 0.805782 0
M  V30 4277 C 406.248 1.28097 1.55801 0
M  V30 4278 C 406.561 -0.142428 1.95081 0
M  V30 4279 O 407.767 -0.33817 2.69386 0
M  V30 4280 C 406.223 2.24653 2.81174 0
M  V30 4281 C 405.831 3.72342 2.49129 0
M  V30 4282 C 407.575 2.2625 3.59181 0
M  V30 4283 C 405.482 4.60719 3.70799 0
M  V30 4284 H 404.412 0.475937 0.584808 0
M  V30 4285 H 407.063 1.60712 0.885661 0
M  V30 4286 H 405.445 1.85011 3.50124 0
M  V30 4287 H 406.619 4.20624 1.88181 0
M  V30 4288 H 404.934 3.73361 1.84366 0
M  V30 4289 H 407.531 2.89495 4.49552 0
M  V30 4290 H 407.874 1.26647 3.96568 0
M  V30 4291 H 408.407 2.64426 2.97193 0
M  V30 4292 H 405.146 5.61324 3.3852 0
M  V30 4293 H 404.666 4.17163 4.3097 0
M  V30 4294 H 406.345 4.76182 4.38018 0
M  V30 4295 N 406.477 -1.02803 1.19454 0
M  V30 4296 C 407.409 -2.11181 0.890807 0
M  V30 4297 C 408.422 -1.6238 -0.116829 0
M  V30 4298 O 409.611 -1.78144 0.112694 0
M  V30 4299 C 406.711 -3.37461 0.311942 0
M  V30 4300 C 405.884 -4.15446 1.36834 0
M  V30 4301 C 404.943 -5.20039 0.802864 0
M  V30 4302 O 403.969 -5.49602 1.48077 0
M  V30 4303 N 405.171 -5.79165 -0.393417 0
M  V30 4304 H 407.936 -2.37827 1.82369 0
M  V30 4305 H 405.497 -1.19101 1.09666 0
M  V30 4306 H 407.489 -4.0462 -0.0802225 0
M  V30 4307 H 406.059 -3.08156 -0.52524 0
M  V30 4308 H 405.279 -3.43423 1.93531 0
M  V30 4309 H 406.567 -4.64335 2.08015 0
M  V30 4310 H 405.965 -5.57466 -0.961658 0
M  V30 4311 H 404.522 -6.47729 -0.727351 0
M  V30 4312 N 407.956 -0.998596 -1.21925 0
M  V30 4313 C 409.205 -0.673085 -1.90138 0
M  V30 4314 C 409.518 0.79895 -1.78539 0
M  V30 4315 O 410.724 1.23628 -2.4172 0
M  V30 4316 C 409.18 -1.15339 -3.40918 0
M  V30 4317 C 408.788 -2.65106 -3.61141 0
M  V30 4318 C 410.532 -0.902476 -4.14796 0
M  V30 4319 C 408.439 -3.0671 -5.05651 0
M  V30 4320 H 407.369 -0.248057 -0.712028 0
M  V30 4321 H 410.02 -1.20891 -1.38049 0
M  V30 4322 H 408.402 -0.545658 -3.92223 0
M  V30 4323 H 409.576 -3.31274 -3.20304 0
M  V30 4324 H 407.891 -2.88142 -3.00605 0
M  V30 4325 H 410.488 -1.18895 -5.21314 0
M  V30 4326 H 410.831 0.161349 -4.15987 0
M  V30 4327 H 411.364 -1.47269 -3.69536 0
M  V30 4328 H 408.103 -4.12292 -5.09603 0
M  V30 4329 H 407.623 -2.45249 -5.47369 0
M  V30 4330 H 409.302 -2.9833 -5.74115 0
M  V30 4331 N 409.434 1.37368 -0.772513 0
M  V30 4332 C 410.662 2.03942 -0.348588 0
M  V30 4333 C 411.077 1.58264 1.02947 0
M  V30 4334 O 410.434 0.764246 1.65727 0
M  V30 4335 C 410.485 3.5946 -0.38351 0
M  V30 4336 O 410.206 4.03468 -1.70721 0
M  V30 4337 C 411.707 4.4327 0.0519152 0
M  V30 4338 H 408.927 0.654931 -0.145966 0
M  V30 4339 H 411.471 1.75686 -1.04665 0
M  V30 4340 H 409.626 3.86486 0.265978 0
M  V30 4341 H 410.04 4.97991 -1.64636 0
M  V30 4342 H 411.514 5.51995 -0.0236733 0
M  V30 4343 H 411.991 4.2514 1.10238 0
M  V30 4344 H 412.597 4.21471 -0.569415 0
M  V30 4345 N 410.912 0.523116 1.48665 0
M  V30 4346 C 411.862 -0.263106 2.26477 0
M  V30 4347 C 412.846 -0.916005 1.32281 0
M  V30 4348 O 414.038 -0.819946 1.56863 0
M  V30 4349 C 411.167 -1.31361 3.17174 0
M  V30 4350 C 410.253 -0.665849 4.1884 0
M  V30 4351 N 410.644 0.244434 5.05209 0
M  V30 4352 C 408.942 -0.923863 4.36326 0
M  V30 4353 C 409.643 0.617443 5.78414 0
M  V30 4354 N 408.619 -0.0198686 5.43596 0
M  V30 4355 H 412.421 0.437295 2.90629 0
M  V30 4356 H 409.935 0.340675 1.58787 0
M  V30 4357 H 411.932 -1.89052 3.71571 0
M  V30 4358 H 410.592 -2.01546 2.54576 0
M  V30 4359 H 411.603 0.616621 5.14216 0
M  V30 4360 H 408.28 -1.6168 3.84923 0
M  V30 4361 H 409.67 1.36346 6.57921 0
M  V30 4362 N 412.39 -1.55475 0.257931 0
M  V30 4363 C 413.353 -2.20551 -0.623706 0
M  V30 4364 C 414.353 -1.17809 -1.09443 0
M  V30 4365 O 415.543 -1.42823 -0.997362 0
M  V30 4366 C 412.675 -2.85784 -1.8585 0
M  V30 4367 H 413.868 -2.99848 -0.0557743 0
M  V30 4368 H 411.421 -1.56298 0.0084422 0
M  V30 4369 H 412.156 -2.10453 -2.46739 0
M  V30 4370 H 411.941 -3.61057 -1.52907 0
M  V30 4371 H 413.431 -3.35553 -2.48584 0
M  V30 4372 N 413.868 0.0150385 -1.57593 0
M  V30 4373 C 415.117 0.702115 -1.89085 0
M  V30 4374 C 415.43 1.75764 -0.858277 0
M  V30 4375 O 416.636 2.49829 -1.0629 0
M  V30 4376 C 415.092 1.29992 -3.35604 0
M  V30 4377 C 414.7 0.280007 -4.47124 0
M  V30 4378 C 416.444 1.96606 -3.76227 0
M  V30 4379 C 414.351 0.886949 -5.84711 0
M  V30 4380 H 413.281 0.265997 -0.705522 0
M  V30 4381 H 415.932 -0.0430408 -1.8345 0
M  V30 4382 H 414.314 2.09525 -3.36029 0
M  V30 4383 H 415.488 -0.489631 -4.58191 0
M  V30 4384 H 413.803 -0.284835 -4.15425 0
M  V30 4385 H 416.4 2.42893 -4.76347 0
M  V30 4386 H 416.743 2.79024 -3.08952 0
M  V30 4387 H 417.276 1.23828 -3.78036 0
M  V30 4388 H 414.015 0.101876 -6.55421 0
M  V30 4389 H 413.535 1.6261 -5.77337 0
M  V30 4390 H 415.214 1.39011 -6.3189 0
M  V30 4391 N 415.346 1.54954 0.287554 0
M  V30 4392 C 416.278 1.83224 1.37701 0
M  V30 4393 C 417.291 0.715898 1.46215 0
M  V30 4394 O 418.48 0.993565 1.48292 0
M  V30 4395 C 415.58 1.96723 2.75959 0
M  V30 4396 C 414.753 3.27253 2.90215 0
M  V30 4397 C 413.812 3.30998 4.09056 0
M  V30 4398 O 412.838 4.04457 4.00503 0
M  V30 4399 N 414.04 2.57353 5.20336 0
M  V30 4400 H 416.805 2.77254 1.138 0
M  V30 4401 H 414.366 1.54694 0.477652 0
M  V30 4402 H 416.358 1.96615 3.5373 0
M  V30 4403 H 414.928 1.09626 2.92747 0
M  V30 4404 H 414.148 3.40022 1.99447 0
M  V30 4405 H 415.436 4.13365 2.96659 0
M  V30 4406 H 414.834 1.97327 5.30169 0
M  V30 4407 H 413.391 2.62984 5.96391 0
M  V30 4408 N 416.824 -0.551391 1.4764 0
M  V30 4409 C 418.054 -1.33163 1.57959 0
M  V30 4410 C 418.462 -1.87785 0.23094 0
M  V30 4411 O 417.805 -1.65996 -0.786825 0
M  V30 4412 C 417.867 -2.53449 2.54958 0
M  V30 4413 C 417.531 -2.20071 4.00522 0
M  V30 4414 C 418.528 -1.77017 4.88836 0
M  V30 4415 C 416.213 -2.31252 4.45901 0
M  V30 4416 C 418.207 -1.4558 6.20552 0
M  V30 4417 C 415.894 -1.99427 5.77644 0
M  V30 4418 C 416.892 -1.56659 6.64791 0
M  V30 4419 O 416.58 -1.25242 7.94084 0
M  V30 4420 H 416.312 -0.412022 0.535923 0
M  V30 4421 H 418.866 -0.674186 1.9402 0
M  V30 4422 H 417.096 -3.22104 2.13976 0
M  V30 4423 H 418.785 -3.15523 2.55343 0
M  V30 4424 H 419.551 -1.67867 4.55023 0
M  V30 4425 H 415.43 -2.63498 3.78272 0
M  V30 4426 H 418.974 -1.12125 6.8853 0
M  V30 4427 H 414.871 -2.08211 6.10998 0
M  V30 4428 H 415.639 -1.38822 8.06642 0
M  V30 4429 N 418.302 -1.35869 -0.798587 0
M  V30 4430 C 419.548 -1.2978 -1.55836 0
M  V30 4431 C 419.881 0.125322 -1.93795 0
M  V30 4432 O 419.156 1.07658 -1.61987 0
M  V30 4433 C 419.439 -2.21188 -2.84162 0
M  V30 4434 C 419.292 -3.72155 -2.52628 0
M  V30 4435 C 420.611 -2.11545 -3.85923 0
M  V30 4436 H 417.73 -0.472769 -0.565383 0
M  V30 4437 H 420.372 -1.66341 -0.918192 0
M  V30 4438 H 418.522 -1.90139 -3.38791 0
M  V30 4439 H 420.194 -4.13682 -2.04121 0
M  V30 4440 H 418.437 -3.92042 -1.85704 0
M  V30 4441 H 419.108 -4.31511 -3.44242 0
M  V30 4442 H 421.584 -2.38855 -3.40716 0
M  V30 4443 H 420.46 -2.77688 -4.73477 0
M  V30 4444 H 420.721 -1.09987 -4.282 0
M  V30 4445 N 419.78 1.02168 -1.19998 0
M  V30 4446 C 421.026 1.75945 -1.00852 0
M  V30 4447 C 421.359 1.88702 0.458828 0
M  V30 4448 O 420.634 1.40911 1.34069 0
M  V30 4449 C 420.917 3.18154 -1.68671 0
M  V30 4450 C 420.77 3.13224 -3.22817 0
M  V30 4451 C 422.089 4.16711 -1.41561 0
M  V30 4452 H 419.208 0.638673 -0.367785 0
M  V30 4453 H 421.85 1.19222 -1.4794 0
M  V30 4454 H 420 3.66586 -1.28636 0
M  V30 4455 H 421.672 2.72635 -3.72112 0
M  V30 4456 H 419.915 2.50751 -3.53986 0
M  V30 4457 H 420.586 4.13728 -3.65422 0
M  V30 4458 H 423.062 3.76913 -1.76284 0
M  V30 4459 H 421.938 5.14391 -1.91553 0
M  V30 4460 H 422.199 4.40774 -0.342193 0
M  V30 4461 N 421.258 1.00505 1.21394 0
M  V30 4462 C 422.168 0.574806 2.27449 0
M  V30 4463 C 423.184 -0.382206 1.6975 0
M  V30 4464 O 424.36 -0.246027 1.99892 0
M  V30 4465 C 421.425 -0.0917414 3.46579 0
M  V30 4466 C 420.486 0.909758 4.1955 0
M  V30 4467 C 419.719 0.274924 5.32991 0
M  V30 4468 O 419.942 -0.928254 5.62796 0
M  V30 4469 O 418.876 0.985877 5.93771 0
M  V30 4470 H 422.702 1.45744 2.66444 0
M  V30 4471 H 420.287 0.773923 1.27792 0
M  V30 4472 H 422.169 -0.464551 4.18832 0
M  V30 4473 H 420.844 -0.948755 3.09484 0
M  V30 4474 H 419.751 1.33372 3.49518 0
M  V30 4475 H 421.084 1.73636 4.60555 0
M  V30 4476 N 422.737 -1.36956 0.779787 0
M  V30 4477 C 423.984 -1.99491 0.347766 0
M  V30 4478 C 424.312 -1.61898 -1.07793 0
M  V30 4479 O 423.567 -0.86071 -1.75756 0
M  V30 4480 C 423.866 -3.54585 0.447686 0
M  V30 4481 C 423.532 -4.1197 1.83279 0
M  V30 4482 C 422.194 -4.27356 2.2118 0
M  V30 4483 C 424.546 -4.43354 2.74019 0
M  V30 4484 C 421.874 -4.71432 3.4924 0
M  V30 4485 C 424.226 -4.88858 4.01497 0
M  V30 4486 C 422.89 -5.0245 4.39432 0
M  V30 4487 H 422.16 -0.729991 0.127257 0
M  V30 4488 H 424.807 -1.63599 0.995376 0
M  V30 4489 H 423.112 -3.90773 -0.283447 0
M  V30 4490 H 424.809 -4.00888 0.0945948 0
M  V30 4491 H 421.399 -4.00428 1.52825 0
M  V30 4492 H 425.583 -4.31045 2.45995 0
M  V30 4493 H 420.839 -4.80141 3.78516 0
M  V30 4494 H 425.013 -5.12108 4.71931 0
M  V30 4495 H 422.64 -5.36362 5.38721 0
M  V30 4496 N 424.215 -0.530993 -1.48385 0
M  V30 4497 C 425.178 0.220497 -2.28137 0
M  V30 4498 C 426.178 0.866851 -1.35434 0
M  V30 4499 O 427.368 0.726746 -1.58316 0
M  V30 4500 C 424.5 1.31921 -3.1434 0
M  V30 4501 H 425.693 -0.479714 -2.96038 0
M  V30 4502 H 423.246 -0.286968 -1.53643 0
M  V30 4503 H 423.981 2.05264 -2.51072 0
M  V30 4504 H 423.766 0.86085 -3.82533 0
M  V30 4505 H 425.256 1.84776 -3.74497 0
M  V30 4506 N 425.693 1.55336 -0.266172 0
M  V30 4507 C 426.64 2.22172 0.625165 0
M  V30 4508 C 427.61 1.19211 1.15663 0
M  V30 4509 O 428.795 1.47723 1.20758 0
M  V30 4510 C 425.935 2.93972 1.8076 0
M  V30 4511 C 425.048 4.11632 1.31084 0
M  V30 4512 C 424.183 4.71099 2.45436 0
M  V30 4513 C 423.222 5.8097 1.92718 0
M  V30 4514 N 422.359 6.34538 3.00509 0
M  V30 4515 H 427.199 2.9796 0.0485582 0
M  V30 4516 H 424.736 1.47095 0.0122024 0
M  V30 4517 H 426.694 3.33811 2.50251 0
M  V30 4518 H 425.324 2.20623 2.35638 0
M  V30 4519 H 424.376 3.76975 0.509326 0
M  V30 4520 H 425.688 4.90893 0.884633 0
M  V30 4521 H 424.842 5.13612 3.22936 0
M  V30 4522 H 423.581 3.91096 2.91368 0
M  V30 4523 H 422.586 5.37916 1.13695 0
M  V30 4524 H 423.811 6.62836 1.47733 0
M  V30 4525 H 421.757 5.57433 3.45839 0
M  V30 4526 H 421.674 7.09046 2.62279 0
M  V30 4527 H 422.942 6.81709 3.78011 0
M  V30 4528 N 427.171 -0.0066808 1.57599 0
M  V30 4529 C 428.587 -0.36267 1.55425 0
M  V30 4530 C 428.787 -1.75209 0.995187 0
M  V30 4531 O 427.843 -2.44616 0.626058 0
M  V30 4532 C 429.156 -0.244017 2.99708 0
M  V30 4533 C 430.704 -0.319451 3.11366 0
M  V30 4534 C 431.179 -0.229998 4.57422 0
M  V30 4535 N 432.67 -0.288105 4.62303 0
M  V30 4536 C 433.405 -0.242127 5.72889 0
M  V30 4537 N 432.901 -0.147133 6.92644 0
M  V30 4538 N 434.694 -0.293502 5.61333 0
M  V30 4539 H 426.845 0.902314 1.92281 0
M  V30 4540 H 429.108 0.34525 0.882896 0
M  V30 4541 H 428.814 0.711678 3.44424 0
M  V30 4542 H 428.688 -1.02877 3.629 0
M  V30 4543 H 431.075 -1.26559 2.66584 0
M  V30 4544 H 431.156 0.495055 2.50964 0
M  V30 4545 H 430.8 0.712566 5.02877 0
M  V30 4546 H 430.73 -1.0629 5.15761 0
M  V30 4547 H 433.221 -0.363126 3.76151 0
M  V30 4548 H 433.534 -0.117763 7.7271 0
M  V30 4549 H 431.879 -0.112857 6.94908 0
M  V30 4550 H 435.07 -0.365864 4.66668 0
M  V30 4551 H 435.243 -0.254204 6.47501 0
M  V30 4552 N 428.649 -1.55105 -0.279332 0
M  V30 4553 C 429.898 -1.74618 -1.00952 0
M  V30 4554 C 430.211 -0.551096 -1.87676 0
M  V30 4555 O 431.417 -0.628507 -2.64125 0
M  V30 4556 C 429.873 -3.09025 -1.84476 0
M  V30 4557 C 429.481 -4.36081 -1.0265 0
M  V30 4558 C 431.225 -3.37891 -2.56963 0
M  V30 4559 C 429.132 -5.6153 -1.85576 0
M  V30 4560 H 428.062 -0.650868 -0.38064 0
M  V30 4561 H 430.713 -1.81569 -0.265475 0
M  V30 4562 H 429.095 -2.96095 -2.62952 0
M  V30 4563 H 430.269 -4.59909 -0.286354 0
M  V30 4564 H 428.584 -4.14312 -0.416464 0
M  V30 4565 H 431.181 -4.28822 -3.19399 0
M  V30 4566 H 431.524 -2.57737 -3.26921 0
M  V30 4567 H 432.057 -3.5189 -1.85522 0
M  V30 4568 H 428.796 -6.44413 -1.2005 0
M  V30 4569 H 428.316 -5.41854 -2.57204 0
M  V30 4570 H 429.995 -5.99594 -2.43096 0
M  V30 4571 N 430.127 0.543554 -1.4793 0
M  V30 4572 C 431.355 1.32516 -1.58894 0
M  V30 4573 C 431.77 1.87215 -0.244131 0
M  V30 4574 O 431.127 1.65709 0.764652 0
M  V30 4575 C 431.178 2.48554 -2.62494 0
M  V30 4576 O 430.899 1.96112 -3.91755 0
M  V30 4577 C 432.4 3.40572 -2.8377 0
M  V30 4578 H 429.62 0.403472 -0.536145 0
M  V30 4579 H 432.164 0.657106 -1.93655 0
M  V30 4580 H 430.319 3.1127 -2.30629 0
M  V30 4581 H 430.733 2.71967 -4.4848 0
M  V30 4582 H 432.207 4.18375 -3.60093 0
M  V30 4583 H 432.684 3.94965 -1.92092 0
M  V30 4584 H 433.29 2.8366 -3.16887 0
M  V30 4585 N 431.605 1.3629 0.791371 0
M  V30 4586 C 432.853 1.30154 1.5461 0
M  V30 4587 C 433.174 -0.119409 1.94634 0
M  V30 4588 O 432.444 -1.05924 1.64794 0
M  V30 4589 H 431.024 0.478784 0.573389 0
M  V30 4590 H 433.686 1.70565 0.94306 0
M  V30 4591 H 432.782 1.92762 2.45457 0
M  V30 4592 N 433.083 -1.0153 1.20538 0
M  V30 4593 C 434.33 -1.75149 1.01633 0
M  V30 4594 C 434.658 -1.89189 -0.451399 0
M  V30 4595 O 433.913 -1.41551 -1.35136 0
M  V30 4596 C 434.212 -3.17213 1.64654 0
M  V30 4597 C 433.878 -3.23146 3.14464 0
M  V30 4598 C 432.54 -3.24472 3.55347 0
M  V30 4599 C 434.892 -3.21207 4.10458 0
M  V30 4600 C 432.22 -3.21532 4.90748 0
M  V30 4601 C 434.572 -3.19808 5.45807 0
M  V30 4602 C 433.236 -3.19439 5.86102 0
M  V30 4603 H 432.506 -0.640914 0.3719 0
M  V30 4604 H 435.153 -1.19071 1.49981 0
M  V30 4605 H 433.458 -3.76457 1.08571 0
M  V30 4606 H 435.155 -3.72871 1.4754 0
M  V30 4607 H 431.745 -3.2285 2.81897 0
M  V30 4608 H 435.929 -3.19351 3.79906 0
M  V30 4609 H 431.185 -3.19578 5.21229 0
M  V30 4610 H 435.359 -3.1726 6.19935 0
M  V30 4611 H 432.986 -3.16915 6.90991 0
M  V30 4612 N 434.561 -1.01147 -1.20859 0
M  V30 4613 C 435.494 -0.522108 -2.22147 0
M  V30 4614 C 436.472 0.427686 -1.56874 0
M  V30 4615 O 437.656 0.34889 -1.85243 0
M  V30 4616 C 434.783 0.240819 -3.37843 0
M  V30 4617 C 433.829 -0.657752 -4.21398 0
M  V30 4618 S 434.662 -2.12393 -4.91578 0
M  V30 4619 C 435.818 -1.37102 -6.10699 0
M  V30 4620 H 436.051 -1.38035 -2.63313 0
M  V30 4621 H 433.584 -0.819941 -1.30829 0
M  V30 4622 H 435.542 0.674908 -4.04914 0
M  V30 4623 H 434.203 1.07457 -2.95147 0
M  V30 4624 H 433.396 -0.0697456 -5.03952 0
M  V30 4625 H 432.998 -1.0294 -3.59555 0
M  V30 4626 H 435.29 -0.648315 -6.74391 0
M  V30 4627 H 436.233 -2.17252 -6.73949 0
M  V30 4628 H 436.641 -0.876154 -5.57659 0
M  V30 4629 N 436.039 1.36541 -0.78704 0
M  V30 4630 C 436.949 2.3387 -0.184896 0
M  V30 4631 C 437.965 1.60927 0.661697 0
M  V30 4632 O 439.141 1.92927 0.57804 0
M  V30 4633 C 436.206 3.40122 0.672145 0
M  V30 4634 C 435.267 4.28867 -0.19267 0
M  V30 4635 C 434.5 5.30045 0.623561 0
M  V30 4636 O 434.723 5.39232 1.8597 0
M  V30 4637 O 433.657 6.01895 0.0247068 0
M  V30 4638 H 437.483 2.87126 -0.989562 0
M  V30 4639 H 435.068 1.38969 -0.548455 0
M  V30 4640 H 436.95 4.05093 1.16094 0
M  V30 4641 H 435.625 2.89169 1.45474 0
M  V30 4642 H 434.532 3.66945 -0.728166 0
M  V30 4643 H 435.865 4.83165 -0.938722 0
M  V30 4644 N 437.518 0.538854 1.48102 0
M  V30 4645 C 438.448 -0.207654 2.32575 0
M  V30 4646 C 439.429 -0.926559 1.4265 0
M  V30 4647 O 440.614 -0.91061 1.71527 0
M  V30 4648 C 437.744 -1.24957 3.24042 0
M  V30 4649 C 436.698 -0.648263 4.23062 0
M  V30 4650 C 436.024 -1.79348 5.03725 0
M  V30 4651 C 437.324 0.385897 5.20872 0
M  V30 4652 H 439.018 0.497534 2.95237 0
M  V30 4653 H 436.564 0.240715 1.41974 0
M  V30 4654 H 438.517 -1.77983 3.81969 0
M  V30 4655 H 437.241 -1.98446 2.59397 0
M  V30 4656 H 435.9 -0.139452 3.66335 0
M  V30 4657 H 435.548 -2.51696 4.35498 0
M  V30 4658 H 435.248 -1.39702 5.70751 0
M  V30 4659 H 436.772 -2.32735 5.64506 0
M  V30 4660 H 438.186 -0.057607 5.73271 0
M  V30 4661 H 436.583 0.700227 5.96001 0
M  V30 4662 H 437.653 1.28848 4.67468 0
M  V30 4663 N 438.996 -1.55193 0.274407 0
M  V30 4664 C 440.236 -2.01488 -0.343778 0
M  V30 4665 C 440.6 -1.1586 -1.53103 0
M  V30 4666 O 441.801 -1.51732 -2.2188 0
M  V30 4667 C 440.072 -3.50134 -0.717021 0
M  V30 4668 S 441.631 -4.18417 -1.32184 0
M  V30 4669 H 438.449 -0.70291 -0.106948 0
M  V30 4670 H 441.051 -1.91446 0.396075 0
M  V30 4671 H 439.755 -4.10104 0.155947 0
M  V30 4672 H 439.286 -3.64159 -1.48835 0
M  V30 4673 H 441.301 -4.21984 -2.61044 0
M  V30 4674 N 440.474 -0.00167713 -1.576 0
M  V30 4675 C 441.406 1.0174 -2.05382 0
M  V30 4676 C 442.419 1.30595 -0.972052 0
M  V30 4677 O 443.608 1.27542 -1.24882 0
M  V30 4678 C 440.708 2.35174 -2.44022 0
M  V30 4679 C 439.881 2.25234 -3.74951 0
M  V30 4680 C 438.94 3.4137 -4.00441 0
M  V30 4681 O 437.966 3.19483 -4.71083 0
M  V30 4682 N 439.168 4.64275 -3.48467 0
M  V30 4683 H 441.933 0.609902 -2.93428 0
M  V30 4684 H 439.494 0.185672 -1.60832 0
M  V30 4685 H 441.486 3.11643 -2.58187 0
M  V30 4686 H 440.056 2.67659 -1.61485 0
M  V30 4687 H 439.276 1.33664 -3.70847 0
M  V30 4688 H 440.564 2.15767 -4.60784 0
M  V30 4689 H 439.962 4.84955 -2.91264 0
M  V30 4690 H 438.519 5.38005 -3.67959 0
M  V30 4691 N 441.952 1.55251 0.271103 0
M  V30 4692 C 442.9 1.89054 1.35504 0
M  V30 4693 C 443.894 0.767064 1.51038 0
M  V30 4694 O 445.1 0.951429 1.528 0
M  V30 4695 H 441.475 0.600072 0.45323 0
M  V30 4696 H 443.446 2.79598 1.04247 0
M  V30 4697 C 442.195 2.18068 2.70817 0
M  V30 4698 H 441.518 3.04005 2.59656 0
M  V30 4699 H 442.958 2.4564 3.45597 0
M  V30 4700 C 441.417 0.988901 3.2206 0
M  V30 4701 O 441.947 0.224501 4.01072 0
M  V30 4702 N 440.153 0.786085 2.79766 0
M  V30 4703 H 439.7 1.40937 2.15626 0
M  V30 4704 H 439.658 -0.00969349 3.14399 0
M  V30 4705 N 443.43 -0.535701 1.48216 0
M  V30 4706 C 444.707 -1.29683 1.46429 0
M  V30 4707 C 445.087 -2.10391 0.172852 0
M  V30 4708 O 444.435 -2.12282 -0.845488 0
M  V30 4709 C 444.645 -2.18313 2.72287 0
M  V30 4710 C 445.993 -2.78639 3.20383 0
M  V30 4711 O 447.017 -2.28604 2.73164 0
M  V30 4712 O 445.876 -3.69636 4.02531 0
M  V30 4713 H 442.97 -0.585026 0.584529 0
M  V30 4714 H 445.516 -0.552827 1.60443 0
M  V30 4715 H 444.288 -1.58421 3.57797 0
M  V30 4716 H 443.911 -2.99971 2.60966 0
M  V30 4717 N 444.908 -1.36708 -0.784132 0
M  V30 4718 C 445.84 -1.27333 -1.90575 0
M  V30 4719 C 446.853 -0.191706 -1.61667 0
M  V30 4720 O 448.042 -0.446854 -1.72816 0
M  V30 4721 C 445.142 -0.943177 -3.25511 0
M  V30 4722 C 444.315 -2.12776 -3.82158 0
M  V30 4723 C 443.374 -1.76983 -4.95544 0
M  V30 4724 O 442.4 -2.49134 -5.11782 0
M  V30 4725 N 443.602 -0.706624 -5.76183 0
M  V30 4726 H 446.367 -2.23974 -1.99138 0
M  V30 4727 H 443.928 -1.30171 -0.962656 0
M  V30 4728 H 445.92 -0.684799 -3.98864 0
M  V30 4729 H 444.49 -0.0657333 -3.12531 0
M  V30 4730 H 443.71 -2.54863 -3.0073 0
M  V30 4731 H 444.998 -2.91904 -4.16737 0
M  V30 4732 H 444.396 -0.107643 -5.65598 0
M  V30 4733 H 442.953 -0.50808 -6.49817 0
M  V30 4734 N 446.386 1.0089 -1.21074 0
M  V30 4735 C 447.635 1.74019 -1.01981 0
M  V30 4736 C 447.948 1.90408 0.447665 0
M  V30 4737 O 449.154 2.60707 0.757906 0
M  V30 4738 C 447.61 3.13026 -1.77603 0
M  V30 4739 C 447.218 3.04623 -3.28495 0
M  V30 4740 C 448.962 3.90312 -1.66904 0
M  V30 4741 C 446.869 4.38685 -3.96623 0
M  V30 4742 H 445.799 0.652422 -0.377971 0
M  V30 4743 H 448.45 1.12755 -1.44771 0
M  V30 4744 H 446.832 3.74878 -1.27604 0
M  V30 4745 H 448.006 2.52032 -3.85767 0
M  V30 4746 H 446.321 2.40827 -3.39693 0
M  V30 4747 H 448.918 4.8951 -2.15138 0
M  V30 4748 H 449.261 4.11558 -0.62658 0
M  V30 4749 H 449.794 3.35104 -2.14359 0
M  V30 4750 H 446.533 4.22641 -5.01054 0
M  V30 4751 H 446.053 4.91252 -3.4414 0
M  V30 4752 H 447.732 5.075 -4.01314 0
M  V30 4753 N 447.864 1.01787 1.20321 0
M  V30 4754 C 448.794 0.609625 2.25401 0
M  V30 4755 C 449.775 -0.375951 1.65893 0
M  V30 4756 O 450.96 -0.261101 1.92437 0
M  V30 4757 C 448.09 -0.0515995 3.47262 0
M  V30 4758 C 447.044 0.855095 4.19371 0
M  V30 4759 C 446.37 0.0595757 5.34667 0
M  V30 4760 C 447.67 2.16374 4.75373 0
M  V30 4761 H 449.364 1.48803 2.59804 0
M  V30 4762 H 446.91 0.716934 1.24884 0
M  V30 4763 H 448.863 -0.348764 4.19954 0
M  V30 4764 H 447.587 -0.964726 3.12027 0
M  V30 4765 H 446.246 1.13628 3.48546 0
M  V30 4766 H 445.894 -0.85524 4.95676 0
M  V30 4767 H 445.594 0.663406 5.83843 0
M  V30 4768 H 447.118 -0.231105 6.10162 0
M  V30 4769 H 448.532 1.92885 5.39878 0
M  V30 4770 H 446.929 2.71853 5.34991 0
M  V30 4771 H 447.999 2.82589 3.94045 0
M  V30 4772 N 449.342 -1.36122 0.79427 0
M  V30 4773 C 450.272 -2.32551 0.210328 0
M  V30 4774 C 451.253 -1.56884 -0.657386 0
M  V30 4775 O 452.438 -1.85014 -0.590207 0
M  V30 4776 C 449.568 -3.41128 -0.651819 0
M  V30 4777 C 448.522 -4.27842 0.116395 0
M  V30 4778 C 447.848 -5.2763 -0.86666 0
M  V30 4779 C 449.148 -5.05647 1.30837 0
M  V30 4780 H 450.842 -2.81636 1.01594 0
M  V30 4781 H 448.388 -1.35407 0.489981 0
M  V30 4782 H 450.341 -4.07581 -1.07031 0
M  V30 4783 H 449.065 -2.90622 -1.49019 0
M  V30 4784 H 447.724 -3.62952 0.515915 0
M  V30 4785 H 447.372 -4.73395 -1.70019 0
M  V30 4786 H 447.072 -5.86514 -0.35705 0
M  V30 4787 H 448.596 -5.96955 -1.28361 0
M  V30 4788 H 450.01 -5.65113 0.965393 0
M  V30 4789 H 448.407 -5.73967 1.75161 0
M  V30 4790 H 449.477 -4.37006 2.10128 0
M  V30 4791 N 450.82 -0.546701 -1.47814 0
M  V30 4792 C 451.75 0.195317 -2.32682 0
M  V30 4793 C 452.731 0.918981 -1.43139 0
M  V30 4794 O 453.916 0.901501 -1.72008 0
M  V30 4795 C 451.046 1.23237 -3.247 0
M  V30 4796 C 450 0.625818 -4.234 0
M  V30 4797 C 449.326 1.76674 -5.04669 0
M  V30 4798 C 450.626 -0.413515 -5.2066 0
M  V30 4799 H 452.32 -0.513184 -2.94969 0
M  V30 4800 H 449.866 -0.248241 -1.41844 0
M  V30 4801 H 451.819 1.75955 -3.82907 0
M  V30 4802 H 450.543 1.97067 -2.60446 0
M  V30 4803 H 449.202 0.120023 -3.66403 0
M  V30 4804 H 448.85 2.49383 -4.36826 0
M  V30 4805 H 448.55 1.36673 -5.71484 0
M  V30 4806 H 450.074 2.29738 -5.65732 0
M  V30 4807 H 451.488 0.0272042 -5.73294 0
M  V30 4808 H 449.885 -0.731825 -5.95621 0
M  V30 4809 H 450.955 -1.31325 -4.66778 0
M  V30 4810 N 452.299 1.55045 -0.282633 0
M  V30 4811 C 453.246 2.22822 0.601566 0
M  V30 4812 C 454.216 1.20431 1.14392 0
M  V30 4813 O 455.401 1.48996 1.19184 0
M  V30 4814 C 452.541 2.95873 1.77632 0
M  V30 4815 C 451.654 4.12999 1.26711 0
M  V30 4816 C 450.789 4.73676 2.40426 0
M  V30 4817 C 449.828 5.82981 1.86545 0
M  V30 4818 N 448.965 6.3769 2.93762 0
M  V30 4819 H 453.805 2.97995 0.0169528 0
M  V30 4820 H 451.342 1.471 -0.00339964 0
M  V30 4821 H 453.3 3.36447 2.46697 0
M  V30 4822 H 451.93 2.2311 2.33285 0
M  V30 4823 H 450.982 3.77494 0.469314 0
M  V30 4824 H 452.294 4.91803 0.832518 0
M  V30 4825 H 451.448 5.17008 3.17471 0
M  V30 4826 H 450.187 3.94164 2.87203 0
M  V30 4827 H 449.192 5.39092 1.07983 0
M  V30 4828 H 450.417 6.64366 1.40694 0
M  V30 4829 H 448.363 5.61069 3.39908 0
M  V30 4830 H 448.28 7.11788 2.54744 0
M  V30 4831 H 449.548 6.8568 3.7076 0
M  V30 4832 N 453.777 0.010035 1.57597 0
M  V30 4833 C 455.002 -0.687021 1.95691 0
M  V30 4834 C 455.427 -1.65952 0.885519 0
M  V30 4835 O 454.785 -1.80633 -0.15543 0
M  V30 4836 C 454.833 -1.3864 3.32884 0
M  V30 4837 O 453.937 -2.50115 3.27897 0
M  V30 4838 H 453.278 -0.181989 0.638573 0
M  V30 4839 H 455.808 0.0662122 2.04493 0
M  V30 4840 H 455.818 -1.74754 3.6868 0
M  V30 4841 H 454.493 -0.673411 4.10412 0
M  V30 4842 H 453.07 -2.16253 3.03791 0
M  V30 4843 N 455.255 -1.55392 -0.262866 0
M  V30 4844 C 456.503 -1.76127 -0.991147 0
M  V30 4845 C 456.824 -0.571083 -1.8645 0
M  V30 4846 O 456.094 0.413698 -1.91482 0
M  V30 4847 H 454.674 -0.649528 -0.368948 0
M  V30 4848 H 457.336 -1.9281 -0.284655 0
M  V30 4849 H 456.432 -2.6663 -1.62219 0
M  V30 4850 N 456.733 0.527833 -1.48498 0
M  V30 4851 C 457.973 1.29401 -1.58224 0
M  V30 4852 C 458.337 1.90348 -0.251327 0
M  V30 4853 O 459.538 2.67868 -0.223588 0
M  V30 4854 C 457.809 2.35266 -2.69044 0
M  V30 4855 S 459.368 3.2158 -2.98549 0
M  V30 4856 H 456.186 0.440138 -0.558391 0
M  V30 4857 H 458.788 0.601079 -1.8603 0
M  V30 4858 H 457.492 1.88975 -3.64303 0
M  V30 4859 H 457.023 3.09263 -2.43146 0
M  V30 4860 H 459.038 4.35391 -2.38011 0
M  V30 4861 N 458.211 1.37122 0.776871 0
M  V30 4862 C 459.141 1.35164 1.90402 0
M  V30 4863 C 460.122 0.221069 1.68657 0
M  V30 4864 O 461.307 0.420642 1.8959 0
M  V30 4865 C 458.437 1.15274 3.27611 0
M  V30 4866 C 457.391 2.25289 3.63908 0
M  V30 4867 C 456.717 1.90527 4.99603 0
M  V30 4868 C 458.017 3.67446 3.71188 0
M  V30 4869 H 459.711 2.29482 1.92297 0
M  V30 4870 H 457.257 1.10465 0.923773 0
M  V30 4871 H 459.21 1.12536 4.06096 0
M  V30 4872 H 457.934 0.174102 3.26136 0
M  V30 4873 H 456.593 2.27174 2.87728 0
M  V30 4874 H 456.241 0.91206 4.94662 0
M  V30 4875 H 455.941 2.64193 5.24858 0
M  V30 4876 H 457.465 1.89367 5.80493 0
M  V30 4877 H 458.879 3.67719 4.39836 0
M  V30 4878 H 457.276 4.40123 4.07936 0
M  V30 4879 H 458.346 4.01443 2.71977 0
M  V30 4880 N 459.689 -1.00246 1.21608 0
M  V30 4881 C 460.599 -2.12515 0.993709 0
M  V30 4882 C 461.615 -1.73913 -0.0549939 0
M  V30 4883 O 462.791 -2.00943 0.135619 0
M  V30 4884 C 459.856 -3.42083 0.563953 0
M  V30 4885 C 458.917 -3.94843 1.68516 0
M  V30 4886 C 458.15 -5.18226 1.27582 0
M  V30 4887 O 458.373 -5.70201 0.150506 0
M  V30 4888 O 457.307 -5.64497 2.0887 0
M  V30 4889 H 461.133 -2.34152 1.93407 0
M  V30 4890 H 458.718 -1.10891 1.00118 0
M  V30 4891 H 460.6 -4.20073 0.334194 0
M  V30 4892 H 459.275 -3.21828 -0.347665 0
M  V30 4893 H 458.182 -3.18068 1.96935 0
M  V30 4894 H 459.515 -4.19512 2.5743 0
M  V30 4895 N 461.167 -1.02423 -1.1978 0
M  V30 4896 C 462.413 -0.719051 -1.89625 0
M  V30 4897 C 462.746 0.750083 -1.7913 0
M  V30 4898 O 462.021 1.54574 -1.18056 0
M  V30 4899 C 462.304 -1.16499 -3.40735 0
M  V30 4900 C 462.157 -2.695 -3.60125 0
M  V30 4901 C 463.476 -0.742166 -4.33797 0
M  V30 4902 H 460.595 -0.26269 -0.688595 0
M  V30 4903 H 463.237 -1.27333 -1.41018 0
M  V30 4904 H 461.387 -0.69341 -3.82262 0
M  V30 4905 H 463.059 -3.24569 -3.278 0
M  V30 4906 H 461.302 -3.10113 -3.03336 0
M  V30 4907 H 461.973 -2.95757 -4.66081 0
M  V30 4908 H 464.449 -1.1477 -3.99959 0
M  V30 4909 H 463.325 -1.08213 -5.38127 0
M  V30 4910 H 463.586 0.355747 -4.40666 0
M  V30 4911 N 462.645 1.35699 -0.801477 0
M  V30 4912 C 463.891 1.99208 -0.380022 0
M  V30 4913 C 464.224 1.63445 1.04878 0
M  V30 4914 O 463.499 0.895223 1.72673 0
M  V30 4915 C 463.782 3.55755 -0.557708 0
M  V30 4916 C 463.635 4.01332 -2.03107 0
M  V30 4917 C 464.954 4.40096 0.0197968 0
M  V30 4918 H 462.073 0.723667 -0.139552 0
M  V30 4919 H 464.715 1.60928 -1.01006 0
M  V30 4920 H 462.865 3.88494 -0.0213741 0
M  V30 4921 H 464.537 3.79026 -2.62939 0
M  V30 4922 H 462.78 3.52429 -2.52936 0
M  V30 4923 H 463.451 5.10234 -2.1063 0
M  V30 4924 H 465.927 4.13786 -0.438179 0
M  V30 4925 H 464.803 5.48735 -0.134477 0
M  V30 4926 H 465.064 4.2786 1.11303 0
M  V30 4927 N 464.123 0.554532 1.47522 0
M  V30 4928 C 465.053 -0.182974 2.32782 0
M  V30 4929 C 466.034 -0.911377 1.43624 0
M  V30 4930 O 467.219 -0.892366 1.72483 0
M  V30 4931 C 464.349 -1.21513 3.25349 0
M  V30 4932 C 463.303 -0.603355 4.23726 0
M  V30 4933 C 462.629 -1.73995 5.05598 0
M  V30 4934 C 463.929 0.441121 5.20434 0
M  V30 4935 H 465.623 0.52882 2.94693 0
M  V30 4936 H 463.169 0.255759 1.41711 0
M  V30 4937 H 465.122 -1.73922 3.83835 0
M  V30 4938 H 463.846 -1.95683 2.61487 0
M  V30 4939 H 462.505 -0.10059 3.66462 0
M  V30 4940 H 462.153 -2.47063 4.38143 0
M  V30 4941 H 461.853 -1.3364 5.72201 0
M  V30 4942 H 463.377 -2.26735 5.66942 0
M  V30 4943 H 464.791 0.00319931 5.733 0
M  V30 4944 H 463.188 0.763402 5.95224 0
M  V30 4945 H 464.258 1.33799 4.66075 0
M  V30 4946 N 465.601 -1.54893 0.290851 0
M  V30 4947 C 466.847 -2.0023 -0.321867 0
M  V30 4948 C 467.18 -1.179 -1.54316 0
M  V30 4949 O 466.455 -0.25293 -1.92848 0
M  V30 4950 C 466.738 -3.53456 -0.688515 0
M  V30 4951 C 466.591 -4.46532 0.541209 0
M  V30 4952 C 467.91 -4.13057 -1.51895 0
M  V30 4953 H 465.029 -0.727891 -0.115515 0
M  V30 4954 H 467.671 -1.85722 0.400931 0
M  V30 4955 H 465.821 -3.6595 -1.30433 0
M  V30 4956 H 467.493 -4.4596 1.17973 0
M  V30 4957 H 465.736 -4.17545 1.17636 0
M  V30 4958 H 466.407 -5.51475 0.240675 0
M  V30 4959 H 468.883 -4.03937 -0.99872 0
M  V30 4960 H 467.759 -5.20448 -1.74429 0
M  V30 4961 H 468.02 -3.64284 -2.50498 0
M  V30 4962 N 467.08 -0.0183926 -1.57589 0
M  V30 4963 C 468.496 0.337897 -1.55982 0
M  V30 4964 C 468.696 1.73604 -1.02294 0
M  V30 4965 O 467.752 2.43589 -0.664895 0
M  V30 4966 C 469.065 0.196305 -3.00059 0
M  V30 4967 C 470.613 0.269875 -3.11834 0
M  V30 4968 C 471.088 0.157197 -4.5773 0
M  V30 4969 N 472.579 0.214521 -4.62703 0
M  V30 4970 C 473.314 0.150955 -5.73201 0
M  V30 4971 N 472.81 0.0369212 -6.9279 0
M  V30 4972 N 474.603 0.204162 -5.61729 0
M  V30 4973 H 466.754 -0.93279 -1.90821 0
M  V30 4974 H 469.017 -0.359253 -0.877292 0
M  V30 4975 H 468.723 -0.766383 -3.43248 0
M  V30 4976 H 468.597 0.970908 -3.6449 0
M  V30 4977 H 470.984 1.22302 -2.68563 0
M  V30 4978 H 471.065 -0.534918 -2.50144 0
M  V30 4979 H 470.709 -0.792479 -5.01679 0
M  V30 4980 H 470.639 0.980717 -5.17387 0
M  V30 4981 H 473.13 0.303238 -3.76681 0
M  V30 4982 H 473.443 -0.00518321 -7.728 0
M  V30 4983 H 471.788 0.0022886 -6.95 0
M  V30 4984 H 474.979 0.291575 -4.67191 0
M  V30 4985 H 475.152 0.15116 -6.47824 0
M  V30 4986 N 468.558 1.5553 0.254621 0
M  V30 4987 C 469.491 1.84624 1.34124 0
M  V30 4988 C 470.469 0.700693 1.46728 0
M  V30 4989 O 471.653 0.94564 1.63064 0
M  V30 4990 C 468.78 2.02412 2.71564 0
M  V30 4991 C 467.826 3.25028 2.7615 0
M  V30 4992 S 468.659 4.81893 2.33538 0
M  V30 4993 C 469.815 5.02677 3.72917 0
M  V30 4994 H 470.048 2.76501 1.09245 0
M  V30 4995 H 467.581 1.47537 0.455211 0
M  V30 4996 H 469.539 2.13345 3.50705 0
M  V30 4997 H 468.2 1.11391 2.93685 0
M  V30 4998 H 467.393 3.34418 3.77069 0
M  V30 4999 H 466.995 3.12781 2.05046 0
M  V30 5000 H 469.287 4.89546 4.68349 0
M  V30 5001 H 470.23 6.0468 3.68467 0
M  V30 5002 H 470.638 4.30561 3.65072 0
M  V30 5003 N 470.036 -0.519951 1.48776 0
M  V30 5004 C 471.276 -1.2856 1.58908 0
M  V30 5005 C 471.64 -1.90212 0.261418 0
M  V30 5006 O 472.841 -2.67746 0.237791 0
M  V30 5007 C 471.112 -2.33836 2.70288 0
M  V30 5008 S 472.671 -3.19992 3.0025 0
M  V30 5009 H 469.489 -0.43717 0.560717 0
M  V30 5010 H 472.091 -0.591205 1.86346 0
M  V30 5011 H 470.795 -1.87041 3.653 0
M  V30 5012 H 470.326 -3.07969 2.44783 0
M  V30 5013 H 472.341 -4.34122 2.40317 0
M  V30 5014 N 471.514 -1.37532 -0.769588 0
M  V30 5015 C 472.93 -1.18379 -1.07045 0
M  V30 5016 C 473.13 -0.0214312 -2.01489 0
M  V30 5017 O 472.186 0.637809 -2.44312 0
M  V30 5018 C 473.499 -2.50338 -1.66588 0
M  V30 5019 C 475.047 -2.56879 -1.78835 0
M  V30 5020 C 475.522 -3.88974 -2.41792 0
M  V30 5021 N 477.013 -3.90428 -2.4924 0
M  V30 5022 C 477.748 -4.89388 -2.98809 0
M  V30 5023 N 477.244 -5.98745 -3.48535 0
M  V30 5024 N 479.037 -4.76791 -2.97703 0
M  V30 5025 H 471.188 -2.11921 -0.142541 0
M  V30 5026 H 473.451 -0.939608 -0.125863 0
M  V30 5027 H 473.157 -3.35767 -1.0466 0
M  V30 5028 H 473.031 -2.67583 -2.65856 0
M  V30 5029 H 475.418 -1.71856 -2.39895 0
M  V30 5030 H 475.499 -2.43516 -0.783166 0
M  V30 5031 H 475.143 -4.74412 -1.81371 0
M  V30 5032 H 475.073 -3.99641 -3.4292 0
M  V30 5033 H 477.564 -3.11433 -2.14052 0
M  V30 5034 H 477.877 -6.70205 -3.84767 0
M  V30 5035 H 476.222 -6.02387 -3.46634 0
M  V30 5036 H 479.413 -3.90478 -2.58157 0
M  V30 5037 H 479.586 -5.54069 -3.36024 0
M  V30 5038 N 472.992 0.995999 -1.22138 0
M  V30 5039 C 473.955 2.06711 -0.990109 0
M  V30 5040 C 474.955 1.60744 0.0422978 0
M  V30 5041 O 476.145 1.73095 -0.195895 0
M  V30 5042 C 473.277 3.37288 -0.49491 0
M  V30 5043 H 474.47 2.28661 -1.94047 0
M  V30 5044 H 472.023 1.16711 -1.03963 0
M  V30 5045 H 472.758 3.21022 0.459948 0
M  V30 5046 H 472.543 3.71986 -1.23971 0
M  V30 5047 H 474.033 4.16103 -0.353253 0
M  V30 5048 N 474.47 1.03057 1.19235 0
M  V30 5049 C 475.717 0.728019 1.88961 0
M  V30 5050 C 476.045 -0.743515 1.79728 0
M  V30 5051 O 475.3 -1.55729 1.1852 0
M  V30 5052 C 475.599 1.1268 3.39172 0
M  V30 5053 C 475.265 2.5969 3.68608 0
M  V30 5054 C 473.927 2.99854 3.76352 0
M  V30 5055 C 476.279 3.54793 3.81801 0
M  V30 5056 C 473.607 4.34031 3.94758 0
M  V30 5057 C 475.959 4.88675 4.0172 0
M  V30 5058 C 474.623 5.28526 4.07697 0
M  V30 5059 H 473.893 0.266401 0.691456 0
M  V30 5060 H 476.54 1.29373 1.41191 0
M  V30 5061 H 474.845 0.479722 3.88852 0
M  V30 5062 H 476.542 0.870203 3.91444 0
M  V30 5063 H 473.132 2.27575 3.63191 0
M  V30 5064 H 477.316 3.24914 3.7516 0
M  V30 5065 H 472.572 4.6444 3.97625 0
M  V30 5066 H 476.746 5.6228 4.1087 0
M  V30 5067 H 474.373 6.32506 4.21712 0
M  V30 5068 N 475.948 -1.35272 0.808662 0
M  V30 5069 C 476.896 -2.31663 0.208606 0
M  V30 5070 C 477.89 -1.56731 -0.642778 0
M  V30 5071 O 479.096 -1.71843 -0.53571 0
M  V30 5072 H 475.471 -0.750421 0.0486993 0
M  V30 5073 H 477.442 -2.79814 1.03666 0
M  V30 5074 C 476.191 -3.42008 -0.626573 0
M  V30 5075 H 475.514 -3.99795 0.0192103 0
M  V30 5076 H 476.954 -4.11727 -1.01278 0
M  V30 5077 C 475.413 -2.85226 -1.79298 0
M  V30 5078 O 475.943 -2.78945 -2.89055 0
M  V30 5079 N 474.149 -2.42245 -1.60516 0
M  V30 5080 H 473.696 -2.47554 -0.712375 0
M  V30 5081 H 473.654 -2.04603 -2.38715 0
M  V30 5082 N 477.426 -0.562348 -1.47226 0
M  V30 5083 C 478.837 -0.130325 -1.86245 0
M  V30 5084 C 479.188 1.30128 -1.46838 0
M  V30 5085 O 478.313 1.97974 -0.873805 0
M  V30 5086 C 478.908 -0.229738 -3.3802 0
M  V30 5087 C 477.467 0.14728 -3.76112 0
M  V30 5088 C 476.614 -0.574971 -2.71274 0
M  V30 5089 H 479.565 -0.771773 -1.3867 0
M  V30 5090 H 479.586 0.550316 -3.76499 0
M  V30 5091 H 479.098 -1.27178 -3.66671 0
M  V30 5092 H 477.199 1.19023 -3.53078 0
M  V30 5093 H 477.312 -0.214858 -4.78618 0
M  V30 5094 H 475.676 -0.0174756 -2.54694 0
M  V30 5095 H 476.459 -1.61827 -3.02766 0
M  V30 5096 N 478.904 1.54736 -0.299062 0
M  V30 5097 C 479.834 2.26409 0.571085 0
M  V30 5098 C 480.815 1.2629 1.13951 0
M  V30 5099 O 482 1.55059 1.16921 0
M  V30 5100 C 479.13 3.00338 1.74396 0
M  V30 5101 C 478.084 4.07588 1.30599 0
M  V30 5102 C 477.41 4.69222 2.56387 0
M  V30 5103 C 478.71 5.20455 0.438645 0
M  V30 5104 H 480.404 2.99388 -0.0266991 0
M  V30 5105 H 477.95 1.43993 -0.0142812 0
M  V30 5106 H 479.903 3.49198 2.35878 0
M  V30 5107 H 478.627 2.24934 2.36796 0
M  V30 5108 H 477.286 3.59575 0.71424 0
M  V30 5109 H 476.934 3.9046 3.17097 0
M  V30 5110 H 476.634 5.41653 2.27784 0
M  V30 5111 H 478.158 5.20844 3.18675 0
M  V30 5112 H 479.572 5.65221 0.959085 0
M  V30 5113 H 477.969 5.99594 0.246466 0
M  V30 5114 H 479.039 4.8192 -0.536738 0
M  V30 5115 N 480.382 0.0267497 1.57577 0
M  V30 5116 C 481.33 -0.973923 2.11229 0
M  V30 5117 C 482.324 -1.33849 1.03831 0
M  V30 5118 O 483.53 -1.321 1.22269 0
M  V30 5119 H 479.905 -0.331844 0.674821 0
M  V30 5120 H 481.876 -0.496092 2.94247 0
M  V30 5121 C 480.625 -2.24798 2.65257 0
M  V30 5122 H 479.948 -1.9762 3.47543 0
M  V30 5123 H 481.388 -2.93031 3.06445 0
M  V30 5124 C 479.847 -2.97611 1.57891 0
M  V30 5125 O 480.377 -3.89629 0.97735 0
M  V30 5126 N 478.583 -2.59905 1.29992 0
M  V30 5127 H 478.13 -1.85154 1.79097 0
M  V30 5128 H 478.088 -3.08932 0.583798 0
M  V30 5129 N 481.861 -1.55662 -0.24637 0
M  V30 5130 C 482.809 -1.91186 -1.3248 0
M  V30 5131 C 483.803 -0.790996 -1.49799 0
M  V30 5132 O 485.009 -0.975617 -1.51267 0
M  V30 5133 H 481.384 -0.607207 -0.443626 0
M  V30 5134 H 483.355 -2.81221 -0.997853 0
M  V30 5135 C 482.104 -2.22349 -2.67313 0
M  V30 5136 H 481.427 -3.08097 -2.54786 0
M  V30 5137 H 482.867 -2.51107 -3.41645 0
M  V30 5138 C 481.326 -1.04001 -3.20446 0
M  V30 5139 O 481.856 -0.28828 -4.00664 0
M  V30 5140 N 480.062 -0.830494 -2.7848 0
M  V30 5141 H 479.609 -1.4435 -2.13356 0
M  V30 5142 H 479.567 -0.0403258 -3.14374 0
M  V30 5143 N 483.339 0.512053 -1.4905 0
M  V30 5144 C 484.567 1.29116 -1.61669 0
M  V30 5145 C 484.982 1.86655 -0.283787 0
M  V30 5146 O 484.339 1.67293 0.729331 0
M  V30 5147 C 484.39 2.4293 -2.67707 0
M  V30 5148 O 484.111 1.87758 -3.95826 0
M  V30 5149 C 485.612 3.34476 -2.90931 0
M  V30 5150 H 482.832 0.392009 -0.544583 0
M  V30 5151 H 485.376 0.615881 -1.95006 0
M  V30 5152 H 483.531 3.06308 -2.37179 0
M  V30 5153 H 483.945 2.62393 -4.54148 0
M  V30 5154 H 485.419 4.10642 -3.68886 0
M  V30 5155 H 485.896 3.90801 -2.00427 0
M  V30 5156 H 486.502 2.76874 -3.22832 0
M  V30 5157 N 484.817 1.37938 0.762283 0
M  V30 5158 C 486.063 1.33866 1.52341 0
M  V30 5159 C 486.396 -0.0738961 1.94059 0
M  V30 5160 O 485.671 -1.03326 1.64785 0
M  V30 5161 C 485.954 2.28644 2.78197 0
M  V30 5162 C 485.807 3.78722 2.42672 0
M  V30 5163 C 487.126 2.21702 3.80179 0
M  V30 5164 H 484.245 0.487593 0.55265 0
M  V30 5165 H 486.887 1.68717 0.873767 0
M  V30 5166 H 485.037 1.99055 3.33631 0
M  V30 5167 H 486.709 4.18948 1.93081 0
M  V30 5168 H 484.952 3.96827 1.75244 0
M  V30 5169 H 485.623 4.40486 3.3268 0
M  V30 5170 H 488.099 2.47805 3.34263 0
M  V30 5171 H 486.975 2.90143 4.65949 0
M  V30 5172 H 487.236 1.21301 4.25133 0
M  V30 5173 N 486.295 -0.989507 1.22664 0
M  V30 5174 C 487.225 -2.09847 1.02404 0
M  V30 5175 C 488.206 -1.70007 -0.0561303 0
M  V30 5176 O 489.391 -1.93906 0.106748 0
M  V30 5177 C 486.521 -3.41996 0.604663 0
M  V30 5178 C 485.475 -3.95699 1.63115 0
M  V30 5179 C 484.801 -5.23936 1.0675 0
M  V30 5180 C 486.101 -4.25999 3.02196 0
M  V30 5181 H 487.795 -2.27054 1.95158 0
M  V30 5182 H 485.341 -1.09111 0.939727 0
M  V30 5183 H 487.294 -4.1899 0.45002 0
M  V30 5184 H 486.018 -3.24626 -0.35855 0
M  V30 5185 H 484.677 -3.2084 1.77362 0
M  V30 5186 H 484.325 -5.02909 0.0955422 0
M  V30 5187 H 484.025 -5.60833 1.75328 0
M  V30 5188 H 485.549 -6.0356 0.924516 0
M  V30 5189 H 486.963 -4.93777 2.91303 0
M  V30 5190 H 485.36 -4.74076 3.67929 0
M  V30 5191 H 486.43 -3.33636 3.51873 0
M  V30 5192 N 487.773 -1.03688 -1.18687 0
M  V30 5193 C 489.02 -0.73803 -1.88572 0
M  V30 5194 C 489.348 0.733973 -1.8012 0
M  V30 5195 O 488.603 1.55098 -1.19344 0
M  V30 5196 C 488.902 -1.14477 -3.3857 0
M  V30 5197 C 488.568 -2.61641 -3.67226 0
M  V30 5198 C 487.23 -3.01846 -3.74757 0
M  V30 5199 C 489.582 -3.56812 -3.79914 0
M  V30 5200 C 486.91 -4.36118 -3.92451 0
M  V30 5201 C 489.262 -4.90799 -3.99123 0
M  V30 5202 C 487.926 -5.3068 -4.04888 0
M  V30 5203 H 487.196 -0.270064 -0.690034 0
M  V30 5204 H 489.843 -1.3012 -1.40503 0
M  V30 5205 H 488.148 -0.500337 -3.88592 0
M  V30 5206 H 489.845 -0.89095 -3.90977 0
M  V30 5207 H 486.435 -2.29498 -3.61979 0
M  V30 5208 H 490.619 -3.26899 -3.73431 0
M  V30 5209 H 485.875 -4.66542 -3.95157 0
M  V30 5210 H 490.049 -5.64451 -4.07882 0
M  V30 5211 H 487.676 -6.34733 -4.18351 0
M  V30 5212 N 489.251 1.34841 -0.815825 0
M  V30 5213 C 490.161 2.33425 -0.234462 0
M  V30 5214 C 491.177 1.62295 0.627413 0
M  V30 5215 O 492.353 1.94109 0.536987 0
M  V30 5216 C 489.418 3.41471 0.599849 0
M  V30 5217 C 488.479 4.28362 -0.283596 0
M  V30 5218 C 487.712 5.31248 0.51099 0
M  V30 5219 O 487.935 5.43056 1.7449 0
M  V30 5220 O 486.869 6.01812 -0.10297 0
M  V30 5221 H 490.695 2.84962 -1.05024 0
M  V30 5222 H 488.28 1.37774 -0.577809 0
M  V30 5223 H 490.162 4.07464 1.07475 0
M  V30 5224 H 488.837 2.9219 1.39308 0
M  V30 5225 H 487.744 3.65318 -0.805836 0
M  V30 5226 H 489.077 4.81066 -1.041 0
M  V30 5227 N 490.729 0.570148 1.46925 0
M  V30 5228 C 491.977 0.0508523 2.02036 0
M  V30 5229 C 492.298 -1.30885 1.44548 0
M  V30 5230 O 491.568 -1.85647 0.625453 0
M  V30 5231 H 490.148 0.0158088 0.746833 0
M  V30 5232 H 492.81 0.743086 1.80178 0
M  V30 5233 H 491.906 -0.027575 3.12088 0
M  V30 5234 N 492.207 -1.54576 0.307264 0
M  V30 5235 C 493.154 -2.23751 -0.56604 0
M  V30 5236 C 494.124 -1.22235 -1.12462 0
M  V30 5237 O 495.309 -1.50873 -1.16799 0
M  V30 5238 C 492.449 -2.98661 -1.72903 0
M  V30 5239 C 491.562 -4.14963 -1.20124 0
M  V30 5240 C 490.697 -4.77441 -2.3286 0
M  V30 5241 C 489.736 -5.85875 -1.77247 0
M  V30 5242 N 488.873 -6.42282 -2.8358 0
M  V30 5243 H 493.713 -2.97984 0.0304578 0
M  V30 5244 H 491.25 -1.47076 0.0268015 0
M  V30 5245 H 493.208 -3.40329 -2.41313 0
M  V30 5246 H 491.838 -2.26793 -2.29706 0
M  V30 5247 H 490.89 -3.78193 -0.409198 0
M  V30 5248 H 492.202 -4.93066 -0.754171 0
M  V30 5249 H 491.356 -5.21993 -3.09205 0
M  V30 5250 H 490.095 -3.98684 -2.80896 0
M  V30 5251 H 489.1 -5.40741 -0.993926 0
M  V30 5252 H 490.325 -6.6652 -1.30107 0
M  V30 5253 H 488.271 -5.66406 -3.30939 0
M  V30 5254 H 488.188 -7.1575 -2.43388 0
M  V30 5255 H 489.456 -6.91492 -3.59804 0
M  V30 5256 N 493.685 -0.035106 -1.57561 0
M  V30 5257 C 494.915 0.651312 -1.96065 0
M  V30 5258 C 495.323 1.6585 -0.910514 0
M  V30 5259 O 494.666 1.83336 0.11552 0
M  V30 5260 C 494.728 1.40897 -3.30739 0
M  V30 5261 C 494.392 0.559436 -4.53563 0
M  V30 5262 C 495.389 -0.16778 -5.19629 0
M  V30 5263 C 493.074 0.495079 -4.99854 0
M  V30 5264 C 495.068 -0.947963 -6.30311 0
M  V30 5265 C 492.755 -0.288804 -6.10417 0
M  V30 5266 C 493.753 -1.00903 -6.75505 0
M  V30 5267 O 493.441 -1.78005 -7.83945 0
M  V30 5268 H 493.173 0.184036 -0.650467 0
M  V30 5269 H 495.727 -0.0929677 -2.05189 0
M  V30 5270 H 493.957 2.19852 -3.18123 0
M  V30 5271 H 495.646 1.98407 -3.54104 0
M  V30 5272 H 496.412 -0.12743 -4.84833 0
M  V30 5273 H 492.291 1.04524 -4.48994 0
M  V30 5274 H 495.835 -1.51064 -6.81047 0
M  V30 5275 H 491.732 -0.33085 -6.44652 0
M  V30 5276 H 492.5 -1.70046 -8.00641 0
M  V30 5277 N 495.163 1.55791 0.238111 0
M  V30 5278 C 496.411 1.77681 0.963001 0
M  V30 5279 C 496.732 0.600674 1.85518 0
M  V30 5280 O 496.002 -0.383182 1.92116 0
M  V30 5281 H 494.582 0.655315 0.358568 0
M  V30 5282 H 497.244 1.93239 0.253945 0
M  V30 5283 H 496.34 2.69177 1.57956 0
M  V30 5284 N 496.642 -0.504142 1.49319 0
M  V30 5285 C 497.89 -1.25598 1.58334 0
M  V30 5286 C 498.211 -1.93114 0.270538 0
M  V30 5287 O 497.481 -1.82585 -0.709891 0
M  V30 5288 H 496.061 -0.466571 0.58337 0
M  V30 5289 H 498.723 -0.584547 1.85928 0
M  V30 5290 H 497.819 -2.02159 2.37778 0
M  V30 5291 N 498.12 -1.38341 -0.754957 0
M  V30 5292 C 499.053 -1.29837 -1.87663 0
M  V30 5293 C 500.031 -0.175659 -1.61648 0
M  V30 5294 O 501.215 -0.352745 -1.8517 0
M  V30 5295 C 498.342 -1.01141 -3.23246 0
M  V30 5296 C 497.388 -2.15331 -3.6815 0
M  V30 5297 S 498.221 -3.77459 -3.79849 0
M  V30 5298 C 499.377 -3.50948 -5.18253 0
M  V30 5299 H 499.61 -2.24771 -1.9459 0
M  V30 5300 H 497.143 -1.24161 -0.917796 0
M  V30 5301 H 499.101 -0.852687 -4.01546 0
M  V30 5302 H 497.762 -0.0792784 -3.14 0
M  V30 5303 H 496.955 -1.90795 -4.6649 0
M  V30 5304 H 496.557 -2.27304 -2.97 0
M  V30 5305 H 498.849 -3.06977 -6.03963 0
M  V30 5306 H 499.792 -4.48677 -5.47809 0
M  V30 5307 H 500.2 -2.85492 -4.86985 0
M  V30 5308 N 499.598 0.982988 -1.23187 0
M  V30 5309 C 500.53 2.07729 -0.968572 0
M  V30 5310 C 501.543 1.62702 0.0564821 0
M  V30 5311 O 502.732 1.77603 -0.178733 0
M  V30 5312 C 499.832 3.36071 -0.436974 0
M  V30 5313 C 499.005 4.10081 -1.52159 0
M  V30 5314 C 498.064 5.16701 -0.99532 0
M  V30 5315 O 497.09 5.43727 -1.68373 0
M  V30 5316 N 498.292 5.80226 0.178192 0
M  V30 5317 H 501.057 2.30894 -1.9107 0
M  V30 5318 H 498.618 1.14949 -1.1401 0
M  V30 5319 H 500.61 4.04639 -0.0700051 0
M  V30 5320 H 499.18 3.09893 0.410509 0
M  V30 5321 H 498.4 3.36004 -2.06144 0
M  V30 5322 H 499.688 4.56295 -2.25105 0
M  V30 5323 H 499.086 5.60651 0.754096 0
M  V30 5324 H 497.643 6.49982 0.486449 0
M  V30 5325 N 501.076 1.04316 1.18135 0
M  V30 5326 C 502.009 0.580823 2.20685 0
M  V30 5327 C 502.987 -0.385943 1.57953 0
M  V30 5328 O 504.171 -0.299654 1.86103 0
M  V30 5329 C 501.298 -0.151162 3.38363 0
M  V30 5330 C 500.344 0.769247 4.19505 0
M  V30 5331 S 501.177 2.25352 4.85774 0
M  V30 5332 C 502.333 1.53246 6.0685 0
M  V30 5333 H 502.566 1.44968 2.5956 0
M  V30 5334 H 500.099 0.85434 1.28609 0
M  V30 5335 H 502.057 -0.567315 4.06561 0
M  V30 5336 H 500.718 -0.995936 2.97892 0
M  V30 5337 H 499.911 0.203335 5.0359 0
M  V30 5338 H 499.513 1.12436 3.56699 0
M  V30 5339 H 501.805 0.82689 6.72435 0
M  V30 5340 H 502.748 2.35044 6.67952 0
M  V30 5341 H 503.156 1.0237 5.5514 0
M  V30 5342 N 502.554 -1.34406 0.822964 0
M  V30 5343 C 503.801 -1.98284 0.411057 0
M  V30 5344 C 504.129 -1.65245 -1.02588 0
M  V30 5345 O 503.384 -0.91619 -1.72929 0
M  V30 5346 C 503.683 -3.52981 0.560268 0
M  V30 5347 C 503.349 -4.05931 1.96293 0
M  V30 5348 C 502.011 -4.20103 2.34664 0
M  V30 5349 C 504.363 -4.34412 2.87985 0
M  V30 5350 C 501.691 -4.60082 3.64062 0
M  V30 5351 C 504.043 -4.75838 4.16847 0
M  V30 5352 C 502.707 -4.88215 4.55195 0
M  V30 5353 H 501.977 -0.725573 0.150416 0
M  V30 5354 H 504.624 -1.60349 1.04692 0
M  V30 5355 H 502.929 -3.91477 -0.158982 0
M  V30 5356 H 504.626 -4.00385 0.222087 0
M  V30 5357 H 501.216 -3.95363 1.65487 0
M  V30 5358 H 505.4 -4.23001 2.59584 0
M  V30 5359 H 500.656 -4.67856 3.93599 0
M  V30 5360 H 504.83 -4.96834 4.87984 0
M  V30 5361 H 502.457 -5.18952 5.55512 0
M  V30 5362 N 504.032 -0.577932 -1.46621 0
M  V30 5363 C 504.979 0.158048 -2.30258 0
M  V30 5364 C 505.949 0.888669 -1.40328 0
M  V30 5365 O 507.134 0.880283 -1.6928 0
M  V30 5366 C 504.274 1.16884 -3.24703 0
M  V30 5367 C 503.387 0.442163 -4.29731 0
M  V30 5368 C 502.522 1.44007 -5.11308 0
M  V30 5369 C 501.561 0.69952 -6.0809 0
M  V30 5370 N 500.698 1.64525 -6.82551 0
M  V30 5371 H 505.538 -0.561242 -2.92667 0
M  V30 5372 H 503.075 -0.288591 -1.44241 0
M  V30 5373 H 505.033 1.7677 -3.779 0
M  V30 5374 H 503.663 1.85591 -2.64113 0
M  V30 5375 H 502.715 -0.271632 -3.79429 0
M  V30 5376 H 504.027 -0.136992 -4.98612 0
M  V30 5377 H 503.181 2.11186 -5.68758 0
M  V30 5378 H 501.92 2.05315 -4.42377 0
M  V30 5379 H 500.925 0.0139217 -5.49798 0
M  V30 5380 H 502.15 0.091894 -6.79038 0
M  V30 5381 H 500.096 2.24653 -6.16334 0
M  V30 5382 H 500.013 1.11878 -7.47676 0
M  V30 5383 H 501.281 2.30754 -7.44562 0
M  V30 5384 N 505.51 1.54411 -0.315457 0
M  V30 5385 C 506.473 2.22713 0.54142 0
M  V30 5386 C 507.473 1.2179 1.04995 0
M  V30 5387 O 508.663 1.46426 0.943667 0
M  V30 5388 C 505.795 2.92485 1.75116 0
M  V30 5389 H 506.988 2.99849 -0.0555508 0
M  V30 5390 H 504.541 1.56159 -0.0664453 0
M  V30 5391 H 505.276 2.19466 2.38758 0
M  V30 5392 H 505.061 3.66483 1.39401 0
M  V30 5393 H 506.551 3.44548 2.35959 0
M  V30 5394 N 506.988 0.0434614 1.5754 0
M  V30 5395 C 507.918 -0.931651 2.14109 0
M  V30 5396 C 508.899 -1.32971 1.06079 0
M  V30 5397 O 510.084 -1.40579 1.33982 0
M  V30 5398 C 507.214 -2.20914 2.67982 0
M  V30 5399 C 506.168 -1.95139 3.80926 0
M  V30 5400 C 505.494 -3.29276 4.21285 0
M  V30 5401 C 506.794 -1.27913 5.06395 0
M  V30 5402 H 508.488 -0.460497 2.95837 0
M  V30 5403 H 506.034 -0.220058 1.42309 0
M  V30 5404 H 507.987 -2.89522 3.06194 0
M  V30 5405 H 506.711 -2.70221 1.83434 0
M  V30 5406 H 505.37 -1.28945 3.43175 0
M  V30 5407 H 505.018 -3.76369 3.33699 0
M  V30 5408 H 504.718 -3.12831 4.97404 0
M  V30 5409 H 506.242 -3.99129 4.62091 0
M  V30 5410 H 507.656 -1.86544 5.42102 0
M  V30 5411 H 506.053 -1.2182 5.87605 0
M  V30 5412 H 507.123 -0.254066 4.84234 0
M  V30 5413 N 508.466 -1.55915 -0.229846 0
M  V30 5414 C 509.714 -1.7819 -0.953565 0
M  V30 5415 C 510.035 -0.610504 -1.85197 0
M  V30 5416 O 509.305 0.372988 -1.92316 0
M  V30 5417 H 507.885 -0.657208 -0.355087 0
M  V30 5418 H 510.547 -1.9337 -0.243693 0
M  V30 5419 H 509.643 -2.70011 -1.56527 0
M  V30 5420 N 509.944 0.496216 -1.49584 0
M  V30 5421 C 511.169 1.27865 -1.63295 0
M  V30 5422 C 511.594 1.85592 -0.306156 0
M  V30 5423 O 510.952 1.66092 0.726851 0
M  V30 5424 C 511 2.38128 -2.7079 0
M  V30 5425 O 510.104 3.42108 -2.30296 0
M  V30 5426 H 509.445 0.377279 -0.546403 0
M  V30 5427 H 511.975 0.593497 -1.95803 0
M  V30 5428 H 511.985 2.8382 -2.93104 0
M  V30 5429 H 510.66 1.95479 -3.67098 0
M  V30 5430 H 509.237 3.02301 -2.18331 0
M  V30 5431 N 511.423 1.38739 0.74761 0
M  V30 5432 C 512.7 1.25791 1.49786 0
M  V30 5433 C 513.08 -0.138075 2.10648 0
M  V30 5434 O 512.428 -1.14815 1.9756 0
M  V30 5435 C 512.638 2.37265 2.55942 0
M  V30 5436 C 513.986 2.75978 3.22679 0
M  V30 5437 O 515.01 2.36621 2.6625 0
M  V30 5438 O 513.869 3.43867 4.24756 0
M  V30 5439 H 510.963 0.492251 0.664543 0
M  V30 5440 H 513.509 1.50582 0.782511 0
M  V30 5441 H 512.281 3.30644 2.0926 0
M  V30 5442 H 511.904 2.14071 3.35051 0
M  V30 5443 N 512.901 -0.976442 1.23707 0
M  V30 5444 C 514.178 -1.69296 0.979699 0
M  V30 5445 C 514.558 -2.0508 -0.500555 0
M  V30 5446 O 513.906 -1.74708 -1.47273 0
M  V30 5447 C 514.116 -2.93143 1.89389 0
M  V30 5448 C 515.464 -3.65572 2.15968 0
M  V30 5449 O 516.488 -3.03184 1.86971 0
M  V30 5450 O 515.347 -4.77859 2.65167 0
M  V30 5451 H 512.441 -0.739708 0.369812 0
M  V30 5452 H 514.987 -1.03131 1.34767 0
M  V30 5453 H 513.759 -2.63327 2.89439 0
M  V30 5454 H 513.382 -3.67044 1.52854 0
M  V30 5455 N 514.379 -1.04941 -1.1758 0
M  V30 5456 C 515.309 -0.669172 -2.23706 0
M  V30 5457 C 516.29 0.331835 -1.66832 0
M  V30 5458 O 517.475 0.209988 -1.93061 0
M  V30 5459 C 514.605 -0.0404889 -3.47276 0
M  V30 5460 C 513.559 -0.965983 -4.16957 0
M  V30 5461 C 512.885 -0.201312 -5.34321 0
M  V30 5462 C 514.185 -2.28902 -4.69469 0
M  V30 5463 H 515.879 -1.55639 -2.55767 0
M  V30 5464 H 513.425 -0.749793 -1.22939 0
M  V30 5465 H 515.378 0.237298 -4.20731 0
M  V30 5466 H 514.102 0.881658 -3.14475 0
M  V30 5467 H 512.761 -1.22829 -3.45411 0
M  V30 5468 H 512.409 0.723519 -4.97769 0
M  V30 5469 H 512.109 -0.817968 -5.81879 0
M  V30 5470 H 513.633 0.0692499 -6.10561 0
M  V30 5471 H 515.047 -2.07132 -5.34574 0
M  V30 5472 H 513.444 -2.85942 -5.27596 0
M  V30 5473 H 514.514 -2.92937 -3.86414 0
M  V30 5474 N 515.857 1.33968 -0.830081 0
M  V30 5475 C 517.103 1.98357 -0.422191 0
M  V30 5476 C 517.436 1.65633 1.01387 0
M  V30 5477 O 516.711 0.931648 1.70735 0
M  V30 5478 C 516.994 3.54492 -0.633043 0
M  V30 5479 C 516.847 3.96934 -2.11574 0
M  V30 5480 C 518.166 4.40039 -0.0735584 0
M  V30 5481 H 515.285 0.720544 -0.154871 0
M  V30 5482 H 517.927 1.58749 -1.04397 0
M  V30 5483 H 516.077 3.88361 -0.103775 0
M  V30 5484 H 517.749 3.73363 -2.7092 0
M  V30 5485 H 515.992 3.46984 -2.60354 0
M  V30 5486 H 516.663 5.05651 -2.21406 0
M  V30 5487 H 519.139 4.12764 -0.52585 0
M  V30 5488 H 518.015 5.48327 -0.250841 0
M  V30 5489 H 518.276 4.30124 1.02202 0
M  V30 5490 N 517.335 0.585699 1.46312 0
M  V30 5491 C 518.283 -0.158577 2.32059 0
M  V30 5492 C 519.277 -0.881427 1.44662 0
M  V30 5493 O 520.483 -0.799476 1.61271 0
M  V30 5494 H 516.858 -0.0700066 0.748734 0
M  V30 5495 H 518.829 0.583383 2.92642 0
M  V30 5496 C 517.578 -1.15701 3.27885 0
M  V30 5497 H 516.901 -0.610215 3.95116 0
M  V30 5498 H 518.341 -1.64812 3.90657 0
M  V30 5499 C 516.8 -2.21951 2.53455 0
M  V30 5500 O 517.33 -3.29352 2.29978 0
M  V30 5501 N 515.536 -1.9664 2.13965 0
M  V30 5502 H 515.083 -1.09309 2.33258 0
M  V30 5503 H 515.041 -2.6794 1.64485 0
M  V30 5504 N 518.813 -1.54241 0.323641 0
M  V30 5505 C 519.723 -2.28033 -0.551205 0
M  V30 5506 C 520.739 -1.32388 -1.12913 0
M  V30 5507 O 521.915 -1.65403 -1.14908 0
M  V30 5508 C 518.98 -3.02382 -1.69606 0
M  V30 5509 C 518.041 -4.13612 -1.14993 0
M  V30 5510 C 517.274 -4.84407 -2.24022 0
M  V30 5511 O 517.497 -4.54716 -3.44368 0
M  V30 5512 O 516.431 -5.71312 -1.89436 0
M  V30 5513 H 520.257 -3.03662 0.048066 0
M  V30 5514 H 517.842 -1.49133 0.0893289 0
M  V30 5515 H 519.724 -3.48941 -2.36259 0
M  V30 5516 H 518.399 -2.29628 -2.28151 0
M  V30 5517 H 517.306 -3.71402 -0.448484 0
M  V30 5518 H 518.639 -4.8841 -0.609608 0
M  V30 5519 N 520.291 -0.0518155 -1.57515 0
M  V30 5520 C 521.254 0.907547 -2.10467 0
M  V30 5521 C 522.254 1.23947 -1.02439 0
M  V30 5522 O 523.444 1.17604 -1.2851 0
M  V30 5523 C 520.576 2.21723 -2.58944 0
M  V30 5524 H 521.769 0.44851 -2.96527 0
M  V30 5525 H 519.322 0.196598 -1.55059 0
M  V30 5526 H 520.057 2.72206 -1.76279 0
M  V30 5527 H 519.842 1.98935 -3.37886 0
M  V30 5528 H 521.332 2.90441 -3.00056 0
M  V30 5529 N 521.769 1.56035 0.221574 0
M  V30 5530 C 523.016 1.79047 0.94597 0
M  V30 5531 C 523.344 0.62057 1.84334 0
M  V30 5532 O 522.599 -0.395053 1.91671 0
M  V30 5533 C 522.898 3.07813 1.8162 0
M  V30 5534 C 522.564 4.3797 1.07206 0
M  V30 5535 C 521.226 4.73334 0.866508 0
M  V30 5536 C 523.578 5.18326 0.546565 0
M  V30 5537 C 520.906 5.8657 0.123549 0
M  V30 5538 C 523.258 6.32335 -0.18305 0
M  V30 5539 C 521.922 6.66301 -0.399861 0
M  V30 5540 H 521.192 0.655178 0.346155 0
M  V30 5541 H 523.839 1.90299 0.214146 0
M  V30 5542 H 522.144 2.91682 2.61589 0
M  V30 5543 H 523.841 3.2282 2.37884 0
M  V30 5544 H 520.431 4.10202 1.24226 0
M  V30 5545 H 524.615 4.9144 0.692847 0
M  V30 5546 H 519.871 6.11376 -0.0546591 0
M  V30 5547 H 524.045 6.9383 -0.59775 0
M  V30 5548 H 521.672 7.53889 -0.977489 0
M  V30 5549 N 523.247 -0.488276 1.49845 0
M  V30 5550 C 524.524 -1.24959 1.50481 0
M  V30 5551 C 524.904 -2.09735 0.239698 0
M  V30 5552 O 524.252 -2.14865 -0.777524 0
M  V30 5553 C 524.462 -2.0954 2.79095 0
M  V30 5554 C 525.81 -2.68305 3.29086 0
M  V30 5555 O 526.834 -2.19797 2.80299 0
M  V30 5556 O 525.693 -3.56643 4.14087 0
M  V30 5557 H 522.787 -0.566133 0.602845 0
M  V30 5558 H 525.333 -0.501504 1.6212 0
M  V30 5559 H 524.105 -1.46958 3.62656 0
M  V30 5560 H 523.728 -2.91517 2.70377 0
M  V30 5561 N 524.725 -1.39134 -0.740242 0
M  V30 5562 C 525.972 -1.36071 -1.49969 0
M  V30 5563 C 526.3 0.0450245 -1.94448 0
M  V30 5564 O 525.555 1.02482 -1.66721 0
M  V30 5565 C 525.854 -2.27457 -2.75678 0
M  V30 5566 C 525.52 -3.75185 -2.50094 0
M  V30 5567 C 524.182 -4.15439 -2.42825 0
M  V30 5568 C 526.534 -4.68643 -2.28086 0
M  V30 5569 C 523.862 -5.4722 -2.11584 0
M  V30 5570 C 526.214 -6.00695 -1.98363 0
M  V30 5571 C 524.878 -6.40018 -1.8956 0
M  V30 5572 H 524.148 -0.497921 -0.548777 0
M  V30 5573 H 526.795 -1.71599 -0.85007 0
M  V30 5574 H 525.1 -1.8503 -3.45356 0
M  V30 5575 H 526.797 -2.22384 -3.33686 0
M  V30 5576 H 523.387 -3.43279 -2.56627 0
M  V30 5577 H 527.571 -4.3838 -2.32672 0
M  V30 5578 H 522.827 -5.76615 -2.03287 0
M  V30 5579 H 527.001 -6.72644 -1.80341 0
M  V30 5580 H 524.628 -7.42051 -1.65117 0
M  V30 5581 N 526.204 0.969867 -1.24223 0
M  V30 5582 C 527.167 2.04564 -1.03373 0
M  V30 5583 C 528.167 1.60798 0.00819206 0
M  V30 5584 O 529.357 1.72641 -0.232567 0
M  V30 5585 C 526.489 3.36163 -0.566343 0
M  V30 5586 H 527.682 2.24494 -1.98853 0
M  V30 5587 H 525.235 1.1448 -1.06415 0
M  V30 5588 H 525.97 3.21925 0.391751 0
M  V30 5589 H 525.755 3.69273 -1.31834 0
M  V30 5590 H 527.245 4.1526 -0.441435 0
M  V30 5591 N 527.682 1.05563 1.17022 0
M  V30 5592 C 528.629 0.659893 2.21165 0
M  V30 5593 C 529.599 -0.339813 1.62587 0
M  V30 5594 O 530.784 -0.230378 1.89404 0
M  V30 5595 C 527.924 0.0447297 3.45071 0
M  V30 5596 C 527.037 1.09372 4.17926 0
M  V30 5597 C 526.172 0.445481 5.29329 0
M  V30 5598 C 525.211 1.47852 5.93975 0
M  V30 5599 N 524.348 0.854172 6.96885 0
M  V30 5600 H 529.188 1.55243 2.54369 0
M  V30 5601 H 526.725 0.776336 1.24946 0
M  V30 5602 H 528.683 -0.329404 4.15898 0
M  V30 5603 H 527.313 -0.811244 3.1244 0
M  V30 5604 H 526.365 1.58564 3.45777 0
M  V30 5605 H 527.677 1.87773 4.62107 0
M  V30 5606 H 526.831 0.0179688 6.06697 0
M  V30 5607 H 525.57 -0.370481 4.86291 0
M  V30 5608 H 524.575 1.91601 5.15334 0
M  V30 5609 H 525.8 2.29645 6.39093 0
M  V30 5610 H 523.746 0.0587882 6.55974 0
M  V30 5611 H 523.663 1.57567 7.39397 0
M  V30 5612 H 524.931 0.451559 7.78191 0
M  V30 5613 N 529.16 -1.33526 0.837174 0
M  V30 5614 C 530.108 -2.31168 0.257698 0
M  V30 5615 C 531.102 -1.5806 -0.609388 0
M  V30 5616 O 532.308 -1.72941 -0.499139 0
M  V30 5617 H 528.683 -0.74922 0.0646058 0
M  V30 5618 H 530.654 -2.77552 1.09578 0
M  V30 5619 C 529.403 -3.4326 -0.553887 0
M  V30 5620 H 528.726 -3.99665 0.104008 0
M  V30 5621 H 530.166 -4.13782 -0.925219 0
M  V30 5622 C 528.625 -2.88965 -1.73207 0
M  V30 5623 O 529.155 -2.85013 -2.83073 0
M  V30 5624 N 527.361 -2.45596 -1.55342 0
M  V30 5625 H 526.908 -2.49009 -0.659705 0
M  V30 5626 H 526.866 -2.0962 -2.34322 0
M  V30 5627 N 530.638 -0.59345 -1.46 0
M  V30 5628 C 531.568 0.121192 -2.33185 0
M  V30 5629 C 532.549 0.872977 -1.4599 0
M  V30 5630 O 533.734 0.846321 -1.74789 0
M  V30 5631 C 530.864 1.12844 -3.28456 0
M  V30 5632 C 529.818 0.4908 -4.25177 0
M  V30 5633 C 529.144 1.60529 -5.10034 0
M  V30 5634 C 530.444 -0.578949 -5.19081 0
M  V30 5635 H 532.138 -0.606767 -2.93187 0
M  V30 5636 H 529.684 -0.293242 -1.40983 0
M  V30 5637 H 531.637 1.63684 -3.88311 0
M  V30 5638 H 530.361 1.88681 -2.66584 0
M  V30 5639 H 529.02 0.00339328 -3.666 0
M  V30 5640 H 528.668 2.35359 -4.44539 0
M  V30 5641 H 528.368 1.18422 -5.75543 0
M  V30 5642 H 529.892 2.11623 -5.72755 0
M  V30 5643 H 531.306 -0.155199 -5.7309 0
M  V30 5644 H 529.703 -0.920947 -5.92991 0
M  V30 5645 H 530.773 -1.46109 -4.62364 0
M  V30 5646 N 532.116 1.54067 -0.331816 0
M  V30 5647 C 533.356 2.02625 0.26876 0
M  V30 5648 C 533.72 1.21462 1.48697 0
M  V30 5649 O 534.921 1.59863 2.16096 0
M  V30 5650 C 533.192 3.52554 0.586577 0
M  V30 5651 S 534.751 4.23035 1.16563 0
M  V30 5652 H 531.569 0.706395 0.0807862 0
M  V30 5653 H 534.171 1.89844 -0.466856 0
M  V30 5654 H 532.875 4.09242 -0.308046 0
M  V30 5655 H 532.406 3.69432 1.35217 0
M  V30 5656 H 534.421 4.31382 2.45203 0
M  V30 5657 N 533.594 0.0601682 1.57485 0
M  V30 5658 C 534.819 -0.624416 1.97777 0
M  V30 5659 C 535.244 -1.63051 0.937867 0
M  V30 5660 O 534.602 -1.81036 -0.0978845 0
M  V30 5661 C 534.65 -1.27979 3.37126 0
M  V30 5662 O 533.754 -2.39556 3.35688 0
M  V30 5663 H 533.095 -0.161581 0.64404 0
M  V30 5664 H 535.625 0.131237 2.04179 0
M  V30 5665 H 535.635 -1.62937 3.74053 0
M  V30 5666 H 534.31 -0.542501 4.12347 0
M  V30 5667 H 532.887 -2.06478 3.10517 0
M  V30 5668 N 535.072 -1.5615 -0.213296 0
M  V30 5669 C 536.002 -1.96109 -1.26742 0
M  V30 5670 C 536.983 -0.830448 -1.48451 0
M  V30 5671 O 538.168 -1.09339 -1.60495 0
M  V30 5672 C 535.298 -2.28492 -2.61551 0
M  V30 5673 C 534.252 -3.44124 -2.54485 0
M  V30 5674 C 533.578 -3.62134 -3.93399 0
M  V30 5675 C 534.878 -4.78855 -2.08556 0
M  V30 5676 H 536.572 -2.84412 -0.935434 0
M  V30 5677 H 534.118 -1.36836 -0.44854 0
M  V30 5678 H 536.071 -2.55039 -3.3546 0
M  V30 5679 H 534.795 -1.37052 -2.96453 0
M  V30 5680 H 533.454 -3.17639 -1.83033 0
M  V30 5681 H 533.102 -2.68055 -4.25623 0
M  V30 5682 H 532.802 -4.39913 -3.89551 0
M  V30 5683 H 534.326 -3.91038 -4.68958 0
M  V30 5684 H 535.74 -5.04552 -2.72213 0
M  V30 5685 H 534.137 -5.59975 -2.1575 0
M  V30 5686 H 535.207 -4.73657 -1.03811 0
M  V30 5687 N 536.55 0.480323 -1.50102 0
M  V30 5688 C 537.482 1.59669 -1.64433 0
M  V30 5689 C 538.495 1.54063 -0.52615 0
M  V30 5690 O 539.684 1.59619 -0.798992 0
M  V30 5691 C 536.784 2.98527 -1.6042 0
M  V30 5692 C 535.957 3.291 -2.88117 0
M  V30 5693 C 535.016 4.47468 -2.76873 0
M  V30 5694 O 534.042 4.4823 -3.50825 0
M  V30 5695 N 535.244 5.48593 -1.89806 0
M  V30 5696 H 538.009 1.47795 -2.60723 0
M  V30 5697 H 535.57 0.66858 -1.4745 0
M  V30 5698 H 537.562 3.75666 -1.50523 0
M  V30 5699 H 536.132 3.04218 -0.719036 0
M  V30 5700 H 535.352 2.40662 -3.12211 0
M  V30 5701 H 536.64 3.46334 -3.72734 0
M  V30 5702 H 536.038 5.50791 -1.2902 0
M  V30 5703 H 534.595 6.24752 -1.85819 0
M  V30 5704 N 538.028 1.39524 0.732853 0
M  V30 5705 C 538.958 1.41153 1.86005 0
M  V30 5706 C 539.939 0.274614 1.67869 0
M  V30 5707 O 541.124 0.480745 1.88155 0
M  V30 5708 C 538.254 1.25638 3.23778 0
M  V30 5709 C 537.208 2.36752 3.56556 0
M  V30 5710 C 536.534 2.06326 4.93289 0
M  V30 5711 C 537.834 3.79069 3.5931 0
M  V30 5712 H 539.528 2.35484 1.84899 0
M  V30 5713 H 537.074 1.13348 0.888162 0
M  V30 5714 H 539.027 1.25398 4.0231 0
M  V30 5715 H 537.751 0.277772 3.25417 0
M  V30 5716 H 536.41 2.36213 2.80355 0
M  V30 5717 H 536.058 1.06897 4.9151 0
M  V30 5718 H 535.758 2.80757 5.16187 0
M  V30 5719 H 537.282 2.07739 5.74175 0
M  V30 5720 H 538.696 3.81526 4.27914 0
M  V30 5721 H 537.093 4.52878 3.93728 0
M  V30 5722 H 538.163 4.09893 2.59068 0
M  V30 5723 N 539.506 -0.963266 1.24736 0
M  V30 5724 C 540.734 -1.74166 1.11686 0
M  V30 5725 C 541.149 -1.8589 -0.330187 0
M  V30 5726 O 540.506 -1.35042 -1.2276 0
M  V30 5727 C 540.557 -3.15989 1.75595 0
M  V30 5728 O 540.278 -3.04847 3.14642 0
M  V30 5729 C 541.779 -4.10145 1.68213 0
M  V30 5730 H 538.999 -0.546031 0.389989 0
M  V30 5731 H 541.543 -1.20907 1.64929 0
M  V30 5732 H 539.698 -3.66219 1.26343 0
M  V30 5733 H 540.112 -3.9425 3.4593 0
M  V30 5734 H 541.586 -5.07299 2.17604 0
M  V30 5735 H 542.063 -4.3445 0.644208 0
M  V30 5736 H 542.669 -3.65827 2.16912 0
M  V30 5737 N 540.985 -1.06182 -1.16461 0
M  V30 5738 C 541.895 -0.682671 -2.24448 0
M  V30 5739 C 542.911 0.30078 -1.71381 0
M  V30 5740 O 544.087 0.150376 -2.00838 0
M  V30 5741 C 541.152 -0.0737202 -3.46622 0
M  V30 5742 C 540.213 -1.10889 -4.14731 0
M  V30 5743 C 539.446 -0.528908 -5.31073 0
M  V30 5744 O 539.669 0.65868 -5.66584 0
M  V30 5745 O 538.603 -1.26805 -5.88391 0
M  V30 5746 H 542.429 -1.58291 -2.59187 0
M  V30 5747 H 540.014 -0.834013 -1.23954 0
M  V30 5748 H 541.896 0.264192 -4.20571 0
M  V30 5749 H 540.571 0.800015 -3.13658 0
M  V30 5750 H 539.478 -1.49896 -3.42756 0
M  V30 5751 H 540.811 -1.95412 -4.51747 0
M  V30 5752 N 542.463 1.3308 -0.844243 0
M  V30 5753 C 543.373 2.32876 -0.283922 0
M  V30 5754 C 544.389 1.63589 0.592846 0
M  V30 5755 O 545.565 1.95205 0.495693 0
M  V30 5756 C 542.63 3.42667 0.527283 0
M  V30 5757 C 541.691 4.27664 -0.374394 0
M  V30 5758 C 540.924 5.32212 0.39819 0
M  V30 5759 O 541.147 5.46635 1.62932 0
M  V30 5760 O 540.081 6.01458 -0.2306 0
M  V30 5761 H 543.907 2.82671 -1.11045 0
M  V30 5762 H 541.492 1.36518 -0.606903 0
M  V30 5763 H 543.374 4.09652 0.988078 0
M  V30 5764 H 542.049 2.95079 1.33078 0
M  V30 5765 H 540.956 3.63526 -0.883144 0
M  V30 5766 H 542.289 4.78749 -1.1428 0
M  V30 5767 N 543.941 0.601185 1.45683 0
M  V30 5768 C 544.851 -0.123395 2.34275 0
M  V30 5769 C 545.867 -0.86702 1.5086 0
M  V30 5770 O 547.043 -0.826049 1.8368 0
M  V30 5771 C 544.108 -1.11237 3.2837 0
M  V30 5772 C 543.169 -0.371405 4.2769 0
M  V30 5773 C 542.402 -1.31327 5.1729 0
M  V30 5774 O 542.625 -2.55078 5.10188 0
M  V30 5775 O 541.559 -0.813811 5.96373 0
M  V30 5776 H 545.385 0.604483 2.97623 0
M  V30 5777 H 542.97 0.361477 1.44961 0
M  V30 5778 H 544.852 -1.68214 3.8637 0
M  V30 5779 H 543.527 -1.82139 2.67595 0
M  V30 5780 H 542.434 0.24067 3.73325 0
M  V30 5781 H 543.767 0.296998 4.91303 0
M  V30 5782 N 545.419 -1.53889 0.339982 0
M  V30 5783 C 546.668 -2.00035 -0.258604 0
M  V30 5784 C 546.981 -1.23179 -1.51942 0
M  V30 5785 O 548.187 -1.59784 -2.19503 0
M  V30 5786 C 546.643 -3.56249 -0.511359 0
M  V30 5787 C 546.251 -4.41957 0.733349 0
M  V30 5788 C 547.995 -4.1082 -1.069 0
M  V30 5789 C 545.902 -5.89673 0.451591 0
M  V30 5790 H 544.832 -0.747284 -0.10041 0
M  V30 5791 H 547.483 -1.77776 0.454758 0
M  V30 5792 H 545.865 -3.7456 -1.28533 0
M  V30 5793 H 547.039 -4.35421 1.50815 0
M  V30 5794 H 545.354 -3.9836 1.21237 0
M  V30 5795 H 547.951 -5.18789 -1.2947 0
M  V30 5796 H 548.294 -3.63817 -2.02343 0
M  V30 5797 H 548.827 -3.96205 -0.355817 0
M  V30 5798 H 545.566 -6.40903 1.37565 0
M  V30 5799 H 545.086 -5.99122 -0.285193 0
M  V30 5800 H 546.765 -6.46965 0.0675067 0
M  V30 5801 N 546.897 -0.0685191 -1.57451 0
M  V30 5802 C 547.86 0.885173 -2.11417 0
M  V30 5803 C 548.86 1.22853 -1.03748 0
M  V30 5804 O 550.05 1.16235 -1.2975 0
M  V30 5805 C 547.182 2.18964 -2.61281 0
M  V30 5806 H 548.375 0.417034 -2.96986 0
M  V30 5807 H 545.928 0.18014 -1.55258 0
M  V30 5808 H 546.663 2.70321 -1.79156 0
M  V30 5809 H 546.448 1.9534 -3.39977 0
M  V30 5810 H 547.938 2.87242 -3.0312 0
M  V30 5811 N 548.375 1.56261 0.205012 0
M  V30 5812 C 549.305 1.96779 1.257 0
M  V30 5813 C 550.286 0.838309 1.48008 0
M  V30 5814 O 551.471 1.10189 1.59913 0
M  V30 5815 C 548.601 2.29876 2.60335 0
M  V30 5816 C 547.555 3.45469 2.52656 0
M  V30 5817 C 546.881 3.64215 3.91473 0
M  V30 5818 C 548.181 4.79954 2.06014 0
M  V30 5819 H 549.875 2.84904 0.920338 0
M  V30 5820 H 547.421 1.37072 0.441277 0
M  V30 5821 H 549.374 2.56814 3.34102 0
M  V30 5822 H 548.098 1.38622 2.95722 0
M  V30 5823 H 546.757 3.18605 1.81345 0
M  V30 5824 H 546.405 2.70309 4.24196 0
M  V30 5825 H 546.105 4.41973 3.87213 0
M  V30 5826 H 547.629 3.93519 4.66878 0
M  V30 5827 H 549.043 5.05989 2.69533 0
M  V30 5828 H 547.44 5.61111 2.12777 0
M  V30 5829 H 548.51 4.74201 1.01297 0
M  V30 5830 N 549.853 -0.472356 1.50355 0
M  V30 5831 C 551.1 -1.22453 1.61281 0
M  V30 5832 C 551.428 -1.91972 0.31256 0
M  V30 5833 O 550.683 -1.82696 -0.701475 0
M  V30 5834 C 550.982 -2.29257 2.74182 0
M  V30 5835 C 550.648 -1.76999 4.14708 0
M  V30 5836 C 549.31 -1.62467 4.52944 0
M  V30 5837 C 551.662 -1.38215 5.0254 0
M  V30 5838 C 548.99 -1.07574 5.76754 0
M  V30 5839 C 551.342 -0.847638 6.26895 0
M  V30 5840 C 550.006 -0.688946 6.63935 0
M  V30 5841 H 549.276 -0.448087 0.590168 0
M  V30 5842 H 551.923 -0.520744 1.84284 0
M  V30 5843 H 550.228 -3.05538 2.45263 0
M  V30 5844 H 551.925 -2.87212 2.7984 0
M  V30 5845 H 548.515 -1.89276 3.84542 0
M  V30 5846 H 552.699 -1.48276 4.73633 0
M  V30 5847 H 547.955 -0.940237 6.04127 0
M  V30 5848 H 552.129 -0.538455 6.94315 0
M  V30 5849 H 549.756 -0.261435 7.5975 0
M  V30 5850 N 551.331 -1.39911 -0.725443 0
M  V30 5851 C 552.556 -1.41137 -1.5197 0
M  V30 5852 C 552.981 -0.010262 -1.88097 0
M  V30 5853 O 552.339 0.979184 -1.52583 0
M  V30 5854 C 552.387 -2.2994 -2.77777 0
M  V30 5855 O 551.491 -1.73586 -3.74088 0
M  V30 5856 H 550.832 -0.480219 -0.458569 0
M  V30 5857 H 553.362 -1.84023 -0.894249 0
M  V30 5858 H 553.372 -2.44785 -3.26411 0
M  V30 5859 H 552.047 -3.31759 -2.50816 0
M  V30 5860 H 550.624 -1.68035 -3.32894 0
M  V30 5861 N 552.809 0.956637 -1.25245 0
M  V30 5862 C 554.034 1.74104 -1.12706 0
M  V30 5863 C 554.459 1.85436 0.315429 0
M  V30 5864 O 553.817 1.33334 1.22848 0
M  V30 5865 C 553.865 3.1338 -1.78396 0
M  V30 5866 O 552.969 3.98485 -1.06224 0
M  V30 5867 H 552.31 0.53476 -0.393609 0
M  V30 5868 H 554.84 1.19924 -1.65769 0
M  V30 5869 H 554.85 3.6385 -1.846 0
M  V30 5870 H 553.525 3.04448 -2.83345 0
M  V30 5871 H 552.102 3.56952 -1.07886 0
M  V30 5872 N 554.287 1.06798 1.15896 0
M  V30 5873 C 555.25 0.687328 2.18651 0
M  V30 5874 C 556.25 -0.269559 1.58524 0
M  V30 5875 O 557.44 -0.0512627 1.74125 0
M  V30 5876 C 554.572 0.0121642 3.40898 0
M  V30 5877 H 555.765 1.59701 2.53842 0
M  V30 5878 H 553.318 0.863828 1.3026 0
M  V30 5879 H 554.053 -0.910025 3.1127 0
M  V30 5880 H 553.838 0.700309 3.85795 0
M  V30 5881 H 555.328 -0.239703 4.16911 0
M  V30 5882 N 555.766 -1.3263 0.851289 0
M  V30 5883 C 557.012 -1.9766 0.453694 0
M  V30 5884 C 557.345 -1.67225 -0.987396 0
M  V30 5885 O 556.62 -0.958693 -1.69232 0
M  V30 5886 C 556.903 -3.5344 0.68936 0
M  V30 5887 C 556.756 -3.93517 2.17862 0
M  V30 5888 C 558.075 -4.39866 0.143555 0
M  V30 5889 H 555.194 -0.717989 0.166314 0
M  V30 5890 H 557.836 -1.57068 1.06909 0
M  V30 5891 H 555.986 -3.88147 0.165546 0
M  V30 5892 H 557.658 -3.69006 2.76826 0
M  V30 5893 H 555.901 -3.42798 2.65841 0
M  V30 5894 H 556.572 -5.02065 2.29422 0
M  V30 5895 H 559.048 -4.11875 0.591451 0
M  V30 5896 H 557.924 -5.47858 0.338043 0
M  V30 5897 H 558.185 -4.31696 -0.953466 0
M  V30 5898 N 557.244 -0.608902 -1.45362 0
M  V30 5899 C 558.174 0.0964526 -2.33301 0
M  V30 5900 C 559.155 0.857444 -1.46908 0
M  V30 5901 O 560.34 0.827735 -1.75676 0
M  V30 5902 C 557.47 1.09354 -3.29635 0
M  V30 5903 C 556.424 0.445676 -4.25673 0
M  V30 5904 C 555.75 1.5511 -5.11708 0
M  V30 5905 C 557.05 -0.633972 -5.18438 0
M  V30 5906 H 558.744 -0.637829 -2.92527 0
M  V30 5907 H 556.29 -0.308178 -1.40664 0
M  V30 5908 H 558.243 1.59556 -3.90025 0
M  V30 5909 H 556.967 1.85843 -2.6857 0
M  V30 5910 H 555.626 -0.0354897 -3.66583 0
M  V30 5911 H 555.274 2.30631 -4.4701 0
M  V30 5912 H 554.974 1.12311 -5.76767 0
M  V30 5913 H 556.498 2.05537 -5.74967 0
M  V30 5914 H 557.912 -0.215974 -5.72893 0
M  V30 5915 H 556.309 -0.983789 -5.91981 0
M  V30 5916 H 557.379 -1.51005 -4.60788 0
M  V30 5917 N 558.722 1.53707 -0.348139 0
M  V30 5918 C 559.971 2.0017 0.247992 0
M  V30 5919 C 560.284 1.23983 1.51286 0
M  V30 5920 O 561.49 1.60946 2.18652 0
M  V30 5921 C 559.946 3.56515 0.492459 0
M  V30 5922 C 559.554 4.41562 -0.756777 0
M  V30 5923 C 561.298 4.11381 1.0472 0
M  V30 5924 C 559.205 5.89426 -0.482856 0
M  V30 5925 H 558.135 0.747806 0.0964452 0
M  V30 5926 H 560.786 1.77532 -0.464179 0
M  V30 5927 H 559.168 3.75236 1.26545 0
M  V30 5928 H 560.342 4.34615 -1.53122 0
M  V30 5929 H 558.657 3.97711 -1.23348 0
M  V30 5930 H 561.254 5.19468 1.26717 0
M  V30 5931 H 561.597 3.64885 2.00411 0
M  V30 5932 H 562.13 3.96389 0.334801 0
M  V30 5933 H 558.869 6.40164 -1.40962 0
M  V30 5934 H 558.389 5.99264 0.253416 0
M  V30 5935 H 560.068 6.4692 -0.101816 0
M  V30 5936 N 560.2 0.0768682 1.57412 0
M  V30 5937 C 561.425 -0.603404 1.98428 0
M  V30 5938 C 561.85 -1.62047 0.955108 0
M  V30 5939 O 561.208 -1.81129 -0.0786778 0
M  V30 5940 C 561.256 -1.24396 3.38464 0
M  V30 5941 O 560.36 -2.35982 3.3821 0
M  V30 5942 H 559.701 -0.154741 0.645718 0
M  V30 5943 H 562.231 0.152885 2.04028 0
M  V30 5944 H 562.241 -1.5896 3.7576 0
M  V30 5945 H 560.916 -0.498735 4.12899 0
M  V30 5946 H 559.493 -2.03173 3.1269 0
M  V30 5947 N 561.678 -1.56367 -0.196722 0
M  V30 5948 C 563.089 -1.70462 -0.761545 0
M  V30 5949 C 563.44 -0.683161 -1.83922 0
M  V30 5950 O 562.565 0.160753 -2.15802 0
M  V30 5951 C 563.16 -3.09057 -1.38814 0
M  V30 5952 C 561.719 -3.24922 -1.90007 0
M  V30 5953 C 560.866 -2.66412 -0.769399 0
M  V30 5954 H 563.817 -1.58675 0.0283263 0
M  V30 5955 H 563.838 -3.06296 -2.2575 0
M  V30 5956 H 563.35 -3.83378 -0.603559 0
M  V30 5957 H 561.451 -2.55514 -2.71189 0
M  V30 5958 H 561.564 -4.3241 -2.06297 0
M  V30 5959 H 559.928 -2.25546 -1.18326 0
M  V30 5960 H 560.711 -3.433 0.00291773 0
M  V30 5961 N 563.156 0.464375 -1.50603 0
M  V30 5962 C 564.433 1.22549 -1.5245 0
M  V30 5963 C 564.813 2.09327 -0.273035 0
M  V30 5964 O 564.161 2.16074 0.743242 0
M  V30 5965 C 564.371 2.05074 -2.82393 0
M  V30 5966 C 565.719 2.63036 -3.33313 0
M  V30 5967 O 566.743 2.1531 -2.8376 0
M  V30 5968 O 565.602 3.5001 -4.19709 0
M  V30 5969 H 562.696 0.556471 -0.611775 0
M  V30 5970 H 565.242 0.475648 -1.62898 0
M  V30 5971 H 564.014 1.41169 -3.64948 0
M  V30 5972 H 563.637 2.87179 -2.7498 0
M  V30 5973 N 564.634 1.40294 0.718013 0
M  V30 5974 C 566.05 1.2227 1.02577 0
M  V30 5975 C 566.25 0.0961976 2.0127 0
M  V30 5976 O 565.306 -0.546695 2.46511 0
M  V30 5977 C 566.619 2.56348 1.57182 0
M  V30 5978 C 568.167 2.6334 1.69178 0
M  V30 5979 C 568.642 3.9768 2.27188 0
M  V30 5980 N 570.133 3.99409 2.34578 0
M  V30 5981 C 570.868 5.00141 2.8044 0
M  V30 5982 N 570.364 6.11268 3.26073 0
M  V30 5983 N 572.157 4.87511 2.79802 0
M  V30 5984 H 564.308 2.12304 0.0637899 0
M  V30 5985 H 566.571 0.943632 0.0909036 0
M  V30 5986 H 566.277 3.3942 0.921262 0
M  V30 5987 H 566.151 2.77266 2.55741 0
M  V30 5988 H 568.538 1.80641 2.33351 0
M  V30 5989 H 568.619 2.46255 0.692247 0
M  V30 5990 H 568.263 4.80817 1.63638 0
M  V30 5991 H 568.193 4.12093 3.27852 0
M  V30 5992 H 570.684 3.19162 2.02346 0
M  V30 5993 H 570.997 6.84023 3.59628 0
M  V30 5994 H 569.342 6.14837 3.24038 0
M  V30 5995 H 572.533 3.9979 2.43487 0
M  V30 5996 H 572.706 5.66158 3.15228 0
M  V30 5997 N 566.112 -0.949982 1.2575 0
M  V30 5998 C 567.075 -2.02894 1.06615 0
M  V30 5999 C 568.075 -1.60791 0.0173905 0
M  V30 6000 O 569.265 -1.72249 0.260003 0
M  V30 6001 C 566.397 -3.35219 0.619751 0
M  V30 6002 H 567.59 -2.21302 2.02399 0
M  V30 6003 H 565.143 -1.12772 1.08223 0
M  V30 6004 H 565.878 -3.22508 -0.340486 0
M  V30 6005 H 565.663 -3.67129 1.37692 0
M  V30 6006 H 567.153 -4.14505 0.507443 0
M  V30 6007 N 567.59 -1.07411 -1.15328 0
M  V30 6008 C 568.836 -0.808666 -1.86634 0
M  V30 6009 C 569.191 0.65816 -1.80793 0
M  V30 6010 O 568.484 1.47689 -1.22059 0
M  V30 6011 C 568.678 -1.25191 -3.34757 0
M  V30 6012 C 568.507 -2.76028 -3.55019 0
M  V30 6013 C 567.277 -3.43644 -3.70455 0
M  V30 6014 C 569.475 -3.74224 -3.5279 0
M  V30 6015 N 567.457 -4.83117 -3.78776 0
M  V30 6016 C 568.828 -4.9954 -3.67233 0
M  V30 6017 C 570.883 -3.67373 -3.36068 0
M  V30 6018 C 569.586 -6.18819 -3.66682 0
M  V30 6019 C 571.612 -4.86116 -3.36816 0
M  V30 6020 C 570.974 -6.10266 -3.51789 0
M  V30 6021 H 567.073 -0.348478 -0.700062 0
M  V30 6022 H 569.657 -1.37049 -1.38295 0
M  V30 6023 H 567.828 -0.717775 -3.8171 0
M  V30 6024 H 569.56 -0.933936 -3.93776 0
M  V30 6025 H 566.315 -2.94051 -3.71256 0
M  V30 6026 H 566.739 -5.55705 -3.86679 0
M  V30 6027 H 571.381 -2.72334 -3.2341 0
M  V30 6028 H 569.099 -7.14179 -3.78118 0
M  V30 6029 H 572.685 -4.82492 -3.25103 0
M  V30 6030 H 571.565 -7.00609 -3.52301 0
M  V30 6031 N 569.068 1.32177 -0.85831 0
M  V30 6032 C 569.998 2.31282 -0.321041 0
M  V30 6033 C 570.979 1.59841 0.581786 0
M  V30 6034 O 572.164 1.87619 0.501262 0
M  V30 6035 C 569.294 3.4385 0.48832 0
M  V30 6036 C 568.248 4.26799 -0.320391 0
M  V30 6037 C 567.574 5.31164 0.613934 0
M  V30 6038 C 568.874 4.98829 -1.54813 0
M  V30 6039 H 570.568 2.76469 -1.14915 0
M  V30 6040 H 568.114 1.32916 -0.554028 0
M  V30 6041 H 570.067 4.12224 0.874626 0
M  V30 6042 H 568.791 2.97401 1.34983 0
M  V30 6043 H 567.45 3.60077 -0.688497 0
M  V30 6044 H 567.098 4.80967 1.47239 0
M  V30 6045 H 566.798 5.8755 0.0768097 0
M  V30 6046 H 568.322 6.024 0.997336 0
M  V30 6047 H 569.736 5.59864 -1.23392 0
M  V30 6048 H 568.133 5.64957 -2.02346 0
M  V30 6049 H 569.203 4.26483 -2.30739 0
M  V30 6050 N 570.547 0.616602 1.45037 0
M  V30 6051 C 571.796 0.112861 2.01384 0
M  V30 6052 C 572.109 -1.26758 1.48969 0
M  V30 6053 O 573.315 -1.86454 1.9735 0
M  V30 6054 C 571.771 0.151057 3.59583 0
M  V30 6055 C 571.379 1.53191 4.20995 0
M  V30 6056 C 573.123 -0.296974 4.2346 0
M  V30 6057 C 571.03 1.526 5.71373 0
M  V30 6058 H 569.96 0.0384254 0.75302 0
M  V30 6059 H 572.611 0.773262 1.66412 0
M  V30 6060 H 570.993 -0.57617 3.91786 0
M  V30 6061 H 572.167 2.28156 4.00352 0
M  V30 6062 H 570.482 1.92279 3.69348 0
M  V30 6063 H 573.079 -0.320712 5.33737 0
M  V30 6064 H 573.422 -1.32145 3.9477 0
M  V30 6065 H 573.955 0.377279 3.96007 0
M  V30 6066 H 570.694 2.52837 6.04776 0
M  V30 6067 H 570.214 0.819064 5.94181 0
M  V30 6068 H 571.893 1.25357 6.3474 0
M  V30 6069 N 572.025 -1.5352 0.356285 0
M  V30 6070 C 572.935 -2.29151 -0.502712 0
M  V30 6071 C 573.951 -1.34753 -1.1008 0
M  V30 6072 O 575.127 -1.67803 -1.11374 0
M  V30 6073 C 572.192 -3.05911 -1.63154 0
M  V30 6074 C 571.253 -4.15958 -1.06194 0
M  V30 6075 C 570.486 -4.8905 -2.13696 0
M  V30 6076 O 570.709 -4.61919 -3.34645 0
M  V30 6077 O 569.643 -5.75202 -1.77275 0
M  V30 6078 H 573.469 -3.03492 0.112466 0
M  V30 6079 H 571.054 -1.4891 0.120942 0
M  V30 6080 H 572.936 -3.53874 -2.28804 0
M  V30 6081 H 571.611 -2.34415 -2.23229 0
M  V30 6082 H 570.518 -3.7227 -0.369603 0
M  V30 6083 H 571.851 -4.89593 -0.505872 0
M  V30 6084 N 573.503 -0.0852151 -1.57369 0
M  V30 6085 C 574.914 0.445428 -1.81309 0
M  V30 6086 C 575.265 1.68795 -1.00013 0
M  V30 6087 O 574.39 2.15211 -0.226573 0
M  V30 6088 C 574.985 0.814887 -3.28854 0
M  V30 6089 C 573.544 1.29032 -3.53592 0
M  V30 6090 C 572.691 0.282089 -2.75861 0
M  V30 6091 H 575.642 -0.310771 -1.55627 0
M  V30 6092 H 575.663 1.67524 -3.41637 0
M  V30 6093 H 575.175 -0.0896309 -3.87996 0
M  V30 6094 H 573.276 2.21289 -2.9977 0
M  V30 6095 H 573.389 1.25898 -4.62262 0
M  V30 6096 H 571.753 0.762182 -2.43029 0
M  V30 6097 H 572.536 -0.614936 -3.37748 0
M  V30 6098 N 574.981 1.5647 0.188427 0
M  V30 6099 C 576.397 1.50204 0.539532 0
M  V30 6100 C 576.597 0.78644 1.85519 0
M  V30 6101 O 575.653 0.339714 2.50204 0
M  V30 6102 C 576.966 2.94893 0.588103 0
M  V30 6103 C 578.514 3.05602 0.67648 0
M  V30 6104 C 578.989 4.51716 0.756101 0
M  V30 6105 N 580.48 4.55894 0.819451 0
M  V30 6106 C 581.215 5.66272 0.90134 0
M  V30 6107 N 580.711 6.86323 0.945118 0
M  V30 6108 N 582.504 5.54201 0.939043 0
M  V30 6109 H 574.655 2.01406 -0.674493 0
M  V30 6110 H 576.918 0.916828 -0.241103 0
M  V30 6111 H 576.624 3.50334 -0.309633 0
M  V30 6112 H 576.498 3.4861 1.44051 0
M  V30 6113 H 578.885 2.50206 1.56465 0
M  V30 6114 H 578.966 2.54999 -0.202262 0
M  V30 6115 H 578.61 5.07739 -0.12774 0
M  V30 6116 H 578.54 5.00058 1.65074 0
M  V30 6117 H 581.031 3.69452 0.794594 0
M  V30 6118 H 581.344 7.66194 1.0083 0
M  V30 6119 H 579.689 6.88968 0.913683 0
M  V30 6120 H 582.88 4.59333 0.901725 0
M  V30 6121 H 583.053 6.40247 0.999402 0
M  V30 6122 N 576.459 -0.456382 1.50847 0
M  V30 6123 C 577.406 -1.55249 1.70782 0
M  V30 6124 C 578.376 -1.56757 0.549231 0
M  V30 6125 O 579.561 -1.74061 0.7815 0
M  V30 6126 C 576.701 -2.93118 1.82143 0
M  V30 6127 C 575.814 -3.01285 3.09598 0
M  V30 6128 C 574.949 -4.30159 3.11667 0
M  V30 6129 C 573.988 -4.32124 4.33515 0
M  V30 6130 N 573.125 -5.52492 4.3324 0
M  V30 6131 H 577.965 -1.37555 2.64353 0
M  V30 6132 H 575.502 -0.668543 1.3103 0
M  V30 6133 H 577.46 -3.73088 1.86711 0
M  V30 6134 H 576.09 -3.09413 0.919978 0
M  V30 6135 H 575.142 -2.14096 3.14431 0
M  V30 6136 H 576.454 -2.98597 3.99551 0
M  V30 6137 H 575.608 -5.18489 3.15046 0
M  V30 6138 H 574.347 -4.35477 2.1957 0
M  V30 6139 H 573.352 -3.42189 4.30333 0
M  V30 6140 H 574.577 -4.28485 5.26856 0
M  V30 6141 H 572.523 -5.58567 3.44004 0
M  V30 6142 H 572.44 -5.51605 5.16979 0
M  V30 6143 H 573.708 -6.42906 4.40786 0
M  V30 6144 N 577.937 -1.40673 -0.710563 0
M  V30 6145 C 579.183 -1.39428 -1.47267 0
M  V30 6146 C 579.516 0.00182129 -1.942 0
M  V30 6147 O 578.791 0.971387 -1.68506 0
M  V30 6148 C 579.074 -2.38812 -2.6952 0
M  V30 6149 C 578.927 -3.87467 -2.28449 0
M  V30 6150 C 580.246 -2.3566 -3.71689 0
M  V30 6151 H 577.365 -0.507768 -0.534173 0
M  V30 6152 H 580.007 -1.71843 -0.810547 0
M  V30 6153 H 578.157 -2.113 -3.26013 0
M  V30 6154 H 579.829 -4.25825 -1.77399 0
M  V30 6155 H 578.072 -4.03058 -1.60395 0
M  V30 6156 H 578.743 -4.5253 -3.16103 0
M  V30 6157 H 581.219 -2.6004 -3.24836 0
M  V30 6158 H 580.095 -3.07237 -4.54859 0
M  V30 6159 H 580.356 -1.36996 -4.20339 0
M  V30 6160 N 579.415 0.9433 -1.26252 0
M  V30 6161 C 580.347 2.04542 -1.03417 0
M  V30 6162 C 581.36 1.62799 0.0046911 0
M  V30 6163 O 582.549 1.76944 -0.235146 0
M  V30 6164 C 579.649 3.34511 -0.543671 0
M  V30 6165 C 578.822 4.05033 -1.65128 0
M  V30 6166 C 577.881 5.13273 -1.1592 0
M  V30 6167 O 576.907 5.38095 -1.85586 0
M  V30 6168 N 578.109 5.805 -0.00649279 0
M  V30 6169 H 580.874 2.24699 -1.98319 0
M  V30 6170 H 578.435 1.11264 -1.1761 0
M  V30 6171 H 580.427 4.04212 -0.198703 0
M  V30 6172 H 578.997 3.11042 0.311711 0
M  V30 6173 H 578.217 3.29275 -2.16729 0
M  V30 6174 H 579.505 4.48903 -2.39508 0
M  V30 6175 H 578.903 5.62767 0.575347 0
M  V30 6176 H 577.46 6.51201 0.279416 0
M  V30 6177 N 580.893 1.08022 1.14757 0
M  V30 6178 C 581.84 0.706657 2.19716 0
M  V30 6179 C 582.81 -0.30525 1.63271 0
M  V30 6180 O 583.995 -0.19015 1.8985 0
M  V30 6181 C 581.135 0.117914 3.44898 0
M  V30 6182 C 580.248 1.18212 4.15512 0
M  V30 6183 C 579.383 0.557659 5.28265 0
M  V30 6184 C 578.422 1.60418 5.90705 0
M  V30 6185 N 577.559 1.0018 6.94916 0
M  V30 6186 H 582.399 1.60603 2.51019 0
M  V30 6187 H 579.936 0.802664 1.23271 0
M  V30 6188 H 581.894 -0.241112 4.16503 0
M  V30 6189 H 580.524 -0.744788 3.1409 0
M  V30 6190 H 579.576 1.65863 3.42335 0
M  V30 6191 H 580.888 1.97533 4.5802 0
M  V30 6192 H 580.042 0.146654 6.06523 0
M  V30 6193 H 578.781 -0.267249 4.86967 0
M  V30 6194 H 577.786 2.02489 5.11154 0
M  V30 6195 H 579.011 2.43149 6.34078 0
M  V30 6196 H 576.957 0.197917 6.55701 0
M  V30 6197 H 576.874 1.73216 7.35889 0
M  V30 6198 H 578.142 0.616523 7.77058 0
M  V30 6199 N 582.371 -1.3172 0.865308 0
M  V30 6200 C 583.301 -2.31109 0.333302 0
M  V30 6201 C 584.282 -1.60148 -0.573301 0
M  V30 6202 O 585.467 -1.87882 -0.491305 0
M  V30 6203 C 582.597 -3.44104 -0.470078 0
M  V30 6204 C 581.551 -4.26623 0.343021 0
M  V30 6205 C 580.877 -5.31482 -0.585756 0
M  V30 6206 C 582.177 -4.98001 1.57456 0
M  V30 6207 H 583.871 -2.75855 1.1638 0
M  V30 6208 H 581.417 -1.3262 0.561069 0
M  V30 6209 H 583.37 -4.12682 -0.852752 0
M  V30 6210 H 582.094 -2.98112 -1.33404 0
M  V30 6211 H 580.753 -3.59707 0.707583 0
M  V30 6212 H 580.401 -4.81741 -1.44686 0
M  V30 6213 H 580.101 -5.87582 -0.0456494 0
M  V30 6214 H 581.625 -6.0292 -0.965375 0
M  V30 6215 H 583.039 -5.59201 1.26359 0
M  V30 6216 H 581.436 -5.63876 2.05339 0
M  V30 6217 H 582.506 -4.25253 2.32997 0
M  V30 6218 N 583.85 -0.624285 -1.44708 0
M  V30 6219 C 584.782 0.12305 -2.28869 0
M  V30 6220 C 585.795 0.81557 -1.40898 0
M  V30 6221 O 586.984 0.678162 -1.65116 0
M  V30 6222 C 584.084 1.19612 -3.1709 0
M  V30 6223 C 583.257 0.587452 -4.33437 0
M  V30 6224 C 582.316 1.55358 -5.02743 0
M  V30 6225 O 581.341 1.07338 -5.58988 0
M  V30 6226 N 582.543 2.88798 -5.03563 0
M  V30 6227 H 585.308 -0.599193 -2.93649 0
M  V30 6228 H 582.87 -0.464954 -1.5508 0
M  V30 6229 H 584.861 1.84261 -3.60319 0
M  V30 6230 H 583.432 1.82067 -2.54107 0
M  V30 6231 H 582.652 -0.237509 -3.93484 0
M  V30 6232 H 583.94 0.161326 -5.08544 0
M  V30 6233 H 583.338 3.30399 -4.59188 0
M  V30 6234 H 581.894 3.48826 -5.50603 0
M  V30 6235 N 585.328 1.53329 -0.364422 0
M  V30 6236 C 586.238 2.29414 0.490552 0
M  V30 6237 C 587.254 1.35335 1.09363 0
M  V30 6238 O 588.43 1.68391 1.10483 0
M  V30 6239 C 585.495 3.06772 1.61529 0
M  V30 6240 C 584.556 4.16516 1.03986 0
M  V30 6241 C 583.789 4.90176 2.111 0
M  V30 6242 O 584.012 4.63687 3.32191 0
M  V30 6243 O 582.946 5.76134 1.74222 0
M  V30 6244 H 586.772 3.03428 -0.12856 0
M  V30 6245 H 584.357 1.48843 -0.128837 0
M  V30 6246 H 586.239 3.55082 2.26924 0
M  V30 6247 H 584.914 2.35596 2.21983 0
M  V30 6248 H 583.821 3.7246 0.349856 0
M  V30 6249 H 585.154 4.89855 0.4799 0
M  V30 6250 N 586.806 0.0935595 1.57322 0
M  V30 6251 C 587.753 -0.865935 2.1394 0
M  V30 6252 C 588.723 -1.28083 1.05754 0
M  V30 6253 O 589.908 -1.36285 1.33533 0
M  V30 6254 C 587.048 -2.12023 2.72287 0
M  V30 6255 C 586.161 -1.756 3.94701 0
M  V30 6256 C 585.296 -2.95804 4.41218 0
M  V30 6257 C 584.335 -2.555 5.56225 0
M  V30 6258 N 583.472 -3.68534 5.97601 0
M  V30 6259 H 588.312 -0.376261 2.95615 0
M  V30 6260 H 585.849 -0.174052 1.46067 0
M  V30 6261 H 587.807 -2.85477 3.04235 0
M  V30 6262 H 586.437 -2.58492 1.93343 0
M  V30 6263 H 585.489 -0.921208 3.69077 0
M  V30 6264 H 586.801 -1.41964 4.78171 0
M  V30 6265 H 585.955 -3.77513 4.74941 0
M  V30 6266 H 584.694 -3.32649 3.56645 0
M  V30 6267 H 583.699 -1.72218 5.22131 0
M  V30 6268 H 584.924 -2.19801 6.42545 0
M  V30 6269 H 582.87 -4.051 5.15974 0
M  V30 6270 H 582.787 -3.38737 6.75865 0
M  V30 6271 H 584.055 -4.50757 6.35955 0
M  V30 6272 N 588.284 -1.56567 -0.180126 0
M  V30 6273 C 589.533 -1.80685 -0.896426 0
M  V30 6274 C 589.846 -0.669335 -1.83791 0
M  V30 6275 O 591.052 -0.795209 -2.59593 0
M  V30 6276 C 589.508 -3.20132 -1.6445 0
M  V30 6277 C 589.116 -4.41727 -0.747088 0
M  V30 6278 C 590.86 -3.53549 -2.34955 0
M  V30 6279 C 588.767 -5.72195 -1.49489 0
M  V30 6280 H 587.697 -0.673758 -0.338477 0
M  V30 6281 H 590.348 -1.8289 -0.149467 0
M  V30 6282 H 588.73 -3.12218 -2.43589 0
M  V30 6283 H 589.904 -4.608 0.00671129 0
M  V30 6284 H 588.219 -4.16122 -0.152134 0
M  V30 6285 H 590.816 -4.48267 -2.91481 0
M  V30 6286 H 591.159 -2.78006 -3.09868 0
M  V30 6287 H 591.692 -3.62976 -1.62768 0
M  V30 6288 H 588.431 -6.50743 -0.788251 0
M  V30 6289 H 587.951 -5.57115 -2.22224 0
M  V30 6290 H 589.63 -6.1384 -2.04472 0
M  V30 6291 N 589.762 0.448376 -1.51087 0
M  V30 6292 C 590.992 1.21965 -1.66757 0
M  V30 6293 C 591.4 1.85748 -0.359753 0
M  V30 6294 O 590.743 1.71022 0.670604 0
M  V30 6295 C 590.805 2.35284 -2.71812 0
M  V30 6296 C 590.469 1.91957 -4.1473 0
M  V30 6297 C 591.466 1.42921 -4.9987 0
M  V30 6298 C 589.151 1.99985 -4.60772 0
M  V30 6299 C 591.145 1.02485 -6.29107 0
M  V30 6300 C 588.832 1.5916 -5.90009 0
M  V30 6301 C 589.83 1.10491 -6.74004 0
M  V30 6302 O 589.518 0.702413 -8.00825 0
M  V30 6303 H 589.25 0.374125 -0.563034 0
M  V30 6304 H 591.804 0.538927 -1.98204 0
M  V30 6305 H 590.034 3.06599 -2.35657 0
M  V30 6306 H 591.723 2.97184 -2.76472 0
M  V30 6307 H 592.489 1.36123 -4.65506 0
M  V30 6308 H 588.368 2.36814 -3.95525 0
M  V30 6309 H 591.912 0.644271 -6.94619 0
M  V30 6310 H 587.809 1.65626 -6.2389 0
M  V30 6311 H 588.577 0.829248 -8.14288 0
M  V30 6312 N 591.24 1.41047 0.703093 0
M  V30 6313 C 592.487 1.4 1.46309 0
M  V30 6314 C 592.815 0.00654574 1.94499 0
M  V30 6315 O 592.07 -0.980255 1.6938 0
M  V30 6316 C 592.369 2.34686 2.6955 0
M  V30 6317 C 592.035 3.81684 2.40058 0
M  V30 6318 C 590.697 4.21731 2.31725 0
M  V30 6319 C 593.049 4.74525 2.15581 0
M  V30 6320 C 590.377 5.52637 1.97001 0
M  V30 6321 C 592.729 6.05744 1.82366 0
M  V30 6322 C 591.393 6.44819 1.72524 0
M  V30 6323 H 590.663 0.512295 0.535382 0
M  V30 6324 H 593.31 1.73792 0.804275 0
M  V30 6325 H 591.615 1.94122 3.40329 0
M  V30 6326 H 593.312 2.31152 3.27673 0
M  V30 6327 H 589.902 3.49963 2.47435 0
M  V30 6328 H 594.086 4.44395 2.20968 0
M  V30 6329 H 589.342 5.81802 1.87928 0
M  V30 6330 H 593.516 6.77189 1.62444 0
M  V30 6331 H 591.143 7.46168 1.45385 0
M  V30 6332 N 592.718 -0.936591 1.26751 0
M  V30 6333 C 593.681 -2.01752 1.08761 0
M  V30 6334 C 594.681 -1.60763 0.0344435 0
M  V30 6335 O 595.871 -1.71963 0.278258 0
M  V30 6336 C 593.003 -3.34543 0.655271 0
M  V30 6337 H 594.196 -2.19143 2.04735 0
M  V30 6338 H 591.749 -1.11618 1.09413 0
M  V30 6339 H 592.484 -3.22851 -0.30626 0
M  V30 6340 H 592.269 -3.65647 1.41578 0
M  V30 6341 H 593.759 -4.13944 0.551378 0
M  V30 6342 N 594.196 -1.08629 -1.14182 0
M  V30 6343 C 595.126 -0.740003 -2.21464 0
M  V30 6344 C 596.107 0.278591 -1.67803 0
M  V30 6345 O 597.292 0.148461 -1.93632 0
M  V30 6346 C 594.422 -0.150952 -3.46972 0
M  V30 6347 C 593.376 -1.09815 -4.13672 0
M  V30 6348 C 592.702 -0.3712 -5.3341 0
M  V30 6349 C 594.002 -2.43722 -4.61949 0
M  V30 6350 H 595.696 -1.63697 -2.50686 0
M  V30 6351 H 593.242 -0.788526 -1.20492 0
M  V30 6352 H 595.195 0.103325 -4.21273 0
M  V30 6353 H 593.919 0.781164 -3.1712 0
M  V30 6354 H 592.578 -1.33756 -3.41328 0
M  V30 6355 H 592.226 0.564792 -4.99819 0
M  V30 6356 H 591.926 -1.00267 -5.78982 0
M  V30 6357 H 593.45 -0.12503 -6.10472 0
M  V30 6358 H 594.864 -2.24034 -5.27714 0
M  V30 6359 H 593.261 -3.02582 -5.18232 0
M  V30 6360 H 594.331 -3.05082 -3.76899 0
M  V30 6361 N 595.674 1.31259 -0.872281 0
M  V30 6362 C 596.606 2.27396 -0.28697 0
M  V30 6363 C 597.619 1.53181 0.551297 0
M  V30 6364 O 598.808 1.74561 0.372914 0
M  V30 6365 C 595.908 3.33335 0.611617 0
M  V30 6366 C 595.081 4.36966 -0.194729 0
M  V30 6367 C 594.14 5.22387 0.632358 0
M  V30 6368 O 593.166 5.69169 0.0595691 0
M  V30 6369 N 594.368 5.46985 1.94391 0
M  V30 6370 H 597.133 2.78261 -1.11314 0
M  V30 6371 H 594.694 1.44306 -0.733994 0
M  V30 6372 H 596.686 3.87398 1.17068 0
M  V30 6373 H 595.256 2.82496 1.33846 0
M  V30 6374 H 594.476 3.82945 -0.935241 0
M  V30 6375 H 595.764 5.03273 -0.747935 0
M  V30 6376 H 595.162 5.10737 2.43237 0
M  V30 6377 H 593.719 6.03973 2.45071 0
M  V30 6378 N 597.152 0.631951 1.44375 0
M  V30 6379 C 598.102 -0.0943862 2.27805 0
M  V30 6380 C 599.086 -0.815359 1.38711 0
M  V30 6381 O 600.278 -0.701331 1.62513 0
M  V30 6382 C 597.407 -1.07472 3.26044 0
M  V30 6383 C 596.493 -0.353329 4.22626 0
M  V30 6384 N 596.884 0.618512 5.02004 0
M  V30 6385 C 595.182 -0.597662 4.41977 0
M  V30 6386 C 595.883 1.0448 5.7224 0
M  V30 6387 N 594.859 0.383413 5.42246 0
M  V30 6388 H 598.661 0.651672 2.86584 0
M  V30 6389 H 596.175 0.45752 1.55822 0
M  V30 6390 H 598.172 -1.60969 3.84571 0
M  V30 6391 H 596.832 -1.82107 2.68825 0
M  V30 6392 H 597.843 0.996356 5.08226 0
M  V30 6393 H 594.52 -1.32682 3.95856 0
M  V30 6394 H 595.91 1.84773 6.45994 0
M  V30 6395 N 598.631 -1.53133 0.372548 0
M  V30 6396 C 599.877 -2.01654 -0.215277 0
M  V30 6397 C 600.21 -1.25914 -1.47849 0
M  V30 6398 O 599.485 -0.3548 -1.91237 0
M  V30 6399 C 599.768 -3.56609 -0.500187 0
M  V30 6400 C 599.621 -4.43036 0.777145 0
M  V30 6401 C 600.94 -4.20528 -1.29786 0
M  V30 6402 H 598.059 -0.732991 -0.0767686 0
M  V30 6403 H 600.701 -1.83335 0.498814 0
M  V30 6404 H 598.851 -3.7235 -1.10852 0
M  V30 6405 H 600.523 -4.39079 1.41447 0
M  V30 6406 H 598.766 -4.10723 1.39604 0
M  V30 6407 H 599.437 -5.49424 0.532662 0
M  V30 6408 H 601.913 -4.08663 -0.783198 0
M  V30 6409 H 600.789 -5.28962 -1.46596 0
M  V30 6410 H 601.05 -3.77051 -2.30836 0
M  V30 6411 N 600.109 -0.101901 -1.5727 0
M  V30 6412 C 601.358 0.559922 -1.93772 0
M  V30 6413 C 601.671 1.68913 -0.98629 0
M  V30 6414 O 602.877 2.41256 -1.24529 0
M  V30 6415 C 601.333 1.04739 -3.44322 0
M  V30 6416 C 600.941 -0.05243 -4.47969 0
M  V30 6417 C 602.685 1.68157 -3.89774 0
M  V30 6418 C 600.592 0.450781 -5.8968 0
M  V30 6419 H 599.522 0.212931 -0.723309 0
M  V30 6420 H 602.173 -0.179001 -1.82625 0
M  V30 6421 H 600.555 1.84021 -3.50645 0
M  V30 6422 H 601.729 -0.828157 -4.53297 0
M  V30 6423 H 600.044 -0.592202 -4.12167 0
M  V30 6424 H 602.641 2.0689 -4.93052 0
M  V30 6425 H 602.984 2.55338 -3.28798 0
M  V30 6426 H 603.517 0.954453 -3.8618 0
M  V30 6427 H 600.256 -0.38458 -6.54371 0
M  V30 6428 H 599.776 1.19336 -5.87809 0
M  V30 6429 H 601.455 0.917555 -6.40461 0
M  V30 6430 N 601.587 1.56661 0.17182 0
M  V30 6431 C 602.519 1.92934 1.2373 0
M  V30 6432 C 603.532 0.822385 1.40502 0
M  V30 6433 O 604.721 1.10083 1.40514 0
M  V30 6434 C 601.821 2.16651 2.60607 0
M  V30 6435 C 600.994 3.47878 2.6514 0
M  V30 6436 C 600.053 3.60429 3.83377 0
M  V30 6437 O 599.079 4.33051 3.69398 0
M  V30 6438 N 600.281 2.95241 4.99813 0
M  V30 6439 H 603.046 2.84931 0.929205 0
M  V30 6440 H 600.607 1.5781 0.361588 0
M  V30 6441 H 602.599 2.22312 3.38171 0
M  V30 6442 H 601.169 1.3104 2.83809 0
M  V30 6443 H 600.389 3.53879 1.73675 0
M  V30 6444 H 601.677 4.34232 2.6518 0
M  V30 6445 H 601.075 2.3611 5.14071 0
M  V30 6446 H 599.632 3.06499 5.75241 0
M  V30 6447 N 603.065 -0.440357 1.51323 0
M  V30 6448 C 604.012 -1.53429 1.72419 0
M  V30 6449 C 604.982 -1.56165 0.565826 0
M  V30 6450 O 606.167 -1.73222 0.799917 0
M  V30 6451 C 603.307 -2.91169 1.85242 0
M  V30 6452 C 602.42 -2.97985 3.12777 0
M  V30 6453 C 601.555 -4.26829 3.16212 0
M  V30 6454 C 600.594 -4.27501 4.38074 0
M  V30 6455 N 599.731 -5.47866 4.39076 0
M  V30 6456 H 604.571 -1.34743 2.65797 0
M  V30 6457 H 602.108 -0.654608 1.31732 0
M  V30 6458 H 604.066 -3.71087 1.90658 0
M  V30 6459 H 602.696 -3.0842 0.952744 0
M  V30 6460 H 601.748 -2.10749 3.16685 0
M  V30 6461 H 603.06 -2.94342 4.02696 0
M  V30 6462 H 602.214 -5.15118 3.20527 0
M  V30 6463 H 600.953 -4.33124 2.24176 0
M  V30 6464 H 599.958 -3.37606 4.33938 0
M  V30 6465 H 601.183 -4.22873 5.31371 0
M  V30 6466 H 599.129 -5.54887 3.49909 0
M  V30 6467 H 599.046 -5.46091 5.22801 0
M  V30 6468 H 600.314 -6.38195 4.4758 0
M  V30 6469 N 604.543 -1.41418 -0.695603 0
M  V30 6470 C 605.491 -1.43467 -1.83084 0
M  V30 6471 C 606.485 -0.312719 -1.66489 0
M  V30 6472 O 607.691 -0.484744 -1.7335 0
M  V30 6473 H 604.066 -0.448891 -0.603325 0
M  V30 6474 H 606.037 -2.39144 -1.78473 0
M  V30 6475 C 604.786 -1.3337 -3.21104 0
M  V30 6476 H 604.109 -2.18989 -3.3449 0
M  V30 6477 H 605.549 -1.38865 -4.00615 0
M  V30 6478 C 604.008 -0.0460484 -3.36869 0
M  V30 6479 O 604.538 0.909258 -3.91274 0
M  V30 6480 N 602.744 0.0300222 -2.90584 0
M  V30 6481 H 602.291 -0.748129 -2.46497 0
M  V30 6482 H 602.249 0.890991 -3.01511 0
M  V30 6483 N 606.021 0.929856 -1.27246 0
M  V30 6484 C 606.971 2.01629 -1.06442 0
M  V30 6485 C 607.955 1.60899 0.00687842 0
M  V30 6486 O 609.147 1.75733 -0.211407 0
M  V30 6487 C 606.276 3.35849 -0.711361 0
M  V30 6488 C 605.362 3.8303 -1.82069 0
M  V30 6489 N 605.753 4.02743 -3.05993 0
M  V30 6490 C 604.051 4.12046 -1.70687 0
M  V30 6491 C 604.752 4.42001 -3.78167 0
M  V30 6492 N 603.728 4.4935 -3.05918 0
M  V30 6493 H 607.53 2.14898 -2.00489 0
M  V30 6494 H 605.044 1.11654 -1.17929 0
M  V30 6495 H 607.041 4.13343 -0.543442 0
M  V30 6496 H 605.701 3.23944 0.221517 0
M  V30 6497 H 606.712 3.89112 -3.41778 0
M  V30 6498 H 603.389 4.08866 -0.844681 0
M  V30 6499 H 604.779 4.6535 -4.84664 0
M  V30 6500 N 607.499 1.09233 1.13605 0
M  V30 6501 C 608.429 0.751738 2.21068 0
M  V30 6502 C 609.41 -0.269688 1.67948 0
M  V30 6503 O 610.595 -0.13819 1.93708 0
M  V30 6504 C 607.725 0.16935 3.46887 0
M  V30 6505 C 606.679 1.12007 4.13084 0
M  V30 6506 C 606.005 0.399483 5.33206 0
M  V30 6507 C 607.305 2.46168 4.6065 0
M  V30 6508 H 608.999 1.65024 2.49815 0
M  V30 6509 H 606.545 0.794905 1.20072 0
M  V30 6510 H 608.498 -0.0809824 4.21322 0
M  V30 6511 H 607.222 -0.764335 3.1753 0
M  V30 6512 H 605.881 1.35564 3.40614 0
M  V30 6513 H 605.529 -0.538277 5.00112 0
M  V30 6514 H 605.229 1.03337 5.78442 0
M  V30 6515 H 606.753 0.157403 6.10397 0
M  V30 6516 H 608.167 2.26829 5.26518 0
M  V30 6517 H 606.564 3.05326 5.1662 0
M  V30 6518 H 607.634 3.07076 3.75276 0
M  V30 6519 N 608.977 -1.30795 0.87923 0
M  V30 6520 C 610.254 -1.91145 0.415086 0
M  V30 6521 C 610.634 -1.7995 -1.10368 0
M  V30 6522 O 609.982 -1.21305 -1.93642 0
M  V30 6523 C 610.192 -3.37014 0.906778 0
M  V30 6524 C 611.54 -4.14101 0.938358 0
M  V30 6525 O 612.564 -3.45834 0.853053 0
M  V30 6526 O 611.423 -5.36054 1.06342 0
M  V30 6527 H 608.517 -0.81736 0.125905 0
M  V30 6528 H 611.063 -1.39401 0.967753 0
M  V30 6529 H 609.835 -3.3922 1.95053 0
M  V30 6530 H 609.458 -3.96204 0.332948 0
M  V30 6531 N 610.455 -0.639598 -1.44038 0
M  V30 6532 C 611.732 -0.078012 -1.95444 0
M  V30 6533 C 612.112 1.39847 -1.58133 0
M  V30 6534 O 611.46 2.11714 -0.859614 0
M  V30 6535 C 611.67 -0.309832 -3.47622 0
M  V30 6536 C 613.018 -0.207521 -4.24093 0
M  V30 6537 O 614.042 -0.241653 -3.55379 0
M  V30 6538 O 612.901 -0.119641 -5.46369 0
M  V30 6539 H 609.995 0.0174534 -0.826816 0
M  V30 6540 H 612.541 -0.711891 -1.54046 0
M  V30 6541 H 611.313 -1.33401 -3.67858 0
M  V30 6542 H 610.936 0.357777 -3.95987 0
M  V30 6543 N 611.933 1.52934 -0.380664 0
M  V30 6544 C 612.843 2.29921 0.466192 0
M  V30 6545 C 613.859 1.36488 1.07922 0
M  V30 6546 O 615.035 1.69553 1.0869 0
M  V30 6547 C 612.1 3.08468 1.58266 0
M  V30 6548 C 611.161 4.17595 0.995627 0
M  V30 6549 C 610.394 4.92387 2.05889 0
M  V30 6550 O 610.617 4.67184 3.27254 0
M  V30 6551 O 609.551 5.77949 1.68102 0
M  V30 6552 H 613.377 3.03274 -0.160735 0
M  V30 6553 H 610.962 1.48698 -0.144617 0
M  V30 6554 H 612.844 3.57469 2.23145 0
M  V30 6555 H 611.519 2.37937 2.19471 0
M  V30 6556 H 610.426 3.72811 0.310332 0
M  V30 6557 H 611.759 4.90336 0.427918 0
M  V30 6558 N 613.412 0.11024 1.57214 0
M  V30 6559 C 614.64 -0.557834 1.99238 0
M  V30 6560 C 615.055 -1.60778 0.989734 0
M  V30 6561 O 614.412 -1.82491 -0.0186092 0
M  V30 6562 C 614.463 -1.19189 3.41286 0
M  V30 6563 O 614.184 -0.183919 4.37714 0
M  V30 6564 C 615.685 -1.94413 3.98395 0
M  V30 6565 H 612.905 -0.148392 0.654386 0
M  V30 6566 H 615.449 0.193996 2.03578 0
M  V30 6567 H 613.604 -1.89456 3.37913 0
M  V30 6568 H 614.018 -0.643475 5.20538 0
M  V30 6569 H 615.492 -2.34116 4.99894 0
M  V30 6570 H 615.969 -2.81592 3.3705 0
M  V30 6571 H 616.575 -1.28928 4.05287 0
M  V30 6572 N 614.89 -1.56749 -0.16351 0
M  V30 6573 C 615.82 -2.00042 -1.20438 0
M  V30 6574 C 616.801 -0.877256 -1.45733 0
M  V30 6575 O 617.986 -1.1439 -1.56935 0
M  V30 6576 C 615.116 -2.36697 -2.54149 0
M  V30 6577 C 614.07 -3.52046 -2.43408 0
M  V30 6578 C 613.396 -3.74466 -3.81679 0
M  V30 6579 C 614.696 -4.85247 -1.93216 0
M  V30 6580 H 616.39 -2.87244 -0.844477 0
M  V30 6581 H 613.936 -1.38194 -0.40478 0
M  V30 6582 H 615.889 -2.65582 -3.27176 0
M  V30 6583 H 614.613 -1.46414 -2.91943 0
M  V30 6584 H 613.272 -3.23301 -1.72834 0
M  V30 6585 H 612.92 -2.81461 -4.1688 0
M  V30 6586 H 612.62 -4.52084 -3.75359 0
M  V30 6587 H 614.144 -4.0576 -4.5628 0
M  V30 6588 H 615.558 -5.12957 -2.56023 0
M  V30 6589 H 613.955 -5.66556 -1.97825 0
M  V30 6590 H 615.025 -4.7672 -0.88689 0
M  V30 6591 N 616.368 0.432326 -1.51554 0
M  V30 6592 C 617.331 1.50765 -1.72634 0
M  V30 6593 C 618.331 1.49334 -0.596314 0
M  V30 6594 O 619.521 1.51268 -0.863925 0
M  V30 6595 C 616.653 2.90284 -1.7874 0
M  V30 6596 H 617.846 1.33377 -2.68609 0
M  V30 6597 H 615.399 0.661329 -1.4162 0
M  V30 6598 H 616.134 3.13071 -0.845977 0
M  V30 6599 H 615.919 2.92727 -2.6087 0
M  V30 6600 H 617.409 3.68282 -1.96871 0
M  V30 6601 N 617.846 1.41785 0.688094 0
M  V30 6602 C 618.793 1.44221 1.80191 0
M  V30 6603 C 619.763 0.295688 1.63447 0
M  V30 6604 O 620.948 0.49783 1.84191 0
M  V30 6605 C 618.088 1.33743 3.1813 0
M  V30 6606 C 617.201 2.58325 3.46254 0
M  V30 6607 C 616.336 2.40086 4.73848 0
M  V30 6608 C 615.375 3.60107 4.94964 0
M  V30 6609 N 614.512 3.40892 6.13789 0
M  V30 6610 H 619.352 2.39411 1.77444 0
M  V30 6611 H 616.889 1.18876 0.866423 0
M  V30 6612 H 618.847 1.25669 3.97823 0
M  V30 6613 H 617.477 0.42157 3.20035 0
M  V30 6614 H 616.529 2.7682 2.60912 0
M  V30 6615 H 617.841 3.4758 3.57756 0
M  V30 6616 H 616.995 2.29522 5.61609 0
M  V30 6617 H 615.734 1.483 4.64606 0
M  V30 6618 H 614.739 3.71118 4.05649 0
M  V30 6619 H 615.964 4.52857 5.06061 0
M  V30 6620 H 613.91 2.51812 6.05745 0
M  V30 6621 H 613.827 4.23727 6.26092 0
M  V30 6622 H 615.095 3.34114 7.04264 0
M  V30 6623 N 619.324 -0.923095 1.27737 0
M  V30 6624 C 620.254 -2.04124 1.13383 0
M  V30 6625 C 621.235 -1.70066 0.0340658 0
M  V30 6626 O 622.42 -1.93068 0.209383 0
M  V30 6627 C 619.55 -3.3831 0.785097 0
M  V30 6628 C 618.504 -3.86496 1.8386 0
M  V30 6629 C 617.83 -5.1754 1.34373 0
M  V30 6630 C 619.13 -4.09381 3.24353 0
M  V30 6631 H 620.824 -2.1639 2.06919 0
M  V30 6632 H 618.37 -1.03976 0.996243 0
M  V30 6633 H 620.323 -4.16016 0.671485 0
M  V30 6634 H 619.047 -3.2607 -0.185969 0
M  V30 6635 H 617.706 -3.10987 1.9412 0
M  V30 6636 H 617.354 -5.01696 0.361989 0
M  V30 6637 H 617.054 -5.50751 2.04811 0
M  V30 6638 H 618.578 -5.97811 1.24315 0
M  V30 6639 H 619.992 -4.77641 3.17067 0
M  V30 6640 H 618.389 -4.53906 3.92542 0
M  V30 6641 H 619.459 -3.14515 3.69064 0
M  V30 6642 N 620.802 -1.09834 -1.13024 0
M  V30 6643 C 622.051 -0.831806 -1.83749 0
M  V30 6644 C 622.364 0.644763 -1.84668 0
M  V30 6645 O 623.57 1.02697 -2.51327 0
M  V30 6646 C 622.026 -1.43817 -3.29916 0
M  V30 6647 C 621.634 -2.94759 -3.37374 0
M  V30 6648 C 623.378 -1.25077 -4.05655 0
M  V30 6649 C 621.285 -3.48461 -4.77838 0
M  V30 6650 H 620.215 -0.30751 -0.688443 0
M  V30 6651 H 622.866 -1.32156 -1.27307 0
M  V30 6652 H 621.248 -0.876106 -3.86187 0
M  V30 6653 H 622.422 -3.57228 -2.91076 0
M  V30 6654 H 620.737 -3.12581 -2.75103 0
M  V30 6655 H 623.334 -1.62649 -5.09362 0
M  V30 6656 H 623.677 -0.191782 -4.15858 0
M  V30 6657 H 624.21 -1.78057 -3.55725 0
M  V30 6658 H 620.949 -4.53998 -4.72828 0
M  V30 6659 H 620.469 -2.90757 -5.24615 0
M  V30 6660 H 622.148 -3.45914 -5.46766 0
M  V30 6661 N 622.28 1.30327 -0.886154 0
M  V30 6662 C 623.243 2.26376 -0.358687 0
M  V30 6663 C 624.243 1.52845 0.499498 0
M  V30 6664 O 625.433 1.71483 0.306485 0
M  V30 6665 C 622.565 3.37379 0.488726 0
M  V30 6666 H 623.758 2.74547 -1.20681 0
M  V30 6667 H 621.311 1.41536 -0.663113 0
M  V30 6668 H 622.046 2.94526 1.35739 0
M  V30 6669 H 621.831 3.91897 -0.126003 0
M  V30 6670 H 623.321 4.08868 0.84952 0
M  V30 6671 N 623.758 0.647228 1.43697 0
M  V30 6672 C 624.705 -0.0480092 2.3075 0
M  V30 6673 C 625.675 -0.820705 1.44408 0
M  V30 6674 O 626.86 -0.798515 1.73287 0
M  V30 6675 C 624 -1.01259 3.2991 0
M  V30 6676 C 623.113 -0.236629 4.31351 0
M  V30 6677 C 622.248 -1.19447 5.17596 0
M  V30 6678 C 621.287 -0.408595 6.10735 0
M  V30 6679 N 620.424 -1.31772 6.89623 0
M  V30 6680 H 625.264 0.700238 2.89656 0
M  V30 6681 H 622.801 0.357082 1.427 0
M  V30 6682 H 624.759 -1.58538 3.85903 0
M  V30 6683 H 623.389 -1.72778 2.72667 0
M  V30 6684 H 622.441 0.452353 3.77701 0
M  V30 6685 H 623.753 0.374731 4.9739 0
M  V30 6686 H 622.907 -1.83809 5.78186 0
M  V30 6687 H 621.646 -1.83975 4.51669 0
M  V30 6688 H 620.651 0.24841 5.49239 0
M  V30 6689 H 621.876 0.232188 6.78703 0
M  V30 6690 H 619.822 -1.94991 6.2635 0
M  V30 6691 H 619.739 -0.760779 7.52162 0
M  V30 6692 H 621.007 -1.94967 7.54724 0
M  V30 6693 N 625.236 -1.5273 0.388769 0
M  V30 6694 C 626.485 -2.00757 -0.194833 0
M  V30 6695 C 626.798 -1.27951 -1.47946 0
M  V30 6696 O 628.004 -1.66686 -2.14308 0
M  V30 6697 C 626.46 -3.57695 -0.397762 0
M  V30 6698 C 626.068 -4.394 0.873583 0
M  V30 6699 C 627.812 -4.14012 -0.937759 0
M  V30 6700 C 625.719 -5.87938 0.638962 0
M  V30 6701 H 624.649 -0.750101 -0.0765845 0
M  V30 6702 H 627.3 -1.76239 0.511086 0
M  V30 6703 H 625.682 -3.7846 -1.16552 0
M  V30 6704 H 626.856 -4.30403 1.64591 0
M  V30 6705 H 625.171 -3.94301 1.33849 0
M  V30 6706 H 627.768 -5.22645 -1.12899 0
M  V30 6707 H 628.111 -3.7007 -1.90666 0
M  V30 6708 H 628.644 -3.97137 -0.229588 0
M  V30 6709 H 625.383 -6.36202 1.57885 0
M  V30 6710 H 624.903 -5.99726 -0.094443 0
M  V30 6711 H 626.582 -6.46423 0.273299 0
M  V30 6712 N 626.714 -0.118576 -1.57153 0
M  V30 6713 C 628.125 0.40687 -1.82213 0
M  V30 6714 C 628.476 1.66636 -1.03571 0
M  V30 6715 O 627.601 2.14682 -0.272171 0
M  V30 6716 C 628.196 0.744949 -3.30509 0
M  V30 6717 C 626.755 1.21503 -3.5625 0
M  V30 6718 C 625.902 0.223511 -2.76398 0
M  V30 6719 H 628.853 -0.343712 -1.54933 0
M  V30 6720 H 628.874 1.6024 -3.45114 0
M  V30 6721 H 628.386 -0.171911 -3.87719 0
M  V30 6722 H 626.487 2.1488 -3.04396 0
M  V30 6723 H 626.6 1.16065 -4.64829 0
M  V30 6724 H 624.964 0.71046 -2.44591 0
M  V30 6725 H 625.747 -0.686439 -3.36367 0
M  V30 6726 N 628.193 1.56834 0.155195 0
M  V30 6727 C 629.421 1.87049 0.884326 0
M  V30 6728 C 629.836 0.705839 1.7511 0
M  V30 6729 O 629.193 -0.324641 1.79589 0
M  V30 6730 C 629.244 3.1644 1.74781 0
M  V30 6731 O 628.965 4.28417 0.915978 0
M  V30 6732 C 630.466 3.60113 2.58522 0
M  V30 6733 H 627.686 0.620196 0.25612 0
M  V30 6734 H 630.23 2.03946 0.150445 0
M  V30 6735 H 628.385 3.01321 2.43484 0
M  V30 6736 H 628.799 5.02353 1.50803 0
M  V30 6737 H 630.273 4.53508 3.14698 0
M  V30 6738 H 630.75 2.85005 3.34169 0
M  V30 6739 H 631.356 3.77898 1.95124 0
M  V30 6740 N 629.671 -0.424282 1.51781 0
M  V30 6741 C 630.92 -1.16961 1.64326 0
M  V30 6742 C 631.233 -1.92035 0.371749 0
M  V30 6743 O 632.439 -2.68873 0.37676 0
M  V30 6744 C 630.895 -2.12782 2.90262 0
M  V30 6745 C 630.503 -1.43295 4.24465 0
M  V30 6746 C 632.247 -2.87667 3.12166 0
M  V30 6747 C 630.154 -2.37676 5.41538 0
M  V30 6748 H 629.084 -0.440293 0.612093 0
M  V30 6749 H 631.735 -0.435431 1.78259 0
M  V30 6750 H 630.117 -2.8969 2.69992 0
M  V30 6751 H 631.291 -0.718564 4.55163 0
M  V30 6752 H 629.606 -0.805118 4.08542 0
M  V30 6753 H 632.203 -3.58395 3.96808 0
M  V30 6754 H 632.546 -3.49758 2.25776 0
M  V30 6755 H 633.079 -2.17863 3.32837 0
M  V30 6756 H 629.818 -1.80255 6.30229 0
M  V30 6757 H 629.338 -3.07132 5.15199 0
M  V30 6758 H 631.017 -2.98529 5.74012 0
M  V30 6759 N 631.149 -1.42148 -0.680565 0
M  V30 6760 C 632.377 -1.45696 -1.46902 0
M  V30 6761 C 632.792 -0.0665858 -1.88683 0
M  V30 6762 O 632.149 0.917436 -1.57764 0
M  V30 6763 C 632.2 -2.37898 -2.72188 0
M  V30 6764 O 631.921 -3.71526 -2.32163 0
M  V30 6765 C 633.422 -2.50407 -3.65802 0
M  V30 6766 H 630.642 -0.495729 -0.45221 0
M  V30 6767 H 633.186 -1.866 -0.836709 0
M  V30 6768 H 631.341 -2.00263 -3.31622 0
M  V30 6769 H 631.755 -4.20849 -3.13027 0
M  V30 6770 H 633.229 -3.19056 -4.50452 0
M  V30 6771 H 633.706 -1.5401 -4.11312 0
M  V30 6772 H 634.312 -2.8874 -3.12265 0
M  V30 6773 N 632.627 0.916307 -1.28225 0
M  V30 6774 C 633.59 1.99996 -1.11957 0
M  V30 6775 C 634.59 1.60688 -0.0600152 0
M  V30 6776 O 635.78 1.71499 -0.30558 0
M  V30 6777 C 632.912 3.33458 -0.708411 0
M  V30 6778 H 634.105 2.15858 -2.08196 0
M  V30 6779 H 631.658 1.09863 -1.11175 0
M  V30 6780 H 632.393 3.23297 0.254859 0
M  V30 6781 H 632.178 3.63349 -1.47377 0
M  V30 6782 H 633.668 4.13014 -0.617164 0
M  V30 6783 N 634.105 1.10431 1.1244 0
M  V30 6784 C 635.351 0.847972 1.84221 0
M  V30 6785 C 635.684 -0.624903 1.83871 0
M  V30 6786 O 634.959 -1.46074 1.28423 0
M  V30 6787 C 635.242 1.39695 3.319 0
M  V30 6788 C 635.095 2.93668 3.40704 0
M  V30 6789 C 636.414 1.03924 4.27654 0
M  V30 6790 H 633.533 0.309502 0.668863 0
M  V30 6791 H 636.175 1.36745 1.31912 0
M  V30 6792 H 634.325 0.955095 3.76577 0
M  V30 6793 H 635.997 3.46379 3.04662 0
M  V30 6794 H 634.24 3.30272 2.81252 0
M  V30 6795 H 634.911 3.27162 4.446 0
M  V30 6796 H 637.387 1.42049 3.91102 0
M  V30 6797 H 636.263 1.45027 5.29394 0
M  V30 6798 H 636.524 -0.051336 4.4207 0
M  V30 6799 N 635.583 -1.29855 0.893053 0
M  V30 6800 C 636.823 -1.97612 0.522399 0
M  V30 6801 C 637.187 -1.68903 -0.913 0
M  V30 6802 O 638.388 -2.30059 -1.39019 0
M  V30 6803 C 636.659 -3.48356 0.79893 0
M  V30 6804 S 638.218 -4.35568 0.531588 0
M  V30 6805 H 635.036 -0.684005 0.194058 0
M  V30 6806 H 637.638 -1.57803 1.15406 0
M  V30 6807 H 636.342 -3.66743 1.84196 0
M  V30 6808 H 635.873 -3.93094 0.155133 0
M  V30 6809 H 637.888 -4.92232 -0.626295 0
M  V30 6810 N 637.061 -0.65484 -1.43351 0
M  V30 6811 C 638.009 0.0476784 -2.32551 0
M  V30 6812 C 639.003 0.811403 -1.48703 0
M  V30 6813 O 640.209 0.721621 -1.64902 0
M  V30 6814 H 636.584 0.0342038 -0.751222 0
M  V30 6815 H 638.555 -0.722342 -2.89525 0
M  V30 6816 C 637.304 0.999251 -3.33032 0
M  V30 6817 H 636.627 0.421005 -3.97577 0
M  V30 6818 H 638.067 1.45986 -3.98076 0
M  V30 6819 C 636.526 2.09606 -2.63756 0
M  V30 6820 O 637.056 3.18004 -2.4543 0
M  V30 6821 N 635.262 1.86207 -2.23103 0
M  V30 6822 H 634.809 0.980555 -2.38208 0
M  V30 6823 H 634.767 2.59787 -1.77081 0
M  V30 6824 N 638.539 1.52521 -0.396863 0
M  V30 6825 C 639.469 2.29582 0.425941 0
M  V30 6826 C 640.45 1.33281 1.05689 0
M  V30 6827 O 641.635 1.62181 1.06823 0
M  V30 6828 C 638.765 3.10821 1.54943 0
M  V30 6829 C 637.719 4.15069 1.04413 0
M  V30 6830 C 637.045 4.84578 2.26028 0
M  V30 6831 C 638.345 5.22191 0.106767 0
M  V30 6832 H 640.039 2.98612 -0.217045 0
M  V30 6833 H 637.585 1.43611 -0.105826 0
M  V30 6834 H 639.538 3.63492 2.13193 0
M  V30 6835 H 638.262 2.39538 2.22011 0
M  V30 6836 H 636.921 3.63389 0.484118 0
M  V30 6837 H 636.569 4.09835 2.91623 0
M  V30 6838 H 636.269 5.55043 1.92876 0
M  V30 6839 H 637.793 5.40056 2.84906 0
M  V30 6840 H 639.207 5.70176 0.597685 0
M  V30 6841 H 637.604 5.99947 -0.135352 0
M  V30 6842 H 638.674 4.77531 -0.842134 0
M  V30 6843 N 640.017 0.126909 1.57088 0
M  V30 6844 C 640.967 -0.831678 2.1229 0
M  V30 6845 C 641.951 -1.22292 1.04564 0
M  V30 6846 O 643.143 -1.19269 1.30782 0
M  V30 6847 C 640.272 -2.07866 2.73215 0
M  V30 6848 C 639.358 -1.71143 3.88035 0
M  V30 6849 N 639.749 -1.05136 4.94753 0
M  V30 6850 C 638.047 -2.00549 3.98367 0
M  V30 6851 C 638.748 -0.877257 5.75047 0
M  V30 6852 N 637.724 -1.40477 5.25135 0
M  V30 6853 H 641.526 -0.317926 2.92175 0
M  V30 6854 H 639.04 -0.0753052 1.62225 0
M  V30 6855 H 641.037 -2.77516 3.11111 0
M  V30 6856 H 639.697 -2.59778 1.94796 0
M  V30 6857 H 640.708 -0.71442 5.12949 0
M  V30 6858 H 637.385 -2.54452 3.30999 0
M  V30 6859 H 638.775 -0.358536 6.70943 0
M  V30 6860 N 641.495 -1.56914 -0.146875 0
M  V30 6861 C 642.743 -1.82994 -0.85777 0
M  V30 6862 C 643.064 -0.707814 -1.817 0
M  V30 6863 O 642.334 0.270521 -1.94023 0
M  V30 6864 H 640.914 -0.675106 -0.319751 0
M  V30 6865 H 643.576 -1.9439 -0.140849 0
M  V30 6866 H 642.672 -2.77928 -1.41994 0
M  V30 6867 N 642.974 0.416227 -1.52004 0
M  V30 6868 C 643.884 1.53147 -1.77717 0
M  V30 6869 C 644.9 1.609 -0.662368 0
M  V30 6870 O 646.076 1.77747 -0.946991 0
M  V30 6871 C 643.141 2.88948 -1.91598 0
M  V30 6872 C 642.202 2.9114 -3.15493 0
M  V30 6873 C 641.435 4.20464 -3.28703 0
M  V30 6874 O 641.658 5.13981 -2.47345 0
M  V30 6875 O 640.592 4.29368 -4.21813 0
M  V30 6876 H 644.418 1.34357 -2.72363 0
M  V30 6877 H 642.003 0.601373 -1.36762 0
M  V30 6878 H 643.885 3.69505 -2.02593 0
M  V30 6879 H 642.56 3.07821 -1.00141 0
M  V30 6880 H 641.467 2.09461 -3.09962 0
M  V30 6881 H 642.8 2.77216 -4.06709 0
M  V30 6882 N 644.452 1.42507 0.673017 0
M  V30 6883 C 645.399 1.46124 1.78651 0
M  V30 6884 C 646.369 0.313007 1.63124 0
M  V30 6885 O 647.554 0.517337 1.83653 0
M  V30 6886 C 644.694 1.3711 3.16694 0
M  V30 6887 C 643.807 2.61983 3.43495 0
M  V30 6888 C 642.942 2.45098 4.71275 0
M  V30 6889 C 641.981 3.65336 4.91117 0
M  V30 6890 N 641.118 3.47383 6.10139 0
M  V30 6891 H 645.958 2.4128 1.74895 0
M  V30 6892 H 643.495 1.19788 0.853766 0
M  V30 6893 H 645.453 1.29881 3.96468 0
M  V30 6894 H 644.083 0.45549 3.1957 0
M  V30 6895 H 643.135 2.79571 2.57961 0
M  V30 6896 H 644.447 3.51355 3.5405 0
M  V30 6897 H 643.601 2.35466 5.59143 0
M  V30 6898 H 642.34 1.53219 4.63007 0
M  V30 6899 H 641.345 3.754 4.0169 0
M  V30 6900 H 642.57 4.58199 5.01229 0
M  V30 6901 H 640.516 2.58222 6.0304 0
M  V30 6902 H 640.433 4.30344 6.21563 0
M  V30 6903 H 641.701 3.41565 7.00681 0
M  V30 6904 N 645.93 -0.909495 1.28709 0
M  V30 6905 C 646.86 -2.0291 1.15542 0
M  V30 6906 C 647.841 -1.7002 0.0521017 0
M  V30 6907 O 649.026 -1.92835 0.229849 0
M  V30 6908 C 646.156 -3.37458 0.820935 0
M  V30 6909 C 645.11 -3.84524 1.87949 0
M  V30 6910 C 644.436 -5.16086 1.39854 0
M  V30 6911 C 645.736 -4.05918 3.28676 0
M  V30 6912 H 647.43 -2.14183 2.09203 0
M  V30 6913 H 644.976 -1.02913 1.00722 0
M  V30 6914 H 646.929 -4.1528 0.715571 0
M  V30 6915 H 645.653 -3.26249 -0.151374 0
M  V30 6916 H 644.312 -3.08911 1.97408 0
M  V30 6917 H 643.96 -5.01284 0.41518 0
M  V30 6918 H 643.66 -5.48547 2.1064 0
M  V30 6919 H 645.184 -5.96459 1.30649 0
M  V30 6920 H 646.598 -4.74252 3.22115 0
M  V30 6921 H 644.995 -4.49717 3.97334 0
M  V30 6922 H 646.065 -3.10583 3.72379 0
M  V30 6923 N 647.408 -1.11026 -1.11852 0
M  V30 6924 C 648.34 -0.72249 -2.17515 0
M  V30 6925 C 649.353 0.243782 -1.60964 0
M  V30 6926 O 650.542 0.0273252 -1.78479 0
M  V30 6927 C 647.642 -0.0463979 -3.38868 0
M  V30 6928 C 646.815 -1.0384 -4.24895 0
M  V30 6929 C 645.874 -0.392659 -5.24733 0
M  V30 6930 O 644.9 -1.0453 -5.5952 0
M  V30 6931 N 646.102 0.846296 -5.74298 0
M  V30 6932 H 648.867 -1.63161 -2.51393 0
M  V30 6933 H 646.428 -0.999899 -1.27333 0
M  V30 6934 H 648.42 0.397215 -4.02746 0
M  V30 6935 H 646.99 0.765231 -3.03089 0
M  V30 6936 H 646.21 -1.6601 -3.57539 0
M  V30 6937 H 647.498 -1.70968 -4.79215 0
M  V30 6938 H 646.896 1.39578 -5.4821 0
M  V30 6939 H 645.453 1.23296 -6.40032 0
M  V30 6940 N 648.886 1.2938 -0.899927 0
M  V30 6941 C 650.132 1.9584 -0.526742 0
M  V30 6942 C 650.465 1.70774 0.924651 0
M  V30 6943 O 649.74 1.02084 1.65557 0
M  V30 6944 C 650.023 3.50638 -0.820062 0
M  V30 6945 C 649.876 3.85161 -2.32317 0
M  V30 6946 C 651.195 4.3903 -0.30671 0
M  V30 6947 H 648.314 0.711322 -0.192848 0
M  V30 6948 H 650.956 1.52992 -1.12665 0
M  V30 6949 H 649.106 3.87265 -0.309491 0
M  V30 6950 H 650.778 3.58477 -2.9033 0
M  V30 6951 H 649.021 3.32696 -2.78381 0
M  V30 6952 H 649.692 4.93204 -2.47898 0
M  V30 6953 H 652.168 4.09396 -0.743908 0
M  V30 6954 H 651.044 5.46226 -0.541144 0
M  V30 6955 H 651.305 4.34937 0.792588 0
M  V30 6956 N 650.364 0.662433 1.43002 0
M  V30 6957 C 651.611 0.179591 2.01702 0
M  V30 6958 C 651.939 -1.20964 1.52309 0
M  V30 6959 O 651.194 -1.82343 0.7106 0
M  V30 6960 C 651.493 0.149363 3.57088 0
M  V30 6961 C 651.159 1.48158 4.25864 0
M  V30 6962 C 649.821 1.84638 4.44367 0
M  V30 6963 C 652.173 2.35953 4.64732 0
M  V30 6964 C 649.501 3.08561 4.99006 0
M  V30 6965 C 651.853 3.59176 5.20745 0
M  V30 6966 C 650.517 3.95841 5.37463 0
M  V30 6967 H 649.787 0.0657172 0.73808 0
M  V30 6968 H 652.434 0.854968 1.71355 0
M  V30 6969 H 650.739 -0.609491 3.8703 0
M  V30 6970 H 652.436 -0.241241 4.00274 0
M  V30 6971 H 649.026 1.18777 4.11813 0
M  V30 6972 H 653.21 2.09058 4.50121 0
M  V30 6973 H 648.466 3.37005 5.10135 0
M  V30 6974 H 652.64 4.27417 5.49807 0
M  V30 6975 H 650.267 4.91942 5.79566 0
M  V30 6976 N 651.842 -1.52309 0.404946 0
M  V30 6977 C 652.789 -2.26898 -0.422597 0
M  V30 6978 C 653.759 -1.2914 -1.04461 0
M  V30 6979 O 654.944 -1.57996 -1.06967 0
M  V30 6980 C 652.084 -3.09053 -1.53559 0
M  V30 6981 C 651.197 -4.21762 -0.934908 0
M  V30 6982 C 650.332 -4.91283 -2.02025 0
M  V30 6983 C 649.371 -5.95962 -1.39628 0
M  V30 6984 N 648.508 -6.59017 -2.42159 0
M  V30 6985 H 653.348 -2.97188 0.219903 0
M  V30 6986 H 650.885 -1.46607 0.120282 0
M  V30 6987 H 652.843 -3.54987 -2.19181 0
M  V30 6988 H 651.473 -2.40942 -2.14818 0
M  V30 6989 H 650.525 -3.80029 -0.167854 0
M  V30 6990 H 651.837 -4.96864 -0.439073 0
M  V30 6991 H 650.991 -5.40601 -2.75383 0
M  V30 6992 H 649.73 -4.15741 -2.54973 0
M  V30 6993 H 648.735 -5.45968 -0.648023 0
M  V30 6994 H 649.96 -6.73445 -0.874553 0
M  V30 6995 H 647.906 -5.86306 -2.94247 0
M  V30 6996 H 647.823 -7.2978 -1.97376 0
M  V30 6997 H 649.091 -7.12974 -3.15099 0
M  V30 6998 N 653.32 -0.135238 -1.57019 0
M  V30 6999 C 654.252 0.839675 -2.13265 0
M  V30 7000 C 655.265 1.21887 -1.07923 0
M  V30 7001 O 656.454 1.16499 -1.35241 0
M  V30 7002 C 653.554 2.13647 -2.63075 0
M  V30 7003 C 652.727 1.92646 -3.92691 0
M  V30 7004 C 651.786 3.06205 -4.27931 0
M  V30 7005 O 650.812 2.78409 -4.96465 0
M  V30 7006 N 652.014 4.33072 -3.86561 0
M  V30 7007 H 654.779 0.359026 -2.97542 0
M  V30 7008 H 652.34 0.0486979 -1.61827 0
M  V30 7009 H 654.332 2.88641 -2.8367 0
M  V30 7010 H 652.902 2.5301 -1.83588 0
M  V30 7011 H 652.122 1.01754 -3.80841 0
M  V30 7012 H 653.41 1.75939 -4.77413 0
M  V30 7013 H 652.808 4.58526 -3.31316 0
M  V30 7014 H 651.365 5.04885 -4.12231 0
M  V30 7015 N 654.798 1.5699 0.138552 0
M  V30 7016 C 656.023 1.88344 0.86841 0
M  V30 7017 C 656.448 0.725159 1.7356 0
M  V30 7018 O 655.806 -0.324992 1.78363 0
M  V30 7019 C 655.854 3.18334 1.69398 0
M  V30 7020 O 654.958 3.02863 2.79907 0
M  V30 7021 H 654.299 0.618577 0.241367 0
M  V30 7022 H 656.829 2.04207 0.126826 0
M  V30 7023 H 656.839 3.50567 2.08726 0
M  V30 7024 H 655.514 4.02238 1.05725 0
M  V30 7025 H 654.091 2.82056 2.43924 0
M  V30 7026 N 656.276 -0.40816 1.52223 0
M  V30 7027 C 657.226 -1.49648 1.72016 0
M  V30 7028 C 658.21 -1.50311 0.574069 0
M  V30 7029 O 659.402 -1.56271 0.831173 0
M  V30 7030 C 656.531 -2.87566 1.87512 0
M  V30 7031 C 655.617 -2.91547 3.07995 0
M  V30 7032 N 656.008 -2.65225 4.30685 0
M  V30 7033 C 654.306 -3.22715 3.07849 0
M  V30 7034 C 655.007 -2.75799 5.12162 0
M  V30 7035 N 653.983 -3.08719 4.4743 0
M  V30 7036 H 657.785 -1.28093 2.64517 0
M  V30 7037 H 655.299 -0.61588 1.50269 0
M  V30 7038 H 657.296 -3.65899 1.99809 0
M  V30 7039 H 655.956 -3.10118 0.962114 0
M  V30 7040 H 656.967 -2.39601 4.59142 0
M  V30 7041 H 653.644 -3.50856 2.26289 0
M  V30 7042 H 655.034 -2.59155 6.1991 0
M  V30 7043 N 657.755 -1.42862 -0.66545 0
M  V30 7044 C 659.166 -1.3901 -1.24632 0
M  V30 7045 C 659.517 -0.0880285 -1.96002 0
M  V30 7046 O 658.642 0.812947 -2.0055 0
M  V30 7047 C 659.237 -2.51806 -2.2667 0
M  V30 7048 C 657.796 -2.51257 -2.80262 0
M  V30 7049 C 656.943 -2.30124 -1.5472 0
M  V30 7050 H 659.894 -1.5194 -0.458237 0
M  V30 7051 H 659.915 -2.22593 -3.08598 0
M  V30 7052 H 659.427 -3.46558 -1.74697 0
M  V30 7053 H 657.528 -1.60349 -3.36332 0
M  V30 7054 H 657.641 -3.48614 -3.28641 0
M  V30 7055 H 656.005 -1.7856 -1.81627 0
M  V30 7056 H 656.788 -3.26945 -1.04699 0
M  V30 7057 N 659.233 0.902656 -1.29189 0
M  V30 7058 C 660.143 2.03946 -1.15944 0
M  V30 7059 C 661.159 1.738 -0.0833803 0
M  V30 7060 O 662.335 1.9923 -0.29487 0
M  V30 7061 C 659.4 3.36519 -0.834006 0
M  V30 7062 C 658.461 3.80203 -1.9936 0
M  V30 7063 C 657.694 5.06449 -1.68359 0
M  V30 7064 O 657.917 5.67202 -0.603141 0
M  V30 7065 O 656.851 5.46114 -2.53067 0
M  V30 7066 H 660.677 2.18043 -2.11403 0
M  V30 7067 H 658.262 1.02584 -1.08613 0
M  V30 7068 H 660.144 4.16089 -0.666949 0
M  V30 7069 H 658.819 3.23573 0.0908245 0
M  V30 7070 H 657.726 3.01413 -2.21588 0
M  V30 7071 H 659.059 3.97729 -2.89952 0
M  V30 7072 N 660.711 1.11618 1.11262 0
M  V30 7073 C 661.96 0.860934 1.82403 0
M  V30 7074 C 662.273 -0.615303 1.8567 0
M  V30 7075 O 663.479 -0.986861 2.52929 0
M  V30 7076 C 661.935 1.49048 3.27586 0
M  V30 7077 C 661.543 3.00089 3.32642 0
M  V30 7078 C 663.287 1.31515 4.03614 0
M  V30 7079 C 661.194 3.56019 4.72234 0
M  V30 7080 H 660.124 0.318423 0.683464 0
M  V30 7081 H 662.775 1.34165 1.25188 0
M  V30 7082 H 661.157 0.937434 3.84744 0
M  V30 7083 H 662.331 3.61813 2.85356 0
M  V30 7084 H 660.646 3.16919 2.70096 0
M  V30 7085 H 663.243 1.70732 5.0671 0
M  V30 7086 H 663.586 0.257917 4.155 0
M  V30 7087 H 664.119 1.83694 3.52848 0
M  V30 7088 H 660.858 4.61463 4.65545 0
M  V30 7089 H 660.378 2.99066 5.19923 0
M  V30 7090 H 662.057 3.54568 5.41193 0
M  V30 7091 N 662.189 -1.289 0.906776 0
M  V30 7092 C 663.435 -1.95558 0.53712 0
M  V30 7093 C 663.768 -1.71262 -0.915582 0
M  V30 7094 O 663.043 -1.02961 -1.65013 0
M  V30 7095 C 663.326 -3.50198 0.838645 0
M  V30 7096 C 663.179 -3.83923 2.34357 0
M  V30 7097 C 664.498 -4.38861 0.329988 0
M  V30 7098 H 661.617 -0.710289 0.196617 0
M  V30 7099 H 664.259 -1.52392 1.13475 0
M  V30 7100 H 662.409 -3.87096 0.330024 0
M  V30 7101 H 664.081 -3.56933 2.92227 0
M  V30 7102 H 662.324 -3.31215 2.80141 0
M  V30 7103 H 662.995 -4.91883 2.5051 0
M  V30 7104 H 665.471 -4.08996 0.765609 0
M  V30 7105 H 664.347 -5.45931 0.570105 0
M  V30 7106 H 664.608 -4.35352 -0.769511 0
M  V30 7107 N 663.667 -0.670007 -1.42649 0
M  V30 7108 C 664.615 0.0230106 -2.32589 0
M  V30 7109 C 665.609 0.795585 -1.49555 0
M  V30 7110 O 666.815 0.70409 -1.65658 0
M  V30 7111 H 663.19 0.0262342 -0.751542 0
M  V30 7112 H 665.161 -0.753009 -2.88743 0
M  V30 7113 C 663.91 0.963872 -3.34073 0
M  V30 7114 H 663.233 0.378813 -3.98001 0
M  V30 7115 H 664.673 1.41755 -3.99602 0
M  V30 7116 C 663.132 2.06797 -2.65964 0
M  V30 7117 O 663.662 3.15383 -2.48789 0
M  V30 7118 N 661.868 1.83831 -2.25066 0
M  V30 7119 H 661.415 0.955235 -2.39234 0
M  V30 7120 H 661.373 2.57895 -1.79827 0
M  V30 7121 N 665.145 1.52092 -0.413018 0
M  V30 7122 C 666.373 2.06274 0.160881 0
M  V30 7123 C 666.788 1.28273 1.38533 0
M  V30 7124 O 666.145 0.33563 1.79387 0
M  V30 7125 C 666.196 3.57921 0.507443 0
M  V30 7126 O 665.917 4.32971 -0.668388 0
M  V30 7127 C 667.418 4.28533 1.13465 0
M  V30 7128 H 664.638 0.67074 0.0186759 0
M  V30 7129 H 667.182 1.95951 -0.585092 0
M  V30 7130 H 665.337 3.68238 1.20331 0
M  V30 7131 H 665.751 5.23135 -0.378169 0
M  V30 7132 H 667.225 5.35804 1.32732 0
M  V30 7133 H 667.702 3.85258 2.10886 0
M  V30 7134 H 668.308 4.22595 0.478876 0
M  V30 7135 N 666.623 0.143563 1.56945 0
M  V30 7136 C 667.553 -0.7936 2.196 0
M  V30 7137 C 668.534 -1.25955 1.14321 0
M  V30 7138 O 669.719 -1.31773 1.42651 0
M  V30 7139 C 666.849 -2.03424 2.81489 0
M  V30 7140 C 665.803 -1.70519 3.92565 0
M  V30 7141 C 665.129 -3.01817 4.41373 0
M  V30 7142 C 666.429 -0.95449 5.13504 0
M  V30 7143 H 668.123 -0.271423 2.98167 0
M  V30 7144 H 665.669 -0.12911 1.4342 0
M  V30 7145 H 667.622 -2.69463 3.23987 0
M  V30 7146 H 666.346 -2.58008 2.00248 0
M  V30 7147 H 665.005 -1.06859 3.5068 0
M  V30 7148 H 664.653 -3.54386 3.56959 0
M  V30 7149 H 664.353 -2.80565 5.16292 0
M  V30 7150 H 665.877 -3.68934 4.86539 0
M  V30 7151 H 667.291 -1.5169 5.52868 0
M  V30 7152 H 665.688 -0.842035 5.94163 0
M  V30 7153 H 666.758 0.0544033 4.84869 0
M  V30 7154 N 668.101 -1.57061 -0.130224 0
M  V30 7155 C 669.348 -1.84257 -0.839972 0
M  V30 7156 C 669.676 -0.726986 -1.80403 0
M  V30 7157 O 668.931 0.282632 -1.93648 0
M  V30 7158 C 669.23 -3.17878 -1.63365 0
M  V30 7159 C 668.896 -4.43475 -0.814891 0
M  V30 7160 C 667.558 -4.77581 -0.589066 0
M  V30 7161 C 669.91 -5.20631 -0.243437 0
M  V30 7162 C 667.238 -5.86292 0.218648 0
M  V30 7163 C 669.59 -6.30192 0.551408 0
M  V30 7164 C 668.254 -6.62837 0.787653 0
M  V30 7165 H 667.524 -0.674245 -0.307367 0
M  V30 7166 H 670.171 -1.91224 -0.102832 0
M  V30 7167 H 668.476 -3.06437 -2.44138 0
M  V30 7168 H 670.173 -3.3614 -2.18658 0
M  V30 7169 H 666.763 -4.16747 -1.00098 0
M  V30 7170 H 670.947 -4.94644 -0.405145 0
M  V30 7171 H 666.203 -6.10017 0.411016 0
M  V30 7172 H 670.377 -6.89165 1.00126 0
M  V30 7173 H 668.004 -7.46908 1.41537 0
M  V30 7174 N 669.579 0.400081 -1.52437 0
M  V30 7175 C 670.99 0.97851 -1.59003 0
M  V30 7176 C 671.341 1.91293 -0.436068 0
M  V30 7177 O 670.466 2.1183 0.442365 0
M  V30 7178 C 671.061 1.78145 -2.88184 0
M  V30 7179 C 669.62 2.30976 -2.97199 0
M  V30 7180 C 668.767 1.11212 -2.54022 0
M  V30 7181 H 671.718 0.180002 -1.57676 0
M  V30 7182 H 671.739 2.63968 -2.74046 0
M  V30 7183 H 671.251 1.1011 -3.72152 0
M  V30 7184 H 669.352 3.02355 -2.17744 0
M  V30 7185 H 669.465 2.61221 -4.01622 0
M  V30 7186 H 667.829 1.46882 -2.08081 0
M  V30 7187 H 668.612 0.447307 -3.40373 0
M  V30 7188 N 671.057 1.43213 0.657864 0
M  V30 7189 C 672.468 1.39669 1.23893 0
M  V30 7190 C 672.819 0.0984217 1.95953 0
M  V30 7191 O 671.944 -0.8023 2.00978 0
M  V30 7192 C 672.539 2.53004 2.25332 0
M  V30 7193 C 671.098 2.5274 2.78926 0
M  V30 7194 C 670.245 2.30941 1.53497 0
M  V30 7195 H 673.196 1.52181 0.450172 0
M  V30 7196 H 673.217 2.24226 3.07413 0
M  V30 7197 H 672.729 3.4748 1.72856 0
M  V30 7198 H 670.83 1.6213 3.35477 0
M  V30 7199 H 670.943 3.50352 3.26787 0
M  V30 7200 H 669.307 1.7952 1.80678 0
M  V30 7201 H 670.09 3.27496 1.02963 0
M  V30 7202 N 672.536 -0.895792 1.29666 0
M  V30 7203 C 673.466 -2.01673 1.17688 0
M  V30 7204 C 674.447 -1.69955 0.0701317 0
M  V30 7205 O 675.632 -1.9258 0.250289 0
M  V30 7206 C 672.762 -3.36568 0.856681 0
M  V30 7207 C 671.716 -3.82509 1.92017 0
M  V30 7208 C 671.042 -5.14574 1.4532 0
M  V30 7209 C 672.342 -4.02409 3.32963 0
M  V30 7210 H 674.036 -2.11953 2.11463 0
M  V30 7211 H 671.582 -1.01839 1.01807 0
M  V30 7212 H 673.535 -4.14498 0.759577 0
M  V30 7213 H 672.259 -3.26391 -0.116763 0
M  V30 7214 H 670.918 -3.068 2.00673 0
M  V30 7215 H 670.566 -5.00815 0.468325 0
M  V30 7216 H 670.266 -5.46283 2.16447 0
M  V30 7217 H 671.79 -5.9504 1.36968 0
M  V30 7218 H 673.204 -4.70808 3.27127 0
M  V30 7219 H 671.601 -4.45478 4.02082 0
M  V30 7220 H 672.671 -3.06616 3.75652 0
M  V30 7221 N 674.014 -1.12206 -1.10668 0
M  V30 7222 C 675.244 -0.897332 -1.86095 0
M  V30 7223 C 675.652 0.556778 -1.80822 0
M  V30 7224 O 674.995 1.39658 -1.19337 0
M  V30 7225 C 675.057 -1.29095 -3.35522 0
M  V30 7226 C 674.721 -2.75586 -3.64556 0
M  V30 7227 C 675.718 -3.73785 -3.6136 0
M  V30 7228 C 673.403 -3.12432 -3.93309 0
M  V30 7229 C 675.397 -5.06845 -3.86506 0
M  V30 7230 C 673.084 -4.45675 -4.18111 0
M  V30 7231 C 674.082 -5.42691 -4.147 0
M  V30 7232 O 673.77 -6.73532 -4.38873 0
M  V30 7233 H 673.502 -0.320704 -0.595084 0
M  V30 7234 H 676.056 -1.49517 -1.40833 0
M  V30 7235 H 674.286 -0.636299 -3.81429 0
M  V30 7236 H 675.975 -1.04073 -3.92331 0
M  V30 7237 H 676.741 -3.46664 -3.39189 0
M  V30 7238 H 672.62 -2.3753 -3.95096 0
M  V30 7239 H 676.164 -5.82559 -3.83758 0
M  V30 7240 H 672.061 -4.72526 -4.39761 0
M  V30 7241 H 672.829 -6.79442 -4.564 0
M  V30 7242 N 675.492 1.28418 -0.913599 0
M  V30 7243 C 676.439 2.27301 -0.400373 0
M  V30 7244 C 677.409 1.57582 0.52509 0
M  V30 7245 O 678.594 1.85482 0.447318 0
M  V30 7246 C 675.734 3.43284 0.35361 0
M  V30 7247 C 674.847 4.27752 -0.604341 0
M  V30 7248 C 673.982 5.30934 0.168075 0
M  V30 7249 C 673.021 6.07065 -0.783499 0
M  V30 7250 N 672.158 7.02086 -0.0446112 0
M  V30 7251 H 676.998 2.70579 -1.24865 0
M  V30 7252 H 674.535 1.33067 -0.627028 0
M  V30 7253 H 676.493 4.09322 0.806945 0
M  V30 7254 H 675.123 3.00997 1.16623 0
M  V30 7255 H 674.175 3.61759 -1.17621 0
M  V30 7256 H 675.487 4.80682 -1.33216 0
M  V30 7257 H 674.641 6.02855 0.681979 0
M  V30 7258 H 673.38 4.78771 0.928947 0
M  V30 7259 H 672.385 5.33995 -1.30878 0
M  V30 7260 H 673.61 6.61317 -1.54392 0
M  V30 7261 H 671.556 6.52273 0.698272 0
M  V30 7262 H 671.473 7.52637 -0.712258 0
M  V30 7263 H 672.741 7.78205 0.449102 0
M  V30 7264 N 676.97 0.677563 1.42291 0
M  V30 7265 C 677.88 0.000962654 2.346 0
M  V30 7266 C 678.896 -0.785833 1.55244 0
M  V30 7267 O 680.072 -0.727523 1.87801 0
M  V30 7268 C 677.137 -0.936746 3.33805 0
M  V30 7269 C 676.198 -0.144173 4.29058 0
M  V30 7270 C 675.431 -1.03722 5.23524 0
M  V30 7271 O 675.654 -2.27675 5.22992 0
M  V30 7272 O 674.588 -0.496542 5.99848 0
M  V30 7273 H 678.414 0.761397 2.94001 0
M  V30 7274 H 675.999 0.43781 1.42841 0
M  V30 7275 H 677.881 -1.47497 3.94744 0
M  V30 7276 H 676.556 -1.67698 2.76874 0
M  V30 7277 H 675.463 0.438224 3.71524 0
M  V30 7278 H 676.796 0.55701 4.89038 0
M  V30 7279 N 678.448 -1.51871 0.421078 0
M  V30 7280 C 679.378 -2.30231 -0.389363 0
M  V30 7281 C 680.359 -1.34946 -1.03555 0
M  V30 7282 O 681.544 -1.63859 -1.04229 0
M  V30 7283 C 678.674 -3.13247 -1.49979 0
M  V30 7284 C 677.628 -4.16677 -0.977966 0
M  V30 7285 C 676.954 -4.88112 -2.1829 0
M  V30 7286 C 678.254 -5.22295 -0.0236775 0
M  V30 7287 H 679.948 -2.98229 0.264524 0
M  V30 7288 H 677.494 -1.43424 0.12866 0
M  V30 7289 H 679.447 -3.66838 -2.07383 0
M  V30 7290 H 678.171 -2.4304 -2.18173 0
M  V30 7291 H 676.83 -3.64114 -0.426245 0
M  V30 7292 H 676.478 -4.14423 -2.85066 0
M  V30 7293 H 676.178 -5.58041 -1.84021 0
M  V30 7294 H 677.702 -5.44521 -2.76278 0
M  V30 7295 H 679.116 -5.71055 -0.506899 0
M  V30 7296 H 677.513 -5.99656 0.230782 0
M  V30 7297 H 678.583 -4.76131 0.917999 0
M  V30 7298 N 679.926 -0.151884 -1.56866 0
M  V30 7299 C 681.173 0.498004 -1.96281 0
M  V30 7300 C 681.501 1.64551 -1.03698 0
M  V30 7301 O 680.756 1.95585 -0.0671497 0
M  V30 7302 C 681.055 1.04074 -3.41911 0
M  V30 7303 C 680.721 0.0111688 -4.50899 0
M  V30 7304 C 679.383 -0.271844 -4.80432 0
M  V30 7305 C 681.735 -0.68869 -5.1663 0
M  V30 7306 C 679.063 -1.26044 -5.73001 0
M  V30 7307 C 681.415 -1.66613 -6.10264 0
M  V30 7308 C 680.079 -1.9568 -6.38174 0
M  V30 7309 H 679.349 0.182233 -0.718242 0
M  V30 7310 H 681.996 -0.239746 -1.89993 0
M  V30 7311 H 680.301 1.85592 -3.45055 0
M  V30 7312 H 681.998 1.55224 -3.69738 0
M  V30 7313 H 678.588 0.241932 -4.27917 0
M  V30 7314 H 682.772 -0.48324 -4.93942 0
M  V30 7315 H 678.028 -1.49202 -5.92915 0
M  V30 7316 H 682.202 -2.21392 -6.60272 0
M  V30 7317 H 679.829 -2.72434 -7.09707 0
M  V30 7318 N 681.404 1.57128 0.121893 0
M  V30 7319 C 682.352 2.01109 1.16868 0
M  V30 7320 C 683.346 0.907532 1.43039 0
M  V30 7321 O 684.552 1.09274 1.43036 0
M  V30 7322 H 680.927 0.640539 0.393971 0
M  V30 7323 H 682.898 2.88261 0.771224 0
M  V30 7324 C 681.647 2.42887 2.48799 0
M  V30 7325 H 680.97 3.2737 2.29498 0
M  V30 7326 H 682.41 2.77461 3.20611 0
M  V30 7327 C 680.869 1.29137 3.11168 0
M  V30 7328 O 681.399 0.605756 3.97106 0
M  V30 7329 N 679.605 1.04916 2.71 0
M  V30 7330 H 679.152 1.60848 2.01211 0
M  V30 7331 H 679.11 0.290016 3.1306 0
M  V30 7332 N 682.882 -0.391992 1.52647 0
M  V30 7333 C 684.293 -0.970064 1.5952 0
M  V30 7334 C 684.644 -1.91059 0.446207 0
M  V30 7335 O 683.769 -2.12062 -0.431125 0
M  V30 7336 C 684.364 -1.76614 2.89125 0
M  V30 7337 C 682.923 -2.29396 2.9842 0
M  V30 7338 C 682.07 -1.09864 2.54608 0
M  V30 7339 H 685.021 -0.171638 1.57769 0
M  V30 7340 H 685.042 -2.62511 2.75442 0
M  V30 7341 H 684.554 -1.08135 3.72731 0
M  V30 7342 H 682.655 -3.01196 2.19344 0
M  V30 7343 H 682.768 -2.59088 4.03002 0
M  V30 7344 H 681.132 -1.45777 2.08857 0
M  V30 7345 H 681.915 -0.429249 3.40606 0
M  V30 7346 N 684.36 -1.4356 -0.65026 0
M  V30 7347 C 685.637 -1.35811 -1.40765 0
M  V30 7348 C 686.017 -0.00736379 -2.11099 0
M  V30 7349 O 685.365 1.00932 -2.05 0
M  V30 7350 C 685.575 -2.54332 -2.3899 0
M  V30 7351 C 686.923 -2.97551 -3.02901 0
M  V30 7352 O 687.947 -2.544 -2.49317 0
M  V30 7353 O 686.806 -3.72311 -4.00059 0
M  V30 7354 H 683.9 -0.536861 -0.629054 0
M  V30 7355 H 686.446 -1.55615 -0.676919 0
M  V30 7356 H 685.218 -3.44274 -1.85986 0
M  V30 7357 H 684.841 -2.36643 -3.19509 0
M  V30 7358 N 685.838 0.888903 -1.30139 0
M  V30 7359 C 687.078 1.65456 -1.20015 0
M  V30 7360 C 687.442 1.90467 0.242148 0
M  V30 7361 O 688.643 2.6472 0.466561 0
M  V30 7362 C 686.914 2.96071 -2.00191 0
M  V30 7363 S 688.473 3.87055 -2.06721 0
M  V30 7364 H 685.291 0.567927 -0.427761 0
M  V30 7365 H 687.893 1.05539 -1.64565 0
M  V30 7366 H 686.597 2.7559 -3.04103 0
M  V30 7367 H 686.128 3.61023 -1.56288 0
M  V30 7368 H 688.143 4.81676 -1.19174 0
M  V30 7369 N 687.317 1.12792 1.10072 0
M  V30 7370 C 688.28 0.802264 2.14701 0
M  V30 7371 C 689.28 -0.18515 1.59731 0
M  V30 7372 O 690.47 0.041109 1.74151 0
M  V30 7373 C 687.602 0.19285 3.40354 0
M  V30 7374 H 688.795 1.72932 2.45019 0
M  V30 7375 H 686.348 0.931662 1.25498 0
M  V30 7376 H 687.083 -0.743748 3.15656 0
M  V30 7377 H 686.868 0.903827 3.81541 0
M  V30 7378 H 688.358 -0.0183704 4.17596 0
M  V30 7379 N 688.795 -1.27931 0.920396 0
M  V30 7380 C 690.023 -1.98805 0.573087 0
M  V30 7381 C 690.438 -1.68724 -0.847201 0
M  V30 7382 O 689.795 -0.943699 -1.56207 0
M  V30 7383 C 689.846 -3.52971 0.780633 0
M  V30 7384 O 689.567 -3.81994 2.14504 0
M  V30 7385 C 691.068 -4.411 0.44105 0
M  V30 7386 H 688.288 -0.634651 0.21785 0
M  V30 7387 H 690.832 -1.62965 1.23542 0
M  V30 7388 H 688.987 -3.87048 0.165204 0
M  V30 7389 H 689.401 -4.76609 2.18962 0
M  V30 7390 H 690.875 -5.48312 0.637006 0
M  V30 7391 H 691.352 -4.34758 -0.62306 0
M  V30 7392 H 691.958 -4.12532 1.0343 0
M  V30 7393 N 690.273 -0.685099 -1.4193 0
M  V30 7394 C 691.521 -0.21124 -2.00993 0
M  V30 7395 C 691.842 1.18985 -1.54491 0
M  V30 7396 O 691.112 1.8009 -0.771 0
M  V30 7397 H 689.692 -0.0751059 -0.743215 0
M  V30 7398 H 692.354 -0.883915 -1.73704 0
M  V30 7399 H 691.45 -0.220513 -3.1132 0
M  V30 7400 N 691.751 1.51645 -0.429126 0
M  V30 7401 C 692.991 2.03924 0.139354 0
M  V30 7402 C 693.355 1.30673 1.40672 0
M  V30 7403 O 694.556 1.73282 2.05491 0
M  V30 7404 C 692.827 3.5557 0.361179 0
M  V30 7405 S 694.386 4.29591 0.894241 0
M  V30 7406 H 691.204 0.710103 0.0356986 0
M  V30 7407 H 693.806 1.86491 -0.586644 0
M  V30 7408 H 692.51 4.06455 -0.567686 0
M  V30 7409 H 692.041 3.77283 1.11449 0
M  V30 7410 H 694.056 4.46102 2.17272 0
M  V30 7411 N 693.229 0.160201 1.56784 0
M  V30 7412 C 694.176 -0.774416 2.1742 0
M  V30 7413 C 695.146 -1.23483 1.11091 0
M  V30 7414 O 696.331 -1.30499 1.39193 0
M  V30 7415 C 693.471 -2.00283 2.81035 0
M  V30 7416 C 692.584 -1.58701 4.01793 0
M  V30 7417 C 691.719 -2.76824 4.53367 0
M  V30 7418 C 690.758 -2.31679 5.66561 0
M  V30 7419 N 689.895 -3.42856 6.12694 0
M  V30 7420 H 694.735 -0.250542 2.96945 0
M  V30 7421 H 692.272 -0.111943 1.46673 0
M  V30 7422 H 694.23 -2.72316 3.16069 0
M  V30 7423 H 692.86 -2.5006 2.04132 0
M  V30 7424 H 691.912 -0.76384 3.72652 0
M  V30 7425 H 693.224 -1.21555 4.83762 0
M  V30 7426 H 692.378 -3.57029 4.90525 0
M  V30 7427 H 691.117 -3.17223 3.70433 0
M  V30 7428 H 690.122 -1.49917 5.28966 0
M  V30 7429 H 691.347 -1.9235 6.5129 0
M  V30 7430 H 689.293 -3.82852 5.32692 0
M  V30 7431 H 689.21 -3.09767 6.89624 0
M  V30 7432 H 690.478 -4.23379 6.545 0
M  V30 7433 O 694.746 -1.61485 0.0219998 0
M  V30 7434 H 695.437 -1.84445 -0.591595 0
M  V30 END ATOM
M  V30 BEGIN BOND
M  V30 END BOND
M  V30 END CTAB
M  END
$$$$
