drugbank_target|P21281 V-type proton ATPase subunit B, brain isoform (DB05260; DB07347)
 OpenBabel12092120423D

  0  0  0     0  0            999 V3000
M  V30 BEGIN CTAB
M  V30 COUNTS 7948 8026 0 0 0
M  V30 BEGIN ATOM
M  V30 1 H -0.908 1.98254 -0.117106 0
M  V30 2 N 0 1.576 0 0
M  V30 3 C 0.933 2.03868 1.02534 0
M  V30 4 C 1.911 0.928543 1.3348 0
M  V30 5 O 3.095 1.19667 1.45644 0
M  V30 6 C 0.222 2.43627 2.35294 0
M  V30 7 C -0.732 3.65373 2.2001 0
M  V30 8 S 0.101 5.13292 1.52614 0
M  V30 9 C 1.257 5.56322 2.86805 0
M  V30 10 H 1.49 2.90518 0.631377 0
M  V30 11 H -0.977 1.52953 0.210867 0
M  V30 12 H 0.981 2.67203 3.11629 0
M  V30 13 H -0.358 1.57376 2.7183 0
M  V30 14 H -1.165 3.90944 3.18086 0
M  V30 15 H -1.563 3.418 1.51819 0
M  V30 16 H 0.729 5.58782 3.83104 0
M  V30 17 H 1.672 6.56266 2.65933 0
M  V30 18 H 2.08 4.83886 2.90714 0
M  V30 19 N 1.4781 -0.272755 1.55222 0
M  V30 20 C 2.4411 -1.32041 1.87344 0
M  V30 21 C 3.4411 -1.42342 0.74803 0
M  V30 22 O 4.6311 -1.41488 1.0162 0
M  V30 23 C 1.7631 -2.70173 2.07893 0
M  V30 24 H 2.9561 -1.04789 2.80997 0
M  V30 25 H 0.5091 -0.51083 1.47717 0
M  V30 26 H 1.2441 -3.02605 1.16622 0
M  V30 27 H 1.0291 -2.64082 2.89833 0
M  V30 28 H 2.5191 -3.45869 2.34017 0
M  V30 29 N 2.9562 -1.48159 -0.537278 0
M  V30 30 C 3.8862 -1.65029 -1.6519 0
M  V30 31 C 4.8672 -0.499281 -1.62607 0
M  V30 32 O 6.0522 -0.730972 -1.79918 0
M  V30 33 C 3.1822 -1.68303 -3.03795 0
M  V30 34 C 2.1362 -2.8283 -3.21234 0
M  V30 35 C 1.4622 -2.71189 -4.60826 0
M  V30 36 C 2.7622 -4.24211 -3.04701 0
M  V30 37 H 4.4562 -2.58341 -1.51328 0
M  V30 38 H 2.0022 -1.24325 -0.726585 0
M  V30 39 H 3.9552 -1.78693 -3.81637 0
M  V30 40 H 2.6792 -0.715635 -3.18663 0
M  V30 41 H 1.3382 -2.71983 -2.45807 0
M  V30 42 H 0.9862 -1.72435 -4.7252 0
M  V30 43 H 0.6862 -3.48035 -4.7344 0
M  V30 44 H 2.2102 -2.83537 -5.40777 0
M  V30 45 H 3.6242 -4.3593 -3.72341 0
M  V30 46 H 2.0212 -5.01998 -3.28813 0
M  V30 47 H 3.0912 -4.41184 -2.01209 0
M  V30 48 N 4.4343 0.785586 -1.36625 0
M  V30 49 C 5.8503 1.08419 -1.17122 0
M  V30 50 C 6.0503 2.015 0.00208491 0
M  V30 51 O 5.1063 2.43551 0.666278 0
M  V30 52 C 6.4193 1.69498 -2.48377 0
M  V30 53 C 7.9673 1.81821 -2.54775 0
M  V30 54 C 8.4423 2.46315 -3.86126 0
M  V30 55 N 9.9333 2.53779 -3.87492 0
M  V30 56 C 10.6683 3.045 -4.85868 0
M  V30 57 N 10.1643 3.55499 -5.94637 0
M  V30 58 N 11.9573 3.03247 -4.73284 0
M  V30 59 H 4.1083 0.167264 -2.1174 0
M  V30 60 H 6.3713 0.13682 -0.938075 0
M  V30 61 H 6.0773 1.08571 -3.34522 0
M  V30 62 H 5.9513 2.6896 -2.64462 0
M  V30 63 H 8.3383 2.41884 -1.69045 0
M  V30 64 H 8.4193 0.811532 -2.42586 0
M  V30 65 H 8.0633 1.86895 -4.72263 0
M  V30 66 H 7.9933 3.47561 -3.95612 0
M  V30 67 H 10.4843 2.17672 -3.08913 0
M  V30 68 H 10.7973 3.92562 -6.65669 0
M  V30 69 H 9.1423 3.5364 -5.98301 0
M  V30 70 H 12.3333 2.62696 -3.87438 0
M  V30 71 H 12.5063 3.42467 -5.50109 0
M  V30 72 N 5.9124 1.20967 1.01018 0
M  V30 73 C 6.8754 0.965918 2.07853 0
M  V30 74 C 7.8754 -0.0610545 1.60684 0
M  V30 75 O 9.0654 0.175681 1.73312 0
M  V30 76 C 6.1974 0.455513 3.37843 0
M  V30 77 H 7.3904 1.91365 2.3091 0
M  V30 78 H 4.9434 1.02594 1.17916 0
M  V30 79 H 5.6784 -0.497381 3.20463 0
M  V30 80 H 5.4634 1.19622 3.73407 0
M  V30 81 H 6.9534 0.304667 4.16487 0
M  V30 82 N 7.3905 -1.2043 1.01659 0
M  V30 83 C 8.3235 -2.21924 0.531521 0
M  V30 84 C 9.3015 -1.57054 -0.421032 0
M  V30 85 O 10.4855 -1.85389 -0.341035 0
M  V30 86 C 7.6125 -3.37942 -0.226496 0
M  V30 87 C 6.6585 -4.21115 0.67561 0
M  V30 88 S 7.4915 -4.90674 2.14475 0
M  V30 89 C 8.6475 -6.10113 1.3969 0
M  V30 90 H 8.8805 -2.62725 1.3915 0
M  V30 91 H 6.4135 -1.30481 0.825479 0
M  V30 92 H 8.3715 -4.05196 -0.657738 0
M  V30 93 H 7.0325 -2.956 -1.06205 0
M  V30 94 H 6.2255 -5.03918 0.091108 0
M  V30 95 H 5.8275 -3.59115 1.04463 0
M  V30 96 H 8.1195 -6.7411 0.676897 0
M  V30 97 H 9.0625 -6.73022 2.20107 0
M  V30 98 H 9.4705 -5.57283 0.899786 0
M  V30 99 N 8.8686 -0.792821 -1.36206 0
M  V30 100 C 10.2846 -0.474903 -1.52371 0
M  V30 101 C 10.4846 1.00622 -1.74578 0
M  V30 102 O 9.5406 1.79162 -1.77924 0
M  V30 103 C 10.8536 -1.3083 -2.70747 0
M  V30 104 C 12.4016 -1.30234 -2.84619 0
M  V30 105 C 12.8766 -2.11956 -4.06004 0
M  V30 106 N 14.3676 -2.09419 -4.13156 0
M  V30 107 C 15.1026 -2.69419 -5.06163 0
M  V30 108 N 14.5986 -3.3829 -6.04592 0
M  V30 109 N 16.3916 -2.59134 -4.98804 0
M  V30 110 H 8.5426 -1.75222 -1.20046 0
M  V30 111 H 10.8056 -0.745024 -0.586211 0
M  V30 112 H 10.5116 -2.35881 -2.6087 0
M  V30 113 H 10.3856 -0.95196 -3.6499 0
M  V30 114 H 12.7726 -0.259748 -2.93955 0
M  V30 115 H 12.8536 -1.69847 -1.91274 0
M  V30 116 H 12.4976 -3.16248 -3.97429 0
M  V30 117 H 12.4276 -1.69711 -4.98503 0
M  V30 118 H 14.9186 -1.59297 -3.42685 0
M  V30 119 H 15.2316 -3.81394 -6.7213 0
M  V30 120 H 13.5766 -3.42393 -6.04807 0
M  V30 121 H 16.7676 -2.04927 -4.20859 0
M  V30 122 H 16.9406 -3.06185 -5.711 0
M  V30 123 N 10.3467 1.47872 -0.545128 0
M  V30 124 C 11.5947 2.02093 -0.016553 0
M  V30 125 C 11.9157 1.42305 1.3332 0
M  V30 126 O 11.1857 0.593853 1.86682 0
M  V30 127 H 9.7657 0.746993 -0.00313038 0
M  V30 128 H 12.4277 1.81414 -0.712397 0
M  V30 129 H 11.5237 3.11996 0.0805422 0
M  V30 130 N 11.8248 0.280983 1.55075 0
M  V30 131 C 13.0738 -0.334784 1.98902 0
M  V30 132 C 13.3868 -1.56534 1.17288 0
M  V30 133 O 14.5928 -2.25443 1.51287 0
M  V30 134 C 13.0488 -0.646994 3.54037 0
M  V30 135 C 12.6568 0.564085 4.44435 0
M  V30 136 C 14.4008 -1.22506 4.06439 0
M  V30 137 C 12.3078 0.226137 5.90967 0
M  V30 138 H 11.2378 -0.128866 0.742906 0
M  V30 139 H 13.8888 0.386556 1.79382 0
M  V30 140 H 12.2708 -1.42739 3.6938 0
M  V30 141 H 13.4448 1.34082 4.40861 0
M  V30 142 H 11.7598 1.0594 4.02698 0
M  V30 143 H 14.3568 -1.49182 5.13468 0
M  V30 144 H 14.6998 -2.16085 3.55827 0
M  V30 145 H 15.2328 -0.50682 3.94558 0
M  V30 146 H 11.9718 1.12996 6.45687 0
M  V30 147 H 11.4918 -0.513717 5.97596 0
M  V30 148 H 13.1708 -0.179539 6.46751 0
M  V30 149 N 13.3029 -1.57598 0.00835791 0
M  V30 150 C 14.5489 -1.91211 -0.675732 0
M  V30 151 C 14.8819 -0.883139 -1.72958 0
M  V30 152 O 14.1569 0.097016 -1.94258 0
M  V30 153 C 14.4399 -3.35379 -1.31123 0
M  V30 154 C 14.2929 -4.48999 -0.268356 0
M  V30 155 C 15.6119 -3.7912 -2.23508 0
M  V30 156 H 12.7309 -0.695374 -0.244179 0
M  V30 157 H 15.3729 -1.89901 0.0613655 0
M  V30 158 H 13.5229 -3.36626 -1.93946 0
M  V30 159 H 15.1949 -4.59887 0.360844 0
M  V30 160 H 13.4379 -4.31873 0.408482 0
M  V30 161 H 14.1089 -5.46851 -0.752218 0
M  V30 162 H 16.5849 -3.79477 -1.70693 0
M  V30 163 H 15.4609 -4.80729 -2.64936 0
M  V30 164 H 15.7219 -3.13455 -3.11766 0
M  V30 165 N 14.781 0.264519 -1.55364 0
M  V30 166 C 15.729 1.34702 -1.89626 0
M  V30 167 C 16.723 1.50712 -0.773459 0
M  V30 168 O 17.929 1.52395 -0.957897 0
M  V30 169 H 14.304 0.450682 -0.601988 0
M  V30 170 H 16.275 1.0306 -2.80038 0
M  V30 171 C 15.024 2.6989 -2.19214 0
M  V30 172 H 14.347 2.58365 -3.05103 0
M  V30 173 H 15.787 3.44553 -2.47102 0
M  V30 174 C 14.246 3.21637 -1.00254 0
M  V30 175 O 14.776 4.00973 -0.241501 0
M  V30 176 N 12.982 2.7943 -0.797938 0
M  V30 177 H 12.529 2.15026 -1.4185 0
M  V30 178 H 12.487 3.144 -0.00363422 0
M  V30 179 N 16.2591 1.48442 0.529413 0
M  V30 180 C 17.5071 1.56179 1.28267 0
M  V30 181 C 17.8281 0.237721 1.93546 0
M  V30 182 O 17.0981 -0.740779 1.81354 0
M  V30 183 H 15.6781 0.575367 0.476405 0
M  V30 184 H 18.3401 1.84909 0.61602 0
M  V30 185 H 17.4361 2.34312 2.06165 0
M  V30 186 N 17.7372 -0.778329 1.37039 0
M  V30 187 C 18.7002 -1.87301 1.32102 0
M  V30 188 C 19.7002 -1.59198 0.226405 0
M  V30 189 O 20.8902 -1.67403 0.481861 0
M  V30 190 C 18.0222 -3.24309 1.05055 0
M  V30 191 H 19.2152 -1.93093 2.29467 0
M  V30 192 H 16.7682 -0.977358 1.21973 0
M  V30 193 H 17.5032 -3.24196 0.0819373 0
M  V30 194 H 17.2882 -3.46098 1.84279 0
M  V30 195 H 18.7782 -4.04382 1.04234 0
M  V30 196 N 19.2153 -1.21501 -1.00376 0
M  V30 197 C 20.1783 -0.976927 -2.07337 0
M  V30 198 C 21.1783 0.0525322 -1.60714 0
M  V30 199 O 22.3683 -0.184869 -1.73216 0
M  V30 200 C 19.5003 -0.473423 -3.37597 0
M  V30 201 H 20.6933 -1.92587 -2.29892 0
M  V30 202 H 18.2463 -1.03217 -1.17371 0
M  V30 203 H 18.9813 0.480379 -3.20722 0
M  V30 204 H 18.7663 -1.216 -3.72768 0
M  V30 205 H 20.2563 -0.32675 -4.1632 0
M  V30 206 N 20.6934 1.19889 -1.02296 0
M  V30 207 C 22.1044 1.71124 -0.746568 0
M  V30 208 C 22.4554 1.81939 0.734335 0
M  V30 209 O 21.5804 1.48639 1.57275 0
M  V30 210 C 22.1754 3.10804 -1.34857 0
M  V30 211 C 20.7344 3.59323 -1.1209 0
M  V30 212 C 19.8814 2.3635 -1.45031 0
M  V30 213 H 22.8324 1.04813 -1.19163 0
M  V30 214 H 22.8534 3.73186 -0.742437 0
M  V30 215 H 22.3654 3.029 -2.42638 0
M  V30 216 H 20.4664 3.7255 -0.0610337 0
M  V30 217 H 20.5794 4.4378 -1.80544 0
M  V30 218 H 18.9434 2.39399 -0.869487 0
M  V30 219 H 19.7264 2.31081 -2.53883 0
M  V30 220 N 22.1715 0.800033 1.35784 0
M  V30 221 C 23.0815 0.207204 2.33683 0
M  V30 222 C 24.0975 -0.64631 1.61551 0
M  V30 223 O 25.2735 -0.559604 1.93469 0
M  V30 224 C 22.3385 -0.639659 3.40748 0
M  V30 225 C 21.3995 0.233585 4.28664 0
M  V30 226 C 20.6325 -0.572954 5.30616 0
M  V30 227 O 20.8555 -1.80816 5.40982 0
M  V30 228 O 19.7895 0.0327285 6.01891 0
M  V30 229 H 23.6155 1.01692 2.86169 0
M  V30 230 H 21.2005 0.561691 1.38439 0
M  V30 231 H 23.0825 -1.12223 4.06182 0
M  V30 232 H 21.7575 -1.42708 2.90544 0
M  V30 233 H 20.6645 0.763147 3.66233 0
M  V30 234 H 21.9975 0.984784 4.82248 0
M  V30 235 N 23.6496 -1.47581 0.552962 0
M  V30 236 C 24.5796 -2.32762 -0.185451 0
M  V30 237 C 25.5606 -1.43527 -0.912905 0
M  V30 238 O 26.7456 -1.72388 -0.894201 0
M  V30 239 C 23.8756 -3.25219 -1.21859 0
M  V30 240 C 22.8296 -4.23661 -0.607864 0
M  V30 241 C 22.1556 -5.05413 -1.74533 0
M  V30 242 C 23.4556 -5.20481 0.435582 0
M  V30 243 H 25.1496 -2.94749 0.525684 0
M  V30 244 H 22.6956 -1.41738 0.254251 0
M  V30 245 H 24.6486 -3.8365 -1.7433 0
M  V30 246 H 23.3726 -2.61279 -1.95961 0
M  V30 247 H 22.0316 -3.66451 -0.104489 0
M  V30 248 H 21.6796 -4.3788 -2.47529 0
M  V30 249 H 21.3796 -5.72059 -1.34249 0
M  V30 250 H 22.9036 -5.66701 -2.27338 0
M  V30 251 H 24.3176 -5.733 -0.00290157 0
M  V30 252 H 22.7146 -5.95305 0.757067 0
M  V30 253 H 23.7846 -4.66217 1.33303 0
M  V30 254 N 25.1277 -0.289203 -1.54924 0
M  V30 255 C 26.5387 0.205791 -1.85562 0
M  V30 256 C 26.8897 1.54351 -1.2112 0
M  V30 257 O 26.0147 2.10435 -0.504601 0
M  V30 258 C 26.6097 0.380177 -3.3666 0
M  V30 259 C 25.1687 0.819395 -3.67373 0
M  V30 260 C 24.3157 -0.079159 -2.77187 0
M  V30 261 H 27.2667 -0.510577 -1.50262 0
M  V30 262 H 27.2877 1.21659 -3.60526 0
M  V30 263 H 26.7997 -0.593589 -3.83534 0
M  V30 264 H 24.9007 1.80413 -3.26009 0
M  V30 265 H 25.0137 0.646957 -4.74712 0
M  V30 266 H 23.3777 0.439565 -2.50878 0
M  V30 267 H 24.1607 -1.04906 -3.26878 0
M  V30 268 N 26.6058 1.57591 -0.0167156 0
M  V30 269 C 27.8518 1.91567 0.665582 0
M  V30 270 C 28.1848 0.892298 1.72487 0
M  V30 271 O 27.4598 -0.0867127 1.94307 0
M  V30 272 C 27.7428 3.36069 1.29342 0
M  V30 273 C 27.5958 4.49135 0.244541 0
M  V30 274 C 28.9148 3.803 2.21495 0
M  V30 275 H 26.0338 0.69666 0.240488 0
M  V30 276 H 28.6758 1.89866 -0.0714356 0
M  V30 277 H 26.8258 3.3765 1.92158 0
M  V30 278 H 28.4978 4.59689 -0.385228 0
M  V30 279 H 26.7408 4.3165 -0.431379 0
M  V30 280 H 27.4118 5.47242 0.723207 0
M  V30 281 H 29.8878 3.80377 1.68678 0
M  V30 282 H 28.7638 4.82127 2.62382 0
M  V30 283 H 29.0248 3.15104 3.101 0
M  V30 284 N 28.0839 -0.256276 1.55502 0
M  V30 285 C 29.4949 -0.826068 1.67431 0
M  V30 286 C 29.8459 -1.86396 0.612446 0
M  V30 287 O 28.9709 -2.15031 -0.243025 0
M  V30 288 C 29.5659 -1.50512 3.03532 0
M  V30 289 C 28.1249 -2.02273 3.17431 0
M  V30 290 C 27.2719 -0.870548 2.63281 0
M  V30 291 H 30.2229 -0.0322728 1.58667 0
M  V30 292 H 30.2439 -2.37279 2.97454 0
M  V30 293 H 29.7559 -0.749484 3.80794 0
M  V30 294 H 27.8569 -2.80746 2.44974 0
M  V30 295 H 27.9699 -2.22655 4.24219 0
M  V30 296 H 26.3339 -1.26851 2.20864 0
M  V30 297 H 27.1169 -0.128149 3.43061 0
M  V30 298 N 29.562 -1.4872 -0.521534 0
M  V30 299 C 30.79 -1.60843 -1.30142 0
M  V30 300 C 31.205 -0.271897 -1.86832 0
M  V30 301 O 30.562 0.739969 -1.66825 0
M  V30 302 C 30.613 -2.66155 -2.4463 0
M  V30 303 O 30.334 -3.94623 -1.90275 0
M  V30 304 C 31.835 -2.88795 -3.36322 0
M  V30 305 H 29.055 -0.542075 -0.395468 0
M  V30 306 H 31.599 -1.94609 -0.628285 0
M  V30 307 H 29.754 -2.35224 -3.07812 0
M  V30 308 H 30.168 -4.52468 -2.65279 0
M  V30 309 H 31.642 -3.66264 -4.12983 0
M  V30 310 H 32.119 -1.97934 -3.9207 0
M  V30 311 H 32.725 -3.21063 -2.78924 0
M  V30 312 N 31.0401 0.771051 -1.3745 0
M  V30 313 C 32.2881 1.52661 -1.32435 0
M  V30 314 C 32.6091 1.9479 0.0905024 0
M  V30 315 O 31.8791 1.66348 1.03466 0
M  V30 316 H 30.4591 0.566218 -0.487244 0
M  V30 317 H 33.1211 0.917636 -1.71946 0
M  V30 318 H 32.2171 2.42568 -1.96385 0
M  V30 319 N 32.5182 1.22032 0.997298 0
M  V30 320 C 33.7662 1.04016 1.73278 0
M  V30 321 C 34.0872 -0.426255 1.90284 0
M  V30 322 O 33.3572 -1.30694 1.45931 0
M  V30 323 H 31.9372 0.381897 0.642 0
M  V30 324 H 34.5992 1.5347 1.20137 0
M  V30 325 H 33.6952 1.51441 2.72896 0
M  V30 326 N 33.9963 -1.19345 1.0293 0
M  V30 327 C 35.4073 -1.70725 0.755633 0
M  V30 328 C 35.7583 -1.82326 -0.724676 0
M  V30 329 O 34.8833 -1.49471 -1.56484 0
M  V30 330 C 35.4783 -3.10084 1.36503 0
M  V30 331 C 34.0373 -3.58723 1.13994 0
M  V30 332 C 33.1843 -2.35577 1.46283 0
M  V30 333 H 36.1353 -1.0418 1.19718 0
M  V30 334 H 36.1563 -3.72787 0.762217 0
M  V30 335 H 35.6683 -3.01609 2.44241 0
M  V30 336 H 33.7693 -3.72512 0.0807901 0
M  V30 337 H 33.8823 -4.42816 1.82894 0
M  V30 338 H 32.2463 -2.38935 0.88217 0
M  V30 339 H 33.0293 -2.29731 2.55105 0
M  V30 340 N 35.4744 -0.807222 -1.35358 0
M  V30 341 C 36.4374 -0.223665 -2.28106 0
M  V30 342 C 37.4374 0.589354 -1.4961 0
M  V30 343 O 38.6274 0.407745 -1.69361 0
M  V30 344 C 35.7594 0.688149 -3.33882 0
M  V30 345 H 36.9524 -1.04169 -2.81227 0
M  V30 346 H 34.5054 -0.577921 -1.45223 0
M  V30 347 H 35.2404 1.52984 -2.85948 0
M  V30 348 H 35.0254 0.10687 -3.91954 0
M  V30 349 H 36.5154 1.09075 -4.03104 0
M  V30 350 N 36.9525 1.47285 -0.560781 0
M  V30 351 C 38.1985 2.02764 -0.0381184 0
M  V30 352 C 38.5315 1.43384 1.30976 0
M  V30 353 O 37.8065 0.590733 1.85312 0
M  V30 354 C 38.0895 3.60064 0.0511427 0
M  V30 355 C 37.9425 4.2987 -1.32408 0
M  V30 356 C 39.2615 4.33439 0.762795 0
M  V30 357 H 36.3805 0.736841 -0.0153264 0
M  V30 358 H 39.0225 1.75675 -0.723759 0
M  V30 359 H 37.1725 3.83274 0.635065 0
M  V30 360 H 38.8445 4.17989 -1.95148 0
M  V30 361 H 37.0875 3.90085 -1.8978 0
M  V30 362 H 37.7585 5.38478 -1.21431 0
M  V30 363 H 40.2345 4.15243 0.266965 0
M  V30 364 H 39.1105 5.43124 0.794221 0
M  V30 365 H 39.3715 4.02915 1.81966 0
M  V30 366 N 38.4306 0.297415 1.54768 0
M  V30 367 C 39.6786 -0.312295 1.99673 0
M  V30 368 C 39.9996 -1.54686 1.18732 0
M  V30 369 O 39.2696 -1.93854 0.282382 0
M  V30 370 H 37.8496 -0.118381 0.73756 0
M  V30 371 H 40.5116 0.407915 1.90583 0
M  V30 372 H 39.6076 -0.586813 3.06534 0
M  V30 373 N 39.9087 -1.5758 0.0250728 0
M  V30 374 C 40.8717 -2.08896 -0.943139 0
M  V30 375 C 41.8717 -1.00321 -1.25668 0
M  V30 376 O 43.0617 -1.26495 -1.19769 0
M  V30 377 C 40.1937 -2.55143 -2.26086 0
M  V30 378 H 41.3867 -2.95723 -0.498775 0
M  V30 379 H 38.9397 -1.54703 -0.222888 0
M  V30 380 H 39.6747 -1.71633 -2.75159 0
M  V30 381 H 39.4597 -3.34461 -2.04641 0
M  V30 382 H 40.9497 -2.95083 -2.95492 0
M  V30 383 N 41.3868 0.248026 -1.55636 0
M  V30 384 C 42.8028 0.596483 -1.48035 0
M  V30 385 C 43.0028 1.88386 -0.715039 0
M  V30 386 O 42.0588 2.51319 -0.243944 0
M  V30 387 C 43.3718 0.700258 -2.92433 0
M  V30 388 C 44.9198 0.792659 -3.02797 0
M  V30 389 C 45.3948 0.928005 -4.485 0
M  V30 390 N 46.8858 0.992903 -4.52433 0
M  V30 391 C 47.6208 1.11687 -5.62418 0
M  V30 392 N 47.1168 1.20645 -6.82214 0
M  V30 393 N 48.9098 1.14994 -5.50212 0
M  V30 394 H 41.0608 -0.597109 -2.03834 0
M  V30 395 H 43.3238 -0.205925 -0.925364 0
M  V30 396 H 43.0298 -0.175658 -3.51261 0
M  V30 397 H 42.9038 1.57255 -3.42857 0
M  V30 398 H 45.2908 1.65903 -2.4405 0
M  V30 399 H 45.3718 -0.104762 -2.55585 0
M  V30 400 H 45.0158 0.0661971 -5.07857 0
M  V30 401 H 44.9458 1.84045 -4.93391 0
M  V30 402 H 47.4368 0.935064 -3.66149 0
M  V30 403 H 47.7498 1.30008 -7.61786 0
M  V30 404 H 46.0948 1.17605 -6.84977 0
M  V30 405 H 49.2858 1.07643 -4.55555 0
M  V30 406 H 49.4588 1.24311 -6.35965 0
M  V30 407 N 42.8649 1.48995 0.513639 0
M  V30 408 C 43.7749 1.67443 1.64317 0
M  V30 409 C 44.7909 0.556947 1.64846 0
M  V30 410 O 45.9669 0.830082 1.83498 0
M  V30 411 C 43.0319 1.72515 3.00732 0
M  V30 412 C 42.0929 2.96009 3.1093 0
M  V30 413 C 41.3259 3.00829 4.40837 0
M  V30 414 O 41.5489 2.13594 5.28898 0
M  V30 415 O 40.4829 3.93168 4.55744 0
M  V30 416 H 44.3089 2.63106 1.51687 0
M  V30 417 H 41.8939 1.32588 0.688543 0
M  V30 418 H 43.7759 1.78277 3.81831 0
M  V30 419 H 42.4509 0.800278 3.13651 0
M  V30 420 H 41.3579 2.9577 2.29065 0
M  V30 421 H 42.6909 3.87934 3.02933 0
M  V30 422 N 44.343 -0.763751 1.37857 0
M  V30 423 C 45.275 -1.88664 1.30148 0
M  V30 424 C 46.288 -1.61365 0.215685 0
M  V30 425 O 47.477 -1.72134 0.472459 0
M  V30 426 C 44.577 -3.24075 0.991396 0
M  V30 427 C 43.75 -3.78958 2.18426 0
M  V30 428 C 42.809 -4.92862 1.8432 0
M  V30 429 O 41.835 -5.08027 2.56704 0
M  V30 430 N 43.037 -5.75071 0.792081 0
M  V30 431 H 45.802 -1.95791 2.26905 0
M  V30 432 H 43.363 -0.943226 1.31586 0
M  V30 433 H 45.355 -3.97804 0.743935 0
M  V30 434 H 43.925 -3.12399 0.112122 0
M  V30 435 H 43.145 -2.96913 2.59299 0
M  V30 436 H 44.433 -4.12357 2.98058 0
M  V30 437 H 43.831 -5.65375 0.191595 0
M  V30 438 H 42.388 -6.48991 0.60449 0
M  V30 439 N 45.8211 -1.22559 -0.990812 0
M  V30 440 C 46.7841 -0.998863 -2.0629 0
M  V30 441 C 47.7841 0.0354834 -1.60761 0
M  V30 442 O 48.9741 -0.203231 -1.7301 0
M  V30 443 C 46.1061 -0.509203 -3.37076 0
M  V30 444 H 47.2991 -1.95014 -2.27837 0
M  V30 445 H 44.8521 -1.04456 -1.16269 0
M  V30 446 H 45.5871 0.446335 -3.21214 0
M  V30 447 H 45.3721 -1.25547 -3.71457 0
M  V30 448 H 46.8621 -0.370888 -4.1595 0
M  V30 449 N 47.2992 1.18797 -1.03562 0
M  V30 450 C 48.2292 2.24472 -0.643019 0
M  V30 451 C 49.2102 1.66433 0.351283 0
M  V30 452 O 50.3952 1.92803 0.232505 0
M  V30 453 C 47.5252 3.473 4.24935e-05 0
M  V30 454 C 46.4792 4.18055 -0.917257 0
M  V30 455 C 45.8052 5.34519 -0.138941 0
M  V30 456 C 47.1052 4.72109 -2.23407 0
M  V30 457 H 48.7992 2.57566 -1.52643 0
M  V30 458 H 46.3452 1.23806 -0.735394 0
M  V30 459 H 48.2982 4.20426 0.286383 0
M  V30 460 H 47.0222 3.13424 0.918299 0
M  V30 461 H 45.6812 3.46821 -1.1879 0
M  V30 462 H 45.3292 4.96891 0.781562 0
M  V30 463 H 45.0292 5.82794 -0.750005 0
M  V30 464 H 46.5532 6.10438 0.1405 0
M  V30 465 H 47.9672 5.36955 -2.00879 0
M  V30 466 H 46.3642 5.30897 -2.79765 0
M  V30 467 H 47.4342 3.89807 -2.88407 0
M  V30 468 N 48.7773 0.814389 1.34928 0
M  V30 469 C 49.7403 0.235759 2.27984 0
M  V30 470 C 50.7403 -0.581412 1.49921 0
M  V30 471 O 51.9303 -0.398758 1.69575 0
M  V30 472 C 49.0623 -0.670433 3.34242 0
M  V30 473 H 50.2553 1.05659 2.80671 0
M  V30 474 H 47.8083 0.585614 1.44915 0
M  V30 475 H 48.5433 -1.51466 2.86755 0
M  V30 476 H 48.3283 -0.0860822 3.92005 0
M  V30 477 H 49.8183 -1.06935 4.03676 0
M  V30 478 N 50.2554 -1.46986 0.568584 0
M  V30 479 C 51.5014 -2.02741 0.0488709 0
M  V30 480 C 51.8344 -1.44077 -1.30214 0
M  V30 481 O 51.1094 -0.600552 -1.84996 0
M  V30 482 C 51.3924 -3.60086 -0.032047 0
M  V30 483 C 51.2454 -4.29162 1.34686 0
M  V30 484 C 52.5644 -4.33838 -0.739798 0
M  V30 485 H 49.6834 -0.736749 0.0192338 0
M  V30 486 H 52.3254 -1.75289 0.733065 0
M  V30 487 H 50.4754 -3.83606 -0.61473 0
M  V30 488 H 52.1474 -4.16948 1.97362 0
M  V30 489 H 50.3904 -3.89073 1.91846 0
M  V30 490 H 51.0614 -5.37826 1.24285 0
M  V30 491 H 53.5374 -4.15378 -0.244939 0
M  V30 492 H 52.4134 -5.43537 -0.765406 0
M  V30 493 H 52.6744 -4.03875 -1.79827 0
M  V30 494 N 51.7335 -0.305618 -1.54608 0
M  V30 495 C 52.9585 0.307562 -2.05107 0
M  V30 496 C 53.3835 1.46385 -1.18123 0
M  V30 497 O 52.7415 1.8034 -0.186324 0
M  V30 498 C 52.7895 0.73704 -3.52987 0
M  V30 499 O 51.8935 1.84134 -3.6901 0
M  V30 500 H 51.2345 0.0589143 -0.661381 0
M  V30 501 H 53.7645 -0.448807 -1.99617 0
M  V30 502 H 53.7745 1.02459 -3.94925 0
M  V30 503 H 52.4495 -0.108773 -4.15758 0
M  V30 504 H 51.0265 1.55398 -3.38978 0
M  V30 505 N 53.2116 1.57565 -0.0334293 0
M  V30 506 C 54.6276 1.56297 0.322997 0
M  V30 507 C 54.8276 1.03945 1.7262 0
M  V30 508 O 53.8836 0.688109 2.42943 0
M  V30 509 C 55.1966 3.00232 0.167664 0
M  V30 510 C 56.7446 3.12078 0.240107 0
M  V30 511 C 57.2196 4.57859 0.113513 0
M  V30 512 N 58.7106 4.62887 0.170359 0
M  V30 513 C 59.4456 5.73319 0.0962517 0
M  V30 514 N 58.9416 6.92794 -0.0291881 0
M  V30 515 N 60.7346 5.61898 0.150551 0
M  V30 516 H 52.8856 1.89923 -0.950956 0
M  V30 517 H 55.1486 0.873824 -0.367608 0
M  V30 518 H 54.8546 3.42501 -0.799102 0
M  V30 519 H 54.7286 3.654 0.936083 0
M  V30 520 H 57.1156 2.69718 1.19733 0
M  V30 521 H 57.1966 2.49623 -0.558763 0
M  V30 522 H 56.8406 5.009 -0.840314 0
M  V30 523 H 56.7706 5.18299 0.931302 0
M  V30 524 H 59.2616 3.76954 0.26728 0
M  V30 525 H 59.5746 7.7276 -0.0789252 0
M  V30 526 H 57.9196 6.94971 -0.0640299 0
M  V30 527 H 61.1106 4.67448 0.246981 0
M  V30 528 H 61.2836 6.47938 0.0893365 0
M  V30 529 N 54.6897 -0.239769 1.55765 0
M  V30 530 C 55.6377 -1.31668 1.91745 0
M  V30 531 C 56.6317 -1.49462 0.797338 0
M  V30 532 O 57.8377 -1.50852 0.982021 0
M  V30 533 H 54.2127 -0.441048 0.609082 0
M  V30 534 H 56.1837 -0.985923 2.81642 0
M  V30 535 C 54.9327 -2.66368 2.2348 0
M  V30 536 H 54.2557 -2.53478 3.09175 0
M  V30 537 H 55.6957 -3.40578 2.52553 0
M  V30 538 C 54.1547 -3.20002 1.05359 0
M  V30 539 O 54.6847 -4.00538 0.305261 0
M  V30 540 N 52.8907 -2.78126 0.842292 0
M  V30 541 H 52.4377 -2.12742 1.45253 0
M  V30 542 H 52.3957 -3.14354 0.053652 0
M  V30 543 N 56.1678 -1.49265 -0.50573 0
M  V30 544 C 57.3978 -1.61979 -1.28243 0
M  V30 545 C 57.8058 -0.288576 -1.86986 0
M  V30 546 O 57.1488 0.735408 -1.68337 0
M  V30 547 C 57.2108 -2.62632 -2.45489 0
M  V30 548 C 56.8748 -4.071 -2.07651 0
M  V30 549 C 57.8718 -4.94049 -1.61901 0
M  V30 550 C 55.5568 -4.52801 -2.17431 0
M  V30 551 C 57.5508 -6.24736 -1.26428 0
M  V30 552 C 55.2378 -5.83503 -1.8157 0
M  V30 553 C 56.2358 -6.69294 -1.36142 0
M  V30 554 O 55.9238 -7.9756 -1.00764 0
M  V30 555 H 55.6558 -0.54834 -0.395347 0
M  V30 556 H 58.2098 -1.96002 -0.614204 0
M  V30 557 H 56.4398 -2.2378 -3.15372 0
M  V30 558 H 58.1288 -2.64925 -3.07522 0
M  V30 559 H 58.8948 -4.5997 -1.53795 0
M  V30 560 H 54.7738 -3.86196 -2.51742 0
M  V30 561 H 58.3178 -6.91652 -0.908992 0
M  V30 562 H 54.2148 -6.17112 -1.89324 0
M  V30 563 H 54.9828 -8.10529 -1.13952 0
M  V30 564 N 57.6459 0.756429 -1.3826 0
M  V30 565 C 58.5759 1.88374 -1.37976 0
M  V30 566 C 59.5569 1.68311 -0.246082 0
M  V30 567 O 60.7419 1.88944 -0.44874 0
M  V30 568 C 57.8719 3.25864 -1.20125 0
M  V30 569 C 56.8259 3.60523 -2.30666 0
M  V30 570 C 56.1519 4.9672 -1.97923 0
M  V30 571 C 57.4519 3.65692 -3.72916 0
M  V30 572 H 59.1459 1.88869 -2.32312 0
M  V30 573 H 56.6919 0.907272 -1.11824 0
M  V30 574 H 58.6449 4.0438 -1.18552 0
M  V30 575 H 57.3689 3.25841 -0.222498 0
M  V30 576 H 56.0279 2.84324 -2.3142 0
M  V30 577 H 55.6759 4.93253 -0.985393 0
M  V30 578 H 55.3759 5.20878 -2.71955 0
M  V30 579 H 56.8999 5.77618 -1.97964 0
M  V30 580 H 58.3139 4.34328 -3.74208 0
M  V30 581 H 56.7109 4.01358 -4.4613 0
M  V30 582 H 57.7809 2.65987 -4.05436 0
M  V30 583 N 59.124 1.23083 0.984299 0
M  V30 584 C 60.349 1.088 1.76571 0
M  V30 585 C 60.774 -0.356657 1.84688 0
M  V30 586 O 60.132 -1.25788 1.30565 0
M  V30 587 C 60.18 1.71371 3.17277 0
M  V30 588 O 59.284 0.973213 4.00752 0
M  V30 589 H 58.625 0.381599 0.543395 0
M  V30 590 H 61.155 1.63057 1.23587 0
M  V30 591 H 61.165 1.76449 3.67872 0
M  V30 592 H 59.84 2.76493 3.10684 0
M  V30 593 H 58.417 0.999078 3.59267 0
M  V30 594 N 60.6021 -1.18246 1.0419 0
M  V30 595 C 61.5341 -2.2142 0.592088 0
M  V30 596 C 62.5471 -1.59233 -0.338909 0
M  V30 597 O 63.7361 -1.78002 -0.133231 0
M  V30 598 C 60.8361 -3.38546 -0.154854 0
M  V30 599 C 60.0091 -4.3031 0.784328 0
M  V30 600 C 59.0681 -5.26138 0.0804583 0
M  V30 601 O 58.0941 -5.64738 0.711292 0
M  V30 602 N 59.2961 -5.68261 -1.18574 0
M  V30 603 H 62.0611 -2.60636 1.47949 0
M  V30 604 H 59.6221 -1.33044 0.922544 0
M  V30 605 H 61.6141 -3.99678 -0.635606 0
M  V30 606 H 60.1841 -2.98012 -0.943811 0
M  V30 607 H 59.4041 -3.66764 1.44491 0
M  V30 608 H 60.6921 -4.8852 1.42218 0
M  V30 609 H 60.0901 -5.38957 -1.71876 0
M  V30 610 H 58.6471 -6.31584 -1.61074 0
M  V30 611 N 62.0802 -0.821533 -1.34494 0
M  V30 612 C 63.4912 -0.467956 -1.8074 0
M  V30 613 C 63.8422 1.01151 -1.68116 0
M  V30 614 O 62.9672 1.78707 -1.22036 0
M  V30 615 C 63.5622 -0.842627 -3.28154 0
M  V30 616 C 62.1212 -0.541439 -3.72485 0
M  V30 617 C 61.2682 -1.06028 -2.56229 0
M  V30 618 H 64.2192 -1.01183 -1.22261 0
M  V30 619 H 64.2402 -0.145876 -3.8022 0
M  V30 620 H 63.7522 -1.91945 -3.37311 0
M  V30 621 H 61.8532 0.526034 -3.68868 0
M  V30 622 H 61.9662 -1.08453 -4.66663 0
M  V30 623 H 60.3302 -0.481892 -2.501 0
M  V30 624 H 61.1132 -2.14352 -2.68157 0
M  V30 625 N 63.5583 1.46682 -0.576371 0
M  V30 626 C 64.9743 1.57822 -0.237562 0
M  V30 627 C 65.1743 1.57237 1.26011 0
M  V30 628 O 64.2303 1.48596 2.04146 0
M  V30 629 C 65.5433 2.87499 -0.881168 0
M  V30 630 C 67.0913 3.01119 -0.85417 0
M  V30 631 C 67.5663 4.33524 -1.4772 0
M  V30 632 N 69.0573 4.40207 -1.44125 0
M  V30 633 C 69.7923 5.4126 -1.89276 0
M  V30 634 N 69.2883 6.49021 -2.42371 0
M  V30 635 N 71.0813 5.32422 -1.80231 0
M  V30 636 H 63.2323 1.45306 -1.54919 0
M  V30 637 H 65.4953 0.692733 -0.647167 0
M  V30 638 H 65.2013 2.9372 -1.93447 0
M  V30 639 H 65.0753 3.75224 -0.385592 0
M  V30 640 H 67.4623 2.94485 0.190491 0
M  V30 641 H 67.5433 2.14887 -1.3877 0
M  V30 642 H 67.1873 4.40916 -2.52103 0
M  V30 643 H 67.1173 5.1852 -0.918947 0
M  V30 644 H 69.6083 3.62931 -1.05307 0
M  V30 645 H 69.9213 7.2233 -2.74698 0
M  V30 646 H 68.2663 6.49858 -2.46393 0
M  V30 647 H 71.4573 4.47137 -1.38514 0
M  V30 648 H 71.6303 6.11034 -2.15735 0
M  V30 649 N 65.0364 0.313813 1.54444 0
M  V30 650 C 65.9664 -0.549454 2.26943 0
M  V30 651 C 66.9474 -1.12741 1.27372 0
M  V30 652 O 68.1324 -1.15436 1.56167 0
M  V30 653 C 65.2624 -1.71523 3.01989 0
M  V30 654 C 64.2164 -1.26703 4.08816 0
M  V30 655 C 63.5424 -2.51898 4.71647 0
M  V30 656 C 64.8424 -0.388962 5.2085 0
M  V30 657 H 66.5364 0.0552661 2.99349 0
M  V30 658 H 64.0824 0.0280207 1.43973 0
M  V30 659 H 66.0354 -2.32535 3.51433 0
M  V30 660 H 64.7594 -2.34639 2.27183 0
M  V30 661 H 63.4184 -0.679896 3.6024 0
M  V30 662 H 63.0664 -3.13356 3.93468 0
M  V30 663 H 62.7664 -2.22605 5.43802 0
M  V30 664 H 64.2904 -3.1369 5.23861 0
M  V30 665 H 65.7044 -0.905107 5.6611 0
M  V30 666 H 64.1014 -0.18924 5.99802 0
M  V30 667 H 65.1714 0.582699 4.81386 0
M  V30 668 N 66.5145 -1.57545 0.0417849 0
M  V30 669 C 67.7425 -1.96624 -0.643928 0
M  V30 670 C 68.1575 -0.918897 -1.64929 0
M  V30 671 O 67.5145 0.0979323 -1.82237 0
M  V30 672 C 67.5655 -3.35781 -1.33914 0
M  V30 673 O 67.2865 -4.365 -0.374048 0
M  V30 674 C 68.7875 -3.89566 -2.1155 0
M  V30 675 H 66.0075 -0.647316 -0.176702 0
M  V30 676 H 68.5515 -2.04229 0.105304 0
M  V30 677 H 66.7065 -3.29357 -2.03968 0
M  V30 678 H 67.1205 -5.17248 -0.869179 0
M  V30 679 H 68.5945 -4.89242 -2.55628 0
M  V30 680 H 69.0715 -3.24488 -2.9598 0
M  V30 681 H 69.6775 -3.99298 -1.46427 0
M  V30 682 N 67.9926 0.231505 -1.5589 0
M  V30 683 C 69.2226 0.973092 -1.82248 0
M  V30 684 C 69.6306 1.78845 -0.617328 0
M  V30 685 O 68.9736 1.78752 0.423499 0
M  V30 686 C 69.0356 1.94732 -3.02192 0
M  V30 687 C 68.6996 1.31743 -4.37599 0
M  V30 688 C 69.6966 0.712238 -5.14998 0
M  V30 689 C 67.3816 1.33218 -4.84312 0
M  V30 690 C 69.3756 0.130195 -6.37267 0
M  V30 691 C 67.0626 0.746286 -6.06526 0
M  V30 692 C 68.0606 0.146337 -6.82843 0
M  V30 693 O 67.7486 -0.430465 -8.02747 0
M  V30 694 H 67.4806 0.29125 -0.61004 0
M  V30 695 H 70.0346 0.254915 -2.03812 0
M  V30 696 H 68.2646 2.70422 -2.76422 0
M  V30 697 H 69.9536 2.55362 -3.15508 0
M  V30 698 H 70.7196 0.69324 -4.8002 0
M  V30 699 H 66.5986 1.78854 -4.24891 0
M  V30 700 H 70.1426 -0.33871 -6.96777 0
M  V30 701 H 66.0396 0.762663 -6.40979 0
M  V30 702 H 66.8076 -0.323818 -8.17859 0
M  V30 703 N 69.4707 1.49531 0.497807 0
M  V30 704 C 70.4177 1.66436 1.59899 0
M  V30 705 C 71.3877 0.505793 1.58212 0
M  V30 706 O 72.5727 0.733202 1.7615 0
M  V30 707 C 69.7127 1.7399 2.98029 0
M  V30 708 C 68.8257 3.01172 3.09708 0
M  V30 709 C 67.9607 2.99686 4.38591 0
M  V30 710 C 66.9997 4.21434 4.43914 0
M  V30 711 N 66.1367 4.1784 5.64229 0
M  V30 712 H 70.9767 2.60459 1.44793 0
M  V30 713 H 68.5137 1.29137 0.704423 0
M  V30 714 H 70.4717 1.76352 3.78095 0
M  V30 715 H 69.1017 0.834301 3.11832 0
M  V30 716 H 68.1537 3.08408 2.22685 0
M  V30 717 H 69.4657 3.91165 3.09502 0
M  V30 718 H 68.6197 3.00628 5.2698 0
M  V30 719 H 67.3587 2.07477 4.41367 0
M  V30 720 H 66.3637 4.20733 3.53926 0
M  V30 721 H 67.5887 5.14839 4.42851 0
M  V30 722 H 65.5347 3.28469 5.67841 0
M  V30 723 H 65.4517 5.01571 5.65652 0
M  V30 724 H 66.7197 4.22889 6.54817 0
M  V30 725 N 70.9488 -0.749086 1.3866 0
M  V30 726 C 72.1768 -1.53834 1.38358 0
M  V30 727 C 72.5918 -1.88783 -0.0255219 0
M  V30 728 O 71.9488 -1.53101 -0.993292 0
M  V30 729 C 71.9998 -2.83468 2.2434 0
M  V30 730 O 71.7208 -2.50008 3.5976 0
M  V30 731 C 73.2218 -3.7758 2.32267 0
M  V30 732 H 70.4418 -0.47585 0.473083 0
M  V30 733 H 72.9858 -0.926726 1.82297 0
M  V30 734 H 71.1408 -3.40995 1.83851 0
M  V30 735 H 71.5548 -3.33182 4.05081 0
M  V30 736 H 73.0288 -4.65478 2.96706 0
M  V30 737 H 73.5058 -4.18334 1.33765 0
M  V30 738 H 74.1118 -3.25976 2.73166 0
M  V30 739 N 72.4269 -1.23603 -0.977757 0
M  V30 740 C 73.6729 -1.07129 -1.72195 0
M  V30 741 C 74.0059 0.390501 -1.90233 0
M  V30 742 O 73.2809 1.28902 -1.45653 0
M  V30 743 C 73.5639 -1.80031 -3.11867 0
M  V30 744 C 73.4169 -3.33899 -3.01383 0
M  V30 745 C 74.7359 -1.56492 -4.11337 0
M  V30 746 H 71.8549 -0.390571 -0.624999 0
M  V30 747 H 74.4969 -1.52142 -1.13811 0
M  V30 748 H 72.6469 -1.41768 -3.6171 0
M  V30 749 H 74.3189 -3.81699 -2.59043 0
M  V30 750 H 72.5619 -3.62796 -2.37827 0
M  V30 751 H 73.2329 -3.801 -4.00285 0
M  V30 752 H 75.7089 -1.89757 -3.70313 0
M  V30 753 H 74.5849 -2.09973 -5.07151 0
M  V30 754 H 74.8459 -0.500874 -4.39254 0
M  V30 755 N 73.905 1.17692 -1.04816 0
M  V30 756 C 75.13 1.92327 -0.776207 0
M  V30 757 C 75.555 1.76082 0.661581 0
M  V30 758 O 74.913 1.076 1.45917 0
M  V30 759 C 74.961 3.41539 -1.15687 0
M  V30 760 O 74.065 4.11402 -0.286775 0
M  V30 761 H 73.406 0.599735 -0.284981 0
M  V30 762 H 75.936 1.49201 -1.4 0
M  V30 763 H 75.946 3.92269 -1.12202 0
M  V30 764 H 74.621 3.52684 -2.20425 0
M  V30 765 H 73.198 3.70939 -0.381903 0
M  V30 766 N 75.3831 0.828654 1.34056 0
M  V30 767 C 76.6311 0.41863 1.97717 0
M  V30 768 C 76.9521 -1.02314 1.66002 0
M  V30 769 O 76.2221 -1.71119 0.953683 0
M  V30 770 H 74.8021 0.151809 0.731412 0
M  V30 771 H 77.4641 1.05936 1.63596 0
M  V30 772 H 76.5601 0.542318 3.07352 0
M  V30 773 N 76.8612 -1.46375 0.584142 0
M  V30 774 C 78.1072 -2.02678 0.0703716 0
M  V30 775 C 78.4402 -1.4545 -1.28678 0
M  V30 776 O 77.7152 -0.62014 -1.84349 0
M  V30 777 C 77.9982 -3.60099 0.00614674 0
M  V30 778 C 77.8512 -4.27709 1.3923 0
M  V30 779 C 79.1702 -4.34598 -0.693742 0
M  V30 780 H 76.2892 -0.736504 0.027047 0
M  V30 781 H 78.9312 -1.74501 0.751615 0
M  V30 782 H 77.0812 -3.84236 -0.574009 0
M  V30 783 H 78.7532 -4.14832 2.01773 0
M  V30 784 H 76.9962 -3.87016 1.95962 0
M  V30 785 H 77.6672 -5.36478 1.29982 0
M  V30 786 H 80.1432 -4.15615 -0.200869 0
M  V30 787 H 79.0192 -5.44318 -0.707714 0
M  V30 788 H 79.2802 -4.05759 -1.75533 0
M  V30 789 N 78.3393 -0.321999 -1.54275 0
M  V30 790 C 79.2873 0.560206 -2.25753 0
M  V30 791 C 80.2813 1.11984 -1.27106 0
M  V30 792 O 81.4873 1.06806 -1.44888 0
M  V30 793 H 77.8623 0.199304 -0.725108 0
M  V30 794 H 79.8333 -0.0649365 -2.98329 0
M  V30 795 C 78.5823 1.71023 -3.02731 0
M  V30 796 H 77.9053 1.28885 -3.78456 0
M  V30 797 H 79.3453 2.30314 -3.55993 0
M  V30 798 C 77.8043 2.62692 -2.10938 0
M  V30 799 O 78.3343 3.64364 -1.6912 0
M  V30 800 N 76.5403 2.30891 -1.76459 0
M  V30 801 H 76.0873 1.48253 -2.10663 0
M  V30 802 H 76.0453 2.92487 -1.1532 0
M  V30 803 N 79.8174 1.5752 -0.0501392 0
M  V30 804 C 81.0654 1.9227 0.622642 0
M  V30 805 C 81.3864 0.929083 1.71444 0
M  V30 806 O 80.6564 -0.0262186 1.95882 0
M  V30 807 H 79.2364 0.709739 0.232981 0
M  V30 808 H 81.8984 1.94628 -0.102898 0
M  V30 809 H 80.9944 2.93479 1.06191 0
M  V30 810 N 81.2955 -0.223234 1.56011 0
M  V30 811 C 82.7065 -0.790368 1.69145 0
M  V30 812 C 83.0575 -1.85055 0.651845 0
M  V30 813 O 82.1825 -2.15498 -0.197359 0
M  V30 814 C 82.7775 -1.4404 3.06656 0
M  V30 815 C 81.3365 -1.95494 3.2165 0
M  V30 816 C 80.4835 -0.814506 2.65068 0
M  V30 817 H 83.4345 0.00139011 1.587 0
M  V30 818 H 83.4555 -2.30916 3.0242 0
M  V30 819 H 82.9675 -0.668543 3.82298 0
M  V30 820 H 81.0685 -2.75487 2.50874 0
M  V30 821 H 81.1815 -2.13607 4.28846 0
M  V30 822 H 79.5455 -1.22137 2.23505 0
M  V30 823 H 80.3285 -0.0553515 3.43255 0
M  V30 824 N 82.7736 -1.49793 -0.48987 0
M  V30 825 C 83.7036 -1.70201 -1.59856 0
M  V30 826 C 84.6846 -0.55076 -1.60937 0
M  V30 827 O 85.8696 -0.787841 -1.77501 0
M  V30 828 C 82.9996 -1.77882 -2.98287 0
M  V30 829 C 81.9536 -2.92907 -3.12073 0
M  V30 830 C 81.2796 -2.85712 -4.51965 0
M  V30 831 C 82.5796 -4.3369 -2.91051 0
M  V30 832 H 84.2736 -2.63025 -1.43032 0
M  V30 833 H 81.8196 -1.26574 -0.686664 0
M  V30 834 H 83.7726 -1.90744 -3.75759 0
M  V30 835 H 82.4966 -0.816653 -3.16225 0
M  V30 836 H 81.1556 -2.79665 -2.37029 0
M  V30 837 H 80.8036 -1.8738 -4.66795 0
M  V30 838 H 80.5036 -3.62921 -4.62128 0
M  V30 839 H 82.0276 -3.00598 -5.31482 0
M  V30 840 H 83.4416 -4.47555 -3.58284 0
M  V30 841 H 81.8386 -5.12205 -3.12675 0
M  V30 842 H 82.9086 -4.47362 -1.87071 0
M  V30 843 N 84.2517 0.741722 -1.39055 0
M  V30 844 C 85.4977 1.50336 -1.36113 0
M  V30 845 C 85.8307 1.94148 0.0450796 0
M  V30 846 O 85.1057 1.66301 1.00868 0
M  V30 847 C 85.3887 2.74773 -2.32749 0
M  V30 848 C 85.2417 2.37023 -3.82283 0
M  V30 849 C 86.5607 3.76846 -2.27322 0
M  V30 850 H 83.6797 0.545351 -0.495743 0
M  V30 851 H 86.3217 0.848624 -1.69995 0
M  V30 852 H 84.4717 3.30639 -2.03986 0
M  V30 853 H 86.1437 1.8684 -4.21768 0
M  V30 854 H 84.3867 1.69334 -3.99385 0
M  V30 855 H 85.0577 3.26104 -4.45376 0
M  V30 856 H 87.5337 3.30548 -2.5274 0
M  V30 857 H 86.4097 4.6159 -2.97028 0
M  V30 858 H 86.6707 4.23286 -1.27599 0
M  V30 859 N 85.7298 1.2412 0.971189 0
M  V30 860 C 86.9788 1.07284 1.70801 0
M  V30 861 C 87.2918 -0.388902 1.91695 0
M  V30 862 O 88.4978 -0.677379 2.62914 0
M  V30 863 C 86.9538 1.87145 3.07416 0
M  V30 864 C 86.5618 3.37707 2.94377 0
M  V30 865 C 88.3058 1.78828 3.84995 0
M  V30 866 C 86.2128 4.09925 4.26281 0
M  V30 867 H 85.1428 0.397854 0.64049 0
M  V30 868 H 87.7938 1.4817 1.0825 0
M  V30 869 H 86.1758 1.39071 3.70777 0
M  V30 870 H 87.3498 3.93335 2.4005 0
M  V30 871 H 85.6648 3.46938 2.30267 0
M  V30 872 H 88.2618 2.30089 4.82662 0
M  V30 873 H 88.6048 0.75284 4.09436 0
M  V30 874 H 89.1378 2.24563 3.28354 0
M  V30 875 H 85.8768 5.13813 4.07033 0
M  V30 876 H 85.3968 3.59083 4.80437 0
M  V30 877 H 87.0758 4.1673 4.94919 0
M  V30 878 N 87.2079 -1.17134 1.05439 0
M  V30 879 C 88.1379 -2.2342 0.678649 0
M  V30 880 C 89.1189 -1.66971 -0.32476 0
M  V30 881 O 90.3039 -1.93149 -0.201802 0
M  V30 882 C 87.4339 -3.47256 0.0552099 0
M  V30 883 C 86.3879 -4.16543 0.98365 0
M  V30 884 C 85.7139 -5.34231 0.223961 0
M  V30 885 C 87.0139 -4.68495 2.3089 0
M  V30 886 H 88.7079 -2.55105 1.56722 0
M  V30 887 H 86.2539 -1.2262 0.754998 0
M  V30 888 H 88.2069 -4.20828 -0.21946 0
M  V30 889 H 86.9309 -3.14846 -0.868319 0
M  V30 890 H 85.5899 -3.44887 1.24293 0
M  V30 891 H 85.2379 -4.98071 -0.702412 0
M  V30 892 H 84.9379 -5.81527 0.842627 0
M  V30 893 H 86.4619 -6.10585 -0.0433671 0
M  V30 894 H 87.8759 -5.33691 2.09396 0
M  V30 895 H 86.2729 -5.26379 2.88176 0
M  V30 896 H 87.3429 -3.85169 2.94572 0
M  V30 897 N 88.686 -0.835752 -1.33615 0
M  V30 898 C 89.963 -0.352017 -1.92406 0
M  V30 899 C 90.343 1.16225 -1.76224 0
M  V30 900 O 89.691 1.97526 -1.14873 0
M  V30 901 C 89.901 -0.795485 -3.39813 0
M  V30 902 C 91.249 -0.801703 -4.16963 0
M  V30 903 O 92.273 -0.738889 -3.48452 0
M  V30 904 O 91.132 -0.886607 -5.3926 0
M  V30 905 H 88.226 -0.0989641 -0.821057 0
M  V30 906 H 90.772 -0.921397 -1.42507 0
M  V30 907 H 89.544 -1.83795 -3.45449 0
M  V30 908 H 89.167 -0.202505 -3.97084 0
M  V30 909 N 90.1641 1.46063 -0.591896 0
M  V30 910 C 91.1141 2.27458 0.157172 0
M  V30 911 C 92.0981 1.3641 0.853301 0
M  V30 912 O 93.2901 1.60517 0.74588 0
M  V30 913 C 90.4191 3.22956 1.16423 0
M  V30 914 C 89.5051 4.2149 0.469742 0
M  V30 915 N 89.8961 5.03519 -0.479839 0
M  V30 916 C 88.1941 4.40161 0.719319 0
M  V30 917 C 88.8951 5.74904 -0.886591 0
M  V30 918 N 87.8711 5.43097 -0.233731 0
M  V30 919 H 91.6731 2.88272 -0.572392 0
M  V30 920 H 89.1871 1.57024 -0.414375 0
M  V30 921 H 91.1841 3.79986 1.71513 0
M  V30 922 H 89.8441 2.63701 1.89451 0
M  V30 923 H 90.8551 5.1078 -0.855823 0
M  V30 924 H 87.5321 3.92046 1.43548 0
M  V30 925 H 88.9221 6.50844 -1.66888 0
M  V30 926 N 91.6422 0.330177 1.54103 0
M  V30 927 C 92.8882 -0.270806 2.00984 0
M  V30 928 C 93.2212 -1.51265 1.21789 0
M  V30 929 O 92.4962 -1.92142 0.301927 0
M  V30 930 C 92.7792 -0.598339 3.55094 0
M  V30 931 C 92.6322 0.654674 4.4501 0
M  V30 932 C 93.9512 -1.41334 4.16789 0
M  V30 933 H 91.0702 -0.0969531 0.730595 0
M  V30 934 H 93.7122 0.448066 1.84641 0
M  V30 935 H 91.8622 -1.21078 3.69151 0
M  V30 936 H 93.5342 1.29285 4.42813 0
M  V30 937 H 91.7772 1.28224 4.14416 0
M  V30 938 H 92.4482 0.380944 5.50684 0
M  V30 939 H 94.9242 -0.895597 4.06347 0
M  V30 940 H 93.8002 -1.61127 5.24718 0
M  V30 941 H 94.0612 -2.41146 3.70541 0
M  V30 942 N 93.1203 -1.57491 0.0584922 0
M  V30 943 C 94.0673 -2.11958 -0.913376 0
M  V30 944 C 95.0373 -1.02875 -1.30407 0
M  V30 945 O 96.2223 -1.30464 -1.39226 0
M  V30 946 C 93.3623 -2.67497 -2.18035 0
M  V30 947 C 92.4753 -3.90691 -1.84349 0
M  V30 948 C 91.6103 -4.3452 -3.05559 0
M  V30 949 C 90.6493 -5.50395 -2.67827 0
M  V30 950 N 89.7863 -5.89244 -3.81754 0
M  V30 951 H 94.6263 -2.94704 -0.442017 0
M  V30 952 H 92.1633 -1.45643 -0.206545 0
M  V30 953 H 94.1213 -2.978 -2.92183 0
M  V30 954 H 92.7513 -1.87537 -2.62735 0
M  V30 955 H 91.8033 -3.66934 -1.00319 0
M  V30 956 H 93.1153 -4.7489 -1.5258 0
M  V30 957 H 92.2693 -4.66414 -3.87998 0
M  V30 958 H 91.0083 -3.49147 -3.40511 0
M  V30 959 H 90.0133 -5.18165 -1.83806 0
M  V30 960 H 91.2383 -6.3749 -2.34059 0
M  V30 961 H 89.1843 -5.06823 -4.16493 0
M  V30 962 H 89.1013 -6.68151 -3.53708 0
M  V30 963 H 90.3693 -6.25756 -4.64811 0
M  V30 964 N 94.5984 0.214957 -1.56127 0
M  V30 965 C 95.8454 0.938372 -1.79446 0
M  V30 966 C 96.1734 1.8407 -0.628378 0
M  V30 967 O 95.4284 1.91837 0.386925 0
M  V30 968 C 95.7274 1.80314 -3.0858 0
M  V30 969 C 95.3934 1.05349 -4.3842 0
M  V30 970 C 94.0554 0.846435 -4.73697 0
M  V30 971 C 96.4074 0.524588 -5.18553 0
M  V30 972 C 93.7354 0.098683 -5.86617 0
M  V30 973 C 96.0874 -0.209853 -6.32252 0
M  V30 974 C 94.7514 -0.428102 -6.66126 0
M  V30 975 H 94.0214 0.343375 -0.656639 0
M  V30 976 H 96.6684 0.206077 -1.90388 0
M  V30 977 H 94.9734 2.6035 -2.92789 0
M  V30 978 H 96.6704 2.36513 -3.23825 0
M  V30 979 H 93.2604 1.22486 -4.10725 0
M  V30 980 H 97.4444 0.672008 -4.91729 0
M  V30 981 H 92.7004 -0.0805753 -6.11347 0
M  V30 982 H 96.8744 -0.627157 -6.9357 0
M  V30 983 H 94.5014 -1.00944 -7.53468 0
M  V30 984 N 96.0765 1.50051 0.48192 0
M  V30 985 C 97.4875 1.5348 1.06305 0
M  V30 986 C 97.8385 0.331997 1.93371 0
M  V30 987 O 96.9635 -0.556256 2.09129 0
M  V30 988 C 97.5585 2.7813 1.93466 0
M  V30 989 C 96.1175 2.84275 2.46707 0
M  V30 990 C 95.2645 2.47637 1.24785 0
M  V30 991 H 98.2155 1.56472 0.264995 0
M  V30 992 H 98.2365 2.59372 2.78399 0
M  V30 993 H 97.7485 3.65654 1.30072 0
M  V30 994 H 95.8495 2.01077 3.13686 0
M  V30 995 H 95.9625 3.8691 2.82555 0
M  V30 996 H 94.3265 1.99835 1.57918 0
M  V30 997 H 95.1095 3.37457 0.630694 0
M  V30 998 N 97.5546 -0.734337 1.39446 0
M  V30 999 C 98.9706 -1.03997 1.21065 0
M  V30 1000 C 99.1706 -2.01369 0.0727019 0
M  V30 1001 O 98.2266 -2.45856 -0.575426 0
M  V30 1002 C 99.5396 -1.60163 2.54496 0
M  V30 1003 C 101.088 -1.7224 2.61347 0
M  V30 1004 C 101.563 -2.31814 3.95002 0
M  V30 1005 N 103.054 -2.39223 3.96644 0
M  V30 1006 C 103.789 -2.86258 4.96834 0
M  V30 1007 N 103.285 -3.33184 6.07421 0
M  V30 1008 N 105.078 -2.85473 4.84213 0
M  V30 1009 H 97.2286 -0.0885624 2.12215 0
M  V30 1010 H 99.4916 -0.10191 0.942506 0
M  V30 1011 H 99.1976 -0.960811 3.38321 0
M  V30 1012 H 99.0716 -2.5896 2.74262 0
M  V30 1013 H 101.459 -2.35443 1.77906 0
M  V30 1014 H 101.54 -0.720939 2.4543 0
M  V30 1015 H 101.184 -1.69238 4.78875 0
M  V30 1016 H 101.114 -3.32638 4.08239 0
M  V30 1017 H 103.605 -2.06057 3.16779 0
M  V30 1018 H 103.918 -3.67586 6.7978 0
M  V30 1019 H 102.263 -3.31191 6.11013 0
M  V30 1020 H 105.454 -2.48136 3.96921 0
M  V30 1021 H 105.627 -3.21814 5.62441 0
M  V30 1022 N 99.0327 -1.24633 -0.964593 0
M  V30 1023 C 100.263 -1.11339 -1.74032 0
M  V30 1024 C 100.671 0.336593 -1.86182 0
M  V30 1025 O 100.014 1.24389 -1.35178 0
M  V30 1026 C 100.076 -1.68284 -3.1768 0
M  V30 1027 C 99.7397 -3.17196 -3.28992 0
M  V30 1028 C 100.737 -4.14308 -3.14078 0
M  V30 1029 C 98.4217 -3.57215 -3.53133 0
M  V30 1030 C 100.416 -5.4942 -3.23135 0
M  V30 1031 C 98.1027 -4.92468 -3.61827 0
M  V30 1032 C 99.1007 -5.8838 -3.46841 0
M  V30 1033 O 98.7887 -7.21173 -3.55197 0
M  V30 1034 H 98.5207 -0.389551 -0.552472 0
M  V30 1035 H 101.075 -1.65282 -1.21946 0
M  V30 1036 H 99.3047 -1.08777 -3.71085 0
M  V30 1037 H 100.994 -1.50234 -3.77074 0
M  V30 1038 H 101.76 -3.84731 -2.95308 0
M  V30 1039 H 97.6387 -2.83063 -3.63863 0
M  V30 1040 H 101.183 -6.24263 -3.11355 0
M  V30 1041 H 97.0797 -5.21714 -3.80111 0
M  V30 1042 H 97.8477 -7.29135 -3.71892 0
M  V30 1043 N 100.511 1.16574 -1.06058 0
M  V30 1044 C 101.474 2.19085 -0.673392 0
M  V30 1045 C 102.474 1.5835 0.279648 0
M  V30 1046 O 103.664 1.74088 0.0623488 0
M  V30 1047 C 100.796 3.40899 0.00954234 0
M  V30 1048 H 101.989 2.54853 -1.58081 0
M  V30 1049 H 99.5418 1.30808 -0.855516 0
M  V30 1050 H 100.277 3.10684 0.929826 0
M  V30 1051 H 100.062 3.86233 -0.67573 0
M  V30 1052 H 101.552 4.1675 0.266245 0
M  V30 1053 N 101.989 0.842826 1.3317 0
M  V30 1054 C 102.899 0.281444 2.32906 0
M  V30 1055 C 103.915 -0.594587 1.63526 0
M  V30 1056 O 105.091 -0.49777 1.95152 0
M  V30 1057 C 102.156 -0.530929 3.42611 0
M  V30 1058 C 101.217 0.369843 4.27704 0
M  V30 1059 C 100.45 -0.403853 5.3217 0
M  V30 1060 O 100.673 -1.63513 5.46461 0
M  V30 1061 O 99.6069 0.224199 6.01482 0
M  V30 1062 H 103.433 1.10744 2.82789 0
M  V30 1063 H 101.018 0.60545 1.36582 0
M  V30 1064 H 102.9 -0.992437 4.09547 0
M  V30 1065 H 101.575 -1.33392 2.94938 0
M  V30 1066 H 100.482 0.879275 3.6362 0
M  V30 1067 H 101.815 1.13771 4.78871 0
M  V30 1068 N 103.467 -1.45747 0.599634 0
M  V30 1069 C 104.716 -2.01502 0.0893511 0
M  V30 1070 C 105.029 -1.4748 -1.28488 0
M  V30 1071 O 106.235 -1.95161 -1.88745 0
M  V30 1072 C 104.691 -3.59735 0.109082 0
M  V30 1073 C 104.299 -4.22754 1.48267 0
M  V30 1074 C 106.043 -4.23085 -0.346374 0
M  V30 1075 C 103.95 -5.73115 1.45921 0
M  V30 1076 H 102.88 -0.753417 0.0296347 0
M  V30 1077 H 105.531 -1.67303 0.753788 0
M  V30 1078 H 103.913 -3.91087 -0.621854 0
M  V30 1079 H 105.087 -4.02987 2.23468 0
M  V30 1080 H 103.402 -3.71567 1.87955 0
M  V30 1081 H 105.999 -5.33327 -0.38298 0
M  V30 1082 H 106.342 -3.93201 -1.36743 0
M  V30 1083 H 106.875 -3.9642 0.331038 0
M  V30 1084 H 103.614 -6.07685 2.45762 0
M  V30 1085 H 103.134 -5.95097 0.749665 0
M  V30 1086 H 104.813 -6.3616 1.17941 0
M  V30 1087 N 104.945 -0.338344 -1.53925 0
M  V30 1088 C 106.191 0.260143 -2.01125 0
M  V30 1089 C 106.524 1.50617 -1.22589 0
M  V30 1090 O 105.799 1.91979 -0.312113 0
M  V30 1091 C 106.082 0.579499 -3.55407 0
M  V30 1092 C 105.935 -0.678264 -4.44657 0
M  V30 1093 C 107.254 1.39122 -4.17532 0
M  V30 1094 H 104.373 0.0930772 -0.731099 0
M  V30 1095 H 107.015 -0.457852 -1.84401 0
M  V30 1096 H 105.165 1.19118 -3.69788 0
M  V30 1097 H 106.837 -1.31631 -4.42121 0
M  V30 1098 H 105.08 -1.3042 -4.13731 0
M  V30 1099 H 105.751 -0.410143 -5.50474 0
M  V30 1100 H 108.227 0.874035 -4.06817 0
M  V30 1101 H 107.103 1.58342 -5.25565 0
M  V30 1102 H 107.364 2.39178 -3.71815 0
M  V30 1103 N 106.423 1.57458 -0.0668435 0
M  V30 1104 C 107.373 2.0896 0.912119 0
M  V30 1105 C 108.357 0.998186 1.26195 0
M  V30 1106 O 109.549 1.26133 1.24175 0
M  V30 1107 C 106.678 2.6508 2.18145 0
M  V30 1108 C 105.764 3.81218 1.85832 0
M  V30 1109 N 106.155 4.90378 1.23948 0
M  V30 1110 C 104.453 3.9042 2.15612 0
M  V30 1111 C 105.154 5.71279 1.09616 0
M  V30 1112 N 104.13 5.19389 1.60423 0
M  V30 1113 H 107.932 2.90749 0.42924 0
M  V30 1114 H 105.446 1.6182 0.137184 0
M  V30 1115 H 107.443 3.0029 2.89192 0
M  V30 1116 H 106.103 1.84736 2.67025 0
M  V30 1117 H 107.114 5.09847 0.909731 0
M  V30 1118 H 103.791 3.21043 2.66903 0
M  V30 1119 H 105.181 6.69085 0.614425 0
M  V30 1120 N 107.901 -0.206675 1.56239 0
M  V30 1121 C 108.831 -1.25909 1.96645 0
M  V30 1122 C 109.812 -1.48097 0.836734 0
M  V30 1123 O 110.997 -1.6003 1.10019 0
M  V30 1124 C 108.127 -2.6058 2.29599 0
M  V30 1125 C 107.081 -2.53024 3.452 0
M  V30 1126 C 106.407 -3.91861 3.63798 0
M  V30 1127 C 107.707 -2.06524 4.79734 0
M  V30 1128 H 109.401 -0.923369 2.84806 0
M  V30 1129 H 106.947 -0.442735 1.37025 0
M  V30 1130 H 108.9 -3.34375 2.56459 0
M  V30 1131 H 107.624 -2.95869 1.38307 0
M  V30 1132 H 106.283 -1.81684 3.18412 0
M  V30 1133 H 105.931 -4.24483 2.69857 0
M  V30 1134 H 105.631 -3.87683 4.4156 0
M  V30 1135 H 107.155 -4.67296 3.93022 0
M  V30 1136 H 108.569 -2.70072 5.05702 0
M  V30 1137 H 106.966 -2.13374 5.60885 0
M  V30 1138 H 108.036 -1.01802 4.74093 0
M  V30 1139 N 109.379 -1.50304 -0.473955 0
M  V30 1140 C 110.607 -1.64902 -1.24959 0
M  V30 1141 C 111.022 -0.331198 -1.85872 0
M  V30 1142 O 110.379 0.68652 -1.69095 0
M  V30 1143 C 110.43 -2.73803 -2.36038 0
M  V30 1144 O 110.151 -4.00477 -1.77624 0
M  V30 1145 C 111.652 -2.99349 -3.26964 0
M  V30 1146 H 108.872 -0.554383 -0.378022 0
M  V30 1147 H 111.416 -1.9651 -0.566054 0
M  V30 1148 H 109.571 -2.44898 -3.00173 0
M  V30 1149 H 109.985 -4.60678 -2.5075 0
M  V30 1150 H 111.459 -3.79217 -4.01121 0
M  V30 1151 H 111.936 -2.10307 -3.85574 0
M  V30 1152 H 112.542 -3.29774 -2.68569 0
M  V30 1153 N 110.857 0.726932 -1.39834 0
M  V30 1154 C 111.787 1.85405 -1.41941 0
M  V30 1155 C 112.768 1.67751 -0.281728 0
M  V30 1156 O 113.953 1.8795 -0.488717 0
M  V30 1157 C 111.083 3.23243 -1.2701 0
M  V30 1158 C 110.037 3.55549 -2.38262 0
M  V30 1159 C 109.363 4.9241 -2.08415 0
M  V30 1160 C 110.663 3.577 -3.80589 0
M  V30 1161 H 112.357 1.83899 -2.36266 0
M  V30 1162 H 109.903 0.883349 -1.13723 0
M  V30 1163 H 111.856 4.01775 -1.27103 0
M  V30 1164 H 110.58 3.25296 -0.291564 0
M  V30 1165 H 109.239 2.79351 -2.37399 0
M  V30 1166 H 108.887 4.91052 -1.0898 0
M  V30 1167 H 108.587 5.14992 -2.82943 0
M  V30 1168 H 110.111 5.73289 -2.10171 0
M  V30 1169 H 111.525 4.26293 -3.83337 0
M  V30 1170 H 109.922 3.91804 -4.54543 0
M  V30 1171 H 110.992 2.57328 -4.10987 0
M  V30 1172 N 112.336 1.25143 0.95797 0
M  V30 1173 C 113.747 1.08851 1.51685 0
M  V30 1174 C 114.098 -0.33687 1.93286 0
M  V30 1175 O 113.223 -1.22644 1.7829 0
M  V30 1176 C 113.818 1.96978 2.75654 0
M  V30 1177 C 112.377 1.84881 3.27866 0
M  V30 1178 C 111.524 1.91329 2.0072 0
M  V30 1179 H 114.475 1.38478 0.77522 0
M  V30 1180 H 114.496 1.5078 3.4935 0
M  V30 1181 H 114.008 3.00712 2.45345 0
M  V30 1182 H 112.109 0.840182 3.63004 0
M  V30 1183 H 112.222 2.6951 3.96107 0
M  V30 1184 H 110.586 1.35174 2.15871 0
M  V30 1185 H 111.369 2.96661 1.72764 0
M  V30 1186 N 113.814 -1.1601 1.06675 0
M  V30 1187 C 115.091 -1.82679 0.699114 0
M  V30 1188 C 115.471 -1.94559 -0.819137 0
M  V30 1189 O 114.819 -1.49169 -1.73092 0
M  V30 1190 C 115.029 -3.19445 1.40555 0
M  V30 1191 C 116.377 -3.95171 1.55323 0
M  V30 1192 O 117.401 -3.28976 1.36577 0
M  V30 1193 O 116.26 -5.13833 1.86112 0
M  V30 1194 H 113.354 -0.788954 0.247951 0
M  V30 1195 H 115.9 -1.23179 1.16726 0
M  V30 1196 H 114.672 -3.05856 2.44065 0
M  V30 1197 H 114.295 -3.86625 0.927733 0
M  V30 1198 N 115.292 -0.849877 -1.32721 0
M  V30 1199 C 116.54 -0.450032 -1.97026 0
M  V30 1200 C 116.861 0.996604 -1.67609 0
M  V30 1201 O 116.131 1.6958 -0.980786 0
M  V30 1202 H 114.711 -0.163426 -0.728904 0
M  V30 1203 H 117.373 -1.08526 -1.6189 0
M  V30 1204 H 116.469 -0.591146 -3.0645 0
M  V30 1205 N 116.77 1.45427 -0.607355 0
M  V30 1206 C 117.998 2.06614 -0.108814 0
M  V30 1207 C 118.413 1.45204 1.2067 0
M  V30 1208 O 117.77 0.566132 1.73497 0
M  V30 1209 C 117.821 3.61481 0.0375347 0
M  V30 1210 O 117.542 4.20598 -1.22593 0
M  V30 1211 C 119.043 4.39652 0.567561 0
M  V30 1212 H 116.263 0.66747 -0.0687351 0
M  V30 1213 H 118.807 1.86675 -0.835022 0
M  V30 1214 H 116.962 3.80762 0.714068 0
M  V30 1215 H 117.376 5.1377 -1.05547 0
M  V30 1216 H 118.85 5.48518 0.61905 0
M  V30 1217 H 119.327 4.09417 1.58978 0
M  V30 1218 H 119.933 4.25234 -0.0749202 0
M  V30 1219 N 118.248 0.346503 1.53744 0
M  V30 1220 C 119.195 -0.508914 2.25119 0
M  V30 1221 C 120.165 -1.09315 1.25058 0
M  V30 1222 O 121.35 -1.12921 1.53797 0
M  V30 1223 C 118.49 -1.65246 3.02965 0
M  V30 1224 C 117.603 -1.09525 4.17886 0
M  V30 1225 C 116.738 -2.20634 4.83212 0
M  V30 1226 C 115.777 -1.62279 5.90196 0
M  V30 1227 N 114.914 -2.67143 6.49291 0
M  V30 1228 H 119.754 0.106283 2.9781 0
M  V30 1229 H 117.291 0.0642227 1.4696 0
M  V30 1230 H 119.249 -2.32574 3.4636 0
M  V30 1231 H 117.879 -2.2386 2.32565 0
M  V30 1232 H 116.931 -0.312818 3.79112 0
M  V30 1233 H 118.243 -0.628444 4.94825 0
M  V30 1234 H 117.397 -2.95821 5.29693 0
M  V30 1235 H 116.136 -2.70659 4.05703 0
M  V30 1236 H 115.141 -0.855989 5.43096 0
M  V30 1237 H 116.366 -1.13102 6.69615 0
M  V30 1238 H 114.312 -3.16417 5.74645 0
M  V30 1239 H 114.229 -2.25093 7.21713 0
M  V30 1240 H 115.497 -3.4209 7.00425 0
M  V30 1241 N 119.726 -1.57421 0.075193 0
M  V30 1242 C 121.142 -1.57099 -0.281444 0
M  V30 1243 C 121.342 -1.08486 -1.69803 0
M  V30 1244 O 120.398 -0.752279 -2.41033 0
M  V30 1245 C 121.711 -3.00571 -0.0880041 0
M  V30 1246 C 123.259 -3.12605 -0.157281 0
M  V30 1247 C 123.734 -4.57999 0.0079207 0
M  V30 1248 N 125.225 -4.63176 -0.0475725 0
M  V30 1249 C 125.96 -5.73373 0.0557876 0
M  V30 1250 N 125.456 -6.92473 0.21286 0
M  V30 1251 N 127.249 -5.621 -0.00152098 0
M  V30 1252 H 119.4 -1.87335 1.00098 0
M  V30 1253 H 121.663 -0.86377 0.390646 0
M  V30 1254 H 121.369 -3.40262 0.889629 0
M  V30 1255 H 121.243 -3.67754 -0.838875 0
M  V30 1256 H 123.63 -2.72798 -1.1254 0
M  V30 1257 H 123.711 -2.48053 0.62475 0
M  V30 1258 H 123.355 -4.98496 0.972824 0
M  V30 1259 H 123.285 -5.20586 -0.793556 0
M  V30 1260 H 125.776 -3.7753 -0.167244 0
M  V30 1261 H 126.089 -7.72279 0.283781 0
M  V30 1262 H 124.434 -6.94556 0.248267 0
M  V30 1263 H 127.625 -4.67938 -0.122958 0
M  V30 1264 H 127.798 -6.47948 0.0824844 0
M  V30 1265 N 121.204 0.198386 -1.56346 0
M  V30 1266 C 122.429 0.939682 -1.84891 0
M  V30 1267 C 122.854 1.76202 -0.658369 0
M  V30 1268 O 122.212 1.76993 0.392851 0
M  V30 1269 C 122.26 1.81428 -3.11635 0
M  V30 1270 O 121.364 2.91265 -2.91956 0
M  V30 1271 H 120.705 0.264807 -0.608912 0
M  V30 1272 H 123.235 0.204695 -2.03573 0
M  V30 1273 H 123.245 2.21958 -3.42343 0
M  V30 1274 H 121.92 1.21004 -3.97908 0
M  V30 1275 H 120.497 2.54514 -2.72538 0
M  V30 1276 N 122.682 1.50554 0.465978 0
M  V30 1277 C 123.93 1.61479 1.21528 0
M  V30 1278 C 124.251 0.319596 1.92363 0
M  V30 1279 O 123.521 -0.663194 1.84333 0
M  V30 1280 H 122.101 0.595055 0.451573 0
M  V30 1281 H 124.763 1.87355 0.53704 0
M  V30 1282 H 123.859 2.42846 1.96042 0
M  V30 1283 N 124.16 -0.719506 1.40217 0
M  V30 1284 C 125.092 -1.84428 1.36084 0
M  V30 1285 C 126.105 -1.60597 0.266913 0
M  V30 1286 O 127.294 -1.70544 0.526983 0
M  V30 1287 C 124.394 -3.20757 1.094 0
M  V30 1288 C 123.567 -3.71817 2.30372 0
M  V30 1289 C 122.626 -4.86748 1.99907 0
M  V30 1290 O 121.652 -4.99603 2.72737 0
M  V30 1291 N 122.854 -5.7226 0.974635 0
M  V30 1292 H 125.619 -1.88473 2.33019 0
M  V30 1293 H 123.18 -0.900885 1.3452 0
M  V30 1294 H 125.172 -3.95235 0.870116 0
M  V30 1295 H 123.742 -3.11884 0.211452 0
M  V30 1296 H 122.962 -2.88514 2.68614 0
M  V30 1297 H 124.25 -4.02666 3.11026 0
M  V30 1298 H 123.648 -5.6448 0.371368 0
M  V30 1299 H 122.205 -6.46739 0.810656 0
M  V30 1300 N 125.638 -1.25649 -0.95132 0
M  V30 1301 C 126.884 -1.10757 -1.69884 0
M  V30 1302 C 127.217 0.350061 -1.91019 0
M  V30 1303 O 126.492 1.25783 -1.48354 0
M  V30 1304 C 126.775 -1.86606 -3.07978 0
M  V30 1305 C 126.628 -3.40217 -2.94232 0
M  V30 1306 C 127.947 -1.65182 -4.07925 0
M  V30 1307 H 125.066 -0.40374 -0.616574 0
M  V30 1308 H 127.708 -1.54521 -1.10558 0
M  V30 1309 H 125.858 -1.49409 -3.58621 0
M  V30 1310 H 127.53 -3.87108 -2.50889 0
M  V30 1311 H 125.773 -3.67759 -2.30078 0
M  V30 1312 H 126.444 -3.88505 -3.92133 0
M  V30 1313 H 128.92 -1.9757 -3.66204 0
M  V30 1314 H 127.796 -2.20683 -5.02583 0
M  V30 1315 H 128.057 -0.593933 -4.38092 0
M  V30 1316 N 127.117 1.15442 -1.07289 0
M  V30 1317 C 128.047 2.22312 -0.714107 0
M  V30 1318 C 129.028 1.67467 0.298155 0
M  V30 1319 O 130.213 1.93445 0.171048 0
M  V30 1320 C 127.343 3.47124 -0.110448 0
M  V30 1321 C 126.297 4.14926 -1.04979 0
M  V30 1322 C 125.623 5.33807 -0.308924 0
M  V30 1323 C 126.923 4.64762 -2.38314 0
M  V30 1324 H 128.617 2.5258 -1.6076 0
M  V30 1325 H 126.163 1.21404 -0.77441 0
M  V30 1326 H 128.116 4.21124 0.152482 0
M  V30 1327 H 126.84 3.16187 0.81812 0
M  V30 1328 H 125.499 3.42866 -1.29764 0
M  V30 1329 H 125.147 4.99126 0.623084 0
M  V30 1330 H 124.847 5.80113 -0.935036 0
M  V30 1331 H 126.371 6.10576 -0.0537771 0
M  V30 1332 H 127.785 5.30292 -2.1786 0
M  V30 1333 H 126.182 5.21728 -2.96514 0
M  V30 1334 H 127.252 3.80434 -3.00663 0
M  V30 1335 N 128.595 0.856903 1.32268 0
M  V30 1336 C 129.505 0.306131 2.32594 0
M  V30 1337 C 130.521 -0.577209 1.64147 0
M  V30 1338 O 131.697 -0.477043 1.95669 0
M  V30 1339 C 128.762 -0.494561 3.43154 0
M  V30 1340 C 127.823 0.415186 4.27288 0
M  V30 1341 C 127.056 -0.347387 5.32568 0
M  V30 1342 O 127.279 -1.57708 5.48165 0
M  V30 1343 O 126.213 0.287982 6.01211 0
M  V30 1344 H 130.039 1.13737 2.81598 0
M  V30 1345 H 127.624 0.619902 1.35932 0
M  V30 1346 H 129.506 -0.948944 4.10576 0
M  V30 1347 H 128.181 -1.30257 2.96336 0
M  V30 1348 H 127.088 0.917793 3.62667 0
M  V30 1349 H 128.421 1.18844 4.77637 0
M  V30 1350 N 130.073 -1.45103 0.615059 0
M  V30 1351 C 131.319 -2.02483 0.113347 0
M  V30 1352 C 131.652 -1.48146 -1.25564 0
M  V30 1353 O 130.927 -0.659104 -1.82992 0
M  V30 1354 C 131.21 -3.60005 0.0825278 0
M  V30 1355 C 131.063 -4.2466 1.48271 0
M  V30 1356 C 132.382 -4.35972 -0.601401 0
M  V30 1357 H 129.501 -0.735764 0.0426632 0
M  V30 1358 H 132.143 -1.72868 0.788461 0
M  V30 1359 H 130.293 -3.85367 -0.492378 0
M  V30 1360 H 131.965 -4.10458 2.10527 0
M  V30 1361 H 130.208 -3.82772 2.04127 0
M  V30 1362 H 130.879 -5.336 1.41332 0
M  V30 1363 H 133.355 -4.15947 -0.112666 0
M  V30 1364 H 132.231 -5.45697 -0.592097 0
M  V30 1365 H 132.492 -4.09391 -1.66887 0
M  V30 1366 N 131.551 -0.354651 -1.53558 0
M  V30 1367 C 132.776 0.242153 -2.05981 0
M  V30 1368 C 133.201 1.42553 -1.2272 0
M  V30 1369 O 132.559 1.79656 -0.243604 0
M  V30 1370 C 132.607 0.624367 -3.55154 0
M  V30 1371 O 131.711 1.72301 -3.74681 0
M  V30 1372 H 131.052 0.0378432 -0.662921 0
M  V30 1373 H 133.582 -0.512087 -1.98088 0
M  V30 1374 H 133.592 0.898433 -3.97985 0
M  V30 1375 H 132.267 -0.240989 -4.15201 0
M  V30 1376 H 130.844 1.44535 -3.4375 0
M  V30 1377 N 133.029 1.57378 -0.0835403 0
M  V30 1378 C 134.277 1.93547 0.581718 0
M  V30 1379 C 134.598 0.96524 1.69435 0
M  V30 1380 O 133.868 0.0153369 1.95894 0
M  V30 1381 H 132.448 0.714521 0.217874 0
M  V30 1382 H 135.11 1.94366 -0.144158 0
M  V30 1383 H 134.206 2.95665 0.999423 0
M  V30 1384 N 134.507 -0.190092 1.56449 0
M  V30 1385 C 135.732 -0.929864 1.85387 0
M  V30 1386 C 136.157 -1.7585 0.667704 0
M  V30 1387 O 135.515 -1.77198 -0.383459 0
M  V30 1388 C 135.563 -1.79773 3.12593 0
M  V30 1389 O 134.667 -2.89713 2.93496 0
M  V30 1390 H 134.008 -0.261574 0.610307 0
M  V30 1391 H 136.538 -0.193896 2.03679 0
M  V30 1392 H 136.548 -2.20139 3.43515 0
M  V30 1393 H 135.223 -1.18892 3.98544 0
M  V30 1394 H 133.8 -2.53065 2.73884 0
M  V30 1395 N 135.985 -1.50799 -0.457987 0
M  V30 1396 C 136.932 -1.70617 -1.5543 0
M  V30 1397 C 137.902 -0.547562 -1.56815 0
M  V30 1398 O 139.087 -0.779647 -1.74144 0
M  V30 1399 C 136.227 -1.81831 -2.93311 0
M  V30 1400 C 135.34 -3.09278 -3.01615 0
M  V30 1401 C 134.475 -3.11209 -4.30491 0
M  V30 1402 C 133.514 -4.33055 -4.32585 0
M  V30 1403 N 132.651 -4.32652 -5.52952 0
M  V30 1404 H 137.491 -2.64207 -1.37836 0
M  V30 1405 H 135.028 -1.30959 -0.669937 0
M  V30 1406 H 136.986 -1.86314 -3.73287 0
M  V30 1407 H 135.616 -0.916685 -3.0951 0
M  V30 1408 H 134.668 -3.14203 -2.1443 0
M  V30 1409 H 135.98 -3.99233 -2.99022 0
M  V30 1410 H 135.134 -3.14494 -5.18824 0
M  V30 1411 H 133.873 -2.19106 -4.35711 0
M  V30 1412 H 132.878 -4.29969 -3.42647 0
M  V30 1413 H 134.103 -5.264 -4.29046 0
M  V30 1414 H 132.049 -3.43409 -5.58933 0
M  V30 1415 H 131.966 -5.16392 -5.52155 0
M  V30 1416 H 133.234 -4.40101 -6.43375 0
M  V30 1417 N 137.463 0.71206 -1.40597 0
M  V30 1418 C 138.426 1.80785 -1.40888 0
M  V30 1419 C 139.426 1.57937 -0.302103 0
M  V30 1420 O 140.616 1.64913 -0.561182 0
M  V30 1421 C 137.748 3.18927 -1.20409 0
M  V30 1422 H 138.941 1.81924 -2.38419 0
M  V30 1423 H 136.494 0.91805 -1.26497 0
M  V30 1424 H 137.229 3.23436 -0.236522 0
M  V30 1425 H 137.014 3.36911 -2.00582 0
M  V30 1426 H 138.504 3.98949 -1.23408 0
M  V30 1427 N 138.941 1.26152 0.944643 0
M  V30 1428 C 140.187 1.11657 1.69294 0
M  V30 1429 C 140.52 -0.339926 1.91202 0
M  V30 1430 O 139.795 -1.24994 1.49019 0
M  V30 1431 C 140.078 1.88236 3.06984 0
M  V30 1432 C 139.931 3.41772 2.92424 0
M  V30 1433 C 141.25 1.67343 4.07043 0
M  V30 1434 H 138.369 0.407004 0.614424 0
M  V30 1435 H 141.011 1.55106 1.09737 0
M  V30 1436 H 139.161 1.51308 3.57824 0
M  V30 1437 H 140.833 3.88433 2.48832 0
M  V30 1438 H 139.076 3.68974 2.28124 0
M  V30 1439 H 139.747 3.90579 3.90067 0
M  V30 1440 H 142.223 1.99509 3.65151 0
M  V30 1441 H 141.099 2.23346 5.01406 0
M  V30 1442 H 141.36 0.617158 4.37771 0
M  V30 1443 N 140.419 -1.14872 1.07899 0
M  V30 1444 C 141.665 -1.86064 0.806725 0
M  V30 1445 C 141.998 -1.82434 -0.665706 0
M  V30 1446 O 141.273 -1.25138 -1.48899 0
M  V30 1447 C 141.556 -3.34929 1.32267 0
M  V30 1448 C 141.409 -3.47161 2.86006 0
M  V30 1449 C 142.728 -4.29863 0.943717 0
M  V30 1450 H 139.847 -0.675591 0.294526 0
M  V30 1451 H 142.489 -1.34925 1.33773 0
M  V30 1452 H 140.639 -3.78611 0.870974 0
M  V30 1453 H 142.311 -3.12302 3.39507 0
M  V30 1454 H 140.554 -2.88539 3.23925 0
M  V30 1455 H 141.225 -4.51777 3.17177 0
M  V30 1456 H 143.701 -3.9417 1.33302 0
M  V30 1457 H 142.577 -5.32494 1.33198 0
M  V30 1458 H 142.838 -4.41846 -0.149796 0
M  V30 1459 N 141.898 -0.863906 -1.31812 0
M  V30 1460 C 142.83 -0.272485 -2.27575 0
M  V30 1461 C 143.843 0.56104 -1.52827 0
M  V30 1462 O 145.032 0.384021 -1.7432 0
M  V30 1463 C 142.132 0.63283 -3.32939 0
M  V30 1464 C 141.305 -0.166902 -4.37081 0
M  V30 1465 C 140.364 0.665608 -5.21973 0
M  V30 1466 O 139.39 0.0958091 -5.69119 0
M  V30 1467 N 140.592 1.9787 -5.45736 0
M  V30 1468 H 143.357 -1.0954 -2.78964 0
M  V30 1469 H 140.918 -0.724791 -1.4477 0
M  V30 1470 H 142.91 1.19532 -3.86645 0
M  V30 1471 H 141.48 1.35642 -2.81638 0
M  V30 1472 H 140.7 -0.910838 -3.83533 0
M  V30 1473 H 141.988 -0.715874 -5.03739 0
M  V30 1474 H 141.386 2.46484 -5.09178 0
M  V30 1475 H 139.943 2.48911 -6.024 0
M  V30 1476 N 143.376 1.44774 -0.622745 0
M  V30 1477 C 144.622 2.0242 -0.124083 0
M  V30 1478 C 144.955 1.4881 1.24777 0
M  V30 1479 O 144.23 0.668799 1.8264 0
M  V30 1480 C 144.513 3.59957 -0.101619 0
M  V30 1481 C 144.366 4.23867 -1.50521 0
M  V30 1482 C 145.685 4.36284 0.578272 0
M  V30 1483 H 142.804 0.735528 -0.0465645 0
M  V30 1484 H 145.446 1.72447 -0.797617 0
M  V30 1485 H 143.596 3.85623 0.471934 0
M  V30 1486 H 145.268 4.09336 -2.12701 0
M  V30 1487 H 143.511 3.81684 -2.06154 0
M  V30 1488 H 144.182 5.32843 -1.4416 0
M  V30 1489 H 146.658 4.16001 0.0906057 0
M  V30 1490 H 145.534 5.46004 0.563149 0
M  V30 1491 H 145.795 4.10271 1.64713 0
M  V30 1492 N 144.854 0.36279 1.53368 0
M  V30 1493 C 146.101 -0.227776 2.01215 0
M  V30 1494 C 146.429 -1.49003 1.25014 0
M  V30 1495 O 145.684 -1.92876 0.331236 0
M  V30 1496 C 145.983 -0.568417 3.52851 0
M  V30 1497 C 145.649 0.59918 4.46901 0
M  V30 1498 C 144.311 0.919559 4.72332 0
M  V30 1499 C 146.663 1.38156 5.02556 0
M  V30 1500 C 143.991 2.02434 5.5067 0
M  V30 1501 C 146.343 2.47674 5.821 0
M  V30 1502 C 145.007 2.8025 6.05819 0
M  V30 1503 H 144.277 -0.083349 0.736297 0
M  V30 1504 H 146.924 0.494677 1.85001 0
M  V30 1505 H 145.229 -1.37185 3.66998 0
M  V30 1506 H 146.926 -1.03756 3.87344 0
M  V30 1507 H 143.516 0.339437 4.27254 0
M  V30 1508 H 147.7 1.14729 4.82857 0
M  V30 1509 H 142.956 2.28075 5.67267 0
M  V30 1510 H 147.13 3.08716 6.24234 0
M  V30 1511 H 144.757 3.65979 6.66306 0
M  V30 1512 N 146.332 -1.57332 0.0918853 0
M  V30 1513 C 147.242 -2.17368 -0.882505 0
M  V30 1514 C 148.258 -1.14226 -1.31257 0
M  V30 1515 O 149.434 -1.46582 -1.38115 0
M  V30 1516 C 146.499 -2.73962 -2.12476 0
M  V30 1517 C 145.56 -3.92048 -1.7492 0
M  V30 1518 C 144.793 -4.45933 -2.93223 0
M  V30 1519 O 145.016 -3.98764 -4.07852 0
M  V30 1520 O 143.95 -5.36999 -2.71875 0
M  V30 1521 H 147.776 -3.01031 -0.40172 0
M  V30 1522 H 145.361 -1.48813 -0.132291 0
M  V30 1523 H 147.243 -3.10147 -2.85283 0
M  V30 1524 H 145.918 -1.93347 -2.59613 0
M  V30 1525 H 144.825 -3.6068 -0.993025 0
M  V30 1526 H 146.158 -4.74017 -1.32548 0
M  V30 1527 N 147.81 0.181792 -1.56548 0
M  V30 1528 C 149.058 0.89832 -1.81038 0
M  V30 1529 C 149.379 1.83232 -0.667164 0
M  V30 1530 O 148.649 1.93372 0.313673 0
M  V30 1531 H 147.229 0.33471 -0.667816 0
M  V30 1532 H 149.891 0.184116 -1.94028 0
M  V30 1533 H 148.987 1.4815 -2.74696 0
M  V30 1534 N 149.288 1.51039 0.449983 0
M  V30 1535 C 150.516 1.66869 1.2232 0
M  V30 1536 C 150.931 0.360727 1.85322 0
M  V30 1537 O 150.288 -0.659531 1.70166 0
M  V30 1538 C 150.339 2.77524 2.31652 0
M  V30 1539 O 150.06 4.03252 1.7123 0
M  V30 1540 C 151.561 3.04512 3.2216 0
M  V30 1541 H 148.781 0.560326 0.369155 0
M  V30 1542 H 151.325 1.97385 0.534719 0
M  V30 1543 H 149.48 2.49642 2.96239 0
M  V30 1544 H 149.894 4.64609 2.43389 0
M  V30 1545 H 151.368 3.85551 3.95038 0
M  V30 1546 H 151.845 2.16415 3.8218 0
M  V30 1547 H 152.451 3.34005 2.63288 0
M  V30 1548 N 150.766 -0.704594 1.40972 0
M  V30 1549 C 151.991 -1.49858 1.43378 0
M  V30 1550 C 152.416 -1.88061 0.038184 0
M  V30 1551 O 151.774 -1.5402 -0.956425 0
M  V30 1552 C 151.822 -2.74333 2.34038 0
M  V30 1553 O 150.926 -3.7147 1.7912 0
M  V30 1554 H 150.267 -0.45139 0.486974 0
M  V30 1555 H 152.797 -0.866832 1.8533 0
M  V30 1556 H 152.807 -3.22741 2.49604 0
M  V30 1557 H 151.482 -2.45863 3.35446 0
M  V30 1558 H 150.059 -3.30363 1.72958 0
M  V30 1559 N 152.244 -1.26651 -0.937939 0
M  V30 1560 C 153.492 -1.12165 -1.68118 0
M  V30 1561 C 153.813 0.334983 -1.92101 0
M  V30 1562 O 153.083 1.23583 -1.52 0
M  V30 1563 H 151.663 -0.412093 -0.623048 0
M  V30 1564 H 154.325 -1.59027 -1.12678 0
M  V30 1565 H 153.421 -1.64289 -2.6536 0
M  V30 1566 N 153.722 1.14298 -1.08507 0
M  V30 1567 C 154.971 1.84708 -0.810305 0
M  V30 1568 C 155.284 1.83903 0.666271 0
M  V30 1569 O 156.49 2.50112 1.05624 0
M  V30 1570 C 154.946 3.31572 -1.39957 0
M  V30 1571 C 154.554 3.40791 -2.90801 0
M  V30 1572 C 156.298 4.07087 -1.20334 0
M  V30 1573 C 154.205 4.81872 -3.4286 0
M  V30 1574 H 153.135 0.691985 -0.299454 0
M  V30 1575 H 155.786 1.28841 -1.30661 0
M  V30 1576 H 154.168 3.87183 -0.830976 0
M  V30 1577 H 155.342 2.95225 -3.53806 0
M  V30 1578 H 153.657 2.78732 -3.0935 0
M  V30 1579 H 156.254 5.11225 -1.56693 0
M  V30 1580 H 156.597 4.16054 -0.143237 0
M  V30 1581 H 157.13 3.57779 -1.73893 0
M  V30 1582 H 153.869 4.78094 -4.48449 0
M  V30 1583 H 153.389 5.27972 -2.84615 0
M  V30 1584 H 155.068 5.50765 -3.39509 0
M  V30 1585 N 155.201 0.870884 1.31352 0
M  V30 1586 C 156.478 0.402907 1.91405 0
M  V30 1587 C 156.858 -1.11512 1.79244 0
M  V30 1588 O 156.206 -1.94411 1.2007 0
M  V30 1589 C 156.416 0.885301 3.37585 0
M  V30 1590 C 157.764 0.911971 4.14691 0
M  V30 1591 O 158.788 0.831016 3.46371 0
M  V30 1592 O 157.647 1.02927 5.3672 0
M  V30 1593 H 154.741 0.120698 0.818145 0
M  V30 1594 H 157.287 0.958857 1.40014 0
M  V30 1595 H 156.059 1.92889 3.40455 0
M  V30 1596 H 155.682 0.307714 3.96407 0
M  V30 1597 N 156.679 -1.44442 0.630414 0
M  V30 1598 C 157.642 -2.29107 -0.0652523 0
M  V30 1599 C 158.642 -1.41002 -0.772995 0
M  V30 1600 O 159.832 -1.62881 -0.617692 0
M  V30 1601 C 156.964 -3.22564 -1.10296 0
M  V30 1602 H 158.157 -2.92103 0.679401 0
M  V30 1603 H 155.71 -1.51343 0.390517 0
M  V30 1604 H 156.445 -2.64416 -1.87762 0
M  V30 1605 H 156.23 -3.87491 -0.59941 0
M  V30 1606 H 157.72 -3.86167 -1.5895 0
M  V30 1607 N 158.157 -0.370918 -1.53173 0
M  V30 1608 C 159.104 0.473035 -2.259 0
M  V30 1609 C 160.074 1.07311 -1.26781 0
M  V30 1610 O 161.259 1.1046 -1.55574 0
M  V30 1611 C 158.399 1.60405 -3.05556 0
M  V30 1612 C 157.512 1.02863 -4.19575 0
M  V30 1613 C 156.647 2.12918 -4.86661 0
M  V30 1614 C 155.686 1.52869 -5.92704 0
M  V30 1615 N 154.823 2.56779 -6.53459 0
M  V30 1616 H 159.663 -0.153649 -2.97604 0
M  V30 1617 H 157.2 -0.0875946 -1.46839 0
M  V30 1618 H 159.158 2.27034 -3.50016 0
M  V30 1619 H 157.788 2.20131 -2.36097 0
M  V30 1620 H 156.84 0.252465 -3.79561 0
M  V30 1621 H 158.152 0.549642 -4.95762 0
M  V30 1622 H 157.306 2.87356 -5.34333 0
M  V30 1623 H 156.045 2.6417 -4.09958 0
M  V30 1624 H 155.05 0.769479 -5.44389 0
M  V30 1625 H 156.275 1.02435 -6.7133 0
M  V30 1626 H 154.221 3.07235 -5.79606 0
M  V30 1627 H 154.138 2.13583 -7.25202 0
M  V30 1628 H 155.406 3.30903 -7.05779 0
M  V30 1629 N 159.635 1.57281 -0.100228 0
M  V30 1630 C 160.582 2.14305 0.856858 0
M  V30 1631 C 161.552 1.06296 1.27634 0
M  V30 1632 O 162.737 1.34109 1.35718 0
M  V30 1633 C 159.877 2.73184 2.10866 0
M  V30 1634 C 158.99 3.95442 1.73925 0
M  V30 1635 C 158.125 4.42468 2.93931 0
M  V30 1636 C 157.164 5.57303 2.5314 0
M  V30 1637 N 156.301 5.99158 3.65997 0
M  V30 1638 H 161.141 2.95772 0.363726 0
M  V30 1639 H 158.678 1.46139 0.167858 0
M  V30 1640 H 160.636 3.05442 2.84185 0
M  V30 1641 H 159.266 1.94437 2.57671 0
M  V30 1642 H 158.318 3.69464 0.905554 0
M  V30 1643 H 159.63 4.78769 1.39935 0
M  V30 1644 H 158.784 4.76537 3.75496 0
M  V30 1645 H 157.523 3.58052 3.31134 0
M  V30 1646 H 156.528 5.22857 1.70003 0
M  V30 1647 H 157.753 6.43471 2.17075 0
M  V30 1648 H 155.699 5.17687 4.02909 0
M  V30 1649 H 155.616 6.77295 3.35869 0
M  V30 1650 H 156.884 6.3786 4.48057 0
M  V30 1651 N 161.113 -0.173488 1.56642 0
M  V30 1652 C 162.341 -0.906095 1.86004 0
M  V30 1653 C 162.756 -1.75921 0.685355 0
M  V30 1654 O 162.113 -1.79198 -0.345578 0
M  V30 1655 C 162.164 -1.78462 3.14378 0
M  V30 1656 O 161.885 -0.965914 4.27319 0
M  V30 1657 C 163.386 -2.62707 3.57071 0
M  V30 1658 H 160.606 -0.263341 0.617165 0
M  V30 1659 H 163.15 -0.174236 2.03756 0
M  V30 1660 H 161.305 -2.46984 2.98459 0
M  V30 1661 H 161.719 -1.56655 5.00559 0
M  V30 1662 H 163.193 -3.19969 4.49804 0
M  V30 1663 H 163.67 -3.37472 2.81086 0
M  V30 1664 H 164.276 -1.99521 3.75595 0
M  V30 1665 N 162.591 -1.51276 -0.441967 0
M  V30 1666 C 163.816 -1.67799 -1.21895 0
M  V30 1667 C 164.241 -0.372864 -1.84367 0
M  V30 1668 O 163.599 0.666501 -1.68604 0
M  V30 1669 C 163.647 -2.79199 -2.28211 0
M  V30 1670 O 162.751 -2.42479 -3.33583 0
M  V30 1671 H 162.092 -0.559649 -0.357336 0
M  V30 1672 H 164.622 -1.97815 -0.522522 0
M  V30 1673 H 164.632 -3.03146 -2.73069 0
M  V30 1674 H 163.307 -3.73906 -1.82118 0
M  V30 1675 H 161.884 -2.29087 -2.94234 0
M  V30 1676 N 164.069 0.697108 -1.41344 0
M  V30 1677 C 165.309 1.46939 -1.42085 0
M  V30 1678 C 165.673 1.9198 -0.0280397 0
M  V30 1679 O 166.874 2.6865 0.0897504 0
M  V30 1680 C 165.145 2.64985 -2.39828 0
M  V30 1681 S 166.704 3.54147 -2.59085 0
M  V30 1682 H 163.522 0.502146 -0.503359 0
M  V30 1683 H 166.124 0.813546 -1.77769 0
M  V30 1684 H 164.828 2.30098 -3.39828 0
M  V30 1685 H 164.359 3.35464 -2.05493 0
M  V30 1686 H 166.374 4.60137 -1.85711 0
M  V30 1687 N 165.547 1.27147 0.931209 0
M  V30 1688 C 166.457 1.11372 2.06478 0
M  V30 1689 C 167.473 0.044645 1.73943 0
M  V30 1690 O 168.649 0.250417 1.99837 0
M  V30 1691 C 165.714 0.758838 3.38294 0
M  V30 1692 C 164.775 1.90841 3.84549 0
M  V30 1693 C 164.008 1.57036 5.10074 0
M  V30 1694 O 164.231 0.476645 5.68405 0
M  V30 1695 O 163.165 2.40839 5.51616 0
M  V30 1696 H 166.991 2.06493 2.22698 0
M  V30 1697 H 164.576 1.06301 1.04978 0
M  V30 1698 H 166.458 0.574098 4.17471 0
M  V30 1699 H 165.133 -0.162879 3.2329 0
M  V30 1700 H 164.04 2.14819 3.06274 0
M  V30 1701 H 165.373 2.81021 4.04089 0
M  V30 1702 N 167.025 -1.13721 1.09112 0
M  V30 1703 C 168.272 -1.84924 0.825192 0
M  V30 1704 C 168.6 -1.83347 -0.649151 0
M  V30 1705 O 167.855 -1.26449 -1.49362 0
M  V30 1706 C 168.154 -3.32861 1.30146 0
M  V30 1707 C 167.82 -3.54621 2.78486 0
M  V30 1708 C 166.482 -3.60268 3.18999 0
M  V30 1709 C 168.834 -3.62855 3.74146 0
M  V30 1710 C 166.162 -3.71679 4.53951 0
M  V30 1711 C 168.514 -3.75793 5.08883 0
M  V30 1712 C 167.178 -3.79692 5.4899 0
M  V30 1713 H 166.448 -0.676684 0.301959 0
M  V30 1714 H 169.095 -1.3428 1.36533 0
M  V30 1715 H 167.4 -3.85835 0.681064 0
M  V30 1716 H 169.097 -3.86395 1.07236 0
M  V30 1717 H 165.687 -3.50879 2.46134 0
M  V30 1718 H 169.871 -3.57775 3.43963 0
M  V30 1719 H 165.127 -3.72963 4.84467 0
M  V30 1720 H 169.301 -3.81107 5.82864 0
M  V30 1721 H 166.928 -3.88287 6.53558 0
M  V30 1722 N 168.503 -0.877838 -1.30888 0
M  V30 1723 C 169.731 -0.507414 -2.00581 0
M  V30 1724 C 170.146 0.902216 -1.65848 0
M  V30 1725 O 169.503 1.59225 -0.891831 0
M  V30 1726 C 169.554 -0.664162 -3.55347 0
M  V30 1727 O 169.275 -2.01829 -3.8884 0
M  V30 1728 C 170.776 -0.295787 -4.42312 0
M  V30 1729 H 167.996 -0.196866 -0.641471 0
M  V30 1730 H 170.54 -1.18117 -1.66939 0
M  V30 1731 H 168.695 -0.0378619 -3.87381 0
M  V30 1732 H 169.109 -2.03174 -4.8355 0
M  V30 1733 H 170.583 -0.456388 -5.5011 0
M  V30 1734 H 171.06 0.765663 -4.32475 0
M  V30 1735 H 171.666 -0.898113 -4.15709 0
M  V30 1736 N 169.982 1.44106 -0.638065 0
M  V30 1737 C 171.23 2.01579 -0.145043 0
M  V30 1738 C 171.551 1.50496 1.24 0
M  V30 1739 O 170.821 0.711374 1.82527 0
M  V30 1740 H 169.401 0.745282 -0.05063 0
M  V30 1741 H 172.063 1.76516 -0.826327 0
M  V30 1742 H 171.159 3.11877 -0.118039 0
M  V30 1743 N 171.46 0.379036 1.52974 0
M  V30 1744 C 172.737 -0.263479 1.93817 0
M  V30 1745 C 173.117 -1.65244 1.31368 0
M  V30 1746 O 172.465 -2.23448 0.477856 0
M  V30 1747 C 172.675 -0.300166 3.47707 0
M  V30 1748 C 174.023 -0.534061 4.21228 0
M  V30 1749 O 175.047 -0.38081 3.54159 0
M  V30 1750 O 173.906 -0.833501 5.40106 0
M  V30 1751 H 171 -0.161149 0.811147 0
M  V30 1752 H 173.546 0.432798 1.64088 0
M  V30 1753 H 172.318 0.673138 3.85467 0
M  V30 1754 H 171.941 -1.04179 3.83709 0
M  V30 1755 N 172.938 -1.57226 0.108567 0
M  V30 1756 C 174.187 -1.94008 -0.551703 0
M  V30 1757 C 174.5 -0.993442 -1.68494 0
M  V30 1758 O 175.706 -1.25551 -2.40726 0
M  V30 1759 C 174.162 -3.44763 -1.03279 0
M  V30 1760 C 173.77 -4.47943 0.0714193 0
M  V30 1761 C 175.514 -3.90483 -1.66503 0
M  V30 1762 C 173.421 -5.89865 -0.425779 0
M  V30 1763 H 172.351 -0.724206 -0.209863 0
M  V30 1764 H 175.002 -1.82547 0.186741 0
M  V30 1765 H 173.384 -3.51422 -1.82533 0
M  V30 1766 H 174.558 -4.52942 0.847365 0
M  V30 1767 H 172.873 -4.11913 0.609669 0
M  V30 1768 H 175.47 -4.93925 -2.04798 0
M  V30 1769 H 175.813 -3.29877 -2.53942 0
M  V30 1770 H 176.346 -3.86581 -0.938074 0
M  V30 1771 H 173.085 -6.54202 0.412316 0
M  V30 1772 H 172.605 -5.88309 -1.16843 0
M  V30 1773 H 174.284 -6.40844 -0.890397 0
M  V30 1774 N 174.416 0.165178 -1.56732 0
M  V30 1775 C 175.346 1.20651 -1.99914 0
M  V30 1776 C 176.327 1.45827 -0.875705 0
M  V30 1777 O 177.512 1.57057 -1.14223 0
M  V30 1778 C 174.642 2.54401 -2.36427 0
M  V30 1779 C 173.596 2.43782 -3.51787 0
M  V30 1780 C 172.922 3.82078 -3.7406 0
M  V30 1781 C 174.222 1.93732 -4.85041 0
M  V30 1782 H 175.916 0.847534 -2.87154 0
M  V30 1783 H 173.462 0.40625 -1.38151 0
M  V30 1784 H 175.415 3.27458 -2.65234 0
M  V30 1785 H 174.139 2.92098 -1.46103 0
M  V30 1786 H 172.798 1.73178 -3.23117 0
M  V30 1787 H 172.446 4.17179 -2.81017 0
M  V30 1788 H 172.146 3.7584 -4.51684 0
M  V30 1789 H 173.67 4.56712 -4.05274 0
M  V30 1790 H 175.084 2.56569 -5.12684 0
M  V30 1791 H 173.481 1.98428 -5.66345 0
M  V30 1792 H 174.551 0.891962 -4.76626 0
M  V30 1793 N 175.894 1.51508 0.433938 0
M  V30 1794 C 177.31 1.39759 0.770682 0
M  V30 1795 C 177.51 0.482594 1.95636 0
M  V30 1796 O 176.566 -0.0609691 2.52426 0
M  V30 1797 C 177.879 2.81851 1.04787 0
M  V30 1798 C 179.427 2.91025 1.1521 0
M  V30 1799 C 179.902 4.34032 1.46219 0
M  V30 1800 N 181.393 4.37154 1.53136 0
M  V30 1801 C 182.128 5.4484 1.78709 0
M  V30 1802 N 181.624 6.62682 2.02051 0
M  V30 1803 N 183.417 5.32324 1.80519 0
M  V30 1804 H 175.568 2.09548 -0.346892 0
M  V30 1805 H 177.831 0.943446 -0.0928074 0
M  V30 1806 H 177.537 3.50815 0.249304 0
M  V30 1807 H 177.411 3.21386 1.97461 0
M  V30 1808 H 179.798 2.22257 1.94128 0
M  V30 1809 H 179.879 2.54983 0.204281 0
M  V30 1810 H 179.523 5.03351 0.678274 0
M  V30 1811 H 179.453 4.6759 2.42212 0
M  V30 1812 H 181.944 3.52197 1.36987 0
M  V30 1813 H 182.257 7.40543 2.20943 0
M  V30 1814 H 180.602 6.65791 1.99366 0
M  V30 1815 H 183.793 4.39246 1.61805 0
M  V30 1816 H 183.966 6.16328 2.00111 0
M  V30 1817 N 177.372 -0.689602 1.41712 0
M  V30 1818 C 178.6 -1.47827 1.44758 0
M  V30 1819 C 179.015 -1.88721 0.0545703 0
M  V30 1820 O 178.372 -1.57176 -0.927463 0
M  V30 1821 C 178.423 -2.73698 2.3616 0
M  V30 1822 O 178.144 -2.34524 3.7004 0
M  V30 1823 C 179.645 -3.67389 2.48072 0
M  V30 1824 H 176.865 -0.455357 0.49284 0
M  V30 1825 H 179.409 -0.848574 1.86063 0
M  V30 1826 H 177.564 -3.32891 1.98148 0
M  V30 1827 H 177.978 -3.15701 4.18847 0
M  V30 1828 H 179.452 -4.52475 3.16181 0
M  V30 1829 H 179.929 -4.12284 1.51388 0
M  V30 1830 H 180.535 -3.14097 2.86746 0
M  V30 1831 N 178.85 -1.27639 -0.924453 0
M  V30 1832 C 180.261 -1.12834 -1.48746 0
M  V30 1833 C 180.612 0.285505 -1.94112 0
M  V30 1834 O 179.737 1.17874 -1.81479 0
M  V30 1835 C 180.332 -2.04217 -2.70334 0
M  V30 1836 C 178.891 -1.93509 -3.22848 0
M  V30 1837 C 178.038 -1.96583 -1.95577 0
M  V30 1838 H 180.989 -1.40484 -0.738233 0
M  V30 1839 H 181.01 -1.59989 -3.4523 0
M  V30 1840 H 180.522 -3.07111 -2.37285 0
M  V30 1841 H 178.623 -0.936131 -3.60649 0
M  V30 1842 H 178.736 -2.79917 -3.88823 0
M  V30 1843 H 177.1 -1.4085 -2.12211 0
M  V30 1844 H 177.883 -3.01137 -1.64837 0
M  V30 1845 N 180.328 1.1314 -1.09713 0
M  V30 1846 C 181.574 1.84757 -0.836224 0
M  V30 1847 C 181.907 1.8347 0.636598 0
M  V30 1848 O 181.182 1.27491 1.46889 0
M  V30 1849 C 181.465 3.32782 -1.37578 0
M  V30 1850 C 181.318 3.42567 -2.91493 0
M  V30 1851 C 182.637 4.28307 -1.01198 0
M  V30 1852 H 179.756 0.67082 -0.305236 0
M  V30 1853 H 182.398 1.3278 -1.35903 0
M  V30 1854 H 180.548 3.77177 -0.931097 0
M  V30 1855 H 182.22 3.06862 -3.44432 0
M  V30 1856 H 180.463 2.83349 -3.28475 0
M  V30 1857 H 181.134 4.46674 -3.24324 0
M  V30 1858 H 183.61 3.91999 -1.39556 0
M  V30 1859 H 182.486 5.30307 -1.41653 0
M  V30 1860 H 182.747 4.42029 0.0794833 0
M  V30 1861 N 181.806 0.884767 1.30421 0
M  V30 1862 C 183.031 0.517288 2.00845 0
M  V30 1863 C 183.456 -0.886779 1.65885 0
M  V30 1864 O 182.814 -1.58768 0.875354 0
M  V30 1865 C 182.862 0.698994 3.5376 0
M  V30 1866 O 181.966 -0.255208 4.1161 0
M  V30 1867 H 181.307 0.203872 0.631927 0
M  V30 1868 H 183.837 1.19225 1.66272 0
M  V30 1869 H 183.847 0.597912 4.03595 0
M  V30 1870 H 182.522 1.72271 3.78544 0
M  V30 1871 H 181.099 -0.10784 3.72744 0
M  V30 1872 N 183.284 -1.43765 0.645699 0
M  V30 1873 C 184.194 -2.34544 -0.0512957 0
M  V30 1874 C 185.21 -1.53455 -0.82022 0
M  V30 1875 O 186.386 -1.86133 -0.769176 0
M  V30 1876 C 183.451 -3.31636 -1.01087 0
M  V30 1877 C 182.512 -4.2863 -0.239712 0
M  V30 1878 C 181.745 -5.21084 -1.15358 0
M  V30 1879 O 181.968 -5.1779 -2.39269 0
M  V30 1880 O 180.902 -5.98593 -0.630038 0
M  V30 1881 H 184.728 -2.95624 0.695718 0
M  V30 1882 H 182.313 -1.43781 0.405882 0
M  V30 1883 H 184.195 -3.9136 -1.56254 0
M  V30 1884 H 182.87 -2.73069 -1.73824 0
M  V30 1885 H 181.777 -3.72408 0.355356 0
M  V30 1886 H 183.11 -4.90157 0.447936 0
M  V30 1887 N 184.763 -0.387143 -1.52771 0
M  V30 1888 C 186.04 0.253197 -1.93954 0
M  V30 1889 C 186.42 1.64545 -1.32243 0
M  V30 1890 O 185.768 2.23191 -0.489699 0
M  V30 1891 C 185.978 0.281722 -3.47861 0
M  V30 1892 C 187.326 0.511715 -4.21505 0
M  V30 1893 O 188.35 0.362023 -3.54356 0
M  V30 1894 O 187.209 0.804847 -5.40541 0
M  V30 1895 H 184.303 0.156845 -0.811991 0
M  V30 1896 H 186.849 -0.441494 -1.63856 0
M  V30 1897 H 185.621 -0.693571 -3.85104 0
M  V30 1898 H 185.244 1.02142 -3.84256 0
M  V30 1899 N 186.241 1.57166 -0.116904 0
M  V30 1900 C 187.174 2.10912 0.871291 0
M  V30 1901 C 188.152 1.025 1.26224 0
M  V30 1902 O 189.336 1.3014 1.36366 0
M  V30 1903 C 186.463 2.6041 2.16574 0
M  V30 1904 C 185.509 3.80687 1.92302 0
M  V30 1905 S 186.342 5.23199 1.14119 0
M  V30 1906 C 187.498 5.76064 2.44748 0
M  V30 1907 H 187.731 2.94401 0.414138 0
M  V30 1908 H 185.264 1.54096 0.096829 0
M  V30 1909 H 187.222 2.89583 2.9095 0
M  V30 1910 H 185.883 1.77106 2.59408 0
M  V30 1911 H 185.076 4.13462 2.8821 0
M  V30 1912 H 184.678 3.5212 1.26047 0
M  V30 1913 H 186.97 5.8566 3.406 0
M  V30 1914 H 187.913 6.74184 2.16521 0
M  V30 1915 H 188.321 5.04117 2.54019 0
M  V30 1916 N 187.719 -0.156864 1.56817 0
M  V30 1917 C 188.649 -1.19589 2.00551 0
M  V30 1918 C 189.63 -1.4536 0.883426 0
M  V30 1919 O 190.815 -1.56449 1.15054 0
M  V30 1920 C 187.945 -2.53143 2.37773 0
M  V30 1921 C 186.899 -2.41913 3.53075 0
M  V30 1922 C 186.225 -3.80088 3.76081 0
M  V30 1923 C 187.525 -1.91157 4.86062 0
M  V30 1924 H 189.219 -0.832293 2.87599 0
M  V30 1925 H 186.765 -0.398918 1.38364 0
M  V30 1926 H 188.718 -3.26047 2.66967 0
M  V30 1927 H 187.442 -2.91319 1.4765 0
M  V30 1928 H 186.101 -1.71462 3.24031 0
M  V30 1929 H 185.749 -4.15683 2.83225 0
M  V30 1930 H 185.449 -3.73439 4.53671 0
M  V30 1931 H 186.973 -4.54556 4.0769 0
M  V30 1932 H 188.387 -2.53846 5.14038 0
M  V30 1933 H 186.784 -1.95422 5.67389 0
M  V30 1934 H 187.854 -0.866673 4.77092 0
M  V30 1935 N 189.197 -1.51736 -0.425897 0
M  V30 1936 C 190.445 -1.64644 -1.17204 0
M  V30 1937 C 190.766 -0.370486 -1.91448 0
M  V30 1938 O 190.036 0.614088 -1.86026 0
M  V30 1939 H 188.616 -0.606819 -0.435638 0
M  V30 1940 H 191.278 -1.88713 -0.487177 0
M  V30 1941 H 190.374 -2.47958 -1.89534 0
M  V30 1942 N 190.675 0.682077 -1.42076 0
M  V30 1943 C 192.091 0.994324 -1.24841 0
M  V30 1944 C 192.291 2.0096 -0.147389 0
M  V30 1945 O 191.347 2.47822 0.483782 0
M  V30 1946 C 192.66 1.50607 -2.60265 0
M  V30 1947 C 194.208 1.62421 -2.6756 0
M  V30 1948 C 194.683 2.16994 -4.03333 0
M  V30 1949 N 196.174 2.24337 -4.0525 0
M  V30 1950 C 196.909 2.67621 -5.07116 0
M  V30 1951 N 196.405 3.1041 -6.19368 0
M  V30 1952 N 198.198 2.67305 -4.94474 0
M  V30 1953 H 190.349 0.00973908 -2.12398 0
M  V30 1954 H 192.612 0.0668593 -0.945639 0
M  V30 1955 H 192.318 0.834583 -3.41654 0
M  V30 1956 H 192.192 2.48602 -2.83684 0
M  V30 1957 H 194.579 2.28678 -1.86521 0
M  V30 1958 H 194.66 0.629352 -2.47937 0
M  V30 1959 H 194.304 1.51349 -4.84826 0
M  V30 1960 H 194.234 3.17258 -4.20304 0
M  V30 1961 H 196.725 1.94158 -3.24209 0
M  V30 1962 H 197.038 3.42103 -6.92954 0
M  V30 1963 H 195.383 3.08286 -6.22884 0
M  V30 1964 H 198.574 2.33233 -4.05857 0
M  V30 1965 H 198.747 3.00718 -5.73997 0
M  V30 1966 N 192.153 1.28127 0.917671 0
M  V30 1967 C 193.399 1.15223 1.66888 0
M  V30 1968 C 193.732 -0.299293 1.9188 0
M  V30 1969 O 193.007 -1.21805 1.51637 0
M  V30 1970 C 193.29 1.94706 3.02922 0
M  V30 1971 C 193.143 3.47898 2.85109 0
M  V30 1972 C 194.462 1.75939 4.03402 0
M  V30 1973 H 191.581 0.419946 0.605652 0
M  V30 1974 H 194.223 1.57398 1.06423 0
M  V30 1975 H 192.373 1.58864 3.54534 0
M  V30 1976 H 194.045 3.93624 2.40537 0
M  V30 1977 H 192.288 3.7373 2.20246 0
M  V30 1978 H 192.959 3.98765 3.81694 0
M  V30 1979 H 195.435 2.07209 3.60837 0
M  V30 1980 H 194.311 2.33931 4.96556 0
M  V30 1981 H 194.572 0.709877 4.36364 0
M  V30 1982 N 193.631 -1.12557 1.10312 0
M  V30 1983 C 194.878 -1.84038 0.844759 0
M  V30 1984 C 195.206 -1.84026 -0.629668 0
M  V30 1985 O 194.461 -1.28026 -1.48013 0
M  V30 1986 C 194.76 -3.31462 1.33669 0
M  V30 1987 C 194.426 -3.51647 2.82232 0
M  V30 1988 C 193.088 -3.56864 3.22802 0
M  V30 1989 C 195.44 -3.58867 3.77974 0
M  V30 1990 C 192.768 -3.66844 4.57867 0
M  V30 1991 C 195.12 -3.70375 5.1284 0
M  V30 1992 C 193.784 -3.73848 5.52986 0
M  V30 1993 H 193.054 -0.673444 0.309119 0
M  V30 1994 H 195.701 -1.32824 1.37949 0
M  V30 1995 H 194.006 -3.85091 0.721949 0
M  V30 1996 H 195.703 -3.85236 1.11329 0
M  V30 1997 H 192.293 -3.48249 2.49842 0
M  V30 1998 H 196.477 -3.54107 3.47738 0
M  V30 1999 H 191.733 -3.67804 4.88396 0
M  V30 2000 H 195.907 -3.74904 5.86873 0
M  V30 2001 H 193.534 -3.81333 6.57639 0
M  V30 2002 N 195.109 -0.891671 -1.2995 0
M  V30 2003 C 196.057 -0.353066 -2.29905 0
M  V30 2004 C 197.051 0.543509 -1.60444 0
M  V30 2005 O 198.257 0.4272 -1.74857 0
M  V30 2006 H 194.632 -0.095531 -0.745907 0
M  V30 2007 H 196.603 -1.20961 -2.72784 0
M  V30 2008 C 195.352 0.411475 -3.45257 0
M  V30 2009 H 194.675 -0.269182 -3.98893 0
M  V30 2010 H 196.115 0.753328 -4.17254 0
M  V30 2011 C 194.574 1.6111 -2.9588 0
M  V30 2012 O 195.104 2.71045 -2.96475 0
M  V30 2013 N 193.31 1.45054 -2.51809 0
M  V30 2014 H 192.857 0.556175 -2.51524 0
M  V30 2015 H 192.815 2.25453 -2.1913 0
M  V30 2016 N 196.587 1.43421 -0.653314 0
M  V30 2017 C 197.835 2.01414 -0.166415 0
M  V30 2018 C 198.156 1.51803 1.22397 0
M  V30 2019 O 197.426 0.730693 1.81763 0
M  V30 2020 H 196.006 0.744703 -0.0585319 0
M  V30 2021 H 198.668 1.75629 -0.845003 0
M  V30 2022 H 197.764 3.11734 -0.151111 0
M  V30 2023 N 198.065 0.39524 1.52563 0
M  V30 2024 C 199.29 -0.187456 2.06551 0
M  V30 2025 C 199.715 -1.39249 1.26457 0
M  V30 2026 O 199.073 -1.78947 0.291151 0
M  V30 2027 C 199.121 -0.529985 3.56684 0
M  V30 2028 O 198.225 -1.62307 3.79118 0
M  V30 2029 H 197.566 -0.0202537 0.663691 0
M  V30 2030 H 200.096 0.564426 1.96661 0
M  V30 2031 H 200.106 -0.792598 4.00227 0
M  V30 2032 H 198.781 0.350987 4.14416 0
M  V30 2033 H 197.358 -1.3537 3.47461 0
M  V30 2034 N 199.544 -1.57102 0.125237 0
M  V30 2035 C 200.792 -1.95021 -0.530198 0
M  V30 2036 C 201.113 -1.00982 -1.66816 0
M  V30 2037 O 200.383 -0.0672693 -1.95784 0
M  V30 2038 H 198.963 -0.720046 -0.198853 0
M  V30 2039 H 201.625 -1.93916 0.19564 0
M  V30 2040 H 200.721 -2.98211 -0.920681 0
M  V30 2041 N 201.022 0.148545 -1.56898 0
M  V30 2042 C 201.969 1.18345 -1.98149 0
M  V30 2043 C 202.939 1.42772 -0.848848 0
M  V30 2044 O 204.124 1.55132 -1.11079 0
M  V30 2045 C 201.264 2.51231 -2.36594 0
M  V30 2046 C 200.377 2.33991 -3.63142 0
M  V30 2047 C 199.512 3.59902 -3.90697 0
M  V30 2048 C 198.551 3.37692 -5.1052 0
M  V30 2049 N 197.688 4.5573 -5.34092 0
M  V30 2050 H 202.528 0.82467 -2.86362 0
M  V30 2051 H 200.065 0.395756 -1.41676 0
M  V30 2052 H 202.023 3.28713 -2.56912 0
M  V30 2053 H 200.653 2.85059 -1.51463 0
M  V30 2054 H 199.705 1.47572 -3.50609 0
M  V30 2055 H 201.017 2.13539 -4.5078 0
M  V30 2056 H 200.171 4.45813 -4.11505 0
M  V30 2057 H 198.91 3.83357 -3.01477 0
M  V30 2058 H 197.915 2.5017 -4.89587 0
M  V30 2059 H 199.14 3.15637 -6.0129 0
M  V30 2060 H 197.086 4.79361 -4.47827 0
M  V30 2061 H 197.003 4.38274 -6.15996 0
M  V30 2062 H 198.271 5.42858 -5.59397 0
M  V30 2063 N 202.5 1.5196 0.417844 0
M  V30 2064 C 203.911 1.57851 0.997 0
M  V30 2065 C 204.262 0.413714 1.91789 0
M  V30 2066 O 203.387 -0.467057 2.113 0
M  V30 2067 C 203.982 2.86085 1.81496 0
M  V30 2068 C 202.541 2.94483 2.34428 0
M  V30 2069 C 201.688 2.52707 1.14169 0
M  V30 2070 H 204.639 1.57455 0.198392 0
M  V30 2071 H 204.66 2.70947 2.67148 0
M  V30 2072 H 204.172 3.70842 1.14446 0
M  V30 2073 H 202.273 2.142 3.04875 0
M  V30 2074 H 202.386 3.98546 2.65891 0
M  V30 2075 H 200.75 2.06353 1.49301 0
M  V30 2076 H 201.533 3.39828 0.486999 0
M  V30 2077 N 203.978 -0.674533 1.42435 0
M  V30 2078 C 205.227 -1.43034 1.42212 0
M  V30 2079 C 205.54 -1.95555 0.0420788 0
M  V30 2080 O 206.746 -2.71374 -0.0827558 0
M  V30 2081 C 205.202 -2.58748 2.50155 0
M  V30 2082 C 204.81 -2.12925 3.94166 0
M  V30 2083 C 206.554 -3.36257 2.59098 0
M  V30 2084 C 204.461 -3.25723 4.93618 0
M  V30 2085 H 203.391 -0.537345 0.528939 0
M  V30 2086 H 206.042 -0.73024 1.68344 0
M  V30 2087 H 204.424 -3.31128 2.17188 0
M  V30 2088 H 205.598 -1.47697 4.36488 0
M  V30 2089 H 203.913 -1.48354 3.89076 0
M  V30 2090 H 206.51 -4.20264 3.30578 0
M  V30 2091 H 206.853 -3.82866 1.63461 0
M  V30 2092 H 207.386 -2.70947 2.9126 0
M  V30 2093 H 204.125 -2.84105 5.90732 0
M  V30 2094 H 203.645 -3.89732 4.55926 0
M  V30 2095 H 205.324 -3.91186 5.15347 0
M  V30 2096 N 205.456 -1.28612 -0.910864 0
M  V30 2097 C 206.733 -1.06632 -1.63979 0
M  V30 2098 C 207.113 0.393351 -2.07403 0
M  V30 2099 O 206.461 1.37999 -1.82122 0
M  V30 2100 C 206.671 -2.0436 -2.8291 0
M  V30 2101 C 208.019 -2.34666 -3.5386 0
M  V30 2102 O 209.043 -2.02467 -2.93062 0
M  V30 2103 O 207.902 -2.89631 -4.63439 0
M  V30 2104 H 204.996 -0.407737 -0.7195 0
M  V30 2105 H 207.542 -1.39942 -0.959914 0
M  V30 2106 H 206.314 -3.02727 -2.47936 0
M  V30 2107 H 205.937 -1.71714 -3.58609 0
M  V30 2108 N 206.934 1.1197 -1.10907 0
M  V30 2109 C 208.35 1.35591 -0.841852 0
M  V30 2110 C 208.55 1.94233 0.536246 0
M  V30 2111 O 207.606 2.1717 1.28816 0
M  V30 2112 C 208.919 2.29284 -1.94549 0
M  V30 2113 C 210.467 2.42862 -1.97451 0
M  V30 2114 C 210.942 3.39873 -3.07002 0
M  V30 2115 N 212.433 3.47433 -3.06341 0
M  V30 2116 C 213.168 4.22421 -3.87748 0
M  V30 2117 N 212.664 5.00432 -4.79103 0
M  V30 2118 N 214.457 4.17876 -3.75946 0
M  V30 2119 H 206.608 0.722664 -1.99728 0
M  V30 2120 H 208.871 0.380635 -0.868229 0
M  V30 2121 H 208.577 1.93378 -2.93765 0
M  V30 2122 H 208.451 3.29452 -1.83688 0
M  V30 2123 H 210.838 2.78046 -0.988645 0
M  V30 2124 H 210.919 1.42566 -2.12388 0
M  V30 2125 H 210.563 3.05417 -4.05811 0
M  V30 2126 H 210.493 4.40011 -2.89306 0
M  V30 2127 H 212.984 2.91784 -2.40147 0
M  V30 2128 H 213.297 5.55002 -5.37766 0
M  V30 2129 H 211.642 4.99612 -4.83128 0
M  V30 2130 H 214.833 3.56016 -3.03924 0
M  V30 2131 H 215.006 4.76061 -4.39624 0
M  V30 2132 N 208.412 0.89855 1.29475 0
M  V30 2133 C 209.66 0.522847 1.9522 0
M  V30 2134 C 209.981 -0.93371 1.71192 0
M  V30 2135 O 209.251 -1.65823 1.04305 0
M  V30 2136 H 207.831 0.190366 0.722336 0
M  V30 2137 H 210.493 1.14459 1.5775 0
M  V30 2138 H 209.589 0.704476 3.04045 0
M  V30 2139 N 209.89 -1.43072 0.660911 0
M  V30 2140 C 211.301 -1.84932 0.256348 0
M  V30 2141 C 211.652 -1.55325 -1.19868 0
M  V30 2142 O 210.777 -1.00607 -1.91591 0
M  V30 2143 C 211.372 -3.35684 0.458475 0
M  V30 2144 C 209.931 -3.76245 0.108161 0
M  V30 2145 C 209.078 -2.66749 0.757641 0
M  V30 2146 H 212.029 -1.33116 0.864051 0
M  V30 2147 H 212.05 -3.79365 -0.293683 0
M  V30 2148 H 211.562 -3.572 1.51755 0
M  V30 2149 H 209.663 -3.60338 -0.948014 0
M  V30 2150 H 209.776 -4.76058 0.538992 0
M  V30 2151 H 208.14 -2.53989 0.190185 0
M  V30 2152 H 208.923 -2.91092 1.81989 0
M  V30 2153 N 211.368 -0.403325 -1.52352 0
M  V30 2154 C 212.614 0.174605 -2.02047 0
M  V30 2155 C 212.947 1.45282 -1.28867 0
M  V30 2156 O 212.222 1.90483 -0.393257 0
M  V30 2157 C 212.505 0.428238 -3.57545 0
M  V30 2158 C 212.358 -0.866248 -4.4138 0
M  V30 2159 C 213.677 1.21287 -4.23057 0
M  V30 2160 H 210.796 0.0619851 -0.734389 0
M  V30 2161 H 213.438 -0.53565 -1.82293 0
M  V30 2162 H 211.588 1.03327 -3.74507 0
M  V30 2163 H 213.26 -1.50265 -4.3614 0
M  V30 2164 H 211.503 -1.47851 -4.07827 0
M  V30 2165 H 212.174 -0.643249 -5.48239 0
M  V30 2166 H 214.65 0.700703 -4.10158 0
M  V30 2167 H 213.526 1.35909 -5.31808 0
M  V30 2168 H 213.787 2.23193 -3.81625 0
M  V30 2169 N 212.846 1.57033 -0.133567 0
M  V30 2170 C 214.092 1.95976 0.521649 0
M  V30 2171 C 214.425 1.01779 1.65393 0
M  V30 2172 O 213.7 0.0576581 1.94415 0
M  V30 2173 C 213.983 3.44738 1.04057 0
M  V30 2174 C 213.836 4.49711 -0.0892897 0
M  V30 2175 C 215.155 3.95682 1.92675 0
M  V30 2176 H 212.274 0.712579 0.188149 0
M  V30 2177 H 214.916 1.88813 -0.212076 0
M  V30 2178 H 213.066 3.50973 1.66583 0
M  V30 2179 H 214.738 4.55565 -0.725152 0
M  V30 2180 H 212.981 4.27261 -0.750378 0
M  V30 2181 H 213.652 5.51099 0.315284 0
M  V30 2182 H 216.128 3.91841 1.39998 0
M  V30 2183 H 215.004 5.00262 2.25897 0
M  V30 2184 H 215.265 3.37239 2.85872 0
M  V30 2185 N 214.325 -0.140222 1.56975 0
M  V30 2186 C 215.255 -1.17456 2.01808 0
M  V30 2187 C 216.236 -1.44415 0.898794 0
M  V30 2188 O 217.421 -1.5522 1.16707 0
M  V30 2189 C 214.551 -2.50607 2.40444 0
M  V30 2190 C 213.505 -2.38155 3.55621 0
M  V30 2191 C 212.831 -3.76078 3.80091 0
M  V30 2192 C 214.131 -1.85991 4.88062 0
M  V30 2193 H 215.825 -0.801743 2.88466 0
M  V30 2194 H 213.371 -0.38422 1.38779 0
M  V30 2195 H 215.324 -3.23197 2.7041 0
M  V30 2196 H 214.048 -2.89737 1.50732 0
M  V30 2197 H 212.707 -1.68016 3.25832 0
M  V30 2198 H 212.355 -4.12656 2.87618 0
M  V30 2199 H 212.055 -3.68606 4.57606 0
M  V30 2200 H 213.579 -4.50206 4.12488 0
M  V30 2201 H 214.993 -2.4838 5.16701 0
M  V30 2202 H 213.39 -1.89393 5.6943 0
M  V30 2203 H 214.46 -0.816023 4.77984 0
M  V30 2204 N 215.803 -1.52179 -0.40978 0
M  V30 2205 C 216.766 -1.74853 -1.48186 0
M  V30 2206 C 217.766 -0.618417 -1.48433 0
M  V30 2207 O 218.956 -0.886286 -1.49969 0
M  V30 2208 C 216.088 -1.8303 -2.87598 0
M  V30 2209 H 217.281 -2.70559 -1.29374 0
M  V30 2210 H 214.834 -1.42586 -0.640233 0
M  V30 2211 H 215.569 -0.89236 -3.11781 0
M  V30 2212 H 215.354 -2.65187 -2.88822 0
M  V30 2213 H 216.844 -2.02316 -3.65319 0
M  V30 2214 N 217.281 0.66697 -1.42791 0
M  V30 2215 C 218.191 1.80962 -1.49299 0
M  V30 2216 C 219.207 1.69775 -0.381108 0
M  V30 2217 O 220.383 1.91188 -0.633188 0
M  V30 2218 C 217.448 3.17156 -1.40045 0
M  V30 2219 C 216.509 3.40242 -2.6179 0
M  V30 2220 C 215.742 4.69939 -2.52969 0
M  V30 2221 O 215.965 5.48372 -1.56985 0
M  V30 2222 O 214.899 4.94441 -3.43237 0
M  V30 2223 H 218.725 1.78427 -2.45759 0
M  V30 2224 H 216.31 0.823713 -1.24641 0
M  V30 2225 H 218.192 3.98413 -1.37276 0
M  V30 2226 H 216.867 3.20312 -0.467138 0
M  V30 2227 H 215.774 2.58802 -2.70134 0
M  V30 2228 H 217.107 3.41923 -3.54047 0
M  V30 2229 N 218.759 1.29093 0.90403 0
M  V30 2230 C 220.036 1.075 1.63411 0
M  V30 2231 C 220.416 -0.382346 2.07609 0
M  V30 2232 O 219.764 -1.37031 1.82851 0
M  V30 2233 C 219.974 2.05858 2.81822 0
M  V30 2234 C 221.322 2.36539 3.52611 0
M  V30 2235 O 222.346 2.04019 2.91984 0
M  V30 2236 O 221.205 2.92085 4.61897 0
M  V30 2237 H 218.299 0.411547 0.717327 0
M  V30 2238 H 220.845 1.40449 0.952479 0
M  V30 2239 H 219.617 3.04037 2.46327 0
M  V30 2240 H 219.24 1.73613 3.57693 0
M  V30 2241 N 220.237 -1.11381 1.11499 0
M  V30 2242 C 221.484 -1.83132 0.864231 0
M  V30 2243 C 221.812 -1.84683 -0.610114 0
M  V30 2244 O 221.067 -1.29589 -1.46646 0
M  V30 2245 C 221.366 -3.30026 1.37177 0
M  V30 2246 C 221.032 -3.48634 2.85946 0
M  V30 2247 C 219.694 -3.53421 3.26569 0
M  V30 2248 C 222.046 -3.54837 3.81759 0
M  V30 2249 C 219.374 -3.61967 4.61733 0
M  V30 2250 C 221.726 -3.64915 5.1674 0
M  V30 2251 C 220.39 -3.67962 5.5692 0
M  V30 2252 H 219.66 -0.670127 0.316245 0
M  V30 2253 H 222.307 -1.31354 1.3935 0
M  V30 2254 H 220.612 -3.84304 0.762753 0
M  V30 2255 H 222.309 -3.84034 1.15408 0
M  V30 2256 H 218.899 -3.45579 2.53521 0
M  V30 2257 H 223.083 -3.50399 3.51474 0
M  V30 2258 H 218.339 -3.62603 4.92269 0
M  V30 2259 H 222.513 -3.68658 5.90816 0
M  V30 2260 H 220.14 -3.74336 6.61647 0
M  V30 2261 N 221.715 -0.905404 -1.28997 0
M  V30 2262 C 222.645 -0.404212 -2.29975 0
M  V30 2263 C 223.626 0.523784 -1.61835 0
M  V30 2264 O 224.811 0.433298 -1.89304 0
M  V30 2265 C 221.941 0.364042 -3.45387 0
M  V30 2266 C 220.895 -0.474048 -4.25367 0
M  V30 2267 C 220.221 0.422045 -5.33032 0
M  V30 2268 C 221.521 -1.72696 -4.92923 0
M  V30 2269 H 223.215 -1.24807 -2.72146 0
M  V30 2270 H 220.761 -0.601585 -1.30832 0
M  V30 2271 H 222.714 0.725447 -4.15109 0
M  V30 2272 H 221.438 1.24174 -3.02074 0
M  V30 2273 H 220.097 -0.81786 -3.57361 0
M  V30 2274 H 219.745 1.29804 -4.85963 0
M  V30 2275 H 219.445 -0.135057 -5.87445 0
M  V30 2276 H 220.969 0.779517 -6.05604 0
M  V30 2277 H 222.383 -1.43495 -5.55051 0
M  V30 2278 H 220.78 -2.22582 -5.57295 0
M  V30 2279 H 221.85 -2.45964 -4.17887 0
M  V30 2280 N 223.193 1.4272 -0.668489 0
M  V30 2281 C 224.47 1.95248 -0.117373 0
M  V30 2282 C 224.85 1.60919 1.36632 0
M  V30 2283 O 224.198 0.902095 2.09939 0
M  V30 2284 C 224.408 3.46927 -0.379806 0
M  V30 2285 C 225.756 4.23588 -0.292923 0
M  V30 2286 O 226.78 3.5482 -0.313204 0
M  V30 2287 O 225.639 5.46017 -0.229697 0
M  V30 2288 H 222.733 0.827 0.00079152 0
M  V30 2289 H 225.279 1.52581 -0.742783 0
M  V30 2290 H 224.051 3.65096 -1.40786 0
M  V30 2291 H 223.674 3.96627 0.277923 0
M  V30 2292 N 224.671 0.411399 1.52136 0
M  V30 2293 C 225.92 -0.165009 2.01024 0
M  V30 2294 C 226.233 -1.4603 1.30133 0
M  V30 2295 O 227.439 -2.1181 1.69849 0
M  V30 2296 C 225.895 -0.344618 3.58246 0
M  V30 2297 C 225.503 0.938716 4.38055 0
M  V30 2298 C 227.247 -0.876195 4.15359 0
M  V30 2299 C 225.154 0.726172 5.86925 0
M  V30 2300 H 224.084 -0.0654407 0.751155 0
M  V30 2301 H 226.735 0.537192 1.75461 0
M  V30 2302 H 225.117 -1.10921 3.80148 0
M  V30 2303 H 226.291 1.70963 4.27912 0
M  V30 2304 H 224.606 1.39688 3.92271 0
M  V30 2305 H 227.203 -1.05128 5.24263 0
M  V30 2306 H 227.546 -1.85152 3.7286 0
M  V30 2307 H 228.079 -0.170607 3.97434 0
M  V30 2308 H 224.818 1.67312 6.33788 0
M  V30 2309 H 224.338 -0.00540283 5.998 0
M  V30 2310 H 226.017 0.369231 6.45946 0
M  V30 2311 N 226.149 -1.5696 0.141893 0
M  V30 2312 C 227.082 -2.12271 -0.837627 0
M  V30 2313 C 228.06 -1.04495 -1.24578 0
M  V30 2314 O 229.244 -1.32293 -1.34278 0
M  V30 2315 C 226.371 -2.63822 -2.12404 0
M  V30 2316 C 225.417 -3.83698 -1.86221 0
M  V30 2317 S 226.25 -5.24948 -1.05781 0
M  V30 2318 C 227.406 -5.79884 -2.35552 0
M  V30 2319 H 227.639 -2.95023 -0.367249 0
M  V30 2320 H 225.172 -1.54231 -0.0723014 0
M  V30 2321 H 227.13 -2.94175 -2.86307 0
M  V30 2322 H 225.791 -1.8121 -2.56557 0
M  V30 2323 H 224.984 -4.17995 -2.81596 0
M  V30 2324 H 224.586 -3.5408 -1.20429 0
M  V30 2325 H 226.878 -5.91005 -3.31239 0
M  V30 2326 H 227.821 -6.77544 -2.05767 0
M  V30 2327 H 228.229 -5.08095 -2.45967 0
M  V30 2328 N 227.627 0.131896 -1.57047 0
M  V30 2329 C 228.875 0.840269 -1.83804 0
M  V30 2330 C 229.196 1.81017 -0.72512 0
M  V30 2331 O 228.466 1.94272 0.251995 0
M  V30 2332 H 227.046 0.313294 -0.678127 0
M  V30 2333 H 229.708 0.122294 -1.94516 0
M  V30 2334 H 228.804 1.39335 -2.79271 0
M  V30 2335 N 229.106 1.52395 0.401703 0
M  V30 2336 C 230.038 1.72505 1.50912 0
M  V30 2337 C 231.051 0.605468 1.51122 0
M  V30 2338 O 232.24 0.880828 1.55254 0
M  V30 2339 C 229.34 1.75711 2.89791 0
M  V30 2340 C 228.513 3.04824 3.1369 0
M  V30 2341 C 227.572 2.99743 4.32482 0
M  V30 2342 O 226.598 3.73635 4.29402 0
M  V30 2343 N 227.8 2.18047 5.37992 0
M  V30 2344 H 230.565 2.68049 1.34052 0
M  V30 2345 H 228.126 1.50724 0.591084 0
M  V30 2346 H 230.118 1.69834 3.6734 0
M  V30 2347 H 228.688 0.876092 3.00072 0
M  V30 2348 H 227.908 3.2429 2.24119 0
M  V30 2349 H 229.196 3.90221 3.26504 0
M  V30 2350 H 228.594 1.57456 5.43345 0
M  V30 2351 H 227.151 2.18021 6.14256 0
M  V30 2352 N 230.584 -0.659388 1.43143 0
M  V30 2353 C 231.995 -1.24041 1.39537 0
M  V30 2354 C 232.346 -1.95963 0.0963364 0
M  V30 2355 O 231.471 -2.00892 -0.804438 0
M  V30 2356 C 232.066 -2.25601 2.52764 0
M  V30 2357 C 230.625 -2.79195 2.52443 0
M  V30 2358 C 229.772 -1.53743 2.30778 0
M  V30 2359 H 232.723 -0.451792 1.52133 0
M  V30 2360 H 232.744 -3.07651 2.23899 0
M  V30 2361 H 232.256 -1.73226 3.47296 0
M  V30 2362 H 230.357 -3.35649 1.61773 0
M  V30 2363 H 230.47 -3.2716 3.50004 0
M  V30 2364 H 228.834 -1.80869 1.79328 0
M  V30 2365 H 229.617 -1.03312 3.27386 0
M  V30 2366 N 232.062 -1.29571 -0.897171 0
M  V30 2367 C 233.311 -1.1706 -1.64256 0
M  V30 2368 C 233.624 0.276476 -1.93636 0
M  V30 2369 O 234.83 0.52294 -2.66416 0
M  V30 2370 C 233.286 -2.0475 -2.95982 0
M  V30 2371 C 232.894 -3.54295 -2.74187 0
M  V30 2372 C 234.638 -2.0097 -3.73914 0
M  V30 2373 C 232.545 -4.34081 -4.01656 0
M  V30 2374 H 231.475 -0.43452 -0.616205 0
M  V30 2375 H 234.126 -1.54229 -0.994268 0
M  V30 2376 H 232.508 -1.60452 -3.62038 0
M  V30 2377 H 233.682 -4.06662 -2.1671 0
M  V30 2378 H 231.997 -3.59773 -2.09648 0
M  V30 2379 H 234.594 -2.57838 -4.68427 0
M  V30 2380 H 234.937 -0.990273 -4.0435 0
M  V30 2381 H 235.47 -2.43325 -3.14703 0
M  V30 2382 H 232.209 -5.36671 -3.76384 0
M  V30 2383 H 231.729 -3.86483 -4.58684 0
M  V30 2384 H 233.408 -4.44877 -4.69781 0
M  V30 2385 N 233.54 1.10788 -1.12088 0
M  V30 2386 C 234.488 2.19111 -0.780587 0
M  V30 2387 C 235.482 1.67818 0.230961 0
M  V30 2388 O 236.688 1.79777 0.0895427 0
M  V30 2389 H 233.063 0.714477 -0.234578 0
M  V30 2390 H 235.034 2.45055 -1.70266 0
M  V30 2391 C 233.783 3.46818 -0.24747 0
M  V30 2392 H 233.106 3.86646 -1.01712 0
M  V30 2393 H 234.546 4.23973 -0.0476291 0
M  V30 2394 C 233.005 3.20968 1.02378 0
M  V30 2395 O 233.535 3.42298 2.10226 0
M  V30 2396 N 231.741 2.74658 0.949271 0
M  V30 2397 H 231.288 2.57501 0.0715173 0
M  V30 2398 H 231.246 2.57739 1.80049 0
M  V30 2399 N 235.018 0.912232 1.28515 0
M  V30 2400 C 236.429 0.591352 1.77087 0
M  V30 2401 C 236.78 -0.8933 1.74684 0
M  V30 2402 O 235.905 -1.69876 1.34056 0
M  V30 2403 C 236.5 1.06668 3.2157 0
M  V30 2404 C 235.059 0.79675 3.67871 0
M  V30 2405 C 234.206 1.23427 2.48316 0
M  V30 2406 H 237.157 1.09365 1.15 0
M  V30 2407 H 237.178 0.407455 3.78312 0
M  V30 2408 H 236.69 2.14726 3.23287 0
M  V30 2409 H 234.791 -0.270679 3.71616 0
M  V30 2410 H 234.904 1.40343 4.58084 0
M  V30 2411 H 233.268 0.653036 2.46186 0
M  V30 2412 H 234.051 2.32316 2.52753 0
M  V30 2413 N 236.496 -1.42363 0.676048 0
M  V30 2414 C 237.428 -2.29164 -0.0404605 0
M  V30 2415 C 238.441 -1.43747 -0.764245 0
M  V30 2416 O 239.63 -1.67453 -0.618195 0
M  V30 2417 C 236.73 -3.21196 -1.08103 0
M  V30 2418 C 235.903 -4.35273 -0.430812 0
M  V30 2419 C 234.962 -5.08017 -1.37133 0
M  V30 2420 O 233.988 -5.62494 -0.87116 0
M  V30 2421 N 235.19 -5.13647 -2.70456 0
M  V30 2422 H 237.955 -2.91298 0.704667 0
M  V30 2423 H 235.516 -1.53303 0.520559 0
M  V30 2424 H 237.508 -3.66728 -1.71152 0
M  V30 2425 H 236.078 -2.60505 -1.72788 0
M  V30 2426 H 235.298 -3.92372 0.379209 0
M  V30 2427 H 236.586 -5.08795 0.0221132 0
M  V30 2428 H 235.984 -4.708 -3.1363 0
M  V30 2429 H 234.541 -5.62821 -3.28749 0
M  V30 2430 N 237.974 -0.419461 -1.51915 0
M  V30 2431 C 239.214 0.152336 -2.03832 0
M  V30 2432 C 239.578 1.41501 -1.29775 0
M  V30 2433 O 240.779 2.06591 -1.7197 0
M  V30 2434 C 239.05 0.383812 -3.55333 0
M  V30 2435 S 240.609 0.921577 -4.29013 0
M  V30 2436 H 237.427 0.0402193 -0.709862 0
M  V30 2437 H 240.029 -0.574758 -1.8686 0
M  V30 2438 H 238.733 -0.541794 -4.06808 0
M  V30 2439 H 238.264 1.13849 -3.76566 0
M  V30 2440 H 240.279 2.20108 -4.4471 0
M  V30 2441 N 239.452 1.56882 -0.150215 0
M  V30 2442 C 240.868 1.58263 0.20617 0
M  V30 2443 C 241.068 1.16464 1.64434 0
M  V30 2444 O 240.124 0.866422 2.3717 0
M  V30 2445 C 241.437 3.00649 -0.0555025 0
M  V30 2446 C 242.985 3.12999 0.00795388 0
M  V30 2447 C 243.46 4.5744 -0.226429 0
M  V30 2448 N 244.951 4.62875 -0.173469 0
M  V30 2449 C 245.686 5.72454 -0.329288 0
M  V30 2450 N 245.182 6.90669 -0.543005 0
M  V30 2451 N 246.975 5.61467 -0.266666 0
M  V30 2452 H 239.126 1.82345 -1.08922 0
M  V30 2453 H 241.389 0.844149 -0.431413 0
M  V30 2454 H 241.095 3.3563 -1.05096 0
M  V30 2455 H 240.969 3.71337 0.66246 0
M  V30 2456 H 243.356 2.77857 0.993966 0
M  V30 2457 H 243.437 2.4479 -0.742388 0
M  V30 2458 H 243.081 4.93287 -1.20956 0
M  V30 2459 H 243.011 5.2378 0.544274 0
M  V30 2460 H 245.502 3.77898 -0.0130709 0
M  V30 2461 H 245.815 7.70045 -0.651922 0
M  V30 2462 H 244.16 6.92581 -0.579366 0
M  V30 2463 H 247.351 4.67992 -0.100441 0
M  V30 2464 H 247.524 6.46816 -0.391535 0
M  V30 2465 N 240.93 -0.123565 1.57115 0
M  V30 2466 C 242.179 -0.830704 1.83799 0
M  V30 2467 C 242.492 -1.81259 0.735158 0
M  V30 2468 O 243.698 -2.56558 0.888278 0
M  V30 2469 C 242.154 -1.52802 3.25852 0
M  V30 2470 C 241.762 -0.587356 4.44133 0
M  V30 2471 C 243.506 -2.22056 3.61789 0
M  V30 2472 C 241.413 -1.28764 5.77212 0
M  V30 2473 H 240.343 -0.313967 0.685522 0
M  V30 2474 H 242.994 -0.0834359 1.8331 0
M  V30 2475 H 241.376 -2.32175 3.20797 0
M  V30 2476 H 242.55 0.172829 4.60476 0
M  V30 2477 H 240.865 -0.00201892 4.164 0
M  V30 2478 H 243.462 -2.75131 4.58483 0
M  V30 2479 H 243.805 -2.99644 2.88997 0
M  V30 2480 H 244.338 -1.49576 3.68608 0
M  V30 2481 H 241.077 -0.55314 6.53162 0
M  V30 2482 H 240.597 -2.01995 5.64764 0
M  V30 2483 H 242.276 -1.8221 6.20813 0
M  V30 2484 N 242.408 -1.52605 -0.393616 0
M  V30 2485 C 243.638 -1.71046 -1.15874 0
M  V30 2486 C 244.046 -0.426483 -1.84331 0
M  V30 2487 O 243.389 0.608513 -1.73329 0
M  V30 2488 C 243.451 -2.80118 -2.25332 0
M  V30 2489 C 243.115 -4.21381 -1.76881 0
M  V30 2490 C 244.112 -5.04697 -1.24808 0
M  V30 2491 C 241.797 -4.67683 -1.83244 0
M  V30 2492 C 243.791 -6.32393 -0.797387 0
M  V30 2493 C 241.478 -5.95364 -1.37787 0
M  V30 2494 C 242.476 -6.77549 -0.861208 0
M  V30 2495 O 242.164 -8.02837 -0.413252 0
M  V30 2496 H 241.896 -0.576155 -0.353583 0
M  V30 2497 H 244.45 -2.00018 -0.467123 0
M  V30 2498 H 242.68 -2.46557 -2.97904 0
M  V30 2499 H 244.369 -2.87006 -2.87023 0
M  V30 2500 H 245.135 -4.70111 -1.19252 0
M  V30 2501 H 241.014 -4.03805 -2.22401 0
M  V30 2502 H 244.558 -6.9649 -0.393437 0
M  V30 2503 H 240.455 -6.29455 -1.43026 0
M  V30 2504 H 241.223 -8.16749 -0.53515 0
M  V30 2505 N 243.887 0.651787 -1.4349 0
M  V30 2506 C 245.298 1.233 -1.40193 0
M  V30 2507 C 245.649 1.9591 -0.106727 0
M  V30 2508 O 244.774 2.01316 0.793773 0
M  V30 2509 C 245.369 2.24257 -2.53957 0
M  V30 2510 C 243.928 2.77852 -2.5392 0
M  V30 2511 C 243.075 1.52517 -2.3159 0
M  V30 2512 H 246.026 0.443717 -1.52371 0
M  V30 2513 H 246.047 3.0646 -2.25528 0
M  V30 2514 H 245.559 1.71382 -3.4821 0
M  V30 2515 H 243.66 3.34786 -1.63551 0
M  V30 2516 H 243.773 3.25299 -3.51735 0
M  V30 2517 H 242.137 1.79915 -1.80285 0
M  V30 2518 H 242.92 1.01574 -3.27929 0
M  V30 2519 N 245.365 1.30045 0.890287 0
M  V30 2520 C 246.275 1.17885 2.02831 0
M  V30 2521 C 247.291 0.0999609 1.73713 0
M  V30 2522 O 248.467 0.313867 1.98939 0
M  V30 2523 C 245.532 0.866079 3.35708 0
M  V30 2524 C 244.593 2.02979 3.78283 0
M  V30 2525 C 243.826 1.73184 5.0482 0
M  V30 2526 O 244.049 0.657237 5.66601 0
M  V30 2527 O 242.983 2.58267 5.43674 0
M  V30 2528 H 246.809 2.13474 2.16015 0
M  V30 2529 H 244.394 1.09587 1.01543 0
M  V30 2530 H 246.276 0.706623 4.15433 0
M  V30 2531 H 244.951 -0.0599443 3.23644 0
M  V30 2532 H 243.858 2.24454 2.99285 0
M  V30 2533 H 245.191 2.93734 3.94944 0
M  V30 2534 N 246.843 -1.10192 1.12674 0
M  V30 2535 C 247.753 -2.20172 0.810026 0
M  V30 2536 C 248.769 -1.72821 -0.202188 0
M  V30 2537 O 249.945 -2.01369 -0.0351691 0
M  V30 2538 C 247.01 -3.45631 0.272007 0
M  V30 2539 C 246.071 -4.07704 1.34447 0
M  V30 2540 C 245.304 -5.27175 0.832029 0
M  V30 2541 O 245.527 -5.69425 -0.333284 0
M  V30 2542 O 244.461 -5.80168 1.60277 0
M  V30 2543 H 248.287 -2.49701 1.72867 0
M  V30 2544 H 245.872 -1.18977 0.903597 0
M  V30 2545 H 247.754 -4.21394 -0.0230219 0
M  V30 2546 H 246.429 -3.17723 -0.619164 0
M  V30 2547 H 245.336 -3.33614 1.6927 0
M  V30 2548 H 246.669 -4.3982 2.2095 0
M  V30 2549 N 248.321 -0.919034 -1.28029 0
M  V30 2550 C 249.254 -0.355887 -2.25408 0
M  V30 2551 C 250.232 0.542874 -1.5327 0
M  V30 2552 O 251.416 0.485338 -1.82145 0
M  V30 2553 C 248.543 0.490759 -3.35126 0
M  V30 2554 C 247.589 -0.343358 -4.25116 0
M  V30 2555 S 248.422 -1.75344 -5.05979 0
M  V30 2556 C 249.578 -0.914244 -6.19187 0
M  V30 2557 H 249.811 -1.18123 -2.72826 0
M  V30 2558 H 247.344 -0.720636 -1.36551 0
M  V30 2559 H 249.302 0.973404 -3.98792 0
M  V30 2560 H 247.963 1.29054 -2.86363 0
M  V30 2561 H 247.156 0.304266 -5.03081 0
M  V30 2562 H 246.758 -0.759851 -3.662 0
M  V30 2563 H 249.05 -0.146282 -6.77342 0
M  V30 2564 H 249.993 -1.66661 -6.88208 0
M  V30 2565 H 250.401 -0.460082 -5.62622 0
M  V30 2566 N 249.799 1.42003 -0.683588 0
M  V30 2567 C 251.048 2.00638 -0.206681 0
M  V30 2568 C 251.361 1.5472 1.19671 0
M  V30 2569 O 252.567 2.05833 1.77045 0
M  V30 2570 C 251.023 3.58487 -0.318632 0
M  V30 2571 C 250.631 4.1339 -1.72663 0
M  V30 2572 C 252.375 4.24384 0.0991141 0
M  V30 2573 C 250.282 5.63633 -1.79087 0
M  V30 2574 H 249.212 0.750408 -0.0735107 0
M  V30 2575 H 251.863 1.62624 -0.850048 0
M  V30 2576 H 250.245 3.94047 0.392781 0
M  V30 2577 H 251.419 3.89273 -2.46583 0
M  V30 2578 H 249.734 3.59976 -2.09299 0
M  V30 2579 H 252.331 5.34652 0.0713833 0
M  V30 2580 H 252.674 4.00505 1.13586 0
M  V30 2581 H 253.207 3.93816 -0.561599 0
M  V30 2582 H 249.946 5.92323 -2.80774 0
M  V30 2583 H 249.466 5.89714 -1.09535 0
M  V30 2584 H 251.145 6.28201 -1.5483 0
M  V30 2585 N 251.277 0.427512 1.51691 0
M  V30 2586 C 252.209 -0.424521 2.25234 0
M  V30 2587 C 253.222 -0.994671 1.2888 0
M  V30 2588 O 254.411 -0.890483 1.54702 0
M  V30 2589 C 251.511 -1.60479 2.98496 0
M  V30 2590 C 250.684 -1.15527 4.21868 0
M  V30 2591 C 249.743 -2.20454 4.77793 0
M  V30 2592 O 248.769 -1.8029 5.39893 0
M  V30 2593 N 249.971 -3.52831 4.60967 0
M  V30 2594 H 252.736 0.205749 2.98993 0
M  V30 2595 H 250.297 0.255867 1.59865 0
M  V30 2596 H 252.289 -2.30276 3.32799 0
M  V30 2597 H 250.859 -2.14061 2.27809 0
M  V30 2598 H 250.079 -0.284736 3.9317 0
M  V30 2599 H 251.367 -0.832173 5.01949 0
M  V30 2600 H 250.765 -3.88201 4.11481 0
M  V30 2601 H 249.322 -4.18551 4.99658 0
M  V30 2602 N 252.755 -1.56801 0.158532 0
M  V30 2603 C 253.983 -2.00859 -0.496303 0
M  V30 2604 C 254.398 -1.03871 -1.57659 0
M  V30 2605 O 253.755 -0.0375165 -1.82461 0
M  V30 2606 C 253.806 -3.4479 -1.08638 0
M  V30 2607 O 253.527 -4.38072 -0.0492322 0
M  V30 2608 C 255.028 -4.04185 -1.8207 0
M  V30 2609 H 252.248 -0.65864 -0.128199 0
M  V30 2610 H 254.792 -2.02885 0.256506 0
M  V30 2611 H 252.947 -3.43579 -1.78975 0
M  V30 2612 H 253.361 -5.2227 -0.483102 0
M  V30 2613 H 254.835 -5.06857 -2.18633 0
M  V30 2614 H 255.312 -3.45549 -2.71095 0
M  V30 2615 H 255.918 -4.0906 -1.16405 0
M  V30 2616 N 254.233 0.115231 -1.57178 0
M  V30 2617 C 255.481 0.820727 -1.84685 0
M  V30 2618 C 255.802 1.80237 -0.744279 0
M  V30 2619 O 255.072 1.94529 0.231375 0
M  V30 2620 H 253.652 0.306084 -0.681411 0
M  V30 2621 H 256.314 0.101656 -1.94635 0
M  V30 2622 H 255.41 1.36366 -2.80733 0
M  V30 2623 N 255.711 1.52812 0.385517 0
M  V30 2624 C 256.96 1.67249 1.12741 0
M  V30 2625 C 257.273 0.4205 1.91027 0
M  V30 2626 O 258.479 0.445064 2.67827 0
M  V30 2627 C 256.935 2.95583 2.05326 0
M  V30 2628 C 256.543 4.27974 1.32447 0
M  V30 2629 C 258.287 3.19386 2.7963 0
M  V30 2630 C 256.194 5.47412 2.23818 0
M  V30 2631 H 255.124 0.6231 0.424573 0
M  V30 2632 H 257.775 1.79309 0.389924 0
M  V30 2633 H 256.157 2.77277 2.82725 0
M  V30 2634 H 257.331 4.56844 0.602495 0
M  V30 2635 H 255.646 4.10459 0.700885 0
M  V30 2636 H 258.243 4.05801 3.48181 0
M  V30 2637 H 258.586 2.34604 3.43899 0
M  V30 2638 H 259.119 3.38274 2.09322 0
M  V30 2639 H 255.858 6.34612 1.64157 0
M  V30 2640 H 255.378 5.22849 2.93921 0
M  V30 2641 H 257.057 5.81423 2.83824 0
M  V30 2642 N 257.189 -0.644168 1.43834 0
M  V30 2643 C 258.414 -1.43642 1.49605 0
M  V30 2644 C 258.839 -1.8773 0.117913 0
M  V30 2645 O 258.197 -1.57938 -0.890239 0
M  V30 2646 C 258.245 -2.6416 2.45463 0
M  V30 2647 O 257.349 -3.63538 1.94714 0
M  V30 2648 H 256.69 -0.430329 0.50568 0
M  V30 2649 H 259.22 -0.787448 1.8884 0
M  V30 2650 H 259.23 -3.11864 2.63068 0
M  V30 2651 H 257.905 -2.31414 3.45572 0
M  V30 2652 H 256.482 -3.2273 1.86814 0
M  V30 2653 N 258.668 -1.30515 -0.883378 0
M  V30 2654 C 259.631 -1.1701 -1.97082 0
M  V30 2655 C 260.631 -0.10089 -1.60483 0
M  V30 2656 O 261.821 -0.349127 -1.70666 0
M  V30 2657 C 258.953 -0.793045 -3.31547 0
M  V30 2658 H 260.146 -2.13622 -2.10489 0
M  V30 2659 H 257.699 -1.13935 -1.06998 0
M  V30 2660 H 258.434 0.172499 -3.23841 0
M  V30 2661 H 258.219 -1.56576 -3.5948 0
M  V30 2662 H 259.709 -0.722073 -4.1131 0
M  V30 2663 N 260.146 1.09593 -1.13257 0
M  V30 2664 C 261.395 1.81105 -0.887917 0
M  V30 2665 C 261.708 1.86563 0.587672 0
M  V30 2666 O 262.914 2.54367 0.949204 0
M  V30 2667 C 261.37 3.25338 -1.53895 0
M  V30 2668 C 260.978 3.28151 -3.04994 0
M  V30 2669 C 262.722 4.01617 -1.37492 0
M  V30 2670 C 260.629 4.66897 -3.6299 0
M  V30 2671 H 259.559 0.678661 -0.328534 0
M  V30 2672 H 262.21 1.23183 -1.36008 0
M  V30 2673 H 260.592 3.8331 -0.994446 0
M  V30 2674 H 261.766 2.79953 -3.66009 0
M  V30 2675 H 260.081 2.65361 -3.20893 0
M  V30 2676 H 262.678 5.04119 -1.78235 0
M  V30 2677 H 263.021 4.15072 -0.31957 0
M  V30 2678 H 263.554 3.50082 -1.88912 0
M  V30 2679 H 260.293 4.58643 -4.68323 0
M  V30 2680 H 259.813 5.15426 -3.06752 0
M  V30 2681 H 261.492 5.3587 -3.62563 0
M  V30 2682 N 261.624 0.925811 1.2754 0
M  V30 2683 C 262.901 0.483726 1.89524 0
M  V30 2684 C 263.281 -1.03809 1.83812 0
M  V30 2685 O 262.629 -1.89143 1.28207 0
M  V30 2686 C 262.839 1.02769 3.33526 0
M  V30 2687 C 264.187 1.08703 4.10449 0
M  V30 2688 O 265.211 0.977175 3.42534 0
M  V30 2689 O 264.07 1.25599 5.31871 0
M  V30 2690 H 261.164 0.15529 0.812289 0
M  V30 2691 H 263.71 1.01738 1.35822 0
M  V30 2692 H 262.482 2.07155 3.31967 0
M  V30 2693 H 262.105 0.475567 3.94746 0
M  V30 2694 N 263.102 -1.41638 0.69111 0
M  V30 2695 C 264.35 -2.00902 0.219758 0
M  V30 2696 C 264.671 -1.54994 -1.18329 0
M  V30 2697 O 263.941 -0.778628 -1.79762 0
M  V30 2698 H 262.521 -0.74289 0.0782558 0
M  V30 2699 H 265.183 -1.73327 0.891271 0
M  V30 2700 H 264.279 -3.11224 0.233708 0
M  V30 2701 N 264.58 -0.43555 -1.51462 0
M  V30 2702 C 265.513 0.421989 -2.24264 0
M  V30 2703 C 266.491 1.02619 -1.26127 0
M  V30 2704 O 267.675 1.069 -1.55257 0
M  V30 2705 C 264.802 1.588 -2.99166 0
M  V30 2706 C 263.848 1.10465 -4.11946 0
M  V30 2707 S 264.681 0.048146 -5.35478 0
M  V30 2708 C 265.837 1.21887 -6.13917 0
M  V30 2709 H 266.07 -0.196102 -2.96653 0
M  V30 2710 H 263.603 -0.220054 -1.52824 0
M  V30 2711 H 265.561 2.25647 -3.42919 0
M  V30 2712 H 264.222 2.1775 -2.26371 0
M  V30 2713 H 263.415 1.97654 -4.63626 0
M  V30 2714 H 263.017 0.51445 -3.70445 0
M  V30 2715 H 265.309 2.13756 -6.42895 0
M  V30 2716 H 266.252 0.742076 -7.04201 0
M  V30 2717 H 266.66 1.45663 -5.45383 0
M  V30 2718 N 266.058 1.56714 -0.166846 0
M  V30 2719 C 267.006 2.19056 0.782123 0
M  V30 2720 C 268 1.15328 1.24079 0
M  V30 2721 O 269.206 1.33537 1.20697 0
M  V30 2722 H 265.581 0.70167 0.270486 0
M  V30 2723 H 267.552 2.97494 0.232322 0
M  V30 2724 C 266.301 2.84206 2.00306 0
M  V30 2725 H 265.624 3.63748 1.65914 0
M  V30 2726 H 267.064 3.31302 2.64604 0
M  V30 2727 C 265.523 1.83744 2.82382 0
M  V30 2728 O 266.053 1.32014 3.79388 0
M  V30 2729 N 264.259 1.52601 2.47308 0
M  V30 2730 H 263.806 1.9486 1.68485 0
M  V30 2731 H 263.764 0.856351 3.02513 0
M  V30 2732 N 267.536 -0.106894 1.57237 0
M  V30 2733 C 268.761 -0.830287 1.90055 0
M  V30 2734 C 269.186 -1.72064 0.75998 0
M  V30 2735 O 268.544 -1.78982 -0.288991 0
M  V30 2736 C 268.592 -1.6295 3.21683 0
M  V30 2737 O 267.696 -2.73748 3.08441 0
M  V30 2738 H 267.037 -0.228855 0.623315 0
M  V30 2739 H 269.567 -0.085658 2.04421 0
M  V30 2740 H 269.577 -2.01621 3.54701 0
M  V30 2741 H 268.252 -0.975989 4.04286 0
M  V30 2742 H 266.829 -2.38192 2.86913 0
M  V30 2743 N 269.014 -1.53014 -0.377408 0
M  V30 2744 C 270.263 -1.67845 -1.11853 0
M  V30 2745 C 270.576 -0.430625 -1.90801 0
M  V30 2746 O 271.782 -0.459261 -2.67587 0
M  V30 2747 C 270.238 -2.96668 -2.03756 0
M  V30 2748 C 269.846 -4.28671 -1.30175 0
M  V30 2749 C 271.59 -3.20865 -2.77932 0
M  V30 2750 C 269.497 -5.48591 -2.20911 0
M  V30 2751 H 268.427 -0.625343 -0.421263 0
M  V30 2752 H 271.078 -1.79514 -0.380409 0
M  V30 2753 H 269.46 -2.78773 -2.8125 0
M  V30 2754 H 270.634 -4.57157 -0.578259 0
M  V30 2755 H 268.949 -4.10825 -0.679108 0
M  V30 2756 H 271.546 -4.07642 -3.46024 0
M  V30 2757 H 271.889 -2.36424 -3.4265 0
M  V30 2758 H 272.422 -3.39379 -2.07525 0
M  V30 2759 H 269.161 -6.35474 -1.6079 0
M  V30 2760 H 268.681 -5.244 -2.91144 0
M  V30 2761 H 270.36 -5.8292 -2.80736 0
M  V30 2762 N 270.492 0.636531 -1.44174 0
M  V30 2763 C 271.455 1.73063 -1.50273 0
M  V30 2764 C 272.455 1.56113 -0.385397 0
M  V30 2765 O 273.645 1.61707 -0.64781 0
M  V30 2766 C 270.777 3.12096 -1.37145 0
M  V30 2767 H 271.97 1.69031 -2.47727 0
M  V30 2768 H 269.523 0.849706 -1.31186 0
M  V30 2769 H 270.258 3.21728 -0.407636 0
M  V30 2770 H 270.043 3.25805 -2.18159 0
M  V30 2771 H 271.533 3.91846 -1.44382 0
M  V30 2772 N 271.97 1.30982 0.876444 0
M  V30 2773 C 273.386 1.09498 1.16113 0
M  V30 2774 C 273.586 -0.13875 2.01022 0
M  V30 2775 O 272.642 -0.829935 2.38471 0
M  V30 2776 C 273.955 2.36308 1.85954 0
M  V30 2777 C 275.503 2.41856 1.98683 0
M  V30 2778 C 275.978 3.6853 2.71937 0
M  V30 2779 N 277.469 3.69387 2.79477 0
M  V30 2780 C 278.204 4.64096 3.36753 0
M  V30 2781 N 277.7 5.69155 3.95012 0
M  V30 2782 N 279.493 4.51626 3.3465 0
M  V30 2783 H 271.644 2.10118 0.310494 0
M  V30 2784 H 273.907 0.926634 0.200131 0
M  V30 2785 H 273.613 3.26388 1.31011 0
M  V30 2786 H 273.487 2.4561 2.86278 0
M  V30 2787 H 275.874 1.52249 2.52793 0
M  V30 2788 H 275.955 2.36523 0.9742 0
M  V30 2789 H 275.599 4.58499 2.18496 0
M  V30 2790 H 275.529 3.71127 3.73593 0
M  V30 2791 H 278.02 2.93438 2.38123 0
M  V30 2792 H 278.333 6.3751 4.36808 0
M  V30 2793 H 276.678 5.72937 3.93406 0
M  V30 2794 H 279.869 3.68728 2.8837 0
M  V30 2795 H 280.042 5.25614 3.7899 0
M  V30 2796 N 273.449 -1.08991 1.13837 0
M  V30 2797 C 274.697 -1.80899 0.901098 0
M  V30 2798 C 275.018 -1.86356 -0.574134 0
M  V30 2799 O 274.288 -1.35235 -1.41733 0
M  V30 2800 H 272.868 -0.669966 0.330386 0
M  V30 2801 H 275.53 -1.318 1.43578 0
M  V30 2802 H 274.626 -2.83929 1.29578 0
M  V30 2803 N 274.927 -0.932562 -1.27047 0
M  V30 2804 C 275.859 -0.392734 -2.2581 0
M  V30 2805 C 276.872 0.479241 -1.55586 0
M  V30 2806 O 278.061 0.291078 -1.76111 0
M  V30 2807 C 275.161 0.455456 -3.35826 0
M  V30 2808 C 274.334 -0.398355 -4.35582 0
M  V30 2809 C 273.393 0.387985 -5.24768 0
M  V30 2810 O 272.419 -0.206003 -5.68827 0
M  V30 2811 N 273.621 1.68664 -5.55457 0
M  V30 2812 H 276.386 -1.24173 -2.72766 0
M  V30 2813 H 273.947 -0.800511 -1.40725 0
M  V30 2814 H 275.939 0.988692 -3.92437 0
M  V30 2815 H 274.509 1.20522 -2.88432 0
M  V30 2816 H 273.729 -1.11286 -3.78165 0
M  V30 2817 H 275.017 -0.981889 -4.99236 0
M  V30 2818 H 274.415 2.19147 -5.21528 0
M  V30 2819 H 272.972 2.1663 -6.14748 0
M  V30 2820 N 276.405 1.4127 -0.698611 0
M  V30 2821 C 277.352 2.30773 -0.0352094 0
M  V30 2822 C 278.322 1.47273 0.768111 0
M  V30 2823 O 279.507 1.76053 0.735524 0
M  V30 2824 C 276.647 3.33346 0.893 0
M  V30 2825 C 275.76 4.31924 0.0809695 0
M  V30 2826 C 274.895 5.21566 1.0071 0
M  V30 2827 C 273.934 6.11811 0.188155 0
M  V30 2828 N 273.071 6.93926 1.06825 0
M  V30 2829 H 277.911 2.86943 -0.804207 0
M  V30 2830 H 275.448 1.4132 -0.408294 0
M  V30 2831 H 277.406 3.91368 1.44523 0
M  V30 2832 H 276.036 2.78719 1.62836 0
M  V30 2833 H 275.088 3.75825 -0.588224 0
M  V30 2834 H 276.4 4.95716 -0.553801 0
M  V30 2835 H 275.554 5.84437 1.62845 0
M  V30 2836 H 274.293 4.58008 1.67572 0
M  V30 2837 H 273.298 5.47986 -0.446254 0
M  V30 2838 H 274.523 6.77425 -0.476716 0
M  V30 2839 H 272.469 6.32973 1.72283 0
M  V30 2840 H 272.386 7.54416 0.489123 0
M  V30 2841 H 273.654 7.61262 1.67632 0
M  V30 2842 N 277.883 0.443576 1.51229 0
M  V30 2843 C 279.132 -0.122332 2.01329 0
M  V30 2844 C 279.445 -1.43237 1.33201 0
M  V30 2845 O 280.651 -2.0816 1.74304 0
M  V30 2846 C 279.107 -0.268551 3.58897 0
M  V30 2847 C 278.715 1.03142 4.35965 0
M  V30 2848 C 280.459 -0.787894 4.17124 0
M  V30 2849 C 278.366 0.850504 5.85252 0
M  V30 2850 H 277.296 -0.0494929 0.752374 0
M  V30 2851 H 279.947 0.574289 1.74282 0
M  V30 2852 H 278.329 -1.02832 3.82415 0
M  V30 2853 H 279.503 1.80001 4.24189 0
M  V30 2854 H 277.818 1.47977 3.89219 0
M  V30 2855 H 280.415 -0.939841 5.26375 0
M  V30 2856 H 280.758 -1.77201 3.76703 0
M  V30 2857 H 281.291 -0.0862669 3.97706 0
M  V30 2858 H 278.03 1.80718 6.30096 0
M  V30 2859 H 277.55 0.121825 5.99676 0
M  V30 2860 H 279.229 0.506163 6.45017 0
M  V30 2861 N 279.361 -1.56624 0.175154 0
M  V30 2862 C 280.772 -1.83561 -0.340916 0
M  V30 2863 C 281.123 -1.09511 -1.62794 0
M  V30 2864 O 280.248 -0.349389 -2.13561 0
M  V30 2865 C 280.843 -3.32979 -0.625313 0
M  V30 2866 C 279.402 -3.60399 -1.08581 0
M  V30 2867 C 278.549 -2.77024 -0.123722 0
M  V30 2868 H 281.5 -1.53593 0.399344 0
M  V30 2869 H 281.521 -3.50666 -1.47694 0
M  V30 2870 H 281.033 -3.86847 0.311575 0
M  V30 2871 H 279.134 -3.11945 -2.03767 0
M  V30 2872 H 279.247 -4.68711 -0.992317 0
M  V30 2873 H 277.611 -2.46993 -0.621821 0
M  V30 2874 H 278.394 -3.33674 0.807256 0
M  V30 2875 N 280.839 0.0985539 -1.57292 0
M  V30 2876 C 282.088 0.801358 -1.85098 0
M  V30 2877 C 282.401 1.80066 -0.763902 0
M  V30 2878 O 283.607 2.55112 -0.928981 0
M  V30 2879 C 282.063 1.47599 -3.28242 0
M  V30 2880 C 281.671 0.516624 -4.45011 0
M  V30 2881 C 283.415 2.16272 -3.65276 0
M  V30 2882 C 281.322 1.19564 -5.79188 0
M  V30 2883 H 280.252 0.303022 -0.69043 0
M  V30 2884 H 282.903 0.0542623 -1.8342 0
M  V30 2885 H 281.285 2.27042 -3.2445 0
M  V30 2886 H 282.459 -0.246065 -4.60143 0
M  V30 2887 H 280.774 -0.064227 -4.1635 0
M  V30 2888 H 283.371 2.67802 -4.62803 0
M  V30 2889 H 283.714 2.95009 -2.93727 0
M  V30 2890 H 284.247 1.43693 -3.70941 0
M  V30 2891 H 280.986 0.449157 -6.53959 0
M  V30 2892 H 280.506 1.92984 -5.67906 0
M  V30 2893 H 282.185 1.7231 -6.23633 0
M  V30 2894 N 282.317 1.53212 0.369288 0
M  V30 2895 C 283.564 1.69215 1.11232 0
M  V30 2896 C 283.892 0.442048 1.8941 0
M  V30 2897 O 283.147 -0.575944 1.87033 0
M  V30 2898 C 283.446 2.89101 2.10132 0
M  V30 2899 C 283.112 4.25758 1.48463 0
M  V30 2900 C 281.774 4.6292 1.31372 0
M  V30 2901 C 284.126 5.10757 1.03811 0
M  V30 2902 C 281.454 5.82722 0.68207 0
M  V30 2903 C 283.806 6.31201 0.420487 0
M  V30 2904 C 282.47 6.67079 0.237038 0
M  V30 2905 H 281.74 0.619201 0.407027 0
M  V30 2906 H 284.387 1.87391 0.394552 0
M  V30 2907 H 282.692 2.65421 2.88199 0
M  V30 2908 H 284.389 2.98676 2.6757 0
M  V30 2909 H 280.979 3.96494 1.62758 0
M  V30 2910 H 285.163 4.82599 1.1581 0
M  V30 2911 H 280.419 6.09113 0.528316 0
M  V30 2912 H 284.593 6.96368 0.0662874 0
M  V30 2913 H 282.22 7.59774 -0.254477 0
M  V30 2914 N 283.795 -0.628877 1.44509 0
M  V30 2915 C 285.02 -1.42048 1.5112 0
M  V30 2916 C 285.445 -1.87594 0.137818 0
M  V30 2917 O 284.803 -1.58873 -0.873437 0
M  V30 2918 C 284.851 -2.61541 2.48251 0
M  V30 2919 O 283.955 -3.61453 1.98559 0
M  V30 2920 H 283.296 -0.424942 0.510216 0
M  V30 2921 H 285.826 -0.767374 1.89664 0
M  V30 2922 H 285.836 -3.09057 2.66361 0
M  V30 2923 H 284.511 -2.27736 3.48007 0
M  V30 2924 H 283.088 -3.20731 1.90227 0
M  V30 2925 N 285.273 -1.31445 -0.869486 0
M  V30 2926 C 286.236 -1.19094 -1.9583 0
M  V30 2927 C 287.236 -0.117906 -1.60367 0
M  V30 2928 O 288.426 -0.367208 -1.70286 0
M  V30 2929 C 285.558 -0.828165 -3.30688 0
M  V30 2930 H 286.751 -2.15842 -2.08212 0
M  V30 2931 H 284.304 -1.15063 -1.05784 0
M  V30 2932 H 285.039 0.138142 -3.24006 0
M  V30 2933 H 284.824 -1.6038 -3.578 0
M  V30 2934 H 286.314 -0.765658 -4.10521 0
M  V30 2935 N 286.751 1.08385 -1.14413 0
M  V30 2936 C 287.714 2.13486 -0.834048 0
M  V30 2937 C 288.714 1.59988 0.161418 0
M  V30 2938 O 289.904 1.74071 -0.0669575 0
M  V30 2939 C 287.036 3.4003 -0.243354 0
M  V30 2940 H 288.229 2.42425 -1.7655 0
M  V30 2941 H 285.782 1.24101 -0.950189 0
M  V30 2942 H 286.517 3.16726 0.696807 0
M  V30 2943 H 286.302 3.80157 -0.960367 0
M  V30 2944 H 287.792 4.17577 -0.0436242 0
M  V30 2945 N 288.23 0.939286 1.26551 0
M  V30 2946 C 289.478 0.58469 1.93457 0
M  V30 2947 C 289.799 -0.878774 1.74076 0
M  V30 2948 O 289.069 -1.62421 1.09528 0
M  V30 2949 H 287.649 0.21325 0.715914 0
M  V30 2950 H 290.311 1.1942 1.54029 0
M  V30 2951 H 289.407 0.800849 3.0165 0
M  V30 2952 N 289.708 -1.40897 0.706093 0
M  V30 2953 C 290.638 -2.33418 0.0620085 0
M  V30 2954 C 291.619 -1.52385 -0.755827 0
M  V30 2955 O 292.804 -1.80886 -0.706674 0
M  V30 2956 C 289.934 -3.36293 -0.867445 0
M  V30 2957 C 288.888 -4.27716 -0.155932 0
M  V30 2958 C 288.214 -5.2105 -1.20046 0
M  V30 2959 C 289.514 -5.12944 0.984149 0
M  V30 2960 H 291.208 -2.87527 0.83477 0
M  V30 2961 H 288.754 -1.38249 0.402875 0
M  V30 2962 H 290.707 -3.99949 -1.32735 0
M  V30 2963 H 289.431 -2.80556 -1.67199 0
M  V30 2964 H 288.09 -3.65498 0.284047 0
M  V30 2965 H 287.738 -4.61624 -1.99781 0
M  V30 2966 H 287.438 -5.83056 -0.729328 0
M  V30 2967 H 288.962 -5.87584 -1.66066 0
M  V30 2968 H 290.376 -5.70109 0.604048 0
M  V30 2969 H 288.773 -5.83945 1.38304 0
M  V30 2970 H 289.843 -4.49485 1.81911 0
M  V30 2971 N 291.186 -0.45159 -1.50991 0
M  V30 2972 C 292.597 0.00818571 -1.86698 0
M  V30 2973 C 292.948 1.40661 -1.3678 0
M  V30 2974 O 292.073 2.0391 -0.724546 0
M  V30 2975 C 292.668 0.0216303 -3.38793 0
M  V30 2976 C 291.227 0.425865 -3.73983 0
M  V30 2977 C 290.374 -0.372163 -2.74791 0
M  V30 2978 H 293.325 -0.666785 -1.44013 0
M  V30 2979 H 293.346 0.828078 -3.7138 0
M  V30 2980 H 292.858 -0.996288 -3.75094 0
M  V30 2981 H 290.959 1.44886 -3.43277 0
M  V30 2982 H 291.072 0.140761 -4.78893 0
M  V30 2983 H 289.436 0.171498 -2.54122 0
M  V30 2984 H 290.219 -1.38922 -3.13935 0
M  V30 2985 N 292.664 1.56529 -0.183458 0
M  V30 2986 C 293.614 2.1515 0.754605 0
M  V30 2987 C 294.598 1.08904 1.18443 0
M  V30 2988 O 295.79 1.34997 1.14476 0
M  V30 2989 C 292.919 2.80531 1.97881 0
M  V30 2990 C 292.005 3.93952 1.57043 0
M  V30 2991 N 292.396 4.98221 0.87231 0
M  V30 2992 C 290.694 4.05338 1.86057 0
M  V30 2993 C 291.395 5.77836 0.669377 0
M  V30 2994 N 290.371 5.29858 1.21454 0
M  V30 2995 H 294.173 2.93132 0.212387 0
M  V30 2996 H 291.687 1.62391 0.0167725 0
M  V30 2997 H 293.684 3.20914 2.6612 0
M  V30 2998 H 292.344 2.04035 2.52586 0
M  V30 2999 H 293.355 5.15191 0.529033 0
M  V30 3000 H 290.032 3.39957 2.42354 0
M  V30 3001 H 291.422 6.71799 0.116422 0
M  V30 3002 N 294.142 -0.090211 1.57342 0
M  V30 3003 C 295.09 -1.12792 2.03422 0
M  V30 3004 C 296.084 -1.41182 0.936166 0
M  V30 3005 O 297.29 -1.40805 1.12133 0
M  V30 3006 H 293.665 -0.380986 0.648347 0
M  V30 3007 H 295.636 -0.71299 2.89757 0
M  V30 3008 C 294.385 -2.43855 2.47851 0
M  V30 3009 H 293.708 -2.22855 3.31927 0
M  V30 3010 H 295.148 -3.14955 2.83865 0
M  V30 3011 C 293.607 -3.08503 1.3538 0
M  V30 3012 O 294.137 -3.95805 0.685641 0
M  V30 3013 N 292.343 -2.68831 1.10355 0
M  V30 3014 H 291.89 -1.97929 1.64869 0
M  V30 3015 H 291.848 -3.12412 0.353031 0
M  V30 3016 N 295.62 -1.53406 -0.361157 0
M  V30 3017 C 296.53 -1.83122 -1.4664 0
M  V30 3018 C 297.546 -0.719943 -1.58407 0
M  V30 3019 O 298.722 -1.01046 -1.74218 0
M  V30 3020 C 295.787 -2.01891 -2.81853 0
M  V30 3021 C 294.848 -3.25784 -2.79577 0
M  V30 3022 C 294.081 -3.43648 -4.0834 0
M  V30 3023 O 294.304 -2.65714 -5.0473 0
M  V30 3024 O 293.238 -4.37018 -4.13883 0
M  V30 3025 H 297.064 -2.7703 -1.24451 0
M  V30 3026 H 294.649 -1.38841 -0.551678 0
M  V30 3027 H 296.531 -2.15782 -3.61962 0
M  V30 3028 H 295.206 -1.11173 -3.0401 0
M  V30 3029 H 294.113 -3.17312 -1.98151 0
M  V30 3030 H 295.446 -4.16439 -2.62373 0
M  V30 3031 N 297.098 0.621204 -1.44841 0
M  V30 3032 C 298.347 1.37658 -1.47422 0
M  V30 3033 C 298.66 1.95264 -0.114629 0
M  V30 3034 O 299.866 2.71494 -0.0180199 0
M  V30 3035 C 298.322 2.49285 -2.59586 0
M  V30 3036 C 297.93 1.98149 -4.01797 0
M  V30 3037 C 299.674 3.26409 -2.71399 0
M  V30 3038 C 297.581 3.07178 -5.05367 0
M  V30 3039 H 296.511 0.517344 -0.548517 0
M  V30 3040 H 299.162 0.667257 -1.70938 0
M  V30 3041 H 297.544 3.22839 -2.29328 0
M  V30 3042 H 298.718 1.31395 -4.41669 0
M  V30 3043 H 297.033 1.33812 -3.94314 0
M  V30 3044 H 299.63 4.07706 -3.45948 0
M  V30 3045 H 299.973 3.76535 -1.77559 0
M  V30 3046 H 300.506 2.5995 -3.01116 0
M  V30 3047 H 297.245 2.61985 -6.00869 0
M  V30 3048 H 296.765 3.72542 -4.70077 0
M  V30 3049 H 298.444 3.71789 -5.29511 0
M  V30 3050 N 298.576 1.31904 0.862503 0
M  V30 3051 C 299.539 1.20131 1.95195 0
M  V30 3052 C 300.539 0.126409 1.60302 0
M  V30 3053 O 301.729 0.376234 1.70089 0
M  V30 3054 C 298.861 0.845691 3.30244 0
M  V30 3055 H 300.054 2.16943 2.07064 0
M  V30 3056 H 297.607 1.15622 1.05172 0
M  V30 3057 H 298.342 -0.120957 3.24074 0
M  V30 3058 H 298.127 1.62276 3.56944 0
M  V30 3059 H 299.617 0.787418 4.10109 0
M  V30 3060 N 300.054 -1.07777 1.14986 0
M  V30 3061 C 301.017 -2.13041 0.845358 0
M  V30 3062 C 302.017 -1.60071 -0.152931 0
M  V30 3063 O 303.207 -1.74033 0.0761879 0
M  V30 3064 C 300.339 -3.39896 0.261383 0
M  V30 3065 H 301.532 -2.41485 1.77834 0
M  V30 3066 H 299.085 -1.23595 0.956757 0
M  V30 3067 H 299.82 -3.17091 -0.68 0
M  V30 3068 H 299.605 -3.79642 0.980514 0
M  V30 3069 H 301.095 -4.17548 0.0657687 0
M  V30 3070 N 301.532 -0.945985 -1.26051 0
M  V30 3071 C 302.464 -0.416662 -2.25381 0
M  V30 3072 C 303.477 0.462712 -1.56086 0
M  V30 3073 O 304.666 0.272383 -1.7641 0
M  V30 3074 C 301.766 0.419812 -3.3629 0
M  V30 3075 C 300.939 -0.444531 -4.35135 0
M  V30 3076 C 299.998 0.332305 -5.2515 0
M  V30 3077 O 299.024 -0.266324 -5.68577 0
M  V30 3078 N 300.226 1.62763 -5.57215 0
M  V30 3079 H 302.991 -1.27059 -2.71433 0
M  V30 3080 H 300.552 -0.815392 -1.39868 0
M  V30 3081 H 302.544 0.947013 -3.93464 0
M  V30 3082 H 301.114 1.17456 -2.89694 0
M  V30 3083 H 300.334 -1.15291 -3.76964 0
M  V30 3084 H 301.622 -1.03478 -4.98166 0
M  V30 3085 H 301.02 2.13603 -5.23823 0
M  V30 3086 H 299.577 2.10097 -6.17011 0
M  V30 3087 N 303.011 1.40521 -0.713556 0
M  V30 3088 C 304.26 2.00155 -0.249192 0
M  V30 3089 C 304.573 1.57224 1.16362 0
M  V30 3090 O 305.779 2.09542 1.72639 0
M  V30 3091 C 304.235 3.5773 -0.3946 0
M  V30 3092 C 303.843 4.09635 -1.81392 0
M  V30 3093 C 305.587 4.24499 0.00907364 0
M  V30 3094 C 303.494 5.59707 -1.91003 0
M  V30 3095 H 302.424 0.74868 -0.0894114 0
M  V30 3096 H 305.075 1.60784 -0.884352 0
M  V30 3097 H 303.457 3.94792 0.30911 0
M  V30 3098 H 304.631 3.83955 -2.54785 0
M  V30 3099 H 302.946 3.55456 -2.16888 0
M  V30 3100 H 305.543 5.34683 -0.0420404 0
M  V30 3101 H 305.886 4.02824 1.05065 0
M  V30 3102 H 306.419 3.92536 -0.645007 0
M  V30 3103 H 303.158 5.86234 -2.93275 0
M  V30 3104 H 302.678 5.87258 -1.22019 0
M  V30 3105 H 304.357 6.24776 -1.6812 0
M  V30 3106 N 304.489 0.459591 1.5075 0
M  V30 3107 C 305.729 -0.09824 2.04164 0
M  V30 3108 C 306.093 -1.3801 1.33481 0
M  V30 3109 O 307.294 -2.01959 1.77387 0
M  V30 3110 C 305.565 -0.289467 3.56226 0
M  V30 3111 S 307.124 -0.807507 4.31306 0
M  V30 3112 H 303.942 -0.0213845 0.710678 0
M  V30 3113 H 306.544 0.624098 1.85271 0
M  V30 3114 H 305.248 0.649461 4.05229 0
M  V30 3115 H 304.779 -1.03825 3.79452 0
M  V30 3116 H 306.794 -2.0824 4.50389 0
M  V30 3117 N 305.967 -1.56429 0.191757 0
M  V30 3118 C 307.383 -1.58754 -0.164137 0
M  V30 3119 C 307.583 -1.20782 -1.61288 0
M  V30 3120 O 306.639 -0.928999 -2.34789 0
M  V30 3121 C 307.952 -3.00396 0.135195 0
M  V30 3122 C 309.5 -3.1291 0.0750351 0
M  V30 3123 C 309.975 -4.56679 0.347632 0
M  V30 3124 N 311.466 -4.62252 0.296131 0
M  V30 3125 C 312.201 -5.71379 0.480948 0
M  V30 3126 N 311.697 -6.88986 0.725933 0
M  V30 3127 N 313.49 -5.60563 0.415435 0
M  V30 3128 H 305.641 -1.79393 1.13718 0
M  V30 3129 H 307.904 -0.832414 0.453643 0
M  V30 3130 H 307.61 -3.32726 1.13958 0
M  V30 3131 H 307.484 -3.72963 -0.563773 0
M  V30 3132 H 309.871 -2.80394 -0.919948 0
M  V30 3133 H 309.952 -2.42736 0.807029 0
M  V30 3134 H 309.596 -4.89907 1.33992 0
M  V30 3135 H 309.526 -5.25039 -0.405212 0
M  V30 3136 H 312.017 -3.7773 0.113259 0
M  V30 3137 H 312.33 -7.68046 0.855857 0
M  V30 3138 H 310.675 -6.90801 0.762788 0
M  V30 3139 H 313.866 -4.67561 0.224486 0
M  V30 3140 H 314.039 -6.45551 0.562889 0
M  V30 3141 N 307.445 0.0818655 -1.57387 0
M  V30 3142 C 308.377 1.12484 -1.997 0
M  V30 3143 C 309.39 1.35564 -0.90146 0
M  V30 3144 O 310.579 1.33982 -1.17945 0
M  V30 3145 C 307.679 2.47778 -2.31213 0
M  V30 3146 C 306.852 2.44793 -3.62485 0
M  V30 3147 C 305.911 3.62117 -3.81782 0
M  V30 3148 O 304.937 3.44005 -4.53486 0
M  V30 3149 N 306.139 4.82094 -3.23367 0
M  V30 3150 H 308.904 0.764585 -2.89783 0
M  V30 3151 H 306.465 0.270664 -1.59621 0
M  V30 3152 H 308.457 3.24891 -2.41304 0
M  V30 3153 H 307.027 2.75843 -1.4707 0
M  V30 3154 H 306.247 1.53134 -3.6324 0
M  V30 3155 H 307.535 2.39889 -4.48699 0
M  V30 3156 H 306.933 4.99713 -2.65148 0
M  V30 3157 H 305.49 5.56753 -3.38923 0
M  V30 3158 N 308.923 1.53595 0.353017 0
M  V30 3159 C 309.886 1.80232 1.41594 0
M  V30 3160 C 310.886 0.673081 1.46035 0
M  V30 3161 O 312.076 0.941335 1.46576 0
M  V30 3162 C 309.208 1.93578 2.80607 0
M  V30 3163 H 310.401 2.75174 1.19244 0
M  V30 3164 H 307.954 1.44864 0.586872 0
M  V30 3165 H 308.689 1.00746 3.08254 0
M  V30 3166 H 308.474 2.75724 2.78781 0
M  V30 3167 H 309.964 2.15735 3.57558 0
M  V30 3168 N 310.401 -0.613514 1.45168 0
M  V30 3169 C 311.649 -1.36997 1.48581 0
M  V30 3170 C 311.97 -1.94589 0.126545 0
M  V30 3171 O 311.24 -1.76816 -0.843372 0
M  V30 3172 H 309.82 -0.508558 0.547154 0
M  V30 3173 H 312.482 -0.720853 1.81079 0
M  V30 3174 H 311.578 -2.1924 2.22127 0
M  V30 3175 N 311.879 -1.3236 -0.855495 0
M  V30 3176 C 312.809 -1.23833 -1.97958 0
M  V30 3177 C 313.79 -0.122361 -1.69659 0
M  V30 3178 O 314.975 -0.30939 -1.9172 0
M  V30 3179 C 312.105 -0.959772 -3.33775 0
M  V30 3180 C 311.059 -2.03689 -3.76424 0
M  V30 3181 C 310.385 -1.61075 -5.09862 0
M  V30 3182 C 311.685 -3.4518 -3.9198 0
M  V30 3183 H 313.379 -2.1788 -2.0535 0
M  V30 3184 H 310.925 -1.04891 -0.986605 0
M  V30 3185 H 312.878 -0.886678 -4.11966 0
M  V30 3186 H 311.602 0.0163404 -3.26596 0
M  V30 3187 H 310.261 -2.10012 -3.00484 0
M  V30 3188 H 309.909 -0.622107 -4.99138 0
M  V30 3189 H 309.609 -2.33143 -5.39368 0
M  V30 3190 H 311.133 -1.55201 -5.90546 0
M  V30 3191 H 312.547 -3.4145 -4.60526 0
M  V30 3192 H 310.944 -4.1559 -4.32903 0
M  V30 3193 H 312.014 -3.84903 -2.94919 0
M  V30 3194 N 313.357 1.07166 -1.15556 0
M  V30 3195 C 314.603 1.80065 -0.932984 0
M  V30 3196 C 314.936 1.86586 0.53845 0
M  V30 3197 O 314.211 1.35098 1.39924 0
M  V30 3198 C 314.494 3.25022 -1.55025 0
M  V30 3199 C 314.347 3.26634 -3.09242 0
M  V30 3200 C 315.666 4.22341 -1.2376 0
M  V30 3201 H 312.785 0.653697 -0.340366 0
M  V30 3202 H 315.427 1.25389 -1.4275 0
M  V30 3203 H 313.577 3.71712 -1.12972 0
M  V30 3204 H 315.249 2.88173 -3.60214 0
M  V30 3205 H 313.492 2.65539 -3.43033 0
M  V30 3206 H 314.163 4.28854 -3.47546 0
M  V30 3207 H 316.639 3.8405 -1.60139 0
M  V30 3208 H 315.515 5.22053 -1.69564 0
M  V30 3209 H 315.776 4.41828 -0.154938 0
M  V30 3210 N 314.835 0.952656 1.25548 0
M  V30 3211 C 315.782 0.47008 2.25962 0
M  V30 3212 C 316.752 -0.476384 1.59122 0
M  V30 3213 O 317.937 -0.39007 1.8677 0
M  V30 3214 C 315.077 -0.247881 3.44209 0
M  V30 3215 C 314.19 0.735591 4.25691 0
M  V30 3216 C 313.325 -0.0047306 5.312 0
M  V30 3217 C 312.364 0.969805 6.04368 0
M  V30 3218 N 311.501 0.260486 7.01617 0
M  V30 3219 H 316.341 1.33126 2.66611 0
M  V30 3220 H 313.878 0.66765 1.31076 0
M  V30 3221 H 315.836 -0.680695 4.1161 0
M  V30 3222 H 314.466 -1.07312 3.0444 0
M  V30 3223 H 313.518 1.28689 3.57971 0
M  V30 3224 H 314.83 1.47934 4.76358 0
M  V30 3225 H 313.984 -0.496275 6.04667 0
M  V30 3226 H 312.723 -0.781282 4.81401 0
M  V30 3227 H 311.728 1.47237 5.29718 0
M  V30 3228 H 312.953 1.74655 6.56256 0
M  V30 3229 H 310.899 -0.497364 6.54112 0
M  V30 3230 H 310.816 0.943362 7.50091 0
M  V30 3231 H 312.084 -0.209587 7.79218 0
M  V30 3232 N 316.313 -1.40141 0.720998 0
M  V30 3233 C 317.26 -2.30688 0.071919 0
M  V30 3234 C 318.23 -1.48476 -0.744584 0
M  V30 3235 O 319.415 -1.77201 -0.707423 0
M  V30 3236 C 316.555 -3.34724 -0.839855 0
M  V30 3237 C 315.668 -4.31998 -0.0122438 0
M  V30 3238 C 314.803 -5.23102 -0.923995 0
M  V30 3239 C 313.842 -6.12033 -0.0907969 0
M  V30 3240 N 312.979 -6.95537 -0.957718 0
M  V30 3241 H 317.819 -2.85628 0.849755 0
M  V30 3242 H 315.356 -1.40653 0.430726 0
M  V30 3243 H 317.314 -3.93618 -1.38279 0
M  V30 3244 H 315.944 -2.81274 -1.58381 0
M  V30 3245 H 314.996 -3.74841 0.64794 0
M  V30 3246 H 316.308 -4.94772 0.632595 0
M  V30 3247 H 315.462 -5.86953 -1.53527 0
M  V30 3248 H 314.201 -4.60615 -1.60264 0
M  V30 3249 H 313.206 -5.47207 0.533377 0
M  V30 3250 H 314.431 -6.76581 0.584428 0
M  V30 3251 H 312.377 -6.35633 -1.62192 0
M  V30 3252 H 312.294 -7.55099 -0.36904 0
M  V30 3253 H 313.562 -7.63832 -1.555 0
M  V30 3254 N 317.792 -0.46758 -1.50504 0
M  V30 3255 C 319.017 0.0886943 -2.0721 0
M  V30 3256 C 319.442 1.33057 -1.32956 0
M  V30 3257 O 318.8 1.77354 -0.376197 0
M  V30 3258 C 318.848 0.359202 -3.58806 0
M  V30 3259 O 317.952 1.44034 -3.8643 0
M  V30 3260 H 317.293 -0.0114349 -0.663902 0
M  V30 3261 H 319.823 -0.657613 -1.93744 0
M  V30 3262 H 319.833 0.600742 -4.03553 0
M  V30 3263 H 318.508 -0.548311 -4.1227 0
M  V30 3264 H 317.085 1.18638 -3.53524 0
M  V30 3265 N 319.27 1.56325 -0.20005 0
M  V30 3266 C 320.217 2.1932 0.718833 0
M  V30 3267 C 321.187 1.14198 1.20615 0
M  V30 3268 O 322.372 1.42469 1.26914 0
M  V30 3269 C 319.512 2.86041 1.93066 0
M  V30 3270 C 318.625 4.05702 1.48425 0
M  V30 3271 C 317.76 4.60266 2.65196 0
M  V30 3272 C 316.799 5.72273 2.17185 0
M  V30 3273 N 315.936 6.21221 3.27152 0
M  V30 3274 H 320.776 2.97486 0.17489 0
M  V30 3275 H 318.313 1.46911 0.0745794 0
M  V30 3276 H 320.271 3.22897 2.64184 0
M  V30 3277 H 318.901 2.1043 2.44783 0
M  V30 3278 H 317.953 3.74475 0.668755 0
M  V30 3279 H 319.265 4.86699 1.09204 0
M  V30 3280 H 318.419 4.99453 3.4443 0
M  V30 3281 H 317.158 3.78386 3.07693 0
M  V30 3282 H 316.163 5.3261 1.36407 0
M  V30 3283 H 317.388 6.55974 1.75713 0
M  V30 3284 H 315.334 5.42263 3.69171 0
M  V30 3285 H 315.251 6.97284 2.92116 0
M  V30 3286 H 316.519 6.65063 4.06585 0
M  V30 3287 N 320.748 -0.0735177 1.57428 0
M  V30 3288 C 322.025 -0.805903 1.78226 0
M  V30 3289 C 322.405 -1.95874 0.787189 0
M  V30 3290 O 321.753 -2.2779 -0.180029 0
M  V30 3291 C 321.963 -1.28045 3.24662 0
M  V30 3292 C 323.311 -1.71453 3.88444 0
M  V30 3293 O 324.335 -1.37616 3.28543 0
M  V30 3294 O 323.194 -2.34093 4.93825 0
M  V30 3295 H 320.288 -0.386041 0.73137 0
M  V30 3296 H 322.834 -0.0537269 1.69615 0
M  V30 3297 H 321.606 -0.455476 3.8864 0
M  V30 3298 H 321.229 -2.094 3.37991 0
M  V30 3299 N 322.226 -1.5378 -0.344866 0
M  V30 3300 C 323.472 -1.71216 -1.08687 0
M  V30 3301 C 323.805 -0.473281 -1.88345 0
M  V30 3302 O 323.08 0.52968 -1.87149 0
M  V30 3303 C 323.363 -2.97486 -2.02914 0
M  V30 3304 C 323.216 -4.31579 -1.26727 0
M  V30 3305 C 324.535 -3.19422 -3.0275 0
M  V30 3306 H 321.654 -0.62301 -0.393735 0
M  V30 3307 H 324.296 -1.8645 -0.365563 0
M  V30 3308 H 322.446 -2.84629 -2.64421 0
M  V30 3309 H 324.118 -4.56284 -0.67845 0
M  V30 3310 H 322.361 -4.30049 -0.569273 0
M  V30 3311 H 323.032 -5.16106 -1.95803 0
M  V30 3312 H 325.508 -3.316 -2.51357 0
M  V30 3313 H 324.384 -4.09169 -3.65885 0
M  V30 3314 H 324.645 -2.35656 -3.74057 0
M  V30 3315 N 323.704 0.605807 -1.45491 0
M  V30 3316 C 324.95 1.36679 -1.49823 0
M  V30 3317 C 325.283 1.93693 -0.140175 0
M  V30 3318 O 324.558 1.75158 0.845581 0
M  V30 3319 C 324.841 2.51337 -2.57879 0
M  V30 3320 C 324.694 1.99508 -4.03134 0
M  V30 3321 C 326.013 3.53463 -2.62205 0
M  V30 3322 H 323.132 0.495617 -0.545466 0
M  V30 3323 H 325.774 0.682732 -1.7731 0
M  V30 3324 H 323.924 3.09691 -2.34571 0
M  V30 3325 H 325.596 1.45789 -4.37656 0
M  V30 3326 H 323.839 1.30496 -4.13707 0
M  V30 3327 H 324.51 2.82169 -4.74431 0
M  V30 3328 H 326.986 3.04953 -2.83095 0
M  V30 3329 H 325.862 4.31178 -3.39672 0
M  V30 3330 H 326.123 4.09197 -1.67363 0
M  V30 3331 N 325.182 1.32811 0.848464 0
M  V30 3332 C 326.459 1.14334 1.58704 0
M  V30 3333 C 326.839 -0.293948 2.09043 0
M  V30 3334 O 326.187 -1.29153 1.88499 0
M  V30 3335 C 326.397 2.17626 2.72837 0
M  V30 3336 C 327.745 2.51282 3.42261 0
M  V30 3337 O 328.769 2.16219 2.83068 0
M  V30 3338 O 327.628 3.11413 4.49093 0
M  V30 3339 H 324.722 0.441601 0.699226 0
M  V30 3340 H 327.268 1.44362 0.892053 0
M  V30 3341 H 326.04 3.14211 2.3321 0
M  V30 3342 H 325.663 1.88628 3.50008 0
M  V30 3343 N 326.66 -1.06551 1.16123 0
M  V30 3344 C 327.89 -1.8274 0.963838 0
M  V30 3345 C 328.298 -1.82712 -0.491228 0
M  V30 3346 O 327.641 -1.24294 -1.35265 0
M  V30 3347 C 327.703 -3.3065 1.41106 0
M  V30 3348 C 327.367 -3.54384 2.88549 0
M  V30 3349 C 328.364 -3.4765 3.86569 0
M  V30 3350 C 326.049 -3.81789 3.26408 0
M  V30 3351 C 328.043 -3.67982 5.2045 0
M  V30 3352 C 325.73 -4.01772 4.60459 0
M  V30 3353 C 326.728 -3.94866 5.57288 0
M  V30 3354 O 326.416 -4.14306 6.88916 0
M  V30 3355 H 326.148 -0.583136 0.341948 0
M  V30 3356 H 328.702 -1.35351 1.54497 0
M  V30 3357 H 326.932 -3.78887 0.773394 0
M  V30 3358 H 328.621 -3.88324 1.1815 0
M  V30 3359 H 329.387 -3.2647 3.58667 0
M  V30 3360 H 325.266 -3.86276 2.51619 0
M  V30 3361 H 328.81 -3.62507 5.96015 0
M  V30 3362 H 324.707 -4.2244 4.88072 0
M  V30 3363 H 325.475 -4.31609 6.95454 0
M  V30 3364 N 328.138 -0.959301 -1.25041 0
M  V30 3365 C 329.363 -0.633507 -1.97488 0
M  V30 3366 C 329.788 0.788555 -1.70773 0
M  V30 3367 O 329.146 1.53394 -0.966431 0
M  V30 3368 C 329.194 -0.904057 -3.49083 0
M  V30 3369 O 328.298 0.0147939 -4.12397 0
M  V30 3370 H 327.639 -0.240368 -0.618966 0
M  V30 3371 H 330.169 -1.28717 -1.59038 0
M  V30 3372 H 330.179 -0.832203 -3.99423 0
M  V30 3373 H 328.854 -1.94048 -3.67856 0
M  V30 3374 H 327.431 -0.109664 -3.72739 0
M  V30 3375 N 329.616 1.39756 -0.72842 0
M  V30 3376 C 330.526 2.34444 -0.0855374 0
M  V30 3377 C 331.542 1.57976 0.729356 0
M  V30 3378 O 332.718 1.90301 0.659346 0
M  V30 3379 C 329.783 3.36965 0.815798 0
M  V30 3380 C 328.844 4.29299 -0.0105996 0
M  V30 3381 C 328.077 5.26923 0.84781 0
M  V30 3382 O 328.3 5.30859 2.08673 0
M  V30 3383 O 327.234 6.01249 0.279969 0
M  V30 3384 H 331.06 2.91065 -0.866892 0
M  V30 3385 H 328.645 1.4117 -0.48902 0
M  V30 3386 H 330.527 3.99804 1.33171 0
M  V30 3387 H 329.202 2.82739 1.57608 0
M  V30 3388 H 328.109 3.69703 -0.571877 0
M  V30 3389 H 329.442 4.86712 -0.73295 0
M  V30 3390 N 331.094 0.475555 1.50254 0
M  V30 3391 C 332.004 -0.321501 2.32387 0
M  V30 3392 C 333.02 -0.991755 1.42969 0
M  V30 3393 O 334.196 -0.978747 1.76018 0
M  V30 3394 C 331.261 -1.38667 3.17762 0
M  V30 3395 C 330.322 -0.732538 4.23004 0
M  V30 3396 C 329.555 -1.74695 5.04299 0
M  V30 3397 O 329.778 -2.97399 4.86734 0
M  V30 3398 O 328.712 -1.31631 5.8733 0
M  V30 3399 H 332.538 0.350071 3.01676 0
M  V30 3400 H 330.123 0.237321 1.47503 0
M  V30 3401 H 332.005 -2.00354 3.70724 0
M  V30 3402 H 330.68 -2.04163 2.51196 0
M  V30 3403 H 329.587 -0.0765902 3.74022 0
M  V30 3404 H 330.92 -0.120452 4.92053 0
M  V30 3405 N 332.573 -1.56217 0.208337 0
M  V30 3406 C 333.521 -2.21053 -0.723769 0
M  V30 3407 C 334.515 -1.18578 -1.20978 0
M  V30 3408 O 335.721 -1.36691 -1.17114 0
M  V30 3409 H 332.096 -0.708595 -0.251788 0
M  V30 3410 H 334.067 -2.98006 -0.153365 0
M  V30 3411 C 332.816 -2.89417 -1.927 0
M  V30 3412 H 332.139 -3.68019 -1.56212 0
M  V30 3413 H 333.579 -3.38201 -2.55727 0
M  V30 3414 C 332.038 -1.91166 -2.77411 0
M  V30 3415 O 332.568 -1.42026 -3.75754 0
M  V30 3416 N 330.774 -1.59105 -2.43175 0
M  V30 3417 H 330.321 -1.99259 -1.63259 0
M  V30 3418 H 330.279 -0.936255 -3.00136 0
M  V30 3419 N 334.051 0.0651679 -1.57465 0
M  V30 3420 C 335.298 0.763063 -1.87573 0
M  V30 3421 C 335.626 1.77242 -0.800961 0
M  V30 3422 O 334.881 1.94651 0.202316 0
M  V30 3423 C 335.18 1.50081 -3.24362 0
M  V30 3424 C 334.846 0.630816 -4.46466 0
M  V30 3425 C 333.508 0.391082 -4.79608 0
M  V30 3426 C 335.86 0.0279465 -5.21193 0
M  V30 3427 C 333.188 -0.460894 -5.84887 0
M  V30 3428 C 335.54 -0.811522 -6.27373 0
M  V30 3429 C 334.204 -1.06106 -6.59013 0
M  V30 3430 H 333.474 0.279224 -0.686378 0
M  V30 3431 H 336.121 0.0236726 -1.91485 0
M  V30 3432 H 334.426 2.31258 -3.16271 0
M  V30 3433 H 336.123 2.04571 -3.44894 0
M  V30 3434 H 332.713 0.8278 -4.2053 0
M  V30 3435 H 336.897 0.200262 -4.95896 0
M  V30 3436 H 332.153 -0.662907 -6.07796 0
M  V30 3437 H 336.327 -1.28537 -6.84435 0
M  V30 3438 H 333.954 -1.723 -7.40417 0
M  V30 3439 N 335.529 1.53961 0.336706 0
M  V30 3440 C 336.492 1.81724 1.39675 0
M  V30 3441 C 337.492 0.688532 1.45313 0
M  V30 3442 O 338.682 0.956829 1.45569 0
M  V30 3443 C 335.814 1.96543 2.78538 0
M  V30 3444 H 337.007 2.76424 1.16318 0
M  V30 3445 H 334.56 1.45478 0.571474 0
M  V30 3446 H 335.295 1.0401 3.07168 0
M  V30 3447 H 335.08 2.78665 2.75841 0
M  V30 3448 H 336.57 2.19516 3.5525 0
M  V30 3449 N 337.007 -0.598083 1.45811 0
M  V30 3450 C 338.256 -1.35295 1.49594 0
M  V30 3451 C 338.569 -1.95057 0.145679 0
M  V30 3452 O 339.775 -2.71431 0.0612099 0
M  V30 3453 C 338.231 -2.45124 2.63519 0
M  V30 3454 C 337.839 -1.91732 4.04899 0
M  V30 3455 C 339.583 -3.2205 2.76558 0
M  V30 3456 C 337.49 -2.991 5.1019 0
M  V30 3457 H 336.42 -0.508552 0.556679 0
M  V30 3458 H 339.071 -0.639977 1.71978 0
M  V30 3459 H 337.453 -3.19149 2.34435 0
M  V30 3460 H 338.627 -1.24352 4.43704 0
M  V30 3461 H 336.942 -1.27522 3.96393 0
M  V30 3462 H 339.539 -4.0215 3.52391 0
M  V30 3463 H 339.882 -3.73663 1.83526 0
M  V30 3464 H 340.415 -2.55127 3.05213 0
M  V30 3465 H 337.154 -2.52393 6.04961 0
M  V30 3466 H 336.674 -3.65017 4.75944 0
M  V30 3467 H 338.353 -3.63318 5.35359 0
M  V30 3468 N 338.485 -1.33259 -0.841409 0
M  V30 3469 C 339.731 -1.24757 -1.59886 0
M  V30 3470 C 340.064 0.186913 -1.93298 0
M  V30 3471 O 339.339 1.12757 -1.5848 0
M  V30 3472 C 339.622 -2.12036 -2.91055 0
M  V30 3473 C 339.475 -3.63929 -2.6434 0
M  V30 3474 C 340.794 -1.9916 -3.92458 0
M  V30 3475 H 337.913 -0.454542 -0.580138 0
M  V30 3476 H 340.555 -1.63335 -0.970647 0
M  V30 3477 H 338.705 -1.79265 -3.44669 0
M  V30 3478 H 340.377 -4.06978 -2.17178 0
M  V30 3479 H 338.62 -3.85935 -1.98082 0
M  V30 3480 H 339.291 -4.20341 -3.57796 0
M  V30 3481 H 341.767 -2.27895 -3.48143 0
M  V30 3482 H 340.643 -2.62484 -4.82072 0
M  V30 3483 H 340.904 -0.963082 -4.31482 0
M  V30 3484 N 339.963 1.05934 -1.16686 0
M  V30 3485 C 341.21 1.788 -0.950622 0
M  V30 3486 C 341.538 1.87384 0.521305 0
M  V30 3487 O 340.793 1.36438 1.40297 0
M  V30 3488 C 341.092 3.23105 -1.52767 0
M  V30 3489 C 340.758 3.34594 -3.02254 0
M  V30 3490 C 339.42 3.37437 -3.43059 0
M  V30 3491 C 341.772 3.36219 -3.98254 0
M  V30 3492 C 339.1 3.39525 -4.78477 0
M  V30 3493 C 341.452 3.39845 -5.33562 0
M  V30 3494 C 340.116 3.40971 -5.73842 0
M  V30 3495 H 339.386 0.654275 -0.347857 0
M  V30 3496 H 342.033 1.24555 -1.45459 0
M  V30 3497 H 340.338 3.80227 -0.94524 0
M  V30 3498 H 342.035 3.7809 -1.336 0
M  V30 3499 H 338.625 3.3309 -2.6972 0
M  V30 3500 H 342.809 3.33231 -3.67792 0
M  V30 3501 H 338.065 3.38703 -5.09009 0
M  V30 3502 H 342.239 3.4005 -6.07733 0
M  V30 3503 H 339.866 3.42342 -6.78753 0
M  V30 3504 N 341.441 0.965919 1.2453 0
M  V30 3505 C 342.404 0.499547 2.2369 0
M  V30 3506 C 343.404 -0.40294 1.5567 0
M  V30 3507 O 344.594 -0.19865 1.73064 0
M  V30 3508 C 341.726 -0.276792 3.39774 0
M  V30 3509 H 342.919 1.37613 2.66463 0
M  V30 3510 H 340.472 0.750324 1.37112 0
M  V30 3511 H 341.207 -1.17055 3.02438 0
M  V30 3512 H 340.992 0.370826 3.90343 0
M  V30 3513 H 342.482 -0.592175 4.1338 0
M  V30 3514 N 342.919 -1.39368 0.735821 0
M  V30 3515 C 343.882 -2.2896 0.104874 0
M  V30 3516 C 344.882 -1.46347 -0.666274 0
M  V30 3517 O 346.072 -1.67014 -0.49517 0
M  V30 3518 C 343.204 -3.29857 -0.860656 0
M  V30 3519 H 344.397 -2.86259 0.894205 0
M  V30 3520 H 341.95 -1.48029 0.501704 0
M  V30 3521 H 342.685 -2.77615 -1.67631 0
M  V30 3522 H 342.47 -3.9087 -0.310327 0
M  V30 3523 H 343.96 -3.96893 -1.29867 0
M  V30 3524 N 344.397 -0.483516 -1.5 0
M  V30 3525 C 345.33 0.350427 -2.25493 0
M  V30 3526 C 346.308 0.985549 -1.29328 0
M  V30 3527 O 347.492 1.01906 -1.58579 0
M  V30 3528 C 344.619 1.49202 -3.04066 0
M  V30 3529 C 343.665 0.973036 -4.15252 0
M  V30 3530 S 344.498 -0.122237 -5.3536 0
M  V30 3531 C 345.654 1.02294 -6.17484 0
M  V30 3532 H 345.887 -0.290381 -2.95878 0
M  V30 3533 H 343.42 -0.268562 -1.52046 0
M  V30 3534 H 345.378 2.14623 -3.49925 0
M  V30 3535 H 344.039 2.10438 -2.33183 0
M  V30 3536 H 343.232 1.82804 -4.69679 0
M  V30 3537 H 342.834 0.396335 -3.71894 0
M  V30 3538 H 345.126 1.93195 -6.49371 0
M  V30 3539 H 346.069 0.517664 -7.06205 0
M  V30 3540 H 346.477 1.28238 -5.49741 0
M  V30 3541 N 345.875 1.56104 -0.216619 0
M  V30 3542 C 347.123 1.97781 0.415593 0
M  V30 3543 C 347.444 1.10536 1.60645 0
M  V30 3544 O 346.714 0.181303 1.95059 0
M  V30 3545 H 345.294 0.730415 0.156534 0
M  V30 3546 H 347.956 1.92445 -0.308366 0
M  V30 3547 H 347.052 3.03072 0.74525 0
M  V30 3548 N 347.353 -0.0568162 1.57498 0
M  V30 3549 C 348.599 -0.75422 1.88253 0
M  V30 3550 C 348.932 -1.76461 0.810865 0
M  V30 3551 O 348.207 -1.93691 -0.177259 0
M  V30 3552 C 348.49 -1.44878 3.2967 0
M  V30 3553 C 348.343 -0.453789 4.47505 0
M  V30 3554 C 349.662 -2.38994 3.69554 0
M  V30 3555 H 346.781 -0.272724 0.684683 0
M  V30 3556 H 349.423 -0.0172113 1.89992 0
M  V30 3557 H 347.573 -2.077 3.28318 0
M  V30 3558 H 349.245 0.170371 4.60985 0
M  V30 3559 H 347.488 0.229552 4.33192 0
M  V30 3560 H 348.159 -0.977699 5.43273 0
M  V30 3561 H 350.635 -1.86239 3.72095 0
M  V30 3562 H 349.511 -2.84587 4.69363 0
M  V30 3563 H 349.772 -3.24461 3.00296 0
M  V30 3564 N 348.832 -1.54138 -0.328536 0
M  V30 3565 C 349.78 -1.83894 -1.42428 0
M  V30 3566 C 350.774 -0.710478 -1.53781 0
M  V30 3567 O 351.98 -0.894062 -1.56226 0
M  V30 3568 H 348.355 -0.582837 -0.475189 0
M  V30 3569 H 350.326 -2.75537 -1.14552 0
M  V30 3570 C 349.075 -2.07866 -2.78724 0
M  V30 3571 H 348.398 -2.94158 -2.7076 0
M  V30 3572 H 349.838 -2.32644 -3.54476 0
M  V30 3573 C 348.297 -0.868689 -3.25508 0
M  V30 3574 O 348.827 -0.0754908 -4.01629 0
M  V30 3575 N 347.033 -0.681711 -2.82491 0
M  V30 3576 H 346.58 -1.32838 -2.20708 0
M  V30 3577 H 346.538 0.126374 -3.14146 0
M  V30 3578 N 350.31 0.590341 -1.46126 0
M  V30 3579 C 351.243 1.71434 -1.50617 0
M  V30 3580 C 352.221 1.58543 -0.360948 0
M  V30 3581 O 353.405 1.79865 -0.563985 0
M  V30 3582 C 350.532 3.09422 -1.37753 0
M  V30 3583 C 349.578 3.40854 -2.5636 0
M  V30 3584 S 350.411 3.33773 -4.18755 0
M  V30 3585 C 351.567 4.74312 -4.08386 0
M  V30 3586 H 351.8 1.67364 -2.45717 0
M  V30 3587 H 349.333 0.76845 -1.33919 0
M  V30 3588 H 351.291 3.8903 -1.31018 0
M  V30 3589 H 349.952 3.10989 -0.440949 0
M  V30 3590 H 349.145 4.41368 -2.43332 0
M  V30 3591 H 348.747 2.68798 -2.60046 0
M  V30 3592 H 351.039 5.64522 -3.74595 0
M  V30 3593 H 351.982 4.92397 -5.08872 0
M  V30 3594 H 352.39 4.50803 -3.3976 0
M  V30 3595 N 351.788 1.33704 0.83433 0
M  V30 3596 C 352.698 1.26382 1.97648 0
M  V30 3597 C 353.714 0.173548 1.73132 0
M  V30 3598 O 354.89 0.397962 1.97429 0
M  V30 3599 C 351.955 1.00769 3.31733 0
M  V30 3600 C 351.016 2.1884 3.69334 0
M  V30 3601 C 350.249 1.9444 4.9702 0
M  V30 3602 O 350.472 0.896961 5.63303 0
M  V30 3603 O 349.406 2.81093 5.32231 0
M  V30 3604 H 353.232 2.22444 2.06767 0
M  V30 3605 H 350.817 1.13795 0.968037 0
M  V30 3606 H 352.699 0.882186 4.12062 0
M  V30 3607 H 351.374 0.0773783 3.23608 0
M  V30 3608 H 350.281 2.36946 2.89495 0
M  V30 3609 H 351.614 3.10221 3.82131 0
M  V30 3610 N 353.266 -1.05314 1.17247 0
M  V30 3611 C 354.494 -1.81971 0.984593 0
M  V30 3612 C 354.909 -1.82929 -0.467166 0
M  V30 3613 O 354.266 -1.25564 -1.32438 0
M  V30 3614 C 354.317 -3.28143 1.51672 0
M  V30 3615 O 354.038 -3.27347 2.91163 0
M  V30 3616 C 355.539 -4.21493 1.37326 0
M  V30 3617 H 352.759 -0.573455 0.348411 0
M  V30 3618 H 355.303 -1.32808 1.55506 0
M  V30 3619 H 353.458 -3.74582 0.988302 0
M  V30 3620 H 353.872 -4.18824 3.15732 0
M  V30 3621 H 355.346 -5.22043 1.79375 0
M  V30 3622 H 355.823 -4.38031 0.320169 0
M  V30 3623 H 356.429 -3.80909 1.89178 0
M  V30 3624 N 354.744 -0.972509 -1.24016 0
M  V30 3625 C 355.707 -0.511403 -2.23422 0
M  V30 3626 C 356.707 0.394679 -1.55881 0
M  V30 3627 O 357.897 0.189469 -1.73167 0
M  V30 3628 C 355.029 0.258769 -3.39916 0
M  V30 3629 H 356.222 -1.39024 -2.6573 0
M  V30 3630 H 353.775 -0.757585 -1.36713 0
M  V30 3631 H 354.51 1.1545 -3.03054 0
M  V30 3632 H 354.295 -0.391522 -3.9014 0
M  V30 3633 H 355.785 0.570244 -4.13688 0
M  V30 3634 N 356.222 1.38976 -0.743202 0
M  V30 3635 C 357.638 1.53984 -0.419664 0
M  V30 3636 C 357.838 1.70837 1.0685 0
M  V30 3637 O 356.894 1.7135 1.8546 0
M  V30 3638 C 358.207 2.75287 -1.20985 0
M  V30 3639 C 359.755 2.89129 -1.19889 0
M  V30 3640 C 360.23 4.13381 -1.97181 0
M  V30 3641 N 361.721 4.20437 -1.94389 0
M  V30 3642 C 362.456 5.15547 -2.50996 0
M  V30 3643 N 361.952 6.16395 -3.16274 0
M  V30 3644 N 363.745 5.07822 -2.40984 0
M  V30 3645 H 355.896 1.26285 -1.7078 0
M  V30 3646 H 358.159 0.612689 -0.723406 0
M  V30 3647 H 357.865 2.69204 -2.26323 0
M  V30 3648 H 357.739 3.68184 -0.819759 0
M  V30 3649 H 360.126 2.947 -0.153606 0
M  V30 3650 H 360.207 1.97272 -1.62841 0
M  V30 3651 H 359.851 4.08572 -3.01714 0
M  V30 3652 H 359.781 5.04298 -1.51629 0
M  V30 3653 H 362.272 3.48205 -1.46839 0
M  V30 3654 H 362.585 6.85443 -3.56915 0
M  V30 3655 H 360.93 6.16758 -3.20367 0
M  V30 3656 H 364.121 4.27973 -1.89622 0
M  V30 3657 H 364.294 5.81767 -2.85397 0
M  V30 3658 N 357.7 0.491464 1.49741 0
M  V30 3659 C 358.947 -0.0564256 2.02421 0
M  V30 3660 C 359.275 -1.37872 1.37192 0
M  V30 3661 O 358.53 -1.89375 0.493508 0
M  V30 3662 C 358.829 -0.267329 3.56399 0
M  V30 3663 C 358.495 0.975775 4.40215 0
M  V30 3664 C 357.157 1.31655 4.62839 0
M  V30 3665 C 359.509 1.80251 4.89039 0
M  V30 3666 C 356.837 2.48375 5.31532 0
M  V30 3667 C 359.189 2.96116 5.59015 0
M  V30 3668 C 357.853 3.30585 5.79888 0
M  V30 3669 H 357.123 -0.0206476 0.740712 0
M  V30 3670 H 359.77 0.649686 1.80143 0
M  V30 3671 H 358.075 -1.05588 3.77304 0
M  V30 3672 H 359.772 -0.705549 3.94744 0
M  V30 3673 H 356.362 0.700315 4.2284 0
M  V30 3674 H 360.546 1.55239 4.71396 0
M  V30 3675 H 355.802 2.7533 5.45897 0
M  V30 3676 H 359.976 3.60509 5.95824 0
M  V30 3677 H 357.603 4.21132 6.32892 0
M  V30 3678 N 359.178 -1.55987 0.224894 0
M  V30 3679 C 360.425 -1.9839 -0.4059 0
M  V30 3680 C 360.753 -1.11261 -1.59535 0
M  V30 3681 O 360.008 -0.158314 -1.95059 0
M  V30 3682 C 360.307 -3.46394 -0.880106 0
M  V30 3683 C 359.973 -4.5046 0.19918 0
M  V30 3684 C 358.635 -4.7864 0.495661 0
M  V30 3685 C 360.987 -5.12855 0.928939 0
M  V30 3686 C 358.315 -5.66497 1.52636 0
M  V30 3687 C 360.667 -6.01828 1.949 0
M  V30 3688 C 359.331 -6.28351 2.25236 0
M  V30 3689 H 358.601 -0.725961 -0.148529 0
M  V30 3690 H 361.248 -1.88668 0.328113 0
M  V30 3691 H 359.553 -3.53337 -1.69294 0
M  V30 3692 H 361.25 -3.76577 -1.37808 0
M  V30 3693 H 357.84 -4.28579 -0.0420526 0
M  V30 3694 H 362.024 -4.9115 0.713129 0
M  V30 3695 H 357.28 -5.8531 1.76698 0
M  V30 3696 H 361.454 -6.49225 2.51951 0
M  V30 3697 H 359.081 -6.96226 3.05244 0
M  V30 3698 N 360.656 0.0484629 -1.57525 0
M  V30 3699 C 361.603 1.05504 -2.05275 0
M  V30 3700 C 362.573 1.37084 -0.937927 0
M  V30 3701 O 363.758 1.47754 -1.2072 0
M  V30 3702 C 360.898 2.35676 -2.52093 0
M  V30 3703 C 360.011 2.10423 -3.77288 0
M  V30 3704 C 359.146 3.34327 -4.12794 0
M  V30 3705 C 358.185 3.04542 -5.30962 0
M  V30 3706 N 357.322 4.20841 -5.61994 0
M  V30 3707 H 362.162 0.640885 -2.91027 0
M  V30 3708 H 359.699 0.304854 -1.43906 0
M  V30 3709 H 361.657 3.11709 -2.77297 0
M  V30 3710 H 360.287 2.7485 -1.69285 0
M  V30 3711 H 359.339 1.24976 -3.59284 0
M  V30 3712 H 360.651 1.84438 -4.63448 0
M  V30 3713 H 359.805 4.1874 -4.39024 0
M  V30 3714 H 358.544 3.63408 -3.25247 0
M  V30 3715 H 357.549 2.18528 -5.04505 0
M  V30 3716 H 358.774 2.76758 -6.20146 0
M  V30 3717 H 356.72 4.4991 -4.77406 0
M  V30 3718 H 356.637 3.98212 -6.42622 0
M  V30 3719 H 357.905 5.06184 -5.92789 0
M  V30 3720 N 362.134 1.5431 0.320358 0
M  V30 3721 C 363.359 1.76954 1.08175 0
M  V30 3722 C 363.784 0.518193 1.80821 0
M  V30 3723 O 363.142 -0.530411 1.73368 0
M  V30 3724 C 363.19 2.96451 2.05303 0
M  V30 3725 O 362.294 2.68221 3.13259 0
M  V30 3726 H 361.635 0.586275 0.311733 0
M  V30 3727 H 364.165 2.01342 0.363676 0
M  V30 3728 H 364.175 3.23887 2.48116 0
M  V30 3729 H 362.85 3.87196 1.51829 0
M  V30 3730 H 361.427 2.51744 2.75099 0
M  V30 3731 N 363.613 -0.582584 1.46437 0
M  V30 3732 C 364.89 -1.34276 1.4223 0
M  V30 3733 C 365.27 -2.10835 0.10583 0
M  V30 3734 O 364.618 -2.09485 -0.912596 0
M  V30 3735 C 364.828 -2.26865 2.65204 0
M  V30 3736 C 366.176 -2.88691 3.11356 0
M  V30 3737 O 367.2 -2.37178 2.65753 0
M  V30 3738 O 366.059 -3.82255 3.90568 0
M  V30 3739 H 363.153 -0.603326 0.565621 0
M  V30 3740 H 365.699 -0.603591 1.58603 0
M  V30 3741 H 364.471 -1.69724 3.52576 0
M  V30 3742 H 364.094 -3.08122 2.5129 0
M  V30 3743 N 365.091 -1.34144 -0.827227 0
M  V30 3744 C 366.338 -1.26258 -1.58319 0
M  V30 3745 C 366.666 0.168595 -1.93768 0
M  V30 3746 O 365.921 1.12877 -1.59866 0
M  V30 3747 C 366.22 -2.09464 -2.89585 0
M  V30 3748 C 365.886 -3.58521 -2.73448 0
M  V30 3749 C 364.548 -3.99155 -2.68754 0
M  V30 3750 C 366.9 -4.53189 -2.57428 0
M  V30 3751 C 364.228 -5.32656 -2.45957 0
M  V30 3752 C 366.58 -5.86864 -2.36163 0
M  V30 3753 C 365.244 -6.26667 -2.29879 0
M  V30 3754 H 364.514 -0.462013 -0.579332 0
M  V30 3755 H 367.161 -1.65845 -0.95748 0
M  V30 3756 H 365.466 -1.62692 -3.56425 0
M  V30 3757 H 367.163 -2.00712 -3.47154 0
M  V30 3758 H 363.753 -3.26264 -2.77939 0
M  V30 3759 H 367.937 -4.22696 -2.60081 0
M  V30 3760 H 363.193 -5.62519 -2.39546 0
M  V30 3761 H 367.367 -6.59813 -2.22754 0
M  V30 3762 H 364.994 -7.30049 -2.11975 0
M  V30 3763 N 366.569 1.04691 -1.17803 0
M  V30 3764 C 367.479 2.16057 -0.914151 0
M  V30 3765 C 368.495 1.73589 0.119503 0
M  V30 3766 O 369.671 2.01308 -0.0609468 0
M  V30 3767 C 366.736 3.4394 -0.436603 0
M  V30 3768 C 365.797 4.00825 -1.53746 0
M  V30 3769 C 365.03 5.22604 -1.0826 0
M  V30 3770 O 365.253 5.70367 0.0612244 0
M  V30 3771 O 364.187 5.7186 -1.87775 0
M  V30 3772 H 368.013 2.41169 -1.84584 0
M  V30 3773 H 365.598 1.1453 -0.959334 0
M  V30 3774 H 367.48 4.21024 -0.178057 0
M  V30 3775 H 366.155 3.20316 0.466869 0
M  V30 3776 H 365.062 3.25158 -1.84995 0
M  V30 3777 H 366.395 4.28778 -2.41683 0
M  V30 3778 N 368.047 0.979072 1.23499 0
M  V30 3779 C 368.957 0.526431 2.28617 0
M  V30 3780 C 369.973 -0.418126 1.68901 0
M  V30 3781 O 371.149 -0.288372 1.99325 0
M  V30 3782 C 368.214 -0.165235 3.46306 0
M  V30 3783 C 367.275 0.82056 4.21385 0
M  V30 3784 C 366.508 0.161807 5.33455 0
M  V30 3785 O 366.731 -1.04742 5.60701 0
M  V30 3786 O 365.665 0.859708 5.95729 0
M  V30 3787 H 369.491 1.4006 2.69475 0
M  V30 3788 H 367.076 0.746643 1.29405 0
M  V30 3789 H 368.958 -0.553287 4.17752 0
M  V30 3790 H 367.633 -1.01419 3.07402 0
M  V30 3791 H 366.54 1.25929 3.52268 0
M  V30 3792 H 367.873 1.63828 4.64135 0
M  V30 3793 N 369.525 -1.3858 0.750561 0
M  V30 3794 C 370.473 -2.32339 0.110162 0
M  V30 3795 C 371.467 -1.53864 -0.708674 0
M  V30 3796 O 372.673 -1.69417 -0.608112 0
M  V30 3797 H 369.048 -0.751812 0.0168275 0
M  V30 3798 H 371.019 -2.83959 0.917053 0
M  V30 3799 C 369.768 -3.39043 -0.771067 0
M  V30 3800 H 369.091 -3.99517 -0.150374 0
M  V30 3801 H 370.531 -4.07061 -1.1865 0
M  V30 3802 C 368.99 -2.77365 -1.91234 0
M  V30 3803 O 369.52 -2.66434 -3.00626 0
M  V30 3804 N 367.726 -2.35219 -1.70646 0
M  V30 3805 H 367.273 -2.4431 -0.81673 0
M  V30 3806 H 367.231 -1.94294 -2.47178 0
M  V30 3807 N 371.003 -0.499398 -1.49478 0
M  V30 3808 C 372.251 0.0455996 -2.02049 0
M  V30 3809 C 372.572 1.37633 -1.38138 0
M  V30 3810 O 371.842 1.8842 -0.536166 0
M  V30 3811 H 370.422 0.0198416 -0.746736 0
M  V30 3812 H 373.084 -0.656274 -1.83519 0
M  V30 3813 H 372.18 0.176445 -3.11601 0
M  V30 3814 N 372.481 1.55866 -0.233164 0
M  V30 3815 C 373.706 2.03449 0.402906 0
M  V30 3816 C 374.131 1.11166 1.51736 0
M  V30 3817 O 373.489 0.101996 1.81013 0
M  V30 3818 C 373.537 3.49165 0.9009 0
M  V30 3819 O 372.641 3.60019 2.01147 0
M  V30 3820 H 371.982 0.657913 0.0897025 0
M  V30 3821 H 374.512 2.01493 -0.355201 0
M  V30 3822 H 374.522 3.89716 1.2077 0
M  V30 3823 H 373.197 4.15813 0.0852889 0
M  V30 3824 H 371.774 3.3136 1.71042 0
M  V30 3825 N 373.959 -0.0401083 1.57549 0
M  V30 3826 C 374.892 -1.07689 2.01192 0
M  V30 3827 C 375.87 -1.358 0.894273 0
M  V30 3828 O 377.054 -1.48642 1.15921 0
M  V30 3829 C 374.181 -2.41418 2.3756 0
M  V30 3830 C 373.227 -2.29237 3.59656 0
M  V30 3831 S 374.06 -1.65628 5.09242 0
M  V30 3832 C 375.216 -3.0087 5.48843 0
M  V30 3833 H 375.449 -0.705108 2.88817 0
M  V30 3834 H 372.982 -0.249724 1.52367 0
M  V30 3835 H 374.94 -3.18329 2.59186 0
M  V30 3836 H 373.601 -2.75747 1.50407 0
M  V30 3837 H 372.794 -3.27932 3.82722 0
M  V30 3838 H 372.396 -1.60469 3.37825 0
M  V30 3839 H 374.688 -3.97201 5.48851 0
M  V30 3840 H 375.631 -2.82549 6.49286 0
M  V30 3841 H 376.039 -3.02934 4.76331 0
M  V30 3842 N 375.437 -1.54477 -0.31217 0
M  V30 3843 C 376.714 -1.63891 -1.06767 0
M  V30 3844 C 377.094 -0.480028 -2.0557 0
M  V30 3845 O 376.442 0.524487 -2.22399 0
M  V30 3846 C 376.652 -3.01402 -1.75948 0
M  V30 3847 C 378 -3.57838 -2.28554 0
M  V30 3848 O 379.024 -3.03782 -1.85998 0
M  V30 3849 O 377.883 -4.52462 -3.06497 0
M  V30 3850 H 374.977 -0.664125 -0.492816 0
M  V30 3851 H 377.523 -1.66823 -0.311149 0
M  V30 3852 H 376.295 -3.77187 -1.04144 0
M  V30 3853 H 375.918 -3.02199 -2.58383 0
M  V30 3854 N 376.915 0.57481 -1.46744 0
M  V30 3855 C 377.863 1.70435 -1.58286 0
M  V30 3856 C 378.857 1.63287 -0.450956 0
M  V30 3857 O 380.063 1.68685 -0.628121 0
M  V30 3858 H 376.438 0.56364 -0.497809 0
M  V30 3859 H 378.409 1.57833 -2.53242 0
M  V30 3860 C 377.158 3.08815 -1.59776 0
M  V30 3861 H 376.481 3.1499 -2.46214 0
M  V30 3862 H 377.921 3.87588 -1.71905 0
M  V30 3863 C 376.38 3.35301 -0.327812 0
M  V30 3864 O 376.91 3.97511 0.57861 0
M  V30 3865 N 375.116 2.89816 -0.213274 0
M  V30 3866 H 374.663 2.39371 -0.951798 0
M  V30 3867 H 374.621 3.0791 0.63553 0
M  V30 3868 N 378.394 1.34581 0.820102 0
M  V30 3869 C 379.64 1.27285 1.57881 0
M  V30 3870 C 379.973 -0.156137 1.93571 0
M  V30 3871 O 379.248 -1.10222 1.60254 0
M  V30 3872 C 379.531 2.16639 2.87645 0
M  V30 3873 C 379.384 3.68088 2.58517 0
M  V30 3874 C 380.703 2.05378 3.8924 0
M  V30 3875 H 377.822 0.463714 0.572833 0
M  V30 3876 H 380.464 1.64859 0.944539 0
M  V30 3877 H 378.614 1.84725 3.41773 0
M  V30 3878 H 380.286 4.10382 2.10676 0
M  V30 3879 H 378.529 3.89038 1.91917 0
M  V30 3880 H 379.2 4.2598 3.51063 0
M  V30 3881 H 381.676 2.33404 3.44473 0
M  V30 3882 H 380.552 2.7012 4.77835 0
M  V30 3883 H 380.813 1.0316 4.29896 0
M  V30 3884 N 379.872 -1.04064 1.18357 0
M  V30 3885 C 381.112 -1.78829 0.989921 0
M  V30 3886 C 381.476 -1.86106 -0.472095 0
M  V30 3887 O 382.677 -2.57076 -0.785187 0
M  V30 3888 C 380.948 -3.1823 1.6268 0
M  V30 3889 S 382.507 -4.09332 1.58091 0
M  V30 3890 H 379.325 -0.615754 0.355482 0
M  V30 3891 H 381.927 -1.24778 1.50501 0
M  V30 3892 H 380.631 -3.10543 2.68311 0
M  V30 3893 H 380.162 -3.77357 1.112 0
M  V30 3894 H 382.177 -4.92598 0.596817 0
M  V30 3895 N 381.35 -0.985608 -1.22978 0
M  V30 3896 C 382.28 -0.549649 -2.26939 0
M  V30 3897 C 383.261 0.419803 -1.64838 0
M  V30 3898 O 384.446 0.31203 -1.91677 0
M  V30 3899 C 381.576 0.143652 -3.47003 0
M  V30 3900 C 380.53 -0.743606 -4.21491 0
M  V30 3901 C 379.856 0.0822027 -5.34637 0
M  V30 3902 C 381.156 -2.03694 -4.80943 0
M  V30 3903 H 382.85 -1.41862 -2.63658 0
M  V30 3904 H 380.396 -0.683571 -1.26741 0
M  V30 3905 H 382.349 0.459985 -4.18882 0
M  V30 3906 H 381.073 1.04711 -3.09359 0
M  V30 3907 H 379.732 -1.04347 -3.51436 0
M  V30 3908 H 379.38 0.986359 -4.93234 0
M  V30 3909 H 379.08 -0.508377 -5.85397 0
M  V30 3910 H 380.604 0.392797 -6.09335 0
M  V30 3911 H 382.018 -1.78504 -5.44802 0
M  V30 3912 H 380.415 -2.57573 -5.42011 0
M  V30 3913 H 381.485 -2.72042 -4.01399 0
M  V30 3914 N 382.828 1.3818 -0.7579 0
M  V30 3915 C 384.075 2.00019 -0.315985 0
M  V30 3916 C 384.403 1.60163 1.10355 0
M  V30 3917 O 383.658 0.83264 1.77103 0
M  V30 3918 C 383.957 3.55252 -0.391218 0
M  V30 3919 C 383.623 4.14834 -1.76702 0
M  V30 3920 C 382.285 4.30821 -2.14353 0
M  V30 3921 C 384.637 4.47658 -2.66931 0
M  V30 3922 C 381.965 4.76928 -3.41696 0
M  V30 3923 C 384.317 4.95184 -3.93669 0
M  V30 3924 C 382.981 5.09377 -4.31383 0
M  V30 3925 H 382.251 0.731923 -0.115627 0
M  V30 3926 H 384.898 1.65161 -0.969223 0
M  V30 3927 H 383.203 3.90273 0.34558 0
M  V30 3928 H 384.9 4.00988 -0.030805 0
M  V30 3929 H 381.49 4.02808 -1.46435 0
M  V30 3930 H 385.674 4.34904 -2.39106 0
M  V30 3931 H 380.93 4.86103 -3.70829 0
M  V30 3932 H 385.104 5.19551 -4.63724 0
M  V30 3933 H 382.731 5.44865 -5.30119 0
M  V30 3934 N 384.306 0.507319 1.49211 0
M  V30 3935 C 385.236 -0.256939 2.32082 0
M  V30 3936 C 386.217 -0.956609 1.40652 0
M  V30 3937 O 387.402 -0.946788 1.69557 0
M  V30 3938 C 384.532 -1.31802 3.21318 0
M  V30 3939 C 383.486 -0.737855 4.21592 0
M  V30 3940 C 382.812 -1.89992 4.99807 0
M  V30 3941 C 384.112 0.275325 5.21574 0
M  V30 3942 H 385.806 0.434798 2.96226 0
M  V30 3943 H 383.352 0.210546 1.42452 0
M  V30 3944 H 385.305 -1.86045 3.78107 0
M  V30 3945 H 384.029 -2.03903 2.5513 0
M  V30 3946 H 382.688 -0.217126 3.65956 0
M  V30 3947 H 382.336 -2.60877 4.30061 0
M  V30 3948 H 382.036 -1.51777 5.6766 0
M  V30 3949 H 383.56 -2.44657 5.59442 0
M  V30 3950 H 384.974 -0.179193 5.7302 0
M  V30 3951 H 383.371 0.573649 5.97352 0
M  V30 3952 H 384.441 1.18903 4.70096 0
M  V30 3953 N 385.784 -1.5574 0.241426 0
M  V30 3954 C 386.732 -2.22538 -0.676718 0
M  V30 3955 C 387.726 -1.21117 -1.18436 0
M  V30 3956 O 388.932 -1.39144 -1.14188 0
M  V30 3957 H 385.307 -0.713776 -0.236701 0
M  V30 3958 H 387.278 -2.98264 -0.0901187 0
M  V30 3959 C 386.027 -2.93439 -1.86518 0
M  V30 3960 H 385.35 -3.7125 -1.4837 0
M  V30 3961 H 386.79 -3.43549 -2.48495 0
M  V30 3962 C 385.249 -1.97008 -2.73294 0
M  V30 3963 O 385.779 -1.49965 -3.72657 0
M  V30 3964 N 383.985 -1.64227 -2.39745 0
M  V30 3965 H 383.532 -2.02677 -1.58996 0
M  V30 3966 H 383.49 -0.999708 -2.98083 0
M  V30 3967 N 387.262 0.0317525 -1.57568 0
M  V30 3968 C 388.192 1.03274 -2.0942 0
M  V30 3969 C 389.173 1.3788 -0.996143 0
M  V30 3970 O 390.358 1.46811 -1.27122 0
M  V30 3971 C 387.488 2.33448 -2.57137 0
M  V30 3972 C 386.442 2.13091 -3.71182 0
M  V30 3973 C 385.768 3.49001 -4.05095 0
M  V30 3974 C 387.068 1.51928 -4.99715 0
M  V30 3975 H 388.762 0.60112 -2.93303 0
M  V30 3976 H 386.308 0.287705 -1.41097 0
M  V30 3977 H 388.261 3.03802 -2.92032 0
M  V30 3978 H 386.985 2.78665 -1.70333 0
M  V30 3979 H 385.644 1.45171 -3.36632 0
M  V30 3980 H 385.292 3.91862 -3.15362 0
M  V30 3981 H 384.992 3.36207 -4.81911 0
M  V30 3982 H 386.516 4.20721 -4.42522 0
M  V30 3983 H 387.93 2.12196 -5.32584 0
M  V30 3984 H 386.327 1.49716 -5.81124 0
M  V30 3985 H 387.397 0.484811 -4.8247 0
M  V30 3986 N 388.74 1.54641 0.303973 0
M  V30 3987 C 389.703 1.84646 1.35789 0
M  V30 3988 C 390.703 0.7192 1.4382 0
M  V30 3989 O 391.893 0.987491 1.43507 0
M  V30 3990 C 389.025 2.02407 2.74307 0
M  V30 3991 H 390.218 2.78829 1.10429 0
M  V30 3992 H 387.771 1.46658 0.540487 0
M  V30 3993 H 388.506 1.10502 3.04893 0
M  V30 3994 H 388.291 2.84453 2.69868 0
M  V30 3995 H 389.781 2.27002 3.50514 0
M  V30 3996 N 390.218 -0.567019 1.47046 0
M  V30 3997 C 391.166 -1.69593 1.59188 0
M  V30 3998 C 392.16 -1.63046 0.459609 0
M  V30 3999 O 393.366 -1.6835 0.637058 0
M  V30 4000 H 389.741 -0.560993 0.500791 0
M  V30 4001 H 391.712 -1.56488 2.54075 0
M  V30 4002 C 390.461 -3.07964 1.61411 0
M  V30 4003 H 389.784 -3.13679 2.47881 0
M  V30 4004 H 391.224 -3.86671 1.73958 0
M  V30 4005 C 389.683 -3.35123 0.34559 0
M  V30 4006 O 390.213 -3.97812 -0.557521 0
M  V30 4007 N 388.419 -2.89699 0.22864 0
M  V30 4008 H 387.966 -2.38863 0.964479 0
M  V30 4009 H 387.924 -3.08242 -0.619192 0
M  V30 4010 N 391.696 -1.35014 -0.812953 0
M  V30 4011 C 392.973 -1.18502 -1.55617 0
M  V30 4012 C 393.353 0.238421 -2.09749 0
M  V30 4013 O 392.701 1.2411 -1.91857 0
M  V30 4014 C 392.911 -2.24783 -2.66971 0
M  V30 4015 C 394.259 -2.60268 -3.35478 0
M  V30 4016 O 395.283 -2.23648 -2.77236 0
M  V30 4017 O 394.142 -3.2321 -4.40678 0
M  V30 4018 H 391.236 -0.459984 -0.687272 0
M  V30 4019 H 393.782 -1.46677 -0.853464 0
M  V30 4020 H 392.554 -3.20284 -2.24798 0
M  V30 4021 H 392.177 -1.97841 -3.44884 0
M  V30 4022 N 393.175 1.03435 -1.18907 0
M  V30 4023 C 394.586 1.58195 -0.991523 0
M  V30 4024 C 394.937 1.90801 0.457081 0
M  V30 4025 O 394.062 1.70272 1.33553 0
M  V30 4026 C 394.657 2.87432 -1.79355 0
M  V30 4027 C 393.216 3.38785 -1.64017 0
M  V30 4028 C 392.363 2.12292 -1.78402 0
M  V30 4029 H 395.314 0.860299 -1.33359 0
M  V30 4030 H 395.335 3.58096 -1.28638 0
M  V30 4031 H 394.847 2.63669 -2.84781 0
M  V30 4032 H 392.948 3.67547 -0.611536 0
M  V30 4033 H 393.061 4.12186 -2.44212 0
M  V30 4034 H 391.425 2.23901 -1.2141 0
M  V30 4035 H 392.208 1.90977 -2.85277 0
M  V30 4036 N 394.653 0.992116 1.22453 0
M  V30 4037 C 395.881 0.685944 1.95198 0
M  V30 4038 C 396.296 -0.749233 1.73297 0
M  V30 4039 O 395.653 -1.50549 1.03156 0
M  V30 4040 C 395.704 0.981395 3.47924 0
M  V30 4041 O 395.425 2.36018 3.6909 0
M  V30 4042 C 396.926 0.692815 4.37853 0
M  V30 4043 H 394.146 0.253821 0.621141 0
M  V30 4044 H 396.69 1.32668 1.55626 0
M  V30 4045 H 394.845 0.386481 3.85467 0
M  V30 4046 H 395.259 2.45884 4.63294 0
M  V30 4047 H 396.733 0.949818 5.43767 0
M  V30 4048 H 397.21 -0.373181 4.37612 0
M  V30 4049 H 397.816 1.26874 4.05935 0
M  V30 4050 N 396.131 -1.37776 0.765217 0
M  V30 4051 C 397.38 -1.99092 0.323307 0
M  V30 4052 C 397.693 -1.61434 -1.10446 0
M  V30 4053 O 398.899 -2.15805 -1.64743 0
M  V30 4054 C 397.355 -3.56019 0.527098 0
M  V30 4055 C 396.963 -4.0262 1.96471 0
M  V30 4056 C 398.707 -4.2424 0.148483 0
M  V30 4057 C 396.614 -5.52233 2.11644 0
M  V30 4058 H 395.544 -0.744846 0.117137 0
M  V30 4059 H 398.195 -1.57391 0.943417 0
M  V30 4060 H 396.577 -3.95667 -0.162372 0
M  V30 4061 H 397.751 -3.74234 2.68859 0
M  V30 4062 H 396.066 -3.47161 2.29931 0
M  V30 4063 H 398.663 -5.34159 0.240456 0
M  V30 4064 H 399.006 -4.06446 -0.900422 0
M  V30 4065 H 399.539 -3.89872 0.79025 0
M  V30 4066 H 396.278 -5.74945 3.1483 0
M  V30 4067 H 395.798 -5.82324 1.4373 0
M  V30 4068 H 397.477 -6.18106 1.91193 0
M  V30 4069 N 397.609 -0.515225 -1.4894 0
M  V30 4070 C 398.519 0.259774 -2.33157 0
M  V30 4071 C 399.535 0.953501 -1.45548 0
M  V30 4072 O 400.711 0.931735 -1.78552 0
M  V30 4073 C 397.776 1.30193 -3.21326 0
M  V30 4074 C 396.837 0.620129 -4.24797 0
M  V30 4075 C 396.07 1.61263 -5.08753 0
M  V30 4076 O 396.293 2.84389 -4.94448 0
M  V30 4077 O 395.227 1.16013 -5.90614 0
M  V30 4078 H 399.053 -0.429932 -3.00641 0
M  V30 4079 H 396.638 -0.276346 -1.46822 0
M  V30 4080 H 398.52 1.90455 -3.75905 0
M  V30 4081 H 397.195 1.97431 -2.56521 0
M  V30 4082 H 396.102 -0.0226019 -3.74093 0
M  V30 4083 H 397.435 -0.0100493 -4.92199 0
M  V30 4084 N 399.087 1.5561 -0.249682 0
M  V30 4085 C 400.503 1.59254 0.105103 0
M  V30 4086 C 400.703 1.26685 1.56694 0
M  V30 4087 O 399.759 1.0155 2.31179 0
M  V30 4088 C 401.072 2.99687 -0.246592 0
M  V30 4089 C 402.62 3.12416 -0.191118 0
M  V30 4090 C 403.095 4.55074 -0.516885 0
M  V30 4091 N 404.586 4.60835 -0.467489 0
M  V30 4092 C 405.321 5.69201 -0.69268 0
M  V30 4093 N 404.817 6.85817 -0.981146 0
M  V30 4094 N 406.61 5.58635 -0.623198 0
M  V30 4095 H 398.761 1.75049 -1.20298 0
M  V30 4096 H 401.024 0.815003 -0.484225 0
M  V30 4097 H 400.73 3.28267 -1.26228 0
M  V30 4098 H 400.604 3.74798 0.424962 0
M  V30 4099 H 402.991 2.83615 0.815247 0
M  V30 4100 H 403.072 2.39573 -0.896563 0
M  V30 4101 H 402.716 4.84596 -1.52082 0
M  V30 4102 H 402.646 5.26181 0.210068 0
M  V30 4103 H 405.137 3.7705 -0.253373 0
M  V30 4104 H 405.45 7.64341 -1.14032 0
M  V30 4105 H 403.795 6.87494 -1.01865 0
M  V30 4106 H 406.986 4.66406 -0.397863 0
M  V30 4107 H 407.159 6.43017 -0.802093 0
M  V30 4108 N 400.565 -0.0233959 1.57583 0
M  V30 4109 C 401.814 -0.712133 1.8871 0
M  V30 4110 C 402.127 -1.76217 0.848944 0
M  V30 4111 O 403.333 -2.50389 1.04964 0
M  V30 4112 C 401.789 -1.3177 3.3491 0
M  V30 4113 C 401.397 -0.303715 4.46969 0
M  V30 4114 C 403.141 -1.98598 3.75179 0
M  V30 4115 C 401.048 -0.917945 5.84233 0
M  V30 4116 H 399.978 -0.269735 0.704101 0
M  V30 4117 H 402.629 0.0333114 1.8347 0
M  V30 4118 H 401.011 -2.11304 3.34913 0
M  V30 4119 H 402.185 0.465325 4.58445 0
M  V30 4120 H 400.5 0.2628 4.1557 0
M  V30 4121 H 403.097 -2.45416 4.75053 0
M  V30 4122 H 403.44 -2.80659 3.07468 0
M  V30 4123 H 403.973 -1.25831 3.77374 0
M  V30 4124 H 400.712 -0.136633 6.55358 0
M  V30 4125 H 400.232 -1.65669 5.76467 0
M  V30 4126 H 401.911 -1.4236 6.31144 0
M  V30 4127 N 402.043 -1.548 -0.295768 0
M  V30 4128 C 403.292 -1.73538 -1.02798 0
M  V30 4129 C 403.605 -0.531159 -1.8825 0
M  V30 4130 O 404.811 -0.600458 -2.64777 0
M  V30 4131 C 403.267 -3.07051 -1.87744 0
M  V30 4132 C 402.875 -4.34968 -1.07269 0
M  V30 4133 C 404.619 -3.35146 -2.60533 0
M  V30 4134 C 402.526 -5.5953 -1.91521 0
M  V30 4135 H 401.456 -0.646794 -0.387522 0
M  V30 4136 H 404.107 -1.81278 -0.284718 0
M  V30 4137 H 402.489 -2.93289 -2.66078 0
M  V30 4138 H 403.663 -4.5958 -0.335117 0
M  V30 4139 H 401.978 -4.13847 -0.460384 0
M  V30 4140 H 404.575 -4.2541 -3.23929 0
M  V30 4141 H 404.918 -2.54255 -3.29636 0
M  V30 4142 H 405.451 -3.49902 -1.89244 0
M  V30 4143 H 402.19 -6.43103 -1.26878 0
M  V30 4144 H 401.71 -5.39096 -2.62937 0
M  V30 4145 H 403.389 -5.96982 -2.49442 0
M  V30 4146 N 403.521 0.559213 -1.47345 0
M  V30 4147 C 404.749 1.34194 -1.57479 0
M  V30 4148 C 405.164 1.87463 -0.224261 0
M  V30 4149 O 404.521 1.64888 0.782185 0
M  V30 4150 C 404.572 2.51324 -2.59843 0
M  V30 4151 O 404.293 2.00256 -3.89653 0
M  V30 4152 C 405.794 3.43563 -2.80142 0
M  V30 4153 H 403.014 0.409136 -0.531835 0
M  V30 4154 H 405.558 0.677609 -1.92947 0
M  V30 4155 H 403.713 3.13699 -2.27314 0
M  V30 4156 H 404.127 2.76708 -4.4557 0
M  V30 4157 H 405.601 4.2217 -3.55635 0
M  V30 4158 H 406.078 3.9698 -1.87892 0
M  V30 4159 H 406.684 2.87005 -3.1386 0
M  V30 4160 N 404.999 1.35443 0.805782 0
M  V30 4161 C 406.41 1.25768 1.37983 0
M  V30 4162 C 406.761 -0.10958 1.95894 0
M  V30 4163 O 405.886 -1.01056 1.91355 0
M  V30 4164 C 406.481 2.27727 2.5085 0
M  V30 4165 C 405.04 2.2179 3.04115 0
M  V30 4166 C 404.187 2.13393 1.77084 0
M  V30 4167 H 407.138 1.4656 0.608752 0
M  V30 4168 H 407.159 1.90422 3.29424 0
M  V30 4169 H 406.671 3.27227 2.08671 0
M  V30 4170 H 404.772 1.25703 3.50756 0
M  V30 4171 H 404.885 3.13788 3.62042 0
M  V30 4172 H 403.249 1.59384 1.98668 0
M  V30 4173 H 404.032 3.14755 1.37056 0
M  V30 4174 N 406.477 -1.02803 1.19454 0
M  V30 4175 C 407.893 -1.28473 0.946937 0
M  V30 4176 C 408.093 -1.97881 -0.380202 0
M  V30 4177 O 407.149 -2.26719 -1.11151 0
M  V30 4178 C 408.462 -2.13099 2.12154 0
M  V30 4179 C 410.01 -2.26404 2.16126 0
M  V30 4180 C 410.485 -3.14402 3.33039 0
M  V30 4181 N 411.976 -3.21991 3.32981 0
M  V30 4182 C 412.711 -3.90272 4.20089 0
M  V30 4183 N 412.207 -4.60777 5.17355 0
M  V30 4184 N 414 -3.8668 4.07964 0
M  V30 4185 H 406.151 -0.561665 2.04839 0
M  V30 4186 H 408.414 -0.310438 0.89573 0
M  V30 4187 H 408.12 -1.69422 3.08203 0
M  V30 4188 H 407.994 -3.13813 2.09287 0
M  V30 4189 H 410.381 -2.69311 1.20647 0
M  V30 4190 H 410.462 -1.25237 2.23045 0
M  V30 4191 H 410.106 -2.72204 4.28798 0
M  V30 4192 H 410.036 -4.1563 3.23356 0
M  V30 4193 H 412.527 -2.71778 2.62574 0
M  V30 4194 H 412.84 -5.10513 5.80169 0
M  V30 4195 H 411.185 -4.5964 5.21302 0
M  V30 4196 H 414.376 -3.30739 3.31254 0
M  V30 4197 H 414.549 -4.39621 4.76064 0
M  V30 4198 N 407.956 -0.998596 -1.21925 0
M  V30 4199 C 408.886 -0.573688 -2.26343 0
M  V30 4200 C 409.867 0.402296 -1.65274 0
M  V30 4201 O 411.052 0.291683 -1.91997 0
M  V30 4202 C 408.182 0.106839 -3.47136 0
M  V30 4203 C 407.136 -0.788269 -4.20678 0
M  V30 4204 C 406.462 0.0254927 -5.34694 0
M  V30 4205 C 407.762 -2.08784 -4.78755 0
M  V30 4206 H 409.456 -1.44651 -2.62138 0
M  V30 4207 H 407.002 -0.696975 -1.26009 0
M  V30 4208 H 408.955 0.415531 -4.19346 0
M  V30 4209 H 407.679 1.01424 -3.10452 0
M  V30 4210 H 406.338 -1.08069 -3.50309 0
M  V30 4211 H 405.986 0.933989 -4.94253 0
M  V30 4212 H 405.686 -0.570437 -5.84825 0
M  V30 4213 H 407.21 0.328147 -6.09718 0
M  V30 4214 H 408.624 -1.84272 -5.42878 0
M  V30 4215 H 407.021 -2.63307 -5.39249 0
M  V30 4216 H 408.091 -2.76284 -3.98491 0
M  V30 4217 N 409.434 1.37368 -0.772513 0
M  V30 4218 C 410.397 2.28601 -0.165541 0
M  V30 4219 C 411.397 1.48062 0.627238 0
M  V30 4220 O 412.587 1.68268 0.450715 0
M  V30 4221 C 409.719 3.32023 0.772897 0
M  V30 4222 H 410.912 2.83787 -0.969787 0
M  V30 4223 H 408.465 1.46647 -0.540775 0
M  V30 4224 H 409.2 2.81962 1.60212 0
M  V30 4225 H 408.985 3.91555 0.206585 0
M  V30 4226 H 410.475 4.00197 1.19298 0
M  V30 4227 N 410.912 0.523116 1.48665 0
M  V30 4228 C 411.842 -0.23231 2.32342 0
M  V30 4229 C 412.823 -0.941637 1.41659 0
M  V30 4230 O 414.008 -0.928751 1.70552 0
M  V30 4231 C 411.138 -1.28387 3.22698 0
M  V30 4232 C 410.092 -0.693098 4.22351 0
M  V30 4233 C 409.418 -1.8468 5.01794 0
M  V30 4234 C 410.718 0.33063 5.21252 0
M  V30 4235 H 412.412 0.466192 2.95748 0
M  V30 4236 H 409.958 0.225643 1.42221 0
M  V30 4237 H 411.911 -1.82024 3.80059 0
M  V30 4238 H 410.635 -2.01186 2.57278 0
M  V30 4239 H 409.294 -0.178299 3.66166 0
M  V30 4240 H 408.942 -2.56301 4.32804 0
M  V30 4241 H 408.642 -1.45747 5.69238 0
M  V30 4242 H 410.166 -2.38709 5.62006 0
M  V30 4243 H 411.58 -0.118407 5.73178 0
M  V30 4244 H 409.977 0.636974 5.9671 0
M  V30 4245 H 411.047 1.23883 4.68808 0
M  V30 4246 N 412.39 -1.55475 0.257931 0
M  V30 4247 C 413.618 -2.03609 -0.367559 0
M  V30 4248 C 414.033 -1.13687 -1.50734 0
M  V30 4249 O 413.39 -0.153479 -1.81853 0
M  V30 4250 C 413.441 -3.51001 -0.864908 0
M  V30 4251 O 413.162 -4.37499 0.229465 0
M  V30 4252 C 414.663 -4.14946 -1.55997 0
M  V30 4253 H 411.883 -0.665459 -0.0860521 0
M  V30 4254 H 414.427 -2.00843 0.385014 0
M  V30 4255 H 412.582 -3.54266 -1.56762 0
M  V30 4256 H 412.996 -5.24286 -0.14998 0
M  V30 4257 H 414.47 -5.19735 -1.85956 0
M  V30 4258 H 414.947 -3.6209 -2.4857 0
M  V30 4259 H 415.553 -4.15635 -0.901543 0
M  V30 4260 N 413.868 0.0150385 -1.57593 0
M  V30 4261 C 415.096 0.714395 -1.94175 0
M  V30 4262 C 415.511 1.68135 -0.858841 0
M  V30 4263 O 414.868 1.81766 0.163567 0
M  V30 4264 C 414.919 1.45933 -3.30735 0
M  V30 4265 O 414.64 0.531167 -4.34868 0
M  V30 4266 C 416.141 2.25456 -3.81686 0
M  V30 4267 H 413.361 0.199923 -0.640525 0
M  V30 4268 H 415.905 -0.0316096 -2.04476 0
M  V30 4269 H 414.06 2.15709 -3.21789 0
M  V30 4270 H 414.474 1.05509 -5.13778 0
M  V30 4271 H 415.948 2.731 -4.79709 0
M  V30 4272 H 416.425 3.07485 -3.13607 0
M  V30 4273 H 417.031 1.60727 -3.9376 0
M  V30 4274 N 415.346 1.54954 0.287554 0
M  V30 4275 C 416.309 1.86076 1.33823 0
M  V30 4276 C 417.309 0.734414 1.43049 0
M  V30 4277 O 418.499 1.00266 1.42452 0
M  V30 4278 C 415.631 2.05305 2.72144 0
M  V30 4279 H 416.824 2.79984 1.07465 0
M  V30 4280 H 414.377 1.47223 0.524902 0
M  V30 4281 H 415.112 1.1373 3.03704 0
M  V30 4282 H 414.897 2.873 2.66836 0
M  V30 4283 H 416.387 2.30706 3.48087 0
M  V30 4284 N 416.824 -0.551391 1.4764 0
M  V30 4285 C 417.734 -1.68525 1.63207 0
M  V30 4286 C 418.75 -1.6621 0.514815 0
M  V30 4287 O 419.926 -1.85551 0.783113 0
M  V30 4288 C 416.991 -3.05025 1.64805 0
M  V30 4289 C 416.052 -3.18362 2.88 0
M  V30 4290 C 415.285 -4.4835 2.89513 0
M  V30 4291 O 415.508 -5.34163 2.00065 0
M  V30 4292 O 414.442 -4.65602 3.81443 0
M  V30 4293 H 418.268 -1.58333 2.59161 0
M  V30 4294 H 415.853 -0.722063 1.30792 0
M  V30 4295 H 417.735 -3.86245 1.68502 0
M  V30 4296 H 416.41 -3.15587 0.720197 0
M  V30 4297 H 415.317 -2.36518 2.89845 0
M  V30 4298 H 416.65 -3.12707 3.80099 0
M  V30 4299 N 418.302 -1.35869 -0.798587 0
M  V30 4300 C 419.549 -1.29588 -1.55606 0
M  V30 4301 C 419.877 0.127456 -1.94082 0
M  V30 4302 O 419.132 1.09461 -1.62225 0
M  V30 4303 C 419.431 -2.1556 -2.85077 0
M  V30 4304 C 419.097 -3.6424 -2.65781 0
M  V30 4305 C 417.759 -4.04766 -2.60227 0
M  V30 4306 C 420.111 -4.58547 -2.47758 0
M  V30 4307 C 417.439 -5.37753 -2.34603 0
M  V30 4308 C 419.791 -5.91742 -2.23662 0
M  V30 4309 C 418.455 -6.31402 -2.16534 0
M  V30 4310 H 417.725 -0.474197 -0.569402 0
M  V30 4311 H 420.372 -1.67839 -0.922086 0
M  V30 4312 H 418.677 -1.70216 -3.52893 0
M  V30 4313 H 420.374 -2.08031 -3.42818 0
M  V30 4314 H 416.964 -3.32086 -2.70956 0
M  V30 4315 H 421.148 -4.28117 -2.51056 0
M  V30 4316 H 416.404 -5.67474 -2.2756 0
M  V30 4317 H 420.578 -6.6439 -2.08708 0
M  V30 4318 H 418.205 -7.34381 -1.96441 0
M  V30 4319 N 419.78 1.02168 -1.19998 0
M  V30 4320 C 420.71 2.12488 -0.96804 0
M  V30 4321 C 421.691 1.69799 0.101185 0
M  V30 4322 O 422.876 1.94121 -0.0552993 0
M  V30 4323 C 420.006 3.43479 -0.513776 0
M  V30 4324 C 418.96 3.99884 -1.52566 0
M  V30 4325 C 418.286 5.26582 -0.928214 0
M  V30 4326 C 419.586 4.33861 -2.90795 0
M  V30 4327 H 421.28 2.32149 -1.89069 0
M  V30 4328 H 418.826 1.11564 -0.910468 0
M  V30 4329 H 420.779 4.20036 -0.338774 0
M  V30 4330 H 419.503 3.23561 0.444493 0
M  V30 4331 H 418.162 3.25429 -1.68794 0
M  V30 4332 H 417.81 5.02986 0.0378289 0
M  V30 4333 H 417.51 5.65284 -1.60397 0
M  V30 4334 H 419.034 6.05799 -0.764167 0
M  V30 4335 H 420.448 5.01327 -2.78109 0
M  V30 4336 H 418.845 4.83664 -3.55231 0
M  V30 4337 H 419.915 3.42848 -3.42904 0
M  V30 4338 N 421.258 1.00505 1.21394 0
M  V30 4339 C 422.221 0.570459 2.21987 0
M  V30 4340 C 423.221 -0.353211 1.56873 0
M  V30 4341 O 424.411 -0.14349 1.73608 0
M  V30 4342 C 421.543 -0.168555 3.40483 0
M  V30 4343 H 422.736 1.46021 2.6195 0
M  V30 4344 H 420.289 0.793565 1.34656 0
M  V30 4345 H 421.024 -1.07374 3.06009 0
M  V30 4346 H 420.809 0.494823 3.88965 0
M  V30 4347 H 422.299 -0.460362 4.15055 0
M  V30 4348 N 422.737 -1.36956 0.779787 0
M  V30 4349 C 423.967 -2.03459 0.358877 0
M  V30 4350 C 424.375 -1.58939 -1.02641 0
M  V30 4351 O 423.718 -0.769777 -1.66794 0
M  V30 4352 C 423.78 -3.5796 0.332393 0
M  V30 4353 C 423.444 -4.25644 1.66362 0
M  V30 4354 C 424.441 -4.49205 2.61746 0
M  V30 4355 C 422.126 -4.63313 1.94027 0
M  V30 4356 C 424.12 -5.09503 3.82996 0
M  V30 4357 C 421.807 -5.2333 3.15546 0
M  V30 4358 C 422.805 -5.46363 4.0985 0
M  V30 4359 O 422.493 -6.05122 5.29228 0
M  V30 4360 H 422.225 -0.659767 0.147254 0
M  V30 4361 H 424.779 -1.76111 1.05708 0
M  V30 4362 H 423.009 -3.84388 -0.422237 0
M  V30 4363 H 424.698 -4.05852 -0.0625389 0
M  V30 4364 H 425.464 -4.20508 2.41657 0
M  V30 4365 H 421.343 -4.44715 1.21448 0
M  V30 4366 H 424.887 -5.27397 4.56617 0
M  V30 4367 H 420.784 -5.51451 3.35517 0
M  V30 4368 H 421.552 -6.23595 5.30161 0
M  V30 4369 N 424.215 -0.530993 -1.48385 0
M  V30 4370 C 425.147 0.268353 -2.27624 0
M  V30 4371 C 426.16 0.903525 -1.35426 0
M  V30 4372 O 427.349 0.781796 -1.60469 0
M  V30 4373 C 424.449 1.39535 -3.08842 0
M  V30 4374 C 423.622 0.861913 -4.28824 0
M  V30 4375 C 422.681 1.87016 -4.91845 0
M  V30 4376 O 421.707 1.4267 -5.5103 0
M  V30 4377 N 422.909 3.20238 -4.84178 0
M  V30 4378 H 425.674 -0.41123 -2.96865 0
M  V30 4379 H 423.235 -0.365387 -1.57723 0
M  V30 4380 H 425.227 2.06803 -3.47871 0
M  V30 4381 H 423.797 1.97859 -2.42014 0
M  V30 4382 H 423.017 0.0132126 -3.94198 0
M  V30 4383 H 424.305 0.484415 -5.06489 0
M  V30 4384 H 423.703 3.58932 -4.37246 0
M  V30 4385 H 422.26 3.83136 -5.27305 0
M  V30 4386 N 425.693 1.55336 -0.266172 0
M  V30 4387 C 426.933 2.01303 0.354459 0
M  V30 4388 C 427.297 1.15046 1.53715 0
M  V30 4389 O 428.498 1.50554 2.22681 0
M  V30 4390 C 426.769 3.49748 0.735579 0
M  V30 4391 S 428.328 4.1771 1.34401 0
M  V30 4392 H 425.146 0.702333 0.110674 0
M  V30 4393 H 427.748 1.91653 -0.385916 0
M  V30 4394 H 426.452 4.10181 -0.134196 0
M  V30 4395 H 425.983 3.63364 1.50764 0
M  V30 4396 H 427.998 4.20594 2.63278 0
M  V30 4397 N 427.171 -0.0066808 1.57599 0
M  V30 4398 C 428.081 -1.01671 2.11424 0
M  V30 4399 C 429.097 -1.38143 1.05795 0
M  V30 4400 O 430.273 -1.47011 1.37658 0
M  V30 4401 C 427.338 -2.29192 2.60139 0
M  V30 4402 C 426.399 -1.99094 3.80342 0
M  V30 4403 C 425.632 -3.20535 4.26724 0
M  V30 4404 O 425.855 -4.3199 3.72479 0
M  V30 4405 O 424.789 -3.04924 5.18946 0
M  V30 4406 H 428.615 -0.589181 2.9793 0
M  V30 4407 H 426.2 -0.225091 1.47695 0
M  V30 4408 H 428.082 -3.0412 2.917 0
M  V30 4409 H 426.757 -2.71195 1.76733 0
M  V30 4410 H 425.664 -1.21663 3.53764 0
M  V30 4411 H 426.997 -1.61931 4.648 0
M  V30 4412 N 428.649 -1.55105 -0.279332 0
M  V30 4413 C 429.596 -1.8755 -1.34513 0
M  V30 4414 C 430.566 -0.726384 -1.49375 0
M  V30 4415 O 431.751 -0.977063 -1.63884 0
M  V30 4416 C 428.891 -2.14738 -2.70151 0
M  V30 4417 C 428.004 -3.42285 -2.63562 0
M  V30 4418 C 427.139 -3.59206 -3.91337 0
M  V30 4419 C 426.178 -4.80467 -3.79233 0
M  V30 4420 N 425.315 -4.94079 -4.98829 0
M  V30 4421 H 430.155 -2.78456 -1.06143 0
M  V30 4422 H 427.692 -1.37867 -0.512936 0
M  V30 4423 H 429.65 -2.28501 -3.49061 0
M  V30 4424 H 428.28 -1.27075 -2.96735 0
M  V30 4425 H 427.332 -3.37029 -1.76397 0
M  V30 4426 H 428.644 -4.31328 -2.50515 0
M  V30 4427 H 427.798 -3.72751 -4.78687 0
M  V30 4428 H 426.537 -2.68337 -4.07243 0
M  V30 4429 H 425.542 -4.66932 -2.90266 0
M  V30 4430 H 426.767 -5.72765 -3.64852 0
M  V30 4431 H 424.713 -4.06139 -5.15158 0
M  V30 4432 H 424.63 -5.77156 -4.8829 0
M  V30 4433 H 425.898 -5.12003 -5.8777 0
M  V30 4434 N 430.127 0.543554 -1.4793 0
M  V30 4435 C 431.077 1.64527 -1.57844 0
M  V30 4436 C 432.061 1.54869 -0.436408 0
M  V30 4437 O 433.253 1.63119 -0.687101 0
M  V30 4438 C 430.382 3.03281 -1.6086 0
M  V30 4439 C 429.468 3.18093 -2.80495 0
M  V30 4440 N 429.859 3.02923 -4.05057 0
M  V30 4441 C 428.157 3.49121 -2.77543 0
M  V30 4442 C 428.858 3.20791 -4.85251 0
M  V30 4443 N 427.834 3.47749 -4.17818 0
M  V30 4444 H 431.636 1.51388 -2.5191 0
M  V30 4445 H 429.15 0.748671 -1.44113 0
M  V30 4446 H 431.147 3.82403 -1.66054 0
M  V30 4447 H 429.807 3.17521 -0.678996 0
M  V30 4448 H 430.818 2.79966 -4.35705 0
M  V30 4449 H 427.495 3.69804 -1.93781 0
M  V30 4450 H 428.885 3.13915 -5.9406 0
M  V30 4451 N 431.605 1.3629 0.791371 0
M  V30 4452 C 432.851 1.30605 1.55146 0
M  V30 4453 C 433.184 -0.115042 1.93859 0
M  V30 4454 O 432.459 -1.06798 1.62556 0
M  V30 4455 C 432.742 2.22692 2.82985 0
M  V30 4456 C 432.595 3.73489 2.50651 0
M  V30 4457 C 433.914 2.13588 3.84796 0
M  V30 4458 H 431.033 0.475761 0.562868 0
M  V30 4459 H 433.675 1.66825 0.909358 0
M  V30 4460 H 431.825 1.91933 3.37778 0
M  V30 4461 H 433.497 4.14758 2.01924 0
M  V30 4462 H 431.74 3.93021 1.83622 0
M  V30 4463 H 432.411 4.3333 3.41949 0
M  V30 4464 H 434.887 2.40659 3.39445 0
M  V30 4465 H 433.763 2.80195 4.71998 0
M  V30 4466 H 434.024 1.12256 4.27611 0
M  V30 4467 N 433.083 -1.0153 1.20538 0
M  V30 4468 C 434.013 -2.11972 0.979295 0
M  V30 4469 C 434.994 -1.6985 -0.0921787 0
M  V30 4470 O 436.179 -1.94089 0.0655932 0
M  V30 4471 C 433.309 -3.43201 0.531984 0
M  V30 4472 C 432.263 -3.9907 1.54685 0
M  V30 4473 C 431.589 -5.26082 0.956127 0
M  V30 4474 C 432.889 -4.32313 2.93092 0
M  V30 4475 H 434.583 -2.31143 1.90298 0
M  V30 4476 H 432.129 -1.11079 0.916372 0
M  V30 4477 H 434.082 -4.1985 0.361044 0
M  V30 4478 H 432.806 -3.23792 -0.427327 0
M  V30 4479 H 431.465 -3.2453 1.70517 0
M  V30 4480 H 431.113 -5.02999 -0.0111538 0
M  V30 4481 H 430.813 -5.64426 1.63393 0
M  V30 4482 H 432.337 -6.05386 0.796284 0
M  V30 4483 H 433.751 -4.99845 2.80763 0
M  V30 4484 H 432.148 -4.81774 3.57791 0
M  V30 4485 H 433.218 -3.41025 3.44717 0
M  V30 4486 N 434.561 -1.01147 -1.20859 0
M  V30 4487 C 435.807 -0.698899 -1.90377 0
M  V30 4488 C 436.14 0.76904 -1.78324 0
M  V30 4489 O 435.415 1.55817 -1.16409 0
M  V30 4490 C 435.698 -1.12878 -3.41951 0
M  V30 4491 C 435.551 -2.65665 -3.62963 0
M  V30 4492 C 436.87 -0.696114 -4.3456 0
M  V30 4493 H 433.989 -0.255372 -0.691342 0
M  V30 4494 H 436.631 -1.25831 -1.42361 0
M  V30 4495 H 434.781 -0.652827 -3.82976 0
M  V30 4496 H 436.453 -3.21074 -3.31224 0
M  V30 4497 H 434.696 -3.06878 -3.06608 0
M  V30 4498 H 435.367 -2.90797 -4.69192 0
M  V30 4499 H 437.843 -1.10521 -4.01154 0
M  V30 4500 H 436.719 -1.025 -5.39245 0
M  V30 4501 H 436.98 0.402465 -4.40264 0
M  V30 4502 N 436.039 1.36541 -0.78704 0
M  V30 4503 C 437.288 1.98552 -0.35494 0
M  V30 4504 C 437.601 1.63171 1.07864 0
M  V30 4505 O 438.807 2.18399 1.61289 0
M  V30 4506 C 437.263 3.55136 -0.583671 0
M  V30 4507 C 436.871 3.99444 -2.02851 0
M  V30 4508 C 438.615 4.2395 -0.215957 0
M  V30 4509 C 436.522 5.48796 -2.20403 0
M  V30 4510 H 435.452 0.742888 -0.128972 0
M  V30 4511 H 438.103 1.5587 -0.968337 0
M  V30 4512 H 436.485 3.95875 0.0994046 0
M  V30 4513 H 437.659 3.6991 -2.74779 0
M  V30 4514 H 435.974 3.43459 -2.35425 0
M  V30 4515 H 438.571 5.33709 -0.325405 0
M  V30 4516 H 438.914 4.07827 0.835646 0
M  V30 4517 H 439.447 3.88565 -0.852175 0
M  V30 4518 H 436.186 5.69864 -3.23937 0
M  V30 4519 H 435.706 5.79964 -1.52977 0
M  V30 4520 H 437.385 6.14986 -2.01002 0
M  V30 4521 N 437.518 0.538854 1.48102 0
M  V30 4522 C 438.448 -0.207654 2.32575 0
M  V30 4523 C 439.429 -0.926559 1.4265 0
M  V30 4524 O 440.614 -0.91061 1.71527 0
M  V30 4525 C 437.744 -1.24957 3.24042 0
M  V30 4526 C 436.698 -0.648263 4.23062 0
M  V30 4527 C 436.024 -1.79348 5.03725 0
M  V30 4528 C 437.324 0.385897 5.20872 0
M  V30 4529 H 439.018 0.497534 2.95237 0
M  V30 4530 H 436.564 0.240715 1.41974 0
M  V30 4531 H 438.517 -1.77983 3.81969 0
M  V30 4532 H 437.241 -1.98446 2.59397 0
M  V30 4533 H 435.9 -0.139452 3.66335 0
M  V30 4534 H 435.548 -2.51696 4.35498 0
M  V30 4535 H 435.248 -1.39702 5.70751 0
M  V30 4536 H 436.772 -2.32735 5.64506 0
M  V30 4537 H 438.186 -0.057607 5.73271 0
M  V30 4538 H 436.583 0.700227 5.96001 0
M  V30 4539 H 437.653 1.28848 4.67468 0
M  V30 4540 N 438.996 -1.55193 0.274407 0
M  V30 4541 C 440.224 -2.03987 -0.345943 0
M  V30 4542 C 440.639 -1.15279 -1.4952 0
M  V30 4543 O 439.996 -0.172759 -1.8168 0
M  V30 4544 C 440.047 -3.51898 -0.827631 0
M  V30 4545 O 439.768 -4.37231 0.275855 0
M  V30 4546 C 441.269 -4.16577 -1.51587 0
M  V30 4547 H 438.489 -0.666335 -0.0789892 0
M  V30 4548 H 441.033 -2.00423 0.406294 0
M  V30 4549 H 439.188 -3.55909 -1.52996 0
M  V30 4550 H 439.602 -5.24415 -0.0943638 0
M  V30 4551 H 441.076 -5.21678 -1.80433 0
M  V30 4552 H 441.553 -3.64707 -2.44716 0
M  V30 4553 H 442.159 -4.16568 -0.857409 0
M  V30 4554 N 440.474 -0.00167713 -1.576 0
M  V30 4555 C 441.751 0.719951 -1.81868 0
M  V30 4556 C 442.131 1.91895 -0.879747 0
M  V30 4557 O 441.479 2.28389 0.0711423 0
M  V30 4558 C 441.689 1.12409 -3.30402 0
M  V30 4559 C 443.037 1.52724 -3.96182 0
M  V30 4560 O 444.061 1.21784 -3.34734 0
M  V30 4561 O 442.92 2.10265 -5.04431 0
M  V30 4562 H 440.014 0.350707 -0.748955 0
M  V30 4563 H 442.56 -0.0272597 -1.69678 0
M  V30 4564 H 441.332 0.269532 -3.90371 0
M  V30 4565 H 440.955 1.93035 -3.47596 0
M  V30 4566 N 441.952 1.55251 0.271103 0
M  V30 4567 C 442.885 1.83191 1.36075 0
M  V30 4568 C 443.863 0.685091 1.47463 0
M  V30 4569 O 445.047 0.928292 1.64058 0
M  V30 4570 C 442.174 1.99521 2.73696 0
M  V30 4571 C 441.22 3.22081 2.79582 0
M  V30 4572 S 442.053 4.79388 2.38636 0
M  V30 4573 C 443.209 4.98693 3.78228 0
M  V30 4574 H 443.442 2.75327 1.12171 0
M  V30 4575 H 440.975 1.47046 0.470833 0
M  V30 4576 H 442.933 2.09613 3.52948 0
M  V30 4577 H 441.594 1.0827 2.9485 0
M  V30 4578 H 440.787 3.304 3.80594 0
M  V30 4579 H 440.389 3.10589 2.08352 0
M  V30 4580 H 442.681 4.84551 4.73515 0
M  V30 4581 H 443.624 6.00738 3.7486 0
M  V30 4582 H 444.032 4.26665 3.69618 0
M  V30 4583 N 443.43 -0.535701 1.48216 0
M  V30 4584 C 444.655 -1.32149 1.59848 0
M  V30 4585 C 445.08 -1.86338 0.256842 0
M  V30 4586 O 444.438 -1.64107 -0.770632 0
M  V30 4587 C 444.486 -2.45224 2.64381 0
M  V30 4588 O 443.59 -3.48093 2.21144 0
M  V30 4589 H 442.931 -0.391634 0.536208 0
M  V30 4590 H 445.461 -0.645202 1.94161 0
M  V30 4591 H 445.471 -2.91491 2.85476 0
M  V30 4592 H 444.146 -2.05143 3.61786 0
M  V30 4593 H 442.723 -3.07984 2.10239 0
M  V30 4594 N 444.908 -1.36708 -0.784132 0
M  V30 4595 C 446.133 -1.34565 -1.5782 0
M  V30 4596 C 446.558 0.0695257 -1.87971 0
M  V30 4597 O 445.916 1.04302 -1.48293 0
M  V30 4598 C 445.964 -2.17952 -2.87279 0
M  V30 4599 O 445.068 -1.57563 -3.81114 0
M  V30 4600 H 444.409 -0.460337 -0.478524 0
M  V30 4601 H 446.939 -1.80064 -0.971495 0
M  V30 4602 H 446.949 -2.30721 -3.365 0
M  V30 4603 H 445.624 -3.20823 -2.64661 0
M  V30 4604 H 444.201 -1.53764 -3.39722 0
M  V30 4605 N 446.386 1.0089 -1.21074 0
M  V30 4606 C 447.616 1.77933 -1.04993 0
M  V30 4607 C 448.024 1.84847 0.403495 0
M  V30 4608 O 447.367 1.30606 1.29181 0
M  V30 4609 C 447.429 3.23541 -1.56722 0
M  V30 4610 C 447.093 3.40214 -3.05129 0
M  V30 4611 C 448.09 3.2881 -4.02716 0
M  V30 4612 C 445.775 3.65781 -3.44252 0
M  V30 4613 C 447.769 3.42732 -5.37414 0
M  V30 4614 C 445.456 3.79346 -4.79103 0
M  V30 4615 C 446.454 3.67827 -5.75493 0
M  V30 4616 O 446.142 3.80965 -7.07899 0
M  V30 4617 H 445.874 0.566157 -0.369381 0
M  V30 4618 H 448.428 1.27826 -1.60779 0
M  V30 4619 H 446.658 3.74766 -0.953285 0
M  V30 4620 H 448.347 3.82245 -1.36543 0
M  V30 4621 H 449.113 3.08986 -3.73835 0
M  V30 4622 H 444.992 3.73831 -2.69762 0
M  V30 4623 H 448.536 3.33658 -6.12632 0
M  V30 4624 H 444.433 3.98672 -5.07672 0
M  V30 4625 H 445.201 3.97937 -7.15254 0
M  V30 4626 N 447.864 1.01787 1.20321 0
M  V30 4627 C 448.827 0.593972 2.2137 0
M  V30 4628 C 449.827 -0.336553 1.57239 0
M  V30 4629 O 451.017 -0.125069 1.7375 0
M  V30 4630 C 448.149 -0.132433 3.40643 0
M  V30 4631 H 449.342 1.48791 2.60387 0
M  V30 4632 H 446.895 0.807803 1.33807 0
M  V30 4633 H 447.63 -1.04123 3.0713 0
M  V30 4634 H 447.415 0.53605 3.88418 0
M  V30 4635 H 448.905 -0.416314 4.1552 0
M  V30 4636 N 449.342 -1.36122 0.79427 0
M  V30 4637 C 450.252 -2.33769 0.197296 0
M  V30 4638 C 451.268 -1.61276 -0.653153 0
M  V30 4639 O 452.444 -1.9323 -0.5678 0
M  V30 4640 C 449.509 -3.40474 -0.654098 0
M  V30 4641 C 448.57 -4.28759 0.215411 0
M  V30 4642 C 447.803 -5.30368 -0.595443 0
M  V30 4643 O 448.026 -5.40211 -1.83107 0
M  V30 4644 O 446.96 -6.019 0.00721351 0
M  V30 4645 H 450.786 -2.86597 1.00478 0
M  V30 4646 H 448.371 -1.38676 0.555818 0
M  V30 4647 H 450.253 -4.05703 -1.13944 0
M  V30 4648 H 448.928 -2.89937 -1.43938 0
M  V30 4649 H 447.835 -3.66554 0.747615 0
M  V30 4650 H 449.168 -4.82661 0.964332 0
M  V30 4651 N 450.82 -0.546701 -1.47814 0
M  V30 4652 C 451.783 0.196287 -2.28358 0
M  V30 4653 C 452.783 0.852437 -1.36346 0
M  V30 4654 O 453.973 0.709913 -1.59078 0
M  V30 4655 C 451.105 1.28579 -3.15722 0
M  V30 4656 H 452.298 -0.511086 -2.95513 0
M  V30 4657 H 449.851 -0.303248 -1.5333 0
M  V30 4658 H 450.586 2.0259 -2.53235 0
M  V30 4659 H 450.371 0.820229 -3.83425 0
M  V30 4660 H 451.861 1.80793 -3.76435 0
M  V30 4661 N 452.299 1.55045 -0.282633 0
M  V30 4662 C 453.229 2.2579 0.595066 0
M  V30 4663 C 454.21 1.25074 1.15284 0
M  V30 4664 O 455.395 1.5381 1.18559 0
M  V30 4665 C 452.525 2.98472 1.77572 0
M  V30 4666 C 451.479 4.0618 1.34914 0
M  V30 4667 C 450.805 4.66477 2.6135 0
M  V30 4668 C 452.105 5.1996 0.493821 0
M  V30 4669 H 453.799 2.994 0.00505653 0
M  V30 4670 H 451.345 1.44 0.000992001 0
M  V30 4671 H 453.298 3.46677 2.39568 0
M  V30 4672 H 452.022 2.2241 2.39168 0
M  V30 4673 H 450.681 3.58797 0.752338 0
M  V30 4674 H 450.329 3.87074 3.2122 0
M  V30 4675 H 450.029 5.39207 2.33516 0
M  V30 4676 H 451.553 5.17435 3.24181 0
M  V30 4677 H 452.967 5.64172 1.01898 0
M  V30 4678 H 451.364 5.99299 0.310047 0
M  V30 4679 H 452.434 4.82462 -0.485593 0
M  V30 4680 N 453.777 0.010035 1.57597 0
M  V30 4681 C 455.193 -0.346164 1.55801 0
M  V30 4682 C 455.393 -1.74144 1.01371 0
M  V30 4683 O 454.449 -2.43938 0.651968 0
M  V30 4684 C 455.762 -0.212216 2.9995 0
M  V30 4685 C 457.31 -0.286409 3.11687 0
M  V30 4686 C 457.785 -0.18147 4.5764 0
M  V30 4687 N 459.276 -0.239056 4.62583 0
M  V30 4688 C 460.011 -0.181351 5.73113 0
M  V30 4689 N 459.507 -0.073661 6.92761 0
M  V30 4690 N 461.3 -0.233949 5.61613 0
M  V30 4691 H 453.451 0.922657 1.91313 0
M  V30 4692 H 455.714 0.354595 0.879185 0
M  V30 4693 H 455.42 0.748169 3.4365 0
M  V30 4694 H 455.294 -0.990224 3.6397 0
M  V30 4695 H 457.681 -1.23724 2.67911 0
M  V30 4696 H 457.762 0.521645 2.50425 0
M  V30 4697 H 457.406 0.765863 5.02093 0
M  V30 4698 H 457.336 -1.00814 5.1686 0
M  V30 4699 H 459.827 -0.32321 3.76515 0
M  V30 4700 H 460.14 -0.0358003 7.72792 0
M  V30 4701 H 458.485 -0.0391461 6.94989 0
M  V30 4702 H 461.676 -0.316347 4.6703 0
M  V30 4703 H 461.849 -0.185514 6.47734 0
M  V30 4704 N 455.255 -1.55392 -0.262866 0
M  V30 4705 C 456.165 -1.92077 -1.34698 0
M  V30 4706 C 457.181 -0.819227 -1.53508 0
M  V30 4707 O 458.357 -1.11921 -1.67439 0
M  V30 4708 C 455.422 -2.19407 -2.68443 0
M  V30 4709 C 454.483 -3.42905 -2.58292 0
M  V30 4710 C 453.716 -3.68921 -3.85659 0
M  V30 4711 O 453.939 -2.97275 -4.8681 0
M  V30 4712 O 452.873 -4.62455 -3.85252 0
M  V30 4713 H 456.699 -2.84384 -1.06581 0
M  V30 4714 H 454.284 -1.42069 -0.462264 0
M  V30 4715 H 456.166 -2.38365 -3.47506 0
M  V30 4716 H 454.841 -1.30282 -2.96325 0
M  V30 4717 H 453.748 -3.29272 -1.7757 0
M  V30 4718 H 455.081 -4.32282 -2.35358 0
M  V30 4719 N 456.733 0.527833 -1.48498 0
M  V30 4720 C 457.979 1.28545 -1.56857 0
M  V30 4721 C 458.312 1.92678 -0.242651 0
M  V30 4722 O 457.587 1.79394 0.751545 0
M  V30 4723 C 457.87 2.37314 -2.70839 0
M  V30 4724 C 457.723 1.77858 -4.13142 0
M  V30 4725 C 459.042 3.39068 -2.80573 0
M  V30 4726 H 456.161 0.466006 -0.570971 0
M  V30 4727 H 458.803 0.587784 -1.8068 0
M  V30 4728 H 456.953 2.96821 -2.50658 0
M  V30 4729 H 458.625 1.22385 -4.44769 0
M  V30 4730 H 456.868 1.08383 -4.20042 0
M  V30 4731 H 457.539 2.56624 -4.88721 0
M  V30 4732 H 460.015 2.89518 -2.98862 0
M  V30 4733 H 458.891 4.12566 -3.6205 0
M  V30 4734 H 459.152 3.9975 -1.88818 0
M  V30 4735 N 458.211 1.37122 0.776871 0
M  V30 4736 C 459.436 1.354 1.57104 0
M  V30 4737 C 459.861 -0.0595562 1.88006 0
M  V30 4738 O 459.219 -1.03514 1.48844 0
M  V30 4739 C 459.267 2.19472 2.8612 0
M  V30 4740 O 458.371 1.59582 3.80273 0
M  V30 4741 H 457.712 0.462869 0.476076 0
M  V30 4742 H 460.242 1.80577 0.961932 0
M  V30 4743 H 460.252 2.32502 3.35271 0
M  V30 4744 H 458.927 3.22222 2.62956 0
M  V30 4745 H 457.504 1.55564 3.38902 0
M  V30 4746 N 459.689 -1.00246 1.21608 0
M  V30 4747 C 460.652 -2.07233 0.979133 0
M  V30 4748 C 461.652 -1.6072 -0.0508219 0
M  V30 4749 O 462.842 -1.73196 0.186712 0
M  V30 4750 C 459.974 -3.37546 0.477016 0
M  V30 4751 H 461.167 -2.29687 1.92831 0
M  V30 4752 H 458.72 -1.17261 1.03342 0
M  V30 4753 H 459.455 -3.20773 -0.476966 0
M  V30 4754 H 459.24 -3.72638 1.21997 0
M  V30 4755 H 460.73 -4.16285 0.331181 0
M  V30 4756 N 461.167 -1.02423 -1.1978 0
M  V30 4757 C 462.13 -0.605703 -2.21052 0
M  V30 4758 C 463.13 0.328209 -1.57415 0
M  V30 4759 O 464.32 0.115853 -1.73814 0
M  V30 4760 C 461.452 0.114366 -3.40708 0
M  V30 4761 H 462.645 -1.5017 -2.59594 0
M  V30 4762 H 460.198 -0.814888 -1.33376 0
M  V30 4763 H 460.933 1.02492 -3.07678 0
M  V30 4764 H 460.718 -0.556641 -3.88129 0
M  V30 4765 H 462.208 0.394272 -4.15735 0
M  V30 4766 N 462.645 1.35699 -0.801477 0
M  V30 4767 C 464.061 1.52065 -0.484596 0
M  V30 4768 C 464.261 1.75215 0.995084 0
M  V30 4769 O 463.317 1.79061 1.78026 0
M  V30 4770 C 464.63 2.69908 -1.32552 0
M  V30 4771 C 466.178 2.83784 -1.32044 0
M  V30 4772 C 466.653 4.04646 -2.14536 0
M  V30 4773 N 468.144 4.11814 -2.12046 0
M  V30 4774 C 468.879 5.04437 -2.72636 0
M  V30 4775 N 468.375 6.02426 -3.42133 0
M  V30 4776 N 470.168 4.97144 -2.62305 0
M  V30 4777 H 462.319 1.18928 -1.75983 0
M  V30 4778 H 464.582 0.581455 -0.748741 0
M  V30 4779 H 464.288 2.59363 -2.37537 0
M  V30 4780 H 464.162 3.64376 -0.975181 0
M  V30 4781 H 466.549 2.93783 -0.27846 0
M  V30 4782 H 466.63 1.90188 -1.71062 0
M  V30 4783 H 466.274 3.95407 -3.18772 0
M  V30 4784 H 466.204 4.97413 -1.72882 0
M  V30 4785 H 468.695 3.41664 -1.61476 0
M  V30 4786 H 469.008 6.69688 -3.85666 0
M  V30 4787 H 467.353 6.02615 -3.46237 0
M  V30 4788 H 470.544 4.19546 -2.07603 0
M  V30 4789 H 470.717 5.69138 -3.09815 0
M  V30 4790 N 464.123 0.554532 1.47522 0
M  V30 4791 C 465.033 -0.197865 2.33764 0
M  V30 4792 C 466.049 -0.914576 1.48025 0
M  V30 4793 O 467.225 -0.884067 1.80959 0
M  V30 4794 C 464.29 -1.21628 3.24665 0
M  V30 4795 C 463.351 -0.507283 4.26292 0
M  V30 4796 C 462.584 -1.47718 5.1285 0
M  V30 4797 O 462.807 -2.7118 5.01814 0
M  V30 4798 O 461.741 -1.00313 5.93482 0
M  V30 4799 H 465.567 0.50949 2.99396 0
M  V30 4800 H 463.152 0.315176 1.46038 0
M  V30 4801 H 465.034 -1.80421 3.80823 0
M  V30 4802 H 463.709 -1.9056 2.61665 0
M  V30 4803 H 462.616 0.121778 3.73902 0
M  V30 4804 H 463.949 0.140544 4.91999 0
M  V30 4805 N 465.601 -1.54893 0.290851 0
M  V30 4806 C 466.511 -2.26812 -0.59945 0
M  V30 4807 C 467.527 -1.29963 -1.15696 0
M  V30 4808 O 468.703 -1.62928 -1.18391 0
M  V30 4809 C 465.768 -2.98716 -1.75982 0
M  V30 4810 C 464.829 -4.1108 -1.2374 0
M  V30 4811 C 464.062 -4.79546 -2.34246 0
M  V30 4812 O 464.285 -4.47309 -3.53936 0
M  V30 4813 O 463.219 -5.67165 -2.01512 0
M  V30 4814 H 467.045 -3.03696 -0.0163561 0
M  V30 4815 H 464.63 -1.49289 0.0576755 0
M  V30 4816 H 466.512 -3.43851 -2.43607 0
M  V30 4817 H 465.187 -2.24737 -2.3297 0
M  V30 4818 H 464.094 -3.70367 -0.527163 0
M  V30 4819 H 465.427 -4.87007 -0.71307 0
M  V30 4820 N 467.08 -0.0183926 -1.57589 0
M  V30 4821 C 468.326 0.663543 -1.91638 0
M  V30 4822 C 468.659 1.72392 -0.894134 0
M  V30 4823 O 467.934 1.94316 0.0846449 0
M  V30 4824 C 468.217 1.28984 -3.36207 0
M  V30 4825 C 468.07 0.239761 -4.49161 0
M  V30 4826 C 469.389 2.2109 -3.80536 0
M  V30 4827 H 466.508 0.239746 -0.696915 0
M  V30 4828 H 469.15 -0.073456 -1.89858 0
M  V30 4829 H 467.3 1.91799 -3.37854 0
M  V30 4830 H 468.972 -0.390119 -4.59647 0
M  V30 4831 H 467.215 -0.435972 -4.31604 0
M  V30 4832 H 467.886 0.717383 -5.47319 0
M  V30 4833 H 470.362 1.68273 -3.80557 0
M  V30 4834 H 469.238 2.61869 -4.82406 0
M  V30 4835 H 469.499 3.09764 -3.15434 0
M  V30 4836 N 468.558 1.5553 0.254621 0
M  V30 4837 C 469.969 1.67518 0.824286 0
M  V30 4838 C 470.32 0.614429 1.86331 0
M  V30 4839 O 469.445 -0.240736 2.15057 0
M  V30 4840 C 470.04 3.03692 1.50189 0
M  V30 4841 C 468.599 3.17646 2.01935 0
M  V30 4842 C 467.746 2.63373 0.867746 0
M  V30 4843 H 470.697 1.58671 0.0305843 0
M  V30 4844 H 470.718 2.97706 2.36962 0
M  V30 4845 H 470.23 3.80874 0.745431 0
M  V30 4846 H 468.331 2.45273 2.80485 0
M  V30 4847 H 468.444 4.24455 2.22204 0
M  V30 4848 H 466.808 2.20999 1.26616 0
M  V30 4849 H 467.591 3.43074 0.124498 0
M  V30 4850 N 470.036 -0.519951 1.48776 0
M  V30 4851 C 471.284 -1.2727 1.56993 0
M  V30 4852 C 471.605 -1.9339 0.25004 0
M  V30 4853 O 470.875 -1.81822 -0.729216 0
M  V30 4854 H 469.455 -0.472732 0.578389 0
M  V30 4855 H 472.117 -0.604234 1.85297 0
M  V30 4856 H 471.213 -2.04669 2.3562 0
M  V30 4857 N 471.514 -1.37532 -0.769588 0
M  V30 4858 C 472.93 -1.18379 -1.07045 0
M  V30 4859 C 473.13 -0.0214312 -2.01489 0
M  V30 4860 O 472.186 0.637809 -2.44312 0
M  V30 4861 C 473.499 -2.50338 -1.66588 0
M  V30 4862 C 475.047 -2.56879 -1.78835 0
M  V30 4863 C 475.522 -3.88974 -2.41792 0
M  V30 4864 N 477.013 -3.90428 -2.4924 0
M  V30 4865 C 477.748 -4.89388 -2.98809 0
M  V30 4866 N 477.244 -5.98745 -3.48535 0
M  V30 4867 N 479.037 -4.76791 -2.97703 0
M  V30 4868 H 471.188 -2.11921 -0.142541 0
M  V30 4869 H 473.451 -0.939608 -0.125863 0
M  V30 4870 H 473.157 -3.35767 -1.0466 0
M  V30 4871 H 473.031 -2.67583 -2.65856 0
M  V30 4872 H 475.418 -1.71856 -2.39895 0
M  V30 4873 H 475.499 -2.43516 -0.783166 0
M  V30 4874 H 475.143 -4.74412 -1.81371 0
M  V30 4875 H 475.073 -3.99641 -3.4292 0
M  V30 4876 H 477.564 -3.11433 -2.14052 0
M  V30 4877 H 477.877 -6.70205 -3.84767 0
M  V30 4878 H 476.222 -6.02387 -3.46634 0
M  V30 4879 H 479.413 -3.90478 -2.58157 0
M  V30 4880 H 479.586 -5.54069 -3.36024 0
M  V30 4881 N 472.992 0.995999 -1.22138 0
M  V30 4882 C 474.408 1.25917 -0.980667 0
M  V30 4883 C 474.608 1.98819 0.327604 0
M  V30 4884 O 473.664 2.29587 1.05101 0
M  V30 4885 C 474.977 2.07399 -2.17729 0
M  V30 4886 C 476.525 2.20594 -2.22052 0
M  V30 4887 C 477 3.05462 -3.41258 0
M  V30 4888 N 478.491 3.13049 -3.41401 0
M  V30 4889 C 479.226 3.78997 -4.30289 0
M  V30 4890 N 478.722 4.46899 -5.2939 0
M  V30 4891 N 480.515 3.75728 -4.18073 0
M  V30 4892 H 472.666 0.507158 -2.06256 0
M  V30 4893 H 474.929 0.28658 -0.903646 0
M  V30 4894 H 474.635 1.61191 -3.12586 0
M  V30 4895 H 474.509 3.08154 -2.17534 0
M  V30 4896 H 476.896 2.66017 -1.27745 0
M  V30 4897 H 476.977 1.1928 -2.26287 0
M  V30 4898 H 476.621 2.60739 -4.35864 0
M  V30 4899 H 476.551 4.06911 -3.34262 0
M  V30 4900 H 479.042 2.64721 -2.69688 0
M  V30 4901 H 479.355 4.94952 -5.935 0
M  V30 4902 H 477.7 4.45657 -5.33306 0
M  V30 4903 H 480.891 3.2184 -3.39907 0
M  V30 4904 H 481.064 4.26845 -4.87553 0
M  V30 4905 N 474.47 1.03057 1.19235 0
M  V30 4906 C 475.718 0.726581 1.88587 0
M  V30 4907 C 476.039 -0.747227 1.80115 0
M  V30 4908 O 475.309 -1.53849 1.21274 0
M  V30 4909 H 473.889 0.265768 0.698124 0
M  V30 4910 H 476.551 1.30516 1.44746 0
M  V30 4911 H 475.647 1.0224 2.94879 0
M  V30 4912 N 475.948 -1.35272 0.808662 0
M  V30 4913 C 477.195 -1.98709 0.390003 0
M  V30 4914 C 477.523 -1.64148 -1.04335 0
M  V30 4915 O 476.778 -0.897797 -1.73891 0
M  V30 4916 C 477.077 -3.53556 0.522798 0
M  V30 4917 C 476.743 -4.0799 1.91977 0
M  V30 4918 C 475.405 -4.22568 2.30195 0
M  V30 4919 C 477.757 -4.37442 2.83361 0
M  V30 4920 C 475.085 -4.63918 3.59162 0
M  V30 4921 C 477.437 -4.80232 4.11776 0
M  V30 4922 C 476.101 -4.93016 4.49991 0
M  V30 4923 H 475.371 -0.727127 0.142712 0
M  V30 4924 H 478.018 -1.6145 1.02985 0
M  V30 4925 H 476.323 -3.91287 -0.200494 0
M  V30 4926 H 478.02 -4.00598 0.179608 0
M  V30 4927 H 474.61 -3.97096 1.61284 0
M  V30 4928 H 478.794 -4.25731 2.55083 0
M  V30 4929 H 474.05 -4.72005 3.88615 0
M  V30 4930 H 478.224 -5.01982 4.82687 0
M  V30 4931 H 475.851 -5.24814 5.49976 0
M  V30 4932 N 477.426 -0.562348 -1.47226 0
M  V30 4933 C 478.837 -0.130325 -1.86245 0
M  V30 4934 C 479.188 1.30128 -1.46838 0
M  V30 4935 O 478.313 1.97974 -0.873805 0
M  V30 4936 C 478.908 -0.229738 -3.3802 0
M  V30 4937 C 477.467 0.14728 -3.76112 0
M  V30 4938 C 476.614 -0.574971 -2.71274 0
M  V30 4939 H 479.565 -0.771773 -1.3867 0
M  V30 4940 H 479.586 0.550316 -3.76499 0
M  V30 4941 H 479.098 -1.27178 -3.66671 0
M  V30 4942 H 477.199 1.19023 -3.53078 0
M  V30 4943 H 477.312 -0.214858 -4.78618 0
M  V30 4944 H 475.676 -0.0174756 -2.54694 0
M  V30 4945 H 476.459 -1.61827 -3.02766 0
M  V30 4946 N 478.904 1.54736 -0.299062 0
M  V30 4947 C 480.152 1.99706 0.31017 0
M  V30 4948 C 480.473 1.18896 1.54559 0
M  V30 4949 O 479.743 0.284445 1.93824 0
M  V30 4950 H 478.323 0.737686 0.117596 0
M  V30 4951 H 480.985 1.9054 -0.409943 0
M  V30 4952 H 480.081 3.06596 0.58355 0
M  V30 4953 N 480.382 0.0267497 1.57577 0
M  V30 4954 C 481.612 -0.6617 1.95717 0
M  V30 4955 C 482.02 -1.66331 0.901706 0
M  V30 4956 O 481.363 -1.83273 -0.125241 0
M  V30 4957 C 481.425 -1.42649 3.29987 0
M  V30 4958 C 481.089 -0.583482 4.5326 0
M  V30 4959 C 482.086 0.140221 5.19711 0
M  V30 4960 C 479.771 -0.521581 4.99585 0
M  V30 4961 C 481.765 0.914523 6.30805 0
M  V30 4962 C 479.452 0.256428 6.10562 0
M  V30 4963 C 480.45 0.973189 6.76031 0
M  V30 4964 O 480.138 1.73845 7.84878 0
M  V30 4965 H 479.87 -0.187483 0.649481 0
M  V30 4966 H 482.424 0.0820847 2.05236 0
M  V30 4967 H 480.654 -2.21536 3.16952 0
M  V30 4968 H 482.343 -2.00282 3.53047 0
M  V30 4969 H 483.109 0.101716 4.84893 0
M  V30 4970 H 478.988 -1.06904 4.48433 0
M  V30 4971 H 482.532 1.4745 6.81839 0
M  V30 4972 H 478.429 0.296657 6.44818 0
M  V30 4973 H 479.197 1.65797 8.01532 0
M  V30 4974 N 481.861 -1.55662 -0.24637 0
M  V30 4975 C 482.794 -1.85332 -1.33143 0
M  V30 4976 C 483.772 -0.708464 -1.46354 0
M  V30 4977 O 484.956 -0.954274 -1.6256 0
M  V30 4978 C 482.083 -2.0385 -2.70487 0
M  V30 4979 C 481.129 -3.26488 -2.74423 0
M  V30 4980 S 481.962 -4.83124 -2.30979 0
M  V30 4981 C 483.118 -5.04647 -3.70246 0
M  V30 4982 H 483.351 -2.77077 -1.07777 0
M  V30 4983 H 480.884 -1.47776 -0.44738 0
M  V30 4984 H 482.842 -2.15202 -3.49569 0
M  V30 4985 H 481.503 -1.12947 -2.9309 0
M  V30 4986 H 480.696 -3.36413 -3.7529 0
M  V30 4987 H 480.298 -3.13864 -2.03385 0
M  V30 4988 H 482.59 -4.92023 -4.65746 0
M  V30 4989 H 483.533 -6.06625 -3.65255 0
M  V30 4990 H 483.941 -4.32491 -3.62784 0
M  V30 4991 N 483.339 0.512053 -1.4905 0
M  V30 4992 C 484.569 1.28928 -1.61434 0
M  V30 4993 C 484.977 1.87107 -0.280647 0
M  V30 4994 O 484.32 1.68024 0.742537 0
M  V30 4995 C 484.382 2.466 -2.61588 0
M  V30 4996 C 484.046 2.09375 -4.06216 0
M  V30 4997 C 485.043 1.63994 -4.93358 0
M  V30 4998 C 482.728 2.19348 -4.51876 0
M  V30 4999 C 484.722 1.29076 -6.24194 0
M  V30 5000 C 482.409 1.84041 -5.82728 0
M  V30 5001 C 483.407 1.38978 -6.68711 0
M  V30 5002 O 483.095 1.04144 -7.97126 0
M  V30 5003 H 482.827 0.397668 -0.546659 0
M  V30 5004 H 485.381 0.622507 -1.9574 0
M  V30 5005 H 483.611 3.16318 -2.22441 0
M  V30 5006 H 485.3 3.08642 -2.63619 0
M  V30 5007 H 486.066 1.55744 -4.59313 0
M  V30 5008 H 481.945 2.53376 -3.85125 0
M  V30 5009 H 485.489 0.938303 -6.91261 0
M  V30 5010 H 481.386 1.91938 -6.16304 0
M  V30 5011 H 482.154 1.17387 -8.10039 0
M  V30 5012 N 484.817 1.37938 0.762283 0
M  V30 5013 C 486.045 1.36883 1.55147 0
M  V30 5014 C 486.46 -0.0435348 1.8875 0
M  V30 5015 O 485.817 -1.00786 1.52146 0
M  V30 5016 C 485.868 2.21624 2.85596 0
M  V30 5017 O 485.589 3.57358 2.5343 0
M  V30 5018 C 487.09 2.28653 3.7978 0
M  V30 5019 H 484.31 0.468521 0.480343 0
M  V30 5020 H 486.854 1.81404 0.944079 0
M  V30 5021 H 485.009 1.80588 3.42734 0
M  V30 5022 H 485.423 4.01883 3.37032 0
M  V30 5023 H 486.897 2.9225 4.68288 0
M  V30 5024 H 487.374 1.29767 4.19592 0
M  V30 5025 H 487.98 2.70043 3.28568 0
M  V30 5026 N 486.295 -0.989507 1.22664 0
M  V30 5027 C 487.572 -1.70326 0.961688 0
M  V30 5028 C 487.952 -2.04537 -0.522279 0
M  V30 5029 O 487.3 -1.73136 -1.49118 0
M  V30 5030 C 487.51 -2.95135 1.86269 0
M  V30 5031 C 488.858 -3.67842 2.12078 0
M  V30 5032 O 489.882 -3.0515 1.83745 0
M  V30 5033 O 488.741 -4.80644 2.60083 0
M  V30 5034 H 485.835 -0.743589 0.361946 0
M  V30 5035 H 488.381 -1.04555 1.33665 0
M  V30 5036 H 487.153 -2.66382 2.8663 0
M  V30 5037 H 486.776 -3.68645 1.48952 0
M  V30 5038 N 487.773 -1.03688 -1.18687 0
M  V30 5039 C 488.703 -0.645407 -2.24403 0
M  V30 5040 C 489.684 0.349511 -1.66471 0
M  V30 5041 O 490.869 0.230453 -1.92828 0
M  V30 5042 C 487.999 -0.00365337 -3.473 0
M  V30 5043 C 486.953 -0.921705 -4.17958 0
M  V30 5044 C 486.279 -0.144629 -5.34504 0
M  V30 5045 C 487.579 -2.23909 -4.71871 0
M  V30 5046 H 489.273 -1.52917 -2.57404 0
M  V30 5047 H 486.819 -0.736711 -1.23728 0
M  V30 5048 H 488.772 0.281908 -4.20456 0
M  V30 5049 H 487.496 0.914963 -3.13522 0
M  V30 5050 H 486.155 -1.19159 -3.46694 0
M  V30 5051 H 485.803 0.776274 -4.96974 0
M  V30 5052 H 485.503 -0.756206 -5.82714 0
M  V30 5053 H 487.027 0.134004 -6.10453 0
M  V30 5054 H 488.441 -2.0145 -5.36741 0
M  V30 5055 H 486.838 -2.8033 -5.30599 0
M  V30 5056 H 487.908 -2.88822 -3.895 0
M  V30 5057 N 489.251 1.34841 -0.815825 0
M  V30 5058 C 490.214 2.27959 -0.238185 0
M  V30 5059 C 491.214 1.49983 0.579816 0
M  V30 5060 O 492.404 1.69617 0.396953 0
M  V30 5061 C 489.536 3.34314 0.666876 0
M  V30 5062 H 490.729 2.80558 -1.05958 0
M  V30 5063 H 488.282 1.44852 -0.587156 0
M  V30 5064 H 489.017 2.86916 1.5116 0
M  V30 5065 H 488.802 3.92014 0.0819106 0
M  V30 5066 H 490.292 4.0379 1.06506 0
M  V30 5067 N 490.729 0.570148 1.46925 0
M  V30 5068 C 491.957 0.0561966 2.06824 0
M  V30 5069 C 492.372 -1.24326 1.42086 0
M  V30 5070 O 491.729 -1.74882 0.521794 0
M  V30 5071 C 491.78 -0.129517 3.61268 0
M  V30 5072 O 491.501 1.1185 4.23581 0
M  V30 5073 C 493.002 -0.679266 4.38065 0
M  V30 5074 H 490.222 0.0517261 0.669003 0
M  V30 5075 H 492.766 0.787243 1.8874 0
M  V30 5076 H 490.921 -0.810739 3.78822 0
M  V30 5077 H 491.335 0.924375 5.1629 0
M  V30 5078 H 492.809 -0.758445 5.46765 0
M  V30 5079 H 493.286 -1.69346 4.05239 0
M  V30 5080 H 493.892 -0.0333237 4.25287 0
M  V30 5081 N 492.207 -1.54576 0.307264 0
M  V30 5082 C 493.456 -1.99442 -0.300976 0
M  V30 5083 C 493.769 -1.19928 -1.5452 0
M  V30 5084 O 494.975 -1.55092 -2.22842 0
M  V30 5085 C 493.431 -3.55084 -0.586809 0
M  V30 5086 C 493.039 -4.43413 0.639438 0
M  V30 5087 C 494.783 -4.0846 -1.1559 0
M  V30 5088 C 492.69 -5.90499 0.326411 0
M  V30 5089 H 491.62 -0.744986 -0.116238 0
M  V30 5090 H 494.271 -1.787 0.416947 0
M  V30 5091 H 492.653 -3.71749 -1.36449 0
M  V30 5092 H 493.827 -4.38522 1.41545 0
M  V30 5093 H 492.142 -4.00842 1.1276 0
M  V30 5094 H 494.739 -5.15926 -1.40445 0
M  V30 5095 H 495.082 -3.59443 -2.10015 0
M  V30 5096 H 495.615 -3.95362 -0.439778 0
M  V30 5097 H 492.354 -6.43676 1.23939 0
M  V30 5098 H 491.874 -5.98382 -0.412212 0
M  V30 5099 H 493.553 -6.46962 -0.0697393 0
M  V30 5100 N 493.685 -0.035106 -1.57561 0
M  V30 5101 C 494.915 0.651312 -1.96065 0
M  V30 5102 C 495.323 1.6585 -0.910514 0
M  V30 5103 O 494.666 1.83336 0.11552 0
M  V30 5104 C 494.728 1.40897 -3.30739 0
M  V30 5105 C 494.392 0.559436 -4.53563 0
M  V30 5106 C 495.389 -0.16778 -5.19629 0
M  V30 5107 C 493.074 0.495079 -4.99854 0
M  V30 5108 C 495.068 -0.947963 -6.30311 0
M  V30 5109 C 492.755 -0.288804 -6.10417 0
M  V30 5110 C 493.753 -1.00903 -6.75505 0
M  V30 5111 O 493.441 -1.78005 -7.83945 0
M  V30 5112 H 493.173 0.184036 -0.650467 0
M  V30 5113 H 495.727 -0.0929677 -2.05189 0
M  V30 5114 H 493.957 2.19852 -3.18123 0
M  V30 5115 H 495.646 1.98407 -3.54104 0
M  V30 5116 H 496.412 -0.12743 -4.84833 0
M  V30 5117 H 492.291 1.04524 -4.48994 0
M  V30 5118 H 495.835 -1.51064 -6.81047 0
M  V30 5119 H 491.732 -0.33085 -6.44652 0
M  V30 5120 H 492.5 -1.70046 -8.00641 0
M  V30 5121 N 495.163 1.55791 0.238111 0
M  V30 5122 C 496.073 1.94196 1.31625 0
M  V30 5123 C 497.089 0.843545 1.52185 0
M  V30 5124 O 498.265 1.1457 1.65637 0
M  V30 5125 C 495.33 2.2365 2.64918 0
M  V30 5126 C 494.391 3.46971 2.52804 0
M  V30 5127 C 493.624 3.7501 3.79741 0
M  V30 5128 O 493.847 3.04982 4.82019 0
M  V30 5129 O 492.781 4.68525 3.77846 0
M  V30 5130 H 496.607 2.86044 1.02043 0
M  V30 5131 H 494.192 1.42786 0.439603 0
M  V30 5132 H 496.074 2.43863 3.4367 0
M  V30 5133 H 494.749 1.34979 2.94215 0
M  V30 5134 H 493.656 3.32055 1.72309 0
M  V30 5135 H 494.989 4.35971 2.28451 0
M  V30 5136 N 496.642 -0.504142 1.49319 0
M  V30 5137 C 498.058 -0.835039 1.36012 0
M  V30 5138 C 498.258 -1.97674 0.390808 0
M  V30 5139 O 497.314 -2.51867 -0.178655 0
M  V30 5140 C 498.627 -1.17821 2.76656 0
M  V30 5141 C 500.175 -1.2866 2.85334 0
M  V30 5142 C 500.65 -1.66307 4.26739 0
M  V30 5143 N 502.141 -1.73362 4.29534 0
M  V30 5144 C 502.876 -2.0393 5.35911 0
M  V30 5145 N 502.372 -2.32744 6.52535 0
M  V30 5146 N 504.165 -2.05155 5.23324 0
M  V30 5147 H 496.316 0.248764 2.10938 0
M  V30 5148 H 498.579 0.0486962 0.946748 0
M  V30 5149 H 498.285 -0.412682 3.4927 0
M  V30 5150 H 498.159 -2.12239 3.11825 0
M  V30 5151 H 500.546 -2.04285 2.1296 0
M  V30 5152 H 500.627 -0.323004 2.53752 0
M  V30 5153 H 500.271 -0.91234 4.99639 0
M  V30 5154 H 500.201 -2.63761 4.55782 0
M  V30 5155 H 502.692 -1.53268 3.45424 0
M  V30 5156 H 503.005 -2.55248 7.2943 0
M  V30 5157 H 501.35 -2.30207 6.55767 0
M  V30 5158 H 504.541 -1.82119 4.3122 0
M  V30 5159 H 504.714 -2.28644 6.06322 0
M  V30 5160 N 498.12 -1.38341 -0.754957 0
M  V30 5161 C 499.083 -1.35262 -1.85032 0
M  V30 5162 C 500.083 -0.253393 -1.58791 0
M  V30 5163 O 501.273 -0.510205 -1.66561 0
M  V30 5164 C 498.405 -1.10544 -3.22479 0
M  V30 5165 H 499.598 -2.32712 -1.8917 0
M  V30 5166 H 497.151 -1.23614 -0.956515 0
M  V30 5167 H 497.886 -0.136952 -3.24011 0
M  V30 5168 H 497.671 -1.90127 -3.4292 0
M  V30 5169 H 499.161 -1.11082 -4.02555 0
M  V30 5170 N 499.598 0.982988 -1.23187 0
M  V30 5171 C 500.846 1.72052 -1.06031 0
M  V30 5172 C 501.167 1.90769 0.404019 0
M  V30 5173 O 500.437 1.47446 1.28982 0
M  V30 5174 H 499.017 0.637499 -0.389363 0
M  V30 5175 H 501.679 1.18338 -1.54862 0
M  V30 5176 H 500.775 2.7111 -1.54615 0
M  V30 5177 N 501.076 1.04316 1.18135 0
M  V30 5178 C 502.492 0.762858 1.40188 0
M  V30 5179 C 502.692 -0.646547 1.90846 0
M  V30 5180 O 501.748 -1.41036 2.0944 0
M  V30 5181 C 503.061 1.81106 2.40044 0
M  V30 5182 C 504.609 1.83226 2.53766 0
M  V30 5183 C 505.084 2.87044 3.56889 0
M  V30 5184 N 506.575 2.85951 3.64398 0
M  V30 5185 C 507.31 3.62932 4.43923 0
M  V30 5186 N 506.806 4.49672 5.27036 0
M  V30 5187 N 508.599 3.51411 4.38711 0
M  V30 5188 H 500.75 1.95264 0.835805 0
M  V30 5189 H 503.013 0.845017 0.429709 0
M  V30 5190 H 502.719 2.82214 2.09876 0
M  V30 5191 H 502.593 1.64529 3.39426 0
M  V30 5192 H 504.98 0.827869 2.8325 0
M  V30 5193 H 505.061 2.03879 1.54489 0
M  V30 5194 H 504.705 3.87663 3.28145 0
M  V30 5195 H 504.635 2.63645 4.5585 0
M  V30 5196 H 507.126 2.23051 3.05052 0
M  V30 5197 H 507.439 5.05116 5.84874 0
M  V30 5198 H 505.784 4.53738 5.26447 0
M  V30 5199 H 508.975 2.83047 3.72829 0
M  V30 5200 H 509.148 4.11654 5.00445 0
M  V30 5201 N 502.554 -1.34406 0.822964 0
M  V30 5202 C 503.8 -1.98578 0.411666 0
M  V30 5203 C 504.133 -1.65093 -1.02264 0
M  V30 5204 O 503.408 -0.92258 -1.71227 0
M  V30 5205 C 503.691 -3.54823 0.614235 0
M  V30 5206 C 503.544 -3.9805 2.09466 0
M  V30 5207 C 504.863 -4.40071 0.050221 0
M  V30 5208 H 501.982 -0.721355 0.151047 0
M  V30 5209 H 504.624 -1.59301 1.03554 0
M  V30 5210 H 502.774 -3.88411 0.0831774 0
M  V30 5211 H 504.446 -3.74795 2.68936 0
M  V30 5212 H 502.689 -3.4836 2.5851 0
M  V30 5213 H 503.36 -5.06819 2.18721 0
M  V30 5214 H 505.836 -4.13037 0.503953 0
M  V30 5215 H 504.712 -5.48452 0.221759 0
M  V30 5216 H 504.973 -4.29576 -1.04482 0
M  V30 5217 N 504.032 -0.577932 -1.46621 0
M  V30 5218 C 504.942 0.160651 -2.34049 0
M  V30 5219 C 505.958 0.890911 -1.49462 0
M  V30 5220 O 507.134 0.855166 -1.82343 0
M  V30 5221 C 504.199 1.16447 -3.26559 0
M  V30 5222 C 503.26 0.4394 -4.27045 0
M  V30 5223 C 502.493 1.3954 -5.15135 0
M  V30 5224 O 502.716 2.63162 -5.06065 0
M  V30 5225 O 501.65 0.908585 -5.95003 0
M  V30 5226 H 505.476 -0.557057 -2.98547 0
M  V30 5227 H 503.061 -0.338369 -1.45518 0
M  V30 5228 H 504.943 1.7434 -3.83645 0
M  V30 5229 H 503.618 1.86373 -2.64663 0
M  V30 5230 H 502.525 -0.181247 -3.73661 0
M  V30 5231 H 503.858 -0.218799 -4.91713 0
M  V30 5232 N 505.51 1.54411 -0.315457 0
M  V30 5233 C 506.758 2.00023 0.288971 0
M  V30 5234 C 507.079 1.20529 1.5329 0
M  V30 5235 O 506.349 0.304986 1.93511 0
M  V30 5236 H 504.929 0.738891 0.109766 0
M  V30 5237 H 507.591 1.90094 -0.430129 0
M  V30 5238 H 506.687 3.07198 0.550999 0
M  V30 5239 N 506.988 0.0434614 1.5754 0
M  V30 5240 C 508.404 -0.313039 1.565 0
M  V30 5241 C 508.604 -1.71954 1.05043 0
M  V30 5242 O 507.66 -2.425 0.703564 0
M  V30 5243 C 508.973 -0.148544 3.00333 0
M  V30 5244 C 510.521 -0.220231 3.12224 0
M  V30 5245 C 510.996 -0.0843565 4.57922 0
M  V30 5246 N 512.487 -0.140881 4.62986 0
M  V30 5247 C 513.222 -0.0597443 5.73369 0
M  V30 5248 N 512.718 0.0733004 6.92761 0
M  V30 5249 N 514.511 -0.11477 5.61983 0
M  V30 5250 H 506.662 0.96303 1.89313 0
M  V30 5251 H 508.925 0.373164 0.871466 0
M  V30 5252 H 508.631 0.820894 3.41986 0
M  V30 5253 H 508.505 -0.912798 3.65989 0
M  V30 5254 H 510.892 -1.18014 2.70475 0
M  V30 5255 H 510.973 0.574646 2.49262 0
M  V30 5256 H 510.617 0.872192 5.00355 0
M  V30 5257 H 510.547 -0.898281 5.18882 0
M  V30 5258 H 513.038 -0.243273 3.77116 0
M  V30 5259 H 513.351 0.128128 7.72694 0
M  V30 5260 H 511.696 0.10828 6.94916 0
M  V30 5261 H 514.887 -0.217212 4.67596 0
M  V30 5262 H 515.06 -0.0480779 6.47982 0
M  V30 5263 N 508.466 -1.55915 -0.229846 0
M  V30 5264 C 509.414 -1.9258 -1.30444 0
M  V30 5265 C 510.408 -0.806839 -1.48951 0
M  V30 5266 O 511.614 -0.991606 -1.50224 0
M  V30 5267 H 507.989 -0.611878 -0.437161 0
M  V30 5268 H 509.96 -2.82264 -0.96797 0
M  V30 5269 C 508.709 -2.25171 -2.6494 0
M  V30 5270 H 508.032 -3.10782 -2.51504 0
M  V30 5271 H 509.472 -2.54716 -3.38963 0
M  V30 5272 C 507.931 -1.07394 -3.19324 0
M  V30 5273 O 508.461 -0.330759 -4.00336 0
M  V30 5274 N 506.667 -0.859984 -2.77584 0
M  V30 5275 H 506.214 -1.46605 -2.11813 0
M  V30 5276 H 506.172 -0.0736671 -3.14314 0
M  V30 5277 N 509.944 0.496216 -1.49584 0
M  V30 5278 C 511.192 1.24756 -1.58998 0
M  V30 5279 C 511.513 1.92968 -0.280775 0
M  V30 5280 O 510.783 1.82959 0.700198 0
M  V30 5281 H 509.363 0.463471 -0.585836 0
M  V30 5282 H 512.025 0.574678 -1.86235 0
M  V30 5283 H 511.121 2.00895 -2.38847 0
M  V30 5284 N 511.423 1.38739 0.74761 0
M  V30 5285 C 512.648 1.38702 1.54197 0
M  V30 5286 C 513.073 -0.019664 1.8809 0
M  V30 5287 O 512.431 -1.00333 1.51006 0
M  V30 5288 C 512.479 2.25492 2.814 0
M  V30 5289 O 511.583 1.67613 3.76802 0
M  V30 5290 H 510.924 0.472863 0.466151 0
M  V30 5291 H 513.454 1.82577 0.923413 0
M  V30 5292 H 513.464 2.39561 3.30264 0
M  V30 5293 H 512.139 3.27727 2.56062 0
M  V30 5294 H 510.716 1.62718 3.35526 0
M  V30 5295 N 512.901 -0.976442 1.23707 0
M  V30 5296 C 514.15 -1.71254 1.06559 0
M  V30 5297 C 514.463 -1.91528 -0.397024 0
M  V30 5298 O 515.669 -2.62625 -0.688518 0
M  V30 5299 C 514.125 -3.08207 1.8584 0
M  V30 5300 C 513.733 -2.95806 3.36456 0
M  V30 5301 C 515.477 -3.85749 1.77194 0
M  V30 5302 C 513.384 -4.28015 4.08114 0
M  V30 5303 H 512.314 -0.642171 0.395136 0
M  V30 5304 H 514.965 -1.08877 1.4771 0
M  V30 5305 H 513.347 -3.71363 1.37498 0
M  V30 5306 H 514.521 -2.41716 3.92314 0
M  V30 5307 H 512.836 -2.31736 3.45959 0
M  V30 5308 H 515.433 -4.83633 2.28041 0
M  V30 5309 H 515.776 -4.09752 0.735477 0
M  V30 5310 H 516.309 -3.29303 2.23169 0
M  V30 5311 H 513.048 -4.09208 5.12083 0
M  V30 5312 H 512.568 -4.81955 3.57043 0
M  V30 5313 H 514.247 -4.96681 4.14629 0
M  V30 5314 N 514.379 -1.04941 -1.1758 0
M  V30 5315 C 515.607 -0.778294 -1.91703 0
M  V30 5316 C 516.022 0.665697 -1.76675 0
M  V30 5317 O 515.379 1.45456 -1.10222 0
M  V30 5318 C 515.43 -1.14628 -3.42845 0
M  V30 5319 O 515.151 -2.53359 -3.57409 0
M  V30 5320 C 516.652 -0.900931 -4.34049 0
M  V30 5321 H 513.872 -0.283167 -0.608323 0
M  V30 5322 H 516.416 -1.39942 -1.49119 0
M  V30 5323 H 514.571 -0.569953 -3.83184 0
M  V30 5324 H 514.985 -2.67709 -4.51035 0
M  V30 5325 H 516.459 -1.20817 -5.38616 0
M  V30 5326 H 516.936 0.163966 -4.38894 0
M  V30 5327 H 517.542 -1.46097 -3.99419 0
M  V30 5328 N 515.857 1.33968 -0.830081 0
M  V30 5329 C 516.789 2.28194 -0.21448 0
M  V30 5330 C 517.802 1.5135 0.599752 0
M  V30 5331 O 518.991 1.73286 0.42826 0
M  V30 5332 C 516.091 3.31221 0.717356 0
M  V30 5333 C 515.264 4.37365 -0.055613 0
M  V30 5334 C 514.323 5.2011 0.798231 0
M  V30 5335 O 513.349 5.68691 0.240616 0
M  V30 5336 N 514.551 5.40523 2.11695 0
M  V30 5337 H 517.316 2.81662 -1.02405 0
M  V30 5338 H 514.877 1.46568 -0.687713 0
M  V30 5339 H 516.869 3.83477 1.29334 0
M  V30 5340 H 515.439 2.78095 1.42765 0
M  V30 5341 H 514.659 3.85727 -0.812936 0
M  V30 5342 H 515.947 5.05397 -0.587444 0
M  V30 5343 H 515.345 5.0274 2.59363 0
M  V30 5344 H 513.902 5.95871 2.64162 0
M  V30 5345 N 517.335 0.585699 1.46312 0
M  V30 5346 C 518.584 0.0701192 2.01578 0
M  V30 5347 C 518.897 -1.29889 1.46247 0
M  V30 5348 O 520.103 -1.90598 1.93351 0
M  V30 5349 C 518.559 0.0747499 3.59822 0
M  V30 5350 C 518.167 1.44226 4.24149 0
M  V30 5351 C 519.911 -0.38673 4.22735 0
M  V30 5352 C 517.818 1.40446 5.74481 0
M  V30 5353 H 516.748 0.0224441 0.753666 0
M  V30 5354 H 519.399 0.737789 1.68015 0
M  V30 5355 H 517.781 -0.659144 3.90476 0
M  V30 5356 H 518.955 2.19612 4.05101 0
M  V30 5357 H 517.27 1.84401 3.73343 0
M  V30 5358 H 519.867 -0.433853 5.32937 0
M  V30 5359 H 520.21 -1.40489 3.91878 0
M  V30 5360 H 520.743 0.293195 3.96718 0
M  V30 5361 H 517.482 2.39952 6.10003 0
M  V30 5362 H 517.002 0.692845 5.95785 0
M  V30 5363 H 518.681 1.11865 6.37256 0
M  V30 5364 N 518.813 -1.54241 0.323641 0
M  V30 5365 C 520.224 -1.85975 -0.164405 0
M  V30 5366 C 520.575 -1.24529 -1.51615 0
M  V30 5367 O 519.7 -0.551351 -2.09258 0
M  V30 5368 C 520.295 -3.37424 -0.305091 0
M  V30 5369 C 518.854 -3.69107 -0.737358 0
M  V30 5370 C 518.001 -2.76942 0.140884 0
M  V30 5371 H 520.952 -1.49088 0.543922 0
M  V30 5372 H 520.973 -3.63147 -1.13598 0
M  V30 5373 H 520.485 -3.82116 0.678876 0
M  V30 5374 H 518.586 -3.29947 -1.73107 0
M  V30 5375 H 518.699 -4.76035 -0.541053 0
M  V30 5376 H 517.063 -2.51795 -0.383572 0
M  V30 5377 H 517.846 -3.24461 1.12162 0
M  V30 5378 N 520.291 -0.0518155 -1.57515 0
M  V30 5379 C 521.54 0.621286 -1.91893 0
M  V30 5380 C 521.853 1.71966 -0.932052 0
M  V30 5381 O 523.059 2.45096 -1.16791 0
M  V30 5382 C 521.515 1.15641 -3.40816 0
M  V30 5383 C 521.123 0.0901146 -4.47909 0
M  V30 5384 C 522.867 1.80472 -3.84227 0
M  V30 5385 C 520.774 0.638154 -5.87947 0
M  V30 5386 H 519.704 0.235835 -0.716169 0
M  V30 5387 H 522.355 -0.120809 -1.83102 0
M  V30 5388 H 520.737 1.95084 -3.44613 0
M  V30 5389 H 521.911 -0.683525 -4.55702 0
M  V30 5390 H 520.226 -0.460774 -4.13843 0
M  V30 5391 H 522.823 2.22471 -4.86221 0
M  V30 5392 H 523.166 2.65669 -3.20508 0
M  V30 5393 H 523.699 1.07683 -3.82948 0
M  V30 5394 H 520.438 -0.176202 -6.55263 0
M  V30 5395 H 519.958 1.37976 -5.83714 0
M  V30 5396 H 521.637 1.12085 -6.37217 0
M  V30 5397 N 521.769 1.56035 0.221574 0
M  V30 5398 C 522.699 1.95434 1.2778 0
M  V30 5399 C 523.68 0.822564 1.48889 0
M  V30 5400 O 524.865 1.08486 1.61072 0
M  V30 5401 C 521.995 2.27102 2.62759 0
M  V30 5402 C 520.949 3.4277 2.56306 0
M  V30 5403 C 520.275 3.60043 3.95314 0
M  V30 5404 C 521.575 4.77742 2.11093 0
M  V30 5405 H 523.269 2.83912 0.950504 0
M  V30 5406 H 520.815 1.36596 0.455791 0
M  V30 5407 H 522.768 2.53256 3.36807 0
M  V30 5408 H 521.492 1.35478 2.97176 0
M  V30 5409 H 520.151 3.16664 1.84715 0
M  V30 5410 H 519.799 2.65794 4.27039 0
M  V30 5411 H 519.499 4.37841 3.91879 0
M  V30 5412 H 521.023 3.88545 4.71025 0
M  V30 5413 H 522.437 5.03102 2.74885 0
M  V30 5414 H 520.834 5.58823 2.18716 0
M  V30 5415 H 521.904 4.731 1.06321 0
M  V30 5416 N 523.247 -0.488276 1.49845 0
M  V30 5417 C 524.475 -1.26527 1.63702 0
M  V30 5418 C 524.89 -1.8618 0.313447 0
M  V30 5419 O 524.247 -1.68432 -0.702624 0
M  V30 5420 C 524.298 -2.3864 2.71538 0
M  V30 5421 O 524.019 -1.81437 3.98763 0
M  V30 5422 C 525.52 -3.29805 2.96215 0
M  V30 5423 H 522.74 -0.383295 0.55075 0
M  V30 5424 H 525.284 -0.584779 1.95961 0
M  V30 5425 H 523.439 -3.02496 2.42023 0
M  V30 5426 H 523.853 -2.55135 4.58265 0
M  V30 5427 H 525.327 -4.04722 3.75372 0
M  V30 5428 H 525.804 -3.87563 2.06619 0
M  V30 5429 H 526.41 -2.71703 3.27196 0
M  V30 5430 N 524.725 -1.39134 -0.740242 0
M  V30 5431 C 525.658 -1.3182 -1.86276 0
M  V30 5432 C 526.636 -0.192794 -1.61453 0
M  V30 5433 O 527.82 -0.372365 -1.84786 0
M  V30 5434 C 524.947 -1.04564 -3.22155 0
M  V30 5435 C 523.993 -2.19224 -3.65846 0
M  V30 5436 S 524.826 -3.81466 -3.75824 0
M  V30 5437 C 525.982 -3.56425 -5.14502 0
M  V30 5438 H 526.215 -2.26822 -1.92195 0
M  V30 5439 H 523.748 -1.25127 -0.904576 0
M  V30 5440 H 525.706 -0.895228 -4.00619 0
M  V30 5441 H 524.367 -0.112578 -3.13898 0
M  V30 5442 H 523.56 -1.95732 -4.6444 0
M  V30 5443 H 523.162 -2.30441 -2.94572 0
M  V30 5444 H 525.454 -3.13366 -6.00673 0
M  V30 5445 H 526.397 -4.54462 -5.43019 0
M  V30 5446 H 526.805 -2.90641 -4.8393 0
M  V30 5447 N 526.204 0.969867 -1.24223 0
M  V30 5448 C 527.615 1.52717 -1.07399 0
M  V30 5449 C 527.966 1.92956 0.355298 0
M  V30 5450 O 527.091 1.77112 1.2434 0
M  V30 5451 C 527.686 2.77521 -1.94339 0
M  V30 5452 C 526.245 3.29615 -1.81744 0
M  V30 5453 C 525.392 2.02537 -1.89405 0
M  V30 5454 H 528.343 0.788399 -1.37732 0
M  V30 5455 H 528.364 3.50773 -1.47439 0
M  V30 5456 H 527.876 2.48203 -2.98357 0
M  V30 5457 H 525.977 3.63789 -0.805505 0
M  V30 5458 H 526.09 3.98661 -2.65718 0
M  V30 5459 H 524.454 2.17151 -1.33108 0
M  V30 5460 H 525.237 1.75587 -2.94999 0
M  V30 5461 N 527.682 1.05563 1.17022 0
M  V30 5462 C 528.63 0.653887 2.2322 0
M  V30 5463 C 529.624 -0.326642 1.66221 0
M  V30 5464 O 530.83 -0.192301 1.7897 0
M  V30 5465 H 527.205 0.193297 0.726733 0
M  V30 5466 H 529.176 1.5596 2.54399 0
M  V30 5467 C 527.925 0.0485434 3.47666 0
M  V30 5468 H 527.248 0.79413 3.91834 0
M  V30 5469 H 528.688 -0.195133 4.23551 0
M  V30 5470 C 527.147 -1.20583 3.14581 0
M  V30 5471 O 527.677 -2.29475 3.29703 0
M  V30 5472 N 525.883 -1.10493 2.68774 0
M  V30 5473 H 525.43 -0.218795 2.56669 0
M  V30 5474 H 525.388 -1.94507 2.47011 0
M  V30 5475 N 529.16 -1.33526 0.837174 0
M  V30 5476 C 530.437 -1.92369 0.354065 0
M  V30 5477 C 530.817 -1.76348 -1.16038 0
M  V30 5478 O 530.165 -1.15083 -1.97403 0
M  V30 5479 C 530.375 -3.39728 0.799101 0
M  V30 5480 C 531.723 -4.16877 0.806139 0
M  V30 5481 O 532.747 -3.48373 0.742597 0
M  V30 5482 O 531.606 -5.39166 0.892345 0
M  V30 5483 H 528.7 -0.820952 0.0998378 0
M  V30 5484 H 531.246 -1.42409 0.922913 0
M  V30 5485 H 530.018 -3.45254 1.84162 0
M  V30 5486 H 529.641 -3.97062 0.206731 0
M  V30 5487 N 530.638 -0.59345 -1.46 0
M  V30 5488 C 531.915 -0.0157933 -1.95594 0
M  V30 5489 C 532.295 1.44807 -1.53604 0
M  V30 5490 O 531.643 2.14342 -0.791824 0
M  V30 5491 C 531.853 -0.199081 -3.48432 0
M  V30 5492 C 533.201 -0.0724943 -4.24538 0
M  V30 5493 O 534.225 -0.128469 -3.55968 0
M  V30 5494 O 533.084 0.0542426 -5.46473 0
M  V30 5495 H 530.178 0.043749 -0.825842 0
M  V30 5496 H 532.724 -0.662522 -1.56233 0
M  V30 5497 H 531.496 -1.21631 -3.71916 0
M  V30 5498 H 531.119 0.483576 -3.94648 0
M  V30 5499 N 532.116 1.54067 -0.331816 0
M  V30 5500 C 533.365 1.99895 0.269209 0
M  V30 5501 C 533.678 1.22371 1.52593 0
M  V30 5502 O 534.884 1.58618 2.20347 0
M  V30 5503 C 533.34 3.55972 0.530244 0
M  V30 5504 C 532.948 4.4234 -0.709901 0
M  V30 5505 C 534.692 4.10247 1.09077 0
M  V30 5506 C 532.599 5.89905 -0.420312 0
M  V30 5507 H 531.529 0.746741 0.104371 0
M  V30 5508 H 534.18 1.78014 -0.445324 0
M  V30 5509 H 532.562 3.73873 1.30518 0
M  V30 5510 H 533.736 4.36215 -1.48504 0
M  V30 5511 H 532.051 3.98997 -1.19123 0
M  V30 5512 H 534.648 5.18095 1.32219 0
M  V30 5513 H 534.991 3.62739 2.0427 0
M  V30 5514 H 535.524 3.96011 0.376824 0
M  V30 5515 H 532.263 6.41623 -1.34164 0
M  V30 5516 H 531.783 5.98962 0.316962 0
M  V30 5517 H 533.462 6.46991 -0.0331956 0
M  V30 5518 N 533.594 0.0601682 1.57485 0
M  V30 5519 C 534.822 -0.620937 1.97363 0
M  V30 5520 C 535.237 -1.63846 0.938082 0
M  V30 5521 O 534.594 -1.82339 -0.0766578 0
M  V30 5522 C 534.645 -1.29987 3.37321 0
M  V30 5523 O 534.366 -0.323081 4.36907 0
M  V30 5524 C 535.867 -2.06989 3.92008 0
M  V30 5525 H 533.087 -0.169135 0.649334 0
M  V30 5526 H 535.631 0.129132 2.04092 0
M  V30 5527 H 533.786 -2.0011 3.31715 0
M  V30 5528 H 534.2 -0.808754 5.18227 0
M  V30 5529 H 535.674 -2.49901 4.92192 0
M  V30 5530 H 536.151 -2.92173 3.2792 0
M  V30 5531 H 536.757 -1.41757 4.0098 0
M  V30 5532 N 535.072 -1.5615 -0.213296 0
M  V30 5533 C 536.022 -1.89485 -1.26804 0
M  V30 5534 C 537.006 -0.758713 -1.41889 0
M  V30 5535 O 538.198 -1.02127 -1.44565 0
M  V30 5536 C 535.327 -2.22219 -2.61675 0
M  V30 5537 C 534.413 -3.42245 -2.50458 0
M  V30 5538 N 534.804 -4.60645 -2.089 0
M  V30 5539 C 533.102 -3.46023 -2.81397 0
M  V30 5540 C 533.803 -5.42805 -2.09135 0
M  V30 5541 N 532.779 -4.82732 -2.49941 0
M  V30 5542 H 536.581 -2.78537 -0.937771 0
M  V30 5543 H 534.095 -1.56826 -0.421824 0
M  V30 5544 H 536.092 -2.44278 -3.37837 0
M  V30 5545 H 534.752 -1.34484 -2.95541 0
M  V30 5546 H 535.763 -4.85651 -1.79899 0
M  V30 5547 H 532.44 -2.68654 -3.1958 0
M  V30 5548 H 533.83 -6.47601 -1.79059 0
M  V30 5549 N 536.55 0.480323 -1.50102 0
M  V30 5550 C 537.961 1.06142 -1.53593 0
M  V30 5551 C 538.312 1.93335 -0.334055 0
M  V30 5552 O 537.437 2.09188 0.55403 0
M  V30 5553 C 538.032 1.9317 -2.78336 0
M  V30 5554 C 536.591 2.46405 -2.84538 0
M  V30 5555 C 535.738 1.24521 -2.4777 0
M  V30 5556 H 538.689 0.26333 -1.565 0
M  V30 5557 H 538.71 2.78123 -2.59669 0
M  V30 5558 H 538.222 1.29683 -3.65792 0
M  V30 5559 H 536.323 3.13472 -2.01411 0
M  V30 5560 H 536.436 2.82143 -3.87211 0
M  V30 5561 H 534.8 1.57706 -2.00003 0
M  V30 5562 H 535.583 0.627102 -3.37524 0
M  V30 5563 N 538.028 1.39524 0.732853 0
M  V30 5564 C 539.277 1.36175 1.48792 0
M  V30 5565 C 539.59 -0.0388195 1.95561 0
M  V30 5566 O 540.796 -0.194899 2.708 0
M  V30 5567 C 539.252 2.39242 2.68871 0
M  V30 5568 C 538.86 3.85024 2.29042 0
M  V30 5569 C 540.604 2.44972 3.46683 0
M  V30 5570 C 538.511 4.79727 3.45856 0
M  V30 5571 H 537.441 0.506267 0.558757 0
M  V30 5572 H 540.092 1.65181 0.799226 0
M  V30 5573 H 538.474 2.0331 3.39825 0
M  V30 5574 H 539.648 4.30008 1.6562 0
M  V30 5575 H 537.963 3.82609 1.64316 0
M  V30 5576 H 540.56 3.12918 4.33574 0
M  V30 5577 H 540.903 1.4749 3.89297 0
M  V30 5578 H 541.436 2.79808 2.82759 0
M  V30 5579 H 538.175 5.78479 3.08289 0
M  V30 5580 H 537.695 4.39421 4.08251 0
M  V30 5581 H 539.374 4.98731 4.12161 0
M  V30 5582 N 539.506 -0.963266 1.24736 0
M  V30 5583 C 540.917 -1.52145 1.08207 0
M  V30 5584 C 541.268 -1.93142 -0.345061 0
M  V30 5585 O 540.393 -1.77769 -1.23399 0
M  V30 5586 C 540.988 -2.76486 1.95808 0
M  V30 5587 C 539.547 -3.28646 1.8349 0
M  V30 5588 C 538.694 -2.01529 1.90476 0
M  V30 5589 H 541.645 -0.781083 1.38148 0
M  V30 5590 H 541.666 -3.49986 1.49297 0
M  V30 5591 H 541.178 -2.46617 2.99669 0
M  V30 5592 H 539.279 -3.63357 0.824787 0
M  V30 5593 H 539.392 -3.97246 2.67829 0
M  V30 5594 H 537.756 -2.16442 1.34258 0
M  V30 5595 H 538.539 -1.7402 2.95926 0
M  V30 5596 N 540.985 -1.06182 -1.16461 0
M  V30 5597 C 542.262 -0.691364 -1.82974 0
M  V30 5598 C 542.642 0.827377 -1.9421 0
M  V30 5599 O 541.99 1.73723 -1.48434 0
M  V30 5600 C 542.2 -1.39199 -3.20038 0
M  V30 5601 C 543.548 -1.53647 -3.95825 0
M  V30 5602 O 544.572 -1.35181 -3.29552 0
M  V30 5603 O 543.431 -1.83932 -5.14618 0
M  V30 5604 H 540.525 -0.244605 -0.789998 0
M  V30 5605 H 543.071 -1.16203 -1.23673 0
M  V30 5606 H 541.843 -2.42766 -3.06888 0
M  V30 5607 H 541.466 -0.911335 -3.87015 0
M  V30 5608 N 542.463 1.3308 -0.844243 0
M  V30 5609 C 543.393 2.3161 -0.296493 0
M  V30 5610 C 544.374 1.59215 0.598707 0
M  V30 5611 O 545.559 1.87077 0.521134 0
M  V30 5612 C 542.689 3.43313 0.524762 0
M  V30 5613 C 541.643 4.27115 -0.275106 0
M  V30 5614 C 540.969 5.30483 0.670236 0
M  V30 5615 C 542.269 5.00443 -1.49514 0
M  V30 5616 H 543.963 2.77672 -1.11976 0
M  V30 5617 H 541.509 1.33496 -0.539899 0
M  V30 5618 H 543.462 4.11273 0.918298 0
M  V30 5619 H 542.186 2.95952 1.3813 0
M  V30 5620 H 540.845 3.60787 -0.650267 0
M  V30 5621 H 540.493 4.79379 1.52332 0
M  V30 5622 H 540.193 5.87435 0.139123 0
M  V30 5623 H 541.717 6.01308 1.06117 0
M  V30 5624 H 543.131 5.61141 -1.17447 0
M  V30 5625 H 541.528 5.67071 -1.96343 0
M  V30 5626 H 542.598 4.28906 -2.26202 0
M  V30 5627 N 543.941 0.601185 1.45683 0
M  V30 5628 C 545.169 0.100054 2.06658 0
M  V30 5629 C 545.584 -1.21285 1.44691 0
M  V30 5630 O 544.941 -1.73735 0.558772 0
M  V30 5631 C 544.992 -0.0528579 3.61461 0
M  V30 5632 O 544.713 1.20809 4.21114 0
M  V30 5633 C 546.214 -0.586193 4.39407 0
M  V30 5634 H 543.434 0.065905 0.667756 0
M  V30 5635 H 545.978 0.827101 1.87028 0
M  V30 5636 H 544.133 -0.730203 3.80456 0
M  V30 5637 H 544.547 1.03368 5.14213 0
M  V30 5638 H 546.021 -0.642297 5.4825 0
M  V30 5639 H 546.498 -1.60713 4.0874 0
M  V30 5640 H 547.104 0.0568935 4.25262 0
M  V30 5641 N 545.419 -1.53889 0.339982 0
M  V30 5642 C 546.667 -2.00458 -0.257112 0
M  V30 5643 C 546.988 -1.22953 -1.51353 0
M  V30 5644 O 546.258 -0.335734 -1.93002 0
M  V30 5645 H 544.838 -0.740544 -0.0979965 0
M  V30 5646 H 547.5 -1.89386 0.460317 0
M  V30 5647 H 546.596 -3.08035 -0.502057 0
M  V30 5648 N 546.897 -0.0685191 -1.57451 0
M  V30 5649 C 548.127 0.609577 -1.97402 0
M  V30 5650 C 548.535 1.63882 -0.945489 0
M  V30 5651 O 547.878 1.8354 0.0766052 0
M  V30 5652 C 547.94 1.3385 -3.33653 0
M  V30 5653 C 547.604 0.463103 -4.54648 0
M  V30 5654 C 548.601 -0.277964 -5.19156 0
M  V30 5655 C 546.286 0.388941 -5.00792 0
M  V30 5656 C 548.28 -1.08145 -6.28159 0
M  V30 5657 C 545.967 -0.418217 -6.09667 0
M  V30 5658 C 546.965 -1.15208 -6.73213 0
M  V30 5659 O 546.653 -1.94594 -7.79993 0
M  V30 5660 H 546.385 0.170197 -0.654224 0
M  V30 5661 H 548.939 -0.13647 -2.04946 0
M  V30 5662 H 547.169 2.13055 -3.22714 0
M  V30 5663 H 548.858 1.90851 -3.58233 0
M  V30 5664 H 549.624 -0.230241 -4.84453 0
M  V30 5665 H 545.503 0.949769 -4.5111 0
M  V30 5666 H 549.047 -1.65476 -6.7769 0
M  V30 5667 H 544.944 -0.467515 -6.43805 0
M  V30 5668 H 545.712 -1.8699 -7.96854 0
M  V30 5669 N 548.375 1.56261 0.205012 0
M  V30 5670 C 549.624 1.79236 0.925058 0
M  V30 5671 C 549.937 0.640011 1.84833 0
M  V30 5672 O 551.143 0.753809 2.60826 0
M  V30 5673 C 549.599 3.17475 1.69522 0
M  V30 5674 C 549.207 4.40482 0.817269 0
M  V30 5675 C 550.951 3.49766 2.4055 0
M  V30 5676 C 548.858 5.69744 1.58573 0
M  V30 5677 H 547.788 0.668287 0.349153 0
M  V30 5678 H 550.439 1.82629 0.178544 0
M  V30 5679 H 548.821 3.08304 2.48526 0
M  V30 5680 H 549.995 4.60752 0.0665988 0
M  V30 5681 H 548.31 4.15827 0.218316 0
M  V30 5682 H 550.907 4.43573 2.98575 0
M  V30 5683 H 551.25 2.73041 3.14252 0
M  V30 5684 H 551.783 3.60341 1.68522 0
M  V30 5685 H 548.522 6.49407 0.891679 0
M  V30 5686 H 548.042 5.53509 2.31059 0
M  V30 5687 H 549.721 6.1051 2.14212 0
M  V30 5688 N 549.853 -0.472356 1.50355 0
M  V30 5689 C 551.081 -1.24784 1.65035 0
M  V30 5690 C 551.496 -1.85837 0.333176 0
M  V30 5691 O 550.853 -1.69168 -0.68472 0
M  V30 5692 C 550.904 -2.35747 2.74054 0
M  V30 5693 O 550.625 -1.77197 4.00665 0
M  V30 5694 C 552.126 -3.26645 2.99696 0
M  V30 5695 H 549.346 -0.377432 0.554785 0
M  V30 5696 H 551.89 -0.563962 1.9657 0
M  V30 5697 H 550.045 -2.99912 2.45217 0
M  V30 5698 H 550.459 -2.5026 4.60945 0
M  V30 5699 H 551.933 -4.00718 3.79644 0
M  V30 5700 H 552.41 -3.8535 2.10718 0
M  V30 5701 H 553.016 -2.68218 3.3006 0
M  V30 5702 N 551.331 -1.39911 -0.725443 0
M  V30 5703 C 552.241 -1.41688 -1.8698 0
M  V30 5704 C 553.257 -0.310579 -1.71206 0
M  V30 5705 O 554.433 -0.55359 -1.93642 0
M  V30 5706 C 551.498 -1.26811 -3.22676 0
M  V30 5707 C 550.559 -2.47497 -3.50776 0
M  V30 5708 C 549.792 -2.3332 -4.79997 0
M  V30 5709 O 550.015 -1.34175 -5.54394 0
M  V30 5710 O 548.949 -3.22498 -5.08211 0
M  V30 5711 H 552.775 -2.38171 -1.88436 0
M  V30 5712 H 550.36 -1.21128 -0.874548 0
M  V30 5713 H 552.242 -1.20684 -4.03749 0
M  V30 5714 H 550.917 -0.334289 -3.21969 0
M  V30 5715 H 549.824 -2.59201 -2.69751 0
M  V30 5716 H 551.157 -3.39606 -3.5627 0
M  V30 5717 N 552.809 0.956637 -1.25245 0
M  V30 5718 C 554.057 1.69764 -1.09657 0
M  V30 5719 C 554.378 1.91583 0.363464 0
M  V30 5720 O 553.648 1.50149 1.25825 0
M  V30 5721 H 552.228 0.629097 -0.402798 0
M  V30 5722 H 554.89 1.15026 -1.57337 0
M  V30 5723 H 553.986 2.67769 -1.60331 0
M  V30 5724 N 554.287 1.06798 1.15896 0
M  V30 5725 C 555.219 0.641263 2.20046 0
M  V30 5726 C 556.232 -0.303355 1.59949 0
M  V30 5727 O 557.421 -0.0935478 1.78255 0
M  V30 5728 C 554.521 -0.0794029 3.38807 0
M  V30 5729 C 553.694 0.879986 4.28457 0
M  V30 5730 C 552.753 0.197638 5.25829 0
M  V30 5731 O 551.779 0.836913 5.63014 0
M  V30 5732 N 552.981 -1.05886 5.70761 0
M  V30 5733 H 555.746 1.53718 2.57276 0
M  V30 5734 H 553.307 0.951951 1.30956 0
M  V30 5735 H 555.299 -0.546418 4.00994 0
M  V30 5736 H 553.869 -0.877193 3.0004 0
M  V30 5737 H 553.089 1.52625 3.63454 0
M  V30 5738 H 554.377 1.53065 4.8523 0
M  V30 5739 H 553.775 -1.59828 5.42652 0
M  V30 5740 H 552.332 -1.46965 6.35015 0
M  V30 5741 N 555.766 -1.3263 0.851289 0
M  V30 5742 C 557.015 -1.96633 0.449267 0
M  V30 5743 C 557.328 -1.68131 -0.999562 0
M  V30 5744 O 558.534 -2.25845 -1.50685 0
M  V30 5745 C 556.99 -3.51946 0.752446 0
M  V30 5746 C 556.598 -3.89311 2.21678 0
M  V30 5747 C 558.342 -4.22437 0.417983 0
M  V30 5748 C 556.249 -5.37655 2.46336 0
M  V30 5749 H 555.179 -0.735888 0.164269 0
M  V30 5750 H 557.83 -1.51073 1.0416 0
M  V30 5751 H 556.212 -3.95899 0.0895858 0
M  V30 5752 H 557.386 -3.56378 2.92115 0
M  V30 5753 H 555.701 -3.31836 2.51543 0
M  V30 5754 H 558.298 -5.31549 0.579674 0
M  V30 5755 H 558.641 -4.11349 -0.640115 0
M  V30 5756 H 559.174 -3.84057 1.03659 0
M  V30 5757 H 555.913 -5.5376 3.50757 0
M  V30 5758 H 555.433 -5.72005 1.80473 0
M  V30 5759 H 557.112 -6.04695 2.30115 0
M  V30 5760 N 557.244 -0.608902 -1.45362 0
M  V30 5761 C 558.474 -0.110852 -2.06302 0
M  V30 5762 C 558.882 1.21062 -1.45398 0
M  V30 5763 O 558.225 1.74861 -0.562976 0
M  V30 5764 C 558.287 0.101793 -3.59356 0
M  V30 5765 C 557.951 -1.13808 -4.42602 0
M  V30 5766 C 558.948 -2.05653 -4.77496 0
M  V30 5767 C 556.633 -1.36727 -4.83333 0
M  V30 5768 C 558.627 -3.18745 -5.51978 0
M  V30 5769 C 556.314 -2.5012 -5.57569 0
M  V30 5770 C 557.312 -3.40957 -5.91809 0
M  V30 5771 O 557 -4.52376 -6.64538 0
M  V30 5772 H 556.732 -0.0666001 -0.672711 0
M  V30 5773 H 559.286 -0.836942 -1.87575 0
M  V30 5774 H 557.516 0.88279 -3.76489 0
M  V30 5775 H 559.205 0.551607 -4.02134 0
M  V30 5776 H 559.971 -1.89172 -4.46586 0
M  V30 5777 H 555.85 -0.669216 -4.56117 0
M  V30 5778 H 559.394 -3.8967 -5.78622 0
M  V30 5779 H 555.291 -2.66553 -5.87894 0
M  V30 5780 H 556.059 -4.51075 -6.82989 0
M  V30 5781 N 558.722 1.53707 -0.348139 0
M  V30 5782 C 559.968 2.01286 0.247332 0
M  V30 5783 C 560.301 1.23546 1.49834 0
M  V30 5784 O 559.576 0.324331 1.91777 0
M  V30 5785 C 559.859 3.55768 0.556858 0
M  V30 5786 C 559.712 4.44216 -0.706564 0
M  V30 5787 C 561.031 4.1841 1.3646 0
M  V30 5788 H 558.15 0.731677 0.0884201 0
M  V30 5789 H 560.792 1.84106 -0.469584 0
M  V30 5790 H 558.942 3.70539 1.16761 0
M  V30 5791 H 560.614 4.41274 -1.34444 0
M  V30 5792 H 558.857 4.12892 -1.33052 0
M  V30 5793 H 559.528 5.50202 -0.445186 0
M  V30 5794 H 562.004 4.07365 0.848113 0
M  V30 5795 H 560.88 5.26563 1.54992 0
M  V30 5796 H 561.141 3.7333 2.36805 0
M  V30 5797 N 560.2 0.0768682 1.57412 0
M  V30 5798 C 561.477 -0.632359 1.85096 0
M  V30 5799 C 561.857 -1.87479 0.9703 0
M  V30 5800 O 561.205 -2.28469 0.0379062 0
M  V30 5801 C 561.415 -0.965174 3.35388 0
M  V30 5802 C 562.763 -1.33648 4.03018 0
M  V30 5803 O 563.787 -1.05675 3.40164 0
M  V30 5804 O 562.646 -1.85959 5.13889 0
M  V30 5805 H 559.74 -0.314574 0.764835 0
M  V30 5806 H 562.286 0.108184 1.69355 0
M  V30 5807 H 561.058 -0.0829745 3.91212 0
M  V30 5808 H 560.681 -1.76231 3.5641 0
M  V30 5809 N 561.678 -1.56367 -0.196722 0
M  V30 5810 C 563.094 -1.49916 -0.54749 0
M  V30 5811 C 563.294 -0.77659 -1.85934 0
M  V30 5812 O 562.35 -0.32644 -2.50381 0
M  V30 5813 C 563.663 -2.94577 -0.603734 0
M  V30 5814 C 565.211 -3.05239 -0.692677 0
M  V30 5815 C 565.686 -4.51308 -0.780046 0
M  V30 5816 N 567.177 -4.55453 -0.843616 0
M  V30 5817 C 567.912 -5.65786 -0.931358 0
M  V30 5818 N 567.408 -6.85812 -0.981503 0
M  V30 5819 N 569.201 -5.53695 -0.968421 0
M  V30 5820 H 561.352 -2.01761 0.663803 0
M  V30 5821 H 563.615 -0.918094 0.236238 0
M  V30 5822 H 563.321 -3.50494 0.29105 0
M  V30 5823 H 563.195 -3.47841 -1.45898 0
M  V30 5824 H 565.582 -2.49372 -1.57789 0
M  V30 5825 H 565.663 -2.55103 0.188736 0
M  V30 5826 H 565.307 -5.078 0.100811 0
M  V30 5827 H 565.237 -4.99176 -1.67724 0
M  V30 5828 H 567.728 -3.69025 -0.814176 0
M  V30 5829 H 568.041 -7.65648 -1.04892 0
M  V30 5830 H 566.386 -6.88474 -0.950208 0
M  V30 5831 H 569.577 -4.58848 -0.926072 0
M  V30 5832 H 569.75 -6.39708 -1.03334 0
M  V30 5833 N 563.156 0.464375 -1.50603 0
M  V30 5834 C 564.088 1.57916 -1.66118 0
M  V30 5835 C 565.101 1.53497 -0.54246 0
M  V30 5836 O 566.29 1.58763 -0.815877 0
M  V30 5837 C 563.39 2.96809 -1.63577 0
M  V30 5838 C 562.563 3.26026 -2.91592 0
M  V30 5839 C 561.622 4.44506 -2.81604 0
M  V30 5840 O 560.648 4.44484 -3.55559 0
M  V30 5841 N 561.85 5.46549 -1.95614 0
M  V30 5842 H 564.615 1.45022 -2.62276 0
M  V30 5843 H 562.176 0.652903 -1.48151 0
M  V30 5844 H 564.168 3.74048 -1.54499 0
M  V30 5845 H 562.738 3.03438 -0.751262 0
M  V30 5846 H 561.958 2.37337 -3.14746 0
M  V30 5847 H 563.246 3.42361 -3.76386 0
M  V30 5848 H 562.644 5.49391 -1.34854 0
M  V30 5849 H 561.201 6.22746 -1.92435 0
M  V30 5850 N 564.634 1.40294 0.718013 0
M  V30 5851 C 565.564 1.43118 1.84498 0
M  V30 5852 C 566.545 0.292403 1.67568 0
M  V30 5853 O 567.73 0.500675 1.87635 0
M  V30 5854 C 564.86 1.29065 3.22427 0
M  V30 5855 C 563.814 2.40521 3.54025 0
M  V30 5856 C 563.14 2.11546 4.91073 0
M  V30 5857 C 564.44 3.82859 3.55269 0
M  V30 5858 H 566.134 2.37432 1.82391 0
M  V30 5859 H 563.68 1.14283 0.87609 0
M  V30 5860 H 565.633 1.29658 4.00957 0
M  V30 5861 H 564.357 0.312271 3.25104 0
M  V30 5862 H 563.016 2.39173 2.77834 0
M  V30 5863 H 562.664 1.12104 4.90348 0
M  V30 5864 H 562.364 2.86216 5.1318 0
M  V30 5865 H 563.888 2.13817 5.71939 0
M  V30 5866 H 565.302 3.86044 4.23843 0
M  V30 5867 H 563.699 4.57029 3.88902 0
M  V30 5868 H 564.769 4.12617 2.54706 0
M  V30 5869 N 566.112 -0.949982 1.2575 0
M  V30 5870 C 567.062 -2.03297 1.03221 0
M  V30 5871 C 568.046 -1.60867 -0.0324751 0
M  V30 5872 O 569.238 -1.76047 0.183423 0
M  V30 5873 C 566.367 -3.36938 0.657841 0
M  V30 5874 C 565.453 -3.85878 1.75952 0
M  V30 5875 N 565.844 -4.0756 2.99547 0
M  V30 5876 C 564.142 -4.14709 1.64111 0
M  V30 5877 C 564.843 -4.47961 3.71087 0
M  V30 5878 N 563.819 -4.5416 2.98731 0
M  V30 5879 H 567.621 -2.1806 1.97045 0
M  V30 5880 H 565.135 -1.13516 1.16138 0
M  V30 5881 H 567.132 -4.14155 0.477614 0
M  V30 5882 H 565.792 -3.2355 -0.273025 0
M  V30 5883 H 566.803 -3.94501 3.35544 0
M  V30 5884 H 563.48 -4.10158 0.779527 0
M  V30 5885 H 564.87 -4.73002 4.77199 0
M  V30 5886 N 567.59 -1.07411 -1.15328 0
M  V30 5887 C 568.538 -0.689316 -2.22151 0
M  V30 5888 C 569.532 0.300156 -1.6672 0
M  V30 5889 O 570.738 0.163804 -1.79253 0
M  V30 5890 H 567.113 -0.204834 -0.723566 0
M  V30 5891 H 569.084 -1.59988 -2.51886 0
M  V30 5892 C 567.833 -0.103848 -3.47545 0
M  V30 5893 H 567.156 -0.856367 -3.90521 0
M  V30 5894 H 568.596 0.127725 -4.23808 0
M  V30 5895 C 567.055 1.15563 -3.1646 0
M  V30 5896 O 567.585 2.242 -3.33312 0
M  V30 5897 N 565.791 1.06203 -2.70498 0
M  V30 5898 H 565.338 0.177933 -2.56985 0
M  V30 5899 H 565.296 1.90553 -2.50074 0
M  V30 5900 N 569.068 1.32177 -0.85831 0
M  V30 5901 C 570.484 1.49873 -0.548656 0
M  V30 5902 C 570.684 1.79278 0.919874 0
M  V30 5903 O 569.74 1.86451 1.70271 0
M  V30 5904 C 571.053 2.64043 -1.4388 0
M  V30 5905 C 572.601 2.77928 -1.43961 0
M  V30 5906 C 573.076 3.95182 -2.31506 0
M  V30 5907 N 574.567 4.0245 -2.29321 0
M  V30 5908 C 575.302 4.9242 -2.93786 0
M  V30 5909 N 574.798 5.87373 -3.67376 0
M  V30 5910 N 576.591 4.85572 -2.83155 0
M  V30 5911 H 568.742 1.11357 -1.80868 0
M  V30 5912 H 571.005 0.549175 -0.772729 0
M  V30 5913 H 570.711 2.49055 -2.48324 0
M  V30 5914 H 570.585 3.59912 -1.12885 0
M  V30 5915 H 572.972 2.92338 -0.402813 0
M  V30 5916 H 573.053 1.82762 -1.78974 0
M  V30 5917 H 572.697 3.81531 -3.35256 0
M  V30 5918 H 572.627 4.89633 -1.93823 0
M  V30 5919 H 575.118 3.34507 -1.75822 0
M  V30 5920 H 575.431 6.52728 -4.13722 0
M  V30 5921 H 573.776 5.87388 -3.71484 0
M  V30 5922 H 576.967 4.10363 -2.25211 0
M  V30 5923 H 577.14 5.55486 -3.33676 0
M  V30 5924 N 570.547 0.616602 1.45037 0
M  V30 5925 C 571.479 -0.135186 2.28801 0
M  V30 5926 C 572.492 -0.82303 1.40464 0
M  V30 5927 O 573.681 -0.686909 1.64754 0
M  V30 5928 C 570.781 -1.21292 3.16451 0
M  V30 5929 C 569.954 -0.61043 4.3312 0
M  V30 5930 C 569.013 -1.58022 5.01912 0
M  V30 5931 O 568.039 -1.10301 5.58411 0
M  V30 5932 N 569.241 -2.91464 5.02025 0
M  V30 5933 H 572.006 0.583612 2.93963 0
M  V30 5934 H 569.567 0.456723 1.55324 0
M  V30 5935 H 571.559 -1.86169 3.59337 0
M  V30 5936 H 570.129 -1.83412 2.53138 0
M  V30 5937 H 569.349 0.216638 3.93604 0
M  V30 5938 H 570.637 -0.188293 5.08451 0
M  V30 5939 H 570.035 -3.32829 4.57429 0
M  V30 5940 H 568.592 -3.51741 5.48745 0
M  V30 5941 N 572.025 -1.5352 0.356285 0
M  V30 5942 C 573.274 -2.00298 -0.237373 0
M  V30 5943 C 573.587 -1.24784 -1.50627 0
M  V30 5944 O 574.793 -1.62103 -2.17795 0
M  V30 5945 C 573.249 -3.56771 -0.473545 0
M  V30 5946 C 572.857 -4.41154 0.780183 0
M  V30 5947 C 574.601 -4.1193 -1.02537 0
M  V30 5948 C 572.508 -5.89161 0.514108 0
M  V30 5949 H 571.438 -0.748307 -0.092478 0
M  V30 5950 H 574.089 -1.77283 0.473588 0
M  V30 5951 H 572.471 -3.75902 -1.24553 0
M  V30 5952 H 573.645 -4.33797 1.55425 0
M  V30 5953 H 571.96 -3.97052 1.25455 0
M  V30 5954 H 574.557 -5.20133 -1.2396 0
M  V30 5955 H 574.9 -3.65943 -1.98473 0
M  V30 5956 H 575.433 -3.96561 -0.313775 0
M  V30 5957 H 572.172 -6.39408 1.44355 0
M  V30 5958 H 571.692 -5.9939 -0.221632 0
M  V30 5959 H 573.371 -6.46857 0.136122 0
M  V30 5960 N 573.503 -0.0852151 -1.57369 0
M  V30 5961 C 574.733 0.588605 -1.98038 0
M  V30 5962 C 575.141 1.62869 -0.962817 0
M  V30 5963 O 574.484 1.83611 0.057134 0
M  V30 5964 C 574.546 1.30303 -3.35054 0
M  V30 5965 C 574.21 0.414855 -4.55113 0
M  V30 5966 C 575.207 -0.333011 -5.18832 0
M  V30 5967 C 572.892 0.335804 -5.01176 0
M  V30 5968 C 574.886 -1.14801 -6.26976 0
M  V30 5969 C 572.573 -0.482857 -6.09189 0
M  V30 5970 C 573.571 -1.22342 -6.71953 0
M  V30 5971 O 573.259 -2.02855 -7.77885 0
M  V30 5972 H 572.991 0.163249 -0.655992 0
M  V30 5973 H 575.545 -0.1582 -2.0479 0
M  V30 5974 H 573.775 2.0962 -3.24956 0
M  V30 5975 H 575.464 1.87041 -3.60237 0
M  V30 5976 H 576.23 -0.281611 -4.84182 0
M  V30 5977 H 572.109 0.901869 -4.52092 0
M  V30 5978 H 575.653 -1.72654 -6.75897 0
M  V30 5979 H 571.55 -0.535773 -6.43273 0
M  V30 5980 H 572.318 -1.95432 -7.94826 0
M  V30 5981 N 574.981 1.5647 0.188427 0
M  V30 5982 C 576.392 1.70864 0.752494 0
M  V30 5983 C 576.743 0.692905 1.83557 0
M  V30 5984 O 575.868 -0.149307 2.15884 0
M  V30 5985 C 576.463 3.09789 1.37173 0
M  V30 5986 C 575.022 3.25925 1.88281 0
M  V30 5987 C 574.169 2.66817 0.755259 0
M  V30 5988 H 577.12 1.58657 -0.0367408 0
M  V30 5989 H 577.141 3.07489 2.24122 0
M  V30 5990 H 576.653 3.83693 0.583219 0
M  V30 5991 H 574.754 2.56948 2.6983 0
M  V30 5992 H 574.867 4.33498 2.04001 0
M  V30 5993 H 573.231 2.2617 1.17128 0
M  V30 5994 H 574.014 3.43294 -0.0211237 0
M  V30 5995 N 576.459 -0.456382 1.50847 0
M  V30 5996 C 577.87 -1.03685 1.55262 0
M  V30 5997 C 578.221 -1.92779 0.364771 0
M  V30 5998 O 577.346 -2.10043 -0.52068 0
M  V30 5999 C 577.941 -1.88718 2.81374 0
M  V30 6000 C 576.5 -2.41847 2.88422 0
M  V30 6001 C 575.647 -1.20564 2.49719 0
M  V30 6002 H 578.598 -0.238399 1.56899 0
M  V30 6003 H 578.619 -2.73957 2.6406 0
M  V30 6004 H 578.131 -1.23847 3.67809 0
M  V30 6005 H 576.232 -3.10228 2.06372 0
M  V30 6006 H 576.345 -2.75947 3.9165 0
M  V30 6007 H 574.709 -1.54504 2.02486 0
M  V30 6008 H 575.492 -0.573326 3.38479 0
M  V30 6009 N 577.937 -1.40673 -0.710563 0
M  V30 6010 C 579.186 -1.38525 -1.46607 0
M  V30 6011 C 579.499 0.0077024 -1.95598 0
M  V30 6012 O 580.705 0.151792 -2.71075 0
M  V30 6013 C 579.161 -2.43489 -2.6503 0
M  V30 6014 C 578.769 -3.88619 -2.22888 0
M  V30 6015 C 580.513 -2.50456 -3.42742 0
M  V30 6016 C 578.42 -4.85168 -3.3818 0
M  V30 6017 H 577.35 -0.515092 -0.550632 0
M  V30 6018 H 580.001 -1.66431 -0.772846 0
M  V30 6019 H 578.383 -2.0869 -3.36548 0
M  V30 6020 H 579.557 -4.32588 -1.58758 0
M  V30 6021 H 577.872 -3.85174 -1.58208 0
M  V30 6022 H 580.469 -3.19776 -4.28541 0
M  V30 6023 H 580.812 -1.53665 -3.86902 0
M  V30 6024 H 581.345 -2.84271 -2.78271 0
M  V30 6025 H 578.084 -5.8331 -2.99047 0
M  V30 6026 H 577.604 -4.4586 -4.01209 0
M  V30 6027 H 579.283 -5.05225 -4.04174 0
M  V30 6028 N 579.415 0.9433 -1.26252 0
M  V30 6029 C 580.363 2.06302 -1.07434 0
M  V30 6030 C 581.357 1.694 -0.00189471 0
M  V30 6031 O 582.563 1.79302 -0.158408 0
M  V30 6032 H 578.938 0.675453 -0.330556 0
M  V30 6033 H 580.909 2.19326 -2.02333 0
M  V30 6034 C 579.658 3.40125 -0.721817 0
M  V30 6035 H 578.981 3.68996 -1.5389 0
M  V30 6036 H 580.421 4.19295 -0.629922 0
M  V30 6037 C 578.88 3.31993 0.572902 0
M  V30 6038 O 579.41 3.67945 1.61182 0
M  V30 6039 N 577.616 2.85099 0.562748 0
M  V30 6040 H 577.163 2.5604 -0.283092 0
M  V30 6041 H 577.121 2.80041 1.42915 0
M  V30 6042 N 580.893 1.08022 1.14757 0
M  V30 6043 C 582.139 0.808705 1.85978 0
M  V30 6044 C 582.472 -0.663764 1.82504 0
M  V30 6045 O 581.747 -1.48765 1.25296 0
M  V30 6046 C 582.03 1.32623 3.34788 0
M  V30 6047 C 581.883 2.86375 3.46856 0
M  V30 6048 C 583.202 0.948291 4.29762 0
M  V30 6049 H 580.321 0.295244 0.675278 0
M  V30 6050 H 582.963 1.33917 1.34783 0
M  V30 6051 H 581.113 0.875002 3.78518 0
M  V30 6052 H 582.785 3.39839 3.11941 0
M  V30 6053 H 581.028 3.24232 2.88194 0
M  V30 6054 H 581.699 3.17658 4.51439 0
M  V30 6055 H 584.175 1.33722 3.94028 0
M  V30 6056 H 583.051 1.33765 5.32352 0
M  V30 6057 H 583.312 -0.145094 4.41862 0
M  V30 6058 N 582.371 -1.3172 0.865308 0
M  V30 6059 C 583.301 -2.31109 0.333302 0
M  V30 6060 C 584.282 -1.60148 -0.573301 0
M  V30 6061 O 585.467 -1.87882 -0.491305 0
M  V30 6062 C 582.597 -3.44104 -0.470078 0
M  V30 6063 C 581.551 -4.26623 0.343021 0
M  V30 6064 C 580.877 -5.31482 -0.585756 0
M  V30 6065 C 582.177 -4.98001 1.57456 0
M  V30 6066 H 583.871 -2.75855 1.1638 0
M  V30 6067 H 581.417 -1.3262 0.561069 0
M  V30 6068 H 583.37 -4.12682 -0.852752 0
M  V30 6069 H 582.094 -2.98112 -1.33404 0
M  V30 6070 H 580.753 -3.59707 0.707583 0
M  V30 6071 H 580.401 -4.81741 -1.44686 0
M  V30 6072 H 580.101 -5.87582 -0.0456494 0
M  V30 6073 H 581.625 -6.0292 -0.965375 0
M  V30 6074 H 583.039 -5.59201 1.26359 0
M  V30 6075 H 581.436 -5.63876 2.05339 0
M  V30 6076 H 582.506 -4.25253 2.32997 0
M  V30 6077 N 583.85 -0.624285 -1.44708 0
M  V30 6078 C 585.26 -0.2092 -1.85524 0
M  V30 6079 C 585.611 1.23783 -1.52225 0
M  V30 6080 O 584.736 1.94089 -0.956986 0
M  V30 6081 C 585.332 -0.372897 -3.36742 0
M  V30 6082 C 583.891 -0.012374 -3.76398 0
M  V30 6083 C 583.038 -0.68951 -2.68591 0
M  V30 6084 H 585.989 -0.829894 -1.35272 0
M  V30 6085 H 586.01 0.390134 -3.78495 0
M  V30 6086 H 585.522 -1.42615 -3.60947 0
M  V30 6087 H 583.623 1.03941 -3.57809 0
M  V30 6088 H 583.736 -0.417663 -4.77276 0
M  V30 6089 H 582.1 -0.125484 -2.54391 0
M  V30 6090 H 582.883 -1.74522 -2.9563 0
M  V30 6091 N 585.328 1.53329 -0.364422 0
M  V30 6092 C 586.553 2.06132 0.229033 0
M  V30 6093 C 586.978 1.23625 1.41769 0
M  V30 6094 O 586.336 0.255038 1.79497 0
M  V30 6095 C 586.384 3.55544 0.60174 0
M  V30 6096 O 585.488 3.75771 1.69912 0
M  V30 6097 H 584.829 0.663148 0.0336213 0
M  V30 6098 H 587.359 1.97758 -0.524689 0
M  V30 6099 H 587.369 3.98549 0.873073 0
M  V30 6100 H 586.044 4.15039 -0.267421 0
M  V30 6101 H 584.621 3.44663 1.42343 0
M  V30 6102 N 586.806 0.0935595 1.57322 0
M  V30 6103 C 587.736 -0.863062 2.16964 0
M  V30 6104 C 588.717 -1.29528 1.10256 0
M  V30 6105 O 589.902 -1.36245 1.38387 0
M  V30 6106 C 587.032 -2.12276 2.74875 0
M  V30 6107 C 585.986 -1.82921 3.86942 0
M  V30 6108 C 585.312 -3.15707 4.31548 0
M  V30 6109 C 586.612 -1.11737 5.10208 0
M  V30 6110 H 588.306 -0.366145 2.97153 0
M  V30 6111 H 585.852 -0.174673 1.42937 0
M  V30 6112 H 587.805 -2.79634 3.1525 0
M  V30 6113 H 586.529 -2.64248 1.91938 0
M  V30 6114 H 585.188 -1.17961 3.47103 0
M  V30 6115 H 584.836 -3.65563 3.45504 0
M  V30 6116 H 584.536 -2.96849 5.07104 0
M  V30 6117 H 586.06 -3.84226 4.74555 0
M  V30 6118 H 587.474 -1.69203 5.47762 0
M  V30 6119 H 585.871 -1.03064 5.91183 0
M  V30 6120 H 586.941 -0.0998818 4.84797 0
M  V30 6121 N 588.284 -1.56567 -0.180126 0
M  V30 6122 C 589.509 -1.85975 -0.918041 0
M  V30 6123 C 589.934 -0.678888 -1.75422 0
M  V30 6124 O 589.292 0.372168 -1.77439 0
M  V30 6125 C 589.34 -3.13731 -1.77779 0
M  V30 6126 O 588.444 -2.95335 -2.87838 0
M  V30 6127 H 587.785 -0.61196 -0.257683 0
M  V30 6128 H 590.315 -2.03798 -0.180923 0
M  V30 6129 H 590.325 -3.4491 -2.17948 0
M  V30 6130 H 589 -3.99293 -1.16352 0
M  V30 6131 H 587.577 -2.7549 -2.51316 0
M  V30 6132 N 589.762 0.448376 -1.51087 0
M  V30 6133 C 591.178 0.783984 -1.39017 0
M  V30 6134 C 591.378 1.96087 -0.463904 0
M  V30 6135 O 590.434 2.52357 0.0850534 0
M  V30 6136 C 591.747 1.07471 -2.80839 0
M  V30 6137 C 593.295 1.17981 -2.89913 0
M  V30 6138 C 593.77 1.50354 -4.32617 0
M  V30 6139 N 595.261 1.57301 -4.35673 0
M  V30 6140 C 595.996 1.839 -5.4311 0
M  V30 6141 N 595.492 2.08365 -6.60724 0
M  V30 6142 N 597.285 1.8559 -5.30578 0
M  V30 6143 H 589.436 -0.326881 -2.0987 0
M  V30 6144 H 591.699 -0.0838006 -0.944289 0
M  V30 6145 H 591.405 0.282768 -3.50561 0
M  V30 6146 H 591.279 2.00519 -3.19487 0
M  V30 6147 H 593.666 1.9624 -2.20395 0
M  V30 6148 H 593.747 0.228603 -2.54776 0
M  V30 6149 H 593.391 0.726273 -5.0268 0
M  V30 6150 H 593.321 2.46663 -4.65258 0
M  V30 6151 H 595.812 1.40342 -3.50874 0
M  V30 6152 H 596.125 2.27999 -7.38401 0
M  V30 6153 H 594.47 2.0571 -6.63859 0
M  V30 6154 H 597.661 1.65989 -4.37682 0
M  V30 6155 H 597.834 2.05983 -6.1439 0
M  V30 6156 N 591.24 1.41047 0.703093 0
M  V30 6157 C 592.17 1.45067 1.82969 0
M  V30 6158 C 593.151 0.31016 1.67248 0
M  V30 6159 O 594.336 0.520548 1.87093 0
M  V30 6160 C 591.466 1.32478 3.2104 0
M  V30 6161 C 590.42 2.44262 3.51454 0
M  V30 6162 C 589.746 2.16742 4.88801 0
M  V30 6163 C 591.046 3.86606 3.51189 0
M  V30 6164 H 592.74 2.39353 1.79863 0
M  V30 6165 H 590.286 1.15206 0.863919 0
M  V30 6166 H 592.239 1.33904 3.99559 0
M  V30 6167 H 590.963 0.346735 3.24754 0
M  V30 6168 H 589.622 2.42107 2.75282 0
M  V30 6169 H 589.27 1.17299 4.89132 0
M  V30 6170 H 588.97 2.91643 5.10116 0
M  V30 6171 H 590.494 2.19872 5.69639 0
M  V30 6172 H 591.908 3.90517 4.19725 0
M  V30 6173 H 590.305 4.61128 3.84033 0
M  V30 6174 H 591.375 4.15296 2.50315 0
M  V30 6175 N 592.718 -0.936591 1.26751 0
M  V30 6176 C 593.651 -2.03619 1.03027 0
M  V30 6177 C 594.629 -1.62534 -0.0464619 0
M  V30 6178 O 595.813 -1.88251 0.0968873 0
M  V30 6179 C 592.94 -3.3402 0.561072 0
M  V30 6180 C 591.986 -3.9408 1.63105 0
M  V30 6181 S 592.819 -4.27782 3.22122 0
M  V30 6182 C 593.975 -5.61277 2.76982 0
M  V30 6183 H 594.208 -2.23429 1.96129 0
M  V30 6184 H 591.741 -1.07857 1.10482 0
M  V30 6185 H 593.699 -4.09424 0.297031 0
M  V30 6186 H 592.36 -3.12147 -0.349741 0
M  V30 6187 H 591.553 -4.88154 1.25386 0
M  V30 6188 H 591.155 -3.25227 1.84671 0
M  V30 6189 H 593.447 -6.40189 2.21731 0
M  V30 6190 H 594.39 -6.03887 3.69766 0
M  V30 6191 H 594.798 -5.21374 2.16402 0
M  V30 6192 N 594.196 -1.08629 -1.14182 0
M  V30 6193 C 595.143 -0.718299 -2.19338 0
M  V30 6194 C 596.113 0.296587 -1.63431 0
M  V30 6195 O 597.298 0.180079 -1.89948 0
M  V30 6196 C 594.438 -0.136203 -3.44831 0
M  V30 6197 C 593.551 -1.20414 -4.14879 0
M  V30 6198 C 592.686 -0.585666 -5.27962 0
M  V30 6199 C 591.725 -1.63548 -5.89846 0
M  V30 6200 N 590.862 -1.03864 -6.94375 0
M  V30 6201 H 595.702 -1.61932 -2.50164 0
M  V30 6202 H 593.239 -0.80919 -1.22844 0
M  V30 6203 H 595.197 0.219021 -4.16625 0
M  V30 6204 H 593.827 0.728121 -3.14481 0
M  V30 6205 H 592.879 -1.67676 -3.41451 0
M  V30 6206 H 594.191 -1.99959 -4.56966 0
M  V30 6207 H 593.345 -0.178818 -6.06436 0
M  V30 6208 H 592.084 0.24142 -4.87102 0
M  V30 6209 H 591.089 -2.05197 -5.10073 0
M  V30 6210 H 592.314 -2.46509 -6.3278 0
M  V30 6211 H 590.26 -0.232687 -6.55587 0
M  V30 6212 H 590.177 -1.77116 -7.3496 0
M  V30 6213 H 591.445 -0.657724 -7.7672 0
M  V30 6214 N 595.674 1.31259 -0.872281 0
M  V30 6215 C 596.899 2.0133 -0.498099 0
M  V30 6216 C 597.324 1.65031 0.902568 0
M  V30 6217 O 596.682 0.860164 1.59596 0
M  V30 6218 C 596.73 3.54411 -0.665205 0
M  V30 6219 O 595.834 4.11347 0.294473 0
M  V30 6220 H 595.175 0.633844 -0.197832 0
M  V30 6221 H 597.705 1.67402 -1.17633 0
M  V30 6222 H 597.715 4.04147 -0.559373 0
M  V30 6223 H 596.39 3.80171 -1.68651 0
M  V30 6224 H 594.967 3.72624 0.143403 0
M  V30 6225 N 597.152 0.631951 1.44375 0
M  V30 6226 C 598.115 -0.0628142 2.29114 0
M  V30 6227 C 599.115 -0.771494 1.41084 0
M  V30 6228 O 600.305 -0.615959 1.62947 0
M  V30 6229 C 597.437 -1.09953 3.22681 0
M  V30 6230 H 598.63 0.682509 2.92031 0
M  V30 6231 H 596.183 0.392128 1.51301 0
M  V30 6232 H 596.918 -1.87481 2.64616 0
M  V30 6233 H 596.703 -0.595286 3.87555 0
M  V30 6234 H 598.193 -1.58538 3.86336 0
M  V30 6235 N 598.631 -1.53133 0.372548 0
M  V30 6236 C 599.88 -2.00539 -0.216115 0
M  V30 6237 C 600.193 -1.26374 -1.49295 0
M  V30 6238 O 601.399 -1.64404 -2.16064 0
M  V30 6239 C 599.855 -3.57253 -0.435678 0
M  V30 6240 C 599.463 -4.40302 0.82693 0
M  V30 6241 C 601.207 -4.12995 -0.981618 0
M  V30 6242 C 599.114 -5.88583 0.576567 0
M  V30 6243 H 598.044 -0.749246 -0.084536 0
M  V30 6244 H 600.695 -1.76771 0.492364 0
M  V30 6245 H 599.077 -3.77202 -1.20559 0
M  V30 6246 H 600.251 -4.32124 1.60017 0
M  V30 6247 H 598.566 -3.95699 1.29659 0
M  V30 6248 H 601.163 -5.21418 -1.18436 0
M  V30 6249 H 601.506 -3.68027 -1.94581 0
M  V30 6250 H 602.039 -3.96871 -0.271696 0
M  V30 6251 H 598.778 -6.37841 1.51128 0
M  V30 6252 H 598.298 -5.99592 -0.158047 0
M  V30 6253 H 599.977 -6.46676 0.204722 0
M  V30 6254 N 600.109 -0.101901 -1.5727 0
M  V30 6255 C 601.357 0.559091 -1.94213 0
M  V30 6256 C 601.678 1.68297 -0.984948 0
M  V30 6257 O 600.948 1.95863 -0.0381975 0
M  V30 6258 H 599.528 0.20952 -0.717015 0
M  V30 6259 H 602.19 -0.166831 -1.94185 0
M  V30 6260 H 601.286 0.96485 -2.96811 0
M  V30 6261 N 601.587 1.56661 0.17182 0
M  V30 6262 C 602.497 1.99604 1.2327 0
M  V30 6263 C 603.513 0.907333 1.4847 0
M  V30 6264 O 604.689 1.21492 1.60629 0
M  V30 6265 C 601.754 2.34685 2.55194 0
M  V30 6266 C 600.815 3.57381 2.3786 0
M  V30 6267 C 600.048 3.90779 3.63494 0
M  V30 6268 O 600.271 3.25152 4.6865 0
M  V30 6269 O 599.205 4.84129 3.57634 0
M  V30 6270 H 603.031 2.90114 0.898192 0
M  V30 6271 H 600.616 1.44522 0.378647 0
M  V30 6272 H 602.498 2.5822 3.33017 0
M  V30 6273 H 601.173 1.47336 2.88225 0
M  V30 6274 H 600.08 3.39064 1.5807 0
M  V30 6275 H 601.413 4.45268 2.09754 0
M  V30 6276 N 603.065 -0.440357 1.51323 0
M  V30 6277 C 604.313 -1.18769 1.63518 0
M  V30 6278 C 604.634 -1.91793 0.352201 0
M  V30 6279 O 603.904 -1.85432 -0.631811 0
M  V30 6280 H 602.484 -0.441408 0.602634 0
M  V30 6281 H 605.146 -0.505162 1.8824 0
M  V30 6282 H 604.242 -1.91892 2.46138 0
M  V30 6283 N 604.543 -1.41418 -0.695603 0
M  V30 6284 C 605.476 -1.3768 -1.81988 0
M  V30 6285 C 606.454 -0.244061 -1.60758 0
M  V30 6286 O 607.638 -0.430965 -1.83507 0
M  V30 6287 C 604.765 -1.1476 -3.18666 0
M  V30 6288 C 603.811 -2.30752 -3.58686 0
M  V30 6289 S 604.644 -3.9323 -3.63498 0
M  V30 6290 C 605.8 -3.72613 -5.02902 0
M  V30 6291 H 606.033 -2.32822 -1.84882 0
M  V30 6292 H 603.566 -1.27942 -0.86431 0
M  V30 6293 H 605.524 -1.02223 -3.97569 0
M  V30 6294 H 604.185 -0.212385 -3.13381 0
M  V30 6295 H 603.378 -2.10409 -4.57978 0
M  V30 6296 H 602.98 -2.39696 -2.87092 0
M  V30 6297 H 605.272 -3.32317 -5.904 0
M  V30 6298 H 606.215 -4.71507 -5.28286 0
M  V30 6299 H 606.623 -3.0589 -4.74438 0
M  V30 6300 N 606.021 0.929856 -1.27246 0
M  V30 6301 C 607.249 1.71144 -1.16265 0
M  V30 6302 C 607.664 1.867 0.280786 0
M  V30 6303 O 607.021 1.38249 1.19136 0
M  V30 6304 C 607.072 3.11222 -1.83911 0
M  V30 6305 O 606.793 2.96398 -3.22614 0
M  V30 6306 C 608.294 4.05541 -1.79028 0
M  V30 6307 H 605.514 0.535499 -0.404328 0
M  V30 6308 H 608.058 1.16492 -1.68077 0
M  V30 6309 H 606.213 3.6274 -1.36009 0
M  V30 6310 H 606.627 3.8494 -3.56261 0
M  V30 6311 H 608.101 5.01351 -2.30978 0
M  V30 6312 H 608.578 4.32589 -0.759168 0
M  V30 6313 H 609.184 3.59947 -2.26535 0
M  V30 6314 N 607.499 1.09233 1.13605 0
M  V30 6315 C 608.915 0.82163 1.36826 0
M  V30 6316 C 609.115 -0.565021 1.93416 0
M  V30 6317 O 608.171 -1.32026 2.15234 0
M  V30 6318 C 609.484 1.91124 2.32147 0
M  V30 6319 C 611.032 1.93824 2.45767 0
M  V30 6320 C 611.507 3.01923 3.44393 0
M  V30 6321 N 612.998 3.01149 3.51942 0
M  V30 6322 C 613.733 3.81434 4.2813 0
M  V30 6323 N 613.229 4.71621 5.07489 0
M  V30 6324 N 615.022 3.69702 4.23411 0
M  V30 6325 H 607.173 1.98633 0.752234 0
M  V30 6326 H 609.436 0.862482 0.393482 0
M  V30 6327 H 609.142 2.90862 1.97717 0
M  V30 6328 H 609.016 1.78777 3.32142 0
M  V30 6329 H 611.403 0.94726 2.79483 0
M  V30 6330 H 611.484 2.10248 1.45703 0
M  V30 6331 H 611.128 4.01232 3.11408 0
M  V30 6332 H 611.058 2.82742 4.44257 0
M  V30 6333 H 613.549 2.35789 2.95317 0
M  V30 6334 H 613.862 5.29468 5.62924 0
M  V30 6335 H 612.207 4.75658 5.06729 0
M  V30 6336 H 615.398 2.98606 3.60489 0
M  V30 6337 H 615.571 4.32509 4.82535 0
M  V30 6338 N 608.977 -1.30795 0.87923 0
M  V30 6339 C 609.924 -2.28282 0.339968 0
M  V30 6340 C 610.894 -1.56134 -0.566685 0
M  V30 6341 O 612.079 -1.84231 -0.496338 0
M  V30 6342 C 609.219 -3.42225 -0.444501 0
M  V30 6343 C 608.332 -4.29204 0.490717 0
M  V30 6344 C 607.467 -5.30302 -0.308784 0
M  V30 6345 C 606.506 -6.08929 0.622272 0
M  V30 6346 N 605.643 -7.01957 -0.14155 0
M  V30 6347 H 610.483 -2.73794 1.17647 0
M  V30 6348 H 608.02 -1.34682 0.591527 0
M  V30 6349 H 609.978 -4.07038 -0.915186 0
M  V30 6350 H 608.608 -2.97799 -1.24562 0
M  V30 6351 H 607.66 -3.6475 1.07988 0
M  V30 6352 H 608.972 -4.84045 1.20425 0
M  V30 6353 H 608.126 -6.00835 -0.841575 0
M  V30 6354 H 606.865 -4.7614 -1.05556 0
M  V30 6355 H 605.87 -5.37278 1.16674 0
M  V30 6356 H 607.095 -6.65178 1.36804 0
M  V30 6357 H 605.041 -6.50192 -0.870966 0
M  V30 6358 H 604.958 -7.54261 0.51246 0
M  V30 6359 H 606.226 -7.76741 -0.655271 0
M  V30 6360 N 610.455 -0.639598 -1.44038 0
M  V30 6361 C 611.732 -0.078012 -1.95444 0
M  V30 6362 C 612.112 1.39847 -1.58133 0
M  V30 6363 O 611.46 2.11714 -0.859614 0
M  V30 6364 C 611.67 -0.309832 -3.47622 0
M  V30 6365 C 613.018 -0.207521 -4.24093 0
M  V30 6366 O 614.042 -0.241653 -3.55379 0
M  V30 6367 O 612.901 -0.119641 -5.46369 0
M  V30 6368 H 609.995 0.0174534 -0.826816 0
M  V30 6369 H 612.541 -0.711891 -1.54046 0
M  V30 6370 H 611.313 -1.33401 -3.67858 0
M  V30 6371 H 610.936 0.357777 -3.95987 0
M  V30 6372 N 611.933 1.52934 -0.380664 0
M  V30 6373 C 612.883 2.22989 0.475399 0
M  V30 6374 C 613.867 1.23058 1.03661 0
M  V30 6375 O 615.059 1.48436 0.964146 0
M  V30 6376 C 612.188 3.0338 1.60671 0
M  V30 6377 C 611.274 4.107 1.05766 0
M  V30 6378 N 611.665 5.05264 0.232837 0
M  V30 6379 C 609.963 4.25676 1.33101 0
M  V30 6380 C 610.664 5.81658 -0.0695134 0
M  V30 6381 N 609.64 5.40989 0.532144 0
M  V30 6382 H 613.442 2.93456 -0.161418 0
M  V30 6383 H 610.956 1.61291 -0.189495 0
M  V30 6384 H 612.953 3.52098 2.23232 0
M  V30 6385 H 611.613 2.34446 2.24644 0
M  V30 6386 H 612.624 5.17739 -0.129204 0
M  V30 6387 H 609.301 3.6797 1.97241 0
M  V30 6388 H 610.691 6.67843 -0.737269 0
M  V30 6389 N 613.412 0.11024 1.57214 0
M  V30 6390 C 614.375 -0.828808 2.1369 0
M  V30 6391 C 615.375 -1.20059 1.06969 0
M  V30 6392 O 616.565 -1.12754 1.32786 0
M  V30 6393 C 613.697 -2.11959 2.66994 0
M  V30 6394 H 614.89 -0.338146 2.97988 0
M  V30 6395 H 612.443 -0.138913 1.55681 0
M  V30 6396 H 613.178 -2.65476 1.8626 0
M  V30 6397 H 612.963 -1.86258 3.45037 0
M  V30 6398 H 614.453 -2.79105 3.10629 0
M  V30 6399 N 614.89 -1.56749 -0.16351 0
M  V30 6400 C 616.167 -1.73321 -0.906599 0
M  V30 6401 C 616.547 -0.673779 -2.00059 0
M  V30 6402 O 615.895 0.310121 -2.26386 0
M  V30 6403 C 616.105 -3.168 -1.46419 0
M  V30 6404 C 617.453 -3.77993 -1.93407 0
M  V30 6405 O 618.477 -3.20127 -1.56196 0
M  V30 6406 O 617.336 -4.79615 -2.61976 0
M  V30 6407 H 614.43 -0.708073 -0.427272 0
M  V30 6408 H 616.976 -1.69029 -0.150727 0
M  V30 6409 H 615.748 -3.85396 -0.677189 0
M  V30 6410 H 615.371 -3.2545 -2.28403 0
M  V30 6411 N 616.368 0.432326 -1.51554 0
M  V30 6412 C 617.614 1.18309 -1.64714 0
M  V30 6413 C 617.947 1.90745 -0.364696 0
M  V30 6414 O 617.222 1.8381 0.635936 0
M  V30 6415 C 617.505 2.1961 -2.85383 0
M  V30 6416 C 617.358 1.51223 -4.23617 0
M  V30 6417 C 618.677 3.20538 -3.01569 0
M  V30 6418 H 615.796 0.428751 -0.599451 0
M  V30 6419 H 618.438 0.471689 -1.84052 0
M  V30 6420 H 616.588 2.8028 -2.69027 0
M  V30 6421 H 618.26 0.938516 -4.51652 0
M  V30 6422 H 616.503 0.814501 -4.26085 0
M  V30 6423 H 617.174 2.25024 -5.04052 0
M  V30 6424 H 619.65 2.69926 -3.16669 0
M  V30 6425 H 618.526 3.88706 -3.87555 0
M  V30 6426 H 618.787 3.86933 -2.13859 0
M  V30 6427 N 617.846 1.41785 0.688094 0
M  V30 6428 C 619.071 1.45117 1.48175 0
M  V30 6429 C 619.496 0.060129 1.88004 0
M  V30 6430 O 618.854 -0.938385 1.55126 0
M  V30 6431 C 618.902 2.37224 2.71583 0
M  V30 6432 O 618.006 1.83443 3.69354 0
M  V30 6433 H 617.347 0.492208 0.445676 0
M  V30 6434 H 619.877 1.86329 0.845145 0
M  V30 6435 H 619.887 2.53353 3.19806 0
M  V30 6436 H 618.562 3.38293 2.41931 0
M  V30 6437 H 617.139 1.76802 3.28322 0
M  V30 6438 N 619.324 -0.923095 1.27737 0
M  V30 6439 C 620.272 -2.04567 1.10703 0
M  V30 6440 C 621.266 -1.69375 0.0288445 0
M  V30 6441 O 622.472 -1.79027 0.186913 0
M  V30 6442 H 618.847 -0.670109 0.34126 0
M  V30 6443 H 620.818 -2.1608 2.05796 0
M  V30 6444 C 619.567 -3.38934 0.775837 0
M  V30 6445 H 618.89 -3.66501 1.59741 0
M  V30 6446 H 620.33 -4.18239 0.696548 0
M  V30 6447 C 618.789 -3.32863 -0.520012 0
M  V30 6448 O 619.319 -3.70462 -1.55308 0
M  V30 6449 N 617.525 -2.85958 -0.51732 0
M  V30 6450 H 617.072 -2.55557 0.32379 0
M  V30 6451 H 617.03 -2.82279 -1.38441 0
M  V30 6452 N 620.802 -1.09834 -1.13024 0
M  V30 6453 C 621.734 -0.699379 -2.18269 0
M  V30 6454 C 622.747 0.260841 -1.60697 0
M  V30 6455 O 623.936 0.0462538 -1.7844 0
M  V30 6456 C 621.036 -0.0104537 -3.38898 0
M  V30 6457 C 620.209 -0.993275 -4.25973 0
M  V30 6458 C 619.268 -0.336982 -5.2512 0
M  V30 6459 O 618.294 -0.985892 -5.60597 0
M  V30 6460 N 619.496 0.90716 -5.73368 0
M  V30 6461 H 622.261 -1.60486 -2.5311 0
M  V30 6462 H 619.822 -0.986337 -1.28386 0
M  V30 6463 H 621.814 0.43991 -4.02302 0
M  V30 6464 H 620.384 0.797335 -3.0226 0
M  V30 6465 H 619.604 -1.62208 -3.5928 0
M  V30 6466 H 620.892 -1.65876 -4.81002 0
M  V30 6467 H 620.29 1.45384 -5.46699 0
M  V30 6468 H 618.847 1.30077 -6.38689 0
M  V30 6469 N 622.28 1.30327 -0.886154 0
M  V30 6470 C 623.21 2.30549 -0.370028 0
M  V30 6471 C 624.191 1.61039 0.547751 0
M  V30 6472 O 625.376 1.8864 0.461353 0
M  V30 6473 C 622.506 3.44808 0.415275 0
M  V30 6474 C 621.46 4.26024 -0.41085 0
M  V30 6475 C 620.786 5.32347 0.501128 0
M  V30 6476 C 622.086 4.95433 -1.65359 0
M  V30 6477 H 623.78 2.73969 -1.20754 0
M  V30 6478 H 621.326 1.3171 -0.582097 0
M  V30 6479 H 623.279 4.13986 0.78699 0
M  V30 6480 H 622.003 3.00197 1.28644 0
M  V30 6481 H 620.662 3.58535 -0.764719 0
M  V30 6482 H 620.31 4.83982 1.37004 0
M  V30 6483 H 620.01 5.87581 -0.0478356 0
M  V30 6484 H 621.534 6.0438 0.869333 0
M  V30 6485 H 622.948 5.5712 -1.35239 0
M  V30 6486 H 621.345 5.60537 -2.14284 0
M  V30 6487 H 622.415 4.21493 -2.39733 0
M  V30 6488 N 623.758 0.647228 1.43697 0
M  V30 6489 C 624.988 0.16551 2.05936 0
M  V30 6490 C 625.396 -1.17164 1.48557 0
M  V30 6491 O 624.739 -1.73307 0.60914 0
M  V30 6492 C 624.801 -0.00648082 3.59499 0
M  V30 6493 C 624.465 1.25503 4.39429 0
M  V30 6494 C 625.462 2.18241 4.71876 0
M  V30 6495 C 623.147 1.49494 4.79538 0
M  V30 6496 C 625.141 3.33268 5.43333 0
M  V30 6497 C 622.828 2.64815 5.50742 0
M  V30 6498 C 623.826 3.56528 5.82561 0
M  V30 6499 O 623.514 4.69836 6.52311 0
M  V30 6500 H 623.246 0.0844124 0.670709 0
M  V30 6501 H 625.8 0.88638 1.8529 0
M  V30 6502 H 624.03 -0.782661 3.78697 0
M  V30 6503 H 625.719 -0.444794 4.03456 0
M  V30 6504 H 626.485 2.00946 4.41413 0
M  V30 6505 H 622.364 0.789912 4.54182 0
M  V30 6506 H 625.908 4.04874 5.68087 0
M  V30 6507 H 621.805 2.82047 5.8062 0
M  V30 6508 H 622.573 4.69024 6.70789 0
M  V30 6509 N 625.236 -1.5273 0.388769 0
M  V30 6510 C 626.199 -2.25043 -0.434544 0
M  V30 6511 C 627.199 -1.26661 -0.990644 0
M  V30 6512 O 628.389 -1.50762 -0.872731 0
M  V30 6513 C 625.521 -3.00507 -1.60961 0
M  V30 6514 H 626.714 -2.99242 0.198549 0
M  V30 6515 H 624.267 -1.55664 0.140875 0
M  V30 6516 H 625.002 -2.30607 -2.28015 0
M  V30 6517 H 624.787 -3.72716 -1.21757 0
M  V30 6518 H 626.277 -3.55413 -2.19251 0
M  V30 6519 N 626.714 -0.118576 -1.57153 0
M  V30 6520 C 627.954 0.542618 -1.97066 0
M  V30 6521 C 628.318 1.63874 -1.00046 0
M  V30 6522 O 629.519 2.3588 -1.28895 0
M  V30 6523 C 627.79 1.06196 -3.41258 0
M  V30 6524 S 629.349 1.73174 -4.03183 0
M  V30 6525 H 626.167 0.17638 -0.688775 0
M  V30 6526 H 628.769 -0.203556 -1.94437 0
M  V30 6527 H 627.473 0.253016 -4.09619 0
M  V30 6528 H 627.004 1.84342 -3.47536 0
M  V30 6529 H 629.019 3.01749 -3.93906 0
M  V30 6530 N 628.193 1.56834 0.155195 0
M  V30 6531 C 629.423 1.86778 0.883044 0
M  V30 6532 C 629.831 0.703824 1.75622 0
M  V30 6533 O 629.174 -0.33581 1.80605 0
M  V30 6534 C 629.236 3.1133 1.79761 0
M  V30 6535 C 628.9 4.43504 1.10242 0
M  V30 6536 C 629.897 5.17859 0.460204 0
M  V30 6537 C 627.582 4.90233 1.09437 0
M  V30 6538 C 629.576 6.37144 -0.180782 0
M  V30 6539 C 627.263 6.09444 0.449569 0
M  V30 6540 C 628.261 6.82744 -0.186888 0
M  V30 6541 O 627.949 7.99692 -0.821486 0
M  V30 6542 H 627.681 0.62352 0.261149 0
M  V30 6543 H 630.235 2.04813 0.155204 0
M  V30 6544 H 628.465 2.89282 2.56618 0
M  V30 6545 H 630.154 3.27587 2.39669 0
M  V30 6546 H 630.92 4.8283 0.458289 0
M  V30 6547 H 626.799 4.33109 1.57917 0
M  V30 6548 H 630.343 6.94296 -0.678154 0
M  V30 6549 H 626.24 6.43936 0.449123 0
M  V30 6550 H 627.008 8.15306 -0.722337 0
M  V30 6551 N 629.671 -0.424282 1.51781 0
M  V30 6552 C 630.634 -1.49848 1.73431 0
M  V30 6553 C 631.634 -1.49016 0.604225 0
M  V30 6554 O 632.824 -1.50808 0.871935 0
M  V30 6555 C 629.956 -2.89332 1.80277 0
M  V30 6556 H 631.149 -1.3195 2.69312 0
M  V30 6557 H 628.702 -0.653809 1.41968 0
M  V30 6558 H 629.437 -3.12618 0.862568 0
M  V30 6559 H 629.222 -2.9134 2.62419 0
M  V30 6560 H 630.712 -3.67233 1.98821 0
M  V30 6561 N 631.149 -1.42148 -0.680565 0
M  V30 6562 C 632.398 -1.41604 -1.43636 0
M  V30 6563 C 632.711 -0.0337887 -1.95571 0
M  V30 6564 O 633.917 0.0942588 -2.71336 0
M  V30 6565 C 632.373 -2.49056 -2.59806 0
M  V30 6566 C 631.981 -3.9326 -2.14594 0
M  V30 6567 C 633.725 -2.5767 -3.37352 0
M  V30 6568 C 631.632 -4.92232 -3.27813 0
M  V30 6569 H 630.562 -0.526656 -0.539583 0
M  V30 6570 H 633.213 -1.68033 -0.737369 0
M  V30 6571 H 631.595 -2.15782 -3.32045 0
M  V30 6572 H 632.769 -4.35858 -1.49546 0
M  V30 6573 H 631.084 -3.88443 -1.50002 0
M  V30 6574 H 633.681 -3.28794 -4.21662 0
M  V30 6575 H 634.024 -1.61837 -3.83555 0
M  V30 6576 H 634.557 -2.90109 -2.72179 0
M  V30 6577 H 631.296 -5.89522 -2.86607 0
M  V30 6578 H 630.816 -4.5427 -3.91661 0
M  V30 6579 H 632.495 -5.13684 -3.93367 0
M  V30 6580 N 632.627 0.916307 -1.28225 0
M  V30 6581 C 633.875 1.6619 -1.15002 0
M  V30 6582 C 634.196 1.92642 0.302329 0
M  V30 6583 O 633.466 1.54076 1.20985 0
M  V30 6584 H 632.046 0.615964 -0.422608 0
M  V30 6585 H 634.708 1.09963 -1.60917 0
M  V30 6586 H 633.804 2.62533 -1.68769 0
M  V30 6587 N 634.105 1.10431 1.1244 0
M  V30 6588 C 635.052 0.753103 2.18167 0
M  V30 6589 C 636.022 -0.270549 1.63882 0
M  V30 6590 O 637.207 -0.149837 1.90211 0
M  V30 6591 C 634.347 0.191046 3.44571 0
M  V30 6592 C 633.46 1.26999 4.12911 0
M  V30 6593 C 632.595 0.669586 5.26963 0
M  V30 6594 C 631.634 1.72912 5.87169 0
M  V30 6595 N 630.771 1.14898 6.92635 0
M  V30 6596 H 635.611 1.65892 2.47556 0
M  V30 6597 H 633.148 0.828631 1.21541 0
M  V30 6598 H 635.106 -0.152712 4.1692 0
M  V30 6599 H 633.736 -0.677997 3.15599 0
M  V30 6600 H 632.788 1.73087 3.3874 0
M  V30 6601 H 634.1 2.07204 4.53727 0
M  V30 6602 H 633.254 0.275274 6.06075 0
M  V30 6603 H 631.993 -0.163895 4.87425 0
M  V30 6604 H 630.998 2.13286 5.06744 0
M  V30 6605 H 632.223 2.56544 6.28778 0
M  V30 6606 H 630.169 0.336956 6.55134 0
M  V30 6607 H 630.086 1.88786 7.32049 0
M  V30 6608 H 631.354 0.78121 7.75576 0
M  V30 6609 N 635.583 -1.29855 0.893053 0
M  V30 6610 C 636.86 -1.90694 0.435336 0
M  V30 6611 C 637.24 -1.8111 -1.08454 0
M  V30 6612 O 636.588 -1.23352 -1.92345 0
M  V30 6613 C 636.798 -3.36033 0.942472 0
M  V30 6614 C 638.146 -4.13083 0.982226 0
M  V30 6615 O 639.17 -3.4491 0.889686 0
M  V30 6616 O 638.029 -5.34896 1.12022 0
M  V30 6617 H 635.123 -0.815978 0.134567 0
M  V30 6618 H 637.669 -1.38367 0.982484 0
M  V30 6619 H 636.441 -3.37132 1.9864 0
M  V30 6620 H 636.064 -3.95828 0.374952 0
M  V30 6621 N 637.061 -0.65484 -1.43351 0
M  V30 6622 C 638.307 -0.169142 -2.02093 0
M  V30 6623 C 638.64 1.21431 -1.51553 0
M  V30 6624 O 637.915 1.81105 -0.709317 0
M  V30 6625 C 638.198 -0.181775 -3.59641 0
M  V30 6626 C 638.051 -1.59926 -4.20409 0
M  V30 6627 C 639.37 0.480945 -4.37464 0
M  V30 6628 H 636.489 -0.0629371 -0.734308 0
M  V30 6629 H 639.131 -0.835833 -1.70628 0
M  V30 6630 H 637.281 0.385918 -3.86578 0
M  V30 6631 H 638.953 -2.21766 -4.04497 0
M  V30 6632 H 637.196 -2.14605 -3.76998 0
M  V30 6633 H 637.867 -1.55994 -5.295 0
M  V30 6634 H 640.343 -0.00208273 -4.161 0
M  V30 6635 H 639.219 0.441384 -5.47122 0
M  V30 6636 H 639.48 1.55533 -4.13838 0
M  V30 6637 N 638.539 1.52521 -0.396863 0
M  V30 6638 C 639.471 2.24333 0.469814 0
M  V30 6639 C 640.484 1.2685 1.02043 0
M  V30 6640 O 641.673 1.52876 0.92147 0
M  V30 6641 C 638.773 2.95202 1.66461 0
M  V30 6642 C 637.946 4.19454 1.24003 0
M  V30 6643 C 637.005 4.73255 2.30036 0
M  V30 6644 O 636.031 5.36151 1.91131 0
M  V30 6645 N 637.233 4.53765 3.62047 0
M  V30 6646 H 639.998 2.99347 -0.145468 0
M  V30 6647 H 637.559 1.60348 -0.223606 0
M  V30 6648 H 639.551 3.28092 2.36934 0
M  V30 6649 H 638.121 2.2345 2.18607 0
M  V30 6650 H 637.341 3.92517 0.363892 0
M  V30 6651 H 638.629 5.0017 0.933135 0
M  V30 6652 H 638.027 4.03576 3.96412 0
M  V30 6653 H 636.584 4.91124 4.28533 0
M  V30 6654 N 640.017 0.126909 1.57088 0
M  V30 6655 C 640.98 -0.806097 2.14557 0
M  V30 6656 C 641.98 -1.18918 1.08236 0
M  V30 6657 O 643.17 -1.11339 1.33975 0
M  V30 6658 C 640.302 -2.09116 2.69227 0
M  V30 6659 H 641.495 -0.306522 2.98329 0
M  V30 6660 H 639.048 -0.122393 1.5582 0
M  V30 6661 H 639.783 -2.63486 1.89065 0
M  V30 6662 H 639.568 -1.82588 3.46993 0
M  V30 6663 H 641.058 -2.75794 3.13572 0
M  V30 6664 N 641.495 -1.56914 -0.146875 0
M  V30 6665 C 642.428 -1.93425 -1.21087 0
M  V30 6666 C 643.406 -0.800106 -1.41552 0
M  V30 6667 O 644.59 -1.05572 -1.56162 0
M  V30 6668 C 641.717 -2.20639 -2.56975 0
M  V30 6669 C 640.763 -3.43279 -2.53104 0
M  V30 6670 S 641.596 -4.96836 -1.99786 0
M  V30 6671 C 642.752 -5.27172 -3.37403 0
M  V30 6672 H 642.985 -2.8337 -0.899378 0
M  V30 6673 H 640.518 -1.50322 -0.352494 0
M  V30 6674 H 642.476 -2.36998 -3.35175 0
M  V30 6675 H 641.137 -1.31357 -2.85314 0
M  V30 6676 H 640.33 -3.59599 -3.53136 0
M  V30 6677 H 639.932 -3.26163 -1.83012 0
M  V30 6678 H 642.224 -5.20647 -4.33513 0
M  V30 6679 H 643.167 -6.28626 -3.25937 0
M  V30 6680 H 643.575 -4.54687 -3.34544 0
M  V30 6681 N 642.974 0.416227 -1.52004 0
M  V30 6682 C 643.921 1.50666 -1.74838 0
M  V30 6683 C 644.891 1.55245 -0.590599 0
M  V30 6684 O 646.076 1.71928 -0.827374 0
M  V30 6685 C 643.216 2.88185 -1.89851 0
M  V30 6686 C 642.329 2.92971 -3.17478 0
M  V30 6687 C 641.464 4.21745 -3.22962 0
M  V30 6688 C 640.503 4.20478 -4.4482 0
M  V30 6689 N 639.64 5.40811 -4.47736 0
M  V30 6690 H 644.48 1.30498 -2.67907 0
M  V30 6691 H 642.017 0.633568 -1.32757 0
M  V30 6692 H 643.975 3.68007 -1.96537 0
M  V30 6693 H 642.605 3.06865 -1.00169 0
M  V30 6694 H 641.657 2.05684 -3.19997 0
M  V30 6695 H 642.969 2.87899 -4.07328 0
M  V30 6696 H 642.123 5.09954 -3.28682 0
M  V30 6697 H 640.862 4.29503 -2.31038 0
M  V30 6698 H 639.867 3.30659 -4.39254 0
M  V30 6699 H 641.092 4.14366 -5.38031 0
M  V30 6700 H 639.038 5.4925 -3.58692 0
M  V30 6701 H 638.955 5.37705 -5.31422 0
M  V30 6702 H 640.223 6.30993 -4.57676 0
M  V30 6703 N 644.452 1.42507 0.673017 0
M  V30 6704 C 645.415 1.4582 1.76831 0
M  V30 6705 C 646.415 0.345542 1.57043 0
M  V30 6706 O 647.605 0.606447 1.63303 0
M  V30 6707 C 644.737 1.29158 3.15485 0
M  V30 6708 H 645.93 2.43345 1.7528 0
M  V30 6709 H 643.483 1.28981 0.882817 0
M  V30 6710 H 644.218 0.325626 3.22661 0
M  V30 6711 H 644.003 2.09797 3.31252 0
M  V30 6712 H 645.493 1.34363 3.95394 0
M  V30 6713 N 645.93 -0.909495 1.28709 0
M  V30 6714 C 647.176 -1.66151 1.16283 0
M  V30 6715 C 647.509 -1.92067 -0.287069 0
M  V30 6716 O 646.784 -1.52409 -1.20837 0
M  V30 6717 C 647.067 -3.01676 1.9663 0
M  V30 6718 C 646.92 -2.82888 3.49707 0
M  V30 6719 C 648.239 -4.02274 1.78504 0
M  V30 6720 H 645.358 -0.602966 0.423793 0
M  V30 6721 H 648 -1.05418 1.58073 0
M  V30 6722 H 646.15 -3.53515 1.61119 0
M  V30 6723 H 647.822 -2.38026 3.95147 0
M  V30 6724 H 646.065 -2.17862 3.75125 0
M  V30 6725 H 646.736 -3.79147 4.01187 0
M  V30 6726 H 649.212 -3.59511 2.09503 0
M  V30 6727 H 648.088 -4.95056 2.37088 0
M  V30 6728 H 648.349 -4.35903 0.737647 0
M  V30 6729 N 647.408 -1.11026 -1.11852 0
M  V30 6730 C 648.654 -0.857729 -1.83768 0
M  V30 6731 C 648.987 0.615143 -1.842 0
M  V30 6732 O 648.262 1.45391 -1.29196 0
M  V30 6733 C 648.545 -1.41453 -3.31154 0
M  V30 6734 C 648.398 -2.95471 -3.39142 0
M  V30 6735 C 649.717 -1.0619 -4.27097 0
M  V30 6736 H 646.836 -0.313044 -0.667212 0
M  V30 6737 H 649.478 -1.37443 -1.31185 0
M  V30 6738 H 647.628 -0.975052 -3.76065 0
M  V30 6739 H 649.3 -3.4799 -3.02821 0
M  V30 6740 H 647.543 -3.31759 -2.79497 0
M  V30 6741 H 648.214 -3.29515 -4.42859 0
M  V30 6742 H 650.69 -1.44122 -3.90344 0
M  V30 6743 H 649.566 -1.47832 -5.28618 0
M  V30 6744 H 649.827 0.0278912 -4.42091 0
M  V30 6745 N 648.886 1.2938 -0.899927 0
M  V30 6746 C 650.134 1.95164 -0.524924 0
M  V30 6747 C 650.455 1.71292 0.931888 0
M  V30 6748 O 649.725 1.04481 1.65712 0
M  V30 6749 H 648.305 0.722133 -0.191135 0
M  V30 6750 H 650.967 1.57628 -1.14627 0
M  V30 6751 H 650.063 3.0397 -0.707711 0
M  V30 6752 N 650.364 0.662433 1.43002 0
M  V30 6753 C 651.274 -0.0239199 2.34588 0
M  V30 6754 C 652.29 -0.802255 1.54402 0
M  V30 6755 O 653.466 -0.747401 1.87018 0
M  V30 6756 C 650.531 -0.972098 3.32793 0
M  V30 6757 C 649.592 -0.189673 4.28881 0
M  V30 6758 C 648.825 -1.09269 5.22395 0
M  V30 6759 O 649.048 -2.33209 5.20547 0
M  V30 6760 O 647.982 -0.560136 5.99288 0
M  V30 6761 H 651.808 0.730171 2.94792 0
M  V30 6762 H 649.393 0.422635 1.43297 0
M  V30 6763 H 651.275 -1.51676 3.93157 0
M  V30 6764 H 649.95 -1.70626 2.75079 0
M  V30 6765 H 648.857 0.398794 3.71968 0
M  V30 6766 H 650.19 0.50511 4.89601 0
M  V30 6767 N 651.842 -1.52309 0.404946 0
M  V30 6768 C 652.752 -2.30634 -0.429555 0
M  V30 6769 C 653.768 -1.38187 -1.05737 0
M  V30 6770 O 654.944 -1.71261 -1.05979 0
M  V30 6771 C 652.009 -3.10947 -1.53339 0
M  V30 6772 C 651.07 -4.19126 -0.929065 0
M  V30 6773 C 650.303 -4.95601 -1.9803 0
M  V30 6774 O 650.526 -4.72331 -3.1978 0
M  V30 6775 O 649.46 -5.80551 -1.58886 0
M  V30 6776 H 653.286 -3.0298 0.208963 0
M  V30 6777 H 650.871 -1.4845 0.168255 0
M  V30 6778 H 652.753 -3.60974 -2.1743 0
M  V30 6779 H 651.428 -2.41399 -2.15658 0
M  V30 6780 H 650.335 -3.73257 -0.250982 0
M  V30 6781 H 651.668 -4.90955 -0.349855 0
M  V30 6782 N 653.32 -0.135238 -1.57019 0
M  V30 6783 C 654.283 0.794707 -2.14981 0
M  V30 6784 C 655.283 1.18342 -1.08866 0
M  V30 6785 O 656.473 1.10627 -1.34563 0
M  V30 6786 C 653.605 2.07685 -2.70333 0
M  V30 6787 H 654.798 0.290696 -2.98488 0
M  V30 6788 H 652.351 0.114128 -1.55883 0
M  V30 6789 H 653.086 2.6248 -1.9046 0
M  V30 6790 H 652.871 1.80745 -3.47957 0
M  V30 6791 H 654.361 2.74127 -3.1503 0
M  V30 6792 N 654.798 1.5699 0.138552 0
M  V30 6793 C 655.728 2.01933 1.17241 0
M  V30 6794 C 656.709 0.90033 1.44319 0
M  V30 6795 O 657.894 1.16872 1.55095 0
M  V30 6796 C 655.024 2.40711 2.50351 0
M  V30 6797 C 653.978 3.55874 2.37776 0
M  V30 6798 C 653.304 3.80491 3.75674 0
M  V30 6799 C 654.604 4.8826 1.85472 0
M  V30 6800 H 656.298 2.88551 0.798672 0
M  V30 6801 H 653.844 1.3882 0.382743 0
M  V30 6802 H 655.797 2.70754 3.22909 0
M  V30 6803 H 654.521 1.5104 2.89576 0
M  V30 6804 H 653.18 3.2601 1.67669 0
M  V30 6805 H 652.828 2.88057 4.12349 0
M  V30 6806 H 652.528 4.57998 3.68119 0
M  V30 6807 H 654.052 4.12967 4.49767 0
M  V30 6808 H 655.466 5.16965 2.4783 0
M  V30 6809 H 653.863 5.69631 1.88787 0
M  V30 6810 H 654.933 4.78071 0.810935 0
M  V30 6811 N 656.276 -0.40816 1.52223 0
M  V30 6812 C 657.504 -1.17672 1.70179 0
M  V30 6813 C 657.919 -1.84257 0.411696 0
M  V30 6814 O 657.276 -1.7192 -0.612354 0
M  V30 6815 C 657.327 -2.23911 2.83806 0
M  V30 6816 O 657.048 -1.60044 4.0782 0
M  V30 6817 C 658.549 -3.1364 3.13281 0
M  V30 6818 H 655.769 -0.353562 0.570293 0
M  V30 6819 H 658.313 -0.480083 1.98785 0
M  V30 6820 H 656.468 -2.89242 2.57717 0
M  V30 6821 H 656.882 -2.30484 4.71145 0
M  V30 6822 H 658.356 -3.84255 3.96298 0
M  V30 6823 H 658.833 -3.76066 2.26872 0
M  V30 6824 H 659.439 -2.53977 3.41139 0
M  V30 6825 N 657.755 -1.42862 -0.66545 0
M  V30 6826 C 658.98 -1.47456 -1.45848 0
M  V30 6827 C 659.405 -0.0900312 -1.87884 0
M  V30 6828 O 658.763 0.913587 -1.56599 0
M  V30 6829 C 658.811 -2.41514 -2.67774 0
M  V30 6830 O 657.915 -1.89296 -3.66389 0
M  V30 6831 H 657.256 -0.499236 -0.437789 0
M  V30 6832 H 659.786 -1.8765 -0.815394 0
M  V30 6833 H 659.796 -2.58409 -3.15735 0
M  V30 6834 H 658.471 -3.42099 -2.36519 0
M  V30 6835 H 657.048 -1.82003 -3.25468 0
M  V30 6836 N 659.233 0.902656 -1.29189 0
M  V30 6837 C 660.51 1.63296 -1.07674 0
M  V30 6838 C 660.89 2.07649 0.380137 0
M  V30 6839 O 660.238 1.82997 1.36837 0
M  V30 6840 C 660.448 2.81603 -2.06158 0
M  V30 6841 C 661.796 3.52359 -2.36914 0
M  V30 6842 O 662.82 2.91767 -2.04329 0
M  V30 6843 O 661.679 4.61586 -2.92576 0
M  V30 6844 H 658.773 0.716889 -0.41231 0
M  V30 6845 H 661.319 0.950984 -1.4055 0
M  V30 6846 H 660.091 2.46004 -3.04299 0
M  V30 6847 H 659.714 3.57508 -1.73993 0
M  V30 6848 N 660.711 1.11618 1.11262 0
M  V30 6849 C 661.988 0.777876 1.79467 0
M  V30 6850 C 662.368 -0.733774 1.97937 0
M  V30 6851 O 661.716 -1.66443 1.56554 0
M  V30 6852 C 661.926 1.5431 3.13032 0
M  V30 6853 C 663.274 1.72357 3.88044 0
M  V30 6854 O 664.298 1.5075 3.22727 0
M  V30 6855 O 663.157 2.08276 5.05256 0
M  V30 6856 H 660.251 0.282018 0.777428 0
M  V30 6857 H 662.797 1.21971 1.17988 0
M  V30 6858 H 661.569 2.57132 2.94956 0
M  V30 6859 H 661.192 1.09495 3.82226 0
M  V30 6860 N 662.189 -1.289 0.906776 0
M  V30 6861 C 663.119 -2.29932 0.406659 0
M  V30 6862 C 664.1 -1.6189 -0.522061 0
M  V30 6863 O 665.285 -1.8935 -0.431283 0
M  V30 6864 C 662.415 -3.45425 -0.360366 0
M  V30 6865 C 661.369 -4.25316 0.478574 0
M  V30 6866 C 660.695 -5.33076 -0.416373 0
M  V30 6867 C 661.995 -4.92739 1.7322 0
M  V30 6868 H 663.689 -2.72013 1.25097 0
M  V30 6869 H 661.235 -1.30768 0.602977 0
M  V30 6870 H 663.188 -4.15186 -0.721029 0
M  V30 6871 H 661.912 -3.02206 -1.23852 0
M  V30 6872 H 660.571 -3.57273 0.821662 0
M  V30 6873 H 660.219 -4.86101 -1.29287 0
M  V30 6874 H 659.919 -5.8743 0.141309 0
M  V30 6875 H 661.443 -6.05686 -0.773072 0
M  V30 6876 H 662.857 -5.54898 1.44086 0
M  V30 6877 H 661.254 -5.57057 2.23175 0
M  V30 6878 H 662.324 -4.17625 2.46408 0
M  V30 6879 N 663.667 -0.670007 -1.42649 0
M  V30 6880 C 664.597 -0.00258501 -2.335 0
M  V30 6881 C 665.578 0.794364 -1.50412 0
M  V30 6882 O 666.763 0.75248 -1.79029 0
M  V30 6883 C 663.893 0.952748 -3.33976 0
M  V30 6884 C 662.847 0.264733 -4.2718 0
M  V30 6885 C 662.173 1.33267 -5.17826 0
M  V30 6886 C 663.473 -0.853289 -5.15283 0
M  V30 6887 H 665.167 -0.761326 -2.89559 0
M  V30 6888 H 662.713 -0.367561 -1.3923 0
M  V30 6889 H 664.666 1.4287 -3.96442 0
M  V30 6890 H 663.39 1.74285 -2.7621 0
M  V30 6891 H 662.049 -0.190938 -3.66102 0
M  V30 6892 H 661.697 2.11464 -4.5639 0
M  V30 6893 H 661.397 0.877476 -5.81011 0
M  V30 6894 H 662.921 1.80965 -5.83167 0
M  V30 6895 H 664.335 -0.458763 -5.71462 0
M  V30 6896 H 662.732 -1.23398 -5.87276 0
M  V30 6897 H 663.802 -1.70412 -4.53969 0
M  V30 6898 N 665.145 1.52092 -0.413018 0
M  V30 6899 C 666.375 2.05974 0.160648 0
M  V30 6900 C 666.783 1.28267 1.39084 0
M  V30 6901 O 666.126 0.328805 1.80733 0
M  V30 6902 C 666.188 3.54918 0.572169 0
M  V30 6903 C 665.852 4.53705 -0.547826 0
M  V30 6904 C 666.849 5.00342 -1.41259 0
M  V30 6905 C 664.534 4.97089 -0.721627 0
M  V30 6906 C 666.528 5.89011 -2.43607 0
M  V30 6907 C 664.215 5.85554 -1.74841 0
M  V30 6908 C 665.213 6.3141 -2.60403 0
M  V30 6909 O 664.901 7.18123 -3.61323 0
M  V30 6910 H 664.633 0.675636 0.0221936 0
M  V30 6911 H 667.187 1.96931 -0.58373 0
M  V30 6912 H 665.417 3.61661 1.36889 0
M  V30 6913 H 667.106 3.91428 1.0742 0
M  V30 6914 H 667.872 4.67537 -1.28974 0
M  V30 6915 H 663.751 4.60954 -0.0652911 0
M  V30 6916 H 667.295 6.24725 -3.10425 0
M  V30 6917 H 663.192 6.17773 -1.87156 0
M  V30 6918 H 663.96 7.36244 -3.57613 0
M  V30 6919 N 666.623 0.143563 1.56945 0
M  V30 6920 C 667.553 -0.7936 2.196 0
M  V30 6921 C 668.534 -1.25955 1.14321 0
M  V30 6922 O 669.719 -1.31773 1.42651 0
M  V30 6923 C 666.849 -2.03424 2.81489 0
M  V30 6924 C 665.803 -1.70519 3.92565 0
M  V30 6925 C 665.129 -3.01817 4.41373 0
M  V30 6926 C 666.429 -0.95449 5.13504 0
M  V30 6927 H 668.123 -0.271423 2.98167 0
M  V30 6928 H 665.669 -0.12911 1.4342 0
M  V30 6929 H 667.622 -2.69463 3.23987 0
M  V30 6930 H 666.346 -2.58008 2.00248 0
M  V30 6931 H 665.005 -1.06859 3.5068 0
M  V30 6932 H 664.653 -3.54386 3.56959 0
M  V30 6933 H 664.353 -2.80565 5.16292 0
M  V30 6934 H 665.877 -3.68934 4.86539 0
M  V30 6935 H 667.291 -1.5169 5.52868 0
M  V30 6936 H 665.688 -0.842035 5.94163 0
M  V30 6937 H 666.758 0.0544033 4.84869 0
M  V30 6938 N 668.101 -1.57061 -0.130224 0
M  V30 6939 C 669.011 -2.02802 -1.17934 0
M  V30 6940 C 670.027 -0.946378 -1.46013 0
M  V30 6941 O 671.203 -1.25708 -1.57351 0
M  V30 6942 C 668.268 -2.41368 -2.48882 0
M  V30 6943 C 667.329 -3.63561 -2.28301 0
M  V30 6944 C 666.562 -4.00279 -3.53005 0
M  V30 6945 O 666.785 -3.37463 -4.59864 0
M  V30 6946 O 665.719 -4.93441 -3.44673 0
M  V30 6947 H 669.545 -2.92394 -0.820958 0
M  V30 6948 H 667.13 -1.45475 -0.340197 0
M  V30 6949 H 669.012 -2.66958 -3.26054 0
M  V30 6950 H 667.687 -1.54926 -2.84217 0
M  V30 6951 H 666.594 -3.43136 -1.49025 0
M  V30 6952 H 667.927 -4.50673 -1.97875 0
M  V30 6953 N 669.579 0.400081 -1.52437 0
M  V30 6954 C 670.826 1.14619 -1.6694 0
M  V30 6955 C 671.154 1.90262 -0.403797 0
M  V30 6956 O 670.409 1.85835 0.61351 0
M  V30 6957 C 670.708 2.15914 -2.84808 0
M  V30 6958 C 670.374 1.57011 -4.2268 0
M  V30 6959 C 669.036 1.40672 -4.60179 0
M  V30 6960 C 671.388 1.14081 -5.08562 0
M  V30 6961 C 668.716 0.799335 -5.81229 0
M  V30 6962 C 671.068 0.547573 -6.30226 0
M  V30 6963 C 669.732 0.371389 -6.66466 0
M  V30 6964 H 669.002 0.419419 -0.610875 0
M  V30 6965 H 671.649 0.432227 -1.86558 0
M  V30 6966 H 669.954 2.93488 -2.59561 0
M  V30 6967 H 671.651 2.73533 -2.93225 0
M  V30 6968 H 668.241 1.70713 -3.93135 0
M  V30 6969 H 672.425 1.2551 -4.80168 0
M  V30 6970 H 667.681 0.65093 -6.07925 0
M  V30 6971 H 671.855 0.206575 -6.96094 0
M  V30 6972 H 669.482 -0.10135 -7.60132 0
M  V30 6973 N 671.057 1.43213 0.657864 0
M  V30 6974 C 671.987 1.50815 1.78262 0
M  V30 6975 C 672.968 0.363211 1.66177 0
M  V30 6976 O 674.153 0.579806 1.85343 0
M  V30 6977 C 671.283 1.42625 3.16663 0
M  V30 6978 C 670.237 2.5532 3.43505 0
M  V30 6979 C 669.563 2.32184 4.81658 0
M  V30 6980 C 670.863 3.97583 3.38711 0
M  V30 6981 H 672.557 2.44954 1.72157 0
M  V30 6982 H 670.103 1.17896 0.82683 0
M  V30 6983 H 672.056 1.46548 3.95097 0
M  V30 6984 H 670.78 0.449877 3.23487 0
M  V30 6985 H 669.439 2.50742 2.6744 0
M  V30 6986 H 669.087 1.32801 4.85153 0
M  V30 6987 H 668.787 3.07724 5.00579 0
M  V30 6988 H 670.311 2.37883 5.62356 0
M  V30 6989 H 671.725 4.03673 4.07089 0
M  V30 6990 H 670.122 4.73112 3.69168 0
M  V30 6991 H 671.192 4.23049 2.36976 0
M  V30 6992 N 672.536 -0.895792 1.29666 0
M  V30 6993 C 673.468 -2.00563 1.10937 0
M  V30 6994 C 674.481 -1.62705 0.055734 0
M  V30 6995 O 675.67 -1.7595 0.300656 0
M  V30 6996 C 672.77 -3.32262 0.667448 0
M  V30 6997 C 671.943 -3.98625 1.80047 0
M  V30 6998 C 671.002 -5.08617 1.3489 0
M  V30 6999 O 670.028 -5.30837 2.05429 0
M  V30 7000 N 671.23 -5.80076 0.221937 0
M  V30 7001 H 673.995 -2.17184 2.06522 0
M  V30 7002 H 671.556 -1.06822 1.21658 0
M  V30 7003 H 673.548 -4.03196 0.348586 0
M  V30 7004 H 672.118 -3.11985 -0.196055 0
M  V30 7005 H 671.338 -3.21005 2.28801 0
M  V30 7006 H 672.626 -4.39704 2.56003 0
M  V30 7007 H 672.024 -5.64514 -0.366084 0
M  V30 7008 H 670.581 -6.51789 -0.0375346 0
M  V30 7009 N 674.014 -1.12206 -1.10668 0
M  V30 7010 C 674.961 -0.787716 -2.16942 0
M  V30 7011 C 675.931 0.244442 -1.64291 0
M  V30 7012 O 677.116 0.119558 -1.90425 0
M  V30 7013 C 674.256 -0.24584 -3.44223 0
M  V30 7014 C 673.369 -1.33552 -4.10838 0
M  V30 7015 C 672.504 -0.753337 -5.25831 0
M  V30 7016 C 671.543 -1.82231 -5.84344 0
M  V30 7017 N 670.68 -1.25902 -6.90719 0
M  V30 7018 H 675.52 -1.69809 -2.44885 0
M  V30 7019 H 673.057 -0.847862 -1.20207 0
M  V30 7020 H 675.015 0.0863639 -4.17111 0
M  V30 7021 H 673.645 0.627702 -3.16638 0
M  V30 7022 H 672.697 -1.78454 -3.35944 0
M  V30 7023 H 674.009 -2.14396 -4.50373 0
M  V30 7024 H 673.163 -0.37166 -6.05561 0
M  V30 7025 H 671.902 0.0863297 -4.87624 0
M  V30 7026 H 670.907 -2.2132 -5.03287 0
M  V30 7027 H 672.132 -2.66515 -6.24617 0
M  V30 7028 H 670.078 -0.44114 -6.54515 0
M  V30 7029 H 669.995 -2.00408 -7.28953 0
M  V30 7030 H 671.263 -0.904498 -7.74235 0
M  V30 7031 N 675.492 1.28418 -0.913599 0
M  V30 7032 C 676.739 1.94981 -0.546674 0
M  V30 7033 C 677.067 1.7192 0.909606 0
M  V30 7034 O 676.322 1.03314 1.66207 0
M  V30 7035 C 676.621 3.48283 -0.802099 0
M  V30 7036 C 676.287 3.91444 -2.2379 0
M  V30 7037 C 674.949 4.02939 -2.63046 0
M  V30 7038 C 677.301 4.13542 -3.17227 0
M  V30 7039 C 674.629 4.3391 -3.94891 0
M  V30 7040 C 676.981 4.45992 -4.48636 0
M  V30 7041 C 675.645 4.55698 -4.87746 0
M  V30 7042 H 674.915 0.713487 -0.200042 0
M  V30 7043 H 677.562 1.52756 -1.15489 0
M  V30 7044 H 675.867 3.91643 -0.111076 0
M  V30 7045 H 677.564 3.97903 -0.497375 0
M  V30 7046 H 674.154 3.83024 -1.9233 0
M  V30 7047 H 678.338 4.04114 -2.88107 0
M  V30 7048 H 673.594 4.39631 -4.24894 0
M  V30 7049 H 677.768 4.62038 -5.21051 0
M  V30 7050 H 675.395 4.79451 -5.89942 0
M  V30 7051 N 676.97 0.677563 1.42291 0
M  V30 7052 C 677.88 0.000962654 2.346 0
M  V30 7053 C 678.896 -0.785833 1.55244 0
M  V30 7054 O 680.072 -0.727523 1.87801 0
M  V30 7055 C 677.137 -0.936746 3.33805 0
M  V30 7056 C 676.198 -0.144173 4.29058 0
M  V30 7057 C 675.431 -1.03722 5.23524 0
M  V30 7058 O 675.654 -2.27675 5.22992 0
M  V30 7059 O 674.588 -0.496542 5.99848 0
M  V30 7060 H 678.414 0.761397 2.94001 0
M  V30 7061 H 675.999 0.43781 1.42841 0
M  V30 7062 H 677.881 -1.47497 3.94744 0
M  V30 7063 H 676.556 -1.67698 2.76874 0
M  V30 7064 H 675.463 0.438224 3.71524 0
M  V30 7065 H 676.796 0.55701 4.89038 0
M  V30 7066 N 678.448 -1.51871 0.421078 0
M  V30 7067 C 679.864 -1.59435 0.0725398 0
M  V30 7068 C 680.064 -1.43315 -1.41644 0
M  V30 7069 O 679.12 -1.26614 -2.18461 0
M  V30 7070 C 680.433 -2.9509 0.578132 0
M  V30 7071 C 681.981 -3.08356 0.537149 0
M  V30 7072 C 682.456 -4.4651 1.01945 0
M  V30 7073 N 683.947 -4.52784 0.976758 0
M  V30 7074 C 684.682 -5.57976 1.32099 0
M  V30 7075 N 684.178 -6.70664 1.73727 0
M  V30 7076 N 685.971 -5.48248 1.2402 0
M  V30 7077 H 678.122 -1.60595 1.39007 0
M  V30 7078 H 680.385 -0.756138 0.571803 0
M  V30 7079 H 680.091 -3.12205 1.61929 0
M  V30 7080 H 679.965 -3.772 -0.00578374 0
M  V30 7081 H 682.352 -2.90919 -0.494991 0
M  V30 7082 H 682.433 -2.28125 1.15727 0
M  V30 7083 H 682.077 -4.64692 2.04997 0
M  V30 7084 H 682.007 -5.25256 0.376023 0
M  V30 7085 H 684.498 -3.71898 0.670851 0
M  V30 7086 H 684.811 -7.46932 1.98274 0
M  V30 7087 H 683.156 -6.71914 1.77641 0
M  V30 7088 H 686.347 -4.59095 0.913756 0
M  V30 7089 H 686.52 -6.30119 1.51176 0
M  V30 7090 N 679.926 -0.151884 -1.56866 0
M  V30 7091 C 680.874 0.80299 -2.183 0
M  V30 7092 C 681.868 1.25174 -1.14139 0
M  V30 7093 O 683.074 1.21966 -1.3238 0
M  V30 7094 H 679.449 0.277169 -0.699057 0
M  V30 7095 H 681.42 0.260699 -2.97259 0
M  V30 7096 C 680.169 2.03009 -2.82281 0
M  V30 7097 H 679.492 1.69377 -3.62148 0
M  V30 7098 H 680.932 2.67753 -3.28762 0
M  V30 7099 C 679.391 2.84123 -1.81041 0
M  V30 7100 O 679.921 3.8063 -1.28388 0
M  V30 7101 N 678.127 2.48753 -1.50234 0
M  V30 7102 H 677.674 1.70337 -1.93244 0
M  V30 7103 H 677.632 3.03316 -0.827445 0
M  V30 7104 N 681.404 1.57128 0.121893 0
M  V30 7105 C 682.651 1.847 0.830188 0
M  V30 7106 C 682.979 0.736543 1.80015 0
M  V30 7107 O 682.234 -0.272358 1.93796 0
M  V30 7108 C 682.533 3.1874 1.61677 0
M  V30 7109 C 682.199 4.43901 0.791361 0
M  V30 7110 C 680.861 4.77887 0.563731 0
M  V30 7111 C 683.213 5.20753 0.215823 0
M  V30 7112 C 680.541 5.86168 -0.249737 0
M  V30 7113 C 682.893 6.29891 -0.584821 0
M  V30 7114 C 681.557 6.6241 -0.822794 0
M  V30 7115 H 680.827 0.675866 0.303787 0
M  V30 7116 H 683.474 1.91276 0.0926894 0
M  V30 7117 H 681.779 3.07728 2.42509 0
M  V30 7118 H 683.476 3.37295 2.16872 0
M  V30 7119 H 680.066 4.17272 0.978867 0
M  V30 7120 H 684.25 4.94851 0.378907 0
M  V30 7121 H 679.506 6.0979 -0.44336 0
M  V30 7122 H 683.68 6.88624 -1.03779 0
M  V30 7123 H 681.307 7.46147 -1.45496 0
M  V30 7124 N 682.882 -0.391992 1.52647 0
M  V30 7125 C 684.131 -1.13449 1.6677 0
M  V30 7126 C 684.444 -1.91203 0.412399 0
M  V30 7127 O 685.65 -2.68013 0.433707 0
M  V30 7128 C 684.106 -2.06577 2.9471 0
M  V30 7129 C 683.714 -1.3426 4.27409 0
M  V30 7130 C 685.458 -2.80981 3.18198 0
M  V30 7131 C 683.365 -2.26136 5.46458 0
M  V30 7132 H 682.295 -0.427211 0.621295 0
M  V30 7133 H 684.946 -0.397522 1.79142 0
M  V30 7134 H 683.328 -2.83898 2.76076 0
M  V30 7135 H 684.502 -0.621856 4.56585 0
M  V30 7136 H 682.817 -0.718279 4.10158 0
M  V30 7137 H 685.414 -3.49898 4.04321 0
M  V30 7138 H 685.757 -3.44891 2.33144 0
M  V30 7139 H 686.29 -2.10754 3.37383 0
M  V30 7140 H 683.029 -1.66846 6.33911 0
M  V30 7141 H 682.549 -2.96134 5.21598 0
M  V30 7142 H 684.228 -2.86286 5.80215 0
M  V30 7143 N 684.36 -1.4356 -0.65026 0
M  V30 7144 C 685.323 -1.48615 -1.74489 0
M  V30 7145 C 686.323 -0.370483 -1.56474 0
M  V30 7146 O 687.513 -0.632351 -1.62317 0
M  V30 7147 C 684.645 -1.34161 -3.13391 0
M  V30 7148 H 685.838 -2.46103 -1.71387 0
M  V30 7149 H 683.391 -1.30369 -0.862186 0
M  V30 7150 H 684.126 -0.376918 -3.22102 0
M  V30 7151 H 683.911 -2.1504 -3.27872 0
M  V30 7152 H 685.401 -1.40637 -3.93206 0
M  V30 7153 N 685.838 0.888903 -1.30139 0
M  V30 7154 C 686.77 1.99972 -1.11999 0
M  V30 7155 C 687.783 1.62673 -0.0643619 0
M  V30 7156 O 688.972 1.75788 -0.309983 0
M  V30 7157 C 686.072 3.31904 -0.685059 0
M  V30 7158 C 685.245 3.97665 -1.82158 0
M  V30 7159 C 684.304 5.07894 -1.37585 0
M  V30 7160 O 683.33 5.2974 -2.08241 0
M  V30 7161 N 684.532 5.7995 -0.252697 0
M  V30 7162 H 687.297 2.16085 -2.07671 0
M  V30 7163 H 684.858 1.06175 -1.22223 0
M  V30 7164 H 686.85 4.03005 -0.369964 0
M  V30 7165 H 685.42 3.12084 0.179507 0
M  V30 7166 H 684.64 3.19787 -2.305 0
M  V30 7167 H 685.928 4.3834 -2.58332 0
M  V30 7168 H 685.326 5.647 0.336141 0
M  V30 7169 H 683.883 6.518 0.00296813 0
M  V30 7170 N 687.317 1.12792 1.10072 0
M  V30 7171 C 688.565 0.883796 1.81751 0
M  V30 7172 C 688.886 -0.591891 1.858 0
M  V30 7173 O 688.156 -1.43017 1.33876 0
M  V30 7174 H 686.736 0.323978 0.673088 0
M  V30 7175 H 689.398 1.42314 1.33164 0
M  V30 7176 H 688.494 1.26863 2.85153 0
M  V30 7177 N 688.795 -1.27931 0.920396 0
M  V30 7178 C 690.206 -1.76707 0.602616 0
M  V30 7179 C 690.557 -1.75249 -0.882159 0
M  V30 7180 O 689.682 -1.35135 -1.69019 0
M  V30 7181 C 690.277 -3.20884 1.08714 0
M  V30 7182 C 688.836 -3.67356 0.820157 0
M  V30 7183 C 687.983 -2.47525 1.25006 0
M  V30 7184 H 690.934 -1.14301 1.10095 0
M  V30 7185 H 690.955 -3.78045 0.431535 0
M  V30 7186 H 690.467 -3.21913 2.1678 0
M  V30 7187 H 688.568 -3.7178 -0.247012 0
M  V30 7188 H 688.681 -4.57181 1.43257 0
M  V30 7189 H 687.045 -2.45765 0.668698 0
M  V30 7190 H 687.828 -2.51269 2.3392 0
M  V30 7191 N 690.273 -0.685099 -1.4193 0
M  V30 7192 C 691.503 -0.220052 -2.05425 0
M  V30 7193 C 691.911 1.13185 -1.51611 0
M  V30 7194 O 691.254 1.71631 -0.654875 0
M  V30 7195 C 691.316 -0.0888364 -3.5939 0
M  V30 7196 C 690.98 -1.37109 -4.35947 0
M  V30 7197 C 691.977 -2.30675 -4.65924 0
M  V30 7198 C 689.662 -1.62155 -4.75406 0
M  V30 7199 C 691.656 -3.47556 -5.34306 0
M  V30 7200 C 689.343 -2.79324 -5.43527 0
M  V30 7201 C 690.341 -3.71848 -5.72903 0
M  V30 7202 O 690.029 -4.86966 -6.39624 0
M  V30 7203 H 689.761 -0.102165 -0.668235 0
M  V30 7204 H 692.315 -0.935194 -1.82875 0
M  V30 7205 H 690.545 0.681981 -3.80639 0
M  V30 7206 H 692.234 0.337669 -4.04493 0
M  V30 7207 H 693 -2.12579 -4.3593 0
M  V30 7208 H 688.879 -0.910053 -4.51928 0
M  V30 7209 H 692.423 -4.19794 -5.57153 0
M  V30 7210 H 688.32 -2.97342 -5.72938 0
M  V30 7211 H 689.088 -4.86644 -6.58118 0
M  V30 7212 N 691.751 1.51645 -0.429126 0
M  V30 7213 C 692.661 2.31288 0.392809 0
M  V30 7214 C 693.677 1.39852 1.03525 0
M  V30 7215 O 694.853 1.72926 1.03241 0
M  V30 7216 C 691.918 3.13347 1.48372 0
M  V30 7217 C 690.979 4.20551 0.862268 0
M  V30 7218 C 690.212 4.98688 1.9012 0
M  V30 7219 O 690.435 4.77359 3.12225 0
M  V30 7220 O 689.369 5.83005 1.4963 0
M  V30 7221 H 693.195 3.02609 -0.257138 0
M  V30 7222 H 690.78 1.48163 -0.191851 0
M  V30 7223 H 692.662 3.64387 2.1166 0
M  V30 7224 H 691.337 2.44799 2.1179 0
M  V30 7225 H 690.244 3.73609 0.191568 0
M  V30 7226 H 691.577 4.91449 0.271704 0
M  V30 7227 N 693.229 0.160201 1.56784 0
M  V30 7228 C 694.177 -0.791402 2.18723 0
M  V30 7229 C 695.171 -1.24567 1.14801 0
M  V30 7230 O 696.377 -1.21262 1.33025 0
M  V30 7231 H 692.752 -0.273458 0.700517 0
M  V30 7232 H 694.723 -0.244931 2.97393 0
M  V30 7233 C 693.472 -2.01509 2.83354 0
M  V30 7234 H 692.795 -1.67454 3.63041 0
M  V30 7235 H 694.235 -2.66006 3.30177 0
M  V30 7236 C 692.694 -2.83159 1.82545 0
M  V30 7237 O 693.224 -3.79944 1.30405 0
M  V30 7238 N 691.43 -2.47953 1.51552 0
M  V30 7239 H 690.977 -1.69309 1.94144 0
M  V30 7240 H 690.935 -3.02873 0.843519 0
M  V30 7241 N 694.707 -1.5719 -0.113559 0
M  V30 7242 C 696.123 -1.52607 -0.467253 0
M  V30 7243 C 696.323 -0.874058 -1.81556 0
M  V30 7244 O 695.379 -0.458703 -2.48299 0
M  V30 7245 C 696.692 -2.97363 -0.446736 0
M  V30 7246 C 698.24 -3.08482 -0.529903 0
M  V30 7247 C 698.715 -4.54809 -0.539721 0
M  V30 7248 N 700.206 -4.59284 -0.601005 0
M  V30 7249 C 700.941 -5.69927 -0.630138 0
M  V30 7250 N 700.437 -6.90051 -0.616589 0
M  V30 7251 N 702.23 -5.5805 -0.673558 0
M  V30 7252 H 694.381 -1.97958 0.769819 0
M  V30 7253 H 696.644 -0.90428 0.284572 0
M  V30 7254 H 696.35 -3.48458 0.47643 0
M  V30 7255 H 696.224 -3.55086 -1.27254 0
M  V30 7256 H 698.611 -2.57386 -1.44349 0
M  V30 7257 H 698.692 -2.53744 0.323695 0
M  V30 7258 H 698.336 -5.06552 0.369843 0
M  V30 7259 H 698.266 -5.07364 -1.41028 0
M  V30 7260 H 700.757 -3.72822 -0.617419 0
M  V30 7261 H 701.07 -7.70132 -0.641592 0
M  V30 7262 H 699.415 -6.92543 -0.583927 0
M  V30 7263 H 702.606 -4.63112 -0.681544 0
M  V30 7264 H 702.779 -6.44286 -0.692794 0
M  V30 7265 N 696.185 0.383891 -1.52853 0
M  V30 7266 C 697.413 1.1495 -1.7203 0
M  V30 7267 C 697.828 1.83578 -0.440957 0
M  V30 7268 O 697.185 1.72872 0.584925 0
M  V30 7269 C 697.236 2.19368 -2.87333 0
M  V30 7270 O 696.957 1.53536 -4.10315 0
M  V30 7271 C 698.458 3.08616 -3.18231 0
M  V30 7272 H 695.678 0.344445 -0.575846 0
M  V30 7273 H 698.222 0.448397 -1.99524 0
M  V30 7274 H 696.377 2.85105 -2.62286 0
M  V30 7275 H 696.791 2.2296 -4.74752 0
M  V30 7276 H 698.265 3.77902 -4.02361 0
M  V30 7277 H 698.742 3.72409 -2.32826 0
M  V30 7278 H 699.348 2.48518 -3.45136 0
M  V30 7279 N 697.663 1.43903 0.642637 0
M  V30 7280 C 698.909 1.46296 1.40447 0
M  V30 7281 C 699.242 0.0908361 1.93987 0
M  V30 7282 O 698.517 -0.889884 1.72949 0
M  V30 7283 C 698.8 2.51399 2.57819 0
M  V30 7284 C 698.653 3.97926 2.09702 0
M  V30 7285 C 699.972 2.53125 3.60022 0
M  V30 7286 H 697.091 0.532676 0.509338 0
M  V30 7287 H 699.733 1.75515 0.727635 0
M  V30 7288 H 697.883 2.26614 3.1556 0
M  V30 7289 H 699.555 4.33804 1.5688 0
M  V30 7290 H 697.798 4.10252 1.40982 0
M  V30 7291 H 698.469 4.67096 2.94152 0
M  V30 7292 H 700.945 2.75242 3.12059 0
M  V30 7293 H 699.821 3.28589 4.39682 0
M  V30 7294 H 700.082 1.56895 4.13324 0
M  V30 7295 N 699.141 -0.881989 1.30609 0
M  V30 7296 C 700.388 -1.63405 1.19604 0
M  V30 7297 C 700.716 -1.92905 -0.248574 0
M  V30 7298 O 699.971 -1.55062 -1.19391 0
M  V30 7299 C 700.27 -2.97999 1.97311 0
M  V30 7300 C 699.936 -2.88039 3.46907 0
M  V30 7301 C 698.598 -2.85029 3.877 0
M  V30 7302 C 700.95 -2.75948 4.42156 0
M  V30 7303 C 698.278 -2.67772 5.2203 0
M  V30 7304 C 700.63 -2.60228 5.76597 0
M  V30 7305 C 699.294 -2.55595 6.16626 0
M  V30 7306 H 698.564 -0.597941 0.437662 0
M  V30 7307 H 701.211 -1.02524 1.61744 0
M  V30 7308 H 699.516 -3.62847 1.47815 0
M  V30 7309 H 701.213 -3.55156 1.86186 0
M  V30 7310 H 697.803 -2.91192 3.14492 0
M  V30 7311 H 701.987 -2.77337 4.1158 0
M  V30 7312 H 697.243 -2.62601 5.52133 0
M  V30 7313 H 701.417 -2.49847 6.50038 0
M  V30 7314 H 699.044 -2.41981 7.20659 0
M  V30 7315 N 700.619 -1.13374 -1.09472 0
M  V30 7316 C 701.529 -0.824029 -2.19652 0
M  V30 7317 C 702.545 0.19118 -1.72947 0
M  V30 7318 O 703.721 0.0223464 -2.01388 0
M  V30 7319 C 700.786 -0.294009 -3.45451 0
M  V30 7320 C 699.847 -1.3704 -4.0684 0
M  V30 7321 C 699.08 -0.86558 -5.26634 0
M  V30 7322 O 699.303 0.29702 -5.69626 0
M  V30 7323 O 698.237 -1.63968 -5.79136 0
M  V30 7324 H 702.063 -1.74454 -2.48595 0
M  V30 7325 H 699.648 -0.911155 -1.18399 0
M  V30 7326 H 701.53 -0.00381039 -4.214 0
M  V30 7327 H 700.205 0.598921 -3.18111 0
M  V30 7328 H 699.112 -1.71391 -3.3253 0
M  V30 7329 H 700.445 -2.23746 -4.38405 0
M  V30 7330 N 702.098 1.27442 -0.927168 0
M  V30 7331 C 703.326 1.98498 -0.583622 0
M  V30 7332 C 703.741 1.69171 0.838241 0
M  V30 7333 O 703.098 0.951969 1.55704 0
M  V30 7334 C 703.149 3.52552 -0.799341 0
M  V30 7335 O 702.87 3.80851 -2.16527 0
M  V30 7336 C 704.371 4.4086 -0.464436 0
M  V30 7337 H 701.591 0.633487 -0.221213 0
M  V30 7338 H 704.135 1.62308 -1.24404 0
M  V30 7339 H 702.29 3.86955 -0.185728 0
M  V30 7340 H 702.704 4.75441 -2.21487 0
M  V30 7341 H 704.178 5.47967 -0.666075 0
M  V30 7342 H 704.655 4.35082 0.599995 0
M  V30 7343 H 705.261 4.11977 -1.05617 0
M  V30 7344 N 703.576 0.692616 1.41565 0
M  V30 7345 C 704.506 0.0397325 2.33466 0
M  V30 7346 C 705.487 -0.770334 1.51657 0
M  V30 7347 O 706.672 -0.723903 1.80203 0
M  V30 7348 C 703.802 -0.899495 3.3545 0
M  V30 7349 C 702.756 -0.196738 4.27548 0
M  V30 7350 C 702.082 -1.25012 5.19881 0
M  V30 7351 C 703.382 0.935158 5.1386 0
M  V30 7352 H 705.076 0.807296 2.88311 0
M  V30 7353 H 702.622 0.389665 1.38628 0
M  V30 7354 H 704.575 -1.36545 3.98665 0
M  V30 7355 H 703.299 -1.69869 2.78948 0
M  V30 7356 H 701.958 0.249158 3.65752 0
M  V30 7357 H 701.606 -2.04177 4.59696 0
M  V30 7358 H 701.306 -0.784931 5.82334 0
M  V30 7359 H 702.83 -1.71665 5.85972 0
M  V30 7360 H 704.244 0.549619 5.70659 0
M  V30 7361 H 702.641 1.32726 5.85238 0
M  V30 7362 H 703.711 1.77613 4.512 0
M  V30 7363 N 705.054 -1.51416 0.437162 0
M  V30 7364 C 706.331 -1.94682 -0.189292 0
M  V30 7365 C 706.711 -1.37581 -1.60108 0
M  V30 7366 O 706.059 -0.562815 -2.2146 0
M  V30 7367 C 706.269 -3.48599 -0.167201 0
M  V30 7368 C 707.617 -4.2296 -0.372856 0
M  V30 7369 O 708.641 -3.55354 -0.245323 0
M  V30 7370 O 707.5 -5.42895 -0.626693 0
M  V30 7371 H 704.594 -0.816708 -0.130063 0
M  V30 7372 H 707.14 -1.62316 0.495128 0
M  V30 7373 H 705.912 -3.82616 0.81981 0
M  V30 7374 H 705.535 -3.87406 -0.894537 0
M  V30 7375 N 706.532 -0.168513 -1.56696 0
M  V30 7376 C 707.781 0.477233 -1.95973 0
M  V30 7377 C 708.094 1.64578 -1.05704 0
M  V30 7378 O 709.3 2.35758 -1.3465 0
M  V30 7379 C 707.756 0.900413 -3.48455 0
M  V30 7380 C 707.364 -0.242382 -4.47344 0
M  V30 7381 C 709.108 1.51474 -3.96555 0
M  V30 7382 C 707.015 0.200272 -5.91061 0
M  V30 7383 H 705.945 0.182061 -0.73169 0
M  V30 7384 H 708.596 -0.256297 -1.81701 0
M  V30 7385 H 706.978 1.68984 -3.58135 0
M  V30 7386 H 708.152 -1.01967 -4.49377 0
M  V30 7387 H 706.467 -0.766484 -4.09285 0
M  V30 7388 H 709.064 1.85792 -5.01384 0
M  V30 7389 H 709.407 2.41163 -3.39332 0
M  V30 7390 H 709.94 0.789802 -3.89881 0
M  V30 7391 H 706.679 -0.661775 -6.52151 0
M  V30 7392 H 706.199 0.942979 -5.92341 0
M  V30 7393 H 707.878 0.645088 -6.43776 0
M  V30 7394 N 708.01 1.57248 0.105221 0
M  V30 7395 C 709.258 1.85204 0.808951 0
M  V30 7396 C 709.579 0.75574 1.7976 0
M  V30 7397 O 708.849 -0.218984 1.94672 0
M  V30 7398 H 707.429 0.683346 0.301739 0
M  V30 7399 H 710.091 1.94695 0.0892605 0
M  V30 7400 H 709.187 2.81595 1.34575 0
M  V30 7401 N 709.488 -0.375779 1.53054 0
M  V30 7402 C 710.734 -1.11767 1.6994 0
M  V30 7403 C 711.089 -1.87288 0.440574 0
M  V30 7404 O 710.382 -1.83045 -0.566146 0
M  V30 7405 C 710.576 -2.11356 2.88207 0
M  V30 7406 C 710.405 -1.45619 4.25471 0
M  V30 7407 C 709.175 -1.21464 4.90484 0
M  V30 7408 C 711.373 -0.899276 5.06377 0
M  V30 7409 N 709.355 -0.519705 6.11696 0
M  V30 7410 C 710.726 -0.333138 6.19104 0
M  V30 7411 C 712.781 -0.79697 4.9148 0
M  V30 7412 C 711.484 0.325316 7.18564 0
M  V30 7413 C 713.51 -0.152315 5.91204 0
M  V30 7414 C 712.872 0.402994 7.03246 0
M  V30 7415 H 708.971 -0.394489 0.675206 0
M  V30 7416 H 711.555 -0.40541 1.90432 0
M  V30 7417 H 709.726 -2.79905 2.69272 0
M  V30 7418 H 711.458 -2.78148 2.93966 0
M  V30 7419 H 708.213 -1.49319 4.49445 0
M  V30 7420 H 708.637 -0.187896 6.76739 0
M  V30 7421 H 713.279 -1.21208 4.05054 0
M  V30 7422 H 710.997 0.752399 8.0459 0
M  V30 7423 H 714.583 -0.074223 5.81753 0
M  V30 7424 H 713.463 0.89394 7.79088 0
M  V30 7425 N 710.966 -1.44241 -0.634997 0
M  V30 7426 C 711.898 -1.46793 -1.76024 0
M  V30 7427 C 712.911 -0.361781 -1.58729 0
M  V30 7428 O 714.1 -0.627297 -1.67114 0
M  V30 7429 C 711.2 -1.28248 -3.13697 0
M  V30 7430 C 710.373 -2.52038 -3.57485 0
M  V30 7431 C 709.432 -2.2845 -4.74022 0
M  V30 7432 O 708.458 -3.01915 -4.82531 0
M  V30 7433 N 709.66 -1.31264 -5.65464 0
M  V30 7434 H 712.425 -2.43797 -1.74307 0
M  V30 7435 H 709.986 -1.39631 -0.819438 0
M  V30 7436 H 711.978 -1.10321 -3.89373 0
M  V30 7437 H 710.548 -0.39623 -3.10079 0
M  V30 7438 H 709.768 -2.85268 -2.72059 0
M  V30 7439 H 711.056 -3.34382 -3.83492 0
M  V30 7440 H 710.454 -0.705817 -5.6128 0
M  V30 7441 H 709.011 -1.19316 -6.40786 0
M  V30 7442 N 712.444 0.87505 -1.31075 0
M  V30 7443 C 713.374 1.99775 -1.20881 0
M  V30 7444 C 714.355 1.69822 -0.0971612 0
M  V30 7445 O 715.54 1.92158 -0.280895 0
M  V30 7446 C 712.67 3.35163 -0.910118 0
M  V30 7447 C 711.624 3.79406 -1.98078 0
M  V30 7448 C 710.95 5.12197 -1.53488 0
M  V30 7449 C 712.25 3.97061 -3.39323 0
M  V30 7450 H 713.944 2.08562 -2.14808 0
M  V30 7451 H 711.49 1.00207 -1.03415 0
M  V30 7452 H 713.443 4.13237 -0.825423 0
M  V30 7453 H 712.167 3.26536 0.064822 0
M  V30 7454 H 710.826 3.03568 -2.05528 0
M  V30 7455 H 710.474 5.00007 -0.547941 0
M  V30 7456 H 710.174 5.4277 -2.2511 0
M  V30 7457 H 711.698 5.92785 -1.46417 0
M  V30 7458 H 713.112 4.65545 -3.34576 0
M  V30 7459 H 711.509 4.39025 -4.09118 0
M  V30 7460 H 712.579 3.00601 -3.80483 0
M  V30 7461 N 713.922 1.13953 1.08869 0
M  V30 7462 C 714.852 0.844824 2.17681 0
M  V30 7463 C 715.833 -0.198213 1.68941 0
M  V30 7464 O 717.018 -0.0559073 1.9412 0
M  V30 7465 C 714.148 0.316325 3.45856 0
M  V30 7466 C 713.102 1.29426 4.07962 0
M  V30 7467 C 712.428 0.625275 5.31031 0
M  V30 7468 C 713.728 2.65484 4.49795 0
M  V30 7469 H 715.422 1.75471 2.42591 0
M  V30 7470 H 712.968 0.845116 1.16592 0
M  V30 7471 H 714.921 0.0977876 4.21287 0
M  V30 7472 H 713.645 -0.628972 3.20486 0
M  V30 7473 H 712.304 1.49889 3.34558 0
M  V30 7474 H 711.952 -0.325678 5.01945 0
M  V30 7475 H 711.652 1.27777 5.73539 0
M  V30 7476 H 713.176 0.416152 6.0918 0
M  V30 7477 H 714.59 2.48957 5.16424 0
M  V30 7478 H 712.987 3.26963 5.03205 0
M  V30 7479 H 714.057 3.22717 3.61914 0
M  V30 7480 N 715.4 -1.26948 0.933913 0
M  V30 7481 C 716.816 -1.46419 0.635103 0
M  V30 7482 C 717.016 -1.84336 -0.813785 0
M  V30 7483 O 716.072 -1.96061 -1.59111 0
M  V30 7484 C 717.385 -2.55206 1.5903 0
M  V30 7485 C 718.933 -2.69062 1.5992 0
M  V30 7486 C 719.408 -3.81013 2.54152 0
M  V30 7487 N 720.899 -3.88395 2.52395 0
M  V30 7488 C 721.634 -4.74454 3.21996 0
M  V30 7489 N 721.13 -5.64954 4.00997 0
M  V30 7490 N 722.923 -4.68237 3.10983 0
M  V30 7491 H 715.074 -1.00622 1.87053 0
M  V30 7492 H 717.337 -0.503189 0.803433 0
M  V30 7493 H 717.043 -2.34153 2.62422 0
M  V30 7494 H 716.917 -3.52719 1.33677 0
M  V30 7495 H 719.304 -2.89492 0.572569 0
M  V30 7496 H 719.385 -1.72016 1.89325 0
M  V30 7497 H 719.029 -3.61336 3.5693 0
M  V30 7498 H 718.959 -4.77499 2.22041 0
M  V30 7499 H 721.45 -3.23687 1.95025 0
M  V30 7500 H 721.763 -6.27496 4.51074 0
M  V30 7501 H 720.108 -5.6473 4.05099 0
M  V30 7502 H 723.299 -3.96535 2.48753 0
M  V30 7503 H 723.472 -5.35087 3.65494 0
M  V30 7504 N 716.879 -0.700114 -1.41195 0
M  V30 7505 C 718.128 -0.230082 -2.00383 0
M  V30 7506 C 718.441 1.17857 -1.56106 0
M  V30 7507 O 719.647 1.74631 -2.07885 0
M  V30 7508 C 718.103 -0.360447 -3.5809 0
M  V30 7509 C 717.711 -1.77475 -4.11347 0
M  V30 7510 C 719.455 0.0495799 -4.24471 0
M  V30 7511 C 717.362 -1.85653 -5.61504 0
M  V30 7512 H 716.292 -0.0822633 -0.749499 0
M  V30 7513 H 718.943 -0.868969 -1.6162 0
M  V30 7514 H 717.325 0.346768 -3.94479 0
M  V30 7515 H 718.499 -2.51109 -3.86369 0
M  V30 7516 H 716.814 -2.13486 -3.57509 0
M  V30 7517 H 719.411 0.00898219 -5.34699 0
M  V30 7518 H 719.754 1.08904 -4.01803 0
M  V30 7519 H 720.287 -0.607521 -3.93134 0
M  V30 7520 H 717.026 -2.87667 -5.89006 0
M  V30 7521 H 716.546 -1.1641 -5.88395 0
M  V30 7522 H 718.225 -1.62151 -6.26351 0
M  V30 7523 N 718.357 1.51182 -0.445186 0
M  V30 7524 C 719.604 2.02152 0.118645 0
M  V30 7525 C 719.932 1.32888 1.42025 0
M  V30 7526 O 719.187 0.435041 1.90803 0
M  V30 7527 C 719.486 3.55408 0.376797 0
M  V30 7528 C 719.152 4.43008 -0.839945 0
M  V30 7529 C 717.814 4.66669 -1.17361 0
M  V30 7530 C 720.166 4.9435 -1.65127 0
M  V30 7531 C 717.494 5.38919 -2.31913 0
M  V30 7532 C 719.846 5.67857 -2.78786 0
M  V30 7533 C 718.51 5.89779 -3.12597 0
M  V30 7534 H 717.78 0.739727 0.0434152 0
M  V30 7535 H 720.427 1.82055 -0.593984 0
M  V30 7536 H 718.732 3.73879 1.1714 0
M  V30 7537 H 720.429 3.92388 0.826602 0
M  V30 7538 H 717.019 4.24793 -0.569958 0
M  V30 7539 H 721.203 4.75947 -1.4067 0
M  V30 7540 H 716.459 5.54105 -2.58413 0
M  V30 7541 H 720.633 6.06628 -3.42017 0
M  V30 7542 H 718.26 6.45542 -4.01471 0
M  V30 7543 N 719.835 0.176821 1.56605 0
M  V30 7544 C 721.246 -0.338963 1.83597 0
M  V30 7545 C 721.597 -1.62677 1.09684 0
M  V30 7546 O 720.722 -2.13524 0.351661 0
M  V30 7547 C 721.317 -0.62177 3.33046 0
M  V30 7548 C 719.876 -1.08198 3.60514 0
M  V30 7549 C 719.023 -0.120774 2.77037 0
M  V30 7550 H 721.974 0.400978 1.53551 0
M  V30 7551 H 721.995 -1.47321 3.50823 0
M  V30 7552 H 721.507 0.315692 3.86814 0
M  V30 7553 H 719.608 -2.03435 3.12162 0
M  V30 7554 H 719.721 -0.987329 4.68816 0
M  V30 7555 H 718.085 -0.619192 2.47059 0
M  V30 7556 H 718.868 0.810806 3.33588 0
M  V30 7557 N 721.313 -1.57302 -0.09688 0
M  V30 7558 C 722.26 -2.01933 -1.11766 0
M  V30 7559 C 723.23 -0.895329 -1.39904 0
M  V30 7560 O 724.415 -1.16119 -1.51397 0
M  V30 7561 C 721.555 -2.44726 -2.43317 0
M  V30 7562 C 720.668 -3.70639 -2.21925 0
M  V30 7563 C 719.803 -4.02318 -3.46862 0
M  V30 7564 C 718.842 -5.21346 -3.20725 0
M  V30 7565 N 717.979 -5.48787 -4.37924 0
M  V30 7566 H 722.819 -2.88919 -0.730075 0
M  V30 7567 H 720.356 -1.42901 -0.348962 0
M  V30 7568 H 722.314 -2.6758 -3.20088 0
M  V30 7569 H 720.944 -1.60753 -2.79926 0
M  V30 7570 H 719.996 -3.55271 -1.35965 0
M  V30 7571 H 721.308 -4.57557 -1.98603 0
M  V30 7572 H 720.462 -4.25939 -4.32042 0
M  V30 7573 H 719.201 -3.13918 -3.73238 0
M  V30 7574 H 718.206 -4.97547 -2.33938 0
M  V30 7575 H 719.431 -6.11343 -2.95697 0
M  V30 7576 H 717.377 -4.63346 -4.64378 0
M  V30 7577 H 717.294 -6.30073 -4.17785 0
M  V30 7578 H 718.562 -5.76943 -5.24173 0
M  V30 7579 N 722.791 0.367657 -1.53252 0
M  V30 7580 C 723.701 1.47415 -1.82499 0
M  V30 7581 C 724.717 1.58711 -0.713222 0
M  V30 7582 O 725.893 1.74644 -1.00306 0
M  V30 7583 C 722.958 2.82706 -2.00694 0
M  V30 7584 C 722.019 2.80955 -3.24596 0
M  V30 7585 C 721.252 4.09793 -3.41914 0
M  V30 7586 O 721.475 5.05852 -2.63572 0
M  V30 7587 O 720.409 4.15731 -4.3526 0
M  V30 7588 H 724.235 1.25624 -2.765 0
M  V30 7589 H 721.82 0.557559 -1.38606 0
M  V30 7590 H 723.702 3.62873 -2.14246 0
M  V30 7591 H 722.377 3.04479 -1.09883 0
M  V30 7592 H 721.284 1.99494 -3.16469 0
M  V30 7593 H 722.617 2.64136 -4.15323 0
M  V30 7594 N 724.269 1.44576 0.627338 0
M  V30 7595 C 725.202 1.46206 1.75212 0
M  V30 7596 C 726.18 0.320483 1.5941 0
M  V30 7597 O 727.364 0.518028 1.81242 0
M  V30 7598 C 724.491 1.29834 3.12827 0
M  V30 7599 C 723.537 2.47603 3.47268 0
M  V30 7600 S 724.37 4.10125 3.44322 0
M  V30 7601 C 725.526 3.96183 4.84551 0
M  V30 7602 H 725.759 2.41378 1.73563 0
M  V30 7603 H 723.292 1.3192 0.802283 0
M  V30 7604 H 725.25 1.21075 3.92239 0
M  V30 7605 H 723.911 0.361662 3.12011 0
M  V30 7606 H 723.104 2.3202 4.47418 0
M  V30 7607 H 722.706 2.53121 2.75329 0
M  V30 7608 H 724.998 3.60107 5.73872 0
M  V30 7609 H 725.941 4.96176 5.05188 0
M  V30 7610 H 726.349 3.28177 4.59304 0
M  V30 7611 N 725.747 -0.868086 1.31537 0
M  V30 7612 C 726.677 -1.99131 1.21939 0
M  V30 7613 C 727.658 -1.69768 0.106166 0
M  V30 7614 O 728.843 -1.92006 0.291081 0
M  V30 7615 C 725.973 -3.34676 0.927879 0
M  V30 7616 C 724.927 -3.7835 2.00088 0
M  V30 7617 C 724.253 -5.11375 1.56203 0
M  V30 7618 C 725.553 -3.95256 3.41424 0
M  V30 7619 H 727.247 -2.07419 2.15911 0
M  V30 7620 H 724.793 -0.996569 1.03945 0
M  V30 7621 H 726.746 -4.12793 0.847327 0
M  V30 7622 H 725.47 -3.26565 -0.0475042 0
M  V30 7623 H 724.129 -3.02474 2.07135 0
M  V30 7624 H 723.777 -4.99709 0.57445 0
M  V30 7625 H 723.477 -5.41568 2.27985 0
M  V30 7626 H 725.001 -5.92001 1.49558 0
M  V30 7627 H 726.415 -4.63764 3.3704 0
M  V30 7628 H 724.812 -4.36849 4.1144 0
M  V30 7629 H 725.882 -2.98579 3.82072 0
M  V30 7630 N 727.225 -1.14528 -1.08264 0
M  V30 7631 C 728.172 -0.833556 -2.15222 0
M  V30 7632 C 729.142 0.209539 -1.64773 0
M  V30 7633 O 730.327 0.0791388 -1.90636 0
M  V30 7634 C 727.467 -0.318799 -3.43624 0
M  V30 7635 C 726.58 -1.42237 -4.07913 0
M  V30 7636 C 725.715 -0.864704 -5.24115 0
M  V30 7637 C 724.754 -1.94585 -5.80347 0
M  V30 7638 N 723.891 -1.40525 -6.87893 0
M  V30 7639 H 728.731 -1.74965 -2.41228 0
M  V30 7640 H 726.268 -0.873169 -1.18381 0
M  V30 7641 H 728.226 -0.00213088 -4.172 0
M  V30 7642 H 726.856 0.560397 -3.17898 0
M  V30 7643 H 725.908 -1.8554 -3.32083 0
M  V30 7644 H 727.22 -2.23901 -4.45724 0
M  V30 7645 H 726.374 -0.500025 -6.04636 0
M  V30 7646 H 725.113 -0.0171219 -4.87697 0
M  V30 7647 H 724.118 -2.31946 -4.98479 0
M  V30 7648 H 725.343 -2.79704 -6.18823 0
M  V30 7649 H 723.289 -0.579873 -6.53432 0
M  V30 7650 H 723.206 -2.15825 -7.24538 0
M  V30 7651 H 724.474 -1.06852 -7.72142 0
M  V30 7652 N 728.703 1.26451 -0.940633 0
M  V30 7653 C 730.119 1.4608 -0.642859 0
M  V30 7654 C 730.319 1.84765 0.803998 0
M  V30 7655 O 729.375 1.96902 1.58069 0
M  V30 7656 C 730.688 2.54359 -1.60381 0
M  V30 7657 C 732.236 2.6821 -1.61345 0
M  V30 7658 C 732.711 3.79659 -2.56169 0
M  V30 7659 N 734.202 3.87051 -2.54452 0
M  V30 7660 C 734.937 4.72739 -3.24507 0
M  V30 7661 N 734.433 5.6282 -4.03987 0
M  V30 7662 N 736.226 4.66581 -3.13462 0
M  V30 7663 H 728.377 0.996289 -1.87584 0
M  V30 7664 H 730.64 0.498921 -0.80609 0
M  V30 7665 H 730.346 2.32758 -2.6366 0
M  V30 7666 H 730.22 3.52005 -1.35545 0
M  V30 7667 H 732.607 2.89184 -0.587913 0
M  V30 7668 H 732.688 1.7101 -1.90235 0
M  V30 7669 H 732.332 3.59438 -3.58841 0
M  V30 7670 H 732.262 4.76315 -2.2457 0
M  V30 7671 H 734.753 3.22649 -1.96739 0
M  V30 7672 H 735.066 6.25095 -4.54396 0
M  V30 7673 H 733.411 5.62574 -4.08088 0
M  V30 7674 H 736.602 3.9521 -2.50852 0
M  V30 7675 H 736.775 5.33141 -3.68327 0
M  V30 7676 N 730.181 0.707592 1.40822 0
M  V30 7677 C 731.43 0.240705 2.00259 0
M  V30 7678 C 731.743 -1.17027 1.56729 0
M  V30 7679 O 732.949 -1.73526 2.08809 0
M  V30 7680 C 731.405 0.379432 3.57894 0
M  V30 7681 C 731.013 1.79654 4.104 0
M  V30 7682 C 732.757 -0.0270684 4.24491 0
M  V30 7683 C 730.664 1.88628 5.60512 0
M  V30 7684 H 729.594 0.0862369 0.749052 0
M  V30 7685 H 732.245 0.877528 1.61157 0
M  V30 7686 H 730.627 -0.325842 3.94657 0
M  V30 7687 H 731.801 2.53155 3.85032 0
M  V30 7688 H 730.116 2.15379 3.56372 0
M  V30 7689 H 732.713 0.0193743 5.34696 0
M  V30 7690 H 733.056 -1.06772 4.02375 0
M  V30 7691 H 733.589 0.628361 3.92806 0
M  V30 7692 H 730.328 2.90787 5.87472 0
M  V30 7693 H 729.848 1.19528 5.8777 0
M  V30 7694 H 731.527 1.6547 6.25483 0
M  V30 7695 N 731.66 -1.50943 0.453197 0
M  V30 7696 C 733.071 -1.86699 -0.00619892 0
M  V30 7697 C 733.422 -1.3693 -1.40515 0
M  V30 7698 O 732.547 -0.726715 -2.03833 0
M  V30 7699 C 733.142 -3.38795 -0.018025 0
M  V30 7700 C 731.701 -3.74028 -0.421885 0
M  V30 7701 C 730.848 -2.74752 0.375087 0
M  V30 7702 H 733.799 -1.43942 0.668317 0
M  V30 7703 H 733.82 -3.71468 -0.824125 0
M  V30 7704 H 733.332 -3.74988 1.00028 0
M  V30 7705 H 731.433 -3.43431 -1.44521 0
M  V30 7706 H 731.546 -4.78908 -0.135664 0
M  V30 7707 H 729.91 -2.5414 -0.168794 0
M  V30 7708 H 730.693 -3.13787 1.39256 0
M  V30 7709 N 733.138 -0.185124 -1.56509 0
M  V30 7710 C 734.07 0.771401 -2.15829 0
M  V30 7711 C 735.083 1.18392 -1.11747 0
M  V30 7712 O 736.272 1.12137 -1.38879 0
M  V30 7713 C 733.372 2.05169 -2.69739 0
M  V30 7714 C 732.545 1.80056 -3.98621 0
M  V30 7715 C 731.604 2.92435 -4.37456 0
M  V30 7716 O 730.63 2.62473 -5.05071 0
M  V30 7717 N 731.832 4.20554 -4.00143 0
M  V30 7718 H 734.597 0.264184 -2.98533 0
M  V30 7719 H 732.158 -0.00281069 -1.619 0
M  V30 7720 H 734.15 2.7947 -2.92709 0
M  V30 7721 H 732.72 2.47041 -1.91545 0
M  V30 7722 H 731.94 0.895862 -3.83885 0
M  V30 7723 H 733.228 1.60662 -4.82768 0
M  V30 7724 H 732.626 4.47753 -3.45736 0
M  V30 7725 H 731.183 4.91514 -4.28085 0
M  V30 7726 N 734.616 1.57351 0.0885366 0
M  V30 7727 C 735.841 1.91011 0.80805 0
M  V30 7728 C 736.266 0.780009 1.71165 0
M  V30 7729 O 735.624 -0.268083 1.79307 0
M  V30 7730 C 735.672 3.23562 1.59185 0
M  V30 7731 O 734.776 3.11615 2.7013 0
M  V30 7732 H 734.117 0.625943 0.221565 0
M  V30 7733 H 736.647 2.04507 0.0617954 0
M  V30 7734 H 736.657 3.5703 1.97468 0
M  V30 7735 H 735.332 4.05398 0.928741 0
M  V30 7736 H 733.909 2.89673 2.34827 0
M  V30 7737 N 736.094 -0.359525 1.53444 0
M  V30 7738 C 737.322 -1.12198 1.73837 0
M  V30 7739 C 737.737 -1.82854 0.470107 0
M  V30 7740 O 737.094 -1.73781 -0.557349 0
M  V30 7741 C 737.145 -2.14769 2.90786 0
M  V30 7742 O 736.866 -1.46989 4.12706 0
M  V30 7743 C 738.367 -3.03514 3.231 0
M  V30 7744 H 735.587 -0.33524 0.581253 0
M  V30 7745 H 738.131 -0.416598 2.00212 0
M  V30 7746 H 736.286 -2.80896 2.66788 0
M  V30 7747 H 736.7 -2.15378 4.78239 0
M  V30 7748 H 738.174 -3.71453 4.08322 0
M  V30 7749 H 738.651 -3.68658 2.38721 0
M  V30 7750 H 739.257 -2.42996 3.49046 0
M  V30 7751 N 737.572 -1.44907 -0.619662 0
M  V30 7752 C 738.502 -1.55488 -1.742 0
M  V30 7753 C 739.483 -0.407143 -1.65156 0
M  V30 7754 O 740.668 -0.628743 -1.8374 0
M  V30 7755 C 737.798 -1.5097 -3.1277 0
M  V30 7756 C 736.752 -2.64337 -3.36615 0
M  V30 7757 C 736.078 -2.44872 -4.75333 0
M  V30 7758 C 737.378 -4.06423 -3.28051 0
M  V30 7759 H 739.072 -2.49432 -1.65602 0
M  V30 7760 H 736.618 -1.20047 -0.795281 0
M  V30 7761 H 738.571 -1.56971 -3.91073 0
M  V30 7762 H 737.295 -0.535486 -3.2218 0
M  V30 7763 H 735.954 -2.57744 -2.60698 0
M  V30 7764 H 735.602 -1.45617 -4.81461 0
M  V30 7765 H 735.302 -3.20888 -4.92244 0
M  V30 7766 H 736.826 -2.52709 -5.55851 0
M  V30 7767 H 738.24 -4.14324 -3.96243 0
M  V30 7768 H 736.637 -4.82733 -3.56495 0
M  V30 7769 H 737.707 -4.29183 -2.25676 0
M  V30 7770 N 739.05 0.861098 -1.31996 0
M  V30 7771 C 740.275 1.65264 -1.2531 0
M  V30 7772 C 740.7 1.87265 0.177007 0
M  V30 7773 O 740.058 1.4208 1.12619 0
M  V30 7774 C 740.106 2.99284 -2.0115 0
M  V30 7775 O 739.21 3.89508 -1.3549 0
M  V30 7776 H 738.551 0.50409 -0.432192 0
M  V30 7777 H 741.081 1.07297 -1.74208 0
M  V30 7778 H 741.091 3.49154 -2.11081 0
M  V30 7779 H 739.766 2.82591 -3.05148 0
M  V30 7780 H 738.343 3.47966 -1.34066 0
M  V30 7781 N 740.528 1.15101 1.07655 0
M  V30 7782 C 741.438 0.858869 2.18313 0
M  V30 7783 C 742.454 -0.163641 1.73229 0
M  V30 7784 O 743.63 0.00969541 2.01398 0
M  V30 7785 C 740.695 0.34893 3.4494 0
M  V30 7786 C 739.756 1.43495 4.04608 0
M  V30 7787 C 738.989 0.949253 5.2519 0
M  V30 7788 O 739.212 -0.20636 5.70027 0
M  V30 7789 O 738.146 1.73161 5.76454 0
M  V30 7790 H 741.972 1.78386 2.45788 0
M  V30 7791 H 739.557 0.929876 1.16934 0
M  V30 7792 H 741.439 0.070851 4.2134 0
M  V30 7793 H 740.114 -0.548237 3.19024 0
M  V30 7794 H 739.021 1.7666 3.29761 0
M  V30 7795 H 740.354 2.30692 4.3479 0
M  V30 7796 N 742.006 -1.2595 0.947325 0
M  V30 7797 C 743.253 -1.93463 0.598178 0
M  V30 7798 C 743.581 -1.74271 -0.863705 0
M  V30 7799 O 742.836 -1.07684 -1.63409 0
M  V30 7800 C 743.135 -3.46034 0.894158 0
M  V30 7801 C 742.801 -3.85373 2.3409 0
M  V30 7802 C 741.463 -3.95823 2.73637 0
M  V30 7803 C 743.815 -4.04986 3.2808 0
M  V30 7804 C 741.143 -4.23288 4.06257 0
M  V30 7805 C 743.495 -4.3394 4.60303 0
M  V30 7806 C 742.159 -4.42606 4.99656 0
M  V30 7807 H 741.429 -0.707933 0.218889 0
M  V30 7808 H 744.076 -1.4964 1.19499 0
M  V30 7809 H 742.381 -3.9121 0.214874 0
M  V30 7810 H 744.078 -3.96445 0.602698 0
M  V30 7811 H 740.668 -3.7779 2.02417 0
M  V30 7812 H 744.852 -3.96333 2.9872 0
M  V30 7813 H 740.108 -4.28211 4.36401 0
M  V30 7814 H 744.282 -4.48061 5.33118 0
M  V30 7815 H 741.909 -4.63641 6.02446 0
M  V30 7816 N 743.484 -0.715051 -1.40445 0
M  V30 7817 C 744.714 -0.263576 -2.04912 0
M  V30 7818 C 745.122 1.09943 -1.53978 0
M  V30 7819 O 744.465 1.70203 -0.691133 0
M  V30 7820 C 744.527 -0.165048 -3.59121 0
M  V30 7821 C 744.191 -1.46325 -4.32941 0
M  V30 7822 C 745.188 -2.40506 -4.60926 0
M  V30 7823 C 742.873 -1.72203 -4.7186 0
M  V30 7824 C 744.867 -3.58812 -5.26814 0
M  V30 7825 C 742.554 -2.9079 -5.3748 0
M  V30 7826 C 743.552 -3.83917 -5.64887 0
M  V30 7827 O 743.24 -5.00424 -6.29151 0
M  V30 7828 H 742.972 -0.116317 -0.665918 0
M  V30 7829 H 745.526 -0.973774 -1.8085 0
M  V30 7830 H 743.756 0.601088 -3.82 0
M  V30 7831 H 745.445 0.251794 -4.05118 0
M  V30 7832 H 746.211 -2.21778 -4.31323 0
M  V30 7833 H 742.09 -1.00571 -4.49896 0
M  V30 7834 H 745.634 -4.31517 -5.48123 0
M  V30 7835 H 741.531 -3.09428 -5.66502 0
M  V30 7836 H 742.299 -5.00494 -6.47648 0
M  V30 7837 N 744.962 1.50701 -0.461195 0
M  V30 7838 C 746.373 1.867 -0.00370227 0
M  V30 7839 C 746.724 1.37673 1.39787 0
M  V30 7840 O 745.849 0.737515 2.03445 0
M  V30 7841 C 746.444 3.388 5.75786e-05 0
M  V30 7842 C 745.003 3.74247 0.402044 0
M  V30 7843 C 744.15 2.74549 -0.389652 0
M  V30 7844 H 747.101 1.43585 -0.675942 0
M  V30 7845 H 747.122 3.719 0.804414 0
M  V30 7846 H 746.634 3.74452 -1.02015 0
M  V30 7847 H 744.735 3.44192 1.42697 0
M  V30 7848 H 744.848 4.78973 0.110265 0
M  V30 7849 H 743.212 2.54226 0.155314 0
M  V30 7850 H 743.995 3.13044 -1.40919 0
M  V30 7851 N 746.441 0.193421 1.56409 0
M  V30 7852 C 747.857 -0.162447 1.58771 0
M  V30 7853 C 748.057 -1.6116 1.20954 0
M  V30 7854 O 747.113 -2.3469 0.931497 0
M  V30 7855 C 748.426 0.138391 3.00381 0
M  V30 7856 C 749.974 0.0783649 3.12902 0
M  V30 7857 C 750.449 0.352491 4.56642 0
M  V30 7858 N 751.94 0.30105 4.62221 0
M  V30 7859 C 752.675 0.487028 5.71328 0
M  V30 7860 N 752.171 0.733265 6.88909 0
M  V30 7861 N 753.964 0.4214 5.60518 0
M  V30 7862 H 746.115 1.13909 1.79272 0
M  V30 7863 H 748.378 0.454528 0.83193 0
M  V30 7864 H 748.084 1.14312 3.32604 0
M  V30 7865 H 747.958 -0.559804 3.73023 0
M  V30 7866 H 750.345 -0.916963 2.80492 0
M  V30 7867 H 750.426 0.809611 2.4265 0
M  V30 7868 H 750.07 1.34513 4.89764 0
M  V30 7869 H 750 -0.399624 5.25081 0
M  V30 7870 H 752.491 0.117279 3.77718 0
M  V30 7871 H 752.804 0.86403 7.67955 0
M  V30 7872 H 751.149 0.770138 6.9072 0
M  V30 7873 H 754.34 0.229461 4.67537 0
M  V30 7874 H 754.513 0.569758 6.4549 0
M  V30 7875 N 747.919 -1.57396 -0.0801906 0
M  V30 7876 C 749.196 -1.77883 -0.813451 0
M  V30 7877 C 749.576 -0.778879 -1.96206 0
M  V30 7878 O 748.924 0.189683 -2.27711 0
M  V30 7879 C 749.134 -3.24116 -1.2942 0
M  V30 7880 C 750.482 -3.87714 -1.73098 0
M  V30 7881 O 751.506 -3.27956 -1.39007 0
M  V30 7882 O 750.365 -4.92828 -2.36184 0
M  V30 7883 H 747.459 -0.729727 -0.389138 0
M  V30 7884 H 750.005 -1.69591 -0.0609166 0
M  V30 7885 H 748.777 -3.88443 -0.471947 0
M  V30 7886 H 748.4 -3.371 -2.1083 0
M  V30 7887 N 749.397 0.351382 -1.53633 0
M  V30 7888 C 750.622 1.11718 -1.74739 0
M  V30 7889 C 751.047 1.81829 -0.481657 0
M  V30 7890 O 750.405 1.72264 0.565233 0
M  V30 7891 C 750.453 2.11234 -2.92254 0
M  V30 7892 O 749.557 3.186 -2.61855 0
M  V30 7893 H 748.898 0.323482 -0.579875 0
M  V30 7894 H 751.428 0.404167 -2.00568 0
M  V30 7895 H 751.438 2.54591 -3.18822 0
M  V30 7896 H 750.113 1.59599 -3.84058 0
M  V30 7897 H 748.69 2.80115 -2.4615 0
M  V30 7898 N 750.875 1.45233 0.611969 0
M  V30 7899 C 751.838 1.53189 1.70487 0
M  V30 7900 C 752.838 0.411839 1.55437 0
M  V30 7901 O 754.028 0.675164 1.60584 0
M  V30 7902 C 751.16 1.42422 3.09723 0
M  V30 7903 H 752.353 2.5056 1.64802 0
M  V30 7904 H 749.906 1.32609 0.827318 0
M  V30 7905 H 750.641 0.462185 3.2099 0
M  V30 7906 H 750.426 2.23658 3.22055 0
M  V30 7907 H 751.916 1.51012 3.89339 0
M  V30 7908 N 752.353 -0.854086 1.3245 0
M  V30 7909 C 753.3 -1.96271 1.21434 0
M  V30 7910 C 754.27 -1.6582 0.0963851 0
M  V30 7911 O 755.455 -1.88851 0.27203 0
M  V30 7912 C 752.595 -3.31939 0.943952 0
M  V30 7913 C 751.708 -3.74885 2.14675 0
M  V30 7914 C 750.843 -4.99347 1.81179 0
M  V30 7915 C 749.882 -5.34785 2.97777 0
M  V30 7916 N 749.019 -6.50425 2.6437 0
M  V30 7917 H 753.859 -2.05025 2.16261 0
M  V30 7918 H 751.396 -1.00348 1.07558 0
M  V30 7919 H 753.354 -4.10076 0.767675 0
M  V30 7920 H 751.984 -3.22784 0.0324763 0
M  V30 7921 H 751.036 -2.92396 2.43328 0
M  V30 7922 H 752.348 -3.97068 3.01891 0
M  V30 7923 H 751.502 -5.85193 1.60107 0
M  V30 7924 H 750.241 -4.79101 0.911777 0
M  V30 7925 H 749.246 -4.47451 3.1948 0
M  V30 7926 H 750.471 -5.56988 3.88511 0
M  V30 7927 H 748.417 -6.31695 1.7691 0
M  V30 7928 H 748.334 -6.7263 3.45116 0
M  V30 7929 H 749.602 -7.39422 2.46729 0
M  V30 7930 N 753.831 -1.1567 -1.07043 0
M  V30 7931 C 754.781 -0.824733 -2.12561 0
M  V30 7932 C 755.765 0.19243 -1.59745 0
M  V30 7933 O 756.957 -0.00728759 -1.76998 0
M  V30 7934 C 754.086 -0.31921 -3.41813 0
M  V30 7935 C 753.172 -1.36671 -4.01475 0
M  V30 7936 N 753.563 -2.57493 -4.35351 0
M  V30 7937 C 751.861 -1.22018 -4.28984 0
M  V30 7938 C 752.562 -3.24658 -4.82672 0
M  V30 7939 N 751.538 -2.52043 -4.81638 0
M  V30 7940 H 755.34 -1.74363 -2.3659 0
M  V30 7941 H 752.854 -1.04262 -1.24511 0
M  V30 7942 H 754.851 -0.0630216 -4.16852 0
M  V30 7943 H 753.511 0.593708 -3.19226 0
M  V30 7944 H 754.522 -2.94612 -4.25939 0
M  V30 7945 H 751.199 -0.367414 -4.1588 0
M  V30 7946 H 752.589 -4.2775 -5.1815 0
M  V30 7947 O 755.348 1.19707 -1.08409 0
M  V30 7948 H 756.039 1.77498 -0.775504 0
M  V30 END ATOM
M  V30 BEGIN BOND
M  V30 END BOND
M  V30 END CTAB
M  END
$$$$
