drugbank_target|P82543 Cytochrome c oxidase polypeptide 2A (DB02451)
 OpenBabel12092120433D

558564  0  0  0  0  0  0  0  0999 V2000
   -0.9080    1.9825   -0.1171 H   0  0  0  0  0 15  0  0  0  0  0  0
    0.0000    1.5760    0.0000 N   0  0  0  0  0 15  0  0  0  0  0  0
    0.9330    2.0387    1.0253 C   0  0  0  0  0 15  0  0  0  0  0  0
    1.9110    0.9285    1.3348 C   0  0  0  0  0 15  0  0  0  0  0  0
    3.0950    1.1967    1.4564 O   0  0  0  0  0 15  0  0  0  0  0  0
    0.2220    2.4363    2.3529 C   0  0  0  0  0 15  0  0  0  0  0  0
   -0.7320    3.6537    2.2001 C   0  0  0  0  0 15  0  0  0  0  0  0
    0.1010    5.1329    1.5261 S   0  0  0  0  0 15  0  0  0  0  0  0
    1.2570    5.5632    2.8680 C   0  0  0  0  0 15  0  0  0  0  0  0
    1.4900    2.9052    0.6314 H   0  0  0  0  0 15  0  0  0  0  0  0
   -0.9770    1.5295    0.2109 H   0  0  0  0  0 15  0  0  0  0  0  0
    0.9810    2.6720    3.1163 H   0  0  0  0  0 15  0  0  0  0  0  0
   -0.3580    1.5738    2.7183 H   0  0  0  0  0 15  0  0  0  0  0  0
   -1.1650    3.9094    3.1809 H   0  0  0  0  0 15  0  0  0  0  0  0
   -1.5630    3.4180    1.5182 H   0  0  0  0  0 15  0  0  0  0  0  0
    0.7290    5.5878    3.8310 H   0  0  0  0  0 15  0  0  0  0  0  0
    1.6720    6.5627    2.6593 H   0  0  0  0  0 15  0  0  0  0  0  0
    2.0800    4.8389    2.9071 H   0  0  0  0  0 15  0  0  0  0  0  0
    1.4781   -0.2728    1.5522 N   0  0  0  0  0 15  0  0  0  0  0  0
    2.3881   -1.3592    1.9122 C   0  0  0  0  0 15  0  0  0  0  0  0
    3.4041   -1.5403    0.8094 C   0  0  0  0  0 15  0  0  0  0  0  0
    4.5801   -1.6815    1.1085 O   0  0  0  0  0 15  0  0  0  0  0  0
    1.6451   -2.6983    2.1769 C   0  0  0  0  0 15  0  0  0  0  0  0
    0.7061   -2.6047    3.4125 C   0  0  0  0  0 15  0  0  0  0  0  0
   -0.0609   -3.8800    3.6646 C   0  0  0  0  0 15  0  0  0  0  0  0
    0.1621   -4.8869    2.9417 O   0  0  0  0  0 15  0  0  0  0  0  0
   -0.9039   -3.8819    4.5999 O   0  0  0  0  0 15  0  0  0  0  0  0
    2.9221   -1.0839    2.8370 H   0  0  0  0  0 15  0  0  0  0  0  0
    0.5071   -0.4713    1.4177 H   0  0  0  0  0 15  0  0  0  0  0  0
    2.3891   -3.4902    2.3615 H   0  0  0  0  0 15  0  0  0  0  0  0
    1.0641   -2.9715    1.2839 H   0  0  0  0  0 15  0  0  0  0  0  0
   -0.0289   -1.7966    3.2813 H   0  0  0  0  0 15  0  0  0  0  0  0
    1.3041   -2.3811    4.3077 H   0  0  0  0  0 15  0  0  0  0  0  0
    2.9562   -1.4816   -0.5373 N   0  0  0  0  0 15  0  0  0  0  0  0
    3.8662   -1.6481   -1.6696 C   0  0  0  0  0 15  0  0  0  0  0  0
    4.8822   -0.5307   -1.6571 C   0  0  0  0  0 15  0  0  0  0  0  0
    6.0582   -0.8008   -1.8480 O   0  0  0  0  0 15  0  0  0  0  0  0
    3.1232   -1.6771   -3.0344 C   0  0  0  0  0 15  0  0  0  0  0  0
    2.1842   -2.9102   -3.1560 C   0  0  0  0  0 15  0  0  0  0  0  0
    1.4172   -2.9378   -4.4557 C   0  0  0  0  0 15  0  0  0  0  0  0
    1.6402   -2.0515   -5.3223 O   0  0  0  0  0 15  0  0  0  0  0  0
    0.5742   -3.8587   -4.6194 O   0  0  0  0  0 15  0  0  0  0  0  0
    4.4002   -2.6066   -1.5585 H   0  0  0  0  0 15  0  0  0  0  0  0
    1.9852   -1.3148   -0.7095 H   0  0  0  0  0 15  0  0  0  0  0  0
    3.8672   -1.7218   -3.8462 H   0  0  0  0  0 15  0  0  0  0  0  0
    2.5422   -0.7503   -3.1488 H   0  0  0  0  0 15  0  0  0  0  0  0
    1.4492   -2.9209   -2.3374 H   0  0  0  0  0 15  0  0  0  0  0  0
    2.7822   -3.8307   -3.0907 H   0  0  0  0  0 15  0  0  0  0  0  0
    4.4343    0.7856   -1.3662 N   0  0  0  0  0 15  0  0  0  0  0  0
    5.3813    1.8984   -1.3126 C   0  0  0  0  0 15  0  0  0  0  0  0
    6.3513    1.6511   -0.1806 C   0  0  0  0  0 15  0  0  0  0  0  0
    7.5363    1.8722   -0.3678 O   0  0  0  0  0 15  0  0  0  0  0  0
    4.6763    3.2671   -1.1116 C   0  0  0  0  0 15  0  0  0  0  0  0
    3.7893    3.6348   -2.3347 C   0  0  0  0  0 15  0  0  0  0  0  0
    2.9243    4.8948   -2.0635 C   0  0  0  0  0 15  0  0  0  0  0  0
    1.9633    5.1894   -3.2460 C   0  0  0  0  0 15  0  0  0  0  0  0
    1.1003    6.3613   -2.9712 N   0  0  0  0  0 15  0  0  0  0  0  0
    5.9403    1.9376   -2.2641 H   0  0  0  0  0 15  0  0  0  0  0  0
    3.4773    0.9475   -1.1252 H   0  0  0  0  0 15  0  0  0  0  0  0
    5.4353    4.0564   -0.9753 H   0  0  0  0  0 15  0  0  0  0  0  0
    4.0653    3.2220   -0.1967 H   0  0  0  0  0 15  0  0  0  0  0  0
    3.1173    2.7964   -2.5789 H   0  0  0  0  0 15  0  0  0  0  0  0
    4.4293    3.8119   -3.2170 H   0  0  0  0  0 15  0  0  0  0  0  0
    3.5833    5.7629   -1.8968 H   0  0  0  0  0 15  0  0  0  0  0  0
    2.3223    4.7384   -1.1544 H   0  0  0  0  0 15  0  0  0  0  0  0
    1.3273    4.3062   -3.4183 H   0  0  0  0  0 15  0  0  0  0  0  0
    2.5523    5.3650   -4.1635 H   0  0  0  0  0 15  0  0  0  0  0  0
    0.4983    6.2188   -2.0882 H   0  0  0  0  0 15  0  0  0  0  0  0
    0.4153    6.5420   -3.7889 H   0  0  0  0  0 15  0  0  0  0  0  0
    1.6833    7.2591   -2.8403 H   0  0  0  0  0 15  0  0  0  0  0  0
    5.9124    1.2097    1.0102 N   0  0  0  0  0 15  0  0  0  0  0  0
    7.3234    1.0232    1.5617 C   0  0  0  0  0 15  0  0  0  0  0  0
    7.6744   -0.4185    1.9168 C   0  0  0  0  0 15  0  0  0  0  0  0
    6.7994   -1.3010    1.7293 O   0  0  0  0  0 15  0  0  0  0  0  0
    7.3944    1.8511    2.8376 C   0  0  0  0  0 15  0  0  0  0  0  0
    5.9534    1.7081    3.3541 C   0  0  0  0  0 15  0  0  0  0  0  0
    5.1004    1.8264    2.0865 C   0  0  0  0  0 15  0  0  0  0  0  0
    8.0514    1.3506    0.8333 H   0  0  0  0  0 15  0  0  0  0  0  0
    8.0724    1.3583    3.5543 H   0  0  0  0  0 15  0  0  0  0  0  0
    7.5844    2.9004    2.5788 H   0  0  0  0  0 15  0  0  0  0  0  0
    5.6854    0.6855    3.6624 H   0  0  0  0  0 15  0  0  0  0  0  0
    5.7984    2.5247    4.0718 H   0  0  0  0  0 15  0  0  0  0  0  0
    4.1624    1.2590    2.2141 H   0  0  0  0  0 15  0  0  0  0  0  0
    4.9454    2.8907    1.8519 H   0  0  0  0  0 15  0  0  0  0  0  0
    7.3905   -1.2043    1.0166 N   0  0  0  0  0 15  0  0  0  0  0  0
    8.3375   -2.2322    0.5868 C   0  0  0  0  0 15  0  0  0  0  0  0
    9.3075   -1.6138   -0.3931 C   0  0  0  0  0 15  0  0  0  0  0  0
   10.4925   -1.8854   -0.2925 O   0  0  0  0  0 15  0  0  0  0  0  0
    7.6325   -3.4503   -0.0687 C   0  0  0  0  0 15  0  0  0  0  0  0
    6.7455   -4.2130    0.9557 C   0  0  0  0  0 15  0  0  0  0  0  0
    5.8805   -5.3051    0.2712 C   0  0  0  0  0 15  0  0  0  0  0  0
    4.9195   -5.9851    1.2824 C   0  0  0  0  0 15  0  0  0  0  0  0
    4.0565   -6.9932    0.6246 N   0  0  0  0  0 15  0  0  0  0  0  0
    8.8965   -2.5934    1.4680 H   0  0  0  0  0 15  0  0  0  0  0  0
    6.4335   -1.2743    0.7348 H   0  0  0  0  0 15  0  0  0  0  0  0
    8.3915   -4.1459   -0.4660 H   0  0  0  0  0 15  0  0  0  0  0  0
    7.0215   -3.0960   -0.9135 H   0  0  0  0  0 15  0  0  0  0  0  0
    6.0735   -3.5080    1.4711 H   0  0  0  0  0 15  0  0  0  0  0  0
    7.3855   -4.6803    1.7248 H   0  0  0  0  0 15  0  0  0  0  0  0
    6.5395   -6.0643   -0.1815 H   0  0  0  0  0 15  0  0  0  0  0  0
    5.2785   -4.8481   -0.5302 H   0  0  0  0  0 15  0  0  0  0  0  0
    4.2835   -5.2135    1.7455 H   0  0  0  0  0 15  0  0  0  0  0  0
    5.5085   -6.4630    2.0851 H   0  0  0  0  0 15  0  0  0  0  0  0
    3.4545   -6.5581   -0.1569 H   0  0  0  0  0 15  0  0  0  0  0  0
    3.3715   -7.4418    1.3317 H   0  0  0  0  0 15  0  0  0  0  0  0
    4.6395   -7.7925    0.1955 H   0  0  0  0  0 15  0  0  0  0  0  0
    8.8686   -0.7928   -1.3621 N   0  0  0  0  0 15  0  0  0  0  0  0
   10.1166   -0.3661   -1.9876 C   0  0  0  0  0 15  0  0  0  0  0  0
   10.4376    1.0668   -1.6323 C   0  0  0  0  0 15  0  0  0  0  0  0
    9.7076    1.7359   -0.9080 O   0  0  0  0  0 15  0  0  0  0  0  0
    8.2876   -0.1324   -0.7352 H   0  0  0  0  0 15  0  0  0  0  0  0
   10.9496   -1.0156   -1.6635 H   0  0  0  0  0 15  0  0  0  0  0  0
   10.0456   -0.4606   -3.0868 H   0  0  0  0  0 15  0  0  0  0  0  0
   10.3467    1.4787   -0.5451 N   0  0  0  0  0 15  0  0  0  0  0  0
   11.3097    2.2834    0.1987 C   0  0  0  0  0 15  0  0  0  0  0  0
   12.3097    1.3625    0.8539 C   0  0  0  0  0 15  0  0  0  0  0  0
   13.4997    1.5900    0.7116 O   0  0  0  0  0 15  0  0  0  0  0  0
   10.6317    3.1558    1.2892 C   0  0  0  0  0 15  0  0  0  0  0  0
   11.8247    2.9557   -0.5079 H   0  0  0  0  0 15  0  0  0  0  0  0
    9.3777    1.5336   -0.3016 H   0  0  0  0  0 15  0  0  0  0  0  0
   10.1127    2.5302    2.0286 H   0  0  0  0  0 15  0  0  0  0  0  0
    9.8977    3.8334    0.8243 H   0  0  0  0  0 15  0  0  0  0  0  0
   11.3877    3.7624    1.8119 H   0  0  0  0  0 15  0  0  0  0  0  0
   11.8248    0.2810    1.5507 N   0  0  0  0  0 15  0  0  0  0  0  0
   12.7548   -0.5975    2.2573 C   0  0  0  0  0 15  0  0  0  0  0  0
   13.7358   -1.1542    1.2495 C   0  0  0  0  0 15  0  0  0  0  0  0
   14.9208   -1.1872    1.5368 O   0  0  0  0  0 15  0  0  0  0  0  0
   12.0508   -1.7789    2.9828 C   0  0  0  0  0 15  0  0  0  0  0  0
   11.0048   -1.3535    4.0604 C   0  0  0  0  0 15  0  0  0  0  0  0
   10.3308   -2.6185    4.6620 C   0  0  0  0  0 15  0  0  0  0  0  0
   11.6308   -0.4994    5.1991 C   0  0  0  0  0 15  0  0  0  0  0  0
   13.3248   -0.0082    2.9940 H   0  0  0  0  0 15  0  0  0  0  0  0
   10.8708   -0.0025    1.4400 H   0  0  0  0  0 15  0  0  0  0  0  0
   12.8238   -2.3994    3.4642 H   0  0  0  0  0 15  0  0  0  0  0  0
   11.5478   -2.3940    2.2216 H   0  0  0  0  0 15  0  0  0  0  0  0
   10.2068   -0.7562    3.5872 H   0  0  0  0  0 15  0  0  0  0  0  0
    9.8548   -3.2163    3.8673 H   0  0  0  0  0 15  0  0  0  0  0  0
    9.5548   -2.3409    5.3896 H   0  0  0  0  0 15  0  0  0  0  0  0
   11.0788   -3.2473    5.1709 H   0  0  0  0  0 15  0  0  0  0  0  0
   12.4928   -1.0250    5.6406 H   0  0  0  0  0 15  0  0  0  0  0  0
   10.8898   -0.3164    5.9927 H   0  0  0  0  0 15  0  0  0  0  0  0
   11.9598    0.4805    4.8251 H   0  0  0  0  0 15  0  0  0  0  0  0
   13.3029   -1.5760    0.0084 N   0  0  0  0  0 15  0  0  0  0  0  0
   14.2659   -2.0788   -0.9652 C   0  0  0  0  0 15  0  0  0  0  0  0
   15.2659   -0.9898   -1.2672 C   0  0  0  0  0 15  0  0  0  0  0  0
   16.4559   -1.2522   -1.2110 O   0  0  0  0  0 15  0  0  0  0  0  0
   13.5879   -2.5273   -2.2878 C   0  0  0  0  0 15  0  0  0  0  0  0
   14.7809   -2.9518   -0.5301 H   0  0  0  0  0 15  0  0  0  0  0  0
   12.3339   -1.5446   -0.2393 H   0  0  0  0  0 15  0  0  0  0  0  0
   13.0689   -1.6870   -2.7696 H   0  0  0  0  0 15  0  0  0  0  0  0
   12.8539   -3.3227   -2.0818 H   0  0  0  0  0 15  0  0  0  0  0  0
   14.3439   -2.9193   -2.9861 H   0  0  0  0  0 15  0  0  0  0  0  0
   14.7810    0.2645   -1.5536 N   0  0  0  0  0 15  0  0  0  0  0  0
   16.0270    0.9965   -1.7663 C   0  0  0  0  0 15  0  0  0  0  0  0
   16.3600    1.8563   -0.5705 C   0  0  0  0  0 15  0  0  0  0  0  0
   15.6350    1.8965    0.4317 O   0  0  0  0  0 15  0  0  0  0  0  0
   15.9180    1.8719   -3.0762 C   0  0  0  0  0 15  0  0  0  0  0  0
   15.7710    1.0414   -4.3758 C   0  0  0  0  0 15  0  0  0  0  0  0
   17.0900    2.8575   -3.3472 C   0  0  0  0  0 15  0  0  0  0  0  0
   14.2090    0.3608   -0.6426 H   0  0  0  0  0 15  0  0  0  0  0  0
   16.8510    0.2682   -1.8810 H   0  0  0  0  0 15  0  0  0  0  0  0
   15.0010    2.4928   -2.9798 H   0  0  0  0  0 15  0  0  0  0  0  0
   16.6730    0.4405   -4.5919 H   0  0  0  0  0 15  0  0  0  0  0  0
   14.9160    0.3451   -4.3243 H   0  0  0  0  0 15  0  0  0  0  0  0
   15.5870    1.6873   -5.2558 H   0  0  0  0  0 15  0  0  0  0  0  0
   18.0630    2.3379   -3.4421 H   0  0  0  0  0 15  0  0  0  0  0  0
   16.9390    3.4414   -4.2762 H   0  0  0  0  0 15  0  0  0  0  0  0
   17.2000    3.6131   -2.5477 H   0  0  0  0  0 15  0  0  0  0  0  0
   16.2591    1.4844    0.5294 N   0  0  0  0  0 15  0  0  0  0  0  0
   17.5081    1.5574    1.2817 C   0  0  0  0  0 15  0  0  0  0  0  0
   17.8211    0.2365    1.9416 C   0  0  0  0  0 15  0  0  0  0  0  0
   19.0271    0.1878    2.7085 O   0  0  0  0  0 15  0  0  0  0  0  0
   17.4831    2.7467    2.3256 C   0  0  0  0  0 15  0  0  0  0  0  0
   17.0911    4.1340    1.7264 C   0  0  0  0  0 15  0  0  0  0  0  0
   18.8351    2.9128    3.0880 C   0  0  0  0  0 15  0  0  0  0  0  0
   16.7421    5.2359    2.7497 C   0  0  0  0  0 15  0  0  0  0  0  0
   15.6721    0.5798    0.4820 H   0  0  0  0  0 15  0  0  0  0  0  0
   18.3231    1.7478    0.5591 H   0  0  0  0  0 15  0  0  0  0  0  0
   16.7051    2.4907    3.0787 H   0  0  0  0  0 15  0  0  0  0  0  0
   17.8791    4.4902    1.0352 H   0  0  0  0  0 15  0  0  0  0  0  0
   16.1941    4.0191    1.0889 H   0  0  0  0  0 15  0  0  0  0  0  0
   18.7911    3.7077    3.8527 H   0  0  0  0  0 15  0  0  0  0  0  0
   19.1341    2.0076    3.6469 H   0  0  0  0  0 15  0  0  0  0  0  0
   19.6671    3.1678    2.4061 H   0  0  0  0  0 15  0  0  0  0  0  0
   16.4061    6.1608    2.2390 H   0  0  0  0  0 15  0  0  0  0  0  0
   15.9261    4.9245    3.4242 H   0  0  0  0  0 15  0  0  0  0  0  0
   17.6051    5.5172    3.3795 H   0  0  0  0  0 15  0  0  0  0  0  0
   17.7372   -0.7783    1.3704 N   0  0  0  0  0 15  0  0  0  0  0  0
   18.6672   -1.9055    1.3496 C   0  0  0  0  0 15  0  0  0  0  0  0
   19.6482   -1.6868    0.2193 C   0  0  0  0  0 15  0  0  0  0  0  0
   20.8332   -1.8963    0.4186 O   0  0  0  0  0 15  0  0  0  0  0  0
   17.9632   -3.2773    1.1493 C   0  0  0  0  0 15  0  0  0  0  0  0
   16.9172   -3.6415    2.2490 C   0  0  0  0  0 15  0  0  0  0  0  0
   16.2432   -4.9981    1.9000 C   0  0  0  0  0 15  0  0  0  0  0  0
   17.5432   -3.7158    3.6705 C   0  0  0  0  0 15  0  0  0  0  0  0
   19.2372   -1.9254    2.2928 H   0  0  0  0  0 15  0  0  0  0  0  0
   16.7832   -0.9249    1.1037 H   0  0  0  0  0 15  0  0  0  0  0  0
   18.7362   -4.0622    1.1210 H   0  0  0  0  0 15  0  0  0  0  0  0
   17.4602   -3.2615    0.1706 H   0  0  0  0  0 15  0  0  0  0  0  0
   16.1192   -2.8797    2.2687 H   0  0  0  0  0 15  0  0  0  0  0  0
   15.7672   -4.9476    0.9068 H   0  0  0  0  0 15  0  0  0  0  0  0
   15.4672   -5.2514    2.6363 H   0  0  0  0  0 15  0  0  0  0  0  0
   16.9912   -5.8069    1.8875 H   0  0  0  0  0 15  0  0  0  0  0  0
   18.4052   -4.4023    3.6725 H   0  0  0  0  0 15  0  0  0  0  0  0
   16.8022   -4.0840    4.3969 H   0  0  0  0  0 15  0  0  0  0  0  0
   17.8722   -2.7240    4.0115 H   0  0  0  0  0 15  0  0  0  0  0  0
   19.2153   -1.2150   -1.0038 N   0  0  0  0  0 15  0  0  0  0  0  0
   20.4613   -1.0345   -1.7443 C   0  0  0  0  0 15  0  0  0  0  0  0
   20.7943    0.4308   -1.8936 C   0  0  0  0  0 15  0  0  0  0  0  0
   20.0693    1.3196   -1.4289 O   0  0  0  0  0 15  0  0  0  0  0  0
   20.3523   -1.7338   -3.1562 C   0  0  0  0  0 15  0  0  0  0  0  0
   20.2053   -3.2743   -3.0840 C   0  0  0  0  0 15  0  0  0  0  0  0
   21.5243   -1.4773   -4.1456 C   0  0  0  0  0 15  0  0  0  0  0  0
   18.6433   -0.3772   -0.6331 H   0  0  0  0  0 15  0  0  0  0  0  0
   21.2853   -1.4969   -1.1701 H   0  0  0  0  0 15  0  0  0  0  0  0
   19.4353   -1.3406   -3.6464 H   0  0  0  0  0 15  0  0  0  0  0  0
   21.1073   -3.7612   -2.6708 H   0  0  0  0  0 15  0  0  0  0  0  0
   19.3503   -3.5767   -2.4547 H   0  0  0  0  0 15  0  0  0  0  0  0
   20.0213   -3.7152   -4.0826 H   0  0  0  0  0 15  0  0  0  0  0  0
   22.4973   -1.8186   -3.7425 H   0  0  0  0  0 15  0  0  0  0  0  0
   21.3733   -1.9917   -5.1149 H   0  0  0  0  0 15  0  0  0  0  0  0
   21.6343   -0.4076   -4.4022 H   0  0  0  0  0 15  0  0  0  0  0  0
   20.6934    1.1989   -1.0230 N   0  0  0  0  0 15  0  0  0  0  0  0
   21.6234    2.2514   -0.6192 C   0  0  0  0  0 15  0  0  0  0  0  0
   22.6044    1.6605    0.3689 C   0  0  0  0  0 15  0  0  0  0  0  0
   23.7894    1.9255    0.2529 O   0  0  0  0  0 15  0  0  0  0  0  0
   20.9194    3.4728    0.0369 C   0  0  0  0  0 15  0  0  0  0  0  0
   19.8734    4.1900   -0.8729 C   0  0  0  0  0 15  0  0  0  0  0  0
   19.1994    5.3464   -0.0822 C   0  0  0  0  0 15  0  0  0  0  0  0
   20.4994    4.7445   -2.1839 C   0  0  0  0  0 15  0  0  0  0  0  0
   22.1934    2.5917   -1.4990 H   0  0  0  0  0 15  0  0  0  0  0  0
   19.7394    1.2458   -0.7222 H   0  0  0  0  0 15  0  0  0  0  0  0
   21.6924    4.2010    0.3310 H   0  0  0  0  0 15  0  0  0  0  0  0
   20.4164    3.1243    0.9515 H   0  0  0  0  0 15  0  0  0  0  0  0
   19.0754    3.4806   -1.1510 H   0  0  0  0  0 15  0  0  0  0  0  0
   18.7234    4.9603    0.8342 H   0  0  0  0  0 15  0  0  0  0  0  0
   18.4234    5.8356   -0.6881 H   0  0  0  0  0 15  0  0  0  0  0  0
   19.9474    6.1025    0.2052 H   0  0  0  0  0 15  0  0  0  0  0  0
   21.3614    5.3906   -1.9517 H   0  0  0  0  0 15  0  0  0  0  0  0
   19.7584    5.3383   -2.7412 H   0  0  0  0  0 15  0  0  0  0  0  0
   20.8284    3.9284   -2.8426 H   0  0  0  0  0 15  0  0  0  0  0  0
   22.1715    0.8000    1.3578 N   0  0  0  0  0 15  0  0  0  0  0  0
   23.3995    0.3896    2.0320 C   0  0  0  0  0 15  0  0  0  0  0  0
   23.8145   -0.9974    1.6031 C   0  0  0  0  0 15  0  0  0  0  0  0
   23.1715   -1.6415    0.7975 O   0  0  0  0  0 15  0  0  0  0  0  0
   23.2225    0.4559    3.5861 C   0  0  0  0  0 15  0  0  0  0  0  0
   22.9435    1.7881    3.9995 O   0  0  0  0  0 15  0  0  0  0  0  0
   24.4445    0.0374    4.4328 C   0  0  0  0  0 15  0  0  0  0  0  0
   21.6645    0.1591    0.6519 H   0  0  0  0  0 15  0  0  0  0  0  0
   24.2085    1.0818    1.7354 H   0  0  0  0  0 15  0  0  0  0  0  0
   22.3635   -0.1881    3.8694 H   0  0  0  0  0 15  0  0  0  0  0  0
   22.7775    1.7464    4.9457 H   0  0  0  0  0 15  0  0  0  0  0  0
   24.2515    0.1349    5.5184 H   0  0  0  0  0 15  0  0  0  0  0  0
   24.7285   -1.0165    4.2727 H   0  0  0  0  0 15  0  0  0  0  0  0
   25.3345    0.6542    4.2024 H   0  0  0  0  0 15  0  0  0  0  0  0
   23.6496   -1.4758    0.5530 N   0  0  0  0  0 15  0  0  0  0  0  0
   24.5796   -2.3276   -0.1855 C   0  0  0  0  0 15  0  0  0  0  0  0
   25.5606   -1.4353   -0.9129 C   0  0  0  0  0 15  0  0  0  0  0  0
   26.7456   -1.7239   -0.8942 O   0  0  0  0  0 15  0  0  0  0  0  0
   23.8756   -3.2522   -1.2186 C   0  0  0  0  0 15  0  0  0  0  0  0
   22.8296   -4.2366   -0.6079 C   0  0  0  0  0 15  0  0  0  0  0  0
   22.1556   -5.0541   -1.7453 C   0  0  0  0  0 15  0  0  0  0  0  0
   23.4556   -5.2048    0.4356 C   0  0  0  0  0 15  0  0  0  0  0  0
   25.1496   -2.9475    0.5257 H   0  0  0  0  0 15  0  0  0  0  0  0
   22.6956   -1.4174    0.2543 H   0  0  0  0  0 15  0  0  0  0  0  0
   24.6486   -3.8365   -1.7433 H   0  0  0  0  0 15  0  0  0  0  0  0
   23.3726   -2.6128   -1.9596 H   0  0  0  0  0 15  0  0  0  0  0  0
   22.0316   -3.6645   -0.1045 H   0  0  0  0  0 15  0  0  0  0  0  0
   21.6796   -4.3788   -2.4753 H   0  0  0  0  0 15  0  0  0  0  0  0
   21.3796   -5.7206   -1.3425 H   0  0  0  0  0 15  0  0  0  0  0  0
   22.9036   -5.6670   -2.2734 H   0  0  0  0  0 15  0  0  0  0  0  0
   24.3176   -5.7330   -0.0029 H   0  0  0  0  0 15  0  0  0  0  0  0
   22.7146   -5.9531    0.7571 H   0  0  0  0  0 15  0  0  0  0  0  0
   23.7846   -4.6622    1.3330 H   0  0  0  0  0 15  0  0  0  0  0  0
   25.1277   -0.2892   -1.5492 N   0  0  0  0  0 15  0  0  0  0  0  0
   26.3557    0.3265   -2.0431 C   0  0  0  0  0 15  0  0  0  0  0  0
   26.7707    1.4841   -1.1670 C   0  0  0  0  0 15  0  0  0  0  0  0
   26.1277    1.8151   -0.1901 O   0  0  0  0  0 15  0  0  0  0  0  0
   26.1787    0.7940   -3.5267 C   0  0  0  0  0 15  0  0  0  0  0  0
   25.8997   -0.3176   -4.3695 O   0  0  0  0  0 15  0  0  0  0  0  0
   27.4007    1.4760   -4.1800 C   0  0  0  0  0 15  0  0  0  0  0  0
   24.6207    0.0726   -0.6671 H   0  0  0  0  0 15  0  0  0  0  0  0
   27.1647   -0.4254   -2.0003 H   0  0  0  0  0 15  0  0  0  0  0  0
   25.3197    1.4959   -3.5735 H   0  0  0  0  0 15  0  0  0  0  0  0
   25.7337    0.0443   -5.2448 H   0  0  0  0  0 15  0  0  0  0  0  0
   27.2077    1.7545   -5.2338 H   0  0  0  0  0 15  0  0  0  0  0  0
   27.6847    2.4122   -3.6703 H   0  0  0  0  0 15  0  0  0  0  0  0
   28.2907    0.8176   -4.1737 H   0  0  0  0  0 15  0  0  0  0  0  0
   26.6058    1.5759   -0.0167 N   0  0  0  0  0 15  0  0  0  0  0  0
   27.8548    1.9046    0.6639 C   0  0  0  0  0 15  0  0  0  0  0  0
   28.1678    0.8935    1.7400 C   0  0  0  0  0 15  0  0  0  0  0  0
   29.3738    1.1130    2.4764 O   0  0  0  0  0 15  0  0  0  0  0  0
   27.8298    3.3816    1.2320 C   0  0  0  0  0 15  0  0  0  0  0  0
   27.4378    4.4760    0.1899 C   0  0  0  0  0 15  0  0  0  0  0  0
   29.1818    3.8011    1.8899 C   0  0  0  0  0 15  0  0  0  0  0  0
   27.0888    5.8638    0.7690 C   0  0  0  0  0 15  0  0  0  0  0  0
   26.0188    0.7107    0.2517 H   0  0  0  0  0 15  0  0  0  0  0  0
   28.6698    1.8333   -0.0800 H   0  0  0  0  0 15  0  0  0  0  0  0
   27.0518    3.4018    2.0271 H   0  0  0  0  0 15  0  0  0  0  0  0
   28.2258    4.5711   -0.5818 H   0  0  0  0  0 15  0  0  0  0  0  0
   26.5408    4.1477   -0.3685 H   0  0  0  0  0 15  0  0  0  0  0  0
   29.1378    4.8114    2.3325 H   0  0  0  0  0 15  0  0  0  0  0  0
   29.4808    3.1451    2.7274 H   0  0  0  0  0 15  0  0  0  0  0  0
   30.0138    3.8045    1.1619 H   0  0  0  0  0 15  0  0  0  0  0  0
   26.7528    6.5549   -0.0302 H   0  0  0  0  0 15  0  0  0  0  0  0
   26.2728    5.8050    1.5094 H   0  0  0  0  0 15  0  0  0  0  0  0
   27.9518    6.3456    1.2625 H   0  0  0  0  0 15  0  0  0  0  0  0
   28.0839   -0.2563    1.5550 N   0  0  0  0  0 15  0  0  0  0  0  0
   29.0139   -1.3210    1.9254 C   0  0  0  0  0 15  0  0  0  0  0  0
   29.9949   -1.5068    0.7892 C   0  0  0  0  0 15  0  0  0  0  0  0
   31.1799   -1.6345    1.0487 O   0  0  0  0  0 15  0  0  0  0  0  0
   28.3099   -2.6775    2.2119 C   0  0  0  0  0 15  0  0  0  0  0  0
   27.2639   -2.6388    3.3698 C   0  0  0  0  0 15  0  0  0  0  0  0
   26.5899   -4.0324    3.5115 C   0  0  0  0  0 15  0  0  0  0  0  0
   27.8899   -2.2168    4.7292 C   0  0  0  0  0 15  0  0  0  0  0  0
   29.5839   -1.0135    2.8172 H   0  0  0  0  0 15  0  0  0  0  0  0
   27.1299   -0.4861    1.3555 H   0  0  0  0  0 15  0  0  0  0  0  0
   29.0829   -3.4237    2.4569 H   0  0  0  0  0 15  0  0  0  0  0  0
   27.8069   -3.0012    1.2882 H   0  0  0  0  0 15  0  0  0  0  0  0
   26.4659   -1.9172    3.1247 H   0  0  0  0  0 15  0  0  0  0  0  0
   26.1139   -4.3285    2.5622 H   0  0  0  0  0 15  0  0  0  0  0  0
   25.8139   -4.0153    4.2900 H   0  0  0  0  0 15  0  0  0  0  0  0
   27.3379   -4.7956    3.7796 H   0  0  0  0  0 15  0  0  0  0  0  0
   28.7519   -2.8602    4.9685 H   0  0  0  0  0 15  0  0  0  0  0  0
   27.1489   -2.3111    5.5381 H   0  0  0  0  0 15  0  0  0  0  0  0
   28.2189   -1.1683    4.7061 H   0  0  0  0  0 15  0  0  0  0  0  0
   29.5620   -1.4872   -0.5215 N   0  0  0  0  0 15  0  0  0  0  0  0
   30.8080   -1.5740   -1.2788 C   0  0  0  0  0 15  0  0  0  0  0  0
   31.1410   -0.2508   -1.9257 C   0  0  0  0  0 15  0  0  0  0  0  0
   30.4160    0.7439   -1.7971 O   0  0  0  0  0 15  0  0  0  0  0  0
   30.6990   -2.7184   -2.3616 C   0  0  0  0  0 15  0  0  0  0  0  0
   30.5520   -4.1389   -1.7610 C   0  0  0  0  0 15  0  0  0  0  0  0
   31.8710   -2.8201   -3.3788 C   0  0  0  0  0 15  0  0  0  0  0  0
   28.9900   -0.5729   -0.4636 H   0  0  0  0  0 15  0  0  0  0  0  0
   31.6320   -1.8093   -0.5801 H   0  0  0  0  0 15  0  0  0  0  0  0
   29.7820   -2.5191   -2.9576 H   0  0  0  0  0 15  0  0  0  0  0  0
   31.4540   -4.4528   -1.2050 H   0  0  0  0  0 15  0  0  0  0  0  0
   29.6970   -4.2050   -1.0660 H   0  0  0  0  0 15  0  0  0  0  0  0
   30.3680   -4.8980   -2.5455 H   0  0  0  0  0 15  0  0  0  0  0  0
   32.8440   -3.0009   -2.8825 H   0  0  0  0  0 15  0  0  0  0  0  0
   31.7200   -3.6380   -4.1103 H   0  0  0  0  0 15  0  0  0  0  0  0
   31.9810   -1.9051   -3.9895 H   0  0  0  0  0 15  0  0  0  0  0  0
   31.0401    0.7711   -1.3745 N   0  0  0  0  0 15  0  0  0  0  0  0
   32.2871    1.5296   -1.3270 C   0  0  0  0  0 15  0  0  0  0  0  0
   32.6151    1.9430    0.0883 C   0  0  0  0  0 15  0  0  0  0  0  0
   31.8701    1.6440    1.0617 O   0  0  0  0  0 15  0  0  0  0  0  0
   32.1691    2.8068   -2.2126 C   0  0  0  0  0 15  0  0  0  0  0  0
   31.8351    2.5839   -3.6952 C   0  0  0  0  0 15  0  0  0  0  0  0
   30.4971    2.5202   -4.0993 C   0  0  0  0  0 15  0  0  0  0  0  0
   32.8491    2.3847   -4.6345 C   0  0  0  0  0 15  0  0  0  0  0  0
   30.1771    2.2372   -5.4237 C   0  0  0  0  0 15  0  0  0  0  0  0
   32.5291    2.1169   -5.9613 C   0  0  0  0  0 15  0  0  0  0  0  0
   31.1931    2.0377   -6.3564 C   0  0  0  0  0 15  0  0  0  0  0  0
   30.4631    0.5597   -0.4856 H   0  0  0  0  0 15  0  0  0  0  0  0
   33.1101    0.8881   -1.6966 H   0  0  0  0  0 15  0  0  0  0  0  0
   31.4151    3.4939   -1.7729 H   0  0  0  0  0 15  0  0  0  0  0  0
   33.1121    3.3856   -2.1490 H   0  0  0  0  0 15  0  0  0  0  0  0
   29.7021    2.6421   -3.3748 H   0  0  0  0  0 15  0  0  0  0  0  0
   33.8861    2.4238   -4.3309 H   0  0  0  0  0 15  0  0  0  0  0  0
   29.1421    2.1608   -5.7194 H   0  0  0  0  0 15  0  0  0  0  0  0
   33.3161    1.9528   -6.6846 H   0  0  0  0  0 15  0  0  0  0  0  0
   30.9431    1.8161   -7.3819 H   0  0  0  0  0 15  0  0  0  0  0  0
   32.5182    1.2203    0.9973 N   0  0  0  0  0 15  0  0  0  0  0  0
   33.7642    1.0538    1.7397 C   0  0  0  0  0 15  0  0  0  0  0  0
   34.1192   -0.4074    1.8804 C   0  0  0  0  0 15  0  0  0  0  0  0
   33.4122   -1.2981    1.4092 O   0  0  0  0  0 15  0  0  0  0  0  0
   33.6062    1.6934    3.1473 C   0  0  0  0  0 15  0  0  0  0  0  0
   33.4352    3.2154    3.1439 C   0  0  0  0  0 15  0  0  0  0  0  0
   32.2052    3.9062    3.2054 C   0  0  0  0  0 15  0  0  0  0  0  0
   34.4032    4.1853    2.9890 C   0  0  0  0  0 15  0  0  0  0  0  0
   32.3852    5.2994    3.0991 N   0  0  0  0  0 15  0  0  0  0  0  0
   33.7562    5.4464    2.9625 C   0  0  0  0  0 15  0  0  0  0  0  0
   35.8112    4.0948    2.8326 C   0  0  0  0  0 15  0  0  0  0  0  0
   34.5142    6.6275    2.7956 C   0  0  0  0  0 15  0  0  0  0  0  0
   36.5402    5.2723    2.6793 C   0  0  0  0  0 15  0  0  0  0  0  0
   35.9022    6.5226    2.6596 C   0  0  0  0  0 15  0  0  0  0  0  0
   32.0012    0.4400    0.6465 H   0  0  0  0  0 15  0  0  0  0  0  0
   34.5852    1.5451    1.1847 H   0  0  0  0  0 15  0  0  0  0  0  0
   32.7562    1.2278    3.6848 H   0  0  0  0  0 15  0  0  0  0  0  0
   34.4882    1.4583    3.7751 H   0  0  0  0  0 15  0  0  0  0  0  0
   31.2432    3.4159    3.2804 H   0  0  0  0  0 15  0  0  0  0  0  0
   31.6672    6.0293    3.0791 H   0  0  0  0  0 15  0  0  0  0  0  0
   36.3092    3.1360    2.8358 H   0  0  0  0  0 15  0  0  0  0  0  0
   34.0272    7.5878    2.7798 H   0  0  0  0  0 15  0  0  0  0  0  0
   37.6132    5.2205    2.5681 H   0  0  0  0  0 15  0  0  0  0  0  0
   36.4932    7.4184    2.5424 H   0  0  0  0  0 15  0  0  0  0  0  0
   33.9963   -1.1934    1.0293 N   0  0  0  0  0 15  0  0  0  0  0  0
   34.9263   -2.2481    0.6311 C   0  0  0  0  0 15  0  0  0  0  0  0
   35.9073   -1.6624   -0.3601 C   0  0  0  0  0 15  0  0  0  0  0  0
   37.0923   -1.9268   -0.2427 O   0  0  0  0  0 15  0  0  0  0  0  0
   34.2223   -3.4730   -0.0185 C   0  0  0  0  0 15  0  0  0  0  0  0
   33.1763   -4.1854    0.8951 C   0  0  0  0  0 15  0  0  0  0  0  0
   32.5023   -5.3459    0.1106 C   0  0  0  0  0 15  0  0  0  0  0  0
   33.8023   -4.7329    2.2090 C   0  0  0  0  0 15  0  0  0  0  0  0
   35.4963   -2.5837    1.5128 H   0  0  0  0  0 15  0  0  0  0  0  0
   33.0423   -1.2419    0.7288 H   0  0  0  0  0 15  0  0  0  0  0  0
   34.9953   -4.2027   -0.3087 H   0  0  0  0  0 15  0  0  0  0  0  0
   33.7193   -3.1293   -0.9349 H   0  0  0  0  0 15  0  0  0  0  0  0
   32.3783   -3.4745    1.1695 H   0  0  0  0  0 15  0  0  0  0  0  0
   32.0263   -4.9647   -0.8079 H   0  0  0  0  0 15  0  0  0  0  0  0
   31.7263   -5.8318    0.7191 H   0  0  0  0  0 15  0  0  0  0  0  0
   33.2503   -6.1036   -0.1729 H   0  0  0  0  0 15  0  0  0  0  0  0
   34.6643   -5.3801    1.9803 H   0  0  0  0  0 15  0  0  0  0  0  0
   33.0613   -5.3237    2.7695 H   0  0  0  0  0 15  0  0  0  0  0  0
   34.1313   -3.9133    2.8634 H   0  0  0  0  0 15  0  0  0  0  0  0
   35.4744   -0.8072   -1.3536 N   0  0  0  0  0 15  0  0  0  0  0  0
   36.7224   -0.3871   -1.9836 C   0  0  0  0  0 15  0  0  0  0  0  0
   37.0434    1.0494   -1.6435 C   0  0  0  0  0 15  0  0  0  0  0  0
   36.3134    1.7261   -0.9263 O   0  0  0  0  0 15  0  0  0  0  0  0
   34.8934   -0.1402   -0.7337 H   0  0  0  0  0 15  0  0  0  0  0  0
   37.5554   -1.0332   -1.6526 H   0  0  0  0  0 15  0  0  0  0  0  0
   36.6514   -0.4934   -3.0818 H   0  0  0  0  0 15  0  0  0  0  0  0
   36.9525    1.4729   -0.5608 N   0  0  0  0  0 15  0  0  0  0  0  0
   38.1985    2.0276   -0.0381 C   0  0  0  0  0 15  0  0  0  0  0  0
   38.5315    1.4338    1.3098 C   0  0  0  0  0 15  0  0  0  0  0  0
   37.8065    0.5907    1.8531 O   0  0  0  0  0 15  0  0  0  0  0  0
   38.0895    3.6006    0.0511 C   0  0  0  0  0 15  0  0  0  0  0  0
   37.9425    4.2987   -1.3241 C   0  0  0  0  0 15  0  0  0  0  0  0
   39.2615    4.3344    0.7628 C   0  0  0  0  0 15  0  0  0  0  0  0
   36.3805    0.7368   -0.0153 H   0  0  0  0  0 15  0  0  0  0  0  0
   39.0225    1.7568   -0.7238 H   0  0  0  0  0 15  0  0  0  0  0  0
   37.1725    3.8327    0.6351 H   0  0  0  0  0 15  0  0  0  0  0  0
   38.8445    4.1799   -1.9515 H   0  0  0  0  0 15  0  0  0  0  0  0
   37.0875    3.9008   -1.8978 H   0  0  0  0  0 15  0  0  0  0  0  0
   37.7585    5.3848   -1.2143 H   0  0  0  0  0 15  0  0  0  0  0  0
   40.2345    4.1524    0.2670 H   0  0  0  0  0 15  0  0  0  0  0  0
   39.1105    5.4312    0.7942 H   0  0  0  0  0 15  0  0  0  0  0  0
   39.3715    4.0292    1.8197 H   0  0  0  0  0 15  0  0  0  0  0  0
   38.4306    0.2974    1.5477 N   0  0  0  0  0 15  0  0  0  0  0  0
   39.6606   -0.3152    2.0418 C   0  0  0  0  0 15  0  0  0  0  0  0
   40.0686   -1.4834    1.1744 C   0  0  0  0  0 15  0  0  0  0  0  0
   39.4116   -1.8270    0.1919 O   0  0  0  0  0 15  0  0  0  0  0  0
   39.4736   -0.8376    3.4961 C   0  0  0  0  0 15  0  0  0  0  0  0
   39.1376    0.2049    4.5654 C   0  0  0  0  0 15  0  0  0  0  0  0
   40.1346    1.0321    5.0955 C   0  0  0  0  0 15  0  0  0  0  0  0
   37.8196    0.3456    5.0111 C   0  0  0  0  0 15  0  0  0  0  0  0
   39.8136    1.9860    6.0567 C   0  0  0  0  0 15  0  0  0  0  0  0
   37.5006    1.3029    5.9705 C   0  0  0  0  0 15  0  0  0  0  0  0
   38.4986    2.1216    6.4921 C   0  0  0  0  0 15  0  0  0  0  0  0
   38.1866    3.0627    7.4327 O   0  0  0  0  0 15  0  0  0  0  0  0
   37.9186   -0.0730    0.6721 H   0  0  0  0  0 15  0  0  0  0  0  0
   40.4726    0.4339    2.0076 H   0  0  0  0  0 15  0  0  0  0  0  0
   38.7026   -1.6371    3.5034 H   0  0  0  0  0 15  0  0  0  0  0  0
   40.3916   -1.3657    3.8224 H   0  0  0  0  0 15  0  0  0  0  0  0
   41.1576    0.9343    4.7592 H   0  0  0  0  0 15  0  0  0  0  0  0
   37.0366   -0.2817    4.6014 H   0  0  0  0  0 15  0  0  0  0  0  0
   40.5806    2.6254    6.4631 H   0  0  0  0  0 15  0  0  0  0  0  0
   36.4776    1.4014    6.3010 H   0  0  0  0  0 15  0  0  0  0  0  0
   37.2456    3.0121    7.6106 H   0  0  0  0  0 15  0  0  0  0  0  0
   39.9087   -1.5758    0.0251 N   0  0  0  0  0 15  0  0  0  0  0  0
   40.8717   -2.0890   -0.9431 C   0  0  0  0  0 15  0  0  0  0  0  0
   41.8717   -1.0032   -1.2567 C   0  0  0  0  0 15  0  0  0  0  0  0
   43.0617   -1.2650   -1.1977 O   0  0  0  0  0 15  0  0  0  0  0  0
   40.1937   -2.5514   -2.2609 C   0  0  0  0  0 15  0  0  0  0  0  0
   41.3867   -2.9572   -0.4988 H   0  0  0  0  0 15  0  0  0  0  0  0
   38.9397   -1.5470   -0.2229 H   0  0  0  0  0 15  0  0  0  0  0  0
   39.6747   -1.7163   -2.7516 H   0  0  0  0  0 15  0  0  0  0  0  0
   39.4597   -3.3446   -2.0464 H   0  0  0  0  0 15  0  0  0  0  0  0
   40.9497   -2.9508   -2.9549 H   0  0  0  0  0 15  0  0  0  0  0  0
   41.3868    0.2480   -1.5564 N   0  0  0  0  0 15  0  0  0  0  0  0
   42.6328    0.9777   -1.7768 C   0  0  0  0  0 15  0  0  0  0  0  0
   42.9658    1.8502   -0.5901 C   0  0  0  0  0 15  0  0  0  0  0  0
   42.2408    1.9009    0.4116 O   0  0  0  0  0 15  0  0  0  0  0  0
   42.5238    1.8391   -3.0959 C   0  0  0  0  0 15  0  0  0  0  0  0
   42.3768    0.9949   -4.3866 C   0  0  0  0  0 15  0  0  0  0  0  0
   43.6958    2.8218   -3.3773 C   0  0  0  0  0 15  0  0  0  0  0  0
   40.8148    0.3540   -0.6464 H   0  0  0  0  0 15  0  0  0  0  0  0
   43.4568    0.2483   -1.8837 H   0  0  0  0  0 15  0  0  0  0  0  0
   41.6068    2.4610   -3.0061 H   0  0  0  0  0 15  0  0  0  0  0  0
   43.2788    0.3918   -4.5963 H   0  0  0  0  0 15  0  0  0  0  0  0
   41.5218    0.2992   -4.3277 H   0  0  0  0  0 15  0  0  0  0  0  0
   42.1928    1.6315   -5.2734 H   0  0  0  0  0 15  0  0  0  0  0  0
   44.6688    2.3013   -3.4667 H   0  0  0  0  0 15  0  0  0  0  0  0
   43.5448    3.3958   -4.3125 H   0  0  0  0  0 15  0  0  0  0  0  0
   43.8058    3.5859   -2.5859 H   0  0  0  0  0 15  0  0  0  0  0  0
   42.8649    1.4899    0.5136 N   0  0  0  0  0 15  0  0  0  0  0  0
   44.1119    1.5784    1.2685 C   0  0  0  0  0 15  0  0  0  0  0  0
   44.4399    0.2595    1.9276 C   0  0  0  0  0 15  0  0  0  0  0  0
   43.6949   -0.7516    1.8069 O   0  0  0  0  0 15  0  0  0  0  0  0
   43.9939    2.6776    2.3673 C   0  0  0  0  0 15  0  0  0  0  0  0
   43.6599    4.0967    1.8837 C   0  0  0  0  0 15  0  0  0  0  0  0
   42.3219    4.4829    1.7490 C   0  0  0  0  0 15  0  0  0  0  0  0
   44.6739    4.9854    1.5202 C   0  0  0  0  0 15  0  0  0  0  0  0
   42.0019    5.7357    1.2344 C   0  0  0  0  0 15  0  0  0  0  0  0
   44.3539    6.2432    1.0202 C   0  0  0  0  0 15  0  0  0  0  0  0
   43.0179    6.6178    0.8718 C   0  0  0  0  0 15  0  0  0  0  0  0
   42.2879    0.5776    0.4642 H   0  0  0  0  0 15  0  0  0  0  0  0
   44.9349    1.8278    0.5714 H   0  0  0  0  0 15  0  0  0  0  0  0
   43.2399    2.3674    3.1219 H   0  0  0  0  0 15  0  0  0  0  0  0
   44.9369    2.7181    2.9482 H   0  0  0  0  0 15  0  0  0  0  0  0
   41.5269    3.7918    1.9981 H   0  0  0  0  0 15  0  0  0  0  0  0
   45.7109    4.6936    1.6128 H   0  0  0  0  0 15  0  0  0  0  0  0
   40.9669    6.0130    1.1065 H   0  0  0  0  0 15  0  0  0  0  0  0
   45.1409    6.9257    0.7297 H   0  0  0  0  0 15  0  0  0  0  0  0
   42.7679    7.5874    0.4709 H   0  0  0  0  0 15  0  0  0  0  0  0
   44.3430   -0.7638    1.3786 N   0  0  0  0  0 15  0  0  0  0  0  0
   45.5900   -1.5226    1.3351 C   0  0  0  0  0 15  0  0  0  0  0  0
   45.9180   -1.9434   -0.0780 C   0  0  0  0  0 15  0  0  0  0  0  0
   45.1730   -1.6496   -1.0530 O   0  0  0  0  0 15  0  0  0  0  0  0
   45.4720   -2.7950    2.2274 C   0  0  0  0  0 15  0  0  0  0  0  0
   45.1380   -2.5643    3.7089 C   0  0  0  0  0 15  0  0  0  0  0  0
   43.8000   -2.4984    4.1126 C   0  0  0  0  0 15  0  0  0  0  0  0
   46.1520   -2.3601    4.6470 C   0  0  0  0  0 15  0  0  0  0  0  0
   43.4800   -2.2084    5.4355 C   0  0  0  0  0 15  0  0  0  0  0  0
   45.8320   -2.0853    5.9724 C   0  0  0  0  0 15  0  0  0  0  0  0
   44.4960   -2.0040    6.3671 C   0  0  0  0  0 15  0  0  0  0  0  0
   43.7660   -0.5571    0.4885 H   0  0  0  0  0 15  0  0  0  0  0  0
   46.4130   -0.8791    1.7013 H   0  0  0  0  0 15  0  0  0  0  0  0
   44.7180   -3.4845    1.7914 H   0  0  0  0  0 15  0  0  0  0  0  0
   46.4150   -3.3741    2.1669 H   0  0  0  0  0 15  0  0  0  0  0  0
   43.0050   -2.6242    3.3887 H   0  0  0  0  0 15  0  0  0  0  0  0
   47.1890   -2.4008    4.3437 H   0  0  0  0  0 15  0  0  0  0  0  0
   42.4450   -2.1304    5.7308 H   0  0  0  0  0 15  0  0  0  0  0  0
   46.6190   -1.9173    6.6949 H   0  0  0  0  0 15  0  0  0  0  0  0
   44.2460   -1.7769    7.3914 H   0  0  0  0  0 15  0  0  0  0  0  0
   45.8211   -1.2256   -0.9908 N   0  0  0  0  0 15  0  0  0  0  0  0
   46.7841   -0.9989   -2.0629 C   0  0  0  0  0 15  0  0  0  0  0  0
   47.7841    0.0355   -1.6076 C   0  0  0  0  0 15  0  0  0  0  0  0
   48.9741   -0.2032   -1.7301 O   0  0  0  0  0 15  0  0  0  0  0  0
   46.1061   -0.5092   -3.3708 C   0  0  0  0  0 15  0  0  0  0  0  0
   47.2991   -1.9501   -2.2784 H   0  0  0  0  0 15  0  0  0  0  0  0
   44.8521   -1.0446   -1.1627 H   0  0  0  0  0 15  0  0  0  0  0  0
   45.5871    0.4463   -3.2121 H   0  0  0  0  0 15  0  0  0  0  0  0
   45.3721   -1.2555   -3.7146 H   0  0  0  0  0 15  0  0  0  0  0  0
   46.8621   -0.3709   -4.1595 H   0  0  0  0  0 15  0  0  0  0  0  0
   47.2992    1.1880   -1.0356 N   0  0  0  0  0 15  0  0  0  0  0  0
   48.7152    1.4067   -0.7539 C   0  0  0  0  0 15  0  0  0  0  0  0
   48.9152    1.9043    0.6587 C   0  0  0  0  0 15  0  0  0  0  0  0
   47.9712    2.0854    1.4237 O   0  0  0  0  0 15  0  0  0  0  0  0
   49.2842    2.4119   -1.7957 C   0  0  0  0  0 15  0  0  0  0  0  0
   50.8322    2.5493   -1.8161 C   0  0  0  0  0 15  0  0  0  0  0  0
   51.3072    3.5871   -2.8477 C   0  0  0  0  0 15  0  0  0  0  0  0
   52.7982    3.6621   -2.8363 N   0  0  0  0  0 15  0  0  0  0  0  0
   53.5332    4.4622   -3.6010 C   0  0  0  0  0 15  0  0  0  0  0  0
   53.0292    5.2989   -4.4631 N   0  0  0  0  0 15  0  0  0  0  0  0
   54.8222    4.4094   -3.4861 N   0  0  0  0  0 15  0  0  0  0  0  0
   46.9732    0.8482   -1.9473 H   0  0  0  0  0 15  0  0  0  0  0  0
   49.2362    0.4351   -0.8423 H   0  0  0  0  0 15  0  0  0  0  0  0
   48.9422    2.1167   -2.8087 H   0  0  0  0  0 15  0  0  0  0  0  0
   48.8162    3.4047   -1.6236 H   0  0  0  0  0 15  0  0  0  0  0  0
   51.2032    2.8377   -0.8098 H   0  0  0  0  0 15  0  0  0  0  0  0
   51.2842    1.5578   -2.0289 H   0  0  0  0  0 15  0  0  0  0  0  0
   50.9282    3.3061   -3.8557 H   0  0  0  0  0 15  0  0  0  0  0  0
   50.8582    4.5752   -2.6074 H   0  0  0  0  0 15  0  0  0  0  0  0
   53.3492    3.0647   -2.2110 H   0  0  0  0  0 15  0  0  0  0  0  0
   53.6622    5.8808   -5.0138 H   0  0  0  0  0 15  0  0  0  0  0  0
   52.0072    5.2933   -4.5038 H   0  0  0  0  0 15  0  0  0  0  0  0
   55.1982    3.7462   -2.8067 H   0  0  0  0  0 15  0  0  0  0  0  0
   55.3712    5.0306   -4.0846 H   0  0  0  0  0 15  0  0  0  0  0  0
   48.7773    0.8144    1.3493 N   0  0  0  0  0 15  0  0  0  0  0  0
   50.0253    0.3976    1.9815 C   0  0  0  0  0 15  0  0  0  0  0  0
   50.3463   -1.0407    1.6491 C   0  0  0  0  0 15  0  0  0  0  0  0
   49.6163   -1.7212    0.9355 O   0  0  0  0  0 15  0  0  0  0  0  0
   48.1963    0.1440    0.7330 H   0  0  0  0  0 15  0  0  0  0  0  0
   50.8583    1.0420    1.6471 H   0  0  0  0  0 15  0  0  0  0  0  0
   49.9543    0.5097    3.0791 H   0  0  0  0  0 15  0  0  0  0  0  0
   50.2943   -1.4508    0.7095 O   0  0  0  0  0 15  0  0  0  0  0  0
   50.9853   -1.9204    0.2527 H   0  0  0  0  0 15  0  0  0  0  0  0
M  END
$$$$
