drugbank_drug|DB09052 single chain variable fragment fusion protein
 OpenBabel12092119133D

  0  0  0     0  0            999 V3000
M  V30 BEGIN CTAB
M  V30 COUNTS 7392 7489 0 0 0
M  V30 BEGIN ATOM
M  V30 1 H -0.908 1.98254 -0.117106 0
M  V30 2 N 0 1.576 0 0
M  V30 3 C 1.277 1.81792 0.721886 0
M  V30 4 C 1.657 0.877704 1.91988 0
M  V30 5 O 1.005 -0.0735727 2.28382 0
M  V30 6 C 1.215 3.30282 1.12761 0
M  V30 7 C 2.563 3.9602 1.53146 0
M  V30 8 O 3.587 3.34605 1.2214 0
M  V30 9 O 2.446 5.04207 2.10802 0
M  V30 10 H -0.46 0.748582 0.351504 0
M  V30 11 H 2.086 1.69681 -0.025454 0
M  V30 12 H 0.858 3.90342 0.273686 0
M  V30 13 H 0.481 3.47391 1.93405 0
M  V30 14 N 1.4781 -0.272755 1.55222 0
M  V30 15 C 2.7271 -1.00211 1.75045 0
M  V30 16 C 3.0401 -1.87441 0.559046 0
M  V30 17 O 4.2461 -2.63856 0.639698 0
M  V30 18 C 2.7021 -1.83165 3.09804 0
M  V30 19 C 2.3101 -1.008 4.36513 0
M  V30 20 C 4.0541 -2.55529 3.38977 0
M  V30 21 C 1.9611 -1.83194 5.62311 0
M  V30 22 H 0.8911 -0.377878 0.652476 0
M  V30 23 H 3.5421 -0.257776 1.8168 0
M  V30 24 H 1.9241 -2.61694 2.97207 0
M  V30 25 H 3.0981 -0.266855 4.60027 0
M  V30 26 H 1.4131 -0.398897 4.14485 0
M  V30 27 H 4.0101 -3.17578 4.30172 0
M  V30 28 H 4.3531 -3.25825 2.59121 0
M  V30 29 H 4.8861 -1.84029 3.52673 0
M  V30 30 H 1.6251 -1.17318 6.44916 0
M  V30 31 H 1.1451 -2.54905 5.4294 0
M  V30 32 H 2.8241 -2.40552 6.00619 0
M  V30 33 N 2.9562 -1.48159 -0.537278 0
M  V30 34 C 3.8882 -1.58218 -1.65831 0
M  V30 35 C 4.9012 -0.466948 -1.5596 0
M  V30 36 O 6.0902 -0.73747 -1.62553 0
M  V30 37 C 3.1902 -1.48906 -3.04434 0
M  V30 38 C 2.3632 -2.75343 -3.3986 0
M  V30 39 C 1.4222 -2.59588 -4.57712 0
M  V30 40 O 0.4482 -3.33457 -4.61297 0
M  V30 41 N 1.6502 -1.68724 -5.55439 0
M  V30 42 H 4.4152 -2.54891 -1.57641 0
M  V30 43 H 1.9762 -1.4479 -0.724386 0
M  V30 44 H 3.9682 -1.36072 -3.81139 0
M  V30 45 H 2.5382 -0.602368 -3.06741 0
M  V30 46 H 1.7582 -3.02795 -2.52406 0
M  V30 47 H 3.0462 -3.5924 -3.60311 0
M  V30 48 H 2.4442 -1.07898 -5.55315 0
M  V30 49 H 1.0012 -1.61832 -6.3139 0
M  V30 50 N 4.4343 0.785586 -1.36625 0
M  V30 51 C 5.3643 1.91259 -1.33949 0
M  V30 52 C 6.3453 1.68795 -0.210325 0
M  V30 53 O 7.5303 1.89854 -0.408561 0
M  V30 54 C 4.6603 3.28339 -1.13186 0
M  V30 55 C 3.6143 3.65335 -2.22967 0
M  V30 56 C 2.9403 5.00806 -1.87342 0
M  V30 57 C 4.2403 3.7352 -3.65075 0
M  V30 58 H 5.9343 1.93755 -2.28253 0
M  V30 59 H 3.4803 0.930788 -1.09874 0
M  V30 60 H 5.4333 4.06804 -1.09948 0
M  V30 61 H 4.1573 3.2624 -0.153332 0
M  V30 62 H 2.8163 2.89169 -2.25337 0
M  V30 63 H 2.4643 4.95233 -0.880545 0
M  V30 64 H 2.1643 5.26529 -2.60846 0
M  V30 65 H 3.6883 5.81687 -1.85667 0
M  V30 66 H 5.1023 4.42168 -3.64911 0
M  V30 67 H 3.4993 4.10731 -4.37516 0
M  V30 68 H 4.5693 2.74527 -3.99703 0
M  V30 69 N 5.9124 1.20967 1.01018 0
M  V30 70 C 7.1404 1.04956 1.78303 0
M  V30 71 C 7.5554 -0.400915 1.84494 0
M  V30 72 O 6.9124 -1.27826 1.30257 0
M  V30 73 C 6.9634 1.63403 3.22462 0
M  V30 74 O 6.6844 3.02775 3.16637 0
M  V30 75 C 8.1854 1.52432 4.16268 0
M  V30 76 H 5.4054 0.368858 0.560522 0
M  V30 77 H 7.9494 1.60193 1.27116 0
M  V30 78 H 6.1044 1.1227 3.70775 0
M  V30 79 H 6.5184 3.30626 4.07169 0
M  V30 80 H 7.9924 1.98078 5.15237 0
M  V30 81 H 8.4694 0.477875 4.36592 0
M  V30 82 H 9.0754 2.02787 3.73841 0
M  V30 83 N 7.3905 -1.2043 1.01659 0
M  V30 84 C 8.3225 -2.22626 0.544988 0
M  V30 85 C 9.3355 -1.58479 -0.372609 0
M  V30 86 O 10.5245 -1.77679 -0.170958 0
M  V30 87 C 7.6245 -3.38141 -0.22663 0
M  V30 88 C 6.7975 -4.31877 0.692876 0
M  V30 89 C 5.8565 -5.26191 -0.0311616 0
M  V30 90 O 4.8825 -5.6612 0.591343 0
M  V30 91 N 6.0845 -5.65618 -1.30601 0
M  V30 92 H 8.8495 -2.63716 1.42388 0
M  V30 93 H 6.4105 -1.34971 0.894116 0
M  V30 94 H 8.4025 -3.98239 -0.72024 0
M  V30 95 H 6.9725 -2.95943 -1.00681 0
M  V30 96 H 6.1925 -3.69746 1.36679 0
M  V30 97 H 7.4805 -4.91426 1.31824 0
M  V30 98 H 6.8785 -5.3519 -1.83269 0
M  V30 99 H 5.4355 -6.28025 -1.74435 0
M  V30 100 N 8.8686 -0.792821 -1.36206 0
M  V30 101 C 10.0936 -0.377701 -2.03932 0
M  V30 102 C 10.5186 0.998947 -1.59382 0
M  V30 103 O 9.8766 1.64421 -0.763903 0
M  V30 104 C 9.9246 -0.453635 -3.57735 0
M  V30 105 O 9.0286 0.538151 -4.08874 0
M  V30 106 H 8.3696 -0.159855 -0.644471 0
M  V30 107 H 10.8996 -1.07488 -1.7409 0
M  V30 108 H 10.9096 -0.318464 -4.06755 0
M  V30 109 H 9.5846 -1.45784 -3.89512 0
M  V30 110 H 8.1616 0.364359 -3.71116 0
M  V30 111 N 10.3467 1.47872 -0.545128 0
M  V30 112 C 11.7577 1.86384 -0.108581 0
M  V30 113 C 12.1087 1.45309 1.31832 0
M  V30 114 O 11.2337 0.850641 1.9898 0
M  V30 115 C 11.8287 3.38265 -0.190274 0
M  V30 116 C 10.3877 3.75914 0.191164 0
M  V30 117 C 9.5347 2.71926 -0.543273 0
M  V30 118 H 12.4857 1.39561 -0.755537 0
M  V30 119 H 12.5067 3.75831 0.594217 0
M  V30 120 H 12.0187 3.6813 -1.2289 0
M  V30 121 H 10.1197 3.51665 1.23136 0
M  V30 122 H 10.2327 4.78836 -0.158987 0
M  V30 123 H 8.5967 2.54697 0.0122495 0
M  V30 124 H 9.3797 3.04634 -1.58282 0
M  V30 125 N 11.8248 0.280983 1.55075 0
M  V30 126 C 12.7878 -0.590896 2.21452 0
M  V30 127 C 13.7878 -1.07682 1.19421 0
M  V30 128 O 14.9778 -0.97605 1.44288 0
M  V30 129 C 12.1098 -1.81587 2.88511 0
M  V30 130 H 13.3028 -0.0112554 2.99898 0
M  V30 131 H 10.8558 0.0316438 1.56268 0
M  V30 132 H 11.5908 -2.43587 2.14093 0
M  V30 133 H 11.3758 -1.4753 3.63287 0
M  V30 134 H 12.8658 -2.43575 3.39206 0
M  V30 135 N 13.3029 -1.57598 0.00835791 0
M  V30 136 C 14.5279 -1.95617 -0.689103 0
M  V30 137 C 14.9529 -0.883753 -1.66046 0
M  V30 138 O 14.3109 0.157352 -1.80616 0
M  V30 139 C 14.3589 -3.32736 -1.38994 0
M  V30 140 O 13.4629 -3.27631 -2.50463 0
M  V30 141 H 12.8039 -0.638379 -0.182668 0
M  V30 142 H 15.3339 -2.045 0.064036 0
M  V30 143 H 15.3439 -3.68494 -1.75147 0
M  V30 144 H 14.0189 -4.1034 -0.677778 0
M  V30 145 H 12.5959 -3.03561 -2.16576 0
M  V30 146 N 14.781 0.264519 -1.55364 0
M  V30 147 C 15.711 1.33121 -1.91836 0
M  V30 148 C 16.692 1.51101 -0.781192 0
M  V30 149 O 17.877 1.64003 -1.04003 0
M  V30 150 C 15.007 2.68921 -2.19769 0
M  V30 151 C 13.961 2.65661 -3.35571 0
M  V30 152 C 13.287 4.05093 -3.49004 0
M  V30 153 C 14.587 2.24187 -4.71739 0
M  V30 154 H 16.281 1.02844 -2.81182 0
M  V30 155 H 13.827 0.493286 -1.35287 0
M  V30 156 H 15.78 3.43663 -2.43872 0
M  V30 157 H 14.504 3.00799 -1.27231 0
M  V30 158 H 13.163 1.93377 -3.1145 0
M  V30 159 H 12.811 4.34206 -2.53917 0
M  V30 160 H 12.511 4.03804 -4.26868 0
M  V30 161 H 14.035 4.81561 -3.75408 0
M  V30 162 H 15.449 2.88654 -4.9533 0
M  V30 163 H 13.846 2.34044 -5.52579 0
M  V30 164 H 14.916 1.19327 -4.69988 0
M  V30 165 N 16.2591 1.48442 0.529413 0
M  V30 166 C 17.2221 1.62524 1.61612 0
M  V30 167 C 18.2221 0.498509 1.52877 0
M  V30 168 O 19.4121 0.76431 1.56537 0
M  V30 169 C 16.5441 1.59597 3.01233 0
M  V30 170 H 17.7371 2.59423 1.50465 0
M  V30 171 H 15.2901 1.37047 0.751514 0
M  V30 172 H 16.0251 0.641781 3.17886 0
M  V30 173 H 15.8101 2.41397 3.08982 0
M  V30 174 H 17.3001 1.72646 3.80241 0
M  V30 175 N 17.7372 -0.778329 1.37039 0
M  V30 176 C 18.9832 -1.53892 1.32079 0
M  V30 177 C 19.3162 -1.9396 -0.0965386 0
M  V30 178 O 18.5912 -1.63568 -1.05242 0
M  V30 179 C 18.8742 -2.80847 2.25382 0
M  V30 180 C 18.7272 -2.47076 3.75864 0
M  V30 181 C 20.0462 -3.82741 2.1725 0
M  V30 182 H 17.1652 -0.558303 0.48111 0
M  V30 183 H 19.8072 -0.893397 1.67685 0
M  V30 184 H 17.9572 -3.35931 1.95148 0
M  V30 185 H 19.6292 -1.97957 4.16666 0
M  V30 186 H 17.8722 -1.79863 3.94755 0
M  V30 187 H 18.5432 -3.37798 4.36574 0
M  V30 188 H 21.0192 -3.37133 2.43887 0
M  V30 189 H 19.8952 -4.69303 2.84686 0
M  V30 190 H 20.1562 -4.2652 1.16331 0
M  V30 191 N 19.2153 -1.21501 -1.00376 0
M  V30 192 C 20.4403 -1.05977 -1.78279 0
M  V30 193 C 20.8653 0.385994 -1.84097 0
M  V30 194 O 20.2233 1.27849 -1.28547 0
M  V30 195 C 20.2713 -1.66302 -3.19963 0
M  V30 196 O 19.3753 -0.909333 -4.0225 0
M  V30 197 H 18.7163 -0.372906 -0.549397 0
M  V30 198 H 21.2463 -1.6107 -1.26165 0
M  V30 199 H 21.2563 -1.70574 -3.70632 0
M  V30 200 H 19.9313 -2.71515 -3.15043 0
M  V30 201 H 18.5083 -0.941795 -3.60811 0
M  V30 202 N 20.6934 1.19889 -1.02296 0
M  V30 203 C 21.6234 2.25141 -0.619174 0
M  V30 204 C 22.6044 1.66051 0.368915 0
M  V30 205 O 23.7894 1.92546 0.252941 0
M  V30 206 C 20.9194 3.4728 0.0368783 0
M  V30 207 C 19.8734 4.19005 -0.872865 0
M  V30 208 C 19.1994 5.34637 -0.0822402 0
M  V30 209 C 20.4994 4.74452 -2.18387 0
M  V30 210 H 22.1934 2.59171 -1.49903 0
M  V30 211 H 19.7394 1.24579 -0.722222 0
M  V30 212 H 21.6924 4.20098 0.330958 0
M  V30 213 H 20.4164 3.12433 0.95149 0
M  V30 214 H 19.0754 3.48061 -1.15105 0
M  V30 215 H 18.7234 4.96034 0.83422 0
M  V30 216 H 18.4234 5.83557 -0.688149 0
M  V30 217 H 19.9474 6.10255 0.205238 0
M  V30 218 H 21.3614 5.39055 -1.95172 0
M  V30 219 H 19.7584 5.33834 -2.74119 0
M  V30 220 H 20.8284 3.92844 -2.84257 0
M  V30 221 N 22.1715 0.800033 1.35784 0
M  V30 222 C 23.4195 0.376597 1.9856 0
M  V30 223 C 23.7405 -1.05812 1.63795 0
M  V30 224 O 23.0105 -1.73103 0.917171 0
M  V30 225 H 21.5905 0.136261 0.734467 0
M  V30 226 H 24.2525 1.02442 1.65806 0
M  V30 227 H 23.3485 0.477002 3.08433 0
M  V30 228 N 23.6496 -1.47581 0.552962 0
M  V30 229 C 24.5816 -2.27997 -0.234533 0
M  V30 230 C 25.5946 -1.36753 -0.883321 0
M  V30 231 O 26.7836 -1.61612 -0.757889 0
M  V30 232 C 23.8836 -3.10879 -1.34935 0
M  V30 233 C 23.0566 -4.30056 -0.798158 0
M  V30 234 C 22.1156 -4.94567 -1.79694 0
M  V30 235 O 21.1416 -5.53087 -1.34474 0
M  V30 236 N 22.3436 -4.88878 -3.13015 0
M  V30 237 H 25.1086 -2.96222 0.455255 0
M  V30 238 H 22.6696 -1.57163 0.388761 0
M  V30 239 H 24.6616 -3.50903 -2.01616 0
M  V30 240 H 23.2316 -2.44924 -1.94244 0
M  V30 241 H 22.4516 -3.94174 0.0453079 0
M  V30 242 H 23.7396 -5.07152 -0.409173 0
M  V30 243 H 23.1376 -4.42526 -3.52402 0
M  V30 244 H 21.6946 -5.32934 -3.75266 0
M  V30 245 N 25.1277 -0.289203 -1.54924 0
M  V30 246 C 26.5437 0.0645403 -1.59469 0
M  V30 247 C 26.7437 1.53419 -1.30632 0
M  V30 248 O 25.7997 2.2852 -1.074 0
M  V30 249 C 27.1127 -0.32278 -2.98963 0
M  V30 250 C 28.6607 -0.270564 -3.11828 0
M  V30 251 C 29.1357 -0.632532 -4.53611 0
M  V30 252 N 30.6267 -0.584617 -4.59496 0
M  V30 253 C 31.3617 -0.837314 -5.67254 0
M  V30 254 N 30.8577 -1.15536 -6.83098 0
M  V30 255 N 32.6507 -0.765166 -5.56868 0
M  V30 256 H 24.8017 -1.24714 -1.71931 0
M  V30 257 H 27.0647 -0.504809 -0.802416 0
M  V30 258 H 26.7707 -1.34541 -3.24948 0
M  V30 259 H 26.6447 0.32944 -3.75759 0
M  V30 260 H 29.0317 0.742805 -2.85598 0
M  V30 261 H 29.1127 -0.957242 -2.37214 0
M  V30 262 H 28.7567 -1.64365 -4.80569 0
M  V30 263 H 28.6867 0.07609 -5.26545 0
M  V30 264 H 31.1777 -0.349248 -3.76283 0
M  V30 265 H 31.4907 -1.33447 -7.61191 0
M  V30 266 H 29.8357 -1.19328 -6.84679 0
M  V30 267 H 33.0267 -0.516432 -4.65243 0
M  V30 268 H 33.1997 -0.965477 -6.40767 0
M  V30 269 N 26.6058 1.57591 -0.0167156 0
M  V30 270 C 27.5688 2.08393 0.954204 0
M  V30 271 C 28.5688 0.996531 1.26198 0
M  V30 272 O 29.7588 1.25858 1.20438 0
M  V30 273 C 26.8908 2.5394 2.27436 0
M  V30 274 H 28.0838 2.95455 0.514451 0
M  V30 275 H 25.6368 1.54582 0.231089 0
M  V30 276 H 26.3718 1.70171 2.76066 0
M  V30 277 H 26.1568 3.33371 2.06412 0
M  V30 278 H 27.6468 2.93512 2.97053 0
M  V30 279 N 28.0839 -0.256276 1.55502 0
M  V30 280 C 29.3119 -1.00342 1.8094 0
M  V30 281 C 29.7269 -1.79307 0.59114 0
M  V30 282 O 29.0839 -1.77114 -0.440081 0
M  V30 283 C 29.1349 -1.94875 3.04476 0
M  V30 284 O 28.8559 -1.19107 4.21598 0
M  V30 285 C 30.3569 -2.81266 3.42644 0
M  V30 286 H 27.5769 -0.295685 0.602338 0
M  V30 287 H 30.1209 -0.281998 2.02546 0
M  V30 288 H 28.2759 -2.62457 2.84947 0
M  V30 289 H 28.6899 -1.82969 4.91551 0
M  V30 290 H 30.1639 -3.43362 4.32211 0
M  V30 291 H 30.6409 -3.51897 2.62802 0
M  V30 292 H 31.2469 -2.1915 3.64491 0
M  V30 293 N 29.562 -1.4872 -0.521534 0
M  V30 294 C 30.811 -1.56419 -1.27341 0
M  V30 295 C 31.124 -0.246805 -1.94037 0
M  V30 296 O 32.33 -0.202122 -2.70747 0
M  V30 297 C 30.786 -2.75896 -2.31105 0
M  V30 298 C 30.394 -4.14311 -1.70441 0
M  V30 299 C 32.138 -2.92913 -3.07249 0
M  V30 300 C 30.045 -5.25038 -2.72194 0
M  V30 301 H 28.975 -0.582344 -0.478949 0
M  V30 302 H 31.626 -1.75071 -0.549779 0
M  V30 303 H 30.008 -2.50697 -3.06541 0
M  V30 304 H 31.182 -4.49564 -1.01136 0
M  V30 305 H 29.497 -4.02482 -1.06759 0
M  V30 306 H 32.094 -3.72805 -3.83302 0
M  V30 307 H 32.437 -2.02689 -3.63625 0
M  V30 308 H 32.97 -3.18054 -2.38928 0
M  V30 309 H 29.709 -6.17255 -2.20627 0
M  V30 310 H 29.229 -4.94263 -3.39801 0
M  V30 311 H 30.908 -5.53508 -3.35019 0
M  V30 312 N 31.0401 0.771051 -1.3745 0
M  V30 313 C 32.2651 1.56529 -1.36065 0
M  V30 314 C 32.6901 1.88029 0.0515859 0
M  V30 315 O 32.0481 1.49282 1.02882 0
M  V30 316 C 32.0961 2.85187 -2.20683 0
M  V30 317 O 31.2001 3.79593 -1.61193 0
M  V30 318 H 30.5411 0.47411 -0.464883 0
M  V30 319 H 33.0711 0.954269 -1.80983 0
M  V30 320 H 33.0811 3.34283 -2.33921 0
M  V30 321 H 31.7561 2.61588 -3.23334 0
M  V30 322 H 30.3331 3.38239 -1.56999 0
M  V30 323 N 32.5182 1.22032 0.997298 0
M  V30 324 C 33.7582 1.05375 1.75144 0
M  V30 325 C 34.1222 -0.404696 1.87686 0
M  V30 326 O 35.3232 -0.691998 2.5974 0
M  V30 327 C 33.5942 1.74046 3.12158 0
M  V30 328 S 35.1532 1.72745 4.03366 0
M  V30 329 H 31.9712 0.377449 0.602539 0
M  V30 330 H 34.5732 1.54902 1.19272 0
M  V30 331 H 33.2772 2.79332 3.00669 0
M  V30 332 H 32.8082 1.24731 3.73103 0
M  V30 333 H 34.8232 0.774015 4.90126 0
M  V30 334 N 33.9963 -1.19345 1.0293 0
M  V30 335 C 34.9433 -2.2258 0.610464 0
M  V30 336 C 35.9133 -1.6179 -0.375946 0
M  V30 337 O 37.0983 -1.88844 -0.272511 0
M  V30 338 C 34.2383 -3.45085 -0.0321473 0
M  V30 339 C 33.3513 -4.20258 1.00035 0
M  V30 340 C 32.4863 -5.3019 0.32746 0
M  V30 341 C 31.5253 -5.97121 1.34584 0
M  V30 342 N 30.6623 -6.98615 0.698726 0
M  V30 343 H 35.5023 -2.57764 1.49538 0
M  V30 344 H 33.0393 -1.26644 0.748311 0
M  V30 345 H 34.9973 -4.15061 -0.421966 0
M  V30 346 H 33.6273 -3.10555 -0.88064 0
M  V30 347 H 32.6793 -3.49223 1.50823 0
M  V30 348 H 33.9913 -4.66175 1.77433 0
M  V30 349 H 33.1453 -6.06587 -0.11718 0
M  V30 350 H 31.8843 -4.85345 -0.478713 0
M  V30 351 H 30.8893 -5.19474 1.80074 0
M  V30 352 H 32.1143 -6.4405 2.15352 0
M  V30 353 H 30.0603 -6.55942 -0.0873471 0
M  V30 354 H 29.9773 -7.42724 1.41058 0
M  V30 355 H 31.2453 -7.79004 0.278102 0
M  V30 356 N 35.4744 -0.807222 -1.35358 0
M  V30 357 C 36.4374 -0.223665 -2.28106 0
M  V30 358 C 37.4374 0.589354 -1.4961 0
M  V30 359 O 38.6274 0.407745 -1.69361 0
M  V30 360 C 35.7594 0.688149 -3.33882 0
M  V30 361 H 36.9524 -1.04169 -2.81227 0
M  V30 362 H 34.5054 -0.577921 -1.45223 0
M  V30 363 H 35.2404 1.52984 -2.85948 0
M  V30 364 H 35.0254 0.10687 -3.91954 0
M  V30 365 H 36.5154 1.09075 -4.03104 0
M  V30 366 N 36.9525 1.47285 -0.560781 0
M  V30 367 C 38.1775 2.07359 -0.0410566 0
M  V30 368 C 38.6025 1.41017 1.24483 0
M  V30 369 O 37.9605 0.486368 1.74654 0
M  V30 370 C 38.0085 3.6035 0.134123 0
M  V30 371 O 37.1125 3.94681 1.19587 0
M  V30 372 H 36.4535 0.661887 -0.0529291 0
M  V30 373 H 38.9835 1.89252 -0.777482 0
M  V30 374 H 38.9935 4.0652 0.347207 0
M  V30 375 H 37.6685 4.08034 -0.805047 0
M  V30 376 H 36.2455 3.60251 0.962987 0
M  V30 377 N 38.4306 0.297415 1.54768 0
M  V30 378 C 39.3626 -0.613881 2.20826 0
M  V30 379 C 40.3756 -1.10032 1.19987 0
M  V30 380 O 41.5646 -1.01839 1.46598 0
M  V30 381 C 38.6646 -1.852 2.83821 0
M  V30 382 C 37.8376 -1.50865 4.10559 0
M  V30 383 C 36.8966 -2.60154 4.57391 0
M  V30 384 O 35.9226 -2.25398 5.2267 0
M  V30 385 N 37.1246 -3.90629 4.29406 0
M  V30 386 H 39.8896 -0.048389 2.99661 0
M  V30 387 H 37.4506 0.11946 1.61459 0
M  V30 388 H 39.4426 -2.57652 3.12086 0
M  V30 389 H 38.0126 -2.32597 2.08847 0
M  V30 390 H 37.2326 -0.616925 3.89343 0
M  V30 391 H 38.5206 -1.25458 4.9309 0
M  V30 392 H 37.9186 -4.21677 3.77101 0
M  V30 393 H 36.4756 -4.59391 4.62388 0
M  V30 394 N 39.9087 -1.5758 0.0250728 0
M  V30 395 C 41.1337 -1.96337 -0.668317 0
M  V30 396 C 41.5587 -0.901314 -1.651 0
M  V30 397 O 40.9167 0.138187 -1.80773 0
M  V30 398 C 40.9647 -3.34191 -1.35457 0
M  V30 399 O 40.0687 -3.30269 -2.46974 0
M  V30 400 H 39.4097 -0.640281 -0.175887 0
M  V30 401 H 41.9397 -2.0442 0.0857224 0
M  V30 402 H 41.9497 -3.70331 -1.71228 0
M  V30 403 H 40.6247 -4.11036 -0.634218 0
M  V30 404 H 39.2017 -3.05841 -2.13344 0
M  V30 405 N 41.3868 0.248026 -1.55636 0
M  V30 406 C 42.6328 0.97767 -1.77678 0
M  V30 407 C 42.9658 1.85016 -0.590135 0
M  V30 408 O 42.2408 1.90095 0.411611 0
M  V30 409 C 42.5238 1.83914 -3.09593 0
M  V30 410 C 42.3768 0.99491 -4.38659 0
M  V30 411 C 43.6958 2.82183 -3.37729 0
M  V30 412 H 40.8148 0.354005 -0.646413 0
M  V30 413 H 43.4568 0.248253 -1.88371 0
M  V30 414 H 41.6068 2.46104 -3.00608 0
M  V30 415 H 43.2788 0.391789 -4.59633 0
M  V30 416 H 41.5218 0.299231 -4.32767 0
M  V30 417 H 42.1928 1.63145 -5.2734 0
M  V30 418 H 44.6688 2.30129 -3.4667 0
M  V30 419 H 43.5448 3.39582 -4.31249 0
M  V30 420 H 43.8058 3.58588 -2.58586 0
M  V30 421 N 42.8649 1.48995 0.513639 0
M  V30 422 C 44.1419 1.48338 1.27495 0
M  V30 423 C 44.5219 0.204065 2.10111 0
M  V30 424 O 43.8699 -0.813881 2.13514 0
M  V30 425 C 44.0799 2.75498 2.14247 0
M  V30 426 C 45.4279 3.24484 2.73852 0
M  V30 427 O 46.4519 2.76528 2.24523 0
M  V30 428 O 45.3109 4.07974 3.6362 0
M  V30 429 H 42.4049 0.593149 0.576284 0
M  V30 430 H 44.9509 1.61246 0.528948 0
M  V30 431 H 43.7229 3.60109 1.53092 0
M  V30 432 H 43.3459 2.6539 2.96064 0
M  V30 433 N 44.343 -0.763751 1.37857 0
M  V30 434 C 45.573 -1.55067 1.3652 0
M  V30 435 C 45.981 -1.89135 -0.0494227 0
M  V30 436 O 45.324 -1.52529 -1.02375 0
M  V30 437 C 45.386 -2.8838 2.14656 0
M  V30 438 C 45.05 -2.76905 3.63555 0
M  V30 439 C 46.047 -2.4739 4.57268 0
M  V30 440 C 43.732 -2.94676 4.06781 0
M  V30 441 C 45.726 -2.35786 5.92186 0
M  V30 442 C 43.413 -2.82692 5.41782 0
M  V30 443 C 44.411 -2.53289 6.34298 0
M  V30 444 O 44.099 -2.41345 7.66817 0
M  V30 445 H 43.831 -0.486776 0.469069 0
M  V30 446 H 46.385 -0.953812 1.81911 0
M  V30 447 H 44.615 -3.50217 1.63967 0
M  V30 448 H 46.304 -3.49828 2.05852 0
M  V30 449 H 47.07 -2.33339 4.2518 0
M  V30 450 H 42.949 -3.16563 3.35126 0
M  V30 451 H 46.493 -2.12757 6.64365 0
M  V30 452 H 42.39 -2.96314 5.7347 0
M  V30 453 H 43.158 -2.56634 7.77226 0
M  V30 454 N 45.8211 -1.22559 -0.990812 0
M  V30 455 C 47.0981 -0.959875 -1.70428 0
M  V30 456 C 47.4781 0.524455 -2.04481 0
M  V30 457 O 46.8261 1.49302 -1.72977 0
M  V30 458 C 47.0361 -1.85955 -2.95333 0
M  V30 459 C 48.3841 -2.11687 -3.68068 0
M  V30 460 O 49.4081 -1.8342 -3.05345 0
M  V30 461 O 48.2671 -2.59572 -4.80921 0
M  V30 462 H 45.3611 -0.361154 -0.743974 0
M  V30 463 H 47.9071 -1.33554 -1.04697 0
M  V30 464 H 46.6791 -2.86346 -2.66687 0
M  V30 465 H 46.3021 -1.4856 -3.68803 0
M  V30 466 N 47.2992 1.18797 -1.03562 0
M  V30 467 C 48.5472 1.88278 -0.734569 0
M  V30 468 C 48.8682 1.8043 0.739586 0
M  V30 469 O 48.1382 1.21925 1.53333 0
M  V30 470 H 46.7182 0.696991 -0.268725 0
M  V30 471 H 49.3802 1.44192 -1.31129 0
M  V30 472 H 48.4762 2.94443 -1.03489 0
M  V30 473 N 48.7773 0.814389 1.34928 0
M  V30 474 C 50.0543 0.321363 1.92942 0
M  V30 475 C 50.4343 -1.19014 1.74353 0
M  V30 476 O 49.7823 -1.99328 1.11716 0
M  V30 477 C 49.9923 0.741323 3.41036 0
M  V30 478 C 51.3403 0.735266 4.18185 0
M  V30 479 O 52.3643 0.68336 3.49584 0
M  V30 480 O 51.2233 0.800703 5.40602 0
M  V30 481 H 48.3173 0.0858893 0.822528 0
M  V30 482 H 50.8633 0.898609 1.43955 0
M  V30 483 H 49.6353 1.78276 3.4833 0
M  V30 484 H 49.2583 0.139307 3.97356 0
M  V30 485 N 50.2554 -1.46986 0.568584 0
M  V30 486 C 51.4804 -2.07335 0.0520528 0
M  V30 487 C 51.9054 -1.41675 -1.23733 0
M  V30 488 O 51.2634 -0.495623 -1.74394 0
M  V30 489 C 51.3114 -3.60417 -0.11501 0
M  V30 490 O 50.4154 -3.95309 -1.17492 0
M  V30 491 H 49.7564 -0.661597 0.0564385 0
M  V30 492 H 52.2864 -1.88837 0.787507 0
M  V30 493 H 52.2964 -4.06698 -0.325644 0
M  V30 494 H 50.9714 -4.07601 0.826675 0
M  V30 495 H 49.5484 -3.60757 -0.943869 0
M  V30 496 N 51.7335 -0.305618 -1.54608 0
M  V30 497 C 52.9635 0.304333 -2.04346 0
M  V30 498 C 53.3715 1.47715 -1.18224 0
M  V30 499 O 52.7145 1.82591 -0.201577 0
M  V30 500 C 52.7765 0.819031 -3.50046 0
M  V30 501 C 52.4405 -0.22912 -4.56425 0
M  V30 502 C 53.4375 -1.05914 -5.08997 0
M  V30 503 C 51.1225 -0.372148 -5.0092 0
M  V30 504 C 53.1165 -2.01809 -6.04609 0
M  V30 505 C 50.8035 -1.33454 -5.9635 0
M  V30 506 C 51.8015 -2.15599 -6.48079 0
M  V30 507 O 51.4895 -3.10205 -7.41639 0
M  V30 508 H 51.2215 0.0693996 -0.672428 0
M  V30 509 H 53.7755 -0.444548 -2.00532 0
M  V30 510 H 52.0055 1.61852 -3.51199 0
M  V30 511 H 53.6945 1.34537 -3.82955 0
M  V30 512 H 54.4605 -0.959538 -4.75413 0
M  V30 513 H 50.3395 0.257304 -4.60281 0
M  V30 514 H 53.8835 -2.65966 -6.44909 0
M  V30 515 H 49.7805 -1.43485 -6.29351 0
M  V30 516 H 50.5485 -3.05237 -7.59455 0
M  V30 517 N 53.2116 1.57565 -0.0334293 0
M  V30 518 C 54.1416 2.13511 0.945265 0
M  V30 519 C 55.1226 1.05231 1.33643 0
M  V30 520 O 56.3076 1.33084 1.41429 0
M  V30 521 C 53.4376 2.6657 2.22616 0
M  V30 522 C 52.3916 3.79676 1.97561 0
M  V30 523 C 51.7176 4.1918 3.31952 0
M  V30 524 C 53.0176 5.0557 1.31135 0
M  V30 525 H 54.7116 2.95538 0.479325 0
M  V30 526 H 52.2576 1.42166 0.229115 0
M  V30 527 H 54.2106 3.04344 2.91466 0
M  V30 528 H 52.9346 1.8171 2.71384 0
M  V30 529 H 51.5936 3.42347 1.31127 0
M  V30 530 H 51.2416 3.31296 3.78487 0
M  V30 531 H 50.9416 4.95402 3.15992 0
M  V30 532 H 52.4656 4.59541 4.02063 0
M  V30 533 H 53.8796 5.40903 1.89992 0
M  V30 534 H 52.2766 5.86818 1.25559 0
M  V30 535 H 53.3466 4.84062 0.284894 0
M  V30 536 N 54.6897 -0.239769 1.55765 0
M  V30 537 C 55.6377 -1.31668 1.91745 0
M  V30 538 C 56.6317 -1.49462 0.797338 0
M  V30 539 O 57.8377 -1.50852 0.982021 0
M  V30 540 H 54.2127 -0.441048 0.609082 0
M  V30 541 H 56.1837 -0.985923 2.81642 0
M  V30 542 C 54.9327 -2.66368 2.2348 0
M  V30 543 H 54.2557 -2.53478 3.09175 0
M  V30 544 H 55.6957 -3.40578 2.52553 0
M  V30 545 C 54.1547 -3.20002 1.05359 0
M  V30 546 O 54.6847 -4.00538 0.305261 0
M  V30 547 N 52.8907 -2.78126 0.842292 0
M  V30 548 H 52.4377 -2.12742 1.45253 0
M  V30 549 H 52.3957 -3.14354 0.053652 0
M  V30 550 N 56.1678 -1.49265 -0.50573 0
M  V30 551 C 57.4138 -1.59723 -1.25937 0
M  V30 552 C 57.7688 -0.278236 -1.90378 0
M  V30 553 O 57.0618 0.72113 -1.77511 0
M  V30 554 C 57.2558 -2.69008 -2.35308 0
M  V30 555 C 57.0848 -4.11405 -1.81592 0
M  V30 556 C 55.8548 -4.78252 -1.63105 0
M  V30 557 C 58.0528 -4.96792 -1.33048 0
M  V30 558 N 56.0348 -6.0498 -1.04269 0
M  V30 559 C 57.4058 -6.13962 -0.863168 0
M  V30 560 C 59.4608 -4.82828 -1.21577 0
M  V30 561 C 58.1638 -7.18705 -0.292489 0
M  V30 562 C 60.1898 -5.87716 -0.65907 0
M  V30 563 C 59.5518 -7.0411 -0.201954 0
M  V30 564 H 55.6508 -0.638864 -0.450973 0
M  V30 565 H 58.2348 -1.86251 -0.567326 0
M  V30 566 H 56.4058 -2.4426 -3.01979 0
M  V30 567 H 58.1378 -2.69013 -3.02348 0
M  V30 568 H 54.8928 -4.34974 -1.87336 0
M  V30 569 H 55.3168 -6.72631 -0.767919 0
M  V30 570 H 59.9588 -3.93159 -1.55518 0
M  V30 571 H 57.6768 -8.08078 0.0591987 0
M  V30 572 H 61.2628 -5.7897 -0.573156 0
M  V30 573 H 60.1428 -7.83885 0.222101 0
M  V30 574 N 57.6459 0.756429 -1.3826 0
M  V30 575 C 58.8759 1.54341 -1.3734 0
M  V30 576 C 59.2839 1.89159 0.0393917 0
M  V30 577 O 58.6269 1.5307 1.01565 0
M  V30 578 C 58.6889 2.87238 -2.16182 0
M  V30 579 C 58.3529 2.74973 -3.65019 0
M  V30 580 C 59.3499 2.44962 -4.58574 0
M  V30 581 C 57.0349 2.92515 -4.08338 0
M  V30 582 C 59.0289 2.32642 -5.93428 0
M  V30 583 C 56.7159 2.79815 -5.43274 0
M  V30 584 C 57.7139 2.49921 -6.35632 0
M  V30 585 O 57.4019 2.37275 -7.68086 0
M  V30 586 H 57.1339 0.484281 -0.471643 0
M  V30 587 H 59.6879 0.944152 -1.82414 0
M  V30 588 H 57.9179 3.49342 -1.65822 0
M  V30 589 H 59.6069 3.48731 -2.07705 0
M  V30 590 H 60.3729 2.31081 -4.26412 0
M  V30 591 H 56.2519 3.14781 -3.368 0
M  V30 592 H 59.7959 2.0923 -6.65484 0
M  V30 593 H 55.6929 2.93269 -5.75034 0
M  V30 594 H 56.4609 2.52509 -7.78577 0
M  V30 595 N 59.124 1.23083 0.984299 0
M  V30 596 C 60.056 0.96636 2.07832 0
M  V30 597 C 61.069 -0.0582135 1.62696 0
M  V30 598 O 62.258 0.176843 1.77622 0
M  V30 599 C 59.358 0.433397 3.36117 0
M  V30 600 C 58.531 1.51722 4.10243 0
M  V30 601 C 57.59 0.989821 5.16807 0
M  V30 602 O 56.616 1.67794 5.43906 0
M  V30 603 N 57.818 -0.184367 5.80207 0
M  V30 604 H 60.583 1.90824 2.31098 0
M  V30 605 H 58.144 1.13888 1.1507 0
M  V30 606 H 60.136 0.065699 4.04647 0
M  V30 607 H 58.706 -0.413806 3.09849 0
M  V30 608 H 57.926 2.05786 3.36223 0
M  V30 609 H 59.214 2.24619 4.56534 0
M  V30 610 H 58.612 -0.760062 5.60571 0
M  V30 611 H 57.169 -0.493366 6.4993 0
M  V30 612 N 60.6021 -1.18246 1.0419 0
M  V30 613 C 61.5341 -2.2142 0.592088 0
M  V30 614 C 62.5471 -1.59233 -0.338909 0
M  V30 615 O 63.7361 -1.78002 -0.133231 0
M  V30 616 C 60.8361 -3.38546 -0.154854 0
M  V30 617 C 60.0091 -4.3031 0.784328 0
M  V30 618 C 59.0681 -5.26138 0.0804583 0
M  V30 619 O 58.0941 -5.64738 0.711292 0
M  V30 620 N 59.2961 -5.68261 -1.18574 0
M  V30 621 H 62.0611 -2.60636 1.47949 0
M  V30 622 H 59.6221 -1.33044 0.922544 0
M  V30 623 H 61.6141 -3.99678 -0.635606 0
M  V30 624 H 60.1841 -2.98012 -0.943811 0
M  V30 625 H 59.4041 -3.66764 1.44491 0
M  V30 626 H 60.6921 -4.8852 1.42218 0
M  V30 627 H 60.0901 -5.38957 -1.71876 0
M  V30 628 H 58.6471 -6.31584 -1.61074 0
M  V30 629 N 62.0802 -0.821533 -1.34494 0
M  V30 630 C 63.3292 -0.405355 -1.97585 0
M  V30 631 C 63.6422 1.03677 -1.65863 0
M  V30 632 O 64.8482 1.55679 -2.22433 0
M  V30 633 C 63.3042 -0.673861 -3.53535 0
M  V30 634 C 62.9122 -2.12951 -3.94152 0
M  V30 635 C 64.6562 -0.32378 -4.23263 0
M  V30 636 C 62.5632 -2.34298 -5.43009 0
M  V30 637 H 61.4932 -0.147836 -0.739365 0
M  V30 638 H 64.1442 -1.00769 -1.53355 0
M  V30 639 H 62.5262 -0.00137554 -3.96 0
M  V30 640 H 63.7002 -2.84104 -3.62797 0
M  V30 641 H 62.0152 -2.44089 -3.37356 0
M  V30 642 H 64.6122 -0.461126 -5.32708 0
M  V30 643 H 64.9552 0.731586 -4.09821 0
M  V30 644 H 65.4882 -0.950786 -3.8627 0
M  V30 645 H 62.2272 -3.38335 -5.61435 0
M  V30 646 H 61.7472 -1.67687 -5.75883 0
M  V30 647 H 63.4262 -2.16588 -6.09671 0
M  V30 648 N 63.5583 1.46682 -0.576371 0
M  V30 649 C 64.9693 1.86112 -0.148091 0
M  V30 650 C 65.3203 1.48073 1.2872 0
M  V30 651 O 64.4453 0.892656 1.97131 0
M  V30 652 C 65.0403 3.37786 -0.261982 0
M  V30 653 C 63.5993 3.76235 0.111384 0
M  V30 654 C 62.7463 2.70713 -0.60083 0
M  V30 655 H 65.6973 1.37927 -0.78497 0
M  V30 656 H 65.7183 3.77007 0.514364 0
M  V30 657 H 65.2303 3.6544 -1.30671 0
M  V30 658 H 63.3313 3.54198 1.15649 0
M  V30 659 H 63.4443 4.78391 -0.26052 0
M  V30 660 H 61.8083 2.54666 -0.0417783 0
M  V30 661 H 62.5913 3.01208 -1.64708 0
M  V30 662 N 65.0364 0.313813 1.54444 0
M  V30 663 C 66.2844 -0.291099 1.99993 0
M  V30 664 C 66.6054 -1.53418 1.20366 0
M  V30 665 O 65.8754 -1.93544 0.302927 0
M  V30 666 H 64.4554 -0.110552 0.738774 0
M  V30 667 H 67.1174 0.428106 1.9014 0
M  V30 668 H 66.2134 -0.554268 3.07139 0
M  V30 669 N 66.5145 -1.57545 0.0417849 0
M  V30 670 C 67.4465 -2.07904 -0.964799 0
M  V30 671 C 68.4595 -1.00497 -1.28079 0
M  V30 672 O 69.6485 -1.28087 -1.24322 0
M  V30 673 C 66.7485 -2.49928 -2.28887 0
M  V30 674 C 65.9215 -3.80562 -2.15619 0
M  V30 675 C 64.9805 -4.08999 -3.31069 0
M  V30 676 O 64.0065 -4.79061 -3.0739 0
M  V30 677 N 65.2085 -3.6017 -4.55256 0
M  V30 678 H 67.9735 -2.94886 -0.535029 0
M  V30 679 H 65.5345 -1.61252 -0.144681 0
M  V30 680 H 67.5265 -2.66034 -3.04972 0
M  V30 681 H 66.0965 -1.68245 -2.63463 0
M  V30 682 H 65.3165 -3.74129 -1.24183 0
M  V30 683 H 66.6045 -4.66126 -2.03971 0
M  V30 684 H 66.0025 -3.03512 -4.77386 0
M  V30 685 H 64.5595 -3.81532 -5.28466 0
M  V30 686 N 67.9926 0.231505 -1.5589 0
M  V30 687 C 69.4036 0.799327 -1.68724 0
M  V30 688 C 69.7546 1.85398 -0.642022 0
M  V30 689 O 68.8796 2.1539 0.208784 0
M  V30 690 C 69.4746 1.45664 -3.05888 0
M  V30 691 C 68.0336 1.97197 -3.20609 0
M  V30 692 C 67.1806 0.828552 -2.64632 0
M  V30 693 H 70.1316 0.00702616 -1.58698 0
M  V30 694 H 70.1526 2.32517 -3.01191 0
M  V30 695 H 69.6646 0.688808 -3.81939 0
M  V30 696 H 67.7656 2.76813 -2.4941 0
M  V30 697 H 67.8786 2.15878 -4.27707 0
M  V30 698 H 66.2426 1.23321 -2.22854 0
M  V30 699 H 67.0256 0.0735544 -3.43221 0
M  V30 700 N 69.4707 1.49531 0.497807 0
M  V30 701 C 70.8817 1.52344 1.07927 0
M  V30 702 C 71.2327 0.311469 1.93712 0
M  V30 703 O 70.3577 -0.578405 2.08527 0
M  V30 704 C 70.9527 2.76062 1.96405 0
M  V30 705 C 69.5117 2.81643 2.49709 0
M  V30 706 C 68.6587 2.46299 1.27404 0
M  V30 707 H 71.6097 1.56182 0.281576 0
M  V30 708 H 71.6307 2.56405 2.81135 0
M  V30 709 H 71.1427 3.64254 1.33943 0
M  V30 710 H 69.2437 1.97739 3.15801 0
M  V30 711 H 69.3567 3.83891 2.86643 0
M  V30 712 H 67.7207 1.98148 1.60029 0
M  V30 713 H 68.5037 3.36769 0.66645 0
M  V30 714 N 70.9488 -0.749086 1.3866 0
M  V30 715 C 71.8958 -1.86291 1.36251 0
M  V30 716 C 72.8658 -1.64578 0.224347 0
M  V30 717 O 74.0508 -1.86181 0.417279 0
M  V30 718 C 71.1908 -3.23644 1.19786 0
M  V30 719 C 70.3038 -3.57158 2.43027 0
M  V30 720 C 69.4388 -4.83838 2.19258 0
M  V30 721 C 68.4778 -5.10152 3.38247 0
M  V30 722 N 67.6148 -6.28029 3.13884 0
M  V30 723 H 72.4548 -1.87685 2.3147 0
M  V30 724 H 69.9918 -0.917287 1.14997 0
M  V30 725 H 71.9498 -4.0291 1.08254 0
M  V30 726 H 70.5798 -3.21566 0.282031 0
M  V30 727 H 69.6318 -2.72701 2.65214 0
M  V30 728 H 70.9438 -3.7253 3.31697 0
M  V30 729 H 70.0978 -5.71057 2.04888 0
M  V30 730 H 68.8368 -4.70614 1.2796 0
M  V30 731 H 67.8418 -4.21401 3.53131 0
M  V30 732 H 69.0668 -5.25271 4.30427 0
M  V30 733 H 67.0128 -6.1612 2.25238 0
M  V30 734 H 66.9298 -6.43922 3.96106 0
M  V30 735 H 68.1978 -7.18124 3.03179 0
M  V30 736 N 72.4269 -1.23603 -0.977757 0
M  V30 737 C 73.3569 -1.04401 -2.0886 0
M  V30 738 C 74.3379 0.0399052 -1.70053 0
M  V30 739 O 75.5229 -0.125246 -1.93796 0
M  V30 740 C 72.6529 -0.637269 -3.41403 0
M  V30 741 C 71.6069 -1.66883 -3.94124 0
M  V30 742 C 70.9329 -1.11745 -5.22893 0
M  V30 743 C 72.2329 -3.06247 -4.23096 0
M  V30 744 H 73.9269 -1.97316 -2.25182 0
M  V30 745 H 71.4729 -0.950096 -1.08209 0
M  V30 746 H 73.4259 -0.48998 -4.18542 0
M  V30 747 H 72.1499 0.327557 -3.24953 0
M  V30 748 H 70.8089 -1.80416 -3.19133 0
M  V30 749 H 70.4569 -0.143527 -5.02795 0
M  V30 750 H 70.1569 -1.80672 -5.59134 0
M  V30 751 H 71.6809 -0.982067 -6.02651 0
M  V30 752 H 73.0949 -2.96001 -4.90975 0
M  V30 753 H 71.4919 -3.72436 -4.70544 0
M  V30 754 H 72.5619 -3.55041 -3.30263 0
M  V30 755 N 73.905 1.17692 -1.04816 0
M  V30 756 C 74.835 2.23777 -0.666791 0
M  V30 757 C 75.816 1.66796 0.33361 0
M  V30 758 O 77.001 1.93039 0.212042 0
M  V30 759 C 74.131 3.47281 -0.0367933 0
M  V30 760 C 73.085 4.17059 -0.961546 0
M  V30 761 C 72.411 5.34342 -0.195626 0
M  V30 762 C 73.711 4.69713 -2.28402 0
M  V30 763 H 75.405 2.55933 -1.55367 0
M  V30 764 H 72.951 1.23019 -0.748484 0
M  V30 765 H 74.904 4.20706 0.241775 0
M  V30 766 H 73.628 3.14381 0.885004 0
M  V30 767 H 72.287 3.45541 -1.22462 0
M  V30 768 H 71.935 4.97692 0.728816 0
M  V30 769 H 71.635 5.81966 -0.811775 0
M  V30 770 H 73.159 6.10553 0.0757473 0
M  V30 771 H 74.573 5.34794 -2.06563 0
M  V30 772 H 72.97 5.279 -2.8538 0
M  V30 773 H 74.04 3.86726 -2.92525 0
M  V30 774 N 75.3831 0.828654 1.34056 0
M  V30 775 C 76.6321 0.415828 1.97367 0
M  V30 776 C 76.9451 -1.02796 1.6641 0
M  V30 777 O 78.1511 -1.54497 2.23255 0
M  V30 778 C 76.6071 0.692601 3.53173 0
M  V30 779 C 76.2151 2.15038 3.93017 0
M  V30 780 C 77.9591 0.346222 4.23086 0
M  V30 781 C 75.8661 2.37174 5.41758 0
M  V30 782 H 74.7961 0.151755 0.738571 0
M  V30 783 H 77.4471 1.01581 1.52819 0
M  V30 784 H 75.8291 0.0223764 3.95994 0
M  V30 785 H 77.0031 2.86024 3.61285 0
M  V30 786 H 75.3181 2.45875 3.36057 0
M  V30 787 H 77.9151 0.48937 5.32456 0
M  V30 788 H 78.2581 -0.709842 4.10204 0
M  V30 789 H 78.7911 0.971258 3.85761 0
M  V30 790 H 75.5301 3.41308 5.59633 0
M  V30 791 H 75.0501 1.70738 5.74986 0
M  V30 792 H 76.7291 2.19818 6.08514 0
M  V30 793 N 76.8612 -1.46375 0.584142 0
M  V30 794 C 78.0912 -2.06461 0.0758195 0
M  V30 795 C 78.4992 -1.43322 -1.23512 0
M  V30 796 O 77.8422 -0.533216 -1.75791 0
M  V30 797 C 77.9042 -3.59131 -0.162773 0
M  V30 798 C 77.5682 -4.4447 1.06279 0
M  V30 799 C 78.5652 -4.80918 1.97519 0
M  V30 800 C 76.2502 -4.85584 1.28504 0
M  V30 801 C 78.2442 -5.57309 3.09331 0
M  V30 802 C 75.9312 -5.61734 2.4062 0
M  V30 803 C 76.9292 -5.9751 3.30863 0
M  V30 804 O 76.6172 -6.72121 4.41032 0
M  V30 805 H 76.3492 -0.673745 0.0551725 0
M  V30 806 H 78.9032 -1.88969 0.804984 0
M  V30 807 H 77.1332 -3.74936 -0.946565 0
M  V30 808 H 78.8222 -4.0114 -0.619782 0
M  V30 809 H 79.5882 -4.49732 1.81565 0
M  V30 810 H 75.4672 -4.57187 0.591702 0
M  V30 811 H 79.0112 -5.85152 3.79793 0
M  V30 812 H 74.9082 -5.92334 2.56537 0
M  V30 813 H 75.6762 -6.90547 4.39417 0
M  V30 814 N 78.3393 -0.321999 -1.54275 0
M  V30 815 C 79.6163 0.335232 -1.92706 0
M  V30 816 C 79.9963 1.70006 -1.25145 0
M  V30 817 O 79.3443 2.25067 -0.394596 0
M  V30 818 C 79.5543 0.429008 -3.46353 0
M  V30 819 C 80.9023 0.690029 -4.18956 0
M  V30 820 O 81.9263 0.511992 -3.52501 0
M  V30 821 O 80.7853 1.03338 -5.36641 0
M  V30 822 H 77.8793 0.191143 -0.804608 0
M  V30 823 H 80.4253 -0.3716 -1.65581 0
M  V30 824 H 79.1973 -0.529611 -3.87699 0
M  V30 825 H 78.8203 1.18348 -3.79578 0
M  V30 826 N 79.8174 1.5752 -0.0501392 0
M  V30 827 C 80.7804 2.1037 0.909786 0
M  V30 828 C 81.7804 1.02308 1.24056 0
M  V30 829 O 82.9704 1.28385 1.17741 0
M  V30 830 C 80.1024 2.58708 2.21998 0
M  V30 831 H 81.2954 2.96479 0.451665 0
M  V30 832 H 78.8484 1.55038 0.198248 0
M  V30 833 H 79.5834 1.75989 2.72394 0
M  V30 834 H 79.3684 3.37675 1.99295 0
M  V30 835 H 80.8584 2.99747 2.9076 0
M  V30 836 N 81.2955 -0.223234 1.56011 0
M  V30 837 C 82.5205 -0.968978 1.83373 0
M  V30 838 C 82.9455 -1.77227 0.630254 0
M  V30 839 O 82.3035 -1.76345 -0.420959 0
M  V30 840 C 82.3515 -1.86363 3.08709 0
M  V30 841 O 81.4555 -2.95873 2.87285 0
M  V30 842 H 80.7965 -0.274461 0.604622 0
M  V30 843 H 83.3265 -0.237056 2.03222 0
M  V30 844 H 83.3365 -2.27376 3.38768 0
M  V30 845 H 82.0115 -1.27319 3.95933 0
M  V30 846 H 80.5885 -2.58818 2.68454 0
M  V30 847 N 82.7736 -1.49793 -0.48987 0
M  V30 848 C 83.7216 -1.67783 -1.61095 0
M  V30 849 C 84.7156 -0.543683 -1.60438 0
M  V30 850 O 85.9216 -0.723647 -1.64813 0
M  V30 851 H 82.2966 -0.529255 -0.534222 0
M  V30 852 H 84.2676 -2.61861 -1.43078 0
M  V30 853 C 83.0166 -1.77191 -2.99164 0
M  V30 854 H 82.3396 -2.63841 -3.0038 0
M  V30 855 H 83.7796 -1.93809 -3.77113 0
M  V30 856 C 82.2386 -0.519203 -3.32875 0
M  V30 857 O 82.7686 0.350124 -4.00171 0
M  V30 858 N 80.9746 -0.378816 -2.8812 0
M  V30 859 H 80.5216 -1.08725 -2.33531 0
M  V30 860 H 80.4796 0.458239 -3.11043 0
M  V30 861 N 84.2517 0.741722 -1.39055 0
M  V30 862 C 85.1817 1.869 -1.39966 0
M  V30 863 C 86.1627 1.6804 -0.26392 0
M  V30 864 O 87.3477 1.88458 -0.468755 0
M  V30 865 C 84.4777 3.24572 -1.23574 0
M  V30 866 C 83.4317 3.58056 -2.34477 0
M  V30 867 C 82.7577 4.94593 -2.0318 0
M  V30 868 C 84.0577 3.61716 -3.76774 0
M  V30 869 H 85.7517 1.86395 -2.34302 0
M  V30 870 H 83.2977 0.895361 -1.1278 0
M  V30 871 H 85.2507 4.031 -1.22834 0
M  V30 872 H 83.9747 3.25587 -0.257045 0
M  V30 873 H 82.6337 2.81854 -2.34423 0
M  V30 874 H 82.2817 4.92181 -1.03765 0
M  V30 875 H 81.9817 5.17964 -2.77465 0
M  V30 876 H 83.5057 5.75486 -2.04079 0
M  V30 877 H 84.9197 4.30335 -3.78794 0
M  V30 878 H 83.3167 3.96603 -4.50362 0
M  V30 879 H 84.3867 2.61672 -4.08235 0
M  V30 880 N 85.7298 1.2412 0.971189 0
M  V30 881 C 86.9758 1.08041 1.71625 0
M  V30 882 C 87.3088 -0.380407 1.90438 0
M  V30 883 O 86.5838 -1.28127 1.46334 0
M  V30 884 C 86.8668 1.81682 3.10908 0
M  V30 885 C 86.7198 3.35493 2.99608 0
M  V30 886 C 88.0388 1.58671 4.10501 0
M  V30 887 H 85.1578 0.39388 0.622919 0
M  V30 888 H 87.7998 1.52743 1.13003 0
M  V30 889 H 85.9498 1.43684 3.60953 0
M  V30 890 H 87.6218 3.83068 2.57015 0
M  V30 891 H 85.8648 3.64052 2.35899 0
M  V30 892 H 86.5358 3.82217 3.98264 0
M  V30 893 H 89.0118 1.91719 3.69301 0
M  V30 894 H 87.8878 2.1266 5.06031 0
M  V30 895 H 88.1488 0.524161 4.38982 0
M  V30 896 N 87.2079 -1.17134 1.05439 0
M  V30 897 C 88.4329 -1.91913 0.786396 0
M  V30 898 C 88.8579 -1.7643 -0.652234 0
M  V30 899 O 88.2159 -1.08372 -1.45345 0
M  V30 900 C 88.2639 -3.40921 1.17497 0
M  V30 901 O 87.3679 -4.11244 0.308589 0
M  V30 902 H 86.7089 -0.598215 0.288158 0
M  V30 903 H 89.2389 -1.48457 1.4079 0
M  V30 904 H 89.2489 -3.91668 1.14281 0
M  V30 905 H 87.9239 -3.5151 2.22292 0
M  V30 906 H 86.5009 -3.70731 0.40157 0
M  V30 907 N 88.686 -0.835752 -1.33615 0
M  V30 908 C 89.934 -0.429109 -1.97492 0
M  V30 909 C 90.255 1.01433 -1.66543 0
M  V30 910 O 89.525 1.70611 -0.962744 0
M  V30 911 H 88.105 -0.155686 -0.730596 0
M  V30 912 H 90.767 -1.06802 -1.63031 0
M  V30 913 H 89.863 -0.55861 -3.0706 0
M  V30 914 N 90.1641 1.46063 -0.591896 0
M  V30 915 C 91.4131 2.01547 -0.0786637 0
M  V30 916 C 91.7261 1.46796 1.29268 0
M  V30 917 O 92.9321 1.94157 1.89777 0
M  V30 918 C 91.3881 3.59787 -0.0900024 0
M  V30 919 C 90.9961 4.23534 -1.46023 0
M  V30 920 C 92.7401 4.22895 0.368806 0
M  V30 921 C 90.6471 5.73881 -1.4288 0
M  V30 922 H 89.5771 0.753564 -0.0256388 0
M  V30 923 H 92.2281 1.677 -0.744905 0
M  V30 924 H 90.6101 3.90752 0.642586 0
M  V30 925 H 91.7841 4.04167 -2.21328 0
M  V30 926 H 90.0991 3.72558 -1.85982 0
M  V30 927 H 92.6961 5.33116 0.411258 0
M  V30 928 H 93.0391 3.9247 1.38827 0
M  V30 929 H 93.5721 3.9659 -0.31001 0
M  V30 930 H 90.3111 6.0898 -2.42536 0
M  V30 931 H 89.8311 5.95486 -0.718095 0
M  V30 932 H 91.5101 6.36776 -1.14565 0
M  V30 933 N 91.6422 0.330177 1.54103 0
M  V30 934 C 93.0532 -0.15652 1.86043 0
M  V30 935 C 93.4042 -1.51086 1.2517 0
M  V30 936 O 92.5292 -2.09023 0.560217 0
M  V30 937 C 93.1242 -0.290784 3.3755 0
M  V30 938 C 91.6832 -0.721705 3.69416 0
M  V30 939 C 90.8302 0.152622 2.7688 0
M  V30 940 H 93.7812 0.550237 1.48856 0
M  V30 941 H 93.8022 -1.12058 3.63625 0
M  V30 942 H 93.3142 0.695068 3.81825 0
M  V30 943 H 91.4152 -1.71706 3.30678 0
M  V30 944 H 91.5282 -0.520869 4.7626 0
M  V30 945 H 89.8922 -0.372894 2.51956 0
M  V30 946 H 90.6752 1.13536 3.23982 0
M  V30 947 N 93.1203 -1.57491 0.0584922 0
M  V30 948 C 94.5313 -1.80526 -0.476138 0
M  V30 949 C 94.8823 -0.971334 -1.70469 0
M  V30 950 O 94.0073 -0.190012 -2.15564 0
M  V30 951 C 94.6023 -3.27424 -0.870587 0
M  V30 952 C 93.1613 -3.51351 -1.35015 0
M  V30 953 C 92.3083 -2.75343 -0.32887 0
M  V30 954 H 95.2593 -1.56133 0.284312 0
M  V30 955 H 95.2803 -3.38745 -1.73299 0
M  V30 956 H 94.7923 -3.88093 0.0237627 0
M  V30 957 H 92.8933 -2.95971 -2.26345 0
M  V30 958 H 93.0063 -4.60059 -1.33726 0
M  V30 959 H 91.3703 -2.417 -0.803321 0
M  V30 960 H 92.1533 -3.38743 0.557521 0
M  V30 961 N 94.5984 0.214957 -1.56127 0
M  V30 962 C 96.0144 0.564948 -1.49267 0
M  V30 963 C 96.2144 1.86827 -0.754838 0
M  V30 964 O 95.2704 2.50745 -0.297198 0
M  V30 965 C 96.5834 0.638071 -2.93852 0
M  V30 966 C 98.1314 0.728253 -3.0441 0
M  V30 967 C 98.6064 0.832663 -4.50367 0
M  V30 968 N 100.097 0.896712 -4.54437 0
M  V30 969 C 100.832 0.997324 -5.6466 0
M  V30 970 N 100.328 1.06147 -6.8462 0
M  V30 971 N 102.121 1.03297 -5.52527 0
M  V30 972 H 94.2724 -0.640211 -2.02522 0
M  V30 973 H 96.5354 -0.225507 -0.920788 0
M  V30 974 H 96.2414 -0.250126 -3.50809 0
M  V30 975 H 96.1154 1.49947 -3.46115 0
M  V30 976 H 98.5024 1.60689 -2.47514 0
M  V30 977 H 98.5834 -0.158952 -2.55306 0
M  V30 978 H 98.2274 -0.0415417 -5.07883 0
M  V30 979 H 98.1574 1.73538 -4.97184 0
M  V30 980 H 100.648 0.857188 -3.6805 0
M  V30 981 H 100.961 1.1382 -7.64372 0
M  V30 982 H 99.3064 1.03049 -6.87318 0
M  V30 983 H 102.497 0.979558 -4.57736 0
M  V30 984 H 102.67 1.10793 -6.38458 0
M  V30 985 N 96.0765 1.50051 0.48192 0
M  V30 986 C 97.3235 1.60498 1.23477 0
M  V30 987 C 97.6515 0.300331 1.92167 0
M  V30 988 O 96.9065 -0.713094 1.82246 0
M  V30 989 C 97.2055 2.72717 2.30998 0
M  V30 990 C 96.8715 4.13572 1.79636 0
M  V30 991 C 95.5335 4.519 1.65348 0
M  V30 992 C 97.8855 5.01649 1.41412 0
M  V30 993 C 95.2135 5.76057 1.11244 0
M  V30 994 C 97.5655 6.26343 0.887538 0
M  V30 995 C 96.2295 6.63483 0.731207 0
M  V30 996 H 95.4995 0.587303 0.451836 0
M  V30 997 H 98.1465 1.83948 0.532468 0
M  V30 998 H 96.4515 2.43312 3.07094 0
M  V30 999 H 98.1485 2.78006 2.88988 0
M  V30 1000 H 94.7385 3.83329 1.91721 0
M  V30 1001 H 98.9225 4.72679 1.51289 0
M  V30 1002 H 94.1785 6.03516 0.978686 0
M  V30 1003 H 98.3525 6.93958 0.582654 0
M  V30 1004 H 95.9795 7.59568 0.309806 0
M  V30 1005 N 97.5546 -0.734337 1.39446 0
M  V30 1006 C 98.7796 -1.52866 1.40167 0
M  V30 1007 C 99.2046 -1.881 -0.00171513 0
M  V30 1008 O 98.5626 -1.51957 -0.988879 0
M  V30 1009 C 98.6106 -2.79235 2.28167 0
M  V30 1010 O 97.7146 -3.75185 1.71201 0
M  V30 1011 H 97.0556 -0.461618 0.477289 0
M  V30 1012 H 99.5856 -0.905949 1.8345 0
M  V30 1013 H 99.5956 -3.27963 2.42702 0
M  V30 1014 H 98.2706 -2.52923 3.30156 0
M  V30 1015 H 96.8476 -3.33958 1.65912 0
M  V30 1016 N 99.0327 -1.24633 -0.964593 0
M  V30 1017 C 100.281 -1.08573 -1.70459 0
M  V30 1018 C 100.602 0.375655 -1.91347 0
M  V30 1019 O 99.8717 1.26779 -1.49345 0
M  V30 1020 H 98.4517 -0.398784 -0.631649 0
M  V30 1021 H 101.114 -1.56601 -1.16026 0
M  V30 1022 H 100.21 -1.58623 -2.68785 0
M  V30 1023 N 100.511 1.16574 -1.06058 0
M  V30 1024 C 101.736 1.91493 -0.796562 0
M  V30 1025 C 102.161 1.76773 0.642868 0
M  V30 1026 O 101.519 1.09142 1.44768 0
M  V30 1027 C 101.567 3.40293 -1.19303 0
M  V30 1028 O 100.671 4.11074 -0.330394 0
M  V30 1029 H 100.012 0.596678 -0.291326 0
M  V30 1030 H 102.542 1.47708 -1.41575 0
M  V30 1031 H 102.552 3.91057 -1.16356 0
M  V30 1032 H 101.227 3.50326 -2.24153 0
M  V30 1033 H 99.8038 3.70513 -0.421225 0
M  V30 1034 N 101.989 0.842826 1.3317 0
M  V30 1035 C 103.237 0.439577 1.97262 0
M  V30 1036 C 103.558 -1.00548 1.67078 0
M  V30 1037 O 102.828 -1.70098 0.971779 0
M  V30 1038 H 101.408 0.159558 0.72976 0
M  V30 1039 H 104.07 1.07665 1.62463 0
M  V30 1040 H 103.166 0.574886 3.0676 0
M  V30 1041 N 103.467 -1.45747 0.599634 0
M  V30 1042 C 104.692 -2.07178 0.0960198 0
M  V30 1043 C 105.117 -1.44268 -1.207 0
M  V30 1044 O 104.475 -0.532503 -1.73303 0
M  V30 1045 C 104.523 -3.60579 -0.0385348 0
M  V30 1046 O 103.627 -3.97713 -1.0908 0
M  V30 1047 H 102.968 -0.660251 0.0704593 0
M  V30 1048 H 105.498 -1.87124 0.827385 0
M  V30 1049 H 105.508 -4.07298 -0.239304 0
M  V30 1050 H 104.183 -4.05756 0.912947 0
M  V30 1051 H 102.76 -3.62678 -0.867135 0
M  V30 1052 N 104.945 -0.338344 -1.53925 0
M  V30 1053 C 106.193 0.259245 -2.0043 0
M  V30 1054 C 106.514 1.51484 -1.22791 0
M  V30 1055 O 105.784 1.93037 -0.33368 0
M  V30 1056 H 104.364 0.0987845 -0.740439 0
M  V30 1057 H 107.026 -0.458302 -1.89435 0
M  V30 1058 H 106.122 0.505334 -3.07982 0
M  V30 1059 N 106.423 1.57458 -0.0668435 0
M  V30 1060 C 107.651 1.97624 0.612565 0
M  V30 1061 C 108.066 0.94502 1.63447 0
M  V30 1062 O 107.423 -0.0689276 1.8237 0
M  V30 1063 C 107.474 3.37869 1.28555 0
M  V30 1064 O 107.195 4.3704 0.304557 0
M  V30 1065 C 108.696 3.92882 2.05325 0
M  V30 1066 H 105.916 0.650045 0.166381 0
M  V30 1067 H 108.46 2.04035 -0.137782 0
M  V30 1068 H 106.615 3.3256 1.98702 0
M  V30 1069 H 107.029 5.18565 0.786779 0
M  V30 1070 H 108.503 4.93247 2.47812 0
M  V30 1071 H 108.98 3.29156 2.9078 0
M  V30 1072 H 109.586 4.01577 1.40056 0
M  V30 1073 N 107.901 -0.206675 1.56239 0
M  V30 1074 C 109.178 -0.954051 1.70755 0
M  V30 1075 C 109.558 -2.01841 0.618353 0
M  V30 1076 O 108.906 -2.25444 -0.372434 0
M  V30 1077 C 109.116 -1.551 3.12642 0
M  V30 1078 C 110.464 -2.03757 3.72516 0
M  V30 1079 O 111.488 -1.64965 3.15698 0
M  V30 1080 O 110.347 -2.75103 4.72208 0
M  V30 1081 H 107.441 -0.446636 0.696021 0
M  V30 1082 H 109.987 -0.197283 1.68549 0
M  V30 1083 H 108.759 -0.783212 3.83382 0
M  V30 1084 H 108.382 -2.37291 3.19028 0
M  V30 1085 N 109.379 -1.50304 -0.473955 0
M  V30 1086 C 110.626 -1.6115 -1.22625 0
M  V30 1087 C 110.954 -0.310517 -1.92005 0
M  V30 1088 O 110.209 0.703419 -1.82621 0
M  V30 1089 C 110.508 -2.73938 -2.29549 0
M  V30 1090 C 110.174 -4.14519 -1.7744 0
M  V30 1091 C 108.836 -4.5277 -1.62949 0
M  V30 1092 C 111.188 -5.02392 -1.3875 0
M  V30 1093 C 108.516 -5.76639 -1.08187 0
M  V30 1094 C 110.868 -6.26805 -0.854309 0
M  V30 1095 C 109.532 -6.63861 -0.696011 0
M  V30 1096 H 108.802 -0.589691 -0.448715 0
M  V30 1097 H 111.449 -1.84228 -0.522705 0
M  V30 1098 H 109.754 -2.44937 -3.05799 0
M  V30 1099 H 111.451 -2.79534 -2.87509 0
M  V30 1100 H 108.041 -3.8434 -1.89685 0
M  V30 1101 H 112.225 -4.73474 -1.4878 0
M  V30 1102 H 107.481 -6.04027 -0.946666 0
M  V30 1103 H 111.655 -6.94258 -0.545843 0
M  V30 1104 H 109.282 -7.59722 -0.26952 0
M  V30 1105 N 110.857 0.726932 -1.39834 0
M  V30 1106 C 112.085 1.51613 -1.40787 0
M  V30 1107 C 112.5 1.88799 -0.00451505 0
M  V30 1108 O 111.857 1.54662 0.968809 0
M  V30 1109 C 111.908 2.79863 -2.28821 0
M  V30 1110 O 111.629 2.44253 -3.63692 0
M  V30 1111 C 113.13 3.73837 -2.38245 0
M  V30 1112 H 110.35 0.468264 -0.480593 0
M  V30 1113 H 112.894 0.897607 -1.83748 0
M  V30 1114 H 111.049 3.38027 -1.89252 0
M  V30 1115 H 111.463 3.26695 -4.1033 0
M  V30 1116 H 112.937 4.60699 -3.04073 0
M  V30 1117 H 113.414 4.16153 -1.40403 0
M  V30 1118 H 114.02 3.21589 -2.78317 0
M  V30 1119 N 112.336 1.25143 0.95797 0
M  V30 1120 C 113.266 1.07711 2.07173 0
M  V30 1121 C 114.247 -0.0128462 1.70095 0
M  V30 1122 O 115.432 0.156061 1.93572 0
M  V30 1123 C 112.562 0.691503 3.40346 0
M  V30 1124 C 111.516 1.73132 3.9142 0
M  V30 1125 C 110.842 1.20049 5.21049 0
M  V30 1126 C 112.142 3.1294 4.1817 0
M  V30 1127 H 113.836 2.00873 2.22014 0
M  V30 1128 H 111.382 0.967191 1.06684 0
M  V30 1129 H 113.335 0.556505 4.17709 0
M  V30 1130 H 112.059 -0.275819 3.25433 0
M  V30 1131 H 110.718 1.8547 3.16222 0
M  V30 1132 H 110.366 0.223499 5.02503 0
M  V30 1133 H 110.066 1.89545 5.56189 0
M  V30 1134 H 111.59 1.07782 6.01012 0
M  V30 1135 H 113.004 3.03775 4.86203 0
M  V30 1136 H 111.401 3.79875 4.64559 0
M  V30 1137 H 112.471 3.6025 3.24573 0
M  V30 1138 N 113.814 -1.1601 1.06675 0
M  V30 1139 C 114.762 -2.22586 0.675157 0
M  V30 1140 C 115.756 -1.66525 -0.310766 0
M  V30 1141 O 116.962 -1.79145 -0.175215 0
M  V30 1142 H 113.337 -0.724855 0.200223 0
M  V30 1143 H 115.308 -2.52899 1.58381 0
M  V30 1144 C 114.057 -3.47604 0.0817162 0
M  V30 1145 H 113.38 -3.91058 0.831484 0
M  V30 1146 H 114.82 -4.23718 -0.154708 0
M  V30 1147 C 113.279 -3.15718 -1.17576 0
M  V30 1148 O 113.809 -3.31878 -2.26318 0
M  V30 1149 N 112.015 -2.69816 -1.07923 0
M  V30 1150 H 111.562 -2.56866 -0.194293 0
M  V30 1151 H 111.52 -2.48855 -1.92141 0
M  V30 1152 N 115.292 -0.849877 -1.32721 0
M  V30 1153 C 116.541 -0.447175 -1.96681 0
M  V30 1154 C 116.854 1.00135 -1.68025 0
M  V30 1155 O 118.06 1.50926 -2.25685 0
M  V30 1156 C 116.516 -0.7487 -3.52026 0
M  V30 1157 C 116.124 -2.21264 -3.89546 0
M  V30 1158 C 117.868 -0.413487 -4.22481 0
M  V30 1159 C 115.775 -2.45763 -5.37917 0
M  V30 1160 H 114.705 -0.163486 -0.736063 0
M  V30 1161 H 117.356 -1.03999 -1.51183 0
M  V30 1162 H 115.738 -0.0853727 -3.95908 0
M  V30 1163 H 116.912 -2.91736 -3.56689 0
M  V30 1164 H 115.227 -2.5119 -3.32103 0
M  V30 1165 H 117.824 -0.574017 -5.3161 0
M  V30 1166 H 118.167 0.644492 -4.11281 0
M  V30 1167 H 118.7 -1.03251 -3.84167 0
M  V30 1168 H 115.439 -3.50168 -5.54132 0
M  V30 1169 H 114.959 -1.79864 -5.72197 0
M  V30 1170 H 116.638 -2.29471 -6.0494 0
M  V30 1171 N 116.77 1.45427 -0.607355 0
M  V30 1172 C 117.72 2.27612 0.133038 0
M  V30 1173 C 118.704 1.37307 0.838785 0
M  V30 1174 O 119.896 1.61299 0.728813 0
M  V30 1175 C 117.025 3.24173 1.12991 0
M  V30 1176 C 116.111 4.21965 0.425011 0
M  V30 1177 N 116.502 5.02982 -0.533217 0
M  V30 1178 C 114.8 4.40899 0.672593 0
M  V30 1179 C 115.501 5.73931 -0.947518 0
M  V30 1180 N 114.477 5.42819 -0.291321 0
M  V30 1181 H 118.279 2.87649 -0.602935 0
M  V30 1182 H 115.793 1.56576 -0.431006 0
M  V30 1183 H 117.79 3.81783 1.67473 0
M  V30 1184 H 116.45 2.65696 1.86644 0
M  V30 1185 H 117.461 5.09843 -0.90995 0
M  V30 1186 H 114.138 3.93547 1.39382 0
M  V30 1187 H 115.528 6.49037 -1.73782 0
M  V30 1188 N 118.248 0.346503 1.53744 0
M  V30 1189 C 119.659 -0.136779 1.86198 0
M  V30 1190 C 120.01 -1.49749 1.26766 0
M  V30 1191 O 119.135 -2.08417 0.582355 0
M  V30 1192 C 119.73 -0.254966 3.37839 0
M  V30 1193 C 118.289 -0.682482 3.70161 0
M  V30 1194 C 117.436 0.181981 2.76702 0
M  V30 1195 H 120.387 0.565994 1.48264 0
M  V30 1196 H 120.408 -1.08195 3.64793 0
M  V30 1197 H 119.92 0.735526 3.81066 0
M  V30 1198 H 118.021 -1.68189 3.3248 0
M  V30 1199 H 118.134 -0.470326 4.76786 0
M  V30 1200 H 116.498 -0.34615 2.52337 0
M  V30 1201 H 117.281 1.16966 3.2276 0
M  V30 1202 N 119.726 -1.57421 0.075193 0
M  V30 1203 C 120.972 -1.93905 -0.594025 0
M  V30 1204 C 121.305 -0.955701 -1.69056 0
M  V30 1205 O 120.58 0.0145373 -1.94495 0
M  V30 1206 C 120.863 -3.40638 -1.1678 0
M  V30 1207 C 120.716 -4.49733 -0.0776792 0
M  V30 1208 C 122.035 -3.88259 -2.07228 0
M  V30 1209 H 119.154 -0.705105 -0.214466 0
M  V30 1210 H 121.796 -1.8947 0.141854 0
M  V30 1211 H 119.946 -3.44549 -1.79494 0
M  V30 1212 H 121.618 -4.57942 0.555573 0
M  V30 1213 H 119.861 -4.29751 0.591286 0
M  V30 1214 H 120.532 -5.49549 -0.519603 0
M  V30 1215 H 123.008 -3.86376 -1.54445 0
M  V30 1216 H 121.884 -4.91533 -2.44308 0
M  V30 1217 H 122.145 -3.26396 -2.98191 0
M  V30 1218 N 121.204 0.198386 -1.56346 0
M  V30 1219 C 122.114 1.2664 -1.97483 0
M  V30 1220 C 123.13 1.49989 -0.882002 0
M  V30 1221 O 124.306 1.62668 -1.18748 0
M  V30 1222 C 121.371 2.59141 -2.30319 0
M  V30 1223 C 120.432 2.43892 -3.53292 0
M  V30 1224 C 119.665 3.70074 -3.84553 0
M  V30 1225 O 119.888 4.74101 -3.1715 0
M  V30 1226 O 118.822 3.658 -4.7799 0
M  V30 1227 H 122.648 0.947304 -2.88548 0
M  V30 1228 H 120.233 0.403123 -1.43859 0
M  V30 1229 H 122.115 3.37352 -2.5253 0
M  V30 1230 H 120.79 2.90684 -1.42423 0
M  V30 1231 H 119.697 1.63803 -3.36332 0
M  V30 1232 H 121.03 2.17282 -4.41644 0
M  V30 1233 N 122.682 1.50554 0.465978 0
M  V30 1234 C 123.629 1.6979 1.56333 0
M  V30 1235 C 124.599 0.539239 1.57103 0
M  V30 1236 O 125.784 0.770401 1.74555 0
M  V30 1237 C 122.924 1.80273 2.94271 0
M  V30 1238 C 122.037 3.07674 3.0325 0
M  V30 1239 C 121.172 3.08922 4.32135 0
M  V30 1240 C 120.211 4.30755 4.34875 0
M  V30 1241 N 119.348 4.29714 5.55239 0
M  V30 1242 H 124.188 2.63472 1.39235 0
M  V30 1243 H 121.725 1.30602 0.676873 0
M  V30 1244 H 123.683 1.84332 3.74269 0
M  V30 1245 H 122.313 0.900258 3.09992 0
M  V30 1246 H 121.365 3.13062 2.16094 0
M  V30 1247 H 122.677 3.97642 3.01135 0
M  V30 1248 H 121.831 3.11738 5.20485 0
M  V30 1249 H 120.57 2.16792 4.36866 0
M  V30 1250 H 119.575 4.28146 3.44922 0
M  V30 1251 H 120.8 5.24117 4.31831 0
M  V30 1252 H 118.746 3.4044 5.60746 0
M  V30 1253 H 118.663 5.13456 5.54886 0
M  V30 1254 H 119.931 4.36683 6.457 0
M  V30 1255 N 124.16 -0.719506 1.40217 0
M  V30 1256 C 125.406 -1.48152 1.38488 0
M  V30 1257 C 125.739 -1.94195 -0.0141867 0
M  V30 1258 O 125.014 -1.67884 -0.982096 0
M  V30 1259 C 125.297 -2.71035 2.37091 0
M  V30 1260 C 125.15 -2.30912 3.86005 0
M  V30 1261 C 126.469 -3.73182 2.33288 0
M  V30 1262 H 123.588 -0.537395 0.504357 0
M  V30 1263 H 126.23 -0.821472 1.71324 0
M  V30 1264 H 124.38 -3.27352 2.0922 0
M  V30 1265 H 126.052 -1.80107 4.24687 0
M  V30 1266 H 124.295 -1.62958 4.02029 0
M  V30 1267 H 124.966 -3.18978 4.50508 0
M  V30 1268 H 127.442 -3.26485 2.57966 0
M  V30 1269 H 126.318 -4.56806 3.04334 0
M  V30 1270 H 126.579 -4.21202 1.34317 0
M  V30 1271 N 125.638 -1.25649 -0.95132 0
M  V30 1272 C 126.915 -1.01361 -1.67288 0
M  V30 1273 C 127.295 0.459135 -2.06046 0
M  V30 1274 O 126.643 1.43723 -1.7764 0
M  V30 1275 C 126.853 -1.95256 -2.89268 0
M  V30 1276 C 128.201 -2.23289 -3.61147 0
M  V30 1277 O 129.225 -1.93041 -2.99355 0
M  V30 1278 O 128.084 -2.74741 -4.72419 0
M  V30 1279 H 125.178 -0.38464 -0.732107 0
M  V30 1280 H 127.724 -1.36817 -1.00395 0
M  V30 1281 H 126.496 -2.94685 -2.57442 0
M  V30 1282 H 126.119 -1.60218 -3.6389 0
M  V30 1283 N 127.117 1.15442 -1.07289 0
M  V30 1284 C 128.08 2.18358 -0.696591 0
M  V30 1285 C 129.08 1.58637 0.262837 0
M  V30 1286 O 130.27 1.74145 0.0438809 0
M  V30 1287 C 127.402 3.4089 -0.0266151 0
M  V30 1288 H 128.595 2.53162 -1.60776 0
M  V30 1289 H 126.148 1.29893 -0.869342 0
M  V30 1290 H 126.883 3.11653 0.896822 0
M  V30 1291 H 126.668 3.85495 -0.716657 0
M  V30 1292 H 128.158 4.17009 0.222028 0
M  V30 1293 N 128.595 0.856903 1.32268 0
M  V30 1294 C 129.558 0.308171 2.27119 0
M  V30 1295 C 130.558 -0.533421 1.51695 0
M  V30 1296 O 131.748 -0.344607 1.70757 0
M  V30 1297 C 128.88 -0.563757 3.36206 0
M  V30 1298 H 130.073 1.14535 2.77167 0
M  V30 1299 H 127.626 0.631421 1.42978 0
M  V30 1300 H 128.361 -1.42266 2.91429 0
M  V30 1301 H 128.146 0.0386749 3.92081 0
M  V30 1302 H 129.636 -0.940386 4.06874 0
M  V30 1303 N 130.073 -1.45103 0.615059 0
M  V30 1304 C 131.301 -2.06553 0.11977 0
M  V30 1305 C 131.716 -1.45842 -1.19898 0
M  V30 1306 O 131.073 -0.575325 -1.73194 0
M  V30 1307 C 131.124 -3.61495 -0.018364 0
M  V30 1308 O 130.845 -4.19942 1.24822 0
M  V30 1309 C 132.346 -4.39947 -0.544237 0
M  V30 1310 H 129.566 -0.667096 0.0722739 0
M  V30 1311 H 132.11 -1.8623 0.84491 0
M  V30 1312 H 130.265 -3.81135 -0.693865 0
M  V30 1313 H 130.679 -5.13204 1.0827 0
M  V30 1314 H 132.153 -5.48838 -0.589953 0
M  V30 1315 H 132.63 -4.10255 -1.56805 0
M  V30 1316 H 133.236 -4.25188 0.0974703 0
M  V30 1317 N 131.551 -0.354651 -1.53558 0
M  V30 1318 C 132.781 0.239167 -2.05211 0
M  V30 1319 C 133.189 1.43879 -1.22863 0
M  V30 1320 O 132.532 1.81857 -0.259565 0
M  V30 1321 C 132.594 0.707251 -3.52474 0
M  V30 1322 C 132.258 -0.374212 -4.55465 0
M  V30 1323 C 133.255 -1.22054 -5.0537 0
M  V30 1324 C 130.94 -0.531323 -4.99482 0
M  V30 1325 C 132.934 -2.20942 -5.97882 0
M  V30 1326 C 130.621 -1.52358 -5.91802 0
M  V30 1327 C 131.619 -2.36108 -6.40892 0
M  V30 1328 O 131.307 -3.33643 -7.31394 0
M  V30 1329 H 131.039 0.0479716 -0.674296 0
M  V30 1330 H 133.593 -0.508121 -1.99016 0
M  V30 1331 H 131.823 1.50596 -3.56171 0
M  V30 1332 H 133.512 1.22285 -3.87042 0
M  V30 1333 H 134.278 -1.1103 -4.7212 0
M  V30 1334 H 130.157 0.110738 -4.60867 0
M  V30 1335 H 133.701 -2.86348 -6.36121 0
M  V30 1336 H 129.598 -1.63434 -6.24467 0
M  V30 1337 H 130.366 -3.29244 -7.4936 0
M  V30 1338 N 133.029 1.57378 -0.0835403 0
M  V30 1339 C 133.979 2.09916 0.889905 0
M  V30 1340 C 134.963 1.01151 1.25129 0
M  V30 1341 O 136.155 1.27443 1.2283 0
M  V30 1342 C 133.284 2.67379 2.15322 0
M  V30 1343 C 132.37 3.83167 1.81779 0
M  V30 1344 N 132.761 4.91665 1.18739 0
M  V30 1345 C 131.059 3.92685 2.11459 0
M  V30 1346 C 131.76 5.72409 1.0355 0
M  V30 1347 N 130.736 5.21062 1.54906 0
M  V30 1348 H 134.538 2.91188 0.398378 0
M  V30 1349 H 132.052 1.61956 0.120013 0
M  V30 1350 H 134.049 3.0334 2.8599 0
M  V30 1351 H 132.709 1.87558 2.65051 0
M  V30 1352 H 133.72 5.10784 0.855604 0
M  V30 1353 H 130.397 3.23856 2.63483 0
M  V30 1354 H 131.787 6.69699 0.543425 0
M  V30 1355 N 134.507 -0.190092 1.56449 0
M  V30 1356 C 135.747 -0.916414 1.82705 0
M  V30 1357 C 136.111 -1.80235 0.661763 0
M  V30 1358 O 137.312 -2.56484 0.80433 0
M  V30 1359 C 135.583 -1.70691 3.14005 0
M  V30 1360 S 137.142 -2.48457 3.61683 0
M  V30 1361 H 133.96 -0.307281 0.64117 0
M  V30 1362 H 136.562 -0.179433 1.94675 0
M  V30 1363 H 135.266 -1.04677 3.96826 0
M  V30 1364 H 134.797 -2.48562 3.04927 0
M  V30 1365 H 136.812 -3.72756 3.27517 0
M  V30 1366 N 135.985 -1.50799 -0.457987 0
M  V30 1367 C 136.917 -1.66786 -1.57211 0
M  V30 1368 C 137.93 -0.548962 -1.53265 0
M  V30 1369 O 139.119 -0.8226 -1.58416 0
M  V30 1370 C 136.219 -1.64834 -2.96113 0
M  V30 1371 C 135.392 -2.92971 -3.24787 0
M  V30 1372 C 134.451 -2.83485 -4.43309 0
M  V30 1373 O 133.477 -3.5744 -4.42973 0
M  V30 1374 N 134.679 -1.97929 -5.45714 0
M  V30 1375 H 137.444 -2.62889 -1.43909 0
M  V30 1376 H 135.005 -1.48427 -0.646617 0
M  V30 1377 H 136.997 -1.56084 -3.7339 0
M  V30 1378 H 135.567 -0.764118 -3.03117 0
M  V30 1379 H 134.787 -3.15749 -2.36 0
M  V30 1380 H 136.075 -3.77834 -3.40762 0
M  V30 1381 H 135.473 -1.37182 -5.48815 0
M  V30 1382 H 134.03 -1.95073 -6.21924 0
M  V30 1383 N 137.463 0.71206 -1.40597 0
M  V30 1384 C 138.395 1.83704 -1.37061 0
M  V30 1385 C 139.408 1.60453 -0.275426 0
M  V30 1386 O 140.597 1.70262 -0.53602 0
M  V30 1387 C 137.697 3.20172 -1.11099 0
M  V30 1388 C 136.87 3.7059 -2.3234 0
M  V30 1389 C 135.929 4.85681 -2.02485 0
M  V30 1390 O 134.955 4.9815 -2.75382 0
M  V30 1391 N 136.157 5.71735 -1.00497 0
M  V30 1392 H 138.922 1.87235 -2.34016 0
M  V30 1393 H 136.483 0.893739 -1.34996 0
M  V30 1394 H 138.475 3.94768 -0.891064 0
M  V30 1395 H 137.045 3.11767 -0.227989 0
M  V30 1396 H 136.265 2.87085 -2.7014 0
M  V30 1397 H 137.553 4.01011 -3.13157 0
M  V30 1398 H 136.951 5.64275 -0.401298 0
M  V30 1399 H 135.508 6.463 -0.844942 0
M  V30 1400 N 138.941 1.26152 0.944643 0
M  V30 1401 C 140.166 1.14363 1.7302 0
M  V30 1402 C 140.591 -0.29772 1.85729 0
M  V30 1403 O 139.949 -1.2157 1.34501 0
M  V30 1404 C 139.997 1.81378 3.11664 0
M  V30 1405 O 139.101 1.10022 3.97453 0
M  V30 1406 H 138.442 0.398694 0.53098 0
M  V30 1407 H 140.972 1.66906 1.18337 0
M  V30 1408 H 140.982 1.88064 3.62072 0
M  V30 1409 H 139.657 2.86237 3.0173 0
M  V30 1410 H 138.234 1.11287 3.55907 0
M  V30 1411 N 140.419 -1.14872 1.07899 0
M  V30 1412 C 141.647 -1.89661 0.82683 0
M  V30 1413 C 142.062 -1.78312 -0.620519 0
M  V30 1414 O 141.419 -1.13888 -1.42604 0
M  V30 1415 C 141.47 -3.39817 1.23316 0
M  V30 1416 O 141.191 -3.50845 2.62372 0
M  V30 1417 C 142.692 -4.31615 1.0111 0
M  V30 1418 H 139.912 -0.60092 0.298557 0
M  V30 1419 H 142.456 -1.4551 1.43691 0
M  V30 1420 H 140.611 -3.8161 0.667286 0
M  V30 1421 H 141.025 -4.44076 2.79101 0
M  V30 1422 H 142.499 -5.35367 1.34486 0
M  V30 1423 H 142.976 -4.39169 -0.0522168 0
M  V30 1424 H 143.582 -3.95572 1.56215 0
M  V30 1425 N 141.898 -0.863906 -1.31812 0
M  V30 1426 C 142.808 -0.318461 -2.32428 0
M  V30 1427 C 143.824 0.568496 -1.64451 0
M  V30 1428 O 145 0.46666 -1.95919 0
M  V30 1429 C 142.065 0.476355 -3.43412 0
M  V30 1430 C 141.126 -0.43784 -4.27061 0
M  V30 1431 C 140.359 0.319138 -5.32745 0
M  V30 1432 O 140.582 1.54799 -5.48993 0
M  V30 1433 O 139.516 -0.319861 -6.01049 0
M  V30 1434 H 143.342 -1.15229 -2.80991 0
M  V30 1435 H 140.927 -0.627103 -1.35602 0
M  V30 1436 H 142.809 0.927156 -4.11074 0
M  V30 1437 H 141.484 1.28683 -2.97022 0
M  V30 1438 H 140.391 -0.937013 -3.62175 0
M  V30 1439 H 141.724 -1.21375 -4.77 0
M  V30 1440 N 143.376 1.44774 -0.622745 0
M  V30 1441 C 144.653 1.95522 -0.0551974 0
M  V30 1442 C 145.033 1.5649 1.41683 0
M  V30 1443 O 144.381 0.834848 2.12703 0
M  V30 1444 C 144.591 3.4796 -0.269242 0
M  V30 1445 C 145.939 4.24306 -0.158014 0
M  V30 1446 O 146.963 3.55637 -0.200162 0
M  V30 1447 O 145.822 5.46471 -0.0558693 0
M  V30 1448 H 142.916 0.826556 0.0271015 0
M  V30 1449 H 145.462 1.54866 -0.693864 0
M  V30 1450 H 144.234 3.6939 -1.29099 0
M  V30 1451 H 143.857 3.95543 0.403966 0
M  V30 1452 N 144.854 0.36279 1.53368 0
M  V30 1453 C 146.265 -0.117022 1.86333 0
M  V30 1454 C 146.616 -1.48397 1.28347 0
M  V30 1455 O 145.741 -2.07787 0.604428 0
M  V30 1456 C 146.336 -0.21912 3.38091 0
M  V30 1457 C 144.895 -0.643184 3.70864 0
M  V30 1458 C 144.042 0.211318 2.76494 0
M  V30 1459 H 146.993 0.581687 1.47655 0
M  V30 1460 H 147.014 -1.04319 3.6592 0
M  V30 1461 H 146.526 0.775902 3.80265 0
M  V30 1462 H 144.627 -1.64654 3.34245 0
M  V30 1463 H 144.74 -0.41973 4.77258 0
M  V30 1464 H 143.104 -0.319367 2.5269 0
M  V30 1465 H 143.887 1.20383 3.21501 0
M  V30 1466 N 146.332 -1.57332 0.0918853 0
M  V30 1467 C 147.578 -1.95328 -0.567313 0
M  V30 1468 C 147.933 -0.972866 -1.65991 0
M  V30 1469 O 147.226 0.00166256 -1.916 0
M  V30 1470 C 147.42 -3.37689 -1.17051 0
M  V30 1471 C 147.249 -4.49489 -0.137875 0
M  V30 1472 C 146.019 -5.04498 0.284515 0
M  V30 1473 C 148.217 -5.10393 0.63271 0
M  V30 1474 N 146.199 -5.99853 1.30576 0
M  V30 1475 C 147.57 -6.01435 1.50587 0
M  V30 1476 C 149.625 -4.93143 0.68658 0
M  V30 1477 C 148.328 -6.77077 2.42815 0
M  V30 1478 C 150.354 -5.69445 1.59645 0
M  V30 1479 C 149.716 -6.60151 2.45725 0
M  V30 1480 H 145.815 -0.761467 -0.178023 0
M  V30 1481 H 148.399 -1.93924 0.173706 0
M  V30 1482 H 146.57 -3.39793 -1.88136 0
M  V30 1483 H 148.302 -3.62872 -1.79181 0
M  V30 1484 H 145.057 -4.73489 -0.102593 0
M  V30 1485 H 145.481 -6.52231 1.81449 0
M  V30 1486 H 150.123 -4.22785 0.035244 0
M  V30 1487 H 147.841 -7.46699 3.08975 0
M  V30 1488 H 151.427 -5.58112 1.64323 0
M  V30 1489 H 150.307 -7.18159 3.14987 0
M  V30 1490 N 147.81 0.181792 -1.56548 0
M  V30 1491 C 149.038 0.915947 -1.85521 0
M  V30 1492 C 149.453 1.76282 -0.676016 0
M  V30 1493 O 148.81 1.79012 0.355077 0
M  V30 1494 C 148.861 1.80126 -3.13427 0
M  V30 1495 O 148.582 0.988562 -4.26801 0
M  V30 1496 C 150.083 2.64597 -3.55673 0
M  V30 1497 H 147.303 0.26661 -0.61576 0
M  V30 1498 H 149.847 0.185039 -2.03661 0
M  V30 1499 H 148.002 2.48563 -2.97145 0
M  V30 1500 H 148.416 1.59308 -4.99721 0
M  V30 1501 H 149.89 3.2235 -4.48101 0
M  V30 1502 H 150.367 3.38958 -2.79292 0
M  V30 1503 H 150.973 2.0151 -3.74532 0
M  V30 1504 N 149.288 1.51039 0.449983 0
M  V30 1505 C 150.535 1.63081 1.20045 0
M  V30 1506 C 150.863 0.341024 1.91487 0
M  V30 1507 O 150.118 -0.674276 1.83717 0
M  V30 1508 C 150.417 2.77556 2.25161 0
M  V30 1509 C 150.083 4.17289 1.70823 0
M  V30 1510 C 148.745 4.55305 1.55725 0
M  V30 1511 C 151.097 5.04536 1.3074 0
M  V30 1512 C 148.425 5.78287 0.989999 0
M  V30 1513 C 150.777 6.28085 0.754482 0
M  V30 1514 C 149.441 6.64885 0.590308 0
M  V30 1515 H 148.711 0.596755 0.439277 0
M  V30 1516 H 151.358 1.85037 0.49333 0
M  V30 1517 H 149.663 2.49771 3.01863 0
M  V30 1518 H 151.36 2.84073 2.83026 0
M  V30 1519 H 147.95 3.8731 1.83546 0
M  V30 1520 H 152.134 4.75782 1.41229 0
M  V30 1521 H 147.39 6.05456 0.850451 0
M  V30 1522 H 151.564 6.95038 0.435324 0
M  V30 1523 H 149.191 7.60055 0.14862 0
M  V30 1524 N 150.766 -0.704594 1.40972 0
M  V30 1525 C 152.014 -1.46169 1.39568 0
M  V30 1526 C 152.335 -1.95 0.00253745 0
M  V30 1527 O 151.605 -1.71095 -0.954114 0
M  V30 1528 H 150.185 -0.542326 0.513704 0
M  V30 1529 H 152.847 -0.834553 1.76128 0
M  V30 1530 H 151.943 -2.32922 2.07735 0
M  V30 1531 N 152.244 -1.26651 -0.937939 0
M  V30 1532 C 153.492 -1.12165 -1.68118 0
M  V30 1533 C 153.813 0.334983 -1.92101 0
M  V30 1534 O 153.083 1.23583 -1.52 0
M  V30 1535 H 151.663 -0.412093 -0.623048 0
M  V30 1536 H 154.325 -1.59027 -1.12678 0
M  V30 1537 H 153.421 -1.64289 -2.6536 0
M  V30 1538 N 153.722 1.14298 -1.08507 0
M  V30 1539 C 154.97 1.84993 -0.813763 0
M  V30 1540 C 155.291 1.83405 0.662393 0
M  V30 1541 O 154.561 1.28319 1.48024 0
M  V30 1542 H 153.141 0.684966 -0.298045 0
M  V30 1543 H 155.803 1.385 -1.37126 0
M  V30 1544 H 154.899 2.89788 -1.15884 0
M  V30 1545 N 155.201 0.870884 1.31352 0
M  V30 1546 C 156.429 0.49677 2.00848 0
M  V30 1547 C 156.844 -0.910998 1.65367 0
M  V30 1548 O 156.201 -1.59696 0.883374 0
M  V30 1549 C 156.252 0.645308 3.55694 0
M  V30 1550 O 155.973 1.99764 3.89905 0
M  V30 1551 C 157.474 0.272326 4.42463 0
M  V30 1552 H 154.694 0.193462 0.642506 0
M  V30 1553 H 157.238 1.1723 1.67563 0
M  V30 1554 H 155.393 0.0173176 3.87396 0
M  V30 1555 H 155.807 2.00607 4.84621 0
M  V30 1556 H 157.281 0.427208 5.50344 0
M  V30 1557 H 157.758 -0.788587 4.32062 0
M  V30 1558 H 158.364 0.876054 4.1618 0
M  V30 1559 N 156.679 -1.44442 0.630414 0
M  V30 1560 C 157.626 -2.30678 -0.0749355 0
M  V30 1561 C 158.596 -1.4344 -0.837502 0
M  V30 1562 O 159.781 -1.72343 -0.818684 0
M  V30 1563 C 156.921 -3.28706 -1.05103 0
M  V30 1564 C 156.034 -4.31046 -0.286954 0
M  V30 1565 C 155.169 -5.16167 -1.2548 0
M  V30 1566 C 154.208 -6.10216 -0.479843 0
M  V30 1567 N 153.345 -6.88039 -1.39811 0
M  V30 1568 H 158.185 -2.90454 0.666386 0
M  V30 1569 H 155.722 -1.43107 0.340404 0
M  V30 1570 H 157.68 -3.84027 -1.63031 0
M  V30 1571 H 156.31 -2.70632 -1.75949 0
M  V30 1572 H 155.362 -3.78203 0.408243 0
M  V30 1573 H 156.674 -4.97794 0.316657 0
M  V30 1574 H 155.828 -5.76002 -1.90544 0
M  V30 1575 H 154.567 -4.49491 -1.89233 0
M  V30 1576 H 153.572 -5.49491 0.184295 0
M  V30 1577 H 154.797 -6.78928 0.152965 0
M  V30 1578 H 152.743 -6.24032 -2.02287 0
M  V30 1579 H 152.66 -7.51223 -0.848508 0
M  V30 1580 H 153.928 -7.52397 -2.03762 0
M  V30 1581 N 158.157 -0.370918 -1.53173 0
M  V30 1582 C 159.087 0.464847 -2.28826 0
M  V30 1583 C 160.068 1.07936 -1.31468 0
M  V30 1584 O 161.253 1.0956 -1.60344 0
M  V30 1585 C 158.383 1.60196 -3.08147 0
M  V30 1586 C 157.337 1.11443 -4.13237 0
M  V30 1587 C 156.663 2.3422 -4.80672 0
M  V30 1588 C 157.963 0.195384 -5.21934 0
M  V30 1589 H 159.657 -0.166329 -2.98938 0
M  V30 1590 H 157.203 -0.0814359 -1.4377 0
M  V30 1591 H 159.156 2.19332 -3.59822 0
M  V30 1592 H 157.88 2.26045 -2.35735 0
M  V30 1593 H 156.539 0.545727 -3.62515 0
M  V30 1594 H 156.187 2.98537 -4.04827 0
M  V30 1595 H 155.887 2.02269 -5.51689 0
M  V30 1596 H 157.411 2.94032 -5.35143 0
M  V30 1597 H 158.825 0.694375 -5.69079 0
M  V30 1598 H 157.222 -0.0335027 -6.00091 0
M  V30 1599 H 158.292 -0.760961 -4.78892 0
M  V30 1600 N 159.635 1.57281 -0.100228 0
M  V30 1601 C 160.545 2.17833 0.870965 0
M  V30 1602 C 161.561 1.14921 1.30649 0
M  V30 1603 O 162.737 1.47313 1.37335 0
M  V30 1604 C 159.802 2.75085 2.1102 0
M  V30 1605 C 158.863 3.9297 1.72838 0
M  V30 1606 C 158.096 4.47482 2.90854 0
M  V30 1607 O 158.319 4.00922 4.05731 0
M  V30 1608 O 157.253 5.38433 2.69023 0
M  V30 1609 H 161.079 3.0124 0.38575 0
M  V30 1610 H 158.664 1.48881 0.124397 0
M  V30 1611 H 160.546 3.11656 2.83634 0
M  V30 1612 H 159.221 1.94721 2.58584 0
M  V30 1613 H 158.128 3.61201 0.973883 0
M  V30 1614 H 159.461 4.74713 1.30033 0
M  V30 1615 N 161.113 -0.173488 1.56642 0
M  V30 1616 C 162.362 -0.888758 1.81063 0
M  V30 1617 C 162.675 -1.83506 0.67712 0
M  V30 1618 O 163.881 -2.59254 0.806206 0
M  V30 1619 C 162.337 -1.63091 3.20826 0
M  V30 1620 C 161.945 -0.728357 4.4204 0
M  V30 1621 C 163.689 -2.33454 3.54541 0
M  V30 1622 C 161.596 -1.47062 5.72823 0
M  V30 1623 H 160.526 -0.335618 0.675186 0
M  V30 1624 H 163.177 -0.141712 1.82952 0
M  V30 1625 H 161.559 -2.42263 3.13248 0
M  V30 1626 H 162.733 0.0262449 4.60793 0
M  V30 1627 H 161.048 -0.134492 4.16183 0
M  V30 1628 H 163.645 -2.89578 4.49498 0
M  V30 1629 H 163.988 -3.08687 2.79317 0
M  V30 1630 H 164.521 -1.61227 3.63663 0
M  V30 1631 H 161.26 -0.760658 6.51072 0
M  V30 1632 H 160.78 -2.1986 5.58052 0
M  V30 1633 H 162.459 -2.01868 6.14702 0
M  V30 1634 N 162.591 -1.51276 -0.441967 0
M  V30 1635 C 163.538 -1.72256 -1.53612 0
M  V30 1636 C 164.508 -0.564164 -1.56225 0
M  V30 1637 O 165.693 -0.798074 -1.73307 0
M  V30 1638 C 162.833 -1.84932 -2.91366 0
M  V30 1639 C 161.946 -3.12459 -2.98317 0
M  V30 1640 C 161.081 -3.15758 -4.27166 0
M  V30 1641 C 160.12 -4.37619 -4.27967 0
M  V30 1642 N 159.257 -4.38493 -5.48333 0
M  V30 1643 H 164.097 -2.65654 -1.35026 0
M  V30 1644 H 161.634 -1.31662 -0.656009 0
M  V30 1645 H 163.592 -1.90263 -3.7129 0
M  V30 1646 H 162.222 -0.949461 -3.08521 0
M  V30 1647 H 161.274 -3.1646 -2.11086 0
M  V30 1648 H 162.586 -4.02382 -2.94771 0
M  V30 1649 H 161.74 -3.19979 -5.15459 0
M  V30 1650 H 160.479 -2.23715 -4.33362 0
M  V30 1651 H 159.484 -4.33579 -3.38067 0
M  V30 1652 H 160.709 -5.30921 -4.23438 0
M  V30 1653 H 158.655 -3.49318 -5.55259 0
M  V30 1654 H 158.572 -5.22219 -5.46647 0
M  V30 1655 H 159.84 -4.469 -6.38671 0
M  V30 1656 N 164.069 0.697108 -1.41344 0
M  V30 1657 C 165.317 1.45426 -1.40341 0
M  V30 1658 C 165.638 1.94996 -0.0128787 0
M  V30 1659 O 164.908 1.71599 0.945027 0
M  V30 1660 H 163.488 0.539594 -0.516573 0
M  V30 1661 H 166.15 0.825201 -1.76569 0
M  V30 1662 H 165.246 2.31817 -2.08967 0
M  V30 1663 N 165.547 1.27147 0.931209 0
M  V30 1664 C 166.795 1.13055 1.6752 0
M  V30 1665 C 167.116 -0.324791 1.92276 0
M  V30 1666 O 166.386 -1.22775 1.52654 0
M  V30 1667 H 164.966 0.415391 0.620854 0
M  V30 1668 H 167.628 1.59623 1.11833 0
M  V30 1669 H 166.724 1.65694 2.64485 0
M  V30 1670 N 167.025 -1.13721 1.09112 0
M  V30 1671 C 168.273 -1.84559 0.823562 0
M  V30 1672 C 168.594 -1.83754 -0.652658 0
M  V30 1673 O 167.864 -1.29102 -1.47342 0
M  V30 1674 H 166.444 -0.683376 0.301673 0
M  V30 1675 H 169.106 -1.37771 1.37859 0
M  V30 1676 H 168.202 -2.8917 1.17419 0
M  V30 1677 N 168.503 -0.877838 -1.30888 0
M  V30 1678 C 169.751 -0.491723 -1.96027 0
M  V30 1679 C 170.072 0.960827 -1.69685 0
M  V30 1680 O 169.342 1.67462 -1.01654 0
M  V30 1681 H 167.922 -0.17885 -0.725273 0
M  V30 1682 H 170.584 -1.11935 -1.59551 0
M  V30 1683 H 169.68 -0.656016 -3.05128 0
M  V30 1684 N 169.982 1.44106 -0.638065 0
M  V30 1685 C 171.207 2.0685 -0.150916 0
M  V30 1686 C 171.632 1.47417 1.16833 0
M  V30 1687 O 170.99 0.578264 1.71831 0
M  V30 1688 C 171.038 3.60555 -0.05708 0
M  V30 1689 O 170.142 4.00465 0.984972 0
M  V30 1690 H 169.483 0.658151 -0.0879399 0
M  V30 1691 H 172.013 1.84865 -0.876707 0
M  V30 1692 H 172.023 4.07789 0.131232 0
M  V30 1693 H 170.698 4.03193 -1.02021 0
M  V30 1694 H 169.275 3.64849 0.770672 0
M  V30 1695 N 171.46 0.379036 1.52974 0
M  V30 1696 C 172.708 -0.206014 2.01047 0
M  V30 1697 C 173.029 -1.48175 1.26765 0
M  V30 1698 O 172.299 -1.92085 0.384743 0
M  V30 1699 H 170.879 -0.0791184 0.742798 0
M  V30 1700 H 173.541 0.508366 1.88153 0
M  V30 1701 H 172.637 -0.423501 3.09213 0
M  V30 1702 N 172.938 -1.57226 0.108567 0
M  V30 1703 C 174.186 -1.94448 -0.550853 0
M  V30 1704 C 174.507 -0.992074 -1.67878 0
M  V30 1705 O 173.777 -0.0465 -1.95845 0
M  V30 1706 H 172.357 -0.717897 -0.206479 0
M  V30 1707 H 175.019 -1.94112 0.175062 0
M  V30 1708 H 174.115 -2.97218 -0.952259 0
M  V30 1709 N 174.416 0.165178 -1.56732 0
M  V30 1710 C 175.664 0.879068 -1.8198 0
M  V30 1711 C 175.985 1.82514 -0.686561 0
M  V30 1712 O 175.255 1.93694 0.293146 0
M  V30 1713 H 173.835 0.327608 -0.671329 0
M  V30 1714 H 176.497 0.163526 -1.94213 0
M  V30 1715 H 175.593 1.45228 -2.76252 0
M  V30 1716 N 175.894 1.51508 0.433938 0
M  V30 1717 C 177.142 1.6402 1.18075 0
M  V30 1718 C 177.463 0.360328 1.91642 0
M  V30 1719 O 176.733 -0.623945 1.85698 0
M  V30 1720 H 175.313 0.6045 0.43885 0
M  V30 1721 H 177.975 1.88452 0.497178 0
M  V30 1722 H 177.071 2.46949 1.90847 0
M  V30 1723 N 177.372 -0.689602 1.41712 0
M  V30 1724 C 178.597 -1.48329 1.44959 0
M  V30 1725 C 179.022 -1.8801 0.0581283 0
M  V30 1726 O 178.38 -1.55026 -0.940035 0
M  V30 1727 C 178.428 -2.71835 2.36935 0
M  V30 1728 O 177.532 -3.69549 1.8305 0
M  V30 1729 H 176.873 -0.446199 0.491734 0
M  V30 1730 H 179.403 -0.847127 1.86239 0
M  V30 1731 H 179.413 -3.20076 2.53013 0
M  V30 1732 H 178.088 -2.42291 3.38035 0
M  V30 1733 H 176.665 -3.2851 1.76452 0
M  V30 1734 N 178.85 -1.27639 -0.924453 0
M  V30 1735 C 180.098 -1.13941 -1.66918 0
M  V30 1736 C 180.419 0.314589 -1.92446 0
M  V30 1737 O 179.689 1.21964 -1.53303 0
M  V30 1738 H 178.269 -0.418678 -0.618642 0
M  V30 1739 H 180.931 -1.60213 -1.10985 0
M  V30 1740 H 180.027 -1.67094 -2.63602 0
M  V30 1741 N 180.328 1.1314 -1.09713 0
M  V30 1742 C 181.576 1.84119 -0.833338 0
M  V30 1743 C 181.897 1.84097 0.642904 0
M  V30 1744 O 181.167 1.29881 1.46655 0
M  V30 1745 H 179.747 0.681766 -0.305293 0
M  V30 1746 H 182.409 1.37038 -1.38588 0
M  V30 1747 H 181.505 2.88543 -1.18951 0
M  V30 1748 N 181.806 0.884767 1.30421 0
M  V30 1749 C 183.054 0.502112 1.95763 0
M  V30 1750 C 183.375 -0.951815 1.70192 0
M  V30 1751 O 182.645 -1.6692 1.0254 0
M  V30 1752 H 181.225 0.182694 0.724315 0
M  V30 1753 H 183.887 1.1278 1.58955 0
M  V30 1754 H 182.983 0.672188 3.04775 0
M  V30 1755 N 183.284 -1.43765 0.645699 0
M  V30 1756 C 184.532 -2.01499 0.155731 0
M  V30 1757 C 184.853 -1.51151 -1.232 0
M  V30 1758 O 184.123 -0.721044 -1.82148 0
M  V30 1759 H 182.703 -0.745003 0.0545817 0
M  V30 1760 H 185.365 -1.76075 0.835677 0
M  V30 1761 H 184.461 -3.1181 0.134577 0
M  V30 1762 N 184.763 -0.387143 -1.52771 0
M  V30 1763 C 185.988 0.198407 -2.06449 0
M  V30 1764 C 186.413 1.39918 -1.25716 0
M  V30 1765 O 185.771 1.79099 -0.281657 0
M  V30 1766 C 185.819 0.548893 -3.56398 0
M  V30 1767 O 184.923 1.64315 -3.78252 0
M  V30 1768 H 184.264 0.0237731 -0.663574 0
M  V30 1769 H 186.794 -0.553989 -1.96957 0
M  V30 1770 H 186.804 0.813812 -3.99801 0
M  V30 1771 H 185.479 -0.329005 -4.14597 0
M  V30 1772 H 184.056 1.37211 -3.46738 0
M  V30 1773 N 186.241 1.57166 -0.116904 0
M  V30 1774 C 187.173 2.12271 0.864507 0
M  V30 1775 C 188.186 1.06494 1.23138 0
M  V30 1776 O 189.375 1.33873 1.18069 0
M  V30 1777 C 186.475 2.60564 2.16702 0
M  V30 1778 C 185.648 3.90416 1.97216 0
M  V30 1779 C 184.707 4.24329 3.11178 0
M  V30 1780 O 183.733 4.93182 2.84184 0
M  V30 1781 N 184.935 3.8148 4.37554 0
M  V30 1782 H 187.7 2.97102 0.393726 0
M  V30 1783 H 185.261 1.61759 0.0675805 0
M  V30 1784 H 187.253 2.80282 2.91932 0
M  V30 1785 H 185.823 1.80623 2.55135 0
M  V30 1786 H 185.043 3.79627 1.06192 0
M  V30 1787 H 186.331 4.75327 1.81499 0
M  V30 1788 H 185.729 3.25943 4.62361 0
M  V30 1789 H 184.286 4.06311 5.09661 0
M  V30 1790 N 187.719 -0.156864 1.56817 0
M  V30 1791 C 188.965 -0.872416 1.83076 0
M  V30 1792 C 189.298 -1.81261 0.697001 0
M  V30 1793 O 188.573 -1.92171 -0.30008 0
M  V30 1794 C 188.856 -1.65551 3.19789 0
M  V30 1795 C 188.709 -0.737467 4.43713 0
M  V30 1796 C 190.028 -2.62012 3.53606 0
M  V30 1797 H 187.147 -0.315715 0.665953 0
M  V30 1798 H 189.789 -0.138004 1.89498 0
M  V30 1799 H 187.939 -2.28159 3.14445 0
M  V30 1800 H 189.611 -0.123143 4.61136 0
M  V30 1801 H 187.854 -0.0464067 4.33775 0
M  V30 1802 H 188.525 -1.32122 5.35955 0
M  V30 1803 H 191.001 -2.09525 3.59497 0
M  V30 1804 H 189.877 -3.13861 4.50314 0
M  V30 1805 H 190.138 -3.42902 2.79053 0
M  V30 1806 N 189.197 -1.51736 -0.425897 0
M  V30 1807 C 190.129 -1.70083 -1.53638 0
M  V30 1808 C 191.142 -0.581349 -1.52066 0
M  V30 1809 O 192.331 -0.856017 -1.56635 0
M  V30 1810 C 189.431 -1.71078 -2.9255 0
M  V30 1811 C 188.604 -2.99795 -3.185 0
M  V30 1812 C 187.663 -2.92825 -4.37196 0
M  V30 1813 O 186.689 -3.66756 -4.35291 0
M  V30 1814 N 187.891 -2.0946 -5.41393 0
M  V30 1815 H 190.656 -2.65882 -1.383 0
M  V30 1816 H 188.217 -1.49765 -0.614988 0
M  V30 1817 H 190.209 -1.63969 -3.69995 0
M  V30 1818 H 188.779 -0.828242 -3.01428 0
M  V30 1819 H 187.999 -3.20684 -2.2925 0
M  V30 1820 H 189.287 -3.84977 -3.32671 0
M  V30 1821 H 188.685 -1.48792 -5.45781 0
M  V30 1822 H 187.242 -2.08221 -6.17647 0
M  V30 1823 N 190.675 0.682077 -1.42076 0
M  V30 1824 C 191.605 1.80796 -1.47767 0
M  V30 1825 C 192.586 1.6677 -0.334954 0
M  V30 1826 O 193.771 1.863 -0.548264 0
M  V30 1827 C 190.901 3.19038 -1.37229 0
M  V30 1828 C 189.855 3.47789 -2.49453 0
M  V30 1829 C 189.181 4.8553 -2.23975 0
M  V30 1830 C 190.481 3.45411 -3.91776 0
M  V30 1831 H 192.175 1.7629 -2.41997 0
M  V30 1832 H 189.721 0.846721 -1.16476 0
M  V30 1833 H 191.674 3.97528 -1.39821 0
M  V30 1834 H 190.398 3.24204 -0.394907 0
M  V30 1835 H 189.057 2.71657 -2.46166 0
M  V30 1836 H 188.705 4.87337 -1.24547 0
M  V30 1837 H 188.405 5.0573 -2.99184 0
M  V30 1838 H 189.929 5.66312 -2.28304 0
M  V30 1839 H 191.343 4.13882 -3.96705 0
M  V30 1840 H 189.74 3.77145 -4.66778 0
M  V30 1841 H 190.81 2.44122 -4.18966 0
M  V30 1842 N 192.153 1.28127 0.917671 0
M  V30 1843 C 193.085 1.07517 2.02417 0
M  V30 1844 C 194.098 0.0281099 1.62776 0
M  V30 1845 O 195.287 0.270748 1.76435 0
M  V30 1846 C 192.387 0.610957 3.33347 0
M  V30 1847 C 191.56 1.73255 4.01624 0
M  V30 1848 C 190.619 1.26238 5.10833 0
M  V30 1849 O 189.645 1.96389 5.34247 0
M  V30 1850 N 190.847 0.123448 5.80369 0
M  V30 1851 H 193.612 2.02806 2.20658 0
M  V30 1852 H 191.173 1.19827 1.08871 0
M  V30 1853 H 193.165 0.280101 4.0373 0
M  V30 1854 H 191.735 -0.24898 3.11607 0
M  V30 1855 H 190.955 2.23319 3.24842 0
M  V30 1856 H 192.243 2.48503 4.43986 0
M  V30 1857 H 191.641 -0.461847 5.63812 0
M  V30 1858 H 190.198 -0.148158 6.51632 0
M  V30 1859 N 193.631 -1.12557 1.10312 0
M  V30 1860 C 194.563 -2.17971 0.708625 0
M  V30 1861 C 195.576 -1.60806 -0.254027 0
M  V30 1862 O 196.765 -1.78458 -0.0386891 0
M  V30 1863 C 193.865 -3.38891 0.0248198 0
M  V30 1864 C 193.038 -4.25548 1.01132 0
M  V30 1865 C 192.097 -5.24972 0.35924 0
M  V30 1866 O 191.123 -5.60174 1.00965 0
M  V30 1867 N 192.325 -5.73747 -0.882847 0
M  V30 1868 H 195.09 -2.52427 1.61557 0
M  V30 1869 H 192.651 -1.27967 0.991771 0
M  V30 1870 H 194.643 -4.02485 -0.422852 0
M  V30 1871 H 193.213 -3.02596 -0.784514 0
M  V30 1872 H 192.433 -3.58589 1.6373 0
M  V30 1873 H 193.721 -4.80294 1.67914 0
M  V30 1874 H 193.119 -5.4731 -1.43065 0
M  V30 1875 H 191.676 -6.39234 -1.27369 0
M  V30 1876 N 195.109 -0.891671 -1.2995 0
M  V30 1877 C 196.334 -0.527932 -2.00568 0
M  V30 1878 C 196.759 0.877969 -1.66353 0
M  V30 1879 O 196.117 1.58301 -0.883762 0
M  V30 1880 C 196.165 -0.717745 -3.53385 0
M  V30 1881 O 195.269 0.233376 -4.11739 0
M  V30 1882 H 194.61 -0.20722 -0.630837 0
M  V30 1883 H 197.14 -1.20105 -1.65638 0
M  V30 1884 H 197.15 -0.619307 -4.03272 0
M  V30 1885 H 195.825 -1.74276 -3.77625 0
M  V30 1886 H 194.402 0.0880706 -3.72796 0
M  V30 1887 N 196.587 1.43421 -0.653314 0
M  V30 1888 C 197.835 2.01414 -0.166415 0
M  V30 1889 C 198.156 1.51803 1.22397 0
M  V30 1890 O 197.426 0.730693 1.81763 0
M  V30 1891 H 196.006 0.744703 -0.0585319 0
M  V30 1892 H 198.668 1.75629 -0.845003 0
M  V30 1893 H 197.764 3.11734 -0.151111 0
M  V30 1894 N 198.065 0.39524 1.52563 0
M  V30 1895 C 199.028 -0.425001 2.25225 0
M  V30 1896 C 200.028 -0.985266 1.27079 0
M  V30 1897 O 201.218 -0.866332 1.5113 0
M  V30 1898 C 198.35 -1.59686 3.01186 0
M  V30 1899 H 199.543 0.211233 2.99155 0
M  V30 1900 H 197.096 0.147472 1.55603 0
M  V30 1901 H 197.831 -2.27035 2.31572 0
M  V30 1902 H 197.616 -1.20176 3.73229 0
M  V30 1903 H 199.106 -2.17743 3.5634 0
M  V30 1904 N 199.544 -1.57102 0.125237 0
M  V30 1905 C 200.454 -2.19191 -0.8362 0
M  V30 1906 C 201.47 -1.16985 -1.28805 0
M  V30 1907 O 202.646 -1.49479 -1.34974 0
M  V30 1908 C 199.711 -2.78407 -2.06617 0
M  V30 1909 C 198.772 -3.9567 -1.66565 0
M  V30 1910 C 198.005 -4.52052 -2.83698 0
M  V30 1911 O 198.228 -4.07326 -3.99302 0
M  V30 1912 O 197.162 -5.42645 -2.60423 0
M  V30 1913 H 200.988 -3.01816 -0.337776 0
M  V30 1914 H 198.573 -1.4906 -0.100695 0
M  V30 1915 H 200.455 -3.16129 -2.7864 0
M  V30 1916 H 199.13 -1.9881 -2.55453 0
M  V30 1917 H 198.037 -3.62705 -0.916296 0
M  V30 1918 H 199.37 -4.76722 -1.22464 0
M  V30 1919 N 201.022 0.148545 -1.56898 0
M  V30 1920 C 201.952 1.18524 -2.01182 0
M  V30 1921 C 202.933 1.4489 -0.891123 0
M  V30 1922 O 204.118 1.55836 -1.15882 0
M  V30 1923 C 201.248 2.51879 -2.39112 0
M  V30 1924 C 200.202 2.40038 -3.54353 0
M  V30 1925 C 199.528 3.78089 -3.78091 0
M  V30 1926 C 200.828 1.88577 -4.87069 0
M  V30 1927 H 202.522 0.817029 -2.88036 0
M  V30 1928 H 200.068 0.391575 -1.38574 0
M  V30 1929 H 202.021 3.24627 -2.68692 0
M  V30 1930 H 200.745 2.90532 -1.49193 0
M  V30 1931 H 199.404 1.69742 -3.24936 0
M  V30 1932 H 199.052 4.14175 -2.85426 0
M  V30 1933 H 198.752 3.71028 -4.55645 0
M  V30 1934 H 200.276 4.52387 -4.10095 0
M  V30 1935 H 201.69 2.51117 -5.15377 0
M  V30 1936 H 200.087 1.9241 -5.68417 0
M  V30 1937 H 201.157 0.84136 -4.77545 0
M  V30 1938 N 202.5 1.5196 0.417844 0
M  V30 1939 C 203.746 1.65836 1.16732 0
M  V30 1940 C 204.079 0.382881 1.90388 0
M  V30 1941 O 203.354 -0.618368 1.84408 0
M  V30 1942 C 203.637 2.87466 2.16876 0
M  V30 1943 C 203.49 4.25041 1.47174 0
M  V30 1944 C 204.809 3.04613 3.17646 0
M  V30 1945 H 201.928 0.603515 0.423011 0
M  V30 1946 H 204.57 1.84494 0.454105 0
M  V30 1947 H 202.72 2.71689 2.777 0
M  V30 1948 H 204.392 4.52527 0.895376 0
M  V30 1949 H 202.635 4.26843 0.773806 0
M  V30 1950 H 203.306 5.06176 2.20204 0
M  V30 1951 H 205.782 3.1923 2.66892 0
M  V30 1952 H 204.658 3.91247 3.8499 0
M  V30 1953 H 204.919 2.17541 3.84874 0
M  V30 1954 N 203.978 -0.674533 1.42435 0
M  V30 1955 C 205.394 -0.98769 1.25367 0
M  V30 1956 C 205.594 -2.00879 0.158044 0
M  V30 1957 O 204.65 -2.48075 -0.470633 0
M  V30 1958 C 205.963 -1.49224 2.6106 0
M  V30 1959 C 207.511 -1.61 2.68417 0
M  V30 1960 C 207.986 -2.14852 4.04478 0
M  V30 1961 N 209.477 -2.22185 4.06434 0
M  V30 1962 C 210.212 -2.64928 5.08528 0
M  V30 1963 N 209.708 -3.07121 6.21006 0
M  V30 1964 N 211.501 -2.64679 4.95885 0
M  V30 1965 H 203.652 0.00152503 2.124 0
M  V30 1966 H 205.915 -0.0618434 0.945981 0
M  V30 1967 H 205.621 -0.816453 3.42092 0
M  V30 1968 H 205.495 -2.47094 2.84999 0
M  V30 1969 H 207.882 -2.27686 1.87732 0
M  V30 1970 H 207.963 -0.616195 2.48267 0
M  V30 1971 H 207.607 -1.48775 4.85622 0
M  V30 1972 H 207.537 -3.15024 4.2198 0
M  V30 1973 H 210.028 -1.92435 3.25234 0
M  V30 1974 H 210.341 -3.38423 6.94759 0
M  V30 1975 H 208.686 -3.04978 6.24511 0
M  V30 1976 H 211.877 -2.31078 4.07088 0
M  V30 1977 H 212.05 -2.9767 5.75584 0
M  V30 1978 N 205.456 -1.28612 -0.910864 0
M  V30 1979 C 206.867 -1.14406 -1.47541 0
M  V30 1980 C 207.218 0.264901 -1.94403 0
M  V30 1981 O 206.343 1.15942 -1.82719 0
M  V30 1982 C 206.938 -2.07073 -2.68153 0
M  V30 1983 C 205.497 -1.96923 -3.20778 0
M  V30 1984 C 204.644 -1.98646 -1.93481 0
M  V30 1985 H 207.595 -1.41259 -0.723291 0
M  V30 1986 H 207.616 -1.63642 -3.43514 0
M  V30 1987 H 207.128 -3.09611 -2.34015 0
M  V30 1988 H 205.229 -0.97433 -3.59635 0
M  V30 1989 H 205.342 -2.84026 -3.85832 0
M  V30 1990 H 203.706 -1.43093 -2.10705 0
M  V30 1991 H 204.489 -3.02868 -1.61634 0
M  V30 1992 N 206.934 1.1197 -1.10907 0
M  V30 1993 C 208.182 1.83225 -0.852819 0
M  V30 1994 C 208.503 1.84769 0.623341 0
M  V30 1995 O 207.773 1.3143 1.45269 0
M  V30 1996 H 206.353 0.67849 -0.312507 0
M  V30 1997 H 209.015 1.3556 -1.40033 0
M  V30 1998 H 208.111 2.87265 -1.22005 0
M  V30 1999 N 208.412 0.89855 1.29475 0
M  V30 2000 C 209.637 0.538561 2.00285 0
M  V30 2001 C 210.062 -0.869135 1.66816 0
M  V30 2002 O 209.42 -1.57831 0.892145 0
M  V30 2003 C 209.468 0.736475 3.52999 0
M  V30 2004 O 208.572 -0.211537 4.11857 0
M  V30 2005 H 207.913 0.210563 0.62973 0
M  V30 2006 H 210.443 1.20982 1.64998 0
M  V30 2007 H 210.453 0.640685 4.02938 0
M  V30 2008 H 209.128 1.76276 3.76696 0
M  V30 2009 H 207.705 -0.0682991 3.72837 0
M  V30 2010 N 209.89 -1.43072 0.660911 0
M  V30 2011 C 211.115 -2.06584 0.183805 0
M  V30 2012 C 211.54 -1.49257 -1.14472 0
M  V30 2013 O 210.898 -0.605528 -1.70889 0
M  V30 2014 C 210.946 -3.60418 0.114434 0
M  V30 2015 O 210.05 -4.01981 -0.921137 0
M  V30 2016 H 209.391 -0.656669 0.0983994 0
M  V30 2017 H 211.921 -1.83447 0.906006 0
M  V30 2018 H 211.931 -4.07946 -0.0663394 0
M  V30 2019 H 210.606 -4.01519 1.08422 0
M  V30 2020 H 209.183 -3.66029 -0.71253 0
M  V30 2021 N 211.368 -0.403325 -1.52352 0
M  V30 2022 C 212.614 0.174605 -2.02047 0
M  V30 2023 C 212.947 1.45282 -1.28867 0
M  V30 2024 O 212.222 1.90483 -0.393257 0
M  V30 2025 C 212.505 0.428238 -3.57545 0
M  V30 2026 C 212.358 -0.866248 -4.4138 0
M  V30 2027 C 213.677 1.21287 -4.23057 0
M  V30 2028 H 210.796 0.0619851 -0.734389 0
M  V30 2029 H 213.438 -0.53565 -1.82293 0
M  V30 2030 H 211.588 1.03327 -3.74507 0
M  V30 2031 H 213.26 -1.50265 -4.3614 0
M  V30 2032 H 211.503 -1.47851 -4.07827 0
M  V30 2033 H 212.174 -0.643249 -5.48239 0
M  V30 2034 H 214.65 0.700703 -4.10158 0
M  V30 2035 H 213.526 1.35909 -5.31808 0
M  V30 2036 H 213.787 2.23193 -3.81625 0
M  V30 2037 N 212.846 1.57033 -0.133567 0
M  V30 2038 C 213.793 2.16074 0.811208 0
M  V30 2039 C 214.763 1.08979 1.2535 0
M  V30 2040 O 215.948 1.36958 1.32843 0
M  V30 2041 C 213.088 2.77595 2.05024 0
M  V30 2042 C 212.201 3.99042 1.65498 0
M  V30 2043 C 211.336 4.48603 2.84479 0
M  V30 2044 C 210.375 5.62547 2.41262 0
M  V30 2045 N 209.512 6.06787 3.53206 0
M  V30 2046 H 214.352 2.96477 0.300906 0
M  V30 2047 H 211.889 1.46462 0.136822 0
M  V30 2048 H 213.847 3.11402 2.77642 0
M  V30 2049 H 212.477 1.99859 2.53488 0
M  V30 2050 H 211.529 3.71302 0.826981 0
M  V30 2051 H 212.841 4.81629 1.29748 0
M  V30 2052 H 211.995 4.84395 3.65303 0
M  V30 2053 H 210.734 3.64995 3.23465 0
M  V30 2054 H 209.739 5.26345 1.58874 0
M  V30 2055 H 210.964 6.47931 2.03377 0
M  V30 2056 H 208.91 5.26117 3.91838 0
M  V30 2057 H 208.827 6.84266 3.21427 0
M  V30 2058 H 210.095 6.4722 4.34427 0
M  V30 2059 N 214.325 -0.140222 1.56975 0
M  V30 2060 C 215.574 -0.850152 1.82908 0
M  V30 2061 C 215.887 -1.82028 0.715892 0
M  V30 2062 O 217.093 -2.57485 0.861016 0
M  V30 2063 C 215.549 -1.5625 3.24213 0
M  V30 2064 C 215.157 -0.63443 4.43485 0
M  V30 2065 C 216.901 -2.25881 3.59413 0
M  V30 2066 C 214.808 -1.34879 5.75814 0
M  V30 2067 H 213.738 -0.321221 0.682153 0
M  V30 2068 H 216.389 -0.102874 1.83211 0
M  V30 2069 H 214.771 -2.35565 3.18316 0
M  V30 2070 H 215.945 0.12398 4.60633 0
M  V30 2071 H 214.26 -0.0461836 4.16374 0
M  V30 2072 H 216.857 -2.79978 4.5554 0
M  V30 2073 H 217.2 -3.02693 2.85802 0
M  V30 2074 H 217.733 -1.53477 3.67001 0
M  V30 2075 H 214.472 -0.622385 6.52539 0
M  V30 2076 H 213.992 -2.07974 5.6259 0
M  V30 2077 H 215.671 -1.88784 6.18845 0
M  V30 2078 N 215.803 -1.52179 -0.40978 0
M  V30 2079 C 217.028 -1.70347 -1.18308 0
M  V30 2080 C 217.453 -0.411887 -1.83535 0
M  V30 2081 O 216.811 0.630587 -1.6998 0
M  V30 2082 C 216.859 -2.83977 -2.22238 0
M  V30 2083 O 215.963 -2.495 -3.28365 0
M  V30 2084 H 215.304 -0.567103 -0.345384 0
M  V30 2085 H 217.834 -1.98879 -0.480445 0
M  V30 2086 H 217.844 -3.0887 -2.66577 0
M  V30 2087 H 216.519 -3.77685 -1.74146 0
M  V30 2088 H 215.096 -2.35277 -2.89308 0
M  V30 2089 N 217.281 0.66697 -1.42791 0
M  V30 2090 C 218.521 1.43892 -1.4517 0
M  V30 2091 C 218.885 1.91877 -0.0687551 0
M  V30 2092 O 220.086 2.6878 0.0327455 0
M  V30 2093 C 218.357 2.59839 -2.45395 0
M  V30 2094 S 219.916 3.48572 -2.66539 0
M  V30 2095 H 216.734 0.491356 -0.513897 0
M  V30 2096 H 219.336 0.775656 -1.79454 0
M  V30 2097 H 218.04 2.22838 -3.44632 0
M  V30 2098 H 217.571 3.3103 -2.12562 0
M  V30 2099 H 219.586 4.56094 -1.95429 0
M  V30 2100 N 218.759 1.29093 0.90403 0
M  V30 2101 C 219.706 1.13853 2.00764 0
M  V30 2102 C 220.676 0.0330084 1.66067 0
M  V30 2103 O 221.861 0.199733 1.89752 0
M  V30 2104 C 219.001 0.816537 3.35301 0
M  V30 2105 C 218.114 2.00206 3.82807 0
M  V30 2106 C 217.249 1.61983 5.059 0
M  V30 2107 C 216.288 2.77143 5.45764 0
M  V30 2108 N 215.425 2.39346 6.60044 0
M  V30 2109 H 220.265 2.08276 2.13132 0
M  V30 2110 H 217.802 1.03648 1.04381 0
M  V30 2111 H 219.76 0.610557 4.12708 0
M  V30 2112 H 218.39 -0.090779 3.22672 0
M  V30 2113 H 217.442 2.31988 3.01473 0
M  V30 2114 H 218.754 2.86512 4.08304 0
M  V30 2115 H 217.908 1.37649 5.90879 0
M  V30 2116 H 216.647 0.728202 4.82233 0
M  V30 2117 H 215.652 3.02165 4.59322 0
M  V30 2118 H 216.877 3.66964 5.71414 0
M  V30 2119 H 214.823 1.52665 6.37989 0
M  V30 2120 H 214.74 3.19185 6.85315 0
M  V30 2121 H 216.008 2.1832 7.48303 0
M  V30 2122 N 220.237 -1.11381 1.11499 0
M  V30 2123 C 221.2 -2.15622 0.777153 0
M  V30 2124 C 222.2 -1.59504 -0.203779 0
M  V30 2125 O 223.39 -1.74188 0.020782 0
M  V30 2126 C 220.522 -3.40556 0.153116 0
M  V30 2127 H 221.715 -2.47021 1.70061 0
M  V30 2128 H 219.268 -1.26577 0.916952 0
M  V30 2129 H 220.003 -3.14767 -0.780536 0
M  V30 2130 H 219.788 -3.8257 0.859238 0
M  V30 2131 H 221.278 -4.17546 -0.0671044 0
M  V30 2132 N 221.715 -0.905404 -1.28997 0
M  V30 2133 C 222.94 -0.549175 -1.99997 0
M  V30 2134 C 223.365 0.860276 -1.67275 0
M  V30 2135 O 222.723 1.57355 -0.900502 0
M  V30 2136 C 222.771 -0.755185 -3.52604 0
M  V30 2137 O 221.875 0.189692 -4.11964 0
M  V30 2138 H 221.216 -0.213899 -0.628604 0
M  V30 2139 H 223.746 -1.21856 -1.64354 0
M  V30 2140 H 223.756 -0.662045 -4.02593 0
M  V30 2141 H 222.431 -1.78271 -3.75755 0
M  V30 2142 H 221.008 0.0485257 -3.72868 0
M  V30 2143 N 223.193 1.4272 -0.668489 0
M  V30 2144 C 224.441 2.01226 -0.187769 0
M  V30 2145 C 224.762 1.53092 1.2078 0
M  V30 2146 O 224.032 0.74993 1.80977 0
M  V30 2147 H 222.612 0.744041 -0.0664272 0
M  V30 2148 H 225.274 1.74723 -0.863583 0
M  V30 2149 H 224.37 3.11556 -0.184166 0
M  V30 2150 N 224.671 0.411399 1.52136 0
M  V30 2151 C 225.901 -0.16284 2.05957 0
M  V30 2152 C 226.309 -1.3922 1.28119 0
M  V30 2153 O 225.652 -1.80768 0.326881 0
M  V30 2154 C 225.714 -0.575946 3.54856 0
M  V30 2155 C 225.378 0.542998 4.53763 0
M  V30 2156 C 226.375 1.40726 5.00492 0
M  V30 2157 C 224.06 0.716337 4.97166 0
M  V30 2158 C 226.054 2.4298 5.8927 0
M  V30 2159 C 223.741 1.74218 5.8574 0
M  V30 2160 C 224.739 2.59731 6.31687 0
M  V30 2161 O 224.427 3.60558 7.18507 0
M  V30 2162 H 224.159 -0.0229125 0.675612 0
M  V30 2163 H 226.713 0.581634 1.96993 0
M  V30 2164 H 224.943 -1.37274 3.61515 0
M  V30 2165 H 226.632 -1.07836 3.91313 0
M  V30 2166 H 227.398 1.28476 4.67674 0
M  V30 2167 H 223.277 0.0603857 4.6096 0
M  V30 2168 H 226.821 3.0976 6.25055 0
M  V30 2169 H 222.718 1.86498 6.17971 0
M  V30 2170 H 223.486 3.56829 7.36624 0
M  V30 2171 N 226.149 -1.5696 0.141893 0
M  V30 2172 C 227.112 -2.15316 -0.785587 0
M  V30 2173 C 228.112 -1.09366 -1.1788 0
M  V30 2174 O 229.302 -1.35031 -1.10056 0
M  V30 2175 C 226.434 -2.71211 -2.06537 0
M  V30 2176 H 227.627 -2.98608 -0.278041 0
M  V30 2177 H 225.18 -1.5593 -0.107519 0
M  V30 2178 H 225.915 -1.91571 -2.6167 0
M  V30 2179 H 225.7 -3.4872 -1.79268 0
M  V30 2180 H 227.19 -3.16189 -2.72789 0
M  V30 2181 N 227.627 0.131896 -1.57047 0
M  V30 2182 C 228.874 0.841932 -1.84168 0
M  V30 2183 C 229.202 1.8048 -0.725066 0
M  V30 2184 O 228.457 1.93618 0.284692 0
M  V30 2185 C 228.756 1.63703 -3.17704 0
M  V30 2186 C 228.422 0.81961 -4.43388 0
M  V30 2187 C 227.084 0.594148 -4.77518 0
M  V30 2188 C 229.436 0.248977 -5.20605 0
M  V30 2189 C 226.764 -0.212409 -5.86315 0
M  V30 2190 C 229.116 -0.544701 -6.30251 0
M  V30 2191 C 227.78 -0.780599 -6.6292 0
M  V30 2192 H 227.05 0.308085 -0.673917 0
M  V30 2193 H 229.697 0.104867 -1.91213 0
M  V30 2194 H 228.002 2.44464 -3.06177 0
M  V30 2195 H 229.699 2.19015 -3.35907 0
M  V30 2196 H 226.289 1.00542 -4.16641 0
M  V30 2197 H 230.473 0.410408 -4.946 0
M  V30 2198 H 225.729 -0.404524 -6.1006 0
M  V30 2199 H 229.903 -0.993922 -6.89271 0
M  V30 2200 H 227.53 -1.40742 -7.47058 0
M  V30 2201 N 229.106 1.52395 0.401703 0
M  V30 2202 C 230.331 1.70972 1.17403 0
M  V30 2203 C 230.756 0.421615 1.83314 0
M  V30 2204 O 230.114 -0.621564 1.70312 0
M  V30 2205 C 230.162 2.85151 2.20728 0
M  V30 2206 O 229.266 2.51238 3.27037 0
M  V30 2207 H 228.607 0.568927 0.342372 0
M  V30 2208 H 231.137 1.99131 0.469891 0
M  V30 2209 H 231.147 3.10279 2.64936 0
M  V30 2210 H 229.822 3.78603 1.7214 0
M  V30 2211 H 228.399 2.36808 2.88057 0
M  V30 2212 N 230.584 -0.659388 1.43143 0
M  V30 2213 C 231.809 -1.45221 1.48073 0
M  V30 2214 C 232.234 -1.87845 0.097995 0
M  V30 2215 O 231.592 -1.56985 -0.90694 0
M  V30 2216 C 231.64 -2.66748 2.42647 0
M  V30 2217 O 230.744 -3.65583 1.90848 0
M  V30 2218 H 230.085 -0.435669 0.501088 0
M  V30 2219 H 232.615 -0.807432 1.87994 0
M  V30 2220 H 232.625 -3.14637 2.59745 0
M  V30 2221 H 231.3 -2.35067 3.43098 0
M  V30 2222 H 229.877 -3.24693 1.83381 0
M  V30 2223 N 232.062 -1.29571 -0.897171 0
M  V30 2224 C 233.292 -1.20408 -1.67886 0
M  V30 2225 C 233.7 0.237429 -1.87704 0
M  V30 2226 O 233.043 1.17048 -1.41582 0
M  V30 2227 C 233.105 -1.84887 -3.08314 0
M  V30 2228 C 232.769 -3.34189 -3.11716 0
M  V30 2229 C 233.766 -4.30374 -2.91675 0
M  V30 2230 C 231.451 -3.75431 -3.33701 0
M  V30 2231 C 233.445 -5.65776 -2.93557 0
M  V30 2232 C 231.132 -5.10955 -3.35214 0
M  V30 2233 C 232.13 -6.05938 -3.15164 0
M  V30 2234 O 231.818 -7.38987 -3.1647 0
M  V30 2235 H 231.55 -0.418289 -0.531046 0
M  V30 2236 H 234.104 -1.71514 -1.13014 0
M  V30 2237 H 232.334 -1.28295 -3.64798 0
M  V30 2238 H 234.023 -1.70011 -3.6858 0
M  V30 2239 H 234.789 -3.99844 -2.74499 0
M  V30 2240 H 230.668 -3.01953 -3.48347 0
M  V30 2241 H 234.212 -6.39889 -2.77826 0
M  V30 2242 H 230.109 -5.4113 -3.51922 0
M  V30 2243 H 230.877 -7.47823 -3.3272 0
M  V30 2244 N 233.54 1.10788 -1.12088 0
M  V30 2245 C 234.786 1.8313 -0.885148 0
M  V30 2246 C 235.141 1.8336 0.582839 0
M  V30 2247 O 234.434 1.28062 1.42516 0
M  V30 2248 C 234.628 3.29294 -1.38926 0
M  V30 2249 C 234.457 3.43302 -2.90472 0
M  V30 2250 C 233.227 3.55928 -3.58669 0
M  V30 2251 C 235.425 3.37014 -3.88492 0
M  V30 2252 N 233.407 3.58475 -4.98366 0
M  V30 2253 C 234.778 3.46263 -5.14298 0
M  V30 2254 C 236.833 3.20589 -3.80955 0
M  V30 2255 C 235.536 3.4078 -6.33452 0
M  V30 2256 C 237.562 3.16427 -4.99628 0
M  V30 2257 C 236.924 3.26253 -6.2429 0
M  V30 2258 H 233.023 0.685054 -0.377128 0
M  V30 2259 H 235.607 1.3251 -1.4265 0
M  V30 2260 H 233.778 3.78416 -0.874999 0
M  V30 2261 H 235.51 3.89578 -1.09596 0
M  V30 2262 H 232.265 3.58779 -3.09151 0
M  V30 2263 H 232.689 3.6337 -5.71219 0
M  V30 2264 H 237.331 3.11873 -2.85474 0
M  V30 2265 H 235.049 3.48263 -7.29204 0
M  V30 2266 H 238.635 3.04874 -4.95523 0
M  V30 2267 H 237.515 3.2303 -7.14578 0
M  V30 2268 N 235.018 0.912232 1.28515 0
M  V30 2269 C 235.951 0.343928 2.25593 0
M  V30 2270 C 236.929 -0.550994 1.5298 0
M  V30 2271 O 238.113 -0.494991 1.81885 0
M  V30 2272 C 235.24 -0.508525 3.34861 0
M  V30 2273 C 234.286 0.320808 4.25292 0
M  V30 2274 S 235.119 1.72658 5.06902 0
M  V30 2275 C 236.275 0.881394 6.19663 0
M  V30 2276 H 236.508 1.16674 2.73449 0
M  V30 2277 H 234.041 0.713384 1.36931 0
M  V30 2278 H 235.999 -0.994539 3.9827 0
M  V30 2279 H 234.66 -1.30571 2.85675 0
M  V30 2280 H 233.853 -0.330941 5.02912 0
M  V30 2281 H 233.455 0.74042 3.66598 0
M  V30 2282 H 235.747 0.110359 6.7741 0
M  V30 2283 H 236.69 1.63009 6.89082 0
M  V30 2284 H 237.098 0.430239 5.62858 0
M  V30 2285 N 236.496 -1.42363 0.676048 0
M  V30 2286 C 237.444 -2.32596 -0.0131507 0
M  V30 2287 C 238.438 -1.49891 -0.789238 0
M  V30 2288 O 239.644 -1.65955 -0.697061 0
M  V30 2289 H 236.019 -0.751647 -0.0230481 0
M  V30 2290 H 237.99 -2.88421 0.765243 0
M  V30 2291 C 236.739 -3.34479 -0.949702 0
M  V30 2292 H 236.062 -3.98158 -0.361938 0
M  V30 2293 H 237.502 -4.00199 -1.4006 0
M  V30 2294 C 235.961 -2.66838 -2.05667 0
M  V30 2295 O 236.491 -2.50124 -3.14326 0
M  V30 2296 N 234.697 -2.25843 -1.82875 0
M  V30 2297 H 234.244 -2.39637 -0.945085 0
M  V30 2298 H 234.202 -1.80918 -2.5713 0
M  V30 2299 N 237.974 -0.419461 -1.51915 0
M  V30 2300 C 239.22 0.145505 -2.02879 0
M  V30 2301 C 239.575 1.41926 -1.29903 0
M  V30 2302 O 238.868 1.87383 -0.399782 0
M  V30 2303 C 239.062 0.437067 -3.54717 0
M  V30 2304 C 238.891 -0.806877 -4.42402 0
M  V30 2305 C 237.661 -1.33514 -4.87342 0
M  V30 2306 C 239.859 -1.68796 -4.85811 0
M  V30 2307 N 237.841 -2.53349 -5.59185 0
M  V30 2308 C 239.212 -2.73247 -5.56539 0
M  V30 2309 C 241.267 -1.70449 -4.67816 0
M  V30 2310 C 239.97 -3.79276 -6.11181 0
M  V30 2311 C 241.996 -2.75403 -5.23361 0
M  V30 2312 C 241.358 -3.78575 -5.9402 0
M  V30 2313 H 237.457 0.0145424 -0.781865 0
M  V30 2314 H 240.041 -0.576126 -1.85981 0
M  V30 2315 H 238.212 1.12774 -3.71667 0
M  V30 2316 H 239.944 0.99182 -3.92358 0
M  V30 2317 H 236.699 -0.891657 -4.65131 0
M  V30 2318 H 237.123 -3.14066 -5.99743 0
M  V30 2319 H 241.765 -0.920209 -4.12664 0
M  V30 2320 H 239.483 -4.58554 -6.65397 0
M  V30 2321 H 243.069 -2.77603 -5.113 0
M  V30 2322 H 241.949 -4.58453 -6.36231 0
M  V30 2323 N 239.452 1.56882 -0.150215 0
M  V30 2324 C 240.698 1.96518 0.500834 0
M  V30 2325 C 241.031 1.03527 1.64304 0
M  V30 2326 O 240.306 0.0782751 1.94342 0
M  V30 2327 C 240.589 3.45822 1.00395 0
M  V30 2328 C 240.442 4.49591 -0.136983 0
M  V30 2329 C 241.761 3.97704 1.88467 0
M  V30 2330 H 238.88 0.714535 0.18058 0
M  V30 2331 H 241.522 1.88577 -0.232091 0
M  V30 2332 H 239.672 3.5272 1.62851 0
M  V30 2333 H 241.344 4.5477 -0.77343 0
M  V30 2334 H 239.587 4.26441 -0.795652 0
M  V30 2335 H 240.258 5.51402 0.256815 0
M  V30 2336 H 242.734 3.93304 1.35834 0
M  V30 2337 H 241.61 5.0263 2.20578 0
M  V30 2338 H 241.871 3.40252 2.82279 0
M  V30 2339 N 240.93 -0.123565 1.57115 0
M  V30 2340 C 241.877 -1.15177 2.00007 0
M  V30 2341 C 242.847 -1.41403 0.871454 0
M  V30 2342 O 244.032 -1.53346 1.13533 0
M  V30 2343 C 241.172 -2.47436 2.40561 0
M  V30 2344 C 240.285 -2.28184 3.66819 0
M  V30 2345 C 239.42 -3.53641 3.96373 0
M  V30 2346 C 238.459 -3.29528 5.15827 0
M  V30 2347 N 237.596 -4.47175 5.41275 0
M  V30 2348 H 242.436 -0.779008 2.87638 0
M  V30 2349 H 239.973 -0.373166 1.42288 0
M  V30 2350 H 241.931 -3.24584 2.62109 0
M  V30 2351 H 240.561 -2.82614 1.55978 0
M  V30 2352 H 239.613 -1.41976 3.52912 0
M  V30 2353 H 240.925 -2.0634 4.5412 0
M  V30 2354 H 240.079 -4.39209 4.18545 0
M  V30 2355 H 238.818 -3.78512 3.07538 0
M  V30 2356 H 237.823 -2.42349 4.93505 0
M  V30 2357 H 239.048 -3.06031 6.06236 0
M  V30 2358 H 236.994 -4.72175 4.55397 0
M  V30 2359 H 236.911 -4.28419 6.22891 0
M  V30 2360 H 238.179 -5.3389 5.67963 0
M  V30 2361 N 242.408 -1.52605 -0.393616 0
M  V30 2362 C 243.34 -1.73303 -1.49995 0
M  V30 2363 C 244.353 -0.613473 -1.50799 0
M  V30 2364 O 245.542 -0.889049 -1.54784 0
M  V30 2365 C 242.642 -1.77245 -2.88855 0
M  V30 2366 C 241.815 -3.06483 -3.12069 0
M  V30 2367 C 240.874 -3.02033 -4.30886 0
M  V30 2368 O 239.9 -3.75907 -4.27414 0
M  V30 2369 N 241.102 -2.20897 -5.36828 0
M  V30 2370 H 243.867 -2.68756 -1.32629 0
M  V30 2371 H 241.428 -1.51036 -0.583083 0
M  V30 2372 H 243.42 -1.7178 -3.66434 0
M  V30 2373 H 241.99 -0.891993 -2.99603 0
M  V30 2374 H 241.21 -3.25474 -2.22396 0
M  V30 2375 H 242.498 -3.91947 -3.2443 0
M  V30 2376 H 241.896 -1.60336 -5.42502 0
M  V30 2377 H 240.453 -2.21275 -6.13091 0
M  V30 2378 N 243.887 0.651787 -1.4349 0
M  V30 2379 C 245.303 0.96762 -1.26922 0
M  V30 2380 C 245.503 2.00602 -0.189982 0
M  V30 2381 O 244.559 2.48793 0.431107 0
M  V30 2382 C 245.872 1.45052 -2.63401 0
M  V30 2383 C 247.42 1.5671 -2.70945 0
M  V30 2384 C 247.895 2.0839 -4.07845 0
M  V30 2385 N 249.386 2.1569 -4.09917 0
M  V30 2386 C 250.121 2.56804 -5.12679 0
M  V30 2387 N 249.617 2.97203 -6.25813 0
M  V30 2388 N 251.41 2.56756 -5.00033 0
M  V30 2389 H 243.561 -0.0353158 -2.12371 0
M  V30 2390 H 245.824 0.0467858 -0.946845 0
M  V30 2391 H 245.53 0.761926 -3.43348 0
M  V30 2392 H 245.404 2.42529 -2.88894 0
M  V30 2393 H 247.791 2.2467 -1.9133 0
M  V30 2394 H 247.872 0.57662 -2.49216 0
M  V30 2395 H 247.516 1.41031 -4.87927 0
M  V30 2396 H 247.446 3.08271 -4.26938 0
M  V30 2397 H 249.937 1.87237 -3.28254 0
M  V30 2398 H 250.25 3.27328 -7.00055 0
M  V30 2399 H 248.595 2.95004 -6.29283 0
M  V30 2400 H 251.786 2.24572 -4.10713 0
M  V30 2401 H 251.959 2.88475 -5.80247 0
M  V30 2402 N 245.365 1.30045 0.890287 0
M  V30 2403 C 246.776 1.16738 1.45702 0
M  V30 2404 C 247.127 -0.233939 1.948 0
M  V30 2405 O 246.252 -1.13021 1.84541 0
M  V30 2406 C 246.847 2.11313 2.64825 0
M  V30 2407 C 245.406 2.02001 3.17604 0
M  V30 2408 C 244.553 2.01699 1.90296 0
M  V30 2409 H 247.504 1.42392 0.700726 0
M  V30 2410 H 247.525 1.69086 3.40867 0
M  V30 2411 H 247.037 3.13294 2.2906 0
M  V30 2412 H 245.138 1.03142 3.5804 0
M  V30 2413 H 245.251 2.90128 3.81264 0
M  V30 2414 H 243.615 1.46427 2.08402 0
M  V30 2415 H 244.398 3.05402 1.56795 0
M  V30 2416 N 246.843 -1.10192 1.12674 0
M  V30 2417 C 248.091 -1.81845 0.881861 0
M  V30 2418 C 248.412 -1.85737 -0.593867 0
M  V30 2419 O 247.682 -1.33724 -1.4316 0
M  V30 2420 H 246.262 -0.673432 0.323261 0
M  V30 2421 H 248.924 -1.33316 1.42172 0
M  V30 2422 H 248.02 -2.85288 1.2656 0
M  V30 2423 N 248.321 -0.919034 -1.28029 0
M  V30 2424 C 249.253 -0.368762 -2.26214 0
M  V30 2425 C 250.266 0.495716 -1.55069 0
M  V30 2426 O 251.455 0.30974 -1.75792 0
M  V30 2427 C 248.555 0.491049 -3.35324 0
M  V30 2428 C 247.728 -0.352133 -4.3598 0
M  V30 2429 C 246.787 0.443622 -5.24327 0
M  V30 2430 O 245.813 -0.14566 -5.69014 0
M  V30 2431 N 247.015 1.74545 -5.53637 0
M  V30 2432 H 249.78 -1.21273 -2.74068 0
M  V30 2433 H 247.341 -0.785541 -1.41566 0
M  V30 2434 H 249.333 1.03026 -3.91366 0
M  V30 2435 H 247.903 1.23574 -2.87138 0
M  V30 2436 H 247.123 -1.07269 -3.79324 0
M  V30 2437 H 248.411 -0.928883 -5.00249 0
M  V30 2438 H 247.809 2.24666 -5.19174 0
M  V30 2439 H 246.366 2.23138 -6.12416 0
M  V30 2440 N 249.799 1.42003 -0.683588 0
M  V30 2441 C 251.047 2.01015 -0.209101 0
M  V30 2442 C 251.368 1.54365 1.19149 0
M  V30 2443 O 250.638 0.769083 1.80172 0
M  V30 2444 H 249.218 0.743294 -0.074315 0
M  V30 2445 H 251.88 1.73798 -0.882066 0
M  V30 2446 H 250.976 3.11343 -0.2172 0
M  V30 2447 N 251.277 0.427512 1.51691 0
M  V30 2448 C 252.207 -0.3796 2.30394 0
M  V30 2449 C 253.188 -1.02982 1.35384 0
M  V30 2450 O 254.373 -1.03534 1.643 0
M  V30 2451 C 251.503 -1.48649 3.1388 0
M  V30 2452 C 250.457 -0.960294 4.17088 0
M  V30 2453 C 249.783 -2.16219 4.89033 0
M  V30 2454 C 251.083 -0.00153679 5.223 0
M  V30 2455 H 252.777 0.277164 2.98114 0
M  V30 2456 H 250.323 0.134739 1.43368 0
M  V30 2457 H 252.276 -2.05826 3.67714 0
M  V30 2458 H 251 -2.1714 2.43962 0
M  V30 2459 H 249.659 -0.410806 3.64291 0
M  V30 2460 H 249.307 -2.83307 4.15628 0
M  V30 2461 H 249.007 -1.81654 5.58816 0
M  V30 2462 H 250.531 -2.73968 5.45687 0
M  V30 2463 H 251.945 -0.482687 5.71264 0
M  V30 2464 H 250.342 0.256199 5.99553 0
M  V30 2465 H 251.412 0.938174 4.75738 0
M  V30 2466 N 252.755 -1.56801 0.158532 0
M  V30 2467 C 253.665 -2.20916 -0.789518 0
M  V30 2468 C 254.681 -1.1969 -1.26294 0
M  V30 2469 O 255.857 -1.52308 -1.31773 0
M  V30 2470 C 252.922 -2.82727 -2.00665 0
M  V30 2471 C 251.983 -3.99114 -1.58134 0
M  V30 2472 C 251.216 -4.57968 -2.74045 0
M  V30 2473 O 251.439 -4.15704 -3.90572 0
M  V30 2474 O 250.373 -5.48047 -2.48855 0
M  V30 2475 H 254.199 -3.02464 -0.273681 0
M  V30 2476 H 251.784 -1.4924 -0.0690548 0
M  V30 2477 H 253.666 -3.21968 -2.71872 0
M  V30 2478 H 252.341 -2.04184 -2.51179 0
M  V30 2479 H 251.248 -3.64567 -0.839155 0
M  V30 2480 H 252.581 -4.79212 -1.12325 0
M  V30 2481 N 254.233 0.115231 -1.57178 0
M  V30 2482 C 255.479 0.818565 -1.86202 0
M  V30 2483 C 255.834 1.77316 -0.746785 0
M  V30 2484 O 255.127 1.89923 0.25291 0
M  V30 2485 C 255.321 1.60324 -3.19423 0
M  V30 2486 C 255.15 0.726138 -4.43799 0
M  V30 2487 C 253.92 0.379535 -5.03873 0
M  V30 2488 C 256.118 0.0420774 -5.14283 0
M  V30 2489 N 254.1 -0.507841 -6.11796 0
M  V30 2490 C 255.471 -0.704152 -6.15988 0
M  V30 2491 C 257.526 -0.0339486 -4.97888 0
M  V30 2492 C 256.229 -1.51927 -7.03072 0
M  V30 2493 C 258.255 -0.835906 -5.85463 0
M  V30 2494 C 257.617 -1.57031 -6.86673 0
M  V30 2495 H 253.716 0.276343 -0.731545 0
M  V30 2496 H 256.3 0.0821032 -1.94527 0
M  V30 2497 H 254.471 2.31072 -3.12186 0
M  V30 2498 H 256.203 2.2522 -3.36241 0
M  V30 2499 H 252.958 0.722634 -4.68054 0
M  V30 2500 H 253.382 -0.94349 -6.70393 0
M  V30 2501 H 258.024 0.519496 -4.19596 0
M  V30 2502 H 255.742 -2.08386 -7.80769 0
M  V30 2503 H 259.328 -0.89714 -5.74841 0
M  V30 2504 H 258.208 -2.18088 -7.53264 0
M  V30 2505 N 255.711 1.52812 0.385517 0
M  V30 2506 C 256.96 1.67249 1.12741 0
M  V30 2507 C 257.273 0.4205 1.91027 0
M  V30 2508 O 258.479 0.445064 2.67827 0
M  V30 2509 C 256.935 2.95583 2.05326 0
M  V30 2510 C 256.543 4.27974 1.32447 0
M  V30 2511 C 258.287 3.19386 2.7963 0
M  V30 2512 C 256.194 5.47412 2.23818 0
M  V30 2513 H 255.124 0.6231 0.424573 0
M  V30 2514 H 257.775 1.79309 0.389924 0
M  V30 2515 H 256.157 2.77277 2.82725 0
M  V30 2516 H 257.331 4.56844 0.602495 0
M  V30 2517 H 255.646 4.10459 0.700885 0
M  V30 2518 H 258.243 4.05801 3.48181 0
M  V30 2519 H 258.586 2.34604 3.43899 0
M  V30 2520 H 259.119 3.38274 2.09322 0
M  V30 2521 H 255.858 6.34612 1.64157 0
M  V30 2522 H 255.378 5.22849 2.93921 0
M  V30 2523 H 257.057 5.81423 2.83824 0
M  V30 2524 N 257.189 -0.644168 1.43834 0
M  V30 2525 C 258.437 -1.40117 1.45642 0
M  V30 2526 C 258.758 -1.94814 0.0852413 0
M  V30 2527 O 258.028 -1.74988 -0.880688 0
M  V30 2528 H 256.608 -0.52005 0.536243 0
M  V30 2529 H 259.27 -0.7591 1.7951 0
M  V30 2530 H 258.366 -2.23902 2.17427 0
M  V30 2531 N 258.668 -1.30515 -0.883378 0
M  V30 2532 C 259.6 -1.12846 -1.99496 0
M  V30 2533 C 260.613 -0.0712571 -1.62644 0
M  V30 2534 O 261.802 -0.317432 -1.75655 0
M  V30 2535 C 258.902 -0.699123 -3.3161 0
M  V30 2536 C 258.075 -1.83842 -3.96889 0
M  V30 2537 C 257.134 -1.39737 -5.07307 0
M  V30 2538 O 256.16 -2.10485 -5.28852 0
M  V30 2539 N 257.362 -0.277279 -5.79837 0
M  V30 2540 H 260.127 -2.08585 -2.15203 0
M  V30 2541 H 257.688 -1.22672 -1.05656 0
M  V30 2542 H 259.68 -0.387044 -4.02845 0
M  V30 2543 H 258.25 0.166276 -3.12157 0
M  V30 2544 H 257.47 -2.31853 -3.18807 0
M  V30 2545 H 258.758 -2.60187 -4.37241 0
M  V30 2546 H 258.156 0.3122 -5.64838 0
M  V30 2547 H 256.713 -0.0246623 -6.51795 0
M  V30 2548 N 260.146 1.09593 -1.13257 0
M  V30 2549 C 261.395 1.81105 -0.887917 0
M  V30 2550 C 261.708 1.86563 0.587672 0
M  V30 2551 O 262.914 2.54367 0.949204 0
M  V30 2552 C 261.37 3.25338 -1.53895 0
M  V30 2553 C 260.978 3.28151 -3.04994 0
M  V30 2554 C 262.722 4.01617 -1.37492 0
M  V30 2555 C 260.629 4.66897 -3.6299 0
M  V30 2556 H 259.559 0.678661 -0.328534 0
M  V30 2557 H 262.21 1.23183 -1.36008 0
M  V30 2558 H 260.592 3.8331 -0.994446 0
M  V30 2559 H 261.766 2.79953 -3.66009 0
M  V30 2560 H 260.081 2.65361 -3.20893 0
M  V30 2561 H 262.678 5.04119 -1.78235 0
M  V30 2562 H 263.021 4.15072 -0.31957 0
M  V30 2563 H 263.554 3.50082 -1.88912 0
M  V30 2564 H 260.293 4.58643 -4.68323 0
M  V30 2565 H 259.813 5.15426 -3.06752 0
M  V30 2566 H 261.492 5.3587 -3.62563 0
M  V30 2567 N 261.624 0.925811 1.2754 0
M  V30 2568 C 262.87 0.575575 1.95086 0
M  V30 2569 C 263.225 -0.873246 1.71441 0
M  V30 2570 O 262.518 -1.61443 1.03183 0
M  V30 2571 C 262.712 0.835296 3.47502 0
M  V30 2572 C 262.541 2.30781 3.85967 0
M  V30 2573 C 261.311 2.96017 4.09514 0
M  V30 2574 C 263.509 3.28519 3.95702 0
M  V30 2575 N 261.491 4.3344 4.34744 0
M  V30 2576 C 262.862 4.51146 4.25285 0
M  V30 2577 C 264.917 3.23753 3.7827 0
M  V30 2578 C 263.62 5.69606 4.39251 0
M  V30 2579 C 265.646 4.41523 3.9346 0
M  V30 2580 C 265.008 5.62928 4.23428 0
M  V30 2581 H 261.107 0.260711 0.737261 0
M  V30 2582 H 263.691 1.19204 1.53943 0
M  V30 2583 H 261.862 0.248005 3.87607 0
M  V30 2584 H 263.594 0.447878 4.02214 0
M  V30 2585 H 260.349 2.46695 4.04275 0
M  V30 2586 H 260.773 5.04528 4.5142 0
M  V30 2587 H 265.415 2.3096 3.54143 0
M  V30 2588 H 263.133 6.62866 4.62205 0
M  V30 2589 H 266.719 4.39351 3.81394 0
M  V30 2590 H 265.599 6.52538 4.34929 0
M  V30 2591 N 263.102 -1.41638 0.69111 0
M  V30 2592 C 264.513 -1.84346 0.295517 0
M  V30 2593 C 264.864 -1.57833 -1.16547 0
M  V30 2594 O 263.989 -1.04648 -1.89414 0
M  V30 2595 C 264.584 -3.34636 0.529575 0
M  V30 2596 C 263.143 -3.7593 0.187944 0
M  V30 2597 C 262.29 -2.65082 0.814052 0
M  V30 2598 H 265.241 -1.31253 0.892092 0
M  V30 2599 H 265.262 -3.79903 -0.213148 0
M  V30 2600 H 264.774 -3.53901 1.59297 0
M  V30 2601 H 262.875 -3.62268 -0.871367 0
M  V30 2602 H 262.988 -4.74808 0.63985 0
M  V30 2603 H 261.352 -2.53528 0.244017 0
M  V30 2604 H 262.135 -2.87167 1.88123 0
M  V30 2605 N 264.58 -0.43555 -1.51462 0
M  V30 2606 C 265.828 0.131254 -2.01673 0
M  V30 2607 C 266.149 1.43368 -1.32177 0
M  V30 2608 O 265.419 1.90524 -0.455769 0
M  V30 2609 H 263.999 0.0514954 -0.745223 0
M  V30 2610 H 266.661 -0.577847 -1.86137 0
M  V30 2611 H 265.757 0.308446 -3.10572 0
M  V30 2612 N 266.058 1.56714 -0.166846 0
M  V30 2613 C 267.335 1.88412 0.525373 0
M  V30 2614 C 267.715 1.07602 1.81618 0
M  V30 2615 O 267.063 0.168621 2.27877 0
M  V30 2616 C 267.273 3.40363 0.771613 0
M  V30 2617 C 268.621 4.10007 1.1036 0
M  V30 2618 O 269.645 3.45655 0.860304 0
M  V30 2619 O 268.504 5.2369 1.56239 0
M  V30 2620 H 265.598 0.781587 0.270278 0
M  V30 2621 H 268.144 1.68458 -0.204946 0
M  V30 2622 H 266.916 3.91046 -0.141093 0
M  V30 2623 H 266.539 3.65914 1.55541 0
M  V30 2624 N 267.536 -0.106894 1.57237 0
M  V30 2625 C 268.784 -0.810921 1.85117 0
M  V30 2626 C 269.105 -1.7984 0.753827 0
M  V30 2627 O 268.375 -1.94649 -0.221056 0
M  V30 2628 H 266.955 -0.302466 0.683025 0
M  V30 2629 H 269.617 -0.0913324 1.94686 0
M  V30 2630 H 268.713 -1.34875 2.81452 0
M  V30 2631 N 269.014 -1.53014 -0.377408 0
M  V30 2632 C 270.291 -1.59215 -1.13622 0
M  V30 2633 C 270.671 -0.392407 -2.07421 0
M  V30 2634 O 270.019 0.618342 -2.19975 0
M  V30 2635 C 270.229 -2.93669 -1.88573 0
M  V30 2636 C 271.577 -3.47822 -2.43526 0
M  V30 2637 O 272.601 -2.9562 -1.98715 0
M  V30 2638 O 271.46 -4.39055 -3.25412 0
M  V30 2639 H 268.554 -0.642625 -0.52054 0
M  V30 2640 H 271.1 -1.65353 -0.381625 0
M  V30 2641 H 269.872 -3.7243 -1.20048 0
M  V30 2642 H 269.495 -2.90968 -2.70968 0
M  V30 2643 N 270.492 0.636531 -1.44174 0
M  V30 2644 C 271.72 1.42353 -1.50144 0
M  V30 2645 C 272.135 1.88389 -0.124575 0
M  V30 2646 O 271.492 1.6051 0.868489 0
M  V30 2647 C 271.543 2.64744 -2.46156 0
M  V30 2648 O 271.264 2.20629 -3.7849 0
M  V30 2649 C 272.765 3.57929 -2.61537 0
M  V30 2650 H 269.985 0.436752 -0.5094 0
M  V30 2651 H 272.529 0.778933 -1.89084 0
M  V30 2652 H 270.684 3.25307 -2.10366 0
M  V30 2653 H 271.098 2.99938 -4.30276 0
M  V30 2654 H 272.572 4.40428 -3.32757 0
M  V30 2655 H 273.049 4.06382 -1.66585 0
M  V30 2656 H 273.655 3.03238 -2.98206 0
M  V30 2657 N 271.97 1.30982 0.876444 0
M  V30 2658 C 272.918 1.18006 2.00443 0
M  V30 2659 C 273.912 0.0898871 1.69161 0
M  V30 2660 O 275.118 0.251333 1.78237 0
M  V30 2661 H 271.493 0.365196 0.65737 0
M  V30 2662 H 273.464 2.13453 2.0852 0
M  V30 2663 C 272.213 0.897521 3.35916 0
M  V30 2664 H 271.536 1.7285 3.60504 0
M  V30 2665 H 272.976 0.846874 4.15456 0
M  V30 2666 C 271.435 -0.399674 3.34521 0
M  V30 2667 O 271.965 -1.41852 3.7582 0
M  V30 2668 N 270.171 -0.413893 2.87637 0
M  V30 2669 H 269.718 0.41571 2.54224 0
M  V30 2670 H 269.676 -1.28175 2.87086 0
M  V30 2671 N 273.449 -1.08991 1.13837 0
M  V30 2672 C 274.679 -1.84743 0.924859 0
M  V30 2673 C 275.087 -1.81629 -0.529874 0
M  V30 2674 O 274.43 -1.21397 -1.37872 0
M  V30 2675 C 274.492 -3.33568 1.34061 0
M  V30 2676 C 274.156 -3.60425 2.80968 0
M  V30 2677 C 275.153 -3.55771 3.79108 0
M  V30 2678 C 272.838 -3.88627 3.18236 0
M  V30 2679 C 274.832 -3.78939 5.12527 0
M  V30 2680 C 272.519 -4.11449 4.51833 0
M  V30 2681 C 273.517 -4.06598 5.48787 0
M  V30 2682 O 273.205 -4.28826 6.79973 0
M  V30 2683 H 272.937 -0.590258 0.329502 0
M  V30 2684 H 275.491 -1.38598 1.51591 0
M  V30 2685 H 273.721 -3.80442 0.692853 0
M  V30 2686 H 275.41 -3.90743 1.09886 0
M  V30 2687 H 276.176 -3.34005 3.51661 0
M  V30 2688 H 272.055 -3.91526 2.43369 0
M  V30 2689 H 275.599 -3.75068 5.88192 0
M  V30 2690 H 271.496 -4.32698 4.79002 0
M  V30 2691 H 272.264 -4.46264 6.86142 0
M  V30 2692 N 274.927 -0.932562 -1.27047 0
M  V30 2693 C 275.875 -0.42603 -2.28665 0
M  V30 2694 C 276.869 0.49219 -1.62092 0
M  V30 2695 O 278.075 0.371355 -1.76128 0
M  V30 2696 H 274.45 -0.119213 -0.742491 0
M  V30 2697 H 276.421 -1.29579 -2.68797 0
M  V30 2698 C 275.17 0.301426 -3.46391 0
M  V30 2699 H 274.493 -0.39595 -3.97834 0
M  V30 2700 H 275.933 0.6202 -4.1944 0
M  V30 2701 C 274.392 1.51616 -3.00856 0
M  V30 2702 O 274.922 2.61476 -3.04948 0
M  V30 2703 N 273.128 1.36969 -2.56296 0
M  V30 2704 H 272.675 0.475873 -2.53166 0
M  V30 2705 H 272.633 2.18368 -2.26192 0
M  V30 2706 N 276.405 1.4127 -0.698611 0
M  V30 2707 C 277.653 2.00782 -0.230409 0
M  V30 2708 C 277.974 1.5562 1.17505 0
M  V30 2709 O 277.244 0.78815 1.79346 0
M  V30 2710 H 275.824 0.742464 -0.0821944 0
M  V30 2711 H 278.486 1.72852 -0.90045 0
M  V30 2712 H 277.582 3.11095 -0.25021 0
M  V30 2713 N 277.883 0.443576 1.51229 0
M  V30 2714 C 278.83 -0.364716 2.279 0
M  V30 2715 C 279.8 -1.0114 1.31757 0
M  V30 2716 O 280.985 -1.02912 1.60667 0
M  V30 2717 C 278.125 -1.45644 3.12861 0
M  V30 2718 C 277.238 -0.827269 4.24005 0
M  V30 2719 C 276.373 -1.89456 4.96266 0
M  V30 2720 C 275.412 -1.24416 5.99322 0
M  V30 2721 N 274.549 -2.25309 6.64966 0
M  V30 2722 H 279.389 0.295464 2.96532 0
M  V30 2723 H 276.926 0.157554 1.46254 0
M  V30 2724 H 278.884 -2.10076 3.6045 0
M  V30 2725 H 277.514 -2.08616 2.46331 0
M  V30 2726 H 276.566 -0.0710839 3.80334 0
M  V30 2727 H 277.878 -0.312481 4.9782 0
M  V30 2728 H 277.032 -2.61535 5.47434 0
M  V30 2729 H 275.771 -2.4431 4.22095 0
M  V30 2730 H 274.776 -0.508868 5.4744 0
M  V30 2731 H 276.001 -0.702882 6.75453 0
M  V30 2732 H 273.947 -2.79231 5.93604 0
M  V30 2733 H 273.864 -1.78739 7.34567 0
M  V30 2734 H 275.132 -2.96853 7.20763 0
M  V30 2735 N 279.361 -1.56624 0.175154 0
M  V30 2736 C 280.608 -1.96999 -0.468811 0
M  V30 2737 C 280.936 -1.06129 -1.62994 0
M  V30 2738 O 280.191 -0.0961771 -1.95464 0
M  V30 2739 C 280.49 -3.43419 -0.989864 0
M  V30 2740 C 280.156 -4.50866 0.0557687 0
M  V30 2741 C 278.818 -4.79975 0.343134 0
M  V30 2742 C 281.17 -5.15551 0.765308 0
M  V30 2743 C 278.498 -5.71066 1.34536 0
M  V30 2744 C 280.85 -6.07724 1.75654 0
M  V30 2745 C 279.514 -6.35199 2.05132 0
M  V30 2746 H 278.784 -0.720869 -0.17155 0
M  V30 2747 H 281.431 -1.89616 0.267924 0
M  V30 2748 H 279.736 -3.47772 -1.80449 0
M  V30 2749 H 281.433 -3.72002 -1.49719 0
M  V30 2750 H 278.023 -4.28229 -0.178381 0
M  V30 2751 H 282.207 -4.9317 0.556513 0
M  V30 2752 H 277.463 -5.90635 1.57988 0
M  V30 2753 H 281.637 -6.56912 2.31169 0
M  V30 2754 H 279.264 -7.05584 2.8294 0
M  V30 2755 N 280.839 0.0985539 -1.57292 0
M  V30 2756 C 281.786 1.11981 -2.01814 0
M  V30 2757 C 282.756 1.39999 -0.89384 0
M  V30 2758 O 283.941 1.5152 -1.15958 0
M  V30 2759 C 281.081 2.43577 -2.44467 0
M  V30 2760 C 280.194 2.2232 -3.70402 0
M  V30 2761 C 279.329 3.4729 -4.01949 0
M  V30 2762 C 278.368 3.2128 -5.21005 0
M  V30 2763 N 277.505 4.38507 -5.48321 0
M  V30 2764 H 282.345 0.733149 -2.88841 0
M  V30 2765 H 279.882 0.350482 -1.42864 0
M  V30 2766 H 281.84 3.20373 -2.6724 0
M  V30 2767 H 280.47 2.80097 -1.60455 0
M  V30 2768 H 279.522 1.36343 -3.55126 0
M  V30 2769 H 280.834 1.99089 -4.57345 0
M  V30 2770 H 279.988 4.32495 -4.25479 0
M  V30 2771 H 278.727 3.73572 -3.13521 0
M  V30 2772 H 277.732 2.34468 -4.97298 0
M  V30 2773 H 278.957 2.96348 -6.11028 0
M  V30 2774 H 276.903 4.64871 -4.62851 0
M  V30 2775 H 276.82 4.18455 -6.29628 0
M  V30 2776 H 278.088 5.24787 -5.76385 0
M  V30 2777 N 282.317 1.53212 0.369288 0
M  V30 2778 C 283.565 1.68881 1.11012 0
M  V30 2779 C 283.886 0.441285 1.89941 0
M  V30 2780 O 283.156 -0.544623 1.88177 0
M  V30 2781 H 281.736 0.622569 0.412816 0
M  V30 2782 H 284.398 1.90391 0.416802 0
M  V30 2783 H 283.494 2.54822 1.80201 0
M  V30 2784 N 283.795 -0.628877 1.44509 0
M  V30 2785 C 284.742 -1.74074 1.51549 0
M  V30 2786 C 285.712 -1.62084 0.363021 0
M  V30 2787 O 286.897 -1.81975 0.573567 0
M  V30 2788 C 284.037 -3.12328 1.46784 0
M  V30 2789 C 283.15 -3.35277 2.72422 0
M  V30 2790 C 282.285 -4.63515 2.59475 0
M  V30 2791 C 281.324 -4.7965 3.80266 0
M  V30 2792 N 280.461 -5.99168 3.65981 0
M  V30 2793 H 285.301 -1.67392 2.46544 0
M  V30 2794 H 282.838 -0.816527 1.22357 0
M  V30 2795 H 284.796 -3.92286 1.42012 0
M  V30 2796 H 283.426 -3.18018 0.553544 0
M  V30 2797 H 282.478 -2.49242 2.87372 0
M  V30 2798 H 283.79 -3.43078 3.62076 0
M  V30 2799 H 282.944 -5.51638 2.52548 0
M  V30 2800 H 281.683 -4.58076 1.67384 0
M  V30 2801 H 280.688 -3.89957 3.87574 0
M  V30 2802 H 281.913 -4.86902 4.73395 0
M  V30 2803 H 279.859 -5.94814 2.76644 0
M  V30 2804 H 279.776 -6.08035 4.49254 0
M  V30 2805 H 281.044 -6.89846 3.6295 0
M  V30 2806 N 285.273 -1.31445 -0.869486 0
M  V30 2807 C 286.236 -1.19094 -1.9583 0
M  V30 2808 C 287.236 -0.117906 -1.60367 0
M  V30 2809 O 288.426 -0.367208 -1.70286 0
M  V30 2810 C 285.558 -0.828165 -3.30688 0
M  V30 2811 H 286.751 -2.15842 -2.08212 0
M  V30 2812 H 284.304 -1.15063 -1.05784 0
M  V30 2813 H 285.039 0.138142 -3.24006 0
M  V30 2814 H 284.824 -1.6038 -3.578 0
M  V30 2815 H 286.314 -0.765658 -4.10521 0
M  V30 2816 N 286.751 1.08385 -1.14413 0
M  V30 2817 C 287.979 1.84517 -0.936001 0
M  V30 2818 C 288.394 1.81626 0.515503 0
M  V30 2819 O 287.751 1.22008 1.35721 0
M  V30 2820 C 287.802 3.32049 -1.42918 0
M  V30 2821 O 287.523 3.34951 -2.82381 0
M  V30 2822 C 289.024 4.24986 -1.26103 0
M  V30 2823 H 286.244 0.582491 -0.333084 0
M  V30 2824 H 288.788 1.36885 -1.5193 0
M  V30 2825 H 286.943 3.7707 -0.888641 0
M  V30 2826 H 287.357 4.27048 -3.04517 0
M  V30 2827 H 288.831 5.26615 -1.6547 0
M  V30 2828 H 289.308 4.38726 -0.20392 0
M  V30 2829 H 289.914 3.85791 -1.79012 0
M  V30 2830 N 288.23 0.939286 1.26551 0
M  V30 2831 C 289.16 0.465044 2.28822 0
M  V30 2832 C 290.141 -0.480692 1.63167 0
M  V30 2833 O 291.326 -0.382955 1.90387 0
M  V30 2834 C 288.456 -0.27234 3.46231 0
M  V30 2835 C 287.41 0.58666 4.2396 0
M  V30 2836 C 286.736 -0.280573 5.33963 0
M  V30 2837 C 288.036 1.85704 4.88171 0
M  V30 2838 H 289.73 1.31979 2.68741 0
M  V30 2839 H 287.276 0.636061 1.29191 0
M  V30 2840 H 289.229 -0.615133 4.16886 0
M  V30 2841 H 287.953 -1.16121 3.0526 0
M  V30 2842 H 286.612 0.91232 3.55067 0
M  V30 2843 H 286.26 -1.16874 4.89234 0
M  V30 2844 H 285.96 0.29076 5.8688 0
M  V30 2845 H 287.484 -0.618678 6.07458 0
M  V30 2846 H 288.898 1.58161 5.51052 0
M  V30 2847 H 287.295 2.37279 5.51197 0
M  V30 2848 H 288.365 2.56957 4.11219 0
M  V30 2849 N 289.708 -1.40897 0.706093 0
M  V30 2850 C 290.936 -2.05373 0.250887 0
M  V30 2851 C 291.351 -1.53172 -1.10381 0
M  V30 2852 O 290.708 -0.684305 -1.69185 0
M  V30 2853 C 290.759 -3.6088 0.211571 0
M  V30 2854 O 290.48 -4.11153 1.51276 0
M  V30 2855 C 291.981 -4.42517 -0.263346 0
M  V30 2856 H 289.201 -0.66115 0.114552 0
M  V30 2857 H 291.745 -1.80479 0.961635 0
M  V30 2858 H 289.9 -3.84777 -0.450073 0
M  V30 2859 H 290.314 -5.05279 1.40689 0
M  V30 2860 H 291.788 -5.51479 -0.239718 0
M  V30 2861 H 292.265 -4.19396 -1.30397 0
M  V30 2862 H 292.871 -4.23708 0.367677 0
M  V30 2863 N 291.186 -0.45159 -1.50991 0
M  V30 2864 C 292.149 0.341117 -2.26647 0
M  V30 2865 C 293.149 0.937422 -1.30649 0
M  V30 2866 O 294.339 0.809644 -1.54241 0
M  V30 2867 C 291.471 1.48398 -3.06905 0
M  V30 2868 H 292.664 -0.322117 -2.98165 0
M  V30 2869 H 290.217 -0.205122 -1.54948 0
M  V30 2870 H 290.952 2.18284 -2.39838 0
M  V30 2871 H 290.737 1.06241 -3.77432 0
M  V30 2872 H 292.227 2.04367 -3.64176 0
M  V30 2873 N 292.664 1.56529 -0.183458 0
M  V30 2874 C 293.941 1.88959 0.50536 0
M  V30 2875 C 294.321 1.09523 1.80466 0
M  V30 2876 O 293.669 0.19278 2.27685 0
M  V30 2877 C 293.879 3.41162 0.73547 0
M  V30 2878 C 295.227 4.11155 1.06005 0
M  V30 2879 O 296.251 3.46548 0.823594 0
M  V30 2880 O 295.11 5.25318 1.50675 0
M  V30 2881 H 292.204 0.78441 0.261973 0
M  V30 2882 H 294.75 1.68231 -0.222802 0
M  V30 2883 H 293.522 3.90874 -0.182561 0
M  V30 2884 H 293.145 3.67543 1.51651 0
M  V30 2885 N 294.142 -0.090211 1.57342 0
M  V30 2886 C 295.052 -1.12735 2.05738 0
M  V30 2887 C 296.068 -1.43557 0.983231 0
M  V30 2888 O 297.244 -1.54101 1.29672 0
M  V30 2889 C 294.309 -2.42659 2.47624 0
M  V30 2890 C 293.37 -2.18975 3.69254 0
M  V30 2891 C 292.603 -3.42704 4.09133 0
M  V30 2892 O 292.826 -4.51127 3.49057 0
M  V30 2893 O 291.76 -3.32003 5.02053 0
M  V30 2894 H 295.586 -0.746279 2.94388 0
M  V30 2895 H 293.171 -0.303064 1.46294 0
M  V30 2896 H 295.053 -3.19155 2.7517 0
M  V30 2897 H 293.728 -2.80182 1.62109 0
M  V30 2898 H 292.635 -1.40244 3.46818 0
M  V30 2899 H 293.968 -1.86342 4.55563 0
M  V30 2900 N 295.62 -1.53406 -0.361157 0
M  V30 2901 C 296.845 -1.74024 -1.12829 0
M  V30 2902 C 297.27 -0.470069 -1.82132 0
M  V30 2903 O 296.628 0.57619 -1.719 0
M  V30 2904 C 296.676 -2.90903 -2.13091 0
M  V30 2905 O 295.78 -2.59821 -3.20261 0
M  V30 2906 H 295.121 -0.577804 -0.327168 0
M  V30 2907 H 297.651 -2.00307 -0.41693 0
M  V30 2908 H 297.661 -3.17194 -2.56616 0
M  V30 2909 H 296.336 -3.83034 -1.62042 0
M  V30 2910 H 294.913 -2.44362 -2.81677 0
M  V30 2911 N 297.098 0.621204 -1.44841 0
M  V30 2912 C 298.323 1.41244 -1.51871 0
M  V30 2913 C 298.748 1.87519 -0.147764 0
M  V30 2914 O 298.106 1.59334 0.865 0
M  V30 2915 C 298.154 2.60221 -2.49634 0
M  V30 2916 O 297.258 3.60395 -2.00473 0
M  V30 2917 H 296.599 0.42223 -0.512463 0
M  V30 2918 H 299.129 0.757305 -1.90069 0
M  V30 2919 H 299.139 3.0764 -2.67996 0
M  V30 2920 H 297.814 2.25887 -3.4921 0
M  V30 2921 H 296.391 3.19717 -1.91925 0
M  V30 2922 N 298.576 1.31904 0.862503 0
M  V30 2923 C 299.801 1.25135 1.65397 0
M  V30 2924 C 300.226 -0.179 1.87246 0
M  V30 2925 O 299.584 -1.1277 1.4196 0
M  V30 2926 C 299.632 2.00832 2.99498 0
M  V30 2927 O 298.736 1.35075 3.89652 0
M  V30 2928 H 298.077 0.431655 0.504549 0
M  V30 2929 H 300.607 1.74094 1.07483 0
M  V30 2930 H 300.617 2.10709 3.49379 0
M  V30 2931 H 299.292 3.04847 2.82916 0
M  V30 2932 H 297.869 1.33696 3.48109 0
M  V30 2933 N 300.054 -1.07777 1.14986 0
M  V30 2934 C 301.282 -1.84018 0.945773 0
M  V30 2935 C 301.697 -1.81897 -0.505863 0
M  V30 2936 O 301.054 -1.22726 -1.35072 0
M  V30 2937 C 301.105 -3.31287 1.44677 0
M  V30 2938 O 300.826 -3.33449 2.84154 0
M  V30 2939 C 302.327 -4.24311 1.28355 0
M  V30 2940 H 299.547 -0.580716 0.336169 0
M  V30 2941 H 302.091 -1.36077 1.52654 0
M  V30 2942 H 300.246 -3.76594 0.908625 0
M  V30 2943 H 300.66 -4.25427 3.06777 0
M  V30 2944 H 302.134 -5.2573 1.68261 0
M  V30 2945 H 302.611 -4.38612 0.227184 0
M  V30 2946 H 303.217 -3.84836 1.81056 0
M  V30 2947 N 301.532 -0.945985 -1.26051 0
M  V30 2948 C 302.495 -0.463897 -2.24456 0
M  V30 2949 C 303.495 0.427655 -1.55009 0
M  V30 2950 O 304.685 0.226157 -1.72726 0
M  V30 2951 C 301.817 0.330812 -3.39291 0
M  V30 2952 H 303.01 -1.33357 -2.68619 0
M  V30 2953 H 300.563 -0.728416 -1.38289 0
M  V30 2954 H 301.298 1.21852 -3.00537 0
M  V30 2955 H 301.083 -0.308679 -3.90883 0
M  V30 2956 H 302.573 0.657865 -4.12386 0
M  V30 2957 N 303.011 1.40521 -0.713556 0
M  V30 2958 C 304.241 2.0494 -0.261395 0
M  V30 2959 C 304.649 1.53861 1.10107 0
M  V30 2960 O 303.992 0.689321 1.70276 0
M  V30 2961 C 304.054 3.59138 -0.161227 0
M  V30 2962 C 303.718 4.33096 -1.45865 0
M  V30 2963 C 304.715 4.61182 -2.40016 0
M  V30 2964 C 302.4 4.72043 -1.71701 0
M  V30 2965 C 304.394 5.27196 -3.58251 0
M  V30 2966 C 302.081 5.37789 -2.90218 0
M  V30 2967 C 303.079 5.65295 -3.83315 0
M  V30 2968 O 302.767 6.29683 -4.99754 0
M  V30 2969 H 302.499 0.666041 -0.115608 0
M  V30 2970 H 305.053 1.80954 -0.971849 0
M  V30 2971 H 303.283 3.81936 0.605153 0
M  V30 2972 H 304.972 4.05091 0.256105 0
M  V30 2973 H 305.738 4.31559 -2.21318 0
M  V30 2974 H 301.617 4.50003 -1.00092 0
M  V30 2975 H 305.161 5.48582 -4.30934 0
M  V30 2976 H 301.058 5.66831 -3.08825 0
M  V30 2977 H 301.826 6.4818 -4.99805 0
M  V30 2978 N 304.489 0.459591 1.5075 0
M  V30 2979 C 305.422 -0.386257 2.24907 0
M  V30 2980 C 306.4 -1.006 1.27744 0
M  V30 2981 O 307.584 -1.04416 1.56938 0
M  V30 2982 C 304.711 -1.54021 3.01654 0
M  V30 2983 C 303.757 -1.03898 4.13651 0
M  V30 2984 S 304.59 0.0370501 5.35487 0
M  V30 2985 C 305.746 -1.12105 6.15779 0
M  V30 2986 H 305.979 0.243272 2.96303 0
M  V30 2987 H 303.512 0.244339 1.52454 0
M  V30 2988 H 305.47 -2.20163 3.46466 0
M  V30 2989 H 304.131 -2.14121 2.29806 0
M  V30 2990 H 303.324 -1.90254 4.66711 0
M  V30 2991 H 302.926 -0.45545 3.71216 0
M  V30 2992 H 305.218 -2.03501 6.46215 0
M  V30 2993 H 306.161 -0.62995 7.05292 0
M  V30 2994 H 306.569 -1.36967 5.47631 0
M  V30 2995 N 305.967 -1.56429 0.191757 0
M  V30 2996 C 306.899 -2.16154 -0.762245 0
M  V30 2997 C 307.912 -1.12247 -1.17917 0
M  V30 2998 O 309.101 -1.39353 -1.11548 0
M  V30 2999 C 306.201 -2.70606 -2.04024 0
M  V30 3000 C 305.374 -3.99381 -1.78364 0
M  V30 3001 C 304.433 -4.38692 -2.90578 0
M  V30 3002 O 303.459 -5.06179 -2.6033 0
M  V30 3003 N 304.661 -4.01922 -4.18854 0
M  V30 3004 H 307.426 -2.98643 -0.251526 0
M  V30 3005 H 304.987 -1.61897 0.00967373 0
M  V30 3006 H 306.979 -2.93891 -2.78227 0
M  V30 3007 H 305.549 -1.9259 -2.46227 0
M  V30 3008 H 304.769 -3.84262 -0.879581 0
M  V30 3009 H 306.057 -4.83445 -1.58614 0
M  V30 3010 H 305.455 -3.47631 -4.46283 0
M  V30 3011 H 304.012 -4.30165 -4.89695 0
M  V30 3012 N 307.445 0.0818655 -1.57387 0
M  V30 3013 C 308.375 1.09885 -2.06028 0
M  V30 3014 C 309.356 1.4098 -0.951774 0
M  V30 3015 O 310.541 1.50781 -1.22387 0
M  V30 3016 C 307.671 2.4151 -2.4958 0
M  V30 3017 C 306.625 2.24792 -3.64215 0
M  V30 3018 C 305.951 3.61712 -3.93787 0
M  V30 3019 C 307.251 1.67749 -4.94629 0
M  V30 3020 H 308.945 0.694128 -2.91243 0
M  V30 3021 H 306.491 0.332448 -1.4011 0
M  V30 3022 H 308.444 3.12939 -2.82219 0
M  V30 3023 H 307.168 2.83943 -1.61381 0
M  V30 3024 H 305.827 1.55807 -3.31843 0
M  V30 3025 H 305.475 4.01697 -3.02735 0
M  V30 3026 H 305.175 3.51368 -4.70971 0
M  V30 3027 H 306.699 4.34587 -4.28913 0
M  V30 3028 H 308.113 2.29032 -5.25564 0
M  V30 3029 H 306.51 1.68128 -5.76067 0
M  V30 3030 H 307.58 0.638059 -4.80684 0
M  V30 3031 N 308.923 1.53595 0.353017 0
M  V30 3032 C 310.148 1.7462 1.11904 0
M  V30 3033 C 310.573 0.479721 1.8188 0
M  V30 3034 O 309.931 -0.567066 1.72204 0
M  V30 3035 C 309.979 2.92029 2.11545 0
M  V30 3036 O 309.083 2.61516 3.18878 0
M  V30 3037 H 308.424 0.579531 0.324099 0
M  V30 3038 H 310.954 2.00525 0.406301 0
M  V30 3039 H 310.964 3.18551 2.5493 0
M  V30 3040 H 309.639 3.83888 1.60008 0
M  V30 3041 H 308.216 2.45852 2.80377 0
M  V30 3042 N 310.401 -0.613514 1.45168 0
M  V30 3043 C 311.626 -1.40437 1.52618 0
M  V30 3044 C 312.051 -1.87438 0.157707 0
M  V30 3045 O 311.409 -1.59791 -0.856537 0
M  V30 3046 C 311.457 -2.58894 2.51011 0
M  V30 3047 O 310.561 -3.59326 2.02382 0
M  V30 3048 H 309.902 -0.419506 0.514695 0
M  V30 3049 H 312.432 -0.747215 1.90467 0
M  V30 3050 H 312.442 -3.06214 2.69624 0
M  V30 3051 H 311.117 -2.24032 3.50403 0
M  V30 3052 H 309.694 -3.18695 1.93618 0
M  V30 3053 N 311.879 -1.3236 -0.855495 0
M  V30 3054 C 312.809 -1.23833 -1.97958 0
M  V30 3055 C 313.79 -0.122361 -1.69659 0
M  V30 3056 O 314.975 -0.30939 -1.9172 0
M  V30 3057 C 312.105 -0.959772 -3.33775 0
M  V30 3058 C 311.059 -2.03689 -3.76424 0
M  V30 3059 C 310.385 -1.61075 -5.09862 0
M  V30 3060 C 311.685 -3.4518 -3.9198 0
M  V30 3061 H 313.379 -2.1788 -2.0535 0
M  V30 3062 H 310.925 -1.04891 -0.986605 0
M  V30 3063 H 312.878 -0.886678 -4.11966 0
M  V30 3064 H 311.602 0.0163404 -3.26596 0
M  V30 3065 H 310.261 -2.10012 -3.00484 0
M  V30 3066 H 309.909 -0.622107 -4.99138 0
M  V30 3067 H 309.609 -2.33143 -5.39368 0
M  V30 3068 H 311.133 -1.55201 -5.90546 0
M  V30 3069 H 312.547 -3.4145 -4.60526 0
M  V30 3070 H 310.944 -4.1559 -4.32903 0
M  V30 3071 H 312.014 -3.84903 -2.94919 0
M  V30 3072 N 313.357 1.07166 -1.15556 0
M  V30 3073 C 314.32 2.12589 -0.856644 0
M  V30 3074 C 315.32 1.6015 0.14444 0
M  V30 3075 O 316.51 1.7399 -0.0854163 0
M  V30 3076 C 313.642 3.39753 -0.279405 0
M  V30 3077 H 314.835 2.40539 -1.79112 0
M  V30 3078 H 312.388 1.23086 -0.963298 0
M  V30 3079 H 313.123 3.17447 0.663174 0
M  V30 3080 H 312.908 3.79117 -1.00063 0
M  V30 3081 H 314.398 4.17507 -0.0879113 0
M  V30 3082 N 314.835 0.952656 1.25548 0
M  V30 3083 C 316.06 0.623025 1.97821 0
M  V30 3084 C 316.485 -0.7976 1.70352 0
M  V30 3085 O 315.843 -1.53905 0.958283 0
M  V30 3086 C 315.891 0.885532 3.49558 0
M  V30 3087 O 314.995 -0.0366641 4.12384 0
M  V30 3088 H 314.336 0.237082 0.620232 0
M  V30 3089 H 316.866 1.27871 1.59719 0
M  V30 3090 H 316.876 0.811009 3.99858 0
M  V30 3091 H 315.551 1.92094 3.6888 0
M  V30 3092 H 314.128 0.0898954 3.72792 0
M  V30 3093 N 316.313 -1.40141 0.720998 0
M  V30 3094 C 317.223 -2.34486 0.0731031 0
M  V30 3095 C 318.239 -1.57587 -0.737723 0
M  V30 3096 O 319.415 -1.89949 -0.669429 0
M  V30 3097 C 316.48 -3.36528 -0.833656 0
M  V30 3098 C 315.541 -4.29298 -0.0121673 0
M  V30 3099 C 314.774 -5.26466 -0.875742 0
M  V30 3100 O 314.997 -5.29745 -2.11485 0
M  V30 3101 O 313.931 -6.01092 -0.31185 0
M  V30 3102 H 317.757 -2.9152 0.851444 0
M  V30 3103 H 315.342 -1.41427 0.481527 0
M  V30 3104 H 317.224 -3.99093 -1.35289 0
M  V30 3105 H 315.899 -2.81899 -1.59105 0
M  V30 3106 H 314.806 -3.70001 0.552262 0
M  V30 3107 H 316.139 -4.87094 0.707129 0
M  V30 3108 N 317.792 -0.46758 -1.50504 0
M  V30 3109 C 319.069 0.15003 -1.95024 0
M  V30 3110 C 319.449 1.57304 -1.40779 0
M  V30 3111 O 318.797 2.20281 -0.607319 0
M  V30 3112 C 319.007 0.0969324 -3.48865 0
M  V30 3113 C 320.355 0.287565 -4.23625 0
M  V30 3114 O 321.379 0.173678 -3.55776 0
M  V30 3115 O 320.238 0.517186 -5.44047 0
M  V30 3116 H 317.332 0.113582 -0.819163 0
M  V30 3117 H 319.878 -0.52773 -1.61286 0
M  V30 3118 H 318.65 -0.896732 -3.80886 0
M  V30 3119 H 318.273 0.816303 -3.8913 0
M  V30 3120 N 319.27 1.56325 -0.20005 0
M  V30 3121 C 320.495 2.02548 0.44597 0
M  V30 3122 C 320.92 1.07922 1.5406 0
M  V30 3123 O 320.278 0.0635775 1.81188 0
M  V30 3124 C 320.326 3.47175 0.974761 0
M  V30 3125 O 319.43 3.55671 2.08739 0
M  V30 3126 H 318.771 0.655862 0.103638 0
M  V30 3127 H 321.301 2.02201 -0.312381 0
M  V30 3128 H 321.311 3.87067 1.2901 0
M  V30 3129 H 319.986 4.15538 0.17347 0
M  V30 3130 H 318.563 3.27657 1.78032 0
M  V30 3131 N 320.748 -0.0735177 1.57428 0
M  V30 3132 C 321.711 -1.07192 2.02589 0
M  V30 3133 C 322.711 -1.31695 0.922661 0
M  V30 3134 O 323.901 -1.27445 1.18758 0
M  V30 3135 C 321.033 -2.41599 2.40506 0
M  V30 3136 H 322.226 -0.682727 2.92025 0
M  V30 3137 H 319.779 -0.319193 1.53006 0
M  V30 3138 H 320.514 -2.85354 1.5409 0
M  V30 3139 H 320.299 -2.25156 3.21009 0
M  V30 3140 H 321.789 -3.13367 2.76027 0
M  V30 3141 N 322.226 -1.5378 -0.344866 0
M  V30 3142 C 323.472 -1.71216 -1.08687 0
M  V30 3143 C 323.805 -0.473281 -1.88345 0
M  V30 3144 O 323.08 0.52968 -1.87149 0
M  V30 3145 C 323.363 -2.97486 -2.02914 0
M  V30 3146 C 323.216 -4.31579 -1.26727 0
M  V30 3147 C 324.535 -3.19422 -3.0275 0
M  V30 3148 H 321.654 -0.62301 -0.393735 0
M  V30 3149 H 324.296 -1.8645 -0.365563 0
M  V30 3150 H 322.446 -2.84629 -2.64421 0
M  V30 3151 H 324.118 -4.56284 -0.67845 0
M  V30 3152 H 322.361 -4.30049 -0.569273 0
M  V30 3153 H 323.032 -5.16106 -1.95803 0
M  V30 3154 H 325.508 -3.316 -2.51357 0
M  V30 3155 H 324.384 -4.09169 -3.65885 0
M  V30 3156 H 324.645 -2.35656 -3.74057 0
M  V30 3157 N 323.704 0.605807 -1.45491 0
M  V30 3158 C 324.934 1.38934 -1.52908 0
M  V30 3159 C 325.342 1.88513 -0.161086 0
M  V30 3160 O 324.685 1.62962 0.847891 0
M  V30 3161 C 324.747 2.62737 -2.45376 0
M  V30 3162 C 324.411 2.34785 -3.92078 0
M  V30 3163 C 325.408 1.95038 -4.8193 0
M  V30 3164 C 323.093 2.47642 -4.37011 0
M  V30 3165 C 325.087 1.68511 -6.14722 0
M  V30 3166 C 322.774 2.20728 -5.69844 0
M  V30 3167 C 323.772 1.81225 -6.58519 0
M  V30 3168 O 323.46 1.54627 -7.88889 0
M  V30 3169 H 323.192 0.431629 -0.520262 0
M  V30 3170 H 325.746 0.74573 -1.91384 0
M  V30 3171 H 323.976 3.29824 -2.01874 0
M  V30 3172 H 325.665 3.24783 -2.43456 0
M  V30 3173 H 326.431 1.84639 -4.48479 0
M  V30 3174 H 322.31 2.77356 -3.68232 0
M  V30 3175 H 325.854 1.37602 -6.83894 0
M  V30 3176 H 321.751 2.30744 -6.02849 0
M  V30 3177 H 322.519 1.68665 -8.00933 0
M  V30 3178 N 325.182 1.32811 0.848464 0
M  V30 3179 C 326.429 1.23724 1.60308 0
M  V30 3180 C 326.757 -0.1994 1.93475 0
M  V30 3181 O 326.012 -1.15406 1.5805 0
M  V30 3182 C 326.311 2.04831 2.92881 0
M  V30 3183 C 325.977 3.54125 2.79117 0
M  V30 3184 C 324.639 3.94829 2.7507 0
M  V30 3185 C 326.991 4.49036 2.64606 0
M  V30 3186 C 324.319 5.28675 2.544 0
M  V30 3187 C 326.671 5.83033 2.4547 0
M  V30 3188 C 325.335 6.22931 2.39819 0
M  V30 3189 H 324.605 0.452737 0.586609 0
M  V30 3190 H 327.252 1.64301 0.983743 0
M  V30 3191 H 325.557 1.57001 3.58968 0
M  V30 3192 H 327.254 1.95164 3.50303 0
M  V30 3193 H 323.844 3.21801 2.83094 0
M  V30 3194 H 328.028 4.18505 2.66772 0
M  V30 3195 H 323.284 5.58637 2.48465 0
M  V30 3196 H 327.458 6.56186 2.33222 0
M  V30 3197 H 325.085 7.26584 2.23562 0
M  V30 3198 N 326.66 -1.06551 1.16123 0
M  V30 3199 C 327.9 -1.80889 0.951766 0
M  V30 3200 C 328.264 -1.85062 -0.511465 0
M  V30 3201 O 329.465 -2.55353 -0.83954 0
M  V30 3202 C 327.736 -3.21609 1.55893 0
M  V30 3203 S 329.295 -4.12593 1.49373 0
M  V30 3204 H 326.113 -0.623156 0.342341 0
M  V30 3205 H 328.715 -1.27943 1.47821 0
M  V30 3206 H 327.419 -3.16165 2.61664 0
M  V30 3207 H 326.95 -3.79631 1.0317 0
M  V30 3208 H 328.965 -4.93753 0.492196 0
M  V30 3209 N 328.138 -0.959301 -1.25041 0
M  V30 3210 C 329.101 -0.487677 -2.23952 0
M  V30 3211 C 330.101 0.41119 -1.55454 0
M  V30 3212 O 331.291 0.207825 -1.72956 0
M  V30 3213 C 328.423 0.294807 -3.39623 0
M  V30 3214 H 329.616 -1.36198 -2.67189 0
M  V30 3215 H 327.169 -0.743042 -1.37508 0
M  V30 3216 H 327.904 1.18658 -3.01813 0
M  V30 3217 H 327.689 -0.35012 -3.90534 0
M  V30 3218 H 329.179 0.614089 -4.1306 0
M  V30 3219 N 329.616 1.39756 -0.72842 0
M  V30 3220 C 331.032 1.5442 -0.403308 0
M  V30 3221 C 331.232 1.69694 1.08656 0
M  V30 3222 O 330.288 1.69373 1.87267 0
M  V30 3223 C 331.601 2.76555 -1.18058 0
M  V30 3224 C 333.149 2.90384 -1.16815 0
M  V30 3225 C 333.624 4.15449 -1.92785 0
M  V30 3226 N 335.115 4.22475 -1.89918 0
M  V30 3227 C 335.85 5.1818 -2.45514 0
M  V30 3228 N 335.346 6.19714 -3.09719 0
M  V30 3229 N 337.139 5.1035 -2.35584 0
M  V30 3230 H 329.29 1.28089 -1.69431 0
M  V30 3231 H 331.553 0.620327 -0.716867 0
M  V30 3232 H 331.259 2.7159 -2.23455 0
M  V30 3233 H 331.133 3.69033 -0.780662 0
M  V30 3234 H 333.52 2.94846 -0.12234 0
M  V30 3235 H 333.601 1.98988 -1.6074 0
M  V30 3236 H 333.245 4.11749 -2.97364 0
M  V30 3237 H 333.175 5.05877 -1.46272 0
M  V30 3238 H 335.666 3.49743 -1.43138 0
M  V30 3239 H 335.979 6.8919 -3.49625 0
M  V30 3240 H 334.324 6.20121 -3.13807 0
M  V30 3241 H 337.515 4.2996 -1.85072 0
M  V30 3242 H 337.688 5.84761 -2.79211 0
M  V30 3243 N 331.094 0.475555 1.50254 0
M  V30 3244 C 332.51 0.12997 1.5907 0
M  V30 3245 C 332.71 -1.36385 1.48328 0
M  V30 3246 O 331.766 -2.13754 1.34407 0
M  V30 3247 C 333.079 0.684139 2.92814 0
M  V30 3248 C 334.627 0.647965 3.0622 0
M  V30 3249 C 335.102 1.17975 4.42545 0
M  V30 3250 N 336.593 1.13936 4.48969 0
M  V30 3251 C 337.328 1.52129 5.52851 0
M  V30 3252 N 336.824 1.97793 6.63965 0
M  V30 3253 N 338.617 1.43704 5.4342 0
M  V30 3254 H 330.768 1.44706 1.55479 0
M  V30 3255 H 333.031 0.598691 0.735033 0
M  V30 3256 H 332.737 1.73079 3.06164 0
M  V30 3257 H 332.611 0.130204 3.76975 0
M  V30 3258 H 334.998 -0.38979 2.92514 0
M  V30 3259 H 335.079 1.23876 2.23805 0
M  V30 3260 H 334.723 2.21616 4.57 0
M  V30 3261 H 334.653 0.565138 5.23559 0
M  V30 3262 H 337.144 0.804488 3.69238 0
M  V30 3263 H 337.457 2.25072 7.39299 0
M  V30 3264 H 335.802 2.01749 6.65073 0
M  V30 3265 H 338.993 1.07867 4.55502 0
M  V30 3266 H 339.166 1.73794 6.24259 0
M  V30 3267 N 332.573 -1.56217 0.208337 0
M  V30 3268 C 333.483 -2.23316 -0.718836 0
M  V30 3269 C 334.499 -1.23648 -1.22422 0
M  V30 3270 O 335.675 -1.56423 -1.26861 0
M  V30 3271 C 332.74 -2.88968 -1.91568 0
M  V30 3272 C 331.801 -4.03943 -1.45357 0
M  V30 3273 C 331.034 -4.66455 -2.59337 0
M  V30 3274 O 331.257 -4.27919 -3.77149 0
M  V30 3275 O 330.191 -5.55686 -2.31293 0
M  V30 3276 H 334.017 -3.03182 -0.177315 0
M  V30 3277 H 331.602 -1.49384 -0.0215402 0
M  V30 3278 H 333.484 -3.30455 -2.61491 0
M  V30 3279 H 332.159 -2.12071 -2.44556 0
M  V30 3280 H 331.066 -3.67052 -0.722746 0
M  V30 3281 H 332.399 -4.82543 -0.970219 0
M  V30 3282 N 334.051 0.0651679 -1.57465 0
M  V30 3283 C 335.279 0.775808 -1.91804 0
M  V30 3284 C 335.694 1.70782 -0.804916 0
M  V30 3285 O 335.051 1.81153 0.221311 0
M  V30 3286 C 335.102 1.56381 -3.25925 0
M  V30 3287 O 334.823 0.669248 -4.32958 0
M  V30 3288 C 336.324 2.37485 -3.7432 0
M  V30 3289 H 333.544 0.2202 -0.63384 0
M  V30 3290 H 336.088 0.0334587 -2.04473 0
M  V30 3291 H 334.243 2.25837 -3.14764 0
M  V30 3292 H 334.657 1.21801 -5.10162 0
M  V30 3293 H 336.131 2.88223 -4.70778 0
M  V30 3294 H 336.608 3.17307 -3.03666 0
M  V30 3295 H 337.214 1.73173 -3.88447 0
M  V30 3296 N 335.529 1.53961 0.336706 0
M  V30 3297 C 336.757 1.75483 1.09605 0
M  V30 3298 C 337.172 0.4972 1.82136 0
M  V30 3299 O 336.529 -0.53149 1.74589 0
M  V30 3300 C 336.58 2.93943 2.10428 0
M  V30 3301 O 336.301 4.14842 1.40846 0
M  V30 3302 C 337.802 3.27571 2.98684 0
M  V30 3303 H 335.022 0.586166 0.326574 0
M  V30 3304 H 337.566 2.00808 0.38683 0
M  V30 3305 H 335.721 2.70929 2.76905 0
M  V30 3306 H 336.135 4.81383 2.08255 0
M  V30 3307 H 337.609 4.13791 3.6535 0
M  V30 3308 H 338.086 2.44168 3.65074 0
M  V30 3309 H 338.692 3.52615 2.37787 0
M  V30 3310 N 337.007 -0.598083 1.45811 0
M  V30 3311 C 338.235 -1.38322 1.53866 0
M  V30 3312 C 338.65 -1.87992 0.174479 0
M  V30 3313 O 338.007 -1.62756 -0.825627 0
M  V30 3314 C 338.058 -2.58125 2.53089 0
M  V30 3315 O 337.779 -2.10516 3.84206 0
M  V30 3316 C 339.28 -3.50869 2.70935 0
M  V30 3317 H 336.5 -0.423093 0.520801 0
M  V30 3318 H 339.044 -0.728527 1.91083 0
M  V30 3319 H 337.199 -3.19615 2.18917 0
M  V30 3320 H 337.613 -2.88425 4.38077 0
M  V30 3321 H 339.087 -4.31451 3.44317 0
M  V30 3322 H 339.564 -4.01822 1.77301 0
M  V30 3323 H 340.17 -2.95225 3.06141 0
M  V30 3324 N 338.485 -1.33259 -0.841409 0
M  V30 3325 C 339.731 -1.24757 -1.59886 0
M  V30 3326 C 340.064 0.186913 -1.93298 0
M  V30 3327 O 339.339 1.12757 -1.5848 0
M  V30 3328 C 339.622 -2.12036 -2.91055 0
M  V30 3329 C 339.475 -3.63929 -2.6434 0
M  V30 3330 C 340.794 -1.9916 -3.92458 0
M  V30 3331 H 337.913 -0.454542 -0.580138 0
M  V30 3332 H 340.555 -1.63335 -0.970647 0
M  V30 3333 H 338.705 -1.79265 -3.44669 0
M  V30 3334 H 340.377 -4.06978 -2.17178 0
M  V30 3335 H 338.62 -3.85935 -1.98082 0
M  V30 3336 H 339.291 -4.20341 -3.57796 0
M  V30 3337 H 341.767 -2.27895 -3.48143 0
M  V30 3338 H 340.643 -2.62484 -4.82072 0
M  V30 3339 H 340.904 -0.963082 -4.31482 0
M  V30 3340 N 339.963 1.05934 -1.16686 0
M  V30 3341 C 341.211 1.78447 -0.948744 0
M  V30 3342 C 341.532 1.87813 0.524523 0
M  V30 3343 O 340.802 1.38945 1.38098 0
M  V30 3344 H 339.382 0.660971 -0.348033 0
M  V30 3345 H 342.044 1.27947 -1.47022 0
M  V30 3346 H 341.14 2.80394 -1.37061 0
M  V30 3347 N 341.441 0.965919 1.2453 0
M  V30 3348 C 342.857 0.67216 1.44756 0
M  V30 3349 C 343.057 -0.766609 1.86347 0
M  V30 3350 O 342.113 -1.5407 2.00047 0
M  V30 3351 C 343.426 1.65473 2.51076 0
M  V30 3352 C 344.974 1.66716 2.64905 0
M  V30 3353 C 345.449 2.63766 3.74421 0
M  V30 3354 N 346.94 2.62198 3.81846 0
M  V30 3355 C 347.675 3.33966 4.66106 0
M  V30 3356 N 347.171 4.15245 5.54566 0
M  V30 3357 N 348.964 3.22799 4.60171 0
M  V30 3358 H 341.115 1.89553 0.958293 0
M  V30 3359 H 343.378 0.815979 0.482579 0
M  V30 3360 H 343.084 2.68296 2.27399 0
M  V30 3361 H 342.958 1.4261 3.49202 0
M  V30 3362 H 345.345 0.646057 2.87941 0
M  V30 3363 H 345.426 1.93642 1.67142 0
M  V30 3364 H 345.07 3.6601 3.52135 0
M  V30 3365 H 345 2.34121 4.71694 0
M  V30 3366 H 347.491 2.032 3.18619 0
M  V30 3367 H 347.804 4.66898 6.15814 0
M  V30 3368 H 346.149 4.1934 5.54237 0
M  V30 3369 H 349.34 2.58764 3.90075 0
M  V30 3370 H 349.513 3.78994 5.25612 0
M  V30 3371 N 342.919 -1.39368 0.735821 0
M  V30 3372 C 344.149 -2.04498 0.293967 0
M  V30 3373 C 344.557 -1.55593 -1.07645 0
M  V30 3374 O 343.9 -0.716324 -1.69158 0
M  V30 3375 C 343.962 -3.58836 0.218342 0
M  V30 3376 C 343.626 -4.30721 1.52736 0
M  V30 3377 C 344.623 -4.57305 2.47322 0
M  V30 3378 C 342.308 -4.69251 1.79189 0
M  V30 3379 C 344.302 -5.21429 3.66593 0
M  V30 3380 C 341.989 -5.33104 2.98737 0
M  V30 3381 C 342.987 -5.59125 3.9226 0
M  V30 3382 O 342.675 -6.21653 5.09708 0
M  V30 3383 H 342.407 -0.664118 0.126189 0
M  V30 3384 H 344.961 -1.79385 1.00051 0
M  V30 3385 H 343.191 -3.8285 -0.544314 0
M  V30 3386 H 344.88 -4.05447 -0.191626 0
M  V30 3387 H 345.646 -4.27983 2.28156 0
M  V30 3388 H 341.525 -4.48354 1.07239 0
M  V30 3389 H 345.069 -5.41656 4.39607 0
M  V30 3390 H 340.966 -5.61846 3.17803 0
M  V30 3391 H 341.734 -6.40146 5.10054 0
M  V30 3392 N 344.397 -0.483516 -1.5 0
M  V30 3393 C 345.627 0.0643896 -2.065 0
M  V30 3394 C 346.035 1.32949 -1.34615 0
M  V30 3395 O 345.378 1.79003 -0.412756 0
M  V30 3396 C 345.44 0.405983 -3.572 0
M  V30 3397 C 345.104 -0.758875 -4.50655 0
M  V30 3398 C 346.101 -1.64445 -4.93208 0
M  V30 3399 C 343.786 -0.952725 -4.93182 0
M  V30 3400 C 345.78 -2.70818 -5.77006 0
M  V30 3401 C 343.467 -2.01966 -5.76761 0
M  V30 3402 C 344.465 -2.89574 -6.18576 0
M  V30 3403 O 344.153 -3.94429 -7.00486 0
M  V30 3404 H 343.885 -0.00934786 -0.675935 0
M  V30 3405 H 346.439 -0.674959 -1.93993 0
M  V30 3406 H 344.669 1.19869 -3.67652 0
M  V30 3407 H 346.358 0.890433 -3.96013 0
M  V30 3408 H 347.124 -1.50643 -4.61012 0
M  V30 3409 H 343.003 -0.280247 -4.60147 0
M  V30 3410 H 346.547 -3.3923 -6.09565 0
M  V30 3411 H 342.444 -2.1577 -6.0837 0
M  V30 3412 H 343.212 -3.91568 -7.1876 0
M  V30 3413 N 345.875 1.56104 -0.216619 0
M  V30 3414 C 347.105 2.02269 0.420802 0
M  V30 3415 C 347.513 1.09575 1.5424 0
M  V30 3416 O 346.856 0.0967308 1.83445 0
M  V30 3417 C 346.918 3.44784 1.01806 0
M  V30 3418 C 346.582 4.56988 0.0325154 0
M  V30 3419 C 347.579 5.14225 -0.766055 0
M  V30 3420 C 345.264 5.02228 -0.0848092 0
M  V30 3421 C 347.258 6.15169 -1.6687 0
M  V30 3422 C 344.945 6.03011 -0.990994 0
M  V30 3423 C 345.943 6.59357 -1.78149 0
M  V30 3424 O 345.631 7.58179 -2.67245 0
M  V30 3425 H 345.363 0.667353 0.107776 0
M  V30 3426 H 347.917 2.02747 -0.329034 0
M  V30 3427 H 346.147 3.41359 1.81689 0
M  V30 3428 H 347.836 3.74626 1.56237 0
M  V30 3429 H 348.602 4.80126 -0.685836 0
M  V30 3430 H 344.481 4.58054 0.520349 0
M  V30 3431 H 348.025 6.59076 -2.28615 0
M  V30 3432 H 343.922 6.36532 -1.07225 0
M  V30 3433 H 344.69 7.75682 -2.61265 0
M  V30 3434 N 347.353 -0.0568162 1.57498 0
M  V30 3435 C 348.316 -1.05038 2.03715 0
M  V30 3436 C 349.316 -1.30709 0.936577 0
M  V30 3437 O 350.506 -1.26178 1.20103 0
M  V30 3438 C 347.638 -2.39034 2.43055 0
M  V30 3439 H 348.831 -0.651715 2.92733 0
M  V30 3440 H 346.384 -0.302947 1.53336 0
M  V30 3441 H 347.119 -2.83703 1.57108 0
M  V30 3442 H 346.904 -2.21739 3.2338 0
M  V30 3443 H 348.394 -3.10421 2.79336 0
M  V30 3444 N 348.832 -1.54138 -0.328536 0
M  V30 3445 C 349.765 -1.78014 -1.4278 0
M  V30 3446 C 350.743 -0.629889 -1.49904 0
M  V30 3447 O 351.927 -0.866763 -1.6739 0
M  V30 3448 C 349.054 -1.89225 -2.80912 0
M  V30 3449 C 348.1 -3.11483 -2.91343 0
M  V30 3450 S 348.933 -4.70201 -2.56263 0
M  V30 3451 C 350.089 -4.84312 -3.96476 0
M  V30 3452 H 350.322 -2.70974 -1.22313 0
M  V30 3453 H 347.855 -1.45197 -0.525084 0
M  V30 3454 H 349.813 -1.9637 -3.60485 0
M  V30 3455 H 348.474 -0.972518 -2.98665 0
M  V30 3456 H 347.667 -3.16046 -3.92595 0
M  V30 3457 H 347.269 -3.02642 -2.19736 0
M  V30 3458 H 349.561 -4.66643 -4.91173 0
M  V30 3459 H 350.504 -5.86411 -3.96898 0
M  V30 3460 H 350.912 -4.12652 -3.85199 0
M  V30 3461 N 350.31 0.590341 -1.46126 0
M  V30 3462 C 351.587 1.35029 -1.41515 0
M  V30 3463 C 351.967 2.10888 -0.0946472 0
M  V30 3464 O 351.315 2.08998 0.923693 0
M  V30 3465 C 351.525 2.28269 -2.63997 0
M  V30 3466 C 352.873 2.90338 -3.09821 0
M  V30 3467 O 353.897 2.38585 -2.64492 0
M  V30 3468 O 352.756 3.84321 -3.88535 0
M  V30 3469 H 349.85 0.606317 -0.562413 0
M  V30 3470 H 352.396 0.611994 -1.58281 0
M  V30 3471 H 351.168 1.71591 -3.51671 0
M  V30 3472 H 350.791 3.0945 -2.49652 0
M  V30 3473 N 351.788 1.33704 0.83433 0
M  V30 3474 C 353.018 1.28281 1.6195 0
M  V30 3475 C 353.426 -0.147603 1.88623 0
M  V30 3476 O 352.769 -1.1016 1.47005 0
M  V30 3477 C 352.831 1.99386 2.99141 0
M  V30 3478 C 352.495 3.48681 2.95416 0
M  V30 3479 C 353.492 4.438 2.70809 0
M  V30 3480 C 351.177 3.90925 3.15409 0
M  V30 3481 C 353.171 5.79138 2.66229 0
M  V30 3482 C 350.858 5.26366 3.10454 0
M  V30 3483 C 351.856 6.20284 2.85895 0
M  V30 3484 O 351.544 7.53245 2.80852 0
M  V30 3485 H 351.276 0.44315 0.510484 0
M  V30 3486 H 353.83 1.76711 1.04702 0
M  V30 3487 H 352.06 1.45554 3.58261 0
M  V30 3488 H 353.749 1.87403 3.60049 0
M  V30 3489 H 354.515 4.12485 2.5511 0
M  V30 3490 H 350.394 3.18229 3.33543 0
M  V30 3491 H 353.938 6.52416 2.4698 0
M  V30 3492 H 349.835 5.57304 3.25703 0
M  V30 3493 H 350.603 7.62846 2.96661 0
M  V30 3494 N 353.266 -1.05314 1.17247 0
M  V30 3495 C 354.512 -1.78699 0.971513 0
M  V30 3496 C 354.867 -1.85932 -0.494692 0
M  V30 3497 O 354.16 -1.34716 -1.36243 0
M  V30 3498 C 354.354 -3.2229 1.54479 0
M  V30 3499 C 354.183 -3.29052 3.06521 0
M  V30 3500 C 352.953 -3.3841 3.75242 0
M  V30 3501 C 355.151 -3.18095 4.04129 0
M  V30 3502 N 353.133 -3.34289 5.14902 0
M  V30 3503 C 354.504 -3.21331 5.30232 0
M  V30 3504 C 356.559 -3.02049 3.95817 0
M  V30 3505 C 355.262 -3.10169 6.4899 0
M  V30 3506 C 357.288 -2.92228 5.14156 0
M  V30 3507 C 356.65 -2.96096 6.39145 0
M  V30 3508 H 352.749 -0.66628 0.409383 0
M  V30 3509 H 355.333 -1.25553 1.4881 0
M  V30 3510 H 353.504 -3.7381 1.05455 0
M  V30 3511 H 355.236 -3.83905 1.28059 0
M  V30 3512 H 351.991 -3.43621 3.25917 0
M  V30 3513 H 352.415 -3.35702 5.87906 0
M  V30 3514 H 357.057 -2.97897 3.00029 0
M  V30 3515 H 354.775 -3.13076 7.44989 0
M  V30 3516 H 358.361 -2.80885 5.09505 0
M  V30 3517 H 357.241 -2.88568 7.29176 0
M  V30 3518 N 354.744 -0.972509 -1.24016 0
M  V30 3519 C 355.992 -0.635776 -1.91839 0
M  V30 3520 C 356.313 0.832312 -1.76345 0
M  V30 3521 O 355.583 1.5946 -1.13795 0
M  V30 3522 H 354.163 -0.232157 -0.710009 0
M  V30 3523 H 356.825 -1.23462 -1.50809 0
M  V30 3524 H 355.921 -0.880545 -2.99421 0
M  V30 3525 N 356.222 1.38976 -0.743202 0
M  V30 3526 C 357.154 2.29096 -0.0689228 0
M  V30 3527 C 358.167 1.47229 0.694791 0
M  V30 3528 O 359.356 1.70212 0.537597 0
M  V30 3529 C 356.456 3.25988 0.926548 0
M  V30 3530 C 355.629 4.36833 0.222647 0
M  V30 3531 C 354.688 5.13981 1.12739 0
M  V30 3532 O 353.714 5.6601 0.601795 0
M  V30 3533 N 354.916 5.25966 2.45641 0
M  V30 3534 H 357.681 2.87604 -0.842846 0
M  V30 3535 H 355.242 1.50645 -0.593109 0
M  V30 3536 H 357.234 3.74476 1.5346 0
M  V30 3537 H 355.804 2.68453 1.60162 0
M  V30 3538 H 355.024 3.90116 -0.565983 0
M  V30 3539 H 356.312 5.0811 -0.264841 0
M  V30 3540 H 355.71 4.85228 2.9081 0
M  V30 3541 H 354.267 5.77865 3.01522 0
M  V30 3542 N 357.7 0.491464 1.49741 0
M  V30 3543 C 358.948 -0.0563141 2.02022 0
M  V30 3544 C 359.269 -1.38363 1.37407 0
M  V30 3545 O 358.539 -1.88702 0.526166 0
M  V30 3546 H 357.119 -0.0238014 0.746621 0
M  V30 3547 H 359.781 0.646533 1.83864 0
M  V30 3548 H 358.877 -0.192967 3.11503 0
M  V30 3549 N 359.178 -1.55987 0.224894 0
M  V30 3550 C 360.406 -2.02784 -0.410665 0
M  V30 3551 C 360.821 -1.10464 -1.53112 0
M  V30 3552 O 360.178 -0.114871 -1.82138 0
M  V30 3553 C 360.229 -3.49087 -0.939165 0
M  V30 3554 O 359.95 -4.37887 0.136614 0
M  V30 3555 C 361.451 -4.11543 -1.64763 0
M  V30 3556 H 358.671 -0.663484 -0.100148 0
M  V30 3557 H 361.215 -2.01614 0.342326 0
M  V30 3558 H 359.37 -3.50861 -1.64242 0
M  V30 3559 H 359.784 -5.23849 -0.261155 0
M  V30 3560 H 361.258 -5.15673 -1.96939 0
M  V30 3561 H 361.735 -3.56736 -2.56195 0
M  V30 3562 H 362.341 -4.13629 -0.989503 0
M  V30 3563 N 360.656 0.0484629 -1.57525 0
M  V30 3564 C 361.884 0.755421 -1.92616 0
M  V30 3565 C 362.299 1.69919 -0.822984 0
M  V30 3566 O 361.656 1.81378 0.202085 0
M  V30 3567 C 361.707 1.52915 -3.27566 0
M  V30 3568 O 361.428 0.62329 -4.33644 0
M  V30 3569 C 362.929 2.33502 -3.76818 0
M  V30 3570 H 360.149 0.213465 -0.63614 0
M  V30 3571 H 362.693 0.0117698 -2.04497 0
M  V30 3572 H 360.848 2.22486 -3.17142 0
M  V30 3573 H 361.262 1.16383 -5.11425 0
M  V30 3574 H 362.736 2.83214 -4.73808 0
M  V30 3575 H 363.213 3.14068 -3.07014 0
M  V30 3576 H 363.819 1.69043 -3.90262 0
M  V30 3577 N 362.134 1.5431 0.320358 0
M  V30 3578 C 363.38 1.72924 1.05949 0
M  V30 3579 C 363.713 0.503185 1.87568 0
M  V30 3580 O 362.988 -0.499839 1.87968 0
M  V30 3581 C 363.271 3.00676 1.98156 0
M  V30 3582 C 363.124 4.3354 1.19845 0
M  V30 3583 C 364.443 3.24198 2.9763 0
M  V30 3584 H 361.562 0.629195 0.383774 0
M  V30 3585 H 364.204 1.87008 0.335854 0
M  V30 3586 H 362.354 2.888 2.59859 0
M  V30 3587 H 364.026 4.57305 0.605773 0
M  V30 3588 H 362.269 4.309 0.500784 0
M  V30 3589 H 362.94 5.19156 1.87567 0
M  V30 3590 H 365.416 3.35557 2.4605 0
M  V30 3591 H 364.292 4.14938 3.59329 0
M  V30 3592 H 364.553 2.41577 3.7026 0
M  V30 3593 N 363.613 -0.582584 1.46437 0
M  V30 3594 C 364.841 -1.36682 1.55324 0
M  V30 3595 C 365.256 -1.87796 0.194409 0
M  V30 3596 O 364.613 -1.63623 -0.808318 0
M  V30 3597 C 364.664 -2.55426 2.55812 0
M  V30 3598 O 364.385 -2.0643 3.86417 0
M  V30 3599 C 365.886 -3.47976 2.74641 0
M  V30 3600 H 363.106 -0.417545 0.525259 0
M  V30 3601 H 365.65 -0.708219 1.91845 0
M  V30 3602 H 363.805 -3.17275 2.22295 0
M  V30 3603 H 364.219 -2.83762 4.41111 0
M  V30 3604 H 365.693 -4.27775 3.48874 0
M  V30 3605 H 366.17 -3.99919 1.81553 0
M  V30 3606 H 366.776 -2.91962 3.09255 0
M  V30 3607 N 365.091 -1.34144 -0.827227 0
M  V30 3608 C 366.337 -1.26446 -1.58554 0
M  V30 3609 C 366.67 0.1664 -1.93486 0
M  V30 3610 O 365.945 1.1107 -1.59667 0
M  V30 3611 C 366.228 -2.15111 -2.8879 0
M  V30 3612 C 366.081 -3.66712 -2.60465 0
M  V30 3613 C 367.4 -2.03311 -3.90324 0
M  V30 3614 H 364.519 -0.46067 -0.575284 0
M  V30 3615 H 367.161 -1.64356 -0.953269 0
M  V30 3616 H 365.311 -1.8291 -3.42748 0
M  V30 3617 H 366.983 -4.09259 -2.1285 0
M  V30 3618 H 365.226 -3.88014 -1.93978 0
M  V30 3619 H 365.897 -4.24112 -3.53317 0
M  V30 3620 H 368.373 -2.31574 -3.45706 0
M  V30 3621 H 367.249 -2.67582 -4.79261 0
M  V30 3622 H 367.51 -1.00879 -4.30437 0
M  V30 3623 N 366.569 1.04691 -1.17803 0
M  V30 3624 C 367.794 1.81984 -0.994813 0
M  V30 3625 C 368.219 1.82586 0.452112 0
M  V30 3626 O 367.577 1.23854 1.324 0
M  V30 3627 C 367.625 3.2575 -1.54659 0
M  V30 3628 O 366.729 4.05267 -0.763728 0
M  V30 3629 H 366.07 0.562483 -0.352857 0
M  V30 3630 H 368.6 1.3189 -1.56417 0
M  V30 3631 H 368.61 3.76541 -1.57102 0
M  V30 3632 H 367.285 3.24627 -2.59981 0
M  V30 3633 H 365.862 3.63972 -0.811108 0
M  V30 3634 N 368.047 0.979072 1.23499 0
M  V30 3635 C 369.272 0.664845 1.96455 0
M  V30 3636 C 369.697 -0.761287 1.72006 0
M  V30 3637 O 369.055 -1.51837 0.990713 0
M  V30 3638 C 369.103 0.959479 3.47601 0
M  V30 3639 O 368.207 0.0508168 4.12369 0
M  V30 3640 H 367.548 0.250185 0.615064 0
M  V30 3641 H 370.078 1.31231 1.5697 0
M  V30 3642 H 370.088 0.895642 3.98048 0
M  V30 3643 H 368.763 1.99876 3.64723 0
M  V30 3644 H 367.34 0.16895 3.72517 0
M  V30 3645 N 369.525 -1.3858 0.750561 0
M  V30 3646 C 370.773 -1.99789 0.30477 0
M  V30 3647 C 371.094 -1.59874 -1.11649 0
M  V30 3648 O 370.364 -0.85417 -1.76297 0
M  V30 3649 H 368.944 -0.738902 0.109694 0
M  V30 3650 H 371.606 -1.69391 0.963983 0
M  V30 3651 H 370.702 -3.09952 0.365499 0
M  V30 3652 N 371.003 -0.499398 -1.49478 0
M  V30 3653 C 372.251 0.0455996 -2.02049 0
M  V30 3654 C 372.572 1.37633 -1.38138 0
M  V30 3655 O 371.842 1.8842 -0.536166 0
M  V30 3656 H 370.422 0.0198416 -0.746736 0
M  V30 3657 H 373.084 -0.656274 -1.83519 0
M  V30 3658 H 372.18 0.176445 -3.11601 0
M  V30 3659 N 372.481 1.55866 -0.233164 0
M  V30 3660 C 373.729 1.9821 0.394593 0
M  V30 3661 C 374.05 1.12234 1.59463 0
M  V30 3662 O 373.32 0.201981 1.94856 0
M  V30 3663 H 371.9 0.732034 0.148778 0
M  V30 3664 H 374.562 1.92107 -0.32876 0
M  V30 3665 H 373.658 3.03845 0.713063 0
M  V30 3666 N 373.959 -0.0401083 1.57549 0
M  V30 3667 C 375.207 -0.731677 1.8839 0
M  V30 3668 C 375.528 -1.76481 0.829425 0
M  V30 3669 O 374.798 -1.95411 -0.1383 0
M  V30 3670 H 373.378 -0.273225 0.695239 0
M  V30 3671 H 376.04 -0.00867725 1.94898 0
M  V30 3672 H 375.136 -1.22816 2.86919 0
M  V30 3673 N 375.437 -1.54477 -0.31217 0
M  V30 3674 C 376.662 -1.77526 -1.07235 0
M  V30 3675 C 377.087 -0.527775 -1.80544 0
M  V30 3676 O 376.445 0.52121 -1.73646 0
M  V30 3677 C 376.493 -2.97535 -2.03728 0
M  V30 3678 O 375.597 -2.69878 -3.11833 0
M  V30 3679 H 374.938 -0.58792 -0.30862 0
M  V30 3680 H 377.468 -2.01532 -0.352993 0
M  V30 3681 H 377.478 -3.25198 -2.46395 0
M  V30 3682 H 376.153 -3.87996 -1.49774 0
M  V30 3683 H 374.73 -2.53199 -2.7376 0
M  V30 3684 N 376.915 0.57481 -1.46744 0
M  V30 3685 C 378.192 1.3352 -1.4294 0
M  V30 3686 C 378.572 2.10775 -0.117009 0
M  V30 3687 O 377.92 2.09966 0.901474 0
M  V30 3688 C 378.13 2.25456 -2.66403 0
M  V30 3689 C 379.478 2.87035 -3.12883 0
M  V30 3690 O 380.502 2.35766 -2.67007 0
M  V30 3691 O 379.361 3.80179 -3.92589 0
M  V30 3692 H 376.455 0.600318 -0.568812 0
M  V30 3693 H 379.001 0.595171 -1.58921 0
M  V30 3694 H 377.773 1.67851 -3.53471 0
M  V30 3695 H 377.396 3.06785 -2.52921 0
M  V30 3696 N 378.394 1.34581 0.820102 0
M  V30 3697 C 379.643 1.26437 1.57151 0
M  V30 3698 C 379.956 -0.163111 1.94919 0
M  V30 3699 O 381.162 -0.366722 2.69012 0
M  V30 3700 C 379.618 2.21658 2.83541 0
M  V30 3701 C 379.226 3.69679 2.53065 0
M  V30 3702 C 380.97 2.22428 3.61561 0
M  V30 3703 C 378.877 4.56761 3.75664 0
M  V30 3704 H 377.807 0.469707 0.589823 0
M  V30 3705 H 380.458 1.59763 0.902656 0
M  V30 3706 H 378.84 1.81287 3.52067 0
M  V30 3707 H 380.014 4.18605 1.92631 0
M  V30 3708 H 378.329 3.71384 1.88316 0
M  V30 3709 H 380.926 2.8471 4.52597 0
M  V30 3710 H 381.269 1.22434 3.97889 0
M  V30 3711 H 381.802 2.61259 2.99981 0
M  V30 3712 H 378.541 5.57702 3.44454 0
M  V30 3713 H 378.061 4.12568 4.35371 0
M  V30 3714 H 379.74 4.71509 4.43044 0
M  V30 3715 N 379.872 -1.04064 1.18357 0
M  V30 3716 C 380.819 -2.12077 0.910603 0
M  V30 3717 C 381.789 -1.65421 -0.15 0
M  V30 3718 O 382.974 -1.90797 -0.0103614 0
M  V30 3719 C 380.114 -3.42252 0.442472 0
M  V30 3720 C 379.227 -4.0252 1.5685 0
M  V30 3721 C 378.362 -5.20657 1.05309 0
M  V30 3722 C 377.401 -5.72955 2.1538 0
M  V30 3723 N 376.538 -6.8238 1.65233 0
M  V30 3724 H 381.378 -2.34764 1.83548 0
M  V30 3725 H 378.915 -1.15157 0.915279 0
M  V30 3726 H 380.873 -4.16921 0.152534 0
M  V30 3727 H 379.503 -3.19712 -0.445428 0
M  V30 3728 H 378.555 -3.25178 1.97391 0
M  V30 3729 H 379.867 -4.37362 2.39824 0
M  V30 3730 H 379.021 -6.0244 0.717677 0
M  V30 3731 H 377.76 -4.87318 0.19293 0
M  V30 3732 H 376.765 -4.89793 2.49766 0
M  V30 3733 H 377.99 -6.08337 3.01832 0
M  V30 3734 H 375.936 -6.50917 0.815064 0
M  V30 3735 H 375.853 -7.16286 2.41805 0
M  V30 3736 H 377.121 -7.67788 1.34619 0
M  V30 3737 N 381.35 -0.985608 -1.22978 0
M  V30 3738 C 382.28 -0.549649 -2.26939 0
M  V30 3739 C 383.261 0.419803 -1.64838 0
M  V30 3740 O 384.446 0.31203 -1.91677 0
M  V30 3741 C 381.576 0.143652 -3.47003 0
M  V30 3742 C 380.53 -0.743606 -4.21491 0
M  V30 3743 C 379.856 0.0822027 -5.34637 0
M  V30 3744 C 381.156 -2.03694 -4.80943 0
M  V30 3745 H 382.85 -1.41862 -2.63658 0
M  V30 3746 H 380.396 -0.683571 -1.26741 0
M  V30 3747 H 382.349 0.459985 -4.18882 0
M  V30 3748 H 381.073 1.04711 -3.09359 0
M  V30 3749 H 379.732 -1.04347 -3.51436 0
M  V30 3750 H 379.38 0.986359 -4.93234 0
M  V30 3751 H 379.08 -0.508377 -5.85397 0
M  V30 3752 H 380.604 0.392797 -6.09335 0
M  V30 3753 H 382.018 -1.78504 -5.44802 0
M  V30 3754 H 380.415 -2.57573 -5.42011 0
M  V30 3755 H 381.485 -2.72042 -4.01399 0
M  V30 3756 N 382.828 1.3818 -0.7579 0
M  V30 3757 C 383.76 2.2901 -0.0932177 0
M  V30 3758 C 384.773 1.47958 0.679136 0
M  V30 3759 O 385.962 1.70773 0.519514 0
M  V30 3760 C 383.062 3.26953 0.89192 0
M  V30 3761 C 382.235 4.37045 0.176303 0
M  V30 3762 C 381.294 5.15148 1.07281 0
M  V30 3763 O 380.32 5.66616 0.541728 0
M  V30 3764 N 381.522 5.28542 2.40049 0
M  V30 3765 H 384.287 2.86694 -0.873303 0
M  V30 3766 H 381.848 1.50007 -0.609054 0
M  V30 3767 H 383.84 3.76083 1.49479 0
M  V30 3768 H 382.41 2.70136 1.57306 0
M  V30 3769 H 381.63 3.89493 -0.607328 0
M  V30 3770 H 382.918 5.07801 -0.318718 0
M  V30 3771 H 382.316 4.88285 2.85647 0
M  V30 3772 H 380.873 5.8103 2.95376 0
M  V30 3773 N 384.306 0.507319 1.49211 0
M  V30 3774 C 385.238 -0.304532 2.27168 0
M  V30 3775 C 386.251 -0.924956 1.33972 0
M  V30 3776 O 387.44 -0.807227 1.59205 0
M  V30 3777 C 384.54 -1.44431 3.06583 0
M  V30 3778 C 383.713 -0.930026 4.27398 0
M  V30 3779 C 382.772 -1.94817 4.88807 0
M  V30 3780 O 381.798 -1.51418 5.4869 0
M  V30 3781 N 383 -3.279 4.79022 0
M  V30 3782 H 385.765 0.36395 2.97482 0
M  V30 3783 H 383.326 0.340249 1.58284 0
M  V30 3784 H 385.318 -2.12311 3.44537 0
M  V30 3785 H 383.888 -2.01684 2.38835 0
M  V30 3786 H 383.108 -0.0759244 3.94127 0
M  V30 3787 H 384.396 -0.564932 5.05654 0
M  V30 3788 H 383.794 -3.65843 4.3148 0
M  V30 3789 H 382.351 -3.91476 5.21142 0
M  V30 3790 N 385.784 -1.5574 0.241426 0
M  V30 3791 C 387.009 -2.0366 -0.392111 0
M  V30 3792 C 387.434 -1.11969 -1.51144 0
M  V30 3793 O 386.792 -0.111594 -1.80956 0
M  V30 3794 C 386.84 -3.49638 -0.882371 0
M  V30 3795 O 385.944 -3.6108 -1.99235 0
M  V30 3796 H 385.285 -0.658379 -0.0862122 0
M  V30 3797 H 387.815 -2.01302 0.365881 0
M  V30 3798 H 387.825 -3.90351 -1.18702 0
M  V30 3799 H 386.5 -4.15852 -0.0632361 0
M  V30 3800 H 385.077 -3.32262 -1.69282 0
M  V30 3801 N 387.262 0.0317525 -1.57568 0
M  V30 3802 C 388.51 0.721676 -1.88776 0
M  V30 3803 C 388.831 1.76039 -0.838772 0
M  V30 3804 O 388.101 1.95482 0.127935 0
M  V30 3805 H 386.681 0.269534 -0.696678 0
M  V30 3806 H 389.343 -0.00165879 -1.949 0
M  V30 3807 H 388.439 1.21293 -2.87566 0
M  V30 3808 N 388.74 1.54641 0.303973 0
M  V30 3809 C 389.703 1.84646 1.35789 0
M  V30 3810 C 390.703 0.7192 1.4382 0
M  V30 3811 O 391.893 0.987491 1.43507 0
M  V30 3812 C 389.025 2.02407 2.74307 0
M  V30 3813 H 390.218 2.78829 1.10429 0
M  V30 3814 H 387.771 1.46658 0.540487 0
M  V30 3815 H 388.506 1.10502 3.04893 0
M  V30 3816 H 388.291 2.84453 2.69868 0
M  V30 3817 H 389.781 2.27002 3.50514 0
M  V30 3818 N 390.218 -0.567019 1.47046 0
M  V30 3819 C 391.128 -1.70247 1.6141 0
M  V30 3820 C 392.144 -1.66746 0.497157 0
M  V30 3821 O 393.32 -1.86371 0.763389 0
M  V30 3822 C 390.385 -3.06756 1.61561 0
M  V30 3823 C 389.446 -3.21399 2.84607 0
M  V30 3824 C 388.679 -4.51396 2.84741 0
M  V30 3825 O 388.902 -5.36255 1.94388 0
M  V30 3826 O 387.836 -4.69621 3.76483 0
M  V30 3827 H 391.662 -1.61073 2.57467 0
M  V30 3828 H 389.247 -0.735894 1.30019 0
M  V30 3829 H 391.129 -3.8801 1.64396 0
M  V30 3830 H 389.804 -3.16333 0.686684 0
M  V30 3831 H 388.711 -2.39579 2.8732 0
M  V30 3832 H 390.044 -3.16721 3.76761 0
M  V30 3833 N 391.696 -1.35014 -0.812953 0
M  V30 3834 C 392.626 -1.30069 -1.93919 0
M  V30 3835 C 393.607 -0.176275 -1.69184 0
M  V30 3836 O 394.792 -0.370227 -1.90638 0
M  V30 3837 C 391.922 -1.06547 -3.30552 0
M  V30 3838 C 390.876 -2.15561 -3.69753 0
M  V30 3839 C 390.202 -1.77214 -5.04479 0
M  V30 3840 C 391.502 -3.57476 -3.808 0
M  V30 3841 H 393.196 -2.24303 -1.98314 0
M  V30 3842 H 390.742 -1.07977 -0.952736 0
M  V30 3843 H 392.695 -1.01729 -4.08937 0
M  V30 3844 H 391.419 -0.0875719 -3.26483 0
M  V30 3845 H 390.078 -2.19466 -2.9365 0
M  V30 3846 H 389.726 -0.780589 -4.96906 0
M  V30 3847 H 389.426 -2.50184 -5.31678 0
M  V30 3848 H 390.95 -1.7391 -5.8531 0
M  V30 3849 H 392.364 -3.55929 -4.4943 0
M  V30 3850 H 390.761 -4.29152 -4.19462 0
M  V30 3851 H 391.831 -3.94091 -2.82525 0
M  V30 3852 N 393.175 1.03435 -1.18907 0
M  V30 3853 C 394.138 2.09756 -0.923844 0
M  V30 3854 C 395.138 1.60528 0.093416 0
M  V30 3855 O 396.328 1.73631 -0.140727 0
M  V30 3856 C 393.46 3.38692 -0.387354 0
M  V30 3857 H 394.653 2.34719 -1.86674 0
M  V30 3858 H 392.206 1.19959 -1.00197 0
M  V30 3859 H 392.941 3.19396 0.561845 0
M  V30 3860 H 392.726 3.75742 -1.12074 0
M  V30 3861 H 394.216 4.17016 -0.220694 0
M  V30 3862 N 394.653 0.992116 1.22453 0
M  V30 3863 C 396.069 0.702713 1.43297 0
M  V30 3864 C 396.269 -0.726909 1.87932 0
M  V30 3865 O 395.325 -1.49792 2.0327 0
M  V30 3866 C 396.638 1.70762 2.47509 0
M  V30 3867 C 398.186 1.72298 2.61309 0
M  V30 3868 C 398.661 2.71649 3.68742 0
M  V30 3869 N 400.152 2.70239 3.76199 0
M  V30 3870 C 400.887 3.43778 4.58917 0
M  V30 3871 N 400.383 4.26914 5.45633 0
M  V30 3872 N 402.176 3.32487 4.5322 0
M  V30 3873 H 394.327 1.91543 0.917871 0
M  V30 3874 H 396.59 0.826031 0.465162 0
M  V30 3875 H 396.296 2.73059 2.21657 0
M  V30 3876 H 396.17 1.49985 3.46099 0
M  V30 3877 H 398.557 0.706989 2.86506 0
M  V30 3878 H 398.638 1.97143 1.62997 0
M  V30 3879 H 398.282 3.73397 3.44292 0
M  V30 3880 H 398.212 2.44074 4.66622 0
M  V30 3881 H 400.703 2.09912 3.14237 0
M  V30 3882 H 401.016 4.79855 6.05771 0
M  V30 3883 H 399.361 4.31002 5.45218 0
M  V30 3884 H 402.552 2.6698 3.84499 0
M  V30 3885 H 402.725 3.90058 5.17454 0
M  V30 3886 N 396.131 -1.37776 0.765217 0
M  V30 3887 C 397.542 -1.82521 0.392819 0
M  V30 3888 C 397.893 -1.63789 -1.08017 0
M  V30 3889 O 397.018 -1.14542 -1.83601 0
M  V30 3890 C 397.613 -3.31358 0.706214 0
M  V30 3891 C 396.172 -3.74406 0.386952 0
M  V30 3892 C 395.319 -2.60394 0.953422 0
M  V30 3893 H 398.27 -1.2634 0.960412 0
M  V30 3894 H 398.291 -3.80498 -0.0114706 0
M  V30 3895 H 397.803 -3.44959 1.77833 0
M  V30 3896 H 395.904 -3.66377 -0.678112 0
M  V30 3897 H 396.017 -4.70749 0.890636 0
M  V30 3898 H 394.381 -2.51878 0.378064 0
M  V30 3899 H 395.164 -2.76791 2.03081 0
M  V30 3900 N 397.609 -0.515225 -1.4894 0
M  V30 3901 C 398.857 0.0241671 -2.02086 0
M  V30 3902 C 399.178 1.3616 -1.3959 0
M  V30 3903 O 398.448 1.87841 -0.556121 0
M  V30 3904 H 397.028 0.0119203 -0.746905 0
M  V30 3905 H 399.69 -0.675702 -1.82812 0
M  V30 3906 H 398.786 0.143385 -3.1177 0
M  V30 3907 N 399.087 1.5561 -0.249682 0
M  V30 3908 C 400.05 2.20217 0.635394 0
M  V30 3909 C 401.05 1.17227 1.10066 0
M  V30 3910 O 402.24 1.42292 1.00492 0
M  V30 3911 C 399.372 2.84794 1.87363 0
M  V30 3912 H 400.565 2.99814 0.0716752 0
M  V30 3913 H 398.118 1.563 -0.000153234 0
M  V30 3914 H 398.853 2.09142 2.47851 0
M  V30 3915 H 398.638 3.60241 1.5482 0
M  V30 3916 H 400.128 3.3423 2.5036 0
M  V30 3917 N 400.565 -0.0233959 1.57583 0
M  V30 3918 C 401.79 -0.728376 1.94189 0
M  V30 3919 C 402.215 -1.67793 0.850119 0
M  V30 3920 O 401.573 -1.80262 -0.19371 0
M  V30 3921 C 401.621 -1.45669 3.29868 0
M  V30 3922 O 400.725 -2.57013 3.22518 0
M  V30 3923 H 400.066 -0.195493 0.63457 0
M  V30 3924 H 402.596 0.0228214 2.04587 0
M  V30 3925 H 402.606 -1.82535 3.6489 0
M  V30 3926 H 401.281 -0.760314 4.08891 0
M  V30 3927 H 399.858 -2.22648 2.99136 0
M  V30 3928 N 402.043 -1.548 -0.295768 0
M  V30 3929 C 403.289 -1.74588 -1.03184 0
M  V30 3930 C 403.622 -0.532962 -1.86744 0
M  V30 3931 O 402.897 0.469872 -1.88739 0
M  V30 3932 C 403.18 -3.03791 -1.93347 0
M  V30 3933 C 403.033 -4.35392 -1.12933 0
M  V30 3934 C 404.352 -3.28892 -2.92435 0
M  V30 3935 H 401.471 -0.635221 -0.373715 0
M  V30 3936 H 404.113 -1.87519 -0.30606 0
M  V30 3937 H 402.263 -2.92898 -2.55232 0
M  V30 3938 H 403.935 -4.58211 -0.532943 0
M  V30 3939 H 402.178 -4.31642 -0.432168 0
M  V30 3940 H 402.849 -5.22074 -1.79284 0
M  V30 3941 H 405.325 -3.39429 -2.4068 0
M  V30 3942 H 404.201 -4.20603 -3.52682 0
M  V30 3943 H 404.462 -2.47437 -3.6637 0
M  V30 3944 N 403.521 0.559213 -1.47345 0
M  V30 3945 C 404.468 1.66645 -1.59682 0
M  V30 3946 C 405.438 1.60168 -0.43994 0
M  V30 3947 O 406.623 1.79031 -0.659736 0
M  V30 3948 C 403.763 3.04969 -1.61518 0
M  V30 3949 C 402.876 3.21897 -2.88108 0
M  V30 3950 C 402.011 4.50608 -2.81294 0
M  V30 3951 C 401.05 4.60961 -4.02717 0
M  V30 3952 N 400.187 5.81024 -3.94151 0
M  V30 3953 H 405.027 1.55439 -2.54249 0
M  V30 3954 H 402.564 0.757219 -1.26113 0
M  V30 3955 H 404.522 3.85064 -1.60566 0
M  V30 3956 H 403.152 3.15015 -0.704645 0
M  V30 3957 H 402.204 2.35248 -2.98936 0
M  V30 3958 H 403.516 3.25412 -3.78032 0
M  V30 3959 H 402.67 5.3896 -2.7858 0
M  V30 3960 H 401.409 4.49568 -1.89049 0
M  V30 3961 H 400.414 3.71021 -4.05738 0
M  V30 3962 H 401.639 4.63761 -4.96087 0
M  V30 3963 H 399.585 5.80938 -3.04708 0
M  V30 3964 H 399.502 5.85909 -4.77752 0
M  V30 3965 H 400.77 6.71744 -3.9545 0
M  V30 3966 N 404.999 1.35443 0.805782 0
M  V30 3967 C 405.932 1.22783 1.92353 0
M  V30 3968 C 406.91 0.115543 1.62189 0
M  V30 3969 O 408.094 0.283778 1.86352 0
M  V30 3970 C 405.221 0.890746 3.26777 0
M  V30 3971 C 404.267 2.01519 3.75889 0
M  V30 3972 S 405.1 3.63101 3.93596 0
M  V30 3973 C 406.256 3.31472 5.30921 0
M  V30 3974 H 406.489 2.17394 2.02798 0
M  V30 3975 H 404.022 1.20669 0.963245 0
M  V30 3976 H 405.98 0.703068 4.04434 0
M  V30 3977 H 404.641 -0.0373152 3.14078 0
M  V30 3978 H 403.834 1.7335 4.7325 0
M  V30 3979 H 403.436 2.16124 3.05231 0
M  V30 3980 H 405.728 2.8435 6.1494 0
M  V30 3981 H 406.671 4.28036 5.64084 0
M  V30 3982 H 407.079 2.67221 4.97246 0
M  V30 3983 N 406.477 -1.02803 1.19454 0
M  V30 3984 C 407.702 -1.80378 1.02364 0
M  V30 3985 C 408.127 -1.83282 -0.423007 0
M  V30 3986 O 407.485 -1.25945 -1.30413 0
M  V30 3987 C 407.533 -3.23248 1.59821 0
M  V30 3988 O 406.637 -4.04 0.828105 0
M  V30 3989 H 405.978 -0.556799 0.361761 0
M  V30 3990 H 408.508 -1.29385 1.58495 0
M  V30 3991 H 408.518 -3.73994 1.63073 0
M  V30 3992 H 407.193 -3.2045 2.65113 0
M  V30 3993 H 405.77 -3.62635 0.86891 0
M  V30 3994 N 407.956 -0.998596 -1.21925 0
M  V30 3995 C 409.196 -0.685948 -1.92546 0
M  V30 3996 C 409.56 0.768441 -1.75952 0
M  V30 3997 O 410.761 1.19277 -2.40887 0
M  V30 3998 C 409.032 -1.08767 -3.40448 0
M  V30 3999 S 410.591 -0.894251 -4.29591 0
M  V30 4000 H 407.409 -0.250622 -0.665364 0
M  V30 4001 H 410.011 -1.28207 -1.47591 0
M  V30 4002 H 408.715 -2.14242 -3.50041 0
M  V30 4003 H 408.246 -0.48357 -3.90417 0
M  V30 4004 H 410.261 0.212149 -4.95746 0
M  V30 4005 N 409.434 1.37368 -0.772513 0
M  V30 4006 C 410.381 2.30262 -0.157488 0
M  V30 4007 C 411.351 1.51137 0.688965 0
M  V30 4008 O 412.536 1.79704 0.641168 0
M  V30 4009 C 409.676 3.37611 0.715045 0
M  V30 4010 C 408.789 4.31746 -0.148098 0
M  V30 4011 C 407.924 5.26171 0.729213 0
M  V30 4012 C 406.963 6.11948 -0.136418 0
M  V30 4013 N 406.1 6.98613 0.698914 0
M  V30 4014 H 410.94 2.82277 -0.955179 0
M  V30 4015 H 408.477 1.38957 -0.482631 0
M  V30 4016 H 410.435 3.98479 1.23575 0
M  V30 4017 H 409.065 2.86959 1.47833 0
M  V30 4018 H 408.117 3.72178 -0.786613 0
M  V30 4019 H 409.429 4.92084 -0.81579 0
M  V30 4020 H 408.583 5.92247 1.31637 0
M  V30 4021 H 407.322 4.66246 1.43059 0
M  V30 4022 H 406.327 5.4485 -0.736102 0
M  V30 4023 H 407.552 6.73945 -0.835134 0
M  V30 4024 H 405.498 6.41215 1.38489 0
M  V30 4025 H 405.415 7.55948 0.0885358 0
M  V30 4026 H 406.683 7.69077 1.27044 0
M  V30 4027 N 410.912 0.523116 1.48665 0
M  V30 4028 C 412.14 -0.0096312 2.06898 0
M  V30 4029 C 412.555 -1.28784 1.38059 0
M  V30 4030 O 411.912 -1.76453 0.465893 0
M  V30 4031 C 411.963 -0.244386 3.60673 0
M  V30 4032 O 411.684 0.983172 4.26925 0
M  V30 4033 C 413.185 -0.818289 4.35682 0
M  V30 4034 H 410.405 0.0304161 0.67031 0
M  V30 4035 H 412.949 0.726799 1.91149 0
M  V30 4036 H 411.104 -0.930847 3.76051 0
M  V30 4037 H 411.518 0.759653 5.1897 0
M  V30 4038 H 412.992 -0.93201 5.44075 0
M  V30 4039 H 413.469 -1.82153 3.99646 0
M  V30 4040 H 414.075 -0.168609 4.24966 0
M  V30 4041 N 412.39 -1.55475 0.257931 0
M  V30 4042 C 413.615 -2.04064 -0.370488 0
M  V30 4043 C 414.04 -1.13565 -1.49948 0
M  V30 4044 O 413.398 -0.130781 -1.80828 0
M  V30 4045 C 413.446 -3.50554 -0.845237 0
M  V30 4046 O 412.55 -3.63173 -1.95394 0
M  V30 4047 H 411.891 -0.659257 -0.0792243 0
M  V30 4048 H 414.421 -2.00903 0.387212 0
M  V30 4049 H 414.431 -3.91588 -1.14555 0
M  V30 4050 H 413.106 -4.15896 -0.0191259 0
M  V30 4051 H 411.683 -3.34039 -1.65748 0
M  V30 4052 N 413.868 0.0150385 -1.57593 0
M  V30 4053 C 415.116 0.701613 -1.8953 0
M  V30 4054 C 415.437 1.75139 -0.857396 0
M  V30 4055 O 414.707 1.95607 0.107194 0
M  V30 4056 H 413.287 0.26213 -0.699498 0
M  V30 4057 H 415.949 -0.0223304 -1.94887 0
M  V30 4058 H 415.045 1.18236 -2.88837 0
M  V30 4059 N 415.346 1.54954 0.287554 0
M  V30 4060 C 416.576 1.78622 1.03816 0
M  V30 4061 C 416.984 0.552451 1.80955 0
M  V30 4062 O 416.327 -0.487665 1.77109 0
M  V30 4063 C 416.389 2.94975 2.055 0
M  V30 4064 C 416.053 4.32565 1.47433 0
M  V30 4065 C 417.05 5.12096 0.897436 0
M  V30 4066 C 414.735 4.79195 1.50591 0
M  V30 4067 C 416.729 6.36383 0.359851 0
M  V30 4068 C 414.416 6.03441 0.964459 0
M  V30 4069 C 415.414 6.81872 0.392413 0
M  V30 4070 O 415.102 8.03777 -0.140788 0
M  V30 4071 H 414.834 0.599144 0.313053 0
M  V30 4072 H 417.388 2.02761 0.328225 0
M  V30 4073 H 415.618 2.66493 2.80211 0
M  V30 4074 H 417.307 3.06097 2.6657 0
M  V30 4075 H 418.073 4.77209 0.865841 0
M  V30 4076 H 413.952 4.18167 1.94055 0
M  V30 4077 H 417.496 6.97545 -0.0872951 0
M  V30 4078 H 413.393 6.37813 0.993246 0
M  V30 4079 H 414.161 8.18495 -0.0287617 0
M  V30 4080 N 416.824 -0.551391 1.4764 0
M  V30 4081 C 418.052 -1.33357 1.58189 0
M  V30 4082 C 418.467 -1.87342 0.234199 0
M  V30 4083 O 417.824 -1.65301 -0.77343 0
M  V30 4084 C 417.875 -2.49942 2.61173 0
M  V30 4085 O 417.596 -1.98187 3.90709 0
M  V30 4086 C 419.097 -3.42072 2.8196 0
M  V30 4087 H 416.317 -0.40631 0.533998 0
M  V30 4088 H 418.861 -0.667367 1.93304 0
M  V30 4089 H 417.016 -3.12489 2.28975 0
M  V30 4090 H 417.43 -2.74342 4.47031 0
M  V30 4091 H 418.904 -4.20278 3.57869 0
M  V30 4092 H 419.381 -3.95978 1.89995 0
M  V30 4093 H 419.987 -2.85336 3.15378 0
M  V30 4094 N 418.302 -1.35869 -0.798587 0
M  V30 4095 C 419.549 -1.29588 -1.55606 0
M  V30 4096 C 419.877 0.127456 -1.94082 0
M  V30 4097 O 419.132 1.09461 -1.62225 0
M  V30 4098 C 419.431 -2.1556 -2.85077 0
M  V30 4099 C 419.097 -3.6424 -2.65781 0
M  V30 4100 C 417.759 -4.04766 -2.60227 0
M  V30 4101 C 420.111 -4.58547 -2.47758 0
M  V30 4102 C 417.439 -5.37753 -2.34603 0
M  V30 4103 C 419.791 -5.91742 -2.23662 0
M  V30 4104 C 418.455 -6.31402 -2.16534 0
M  V30 4105 H 417.725 -0.474197 -0.569402 0
M  V30 4106 H 420.372 -1.67839 -0.922086 0
M  V30 4107 H 418.677 -1.70216 -3.52893 0
M  V30 4108 H 420.374 -2.08031 -3.42818 0
M  V30 4109 H 416.964 -3.32086 -2.70956 0
M  V30 4110 H 421.148 -4.28117 -2.51056 0
M  V30 4111 H 416.404 -5.67474 -2.2756 0
M  V30 4112 H 420.578 -6.6439 -2.08708 0
M  V30 4113 H 418.205 -7.34381 -1.96441 0
M  V30 4114 N 419.78 1.02168 -1.19998 0
M  V30 4115 C 421.008 1.79296 -1.03249 0
M  V30 4116 C 421.423 1.84103 0.418502 0
M  V30 4117 O 420.78 1.29031 1.29063 0
M  V30 4118 C 420.831 3.24007 -1.60319 0
M  V30 4119 O 420.552 3.19512 -2.99739 0
M  V30 4120 C 422.053 4.17704 -1.48453 0
M  V30 4121 H 419.273 0.564016 -0.363493 0
M  V30 4122 H 421.817 1.28639 -1.58973 0
M  V30 4123 H 419.972 3.7183 -1.08727 0
M  V30 4124 H 420.386 4.10306 -3.26725 0
M  V30 4125 H 421.86 5.17104 -1.93153 0
M  V30 4126 H 422.337 4.37029 -0.436193 0
M  V30 4127 H 422.943 3.7576 -1.99211 0
M  V30 4128 N 421.258 1.00505 1.21394 0
M  V30 4129 C 422.674 0.717873 1.42544 0
M  V30 4130 C 422.874 -0.706936 1.88692 0
M  V30 4131 O 421.93 -1.47627 2.04847 0
M  V30 4132 C 423.243 1.73377 2.45684 0
M  V30 4133 C 424.791 1.75059 2.59467 0
M  V30 4134 C 425.266 2.75545 3.6584 0
M  V30 4135 N 426.757 2.74213 3.73311 0
M  V30 4136 C 427.492 3.48626 4.55245 0
M  V30 4137 N 426.988 4.32678 5.41075 0
M  V30 4138 N 428.781 3.37276 4.49668 0
M  V30 4139 H 420.932 1.92506 0.897503 0
M  V30 4140 H 423.195 0.830919 0.456375 0
M  V30 4141 H 422.901 2.75395 2.18748 0
M  V30 4142 H 422.775 1.53647 3.44489 0
M  V30 4143 H 425.162 0.737337 2.8574 0
M  V30 4144 H 425.243 1.98861 1.60897 0
M  V30 4145 H 424.887 3.77028 3.40313 0
M  V30 4146 H 424.817 2.49009 4.64007 0
M  V30 4147 H 427.308 2.13234 3.11993 0
M  V30 4148 H 427.621 4.86253 6.00648 0
M  V30 4149 H 425.966 4.3676 5.40616 0
M  V30 4150 H 429.157 2.71043 3.81646 0
M  V30 4151 H 429.33 3.95524 5.13288 0
M  V30 4152 N 422.737 -1.36956 0.779787 0
M  V30 4153 C 423.967 -2.03459 0.358877 0
M  V30 4154 C 424.375 -1.58939 -1.02641 0
M  V30 4155 O 423.718 -0.769777 -1.66794 0
M  V30 4156 C 423.78 -3.5796 0.332393 0
M  V30 4157 C 423.444 -4.25644 1.66362 0
M  V30 4158 C 424.441 -4.49205 2.61746 0
M  V30 4159 C 422.126 -4.63313 1.94027 0
M  V30 4160 C 424.12 -5.09503 3.82996 0
M  V30 4161 C 421.807 -5.2333 3.15546 0
M  V30 4162 C 422.805 -5.46363 4.0985 0
M  V30 4163 O 422.493 -6.05122 5.29228 0
M  V30 4164 H 422.225 -0.659767 0.147254 0
M  V30 4165 H 424.779 -1.76111 1.05708 0
M  V30 4166 H 423.009 -3.84388 -0.422237 0
M  V30 4167 H 424.698 -4.05852 -0.0625389 0
M  V30 4168 H 425.464 -4.20508 2.41657 0
M  V30 4169 H 421.343 -4.44715 1.21448 0
M  V30 4170 H 424.887 -5.27397 4.56617 0
M  V30 4171 H 420.784 -5.51451 3.35517 0
M  V30 4172 H 421.552 -6.23595 5.30161 0
M  V30 4173 N 424.215 -0.530993 -1.48385 0
M  V30 4174 C 425.443 -0.00134122 -2.069 0
M  V30 4175 C 425.858 1.2805 -1.3874 0
M  V30 4176 O 425.215 1.76204 -0.475244 0
M  V30 4177 C 425.266 0.225256 -3.60798 0
M  V30 4178 O 424.987 -1.0058 -4.26398 0
M  V30 4179 C 426.488 0.795172 -4.3611 0
M  V30 4180 H 423.708 -0.0339704 -0.67014 0
M  V30 4181 H 426.252 -0.736926 -1.90761 0
M  V30 4182 H 424.407 0.910891 -3.76539 0
M  V30 4183 H 424.821 -0.787165 -5.1856 0
M  V30 4184 H 426.295 0.903143 -5.44562 0
M  V30 4185 H 426.772 1.80031 -4.00606 0
M  V30 4186 H 427.378 0.146069 -4.25049 0
M  V30 4187 N 425.693 1.55336 -0.266172 0
M  V30 4188 C 426.626 2.18256 0.666296 0
M  V30 4189 C 427.604 1.14064 1.1588 0
M  V30 4190 O 428.788 1.42546 1.23341 0
M  V30 4191 C 425.915 2.79867 1.90768 0
M  V30 4192 C 424.961 3.97283 1.55141 0
M  V30 4193 S 425.794 5.31694 0.637313 0
M  V30 4194 C 426.95 5.96769 1.88727 0
M  V30 4195 H 427.183 2.97008 0.131647 0
M  V30 4196 H 424.716 1.54317 -0.0504869 0
M  V30 4197 H 426.674 3.15996 2.62025 0
M  V30 4198 H 425.335 2.01025 2.41346 0
M  V30 4199 H 424.528 4.3905 2.4749 0
M  V30 4200 H 424.13 3.6253 0.919113 0
M  V30 4201 H 426.422 6.15458 2.83227 0
M  V30 4202 H 427.365 6.91752 1.51276 0
M  V30 4203 H 427.773 5.26034 2.04814 0
M  V30 4204 N 427.171 -0.0066808 1.57599 0
M  V30 4205 C 428.121 -1.0086 2.04478 0
M  V30 4206 C 429.105 -1.30714 0.938231 0
M  V30 4207 O 430.297 -1.29924 1.20203 0
M  V30 4208 C 427.426 -2.30273 2.54615 0
M  V30 4209 C 426.512 -2.03413 3.72134 0
M  V30 4210 N 426.903 -1.46688 4.84062 0
M  V30 4211 C 425.201 -2.33589 3.79937 0
M  V30 4212 C 425.902 -1.36146 5.65543 0
M  V30 4213 N 424.878 -1.84477 5.1134 0
M  V30 4214 H 428.68 -0.564402 2.8843 0
M  V30 4215 H 426.194 -0.212521 1.61003 0
M  V30 4216 H 428.191 -3.02885 2.86472 0
M  V30 4217 H 426.851 -2.75352 1.72079 0
M  V30 4218 H 427.862 -1.14658 5.05049 0
M  V30 4219 H 424.539 -2.81589 3.08243 0
M  V30 4220 H 425.929 -0.925873 6.6549 0
M  V30 4221 N 428.649 -1.55105 -0.279332 0
M  V30 4222 C 429.895 -1.76597 -1.00921 0
M  V30 4223 C 430.25 -0.556831 -1.84166 0
M  V30 4224 O 429.543 0.450573 -1.86227 0
M  V30 4225 C 429.737 -3.0086 -1.92919 0
M  V30 4226 C 429.566 -4.33744 -1.18728 0
M  V30 4227 C 428.336 -4.9712 -0.905545 0
M  V30 4228 C 430.534 -5.11009 -0.580857 0
M  V30 4229 N 428.516 -6.13749 -0.136169 0
M  V30 4230 C 429.887 -6.19976 0.0546661 0
M  V30 4231 C 431.942 -4.95502 -0.488067 0
M  V30 4232 C 430.645 -7.15123 0.774028 0
M  V30 4233 C 432.671 -5.90999 0.217688 0
M  V30 4234 C 432.033 -6.9935 0.841975 0
M  V30 4235 H 428.132 -0.698553 -0.351493 0
M  V30 4236 H 430.716 -1.92595 -0.285531 0
M  V30 4237 H 428.887 -2.86249 -2.62519 0
M  V30 4238 H 430.619 -3.10784 -2.59221 0
M  V30 4239 H 427.374 -4.57903 -1.20921 0
M  V30 4240 H 427.798 -6.7659 0.235665 0
M  V30 4241 H 432.44 -4.11841 -0.956406 0
M  V30 4242 H 430.158 -7.9831 1.25407 0
M  V30 4243 H 433.744 -5.81078 0.289717 0
M  V30 4244 H 432.624 -7.71973 1.37939 0
M  V30 4245 N 430.127 0.543554 -1.4793 0
M  V30 4246 C 431.373 1.30201 -1.55485 0
M  V30 4247 C 431.706 1.92925 -0.222201 0
M  V30 4248 O 430.981 1.78586 0.77053 0
M  V30 4249 C 431.264 2.40174 -2.68307 0
M  V30 4250 C 431.117 1.8223 -4.11233 0
M  V30 4251 C 432.436 3.42024 -2.76961 0
M  V30 4252 H 429.555 0.472036 -0.565996 0
M  V30 4253 H 432.197 0.606914 -1.80046 0
M  V30 4254 H 430.347 2.99463 -2.47495 0
M  V30 4255 H 432.019 1.27096 -4.43446 0
M  V30 4256 H 430.262 1.12832 -4.18869 0
M  V30 4257 H 430.933 2.61793 -4.85972 0
M  V30 4258 H 433.409 2.92672 -2.95774 0
M  V30 4259 H 432.285 4.16383 -3.57654 0
M  V30 4260 H 432.546 4.0173 -1.84568 0
M  V30 4261 N 431.605 1.3629 0.791371 0
M  V30 4262 C 432.552 1.30458 1.90393 0
M  V30 4263 C 433.522 0.173632 1.6519 0
M  V30 4264 O 434.707 0.35983 1.87376 0
M  V30 4265 C 431.847 1.09777 3.27174 0
M  V30 4266 C 430.96 2.31929 3.64462 0
M  V30 4267 C 430.095 2.04276 4.90352 0
M  V30 4268 C 429.134 3.224 5.20312 0
M  V30 4269 N 428.271 2.94424 6.37385 0
M  V30 4270 H 433.111 2.25589 1.94714 0
M  V30 4271 H 430.648 1.12122 0.952216 0
M  V30 4272 H 432.606 0.958133 4.06049 0
M  V30 4273 H 431.236 0.183014 3.22281 0
M  V30 4274 H 430.288 2.56703 2.80727 0
M  V30 4275 H 431.6 3.20085 3.82553 0
M  V30 4276 H 430.754 1.87231 5.77087 0
M  V30 4277 H 429.493 1.13428 4.74326 0
M  V30 4278 H 428.498 3.40005 4.32061 0
M  V30 4279 H 429.723 4.14071 5.38258 0
M  V30 4280 H 427.669 2.06185 6.22755 0
M  V30 4281 H 427.586 3.76118 6.55798 0
M  V30 4282 H 428.854 2.80953 7.27108 0
M  V30 4283 N 433.083 -1.0153 1.20538 0
M  V30 4284 C 434.015 -2.10224 0.913155 0
M  V30 4285 C 435.028 -1.62495 -0.0995998 0
M  V30 4286 O 436.217 -1.78014 0.131582 0
M  V30 4287 C 433.317 -3.37111 0.347717 0
M  V30 4288 C 432.49 -4.13971 1.41233 0
M  V30 4289 C 431.549 -5.19158 0.857976 0
M  V30 4290 O 430.575 -5.48 1.53897 0
M  V30 4291 N 431.777 -5.7955 -0.331966 0
M  V30 4292 H 434.542 -2.35879 1.84881 0
M  V30 4293 H 432.103 -1.17931 1.10923 0
M  V30 4294 H 434.095 -4.04683 -0.0373026 0
M  V30 4295 H 432.665 -3.08696 -0.492527 0
M  V30 4296 H 431.885 -3.41351 1.97163 0
M  V30 4297 H 433.173 -4.62103 2.12928 0
M  V30 4298 H 432.571 -5.58455 -0.902478 0
M  V30 4299 H 431.128 -6.48464 -0.65861 0
M  V30 4300 N 434.561 -1.01147 -1.20859 0
M  V30 4301 C 435.977 -0.725422 -1.42161 0
M  V30 4302 C 436.177 0.696919 -1.89064 0
M  V30 4303 O 435.233 1.46539 -2.05627 0
M  V30 4304 C 436.546 -1.74678 -2.44761 0
M  V30 4305 C 438.094 -1.76433 -2.58535 0
M  V30 4306 C 438.569 -2.77481 -3.64374 0
M  V30 4307 N 440.06 -2.76189 -3.71852 0
M  V30 4308 C 440.795 -3.51035 -4.53389 0
M  V30 4309 N 440.291 -4.35541 -5.38773 0
M  V30 4310 N 442.084 -3.39655 -4.47873 0
M  V30 4311 H 434.235 -1.92979 -0.887282 0
M  V30 4312 H 436.498 -0.833327 -0.451962 0
M  V30 4313 H 436.204 -2.76551 -2.17285 0
M  V30 4314 H 436.078 -1.55472 -3.43669 0
M  V30 4315 H 438.465 -0.75248 -2.85345 0
M  V30 4316 H 438.546 -1.99712 -1.5984 0
M  V30 4317 H 438.19 -3.78827 -3.38308 0
M  V30 4318 H 438.12 -2.51466 -4.6268 0
M  V30 4319 H 440.611 -2.14885 -3.10858 0
M  V30 4320 H 440.924 -4.89432 -5.98061 0
M  V30 4321 H 439.269 -4.39621 -5.38292 0
M  V30 4322 H 442.46 -2.73063 -3.80203 0
M  V30 4323 H 442.633 -3.9824 -5.11184 0
M  V30 4324 N 436.039 1.36541 -0.78704 0
M  V30 4325 C 437.45 1.81873 -0.421807 0
M  V30 4326 C 437.801 1.65487 1.05397 0
M  V30 4327 O 436.926 1.17448 1.81755 0
M  V30 4328 C 437.521 3.30192 -0.758841 0
M  V30 4329 C 436.08 3.73743 -0.446468 0
M  V30 4330 C 435.227 2.58844 -0.994728 0
M  V30 4331 H 438.178 1.24796 -0.98039 0
M  V30 4332 H 438.199 3.80468 -0.0490648 0
M  V30 4333 H 437.711 3.42087 -1.83299 0
M  V30 4334 H 435.812 3.6741 0.619739 0
M  V30 4335 H 435.925 4.69272 -0.965415 0
M  V30 4336 H 434.289 2.51245 -0.418087 0
M  V30 4337 H 435.072 2.73525 -2.07458 0
M  V30 4338 N 437.518 0.538854 1.48102 0
M  V30 4339 C 438.766 0.00798599 2.02098 0
M  V30 4340 C 439.087 -1.33922 1.41739 0
M  V30 4341 O 438.357 -1.86932 0.585934 0
M  V30 4342 H 436.937 -3.62179e-05 0.747 0
M  V30 4343 H 439.599 0.7047 1.81714 0
M  V30 4344 H 438.695 -0.0937672 3.11959 0
M  V30 4345 N 438.996 -1.55193 0.274407 0
M  V30 4346 C 439.928 -2.1989 -0.646595 0
M  V30 4347 C 440.941 -1.1834 -1.11801 0
M  V30 4348 O 442.13 -1.4507 -1.04004 0
M  V30 4349 C 439.23 -2.8104 -1.89393 0
M  V30 4350 C 438.403 -4.08274 -1.56943 0
M  V30 4351 C 437.462 -4.53478 -2.66916 0
M  V30 4352 O 436.488 -5.19267 -2.33132 0
M  V30 4353 N 437.69 -4.2356 -3.9696 0
M  V30 4354 H 440.455 -2.99556 -0.0928686 0
M  V30 4355 H 438.016 -1.61618 0.0954783 0
M  V30 4356 H 440.008 -3.08226 -2.62257 0
M  V30 4357 H 438.578 -2.05372 -2.35672 0
M  V30 4358 H 437.798 -3.88384 -0.674655 0
M  V30 4359 H 439.086 -4.91173 -1.32764 0
M  V30 4360 H 438.484 -3.70799 -4.27229 0
M  V30 4361 H 437.041 -4.55518 -4.66205 0
M  V30 4362 N 440.474 -0.00167713 -1.576 0
M  V30 4363 C 441.722 0.681471 -1.90264 0
M  V30 4364 C 442.043 1.7422 -0.875924 0
M  V30 4365 O 441.313 1.95709 0.0864412 0
M  V30 4366 H 439.893 0.254696 -0.702239 0
M  V30 4367 H 442.555 -0.0429996 -1.94853 0
M  V30 4368 H 441.651 1.15166 -2.90075 0
M  V30 4369 N 441.952 1.55251 0.271103 0
M  V30 4370 C 442.882 1.9127 1.33933 0
M  V30 4371 C 443.863 0.77478 1.5143 0
M  V30 4372 O 445.048 1.03307 1.64442 0
M  V30 4373 C 442.178 2.18627 2.69851 0
M  V30 4374 C 441.132 3.34442 2.67081 0
M  V30 4375 C 440.458 3.47284 4.06569 0
M  V30 4376 C 441.758 4.70784 2.26185 0
M  V30 4377 H 443.452 2.80744 1.04035 0
M  V30 4378 H 440.998 1.35077 0.499017 0
M  V30 4379 H 442.951 2.42413 3.44694 0
M  V30 4380 H 441.675 1.25955 3.01335 0
M  V30 4381 H 440.334 3.10627 1.94695 0
M  V30 4382 H 439.982 2.52074 4.35279 0
M  V30 4383 H 439.682 4.25152 4.0561 0
M  V30 4384 H 441.206 3.73363 4.83148 0
M  V30 4385 H 442.62 4.94102 2.90751 0
M  V30 4386 H 441.017 5.51582 2.36384 0
M  V30 4387 H 442.087 4.69478 1.21319 0
M  V30 4388 N 443.43 -0.535701 1.48216 0
M  V30 4389 C 444.34 -1.66785 1.64985 0
M  V30 4390 C 445.356 -1.65654 0.532414 0
M  V30 4391 O 446.532 -1.8471 0.80275 0
M  V30 4392 C 443.597 -3.0326 1.68031 0
M  V30 4393 C 442.658 -3.1529 2.9136 0
M  V30 4394 C 441.891 -4.45255 2.94252 0
M  V30 4395 O 442.114 -5.32011 2.05719 0
M  V30 4396 O 441.048 -4.6153 3.86359 0
M  V30 4397 H 444.874 -1.55576 2.60825 0
M  V30 4398 H 442.459 -0.70815 1.31551 0
M  V30 4399 H 444.341 -3.84436 1.72589 0
M  V30 4400 H 443.016 -3.14805 0.753628 0
M  V30 4401 H 441.923 -2.3343 2.92337 0
M  V30 4402 H 443.256 -3.08658 3.83394 0
M  V30 4403 N 444.908 -1.36708 -0.784132 0
M  V30 4404 C 446.154 -1.32433 -1.54379 0
M  V30 4405 C 446.509 0.0941816 -1.92169 0
M  V30 4406 O 445.802 1.04997 -1.60269 0
M  V30 4407 C 445.996 -2.18571 -2.82774 0
M  V30 4408 C 445.825 -3.68656 -2.57533 0
M  V30 4409 C 444.595 -4.37813 -2.52286 0
M  V30 4410 C 446.793 -4.61802 -2.2637 0
M  V30 4411 N 444.775 -5.7351 -2.18997 0
M  V30 4412 C 446.146 -5.85785 -2.03115 0
M  V30 4413 C 448.201 -4.50313 -2.12421 0
M  V30 4414 C 446.904 -6.99569 -1.67321 0
M  V30 4415 C 448.93 -5.63969 -1.78026 0
M  V30 4416 C 448.292 -6.86994 -1.55622 0
M  V30 4417 H 444.391 -0.539886 -0.565727 0
M  V30 4418 H 446.975 -1.71812 -0.915908 0
M  V30 4419 H 445.146 -1.81429 -3.43421 0
M  V30 4420 H 446.878 -2.05646 -3.48557 0
M  V30 4421 H 443.633 -3.90674 -2.67714 0
M  V30 4422 H 444.057 -6.45189 -2.05084 0
M  V30 4423 H 448.699 -3.55781 -2.28429 0
M  V30 4424 H 446.417 -7.94047 -1.5005 0
M  V30 4425 H 450.003 -5.57044 -1.67909 0
M  V30 4426 H 448.883 -7.7345 -1.294 0
M  V30 4427 N 446.386 1.0089 -1.21074 0
M  V30 4428 C 447.635 1.74019 -1.01981 0
M  V30 4429 C 447.948 1.90408 0.447665 0
M  V30 4430 O 449.154 2.60707 0.757906 0
M  V30 4431 C 447.61 3.13026 -1.77603 0
M  V30 4432 C 447.218 3.04623 -3.28495 0
M  V30 4433 C 448.962 3.90312 -1.66904 0
M  V30 4434 C 446.869 4.38685 -3.96623 0
M  V30 4435 H 445.799 0.652422 -0.377971 0
M  V30 4436 H 448.45 1.12755 -1.44771 0
M  V30 4437 H 446.832 3.74878 -1.27604 0
M  V30 4438 H 448.006 2.52032 -3.85767 0
M  V30 4439 H 446.321 2.40827 -3.39693 0
M  V30 4440 H 448.918 4.8951 -2.15138 0
M  V30 4441 H 449.261 4.11558 -0.62658 0
M  V30 4442 H 449.794 3.35104 -2.14359 0
M  V30 4443 H 446.533 4.22641 -5.01054 0
M  V30 4444 H 446.053 4.91252 -3.4414 0
M  V30 4445 H 447.732 5.075 -4.01314 0
M  V30 4446 N 447.864 1.01787 1.20321 0
M  V30 4447 C 449.112 0.706538 1.89347 0
M  V30 4448 C 449.433 -0.766289 1.79313 0
M  V30 4449 O 448.703 -1.55126 1.19635 0
M  V30 4450 H 447.283 0.258348 0.700903 0
M  V30 4451 H 449.945 1.28974 1.46122 0
M  V30 4452 H 449.041 0.991066 2.95946 0
M  V30 4453 N 449.342 -1.36122 0.79427 0
M  V30 4454 C 450.572 -2.03067 0.380437 0
M  V30 4455 C 450.98 -1.60018 -1.00949 0
M  V30 4456 O 450.323 -0.787425 -1.65968 0
M  V30 4457 C 450.385 -3.57587 0.37034 0
M  V30 4458 C 450.049 -4.23855 1.70867 0
M  V30 4459 C 451.046 -4.46404 2.66496 0
M  V30 4460 C 448.731 -4.61229 1.9893 0
M  V30 4461 C 450.725 -5.05412 3.88378 0
M  V30 4462 C 448.412 -5.19953 3.21079 0
M  V30 4463 C 449.41 -5.41985 4.15621 0
M  V30 4464 O 449.098 -5.99475 5.35616 0
M  V30 4465 H 448.83 -0.658168 0.154243 0
M  V30 4466 H 451.384 -1.7498 1.0757 0
M  V30 4467 H 449.614 -3.84814 -0.381444 0
M  V30 4468 H 451.303 -4.05895 -0.0194894 0
M  V30 4469 H 452.069 -4.17921 2.46103 0
M  V30 4470 H 447.948 -4.43402 1.26158 0
M  V30 4471 H 451.492 -5.22524 4.62185 0
M  V30 4472 H 447.389 -5.47862 3.41347 0
M  V30 4473 H 448.157 -6.17937 5.36745 0
M  V30 4474 N 450.82 -0.546701 -1.47814 0
M  V30 4475 C 452.069 -0.0166497 -2.01693 0
M  V30 4476 C 452.382 1.33721 -1.42752 0
M  V30 4477 O 453.588 1.95658 -1.8823 0
M  V30 4478 C 452.044 0.0206769 -3.59894 0
M  V30 4479 C 451.652 -1.3293 -4.27824 0
M  V30 4480 C 453.396 0.498674 -4.21561 0
M  V30 4481 C 451.303 -1.25165 -5.78003 0
M  V30 4482 H 450.233 -0.0024541 -0.753996 0
M  V30 4483 H 452.884 -0.692984 -1.69912 0
M  V30 4484 H 451.266 0.76244 -3.88591 0
M  V30 4485 H 452.44 -2.08795 -4.10781 0
M  V30 4486 H 450.755 -1.74438 -3.78101 0
M  V30 4487 H 453.352 0.575 -5.31599 0
M  V30 4488 H 453.695 1.5083 -3.88016 0
M  V30 4489 H 454.228 -0.18791 -3.97356 0
M  V30 4490 H 450.967 -2.23695 -6.1615 0
M  V30 4491 H 450.487 -0.53464 -5.97412 0
M  V30 4492 H 452.166 -0.949299 -6.39998 0
M  V30 4493 N 452.299 1.55045 -0.282633 0
M  V30 4494 C 453.247 2.24254 0.617478 0
M  V30 4495 C 454.241 1.24215 1.15183 0
M  V30 4496 O 455.447 1.42123 1.10459 0
M  V30 4497 H 451.822 0.719801 0.217693 0
M  V30 4498 H 453.793 2.98398 0.0110076 0
M  V30 4499 C 452.542 2.98281 1.78672 0
M  V30 4500 H 451.865 3.75053 1.38475 0
M  V30 4501 H 453.305 3.50017 2.393 0
M  V30 4502 C 451.764 2.04184 2.67975 0
M  V30 4503 O 452.294 1.59792 3.6855 0
M  V30 4504 N 450.5 1.70526 2.35307 0
M  V30 4505 H 450.047 2.06821 1.53567 0
M  V30 4506 H 450.005 1.07839 2.95327 0
M  V30 4507 N 453.777 0.010035 1.57597 0
M  V30 4508 C 455.188 -0.531426 1.78977 0
M  V30 4509 C 455.539 -1.73375 0.918454 0
M  V30 4510 O 454.664 -2.16047 0.123635 0
M  V30 4511 C 455.259 -0.97086 3.24592 0
M  V30 4512 C 453.818 -1.45756 3.47033 0
M  V30 4513 C 452.965 -0.413384 2.74201 0
M  V30 4514 H 455.916 0.236166 1.56933 0
M  V30 4515 H 455.937 -1.83633 3.33255 0
M  V30 4516 H 455.449 -0.0955893 3.87982 0
M  V30 4517 H 453.55 -2.35339 2.88871 0
M  V30 4518 H 453.663 -1.4781 4.55729 0
M  V30 4519 H 452.027 -0.877266 2.39115 0
M  V30 4520 H 452.81 0.453092 3.40297 0
M  V30 4521 N 455.255 -1.55392 -0.262866 0
M  V30 4522 C 456.48 -1.80847 -1.01533 0
M  V30 4523 C 456.905 -0.584946 -1.78774 0
M  V30 4524 O 456.263 0.465701 -1.75217 0
M  V30 4525 C 456.311 -3.03866 -1.94159 0
M  V30 4526 O 455.415 -2.79662 -3.03089 0
M  V30 4527 H 454.756 -0.597441 -0.289759 0
M  V30 4528 H 457.286 -2.02553 -0.288698 0
M  V30 4529 H 457.296 -3.32872 -2.35924 0
M  V30 4530 H 455.971 -3.92564 -1.37354 0
M  V30 4531 H 454.548 -2.61781 -2.65566 0
M  V30 4532 N 456.733 0.527833 -1.48498 0
M  V30 4533 C 458.149 0.856571 -1.34666 0
M  V30 4534 C 458.349 1.98271 -0.35931 0
M  V30 4535 O 457.405 2.51551 0.218703 0
M  V30 4536 C 458.718 1.22207 -2.74747 0
M  V30 4537 C 460.266 1.33183 -2.83251 0
M  V30 4538 C 460.741 1.73075 -4.24039 0
M  V30 4539 N 462.232 1.80174 -4.26722 0
M  V30 4540 C 462.967 2.1243 -5.32598 0
M  V30 4541 N 462.463 2.43096 -6.4875 0
M  V30 4542 N 464.256 2.13454 -5.19994 0
M  V30 4543 H 456.407 -0.215174 -2.11307 0
M  V30 4544 H 458.67 -0.0336281 -0.947403 0
M  V30 4545 H 458.376 0.468195 -3.4857 0
M  V30 4546 H 458.25 2.17173 -3.08409 0
M  V30 4547 H 460.637 2.07647 -2.09683 0
M  V30 4548 H 460.718 0.363333 -2.53206 0
M  V30 4549 H 460.362 0.991712 -4.98124 0
M  V30 4550 H 460.292 2.70979 -4.51529 0
M  V30 4551 H 462.783 1.58744 -3.42942 0
M  V30 4552 H 463.096 2.6682 -7.25277 0
M  V30 4553 H 461.441 2.40611 -6.52021 0
M  V30 4554 H 464.632 1.88956 -4.28268 0
M  V30 4555 H 464.805 2.38261 -6.02608 0
M  V30 4556 N 458.211 1.37122 0.776871 0
M  V30 4557 C 459.459 1.31787 1.53221 0
M  V30 4558 C 459.78 -0.0987589 1.9475 0
M  V30 4559 O 459.05 -1.0417 1.65908 0
M  V30 4560 H 457.63 0.484839 0.568278 0
M  V30 4561 H 460.292 1.71556 0.924917 0
M  V30 4562 H 459.388 1.95355 2.43398 0
M  V30 4563 N 459.689 -1.00246 1.21608 0
M  V30 4564 C 460.919 -1.77373 1.05935 0
M  V30 4565 C 461.327 -1.85059 -0.393686 0
M  V30 4566 O 460.67 -1.31289 -1.28487 0
M  V30 4567 C 460.732 -3.22705 1.58435 0
M  V30 4568 C 460.396 -3.38591 3.06929 0
M  V30 4569 C 461.393 -3.2667 4.04454 0
M  V30 4570 C 459.078 -3.6395 3.46187 0
M  V30 4571 C 461.072 -3.39877 5.39224 0
M  V30 4572 C 458.759 -3.768 4.81108 0
M  V30 4573 C 459.757 -3.6477 5.77436 0
M  V30 4574 O 459.445 -3.77206 7.09909 0
M  V30 4575 H 459.177 -0.56419 0.372378 0
M  V30 4576 H 461.731 -1.26971 1.61454 0
M  V30 4577 H 459.961 -3.74255 0.973147 0
M  V30 4578 H 461.65 -3.81515 1.38568 0
M  V30 4579 H 462.416 -3.06999 3.75468 0
M  V30 4580 H 458.295 -3.72395 2.71741 0
M  V30 4581 H 461.839 -3.30404 6.14393 0
M  V30 4582 H 457.736 -3.95975 5.09779 0
M  V30 4583 H 458.504 -3.94138 7.17355 0
M  V30 4584 N 461.167 -1.02423 -1.1978 0
M  V30 4585 C 462.395 -0.737456 -1.93311 0
M  V30 4586 C 462.81 0.703023 -1.75223 0
M  V30 4587 O 462.167 1.47761 -1.07112 0
M  V30 4588 C 462.218 -1.0733 -3.45199 0
M  V30 4589 O 461.939 -2.4572 -3.62702 0
M  V30 4590 C 463.44 -0.80866 -4.35862 0
M  V30 4591 H 460.66 -0.2702 -0.614193 0
M  V30 4592 H 463.204 -1.36747 -1.52054 0
M  V30 4593 H 461.359 -0.488545 -3.84307 0
M  V30 4594 H 461.773 -2.58081 -4.56612 0
M  V30 4595 H 463.247 -1.09365 -5.41057 0
M  V30 4596 H 463.724 0.257025 -4.38447 0
M  V30 4597 H 464.33 -1.37592 -4.02428 0
M  V30 4598 N 462.645 1.35699 -0.801477 0
M  V30 4599 C 463.593 2.3177 -0.196317 0
M  V30 4600 C 464.587 1.56388 0.651081 0
M  V30 4601 O 465.793 1.71557 0.544815 0
M  V30 4602 H 462.168 0.750669 -0.0447189 0
M  V30 4603 H 464.139 2.8036 -1.02181 0
M  V30 4604 C 462.888 3.41671 0.644702 0
M  V30 4605 H 462.211 3.998 0.0019921 0
M  V30 4606 H 463.651 4.11184 1.0346 0
M  V30 4607 C 462.11 2.84271 1.80808 0
M  V30 4608 O 462.64 2.77408 2.9053 0
M  V30 4609 N 460.846 2.41391 1.61799 0
M  V30 4610 H 460.393 2.47173 0.725493 0
M  V30 4611 H 460.351 2.03334 2.39797 0
M  V30 4612 N 464.123 0.554532 1.47522 0
M  V30 4613 C 465.353 0.0342074 2.06572 0
M  V30 4614 C 465.761 -1.26375 1.40805 0
M  V30 4615 O 465.104 -1.7683 0.49769 0
M  V30 4616 C 465.166 -0.235096 3.5873 0
M  V30 4617 C 464.83 0.973024 4.46521 0
M  V30 4618 C 465.827 1.8779 4.848 0
M  V30 4619 C 463.512 1.18694 4.88075 0
M  V30 4620 C 465.506 2.98039 5.63428 0
M  V30 4621 C 463.193 2.29254 5.66468 0
M  V30 4622 C 464.191 3.18757 6.04055 0
M  V30 4623 O 463.879 4.27401 6.8087 0
M  V30 4624 H 463.611 0.041587 0.67472 0
M  V30 4625 H 466.165 0.766748 1.90552 0
M  V30 4626 H 464.395 -1.02191 3.72953 0
M  V30 4627 H 466.084 -0.700477 3.9981 0
M  V30 4628 H 466.85 1.72467 4.53299 0
M  V30 4629 H 462.729 0.49947 4.58286 0
M  V30 4630 H 466.273 3.67926 5.92685 0
M  V30 4631 H 462.17 2.4455 5.97382 0
M  V30 4632 H 462.938 4.25415 6.9926 0
M  V30 4633 N 465.601 -1.54893 0.290851 0
M  V30 4634 C 466.549 -2.24579 -0.605576 0
M  V30 4635 C 467.543 -1.24824 -1.14522 0
M  V30 4636 O 468.749 -1.42706 -1.09704 0
M  V30 4637 H 465.124 -0.720946 -0.213872 0
M  V30 4638 H 467.095 -2.984 0.0048173 0
M  V30 4639 C 465.844 -2.99224 -1.77088 0
M  V30 4640 H 465.167 -3.75782 -1.36484 0
M  V30 4641 H 466.607 -3.51281 -2.3744 0
M  V30 4642 C 465.066 -2.05602 -2.66888 0
M  V30 4643 O 465.596 -1.61745 -3.67698 0
M  V30 4644 N 463.802 -1.71771 -2.34399 0
M  V30 4645 H 463.349 -2.07633 -1.52468 0
M  V30 4646 H 463.307 -1.09403 -2.94751 0
M  V30 4647 N 467.08 -0.0183926 -1.57589 0
M  V30 4648 C 468.012 0.995557 -2.06449 0
M  V30 4649 C 469.025 1.29556 -0.985849 0
M  V30 4650 O 470.214 1.2621 -1.26227 0
M  V30 4651 C 467.314 2.32572 -2.46502 0
M  V30 4652 C 466.487 2.21245 -3.77319 0
M  V30 4653 C 465.546 3.37104 -4.04039 0
M  V30 4654 O 464.572 3.14468 -4.74445 0
M  V30 4655 N 465.774 4.60553 -3.53372 0
M  V30 4656 H 468.539 0.578746 -2.94059 0
M  V30 4657 H 466.1 0.168603 -1.6102 0
M  V30 4658 H 468.092 3.08887 -2.61478 0
M  V30 4659 H 466.662 2.65931 -1.64315 0
M  V30 4660 H 465.882 1.29723 -3.72244 0
M  V30 4661 H 467.17 2.10868 -4.63047 0
M  V30 4662 H 466.568 4.81839 -2.96391 0
M  V30 4663 H 465.125 5.34072 -3.73644 0
M  V30 4664 N 468.558 1.5553 0.254621 0
M  V30 4665 C 469.505 1.89666 1.31512 0
M  V30 4666 C 470.475 0.750057 1.482 0
M  V30 4667 O 471.66 1.00301 1.62309 0
M  V30 4668 C 468.8 2.19009 2.667 0
M  V30 4669 C 467.913 3.46435 2.58083 0
M  V30 4670 C 467.048 3.65386 3.85573 0
M  V30 4671 C 466.087 4.8644 3.71541 0
M  V30 4672 N 465.224 5.01952 4.90906 0
M  V30 4673 H 470.064 2.80109 1.017 0
M  V30 4674 H 467.601 1.38666 0.490938 0
M  V30 4675 H 469.559 2.34025 3.45381 0
M  V30 4676 H 468.189 1.31779 2.94676 0
M  V30 4677 H 467.241 3.39792 1.71013 0
M  V30 4678 H 468.553 4.35258 2.43622 0
M  V30 4679 H 467.707 3.80319 4.72697 0
M  V30 4680 H 466.446 2.74781 4.02922 0
M  V30 4681 H 465.451 4.71491 2.82801 0
M  V30 4682 H 466.676 5.78497 3.55694 0
M  V30 4683 H 464.622 4.14283 5.08631 0
M  V30 4684 H 464.539 5.84851 4.79046 0
M  V30 4685 H 465.807 5.21289 5.7955 0
M  V30 4686 N 470.036 -0.519951 1.48776 0
M  V30 4687 C 471.283 -1.27522 1.57303 0
M  V30 4688 C 471.611 -1.92869 0.251328 0
M  V30 4689 O 470.866 -1.80372 -0.759243 0
M  V30 4690 C 471.165 -2.37864 2.6675 0
M  V30 4691 C 470.831 -1.90103 4.08867 0
M  V30 4692 C 469.493 -1.76795 4.47546 0
M  V30 4693 C 471.845 -1.54133 4.97888 0
M  V30 4694 C 469.173 -1.25868 5.73039 0
M  V30 4695 C 471.525 -1.04665 6.23881 0
M  V30 4696 C 470.189 -0.899823 6.61407 0
M  V30 4697 H 469.459 -0.466636 0.575614 0
M  V30 4698 H 472.106 -0.579109 1.82534 0
M  V30 4699 H 470.411 -3.13186 2.35418 0
M  V30 4700 H 472.108 -2.95969 2.70561 0
M  V30 4701 H 468.698 -2.01414 3.78326 0
M  V30 4702 H 472.882 -1.6327 4.68675 0
M  V30 4703 H 468.138 -1.13196 6.0083 0
M  V30 4704 H 472.312 -0.759074 6.92251 0
M  V30 4705 H 469.939 -0.503011 7.58534 0
M  V30 4706 N 471.514 -1.37532 -0.769588 0
M  V30 4707 C 472.461 -1.3347 -1.88293 0
M  V30 4708 C 473.431 -0.199891 -1.64893 0
M  V30 4709 O 474.616 -0.389594 -1.8678 0
M  V30 4710 C 471.756 -1.14968 -3.25387 0
M  V30 4711 C 470.869 -2.37698 -3.60727 0
M  V30 4712 C 470.004 -2.12051 -4.8704 0
M  V30 4713 C 469.043 -3.30636 -5.15117 0
M  V30 4714 N 468.18 -3.04527 -6.3262 0
M  V30 4715 H 473.02 -2.28658 -1.911 0
M  V30 4716 H 470.557 -1.13622 -0.934257 0
M  V30 4717 H 472.515 -1.02261 -4.04473 0
M  V30 4718 H 471.145 -0.234263 -3.21949 0
M  V30 4719 H 470.197 -2.61137 -2.76608 0
M  V30 4720 H 471.509 -3.26131 -3.77413 0
M  V30 4721 H 470.663 -1.96388 -5.74035 0
M  V30 4722 H 469.402 -1.20959 -4.72462 0
M  V30 4723 H 468.407 -3.46836 -4.26597 0
M  V30 4724 H 469.632 -4.22582 -5.31603 0
M  V30 4725 H 467.578 -2.16067 -6.19396 0
M  V30 4726 H 467.495 -3.86503 -6.49732 0
M  V30 4727 H 468.763 -2.92485 -7.22546 0
M  V30 4728 N 472.992 0.995999 -1.22138 0
M  V30 4729 C 474.269 1.70834 -0.952642 0
M  V30 4730 C 474.649 2.04257 0.533119 0
M  V30 4731 O 473.997 1.72343 1.50034 0
M  V30 4732 C 474.207 2.96119 -1.84701 0
M  V30 4733 C 475.555 3.68962 -2.10124 0
M  V30 4734 O 476.579 3.0612 -1.82124 0
M  V30 4735 O 475.438 4.82017 -2.57531 0
M  V30 4736 H 472.532 0.745498 -0.357997 0
M  V30 4737 H 475.078 1.05262 -1.33109 0
M  V30 4738 H 473.85 2.67898 -2.85213 0
M  V30 4739 H 473.473 3.6943 -1.46995 0
M  V30 4740 N 474.47 1.03057 1.19235 0
M  V30 4741 C 475.417 0.612832 2.22515 0
M  V30 4742 C 476.387 -0.374224 1.61829 0
M  V30 4743 O 477.572 -0.270501 1.88873 0
M  V30 4744 C 474.712 -0.028475 3.45088 0
M  V30 4745 C 473.825 1.00483 4.20151 0
M  V30 4746 C 472.96 0.333102 5.30155 0
M  V30 4747 C 471.999 1.3522 5.96977 0
M  V30 4748 N 471.136 0.70616 6.9854 0
M  V30 4749 H 475.976 1.49812 2.57605 0
M  V30 4750 H 473.513 0.749658 1.26564 0
M  V30 4751 H 475.471 -0.417548 4.15105 0
M  V30 4752 H 474.101 -0.877334 3.10649 0
M  V30 4753 H 473.153 1.51194 3.49062 0
M  V30 4754 H 474.465 1.77929 4.65986 0
M  V30 4755 H 473.619 -0.110725 6.06599 0
M  V30 4756 H 472.358 -0.473547 4.85396 0
M  V30 4757 H 471.363 1.80627 5.19282 0
M  V30 4758 H 472.588 2.16037 6.4382 0
M  V30 4759 H 470.534 -0.0803667 6.55951 0
M  V30 4760 H 470.451 1.41848 7.42573 0
M  V30 4761 H 471.719 0.286391 7.78974 0
M  V30 4762 N 475.948 -1.35272 0.808662 0
M  V30 4763 C 476.911 -2.28082 0.226093 0
M  V30 4764 C 477.911 -1.49673 -0.587762 0
M  V30 4765 O 479.101 -1.69404 -0.405943 0
M  V30 4766 C 476.233 -3.33955 -0.684596 0
M  V30 4767 H 477.426 -2.81116 1.04469 0
M  V30 4768 H 474.979 -1.45162 0.579466 0
M  V30 4769 H 475.714 -2.86111 -1.5268 0
M  V30 4770 H 475.499 -3.91965 -0.102699 0
M  V30 4771 H 476.989 -4.03219 -1.08646 0
M  V30 4772 N 477.426 -0.562348 -1.47226 0
M  V30 4773 C 478.654 -0.0452275 -2.06851 0
M  V30 4774 C 479.069 1.25078 -1.41424 0
M  V30 4775 O 478.426 1.75156 -0.512513 0
M  V30 4776 C 478.477 0.148674 -3.61194 0
M  V30 4777 O 478.198 -1.09602 -4.24169 0
M  V30 4778 C 479.699 0.702488 -4.37699 0
M  V30 4779 H 476.919 -0.0481775 -0.669268 0
M  V30 4780 H 479.463 -0.777223 -1.89155 0
M  V30 4781 H 477.618 0.830817 -3.78386 0
M  V30 4782 H 478.032 -0.896982 -5.16773 0
M  V30 4783 H 479.506 0.78743 -5.46355 0
M  V30 4784 H 479.983 1.71493 -4.04335 0
M  V30 4785 H 480.589 0.0558772 -4.25263 0
M  V30 4786 N 478.904 1.54736 -0.299062 0
M  V30 4787 C 479.834 2.26409 0.571085 0
M  V30 4788 C 480.815 1.2629 1.13951 0
M  V30 4789 O 482 1.55059 1.16921 0
M  V30 4790 C 479.13 3.00338 1.74396 0
M  V30 4791 C 478.084 4.07588 1.30599 0
M  V30 4792 C 477.41 4.69222 2.56387 0
M  V30 4793 C 478.71 5.20455 0.438645 0
M  V30 4794 H 480.404 2.99388 -0.0266991 0
M  V30 4795 H 477.95 1.43993 -0.0142812 0
M  V30 4796 H 479.903 3.49198 2.35878 0
M  V30 4797 H 478.627 2.24934 2.36796 0
M  V30 4798 H 477.286 3.59575 0.71424 0
M  V30 4799 H 476.934 3.9046 3.17097 0
M  V30 4800 H 476.634 5.41653 2.27784 0
M  V30 4801 H 478.158 5.20844 3.18675 0
M  V30 4802 H 479.572 5.65221 0.959085 0
M  V30 4803 H 477.969 5.99594 0.246466 0
M  V30 4804 H 479.039 4.8192 -0.536738 0
M  V30 4805 N 480.382 0.0267497 1.57577 0
M  V30 4806 C 481.61 -0.662661 1.96001 0
M  V30 4807 C 482.025 -1.65799 0.903117 0
M  V30 4808 O 481.382 -1.82135 -0.115317 0
M  V30 4809 C 481.433 -1.37112 3.34488 0
M  V30 4810 O 481.154 -0.415683 4.36123 0
M  V30 4811 C 482.655 -2.15257 3.8753 0
M  V30 4812 H 479.875 -0.18287 0.6456 0
M  V30 4813 H 482.419 0.0858116 2.0432 0
M  V30 4814 H 480.574 -2.07101 3.27395 0
M  V30 4815 H 480.988 -0.918496 5.16395 0
M  V30 4816 H 482.462 -2.60285 4.86781 0
M  V30 4817 H 482.939 -2.99063 3.21649 0
M  V30 4818 H 483.545 -1.50231 3.97883 0
M  V30 4819 N 481.861 -1.55662 -0.24637 0
M  V30 4820 C 483.089 -1.81575 -0.991876 0
M  V30 4821 C 483.504 -0.602545 -1.78927 0
M  V30 4822 O 482.861 0.428795 -1.77391 0
M  V30 4823 C 482.912 -3.05711 -1.92933 0
M  V30 4824 O 482.633 -4.22348 -1.1642 0
M  V30 4825 C 484.134 -3.44428 -2.79078 0
M  V30 4826 H 481.354 -0.604209 -0.291844 0
M  V30 4827 H 483.898 -2.02722 -0.269095 0
M  V30 4828 H 482.053 -2.86612 -2.60638 0
M  V30 4829 H 482.467 -4.92706 -1.79835 0
M  V30 4830 H 483.941 -4.34388 -3.40603 0
M  V30 4831 H 484.418 -2.65037 -3.50217 0
M  V30 4832 H 485.024 -3.65879 -2.16824 0
M  V30 4833 N 483.339 0.512053 -1.4905 0
M  V30 4834 C 484.616 1.27337 -1.48474 0
M  V30 4835 C 484.996 2.1009 -0.206301 0
M  V30 4836 O 484.344 2.136 0.811609 0
M  V30 4837 C 484.554 2.13954 -2.75726 0
M  V30 4838 C 485.902 2.73507 -3.24776 0
M  V30 4839 O 486.926 2.24229 -2.76767 0
M  V30 4840 O 485.785 3.63186 -4.08361 0
M  V30 4841 H 482.879 0.575652 -0.593762 0
M  V30 4842 H 485.425 0.527232 -1.61302 0
M  V30 4843 H 484.197 1.52709 -3.60272 0
M  V30 4844 H 483.82 2.95782 -2.65705 0
M  V30 4845 N 484.817 1.37938 0.762283 0
M  V30 4846 C 485.764 1.34467 1.87583 0
M  V30 4847 C 486.734 0.208633 1.64785 0
M  V30 4848 O 487.919 0.399494 1.86571 0
M  V30 4849 C 485.059 1.16692 3.24772 0
M  V30 4850 C 484.172 2.39608 3.59461 0
M  V30 4851 C 483.307 2.14631 4.85908 0
M  V30 4852 C 482.346 3.33364 5.13357 0
M  V30 4853 N 481.483 3.07877 6.30996 0
M  V30 4854 H 486.323 2.29669 1.89885 0
M  V30 4855 H 483.86 1.14116 0.928219 0
M  V30 4856 H 485.818 1.04405 4.03925 0
M  V30 4857 H 484.448 0.251333 3.2182 0
M  V30 4858 H 483.5 2.626 2.75219 0
M  V30 4859 H 484.812 3.28128 3.75678 0
M  V30 4860 H 483.966 1.99429 5.72986 0
M  V30 4861 H 482.705 1.23463 4.71814 0
M  V30 4862 H 481.71 3.49094 4.24751 0
M  V30 4863 H 482.935 4.25395 5.29354 0
M  V30 4864 H 480.881 2.19348 6.18241 0
M  V30 4865 H 480.798 3.89944 6.47673 0
M  V30 4866 H 482.066 2.96313 7.20985 0
M  V30 4867 N 486.295 -0.989507 1.22664 0
M  V30 4868 C 487.52 -1.77031 1.08051 0
M  V30 4869 C 487.945 -1.84535 -0.364483 0
M  V30 4870 O 487.303 -1.3003 -1.2634 0
M  V30 4871 C 487.351 -3.18 1.70024 0
M  V30 4872 O 486.455 -4.01161 0.956216 0
M  V30 4873 H 485.796 -0.545008 0.379292 0
M  V30 4874 H 488.326 -1.24277 1.62531 0
M  V30 4875 H 488.336 -3.68616 1.74888 0
M  V30 4876 H 487.011 -3.11853 2.75174 0
M  V30 4877 H 485.588 -3.59687 0.98384 0
M  V30 4878 N 487.773 -1.03688 -1.18687 0
M  V30 4879 C 488.998 -0.757819 -1.93059 0
M  V30 4880 C 489.423 0.678353 -1.75442 0
M  V30 4881 O 488.781 1.46938 -1.06203 0
M  V30 4882 C 488.829 -1.12423 -3.42627 0
M  V30 4883 O 487.933 -0.247505 -4.11657 0
M  V30 4884 H 487.274 -0.279245 -0.602427 0
M  V30 4885 H 489.804 -1.3857 -1.5053 0
M  V30 4886 H 489.814 -1.08454 -3.93322 0
M  V30 4887 H 488.489 -2.17049 -3.54771 0
M  V30 4888 H 487.066 -0.34649 -3.71287 0
M  V30 4889 N 489.251 1.34841 -0.815825 0
M  V30 4890 C 490.476 2.03261 -0.41226 0
M  V30 4891 C 490.901 1.61055 0.971751 0
M  V30 4892 O 490.259 0.7917 1.63101 0
M  V30 4893 C 490.307 3.56914 -0.514289 0
M  V30 4894 O 489.411 4.09728 0.468675 0
M  V30 4895 H 488.752 0.641664 -0.170771 0
M  V30 4896 H 491.282 1.72241 -1.10427 0
M  V30 4897 H 491.292 4.06156 -0.387457 0
M  V30 4898 H 489.967 3.86982 -1.52375 0
M  V30 4899 H 488.544 3.71681 0.301316 0
M  V30 4900 N 490.729 0.570148 1.46925 0
M  V30 4901 C 491.957 0.0561966 2.06824 0
M  V30 4902 C 492.372 -1.24326 1.42086 0
M  V30 4903 O 491.729 -1.74882 0.521794 0
M  V30 4904 C 491.78 -0.129517 3.61268 0
M  V30 4905 O 491.501 1.1185 4.23581 0
M  V30 4906 C 493.002 -0.679266 4.38065 0
M  V30 4907 H 490.222 0.0517261 0.669003 0
M  V30 4908 H 492.766 0.787243 1.8874 0
M  V30 4909 H 490.921 -0.810739 3.78822 0
M  V30 4910 H 491.335 0.924375 5.1629 0
M  V30 4911 H 492.809 -0.758445 5.46765 0
M  V30 4912 H 493.286 -1.69346 4.05239 0
M  V30 4913 H 493.892 -0.0333237 4.25287 0
M  V30 4914 N 492.207 -1.54576 0.307264 0
M  V30 4915 C 493.17 -2.22423 -0.553224 0
M  V30 4916 C 494.17 -1.21231 -1.05639 0
M  V30 4917 O 495.36 -1.45923 -0.951419 0
M  V30 4918 C 492.492 -2.91552 -1.76664 0
M  V30 4919 H 493.685 -2.99874 0.0396484 0
M  V30 4920 H 491.238 -1.56192 0.0581629 0
M  V30 4921 H 491.973 -2.18196 -2.39918 0
M  V30 4922 H 491.758 -3.65738 -1.41343 0
M  V30 4923 H 493.248 -3.43292 -2.37783 0
M  V30 4924 N 493.685 -0.035106 -1.57561 0
M  V30 4925 C 494.915 0.651312 -1.96065 0
M  V30 4926 C 495.323 1.6585 -0.910514 0
M  V30 4927 O 494.666 1.83336 0.11552 0
M  V30 4928 C 494.728 1.40897 -3.30739 0
M  V30 4929 C 494.392 0.559436 -4.53563 0
M  V30 4930 C 495.389 -0.16778 -5.19629 0
M  V30 4931 C 493.074 0.495079 -4.99854 0
M  V30 4932 C 495.068 -0.947963 -6.30311 0
M  V30 4933 C 492.755 -0.288804 -6.10417 0
M  V30 4934 C 493.753 -1.00903 -6.75505 0
M  V30 4935 O 493.441 -1.78005 -7.83945 0
M  V30 4936 H 493.173 0.184036 -0.650467 0
M  V30 4937 H 495.727 -0.0929677 -2.05189 0
M  V30 4938 H 493.957 2.19852 -3.18123 0
M  V30 4939 H 495.646 1.98407 -3.54104 0
M  V30 4940 H 496.412 -0.12743 -4.84833 0
M  V30 4941 H 492.291 1.04524 -4.48994 0
M  V30 4942 H 495.835 -1.51064 -6.81047 0
M  V30 4943 H 491.732 -0.33085 -6.44652 0
M  V30 4944 H 492.5 -1.70046 -8.00641 0
M  V30 4945 N 495.163 1.55791 0.238111 0
M  V30 4946 C 496.096 1.86036 1.32158 0
M  V30 4947 C 497.074 0.716216 1.45976 0
M  V30 4948 O 498.258 0.962882 1.62052 0
M  V30 4949 C 495.385 2.05281 2.69402 0
M  V30 4950 C 494.431 3.27939 2.72687 0
M  V30 4951 S 495.264 4.84342 2.28413 0
M  V30 4952 C 496.42 5.06604 3.67565 0
M  V30 4953 H 496.653 2.77644 1.06306 0
M  V30 4954 H 494.186 1.48012 0.439537 0
M  V30 4955 H 496.144 2.17053 3.48423 0
M  V30 4956 H 494.805 1.14499 2.92487 0
M  V30 4957 H 493.998 3.38398 3.73501 0
M  V30 4958 H 493.6 3.14938 2.01717 0
M  V30 4959 H 495.892 4.94486 4.6313 0
M  V30 4960 H 496.835 6.08554 3.62033 0
M  V30 4961 H 497.243 4.34409 3.60485 0
M  V30 4962 N 496.642 -0.504142 1.49319 0
M  V30 4963 C 497.574 -1.62265 1.61872 0
M  V30 4964 C 498.587 -1.54881 0.501573 0
M  V30 4965 O 499.776 -1.6087 0.773497 0
M  V30 4966 C 496.876 -3.01042 1.55651 0
M  V30 4967 C 496.049 -3.33642 2.82845 0
M  V30 4968 C 495.108 -4.51816 2.69719 0
M  V30 4969 O 494.134 -4.53755 3.4365 0
M  V30 4970 N 495.336 -5.51543 1.81055 0
M  V30 4971 H 498.101 -1.51924 2.58339 0
M  V30 4972 H 495.662 -0.691954 1.46368 0
M  V30 4973 H 497.654 -3.78013 1.44528 0
M  V30 4974 H 496.224 -3.05323 0.670546 0
M  V30 4975 H 495.444 -2.45598 3.08343 0
M  V30 4976 H 496.732 -3.5222 3.67177 0
M  V30 4977 H 496.13 -5.52774 1.20241 0
M  V30 4978 H 494.687 -6.27629 1.75856 0
M  V30 4979 N 498.12 -1.38341 -0.754957 0
M  V30 4980 C 499.05 -1.38176 -1.88227 0
M  V30 4981 C 500.031 -0.247873 -1.68284 0
M  V30 4982 O 501.216 -0.45075 -1.88896 0
M  V30 4983 C 498.346 -1.20471 -3.25736 0
M  V30 4984 C 497.3 -2.3105 -3.60278 0
M  V30 4985 C 496.626 -1.98452 -4.96509 0
M  V30 4986 C 497.926 -3.73305 -3.65295 0
M  V30 4987 H 499.62 -2.32512 -1.88622 0
M  V30 4988 H 497.166 -1.1192 -0.906082 0
M  V30 4989 H 499.119 -1.18982 -4.04254 0
M  V30 4990 H 497.843 -0.225965 -3.25817 0
M  V30 4991 H 496.502 -2.31723 -2.84078 0
M  V30 4992 H 496.15 -0.990641 -4.93148 0
M  V30 4993 H 495.85 -2.7251 -5.20588 0
M  V30 4994 H 497.374 -1.98578 -5.77407 0
M  V30 4995 H 498.788 -3.7467 -4.3393 0
M  V30 4996 H 497.185 -4.46557 -4.00883 0
M  V30 4997 H 498.255 -4.05719 -2.65556 0
M  V30 4998 N 499.598 0.982988 -1.23187 0
M  V30 4999 C 500.823 1.76455 -1.08988 0
M  V30 5000 C 501.248 1.84726 0.354691 0
M  V30 5001 O 500.606 1.30699 1.25649 0
M  V30 5002 C 500.654 3.17094 -1.71708 0
M  V30 5003 O 499.758 4.00648 -0.977477 0
M  V30 5004 H 499.099 0.542988 -0.382177 0
M  V30 5005 H 501.629 1.23413 -1.63188 0
M  V30 5006 H 501.639 3.67684 -1.76841 0
M  V30 5007 H 500.314 3.10389 -2.76823 0
M  V30 5008 H 498.891 3.59161 -1.0029 0
M  V30 5009 N 501.076 1.04316 1.18135 0
M  V30 5010 C 502.301 0.768047 1.92655 0
M  V30 5011 C 502.726 -0.66904 1.758 0
M  V30 5012 O 502.084 -1.46372 1.06981 0
M  V30 5013 C 502.132 1.14239 3.42026 0
M  V30 5014 O 501.236 0.269333 4.1152 0
M  V30 5015 H 500.577 0.282436 0.600937 0
M  V30 5016 H 503.107 1.39367 1.49793 0
M  V30 5017 H 503.117 1.10538 3.92741 0
M  V30 5018 H 501.792 2.18928 3.53615 0
M  V30 5019 H 500.369 0.366175 3.71098 0
M  V30 5020 N 502.554 -1.34406 0.822964 0
M  V30 5021 C 503.484 -2.32052 0.259608 0
M  V30 5022 C 504.465 -1.58243 -0.623961 0
M  V30 5023 O 505.65 -1.86224 -0.55083 0
M  V30 5024 C 502.78 -3.42434 -0.579314 0
M  V30 5025 C 501.734 -4.27499 0.20712 0
M  V30 5026 C 501.06 -5.29349 -0.754547 0
M  V30 5027 C 502.36 -5.02758 1.41533 0
M  V30 5028 H 504.054 -2.79418 1.07545 0
M  V30 5029 H 501.6 -1.34338 0.518593 0
M  V30 5030 H 503.553 -4.0976 -0.983612 0
M  V30 5031 H 502.277 -2.93717 -1.4282 0
M  V30 5032 H 500.936 -3.61776 0.592787 0
M  V30 5033 H 500.584 -4.76895 -1.59939 0
M  V30 5034 H 500.284 -5.8714 -0.232561 0
M  V30 5035 H 501.808 -5.99544 -1.1567 0
M  V30 5036 H 503.222 -5.62938 1.08504 0
M  V30 5037 H 501.619 -5.70123 1.87296 0
M  V30 5038 H 502.689 -4.32451 2.1935 0
M  V30 5039 N 504.032 -0.577932 -1.46621 0
M  V30 5040 C 505.26 -0.0671642 -2.06791 0
M  V30 5041 C 505.675 1.23571 -1.42743 0
M  V30 5042 O 505.032 1.74602 -0.531062 0
M  V30 5043 C 505.083 0.110357 -3.61332 0
M  V30 5044 O 504.804 -1.14095 -4.22982 0
M  V30 5045 C 506.305 0.656025 -4.38419 0
M  V30 5046 H 503.525 -0.0552732 -0.66872 0
M  V30 5047 H 506.069 -0.797242 -1.8832 0
M  V30 5048 H 504.224 0.790637 -3.79246 0
M  V30 5049 H 504.638 -0.951742 -5.15793 0
M  V30 5050 H 506.112 0.729438 -5.47159 0
M  V30 5051 H 506.589 1.67195 -4.06131 0
M  V30 5052 H 507.195 0.0107692 -4.25299 0
M  V30 5053 N 505.51 1.54411 -0.315457 0
M  V30 5054 C 506.735 2.05299 0.294496 0
M  V30 5055 C 507.16 1.19052 1.4563 0
M  V30 5056 O 506.518 0.197804 1.80218 0
M  V30 5057 C 506.566 3.5345 0.714549 0
M  V30 5058 O 505.67 3.70175 1.81781 0
M  V30 5059 H 505.011 0.661743 0.0547019 0
M  V30 5060 H 507.541 1.99327 -0.461508 0
M  V30 5061 H 507.551 3.9557 0.999426 0
M  V30 5062 H 506.226 4.1568 -0.135244 0
M  V30 5063 H 504.803 3.3996 1.53236 0
M  V30 5064 N 506.988 0.0434614 1.5754 0
M  V30 5065 C 507.898 -0.94893 2.14552 0
M  V30 5066 C 508.914 -1.34707 1.10136 0
M  V30 5067 O 510.09 -1.42557 1.42266 0
M  V30 5068 C 507.155 -2.208 2.67298 0
M  V30 5069 C 506.216 -1.86893 3.86484 0
M  V30 5070 C 505.449 -3.06797 4.36705 0
M  V30 5071 O 505.672 -4.19921 3.86034 0
M  V30 5072 O 504.606 -2.8826 5.28384 0
M  V30 5073 H 508.432 -0.494099 2.99654 0
M  V30 5074 H 506.017 -0.177989 1.48336 0
M  V30 5075 H 507.899 -2.94686 3.01228 0
M  V30 5076 H 506.574 -2.65436 1.85272 0
M  V30 5077 H 505.481 -1.10347 3.57455 0
M  V30 5078 H 506.814 -1.47062 4.69716 0
M  V30 5079 N 508.466 -1.55915 -0.229846 0
M  V30 5080 C 509.743 -1.6932 -0.979295 0
M  V30 5081 C 510.123 -0.588321 -2.02736 0
M  V30 5082 O 509.471 0.40586 -2.24867 0
M  V30 5083 C 509.681 -3.10305 -1.59724 0
M  V30 5084 C 511.029 -3.6945 -2.09264 0
M  V30 5085 O 512.053 -3.13214 -1.69633 0
M  V30 5086 O 510.912 -4.68072 -2.82082 0
M  V30 5087 H 508.006 -0.689314 -0.456919 0
M  V30 5088 H 510.552 -1.68238 -0.222283 0
M  V30 5089 H 509.324 -3.82177 -0.840039 0
M  V30 5090 H 508.947 -3.1547 -2.42001 0
M  V30 5091 N 509.944 0.496216 -1.49584 0
M  V30 5092 C 511.169 1.27865 -1.63295 0
M  V30 5093 C 511.594 1.85592 -0.306156 0
M  V30 5094 O 510.952 1.66092 0.726851 0
M  V30 5095 C 511 2.38128 -2.7079 0
M  V30 5096 O 510.104 3.42108 -2.30296 0
M  V30 5097 H 509.445 0.377279 -0.546403 0
M  V30 5098 H 511.975 0.593497 -1.95803 0
M  V30 5099 H 511.985 2.8382 -2.93104 0
M  V30 5100 H 510.66 1.95479 -3.67098 0
M  V30 5101 H 509.237 3.02301 -2.18331 0
M  V30 5102 N 511.423 1.38739 0.74761 0
M  V30 5103 C 512.386 1.36241 1.84312 0
M  V30 5104 C 513.386 0.261811 1.58654 0
M  V30 5105 O 514.576 0.519031 1.66288 0
M  V30 5106 C 511.708 1.12253 3.21888 0
M  V30 5107 H 512.901 2.33712 1.87933 0
M  V30 5108 H 510.454 1.2412 0.949946 0
M  V30 5109 H 511.189 0.154133 3.23934 0
M  V30 5110 H 510.974 1.91943 3.41907 0
M  V30 5111 H 512.464 1.13215 4.0196 0
M  V30 5112 N 512.901 -0.976442 1.23707 0
M  V30 5113 C 514.147 -1.72081 1.07312 0
M  V30 5114 C 514.48 -1.90275 -0.388476 0
M  V30 5115 O 513.755 -1.4579 -1.28746 0
M  V30 5116 C 514.038 -3.11675 1.80363 0
M  V30 5117 C 513.891 -3.01027 3.3422 0
M  V30 5118 C 515.21 -4.1117 1.5693 0
M  V30 5119 H 512.329 -0.624583 0.391236 0
M  V30 5120 H 514.971 -1.13649 1.52263 0
M  V30 5121 H 513.121 -3.61559 1.42153 0
M  V30 5122 H 514.793 -2.58637 3.81975 0
M  V30 5123 H 513.036 -2.3744 3.63049 0
M  V30 5124 H 513.707 -3.9988 3.80525 0
M  V30 5125 H 516.183 -3.7011 1.90151 0
M  V30 5126 H 515.059 -5.06928 2.10513 0
M  V30 5127 H 515.32 -4.392 0.505548 0
M  V30 5128 N 514.379 -1.04941 -1.1758 0
M  V30 5129 C 515.609 -0.777166 -1.91425 0
M  V30 5130 C 516.017 0.670647 -1.76915 0
M  V30 5131 O 515.36 1.46965 -1.10213 0
M  V30 5132 C 515.422 -1.07495 -3.43052 0
M  V30 5133 C 515.086 -2.51844 -3.81345 0
M  V30 5134 C 516.083 -3.50047 -3.844 0
M  V30 5135 C 513.768 -2.86787 -4.12382 0
M  V30 5136 C 515.762 -4.81239 -4.17957 0
M  V30 5137 C 513.449 -4.18182 -4.45608 0
M  V30 5138 C 514.447 -5.15219 -4.48373 0
M  V30 5139 O 514.135 -6.44258 -4.80819 0
M  V30 5140 H 513.867 -0.282209 -0.614275 0
M  V30 5141 H 516.421 -1.40258 -1.50056 0
M  V30 5142 H 514.651 -0.392437 -3.84704 0
M  V30 5143 H 516.34 -0.78912 -3.98155 0
M  V30 5144 H 517.106 -3.24391 -3.60548 0
M  V30 5145 H 512.985 -2.11922 -4.09402 0
M  V30 5146 H 516.529 -5.56974 -4.2003 0
M  V30 5147 H 512.426 -4.43602 -4.68922 0
M  V30 5148 H 513.194 -6.49041 -4.98686 0
M  V30 5149 N 515.857 1.33968 -0.830081 0
M  V30 5150 C 517.087 2.01987 -0.434142 0
M  V30 5151 C 517.495 1.62639 0.96671 0
M  V30 5152 O 516.838 0.831151 1.63822 0
M  V30 5153 C 516.9 3.5648 -0.465018 0
M  V30 5154 C 516.564 4.19176 -1.82045 0
M  V30 5155 C 517.561 4.39181 -2.78237 0
M  V30 5156 C 515.246 4.55792 -2.11089 0
M  V30 5157 C 517.24 4.94937 -4.01642 0
M  V30 5158 C 514.927 5.11258 -3.34752 0
M  V30 5159 C 515.925 5.30775 -4.29845 0
M  V30 5160 O 515.613 5.85064 -5.51322 0
M  V30 5161 H 515.345 0.653847 -0.171639 0
M  V30 5162 H 517.899 1.72066 -1.12171 0
M  V30 5163 H 516.129 3.8569 0.279284 0
M  V30 5164 H 517.818 4.05804 -0.0881334 0
M  V30 5165 H 518.584 4.11249 -2.57097 0
M  V30 5166 H 514.463 4.39901 -1.3787 0
M  V30 5167 H 518.007 5.10086 -4.75876 0
M  V30 5168 H 513.904 5.38619 -3.55753 0
M  V30 5169 H 514.672 6.03489 -5.5294 0
M  V30 5170 N 517.335 0.585699 1.46312 0
M  V30 5171 C 518.575 0.0751432 2.04262 0
M  V30 5172 C 518.939 -1.26201 1.44697 0
M  V30 5173 O 520.14 -1.86198 1.93865 0
M  V30 5174 C 518.411 0.013478 3.57397 0
M  V30 5175 S 519.97 -0.439068 4.36598 0
M  V30 5176 H 516.788 0.0389228 0.709934 0
M  V30 5177 H 519.39 0.778871 1.79315 0
M  V30 5178 H 518.094 0.990558 3.98266 0
M  V30 5179 H 517.625 -0.712927 3.86886 0
M  V30 5180 H 519.64 -1.6932 4.66417 0
M  V30 5181 N 518.813 -1.54241 0.323641 0
M  V30 5182 C 519.776 -2.22997 -0.529602 0
M  V30 5183 C 520.776 -1.22345 -1.04347 0
M  V30 5184 O 521.966 -1.46924 -0.935889 0
M  V30 5185 C 519.098 -2.93409 -1.73562 0
M  V30 5186 H 520.291 -2.99815 0.0714518 0
M  V30 5187 H 517.844 -1.56121 0.0747258 0
M  V30 5188 H 518.579 -2.20729 -2.37591 0
M  V30 5189 H 518.364 -3.67217 -1.37456 0
M  V30 5190 H 519.854 -3.45794 -2.34128 0
M  V30 5191 N 520.291 -0.0518155 -1.57515 0
M  V30 5192 C 521.707 0.304735 -1.56664 0
M  V30 5193 C 521.907 1.71395 -1.05953 0
M  V30 5194 O 520.963 2.42123 -0.716414 0
M  V30 5195 C 522.276 0.132614 -3.00407 0
M  V30 5196 C 523.824 0.20367 -3.12337 0
M  V30 5197 C 524.299 0.0600706 -4.57961 0
M  V30 5198 N 525.79 0.116326 -4.63054 0
M  V30 5199 C 526.525 0.0293363 -5.73392 0
M  V30 5200 N 526.021 -0.110038 -6.92713 0
M  V30 5201 N 527.814 0.0849651 -5.62036 0
M  V30 5202 H 519.965 -0.973056 -1.888 0
M  V30 5203 H 522.228 -0.377781 -0.869474 0
M  V30 5204 H 521.934 -0.839019 -3.41546 0
M  V30 5205 H 521.808 0.893376 -3.66468 0
M  V30 5206 H 524.195 1.16578 -2.71097 0
M  V30 5207 H 524.276 -0.587857 -2.48954 0
M  V30 5208 H 523.92 -0.898715 -4.99886 0
M  V30 5209 H 523.85 0.87075 -5.19351 0
M  V30 5210 H 526.341 0.22327 -3.7724 0
M  V30 5211 H 526.654 -0.169104 -7.72615 0
M  V30 5212 H 524.999 -0.145132 -6.94848 0
M  V30 5213 H 528.19 0.192411 -4.67704 0
M  V30 5214 H 528.363 0.0137131 -6.47999 0
M  V30 5215 N 521.769 1.56035 0.221574 0
M  V30 5216 C 522.999 1.82864 0.961468 0
M  V30 5217 C 523.407 0.628703 1.78449 0
M  V30 5218 O 522.75 -0.412109 1.79018 0
M  V30 5219 C 522.812 3.03425 1.92804 0
M  V30 5220 C 522.476 4.38429 1.28954 0
M  V30 5221 C 523.473 5.15441 0.679431 0
M  V30 5222 C 521.158 4.85151 1.30131 0
M  V30 5223 C 523.152 6.37337 0.0896148 0
M  V30 5224 C 520.839 6.06989 0.707651 0
M  V30 5225 C 521.837 6.82923 0.102855 0
M  V30 5226 O 521.525 8.02456 -0.48157 0
M  V30 5227 H 521.257 0.611883 0.28736 0
M  V30 5228 H 523.811 2.0397 0.241932 0
M  V30 5229 H 522.041 2.78138 2.68656 0
M  V30 5230 H 523.73 3.17127 2.53348 0
M  V30 5231 H 524.496 4.80452 0.662661 0
M  V30 5232 H 520.375 4.26021 1.76145 0
M  V30 5233 H 523.919 6.96547 -0.383069 0
M  V30 5234 H 519.816 6.41451 0.721834 0
M  V30 5235 H 520.584 8.17636 -0.375887 0
M  V30 5236 N 523.247 -0.488276 1.49845 0
M  V30 5237 C 524.477 -1.26344 1.63465 0
M  V30 5238 C 524.885 -1.86637 0.310379 0
M  V30 5239 O 524.228 -1.69184 -0.715712 0
M  V30 5240 C 524.29 -2.42407 2.65479 0
M  V30 5241 C 523.954 -2.02886 4.09495 0
M  V30 5242 C 524.951 -1.56124 4.95904 0
M  V30 5243 C 522.636 -2.12131 4.55308 0
M  V30 5244 C 524.63 -1.19129 6.26169 0
M  V30 5245 C 522.317 -1.74747 5.85582 0
M  V30 5246 C 523.315 -1.28322 6.70837 0
M  V30 5247 O 523.003 -0.914491 7.98682 0
M  V30 5248 H 522.735 -0.388921 0.552916 0
M  V30 5249 H 525.289 -0.591288 1.96705 0
M  V30 5250 H 523.519 -3.12739 2.27445 0
M  V30 5251 H 525.208 -3.04409 2.68495 0
M  V30 5252 H 525.974 -1.48417 4.61733 0
M  V30 5253 H 521.853 -2.47217 3.89107 0
M  V30 5254 H 525.397 -0.828211 6.92666 0
M  V30 5255 H 521.294 -1.82109 6.19279 0
M  V30 5256 H 522.062 -1.04485 8.11804 0
M  V30 5257 N 524.725 -1.39134 -0.740242 0
M  V30 5258 C 526.002 -1.26584 -1.49117 0
M  V30 5259 C 526.382 0.126902 -2.10718 0
M  V30 5260 O 525.73 1.13765 -1.98166 0
M  V30 5261 C 525.94 -2.38619 -2.54681 0
M  V30 5262 C 527.288 -2.77685 -3.21211 0
M  V30 5263 O 528.312 -2.38029 -2.64991 0
M  V30 5264 O 527.171 -3.46115 -4.22926 0
M  V30 5265 H 524.265 -0.495769 -0.661923 0
M  V30 5266 H 526.811 -1.50995 -0.774514 0
M  V30 5267 H 525.583 -3.3175 -2.07504 0
M  V30 5268 H 525.206 -2.15845 -3.33911 0
M  V30 5269 N 526.204 0.969867 -1.24223 0
M  V30 5270 C 527.481 1.68774 -0.988664 0
M  V30 5271 C 527.861 2.05342 0.489673 0
M  V30 5272 O 527.209 1.75486 1.46345 0
M  V30 5273 C 527.419 2.92135 -1.90941 0
M  V30 5274 C 528.767 3.64422 -2.17903 0
M  V30 5275 O 529.791 3.02188 -1.88576 0
M  V30 5276 O 528.65 4.76446 -2.67697 0
M  V30 5277 H 525.744 0.737736 -0.37373 0
M  V30 5278 H 528.29 1.02415 -1.35312 0
M  V30 5279 H 527.062 2.61788 -2.90831 0
M  V30 5280 H 526.685 3.66228 -1.54798 0
M  V30 5281 N 527.682 1.05563 1.17022 0
M  V30 5282 C 528.632 0.630007 2.19123 0
M  V30 5283 C 529.616 -0.335472 1.57364 0
M  V30 5284 O 530.808 -0.1521 1.76345 0
M  V30 5285 C 527.937 0.0101676 3.43298 0
M  V30 5286 C 527.023 0.999698 4.12149 0
M  V30 5287 N 527.414 2.17251 4.56766 0
M  V30 5288 C 525.712 0.829 4.38228 0
M  V30 5289 C 526.413 2.79883 5.09942 0
M  V30 5290 N 525.389 2.07656 5.02374 0
M  V30 5291 H 529.191 1.52353 2.51328 0
M  V30 5292 H 526.705 0.926288 1.33393 0
M  V30 5293 H 528.702 -0.312541 4.15727 0
M  V30 5294 H 527.362 -0.878707 3.12584 0
M  V30 5295 H 528.373 2.55067 4.50734 0
M  V30 5296 H 525.05 -0.00850974 4.17499 0
M  V30 5297 H 526.44 3.79362 5.54558 0
M  V30 5298 N 529.16 -1.33526 0.837174 0
M  V30 5299 C 530.39 -2.01754 0.444848 0
M  V30 5300 C 530.798 -1.63149 -0.958072 0
M  V30 5301 O 530.141 -0.839827 -1.63379 0
M  V30 5302 C 530.203 -3.56228 0.483917 0
M  V30 5303 C 529.867 -4.18205 1.84265 0
M  V30 5304 C 530.864 -4.37699 2.80563 0
M  V30 5305 C 528.549 -4.54667 2.13503 0
M  V30 5306 C 530.543 -4.928 4.04261 0
M  V30 5307 C 528.23 -5.09475 3.37458 0
M  V30 5308 C 529.228 -5.28488 4.32654 0
M  V30 5309 O 528.916 -5.82132 5.54417 0
M  V30 5310 H 528.648 -0.652928 0.175104 0
M  V30 5311 H 531.202 -1.71469 1.13082 0
M  V30 5312 H 529.432 -3.85833 -0.258826 0
M  V30 5313 H 531.121 -4.05752 0.109653 0
M  V30 5314 H 531.887 -4.0988 2.59274 0
M  V30 5315 H 527.766 -4.39164 1.40201 0
M  V30 5316 H 531.31 -5.07555 4.78574 0
M  V30 5317 H 527.207 -5.36725 3.58604 0
M  V30 5318 H 527.975 -6.00548 5.56133 0
M  V30 5319 N 530.638 -0.59345 -1.46 0
M  V30 5320 C 531.878 -0.0859747 -2.04219 0
M  V30 5321 C 532.242 1.25432 -1.45364 0
M  V30 5322 O 533.443 1.85168 -1.9485 0
M  V30 5323 C 531.714 -0.0324314 -3.57385 0
M  V30 5324 S 533.273 0.415908 -4.36824 0
M  V30 5325 H 530.091 -0.0426872 -0.709717 0
M  V30 5326 H 532.693 -0.788369 -1.78899 0
M  V30 5327 H 531.397 -1.01166 -3.97735 0
M  V30 5328 H 530.928 0.6924 -3.87259 0
M  V30 5329 H 532.943 1.66844 -4.67309 0
M  V30 5330 N 532.116 1.54067 -0.331816 0
M  V30 5331 C 533.046 2.27569 0.522932 0
M  V30 5332 C 534.027 1.28679 1.11247 0
M  V30 5333 O 535.212 1.57504 1.13605 0
M  V30 5334 C 532.342 3.0397 1.67987 0
M  V30 5335 C 531.296 4.10267 1.21924 0
M  V30 5336 C 530.622 4.74555 2.46377 0
M  V30 5337 C 531.922 5.21268 0.32815 0
M  V30 5338 H 533.616 2.99264 -0.0901977 0
M  V30 5339 H 531.162 1.4393 -0.044821 0
M  V30 5340 H 533.115 3.54123 2.28418 0
M  V30 5341 H 531.839 2.29906 2.31971 0
M  V30 5342 H 530.498 3.61009 0.637809 0
M  V30 5343 H 530.146 3.97098 3.08743 0
M  V30 5344 H 529.846 5.46363 2.16243 0
M  V30 5345 H 531.37 5.27487 3.07555 0
M  V30 5346 H 532.784 5.67128 0.838978 0
M  V30 5347 H 531.181 5.99982 0.119228 0
M  V30 5348 H 532.251 4.80673 -0.638839 0
M  V30 5349 N 533.594 0.0601682 1.57485 0
M  V30 5350 C 534.871 -0.651956 1.84415 0
M  V30 5351 C 535.251 -1.88498 0.950361 0
M  V30 5352 O 534.599 -2.28496 0.0136719 0
M  V30 5353 C 534.809 -1.00069 3.34346 0
M  V30 5354 C 536.157 -1.37915 4.01578 0
M  V30 5355 O 537.181 -1.09277 3.39024 0
M  V30 5356 O 536.04 -1.91399 5.11887 0
M  V30 5357 H 533.134 -0.322668 0.761455 0
M  V30 5358 H 535.68 0.0902159 1.6946 0
M  V30 5359 H 534.452 -0.124463 3.91102 0
M  V30 5360 H 534.075 -1.80001 3.54521 0
M  V30 5361 N 535.072 -1.5615 -0.213296 0
M  V30 5362 C 536.302 -1.83372 -0.951757 0
M  V30 5363 C 536.71 -0.638158 -1.78113 0
M  V30 5364 O 536.053 0.402609 -1.79234 0
M  V30 5365 C 536.115 -3.04444 -1.91192 0
M  V30 5366 C 535.779 -4.39107 -1.26627 0
M  V30 5367 C 536.776 -5.15794 -0.652087 0
M  V30 5368 C 534.461 -4.85834 -1.27556 0
M  V30 5369 C 536.455 -6.37376 -0.055814 0
M  V30 5370 C 534.142 -6.07356 -0.675451 0
M  V30 5371 C 535.14 -6.82967 -0.0666367 0
M  V30 5372 O 534.828 -8.0219 0.524119 0
M  V30 5373 H 534.56 -0.613398 -0.284111 0
M  V30 5374 H 537.114 -2.04096 -0.231112 0
M  V30 5375 H 535.344 -2.79559 -2.67178 0
M  V30 5376 H 537.033 -3.18466 -2.51662 0
M  V30 5377 H 537.799 -4.80796 -0.637172 0
M  V30 5378 H 533.678 -4.26949 -1.73883 0
M  V30 5379 H 537.222 -6.96334 0.420004 0
M  V30 5380 H 533.119 -6.41825 -0.687806 0
M  V30 5381 H 533.887 -8.17426 0.419243 0
M  V30 5382 N 536.55 0.480323 -1.50102 0
M  V30 5383 C 537.796 1.23208 -1.61837 0
M  V30 5384 C 538.151 1.89878 -0.310509 0
M  V30 5385 O 537.444 1.7871 0.690897 0
M  V30 5386 C 537.638 2.30708 -2.72963 0
M  V30 5387 C 537.467 1.74583 -4.14428 0
M  V30 5388 C 536.237 1.54964 -4.80951 0
M  V30 5389 C 538.435 1.24597 -4.98979 0
M  V30 5390 N 536.417 0.939855 -6.06663 0
M  V30 5391 C 537.788 0.758834 -6.15339 0
M  V30 5392 C 539.843 1.13365 -4.84822 0
M  V30 5393 C 538.546 0.17046 -7.19098 0
M  V30 5394 C 540.572 0.559221 -5.8875 0
M  V30 5395 C 539.934 0.082415 -7.04352 0
M  V30 5396 H 536.033 0.440065 -0.646426 0
M  V30 5397 H 538.617 0.535632 -1.87187 0
M  V30 5398 H 536.788 2.9779 -2.4935 0
M  V30 5399 H 538.52 2.97738 -2.74106 0
M  V30 5400 H 535.275 1.79926 -4.38091 0
M  V30 5401 H 535.699 0.653641 -6.73837 0
M  V30 5402 H 540.341 1.48823 -3.95742 0
M  V30 5403 H 538.059 -0.196347 -8.07861 0
M  V30 5404 H 541.645 0.474804 -5.79859 0
M  V30 5405 H 540.525 -0.355119 -7.83396 0
M  V30 5406 N 538.028 1.39524 0.732853 0
M  V30 5407 C 539.276 1.36594 1.48951 0
M  V30 5408 C 539.597 -0.0367507 1.94965 0
M  V30 5409 O 538.867 -0.988391 1.69138 0
M  V30 5410 H 537.447 0.502673 0.552566 0
M  V30 5411 H 540.109 1.74411 0.869869 0
M  V30 5412 H 539.205 2.03 2.3706 0
M  V30 5413 N 539.506 -0.963266 1.24736 0
M  V30 5414 C 540.438 -2.06162 1.0015 0
M  V30 5415 C 541.451 -1.62771 -0.0305905 0
M  V30 5416 O 542.64 -1.77296 0.206966 0
M  V30 5417 C 539.74 -3.35333 0.490385 0
M  V30 5418 C 538.913 -4.07609 1.58663 0
M  V30 5419 C 537.972 -5.15052 1.0774 0
M  V30 5420 O 536.998 -5.4098 1.77002 0
M  V30 5421 N 538.2 -5.80436 -0.0858605 0
M  V30 5422 H 540.965 -2.27825 1.94719 0
M  V30 5423 H 538.526 -1.13121 1.15825 0
M  V30 5424 H 540.518 -4.04477 0.134371 0
M  V30 5425 H 539.088 -3.10507 -0.361155 0
M  V30 5426 H 538.308 -3.32681 2.11463 0
M  V30 5427 H 539.596 -4.52656 2.32336 0
M  V30 5428 H 538.994 -5.6178 -0.664806 0
M  V30 5429 H 537.551 -6.50674 -0.382981 0
M  V30 5430 N 540.985 -1.06182 -1.16461 0
M  V30 5431 C 542.233 -0.776326 -1.86595 0
M  V30 5432 C 542.554 0.69921 -1.82033 0
M  V30 5433 O 541.824 1.50579 -1.2531 0
M  V30 5434 H 540.404 -0.284184 -0.690832 0
M  V30 5435 H 543.066 -1.34308 -1.41235 0
M  V30 5436 H 542.162 -1.10022 -2.92064 0
M  V30 5437 N 542.463 1.3308 -0.844243 0
M  V30 5438 C 543.691 2.01808 -0.456203 0
M  V30 5439 C 544.106 1.63498 0.944131 0
M  V30 5440 O 543.463 0.85102 1.61443 0
M  V30 5441 C 543.514 3.56922 -0.573513 0
M  V30 5442 O 543.235 3.93851 -1.91868 0
M  V30 5443 C 544.736 4.42922 -0.183125 0
M  V30 5444 H 541.956 0.646273 -0.180477 0
M  V30 5445 H 544.5 1.69891 -1.1383 0
M  V30 5446 H 542.655 3.87352 0.0607367 0
M  V30 5447 H 543.069 4.88564 -1.90802 0
M  V30 5448 H 544.543 5.51093 -0.316241 0
M  V30 5449 H 545.02 4.30386 0.875477 0
M  V30 5450 H 545.626 4.1786 -0.792027 0
M  V30 5451 N 543.941 0.601185 1.45683 0
M  V30 5452 C 545.169 0.100054 2.06658 0
M  V30 5453 C 545.584 -1.21285 1.44691 0
M  V30 5454 O 544.941 -1.73735 0.558772 0
M  V30 5455 C 544.992 -0.0528579 3.61461 0
M  V30 5456 O 544.713 1.20809 4.21114 0
M  V30 5457 C 546.214 -0.586193 4.39407 0
M  V30 5458 H 543.434 0.065905 0.667756 0
M  V30 5459 H 545.978 0.827101 1.87028 0
M  V30 5460 H 544.133 -0.730203 3.80456 0
M  V30 5461 H 544.547 1.03368 5.14213 0
M  V30 5462 H 546.021 -0.642297 5.4825 0
M  V30 5463 H 546.498 -1.60713 4.0874 0
M  V30 5464 H 547.104 0.0568935 4.25262 0
M  V30 5465 N 545.419 -1.53889 0.339982 0
M  V30 5466 C 546.349 -2.27843 -0.510856 0
M  V30 5467 C 547.33 -1.29267 -1.10563 0
M  V30 5468 O 548.515 -1.58104 -1.12768 0
M  V30 5469 C 545.645 -3.04857 -1.66372 0
M  V30 5470 C 544.599 -4.10907 -1.19746 0
M  V30 5471 C 543.925 -4.75855 -2.43857 0
M  V30 5472 C 545.225 -5.21435 -0.300501 0
M  V30 5473 H 546.919 -2.99212 0.106067 0
M  V30 5474 H 544.465 -1.43904 0.0524533 0
M  V30 5475 H 546.418 -3.5533 -2.26537 0
M  V30 5476 H 545.142 -2.31133 -2.30749 0
M  V30 5477 H 543.801 -3.61342 -0.618654 0
M  V30 5478 H 543.449 -3.9873 -3.06633 0
M  V30 5479 H 543.149 -5.47502 -2.13343 0
M  V30 5480 H 544.673 -5.2911 -3.04754 0
M  V30 5481 H 546.087 -5.67565 -0.80889 0
M  V30 5482 H 544.484 -6.00036 -0.0874076 0
M  V30 5483 H 545.554 -4.80328 0.664321 0
M  V30 5484 N 546.897 -0.0685191 -1.57451 0
M  V30 5485 C 548.125 0.610462 -1.97689 0
M  V30 5486 C 548.54 1.63346 -0.946758 0
M  V30 5487 O 547.897 1.82377 0.0669868 0
M  V30 5488 C 547.948 1.28196 -3.38006 0
M  V30 5489 O 547.669 0.299906 -4.37072 0
M  V30 5490 C 549.17 2.04907 -3.931 0
M  V30 5491 H 546.39 0.165689 -0.650222 0
M  V30 5492 H 548.934 -0.139953 -2.04021 0
M  V30 5493 H 547.089 1.98348 -3.32771 0
M  V30 5494 H 547.503 0.78126 -5.18649 0
M  V30 5495 H 548.977 2.47287 -4.93511 0
M  V30 5496 H 549.454 2.9043 -3.29465 0
M  V30 5497 H 550.06 1.39629 -4.01726 0
M  V30 5498 N 548.375 1.56261 0.205012 0
M  V30 5499 C 549.621 1.80306 0.9283 0
M  V30 5500 C 549.954 0.640932 1.83319 0
M  V30 5501 O 549.229 -0.359032 1.91158 0
M  V30 5502 C 549.512 3.14547 1.75306 0
M  V30 5503 C 549.365 4.41236 0.873562 0
M  V30 5504 C 550.684 3.45382 2.72762 0
M  V30 5505 H 547.803 0.655929 0.336044 0
M  V30 5506 H 550.445 1.88984 0.196211 0
M  V30 5507 H 548.595 3.0728 2.37721 0
M  V30 5508 H 550.267 4.60539 0.264887 0
M  V30 5509 H 548.51 4.33427 0.179773 0
M  V30 5510 H 549.181 5.31639 1.48541 0
M  V30 5511 H 551.657 3.52884 2.20481 0
M  V30 5512 H 550.533 4.40449 3.2756 0
M  V30 5513 H 550.794 2.68377 3.51321 0
M  V30 5514 N 549.853 -0.472356 1.50355 0
M  V30 5515 C 551.078 -1.25251 1.65309 0
M  V30 5516 C 551.503 -1.85081 0.335643 0
M  V30 5517 O 550.861 -1.67227 -0.700335 0
M  V30 5518 C 550.909 -2.3379 2.74544 0
M  V30 5519 O 550.013 -3.38401 2.35709 0
M  V30 5520 H 549.354 -0.368539 0.552336 0
M  V30 5521 H 551.884 -0.562271 1.96722 0
M  V30 5522 H 551.894 -2.79121 2.97583 0
M  V30 5523 H 550.569 -1.89614 3.70161 0
M  V30 5524 H 549.146 -2.9879 2.23112 0
M  V30 5525 N 551.331 -1.39911 -0.725443 0
M  V30 5526 C 552.556 -1.41137 -1.5197 0
M  V30 5527 C 552.981 -0.010262 -1.88097 0
M  V30 5528 O 552.339 0.979184 -1.52583 0
M  V30 5529 C 552.387 -2.2994 -2.77777 0
M  V30 5530 O 551.491 -1.73586 -3.74088 0
M  V30 5531 H 550.832 -0.480219 -0.458569 0
M  V30 5532 H 553.362 -1.84023 -0.894249 0
M  V30 5533 H 553.372 -2.44785 -3.26411 0
M  V30 5534 H 552.047 -3.31759 -2.50816 0
M  V30 5535 H 550.624 -1.68035 -3.32894 0
M  V30 5536 N 552.809 0.956637 -1.25245 0
M  V30 5537 C 554.055 1.70352 -1.10036 0
M  V30 5538 C 554.388 1.90869 0.358156 0
M  V30 5539 O 553.663 1.47819 1.26411 0
M  V30 5540 C 553.946 3.08766 -1.85298 0
M  V30 5541 C 553.799 2.95672 -3.38966 0
M  V30 5542 C 555.118 4.08622 -1.63451 0
M  V30 5543 H 552.237 0.618279 -0.401123 0
M  V30 5544 H 554.879 1.11212 -1.54051 0
M  V30 5545 H 553.029 3.59252 -1.47887 0
M  V30 5546 H 554.701 2.52527 -3.86041 0
M  V30 5547 H 552.944 2.31634 -3.6678 0
M  V30 5548 H 553.615 3.93776 -3.86839 0
M  V30 5549 H 556.091 3.67038 -1.96015 0
M  V30 5550 H 554.967 5.03514 -2.18551 0
M  V30 5551 H 555.228 4.3834 -0.575357 0
M  V30 5552 N 554.287 1.06798 1.15896 0
M  V30 5553 C 555.197 0.694564 2.24083 0
M  V30 5554 C 556.213 -0.291687 1.71538 0
M  V30 5555 O 557.389 -0.139723 2.00915 0
M  V30 5556 C 554.454 0.0921014 3.46578 0
M  V30 5557 C 553.515 1.13087 4.14137 0
M  V30 5558 C 552.748 0.557064 5.30785 0
M  V30 5559 O 552.971 -0.628623 5.66925 0
M  V30 5560 O 551.905 1.29924 5.8771 0
M  V30 5561 H 555.731 1.59663 2.58344 0
M  V30 5562 H 553.316 0.840575 1.2351 0
M  V30 5563 H 555.198 -0.241884 4.20705 0
M  V30 5564 H 553.873 -0.78337 3.14078 0
M  V30 5565 H 552.78 1.51712 3.41957 0
M  V30 5566 H 554.113 1.97805 4.50704 0
M  V30 5567 N 555.766 -1.3263 0.851289 0
M  V30 5568 C 557.014 -1.96978 0.452128 0
M  V30 5569 C 557.335 -1.67715 -0.99482 0
M  V30 5570 O 556.605 -0.98259 -1.69476 0
M  V30 5571 H 555.185 -0.72873 0.164202 0
M  V30 5572 H 557.847 -1.61774 1.08698 0
M  V30 5573 H 556.943 -3.06387 0.594407 0
M  V30 5574 N 557.244 -0.608902 -1.45362 0
M  V30 5575 C 558.492 -0.104401 -2.0183 0
M  V30 5576 C 558.813 1.27007 -1.47967 0
M  V30 5577 O 558.083 1.83924 -0.674455 0
M  V30 5578 H 556.663 -0.0356042 -0.746151 0
M  V30 5579 H 559.325 -0.790596 -1.78145 0
M  V30 5580 H 558.421 -0.0551793 -3.12051 0
M  V30 5581 N 558.722 1.53707 -0.348139 0
M  V30 5582 C 559.947 2.05877 0.250883 0
M  V30 5583 C 560.372 1.22115 1.43072 0
M  V30 5584 O 559.73 0.235986 1.79758 0
M  V30 5585 C 559.778 3.54886 0.639416 0
M  V30 5586 O 558.882 3.73948 1.73888 0
M  V30 5587 H 558.223 0.662754 0.040653 0
M  V30 5588 H 560.753 1.98303 -0.503685 0
M  V30 5589 H 560.763 3.97601 0.915295 0
M  V30 5590 H 559.438 4.153 -0.223386 0
M  V30 5591 H 558.015 3.43134 1.45991 0
M  V30 5592 N 560.2 0.0768682 1.57412 0
M  V30 5593 C 561.448 -0.589918 1.93299 0
M  V30 5594 C 561.769 -1.69842 0.958049 0
M  V30 5595 O 561.039 -1.95899 0.00703261 0
M  V30 5596 H 559.619 -0.220901 0.713591 0
M  V30 5597 H 562.281 0.135917 1.94425 0
M  V30 5598 H 561.377 -1.01195 2.95239 0
M  V30 5599 N 561.678 -1.56367 -0.196722 0
M  V30 5600 C 562.926 -1.80172 -0.915554 0
M  V30 5601 C 563.247 -0.649649 -1.8386 0
M  V30 5602 O 562.517 0.332111 -1.93064 0
M  V30 5603 H 561.097 -0.664592 -0.341067 0
M  V30 5604 H 563.759 -1.93844 -0.202622 0
M  V30 5605 H 562.855 -2.7327 -1.50764 0
M  V30 5606 N 563.156 0.464375 -1.50603 0
M  V30 5607 C 564.381 1.24372 -1.65971 0
M  V30 5608 C 564.806 1.84901 -0.345453 0
M  V30 5609 O 564.164 1.67596 0.691457 0
M  V30 5610 C 564.212 2.32331 -2.7578 0
M  V30 5611 O 563.316 3.37146 -2.375 0
M  V30 5612 H 562.657 0.365604 -0.554283 0
M  V30 5613 H 565.187 0.55183 -1.97018 0
M  V30 5614 H 565.197 2.77539 -2.99059 0
M  V30 5615 H 563.872 1.87648 -3.71162 0
M  V30 5616 H 562.449 2.97602 -2.24694 0
M  V30 5617 N 564.634 1.40294 0.718013 0
M  V30 5618 C 565.882 1.38167 1.47494 0
M  V30 5619 C 566.203 -0.01607 1.94993 0
M  V30 5620 O 565.473 -0.970396 1.70177 0
M  V30 5621 H 564.053 0.508505 0.547203 0
M  V30 5622 H 566.715 1.75324 0.851322 0
M  V30 5623 H 565.811 2.05503 2.34894 0
M  V30 5624 N 566.112 -0.949982 1.2575 0
M  V30 5625 C 567.36 -1.6918 1.10555 0
M  V30 5626 C 567.681 -1.91773 -0.353298 0
M  V30 5627 O 566.951 -1.50814 -1.25027 0
M  V30 5628 H 565.531 -0.626952 0.406129 0
M  V30 5629 H 568.193 -1.1419 1.57945 0
M  V30 5630 H 567.289 -2.66915 1.61749 0
M  V30 5631 N 567.59 -1.07411 -1.15328 0
M  V30 5632 C 568.815 -0.818856 -1.90551 0
M  V30 5633 C 569.24 0.622194 -1.77512 0
M  V30 5634 O 568.598 1.43484 -1.10824 0
M  V30 5635 C 568.646 -1.23267 -3.38877 0
M  V30 5636 O 567.75 -0.378345 -4.10661 0
M  V30 5637 H 567.091 -0.29827 -0.593238 0
M  V30 5638 H 569.621 -1.43289 -1.46046 0
M  V30 5639 H 569.631 -1.20912 -3.89672 0
M  V30 5640 H 568.306 -2.28226 -3.47686 0
M  V30 5641 H 566.883 -0.464437 -3.69996 0
M  V30 5642 N 569.068 1.32177 -0.85831 0
M  V30 5643 C 570.316 1.96735 -0.462568 0
M  V30 5644 C 570.637 1.6824 0.985911 0
M  V30 5645 O 569.907 0.991564 1.68952 0
M  V30 5646 H 568.487 0.727849 -0.168064 0
M  V30 5647 H 571.149 1.61195 -1.09554 0
M  V30 5648 H 570.245 3.06068 -0.610647 0
M  V30 5649 N 570.547 0.616602 1.45037 0
M  V30 5650 C 571.795 0.115103 2.01772 0
M  V30 5651 C 572.116 -1.2622 1.48639 0
M  V30 5652 O 571.386 -1.83563 0.684199 0
M  V30 5653 H 569.966 0.0395607 0.745952 0
M  V30 5654 H 572.628 0.800032 1.77723 0
M  V30 5655 H 571.724 0.0717274 3.12018 0
M  V30 5656 N 572.025 -1.5352 0.356285 0
M  V30 5657 C 573.25 -2.06007 -0.239961 0
M  V30 5658 C 573.675 -1.22872 -1.42422 0
M  V30 5659 O 573.033 -0.245516 -1.7963 0
M  V30 5660 C 573.081 -3.5522 -0.620587 0
M  V30 5661 O 572.185 -3.74864 -1.71902 0
M  V30 5662 H 571.526 -0.662961 -0.0371377 0
M  V30 5663 H 574.056 -1.98033 0.514194 0
M  V30 5664 H 574.066 -3.98081 -0.894197 0
M  V30 5665 H 572.741 -4.15175 0.245407 0
M  V30 5666 H 571.318 -3.43904 -1.44169 0
M  V30 5667 N 573.503 -0.0852151 -1.57369 0
M  V30 5668 C 574.751 0.579658 -1.93609 0
M  V30 5669 C 575.072 1.69332 -0.967043 0
M  V30 5670 O 574.342 1.95892 -0.0174215 0
M  V30 5671 H 572.922 0.217113 -0.714752 0
M  V30 5672 H 575.584 -0.146226 -1.94351 0
M  V30 5673 H 574.68 0.996276 -2.95771 0
M  V30 5674 N 574.981 1.5647 0.188427 0
M  V30 5675 C 576.229 1.80655 0.905986 0
M  V30 5676 C 576.55 0.659391 1.83513 0
M  V30 5677 O 575.82 -0.321868 1.93238 0
M  V30 5678 H 574.4 0.666391 0.337538 0
M  V30 5679 H 577.062 1.93949 0.192339 0
M  V30 5680 H 576.158 2.74066 1.49313 0
M  V30 5681 N 576.459 -0.456382 1.50847 0
M  V30 5682 C 577.705 -1.20914 1.62811 0
M  V30 5683 C 578.038 -1.91301 0.334304 0
M  V30 5684 O 577.313 -1.82775 -0.665098 0
M  V30 5685 C 577.596 -2.24122 2.81853 0
M  V30 5686 C 577.449 -1.57944 4.21158 0
M  V30 5687 C 578.768 -3.25295 2.96431 0
M  V30 5688 H 575.887 -0.438233 0.592554 0
M  V30 5689 H 578.529 -0.50091 1.83278 0
M  V30 5690 H 576.679 -2.84524 2.64534 0
M  V30 5691 H 578.351 -1.01025 4.50102 0
M  V30 5692 H 576.594 -0.882185 4.24735 0
M  V30 5693 H 577.265 -2.33014 5.00408 0
M  V30 5694 H 579.741 -2.7493 3.12335 0
M  V30 5695 H 578.617 -3.94822 3.81322 0
M  V30 5696 H 578.878 -3.90286 2.07676 0
M  V30 5697 N 577.937 -1.40673 -0.710563 0
M  V30 5698 C 579.214 -1.29718 -1.46398 0
M  V30 5699 C 579.594 0.082177 -2.1094 0
M  V30 5700 O 578.942 1.09536 -2.00534 0
M  V30 5701 C 579.152 -2.43967 -2.49562 0
M  V30 5702 C 580.5 -2.84436 -3.15248 0
M  V30 5703 O 581.524 -2.43597 -2.59883 0
M  V30 5704 O 580.383 -3.55008 -4.1549 0
M  V30 5705 H 577.477 -0.509697 -0.651258 0
M  V30 5706 H 580.023 -1.52603 -0.742312 0
M  V30 5707 H 578.795 -3.36076 -2.0042 0
M  V30 5708 H 578.418 -2.22879 -3.29258 0
M  V30 5709 N 579.415 0.9433 -1.26252 0
M  V30 5710 C 580.692 1.66639 -1.02424 0
M  V30 5711 C 581.072 2.06335 0.446006 0
M  V30 5712 O 580.42 1.78551 1.42589 0
M  V30 5713 C 580.63 2.88019 -1.97094 0
M  V30 5714 C 581.978 3.59718 -2.25584 0
M  V30 5715 O 583.002 2.9812 -1.94943 0
M  V30 5716 O 581.861 4.7066 -2.77743 0
M  V30 5717 H 578.955 0.729643 -0.389294 0
M  V30 5718 H 581.501 0.995218 -1.37454 0
M  V30 5719 H 580.273 2.5556 -2.96319 0
M  V30 5720 H 579.896 3.62863 -1.62532 0
M  V30 5721 N 580.893 1.08022 1.14757 0
M  V30 5722 C 582.142 0.802468 1.8505 0
M  V30 5723 C 582.455 -0.674061 1.83619 0
M  V30 5724 O 583.661 -1.06683 2.49662 0
M  V30 5725 C 582.117 1.38551 3.32162 0
M  V30 5726 C 581.725 2.89354 3.42021 0
M  V30 5727 C 583.469 1.18608 4.07594 0
M  V30 5728 C 581.376 3.40815 4.83321 0
M  V30 5729 H 580.306 0.296518 0.693248 0
M  V30 5730 H 582.957 1.30114 1.29393 0
M  V30 5731 H 581.339 0.814556 3.87532 0
M  V30 5732 H 582.513 3.52552 2.96722 0
M  V30 5733 H 580.828 3.08165 2.80041 0
M  V30 5734 H 583.425 1.54525 5.11885 0
M  V30 5735 H 583.768 0.125599 4.1611 0
M  V30 5736 H 584.301 1.72375 3.58513 0
M  V30 5737 H 581.04 4.46418 4.79991 0
M  V30 5738 H 580.56 2.82374 5.29174 0
M  V30 5739 H 582.239 3.37171 5.522 0
M  V30 5740 N 582.371 -1.3172 0.865308 0
M  V30 5741 C 583.303 -2.27545 0.274906 0
M  V30 5742 C 584.316 -1.52887 -0.559413 0
M  V30 5743 O 585.505 -1.74361 -0.382166 0
M  V30 5744 C 582.605 -3.33006 -0.629286 0
M  V30 5745 C 581.778 -4.37063 0.171553 0
M  V30 5746 C 580.837 -5.22044 -0.660052 0
M  V30 5747 O 579.863 -5.69129 -0.0897527 0
M  V30 5748 N 581.065 -5.45946 -1.97289 0
M  V30 5749 H 583.83 -2.78848 1.09836 0
M  V30 5750 H 581.391 -1.44693 0.726331 0
M  V30 5751 H 583.383 -3.86772 -1.19121 0
M  V30 5752 H 581.953 -2.81782 -1.35342 0
M  V30 5753 H 581.173 -3.83436 0.914919 0
M  V30 5754 H 582.461 -5.03662 0.721235 0
M  V30 5755 H 581.859 -5.0944 -2.45942 0
M  V30 5756 H 580.416 -6.02665 -2.4827 0
M  V30 5757 N 583.85 -0.624285 -1.44708 0
M  V30 5758 C 584.779 0.0717025 -2.3339 0
M  V30 5759 C 585.76 0.841814 -1.47809 0
M  V30 5760 O 586.946 0.809056 -1.76544 0
M  V30 5761 C 584.076 1.05852 -3.30776 0
M  V30 5762 C 583.029 0.400503 -4.26122 0
M  V30 5763 C 582.356 1.49674 -5.13324 0
M  V30 5764 C 583.656 -0.688924 -5.17737 0
M  V30 5765 H 585.35 -0.668819 -2.91834 0
M  V30 5766 H 582.896 -0.32308 -1.40329 0
M  V30 5767 H 584.849 1.5541 -3.91696 0
M  V30 5768 H 583.572 1.82984 -2.70526 0
M  V30 5769 H 582.231 -0.0743687 -3.66525 0
M  V30 5770 H 581.88 2.25877 -4.49431 0
M  V30 5771 H 581.58 1.06188 -5.77926 0
M  V30 5772 H 583.104 1.99427 -5.77115 0
M  V30 5773 H 584.518 -0.276724 -5.72632 0
M  V30 5774 H 582.915 -1.04652 -5.90904 0
M  V30 5775 H 583.985 -1.55884 -4.5916 0
M  V30 5776 N 585.328 1.53329 -0.364422 0
M  V30 5777 C 586.556 2.05657 0.226424 0
M  V30 5778 C 586.971 1.23801 1.42544 0
M  V30 5779 O 586.328 0.27839 1.80364 0
M  V30 5780 C 586.379 3.56125 0.621056 0
M  V30 5781 O 586.1 4.34879 -0.530304 0
M  V30 5782 C 587.601 4.24706 1.27041 0
M  V30 5783 H 584.821 0.669806 0.0400056 0
M  V30 5784 H 587.365 1.97714 -0.522456 0
M  V30 5785 H 585.52 3.64223 1.31985 0
M  V30 5786 H 585.934 5.24073 -0.211546 0
M  V30 5787 H 587.408 5.3131 1.49711 0
M  V30 5788 H 587.885 3.78354 2.23036 0
M  V30 5789 H 588.491 4.20858 0.613079 0
M  V30 5790 N 586.806 0.0935595 1.57322 0
M  V30 5791 C 587.738 -0.895923 2.10964 0
M  V30 5792 C 588.751 -1.24705 1.04654 0
M  V30 5793 O 589.94 -1.20044 1.32105 0
M  V30 5794 C 587.04 -2.20546 2.57318 0
M  V30 5795 C 586.213 -2.0299 3.87445 0
M  V30 5796 C 585.272 -3.17443 4.19662 0
M  V30 5797 O 584.298 -2.91474 4.88909 0
M  V30 5798 N 585.5 -4.43168 3.74943 0
M  V30 5799 H 588.265 -0.437788 2.96485 0
M  V30 5800 H 585.826 -0.0915863 1.61641 0
M  V30 5801 H 587.818 -2.9606 2.75917 0
M  V30 5802 H 586.388 -2.57789 1.76816 0
M  V30 5803 H 585.608 -1.11815 3.78009 0
M  V30 5804 H 586.896 -1.88535 4.7258 0
M  V30 5805 H 586.294 -4.67149 3.19043 0
M  V30 5806 H 584.851 -5.15637 3.987 0
M  V30 5807 N 588.284 -1.56567 -0.180126 0
M  V30 5808 C 589.509 -1.85975 -0.918041 0
M  V30 5809 C 589.934 -0.678888 -1.75422 0
M  V30 5810 O 589.292 0.372168 -1.77439 0
M  V30 5811 C 589.34 -3.13731 -1.77779 0
M  V30 5812 O 588.444 -2.95335 -2.87838 0
M  V30 5813 H 587.785 -0.61196 -0.257683 0
M  V30 5814 H 590.315 -2.03798 -0.180923 0
M  V30 5815 H 590.325 -3.4491 -2.17948 0
M  V30 5816 H 589 -3.99293 -1.16352 0
M  V30 5817 H 587.577 -2.7549 -2.51316 0
M  V30 5818 N 589.762 0.448376 -1.51087 0
M  V30 5819 C 591.173 1.0286 -1.5581 0
M  V30 5820 C 591.524 1.92583 -0.374989 0
M  V30 5821 O 590.649 2.10316 0.509533 0
M  V30 5822 C 591.244 1.87223 -2.8237 0
M  V30 5823 C 589.803 2.40314 -2.897 0
M  V30 5824 C 588.95 1.19238 -2.50355 0
M  V30 5825 H 591.901 0.230075 -1.57023 0
M  V30 5826 H 591.922 2.72553 -2.6551 0
M  V30 5827 H 591.434 1.21894 -3.68461 0
M  V30 5828 H 589.535 3.09129 -2.08014 0
M  V30 5829 H 589.648 2.73866 -3.93108 0
M  V30 5830 H 588.012 1.53428 -2.03303 0
M  V30 5831 H 588.795 0.555367 -3.38778 0
M  V30 5832 N 591.24 1.41047 0.703093 0
M  V30 5833 C 592.203 1.42036 1.79884 0
M  V30 5834 C 593.203 0.312153 1.57741 0
M  V30 5835 O 594.393 0.571672 1.64553 0
M  V30 5836 C 591.525 1.22437 3.18154 0
M  V30 5837 H 592.718 2.39572 1.80403 0
M  V30 5838 H 590.271 1.27079 0.909977 0
M  V30 5839 H 591.006 0.257112 3.23279 0
M  V30 5840 H 590.791 2.02723 3.35627 0
M  V30 5841 H 592.281 1.25946 3.98155 0
M  V30 5842 N 592.718 -0.936591 1.26751 0
M  V30 5843 C 593.967 -1.67778 1.11953 0
M  V30 5844 C 594.28 -1.92694 -0.33589 0
M  V30 5845 O 595.486 -2.64682 -0.604618 0
M  V30 5846 C 593.942 -3.02138 1.95551 0
M  V30 5847 C 593.55 -2.84953 3.45696 0
M  V30 5848 C 595.294 -3.79917 1.89377 0
M  V30 5849 C 593.201 -4.14814 4.21525 0
M  V30 5850 H 592.131 -0.629275 0.415366 0
M  V30 5851 H 594.782 -1.04122 1.51099 0
M  V30 5852 H 593.164 -3.668 1.49243 0
M  V30 5853 H 594.338 -2.29112 3.99805 0
M  V30 5854 H 592.653 -2.20612 3.53156 0
M  V30 5855 H 595.25 -4.76134 2.43312 0
M  V30 5856 H 595.593 -4.07204 0.865464 0
M  V30 5857 H 596.126 -3.22037 2.33532 0
M  V30 5858 H 592.865 -3.92709 5.24843 0
M  V30 5859 H 592.385 -4.70352 3.72195 0
M  V30 5860 H 594.064 -4.83239 4.3022 0
M  V30 5861 N 594.196 -1.08629 -1.14182 0
M  V30 5862 C 595.129 -0.662329 -2.18377 0
M  V30 5863 C 596.107 0.327054 -1.59277 0
M  V30 5864 O 597.291 0.230376 -1.87087 0
M  V30 5865 C 594.418 0.0254765 -3.3869 0
M  V30 5866 C 593.464 -0.924414 -4.16361 0
M  V30 5867 S 594.297 -2.43226 -4.77076 0
M  V30 5868 C 595.453 -1.75663 -6.00744 0
M  V30 5869 H 595.686 -1.54501 -2.54001 0
M  V30 5870 H 593.219 -0.901484 -1.2535 0
M  V30 5871 H 595.177 0.416032 -4.08386 0
M  V30 5872 H 593.838 0.884689 -3.01384 0
M  V30 5873 H 593.031 -0.390099 -5.02488 0
M  V30 5874 H 592.633 -1.25598 -3.5228 0
M  V30 5875 H 594.925 -1.07589 -6.68903 0
M  V30 5876 H 595.868 -2.59673 -6.58768 0
M  V30 5877 H 596.276 -1.22903 -5.50958 0
M  V30 5878 N 595.674 1.31259 -0.872281 0
M  V30 5879 C 596.899 2.0133 -0.498099 0
M  V30 5880 C 597.324 1.65031 0.902568 0
M  V30 5881 O 596.682 0.860164 1.59596 0
M  V30 5882 C 596.73 3.54411 -0.665205 0
M  V30 5883 O 595.834 4.11347 0.294473 0
M  V30 5884 H 595.175 0.633844 -0.197832 0
M  V30 5885 H 597.705 1.67402 -1.17633 0
M  V30 5886 H 597.715 4.04147 -0.559373 0
M  V30 5887 H 596.39 3.80171 -1.68651 0
M  V30 5888 H 594.967 3.72624 0.143403 0
M  V30 5889 N 597.152 0.631951 1.44375 0
M  V30 5890 C 598.115 -0.0628142 2.29114 0
M  V30 5891 C 599.115 -0.771494 1.41084 0
M  V30 5892 O 600.305 -0.615959 1.62947 0
M  V30 5893 C 597.437 -1.09953 3.22681 0
M  V30 5894 H 598.63 0.682509 2.92031 0
M  V30 5895 H 596.183 0.392128 1.51301 0
M  V30 5896 H 596.918 -1.87481 2.64616 0
M  V30 5897 H 596.703 -0.595286 3.87555 0
M  V30 5898 H 598.193 -1.58538 3.86336 0
M  V30 5899 N 598.631 -1.53133 0.372548 0
M  V30 5900 C 599.856 -2.0625 -0.218098 0
M  V30 5901 C 600.281 -1.24375 -1.41111 0
M  V30 5902 O 599.639 -0.264554 -1.79359 0
M  V30 5903 C 599.687 -3.55858 -0.582876 0
M  V30 5904 O 598.791 -3.76667 -1.67917 0
M  V30 5905 H 598.132 -0.663317 -0.030104 0
M  V30 5906 H 600.662 -1.97477 0.535169 0
M  V30 5907 H 600.672 -3.99007 -0.851925 0
M  V30 5908 H 599.347 -4.14892 0.289428 0
M  V30 5909 H 597.924 -3.45413 -1.40513 0
M  V30 5910 N 600.109 -0.101901 -1.5727 0
M  V30 5911 C 601.52 0.426173 -1.81771 0
M  V30 5912 C 601.871 1.67725 -1.01797 0
M  V30 5913 O 600.996 2.14958 -0.249386 0
M  V30 5914 C 601.591 0.779962 -3.297 0
M  V30 5915 C 600.15 1.25275 -3.54941 0
M  V30 5916 C 599.297 0.252814 -2.76145 0
M  V30 5917 H 602.248 -0.32726 -1.55289 0
M  V30 5918 H 602.269 1.63891 -3.43395 0
M  V30 5919 H 601.781 -0.130778 -3.8788 0
M  V30 5920 H 599.882 2.18097 -3.021 0
M  V30 5921 H 599.995 1.20988 -4.63572 0
M  V30 5922 H 598.359 0.736362 -2.43823 0
M  V30 5923 H 599.142 -0.650724 -3.37076 0
M  V30 5924 N 601.587 1.56661 0.17182 0
M  V30 5925 C 602.835 1.81606 0.886774 0
M  V30 5926 C 603.156 0.678818 1.82803 0
M  V30 5927 O 602.426 -0.301354 1.93568 0
M  V30 5928 H 601.006 0.669934 0.330451 0
M  V30 5929 H 603.668 1.94142 0.171757 0
M  V30 5930 H 602.764 2.75634 1.46398 0
M  V30 5931 N 603.065 -0.440357 1.51323 0
M  V30 5932 C 603.975 -1.55955 1.75258 0
M  V30 5933 C 604.991 -1.61933 0.636687 0
M  V30 5934 O 606.167 -1.79231 0.918593 0
M  V30 5935 C 603.232 -2.9196 1.86977 0
M  V30 5936 C 602.293 -2.96122 3.10822 0
M  V30 5937 C 601.526 -4.2564 3.21973 0
M  V30 5938 O 601.749 -5.17851 2.39137 0
M  V30 5939 O 600.683 -4.36025 4.14929 0
M  V30 5940 H 604.509 -1.38673 2.70191 0
M  V30 5941 H 602.094 -0.623055 1.35788 0
M  V30 5942 H 603.976 -3.72682 1.96688 0
M  V30 5943 H 602.651 -3.09375 0.952307 0
M  V30 5944 H 601.558 -2.14366 3.06591 0
M  V30 5945 H 602.891 -2.83651 4.02247 0
M  V30 5946 N 604.543 -1.41418 -0.695603 0
M  V30 5947 C 605.49 -1.43264 -1.80954 0
M  V30 5948 C 606.46 -0.287016 -1.63601 0
M  V30 5949 O 607.645 -0.488054 -1.84452 0
M  V30 5950 C 604.785 -1.32054 -3.18835 0
M  V30 5951 C 603.898 -2.56485 -3.4762 0
M  V30 5952 C 603.033 -2.3757 -4.75115 0
M  V30 5953 C 602.072 -3.57477 -4.96867 0
M  V30 5954 N 601.209 -3.37632 -6.15588 0
M  V30 5955 H 606.049 -2.38467 -1.78711 0
M  V30 5956 H 603.586 -1.18415 -0.872715 0
M  V30 5957 H 605.544 -1.23558 -3.98484 0
M  V30 5958 H 604.174 -0.404592 -3.20254 0
M  V30 5959 H 603.226 -2.75432 -2.62376 0
M  V30 5960 H 604.538 -3.45678 -3.59594 0
M  V30 5961 H 603.692 -2.2654 -5.62818 0
M  V30 5962 H 602.431 -1.45834 -4.65386 0
M  V30 5963 H 601.436 -3.68961 -4.07612 0
M  V30 5964 H 602.661 -4.50167 -5.08455 0
M  V30 5965 H 600.607 -2.48596 -6.07072 0
M  V30 5966 H 600.524 -4.20401 -6.2833 0
M  V30 5967 H 601.792 -3.30375 -7.06026 0
M  V30 5968 N 606.021 0.929856 -1.27246 0
M  V30 5969 C 607.267 1.6798 -1.13625 0
M  V30 5970 C 607.6 1.91586 0.317589 0
M  V30 5971 O 606.875 1.50467 1.23247 0
M  V30 5972 C 607.158 3.04766 -1.91806 0
M  V30 5973 C 607.011 2.88415 -3.45162 0
M  V30 5974 C 608.33 4.05063 -1.72082 0
M  V30 5975 H 605.449 0.609632 -0.414147 0
M  V30 5976 H 608.091 1.0792 -1.56376 0
M  V30 5977 H 606.241 3.56034 -1.55474 0
M  V30 5978 H 607.913 2.44282 -3.91311 0
M  V30 5979 H 606.156 2.23802 -3.71611 0
M  V30 5980 H 606.827 3.85482 -3.95105 0
M  V30 5981 H 609.303 3.62798 -2.03757 0
M  V30 5982 H 608.179 4.98765 -2.29182 0
M  V30 5983 H 608.44 4.37021 -0.668206 0
M  V30 5984 N 607.499 1.09233 1.13605 0
M  V30 5985 C 608.727 0.848908 1.88683 0
M  V30 5986 C 609.142 -0.599667 1.79024 0
M  V30 5987 O 608.499 -1.41265 1.15544 0
M  V30 5988 C 608.55 1.27273 3.38355 0
M  V30 5989 O 608.271 2.66449 3.47759 0
M  V30 5990 C 609.772 1.0614 4.30406 0
M  V30 5991 H 606.992 0.305549 0.597395 0
M  V30 5992 H 609.536 1.4538 1.43823 0
M  V30 5993 H 607.691 0.711776 3.80805 0
M  V30 5994 H 608.105 2.84264 4.40788 0
M  V30 5995 H 609.579 1.40725 5.33761 0
M  V30 5996 H 610.056 -0.000960332 4.392 0
M  V30 5997 H 610.662 1.60821 3.93722 0
M  V30 5998 N 608.977 -1.30795 0.87923 0
M  V30 5999 C 609.91 -2.26396 0.286404 0
M  V30 6000 C 610.888 -1.51528 -0.589748 0
M  V30 6001 O 612.072 -1.80566 -0.541119 0
M  V30 6002 C 609.199 -3.33458 -0.593581 0
M  V30 6003 C 608.245 -4.2597 0.21247 0
M  V30 6004 S 609.078 -5.11132 1.59702 0
M  V30 6005 C 610.234 -6.21705 0.723408 0
M  V30 6006 H 610.467 -2.7633 1.09677 0
M  V30 6007 H 608 -1.38703 0.678305 0
M  V30 6008 H 609.958 -3.9561 -1.09557 0
M  V30 6009 H 608.619 -2.82259 -1.37799 0
M  V30 6010 H 607.812 -5.01907 -0.458822 0
M  V30 6011 H 607.414 -3.68363 0.646883 0
M  V30 6012 H 609.706 -6.77472 -0.0620739 0
M  V30 6013 H 610.649 -6.93007 1.4542 0
M  V30 6014 H 611.057 -5.63771 0.286855 0
M  V30 6015 N 610.455 -0.639598 -1.44038 0
M  V30 6016 C 611.683 -0.154811 -2.0632 0
M  V30 6017 C 612.098 1.17406 -1.47856 0
M  V30 6018 O 611.455 1.72193 -0.604638 0
M  V30 6019 C 611.506 -0.0429958 -3.61474 0
M  V30 6020 O 611.227 -1.31932 -4.17763 0
M  V30 6021 C 612.728 0.469486 -4.40807 0
M  V30 6022 H 609.948 -0.0835862 -0.665773 0
M  V30 6023 H 612.492 -0.876397 -1.84769 0
M  V30 6024 H 610.647 0.629075 -3.82258 0
M  V30 6025 H 611.061 -1.16965 -5.11292 0
M  V30 6026 H 612.535 0.496712 -5.49761 0
M  V30 6027 H 613.012 1.49819 -4.12857 0
M  V30 6028 H 613.618 -0.169624 -4.24962 0
M  V30 6029 N 611.933 1.52934 -0.380664 0
M  V30 6030 C 613.173 2.03378 0.204161 0
M  V30 6031 C 613.537 1.26132 1.44758 0
M  V30 6032 O 614.738 1.66657 2.109 0
M  V30 6033 C 613.009 3.54241 0.474118 0
M  V30 6034 S 614.568 4.26529 1.03046 0
M  V30 6035 H 611.386 0.708608 0.0582719 0
M  V30 6036 H 613.988 1.88263 -0.527017 0
M  V30 6037 H 612.692 4.08055 -0.438088 0
M  V30 6038 H 612.223 3.73547 1.23396 0
M  V30 6039 H 614.238 4.38964 2.31354 0
M  V30 6040 N 613.412 0.11024 1.57214 0
M  V30 6041 C 614.828 -0.24638 1.57687 0
M  V30 6042 C 615.028 -1.67344 1.12241 0
M  V30 6043 O 614.084 -2.39298 0.805783 0
M  V30 6044 C 615.397 -0.0210288 3.00693 0
M  V30 6045 C 616.945 -0.0876077 3.12877 0
M  V30 6046 C 617.42 0.10994 4.57868 0
M  V30 6047 N 618.911 0.0556135 4.63167 0
M  V30 6048 C 619.646 0.183495 5.73106 0
M  V30 6049 N 619.142 0.367058 6.91827 0
M  V30 6050 N 620.935 0.123689 5.61964 0
M  V30 6051 H 613.086 1.04246 1.85058 0
M  V30 6052 H 615.349 0.40979 0.854854 0
M  V30 6053 H 615.055 0.965203 3.38196 0
M  V30 6054 H 614.929 -0.756748 3.69531 0
M  V30 6055 H 617.316 -1.06436 2.75237 0
M  V30 6056 H 617.397 0.67985 2.466 0
M  V30 6057 H 617.041 1.08362 4.96206 0
M  V30 6058 H 616.971 -0.677397 5.22225 0
M  V30 6059 H 619.462 -0.0831062 3.77809 0
M  V30 6060 H 619.775 0.455739 7.71455 0
M  V30 6061 H 618.12 0.40292 6.93831 0
M  V30 6062 H 621.311 -0.0186928 4.68096 0
M  V30 6063 H 621.484 0.226797 6.47603 0
M  V30 6064 N 614.89 -1.56749 -0.16351 0
M  V30 6065 C 615.853 -1.96121 -1.18613 0
M  V30 6066 C 616.853 -0.845765 -1.36761 0
M  V30 6067 O 618.043 -1.11268 -1.34033 0
M  V30 6068 C 615.175 -2.26282 -2.54969 0
M  V30 6069 H 616.368 -2.87639 -0.848764 0
M  V30 6070 H 613.921 -1.50928 -0.406251 0
M  V30 6071 H 614.656 -1.37504 -2.93706 0
M  V30 6072 H 614.441 -3.07595 -2.43162 0
M  V30 6073 H 615.931 -2.57638 -3.28653 0
M  V30 6074 N 616.368 0.432326 -1.51554 0
M  V30 6075 C 617.593 1.20824 -1.68571 0
M  V30 6076 C 618.018 1.84126 -0.384596 0
M  V30 6077 O 617.376 1.69025 0.655751 0
M  V30 6078 C 617.424 2.26429 -2.80646 0
M  V30 6079 O 616.528 3.32032 -2.44598 0
M  V30 6080 H 615.869 0.353765 -0.561913 0
M  V30 6081 H 618.399 0.509916 -1.98144 0
M  V30 6082 H 618.409 2.71133 -3.04878 0
M  V30 6083 H 617.084 1.79733 -3.75058 0
M  V30 6084 H 615.661 2.92769 -2.30956 0
M  V30 6085 N 617.846 1.41785 0.688094 0
M  V30 6086 C 619.071 1.45117 1.48175 0
M  V30 6087 C 619.496 0.060129 1.88004 0
M  V30 6088 O 618.854 -0.938385 1.55126 0
M  V30 6089 C 618.902 2.37224 2.71583 0
M  V30 6090 O 618.006 1.83443 3.69354 0
M  V30 6091 H 617.347 0.492208 0.445676 0
M  V30 6092 H 619.877 1.86329 0.845145 0
M  V30 6093 H 619.887 2.53353 3.19806 0
M  V30 6094 H 618.562 3.38293 2.41931 0
M  V30 6095 H 617.139 1.76802 3.28322 0
M  V30 6096 N 619.324 -0.923095 1.27737 0
M  V30 6097 C 620.549 -1.71054 1.17283 0
M  V30 6098 C 620.974 -1.86208 -0.266153 0
M  V30 6099 O 620.332 -1.36545 -1.1927 0
M  V30 6100 C 620.38 -3.0854 1.86642 0
M  V30 6101 O 619.484 -3.95528 1.16752 0
M  V30 6102 H 618.825 -0.524136 0.407649 0
M  V30 6103 H 621.355 -1.15487 1.6889 0
M  V30 6104 H 621.365 -3.58828 1.94182 0
M  V30 6105 H 620.04 -2.96828 2.91317 0
M  V30 6106 H 618.617 -3.53967 1.17312 0
M  V30 6107 N 620.802 -1.09834 -1.13024 0
M  V30 6108 C 622.048 -0.83819 -1.84668 0
M  V30 6109 C 622.381 0.634645 -1.83537 0
M  V30 6110 O 621.656 1.46753 -1.27647 0
M  V30 6111 C 621.939 -1.37933 -3.32636 0
M  V30 6112 C 621.792 -2.91857 -3.42257 0
M  V30 6113 C 623.111 -1.01654 -4.28199 0
M  V30 6114 H 620.23 -0.30595 -0.670495 0
M  V30 6115 H 622.872 -1.36044 -1.32635 0
M  V30 6116 H 621.022 -0.935111 -3.77078 0
M  V30 6117 H 622.694 -3.44759 -3.06495 0
M  V30 6118 H 620.937 -3.28776 -2.83 0
M  V30 6119 H 621.608 -3.24799 -4.46329 0
M  V30 6120 H 624.084 -1.39973 -3.9185 0
M  V30 6121 H 622.96 -1.42217 -5.30156 0
M  V30 6122 H 623.221 0.0747794 -4.42037 0
M  V30 6123 N 622.28 1.30327 -0.886154 0
M  V30 6124 C 623.505 2.0079 -0.519425 0
M  V30 6125 C 623.93 1.65979 0.885013 0
M  V30 6126 O 623.288 0.877043 1.58675 0
M  V30 6127 C 623.336 3.53686 -0.702758 0
M  V30 6128 O 622.44 4.11637 0.250828 0
M  V30 6129 H 621.781 0.63171 -0.204544 0
M  V30 6130 H 624.311 1.66145 -1.19402 0
M  V30 6131 H 624.321 4.03531 -0.602207 0
M  V30 6132 H 622.996 3.78361 -1.72673 0
M  V30 6133 H 621.573 3.72755 0.103873 0
M  V30 6134 N 623.758 0.647228 1.43697 0
M  V30 6135 C 624.988 0.16551 2.05936 0
M  V30 6136 C 625.396 -1.17164 1.48557 0
M  V30 6137 O 624.739 -1.73307 0.60914 0
M  V30 6138 C 624.801 -0.00648082 3.59499 0
M  V30 6139 C 624.465 1.25503 4.39429 0
M  V30 6140 C 625.462 2.18241 4.71876 0
M  V30 6141 C 623.147 1.49494 4.79538 0
M  V30 6142 C 625.141 3.33268 5.43333 0
M  V30 6143 C 622.828 2.64815 5.50742 0
M  V30 6144 C 623.826 3.56528 5.82561 0
M  V30 6145 O 623.514 4.69836 6.52311 0
M  V30 6146 H 623.246 0.0844124 0.670709 0
M  V30 6147 H 625.8 0.88638 1.8529 0
M  V30 6148 H 624.03 -0.782661 3.78697 0
M  V30 6149 H 625.719 -0.444794 4.03456 0
M  V30 6150 H 626.485 2.00946 4.41413 0
M  V30 6151 H 622.364 0.789912 4.54182 0
M  V30 6152 H 625.908 4.04874 5.68087 0
M  V30 6153 H 621.805 2.82047 5.8062 0
M  V30 6154 H 622.573 4.69024 6.70789 0
M  V30 6155 N 625.236 -1.5273 0.388769 0
M  V30 6156 C 626.169 -2.22861 -0.490752 0
M  V30 6157 C 627.147 -1.22912 -1.06449 0
M  V30 6158 O 628.331 -1.51896 -1.11624 0
M  V30 6159 C 625.458 -2.94141 -1.67925 0
M  V30 6160 C 624.504 -4.08355 -1.23081 0
M  V30 6161 S 625.337 -5.35077 -0.212786 0
M  V30 6162 C 626.493 -6.09879 -1.40708 0
M  V30 6163 H 626.726 -2.97115 0.104787 0
M  V30 6164 H 624.259 -1.53428 0.172956 0
M  V30 6165 H 626.217 -3.35818 -2.36085 0
M  V30 6166 H 624.878 -2.19568 -2.24608 0
M  V30 6167 H 624.071 -4.57328 -2.11818 0
M  V30 6168 H 623.673 -3.68688 -0.628121 0
M  V30 6169 H 625.965 -6.36018 -2.33424 0
M  V30 6170 H 626.908 -7.01586 -0.958271 0
M  V30 6171 H 627.316 -5.40646 -1.62364 0
M  V30 6172 N 626.714 -0.118576 -1.57153 0
M  V30 6173 C 627.662 0.849114 -2.16547 0
M  V30 6174 C 628.656 1.27567 -1.11458 0
M  V30 6175 O 629.862 1.24746 -1.29763 0
M  V30 6176 H 626.237 0.291935 -0.693021 0
M  V30 6177 H 628.208 0.323693 -2.96639 0
M  V30 6178 C 626.957 2.08951 -2.77912 0
M  V30 6179 H 626.28 1.77021 -3.58474 0
M  V30 6180 H 627.72 2.74666 -3.23008 0
M  V30 6181 C 626.179 2.87899 -1.74974 0
M  V30 6182 O 626.709 3.83268 -1.20285 0
M  V30 6183 N 624.915 2.51884 -1.44924 0
M  V30 6184 H 624.462 1.74397 -1.89587 0
M  V30 6185 H 624.42 3.05003 -0.762921 0
M  V30 6186 N 628.193 1.56834 0.155195 0
M  V30 6187 C 629.439 1.84058 0.865687 0
M  V30 6188 C 629.794 0.701418 1.79159 0
M  V30 6189 O 629.087 -0.301162 1.89218 0
M  V30 6190 C 629.281 3.15239 1.68402 0
M  V30 6191 C 629.11 4.41807 0.838847 0
M  V30 6192 C 627.88 5.02744 0.507645 0
M  V30 6193 C 630.078 5.14009 0.172946 0
M  V30 6194 N 628.06 6.1289 -0.351978 0
M  V30 6195 C 629.431 6.17581 -0.547158 0
M  V30 6196 C 631.486 4.97814 0.0927721 0
M  V30 6197 C 630.189 7.06711 -1.33985 0
M  V30 6198 C 632.215 5.874 -0.686638 0
M  V30 6199 C 631.577 6.90447 -1.39505 0
M  V30 6200 H 627.676 0.724276 0.294871 0
M  V30 6201 H 630.26 1.94255 0.131583 0
M  V30 6202 H 628.431 3.06205 2.38942 0
M  V30 6203 H 630.163 3.304 2.33705 0
M  V30 6204 H 626.918 4.66064 0.841517 0
M  V30 6205 H 627.342 6.72577 -0.772573 0
M  V30 6206 H 631.984 4.18138 0.626112 0
M  V30 6207 H 629.702 7.8582 -1.88448 0
M  V30 6208 H 633.288 5.76938 -0.750555 0
M  V30 6209 H 632.168 7.58571 -1.98847 0
M  V30 6210 N 629.671 -0.424282 1.51781 0
M  V30 6211 C 630.901 -1.19297 1.68677 0
M  V30 6212 C 631.309 -1.85152 0.389258 0
M  V30 6213 O 630.652 -1.72067 -0.643311 0
M  V30 6214 C 630.714 -2.30929 2.75521 0
M  V30 6215 C 630.378 -1.85335 4.17732 0
M  V30 6216 C 631.375 -1.34951 5.0208 0
M  V30 6217 C 629.06 -1.92629 4.63896 0
M  V30 6218 C 631.054 -0.924636 6.30658 0
M  V30 6219 C 628.741 -1.49754 5.92467 0
M  V30 6220 C 629.739 -0.997543 6.75676 0
M  V30 6221 O 629.427 -0.57492 8.01842 0
M  V30 6222 H 629.159 -0.36512 0.568914 0
M  V30 6223 H 631.713 -0.507327 1.99036 0
M  V30 6224 H 629.943 -3.02811 2.40505 0
M  V30 6225 H 631.632 -2.92748 2.81165 0
M  V30 6226 H 632.398 -1.287 4.67612 0
M  V30 6227 H 628.277 -2.30491 3.99243 0
M  V30 6228 H 631.821 -0.533682 6.95556 0
M  V30 6229 H 627.718 -1.55679 6.26446 0
M  V30 6230 H 628.486 -0.699597 8.15505 0
M  V30 6231 N 631.149 -1.42148 -0.680565 0
M  V30 6232 C 632.081 -1.41119 -1.80605 0
M  V30 6233 C 633.094 -0.311099 -1.598 0
M  V30 6234 O 634.283 -0.573813 -1.69026 0
M  V30 6235 C 631.383 -1.18204 -3.17618 0
M  V30 6236 C 630.556 -2.40537 -3.65322 0
M  V30 6237 C 629.615 -2.13254 -4.8105 0
M  V30 6238 O 628.641 -2.8641 -4.91892 0
M  V30 6239 N 629.843 -1.13208 -5.69354 0
M  V30 6240 H 632.608 -2.38128 -1.81975 0
M  V30 6241 H 630.169 -1.36953 -0.863446 0
M  V30 6242 H 632.161 -0.97878 -3.92686 0
M  V30 6243 H 630.731 -0.29738 -3.11182 0
M  V30 6244 H 629.951 -2.76468 -2.80996 0
M  V30 6245 H 631.239 -3.22012 -3.93936 0
M  V30 6246 H 630.637 -0.526893 -5.63241 0
M  V30 6247 H 629.194 -0.988699 -6.44258 0
M  V30 6248 N 632.627 0.916307 -1.28225 0
M  V30 6249 C 633.559 2.02303 -1.07732 0
M  V30 6250 C 634.572 1.62773 -0.0298421 0
M  V30 6251 O 635.761 1.76406 -0.272626 0
M  V30 6252 C 632.861 3.33282 -0.614504 0
M  V30 6253 C 632.034 4.01439 -1.73682 0
M  V30 6254 C 631.093 5.10698 -1.26781 0
M  V30 6255 O 630.119 5.34038 -1.96958 0
M  V30 6256 N 631.321 5.80355 -0.129624 0
M  V30 6257 H 634.086 2.20442 -2.03041 0
M  V30 6258 H 631.647 1.08744 -1.19943 0
M  V30 6259 H 633.639 4.03699 -0.284397 0
M  V30 6260 H 632.209 3.11633 0.245664 0
M  V30 6261 H 631.429 3.24604 -2.23665 0
M  V30 6262 H 632.717 4.43721 -2.48976 0
M  V30 6263 H 632.115 5.6386 0.455847 0
M  V30 6264 H 630.672 6.51647 0.141224 0
M  V30 6265 N 634.105 1.10431 1.1244 0
M  V30 6266 C 635.052 0.753103 2.18167 0
M  V30 6267 C 636.022 -0.270549 1.63882 0
M  V30 6268 O 637.207 -0.149837 1.90211 0
M  V30 6269 C 634.347 0.191046 3.44571 0
M  V30 6270 C 633.46 1.26999 4.12911 0
M  V30 6271 C 632.595 0.669586 5.26963 0
M  V30 6272 C 631.634 1.72912 5.87169 0
M  V30 6273 N 630.771 1.14898 6.92635 0
M  V30 6274 H 635.611 1.65892 2.47556 0
M  V30 6275 H 633.148 0.828631 1.21541 0
M  V30 6276 H 635.106 -0.152712 4.1692 0
M  V30 6277 H 633.736 -0.677997 3.15599 0
M  V30 6278 H 632.788 1.73087 3.3874 0
M  V30 6279 H 634.1 2.07204 4.53727 0
M  V30 6280 H 633.254 0.275274 6.06075 0
M  V30 6281 H 631.993 -0.163895 4.87425 0
M  V30 6282 H 630.998 2.13286 5.06744 0
M  V30 6283 H 632.223 2.56544 6.28778 0
M  V30 6284 H 630.169 0.336956 6.55134 0
M  V30 6285 H 630.086 1.88786 7.32049 0
M  V30 6286 H 631.354 0.78121 7.75576 0
M  V30 6287 N 635.583 -1.29855 0.893053 0
M  V30 6288 C 636.808 -2.00512 0.530066 0
M  V30 6289 C 637.233 -1.66446 -0.876199 0
M  V30 6290 O 636.591 -0.885446 -1.58207 0
M  V30 6291 C 636.639 -3.53308 0.721505 0
M  V30 6292 O 635.743 -4.11764 -0.228994 0
M  V30 6293 H 635.084 -0.630617 0.207891 0
M  V30 6294 H 637.614 -1.6551 1.20282 0
M  V30 6295 H 637.624 -4.03206 0.623599 0
M  V30 6296 H 636.299 -3.77439 1.74678 0
M  V30 6297 H 634.876 -3.72805 -0.0841034 0
M  V30 6298 N 637.061 -0.65484 -1.43351 0
M  V30 6299 C 638.309 -0.168559 -2.01396 0
M  V30 6300 C 638.63 1.22235 -1.51933 0
M  V30 6301 O 637.9 1.81685 -0.732627 0
M  V30 6302 H 636.48 -0.0593244 -0.744641 0
M  V30 6303 H 639.142 -0.846871 -1.75539 0
M  V30 6304 H 638.238 -0.154428 -3.11718 0
M  V30 6305 N 638.539 1.52521 -0.396863 0
M  V30 6306 C 639.767 2.06091 0.18275 0
M  V30 6307 C 640.182 1.26796 1.39886 0
M  V30 6308 O 639.539 0.316585 1.79733 0
M  V30 6309 C 639.59 3.57362 0.545377 0
M  V30 6310 O 639.311 4.33656 -0.622428 0
M  V30 6311 C 640.812 4.27305 1.18004 0
M  V30 6312 H 638.032 0.670504 0.025789 0
M  V30 6313 H 640.576 1.96561 -0.564276 0
M  V30 6314 H 638.731 3.66941 1.2423 0
M  V30 6315 H 639.145 5.23507 -0.322662 0
M  V30 6316 H 640.619 5.34366 1.38408 0
M  V30 6317 H 641.096 3.83 2.1496 0
M  V30 6318 H 641.702 4.22064 0.523671 0
M  V30 6319 N 640.017 0.126909 1.57088 0
M  V30 6320 C 641.242 -0.53997 2.00248 0
M  V30 6321 C 641.667 -1.58927 1.00618 0
M  V30 6322 O 641.025 -1.81288 -0.0210131 0
M  V30 6323 C 641.073 -1.13565 3.4225 0
M  V30 6324 O 640.177 -2.25103 3.45547 0
M  V30 6325 H 639.518 -0.13412 0.650314 0
M  V30 6326 H 642.048 0.217718 2.03438 0
M  V30 6327 H 642.058 -1.46925 3.80627 0
M  V30 6328 H 640.733 -0.367122 4.14277 0
M  V30 6329 H 639.31 -1.93123 3.18995 0
M  V30 6330 N 641.495 -1.56914 -0.146875 0
M  V30 6331 C 642.906 -1.72799 -0.706928 0
M  V30 6332 C 643.257 -0.741329 -1.81656 0
M  V30 6333 O 642.382 0.0920162 -2.16204 0
M  V30 6334 C 642.977 -3.13317 -1.28911 0
M  V30 6335 C 641.536 -3.30803 -1.79573 0
M  V30 6336 C 640.683 -2.68725 -0.684252 0
M  V30 6337 H 643.634 -1.58504 0.0787931 0
M  V30 6338 H 643.655 -3.13323 -2.15891 0
M  V30 6339 H 643.167 -3.85104 -0.481284 0
M  V30 6340 H 641.268 -2.64012 -2.62923 0
M  V30 6341 H 641.381 -4.38754 -1.92436 0
M  V30 6342 H 639.745 -2.29196 -1.11091 0
M  V30 6343 H 640.528 -3.43117 0.112134 0
M  V30 6344 N 642.974 0.416227 -1.52004 0
M  V30 6345 C 643.921 1.50666 -1.74838 0
M  V30 6346 C 644.891 1.55245 -0.590599 0
M  V30 6347 O 646.076 1.71928 -0.827374 0
M  V30 6348 C 643.216 2.88185 -1.89851 0
M  V30 6349 C 642.329 2.92971 -3.17478 0
M  V30 6350 C 641.464 4.21745 -3.22962 0
M  V30 6351 C 640.503 4.20478 -4.4482 0
M  V30 6352 N 639.64 5.40811 -4.47736 0
M  V30 6353 H 644.48 1.30498 -2.67907 0
M  V30 6354 H 642.017 0.633568 -1.32757 0
M  V30 6355 H 643.975 3.68007 -1.96537 0
M  V30 6356 H 642.605 3.06865 -1.00169 0
M  V30 6357 H 641.657 2.05684 -3.19997 0
M  V30 6358 H 642.969 2.87899 -4.07328 0
M  V30 6359 H 642.123 5.09954 -3.28682 0
M  V30 6360 H 640.862 4.29503 -2.31038 0
M  V30 6361 H 639.867 3.30659 -4.39254 0
M  V30 6362 H 641.092 4.14366 -5.38031 0
M  V30 6363 H 639.038 5.4925 -3.58692 0
M  V30 6364 H 638.955 5.37705 -5.31422 0
M  V30 6365 H 640.223 6.30993 -4.57676 0
M  V30 6366 N 644.452 1.42507 0.673017 0
M  V30 6367 C 645.868 1.25472 0.986355 0
M  V30 6368 C 646.068 0.160181 2.00862 0
M  V30 6369 O 645.124 -0.467993 2.48125 0
M  V30 6370 C 646.437 2.61219 1.48947 0
M  V30 6371 C 647.985 2.68589 1.60715 0
M  V30 6372 C 648.46 4.04707 2.14422 0
M  V30 6373 N 649.951 4.0667 2.21752 0
M  V30 6374 C 650.686 5.0881 2.64386 0
M  V30 6375 N 650.182 6.21332 3.0646 0
M  V30 6376 N 651.975 4.96166 2.64151 0
M  V30 6377 H 644.126 2.124 -0.00378532 0
M  V30 6378 H 646.389 0.946046 0.0608367 0
M  V30 6379 H 646.095 3.42179 0.812812 0
M  V30 6380 H 645.969 2.85261 2.46791 0
M  V30 6381 H 648.356 1.87974 2.27486 0
M  V30 6382 H 648.437 2.48333 0.613552 0
M  V30 6383 H 648.081 4.8578 1.48258 0
M  V30 6384 H 648.011 4.22315 3.14575 0
M  V30 6385 H 650.502 3.25438 1.92089 0
M  V30 6386 H 650.815 6.95118 3.37684 0
M  V30 6387 H 649.16 6.24835 3.04313 0
M  V30 6388 H 652.351 4.07334 2.30644 0
M  V30 6389 H 652.524 5.759 2.97057 0
M  V30 6390 N 645.93 -0.909495 1.28709 0
M  V30 6391 C 647.176 -1.66175 1.17293 0
M  V30 6392 C 647.531 -1.90426 -0.274891 0
M  V30 6393 O 646.824 -1.49659 -1.19635 0
M  V30 6394 C 647.018 -3.02117 1.90945 0
M  V30 6395 C 646.847 -2.91134 3.42741 0
M  V30 6396 C 645.617 -2.92429 4.12085 0
M  V30 6397 C 647.815 -2.68889 4.3841 0
M  V30 6398 N 645.797 -2.72078 5.50315 0
M  V30 6399 C 647.168 -2.57423 5.64033 0
M  V30 6400 C 649.223 -2.53919 4.28287 0
M  V30 6401 C 647.926 -2.32513 6.80683 0
M  V30 6402 C 649.952 -2.3039 5.44678 0
M  V30 6403 C 649.314 -2.19682 6.69268 0
M  V30 6404 H 645.413 -0.614095 0.48416 0
M  V30 6405 H 647.997 -1.07377 1.62414 0
M  V30 6406 H 646.168 -3.58993 1.48252 0
M  V30 6407 H 647.9 -3.66388 1.71878 0
M  V30 6408 H 644.655 -3.03345 3.63701 0
M  V30 6409 H 645.079 -2.64983 6.22987 0
M  V30 6410 H 649.721 -2.60946 3.32666 0
M  V30 6411 H 647.439 -2.24225 7.76369 0
M  V30 6412 H 651.025 -2.19665 5.38738 0
M  V30 6413 H 649.905 -2.01725 7.5781 0
M  V30 6414 N 647.408 -1.11026 -1.11852 0
M  V30 6415 C 648.657 -0.851249 -1.82857 0
M  V30 6416 C 648.97 0.62514 -1.85341 0
M  V30 6417 O 650.176 1.00026 -2.52403 0
M  V30 6418 C 648.632 -1.47309 -3.28372 0
M  V30 6419 C 648.24 -2.9832 -3.34229 0
M  V30 6420 C 649.984 -1.29373 -4.04306 0
M  V30 6421 C 647.891 -3.53509 -4.74115 0
M  V30 6422 H 646.821 -0.314794 -0.685143 0
M  V30 6423 H 649.472 -1.33499 -1.25898 0
M  V30 6424 H 647.854 -0.917017 -3.85236 0
M  V30 6425 H 649.028 -3.60295 -2.87271 0
M  V30 6426 H 647.343 -3.15482 -2.71772 0
M  V30 6427 H 649.94 -1.68042 -5.07608 0
M  V30 6428 H 650.283 -0.235879 -4.15631 0
M  V30 6429 H 650.816 -1.8182 -3.53817 0
M  V30 6430 H 647.555 -4.58987 -4.67986 0
M  V30 6431 H 647.075 -2.96305 -5.21501 0
M  V30 6432 H 648.754 -3.51693 -5.43066 0
M  V30 6433 N 648.886 1.2938 -0.899927 0
M  V30 6434 C 650.116 1.99402 -0.540601 0
M  V30 6435 C 650.524 1.67534 0.87914 0
M  V30 6436 O 649.867 0.916821 1.59186 0
M  V30 6437 C 649.929 3.53514 -0.653326 0
M  V30 6438 C 649.593 4.08937 -2.04009 0
M  V30 6439 C 650.59 4.23815 -3.01126 0
M  V30 6440 C 648.275 4.43962 -2.34953 0
M  V30 6441 C 650.269 4.72951 -4.27313 0
M  V30 6442 C 647.956 4.92795 -3.61382 0
M  V30 6443 C 648.954 5.07244 -4.57376 0
M  V30 6444 O 648.642 5.55017 -5.8156 0
M  V30 6445 H 648.374 0.64383 -0.206057 0
M  V30 6446 H 650.928 1.65878 -1.21134 0
M  V30 6447 H 649.158 3.86628 0.0744449 0
M  V30 6448 H 650.847 4.04767 -0.303118 0
M  V30 6449 H 651.613 3.97043 -2.78535 0
M  V30 6450 H 647.492 4.31974 -1.60994 0
M  V30 6451 H 651.036 4.84144 -5.02245 0
M  V30 6452 H 646.933 5.19004 -3.83804 0
M  V30 6453 H 647.701 5.73331 -5.84153 0
M  V30 6454 N 650.364 0.662433 1.43002 0
M  V30 6455 C 651.641 0.109096 1.95296 0
M  V30 6456 C 652.021 -1.37313 1.60338 0
M  V30 6457 O 651.369 -2.1032 0.893187 0
M  V30 6458 C 651.579 0.365096 3.47085 0
M  V30 6459 C 652.927 0.274964 4.23709 0
M  V30 6460 O 653.951 0.29816 3.5495 0
M  V30 6461 O 652.81 0.206549 5.4611 0
M  V30 6462 H 649.904 -0.00429724 0.826989 0
M  V30 6463 H 652.45 0.736308 1.52894 0
M  V30 6464 H 651.222 1.39237 3.65689 0
M  V30 6465 H 650.845 -0.294733 3.96506 0
M  V30 6466 N 651.842 -1.52309 0.404946 0
M  V30 6467 C 653.07 -2.06185 -0.171818 0
M  V30 6468 C 653.485 -1.27536 -1.39212 0
M  V30 6469 O 652.842 -0.326112 -1.79563 0
M  V30 6470 C 652.893 -3.57647 -0.526417 0
M  V30 6471 O 652.614 -4.3332 0.645417 0
M  V30 6472 C 654.115 -4.27925 -1.15736 0
M  V30 6473 H 651.335 -0.670632 -0.0222328 0
M  V30 6474 H 653.879 -1.96259 0.574692 0
M  V30 6475 H 652.034 -3.67595 -1.22282 0
M  V30 6476 H 652.448 -5.23328 0.35042 0
M  V30 6477 H 653.922 -5.35093 -1.35572 0
M  V30 6478 H 654.399 -3.84134 -2.12926 0
M  V30 6479 H 655.005 -4.22335 -0.501281 0
M  V30 6480 N 653.32 -0.135238 -1.57019 0
M  V30 6481 C 654.545 0.529343 -2.00531 0
M  V30 6482 C 654.97 1.58391 -1.01459 0
M  V30 6483 O 654.328 1.81296 0.0113986 0
M  V30 6484 C 654.376 1.11748 -3.42848 0
M  V30 6485 O 653.48 2.23267 -3.46736 0
M  V30 6486 H 652.821 0.130669 -0.651016 0
M  V30 6487 H 655.351 -0.228503 -2.0332 0
M  V30 6488 H 655.361 1.44905 -3.81401 0
M  V30 6489 H 654.036 0.345147 -4.14465 0
M  V30 6490 H 652.613 1.91428 -3.20015 0
M  V30 6491 N 654.798 1.5699 0.138552 0
M  V30 6492 C 655.745 1.98899 1.17081 0
M  V30 6493 C 656.715 0.857922 1.42228 0
M  V30 6494 O 657.9 1.12065 1.54422 0
M  V30 6495 C 655.04 2.38189 2.4972 0
M  V30 6496 C 654.153 3.64624 2.31674 0
M  V30 6497 C 653.288 3.9298 3.57407 0
M  V30 6498 C 652.327 5.1266 3.34435 0
M  V30 6499 N 651.464 5.36983 4.5232 0
M  V30 6500 H 656.304 2.86881 0.80642 0
M  V30 6501 H 653.841 1.41925 0.386727 0
M  V30 6502 H 655.799 2.59 3.2707 0
M  V30 6503 H 654.429 1.53275 2.84089 0
M  V30 6504 H 653.481 3.51542 1.45337 0
M  V30 6505 H 654.793 4.52131 2.10664 0
M  V30 6506 H 653.947 4.14335 4.43183 0
M  V30 6507 H 652.686 3.03912 3.8143 0
M  V30 6508 H 651.691 4.9117 2.47048 0
M  V30 6509 H 652.916 6.03288 3.11802 0
M  V30 6510 H 650.862 4.50871 4.76499 0
M  V30 6511 H 650.779 6.18775 4.34343 0
M  V30 6512 H 652.047 5.62842 5.39285 0
M  V30 6513 N 656.276 -0.40816 1.52223 0
M  V30 6514 C 657.522 -1.15673 1.66576 0
M  V30 6515 C 657.855 -1.90141 0.394996 0
M  V30 6516 O 657.13 -1.84798 -0.606613 0
M  V30 6517 C 657.413 -2.15042 2.88841 0
M  V30 6518 C 657.266 -1.44465 4.25969 0
M  V30 6519 C 658.585 -3.15699 3.0663 0
M  V30 6520 H 655.704 -0.41916 0.606196 0
M  V30 6521 H 658.346 -0.442348 1.84779 0
M  V30 6522 H 656.496 -2.75964 2.73452 0
M  V30 6523 H 658.168 -0.866544 4.53088 0
M  V30 6524 H 656.411 -0.746612 4.27327 0
M  V30 6525 H 657.082 -2.16976 5.07568 0
M  V30 6526 H 659.558 -2.64854 3.20923 0
M  V30 6527 H 658.434 -3.82491 3.9369 0
M  V30 6528 H 658.695 -3.83481 2.19987 0
M  V30 6529 N 657.755 -1.42862 -0.66545 0
M  V30 6530 C 658.718 -1.46756 -1.76055 0
M  V30 6531 C 659.718 -0.353866 -1.56858 0
M  V30 6532 O 660.908 -0.615099 -1.62979 0
M  V30 6533 C 658.04 -1.30829 -3.14796 0
M  V30 6534 H 659.233 -2.44271 -1.73987 0
M  V30 6535 H 656.786 -1.29447 -0.875965 0
M  V30 6536 H 657.521 -0.342733 -3.22484 0
M  V30 6537 H 657.306 -2.11551 -3.30134 0
M  V30 6538 H 658.796 -1.36458 -3.94676 0
M  V30 6539 N 659.233 0.902656 -1.29189 0
M  V30 6540 C 660.458 1.69167 -1.19989 0
M  V30 6541 C 660.883 1.86607 0.236495 0
M  V30 6542 O 660.241 1.38425 1.17082 0
M  V30 6543 C 660.289 3.05532 -1.91527 0
M  V30 6544 O 659.393 3.93621 -1.2303 0
M  V30 6545 H 658.734 0.517584 -0.415936 0
M  V30 6546 H 661.264 1.12785 -1.70706 0
M  V30 6547 H 661.274 3.55693 -1.99866 0
M  V30 6548 H 659.949 2.92156 -2.96003 0
M  V30 6549 H 658.526 3.52055 -1.22928 0
M  V30 6550 N 660.711 1.11618 1.11262 0
M  V30 6551 C 661.959 0.864469 1.82678 0
M  V30 6552 C 662.28 -0.611564 1.85162 0
M  V30 6553 O 661.55 -1.44429 1.32352 0
M  V30 6554 H 660.13 0.316821 0.676486 0
M  V30 6555 H 662.792 1.40894 1.34666 0
M  V30 6556 H 661.888 1.23832 2.86482 0
M  V30 6557 N 662.189 -1.289 0.906776 0
M  V30 6558 C 663.435 -1.95558 0.53712 0
M  V30 6559 C 663.768 -1.71262 -0.915582 0
M  V30 6560 O 663.043 -1.02961 -1.65013 0
M  V30 6561 C 663.326 -3.50198 0.838645 0
M  V30 6562 C 663.179 -3.83923 2.34357 0
M  V30 6563 C 664.498 -4.38861 0.329988 0
M  V30 6564 H 661.617 -0.710289 0.196617 0
M  V30 6565 H 664.259 -1.52392 1.13475 0
M  V30 6566 H 662.409 -3.87096 0.330024 0
M  V30 6567 H 664.081 -3.56933 2.92227 0
M  V30 6568 H 662.324 -3.31215 2.80141 0
M  V30 6569 H 662.995 -4.91883 2.5051 0
M  V30 6570 H 665.471 -4.08996 0.765609 0
M  V30 6571 H 664.347 -5.45931 0.570105 0
M  V30 6572 H 664.608 -4.35352 -0.769511 0
M  V30 6573 N 663.667 -0.670007 -1.42649 0
M  V30 6574 C 665.078 -0.268118 -1.84765 0
M  V30 6575 C 665.429 1.18877 -1.56086 0
M  V30 6576 O 664.554 1.90947 -1.01825 0
M  V30 6577 C 665.149 -0.47984 -3.35385 0
M  V30 6578 C 663.708 -0.132116 -3.76168 0
M  V30 6579 C 662.855 -0.774611 -2.66261 0
M  V30 6580 H 665.806 -0.872509 -1.32563 0
M  V30 6581 H 665.827 0.269522 -3.79544 0
M  V30 6582 H 665.339 -1.54026 -3.56227 0
M  V30 6583 H 663.44 0.92505 -3.60934 0
M  V30 6584 H 663.553 -0.569294 -4.75706 0
M  V30 6585 H 661.917 -0.206353 -2.53863 0
M  V30 6586 H 662.7 -1.83839 -2.89928 0
M  V30 6587 N 665.145 1.52092 -0.413018 0
M  V30 6588 C 666.375 2.05974 0.160648 0
M  V30 6589 C 666.783 1.28267 1.39084 0
M  V30 6590 O 666.126 0.328805 1.80733 0
M  V30 6591 C 666.188 3.54918 0.572169 0
M  V30 6592 C 665.852 4.53705 -0.547826 0
M  V30 6593 C 666.849 5.00342 -1.41259 0
M  V30 6594 C 664.534 4.97089 -0.721627 0
M  V30 6595 C 666.528 5.89011 -2.43607 0
M  V30 6596 C 664.215 5.85554 -1.74841 0
M  V30 6597 C 665.213 6.3141 -2.60403 0
M  V30 6598 O 664.901 7.18123 -3.61323 0
M  V30 6599 H 664.633 0.675636 0.0221936 0
M  V30 6600 H 667.187 1.96931 -0.58373 0
M  V30 6601 H 665.417 3.61661 1.36889 0
M  V30 6602 H 667.106 3.91428 1.0742 0
M  V30 6603 H 667.872 4.67537 -1.28974 0
M  V30 6604 H 663.751 4.60954 -0.0652911 0
M  V30 6605 H 667.295 6.24725 -3.10425 0
M  V30 6606 H 663.192 6.17773 -1.87156 0
M  V30 6607 H 663.96 7.36244 -3.57613 0
M  V30 6608 N 666.623 0.143563 1.56945 0
M  V30 6609 C 668.039 -0.212877 1.58174 0
M  V30 6610 C 668.239 -1.64926 1.15766 0
M  V30 6611 O 667.295 -2.37535 0.856361 0
M  V30 6612 C 668.608 0.0427573 3.0067 0
M  V30 6613 C 670.156 -0.0212221 3.12993 0
M  V30 6614 C 670.631 0.207036 4.57532 0
M  V30 6615 N 672.122 0.153845 4.62944 0
M  V30 6616 C 672.857 0.305018 5.72588 0
M  V30 6617 N 672.353 0.513722 6.90893 0
M  V30 6618 N 674.146 0.242862 5.61575 0
M  V30 6619 H 666.297 1.08148 1.82805 0
M  V30 6620 H 668.56 0.427831 0.84597 0
M  V30 6621 H 668.266 1.03672 3.36073 0
M  V30 6622 H 668.14 -0.678195 3.71053 0
M  V30 6623 H 670.527 -1.00574 2.77433 0
M  V30 6624 H 670.608 0.732004 2.45103 0
M  V30 6625 H 670.252 1.18863 4.93795 0
M  V30 6626 H 670.182 -0.566473 5.23544 0
M  V30 6627 H 672.673 -0.00294866 3.779 0
M  V30 6628 H 672.986 0.619273 7.70315 0
M  V30 6629 H 671.331 0.550001 6.9282 0
M  V30 6630 H 674.522 0.0806015 4.68031 0
M  V30 6631 H 674.695 0.364112 6.46976 0
M  V30 6632 N 668.101 -1.57061 -0.130224 0
M  V30 6633 C 669.348 -1.84257 -0.839972 0
M  V30 6634 C 669.676 -0.726986 -1.80403 0
M  V30 6635 O 668.931 0.282632 -1.93648 0
M  V30 6636 C 669.23 -3.17878 -1.63365 0
M  V30 6637 C 668.896 -4.43475 -0.814891 0
M  V30 6638 C 667.558 -4.77581 -0.589066 0
M  V30 6639 C 669.91 -5.20631 -0.243437 0
M  V30 6640 C 667.238 -5.86292 0.218648 0
M  V30 6641 C 669.59 -6.30192 0.551408 0
M  V30 6642 C 668.254 -6.62837 0.787653 0
M  V30 6643 H 667.524 -0.674245 -0.307367 0
M  V30 6644 H 670.171 -1.91224 -0.102832 0
M  V30 6645 H 668.476 -3.06437 -2.44138 0
M  V30 6646 H 670.173 -3.3614 -2.18658 0
M  V30 6647 H 666.763 -4.16747 -1.00098 0
M  V30 6648 H 670.947 -4.94644 -0.405145 0
M  V30 6649 H 666.203 -6.10017 0.411016 0
M  V30 6650 H 670.377 -6.89165 1.00126 0
M  V30 6651 H 668.004 -7.46908 1.41537 0
M  V30 6652 N 669.579 0.400081 -1.52437 0
M  V30 6653 C 670.804 1.17221 -1.71096 0
M  V30 6654 C 671.229 1.83269 -0.423565 0
M  V30 6655 O 670.587 1.70378 0.619751 0
M  V30 6656 C 670.635 2.20425 -2.85386 0
M  V30 6657 O 669.739 3.26769 -2.51586 0
M  V30 6658 H 669.08 0.341766 -0.569291 0
M  V30 6659 H 671.61 0.467772 -1.99181 0
M  V30 6660 H 671.62 2.64605 -3.10561 0
M  V30 6661 H 670.295 1.71737 -3.78786 0
M  V30 6662 H 668.872 2.87804 -2.37114 0
M  V30 6663 N 671.057 1.43213 0.657864 0
M  V30 6664 C 672.305 1.44298 1.41501 0
M  V30 6665 C 672.626 0.0666478 1.94886 0
M  V30 6666 O 671.896 -0.897345 1.74139 0
M  V30 6667 H 670.476 0.531257 0.525143 0
M  V30 6668 H 673.138 1.78777 0.776195 0
M  V30 6669 H 672.234 2.1528 2.25966 0
M  V30 6670 N 672.536 -0.895792 1.29666 0
M  V30 6671 C 673.761 -1.68528 1.20885 0
M  V30 6672 C 674.186 -1.8673 -0.226595 0
M  V30 6673 O 673.544 -1.39044 -1.16347 0
M  V30 6674 C 673.592 -3.04512 1.93144 0
M  V30 6675 O 672.696 -3.92963 1.25115 0
M  V30 6676 H 672.037 -0.515371 0.418675 0
M  V30 6677 H 674.567 -1.11878 1.71302 0
M  V30 6678 H 674.577 -3.54628 2.0175 0
M  V30 6679 H 673.252 -2.90582 2.97548 0
M  V30 6680 H 671.829 -3.51399 1.24794 0
M  V30 6681 N 674.014 -1.12206 -1.10668 0
M  V30 6682 C 675.262 -0.874144 -1.82217 0
M  V30 6683 C 675.583 0.601736 -1.85484 0
M  V30 6684 O 674.853 1.43725 -1.33116 0
M  V30 6685 H 673.433 -0.320404 -0.674797 0
M  V30 6686 H 676.095 -1.41606 -1.33917 0
M  V30 6687 H 675.191 -1.25349 -2.85822 0
M  V30 6688 N 675.492 1.28418 -0.913599 0
M  V30 6689 C 676.717 1.99643 -0.561899 0
M  V30 6690 C 677.142 1.67819 0.849608 0
M  V30 6691 O 676.5 0.910503 1.56779 0
M  V30 6692 C 676.548 3.52116 -0.777622 0
M  V30 6693 O 675.652 4.12076 0.163457 0
M  V30 6694 H 674.993 0.627229 -0.217898 0
M  V30 6695 H 677.523 1.63575 -1.229 0
M  V30 6696 H 677.533 4.02163 -0.687666 0
M  V30 6697 H 676.208 3.74613 -1.8066 0
M  V30 6698 H 674.785 3.72892 0.0247827 0
M  V30 6699 N 676.97 0.677563 1.42291 0
M  V30 6700 C 678.218 0.200578 2.01102 0
M  V30 6701 C 678.539 -1.19803 1.53858 0
M  V30 6702 O 677.809 -1.80496 0.761439 0
M  V30 6703 H 676.389 0.0711634 0.743603 0
M  V30 6704 H 679.051 0.874691 1.7417 0
M  V30 6705 H 678.147 0.204 3.11433 0
M  V30 6706 N 678.448 -1.51871 0.421078 0
M  V30 6707 C 679.676 -2.06356 -0.14994 0
M  V30 6708 C 680.091 -1.29006 -1.37851 0
M  V30 6709 O 679.448 -0.345139 -1.79207 0
M  V30 6710 C 679.499 -3.58185 -0.488454 0
M  V30 6711 O 679.22 -4.32611 0.691341 0
M  V30 6712 C 680.721 -4.29129 -1.11191 0
M  V30 6713 H 677.941 -0.67083 -0.0151186 0
M  V30 6714 H 680.485 -1.95638 0.595476 0
M  V30 6715 H 678.64 -3.68871 -1.18376 0
M  V30 6716 H 679.054 -5.22927 0.405906 0
M  V30 6717 H 680.528 -5.36501 -1.29889 0
M  V30 6718 H 681.005 -3.86371 -2.0884 0
M  V30 6719 H 681.611 -4.22843 -0.456458 0
M  V30 6720 N 679.926 -0.151884 -1.56866 0
M  V30 6721 C 681.151 0.508044 -2.01081 0
M  V30 6722 C 681.576 1.57306 -1.03134 0
M  V30 6723 O 680.934 1.81298 -0.0078309 0
M  V30 6724 C 680.982 1.08106 -3.44014 0
M  V30 6725 O 680.086 2.19577 -3.49084 0
M  V30 6726 H 679.427 0.123757 -0.652365 0
M  V30 6727 H 681.957 -0.250055 -2.03066 0
M  V30 6728 H 681.967 1.40851 -3.82916 0
M  V30 6729 H 680.642 0.301168 -4.14808 0
M  V30 6730 H 679.219 1.88023 -3.22027 0
M  V30 6731 N 681.404 1.57128 0.121893 0
M  V30 6732 C 682.634 1.88609 0.843227 0
M  V30 6733 C 683.042 0.740917 1.74089 0
M  V30 6734 O 682.385 -0.297426 1.81276 0
M  V30 6735 C 682.447 3.15073 1.73117 0
M  V30 6736 C 682.111 4.45742 1.0081 0
M  V30 6737 C 683.108 5.18719 0.350255 0
M  V30 6738 C 680.793 4.92444 0.99014 0
M  V30 6739 C 682.787 6.36617 -0.315889 0
M  V30 6740 C 680.474 6.10261 0.320196 0
M  V30 6741 C 681.472 6.82194 -0.331666 0
M  V30 6742 O 681.16 7.97769 -0.990927 0
M  V30 6743 H 680.892 0.628919 0.247865 0
M  V30 6744 H 683.446 2.05096 0.111725 0
M  V30 6745 H 681.676 2.9466 2.50424 0
M  V30 6746 H 683.365 3.32597 2.32667 0
M  V30 6747 H 684.131 4.83693 0.35577 0
M  V30 6748 H 680.01 4.36361 1.48695 0
M  V30 6749 H 683.554 6.92701 -0.825272 0
M  V30 6750 H 679.451 6.44743 0.312433 0
M  V30 6751 H 680.219 8.13591 -0.895113 0
M  V30 6752 N 682.882 -0.391992 1.52647 0
M  V30 6753 C 684.107 -1.16312 1.71716 0
M  V30 6754 C 684.532 -1.83042 0.433279 0
M  V30 6755 O 683.89 -1.70705 -0.610707 0
M  V30 6756 C 683.938 -2.18908 2.86551 0
M  V30 6757 O 683.042 -3.2543 2.53316 0
M  V30 6758 H 682.383 -0.338743 0.571095 0
M  V30 6759 H 684.913 -0.457202 1.99426 0
M  V30 6760 H 684.923 -2.62954 3.1196 0
M  V30 6761 H 683.598 -1.69726 3.79692 0
M  V30 6762 H 682.175 -2.86543 2.38637 0
M  V30 6763 N 684.36 -1.4356 -0.65026 0
M  V30 6764 C 685.29 -1.51758 -1.77459 0
M  V30 6765 C 686.271 -0.372019 -1.65982 0
M  V30 6766 O 687.456 -0.589627 -1.85033 0
M  V30 6767 C 684.586 -1.44302 -3.15902 0
M  V30 6768 C 683.54 -2.57138 -3.42146 0
M  V30 6769 C 682.866 -2.34735 -4.8042 0
M  V30 6770 C 684.166 -3.99373 -3.36598 0
M  V30 6771 H 685.86 -2.45863 -1.70855 0
M  V30 6772 H 683.406 -1.18333 -0.820566 0
M  V30 6773 H 685.359 -1.48641 -3.94314 0
M  V30 6774 H 684.083 -0.467026 -3.23244 0
M  V30 6775 H 682.742 -2.52157 -2.66106 0
M  V30 6776 H 682.39 -1.35372 -4.84441 0
M  V30 6777 H 682.09 -3.10375 -4.9894 0
M  V30 6778 H 683.614 -2.40862 -5.61086 0
M  V30 6779 H 685.028 -4.05826 -4.04942 0
M  V30 6780 H 683.425 -4.75063 -3.66654 0
M  V30 6781 H 684.495 -4.243 -2.34729 0
M  V30 6782 N 685.838 0.888903 -1.30139 0
M  V30 6783 C 687.066 1.67358 -1.21651 0
M  V30 6784 C 687.481 1.87499 0.221246 0
M  V30 6785 O 686.838 1.41969 1.14677 0
M  V30 6786 C 686.889 3.05213 -1.93719 0
M  V30 6787 O 686.61 2.85984 -3.31881 0
M  V30 6788 C 688.111 3.9964 -1.9184 0
M  V30 6789 H 685.331 0.522365 -0.42116 0
M  V30 6790 H 687.875 1.11086 -1.71698 0
M  V30 6791 H 686.03 3.5823 -1.4748 0
M  V30 6792 H 686.444 3.73411 -3.68327 0
M  V30 6793 H 687.918 4.93749 -2.46811 0
M  V30 6794 H 688.395 4.29955 -0.896409 0
M  V30 6795 H 689.001 3.52558 -2.37872 0
M  V30 6796 N 687.317 1.12792 1.10072 0
M  V30 6797 C 688.566 0.880232 1.81479 0
M  V30 6798 C 688.879 -0.595575 1.86312 0
M  V30 6799 O 690.085 -0.959979 2.53962 0
M  V30 6800 C 688.541 1.52514 3.25987 0
M  V30 6801 C 688.149 3.036 3.29441 0
M  V30 6802 C 689.893 1.35788 4.02196 0
M  V30 6803 C 687.8 3.61007 4.68431 0
M  V30 6804 H 686.73 0.325654 0.680048 0
M  V30 6805 H 689.381 1.35485 1.23758 0
M  V30 6806 H 687.763 0.978188 3.83728 0
M  V30 6807 H 688.937 3.64819 2.81502 0
M  V30 6808 H 687.252 3.19765 2.66719 0
M  V30 6809 H 689.849 1.76096 5.0487 0
M  V30 6810 H 690.192 0.301972 4.15203 0
M  V30 6811 H 690.725 1.87426 3.50879 0
M  V30 6812 H 687.464 4.66375 4.60625 0
M  V30 6813 H 686.984 3.04564 5.16721 0
M  V30 6814 H 688.663 3.60289 5.37402 0
M  V30 6815 N 688.795 -1.27931 0.920396 0
M  V30 6816 C 690.02 -1.99343 0.572478 0
M  V30 6817 C 690.445 -1.68267 -0.840696 0
M  V30 6818 O 689.803 -0.918805 -1.56294 0
M  V30 6819 C 689.851 -3.51698 0.796284 0
M  V30 6820 O 688.955 -4.12157 -0.141602 0
M  V30 6821 H 688.296 -0.626065 0.221221 0
M  V30 6822 H 690.826 -1.62921 1.23765 0
M  V30 6823 H 690.836 -4.01793 0.708984 0
M  V30 6824 H 689.511 -3.73649 1.82644 0
M  V30 6825 H 688.088 -3.729 -0.005007 0
M  V30 6826 N 690.273 -0.685099 -1.4193 0
M  V30 6827 C 691.498 -0.218842 -2.06242 0
M  V30 6828 C 691.923 1.11923 -1.51178 0
M  V30 6829 O 691.281 1.69837 -0.634446 0
M  V30 6830 C 691.329 -0.175592 -3.60172 0
M  V30 6831 O 690.433 0.852776 -4.03487 0
M  V30 6832 H 689.774 -0.109531 -0.654904 0
M  V30 6833 H 692.304 -0.937013 -1.81882 0
M  V30 6834 H 692.314 -0.00291151 -4.08 0
M  V30 6835 H 690.989 -1.15222 -3.99621 0
M  V30 6836 H 689.566 0.650301 -3.67186 0
M  V30 6837 N 691.751 1.51645 -0.429126 0
M  V30 6838 C 692.684 2.24083 0.431492 0
M  V30 6839 C 693.662 1.25691 1.03153 0
M  V30 6840 O 694.846 1.54802 1.07557 0
M  V30 6841 C 691.973 2.9849 1.60067 0
M  V30 6842 C 691.019 4.11474 1.12211 0
M  V30 6843 S 691.852 5.35453 0.0708449 0
M  V30 6844 C 693.008 6.13395 1.24488 0
M  V30 6845 H 693.241 2.96733 -0.183525 0
M  V30 6846 H 690.774 1.52916 -0.213574 0
M  V30 6847 H 692.732 3.4196 2.27099 0
M  V30 6848 H 691.393 2.25445 2.18708 0
M  V30 6849 H 690.586 4.62784 1.99618 0
M  V30 6850 H 690.188 3.70223 0.530149 0
M  V30 6851 H 692.48 6.41984 2.16479 0
M  V30 6852 H 693.423 7.0388 0.771921 0
M  V30 6853 H 693.831 5.44761 1.47973 0
M  V30 6854 N 693.229 0.160201 1.56784 0
M  V30 6855 C 694.139 -0.787167 2.21 0
M  V30 6856 C 695.155 -1.26167 1.19825 0
M  V30 6857 O 696.331 -1.31611 1.52448 0
M  V30 6858 C 693.396 -2.00364 2.8294 0
M  V30 6859 C 692.457 -1.5771 3.99282 0
M  V30 6860 C 691.69 -2.73558 4.58259 0
M  V30 6861 O 691.913 -3.90129 4.16119 0
M  V30 6862 O 690.847 -2.48271 5.48311 0
M  V30 6863 H 694.673 -0.270462 3.02493 0
M  V30 6864 H 692.258 -0.0674666 1.49248 0
M  V30 6865 H 694.14 -2.71529 3.22257 0
M  V30 6866 H 692.815 -2.50961 2.04451 0
M  V30 6867 H 691.722 -0.835274 3.64656 0
M  V30 6868 H 693.055 -1.11815 4.79331 0
M  V30 6869 N 694.707 -1.5719 -0.113559 0
M  V30 6870 C 695.67 -1.99796 -1.12314 0
M  V30 6871 C 696.67 -0.888847 -1.34001 0
M  V30 6872 O 697.86 -1.15476 -1.30426 0
M  V30 6873 C 694.992 -2.34279 -2.47641 0
M  V30 6874 H 696.185 -2.90193 -0.756825 0
M  V30 6875 H 693.738 -1.52144 -0.358029 0
M  V30 6876 H 694.473 -1.46778 -2.89183 0
M  V30 6877 H 694.258 -3.15175 -2.33253 0
M  V30 6878 H 695.748 -2.67963 -3.2029 0
M  V30 6879 N 696.185 0.383891 -1.52853 0
M  V30 6880 C 697.095 1.49343 -1.80925 0
M  V30 6881 C 698.111 1.59458 -0.696348 0
M  V30 6882 O 699.287 1.75698 -0.984481 0
M  V30 6883 C 696.352 2.84819 -1.97684 0
M  V30 6884 C 695.413 2.84382 -3.21598 0
M  V30 6885 C 694.646 4.13397 -3.37548 0
M  V30 6886 O 694.869 5.08619 -2.58192 0
M  V30 6887 O 693.803 4.20325 -4.30826 0
M  V30 6888 H 697.629 1.2855 -2.75152 0
M  V30 6889 H 695.214 0.572229 -1.38007 0
M  V30 6890 H 697.096 3.65125 -2.10385 0
M  V30 6891 H 695.771 3.05627 -1.06647 0
M  V30 6892 H 694.678 2.0284 -3.14336 0
M  V30 6893 H 696.011 2.68526 -4.12498 0
M  V30 6894 N 697.663 1.43903 0.642637 0
M  V30 6895 C 698.94 1.36556 1.40043 0
M  V30 6896 C 699.32 0.0185588 2.11092 0
M  V30 6897 O 698.668 -0.998438 2.05532 0
M  V30 6898 C 698.878 2.55596 2.37638 0
M  V30 6899 C 700.226 2.99153 3.01318 0
M  V30 6900 O 701.25 2.55719 2.47965 0
M  V30 6901 O 700.109 3.74427 3.98078 0
M  V30 6902 H 697.203 0.540189 0.626198 0
M  V30 6903 H 699.749 1.55971 0.668657 0
M  V30 6904 H 698.521 3.45256 1.84158 0
M  V30 6905 H 698.144 2.38334 3.18249 0
M  V30 6906 N 699.141 -0.881989 1.30609 0
M  V30 6907 C 700.104 -1.96957 1.1722 0
M  V30 6908 C 701.104 -1.60472 0.102598 0
M  V30 6909 O 702.294 -1.70628 0.350943 0
M  V30 6910 C 699.426 -3.31463 0.796572 0
M  V30 6911 H 700.619 -2.10262 2.13846 0
M  V30 6912 H 698.172 -1.06877 1.14048 0
M  V30 6913 H 698.907 -3.23859 -0.169053 0
M  V30 6914 H 698.692 -3.59314 1.56959 0
M  V30 6915 H 700.182 -4.11233 0.72645 0
M  V30 6916 N 700.619 -1.13374 -1.09472 0
M  V30 6917 C 701.582 -0.813639 -2.14272 0
M  V30 6918 C 702.582 0.176677 -1.59826 0
M  V30 6919 O 703.772 -0.0503441 -1.74127 0
M  V30 6920 C 700.904 -0.210897 -3.40247 0
M  V30 6921 H 702.097 -1.74229 -2.44099 0
M  V30 6922 H 699.65 -0.938304 -1.25002 0
M  V30 6923 H 700.385 0.726998 -3.16046 0
M  V30 6924 H 700.17 -0.924048 -3.81056 0
M  V30 6925 H 701.66 -0.00377603 -4.176 0
M  V30 6926 N 702.098 1.27442 -0.927168 0
M  V30 6927 C 703.326 1.98498 -0.583622 0
M  V30 6928 C 703.741 1.69171 0.838241 0
M  V30 6929 O 703.098 0.951969 1.55704 0
M  V30 6930 C 703.149 3.52552 -0.799341 0
M  V30 6931 O 702.87 3.80851 -2.16527 0
M  V30 6932 C 704.371 4.4086 -0.464436 0
M  V30 6933 H 701.591 0.633487 -0.221213 0
M  V30 6934 H 704.135 1.62308 -1.24404 0
M  V30 6935 H 702.29 3.86955 -0.185728 0
M  V30 6936 H 702.704 4.75441 -2.21487 0
M  V30 6937 H 704.178 5.47967 -0.666075 0
M  V30 6938 H 704.655 4.35082 0.599995 0
M  V30 6939 H 705.261 4.11977 -1.05617 0
M  V30 6940 N 703.576 0.692616 1.41565 0
M  V30 6941 C 704.806 0.230943 2.05305 0
M  V30 6942 C 705.214 -1.12379 1.52209 0
M  V30 6943 O 704.557 -1.71281 0.663968 0
M  V30 6944 C 704.619 0.107894 3.59338 0
M  V30 6945 C 704.283 1.39419 4.35214 0
M  V30 6946 C 705.28 2.33143 4.64694 0
M  V30 6947 C 702.965 1.64674 4.74539 0
M  V30 6948 C 704.959 3.50385 5.32456 0
M  V30 6949 C 702.646 2.82202 5.42038 0
M  V30 6950 C 703.644 3.74881 5.70923 0
M  V30 6951 O 703.332 4.90351 6.37033 0
M  V30 6952 H 703.064 0.105708 0.667684 0
M  V30 6953 H 705.618 0.94488 1.82376 0
M  V30 6954 H 703.848 -0.661785 3.80995 0
M  V30 6955 H 705.537 -0.316213 4.04666 0
M  V30 6956 H 706.303 2.14887 4.34797 0
M  V30 6957 H 702.182 0.934007 4.51439 0
M  V30 6958 H 705.726 4.22743 5.54918 0
M  V30 6959 H 701.623 3.00376 5.71353 0
M  V30 6960 H 702.391 4.90128 6.55528 0
M  V30 6961 N 705.054 -1.51416 0.437162 0
M  V30 6962 C 706.284 -2.06204 -0.127859 0
M  V30 6963 C 706.692 -1.30463 -1.37026 0
M  V30 6964 O 706.035 -0.357516 -1.80187 0
M  V30 6965 C 706.097 -3.55783 -0.515632 0
M  V30 6966 C 705.761 -4.52776 0.619937 0
M  V30 6967 C 706.758 -4.98031 1.49201 0
M  V30 6968 C 704.443 -4.95878 0.800618 0
M  V30 6969 C 706.437 -5.85061 2.52947 0
M  V30 6970 C 704.124 -5.82699 1.84135 0
M  V30 6971 C 705.122 -6.27188 2.70416 0
M  V30 6972 O 704.81 -7.12284 3.72702 0
M  V30 6973 H 704.542 -0.675903 -0.011442 0
M  V30 6974 H 707.096 -1.95977 0.614986 0
M  V30 6975 H 705.326 -3.63793 -1.31118 0
M  V30 6976 H 707.015 -3.93087 -1.01179 0
M  V30 6977 H 707.781 -4.65426 1.36395 0
M  V30 6978 H 703.66 -4.60792 0.138617 0
M  V30 6979 H 707.204 -6.19708 3.20325 0
M  V30 6980 H 703.101 -6.14717 1.9696 0
M  V30 6981 H 703.869 -7.30462 3.69281 0
M  V30 6982 N 706.532 -0.168513 -1.56696 0
M  V30 6983 C 707.772 0.479648 -1.98693 0
M  V30 6984 C 708.136 1.60609 -1.05209 0
M  V30 6985 O 709.337 2.3166 -1.36334 0
M  V30 6986 C 707.608 0.952852 -3.44464 0
M  V30 6987 S 709.167 1.60259 -4.08488 0
M  V30 6988 H 705.985 0.154377 -0.694038 0
M  V30 6989 H 708.587 -0.265312 -1.93691 0
M  V30 6990 H 707.291 0.12257 -4.10217 0
M  V30 6991 H 706.822 1.73192 -3.53225 0
M  V30 6992 H 708.837 2.89065 -4.03307 0
M  V30 6993 N 708.01 1.57248 0.105221 0
M  V30 6994 C 708.942 1.98008 1.15436 0
M  V30 6995 C 709.955 0.881236 1.36887 0
M  V30 6996 O 711.144 1.15943 1.35718 0
M  V30 6997 C 708.244 2.27509 2.51183 0
M  V30 6998 C 707.417 3.58811 2.50147 0
M  V30 6999 C 706.476 3.76365 3.67745 0
M  V30 7000 O 705.502 4.48329 3.50699 0
M  V30 7001 N 706.704 3.16174 4.86841 0
M  V30 7002 H 709.469 2.88616 0.807519 0
M  V30 7003 H 707.03 1.59202 0.29433 0
M  V30 7004 H 709.022 2.36455 3.28438 0
M  V30 7005 H 707.592 1.42959 2.77995 0
M  V30 7006 H 706.812 3.60927 1.5851 0
M  V30 7007 H 708.1 4.45088 2.46524 0
M  V30 7008 H 707.498 2.57701 5.03594 0
M  V30 7009 H 706.055 3.30621 5.61723 0
M  V30 7010 N 709.488 -0.375779 1.53054 0
M  V30 7011 C 710.42 -1.47963 1.75042 0
M  V30 7012 C 711.433 -1.50073 0.631031 0
M  V30 7013 O 712.622 -1.53736 0.907052 0
M  V30 7014 C 709.722 -2.86767 1.80604 0
M  V30 7015 C 708.895 -3.08471 3.10104 0
M  V30 7016 C 707.954 -4.27332 3.07041 0
M  V30 7017 O 706.98 -4.22998 3.80869 0
M  V30 7018 N 708.182 -5.34214 2.27147 0
M  V30 7019 H 710.947 -1.29484 2.70285 0
M  V30 7020 H 708.508 -0.565416 1.51706 0
M  V30 7021 H 710.5 -3.64404 1.76045 0
M  V30 7022 H 709.07 -2.98542 0.926897 0
M  V30 7023 H 708.29 -2.18583 3.28048 0
M  V30 7024 H 709.578 -3.19834 3.95706 0
M  V30 7025 H 708.976 -5.40594 1.66656 0
M  V30 7026 H 707.533 -6.10467 2.28415 0
M  V30 7027 N 710.966 -1.44241 -0.634997 0
M  V30 7028 C 712.212 -1.48033 -1.39492 0
M  V30 7029 C 712.567 -0.109791 -1.92086 0
M  V30 7030 O 711.86 0.874394 -1.70484 0
M  V30 7031 C 712.054 -2.47279 -2.58046 0
M  V30 7032 C 711.883 -3.93848 -2.17057 0
M  V30 7033 C 710.653 -4.62061 -2.04518 0
M  V30 7034 C 712.851 -4.83172 -1.76208 0
M  V30 7035 N 710.833 -5.93471 -1.57051 0
M  V30 7036 C 712.204 -6.03996 -1.39958 0
M  V30 7037 C 714.259 -4.70271 -1.63554 0
M  V30 7038 C 712.962 -7.13351 -0.923196 0
M  V30 7039 C 714.988 -5.79646 -1.1732 0
M  V30 7040 C 714.35 -6.99609 -0.820181 0
M  V30 7041 H 710.449 -0.596743 -0.505392 0
M  V30 7042 H 713.033 -1.80542 -0.72887 0
M  V30 7043 H 711.204 -2.16766 -3.22284 0
M  V30 7044 H 712.936 -2.41391 -3.24827 0
M  V30 7045 H 709.691 -4.1682 -2.24851 0
M  V30 7046 H 710.115 -6.63275 -1.35628 0
M  V30 7047 H 714.757 -3.77964 -1.8948 0
M  V30 7048 H 712.475 -8.0547 -0.651441 0
M  V30 7049 H 716.061 -5.71689 -1.07993 0
M  V30 7050 H 714.941 -7.82803 -0.467901 0
M  V30 7051 N 712.444 0.87505 -1.31075 0
M  V30 7052 C 713.669 1.66583 -1.23551 0
M  V30 7053 C 714.094 1.87067 0.19686 0
M  V30 7054 O 713.452 1.40877 1.1412 0
M  V30 7055 C 713.5 3.01401 -1.97965 0
M  V30 7056 O 712.604 3.90923 -1.31351 0
M  V30 7057 H 711.945 0.508645 -0.426821 0
M  V30 7058 H 714.475 1.09139 -1.7306 0
M  V30 7059 H 714.485 3.51374 -2.07366 0
M  V30 7060 H 713.16 2.85812 -3.02133 0
M  V30 7061 H 711.737 3.49369 -1.30368 0
M  V30 7062 N 713.922 1.13953 1.08869 0
M  V30 7063 C 715.147 0.928559 1.85452 0
M  V30 7064 C 715.572 -0.517642 1.80837 0
M  V30 7065 O 714.93 -1.36779 1.19001 0
M  V30 7066 C 714.978 1.42814 3.31114 0
M  V30 7067 O 714.082 0.617129 4.07756 0
M  V30 7068 H 713.423 0.33235 0.574839 0
M  V30 7069 H 715.953 1.5156 1.37443 0
M  V30 7070 H 715.963 1.43425 3.8196 0
M  V30 7071 H 714.638 2.48109 3.33788 0
M  V30 7072 H 713.215 0.679365 3.66659 0
M  V30 7073 N 715.4 -1.26948 0.933913 0
M  V30 7074 C 716.348 -2.2862 0.428463 0
M  V30 7075 C 717.342 -1.62144 -0.490464 0
M  V30 7076 O 718.548 -1.76167 -0.36948 0
M  V30 7077 H 714.923 -0.742363 0.120003 0
M  V30 7078 H 716.894 -2.68659 1.29865 0
M  V30 7079 C 715.643 -3.46423 -0.29774 0
M  V30 7080 H 714.966 -3.97792 0.400183 0
M  V30 7081 H 716.406 -4.19505 -0.615736 0
M  V30 7082 C 714.865 -3.01017 -1.51295 0
M  V30 7083 O 715.395 -3.05226 -2.61151 0
M  V30 7084 N 713.601 -2.56442 -1.36696 0
M  V30 7085 H 713.148 -2.53217 -0.473178 0
M  V30 7086 H 713.106 -2.26424 -2.18127 0
M  V30 7087 N 716.879 -0.700114 -1.41195 0
M  V30 7088 C 718.29 -0.307249 -1.84154 0
M  V30 7089 C 718.641 1.15539 -1.58572 0
M  V30 7090 O 717.766 1.88744 -1.05852 0
M  V30 7091 C 718.361 -0.550872 -3.34292 0
M  V30 7092 C 716.92 -0.211877 -3.75803 0
M  V30 7093 C 716.067 -0.830915 -2.64558 0
M  V30 7094 H 719.018 -0.900431 -1.30683 0
M  V30 7095 H 719.039 0.188954 -3.80031 0
M  V30 7096 H 718.551 -1.61548 -3.5288 0
M  V30 7097 H 716.652 0.848283 -3.62815 0
M  V30 7098 H 716.765 -0.67007 -4.74391 0
M  V30 7099 H 715.129 -0.260155 -2.53368 0
M  V30 7100 H 715.912 -1.89948 -2.85963 0
M  V30 7101 N 718.357 1.51182 -0.445186 0
M  V30 7102 C 719.287 2.30821 0.352686 0
M  V30 7103 C 720.268 1.36576 1.01395 0
M  V30 7104 O 721.453 1.65497 1.01609 0
M  V30 7105 C 718.583 3.15593 1.44976 0
M  V30 7106 C 717.537 4.1818 0.911553 0
M  V30 7107 C 716.863 4.91523 2.10497 0
M  V30 7108 C 718.163 5.22266 -0.059418 0
M  V30 7109 H 719.857 2.97771 -0.311936 0
M  V30 7110 H 717.403 1.43201 -0.151461 0
M  V30 7111 H 719.356 3.70091 2.01521 0
M  V30 7112 H 718.08 2.4648 2.14278 0
M  V30 7113 H 716.739 3.64746 0.368264 0
M  V30 7114 H 716.387 4.18906 2.78437 0
M  V30 7115 H 716.087 5.60898 1.7512 0
M  V30 7116 H 717.611 5.48847 2.6758 0
M  V30 7117 H 719.025 5.71789 0.415985 0
M  V30 7118 H 717.422 5.99213 -0.326152 0
M  V30 7119 H 718.492 4.7461 -0.993631 0
M  V30 7120 N 719.835 0.176821 1.56605 0
M  V30 7121 C 721.063 -0.472828 2.01425 0
M  V30 7122 C 721.478 -1.56436 1.05703 0
M  V30 7123 O 720.835 -1.82405 0.058808 0
M  V30 7124 C 720.886 -1.04607 3.46034 0
M  V30 7125 O 720.607 0.00189608 4.381 0
M  V30 7126 C 722.108 -1.7734 4.06282 0
M  V30 7127 H 719.328 -0.120503 0.660091 0
M  V30 7128 H 721.872 0.280166 2.02572 0
M  V30 7129 H 720.027 -1.74953 3.45645 0
M  V30 7130 H 720.441 -0.422118 5.22799 0
M  V30 7131 H 721.915 -2.12703 5.09374 0
M  V30 7132 H 722.392 -2.67043 3.4869 0
M  V30 7133 H 722.998 -1.11623 4.10391 0
M  V30 7134 N 721.313 -1.57302 -0.09688 0
M  V30 7135 C 722.56 -1.85997 -0.800699 0
M  V30 7136 C 722.888 -0.765089 -1.7882 0
M  V30 7137 O 722.143 0.241492 -1.94204 0
M  V30 7138 C 722.442 -3.21272 -1.56586 0
M  V30 7139 C 722.108 -4.45104 -0.72064 0
M  V30 7140 C 720.77 -4.78723 -0.487632 0
M  V30 7141 C 723.122 -5.2103 -0.132948 0
M  V30 7142 C 720.45 -5.85697 0.34296 0
M  V30 7143 C 722.802 -6.28881 0.684957 0
M  V30 7144 C 721.466 -6.61017 0.928073 0
M  V30 7145 H 720.736 -0.680613 -0.292997 0
M  V30 7146 H 723.383 -1.91399 -0.0622474 0
M  V30 7147 H 721.688 -3.11547 -2.37583 0
M  V30 7148 H 723.385 -3.40702 -2.11478 0
M  V30 7149 H 719.975 -4.18777 -0.912359 0
M  V30 7150 H 724.159 -4.95392 -0.300132 0
M  V30 7151 H 719.415 -6.09008 0.540317 0
M  V30 7152 H 723.589 -6.86886 1.14721 0
M  V30 7153 H 721.216 -7.43738 1.57348 0
M  V30 7154 N 722.791 0.367657 -1.53252 0
M  V30 7155 C 724.039 1.10832 -1.68999 0
M  V30 7156 C 724.36 1.89894 -0.443306 0
M  V30 7157 O 723.63 1.88235 0.54262 0
M  V30 7158 H 722.21 0.412153 -0.623008 0
M  V30 7159 H 724.872 0.414775 -1.90435 0
M  V30 7160 H 723.968 1.7993 -2.55013 0
M  V30 7161 N 724.269 1.44576 0.627338 0
M  V30 7162 C 725.232 1.51372 1.72102 0
M  V30 7163 C 726.232 0.395329 1.55865 0
M  V30 7164 O 727.422 0.658094 1.61291 0
M  V30 7165 C 724.554 1.39129 3.11217 0
M  V30 7166 H 725.747 2.48798 1.6745 0
M  V30 7167 H 723.3 1.31724 0.841336 0
M  V30 7168 H 724.035 0.428114 3.21462 0
M  V30 7169 H 723.82 2.20229 3.24409 0
M  V30 7170 H 725.31 1.46874 3.90919 0
M  V30 7171 N 725.747 -0.868086 1.31537 0
M  V30 7172 C 726.995 -1.61807 1.21091 0
M  V30 7173 C 727.316 -1.93631 -0.230623 0
M  V30 7174 O 726.586 -1.5846 -1.15183 0
M  V30 7175 H 725.166 -0.599854 0.445178 0
M  V30 7176 H 727.828 -1.03915 1.64887 0
M  V30 7177 H 726.924 -2.56088 1.78396 0
M  V30 7178 N 727.225 -1.14528 -1.08264 0
M  V30 7179 C 728.453 -0.937964 -1.84418 0
M  V30 7180 C 728.868 0.51357 -1.81681 0
M  V30 7181 O 728.225 1.35591 -1.22153 0
M  V30 7182 C 728.276 -1.43272 -3.31897 0
M  V30 7183 O 727.997 -2.82738 -3.34651 0
M  V30 7184 C 729.498 -1.26555 -4.24851 0
M  V30 7185 H 726.718 -0.333704 -0.582136 0
M  V30 7186 H 729.262 -1.52076 -1.36723 0
M  V30 7187 H 727.417 -0.892653 -3.76975 0
M  V30 7188 H 727.831 -3.04971 -4.26724 0
M  V30 7189 H 729.305 -1.66031 -5.26439 0
M  V30 7190 H 729.782 -0.208589 -4.38704 0
M  V30 7191 H 730.388 -1.79423 -3.856 0
M  V30 7192 N 728.703 1.26451 -0.940633 0
M  V30 7193 C 729.65 2.264 -0.448497 0
M  V30 7194 C 730.62 1.5866 0.491546 0
M  V30 7195 O 731.805 1.86389 0.407874 0
M  V30 7196 C 728.945 3.43956 0.280715 0
M  V30 7197 C 728.058 4.26374 -0.694937 0
M  V30 7198 C 727.193 5.31171 0.0554186 0
M  V30 7199 C 726.232 6.05266 -0.912091 0
M  V30 7200 N 725.369 7.01833 -0.193524 0
M  V30 7201 H 730.209 2.67869 -1.30576 0
M  V30 7202 H 727.746 1.31707 -0.655112 0
M  V30 7203 H 729.704 4.10941 0.71994 0
M  V30 7204 H 728.334 3.03403 1.10212 0
M  V30 7205 H 727.386 3.59183 -1.25267 0
M  V30 7206 H 728.698 4.77748 -1.43382 0
M  V30 7207 H 727.852 6.04166 0.553951 0
M  V30 7208 H 726.591 4.80634 0.827183 0
M  V30 7209 H 725.596 5.31099 -1.42175 0
M  V30 7210 H 726.821 6.57893 -1.68385 0
M  V30 7211 H 724.767 6.53607 0.559758 0
M  V30 7212 H 724.684 7.50957 -0.871744 0
M  V30 7213 H 725.952 7.78983 0.283932 0
M  V30 7214 N 730.181 0.707592 1.40822 0
M  V30 7215 C 731.111 0.0644925 2.33411 0
M  V30 7216 C 732.092 -0.754205 1.52466 0
M  V30 7217 O 733.277 -0.704749 1.80961 0
M  V30 7218 C 730.407 -0.863865 3.36385 0
M  V30 7219 C 729.361 -0.15138 4.27732 0
M  V30 7220 C 728.687 -1.19491 5.21177 0
M  V30 7221 C 729.987 0.989607 5.12839 0
M  V30 7222 H 731.681 0.837829 2.87438 0
M  V30 7223 H 729.227 0.404346 1.38207 0
M  V30 7224 H 731.18 -1.32309 4.0009 0
M  V30 7225 H 729.904 -1.66901 2.80734 0
M  V30 7226 H 728.563 0.287937 3.65467 0
M  V30 7227 H 728.211 -1.9929 4.61836 0
M  V30 7228 H 727.911 -0.723123 5.83134 0
M  V30 7229 H 729.435 -1.6544 5.8776 0
M  V30 7230 H 730.849 0.610114 5.70044 0
M  V30 7231 H 729.246 1.38926 5.83798 0
M  V30 7232 H 730.316 1.82389 4.49291 0
M  V30 7233 N 731.66 -1.50943 0.453197 0
M  V30 7234 C 732.57 -2.31884 -0.355963 0
M  V30 7235 C 733.586 -1.41481 -1.01287 0
M  V30 7236 O 734.762 -1.74546 -1.00477 0
M  V30 7237 C 731.827 -3.15668 -1.43369 0
M  V30 7238 C 730.888 -4.2187 -0.795253 0
M  V30 7239 C 730.121 -5.0165 -1.82162 0
M  V30 7240 O 730.344 -4.82266 -3.04592 0
M  V30 7241 O 729.278 -5.85311 -1.40336 0
M  V30 7242 H 733.104 -3.02162 0.305248 0
M  V30 7243 H 730.689 -1.47839 0.215398 0
M  V30 7244 H 732.571 -3.67709 -2.05836 0
M  V30 7245 H 731.246 -2.48137 -2.07869 0
M  V30 7246 H 730.153 -3.73867 -0.132106 0
M  V30 7247 H 731.486 -4.9182 -0.193484 0
M  V30 7248 N 733.138 -0.185124 -1.56509 0
M  V30 7249 C 734.068 0.735098 -2.21627 0
M  V30 7250 C 735.049 1.2288 -1.1762 0
M  V30 7251 O 736.234 1.27945 -1.46095 0
M  V30 7252 C 733.364 1.95889 -2.86783 0
M  V30 7253 C 732.318 1.6005 -3.96948 0
M  V30 7254 C 731.644 2.90009 -4.4922 0
M  V30 7255 C 732.944 0.818008 -5.15855 0
M  V30 7256 H 734.638 0.192274 -2.98782 0
M  V30 7257 H 732.184 0.0910393 -1.43712 0
M  V30 7258 H 734.137 2.60779 -3.31017 0
M  V30 7259 H 732.861 2.52608 -2.07018 0
M  V30 7260 H 731.52 0.975237 -3.5339 0
M  V30 7261 H 731.168 3.44797 -3.6623 0
M  V30 7262 H 730.868 2.66778 -5.23549 0
M  V30 7263 H 732.392 3.55904 -4.9615 0
M  V30 7264 H 733.806 1.36979 -5.56695 0
M  V30 7265 H 732.203 0.684207 -5.96187 0
M  V30 7266 H 733.273 -0.182939 -4.84555 0
M  V30 7267 N 734.616 1.57351 0.0885366 0
M  V30 7268 C 735.563 2.02523 1.10693 0
M  V30 7269 C 736.533 0.902736 1.39427 0
M  V30 7270 O 737.718 1.16921 1.50779 0
M  V30 7271 C 734.858 2.46013 2.42016 0
M  V30 7272 C 733.971 3.7181 2.19957 0
M  V30 7273 C 733.106 4.04152 3.44724 0
M  V30 7274 C 732.145 5.2304 3.17956 0
M  V30 7275 N 731.282 5.51102 4.35007 0
M  V30 7276 H 736.122 2.89302 0.714742 0
M  V30 7277 H 733.659 1.43084 0.341378 0
M  V30 7278 H 735.617 2.69274 3.18665 0
M  V30 7279 H 734.247 1.62235 2.79069 0
M  V30 7280 H 733.299 3.55987 1.34079 0
M  V30 7281 H 734.611 4.58604 1.96173 0
M  V30 7282 H 733.765 4.28225 4.29777 0
M  V30 7283 H 732.504 3.15893 3.71568 0
M  V30 7284 H 731.509 4.98781 2.31296 0
M  V30 7285 H 732.734 6.12902 2.92451 0
M  V30 7286 H 730.68 4.65802 4.61914 0
M  V30 7287 H 730.597 6.3228 4.14437 0
M  V30 7288 H 731.865 5.79714 5.21106 0
M  V30 7289 N 736.094 -0.359525 1.53444 0
M  V30 7290 C 737.044 -1.441 1.7669 0
M  V30 7291 C 738.028 -1.48408 0.621599 0
M  V30 7292 O 739.22 -1.53547 0.880468 0
M  V30 7293 C 736.349 -2.81455 1.96566 0
M  V30 7294 C 735.435 -2.81601 3.17115 0
M  V30 7295 N 735.826 -2.51388 4.38905 0
M  V30 7296 C 734.124 -3.12758 3.1796 0
M  V30 7297 C 734.825 -2.59365 5.20677 0
M  V30 7298 N 733.801 -2.94328 4.57025 0
M  V30 7299 H 737.603 -1.19613 2.68458 0
M  V30 7300 H 735.117 -0.567761 1.52152 0
M  V30 7301 H 737.114 -3.59357 2.11348 0
M  V30 7302 H 735.774 -3.06901 1.06029 0
M  V30 7303 H 736.785 -2.24873 4.66533 0
M  V30 7304 H 733.462 -3.43479 2.37336 0
M  V30 7305 H 734.852 -2.39301 6.27841 0
M  V30 7306 N 737.572 -1.44907 -0.619662 0
M  V30 7307 C 738.522 -1.49085 -1.72504 0
M  V30 7308 C 739.506 -0.355372 -1.56926 0
M  V30 7309 O 740.698 -0.601441 -1.66468 0
M  V30 7310 C 737.827 -1.44889 -3.11227 0
M  V30 7311 C 736.913 -2.63593 -3.32234 0
M  V30 7312 N 737.304 -3.88775 -3.23555 0
M  V30 7313 C 735.602 -2.59033 -3.63067 0
M  V30 7314 C 736.303 -4.67932 -3.45564 0
M  V30 7315 N 735.279 -3.9919 -3.68983 0
M  V30 7316 H 739.081 -2.43706 -1.6427 0
M  V30 7317 H 736.595 -1.4003 -0.82252 0
M  V30 7318 H 738.592 -1.45966 -3.90512 0
M  V30 7319 H 737.252 -0.513143 -3.2062 0
M  V30 7320 H 738.263 -4.20574 -3.02221 0
M  V30 7321 H 734.94 -1.7431 -3.79371 0
M  V30 7322 H 736.33 -5.76952 -3.44349 0
M  V30 7323 N 739.05 0.861098 -1.31996 0
M  V30 7324 C 740 1.95703 -1.1698 0
M  V30 7325 C 740.984 1.60709 -0.0784201 0
M  V30 7326 O 742.176 1.74365 -0.304262 0
M  V30 7327 C 739.305 3.31606 -0.888388 0
M  V30 7328 C 738.391 3.7284 -2.02117 0
M  V30 7329 N 738.782 3.85957 -3.26911 0
M  V30 7330 C 737.08 4.02419 -1.92289 0
M  V30 7331 C 737.781 4.21333 -4.01065 0
M  V30 7332 N 736.757 4.32502 -3.29307 0
M  V30 7333 H 740.559 2.03968 -2.11599 0
M  V30 7334 H 738.073 1.05245 -1.23682 0
M  V30 7335 H 740.07 4.09881 -0.761782 0
M  V30 7336 H 738.73 3.24662 0.0494898 0
M  V30 7337 H 739.741 3.70449 -3.61923 0
M  V30 7338 H 736.418 4.03814 -1.06022 0
M  V30 7339 H 737.808 4.39005 -5.08649 0
M  V30 7340 N 740.528 1.15101 1.07655 0
M  V30 7341 C 741.478 0.813448 2.12995 0
M  V30 7342 C 742.462 -0.200899 1.59641 0
M  V30 7343 O 743.654 -0.00209918 1.77 0
M  V30 7344 C 740.783 0.301078 3.41977 0
M  V30 7345 C 739.869 1.3454 4.02194 0
M  V30 7346 N 740.26 2.55181 4.36711 0
M  V30 7347 C 738.558 1.19742 4.29625 0
M  V30 7348 C 739.259 3.22094 4.84387 0
M  V30 7349 N 738.235 2.49486 4.82968 0
M  V30 7350 H 742.037 1.73105 2.37511 0
M  V30 7351 H 739.551 1.03601 1.25063 0
M  V30 7352 H 741.548 0.040914 4.1688 0
M  V30 7353 H 740.208 -0.610629 3.18907 0
M  V30 7354 H 741.219 2.92349 4.27496 0
M  V30 7355 H 737.896 0.345353 4.16069 0
M  V30 7356 H 739.286 4.24996 5.20411 0
M  V30 7357 N 742.006 -1.2595 0.947325 0
M  V30 7358 C 742.956 -2.23859 0.432547 0
M  V30 7359 C 743.94 -1.53755 -0.474154 0
M  V30 7360 O 745.132 -1.74293 -0.308397 0
M  V30 7361 C 742.261 -3.42027 -0.295318 0
M  V30 7362 C 741.347 -4.19409 0.62903 0
M  V30 7363 N 741.738 -4.74284 1.7575 0
M  V30 7364 C 740.036 -4.43866 0.435805 0
M  V30 7365 C 740.737 -5.32821 2.33401 0
M  V30 7366 N 739.713 -5.18858 1.62135 0
M  V30 7367 H 743.515 -2.63886 1.29388 0
M  V30 7368 H 741.029 -1.41105 0.80393 0
M  V30 7369 H 743.026 -4.11297 -0.681188 0
M  V30 7370 H 741.686 -3.03526 -1.15334 0
M  V30 7371 H 742.697 -4.71641 2.13952 0
M  V30 7372 H 739.374 -4.15768 -0.37994 0
M  V30 7373 H 740.764 -5.86111 3.28517 0
M  V30 7374 N 743.484 -0.715051 -1.40445 0
M  V30 7375 C 744.434 -0.038591 -2.27967 0
M  V30 7376 C 745.418 0.733099 -1.43229 0
M  V30 7377 O 746.61 0.605388 -1.66325 0
M  V30 7378 C 743.739 0.882801 -3.31755 0
M  V30 7379 C 742.825 0.106325 -4.23967 0
M  V30 7380 N 743.216 -0.910143 -4.97544 0
M  V30 7381 C 741.514 0.33896 -4.4471 0
M  V30 7382 C 742.215 -1.37665 -5.65175 0
M  V30 7383 N 741.191 -0.698905 -5.39088 0
M  V30 7384 H 744.993 -0.81765 -2.82297 0
M  V30 7385 H 742.507 -0.547591 -1.5289 0
M  V30 7386 H 744.504 1.38273 -3.93302 0
M  V30 7387 H 743.164 1.66124 -2.78985 0
M  V30 7388 H 744.175 -1.29097 -5.01552 0
M  V30 7389 H 740.852 1.09377 -4.02918 0
M  V30 7390 H 742.242 -2.22122 -6.34123 0
M  V30 7391 O 745.001 1.49816 -0.603118 0
M  V30 7392 H 745.692 1.93366 -0.113681 0
M  V30 END ATOM
M  V30 BEGIN BOND
M  V30 END BOND
M  V30 END CTAB
M  END
$$$$
